# Generated by pormake.
# Topology fno, (5)-cn, num edge types: 1
# Building blocks:
#     Node 0, Type 0, BuildingBlock: XOMCOT_clean_sbu_1, # of connection points: 5
#     Node 1, Type 0, BuildingBlock: XOMCOT_clean_sbu_1, # of connection points: 5
#     Node 2, Type 0, BuildingBlock: XOMCOT_clean_sbu_1, # of connection points: 5
#     Node 3, Type 0, BuildingBlock: XOMCOT_clean_sbu_1, # of connection points: 5
#     Node 4, Type 0, BuildingBlock: XOMCOT_clean_sbu_1, # of connection points: 5
#     Node 5, Type 0, BuildingBlock: XOMCOT_clean_sbu_1, # of connection points: 5
#     Node 6, Type 0, BuildingBlock: XOMCOT_clean_sbu_1, # of connection points: 5
#     Node 7, Type 0, BuildingBlock: XOMCOT_clean_sbu_1, # of connection points: 5
#     Node 8, Type 0, BuildingBlock: XOMCOT_clean_sbu_1, # of connection points: 5
#     Node 9, Type 0, BuildingBlock: XOMCOT_clean_sbu_1, # of connection points: 5
#     Node 10, Type 0, BuildingBlock: XOMCOT_clean_sbu_1, # of connection points: 5
#     Node 11, Type 0, BuildingBlock: XOMCOT_clean_sbu_1, # of connection points: 5
#     Node 12, Type 0, BuildingBlock: XOMCOT_clean_sbu_1, # of connection points: 5
#     Node 13, Type 0, BuildingBlock: XOMCOT_clean_sbu_1, # of connection points: 5
#     Node 14, Type 0, BuildingBlock: XOMCOT_clean_sbu_1, # of connection points: 5
#     Node 15, Type 0, BuildingBlock: XOMCOT_clean_sbu_1, # of connection points: 5
#     Node 16, Type 0, BuildingBlock: XOMCOT_clean_sbu_1, # of connection points: 5
#     Node 17, Type 0, BuildingBlock: XOMCOT_clean_sbu_1, # of connection points: 5
#     Node 18, Type 0, BuildingBlock: XOMCOT_clean_sbu_1, # of connection points: 5
#     Node 19, Type 0, BuildingBlock: XOMCOT_clean_sbu_1, # of connection points: 5
#     Node 20, Type 0, BuildingBlock: XOMCOT_clean_sbu_1, # of connection points: 5
#     Node 21, Type 0, BuildingBlock: XOMCOT_clean_sbu_1, # of connection points: 5
#     Node 22, Type 0, BuildingBlock: XOMCOT_clean_sbu_1, # of connection points: 5
#     Node 23, Type 0, BuildingBlock: XOMCOT_clean_sbu_1, # of connection points: 5
#     Node 24, Type 0, BuildingBlock: XOMCOT_clean_sbu_1, # of connection points: 5
#     Node 25, Type 0, BuildingBlock: XOMCOT_clean_sbu_1, # of connection points: 5
#     Node 26, Type 0, BuildingBlock: XOMCOT_clean_sbu_1, # of connection points: 5
#     Node 27, Type 0, BuildingBlock: XOMCOT_clean_sbu_1, # of connection points: 5
#     Node 28, Type 0, BuildingBlock: XOMCOT_clean_sbu_1, # of connection points: 5
#     Node 29, Type 0, BuildingBlock: XOMCOT_clean_sbu_1, # of connection points: 5
#     Node 30, Type 0, BuildingBlock: XOMCOT_clean_sbu_1, # of connection points: 5
#     Node 31, Type 0, BuildingBlock: XOMCOT_clean_sbu_1, # of connection points: 5
#     Node 32, Type 0, BuildingBlock: XOMCOT_clean_sbu_1, # of connection points: 5
#     Node 33, Type 0, BuildingBlock: XOMCOT_clean_sbu_1, # of connection points: 5
#     Node 34, Type 0, BuildingBlock: XOMCOT_clean_sbu_1, # of connection points: 5
#     Node 35, Type 0, BuildingBlock: XOMCOT_clean_sbu_1, # of connection points: 5
#     Node 36, Type 0, BuildingBlock: XOMCOT_clean_sbu_1, # of connection points: 5
#     Node 37, Type 0, BuildingBlock: XOMCOT_clean_sbu_1, # of connection points: 5
#     Node 38, Type 0, BuildingBlock: XOMCOT_clean_sbu_1, # of connection points: 5
#     Node 39, Type 0, BuildingBlock: XOMCOT_clean_sbu_1, # of connection points: 5
#     Node 40, Type 0, BuildingBlock: XOMCOT_clean_sbu_1, # of connection points: 5
#     Node 41, Type 0, BuildingBlock: XOMCOT_clean_sbu_1, # of connection points: 5
#     Node 42, Type 0, BuildingBlock: XOMCOT_clean_sbu_1, # of connection points: 5
#     Node 43, Type 0, BuildingBlock: XOMCOT_clean_sbu_1, # of connection points: 5
#     Node 44, Type 0, BuildingBlock: XOMCOT_clean_sbu_1, # of connection points: 5
#     Node 45, Type 0, BuildingBlock: XOMCOT_clean_sbu_1, # of connection points: 5
#     Node 46, Type 0, BuildingBlock: XOMCOT_clean_sbu_1, # of connection points: 5
#     Node 47, Type 0, BuildingBlock: XOMCOT_clean_sbu_1, # of connection points: 5
#     Edge 48, Type (0, 0), BuildingBlock: KIFKEQ_clean_linker_1, # of connection points: 2
#     Edge 49, Type (0, 0), BuildingBlock: KIFKEQ_clean_linker_1, # of connection points: 2
#     Edge 50, Type (0, 0), BuildingBlock: KIFKEQ_clean_linker_1, # of connection points: 2
#     Edge 51, Type (0, 0), BuildingBlock: KIFKEQ_clean_linker_1, # of connection points: 2
#     Edge 52, Type (0, 0), BuildingBlock: KIFKEQ_clean_linker_1, # of connection points: 2
#     Edge 53, Type (0, 0), BuildingBlock: KIFKEQ_clean_linker_1, # of connection points: 2
#     Edge 54, Type (0, 0), BuildingBlock: KIFKEQ_clean_linker_1, # of connection points: 2
#     Edge 55, Type (0, 0), BuildingBlock: KIFKEQ_clean_linker_1, # of connection points: 2
#     Edge 56, Type (0, 0), BuildingBlock: KIFKEQ_clean_linker_1, # of connection points: 2
#     Edge 57, Type (0, 0), BuildingBlock: KIFKEQ_clean_linker_1, # of connection points: 2
#     Edge 58, Type (0, 0), BuildingBlock: KIFKEQ_clean_linker_1, # of connection points: 2
#     Edge 59, Type (0, 0), BuildingBlock: KIFKEQ_clean_linker_1, # of connection points: 2
#     Edge 60, Type (0, 0), BuildingBlock: KIFKEQ_clean_linker_1, # of connection points: 2
#     Edge 61, Type (0, 0), BuildingBlock: KIFKEQ_clean_linker_1, # of connection points: 2
#     Edge 62, Type (0, 0), BuildingBlock: KIFKEQ_clean_linker_1, # of connection points: 2
#     Edge 63, Type (0, 0), BuildingBlock: KIFKEQ_clean_linker_1, # of connection points: 2
#     Edge 64, Type (0, 0), BuildingBlock: KIFKEQ_clean_linker_1, # of connection points: 2
#     Edge 65, Type (0, 0), BuildingBlock: KIFKEQ_clean_linker_1, # of connection points: 2
#     Edge 66, Type (0, 0), BuildingBlock: KIFKEQ_clean_linker_1, # of connection points: 2
#     Edge 67, Type (0, 0), BuildingBlock: KIFKEQ_clean_linker_1, # of connection points: 2
#     Edge 68, Type (0, 0), BuildingBlock: KIFKEQ_clean_linker_1, # of connection points: 2
#     Edge 69, Type (0, 0), BuildingBlock: KIFKEQ_clean_linker_1, # of connection points: 2
#     Edge 70, Type (0, 0), BuildingBlock: KIFKEQ_clean_linker_1, # of connection points: 2
#     Edge 71, Type (0, 0), BuildingBlock: KIFKEQ_clean_linker_1, # of connection points: 2
#     Edge 72, Type (0, 0), BuildingBlock: KIFKEQ_clean_linker_1, # of connection points: 2
#     Edge 73, Type (0, 0), BuildingBlock: KIFKEQ_clean_linker_1, # of connection points: 2
#     Edge 74, Type (0, 0), BuildingBlock: KIFKEQ_clean_linker_1, # of connection points: 2
#     Edge 75, Type (0, 0), BuildingBlock: KIFKEQ_clean_linker_1, # of connection points: 2
#     Edge 76, Type (0, 0), BuildingBlock: KIFKEQ_clean_linker_1, # of connection points: 2
#     Edge 77, Type (0, 0), BuildingBlock: KIFKEQ_clean_linker_1, # of connection points: 2
#     Edge 78, Type (0, 0), BuildingBlock: KIFKEQ_clean_linker_1, # of connection points: 2
#     Edge 79, Type (0, 0), BuildingBlock: KIFKEQ_clean_linker_1, # of connection points: 2
#     Edge 80, Type (0, 0), BuildingBlock: KIFKEQ_clean_linker_1, # of connection points: 2
#     Edge 81, Type (0, 0), BuildingBlock: KIFKEQ_clean_linker_1, # of connection points: 2
#     Edge 82, Type (0, 0), BuildingBlock: KIFKEQ_clean_linker_1, # of connection points: 2
#     Edge 83, Type (0, 0), BuildingBlock: KIFKEQ_clean_linker_1, # of connection points: 2
#     Edge 84, Type (0, 0), BuildingBlock: KIFKEQ_clean_linker_1, # of connection points: 2
#     Edge 85, Type (0, 0), BuildingBlock: KIFKEQ_clean_linker_1, # of connection points: 2
#     Edge 86, Type (0, 0), BuildingBlock: KIFKEQ_clean_linker_1, # of connection points: 2
#     Edge 87, Type (0, 0), BuildingBlock: KIFKEQ_clean_linker_1, # of connection points: 2
#     Edge 88, Type (0, 0), BuildingBlock: KIFKEQ_clean_linker_1, # of connection points: 2
#     Edge 89, Type (0, 0), BuildingBlock: KIFKEQ_clean_linker_1, # of connection points: 2
#     Edge 90, Type (0, 0), BuildingBlock: KIFKEQ_clean_linker_1, # of connection points: 2
#     Edge 91, Type (0, 0), BuildingBlock: KIFKEQ_clean_linker_1, # of connection points: 2
#     Edge 92, Type (0, 0), BuildingBlock: KIFKEQ_clean_linker_1, # of connection points: 2
#     Edge 93, Type (0, 0), BuildingBlock: KIFKEQ_clean_linker_1, # of connection points: 2
#     Edge 94, Type (0, 0), BuildingBlock: KIFKEQ_clean_linker_1, # of connection points: 2
#     Edge 95, Type (0, 0), BuildingBlock: KIFKEQ_clean_linker_1, # of connection points: 2
#     Edge 96, Type (0, 0), BuildingBlock: KIFKEQ_clean_linker_1, # of connection points: 2
#     Edge 97, Type (0, 0), BuildingBlock: KIFKEQ_clean_linker_1, # of connection points: 2
#     Edge 98, Type (0, 0), BuildingBlock: KIFKEQ_clean_linker_1, # of connection points: 2
#     Edge 99, Type (0, 0), BuildingBlock: KIFKEQ_clean_linker_1, # of connection points: 2
#     Edge 100, Type (0, 0), BuildingBlock: KIFKEQ_clean_linker_1, # of connection points: 2
#     Edge 101, Type (0, 0), BuildingBlock: KIFKEQ_clean_linker_1, # of connection points: 2
#     Edge 102, Type (0, 0), BuildingBlock: KIFKEQ_clean_linker_1, # of connection points: 2
#     Edge 103, Type (0, 0), BuildingBlock: KIFKEQ_clean_linker_1, # of connection points: 2
#     Edge 104, Type (0, 0), BuildingBlock: KIFKEQ_clean_linker_1, # of connection points: 2
#     Edge 105, Type (0, 0), BuildingBlock: KIFKEQ_clean_linker_1, # of connection points: 2
#     Edge 106, Type (0, 0), BuildingBlock: KIFKEQ_clean_linker_1, # of connection points: 2
#     Edge 107, Type (0, 0), BuildingBlock: KIFKEQ_clean_linker_1, # of connection points: 2
#     Edge 108, Type (0, 0), BuildingBlock: KIFKEQ_clean_linker_1, # of connection points: 2
#     Edge 109, Type (0, 0), BuildingBlock: KIFKEQ_clean_linker_1, # of connection points: 2
#     Edge 110, Type (0, 0), BuildingBlock: KIFKEQ_clean_linker_1, # of connection points: 2
#     Edge 111, Type (0, 0), BuildingBlock: KIFKEQ_clean_linker_1, # of connection points: 2
#     Edge 112, Type (0, 0), BuildingBlock: KIFKEQ_clean_linker_1, # of connection points: 2
#     Edge 113, Type (0, 0), BuildingBlock: KIFKEQ_clean_linker_1, # of connection points: 2
#     Edge 114, Type (0, 0), BuildingBlock: KIFKEQ_clean_linker_1, # of connection points: 2
#     Edge 115, Type (0, 0), BuildingBlock: KIFKEQ_clean_linker_1, # of connection points: 2
#     Edge 116, Type (0, 0), BuildingBlock: KIFKEQ_clean_linker_1, # of connection points: 2
#     Edge 117, Type (0, 0), BuildingBlock: KIFKEQ_clean_linker_1, # of connection points: 2
#     Edge 118, Type (0, 0), BuildingBlock: KIFKEQ_clean_linker_1, # of connection points: 2
#     Edge 119, Type (0, 0), BuildingBlock: KIFKEQ_clean_linker_1, # of connection points: 2
#     Edge 120, Type (0, 0), BuildingBlock: KIFKEQ_clean_linker_1, # of connection points: 2
#     Edge 121, Type (0, 0), BuildingBlock: KIFKEQ_clean_linker_1, # of connection points: 2
#     Edge 122, Type (0, 0), BuildingBlock: KIFKEQ_clean_linker_1, # of connection points: 2
#     Edge 123, Type (0, 0), BuildingBlock: KIFKEQ_clean_linker_1, # of connection points: 2
#     Edge 124, Type (0, 0), BuildingBlock: KIFKEQ_clean_linker_1, # of connection points: 2
#     Edge 125, Type (0, 0), BuildingBlock: KIFKEQ_clean_linker_1, # of connection points: 2
#     Edge 126, Type (0, 0), BuildingBlock: KIFKEQ_clean_linker_1, # of connection points: 2
#     Edge 127, Type (0, 0), BuildingBlock: KIFKEQ_clean_linker_1, # of connection points: 2
#     Edge 128, Type (0, 0), BuildingBlock: KIFKEQ_clean_linker_1, # of connection points: 2
#     Edge 129, Type (0, 0), BuildingBlock: KIFKEQ_clean_linker_1, # of connection points: 2
#     Edge 130, Type (0, 0), BuildingBlock: KIFKEQ_clean_linker_1, # of connection points: 2
#     Edge 131, Type (0, 0), BuildingBlock: KIFKEQ_clean_linker_1, # of connection points: 2
#     Edge 132, Type (0, 0), BuildingBlock: KIFKEQ_clean_linker_1, # of connection points: 2
#     Edge 133, Type (0, 0), BuildingBlock: KIFKEQ_clean_linker_1, # of connection points: 2
#     Edge 134, Type (0, 0), BuildingBlock: KIFKEQ_clean_linker_1, # of connection points: 2
#     Edge 135, Type (0, 0), BuildingBlock: KIFKEQ_clean_linker_1, # of connection points: 2
#     Edge 136, Type (0, 0), BuildingBlock: KIFKEQ_clean_linker_1, # of connection points: 2
#     Edge 137, Type (0, 0), BuildingBlock: KIFKEQ_clean_linker_1, # of connection points: 2
#     Edge 138, Type (0, 0), BuildingBlock: KIFKEQ_clean_linker_1, # of connection points: 2
#     Edge 139, Type (0, 0), BuildingBlock: KIFKEQ_clean_linker_1, # of connection points: 2
#     Edge 140, Type (0, 0), BuildingBlock: KIFKEQ_clean_linker_1, # of connection points: 2
#     Edge 141, Type (0, 0), BuildingBlock: KIFKEQ_clean_linker_1, # of connection points: 2
#     Edge 142, Type (0, 0), BuildingBlock: KIFKEQ_clean_linker_1, # of connection points: 2
#     Edge 143, Type (0, 0), BuildingBlock: KIFKEQ_clean_linker_1, # of connection points: 2
#     Edge 144, Type (0, 0), BuildingBlock: KIFKEQ_clean_linker_1, # of connection points: 2
#     Edge 145, Type (0, 0), BuildingBlock: KIFKEQ_clean_linker_1, # of connection points: 2
#     Edge 146, Type (0, 0), BuildingBlock: KIFKEQ_clean_linker_1, # of connection points: 2
#     Edge 147, Type (0, 0), BuildingBlock: KIFKEQ_clean_linker_1, # of connection points: 2
#     Edge 148, Type (0, 0), BuildingBlock: KIFKEQ_clean_linker_1, # of connection points: 2
#     Edge 149, Type (0, 0), BuildingBlock: KIFKEQ_clean_linker_1, # of connection points: 2
#     Edge 150, Type (0, 0), BuildingBlock: KIFKEQ_clean_linker_1, # of connection points: 2
#     Edge 151, Type (0, 0), BuildingBlock: KIFKEQ_clean_linker_1, # of connection points: 2
#     Edge 152, Type (0, 0), BuildingBlock: KIFKEQ_clean_linker_1, # of connection points: 2
#     Edge 153, Type (0, 0), BuildingBlock: KIFKEQ_clean_linker_1, # of connection points: 2
#     Edge 154, Type (0, 0), BuildingBlock: KIFKEQ_clean_linker_1, # of connection points: 2
#     Edge 155, Type (0, 0), BuildingBlock: KIFKEQ_clean_linker_1, # of connection points: 2
#     Edge 156, Type (0, 0), BuildingBlock: KIFKEQ_clean_linker_1, # of connection points: 2
#     Edge 157, Type (0, 0), BuildingBlock: KIFKEQ_clean_linker_1, # of connection points: 2
#     Edge 158, Type (0, 0), BuildingBlock: KIFKEQ_clean_linker_1, # of connection points: 2
#     Edge 159, Type (0, 0), BuildingBlock: KIFKEQ_clean_linker_1, # of connection points: 2
#     Edge 160, Type (0, 0), BuildingBlock: KIFKEQ_clean_linker_1, # of connection points: 2
#     Edge 161, Type (0, 0), BuildingBlock: KIFKEQ_clean_linker_1, # of connection points: 2
#     Edge 162, Type (0, 0), BuildingBlock: KIFKEQ_clean_linker_1, # of connection points: 2
#     Edge 163, Type (0, 0), BuildingBlock: KIFKEQ_clean_linker_1, # of connection points: 2
#     Edge 164, Type (0, 0), BuildingBlock: KIFKEQ_clean_linker_1, # of connection points: 2
#     Edge 165, Type (0, 0), BuildingBlock: KIFKEQ_clean_linker_1, # of connection points: 2
#     Edge 166, Type (0, 0), BuildingBlock: KIFKEQ_clean_linker_1, # of connection points: 2
#     Edge 167, Type (0, 0), BuildingBlock: KIFKEQ_clean_linker_1, # of connection points: 2
# Relax obj value: 0.379
# Max RMSD: 0.268
# Mean RMSD: 0.180
data_MOF--net-fno--node1-XOMCOT_clean_sbu_1--edge1-KIFKEQ_clean_linker_1
_symmetry_space_group_name_H-M    P1
_symmetry_Int_Tables_number       1
_symmetry_cell_setting            triclinic
loop_
_symmetry_equiv_pos_as_xyz
'x, y, z'
_cell_length_a     59.5358
_cell_length_b     58.584405
_cell_length_c     59.074187
_cell_angle_alpha  92.007882
_cell_angle_beta   90.750128
_cell_angle_gamma 94.345047
loop_
_atom_site_label
_atom_site_type_symbol
_atom_site_fract_x
_atom_site_fract_y
_atom_site_fract_z
_atom_type_partial_charge
C0 C 0.12173 0.32772 0.06624 0.0
C1 C 0.12318 0.33133 0.04328 0.0
N2 N 0.11297 0.35048 0.03875 0.0
N3 N 0.11108 0.34482 0.07625 0.0
C4 C 0.10477 0.35747 0.05884 0.0
H5 H 0.12993 0.31488 0.07534 0.0
Co6 Co 0.11024 0.35263 0.10759 0.0
C7 C 0.11721 0.40163 0.08962 0.0
O8 O 0.1331 0.39707 0.07554 0.0
N9 N 0.1086 0.36105 0.13883 0.0
C10 C 0.11408 0.38214 0.17082 0.0
C11 C 0.11535 0.3821 0.14775 0.0
C12 C 0.10341 0.34847 0.15717 0.0
N13 N 0.10663 0.36107 0.1767 0.0
O14 O 0.07773 0.34576 0.10677 0.0
H15 H 0.12241 0.3963 0.1384 0.0
H16 H 0.09882 0.33024 0.15637 0.0
O17 O 0.1074 0.38591 0.10143 0.0
C18 C 0.07409 0.32464 0.11146 0.0
O19 O 0.0916 0.31264 0.11446 0.0
N20 N 0.14293 0.35629 0.10961 0.0
C21 C 0.18933 0.36473 0.11787 0.0
C22 C 0.17999 0.36794 0.09642 0.0
C23 C 0.15697 0.36283 0.09247 0.0
C24 C 0.15258 0.3495 0.12923 0.0
C25 C 0.17549 0.35427 0.13403 0.0
H26 H 0.15085 0.36402 0.07542 0.0
H27 H 0.1427 0.34038 0.14161 0.0
H28 H 0.09547 0.37249 0.06096 0.0
H29 H 0.1329 0.32186 0.03134 0.0
H30 H 0.11962 0.39614 0.18253 0.0
H31 H 0.19017 0.37485 0.08286 0.0
H32 H 0.18224 0.34981 0.15026 0.0
C33 C 0.93866 0.84162 0.31968 0.0
C34 C 0.93134 0.84115 0.29735 0.0
N35 N 0.90917 0.83448 0.29653 0.0
N36 N 0.92124 0.83524 0.33299 0.0
C37 C 0.90364 0.83059 0.31829 0.0
H38 H 0.95535 0.8474 0.32595 0.0
Co39 Co 0.92201 0.83716 0.36505 0.0
C40 C 0.87424 0.84067 0.37884 0.0
O41 O 0.8823 0.85257 0.39675 0.0
N42 N 0.92312 0.83863 0.39809 0.0
C43 C 0.91689 0.82636 0.43313 0.0
C44 C 0.91584 0.82051 0.41035 0.0
C45 C 0.9287 0.85535 0.41439 0.0
N46 N 0.92487 0.84839 0.43575 0.0
O47 O 0.92818 0.80434 0.36538 0.0
H48 H 0.90908 0.80416 0.40316 0.0
H49 H 0.93496 0.87256 0.41114 0.0
O50 O 0.88804 0.83111 0.36549 0.0
C51 C 0.94904 0.80096 0.36876 0.0
O52 O 0.96346 0.81889 0.3721 0.0
N53 N 0.91847 0.86902 0.36345 0.0
C54 C 0.91222 0.91557 0.36496 0.0
C55 C 0.89674 0.90009 0.35342 0.0
C56 C 0.90039 0.87696 0.35251 0.0
C57 C 0.93554 0.88429 0.37113 0.0
C58 C 0.93231 0.90771 0.37318 0.0
H59 H 0.88823 0.86547 0.34342 0.0
H60 H 0.95117 0.87812 0.37707 0.0
H61 H 0.88685 0.82512 0.3234 0.0
H62 H 0.94126 0.84667 0.28303 0.0
H63 H 0.91118 0.81545 0.44665 0.0
H64 H 0.88134 0.90563 0.34614 0.0
H65 H 0.94506 0.91941 0.38147 0.0
C66 C 0.44232 0.65479 0.66393 0.0
C67 C 0.43891 0.65062 0.68645 0.0
N68 N 0.41973 0.65978 0.69273 0.0
N69 N 0.4253 0.66639 0.65615 0.0
C70 C 0.41224 0.6698 0.67418 0.0
H71 H 0.45526 0.64815 0.65345 0.0
Co72 Co 0.41868 0.6704 0.62601 0.0
C73 C 0.36864 0.66559 0.62132 0.0
O74 O 0.372 0.65423 0.60224 0.0
N75 N 0.41256 0.67526 0.59533 0.0
C76 C 0.3987 0.69199 0.56552 0.0
C77 C 0.40114 0.69299 0.58864 0.0
C78 C 0.4177 0.66433 0.57574 0.0
N79 N 0.40909 0.67387 0.55741 0.0
O80 O 0.42836 0.70265 0.62982 0.0
H81 H 0.3944 0.70554 0.6 0.0
H82 H 0.42782 0.64995 0.57456 0.0
O83 O 0.38576 0.67448 0.63308 0.0
C84 C 0.44953 0.70379 0.62603 0.0
O85 O 0.45872 0.68461 0.62083 0.0
N86 N 0.41203 0.63843 0.62273 0.0
C87 C 0.40385 0.59123 0.61903 0.0
C88 C 0.39141 0.6041 0.6339 0.0
C89 C 0.39611 0.62757 0.63589 0.0
C90 C 0.42622 0.62573 0.61051 0.0
C91 C 0.42182 0.60202 0.60753 0.0
H92 H 0.38711 0.63686 0.64839 0.0
H93 H 0.44127 0.6339 0.60342 0.0
H94 H 0.39669 0.67813 0.67334 0.0
H95 H 0.44875 0.64004 0.69677 0.0
H96 H 0.38947 0.70344 0.55561 0.0
H97 H 0.37801 0.59609 0.64383 0.0
H98 H 0.43255 0.59223 0.59689 0.0
C99 C 0.60245 0.17955 0.91709 0.0
C100 C 0.60599 0.17743 0.93998 0.0
N101 N 0.6034 0.15502 0.94464 0.0
N102 N 0.59777 0.1586 0.90729 0.0
C103 C 0.59827 0.14401 0.92455 0.0
H104 H 0.60397 0.19528 0.90799 0.0
Co105 Co 0.59465 0.15294 0.87612 0.0
C106 C 0.59993 0.10289 0.86907 0.0
O107 O 0.61002 0.10849 0.8502 0.0
N108 N 0.59098 0.14741 0.844 0.0
C109 C 0.57527 0.13315 0.81148 0.0
C110 C 0.57271 0.13547 0.83454 0.0
C111 C 0.60423 0.15244 0.82596 0.0
N112 N 0.59522 0.14378 0.80605 0.0
O113 O 0.56232 0.15752 0.87825 0.0
H114 H 0.5586 0.12822 0.84395 0.0
H115 H 0.62061 0.16147 0.82708 0.0
O116 O 0.59106 0.11866 0.88096 0.0
C117 C 0.55903 0.17797 0.87246 0.0
O118 O 0.57638 0.19102 0.86568 0.0
N119 N 0.62624 0.15233 0.87468 0.0
C120 C 0.67242 0.15491 0.86818 0.0
C121 C 0.66217 0.13749 0.88098 0.0
C122 C 0.63898 0.13677 0.88448 0.0
C123 C 0.63663 0.17128 0.86547 0.0
C124 C 0.65965 0.17246 0.86107 0.0
H125 H 0.63141 0.12361 0.89488 0.0
H126 H 0.62667 0.18487 0.8601 0.0
H127 H 0.59618 0.12557 0.92236 0.0
H128 H 0.61062 0.19127 0.95216 0.0
H129 H 0.56335 0.12413 0.79971 0.0
H130 H 0.67185 0.1242 0.88758 0.0
H131 H 0.6673 0.18664 0.85188 0.0
C132 C 0.11649 0.67876 0.41572 0.0
C133 C 0.11817 0.67751 0.43883 0.0
N134 N 0.10159 0.66258 0.44599 0.0
N135 N 0.0993 0.66427 0.40784 0.0
C136 C 0.0894 0.65626 0.42684 0.0
H137 H 0.12847 0.68803 0.40516 0.0
Co138 Co 0.09579 0.65455 0.37685 0.0
C139 C 0.09299 0.60603 0.40045 0.0
O140 O 0.099 0.61329 0.42098 0.0
N141 N 0.09246 0.64529 0.34527 0.0
C142 C 0.08786 0.62253 0.31425 0.0
C143 C 0.0853 0.62405 0.33726 0.0
C144 C 0.09855 0.65657 0.3262 0.0
N145 N 0.09633 0.64295 0.30709 0.0
O146 O 0.06349 0.66064 0.37784 0.0
H147 H 0.07908 0.60997 0.34731 0.0
H148 H 0.1047 0.67439 0.32624 0.0
O149 O 0.0913 0.62044 0.38454 0.0
C150 C 0.06211 0.68109 0.37091 0.0
O151 O 0.08091 0.69234 0.36492 0.0
N152 N 0.12724 0.65199 0.37508 0.0
C153 C 0.17359 0.6506 0.36916 0.0
C154 C 0.16224 0.63693 0.38504 0.0
C155 C 0.13915 0.63788 0.38771 0.0
C156 C 0.13849 0.66731 0.36161 0.0
C157 C 0.16152 0.66649 0.35783 0.0
H158 H 0.13135 0.62778 0.40052 0.0
H159 H 0.12965 0.68046 0.35386 0.0
H160 H 0.07469 0.64423 0.42631 0.0
H161 H 0.13202 0.6854 0.44906 0.0
H162 H 0.08459 0.60707 0.30381 0.0
H163 H 0.17108 0.6255 0.39538 0.0
H164 H 0.16956 0.67792 0.34585 0.0
C165 C 0.61989 0.82167 0.57452 0.0
C166 C 0.62162 0.82311 0.55134 0.0
N167 N 0.61419 0.84325 0.54547 0.0
N168 N 0.61167 0.84098 0.58291 0.0
C169 C 0.60753 0.85329 0.56476 0.0
H170 H 0.62612 0.80849 0.58476 0.0
Co171 Co 0.61112 0.85113 0.61273 0.0
C172 C 0.62575 0.90075 0.61159 0.0
O173 O 0.63961 0.89652 0.62819 0.0
N174 N 0.60914 0.86115 0.6432 0.0
C175 C 0.59775 0.88126 0.67296 0.0
C176 C 0.59909 0.88015 0.64996 0.0
C177 C 0.61212 0.85009 0.66263 0.0
N178 N 0.60567 0.8622 0.68093 0.0
O179 O 0.57857 0.84646 0.61184 0.0
H180 H 0.59199 0.89212 0.63892 0.0
H181 H 0.61715 0.83281 0.66336 0.0
O182 O 0.61198 0.88433 0.60343 0.0
C183 C 0.5745 0.82627 0.61914 0.0
O184 O 0.59172 0.81461 0.62443 0.0
N185 N 0.64335 0.85287 0.61361 0.0
C186 C 0.69004 0.85906 0.61757 0.0
C187 C 0.67888 0.86758 0.59912 0.0
C188 C 0.65555 0.86386 0.59716 0.0
C189 C 0.65442 0.84178 0.62983 0.0
C190 C 0.67784 0.84512 0.6325 0.0
H191 H 0.64724 0.87124 0.58315 0.0
H192 H 0.64527 0.83052 0.64098 0.0
H193 H 0.60184 0.87038 0.5657 0.0
H194 H 0.6299 0.81151 0.54012 0.0
H195 H 0.59093 0.89485 0.68297 0.0
H196 H 0.68799 0.87798 0.58693 0.0
H197 H 0.68615 0.8377 0.64658 0.0
C198 C 0.44181 0.34647 0.82043 0.0
C199 C 0.43468 0.34806 0.79829 0.0
N200 N 0.41362 0.33782 0.79574 0.0
N201 N 0.42543 0.33537 0.83217 0.0
C202 C 0.40888 0.3295 0.81649 0.0
H203 H 0.45704 0.35485 0.82799 0.0
Co204 Co 0.42435 0.33703 0.86431 0.0
C205 C 0.37582 0.33802 0.87513 0.0
O206 O 0.3823 0.35076 0.89309 0.0
N207 N 0.4234 0.33828 0.89742 0.0
C208 C 0.41464 0.32569 0.93184 0.0
C209 C 0.41564 0.31992 0.90909 0.0
C210 C 0.42738 0.35496 0.91409 0.0
N211 N 0.42187 0.34791 0.93509 0.0
O212 O 0.43233 0.30486 0.86518 0.0
H213 H 0.40999 0.30342 0.90144 0.0
H214 H 0.43315 0.37234 0.91122 0.0
O215 O 0.3908 0.32904 0.8628 0.0
C216 C 0.45334 0.30397 0.86996 0.0
O217 O 0.46543 0.32353 0.87343 0.0
N218 N 0.41898 0.36851 0.86238 0.0
C219 C 0.40678 0.41327 0.86428 0.0
C220 C 0.39529 0.39688 0.84978 0.0
C221 C 0.40159 0.37466 0.84918 0.0
C222 C 0.43361 0.38534 0.87181 0.0
C223 C 0.42723 0.40787 0.87415 0.0
H224 H 0.39174 0.36235 0.83868 0.0
H225 H 0.44945 0.38101 0.87905 0.0
H226 H 0.39286 0.32106 0.82077 0.0
H227 H 0.44381 0.35781 0.7857 0.0
H228 H 0.40867 0.3143 0.94485 0.0
H229 H 0.38061 0.40074 0.84001 0.0
H230 H 0.43751 0.42036 0.88445 0.0
C231 C 0.94213 0.14645 0.16085 0.0
C232 C 0.94163 0.14403 0.18388 0.0
N233 N 0.92841 0.15959 0.19296 0.0
N234 N 0.92891 0.16311 0.15524 0.0
C235 C 0.92185 0.17156 0.17519 0.0
H236 H 0.94987 0.13529 0.14877 0.0
Co237 Co 0.91884 0.16778 0.12579 0.0
C238 C 0.87108 0.17827 0.14737 0.0
O239 O 0.87501 0.19342 0.16411 0.0
N240 N 0.90946 0.17226 0.09614 0.0
C241 C 0.88868 0.17413 0.06488 0.0
C242 C 0.88864 0.17557 0.0881 0.0
C243 C 0.92199 0.16969 0.07745 0.0
N244 N 0.90963 0.17045 0.05832 0.0
O245 O 0.92872 0.20013 0.1291 0.0
H246 H 0.8739 0.17761 0.09817 0.0
H247 H 0.93944 0.1657 0.07783 0.0
O248 O 0.8876 0.17135 0.13601 0.0
C249 C 0.94985 0.20155 0.12507 0.0
O250 O 0.95929 0.18244 0.12024 0.0
N251 N 0.91106 0.13618 0.12204 0.0
C252 C 0.9002 0.08942 0.11633 0.0
C253 C 0.89071 0.10198 0.13383 0.0
C254 C 0.89649 0.12528 0.13652 0.0
C255 C 0.92159 0.12387 0.10584 0.0
C256 C 0.91596 0.10045 0.10229 0.0
H257 H 0.88951 0.13438 0.15064 0.0
H258 H 0.93465 0.13201 0.0958 0.0
H259 H 0.91137 0.18562 0.17653 0.0
H260 H 0.94873 0.13036 0.19274 0.0
H261 H 0.87414 0.1742 0.05368 0.0
H262 H 0.87862 0.09393 0.14519 0.0
H263 H 0.92405 0.09104 0.08898 0.0
C264 C 0.13119 0.06862 0.3727 0.0
C265 C 0.15395 0.07122 0.37713 0.0
N266 N 0.16096 0.0934 0.37482 0.0
N267 N 0.12383 0.08905 0.36767 0.0
C268 C 0.14241 0.10385 0.36886 0.0
H269 H 0.12049 0.05297 0.37393 0.0
Co270 Co 0.09346 0.09323 0.36377 0.0
C271 C 0.08868 0.14354 0.36684 0.0
O272 O 0.06997 0.13796 0.3775 0.0
N273 N 0.06174 0.09657 0.35947 0.0
C274 C 0.02941 0.10319 0.3421 0.0
C275 C 0.05231 0.10227 0.33969 0.0
C276 C 0.04392 0.09424 0.37364 0.0
N277 N 0.02417 0.09824 0.36354 0.0
O278 O 0.09596 0.08378 0.33223 0.0
H279 H 0.06156 0.10602 0.32447 0.0
H280 H 0.04509 0.09019 0.39123 0.0
O281 O 0.10039 0.1274 0.35905 0.0
C282 C 0.08904 0.06249 0.33225 0.0
O283 O 0.08056 0.05436 0.35103 0.0
N284 N 0.09192 0.09811 0.39482 0.0
C285 C 0.09251 0.09732 0.44154 0.0
C286 C 0.10393 0.11542 0.43058 0.0
C287 C 0.10374 0.11533 0.40708 0.0
C288 C 0.08265 0.07938 0.40534 0.0
C289 C 0.08195 0.07899 0.42883 0.0
H290 H 0.11374 0.12868 0.39894 0.0
H291 H 0.07533 0.06481 0.39533 0.0
H292 H 0.14221 0.12208 0.36669 0.0
H293 H 0.16445 0.05791 0.38217 0.0
H294 H 0.01765 0.10793 0.32927 0.0
H295 H 0.11271 0.1296 0.44011 0.0
H296 H 0.07342 0.06455 0.43696 0.0
C297 C 0.20027 0.9626 0.59595 0.0
C298 C 0.19329 0.98436 0.60038 0.0
N299 N 0.17052 0.98346 0.5998 0.0
N300 N 0.18216 0.94765 0.59231 0.0
C301 C 0.16441 0.96106 0.59443 0.0
H302 H 0.21739 0.95775 0.59726 0.0
Co303 Co 0.18113 0.91489 0.59518 0.0
C304 C 0.1354 0.89835 0.57625 0.0
O305 O 0.14158 0.87863 0.56821 0.0
N306 N 0.17836 0.88194 0.5995 0.0
C307 C 0.16245 0.84985 0.61392 0.0
C308 C 0.16222 0.873 0.61341 0.0
C309 C 0.18809 0.86293 0.59142 0.0
N310 N 0.17855 0.84332 0.60013 0.0
O311 O 0.19248 0.91012 0.56363 0.0
H312 H 0.1498 0.88239 0.62197 0.0
H313 H 0.2013 0.86329 0.57902 0.0
O314 O 0.14987 0.91303 0.58552 0.0
C315 C 0.21385 0.908 0.56406 0.0
O316 O 0.2239 0.90962 0.58406 0.0
N317 N 0.17336 0.91966 0.62561 0.0
C318 C 0.16402 0.91567 0.67129 0.0
C319 C 0.14801 0.92352 0.6564 0.0
C320 C 0.15299 0.92543 0.63352 0.0
C321 C 0.18994 0.91448 0.64025 0.0
C322 C 0.18554 0.91206 0.66321 0.0
H323 H 0.13973 0.92954 0.62212 0.0
H324 H 0.2061 0.91038 0.63372 0.0
H325 H 0.14715 0.9542 0.59407 0.0
H326 H 0.20433 0.9994 0.60484 0.0
H327 H 0.15095 0.83842 0.62306 0.0
H328 H 0.13114 0.92633 0.66197 0.0
H329 H 0.19842 0.90626 0.67428 0.0
C330 C 0.41416 0.90997 0.84719 0.0
C331 C 0.43695 0.91423 0.85065 0.0
N332 N 0.4407 0.92051 0.8725 0.0
N333 N 0.40304 0.91379 0.86669 0.0
C334 C 0.42003 0.92056 0.88167 0.0
H335 H 0.40697 0.90174 0.83196 0.0
Co336 Co 0.37162 0.90564 0.87348 0.0
C337 C 0.38018 0.91138 0.91573 0.0
O338 O 0.38696 0.89167 0.90836 0.0
N339 N 0.34131 0.89693 0.88126 0.0
C340 C 0.31556 0.87247 0.89595 0.0
C341 C 0.33799 0.87883 0.89465 0.0
C342 C 0.32011 0.90135 0.87457 0.0
N343 N 0.30417 0.88621 0.88301 0.0
O344 O 0.36247 0.93049 0.85184 0.0
H345 H 0.35117 0.86952 0.90178 0.0
H346 H 0.31663 0.91389 0.86222 0.0
O347 O 0.37379 0.92539 0.90099 0.0
C348 C 0.36472 0.93058 0.82999 0.0
O349 O 0.3729 0.9132 0.81934 0.0
N350 N 0.36926 0.88234 0.85073 0.0
C351 C 0.35488 0.8369 0.84154 0.0
C352 C 0.37636 0.84271 0.85079 0.0
C353 C 0.38306 0.86559 0.85569 0.0
C354 C 0.34971 0.87701 0.83853 0.0
C355 C 0.34198 0.85422 0.83413 0.0
H356 H 0.39774 0.86947 0.86648 0.0
H357 H 0.3384 0.89006 0.83503 0.0
H358 H 0.41777 0.92432 0.89943 0.0
H359 H 0.44984 0.91047 0.83861 0.0
H360 H 0.30824 0.85786 0.90474 0.0
H361 H 0.38652 0.82966 0.85715 0.0
H362 H 0.32516 0.8502 0.82718 0.0
C363 C 0.33947 0.07289 0.10156 0.0
C364 C 0.34156 0.04993 0.10491 0.0
N365 N 0.36366 0.04656 0.10657 0.0
N366 N 0.36014 0.08392 0.10099 0.0
C367 C 0.37445 0.06742 0.10412 0.0
H368 H 0.32388 0.08099 0.09951 0.0
Co369 Co 0.36673 0.11496 0.09564 0.0
C370 C 0.41692 0.12206 0.09341 0.0
O371 O 0.4151 0.14239 0.10296 0.0
N372 N 0.37319 0.14603 0.08919 0.0
C373 C 0.38487 0.17531 0.06825 0.0
C374 C 0.38146 0.15204 0.06885 0.0
C375 C 0.37161 0.16624 0.10065 0.0
N376 N 0.37888 0.18429 0.08834 0.0
O377 O 0.35547 0.10999 0.06377 0.0
H378 H 0.38542 0.14015 0.05533 0.0
H379 H 0.36604 0.16789 0.11787 0.0
O380 O 0.39897 0.10896 0.0886 0.0
C381 C 0.33618 0.11847 0.06252 0.0
O382 O 0.32745 0.12553 0.08161 0.0
N383 N 0.37413 0.12034 0.12721 0.0
C384 C 0.3801 0.13155 0.17382 0.0
C385 C 0.3958 0.11917 0.16193 0.0
C386 C 0.39225 0.11328 0.13883 0.0
C387 C 0.3578 0.13058 0.13894 0.0
C388 C 0.36059 0.13673 0.16202 0.0
H389 H 0.40408 0.10286 0.13059 0.0
H390 H 0.3427 0.13473 0.13008 0.0
H391 H 0.39251 0.07045 0.10423 0.0
H392 H 0.32787 0.03683 0.10629 0.0
H393 H 0.39147 0.18477 0.05409 0.0
H394 H 0.41057 0.11373 0.17048 0.0
H395 H 0.34774 0.14591 0.17037 0.0
C396 C 0.15414 0.9319 0.18488 0.0
C397 C 0.17686 0.93193 0.18135 0.0
N398 N 0.1826 0.91015 0.18194 0.0
N399 N 0.14566 0.91024 0.18773 0.0
C400 C 0.16341 0.89737 0.18607 0.0
H401 H 0.14429 0.94663 0.18449 0.0
Co402 Co 0.11538 0.90221 0.18992 0.0
C403 C 0.10864 0.85119 0.18691 0.0
O404 O 0.08945 0.85436 0.17673 0.0
N405 N 0.08417 0.8951 0.19279 0.0
C406 C 0.05159 0.88151 0.207 0.0
C407 C 0.07447 0.88467 0.21066 0.0
C408 C 0.06669 0.89889 0.17899 0.0
N409 N 0.0468 0.89037 0.18693 0.0
O410 O 0.11677 0.91184 0.22162 0.0
H411 H 0.08361 0.87893 0.22508 0.0
H412 H 0.06817 0.90781 0.16344 0.0
O413 O 0.12105 0.86883 0.19484 0.0
C414 C 0.10996 0.93207 0.2211 0.0
O415 O 0.10412 0.93979 0.20142 0.0
N416 N 0.11441 0.89647 0.15846 0.0
C417 C 0.11058 0.8923 0.11169 0.0
C418 C 0.12146 0.87613 0.12372 0.0
C419 C 0.12398 0.87903 0.14708 0.0
C420 C 0.10648 0.91381 0.14666 0.0
C421 C 0.10382 0.91183 0.12322 0.0
H422 H 0.13399 0.86742 0.1557 0.0
H423 H 0.10146 0.92895 0.15564 0.0
H424 H 0.16216 0.87894 0.18656 0.0
H425 H 0.18814 0.94675 0.17804 0.0
H426 H 0.03958 0.8727 0.21789 0.0
H427 H 0.12833 0.86165 0.11509 0.0
H428 H 0.09617 0.92518 0.11429 0.0
C429 C 0.37174 0.83911 0.43497 0.0
C430 C 0.37295 0.81599 0.43018 0.0
N431 N 0.36623 0.81134 0.40849 0.0
N432 N 0.36432 0.84914 0.41641 0.0
C433 C 0.36073 0.83166 0.40077 0.0
H434 H 0.37748 0.84829 0.45043 0.0
Co435 Co 0.36617 0.88086 0.41165 0.0
C436 C 0.34636 0.88176 0.36326 0.0
O437 O 0.33329 0.89845 0.36746 0.0
N438 N 0.36876 0.91239 0.40601 0.0
C439 C 0.37941 0.94364 0.38742 0.0
C440 C 0.37796 0.92034 0.3867 0.0
C441 C 0.36547 0.93159 0.41866 0.0
N442 N 0.37158 0.95077 0.40742 0.0
O443 O 0.33428 0.88275 0.42197 0.0
H444 H 0.38421 0.90987 0.37311 0.0
H445 H 0.35923 0.9316 0.43577 0.0
O446 O 0.35796 0.87433 0.3794 0.0
C447 C 0.33423 0.88733 0.44348 0.0
O448 O 0.35391 0.88924 0.454 0.0
N449 N 0.39722 0.87991 0.40472 0.0
C450 C 0.44253 0.88836 0.39333 0.0
C451 C 0.42782 0.87375 0.37966 0.0
C452 C 0.40531 0.86945 0.38582 0.0
C453 C 0.41168 0.8927 0.41914 0.0
C454 C 0.43443 0.89718 0.41376 0.0
H455 H 0.39432 0.85846 0.37488 0.0
H456 H 0.40521 0.9006 0.43429 0.0
H457 H 0.35593 0.8339 0.38339 0.0
H458 H 0.37941 0.80383 0.44151 0.0
H459 H 0.38666 0.95463 0.37461 0.0
H460 H 0.43356 0.86608 0.36403 0.0
H461 H 0.44525 0.9084 0.42489 0.0
C462 C 0.40219 0.10072 0.70285 0.0
C463 C 0.42521 0.10452 0.70182 0.0
N464 N 0.43273 0.09026 0.68562 0.0
N465 N 0.39528 0.08433 0.68722 0.0
C466 C 0.4142 0.07759 0.67791 0.0
H467 H 0.39111 0.11062 0.71292 0.0
Co468 Co 0.36635 0.0766 0.6766 0.0
C469 C 0.38719 0.06853 0.62572 0.0
O470 O 0.40043 0.05162 0.62646 0.0
N471 N 0.33696 0.0688 0.66618 0.0
C472 C 0.30655 0.06163 0.6442 0.0
C473 C 0.32955 0.06092 0.64545 0.0
C474 C 0.3181 0.07303 0.67747 0.0
N475 N 0.29945 0.06968 0.66429 0.0
O476 O 0.36907 0.04484 0.68543 0.0
H477 H 0.34011 0.05623 0.63159 0.0
H478 H 0.31805 0.07946 0.6948 0.0
O479 O 0.37723 0.07451 0.64401 0.0
C480 C 0.36316 0.04716 0.70629 0.0
O481 O 0.35723 0.06741 0.71308 0.0
N482 N 0.36285 0.1074 0.67249 0.0
C483 C 0.35437 0.15292 0.6701 0.0
C484 C 0.3696 0.14349 0.65527 0.0
C485 C 0.37396 0.12067 0.65702 0.0
C486 C 0.35002 0.11713 0.68856 0.0
C487 C 0.34509 0.1398 0.6874 0.0
H488 H 0.38642 0.114 0.64608 0.0
H489 H 0.34373 0.10736 0.70254 0.0
H490 H 0.41409 0.06501 0.66425 0.0
H491 H 0.43522 0.11807 0.71101 0.0
H492 H 0.29618 0.0583 0.62908 0.0
H493 H 0.37755 0.15341 0.64203 0.0
H494 H 0.33401 0.14693 0.69974 0.0
C495 C 0.18346 0.20044 0.93388 0.0
C496 C 0.18259 0.22285 0.92778 0.0
N497 N 0.18781 0.22442 0.90566 0.0
N498 N 0.18917 0.18765 0.91581 0.0
C499 C 0.19223 0.20281 0.89904 0.0
H500 H 0.17866 0.19358 0.95003 0.0
Co501 Co 0.18639 0.15534 0.91472 0.0
C502 C 0.18058 0.14124 0.86583 0.0
O503 O 0.16799 0.12344 0.87245 0.0
N504 N 0.18402 0.1223 0.91384 0.0
C505 C 0.19461 0.08726 0.90542 0.0
C506 C 0.20121 0.11021 0.90663 0.0
C507 C 0.16709 0.10578 0.91713 0.0
N508 N 0.17299 0.0844 0.91178 0.0
O509 O 0.2189 0.15488 0.92198 0.0
H510 H 0.21738 0.11762 0.90129 0.0
H511 H 0.15022 0.10906 0.92174 0.0
O512 O 0.19065 0.15508 0.88081 0.0
C513 C 0.22258 0.15028 0.94275 0.0
O514 O 0.20523 0.14724 0.9561 0.0
N515 N 0.15483 0.1567 0.91038 0.0
C516 C 0.1084 0.15757 0.90405 0.0
C517 C 0.12337 0.16776 0.88869 0.0
C518 C 0.14638 0.16758 0.89245 0.0
C519 C 0.14062 0.14955 0.9271 0.0
C520 C 0.11718 0.14891 0.92388 0.0
H521 H 0.15731 0.17632 0.88082 0.0
H522 H 0.14746 0.14328 0.94256 0.0
H523 H 0.19638 0.19783 0.88194 0.0
H524 H 0.177 0.23651 0.93859 0.0
H525 H 0.20487 0.07381 0.89964 0.0
H526 H 0.11745 0.17524 0.87341 0.0
H527 H 0.10612 0.14165 0.9366 0.0
C528 C 0.86813 0.33978 0.93326 0.0
C529 C 0.86785 0.31658 0.92773 0.0
N530 N 0.86133 0.31325 0.90587 0.0
N531 N 0.86172 0.35102 0.915 0.0
C532 C 0.85724 0.33421 0.89882 0.0
H533 H 0.87428 0.34805 0.94903 0.0
Co534 Co 0.86502 0.38303 0.91083 0.0
C535 C 0.84691 0.38488 0.86165 0.0
O536 O 0.83429 0.40208 0.86515 0.0
N537 N 0.8688 0.41485 0.90579 0.0
C538 C 0.88085 0.4463 0.8881 0.0
C539 C 0.87918 0.42294 0.88712 0.0
C540 C 0.86476 0.43401 0.91824 0.0
N541 N 0.87181 0.45329 0.90758 0.0
O542 O 0.83336 0.38593 0.92036 0.0
H543 H 0.88583 0.41248 0.87374 0.0
H544 H 0.85703 0.43391 0.93471 0.0
O545 O 0.85771 0.37732 0.87828 0.0
C546 C 0.83396 0.38936 0.94201 0.0
O547 O 0.85388 0.38994 0.95198 0.0
N548 N 0.89593 0.38093 0.90462 0.0
C549 C 0.94116 0.38749 0.89267 0.0
C550 C 0.92631 0.37164 0.88052 0.0
C551 C 0.90381 0.36848 0.88689 0.0
C552 C 0.9106 0.39454 0.91809 0.0
C553 C 0.93325 0.39831 0.91227 0.0
H554 H 0.89266 0.35663 0.87706 0.0
H555 H 0.90434 0.40381 0.93256 0.0
H556 H 0.85237 0.33717 0.8816 0.0
H557 H 0.87379 0.30354 0.93835 0.0
H558 H 0.88857 0.45744 0.87567 0.0
H559 H 0.93187 0.36214 0.86585 0.0
H560 H 0.94409 0.41049 0.92237 0.0
C561 C 0.90142 0.60003 0.20193 0.0
C562 C 0.92404 0.6047 0.19828 0.0
N563 N 0.92934 0.59326 0.17912 0.0
N564 N 0.89271 0.5859 0.18502 0.0
C565 C 0.91016 0.58157 0.1718 0.0
H566 H 0.89164 0.6077 0.21505 0.0
Co567 Co 0.8628 0.5783 0.17883 0.0
C568 C 0.85797 0.58157 0.12785 0.0
O569 O 0.83868 0.59025 0.13204 0.0
N570 N 0.83229 0.56972 0.17306 0.0
C571 C 0.80057 0.55285 0.15813 0.0
C572 C 0.82368 0.55315 0.15827 0.0
C573 C 0.81411 0.57764 0.18305 0.0
N574 N 0.79455 0.56859 0.17366 0.0
O575 O 0.86648 0.54703 0.188 0.0
H576 H 0.83361 0.54266 0.14749 0.0
H577 H 0.81507 0.58962 0.19716 0.0
O578 O 0.86935 0.57402 0.14458 0.0
C579 C 0.8627 0.5496 0.20934 0.0
O580 O 0.85726 0.56986 0.21675 0.0
N581 N 0.85941 0.60958 0.17439 0.0
C582 C 0.85423 0.65589 0.17053 0.0
C583 C 0.86885 0.64487 0.15625 0.0
C584 C 0.87171 0.62183 0.15895 0.0
C585 C 0.84814 0.62105 0.19061 0.0
C586 C 0.84436 0.64404 0.18842 0.0
H587 H 0.88413 0.61405 0.14888 0.0
H588 H 0.8427 0.61266 0.20574 0.0
H589 H 0.90863 0.57101 0.15641 0.0
H590 H 0.93524 0.61691 0.20793 0.0
H591 H 0.78934 0.54252 0.14668 0.0
H592 H 0.87765 0.6538 0.14285 0.0
H593 H 0.83414 0.65253 0.20067 0.0
C594 C 0.68199 0.70599 0.44175 0.0
C595 C 0.68262 0.7292 0.43862 0.0
N596 N 0.69444 0.7341 0.4198 0.0
N597 N 0.6931 0.69598 0.42486 0.0
C598 C 0.70211 0.71377 0.413 0.0
H599 H 0.67176 0.69673 0.45391 0.0
Co600 Co 0.68806 0.66442 0.41643 0.0
C601 C 0.685 0.68391 0.36717 0.0
O602 O 0.68165 0.70532 0.37221 0.0
N603 N 0.68294 0.63277 0.40741 0.0
C604 C 0.66952 0.60262 0.38591 0.0
C605 C 0.67285 0.62586 0.38735 0.0
C606 C 0.68491 0.61288 0.41822 0.0
N607 N 0.677 0.5944 0.40523 0.0
O608 O 0.72064 0.66031 0.42123 0.0
H609 H 0.66646 0.63688 0.37496 0.0
H610 H 0.69101 0.61199 0.43547 0.0
O611 O 0.69009 0.67024 0.38277 0.0
C612 C 0.72347 0.65492 0.44201 0.0
O613 O 0.70571 0.65412 0.45502 0.0
N614 N 0.65618 0.66701 0.41527 0.0
C615 C 0.60964 0.66239 0.40828 0.0
C616 C 0.62224 0.68224 0.40195 0.0
C617 C 0.64558 0.68427 0.40574 0.0
C618 C 0.64345 0.64983 0.42522 0.0
C619 C 0.62027 0.6467 0.42123 0.0
H620 H 0.65495 0.69948 0.40053 0.0
H621 H 0.65141 0.63754 0.43522 0.0
H622 H 0.71224 0.71151 0.39817 0.0
H623 H 0.6732 0.7411 0.44834 0.0
H624 H 0.66085 0.5925 0.3723 0.0
H625 H 0.61449 0.69531 0.3927 0.0
H626 H 0.61091 0.6317 0.42748 0.0
C627 C 0.91493 0.42048 0.35032 0.0
C628 C 0.93782 0.42174 0.35432 0.0
N629 N 0.94162 0.41509 0.37551 0.0
N630 N 0.90386 0.41294 0.36879 0.0
C631 C 0.92082 0.41006 0.38383 0.0
H632 H 0.90742 0.42434 0.33445 0.0
Co633 Co 0.87208 0.40541 0.37365 0.0
C634 C 0.87785 0.4088 0.41597 0.0
O635 O 0.88047 0.38794 0.4081 0.0
N636 N 0.84091 0.39779 0.3796 0.0
C637 C 0.81154 0.37584 0.39158 0.0
C638 C 0.83452 0.37842 0.39035 0.0
C639 C 0.82109 0.40661 0.37412 0.0
N640 N 0.80302 0.3934 0.38128 0.0
O641 O 0.86442 0.4311 0.35264 0.0
H642 H 0.84578 0.36611 0.39601 0.0
H643 H 0.81989 0.42188 0.36451 0.0
O644 O 0.87406 0.42427 0.40167 0.0
C645 C 0.86461 0.43131 0.33069 0.0
O646 O 0.87088 0.41359 0.3189 0.0
N647 N 0.87042 0.38275 0.34997 0.0
C648 C 0.85803 0.33697 0.33961 0.0
C649 C 0.87979 0.34372 0.34768 0.0
C650 C 0.88558 0.36673 0.35299 0.0
C651 C 0.85058 0.37674 0.33844 0.0
C652 C 0.84394 0.3538 0.33334 0.0
H653 H 0.90084 0.37084 0.36277 0.0
H654 H 0.83837 0.38918 0.33596 0.0
H655 H 0.91815 0.40381 0.40053 0.0
H656 H 0.95058 0.42637 0.34209 0.0
H657 H 0.80169 0.3616 0.39868 0.0
H658 H 0.89109 0.33118 0.35294 0.0
H659 H 0.82702 0.34916 0.32692 0.0
C660 C 0.63548 0.56515 0.86367 0.0
C661 C 0.65854 0.56752 0.86591 0.0
N662 N 0.6651 0.59003 0.86746 0.0
N663 N 0.62746 0.58607 0.86378 0.0
C664 C 0.64599 0.60093 0.86587 0.0
H665 H 0.62515 0.54919 0.86396 0.0
Co666 Co 0.59733 0.59072 0.86901 0.0
C667 C 0.59494 0.64282 0.87201 0.0
O668 O 0.57775 0.64007 0.88545 0.0
N669 N 0.56551 0.59466 0.87553 0.0
C670 C 0.53502 0.59918 0.89663 0.0
C671 C 0.55784 0.59949 0.89664 0.0
C672 C 0.54602 0.59141 0.86289 0.0
N673 N 0.52738 0.59397 0.8756 0.0
O674 O 0.59051 0.58167 0.83727 0.0
H675 H 0.56793 0.60412 0.91159 0.0
H676 H 0.54541 0.58673 0.845 0.0
O677 O 0.60385 0.62506 0.86351 0.0
C678 C 0.58555 0.55997 0.83845 0.0
O679 O 0.58064 0.55216 0.85851 0.0
N680 N 0.60487 0.59441 0.89935 0.0
C681 C 0.60764 0.59402 0.94581 0.0
C682 C 0.61725 0.61283 0.93438 0.0
C683 C 0.61582 0.61264 0.91083 0.0
C684 C 0.59866 0.57475 0.9101 0.0
C685 C 0.59924 0.57438 0.93355 0.0
H686 H 0.6227 0.62736 0.90213 0.0
H687 H 0.59116 0.56002 0.90051 0.0
H688 H 0.64543 0.61924 0.86845 0.0
H689 H 0.66951 0.55374 0.8676 0.0
H690 H 0.52465 0.60274 0.91107 0.0
H691 H 0.62422 0.62812 0.94357 0.0
H692 H 0.59189 0.55955 0.94201 0.0
C693 C 0.89394 0.68826 0.95767 0.0
C694 C 0.8915 0.68243 0.98006 0.0
N695 N 0.89523 0.66014 0.98186 0.0
N696 N 0.89934 0.66985 0.94514 0.0
C697 C 0.90017 0.65307 0.96048 0.0
H698 H 0.89146 0.7048 0.95086 0.0
Co699 Co 0.90304 0.66879 0.91294 0.0
C700 C 0.90419 0.61984 0.90025 0.0
O701 O 0.89265 0.62442 0.88209 0.0
N702 N 0.90772 0.66745 0.88038 0.0
C703 C 0.92803 0.6603 0.84972 0.0
C704 C 0.92805 0.6619 0.87287 0.0
C705 C 0.89551 0.66906 0.86077 0.0
N706 N 0.90759 0.66475 0.84191 0.0
O707 O 0.93454 0.68268 0.9168 0.0
H708 H 0.94198 0.65803 0.88363 0.0
H709 H 0.87804 0.67271 0.86005 0.0
O710 O 0.91099 0.63622 0.91437 0.0
C711 C 0.93402 0.70384 0.91183 0.0
O712 O 0.91408 0.71108 0.90754 0.0
N713 N 0.87201 0.65897 0.90952 0.0
C714 C 0.82561 0.64805 0.90355 0.0
C715 C 0.83895 0.63405 0.91601 0.0
C716 C 0.86197 0.63994 0.91905 0.0
C717 C 0.85895 0.67399 0.89947 0.0
C718 C 0.83584 0.66863 0.89574 0.0
H719 H 0.8716 0.6291 0.92916 0.0
H720 H 0.86662 0.6901 0.89387 0.0
H721 H 0.90425 0.6359 0.95617 0.0
H722 H 0.8866 0.6936 0.99381 0.0
H723 H 0.94184 0.65516 0.83946 0.0
H724 H 0.83168 0.61865 0.92353 0.0
H725 H 0.82627 0.68032 0.88645 0.0
C726 C 0.09633 0.18962 0.62319 0.0
C727 C 0.09659 0.18764 0.59993 0.0
N728 N 0.0839 0.16844 0.59333 0.0
N729 N 0.08369 0.17166 0.63104 0.0
C730 C 0.07586 0.1595 0.61253 0.0
H731 H 0.10584 0.20245 0.63377 0.0
Co732 Co 0.08136 0.16359 0.66068 0.0
C733 C 0.06617 0.10957 0.64487 0.0
O734 O 0.04457 0.10367 0.64204 0.0
N735 N 0.07906 0.15579 0.69141 0.0
C736 C 0.07715 0.13531 0.72249 0.0
C737 C 0.07067 0.13591 0.70006 0.0
C738 C 0.08946 0.16737 0.70933 0.0
N739 N 0.08916 0.15507 0.7282 0.0
O740 O 0.05048 0.17408 0.6605 0.0
H741 H 0.06184 0.12189 0.6905 0.0
H742 H 0.09835 0.18404 0.70844 0.0
O743 O 0.07211 0.13057 0.65102 0.0
C744 C 0.05206 0.19593 0.66433 0.0
O745 O 0.07205 0.20555 0.67018 0.0
N746 N 0.11162 0.15654 0.66025 0.0
C747 C 0.15622 0.14581 0.66161 0.0
C748 C 0.14093 0.13446 0.64607 0.0
C749 C 0.11884 0.1405 0.6453 0.0
C750 C 0.12703 0.16983 0.67315 0.0
C751 C 0.14933 0.16423 0.67478 0.0
H752 H 0.10769 0.13231 0.63248 0.0
H753 H 0.12226 0.18508 0.68191 0.0
H754 H 0.06596 0.14336 0.61312 0.0
H755 H 0.10637 0.19878 0.58891 0.0
H756 H 0.07504 0.12065 0.73314 0.0
H757 H 0.14578 0.12064 0.63495 0.0
H758 H 0.16107 0.1743 0.68599 0.0
C759 C 0.56326 0.36693 0.33897 0.0
C760 C 0.56634 0.36858 0.31598 0.0
N761 N 0.58628 0.36043 0.31098 0.0
N762 N 0.58142 0.35818 0.34818 0.0
C763 C 0.59493 0.35405 0.33066 0.0
H764 H 0.5495 0.37316 0.34859 0.0
Co765 Co 0.58749 0.35598 0.37856 0.0
C766 C 0.63724 0.3615 0.38405 0.0
O767 O 0.63341 0.37469 0.40182 0.0
N768 N 0.59314 0.35236 0.40934 0.0
C769 C 0.60552 0.33559 0.43978 0.0
C770 C 0.6059 0.33588 0.4167 0.0
C771 C 0.58412 0.36093 0.42836 0.0
N772 N 0.59174 0.35132 0.44706 0.0
O773 O 0.5773 0.32309 0.37648 0.0
H774 H 0.61478 0.32446 0.40586 0.0
H775 H 0.5712 0.37281 0.42874 0.0
O776 O 0.6205 0.35136 0.37256 0.0
C777 C 0.55773 0.3198 0.38524 0.0
O778 O 0.54794 0.33782 0.39295 0.0
N779 N 0.595 0.38862 0.3805 0.0
C780 C 0.60998 0.4348 0.3877 0.0
C781 C 0.61907 0.42146 0.37047 0.0
C782 C 0.611 0.39864 0.36681 0.0
C783 C 0.58334 0.4024 0.39443 0.0
C784 C 0.59097 0.4254 0.39889 0.0
H785 H 0.61861 0.38877 0.35365 0.0
H786 H 0.56811 0.3957 0.40222 0.0
H787 H 0.61169 0.3483 0.33233 0.0
H788 H 0.55578 0.37688 0.30424 0.0
H789 H 0.61474 0.32468 0.45034 0.0
H790 H 0.63275 0.42838 0.36024 0.0
H791 H 0.58249 0.4354 0.41144 0.0
C792 C 0.39514 0.82321 0.09308 0.0
C793 C 0.39185 0.82805 0.07066 0.0
N794 N 0.40065 0.84955 0.06714 0.0
N795 N 0.40601 0.84145 0.10397 0.0
C796 C 0.40946 0.85707 0.08762 0.0
H797 H 0.38881 0.80784 0.10126 0.0
Co798 Co 0.40927 0.84439 0.13593 0.0
C799 C 0.41662 0.89489 0.14646 0.0
O800 O 0.40743 0.89139 0.16621 0.0
N801 N 0.41271 0.84731 0.1687 0.0
C802 C 0.43024 0.85478 0.20218 0.0
C803 C 0.43296 0.85202 0.17918 0.0
C804 C 0.39792 0.8473 0.1862 0.0
N805 N 0.40813 0.85195 0.20667 0.0
O806 O 0.43931 0.83257 0.13422 0.0
H807 H 0.44883 0.85441 0.17059 0.0
H808 H 0.37991 0.84472 0.18427 0.0
O809 O 0.42016 0.8776 0.13323 0.0
C810 C 0.43676 0.81138 0.1393 0.0
O811 O 0.41628 0.80277 0.14352 0.0
N812 N 0.37945 0.85204 0.1371 0.0
C813 C 0.33442 0.85992 0.14217 0.0
C814 C 0.34894 0.8754 0.13073 0.0
C815 C 0.37136 0.87092 0.12802 0.0
C816 C 0.36489 0.83524 0.14507 0.0
C817 C 0.34234 0.83909 0.14848 0.0
H818 H 0.382 0.88257 0.11852 0.0
H819 H 0.3712 0.81935 0.15023 0.0
H820 H 0.4178 0.87385 0.09074 0.0
H821 H 0.38247 0.81695 0.05829 0.0
H822 H 0.44354 0.85957 0.21449 0.0
H823 H 0.3431 0.89096 0.12414 0.0
H824 H 0.33161 0.82634 0.15684 0.0
C825 C 0.88118 0.32541 0.59461 0.0
C826 C 0.87939 0.32776 0.57165 0.0
N827 N 0.89746 0.34073 0.56465 0.0
N828 N 0.90001 0.33731 0.60275 0.0
C829 C 0.91046 0.34484 0.58371 0.0
H830 H 0.86853 0.31684 0.60491 0.0
Co831 Co 0.90453 0.34349 0.63478 0.0
C832 C 0.9166 0.39279 0.61658 0.0
O833 O 0.90964 0.38817 0.59576 0.0
N834 N 0.90899 0.34931 0.66678 0.0
C835 C 0.92528 0.36442 0.69875 0.0
C836 C 0.92739 0.36151 0.67566 0.0
C837 C 0.89608 0.34474 0.6852 0.0
N838 N 0.90548 0.35397 0.70477 0.0
O839 O 0.93477 0.33146 0.63335 0.0
H840 H 0.94133 0.36848 0.66584 0.0
H841 H 0.88004 0.33491 0.68469 0.0
O842 O 0.91543 0.37695 0.6312 0.0
C843 C 0.93175 0.31001 0.63746 0.0
O844 O 0.9109 0.30179 0.64055 0.0
N845 N 0.87435 0.35165 0.6369 0.0
C846 C 0.82921 0.35959 0.64399 0.0
C847 C 0.84332 0.37493 0.63196 0.0
C848 C 0.86573 0.37066 0.62859 0.0
C849 C 0.86019 0.33529 0.64626 0.0
C850 C 0.83775 0.33914 0.65061 0.0
H851 H 0.87557 0.38264 0.61895 0.0
H852 H 0.86658 0.31928 0.65095 0.0
H853 H 0.92666 0.35457 0.58401 0.0
H854 H 0.86473 0.32203 0.56137 0.0
H855 H 0.93702 0.3743 0.7101 0.0
H856 H 0.83716 0.39026 0.62517 0.0
H857 H 0.82747 0.32645 0.65953 0.0
C858 C 0.39268 0.19019 0.45641 0.0
C859 C 0.39058 0.18483 0.47899 0.0
N860 N 0.39706 0.16346 0.48188 0.0
N861 N 0.40038 0.17239 0.44462 0.0
C862 C 0.40363 0.15677 0.46081 0.0
H863 H 0.38706 0.20533 0.44878 0.0
Co864 Co 0.39869 0.16735 0.41204 0.0
C865 C 0.38908 0.11645 0.41933 0.0
O866 O 0.36732 0.11698 0.41636 0.0
N867 N 0.39718 0.16065 0.37933 0.0
C868 C 0.38671 0.14069 0.34738 0.0
C869 C 0.38644 0.14107 0.37044 0.0
C870 C 0.40377 0.17214 0.36045 0.0
N871 N 0.39754 0.16012 0.34093 0.0
O872 O 0.43144 0.17459 0.41014 0.0
H873 H 0.37756 0.12801 0.37968 0.0
H874 H 0.4123 0.1891 0.36087 0.0
O875 O 0.40262 0.13424 0.41665 0.0
C876 C 0.43565 0.19554 0.40478 0.0
O877 O 0.41856 0.20811 0.40191 0.0
N878 N 0.36626 0.1643 0.41338 0.0
C879 C 0.3194 0.15822 0.40961 0.0
C880 C 0.33055 0.15192 0.42917 0.0
C881 C 0.35393 0.1559 0.4311 0.0
C882 C 0.35514 0.17395 0.39612 0.0
C883 C 0.33176 0.17059 0.39356 0.0
H884 H 0.36202 0.14981 0.44588 0.0
H885 H 0.36437 0.18371 0.38363 0.0
H886 H 0.40925 0.14004 0.45695 0.0
H887 H 0.38346 0.19554 0.49187 0.0
H888 H 0.37882 0.12742 0.33604 0.0
H889 H 0.32139 0.14309 0.44241 0.0
H890 H 0.32364 0.17661 0.37862 0.0
C891 C 0.59159 0.68813 0.12128 0.0
C892 C 0.59101 0.68519 0.09804 0.0
N893 N 0.57798 0.66593 0.09269 0.0
N894 N 0.57931 0.67049 0.13022 0.0
C895 C 0.57066 0.65776 0.1124 0.0
H896 H 0.60205 0.70089 0.13106 0.0
Co897 Co 0.57925 0.66226 0.15987 0.0
C898 C 0.56548 0.60808 0.14497 0.0
O899 O 0.5438 0.60311 0.14148 0.0
N900 N 0.57902 0.65386 0.19056 0.0
C901 C 0.5752 0.63247 0.22096 0.0
C902 C 0.56804 0.63507 0.199 0.0
C903 C 0.5918 0.66299 0.20825 0.0
N904 N 0.59052 0.64988 0.22661 0.0
O905 O 0.54792 0.67 0.16122 0.0
H906 H 0.55621 0.62334 0.18961 0.0
H907 H 0.6021 0.67888 0.20787 0.0
O908 O 0.57229 0.62888 0.15079 0.0
C909 C 0.54809 0.6914 0.16682 0.0
O910 O 0.56732 0.70205 0.17369 0.0
N911 N 0.60995 0.6577 0.1577 0.0
C912 C 0.65489 0.64888 0.15826 0.0
C913 C 0.63979 0.63679 0.14306 0.0
C914 C 0.61745 0.64189 0.14267 0.0
C915 C 0.62515 0.67236 0.16937 0.0
C916 C 0.64773 0.66768 0.17072 0.0
H917 H 0.60618 0.63263 0.13059 0.0
H918 H 0.61977 0.68756 0.17783 0.0
H919 H 0.56109 0.64146 0.11367 0.0
H920 H 0.60136 0.69487 0.08624 0.0
H921 H 0.57037 0.61819 0.23146 0.0
H922 H 0.64479 0.62266 0.13243 0.0
H923 H 0.65933 0.67834 0.18159 0.0
C924 C 0.06637 0.85325 0.83811 0.0
C925 C 0.0682 0.85279 0.81485 0.0
N926 N 0.09023 0.85436 0.80984 0.0
N927 N 0.08719 0.85549 0.84776 0.0
C928 C 0.10117 0.8555 0.82992 0.0
H929 H 0.05082 0.85421 0.84705 0.0
Co930 Co 0.09623 0.86381 0.8781 0.0
C931 C 0.13688 0.86076 0.87003 0.0
O932 O 0.13031 0.88108 0.86554 0.0
N933 N 0.10587 0.87188 0.90759 0.0
C934 C 0.12062 0.8944 0.93576 0.0
C935 C 0.11921 0.89107 0.91279 0.0
C936 C 0.0998 0.8634 0.92776 0.0
N937 N 0.10831 0.8771 0.94505 0.0
O938 O 0.07472 0.8375 0.88874 0.0
H939 H 0.12616 0.90288 0.90067 0.0
H940 H 0.08787 0.84877 0.92977 0.0
O941 O 0.1218 0.84517 0.87573 0.0
C942 C 0.05316 0.83593 0.89122 0.0
O943 O 0.04186 0.85378 0.88731 0.0
N944 N 0.07529 0.88721 0.8799 0.0
C945 C 0.0804 0.93404 0.89131 0.0
C946 C 0.08371 0.92614 0.86914 0.0
C947 C 0.08088 0.90274 0.86371 0.0
C948 C 0.06762 0.89514 0.90032 0.0
C949 C 0.07077 0.91858 0.90666 0.0
H950 H 0.08738 0.89732 0.84763 0.0
H951 H 0.063 0.8833 0.91339 0.0
H952 H 0.11915 0.85871 0.83119 0.0
H953 H 0.05446 0.85298 0.8027 0.0
H954 H 0.12893 0.90905 0.94496 0.0
H955 H 0.09116 0.9376 0.85681 0.0
H956 H 0.06803 0.92407 0.92404 0.0
C957 C 0.95841 0.93208 0.66537 0.0
C958 C 0.98117 0.92967 0.66321 0.0
N959 N 0.98544 0.92679 0.64103 0.0
N960 N 0.94859 0.93092 0.64461 0.0
C961 C 0.96555 0.92781 0.63015 0.0
H962 H 0.9495 0.93402 0.68107 0.0
Co963 Co 0.91801 0.93175 0.6386 0.0
C964 C 0.91146 0.92359 0.58845 0.0
O965 O 0.89254 0.91181 0.5931 0.0
N966 N 0.88682 0.93338 0.63282 0.0
C967 C 0.85608 0.9468 0.61816 0.0
C968 C 0.87901 0.95009 0.62041 0.0
C969 C 0.868 0.92056 0.63857 0.0
N970 N 0.84903 0.9281 0.62955 0.0
O971 O 0.92058 0.96492 0.64406 0.0
H972 H 0.8895 0.96345 0.61268 0.0
H973 H 0.86799 0.90598 0.64911 0.0
O974 O 0.92369 0.9334 0.60476 0.0
C975 C 0.91313 0.96838 0.66405 0.0
O976 O 0.90678 0.95042 0.67577 0.0
N977 N 0.91557 0.89947 0.63657 0.0
C978 C 0.9076 0.85221 0.63493 0.0
C979 C 0.92084 0.86309 0.61857 0.0
C980 C 0.92521 0.88671 0.62011 0.0
C981 C 0.90559 0.88879 0.65442 0.0
C982 C 0.90086 0.86503 0.65372 0.0
H983 H 0.93607 0.89456 0.60782 0.0
H984 H 0.90028 0.89891 0.66878 0.0
H985 H 0.96351 0.92603 0.61196 0.0
H986 H 0.99344 0.92924 0.67685 0.0
H987 H 0.84568 0.95712 0.6082 0.0
H988 H 0.92738 0.85344 0.60446 0.0
H989 H 0.89127 0.85694 0.66711 0.0
C990 C 0.7981 0.07413 0.39542 0.0
C991 C 0.80272 0.05166 0.39157 0.0
N992 N 0.8231 0.04873 0.40085 0.0
N993 N 0.81549 0.08527 0.40696 0.0
C994 C 0.83008 0.06924 0.4106 0.0
H995 H 0.78386 0.08227 0.38869 0.0
Co996 Co 0.8202 0.11674 0.41015 0.0
C997 C 0.87004 0.12732 0.41438 0.0
O998 O 0.8673 0.1458 0.40301 0.0
N999 N 0.82421 0.14889 0.41393 0.0
C1000 C 0.83488 0.18326 0.4296 0.0
C1001 C 0.83295 0.16006 0.43286 0.0
C1002 C 0.82002 0.16585 0.39992 0.0
N1003 N 0.82693 0.18673 0.4087 0.0
O1004 O 0.80917 0.11562 0.4413 0.0
H1005 H 0.83859 0.15175 0.44775 0.0
H1006 H 0.81204 0.16346 0.38356 0.0
O1007 O 0.85261 0.11435 0.4198 0.0
C1008 C 0.78826 0.11931 0.44176 0.0
O1009 O 0.77815 0.12244 0.42232 0.0
N1010 N 0.82907 0.11713 0.37899 0.0
C1011 C 0.84512 0.12343 0.33536 0.0
C1012 C 0.85605 0.10979 0.35033 0.0
C1013 C 0.84746 0.10644 0.37182 0.0
C1014 C 0.81568 0.12598 0.36308 0.0
C1015 C 0.82381 0.13027 0.34129 0.0
H1016 H 0.85612 0.09569 0.38277 0.0
H1017 H 0.79913 0.13088 0.36761 0.0
H1018 H 0.8465 0.07304 0.41832 0.0
H1019 H 0.79245 0.03894 0.38155 0.0
H1020 H 0.84252 0.19638 0.44123 0.0
H1021 H 0.87156 0.10236 0.34579 0.0
H1022 H 0.81401 0.13967 0.32976 0.0
C1023 C 0.60181 0.10029 0.16804 0.0
C1024 C 0.57873 0.09959 0.16525 0.0
N1025 N 0.5737 0.09744 0.14292 0.0
N1026 N 0.61145 0.09856 0.14762 0.0
C1027 C 0.59387 0.09683 0.13266 0.0
H1028 H 0.61104 0.10188 0.18399 0.0
Co1029 Co 0.64263 0.09764 0.14345 0.0
C1030 C 0.64987 0.09708 0.09374 0.0
O1031 O 0.66909 0.10895 0.09832 0.0
N1032 N 0.67454 0.09585 0.13975 0.0
C1033 C 0.70609 0.08053 0.12892 0.0
C1034 C 0.68316 0.07683 0.13093 0.0
C1035 C 0.69302 0.11077 0.14335 0.0
N1036 N 0.71241 0.10198 0.13663 0.0
O1037 O 0.64014 0.06516 0.15157 0.0
H1038 H 0.67324 0.06141 0.12529 0.0
H1039 H 0.69252 0.12785 0.15051 0.0
O1040 O 0.63742 0.09017 0.11019 0.0
C1041 C 0.64733 0.06184 0.17167 0.0
O1042 O 0.65555 0.07961 0.18412 0.0
N1043 N 0.64456 0.12978 0.13807 0.0
C1044 C 0.65087 0.17708 0.13191 0.0
C1045 C 0.63851 0.16263 0.11607 0.0
C1046 C 0.63494 0.13922 0.11981 0.0
C1047 C 0.65422 0.14393 0.15493 0.0
C1048 C 0.65796 0.16761 0.15205 0.0
H1049 H 0.62442 0.12886 0.10785 0.0
H1050 H 0.6599 0.13667 0.1704 0.0
H1051 H 0.59571 0.09483 0.11462 0.0
H1052 H 0.56664 0.10098 0.17866 0.0
H1053 H 0.71707 0.06851 0.1215 0.0
H1054 H 0.63157 0.16941 0.10088 0.0
H1055 H 0.66694 0.17822 0.16511 0.0
C1056 C 0.66896 0.91988 0.91698 0.0
C1057 C 0.66886 0.9432 0.91476 0.0
N1058 N 0.64786 0.94964 0.91855 0.0
N1059 N 0.64818 0.91121 0.92219 0.0
C1060 C 0.63578 0.92979 0.92332 0.0
H1061 H 0.68312 0.90971 0.91401 0.0
Co1062 Co 0.63989 0.87929 0.92341 0.0
C1063 C 0.58994 0.8755 0.9204 0.0
O1064 O 0.59101 0.85654 0.90805 0.0
N1065 N 0.63169 0.84649 0.92492 0.0
C1066 C 0.61567 0.81464 0.93948 0.0
C1067 C 0.61983 0.83796 0.94245 0.0
C1068 C 0.63492 0.82737 0.91166 0.0
N1069 N 0.62509 0.80775 0.92004 0.0
O1070 O 0.64711 0.88048 0.9555 0.0
H1071 H 0.61403 0.84822 0.95646 0.0
H1072 H 0.64386 0.82754 0.89593 0.0
O1073 O 0.60811 0.88615 0.92839 0.0
C1074 C 0.66754 0.87536 0.95711 0.0
O1075 O 0.67786 0.87006 0.93832 0.0
N1076 N 0.63577 0.87848 0.89215 0.0
C1077 C 0.63228 0.87311 0.84551 0.0
C1078 C 0.61809 0.88722 0.85731 0.0
C1079 C 0.62041 0.89005 0.88071 0.0
C1080 C 0.65184 0.86778 0.88061 0.0
C1081 C 0.65006 0.86423 0.85722 0.0
H1082 H 0.60975 0.90137 0.8895 0.0
H1083 H 0.66556 0.86105 0.8898 0.0
H1084 H 0.61809 0.92868 0.92701 0.0
H1085 H 0.68316 0.95423 0.9097 0.0
H1086 H 0.60637 0.80363 0.95097 0.0
H1087 H 0.60508 0.89565 0.8486 0.0
H1088 H 0.66188 0.85388 0.84863 0.0
C1089 C 0.85269 0.0898 0.82376 0.0
C1090 C 0.83004 0.09053 0.82747 0.0
N1091 N 0.82427 0.11176 0.8232 0.0
N1092 N 0.86118 0.11054 0.81742 0.0
C1093 C 0.84335 0.12348 0.81681 0.0
H1094 H 0.86269 0.07561 0.82715 0.0
Co1095 Co 0.89182 0.11855 0.81648 0.0
C1096 C 0.89779 0.16912 0.82413 0.0
O1097 O 0.91602 0.1654 0.83575 0.0
N1098 N 0.9233 0.12609 0.8149 0.0
C1099 C 0.95561 0.14359 0.8038 0.0
C1100 C 0.93305 0.13912 0.79878 0.0
C1101 C 0.94068 0.12186 0.82875 0.0
N1102 N 0.96035 0.1329 0.82292 0.0
O1103 O 0.89128 0.11191 0.78394 0.0
H1104 H 0.92402 0.14614 0.78496 0.0
H1105 H 0.93924 0.11114 0.84303 0.0
O1106 O 0.88625 0.15207 0.81405 0.0
C1107 C 0.89574 0.09087 0.7822 0.0
O1108 O 0.89991 0.0804 0.80095 0.0
N1109 N 0.89182 0.12179 0.84844 0.0
C1110 C 0.89577 0.12597 0.89547 0.0
C1111 C 0.88177 0.13977 0.88353 0.0
C1112 C 0.87984 0.13722 0.86007 0.0
C1113 C 0.90143 0.1053 0.86006 0.0
C1114 C 0.90471 0.10768 0.88349 0.0
H1115 H 0.86873 0.14775 0.85139 0.0
H1116 H 0.90771 0.09083 0.85093 0.0
H1117 H 0.84458 0.14163 0.8138 0.0
H1118 H 0.81893 0.07698 0.83414 0.0
H1119 H 0.9672 0.15485 0.79466 0.0
H1120 H 0.87255 0.15268 0.89207 0.0
H1121 H 0.91478 0.09572 0.89176 0.0
C1122 C 0.64271 0.18207 0.57395 0.0
C1123 C 0.64094 0.20497 0.57939 0.0
N1124 N 0.64542 0.20877 0.60172 0.0
N1125 N 0.6482 0.17115 0.5927 0.0
C1126 C 0.65036 0.18808 0.60921 0.0
H1127 H 0.63833 0.17359 0.55776 0.0
Co1128 Co 0.64497 0.13866 0.59548 0.0
C1129 C 0.63575 0.14499 0.64635 0.0
O1130 O 0.61392 0.14201 0.6433 0.0
N1131 N 0.64151 0.1057 0.59933 0.0
C1132 C 0.62733 0.07301 0.61383 0.0
C1133 C 0.63047 0.09617 0.617 0.0
C1134 C 0.64514 0.08716 0.58554 0.0
N1135 N 0.63631 0.06721 0.59403 0.0
O1136 O 0.67724 0.13686 0.59032 0.0
H1137 H 0.62348 0.1051 0.63094 0.0
H1138 H 0.65279 0.08829 0.56907 0.0
O1139 O 0.64923 0.14313 0.62958 0.0
C1140 C 0.67777 0.13308 0.56877 0.0
O1141 O 0.65857 0.13242 0.55743 0.0
N1142 N 0.61318 0.13975 0.59525 0.0
C1143 C 0.56665 0.13266 0.59472 0.0
C1144 C 0.57726 0.15259 0.6052 0.0
C1145 C 0.60069 0.15628 0.60446 0.0
C1146 C 0.60269 0.12331 0.58096 0.0
C1147 C 0.57944 0.119 0.58093 0.0
H1148 H 0.60866 0.1711 0.6135 0.0
H1149 H 0.61239 0.11265 0.57021 0.0
H1150 H 0.65316 0.18504 0.62691 0.0
H1151 H 0.63545 0.21755 0.56796 0.0
H1152 H 0.61847 0.06124 0.62499 0.0
H1153 H 0.56792 0.16417 0.61543 0.0
H1154 H 0.57172 0.10433 0.57127 0.0
C1155 C 0.71182 0.94504 0.33451 0.0
C1156 C 0.73411 0.94106 0.33804 0.0
N1157 N 0.73681 0.91882 0.33282 0.0
N1158 N 0.70035 0.92544 0.32713 0.0
C1159 C 0.71615 0.90996 0.32576 0.0
H1160 H 0.70416 0.96082 0.3385 0.0
Co1161 Co 0.66874 0.9207 0.3258 0.0
C1162 C 0.65886 0.87054 0.33176 0.0
O1163 O 0.64088 0.87609 0.3427 0.0
N1164 N 0.63634 0.9158 0.32388 0.0
C1165 C 0.6036 0.90113 0.30886 0.0
C1166 C 0.62644 0.9038 0.30603 0.0
C1167 C 0.61862 0.9207 0.33716 0.0
N1168 N 0.59849 0.9117 0.32854 0.0
O1169 O 0.66884 0.92681 0.2932 0.0
H1170 H 0.63544 0.89642 0.29213 0.0
H1171 H 0.62014 0.93035 0.35297 0.0
O1172 O 0.67123 0.88637 0.32218 0.0
C1173 C 0.66341 0.94756 0.292 0.0
O1174 O 0.66059 0.95896 0.3112 0.0
N1175 N 0.66905 0.91847 0.35741 0.0
C1176 C 0.66413 0.91554 0.40367 0.0
C1177 C 0.67739 0.90052 0.39197 0.0
C1178 C 0.68002 0.90258 0.36877 0.0
C1179 C 0.65977 0.93565 0.36927 0.0
C1180 C 0.65614 0.93399 0.39244 0.0
H1181 H 0.69027 0.89091 0.35996 0.0
H1182 H 0.65385 0.94995 0.36042 0.0
H1183 H 0.71232 0.89207 0.32132 0.0
H1184 H 0.74707 0.95342 0.34492 0.0
H1185 H 0.59191 0.89125 0.29752 0.0
H1186 H 0.6845 0.88651 0.40037 0.0
H1187 H 0.64654 0.94642 0.40129 0.0
C1188 C 0.82397 0.82828 0.07675 0.0
C1189 C 0.82499 0.80496 0.07759 0.0
N1190 N 0.81783 0.79842 0.0981 0.0
N1191 N 0.81648 0.83618 0.09672 0.0
C1192 C 0.81233 0.81762 0.10912 0.0
H1193 H 0.82972 0.839 0.06312 0.0
Co1194 Co 0.8164 0.86629 0.10565 0.0
C1195 C 0.82684 0.86912 0.1553 0.0
O1196 O 0.8395 0.88778 0.15097 0.0
N1197 N 0.81522 0.89729 0.11388 0.0
C1198 C 0.80555 0.92937 0.13098 0.0
C1199 C 0.80241 0.90592 0.13031 0.0
C1200 C 0.8243 0.91588 0.10361 0.0
N1201 N 0.81956 0.93566 0.11417 0.0
O1202 O 0.78405 0.86457 0.10102 0.0
H1203 H 0.79175 0.89577 0.14143 0.0
H1204 H 0.83338 0.91507 0.08812 0.0
O1205 O 0.81513 0.85842 0.13906 0.0
C1206 C 0.78154 0.87178 0.08101 0.0
O1207 O 0.79974 0.87765 0.06956 0.0
N1208 N 0.84847 0.86763 0.10754 0.0
C1209 C 0.8948 0.87289 0.11356 0.0
C1210 C 0.88217 0.85612 0.12506 0.0
C1211 C 0.85905 0.85326 0.12122 0.0
C1212 C 0.86117 0.88093 0.09326 0.0
C1213 C 0.88447 0.88465 0.09663 0.0
H1214 H 0.84964 0.83998 0.13001 0.0
H1215 H 0.85343 0.88856 0.07913 0.0
H1216 H 0.80744 0.81838 0.12667 0.0
H1217 H 0.83174 0.79394 0.06469 0.0
H1218 H 0.79832 0.94067 0.14326 0.0
H1219 H 0.88996 0.84592 0.13749 0.0
H1220 H 0.89417 0.89678 0.0865 0.0
C1221 C 0.14373 0.68304 0.07414 0.0
C1222 C 0.14249 0.70613 0.0789 0.0
N1223 N 0.14883 0.71069 0.10071 0.0
N1224 N 0.15067 0.67299 0.09288 0.0
C1225 C 0.15412 0.69037 0.1086 0.0
H1226 H 0.13836 0.6739 0.05854 0.0
Co1227 Co 0.14932 0.64128 0.09701 0.0
C1228 C 0.14077 0.63744 0.14627 0.0
O1229 O 0.12539 0.62092 0.14044 0.0
N1230 N 0.14866 0.60884 0.10152 0.0
C1231 C 0.15931 0.57706 0.11697 0.0
C1232 C 0.16199 0.60046 0.11749 0.0
C1233 C 0.13875 0.58961 0.09074 0.0
N1234 N 0.14485 0.57019 0.10005 0.0
O1235 O 0.18144 0.64103 0.09095 0.0
H1236 H 0.17335 0.61076 0.12883 0.0
H1237 H 0.12827 0.58944 0.07571 0.0
O1238 O 0.1529 0.64717 0.13091 0.0
C1239 C 0.18069 0.63491 0.06984 0.0
O1240 O 0.16069 0.63195 0.05998 0.0
N1241 N 0.11795 0.6414 0.09889 0.0
C1242 C 0.07175 0.63543 0.10147 0.0
C1243 C 0.08368 0.65193 0.11552 0.0
C1244 C 0.10697 0.655 0.11366 0.0
C1245 C 0.10602 0.62874 0.08239 0.0
C1246 C 0.08278 0.62459 0.08393 0.0
H1247 H 0.11619 0.66726 0.12503 0.0
H1248 H 0.11463 0.62131 0.06835 0.0
H1249 H 0.15844 0.68797 0.12613 0.0
H1250 H 0.13627 0.71834 0.06749 0.0
H1251 H 0.16759 0.56586 0.12805 0.0
H1252 H 0.07534 0.66101 0.12889 0.0
H1253 H 0.07376 0.61227 0.07236 0.0
C1254 C 0.2134 0.43758 0.82539 0.0
C1255 C 0.23576 0.43262 0.82551 0.0
N1256 N 0.23651 0.40982 0.82667 0.0
N1257 N 0.19991 0.41798 0.8265 0.0
C1258 C 0.21478 0.40149 0.82657 0.0
H1259 H 0.20778 0.45461 0.82673 0.0
Co1260 Co 0.1684 0.41313 0.83394 0.0
C1261 C 0.16985 0.37046 0.83284 0.0
O1262 O 0.17713 0.37953 0.85249 0.0
N1263 N 0.13779 0.40697 0.84182 0.0
C1264 C 0.11002 0.39433 0.86406 0.0
C1265 C 0.13271 0.39567 0.86088 0.0
C1266 C 0.11754 0.41262 0.83375 0.0
N1267 N 0.1005 0.40514 0.84724 0.0
O1268 O 0.15993 0.43268 0.8066 0.0
H1269 H 0.1448 0.38996 0.87278 0.0
H1270 H 0.11548 0.42304 0.81921 0.0
O1271 O 0.16607 0.38401 0.8167 0.0
C1272 C 0.16229 0.45468 0.80431 0.0
O1273 O 0.17048 0.46759 0.8215 0.0
N1274 N 0.17072 0.43798 0.85596 0.0
C1275 C 0.158 0.4384 0.90134 0.0
C1276 C 0.17959 0.43279 0.89522 0.0
C1277 C 0.18567 0.4328 0.87247 0.0
C1278 C 0.1519 0.44859 0.86228 0.0
C1279 C 0.14472 0.44806 0.88487 0.0
H1280 H 0.20058 0.42434 0.86818 0.0
H1281 H 0.14004 0.45321 0.84953 0.0
H1282 H 0.21018 0.3835 0.82769 0.0
H1283 H 0.25024 0.44497 0.82665 0.0
H1284 H 0.10119 0.38707 0.87835 0.0
H1285 H 0.19057 0.42543 0.90728 0.0
H1286 H 0.12807 0.4531 0.88893 0.0
C1287 C 0.3128 0.32362 0.58497 0.0
C1288 C 0.30882 0.30051 0.58809 0.0
N1289 N 0.30736 0.29744 0.61045 0.0
N1290 N 0.31424 0.33493 0.60539 0.0
C1291 C 0.30955 0.31845 0.62028 0.0
H1292 H 0.31729 0.33097 0.56904 0.0
Co1293 Co 0.32627 0.36492 0.61336 0.0
C1294 C 0.32688 0.35816 0.65504 0.0
O1295 O 0.34468 0.35067 0.64515 0.0
N1296 N 0.33753 0.39432 0.62169 0.0
C1297 C 0.36148 0.42248 0.63504 0.0
C1298 C 0.35714 0.39924 0.6332 0.0
C1299 C 0.33017 0.41479 0.61672 0.0
N1300 N 0.34453 0.43208 0.62469 0.0
O1301 O 0.3001 0.3762 0.595 0.0
H1302 H 0.36836 0.38676 0.6386 0.0
H1303 H 0.3156 0.41703 0.60613 0.0
O1304 O 0.31077 0.3645 0.64236 0.0
C1305 C 0.2975 0.37655 0.57327 0.0
O1306 O 0.31382 0.37062 0.56017 0.0
N1307 N 0.34725 0.36468 0.58916 0.0
C1308 C 0.39386 0.37385 0.58745 0.0
C1309 C 0.38459 0.35187 0.5919 0.0
C1310 C 0.3613 0.34769 0.59285 0.0
C1311 C 0.35598 0.38465 0.58009 0.0
C1312 C 0.37938 0.38993 0.57996 0.0
H1313 H 0.35524 0.33214 0.60076 0.0
H1314 H 0.34523 0.39828 0.57693 0.0
H1315 H 0.30984 0.32112 0.63838 0.0
H1316 H 0.30986 0.28699 0.57526 0.0
H1317 H 0.3767 0.43163 0.64186 0.0
H1318 H 0.39511 0.33893 0.59783 0.0
H1319 H 0.38593 0.40709 0.57612 0.0
C1320 C 0.10379 0.61948 0.66537 0.0
C1321 C 0.08064 0.61832 0.66567 0.0
N1322 N 0.07245 0.59861 0.65516 0.0
N1323 N 0.1106 0.60094 0.65402 0.0
C1324 C 0.09112 0.5877 0.64976 0.0
H1325 H 0.11484 0.63407 0.67116 0.0
Co1326 Co 0.14095 0.59893 0.64392 0.0
C1327 C 0.11258 0.59022 0.59755 0.0
O1328 O 0.09304 0.5931 0.60651 0.0
N1329 N 0.17183 0.59751 0.63467 0.0
C1330 C 0.20066 0.603 0.61129 0.0
C1331 C 0.17792 0.59936 0.6129 0.0
C1332 C 0.19199 0.60023 0.64622 0.0
N1333 N 0.20989 0.60356 0.63217 0.0
O1334 O 0.14007 0.56631 0.65441 0.0
H1335 H 0.16673 0.60016 0.5989 0.0
H1336 H 0.19338 0.60123 0.66452 0.0
O1337 O 0.13037 0.59075 0.61052 0.0
C1338 C 0.14275 0.56576 0.67615 0.0
O1339 O 0.14543 0.58553 0.68742 0.0
N1340 N 0.14307 0.63077 0.63663 0.0
C1341 C 0.15215 0.67687 0.62556 0.0
C1342 C 0.13365 0.66356 0.61584 0.0
C1343 C 0.12932 0.64066 0.62171 0.0
C1344 C 0.15999 0.64403 0.64757 0.0
C1345 C 0.16509 0.66687 0.64202 0.0
H1346 H 0.11473 0.63122 0.61435 0.0
H1347 H 0.16994 0.63677 0.66053 0.0
H1348 H 0.0905 0.57153 0.64022 0.0
H1349 H 0.0706 0.63223 0.67072 0.0
H1350 H 0.20953 0.60688 0.59585 0.0
H1351 H 0.12281 0.67058 0.60343 0.0
H1352 H 0.179 0.67664 0.65068 0.0
C1353 C 0.45472 0.41923 0.16432 0.0
C1354 C 0.47784 0.42171 0.1645 0.0
N1355 N 0.48447 0.43651 0.14857 0.0
N1356 N 0.44662 0.43183 0.14782 0.0
C1357 C 0.46514 0.44328 0.13959 0.0
H1358 H 0.44451 0.40736 0.17423 0.0
Co1359 Co 0.41608 0.42881 0.13857 0.0
C1360 C 0.43789 0.42858 0.08939 0.0
O1361 O 0.45894 0.4283 0.09584 0.0
N1362 N 0.38547 0.4253 0.13003 0.0
C1363 C 0.35518 0.41063 0.11071 0.0
C1364 C 0.3781 0.41188 0.11197 0.0
C1365 C 0.36636 0.43135 0.14011 0.0
N1366 N 0.3478 0.42285 0.12833 0.0
O1367 O 0.41447 0.46185 0.14294 0.0
H1368 H 0.38862 0.40172 0.10162 0.0
H1369 H 0.36595 0.44087 0.15611 0.0
O1370 O 0.42249 0.42971 0.10445 0.0
C1371 C 0.40969 0.46448 0.16396 0.0
O1372 O 0.40777 0.44603 0.17607 0.0
N1373 N 0.41667 0.39689 0.1375 0.0
C1374 C 0.40935 0.34969 0.13352 0.0
C1375 C 0.42668 0.36114 0.12152 0.0
C1376 C 0.43026 0.38485 0.12397 0.0
C1377 C 0.40163 0.38576 0.15133 0.0
C1378 C 0.39745 0.36205 0.14941 0.0
H1379 H 0.44358 0.39339 0.11466 0.0
H1380 H 0.39178 0.39551 0.1629 0.0
H1381 H 0.46465 0.45525 0.12611 0.0
H1382 H 0.48892 0.41138 0.17373 0.0
H1383 H 0.3446 0.40012 0.09876 0.0
H1384 H 0.43685 0.35191 0.10979 0.0
H1385 H 0.38417 0.35371 0.15923 0.0
C1386 C 0.69881 0.45717 0.11516 0.0
C1387 C 0.69156 0.47818 0.12182 0.0
N1388 N 0.67208 0.48131 0.11079 0.0
N1389 N 0.68409 0.44664 0.09995 0.0
C1390 C 0.66838 0.46214 0.09713 0.0
H1391 H 0.71289 0.44921 0.12246 0.0
Co1392 Co 0.6825 0.41426 0.09346 0.0
C1393 C 0.63359 0.40084 0.08736 0.0
O1394 O 0.63733 0.38097 0.09565 0.0
N1395 N 0.68064 0.38138 0.08686 0.0
C1396 C 0.67384 0.34926 0.0656 0.0
C1397 C 0.67597 0.37271 0.06568 0.0
C1398 C 0.68123 0.36223 0.09938 0.0
N1399 N 0.67688 0.34241 0.08689 0.0
O1400 O 0.69489 0.41886 0.06261 0.0
H1401 H 0.67319 0.3828 0.05108 0.0
H1402 H 0.68358 0.36253 0.11745 0.0
O1403 O 0.65036 0.41533 0.08363 0.0
C1404 C 0.71537 0.41325 0.06265 0.0
O1405 O 0.72424 0.40865 0.08232 0.0
N1406 N 0.67366 0.41011 0.12366 0.0
C1407 C 0.66346 0.40252 0.16868 0.0
C1408 C 0.64924 0.41451 0.15518 0.0
C1409 C 0.65487 0.41851 0.13281 0.0
C1410 C 0.68901 0.40104 0.13739 0.0
C1411 C 0.68387 0.39623 0.15981 0.0
H1412 H 0.64415 0.42856 0.12305 0.0
H1413 H 0.70494 0.39658 0.13057 0.0
H1414 H 0.65372 0.45883 0.08634 0.0
H1415 H 0.69962 0.48976 0.13466 0.0
H1416 H 0.66977 0.33832 0.0508 0.0
H1417 H 0.63365 0.42034 0.1617 0.0
H1418 H 0.69566 0.38769 0.17007 0.0
C1419 C 0.84071 0.57484 0.60138 0.0
C1420 C 0.84278 0.55219 0.60609 0.0
N1421 N 0.86485 0.54895 0.60886 0.0
N1422 N 0.86134 0.58594 0.60105 0.0
C1423 C 0.87563 0.56975 0.60568 0.0
H1424 H 0.82514 0.58272 0.59847 0.0
Co1425 Co 0.86774 0.61713 0.59606 0.0
C1426 C 0.91815 0.62494 0.59728 0.0
O1427 O 0.91504 0.64497 0.60695 0.0
N1428 N 0.874 0.64826 0.59022 0.0
C1429 C 0.88769 0.67816 0.57123 0.0
C1430 C 0.88431 0.65482 0.57102 0.0
C1431 C 0.87074 0.66815 0.6016 0.0
N1432 N 0.87919 0.68663 0.59051 0.0
O1433 O 0.85795 0.61245 0.56348 0.0
H1434 H 0.88993 0.64324 0.55799 0.0
H1435 H 0.86251 0.66923 0.61768 0.0
O1436 O 0.90077 0.61165 0.5908 0.0
C1437 C 0.83771 0.61862 0.56127 0.0
O1438 O 0.82748 0.62489 0.5798 0.0
N1439 N 0.87335 0.62219 0.62804 0.0
C1440 C 0.87605 0.63164 0.67499 0.0
C1441 C 0.89295 0.62041 0.6639 0.0
C1442 C 0.89096 0.61522 0.64055 0.0
C1443 C 0.85597 0.63151 0.63902 0.0
C1444 C 0.85711 0.63671 0.66239 0.0
H1445 H 0.90357 0.60536 0.63289 0.0
H1446 H 0.84122 0.63538 0.62942 0.0
H1447 H 0.89361 0.57327 0.60718 0.0
H1448 H 0.82899 0.53918 0.60716 0.0
H1449 H 0.89655 0.68794 0.55848 0.0
H1450 H 0.90746 0.61546 0.67326 0.0
H1451 H 0.84345 0.6449 0.67048 0.0
C1452 C 0.64845 0.43156 0.68685 0.0
C1453 C 0.67121 0.43084 0.6838 0.0
N1454 N 0.6759 0.40873 0.68229 0.0
N1455 N 0.63883 0.41 0.68726 0.0
C1456 C 0.65604 0.39644 0.68463 0.0
H1457 H 0.63936 0.44683 0.68752 0.0
Co1458 Co 0.60798 0.40305 0.68657 0.0
C1459 C 0.59995 0.35126 0.68486 0.0
O1460 O 0.58024 0.35413 0.67568 0.0
N1461 N 0.576 0.39693 0.68599 0.0
C1462 C 0.5411 0.38699 0.69732 0.0
C1463 C 0.56352 0.3897 0.7037 0.0
C1464 C 0.56055 0.39879 0.66919 0.0
N1465 N 0.53932 0.39263 0.67552 0.0
O1466 O 0.60665 0.41352 0.71843 0.0
H1467 H 0.57035 0.38602 0.72011 0.0
H1468 H 0.56444 0.40452 0.65252 0.0
O1469 O 0.61241 0.36916 0.69222 0.0
C1470 C 0.60036 0.43398 0.71687 0.0
O1471 O 0.59602 0.44101 0.6965 0.0
N1472 N 0.60973 0.39741 0.65546 0.0
C1473 C 0.6055 0.39301 0.60901 0.0
C1474 C 0.61479 0.37586 0.62115 0.0
C1475 C 0.61745 0.37874 0.64447 0.0
C1476 C 0.6044 0.41576 0.64348 0.0
C1477 C 0.6016 0.41377 0.62007 0.0
H1478 H 0.62555 0.36589 0.65336 0.0
H1479 H 0.60034 0.43133 0.65235 0.0
H1480 H 0.65396 0.37801 0.68285 0.0
H1481 H 0.68327 0.44544 0.68205 0.0
H1482 H 0.52731 0.38077 0.70777 0.0
H1483 H 0.61944 0.3602 0.61275 0.0
H1484 H 0.59513 0.42769 0.61099 0.0
C1485 C 0.29674 0.57537 0.89907 0.0
C1486 C 0.3003 0.55268 0.89506 0.0
N1487 N 0.32111 0.54917 0.90283 0.0
N1488 N 0.31529 0.58598 0.90914 0.0
C1489 C 0.32953 0.5695 0.91184 0.0
H1490 H 0.28241 0.584 0.8933 0.0
Co1491 Co 0.32103 0.61717 0.91145 0.0
C1492 C 0.37089 0.62677 0.90924 0.0
O1493 O 0.36654 0.64493 0.89801 0.0
N1494 N 0.326 0.64921 0.9145 0.0
C1495 C 0.33837 0.68354 0.92906 0.0
C1496 C 0.33719 0.66035 0.93219 0.0
C1497 C 0.31964 0.66615 0.90149 0.0
N1498 N 0.32743 0.68705 0.90958 0.0
O1499 O 0.31293 0.61689 0.94334 0.0
H1500 H 0.34478 0.65202 0.94611 0.0
H1501 H 0.3093 0.66367 0.88647 0.0
O1502 O 0.35439 0.61421 0.91746 0.0
C1503 C 0.29238 0.62182 0.94426 0.0
O1504 O 0.28195 0.62498 0.92498 0.0
N1505 N 0.32658 0.61665 0.87968 0.0
C1506 C 0.33758 0.6211 0.83458 0.0
C1507 C 0.34998 0.60775 0.8484 0.0
C1508 C 0.34366 0.60502 0.87071 0.0
C1509 C 0.31176 0.62561 0.86523 0.0
C1510 C 0.31738 0.62889 0.84255 0.0
H1511 H 0.3532 0.59423 0.88086 0.0
H1512 H 0.29599 0.63109 0.87149 0.0
H1513 H 0.34663 0.57276 0.91809 0.0
H1514 H 0.28905 0.54017 0.88583 0.0
H1515 H 0.34735 0.69665 0.93978 0.0
H1516 H 0.36498 0.60029 0.84229 0.0
H1517 H 0.30673 0.63825 0.8318 0.0
C1518 C 0.17054 0.42055 0.41361 0.0
C1519 C 0.16878 0.44341 0.4095 0.0
N1520 N 0.14684 0.4478 0.40994 0.0
N1521 N 0.14989 0.41026 0.4168 0.0
C1522 C 0.13588 0.42731 0.41445 0.0
H1523 H 0.18593 0.41186 0.41378 0.0
Co1524 Co 0.14361 0.37836 0.42077 0.0
C1525 C 0.09339 0.37106 0.42502 0.0
O1526 O 0.09456 0.35034 0.41615 0.0
N1527 N 0.13773 0.34568 0.42478 0.0
C1528 C 0.12765 0.31351 0.44254 0.0
C1529 C 0.13189 0.33688 0.44491 0.0
C1530 C 0.13706 0.32678 0.41042 0.0
N1531 N 0.13075 0.30699 0.42078 0.0
O1532 O 0.15484 0.38226 0.4526 0.0
H1533 H 0.12999 0.3469 0.46038 0.0
H1534 H 0.14006 0.32735 0.39249 0.0
O1535 O 0.11167 0.38388 0.42885 0.0
C1536 C 0.17513 0.37628 0.45353 0.0
O1537 O 0.18381 0.36913 0.43444 0.0
N1538 N 0.13598 0.375 0.38979 0.0
C1539 C 0.13025 0.36835 0.34302 0.0
C1540 C 0.11408 0.37888 0.35595 0.0
C1541 C 0.11748 0.3825 0.37926 0.0
C1542 C 0.15273 0.3666 0.37721 0.0
C1543 C 0.15007 0.36271 0.35385 0.0
H1544 H 0.10539 0.39175 0.3885 0.0
H1545 H 0.16799 0.36214 0.38558 0.0
H1546 H 0.11793 0.42455 0.4152 0.0
H1547 H 0.18275 0.45569 0.40629 0.0
H1548 H 0.12239 0.30224 0.45592 0.0
H1549 H 0.09907 0.3846 0.34806 0.0
H1550 H 0.16319 0.35491 0.34448 0.0
C1551 C 0.35509 0.59045 0.31816 0.0
C1552 C 0.33259 0.59097 0.32273 0.0
N1553 N 0.32748 0.61296 0.32307 0.0
N1554 N 0.36408 0.61202 0.31586 0.0
C1555 C 0.34676 0.62539 0.3186 0.0
H1556 H 0.36465 0.57548 0.3181 0.0
Co1557 Co 0.39473 0.61882 0.31519 0.0
C1558 C 0.40358 0.6701 0.32014 0.0
O1559 O 0.42346 0.66646 0.32843 0.0
N1560 N 0.42659 0.62458 0.3142 0.0
C1561 C 0.46074 0.63556 0.30149 0.0
C1562 C 0.43822 0.63182 0.29591 0.0
C1563 C 0.44268 0.62386 0.33058 0.0
N1564 N 0.46339 0.63075 0.32339 0.0
O1565 O 0.3938 0.61238 0.28253 0.0
H1566 H 0.43076 0.63526 0.27973 0.0
H1567 H 0.43959 0.61942 0.34781 0.0
O1568 O 0.39052 0.65286 0.31243 0.0
C1569 C 0.39915 0.59193 0.27814 0.0
O1570 O 0.40496 0.57951 0.29503 0.0
N1571 N 0.39461 0.62214 0.34708 0.0
C1572 C 0.39803 0.62549 0.39397 0.0
C1573 C 0.38778 0.64215 0.38202 0.0
C1574 C 0.38563 0.63981 0.35864 0.0
C1575 C 0.40141 0.60407 0.3587 0.0
C1576 C 0.40382 0.6056 0.38232 0.0
H1577 H 0.37664 0.6523 0.35012 0.0
H1578 H 0.40652 0.58911 0.34945 0.0
H1579 H 0.3485 0.64387 0.31928 0.0
H1580 H 0.32113 0.57649 0.32678 0.0
H1581 H 0.47393 0.64239 0.29063 0.0
H1582 H 0.38174 0.65705 0.3907 0.0
H1583 H 0.41107 0.59198 0.3912 0.0
H1584 H 0.11593 0.39703 0.03681 0.0
H1585 H 0.11725 0.33514 0.99514 0.0
H1586 H 0.12591 0.41991 1.00439 0.0
H1587 H 0.12618 0.35845 0.96216 0.0
H1588 H 0.11722 0.41493 0.90734 0.0
H1589 H 0.10487 0.39335 0.94025 0.0
H1590 H 0.16429 0.42058 0.97743 0.0
H1591 H 0.17725 0.44139 0.9441 0.0
C1592 C 0.11809 0.3882 0.02076 0.0
C1593 C 0.11602 0.36407 0.0188 0.0
C1594 C 0.12384 0.40143 1.00213 0.0
C1595 C 0.1269 0.39097 0.98082 0.0
C1596 C 0.12391 0.36694 0.97846 0.0
C1597 C 0.11883 0.35362 0.99731 0.0
C1598 C 0.12755 0.41656 0.92257 0.0
C1599 C 0.14832 0.4298 0.92295 0.0
C1600 C 0.12053 0.40406 0.94135 0.0
C1601 C 0.13375 0.4051 0.96126 0.0
C1602 C 0.15382 0.4194 0.96223 0.0
C1603 C 0.16118 0.43139 0.9432 0.0
H1604 H 0.86678 0.84848 0.29625 0.0
H1605 H 0.91746 0.82294 0.25271 0.0
H1606 H 0.84253 0.85312 0.26322 0.0
H1607 H 0.89316 0.82748 0.21954 0.0
H1608 H 0.83721 0.8252 0.16482 0.0
H1609 H 0.85552 0.81384 0.19978 0.0
H1610 H 0.8454 0.87988 0.231 0.0
H1611 H 0.8279 0.89134 0.19608 0.0
C1612 C 0.87255 0.84339 0.27966 0.0
C1613 C 0.89405 0.83525 0.27715 0.0
C1614 C 0.85871 0.84622 0.26067 0.0
C1615 C 0.8658 0.84063 0.23864 0.0
C1616 C 0.887 0.83171 0.23622 0.0
C1617 C 0.90102 0.82927 0.2552 0.0
C1618 C 0.83826 0.837 0.17938 0.0
C1619 C 0.83084 0.85914 0.17771 0.0
C1620 C 0.84902 0.83059 0.19934 0.0
C1621 C 0.85209 0.84598 0.21824 0.0
C1622 C 0.84321 0.86748 0.21696 0.0
C1623 C 0.833 0.87402 0.19694 0.0
H1624 H 0.40325 0.69845 0.52013 0.0
H1625 H 0.41693 0.63096 0.54156 0.0
H1626 H 0.4026 0.68472 0.48105 0.0
H1627 H 0.41773 0.61759 0.50211 0.0
H1628 H 0.38689 0.59838 0.42963 0.0
H1629 H 0.39196 0.60902 0.47001 0.0
H1630 H 0.42743 0.67298 0.45245 0.0
H1631 H 0.42163 0.66264 0.41248 0.0
C1632 C 0.40626 0.68072 0.51657 0.0
C1633 C 0.41007 0.66588 0.53413 0.0
C1634 C 0.40623 0.6729 0.49407 0.0
C1635 C 0.41033 0.6501 0.48845 0.0
C1636 C 0.4144 0.63522 0.50591 0.0
C1637 C 0.41422 0.64302 0.52854 0.0
C1638 C 0.396 0.61452 0.43458 0.0
C1639 C 0.40353 0.62991 0.41816 0.0
C1640 C 0.39899 0.62061 0.45761 0.0
C1641 C 0.40972 0.64205 0.46439 0.0
C1642 C 0.41853 0.65664 0.44779 0.0
C1643 C 0.41532 0.65071 0.42494 0.0
H1644 H 0.64497 0.11012 0.67271 0.0
H1645 H 0.6397 0.18304 0.67369 0.0
H1646 H 0.6387 0.10994 0.71352 0.0
H1647 H 0.63336 0.18305 0.71449 0.0
H1648 H 0.62786 0.17486 0.79142 0.0
H1649 H 0.64518 0.17561 0.75415 0.0
H1650 H 0.60284 0.11546 0.73278 0.0
H1651 H 0.58604 0.11426 0.77 0.0
C1652 C 0.64382 0.12631 0.68192 0.0
C1653 C 0.64338 0.14667 0.67016 0.0
C1654 C 0.6397 0.12616 0.70521 0.0
C1655 C 0.63507 0.14641 0.71722 0.0
C1656 C 0.63695 0.16716 0.70584 0.0
C1657 C 0.64089 0.16724 0.68249 0.0
C1658 C 0.62241 0.16161 0.77891 0.0
C1659 C 0.60546 0.14447 0.78391 0.0
C1660 C 0.63229 0.16214 0.75746 0.0
C1661 C 0.62563 0.14545 0.74052 0.0
C1662 C 0.60876 0.12832 0.74554 0.0
C1663 C 0.59882 0.12785 0.76687 0.0
H1664 H 0.07707 0.62298 0.45749 0.0
H1665 H 0.12609 0.6755 0.4845 0.0
H1666 H 0.08184 0.60104 0.49109 0.0
H1667 H 0.13035 0.6538 0.51812 0.0
H1668 H 0.14846 0.60581 0.56991 0.0
H1669 H 0.14556 0.62065 0.53252 0.0
H1670 H 0.0745 0.59964 0.53032 0.0
H1671 H 0.0777 0.58351 0.56732 0.0
C1672 C 0.08884 0.63005 0.47042 0.0
C1673 C 0.10162 0.65102 0.46751 0.0
C1674 C 0.09153 0.61734 0.48991 0.0
C1675 C 0.10688 0.62528 0.50732 0.0
C1676 C 0.11894 0.64662 0.50485 0.0
C1677 C 0.11631 0.65927 0.48541 0.0
C1678 C 0.1324 0.60343 0.56151 0.0
C1679 C 0.11336 0.5935 0.57238 0.0
C1680 C 0.13059 0.61249 0.53989 0.0
C1681 C 0.10962 0.61213 0.52848 0.0
C1682 C 0.09097 0.60044 0.53841 0.0
C1683 C 0.09287 0.59116 0.55986 0.0
H1684 H 0.59158 0.86093 0.82585 0.0
H1685 H 0.66255 0.87008 0.81119 0.0
H1686 H 0.58326 0.8508 0.78628 0.0
H1687 H 0.6542 0.86044 0.77133 0.0
H1688 H 0.63537 0.83618 0.70119 0.0
H1689 H 0.64052 0.83262 0.7421 0.0
H1690 H 0.58336 0.87267 0.75376 0.0
H1691 H 0.57748 0.87478 0.71349 0.0
C1692 C 0.60539 0.8609 0.81409 0.0
C1693 C 0.62766 0.86669 0.82146 0.0
C1694 C 0.60065 0.85495 0.79146 0.0
C1695 C 0.61805 0.85496 0.77564 0.0
C1696 C 0.64045 0.85995 0.78316 0.0
C1697 C 0.64523 0.8657 0.80592 0.0
C1698 C 0.62358 0.84356 0.71259 0.0
C1699 C 0.60643 0.85634 0.70427 0.0
C1700 C 0.62664 0.84175 0.73595 0.0
C1701 C 0.61261 0.85273 0.75116 0.0
C1702 C 0.59443 0.86388 0.74261 0.0
C1703 C 0.59127 0.86545 0.71945 0.0
H1704 H 0.40013 0.33769 0.97451 0.0
H1705 H 0.44442 0.38975 0.9445 0.0
H1706 H 0.40189 0.35991 0.01016 0.0
H1707 H 0.4454 0.41224 0.9799 0.0
H1708 H 0.46734 0.42802 0.05457 0.0
H1709 H 0.46191 0.41027 0.01709 0.0
H1710 H 0.39132 0.39531 0.03031 0.0
H1711 H 0.39665 0.41394 0.06788 0.0
C1712 C 0.41023 0.35383 0.97532 0.0
C1713 C 0.42232 0.36157 0.95628 0.0
C1714 C 0.41096 0.3668 0.99585 0.0
C1715 C 0.42382 0.38795 0.99811 0.0
C1716 C 0.43551 0.39593 0.979 0.0
C1717 C 0.43479 0.383 0.95847 0.0
C1718 C 0.45049 0.42129 0.04956 0.0
C1719 C 0.43261 0.42185 0.06495 0.0
C1720 C 0.44738 0.41109 0.02784 0.0
C1721 C 0.42625 0.40089 0.0206 0.0
C1722 C 0.40799 0.40248 0.03543 0.0
C1723 C 0.41107 0.41314 0.05716 0.0
H1724 H 0.94238 0.13729 0.2297 0.0
H1725 H 0.89086 0.18002 0.20712 0.0
H1726 H 0.92138 0.12983 0.26384 0.0
H1727 H 0.87049 0.1732 0.24179 0.0
H1728 H 0.82768 0.12782 0.29219 0.0
H1729 H 0.84852 0.13964 0.25846 0.0
H1730 H 0.90989 0.14917 0.29858 0.0
H1731 H 0.88932 0.13766 0.33197 0.0
C1732 C 0.92677 0.14532 0.23196 0.0
C1733 C 0.91826 0.15885 0.21509 0.0
C1734 C 0.91478 0.14116 0.25172 0.0
C1735 C 0.8941 0.15068 0.25536 0.0
C1736 C 0.88614 0.16523 0.23922 0.0
C1737 C 0.89809 0.16935 0.21938 0.0
C1738 C 0.84557 0.13263 0.29378 0.0
C1739 C 0.8569 0.13134 0.31468 0.0
C1740 C 0.85749 0.13944 0.27451 0.0
C1741 C 0.88091 0.14508 0.27586 0.0
C1742 C 0.89198 0.14446 0.29689 0.0
C1743 C 0.88015 0.13776 0.31601 0.0
H1744 H 0.88346 0.08351 0.40652 0.0
H1745 H 0.90915 0.15339 0.42133 0.0
H1746 H 0.92124 0.07383 0.39568 0.0
H1747 H 0.94702 0.14336 0.41167 0.0
H1748 H 0.01543 0.11161 0.40676 0.0
H1749 H 0.97841 0.1155 0.42345 0.0
H1750 H 0.94627 0.09027 0.36067 0.0
H1751 H 0.98333 0.08662 0.34385 0.0
C1752 C 0.89719 0.09664 0.40825 0.0
C1753 C 0.89318 0.11931 0.41475 0.0
C1754 C 0.91884 0.09109 0.40186 0.0
C1755 C 0.93705 0.10789 0.40268 0.0
C1756 C 0.93336 0.13004 0.41093 0.0
C1757 C 0.91167 0.13574 0.4166 0.0
C1758 C 1.00049 0.10657 0.39662 0.0
C1759 C 1.00234 0.0989 0.37392 0.0
C1760 C 0.9793 0.10887 0.40616 0.0
C1761 C 0.95945 0.10311 0.39341 0.0
C1762 C 0.96126 0.09463 0.37099 0.0
C1763 C 0.98246 0.09275 0.3613 0.0
H1764 H 0.15188 0.81491 0.57339 0.0
H1765 H 0.20949 0.81786 0.61826 0.0
H1766 H 0.14675 0.77339 0.57683 0.0
H1767 H 0.20447 0.77631 0.62219 0.0
H1768 H 0.19402 0.69807 0.61824 0.0
H1769 H 0.2036 0.73739 0.60731 0.0
H1770 H 0.13297 0.74966 0.60656 0.0
H1771 H 0.12345 0.71035 0.61725 0.0
C1772 C 0.16414 0.80641 0.58309 0.0
C1773 C 0.18145 0.81952 0.59505 0.0
C1774 C 0.16091 0.78268 0.58555 0.0
C1775 C 0.1749 0.77138 0.60017 0.0
C1776 C 0.19339 0.78427 0.61069 0.0
C1777 C 0.19653 0.80808 0.60823 0.0
C1778 C 0.18053 0.7092 0.61583 0.0
C1779 C 0.15793 0.70096 0.61869 0.0
C1780 C 0.18604 0.73179 0.60951 0.0
C1781 C 0.16912 0.74685 0.60587 0.0
C1782 C 0.1465 0.73853 0.60866 0.0
C1783 C 0.141 0.71593 0.6149 0.0
H1784 H 0.48164 0.93529 0.85717 0.0
H1785 H 0.44832 0.90458 0.91429 0.0
H1786 H 0.51823 0.92821 0.87373 0.0
H1787 H 0.48483 0.89769 0.93095 0.0
H1788 H 0.54842 0.85448 0.92555 0.0
H1789 H 0.5122 0.86985 0.91811 0.0
H1790 H 0.54615 0.93596 0.90604 0.0
H1791 H 0.58238 0.92051 0.91363 0.0
C1792 C 0.48219 0.9275 0.8735 0.0
C1793 C 0.46209 0.92039 0.88431 0.0
C1794 C 0.50313 0.92357 0.88307 0.0
C1795 C 0.50443 0.91219 0.90358 0.0
C1796 C 0.48437 0.9063 0.91504 0.0
C1797 C 0.46345 0.91045 0.90558 0.0
C1798 C 0.54808 0.87247 0.92199 0.0
C1799 C 0.56825 0.88633 0.92055 0.0
C1800 C 0.52733 0.88131 0.91775 0.0
C1801 C 0.52626 0.90415 0.91149 0.0
C1802 C 0.5464 0.9183 0.91083 0.0
C1803 C 0.56718 0.90951 0.91549 0.0
H1804 H 0.40103 0.31457 0.16249 0.0
H1805 H 0.40133 0.33067 0.0917 0.0
H1806 H 0.39118 0.27412 0.15204 0.0
H1807 H 0.39108 0.2907 0.08131 0.0
H1808 H 0.40752 0.21707 0.07117 0.0
H1809 H 0.4123 0.25702 0.08276 0.0
H1810 H 0.3619 0.24613 0.13401 0.0
H1811 H 0.35676 0.20563 0.12212 0.0
C1812 C 0.39879 0.30944 0.14476 0.0
C1813 C 0.40248 0.32548 0.12783 0.0
C1814 C 0.39302 0.28641 0.13879 0.0
C1815 C 0.39072 0.27927 0.11586 0.0
C1816 C 0.39331 0.29562 0.09909 0.0
C1817 C 0.39924 0.31846 0.10501 0.0
C1818 C 0.3971 0.22308 0.08464 0.0
C1819 C 0.38154 0.20808 0.0955 0.0
C1820 C 0.3999 0.24607 0.09132 0.0
C1821 C 0.38729 0.25473 0.10911 0.0
C1822 C 0.37189 0.23983 0.12028 0.0
C1823 C 0.369 0.21667 0.11348 0.0
H1824 H 0.03911 0.89217 0.14163 0.0
H1825 H 0.00559 0.88651 0.20593 0.0
H1826 H 1.00282 0.89091 0.1222 0.0
H1827 H 0.96926 0.88409 0.18627 0.0
H1828 H 0.90805 0.90223 0.14775 0.0
H1829 H 0.94572 0.90848 0.16481 0.0
H1830 H 0.9709 0.8624 0.114 0.0
H1831 H 0.93306 0.85656 0.09682 0.0
C1832 C 0.02405 0.89085 0.15169 0.0
C1833 C 0.02529 0.88965 0.17544 0.0
C1834 C 1.00325 0.88983 0.14046 0.0
C1835 C 0.98325 0.88748 0.15271 0.0
C1836 C 0.98444 0.88626 0.17642 0.0
C1837 C 0.00524 0.88736 0.18766 0.0
C1838 C 0.92185 0.89393 0.14002 0.0
C1839 C 0.91804 0.87916 0.12099 0.0
C1840 C 0.94327 0.89727 0.14986 0.0
C1841 C 0.96115 0.88574 0.14086 0.0
C1842 C 0.95744 0.87164 0.12118 0.0
C1843 C 0.93593 0.86829 0.11133 0.0
H1844 H 0.34272 0.79628 0.37019 0.0
H1845 H 0.39591 0.77917 0.4155 0.0
H1846 H 0.34954 0.76296 0.34555 0.0
H1847 H 0.40251 0.74609 0.39109 0.0
H1848 H 0.429 0.70949 0.33014 0.0
H1849 H 0.41797 0.74328 0.35075 0.0
H1850 H 0.34837 0.71705 0.3462 0.0
H1851 H 0.35947 0.6826 0.32555 0.0
C1852 C 0.35573 0.78538 0.37501 0.0
C1853 C 0.36875 0.79054 0.39493 0.0
C1854 C 0.35953 0.76621 0.36094 0.0
C1855 C 0.37668 0.75197 0.36624 0.0
C1856 C 0.3893 0.75684 0.38638 0.0
C1857 C 0.38535 0.77574 0.40054 0.0
C1858 C 0.41123 0.71095 0.33305 0.0
C1859 C 0.39521 0.69292 0.3264 0.0
C1860 C 0.40495 0.73034 0.34509 0.0
C1861 C 0.38238 0.73263 0.35065 0.0
C1862 C 0.36595 0.71569 0.34233 0.0
C1863 C 0.37231 0.69597 0.33035 0.0
H1864 H 0.52945 0.15701 0.60065 0.0
H1865 H 0.55252 0.08901 0.60454 0.0
H1866 H 0.49547 0.14444 0.62087 0.0
H1867 H 0.51894 0.07665 0.62487 0.0
H1868 H 0.44965 0.06025 0.65515 0.0
H1869 H 0.47858 0.06949 0.62764 0.0
H1870 H 0.49271 0.136 0.66084 0.0
H1871 H 0.46298 0.12758 0.68729 0.0
C1872 C 0.52705 0.13932 0.60542 0.0
C1873 C 0.54378 0.12414 0.60136 0.0
C1874 C 0.50771 0.13214 0.61706 0.0
C1875 C 0.50496 0.10977 0.62503 0.0
C1876 C 0.52062 0.09401 0.61901 0.0
C1877 C 0.53987 0.10113 0.60727 0.0
C1878 C 0.45878 0.07692 0.65657 0.0
C1879 C 0.45333 0.0934 0.67318 0.0
C1880 C 0.47545 0.08215 0.64081 0.0
C1881 C 0.48736 0.10376 0.64164 0.0
C1882 C 0.48315 0.11952 0.65922 0.0
C1883 C 0.46634 0.11444 0.67477 0.0
H1884 H 0.18429 0.2689 0.91974 0.0
H1885 H 0.18623 0.2255 0.85914 0.0
H1886 H 0.17698 0.30112 0.89663 0.0
H1887 H 0.17979 0.2583 0.83611 0.0
H1888 H 0.19797 0.33997 0.81488 0.0
H1889 H 0.20228 0.30212 0.83045 0.0
H1890 H 0.14147 0.30782 0.86833 0.0
H1891 H 0.13679 0.34497 0.85222 0.0
C1892 C 0.18316 0.26602 0.90158 0.0
C1893 C 0.18558 0.24413 0.89161 0.0
C1894 C 0.179 0.28465 0.88829 0.0
C1895 C 0.17753 0.28219 0.86455 0.0
C1896 C 0.1808 0.26069 0.85437 0.0
C1897 C 0.18459 0.24187 0.8677 0.0
C1898 C 0.18472 0.33239 0.82525 0.0
C1899 C 0.16663 0.34519 0.83169 0.0
C1900 C 0.18742 0.31092 0.83454 0.0
C1901 C 0.17236 0.30216 0.85086 0.0
C1902 C 0.15338 0.31414 0.85588 0.0
C1903 C 0.15046 0.33524 0.84626 0.0
H1904 H 0.4098 0.90852 0.10264 0.0
H1905 H 0.42064 0.93493 0.17128 0.0
H1906 H 0.39848 0.94567 0.09141 0.0
H1907 H 0.40977 0.97222 0.15997 0.0
H1908 H 0.40354 0.0414 0.12778 0.0
H1909 H 0.4204 1.00561 0.13507 0.0
H1910 H 0.36379 0.96754 0.10159 0.0
H1911 H 0.34694 1.00343 0.09411 0.0
C1912 C 0.41053 0.92232 0.1152 0.0
C1913 C 0.41613 0.91852 0.1379 0.0
C1914 C 0.40373 0.94363 0.1088 0.0
C1915 C 0.40298 0.96184 0.12485 0.0
C1916 C 0.41021 0.95858 0.14716 0.0
C1917 C 0.41654 0.93718 0.15362 0.0
C1918 C 0.39477 0.02544 0.12173 0.0
C1919 C 0.37381 0.02533 0.11041 0.0
C1920 C 0.4044 1.00492 0.12604 0.0
C1921 C 0.39348 0.98374 0.11888 0.0
C1922 C 0.37275 0.9836 0.10712 0.0
C1923 C 0.36296 1.00414 0.10307 0.0
H1924 H 0.90598 0.58402 0.87074 0.0
H1925 H 0.89987 0.60008 0.94214 0.0
H1926 H 0.89528 0.54397 0.87724 0.0
H1927 H 0.889 0.5597 0.94868 0.0
H1928 H 0.89437 0.47624 0.94244 0.0
H1929 H 0.90338 0.51804 0.94454 0.0
H1930 H 0.85758 0.5251 0.8884 0.0
H1931 H 0.84894 0.48368 0.88641 0.0
C1932 C 0.90288 0.57892 0.88795 0.0
C1933 C 0.90386 0.59535 0.9059 0.0
C1934 C 0.89644 0.556 0.89164 0.0
C1935 C 0.89073 0.54879 0.91339 0.0
C1936 C 0.89319 0.56481 0.93171 0.0
C1937 C 0.89967 0.58794 0.92798 0.0
C1938 C 0.88554 0.48698 0.93134 0.0
C1939 C 0.8709 0.47695 0.91432 0.0
C1940 C 0.89082 0.5108 0.93237 0.0
C1941 C 0.88164 0.52472 0.91622 0.0
C1942 C 0.86529 0.51477 0.90075 0.0
C1943 C 0.86006 0.49116 0.89979 0.0
H1944 H 0.75471 0.55302 0.15299 0.0
H1945 H 0.78415 0.60543 0.20052 0.0
H1946 H 0.72082 0.57351 0.15114 0.0
H1947 H 0.75045 0.62539 0.19838 0.0
H1948 H 0.67508 0.64321 0.19897 0.0
H1949 H 0.7081 0.62188 0.2059 0.0
H1950 H 0.71687 0.61291 0.13375 0.0
H1951 H 0.6842 0.63451 0.12678 0.0
C1952 C 0.75412 0.56863 0.16319 0.0
C1953 C 0.77283 0.57774 0.17625 0.0
C1954 C 0.73466 0.58036 0.16208 0.0
C1955 C 0.73343 0.60123 0.1742 0.0
C1956 C 0.75113 0.60936 0.18877 0.0
C1957 C 0.77061 0.59775 0.18984 0.0
C1958 C 0.68446 0.63721 0.18464 0.0
C1959 C 0.67711 0.64032 0.16234 0.0
C1960 C 0.70312 0.62482 0.18861 0.0
C1961 C 0.71449 0.61533 0.17033 0.0
C1962 C 0.70788 0.61954 0.14808 0.0
C1963 C 0.68939 0.63203 0.14411 0.0
H1964 H 0.59014 0.47462 0.39941 0.0
H1965 H 0.65494 0.44703 0.39143 0.0
H1966 H 0.609 0.51237 0.40886 0.0
H1967 H 0.67367 0.48442 0.40105 0.0
H1968 H 0.69491 0.55947 0.38421 0.0
H1969 H 0.67927 0.51986 0.38301 0.0
H1970 H 0.63271 0.53644 0.43558 0.0
H1971 H 0.64846 0.5765 0.43615 0.0
C1972 C 0.60838 0.47652 0.39993 0.0
C1973 C 0.62099 0.45784 0.39429 0.0
C1974 C 0.61922 0.49815 0.40548 0.0
C1975 C 0.64291 0.50152 0.40564 0.0
C1976 C 0.65543 0.48262 0.40071 0.0
C1977 C 0.64465 0.46114 0.39508 0.0
C1978 C 0.68206 0.5543 0.3962 0.0
C1979 C 0.67322 0.57077 0.4106 0.0
C1980 C 0.67291 0.53165 0.39545 0.0
C1981 C 0.65456 0.52489 0.40909 0.0
C1982 C 0.64665 0.54111 0.42465 0.0
C1983 C 0.65594 0.56389 0.42539 0.0
H1984 H 0.32253 0.90162 0.15702 0.0
H1985 H 0.29497 0.83219 0.14209 0.0
H1986 H 0.28533 0.91261 0.16691 0.0
H1987 H 0.25755 0.84329 0.15255 0.0
H1988 H 0.20003 0.87188 0.19682 0.0
H1989 H 0.23669 0.85815 0.1872 0.0
H1990 H 0.24981 0.91595 0.1446 0.0
H1991 H 0.21341 0.9295 0.15399 0.0
C1992 C 0.30849 0.88874 0.15561 0.0
C1993 C 0.31163 0.86612 0.14837 0.0
C1994 C 0.28723 0.89503 0.16141 0.0
C1995 C 0.26863 0.87883 0.16026 0.0
C1996 C 0.27172 0.85605 0.15364 0.0
C1997 C 0.29308 0.84974 0.14766 0.0
C1998 C 0.21073 0.88152 0.18531 0.0
C1999 C 0.20404 0.90194 0.17642 0.0
C2000 C 0.23162 0.87366 0.1798 0.0
C2001 C 0.24606 0.88615 0.16536 0.0
C2002 C 0.23914 0.90627 0.15615 0.0
C2003 C 0.21836 0.91408 0.16162 0.0
H2004 H 0.18236 0.02514 0.62145 0.0
H2005 H 0.12462 0.98389 0.5938 0.0
H2006 H 0.15818 0.05521 0.63227 0.0
H2007 H 0.10038 0.01359 0.60542 0.0
H2008 H 0.06359 0.07934 0.60857 0.0
H2009 H 0.08835 0.04959 0.59804 0.0
H2010 H 0.13055 0.06883 0.65666 0.0
H2011 H 0.10549 0.0988 0.66706 0.0
C2012 C 0.16456 0.02229 0.61755 0.0
C2013 C 0.15587 1.00166 0.60639 0.0
C2014 C 0.15047 0.03968 0.6241 0.0
C2015 C 0.127 0.03733 0.6198 0.0
C2016 C 0.11828 0.01662 0.60882 0.0
C2017 C 0.13235 0.99923 0.60227 0.0
C2018 C 0.07822 0.07735 0.61922 0.0
C2019 C 0.08267 0.09204 0.63843 0.0
C2020 C 0.09247 0.06 0.61324 0.0
C2021 C 0.1118 0.05633 0.62636 0.0
C2022 C 0.11621 0.07104 0.64573 0.0
C2023 C 0.10182 0.08843 0.65174 0.0
H2024 H 0.67079 0.34555 0.4081 0.0
H2025 H 0.65757 0.37951 0.34635 0.0
H2026 H 0.71092 0.35615 0.40477 0.0
H2027 H 0.69807 0.39072 0.34311 0.0
H2028 H 0.77921 0.38659 0.34195 0.0
H2029 H 0.73812 0.37753 0.33878 0.0
H2030 H 0.73241 0.3933 0.41032 0.0
H2031 H 0.77316 0.40182 0.41325 0.0
C2032 C 0.67662 0.35458 0.39332 0.0
C2033 C 0.66107 0.36117 0.37724 0.0
C2034 C 0.6996 0.36112 0.39164 0.0
C2035 C 0.70776 0.37481 0.37397 0.0
C2036 C 0.6924 0.38021 0.35695 0.0
C2037 C 0.66922 0.37353 0.35864 0.0
C2038 C 0.76891 0.38894 0.35671 0.0
C2039 C 0.77923 0.39518 0.37781 0.0
C2040 C 0.74545 0.38354 0.35498 0.0
C2041 C 0.73198 0.38408 0.37441 0.0
C2042 C 0.74226 0.39209 0.3951 0.0
C2043 C 0.76555 0.39738 0.39677 0.0
H2044 H 0.78943 0.67494 0.9012 0.0
H2045 H 0.80681 0.60476 0.89399 0.0
H2046 H 0.74993 0.66236 0.8931 0.0
H2047 H 0.76763 0.59235 0.88633 0.0
H2048 H 0.69434 0.57328 0.89665 0.0
H2049 H 0.73241 0.58894 0.90635 0.0
H2050 H 0.72423 0.64533 0.8625 0.0
H2051 H 0.68564 0.62968 0.85319 0.0
C2052 C 0.78493 0.65688 0.89781 0.0
C2053 C 0.8014 0.64086 0.89853 0.0
C2054 C 0.76226 0.64969 0.89319 0.0
C2055 C 0.75556 0.62632 0.88934 0.0
C2056 C 0.77208 0.61042 0.88977 0.0
C2057 C 0.79462 0.61757 0.89423 0.0
C2058 C 0.70072 0.58894 0.88898 0.0
C2059 C 0.68725 0.60001 0.87378 0.0
C2060 C 0.72253 0.59795 0.89454 0.0
C2061 C 0.73155 0.61817 0.88488 0.0
C2062 C 0.71778 0.62976 0.87029 0.0
C2063 C 0.69577 0.62079 0.86487 0.0
H2064 H 0.83654 0.57599 0.08689 0.0
H2065 H 0.90046 0.60061 0.11695 0.0
H2066 H 0.84753 0.59321 0.05121 0.0
H2067 H 0.91127 0.6186 0.08144 0.0
H2068 H 0.90381 0.67436 0.02572 0.0
H2069 H 0.89773 0.65227 0.05987 0.0
H2070 H 0.8745 0.5929 0.01842 0.0
H2071 H 0.88083 0.61497 0.98425 0.0
C2072 C 0.85328 0.58448 0.08572 0.0
C2073 C 0.8677 0.58644 0.10494 0.0
C2074 C 0.85954 0.59455 0.06521 0.0
C2075 C 0.88026 0.60757 0.06327 0.0
C2076 C 0.8951 0.60888 0.08221 0.0
C2077 C 0.88902 0.59823 0.10261 0.0
C2078 C 0.89754 0.65656 0.02385 0.0
C2079 C 0.89282 0.64656 1.00207 0.0
C2080 C 0.8942 0.64379 0.04349 0.0
C2081 C 0.8856 0.62066 0.0421 0.0
C2082 C 0.88106 0.61062 0.02029 0.0
C2083 C 0.88484 0.62327 1.00061 0.0
H2084 H 0.17544 0.18424 0.84888 0.0
H2085 H 0.17542 0.11266 0.82894 0.0
H2086 H 0.15415 0.19105 0.81431 0.0
H2087 H 0.15573 0.11991 0.7937 0.0
H2088 H 0.13336 0.15015 0.72507 0.0
H2089 H 0.16094 0.15044 0.75646 0.0
H2090 H 0.10927 0.16651 0.80368 0.0
H2091 H 0.08154 0.16543 0.77218 0.0
C2092 C 0.17164 0.17011 0.8369 0.0
C2093 C 0.17669 0.14774 0.84205 0.0
C2094 C 0.15937 0.17404 0.8171 0.0
C2095 C 0.15303 0.1559 0.80158 0.0
C2096 C 0.16033 0.13416 0.80547 0.0
C2097 C 0.17181 0.13008 0.82555 0.0
C2098 C 0.12811 0.15413 0.74216 0.0
C2099 C 0.10551 0.15791 0.74638 0.0
C2100 C 0.14381 0.1543 0.76002 0.0
C2101 C 0.13727 0.15878 0.78239 0.0
C2102 C 0.11479 0.16339 0.78652 0.0
C2103 C 0.09895 0.1627 0.76864 0.0
H2104 H 0.57941 0.35658 0.59229 0.0
H2105 H 0.61529 0.41956 0.57296 0.0
H2106 H 0.56904 0.34741 0.55283 0.0
H2107 H 0.60566 0.41009 0.53325 0.0
H2108 H 0.57982 0.39222 0.46383 0.0
H2109 H 0.57694 0.40351 0.50374 0.0
H2110 H 0.59135 0.33525 0.52214 0.0
H2111 H 0.59282 0.32372 0.48252 0.0
C2112 C 0.58507 0.3684 0.57947 0.0
C2113 C 0.5985 0.38848 0.58534 0.0
C2114 C 0.57909 0.36323 0.55698 0.0
C2115 C 0.58675 0.37791 0.53999 0.0
C2116 C 0.59929 0.39859 0.54603 0.0
C2117 C 0.60502 0.40391 0.56864 0.0
C2118 C 0.58168 0.37949 0.47642 0.0
C2119 C 0.58695 0.35719 0.47013 0.0
C2120 C 0.58026 0.38602 0.49923 0.0
C2121 C 0.58417 0.37035 0.51601 0.0
C2122 C 0.58804 0.34769 0.50962 0.0
C2123 C 0.58927 0.34115 0.4869 0.0
H2124 H 0.36581 0.8647 0.21556 0.0
H2125 H 0.42692 0.84635 0.24806 0.0
H2126 H 0.34912 0.87075 0.25269 0.0
H2127 H 0.41056 0.85301 0.28501 0.0
H2128 H 0.36803 0.8446 0.34766 0.0
H2129 H 0.38203 0.83702 0.30993 0.0
H2130 H 0.35213 0.89684 0.28627 0.0
H2131 H 0.33823 0.90461 0.32434 0.0
C2132 C 0.37568 0.8618 0.23055 0.0
C2133 C 0.39779 0.85496 0.22863 0.0
C2134 C 0.36617 0.86554 0.25192 0.0
C2135 C 0.37841 0.86237 0.272 0.0
C2136 C 0.40044 0.85537 0.27003 0.0
C2137 C 0.40996 0.85176 0.24873 0.0
C2138 C 0.36439 0.85622 0.33454 0.0
C2139 C 0.35213 0.8754 0.33935 0.0
C2140 C 0.37251 0.85186 0.31277 0.0
C2141 C 0.36849 0.86641 0.29493 0.0
C2142 C 0.35547 0.88512 0.29947 0.0
C2143 C 0.34744 0.88957 0.32137 0.0
H2144 H 0.9149 0.42219 0.44223 0.0
H2145 H 0.845 0.39791 0.4453 0.0
H2146 H 0.92165 0.40708 0.47971 0.0
H2147 H 0.85155 0.38277 0.48253 0.0
H2148 H 0.87691 0.32654 0.52474 0.0
H2149 H 0.87166 0.34901 0.4916 0.0
H2150 H 0.91475 0.40468 0.52173 0.0
H2151 H 0.92027 0.38197 0.55509 0.0
C2152 C 0.90067 0.41493 0.45151 0.0
C2153 C 0.87924 0.4119 0.44096 0.0
C2154 C 0.90462 0.40583 0.47288 0.0
C2155 C 0.8873 0.3931 0.484 0.0
C2156 C 0.86545 0.39204 0.47435 0.0
C2157 C 0.8615 0.40131 0.45321 0.0
C2158 C 0.88531 0.34356 0.52449 0.0
C2159 C 0.89839 0.35252 0.54326 0.0
C2160 C 0.88214 0.35659 0.50542 0.0
C2161 C 0.89208 0.37909 0.50418 0.0
C2162 C 0.90651 0.38758 0.52216 0.0
C2163 C 0.90966 0.37447 0.54141 0.0
H2164 H 0.4314 0.15139 0.31314 0.0
H2165 H 0.3663 0.1783 0.31548 0.0
H2166 H 0.42808 0.14667 0.27191 0.0
H2167 H 0.36286 0.17433 0.27419 0.0
H2168 H 0.34924 0.1316 0.20813 0.0
H2169 H 0.3554 0.14347 0.24775 0.0
H2170 H 0.42584 0.16043 0.23482 0.0
H2171 H 0.41966 0.14814 0.19517 0.0
C2172 C 0.41691 0.15747 0.30462 0.0
C2173 C 0.39941 0.16582 0.31746 0.0
C2174 C 0.4148 0.15454 0.28095 0.0
C2175 C 0.39499 0.15972 0.26947 0.0
C2176 C 0.37818 0.16966 0.28229 0.0
C2177 C 0.38034 0.17252 0.30594 0.0
C2178 C 0.36602 0.13806 0.21364 0.0
C2179 C 0.38393 0.13885 0.19829 0.0
C2180 C 0.36958 0.14503 0.23647 0.0
C2181 C 0.39115 0.15318 0.24474 0.0
C2182 C 0.40904 0.15405 0.22933 0.0
C2183 C 0.4055 0.14695 0.2065 0.0
H2184 H 0.56633 0.59215 0.96369 0.0
H2185 H 0.63708 0.60335 0.98105 0.0
H2186 H 0.55664 0.60599 1.00162 0.0
H2187 H 0.62736 0.61665 0.01926 0.0
H2188 H 0.59666 0.62587 0.09024 0.0
H2189 H 0.60219 0.60239 0.05596 0.0
H2190 H 0.56904 0.65086 0.01625 0.0
H2191 H 0.56401 0.67467 0.05073 0.0
C2192 C 0.57973 0.59675 0.97598 0.0
C2193 C 0.60241 0.59679 0.96978 0.0
C2194 C 0.57419 0.60474 0.99747 0.0
C2195 C 0.59132 0.61239 0.01299 0.0
C2196 C 0.61398 0.61067 0.00741 0.0
C2197 C 0.61953 0.60313 0.98573 0.0
C2198 C 0.59039 0.63127 0.07416 0.0
C2199 C 0.57996 0.65191 0.07275 0.0
C2200 C 0.59351 0.61791 0.05473 0.0
C2201 C 0.58585 0.62488 0.03379 0.0
C2202 C 0.57479 0.64516 0.03244 0.0
C2203 C 0.57207 0.65878 0.05189 0.0
H2204 H 0.17157 0.87535 0.69033 0.0
H2205 H 0.14012 0.93852 0.70284 0.0
H2206 H 0.15416 0.85955 0.72398 0.0
H2207 H 0.12304 0.92294 0.73695 0.0
H2208 H 0.07289 0.87885 0.77663 0.0
H2209 H 0.09299 0.8944 0.74427 0.0
H2210 H 0.15209 0.8611 0.76434 0.0
H2211 H 0.13154 0.8446 0.79596 0.0
C2212 C 0.16146 0.88611 0.70069 0.0
C2213 C 0.15707 0.90812 0.69394 0.0
C2214 C 0.15141 0.87702 0.71994 0.0
C2215 C 0.13686 0.88982 0.73291 0.0
C2216 C 0.13364 0.9124 0.72693 0.0
C2217 C 0.14356 0.92141 0.70757 0.0
C2218 C 0.08994 0.87433 0.77375 0.0
C2219 C 0.1006 0.86046 0.78881 0.0
C2220 C 0.10165 0.88364 0.75549 0.0
C2221 C 0.12429 0.87933 0.75194 0.0
C2222 C 0.13467 0.86474 0.76653 0.0
C2223 C 0.12292 0.85534 0.78468 0.0
H2224 H 0.10234 0.86549 0.58644 0.0
H2225 H 0.11466 0.9381 0.57733 0.0
H2226 H 0.06516 0.87188 0.60173 0.0
H2227 H 0.07794 0.94456 0.59315 0.0
H2228 H 0.02643 0.94755 0.65119 0.0
H2229 H 0.0621 0.93998 0.63306 0.0
H2230 H 0.02723 0.88715 0.59015 0.0
H2231 H 0.99161 0.89505 0.60812 0.0
C2232 C 0.09689 0.88272 0.58717 0.0
C2233 C 0.11144 0.90135 0.5808 0.0
C2234 C 0.07573 0.8864 0.5961 0.0
C2235 C 0.06886 0.90876 0.59894 0.0
C2236 C 0.083 0.9272 0.59158 0.0
C2237 C 0.10399 0.92351 0.58249 0.0
C2238 C 0.02653 0.93431 0.63794 0.0
C2239 C 0.00642 0.92194 0.63092 0.0
C2240 C 0.04681 0.93006 0.62748 0.0
C2241 C 0.04736 0.91304 0.61013 0.0
C2242 C 0.02727 0.90033 0.60348 0.0
C2243 C 0.00694 0.90492 0.61363 0.0
H2244 H 0.82011 0.32466 0.36236 0.0
H2245 H 0.8758 0.29678 0.32754 0.0
H2246 H 0.80958 0.28723 0.3775 0.0
H2247 H 0.86541 0.25931 0.34291 0.0
H2248 H 0.83205 0.19146 0.36363 0.0
H2249 H 0.83558 0.22703 0.34349 0.0
H2250 H 0.82937 0.26538 0.4066 0.0
H2251 H 0.82516 0.2296 0.42678 0.0
C2252 C 0.82958 0.3103 0.35726 0.0
C2253 C 0.84864 0.31347 0.34358 0.0
C2254 C 0.82377 0.28901 0.36623 0.0
C2255 C 0.83682 0.27051 0.36154 0.0
C2256 C 0.85498 0.27329 0.34666 0.0
C2257 C 0.86091 0.29465 0.33784 0.0
C2258 C 0.83094 0.20743 0.37319 0.0
C2259 C 0.82816 0.20776 0.39681 0.0
C2260 C 0.8332 0.22778 0.36165 0.0
C2261 C 0.83267 0.24889 0.37347 0.0
C2262 C 0.82952 0.24928 0.39703 0.0
C2263 C 0.82736 0.22888 0.40861 0.0
H2264 H 0.53373 0.08203 0.16079 0.0
H2265 H 0.56299 0.11153 0.101 0.0
H2266 H 0.49609 0.08427 0.14449 0.0
H2267 H 0.52535 0.11341 0.08454 0.0
H2268 H 0.45585 0.14637 0.08409 0.0
H2269 H 0.49404 0.13723 0.09327 0.0
H2270 H 0.46861 0.07028 0.11383 0.0
H2271 H 0.43025 0.07951 0.10446 0.0
C2272 C 0.53217 0.08886 0.1441 0.0
C2273 C 0.55149 0.09687 0.13238 0.0
C2274 C 0.51055 0.08988 0.13462 0.0
C2275 C 0.50759 0.09912 0.1132 0.0
C2276 C 0.52695 0.10639 0.10115 0.0
C2277 C 0.54858 0.10517 0.11054 0.0
C2278 C 0.45845 0.1294 0.08986 0.0
C2279 C 0.4399 0.11364 0.09331 0.0
C2280 C 0.48041 0.12415 0.09518 0.0
C2281 C 0.4845 0.10305 0.10446 0.0
C2282 C 0.46608 0.08677 0.10688 0.0
C2283 C 0.44404 0.09194 0.10119 0.0
H2284 H 0.59291 0.77357 0.92759 0.0
H2285 H 0.65373 0.78818 0.89004 0.0
H2286 H 0.58993 0.73458 0.91208 0.0
H2287 H 0.65048 0.74846 0.8742 0.0
H2288 H 0.63836 0.66192 0.88215 0.0
H2289 H 0.6486 0.70281 0.89162 0.0
H2290 H 0.58263 0.71912 0.86951 0.0
H2291 H 0.57254 0.67879 0.86016 0.0
C2292 C 0.60584 0.76854 0.91617 0.0
C2293 C 0.62362 0.78439 0.91026 0.0
C2294 C 0.60401 0.74603 0.90711 0.0
C2295 C 0.61988 0.73826 0.8918 0.0
C2296 C 0.63798 0.75381 0.886 0.0
C2297 C 0.63971 0.77666 0.89496 0.0
C2298 C 0.62645 0.67438 0.8783 0.0
C2299 C 0.60464 0.667 0.87004 0.0
C2300 C 0.63226 0.69784 0.88394 0.0
C2301 C 0.61632 0.7143 0.88159 0.0
C2302 C 0.59526 0.70699 0.87173 0.0
C2303 C 0.58955 0.68382 0.86611 0.0
H2304 H 0.9665 0.12174 0.86714 0.0
H2305 H 1.00172 0.14971 0.80939 0.0
H2306 H 1.00085 0.12767 0.88975 0.0
H2307 H 0.03576 0.15641 0.83263 0.0
H2308 H 0.08276 0.18985 0.88717 0.0
H2309 H 0.04585 0.18312 0.86868 0.0
H2310 H 0.04204 0.11285 0.88883 0.0
H2311 H 0.07937 0.11939 0.90694 0.0
C2312 C 0.98145 0.12889 0.85902 0.0
C2313 C 0.98107 0.13523 0.83616 0.0
C2314 C 1.00114 0.13241 0.87218 0.0
C2315 C 0.02077 0.14271 0.86298 0.0
C2316 C 0.02064 0.14876 0.84019 0.0
C2317 C 1.00108 0.14492 0.82689 0.0
C2318 C 0.07391 0.17305 0.88794 0.0
C2319 C 0.08406 0.15504 0.89818 0.0
C2320 C 0.05287 0.1692 0.87731 0.0
C2321 C 0.04144 0.14737 0.87698 0.0
C2322 C 0.05064 0.12982 0.88883 0.0
C2323 C 0.07188 0.13361 0.89932 0.0
H2324 H 0.61434 0.23918 0.59336 0.0
H2325 H 0.66596 0.22461 0.64152 0.0
H2326 H 0.60554 0.27232 0.61663 0.0
H2327 H 0.65708 0.25825 0.66503 0.0
H2328 H 0.64466 0.33893 0.68238 0.0
H2329 H 0.65728 0.30408 0.66355 0.0
H2330 H 0.58819 0.277 0.65549 0.0
H2331 H 0.57568 0.31117 0.67421 0.0
C2332 C 0.62408 0.24318 0.60876 0.0
C2333 C 0.64102 0.22912 0.61536 0.0
C2334 C 0.61886 0.26216 0.62229 0.0
C2335 C 0.63051 0.26803 0.64284 0.0
C2336 C 0.64782 0.25434 0.6493 0.0
C2337 C 0.65282 0.23498 0.63588 0.0
C2338 C 0.6322 0.32535 0.67715 0.0
C2339 C 0.60904 0.32833 0.67961 0.0
C2340 C 0.63945 0.30533 0.66622 0.0
C2341 C 0.62372 0.28789 0.65744 0.0
C2342 C 0.60079 0.29021 0.66149 0.0
C2343 C 0.59363 0.30989 0.67247 0.0
H2344 H 0.5878 0.9237 0.37235 0.0
H2345 H 0.55792 0.89967 0.30792 0.0
H2346 H 0.55049 0.92164 0.38904 0.0
H2347 H 0.52148 0.89596 0.32482 0.0
H2348 H 0.45429 0.90495 0.35247 0.0
H2349 H 0.49174 0.91459 0.33818 0.0
H2350 H 0.52089 0.89643 0.4019 0.0
H2351 H 0.48296 0.88802 0.41656 0.0
C2352 C 0.57346 0.91801 0.36163 0.0
C2353 C 0.5763 0.91169 0.33863 0.0
C2354 C 0.55195 0.91655 0.37136 0.0
C2355 C 0.53268 0.9086 0.35841 0.0
C2356 C 0.53561 0.90262 0.33542 0.0
C2357 C 0.55688 0.90437 0.32569 0.0
C2358 C 0.46872 0.90307 0.36344 0.0
C2359 C 0.46568 0.89525 0.38546 0.0
C2360 C 0.4903 0.90849 0.35522 0.0
C2361 C 0.50965 0.90573 0.36856 0.0
C2362 C 0.50655 0.89883 0.39103 0.0
C2363 C 0.4848 0.89383 0.39943 0.0
H2364 H 0.85025 0.76974 0.08888 0.0
H2365 H 0.79361 0.78002 0.13208 0.0
H2366 H 0.85891 0.73679 0.1103 0.0
H2367 H 0.80298 0.74771 0.15434 0.0
H2368 H 0.81252 0.67065 0.16642 0.0
H2369 H 0.80281 0.70637 0.15025 0.0
H2370 H 0.87354 0.72908 0.14769 0.0
H2371 H 0.88319 0.69299 0.16334 0.0
C2372 C 0.83946 0.76477 0.10275 0.0
C2373 C 0.82118 0.77734 0.10875 0.0
C2374 C 0.84472 0.74623 0.11534 0.0
C2375 C 0.83183 0.73999 0.13421 0.0
C2376 C 0.81319 0.75217 0.13987 0.0
C2377 C 0.80786 0.77064 0.12718 0.0
C2378 C 0.8259 0.6836 0.16297 0.0
C2379 C 0.84856 0.67917 0.1658 0.0
C2380 C 0.82037 0.70399 0.1537 0.0
C2381 C 0.83747 0.72024 0.14733 0.0
C2382 C 0.86008 0.71653 0.15192 0.0
C2383 C 0.8656 0.69605 0.16099 0.0
H2384 H 0.62724 0.07194 0.85136 0.0
H2385 H 0.58341 0.08182 0.90804 0.0
H2386 H 0.63777 0.0364 0.86643 0.0
H2387 H 0.59385 0.0451 0.92301 0.0
H2388 H 0.60415 0.96227 0.91854 0.0
H2389 H 0.59117 0.99957 0.90953 0.0
H2390 H 0.65996 0.02646 0.90227 0.0
H2391 H 0.67313 0.98984 0.91179 0.0
C2392 C 0.61954 0.06649 0.86698 0.0
C2393 C 0.60426 0.08001 0.87834 0.0
C2394 C 0.6258 0.046 0.87571 0.0
C2395 C 0.61682 0.03786 0.89599 0.0
C2396 C 0.60106 0.05088 0.90728 0.0
C2397 C 0.59505 0.07189 0.89869 0.0
C2398 C 0.61666 0.97608 0.91539 0.0
C2399 C 0.63987 0.97237 0.9155 0.0
C2400 C 0.60911 0.99761 0.91028 0.0
C2401 C 0.62448 0.01598 0.90489 0.0
C2402 C 0.6476 0.01262 0.90601 0.0
C2403 C 0.65516 0.99133 0.91138 0.0
H2404 H 0.13763 0.42965 0.12182 0.0
H2405 H 0.09211 0.4285 0.06441 0.0
H2406 H 0.14221 0.47124 0.12154 0.0
H2407 H 0.09687 0.47058 0.06383 0.0
H2408 H 0.103 0.55061 0.08911 0.0
H2409 H 0.09218 0.50909 0.08625 0.0
H2410 H 0.16218 0.49557 0.09317 0.0
H2411 H 0.1727 0.53654 0.09616 0.0
C2412 C 0.1277 0.43841 0.10985 0.0
C2413 C 0.11382 0.42598 0.09371 0.0
C2414 C 0.13073 0.46223 0.10931 0.0
C2415 C 0.12014 0.47418 0.09245 0.0
C2416 C 0.10516 0.46185 0.07707 0.0
C2417 C 0.10225 0.43786 0.07754 0.0
C2418 C 0.11599 0.53865 0.08948 0.0
C2419 C 0.13863 0.54665 0.09337 0.0
C2420 C 0.10983 0.51496 0.08795 0.0
C2421 C 0.12628 0.49911 0.0903 0.0
C2422 C 0.14904 0.50732 0.09211 0.0
C2423 C 0.1551 0.53076 0.09369 0.0
H2424 H 0.33906 0.34647 0.89973 0.0
H2425 H 0.36036 0.33807 0.83065 0.0
H2426 H 0.30488 0.36254 0.88653 0.0
H2427 H 0.32651 0.35512 0.81744 0.0
H2428 H 0.27985 0.41858 0.81341 0.0
H2429 H 0.31246 0.39732 0.82343 0.0
H2430 H 0.26933 0.35143 0.8622 0.0
H2431 H 0.23712 0.37246 0.85247 0.0
C2432 C 0.33625 0.34754 0.88166 0.0
C2433 C 0.35271 0.3411 0.86629 0.0
C2434 C 0.31671 0.35694 0.87411 0.0
C2435 C 0.3132 0.36049 0.85098 0.0
C2436 C 0.32895 0.35292 0.83542 0.0
C2437 C 0.34827 0.34291 0.84299 0.0
C2438 C 0.27738 0.40387 0.82394 0.0
C2439 C 0.25579 0.39714 0.83187 0.0
C2440 C 0.29597 0.39159 0.82953 0.0
C2441 C 0.29339 0.37258 0.84347 0.0
C2442 C 0.27185 0.36593 0.85139 0.0
C2443 C 0.25332 0.37794 0.84561 0.0
H2444 H 0.40257 0.5601 0.65157 0.0
H2445 H 0.39012 0.56778 0.58021 0.0
H2446 H 0.38389 0.52164 0.64902 0.0
H2447 H 0.37092 0.52913 0.57759 0.0
H2448 H 0.36348 0.44773 0.58714 0.0
H2449 H 0.37782 0.48756 0.58226 0.0
H2450 H 0.34373 0.50765 0.64315 0.0
H2451 H 0.33015 0.46766 0.64809 0.0
C2452 C 0.39614 0.55326 0.63527 0.0
C2453 C 0.39761 0.56665 0.61609 0.0
C2454 C 0.38515 0.5315 0.63385 0.0
C2455 C 0.37531 0.52285 0.61326 0.0
C2456 C 0.37815 0.53561 0.59368 0.0
C2457 C 0.38927 0.5575 0.59511 0.0
C2458 C 0.35838 0.461 0.59879 0.0
C2459 C 0.34587 0.45513 0.61794 0.0
C2460 C 0.3666 0.48363 0.59612 0.0
C2461 C 0.36232 0.50044 0.61267 0.0
C2462 C 0.34767 0.49481 0.63046 0.0
C2463 C 0.33965 0.47217 0.63318 0.0
H2464 H 0.80217 0.10525 0.86197 0.0
H2465 H 0.80038 0.14012 0.79902 0.0
H2466 H 0.76657 0.12004 0.87273 0.0
H2467 H 0.76447 0.15532 0.80975 0.0
H2468 H 0.68712 0.14654 0.82587 0.0
H2469 H 0.72546 0.13954 0.81459 0.0
H2470 H 0.74881 0.15442 0.88353 0.0
H2471 H 0.71019 0.16047 0.89479 0.0
C2472 C 0.79402 0.11611 0.85044 0.0
C2473 C 0.80366 0.12128 0.82954 0.0
C2474 C 0.77381 0.12487 0.85671 0.0
C2475 C 0.76268 0.13889 0.84211 0.0
C2476 C 0.77259 0.14444 0.82129 0.0
C2477 C 0.79307 0.13586 0.81516 0.0
C2478 C 0.70062 0.14866 0.83843 0.0
C2479 C 0.69594 0.15389 0.86115 0.0
C2480 C 0.72254 0.14479 0.832 0.0
C2481 C 0.74016 0.14627 0.8482 0.0
C2482 C 0.73553 0.15274 0.87074 0.0
C2483 C 0.71354 0.1563 0.8772 0.0
H2484 H 0.89989 0.94694 0.33522 0.0
H2485 H 0.90877 0.93591 0.40647 0.0
H2486 H 0.88038 0.98122 0.34426 0.0
H2487 H 0.88844 0.96952 0.4157 0.0
H2488 H 0.8596 0.03845 0.42546 0.0
H2489 H 0.88561 0.00968 0.41605 0.0
H2490 H 0.84386 0.98678 0.35801 0.0
H2491 H 0.81875 0.01648 0.36649 0.0
C2492 C 0.89807 0.95224 0.35282 0.0
C2493 C 0.90581 0.93896 0.37017 0.0
C2494 C 0.88664 0.97163 0.35803 0.0
C2495 C 0.88237 0.97783 0.38071 0.0
C2496 C 0.89152 0.96536 0.39807 0.0
C2497 C 0.90324 0.94614 0.39282 0.0
C2498 C 0.85604 0.02743 0.41058 0.0
C2499 C 0.83703 0.02995 0.39673 0.0
C2500 C 0.87091 0.01078 0.40528 0.0
C2501 C 0.867 0.99603 0.38614 0.0
C2502 C 0.84772 0.99819 0.37259 0.0
C2503 C 0.83299 0.01498 0.37775 0.0
H2504 H 0.35334 0.6492 0.66226 0.0
H2505 H 0.33098 0.67454 0.59883 0.0
H2506 H 0.31471 0.63327 0.66936 0.0
H2507 H 0.29266 0.65908 0.60602 0.0
H2508 H 0.24469 0.59499 0.6052 0.0
H2509 H 0.28253 0.61345 0.60717 0.0
H2510 H 0.26839 0.64525 0.6718 0.0
H2511 H 0.22939 0.62741 0.6693 0.0
C2512 C 0.34007 0.65233 0.65035 0.0
C2513 C 0.34525 0.66338 0.63002 0.0
C2514 C 0.31794 0.64305 0.65436 0.0
C2515 C 0.30067 0.6447 0.63812 0.0
C2516 C 0.30561 0.65733 0.61877 0.0
C2517 C 0.32754 0.66644 0.61476 0.0
C2518 C 0.24947 0.60583 0.61996 0.0
C2519 C 0.2336 0.61018 0.63677 0.0
C2520 C 0.27128 0.61639 0.62108 0.0
C2521 C 0.27833 0.63125 0.63936 0.0
C2522 C 0.26333 0.63407 0.65735 0.0
C2523 C 0.24105 0.62373 0.656 0.0
H2524 H 0.31536 0.43915 0.10383 0.0
H2525 H 0.32823 0.4035 0.16458 0.0
H2526 H 0.27563 0.42543 0.10474 0.0
H2527 H 0.28819 0.38956 0.16568 0.0
H2528 H 0.20637 0.38483 0.15772 0.0
H2529 H 0.24454 0.40237 0.16513 0.0
H2530 H 0.26378 0.38102 0.09796 0.0
H2531 H 0.22611 0.36287 0.0907 0.0
C2532 C 0.30932 0.42929 0.118 0.0
C2533 C 0.32458 0.42246 0.13419 0.0
C2534 C 0.28676 0.42118 0.11837 0.0
C2535 C 0.2791 0.40608 0.13499 0.0
C2536 C 0.2938 0.40118 0.15268 0.0
C2537 C 0.31655 0.40932 0.15223 0.0
C2538 C 0.21888 0.38344 0.1447 0.0
C2539 C 0.21307 0.37279 0.12343 0.0
C2540 C 0.24063 0.3936 0.14895 0.0
C2541 C 0.25678 0.39347 0.13192 0.0
C2542 C 0.25136 0.38182 0.11116 0.0
C2543 C 0.22979 0.37149 0.10699 0.0
H2544 H 0.68947 0.91038 0.4416 0.0
H2545 H 0.62106 0.90653 0.4158 0.0
H2546 H 0.67606 0.8941 0.47717 0.0
H2547 H 0.60775 0.88971 0.45104 0.0
H2548 H 0.60742 0.8278 0.50225 0.0
H2549 H 0.61875 0.84843 0.4681 0.0
H2550 H 0.64637 0.90584 0.51009 0.0
H2551 H 0.63478 0.88554 0.5439 0.0
C2552 C 0.67157 0.90647 0.44382 0.0
C2553 C 0.65619 0.90983 0.4263 0.0
C2554 C 0.66395 0.89713 0.46397 0.0
C2555 C 0.64098 0.89057 0.4665 0.0
C2556 C 0.62555 0.89458 0.44926 0.0
C2557 C 0.6331 0.90438 0.42934 0.0
C2558 C 0.61572 0.84488 0.50398 0.0
C2559 C 0.62002 0.85525 0.52546 0.0
C2560 C 0.62209 0.85665 0.48464 0.0
C2561 C 0.63328 0.87864 0.48672 0.0
C2562 C 0.63771 0.88891 0.50821 0.0
C2563 C 0.63097 0.87738 0.52743 0.0
H2564 H 0.34626 0.39286 0.68132 0.0
H2565 H 0.31416 0.3247 0.68419 0.0
H2566 H 0.36613 0.38766 0.71696 0.0
H2567 H 0.3336 0.31958 0.7203 0.0
H2568 H 0.36791 0.32587 0.79293 0.0
H2569 H 0.342 0.33294 0.76211 0.0
H2570 H 0.39758 0.36138 0.72346 0.0
H2571 H 0.42356 0.35421 0.75383 0.0
C2572 C 0.34232 0.37727 0.69028 0.0
C2573 C 0.328 0.35948 0.68014 0.0
C2574 C 0.35415 0.37407 0.7105 0.0
C2575 C 0.3518 0.35304 0.72139 0.0
C2576 C 0.3358 0.33603 0.71247 0.0
C2577 C 0.32426 0.33912 0.69195 0.0
C2578 C 0.37483 0.33363 0.778 0.0
C2579 C 0.39817 0.33989 0.77657 0.0
C2580 C 0.3598 0.33766 0.7602 0.0
C2581 C 0.36756 0.34823 0.74045 0.0
C2582 C 0.39085 0.35383 0.73867 0.0
C2583 C 0.40587 0.3496 0.75628 0.0
H2584 H 0.93106 0.19407 0.02591 0.0
H2585 H 0.89987 0.12799 0.04156 0.0
H2586 H 0.93311 0.18176 0.98598 0.0
H2587 H 0.90059 0.11569 1.00174 0.0
H2588 H 0.90685 0.09636 0.92877 0.0
H2589 H 0.91746 0.10596 0.96791 0.0
H2590 H 0.90615 0.17686 0.95726 0.0
H2591 H 0.89825 0.16792 0.91781 0.0
C2592 C 0.92511 0.17673 0.02069 0.0
C2593 C 0.91518 0.16193 0.03635 0.0
C2594 C 0.92595 0.16971 0.99789 0.0
C2595 C 0.91644 0.1479 0.99045 0.0
C2596 C 0.90814 0.13255 0.00669 0.0
C2597 C 0.90757 0.13954 0.02946 0.0
C2598 C 0.90715 0.11411 0.93454 0.0
C2599 C 0.90143 0.13126 0.91985 0.0
C2600 C 0.91298 0.11957 0.95719 0.0
C2601 C 0.91273 0.14222 0.96588 0.0
C2602 C 0.90708 0.15931 0.9512 0.0
C2603 C 0.90186 0.15399 0.92851 0.0
H2604 H 0.13328 0.67906 0.16706 0.0
H2605 H 0.14988 0.61042 0.18033 0.0
H2606 H 0.12412 0.68503 0.20742 0.0
H2607 H 0.14097 0.61631 0.22018 0.0
H2608 H 0.08134 0.62019 0.26839 0.0
H2609 H 0.09685 0.62335 0.23084 0.0
H2610 H 0.14243 0.68011 0.25437 0.0
H2611 H 0.12743 0.67642 0.29291 0.0
C2612 C 0.13603 0.66569 0.17878 0.0
C2613 C 0.14262 0.64433 0.17065 0.0
C2614 C 0.13064 0.66905 0.20182 0.0
C2615 C 0.13167 0.65104 0.21691 0.0
C2616 C 0.13994 0.63046 0.20897 0.0
C2617 C 0.14523 0.62713 0.18618 0.0
C2618 C 0.09472 0.63334 0.26587 0.0
C2619 C 0.10342 0.64762 0.2841 0.0
C2620 C 0.10352 0.63524 0.24417 0.0
C2621 C 0.12107 0.65173 0.23969 0.0
C2622 C 0.12894 0.66716 0.25736 0.0
C2623 C 0.12027 0.66505 0.27942 0.0
H2624 H 0.63407 0.17092 0.97663 0.0
H2625 H 0.58338 0.11583 0.96095 0.0
H2626 H 0.6434 0.15297 0.01176 0.0
H2627 H 0.59279 0.09771 0.99645 0.0
H2628 H 0.60547 0.09399 0.0779 0.0
H2629 H 0.59251 0.10651 0.0411 0.0
H2630 H 0.66142 0.11554 0.01947 0.0
H2631 H 0.67433 0.10318 0.05591 0.0
C2632 C 0.62473 0.1551 0.98081 0.0
C2633 C 0.60801 0.1448 0.96596 0.0
C2634 C 0.63021 0.14469 1.00085 0.0
C2635 C 0.61898 0.1238 0.00675 0.0
C2636 C 0.60174 0.11378 0.99231 0.0
C2637 C 0.59647 0.12407 0.97198 0.0
C2638 C 0.6178 0.09805 0.06514 0.0
C2639 C 0.64099 0.09797 0.07012 0.0
C2640 C 0.61036 0.10529 0.04405 0.0
C2641 C 0.62601 0.11254 0.02763 0.0
C2642 C 0.64899 0.11058 0.03197 0.0
C2643 C 0.65636 0.10331 0.05285 0.0
H2644 H 0.07534 0.3673 0.20768 0.0
H2645 H 0.1399 0.34077 0.19702 0.0
H2646 H 0.08075 0.36568 0.24864 0.0
H2647 H 0.14556 0.33867 0.2381 0.0
H2648 H 0.16026 0.37473 0.30863 0.0
H2649 H 0.15335 0.36759 0.26812 0.0
H2650 H 0.08465 0.3431 0.28141 0.0
H2651 H 0.09152 0.35055 0.32186 0.0
C2652 C 0.09024 0.36014 0.21427 0.0
C2653 C 0.10696 0.35365 0.19947 0.0
C2654 C 0.09347 0.35931 0.23766 0.0
C2655 C 0.11368 0.35218 0.2467 0.0
C2656 C 0.12992 0.34446 0.23172 0.0
C2657 C 0.12657 0.34523 0.20827 0.0
C2658 C 0.14377 0.36757 0.30289 0.0
C2659 C 0.12639 0.36335 0.31841 0.0
C2660 C 0.13982 0.36336 0.27968 0.0
C2661 C 0.11843 0.35472 0.27149 0.0
C2662 C 0.10122 0.35004 0.2871 0.0
C2663 C 0.10514 0.35435 0.31027 0.0
H2664 H 0.95033 0.90502 0.57408 0.0
H2665 H 0.89002 0.93303 0.54967 0.0
H2666 H 0.95607 0.88797 0.53637 0.0
H2667 H 0.89642 0.9171 0.5117 0.0
H2668 H 0.92185 0.89449 0.44186 0.0
H2669 H 0.92279 0.91667 0.47781 0.0
H2670 H 0.93299 0.85547 0.51388 0.0
H2671 H 0.9322 0.8333 0.47803 0.0
C2672 C 0.93875 0.90833 0.56054 0.0
C2673 C 0.91971 0.92054 0.56494 0.0
C2674 C 0.94195 0.89835 0.5389 0.0
C2675 C 0.9266 0.90096 0.52098 0.0
C2676 C 0.90864 0.91478 0.52501 0.0
C2677 C 0.90506 0.92411 0.54675 0.0
C2678 C 0.92465 0.88577 0.45738 0.0
C2679 C 0.92691 0.86198 0.45688 0.0
C2680 C 0.92504 0.89851 0.47804 0.0
C2681 C 0.92804 0.88791 0.49879 0.0
C2682 C 0.93092 0.86428 0.49826 0.0
C2683 C 0.93024 0.8515 0.47766 0.0
H2684 H 0.43679 0.65001 0.73366 0.0
H2685 H 0.37441 0.65915 0.69803 0.0
H2686 H 0.41568 0.64058 0.76751 0.0
H2687 H 0.35351 0.65102 0.73207 0.0
H2688 H 0.32248 0.61032 0.79125 0.0
H2689 H 0.3423 0.61999 0.75625 0.0
H2690 H 0.39451 0.65906 0.79581 0.0
H2691 H 0.37513 0.64864 0.83042 0.0
C2692 C 0.41864 0.65019 0.73307 0.0
C2693 C 0.4074 0.65555 0.71315 0.0
C2694 C 0.40652 0.645 0.75252 0.0
C2695 C 0.3829 0.64521 0.75251 0.0
C2696 C 0.37166 0.65055 0.7326 0.0
C2697 C 0.38375 0.6556 0.71314 0.0
C2698 C 0.33806 0.62116 0.79222 0.0
C2699 C 0.34744 0.62876 0.81325 0.0
C2700 C 0.3494 0.62672 0.77231 0.0
C2701 C 0.37013 0.64008 0.77331 0.0
C2702 C 0.3789 0.6483 0.79448 0.0
C2703 C 0.36774 0.64256 0.81424 0.0
H2704 H 0.504 0.62406 0.8533 0.0
H2705 H 0.49726 0.56101 0.88848 0.0
H2706 H 0.46427 0.62969 0.85994 0.0
H2707 H 0.45795 0.56676 0.89617 0.0
H2708 H 0.38369 0.58228 0.90359 0.0
H2709 H 0.41956 0.57099 0.8888 0.0
H2710 H 0.44589 0.64185 0.89247 0.0
H2711 H 0.40994 0.653 0.90613 0.0
C2712 C 0.49368 0.61084 0.86148 0.0
C2713 C 0.50366 0.59198 0.87014 0.0
C2714 C 0.47103 0.61431 0.86592 0.0
C2715 C 0.4579 0.59914 0.87943 0.0
C2716 C 0.46729 0.57895 0.88583 0.0
C2717 C 0.48984 0.57544 0.88119 0.0
C2718 C 0.39726 0.59537 0.90164 0.0
C2719 C 0.39383 0.6186 0.90612 0.0
C2720 C 0.41788 0.58892 0.89293 0.0
C2721 C 0.43569 0.60551 0.88875 0.0
C2722 C 0.4325 0.62855 0.89452 0.0
C2723 C 0.41194 0.63496 0.90289 0.0
H2724 H 0.66101 0.30394 0.06234 0.0
H2725 H 0.68599 0.32653 0.12917 0.0
H2726 H 0.65603 0.2653 0.07451 0.0
H2727 H 0.68111 0.28711 0.14129 0.0
H2728 H 0.64702 0.21546 0.15961 0.0
H2729 H 0.65429 0.25569 0.14992 0.0
H2730 H 0.67602 0.23398 0.08358 0.0
H2731 H 0.66798 0.19419 0.09304 0.0
C2732 C 0.66577 0.30091 0.0796 0.0
C2733 C 0.67416 0.31896 0.09454 0.0
C2734 C 0.66293 0.27836 0.08662 0.0
C2735 C 0.66842 0.27276 0.10886 0.0
C2736 C 0.67658 0.29068 0.12404 0.0
C2737 C 0.67945 0.31343 0.11698 0.0
C2738 C 0.65344 0.21939 0.14301 0.0
C2739 C 0.65656 0.20164 0.12695 0.0
C2740 C 0.65772 0.24246 0.13746 0.0
C2741 C 0.66543 0.2483 0.11578 0.0
C2742 C 0.66943 0.23036 0.10018 0.0
C2743 C 0.6649 0.20745 0.10561 0.0
H2744 H 0.98341 0.43172 0.36232 0.0
H2745 H 0.94968 0.39128 0.41349 0.0
H2746 H 0.01966 0.42335 0.3782 0.0
H2747 H 0.98583 0.38381 0.42968 0.0
H2748 H 0.05257 0.34731 0.42719 0.0
H2749 H 0.01585 0.36028 0.41787 0.0
H2750 H 0.04591 0.42907 0.41129 0.0
H2751 H 0.08261 0.4161 0.42109 0.0
C2752 C 0.98354 0.4212 0.37698 0.0
C2753 C 0.96325 0.41195 0.38622 0.0
C2754 C 0.00446 0.41664 0.3863 0.0
C2755 C 0.00572 0.40275 0.40516 0.0
C2756 C 0.98552 0.39429 0.41495 0.0
C2757 C 0.96463 0.3988 0.40566 0.0
C2758 C 0.05135 0.36534 0.42429 0.0
C2759 C 0.07082 0.38055 0.42465 0.0
C2760 C 0.03021 0.3728 0.41893 0.0
C2761 C 0.02789 0.39569 0.41353 0.0
C2762 C 0.04712 0.41123 0.41501 0.0
C2763 C 0.06826 0.40379 0.42079 0.0
H2764 H 0.91505 0.81619 0.66159 0.0
H2765 H 0.88262 0.83411 0.59967 0.0
H2766 H 0.90584 0.77547 0.65196 0.0
H2767 H 0.87235 0.79387 0.5905 0.0
H2768 H 0.88692 0.72372 0.56473 0.0
H2769 H 0.89219 0.76326 0.57747 0.0
H2770 H 0.87789 0.74405 0.64609 0.0
H2771 H 0.87435 0.7039 0.63358 0.0
C2772 C 0.90553 0.81132 0.64619 0.0
C2773 C 0.89976 0.82799 0.63116 0.0
C2774 C 0.90015 0.78811 0.6407 0.0
C2775 C 0.88868 0.78139 0.62025 0.0
C2776 C 0.88177 0.79837 0.60603 0.0
C2777 C 0.88747 0.82139 0.61132 0.0
C2778 C 0.8851 0.7277 0.58259 0.0
C2779 C 0.88038 0.71037 0.59807 0.0
C2780 C 0.88775 0.75057 0.58988 0.0
C2781 C 0.88526 0.75691 0.61281 0.0
C2782 C 0.8801 0.73972 0.62833 0.0
C2783 C 0.87776 0.71668 0.62106 0.0
H2784 H 0.49647 0.39686 0.68925 0.0
H2785 H 0.53629 0.38598 0.62979 0.0
H2786 H 0.46242 0.39472 0.66554 0.0
H2787 H 0.50237 0.38447 0.60609 0.0
H2788 H 0.43215 0.35203 0.57905 0.0
H2789 H 0.46817 0.35814 0.59953 0.0
H2790 H 0.44387 0.41631 0.63594 0.0
H2791 H 0.40787 0.41012 0.6155 0.0
C2792 C 0.49799 0.39407 0.67115 0.0
C2793 C 0.51917 0.39167 0.66149 0.0
C2794 C 0.4785 0.39312 0.65751 0.0
C2795 C 0.47969 0.38958 0.63389 0.0
C2796 C 0.50086 0.38715 0.62422 0.0
C2797 C 0.52035 0.38824 0.63783 0.0
C2798 C 0.43477 0.36649 0.59098 0.0
C2799 C 0.41725 0.3807 0.5955 0.0
C2800 C 0.45537 0.36998 0.60276 0.0
C2801 C 0.45881 0.38758 0.61954 0.0
C2802 C 0.44166 0.40244 0.6233 0.0
C2803 C 0.42116 0.39912 0.61132 0.0
H2804 H 0.84942 0.26898 0.91535 0.0
H2805 H 0.87906 0.31171 0.86404 0.0
H2806 H 0.85503 0.23474 0.89134 0.0
H2807 H 0.88475 0.27782 0.84021 0.0
H2808 H 0.92154 0.21023 0.82656 0.0
H2809 H 0.91035 0.2456 0.84454 0.0
H2810 H 0.84298 0.21451 0.85221 0.0
H2811 H 0.85408 0.17911 0.83348 0.0
C2812 C 0.85693 0.27103 0.89888 0.0
C2813 C 0.8636 0.29304 0.89151 0.0
C2814 C 0.85998 0.2515 0.88505 0.0
C2815 C 0.87024 0.25354 0.86377 0.0
C2816 C 0.87676 0.27561 0.85643 0.0
C2817 C 0.87335 0.29506 0.87004 0.0
C2818 C 0.90409 0.21118 0.83129 0.0
C2819 C 0.88872 0.19182 0.82842 0.0
C2820 C 0.89771 0.23144 0.84176 0.0
C2821 C 0.87584 0.23282 0.85008 0.0
C2822 C 0.86003 0.21389 0.8462 0.0
C2823 C 0.86633 0.19369 0.83518 0.0
H2824 H 0.06425 0.60067 0.12881 0.0
H2825 H 0.03047 0.6498 0.09068 0.0
H2826 H 0.02876 0.58817 0.14648 0.0
H2827 H 0.99456 0.63706 0.10822 0.0
H2828 H 0.93339 0.59061 0.13351 0.0
H2829 H 0.96735 0.59905 0.11199 0.0
H2830 H 0.00536 0.61241 0.1744 0.0
H2831 H 0.97123 0.60399 0.19609 0.0
C2832 C 0.049 0.60836 0.12392 0.0
C2833 C 0.04971 0.62606 0.10857 0.0
C2834 C 0.02887 0.60135 0.13405 0.0
C2835 C 0.00921 0.61188 0.12879 0.0
C2836 C 0.00965 0.62875 0.11242 0.0
C2837 C 0.02998 0.636 0.10245 0.0
C2838 C 0.94895 0.59512 0.1427 0.0
C2839 C 0.94966 0.59667 0.16653 0.0
C2840 C 0.96832 0.6001 0.13033 0.0
C2841 C 0.98875 0.60632 0.14163 0.0
C2842 C 0.98967 0.60747 0.16541 0.0
C2843 C 0.97022 0.60279 0.17778 0.0
H2844 H 0.66074 0.76308 0.42091 0.0
H2845 H 0.72197 0.74997 0.38593 0.0
H2846 H 0.65457 0.79384 0.39604 0.0
H2847 H 0.71533 0.78108 0.36029 0.0
H2848 H 0.70261 0.85808 0.33885 0.0
H2849 H 0.71306 0.82435 0.35875 0.0
H2850 H 0.64352 0.79749 0.3567 0.0
H2851 H 0.63311 0.83123 0.33745 0.0
C2852 C 0.6732 0.76687 0.40817 0.0
C2853 C 0.6921 0.75389 0.40585 0.0
C2854 C 0.66938 0.78445 0.3935 0.0
C2855 C 0.68422 0.78986 0.37581 0.0
C2856 C 0.70349 0.77741 0.37368 0.0
C2857 C 0.70728 0.75952 0.38838 0.0
C2858 C 0.68966 0.84469 0.34196 0.0
C2859 C 0.66692 0.84762 0.33667 0.0
C2860 C 0.69566 0.82531 0.35354 0.0
C2861 C 0.67906 0.8084 0.35996 0.0
C2862 C 0.65671 0.81042 0.35269 0.0
C2863 C 0.65076 0.82969 0.34134 0.0
H2864 H 0.93699 0.42817 0.59493 0.0
H2865 H 0.89491 0.4127 0.65204 0.0
H2866 H 0.9261 0.46724 0.59608 0.0
H2867 H 0.8842 0.45229 0.65372 0.0
H2868 H 0.84388 0.50983 0.625 0.0
H2869 H 0.86024 0.47389 0.63158 0.0
H2870 H 0.92542 0.50403 0.61253 0.0
H2871 H 0.90889 0.53947 0.60465 0.0
C2872 C 0.92625 0.43351 0.6085 0.0
C2873 C 0.91707 0.41738 0.62354 0.0
C2874 C 0.91983 0.45598 0.60911 0.0
C2875 C 0.90395 0.46307 0.6248 0.0
C2876 C 0.89615 0.44742 0.64111 0.0
C2877 C 0.90269 0.42482 0.64052 0.0
C2878 C 0.86167 0.50888 0.62205 0.0
C2879 C 0.87486 0.52782 0.61402 0.0
C2880 C 0.8712 0.48822 0.62622 0.0
C2881 C 0.89426 0.48584 0.62265 0.0
C2882 C 0.90756 0.50497 0.61524 0.0
C2883 C 0.89802 0.52555 0.6109 0.0
H2884 H 0.35649 0.98443 0.38374 0.0
H2885 H 0.38911 0.97032 0.44672 0.0
H2886 H 0.36653 0.02526 0.39013 0.0
H2887 H 0.3992 0.01167 0.45341 0.0
H2888 H 0.38342 0.09278 0.45714 0.0
H2889 H 0.38003 0.05095 0.45798 0.0
H2890 H 0.40576 0.04725 0.39006 0.0
H2891 H 0.40921 0.0891 0.38939 0.0
C2892 C 0.36537 0.99027 0.39925 0.0
C2893 C 0.37216 0.97441 0.41468 0.0
C2894 C 0.37142 0.01351 0.40275 0.0
C2895 C 0.38435 0.02144 0.42184 0.0
C2896 C 0.38953 1.00585 0.43837 0.0
C2897 C 0.38353 0.98235 0.43474 0.0
C2898 C 0.38964 0.08295 0.44298 0.0
C2899 C 0.39699 0.09396 0.42337 0.0
C2900 C 0.38745 0.05906 0.44336 0.0
C2901 C 0.39224 0.04598 0.42395 0.0
C2902 C 0.40175 0.05705 0.40517 0.0
C2903 C 0.40414 0.08094 0.4049 0.0
H2904 H 0.29129 0.10565 0.69261 0.0
H2905 H 0.25927 0.05516 0.64504 0.0
H2906 H 0.25672 0.12528 0.69436 0.0
H2907 H 0.22482 0.07521 0.64654 0.0
H2908 H 0.18473 0.13503 0.62804 0.0
H2909 H 0.21932 0.11568 0.63185 0.0
H2910 H 0.21374 0.11933 0.70468 0.0
H2911 H 0.17873 0.13852 0.70089 0.0
C2912 C 0.27675 0.09833 0.68299 0.0
C2913 C 0.27809 0.07888 0.66846 0.0
C2914 C 0.25701 0.10971 0.68394 0.0
C2915 C 0.23841 0.10193 0.67027 0.0
C2916 C 0.23921 0.08174 0.65688 0.0
C2917 C 0.25886 0.07028 0.65604 0.0
C2918 C 0.19096 0.13181 0.64486 0.0
C2919 C 0.17897 0.1379 0.66415 0.0
C2920 C 0.21064 0.1207 0.64703 0.0
C2921 C 0.21874 0.11558 0.66852 0.0
C2922 C 0.20764 0.12299 0.68794 0.0
C2923 C 0.18778 0.13406 0.68576 0.0
H2924 H 0.06295 0.97592 0.89917 0.0
H2925 H 0.12477 0.9422 0.89977 0.0
H2926 H 0.08463 0.01316 0.90585 0.0
H2927 H 0.14625 0.97872 0.90685 0.0
H2928 H 0.17861 0.04656 0.88523 0.0
H2929 H 0.15518 0.01093 0.88306 0.0
H2930 H 0.11039 0.03803 0.93236 0.0
H2931 H 0.1342 0.07407 0.93476 0.0
C2932 C 0.08108 0.97645 0.90127 0.0
C2933 C 0.09221 0.95622 0.89904 0.0
C2934 C 0.09351 0.9977 0.90508 0.0
C2935 C 0.11725 0.99899 0.90653 0.0
C2936 C 0.12808 0.97849 0.90537 0.0
C2937 C 0.11575 0.95747 0.90157 0.0
C2938 C 0.16402 0.04499 0.89593 0.0
C2939 C 0.15863 0.06326 0.91046 0.0
C2940 C 0.15048 0.02445 0.89463 0.0
C2941 C 0.13102 0.02142 0.90778 0.0
C2942 C 0.12523 0.03979 0.92196 0.0
C2943 C 0.1389 0.06046 0.92333 0.0
H2944 H 0.81554 0.40176 0.65548 0.0
H2945 H 0.79048 0.33069 0.64665 0.0
H2946 H 0.77798 0.41213 0.66413 0.0
H2947 H 0.75264 0.34123 0.65594 0.0
H2948 H 0.69316 0.37023 0.6967 0.0
H2949 H 0.73007 0.35673 0.68734 0.0
H2950 H 0.74253 0.414 0.64389 0.0
H2951 H 0.70615 0.42756 0.65362 0.0
C2952 C 0.80199 0.38832 0.65511 0.0
C2953 C 0.80608 0.36541 0.64993 0.0
C2954 C 0.78041 0.3943 0.66018 0.0
C2955 C 0.76228 0.37755 0.66043 0.0
C2956 C 0.76632 0.35451 0.65593 0.0
C2957 C 0.78802 0.34849 0.65064 0.0
C2958 C 0.70385 0.37978 0.6851 0.0
C2959 C 0.69708 0.40016 0.67622 0.0
C2960 C 0.72487 0.37204 0.67967 0.0
C2961 C 0.73932 0.38449 0.66513 0.0
C2962 C 0.73205 0.40437 0.65562 0.0
C2963 C 0.71124 0.41217 0.6612 0.0
H2964 H 0.60739 0.60237 0.16449 0.0
H2965 H 0.55952 0.57094 0.11543 0.0
H2966 H 0.6335 0.57351 0.15505 0.0
H2967 H 0.58433 0.54069 0.10753 0.0
H2968 H 0.63925 0.49605 0.08311 0.0
H2969 H 0.61452 0.52659 0.09085 0.0
H2970 H 0.64484 0.5379 0.15759 0.0
H2971 H 0.66992 0.5082 0.14936 0.0
C2972 C 0.6025 0.58945 0.15145 0.0
C2973 C 0.58156 0.58974 0.14017 0.0
C2974 C 0.61735 0.57232 0.14634 0.0
C2975 C 0.61153 0.55423 0.13025 0.0
C2976 C 0.59017 0.55429 0.11951 0.0
C2977 C 0.5756 0.57167 0.12431 0.0
C2978 C 0.6407 0.5051 0.09941 0.0
C2979 C 0.65703 0.49955 0.11537 0.0
C2980 C 0.62627 0.52273 0.10404 0.0
C2981 C 0.62729 0.53535 0.125 0.0
C2982 C 0.64351 0.52945 0.14101 0.0
C2983 C 0.65809 0.51208 0.13626 0.0
H2984 H 0.27279 0.91724 0.87741 0.0
H2985 H 0.28206 0.84489 0.87484 0.0
H2986 H 0.2318 0.90836 0.87215 0.0
H2987 H 0.24156 0.83613 0.87035 0.0
H2988 H 0.16528 0.83783 0.89718 0.0
H2989 H 0.20675 0.84382 0.89826 0.0
H2990 H 0.20457 0.88596 0.83998 0.0
H2991 H 0.1637 0.87934 0.83834 0.0
C2992 C 0.26614 0.89955 0.87545 0.0
C2993 C 0.28061 0.88179 0.87689 0.0
C2994 C 0.24275 0.89443 0.8726 0.0
C2995 C 0.23353 0.87149 0.87131 0.0
C2996 C 0.24813 0.85389 0.87183 0.0
C2997 C 0.27132 0.85897 0.87438 0.0
C2998 C 0.17376 0.84751 0.88408 0.0
C2999 C 0.16125 0.85793 0.86759 0.0
C3000 C 0.19742 0.85128 0.88489 0.0
C3001 C 0.20877 0.86579 0.86946 0.0
C3002 C 0.19628 0.8751 0.85231 0.0
C3003 C 0.17288 0.87103 0.85126 0.0
H3004 H 0.3014 0.11464 0.41132 0.0
H3005 H 0.28426 0.18286 0.3966 0.0
H3006 H 0.26307 0.09974 0.40221 0.0
H3007 H 0.24524 0.16818 0.38844 0.0
H3008 H 0.18262 0.12923 0.35435 0.0
H3009 H 0.22094 0.14589 0.36259 0.0
H3010 H 0.22685 0.09861 0.41659 0.0
H3011 H 0.1892 0.08165 0.40768 0.0
C3012 C 0.2892 0.12651 0.40656 0.0
C3013 C 0.29564 0.14992 0.40501 0.0
C3014 C 0.26718 0.11801 0.40138 0.0
C3015 C 0.25085 0.13276 0.39489 0.0
C3016 C 0.25737 0.15626 0.3932 0.0
C3017 C 0.27962 0.16473 0.39803 0.0
C3018 C 0.19221 0.12253 0.36797 0.0
C3019 C 0.18311 0.10394 0.38014 0.0
C3020 C 0.21412 0.1321 0.37279 0.0
C3021 C 0.2272 0.12345 0.3901 0.0
C3022 C 0.21764 0.10532 0.40269 0.0
C3023 C 0.19599 0.09559 0.39765 0.0
H3024 H 0.41514 0.06678 0.58926 0.0
H3025 H 0.35813 0.10157 0.61283 0.0
H3026 H 0.4162 0.08882 0.55529 0.0
H3027 H 0.35899 0.12378 0.57828 0.0
H3028 H 0.38233 0.17646 0.52419 0.0
H3029 H 0.37804 0.15364 0.55765 0.0
H3030 H 0.40058 0.09541 0.52008 0.0
H3031 H 0.40543 0.11822 0.48686 0.0
C3032 C 0.40259 0.07903 0.58721 0.0
C3033 C 0.38665 0.08225 0.6043 0.0
C3034 C 0.40313 0.09175 0.56738 0.0
C3035 C 0.3877 0.10838 0.56349 0.0
C3036 C 0.37149 0.11151 0.58047 0.0
C3037 C 0.37094 0.09867 0.60045 0.0
C3038 C 0.38647 0.15884 0.52282 0.0
C3039 C 0.39453 0.14968 0.50223 0.0
C3040 C 0.38379 0.14552 0.54228 0.0
C3041 C 0.38911 0.12243 0.54215 0.0
C3042 C 0.39674 0.11317 0.52145 0.0
C3043 C 0.39944 0.12644 0.50202 0.0
H3044 H 0.64044 0.68272 0.36009 0.0
H3045 H 0.70126 0.6645 0.32768 0.0
H3046 H 0.61855 0.67092 0.3265 0.0
H3047 H 0.67912 0.65316 0.29286 0.0
H3048 H 0.63315 0.66997 0.23017 0.0
H3049 H 0.6573 0.67409 0.264 0.0
H3050 H 0.6053 0.63794 0.30204 0.0
H3051 H 0.58091 0.63439 0.26837 0.0
C3052 C 0.64908 0.67557 0.34592 0.0
C3053 C 0.6725 0.67412 0.34678 0.0
C3054 C 0.63648 0.66886 0.3265 0.0
C3055 C 0.64699 0.66098 0.30695 0.0
C3056 C 0.67052 0.65919 0.30769 0.0
C3057 C 0.68318 0.66553 0.32758 0.0
C3058 C 0.62677 0.66308 0.24578 0.0
C3059 C 0.60487 0.65219 0.24662 0.0
C3060 C 0.64081 0.66507 0.26508 0.0
C3061 C 0.63329 0.65633 0.28573 0.0
C3062 C 0.61159 0.645 0.28643 0.0
C3063 C 0.5976 0.64291 0.26712 0.0
H3064 H 0.12096 0.92301 0.07948 0.0
H3065 H 0.09209 0.85421 0.08891 0.0
H3066 H 0.11579 0.91743 0.03871 0.0
H3067 H 0.08625 0.84868 0.04794 0.0
H3068 H 0.11213 0.8423 0.97293 0.0
H3069 H 0.10904 0.84469 0.01431 0.0
H3070 H 0.08677 0.91304 0.00999 0.0
H3071 H 0.09081 0.9107 0.96897 0.0
C3072 C 0.11317 0.90683 0.07275 0.0
C3073 C 0.10689 0.88905 0.08714 0.0
C3074 C 0.11006 0.90363 0.04947 0.0
C3075 C 0.10035 0.88268 0.04018 0.0
C3076 C 0.09389 0.86493 0.05465 0.0
C3077 C 0.09721 0.86808 0.07799 0.0
C3078 C 0.10614 0.85751 0.98102 0.0
C3079 C 0.10214 0.87649 0.96825 0.0
C3080 C 0.1043 0.85893 1.00456 0.0
C3081 C 0.09817 0.87929 0.01536 0.0
C3082 C 0.09217 0.89741 1.00217 0.0
C3083 C 0.09434 0.89608 0.9788 0.0
H3084 H 0.86128 0.35615 0.71493 0.0
H3085 H 0.9273 0.35392 0.74532 0.0
H3086 H 0.84526 0.36148 0.75262 0.0
H3087 H 0.91129 0.35901 0.78298 0.0
H3088 H 0.86973 0.34777 0.8477 0.0
H3089 H 0.88329 0.33846 0.8101 0.0
H3090 H 0.84949 0.39448 0.7834 0.0
H3091 H 0.83669 0.40453 0.82144 0.0
C3092 C 0.87232 0.35645 0.72966 0.0
C3093 C 0.89562 0.35476 0.72707 0.0
C3094 C 0.86317 0.3597 0.75124 0.0
C3095 C 0.877 0.36087 0.77081 0.0
C3096 C 0.90014 0.35818 0.76828 0.0
C3097 C 0.90935 0.35538 0.7467 0.0
C3098 C 0.86532 0.35834 0.83403 0.0
C3099 C 0.85244 0.37726 0.83799 0.0
C3100 C 0.87303 0.35286 0.81232 0.0
C3101 C 0.86762 0.3658 0.79371 0.0
C3102 C 0.85387 0.38407 0.79735 0.0
C3103 C 0.8465 0.38982 0.81921 0.0
H3104 H 0.41189 0.93159 0.94555 0.0
H3105 H 0.34692 0.8939 0.94178 0.0
H3106 H 0.41703 0.91933 0.98457 0.0
H3107 H 0.35238 0.88095 0.98013 0.0
H3108 H 0.39268 0.83214 0.0242 0.0
H3109 H 0.3855 0.85296 0.99024 0.0
H3110 H 0.39709 0.91707 0.02808 0.0
H3111 H 0.4035 0.89622 0.06262 0.0
C3112 C 0.39814 0.92184 0.95348 0.0
C3113 C 0.37867 0.91435 0.94069 0.0
C3114 C 0.40126 0.91445 0.97571 0.0
C3115 C 0.38524 0.89888 0.98535 0.0
C3116 C 0.36507 0.89285 0.9732 0.0
C3117 C 0.36176 0.90065 0.95131 0.0
C3118 C 0.39352 0.85064 0.02556 0.0
C3119 C 0.39844 0.86228 0.04653 0.0
C3120 C 0.38943 0.86261 0.00596 0.0
C3121 C 0.39043 0.88668 0.00648 0.0
C3122 C 0.39617 0.89852 0.02712 0.0
C3123 C 0.39996 0.88649 0.04693 0.0
H3124 H 0.86581 0.65194 0.82362 0.0
H3125 H 0.93392 0.67391 0.80602 0.0
H3126 H 0.8561 0.64568 0.78322 0.0
H3127 H 0.92484 0.66662 0.76632 0.0
H3128 H 0.90197 0.6674 0.69421 0.0
H3129 H 0.90696 0.67819 0.73434 0.0
H3130 H 0.8611 0.62073 0.75129 0.0
H3131 H 0.8554 0.61085 0.71082 0.0
C3132 C 0.87864 0.65566 0.81118 0.0
C3133 C 0.90071 0.66331 0.81818 0.0
C3134 C 0.87319 0.65177 0.78797 0.0
C3135 C 0.88965 0.65551 0.7712 0.0
C3136 C 0.91148 0.6638 0.77839 0.0
C3137 C 0.91683 0.66774 0.80138 0.0
C3138 C 0.89288 0.65723 0.70658 0.0
C3139 C 0.87841 0.63826 0.69949 0.0
C3140 C 0.89582 0.66327 0.72967 0.0
C3141 C 0.88468 0.65022 0.74641 0.0
C3142 C 0.86981 0.63142 0.73911 0.0
C3143 C 0.86665 0.62559 0.71591 0.0
H3144 H 0.05413 0.09925 0.46482 0.0
H3145 H 0.12627 0.09963 0.47288 0.0
H3146 H 0.05123 0.11349 0.50379 0.0
H3147 H 0.12348 0.11275 0.51238 0.0
H3148 H 0.11478 0.17354 0.56022 0.0
H3149 H 0.11637 0.15039 0.52566 0.0
H3150 H 0.05519 0.11111 0.54366 0.0
H3151 H 0.05259 0.13551 0.57745 0.0
C3152 C 0.06922 0.10146 0.47537 0.0
C3153 C 0.09042 0.0988 0.46611 0.0
C3154 C 0.06761 0.10958 0.49766 0.0
C3155 C 0.08723 0.11484 0.51091 0.0
C3156 C 0.10818 0.10954 0.50228 0.0
C3157 C 0.1098 0.10184 0.47987 0.0
C3158 C 0.10139 0.16034 0.55665 0.0
C3159 C 0.08359 0.15642 0.5717 0.0
C3160 C 0.1026 0.14664 0.53708 0.0
C3161 C 0.08619 0.12855 0.53223 0.0
C3162 C 0.06814 0.12486 0.547 0.0
C3163 C 0.06674 0.1388 0.56642 0.0
H3164 H 0.64861 0.43039 0.20211 0.0
H3165 H 0.66191 0.3602 0.1864 0.0
H3166 H 0.63193 0.41894 0.23792 0.0
H3167 H 0.6451 0.34867 0.22234 0.0
H3168 H 0.58122 0.33964 0.26977 0.0
H3169 H 0.60371 0.34879 0.23613 0.0
H3170 H 0.64292 0.4017 0.27533 0.0
H3171 H 0.62055 0.39224 0.30873 0.0
C3172 C 0.64823 0.41257 0.20654 0.0
C3173 C 0.65643 0.39614 0.19159 0.0
C3174 C 0.6388 0.40604 0.227 0.0
C3175 C 0.63715 0.38292 0.23272 0.0
C3176 C 0.64606 0.36657 0.21815 0.0
C3177 C 0.65581 0.37317 0.19778 0.0
C3178 C 0.59473 0.35311 0.27096 0.0
C3179 C 0.59925 0.36545 0.29141 0.0
C3180 C 0.60767 0.35821 0.25196 0.0
C3181 C 0.625 0.37594 0.25325 0.0
C3182 C 0.6296 0.38804 0.27392 0.0
C3183 C 0.6169 0.3827 0.2929 0.0
H3184 H 0.61957 0.44475 0.09219 0.0
H3185 H 0.59475 0.37356 0.08912 0.0
H3186 H 0.5831 0.45544 0.10514 0.0
H3187 H 0.5584 0.38414 0.10227 0.0
H3188 H 0.49043 0.40872 0.11274 0.0
H3189 H 0.52539 0.40276 0.09329 0.0
H3190 H 0.56101 0.4516 0.14005 0.0
H3191 H 0.52519 0.45853 0.15853 0.0
C3192 C 0.6063 0.4314 0.09366 0.0
C3193 C 0.61032 0.40827 0.08958 0.0
C3194 C 0.58537 0.43753 0.10145 0.0
C3195 C 0.56781 0.42068 0.10498 0.0
C3196 C 0.57141 0.39767 0.09959 0.0
C3197 C 0.59234 0.39157 0.092 0.0
C3198 C 0.50556 0.41896 0.1181 0.0
C3199 C 0.50504 0.43483 0.13639 0.0
C3200 C 0.52572 0.41517 0.10735 0.0
C3201 C 0.54608 0.4267 0.11504 0.0
C3202 C 0.54557 0.44275 0.13338 0.0
C3203 C 0.52519 0.44671 0.14402 0.0
H3204 H 0.32905 0.72979 0.92875 0.0
H3205 H 0.32424 0.69228 0.86432 0.0
H3206 H 0.33087 0.76577 0.90894 0.0
H3207 H 0.32533 0.7281 0.8447 0.0
H3208 H 0.36825 0.79599 0.82585 0.0
H3209 H 0.35709 0.75856 0.84099 0.0
H3210 H 0.30809 0.78942 0.88322 0.0
H3211 H 0.31922 0.82675 0.86791 0.0
C3212 C 0.32809 0.72923 0.91043 0.0
C3213 C 0.32652 0.70821 0.89815 0.0
C3214 C 0.32885 0.74977 0.8991 0.0
C3215 C 0.32815 0.74961 0.8753 0.0
C3216 C 0.32593 0.72864 0.86305 0.0
C3217 C 0.32511 0.70814 0.87434 0.0
C3218 C 0.35451 0.79449 0.83769 0.0
C3219 C 0.34432 0.81397 0.8455 0.0
C3220 C 0.34816 0.77319 0.84641 0.0
C3221 C 0.33184 0.77123 0.86336 0.0
C3222 C 0.32078 0.79055 0.87024 0.0
C3223 C 0.3269 0.81177 0.86126 0.0
H3224 H 0.93235 0.58076 0.60085 0.0
H3225 H 0.95707 0.65179 0.59909 0.0
H3226 H 0.97023 0.57071 0.61201 0.0
H3227 H 0.99417 0.64208 0.61045 0.0
H3228 H 0.06315 0.62242 0.61878 0.0
H3229 H 0.02685 0.62476 0.59995 0.0
H3230 H 0.99667 0.5751 0.64503 0.0
H3231 H 0.03384 0.57213 0.66323 0.0
C3232 C 0.94586 0.59416 0.60233 0.0
C3233 C 0.94149 0.61713 0.59901 0.0
C3234 C 0.96758 0.58844 0.60902 0.0
C3235 C 0.98552 0.60553 0.61227 0.0
C3236 C 0.98116 0.62825 0.60786 0.0
C3237 C 0.95967 0.6339 0.60135 0.0
C3238 C 0.04889 0.6115 0.62421 0.0
C3239 C 0.05141 0.59696 0.64235 0.0
C3240 C 0.02791 0.61304 0.61363 0.0
C3241 C 0.00847 0.60049 0.62114 0.0
C3242 C 0.01116 0.58501 0.63864 0.0
C3243 C 0.03242 0.58331 0.64916 0.0
H3244 H 0.10174 0.27304 0.4358 0.0
H3245 H 0.14956 0.288 0.38306 0.0
H3246 H 0.09419 0.2344 0.42 0.0
H3247 H 0.14167 0.24877 0.36692 0.0
H3248 H 0.13281 0.16404 0.36675 0.0
H3249 H 0.14473 0.20423 0.37796 0.0
H3250 H 0.07508 0.21887 0.3834 0.0
H3251 H 0.06332 0.17958 0.37207 0.0
C3252 C 0.11086 0.26811 0.42091 0.0
C3253 C 0.12637 0.2839 0.41086 0.0
C3254 C 0.10636 0.24585 0.4117 0.0
C3255 C 0.11724 0.23835 0.3921 0.0
C3256 C 0.13306 0.25389 0.38209 0.0
C3257 C 0.13742 0.27646 0.39124 0.0
C3258 C 0.1201 0.17603 0.36968 0.0
C3259 C 0.09705 0.16838 0.36852 0.0
C3260 C 0.12692 0.19905 0.37624 0.0
C3261 C 0.11085 0.21476 0.38198 0.0
C3262 C 0.08795 0.20727 0.37953 0.0
C3263 C 0.08121 0.18463 0.37286 0.0
H3264 H 0.57435 0.69002 0.40727 0.0
H3265 H 0.59305 0.6223 0.38805 0.0
H3266 H 0.53768 0.68147 0.38808 0.0
H3267 H 0.55666 0.61391 0.36887 0.0
H3268 H 0.50578 0.62493 0.3101 0.0
H3269 H 0.54035 0.63194 0.33296 0.0
H3270 H 0.50137 0.65239 0.39029 0.0
H3271 H 0.46677 0.64535 0.36742 0.0
C3272 C 0.5705 0.67326 0.3992 0.0
C3273 C 0.58648 0.6568 0.39921 0.0
C3274 C 0.54956 0.66836 0.38833 0.0
C3275 C 0.5445 0.6471 0.37691 0.0
C3276 C 0.56024 0.63048 0.37743 0.0
C3277 C 0.58095 0.63522 0.38858 0.0
C3278 C 0.50464 0.63091 0.32757 0.0
C3279 C 0.48364 0.63448 0.337 0.0
C3280 C 0.52434 0.63477 0.34067 0.0
C3281 C 0.52345 0.64263 0.36337 0.0
C3282 C 0.50248 0.64637 0.37282 0.0
C3283 C 0.48272 0.64216 0.3598 0.0
H3284 H 0.08412 0.81095 0.179 0.0
H3285 H 0.15307 0.83974 0.18218 0.0
H3286 H 0.09581 0.7771 0.15892 0.0
H3287 H 0.16485 0.80531 0.16206 0.0
H3288 H 0.17249 0.72647 0.13852 0.0
H3289 H 0.16502 0.75961 0.16318 0.0
H3290 H 0.11074 0.77456 0.1183 0.0
H3291 H 0.11805 0.74169 0.09389 0.0
C3292 C 0.10193 0.80983 0.176 0.0
C3293 C 0.11756 0.82839 0.18201 0.0
C3294 C 0.10857 0.79045 0.16424 0.0
C3295 C 0.13116 0.78876 0.15837 0.0
C3296 C 0.14727 0.80622 0.16621 0.0
C3297 C 0.14053 0.8259 0.17792 0.0
C3298 C 0.15907 0.73695 0.13388 0.0
C3299 C 0.1459 0.73137 0.11417 0.0
C3300 C 0.15488 0.75598 0.14794 0.0
C3301 C 0.13716 0.76958 0.14281 0.0
C3302 C 0.12437 0.76428 0.12286 0.0
C3303 C 0.12873 0.74553 0.1087 0.0
H3304 H 0.08231 0.43504 0.87529 0.0
H3305 H 0.06681 0.38489 0.82137 0.0
H3306 H 0.04243 0.43422 0.88502 0.0
H3307 H 0.02685 0.38356 0.83105 0.0
H3308 H 0.95407 0.39324 0.84885 0.0
H3309 H 0.99183 0.40243 0.8347 0.0
H3310 H 0.01838 0.40495 0.90321 0.0
H3311 H 0.98062 0.39568 0.91738 0.0
C3312 C 0.07009 0.4246 0.86492 0.0
C3313 C 0.07738 0.41034 0.84735 0.0
C3314 C 0.04736 0.42376 0.87072 0.0
C3315 C 0.03147 0.40852 0.85909 0.0
C3316 C 0.03859 0.39561 0.84029 0.0
C3317 C 0.06139 0.39647 0.83454 0.0
C3318 C 0.96799 0.39556 0.86091 0.0
C3319 C 0.9643 0.39342 0.88426 0.0
C3320 C 0.98963 0.40096 0.85277 0.0
C3321 C 0.00816 0.40446 0.86777 0.0
C3322 C 0.00444 0.40276 0.89117 0.0
C3323 C 0.98278 0.39733 0.89932 0.0
H3324 H 0.31142 0.16492 0.6691 0.0
H3325 H 0.38055 0.19178 0.6622 0.0
H3326 H 0.29844 0.20118 0.65708 0.0
H3327 H 0.36756 0.22787 0.64969 0.0
H3328 H 0.33639 0.29498 0.6455 0.0
H3329 H 0.3464 0.26074 0.66377 0.0
H3330 H 0.30092 0.21954 0.6185 0.0
H3331 H 0.29028 0.25433 0.60039 0.0
C3332 C 0.32379 0.17878 0.66545 0.0
C3333 C 0.34694 0.17573 0.66638 0.0
C3334 C 0.31638 0.19931 0.65836 0.0
C3335 C 0.33204 0.21699 0.65227 0.0
C3336 C 0.35521 0.21439 0.65439 0.0
C3337 C 0.36263 0.19382 0.66139 0.0
C3338 C 0.32801 0.27871 0.6398 0.0
C3339 C 0.31217 0.27719 0.6218 0.0
C3340 C 0.33399 0.25914 0.65011 0.0
C3341 C 0.32432 0.2377 0.64255 0.0
C3342 C 0.30829 0.23607 0.62477 0.0
C3343 C 0.30233 0.25576 0.61435 0.0
H3344 H 0.16771 0.48679 0.3929 0.0
H3345 H 0.10359 0.45905 0.41743 0.0
H3346 H 0.15195 0.52323 0.38729 0.0
H3347 H 0.08765 0.49516 0.41079 0.0
H3348 H 0.07639 0.57139 0.42576 0.0
H3349 H 0.08818 0.53262 0.42611 0.0
H3350 H 0.12735 0.54529 0.36617 0.0
H3351 H 0.11567 0.58462 0.36626 0.0
C3352 C 0.15023 0.48822 0.39704 0.0
C3353 C 0.13716 0.46953 0.40583 0.0
C3354 C 0.14103 0.50926 0.39347 0.0
C3355 C 0.11838 0.51245 0.39849 0.0
C3356 C 0.10522 0.49368 0.40693 0.0
C3357 C 0.11441 0.47267 0.41058 0.0
C3358 C 0.08687 0.56565 0.41215 0.0
C3359 C 0.09469 0.58104 0.39575 0.0
C3360 C 0.09377 0.5433 0.41238 0.0
C3361 C 0.10896 0.53553 0.39628 0.0
C3362 C 0.1159 0.5506 0.37907 0.0
C3363 C 0.10882 0.57306 0.37878 0.0
H3364 H 0.65243 0.93709 0.6283 0.0
H3365 H 0.60157 0.9189 0.57657 0.0
H3366 H 0.65516 0.97617 0.61662 0.0
H3367 H 0.60439 0.95903 0.56473 0.0
H3368 H 0.59867 0.04029 0.58443 0.0
H3369 H 0.59584 0.99834 0.58304 0.0
H3370 H 0.66841 0.99937 0.58399 0.0
H3371 H 0.671 0.0414 0.58549 0.0
C3372 C 0.64186 0.94131 0.61423 0.0
C3373 C 0.62671 0.92462 0.60341 0.0
C3374 C 0.64364 0.96388 0.60738 0.0
C3375 C 0.63036 0.97074 0.58944 0.0
C3376 C 0.615 0.95423 0.57854 0.0
C3377 C 0.61332 0.93129 0.58534 0.0
C3378 C 0.61396 0.03145 0.58323 0.0
C3379 C 0.63508 0.04402 0.5849 0.0
C3380 C 0.61236 0.00743 0.58252 0.0
C3381 C 0.63188 0.99547 0.58375 0.0
C3382 C 0.65303 0.00809 0.58324 0.0
C3383 C 0.65459 0.03213 0.58378 0.0
H3384 H 0.85445 0.83701 0.33565 0.0
H3385 H 0.84092 0.8557 0.40515 0.0
H3386 H 0.82094 0.85513 0.32342 0.0
H3387 H 0.80729 0.87317 0.39307 0.0
H3388 H 0.77016 0.93027 0.36401 0.0
H3389 H 0.80154 0.90828 0.37397 0.0
H3390 H 0.7792 0.8559 0.32374 0.0
H3391 H 0.74785 0.87837 0.31324 0.0
C3392 C 0.84415 0.84439 0.3484 0.0
C3393 C 0.85088 0.8452 0.37138 0.0
C3394 C 0.82484 0.85488 0.34136 0.0
C3395 C 0.81167 0.86623 0.35719 0.0
C3396 C 0.81736 0.86527 0.38029 0.0
C3397 C 0.83659 0.85494 0.38725 0.0
C3398 C 0.77198 0.91427 0.35477 0.0
C3399 C 0.75629 0.90622 0.33775 0.0
C3400 C 0.7899 0.90142 0.36075 0.0
C3401 C 0.79281 0.88006 0.34992 0.0
C3402 C 0.77752 0.87223 0.33247 0.0
C3403 C 0.75943 0.88507 0.32655 0.0
H3404 H 0.81112 0.97592 0.1358 0.0
H3405 H 0.85216 0.94739 0.0833 0.0
H3406 H 0.83317 0.01222 0.13366 0.0
H3407 H 0.87357 0.98398 0.08116 0.0
H3408 H 0.88567 0.0673 0.07689 0.0
H3409 H 0.86581 0.02901 0.07313 0.0
H3410 H 0.8778 0.01915 0.14423 0.0
H3411 H 0.89784 0.05702 0.14794 0.0
C3412 C 0.82453 0.97719 0.12367 0.0
C3413 C 0.82996 0.95819 0.11019 0.0
C3414 C 0.83714 0.99807 0.12248 0.0
C3415 C 0.85518 1.00051 0.10755 0.0
C3416 C 0.85973 0.98229 0.09287 0.0
C3417 C 0.84731 0.96127 0.09422 0.0
C3418 C 0.88461 0.05659 0.09148 0.0
C3419 C 0.89289 0.06504 0.11277 0.0
C3420 C 0.8732 0.03489 0.08936 0.0
C3421 C 0.86997 0.02167 0.10854 0.0
C3422 C 0.87976 0.02942 0.12937 0.0
C3423 C 0.89122 0.05093 0.13146 0.0
H3424 H 0.30617 0.60043 0.36078 0.0
H3425 H 0.30368 0.64521 0.30463 0.0
H3426 H 0.27037 0.61284 0.37423 0.0
H3427 H 0.26712 0.65722 0.31751 0.0
H3428 H 0.2073 0.6832 0.35794 0.0
H3429 H 0.24616 0.67676 0.34807 0.0
H3430 H 0.2326 0.60451 0.35887 0.0
H3431 H 0.1941 0.61063 0.36803 0.0
C3432 C 0.29777 0.61288 0.35131 0.0
C3433 C 0.30719 0.62153 0.33146 0.0
C3434 C 0.27736 0.62002 0.35896 0.0
C3435 C 0.26574 0.63566 0.34667 0.0
C3436 C 0.27574 0.6452 0.32737 0.0
C3437 C 0.29646 0.63827 0.3199 0.0
C3438 C 0.2126 0.66593 0.35811 0.0
C3439 C 0.19754 0.64746 0.364 0.0
C3440 C 0.23487 0.6623 0.35252 0.0
C3441 C 0.24247 0.64019 0.35297 0.0
C3442 C 0.22743 0.62185 0.35891 0.0
C3443 C 0.20529 0.62541 0.36426 0.0
H3444 H 0.35651 0.53577 0.92681 0.0
H3445 H 0.31568 0.51979 0.86647 0.0
H3446 H 0.37987 0.50446 0.91674 0.0
H3447 H 0.33869 0.48838 0.85678 0.0
H3448 H 0.36211 0.41717 0.87002 0.0
H3449 H 0.34296 0.45121 0.87837 0.0
H3450 H 0.40673 0.49145 0.88331 0.0
H3451 H 0.42642 0.45707 0.87367 0.0
C3452 C 0.35255 0.52561 0.91143 0.0
C3453 C 0.33402 0.52999 0.89764 0.0
C3454 C 0.36599 0.50788 0.90562 0.0
C3455 C 0.36098 0.49416 0.88605 0.0
C3456 C 0.3427 0.49869 0.8721 0.0
C3457 C 0.32936 0.51645 0.87781 0.0
C3458 C 0.37223 0.43327 0.87226 0.0
C3459 C 0.39584 0.43447 0.8704 0.0
C3460 C 0.36116 0.45274 0.87724 0.0
C3461 C 0.37339 0.47387 0.88107 0.0
C3462 C 0.39703 0.47521 0.88024 0.0
C3463 C 0.40823 0.4556 0.8748 0.0
H3464 H 0.72438 0.14794 0.13789 0.0
H3465 H 0.75225 0.08194 0.13465 0.0
H3466 H 0.76231 0.16673 0.13788 0.0
H3467 H 0.7901 0.10078 0.13433 0.0
H3468 H 0.85585 0.14269 0.11732 0.0
H3469 H 0.81742 0.12487 0.1126 0.0
H3470 H 0.7946 0.17187 0.16368 0.0
H3471 H 0.83263 0.18971 0.16826 0.0
C3472 C 0.7385 0.13736 0.13733 0.0
C3473 C 0.73499 0.1133 0.13648 0.0
C3474 C 0.76035 0.14819 0.13721 0.0
C3475 C 0.77941 0.13533 0.13617 0.0
C3476 C 0.77591 0.1113 0.13485 0.0
C3477 C 0.75407 0.10046 0.1351 0.0
C3478 C 0.84264 0.14934 0.12745 0.0
C3479 C 0.84755 0.16773 0.14325 0.0
C3480 C 0.82056 0.13902 0.12481 0.0
C3481 C 0.80279 0.14688 0.13778 0.0
C3482 C 0.80769 0.1655 0.15317 0.0
C3483 C 0.82966 0.17569 0.15589 0.0
H3484 H 0.72809 0.83552 0.61491 0.0
H3485 H 0.70433 0.90162 0.63173 0.0
H3486 H 0.7672 0.85173 0.62002 0.0
H3487 H 0.74289 0.91763 0.638 0.0
H3488 H 0.81055 0.94637 0.61608 0.0
H3489 H 0.77299 0.92825 0.61475 0.0
H3490 H 0.79667 0.86833 0.64517 0.0
H3491 H 0.83497 0.88584 0.64505 0.0
C3492 C 0.73134 0.85341 0.62008 0.0
C3493 C 0.71349 0.86751 0.6227 0.0
C3494 C 0.75363 0.86268 0.62314 0.0
C3495 C 0.75823 0.8861 0.62907 0.0
C3496 C 0.74007 0.89972 0.6328 0.0
C3497 C 0.71799 0.89057 0.6294 0.0
C3498 C 0.80809 0.92928 0.62235 0.0
C3499 C 0.82623 0.9177 0.63049 0.0
C3500 C 0.78626 0.91895 0.6219 0.0
C3501 C 0.78168 0.89685 0.63002 0.0
C3502 C 0.79962 0.88529 0.63857 0.0
C3503 C 0.82165 0.89555 0.63874 0.0
H3504 H 0.93996 0.2458 0.11462 0.0
H3505 H 0.99358 0.20618 0.13736 0.0
H3506 H 0.96714 0.27975 0.1127 0.0
H3507 H 0.0202 0.23926 0.13536 0.0
H3508 H 0.06253 0.3021 0.14885 0.0
H3509 H 0.0296 0.2759 0.15443 0.0
H3510 H 1.00207 0.29367 0.08998 0.0
H3511 H 0.03525 0.32076 0.08475 0.0
C3512 C 0.95737 0.24444 0.11959 0.0
C3513 C 0.96457 0.22331 0.1263 0.0
C3514 C 0.97298 0.26378 0.11826 0.0
C3515 C 0.99592 0.26239 0.12405 0.0
C3516 C 1.00272 0.24128 0.13116 0.0
C3517 C 0.98738 0.22216 0.13221 0.0
C3518 C 0.04916 0.30097 0.13615 0.0
C3519 C 0.05148 0.31354 0.1164 0.0
C3520 C 0.03031 0.28575 0.13924 0.0
C3521 C 0.0133 0.28222 0.12246 0.0
C3522 C 0.01479 0.29598 0.1033 0.0
C3523 C 0.03375 0.31155 0.1003 0.0
H3524 H 0.05286 0.71244 0.34033 0.0
H3525 H 0.02342 0.67853 0.39763 0.0
H3526 H 0.02248 0.73764 0.33951 0.0
H3527 H 0.99224 0.70398 0.3967 0.0
H3528 H 0.96065 0.77616 0.40486 0.0
H3529 H 0.98463 0.74391 0.40471 0.0
H3530 H 0.98427 0.74266 0.33159 0.0
H3531 H 0.96053 0.77501 0.33201 0.0
C3532 C 0.03957 0.71001 0.35258 0.0
C3533 C 0.04074 0.69321 0.36899 0.0
C3534 C 0.0219 0.72455 0.35202 0.0
C3535 C 0.00453 0.72312 0.36797 0.0
C3536 C 0.00527 0.70586 0.38414 0.0
C3537 C 0.02303 0.691 0.38455 0.0
C3538 C 0.96505 0.7684 0.38876 0.0
C3539 C 0.9581 0.7778 0.36843 0.0
C3540 C 0.97895 0.74989 0.38864 0.0
C3541 C 0.98679 0.74048 0.36815 0.0
C3542 C 0.97898 0.74941 0.34779 0.0
C3543 C 0.96497 0.76779 0.34795 0.0
H3544 H 0.5369 0.82331 0.59074 0.0
H3545 H 0.56108 0.80355 0.65577 0.0
H3546 H 0.50337 0.79626 0.59415 0.0
H3547 H 0.5279 0.77719 0.65938 0.0
H3548 H 0.49339 0.70753 0.63802 0.0
H3549 H 0.52011 0.74075 0.63756 0.0
H3550 H 0.46723 0.78237 0.61677 0.0
H3551 H 0.43994 0.74839 0.61723 0.0
C3552 C 0.53462 0.81388 0.60609 0.0
C3553 C 0.5516 0.81546 0.62297 0.0
C3554 C 0.51549 0.79834 0.60804 0.0
C3555 C 0.51314 0.78425 0.62688 0.0
C3556 C 0.52932 0.78742 0.64446 0.0
C3557 C 0.5483 0.80266 0.64246 0.0
C3558 C 0.48726 0.72377 0.63357 0.0
C3559 C 0.46447 0.72532 0.62782 0.0
C3560 C 0.50264 0.74291 0.6334 0.0
C3561 C 0.49585 0.76435 0.62731 0.0
C3562 C 0.47298 0.7661 0.62157 0.0
C3563 C 0.45734 0.74676 0.62205 0.0
H3564 H 0.49293 0.29888 0.89175 0.0
H3565 H 0.44052 0.25956 0.8531 0.0
H3566 H 0.51434 0.26549 0.89374 0.0
H3567 H 0.46229 0.22546 0.85522 0.0
H3568 H 0.52636 0.18221 0.84021 0.0
H3569 H 0.49777 0.2103 0.84081 0.0
H3570 H 0.51605 0.22891 0.91033 0.0
H3571 H 0.54456 0.20099 0.90946 0.0
C3572 C 0.48577 0.28298 0.8838 0.0
C3573 C 0.46483 0.28213 0.87225 0.0
C3574 C 0.49811 0.26361 0.88512 0.0
C3575 C 0.49016 0.24245 0.87483 0.0
C3576 C 0.46907 0.24139 0.86336 0.0
C3577 C 0.45647 0.26092 0.86226 0.0
C3578 C 0.52352 0.19161 0.8559 0.0
C3579 C 0.53728 0.1888 0.87502 0.0
C3580 C 0.50721 0.20791 0.85622 0.0
C3581 C 0.50456 0.22225 0.87554 0.0
C3582 C 0.51763 0.21851 0.895 0.0
C3583 C 0.53376 0.20214 0.8947 0.0
H3584 H 0.07155 0.94998 0.23218 0.0
H3585 H 0.141 0.94956 0.25345 0.0
H3586 H 0.0669 0.98284 0.25725 0.0
H3587 H 0.1363 0.98251 0.27962 0.0
H3588 H 0.12541 0.05733 0.30435 0.0
H3589 H 0.13106 0.02378 0.2793 0.0
H3590 H 0.06423 0.9952 0.29491 0.0
H3591 H 0.05857 0.02859 0.31886 0.0
C3592 C 0.08563 0.95646 0.243 0.0
C3593 C 0.10646 0.94688 0.24128 0.0
C3594 C 0.08303 0.97546 0.25734 0.0
C3595 C 0.10123 0.98557 0.27054 0.0
C3596 C 0.12198 0.9754 0.26952 0.0
C3597 C 0.12457 0.9562 0.25498 0.0
C3598 C 0.11173 0.0442 0.30165 0.0
C3599 C 0.09135 0.04582 0.31312 0.0
C3600 C 0.11511 0.02472 0.28775 0.0
C3601 C 0.09814 1.00659 0.28506 0.0
C3602 C 0.07762 0.00878 0.29615 0.0
C3603 C 0.0743 0.02805 0.30989 0.0
H3604 H 0.33368 0.90979 0.48426 0.0
H3605 H 0.2878 0.87445 0.43538 0.0
H3606 H 0.30323 0.91406 0.51021 0.0
H3607 H 0.25653 0.87865 0.46218 0.0
H3608 H 0.20495 0.91124 0.51705 0.0
H3609 H 0.23158 0.90623 0.48566 0.0
H3610 H 0.28175 0.88823 0.53381 0.0
H3611 H 0.25596 0.89334 0.56438 0.0
C3612 C 0.31701 0.90284 0.47888 0.0
C3613 C 0.31362 0.89143 0.45753 0.0
C3614 C 0.29934 0.90526 0.49404 0.0
C3615 C 0.27718 0.89631 0.48883 0.0
C3616 C 0.27329 0.88576 0.46701 0.0
C3617 C 0.29127 0.88333 0.45157 0.0
C3618 C 0.22162 0.90606 0.52084 0.0
C3619 C 0.22818 0.90315 0.54359 0.0
C3620 C 0.23695 0.90312 0.50279 0.0
C3621 C 0.25926 0.89727 0.50699 0.0
C3622 C 0.26514 0.89337 0.52962 0.0
C3623 C 0.25009 0.89627 0.54737 0.0
H3624 H 0.3699 1.00003 0.70242 0.0
H3625 H 0.35609 0.05374 0.75111 0.0
H3626 H 0.36853 0.97263 0.73328 0.0
H3627 H 0.35437 0.02695 0.78101 0.0
H3628 H 0.37604 0.97734 0.83499 0.0
H3629 H 0.3764 1.00485 0.80454 0.0
H3630 H 0.34298 0.95303 0.75949 0.0
H3631 H 0.34272 0.92585 0.78976 0.0
C3632 C 0.36663 1.00605 0.71951 0.0
C3633 C 0.36314 0.02925 0.72397 0.0
C3634 C 0.36569 0.99034 0.73727 0.0
C3635 C 0.36142 0.9975 0.75992 0.0
C3636 C 0.35809 0.02067 0.76412 0.0
C3637 C 0.35892 0.03612 0.74661 0.0
C3638 C 0.368 0.97214 0.81888 0.0
C3639 C 0.359 0.94946 0.81506 0.0
C3640 C 0.36847 0.9878 0.8012 0.0
C3641 C 0.36008 0.98116 0.77918 0.0
C3642 C 0.35011 0.95877 0.77585 0.0
C3643 C 0.34955 0.94328 0.79345 0.0
H3644 H 0.25353 0.18226 0.96181 0.0
H3645 H 0.24141 0.10975 0.94797 0.0
H3646 H 0.28484 0.17531 0.98726 0.0
H3647 H 0.27247 0.1025 0.97376 0.0
H3648 H 0.33553 0.0963 0.01947 0.0
H3649 H 0.31216 0.10461 0.98632 0.0
H3650 H 0.28664 0.16124 0.02411 0.0
H3651 H 0.30967 0.15321 0.05638 0.0
C3652 C 0.25812 0.16485 0.96356 0.0
C3653 C 0.2453 0.14663 0.95238 0.0
C3654 C 0.27588 0.16075 0.97852 0.0
C3655 C 0.28124 0.13822 0.98306 0.0
C3656 C 0.26919 0.12007 0.97074 0.0
C3657 C 0.25138 0.12422 0.9558 0.0
C3658 C 0.32516 0.1107 0.02048 0.0
C3659 C 0.32446 0.1239 0.04081 0.0
C3660 C 0.31159 0.11542 1.00151 0.0
C3661 C 0.29732 0.13372 1.00225 0.0
C3662 C 0.29746 0.14726 0.0224 0.0
C3663 C 0.31065 0.14243 0.0412 0.0
H3664 H 0.71336 0.4312 0.01899 0.0
H3665 H 0.74814 0.38398 0.05858 0.0
H3666 H 0.73965 0.4252 0.98752 0.0
H3667 H 0.77345 0.37778 0.02775 0.0
H3668 H 0.83447 0.39614 0.9876 0.0
H3669 H 0.80424 0.40172 0.01326 0.0
H3670 H 0.75652 0.39678 0.95744 0.0
H3671 H 0.78771 0.39132 0.93084 0.0
C3672 C 0.72631 0.41937 0.02094 0.0
C3673 C 0.7288 0.40854 0.0417 0.0
C3674 C 0.74138 0.41585 1.00285 0.0
C3675 C 0.75919 0.40135 1.00509 0.0
C3676 C 0.76054 0.38959 0.02538 0.0
C3677 C 0.74583 0.39318 0.04323 0.0
C3678 C 0.81766 0.39616 0.98039 0.0
C3679 C 0.81386 0.39298 0.95682 0.0
C3680 C 0.80008 0.3993 0.99539 0.0
C3681 C 0.77762 0.39939 0.98775 0.0
C3682 C 0.77355 0.39681 0.96408 0.0
C3683 C 0.79144 0.39354 0.9488 0.0
H3684 H 0.85955 0.5017 0.20438 0.0
H3685 H 0.86933 0.55725 0.25431 0.0
H3686 H 0.85877 0.47425 0.23505 0.0
H3687 H 0.86776 0.53048 0.28442 0.0
H3688 H 0.8849 0.47517 0.33396 0.0
H3689 H 0.88587 0.5031 0.30402 0.0
H3690 H 0.83652 0.45958 0.26521 0.0
H3691 H 0.83618 0.43166 0.29487 0.0
C3692 C 0.86175 0.50806 0.22176 0.0
C3693 C 0.86447 0.53175 0.2267 0.0
C3694 C 0.861 0.49237 0.23946 0.0
C3695 C 0.86307 0.49999 0.26252 0.0
C3696 C 0.86637 0.52368 0.26714 0.0
C3697 C 0.86709 0.53916 0.24965 0.0
C3698 C 0.87362 0.47207 0.31946 0.0
C3699 C 0.86004 0.45144 0.31712 0.0
C3700 C 0.87435 0.48795 0.30202 0.0
C3701 C 0.86151 0.48362 0.28175 0.0
C3702 C 0.84709 0.46345 0.28011 0.0
C3703 C 0.84648 0.44763 0.29742 0.0
H3704 H 0.76588 0.67813 0.44882 0.0
H3705 H 0.72836 0.61393 0.46007 0.0
H3706 H 0.79587 0.66745 0.47475 0.0
H3707 H 0.75807 0.60297 0.48515 0.0
H3708 H 0.7938 0.60548 0.5539 0.0
H3709 H 0.76942 0.61317 0.5224 0.0
H3710 H 0.82653 0.64352 0.487 0.0
H3711 H 0.85125 0.63587 0.51941 0.0
C3712 C 0.76442 0.66137 0.45606 0.0
C3713 C 0.74474 0.64677 0.45196 0.0
C3714 C 0.7816 0.65524 0.47114 0.0
C3715 C 0.7795 0.6344 0.48269 0.0
C3716 C 0.76037 0.61938 0.47729 0.0
C3717 C 0.74334 0.62553 0.46248 0.0
C3718 C 0.8014 0.61328 0.5392 0.0
C3719 C 0.82472 0.6195 0.53922 0.0
C3720 C 0.78728 0.61774 0.5209 0.0
C3721 C 0.79569 0.62888 0.50163 0.0
C3722 C 0.8192 0.63493 0.50138 0.0
C3723 C 0.83353 0.63019 0.51984 0.0
H3724 H 0.59158 0.51509 0.84358 0.0
H3725 H 0.58876 0.56471 0.79146 0.0
H3726 H 0.59628 0.4851 0.8154 0.0
H3727 H 0.59381 0.53411 0.7627 0.0
H3728 H 0.57452 0.46991 0.71766 0.0
H3729 H 0.57309 0.50077 0.74582 0.0
H3730 H 0.62009 0.46836 0.78816 0.0
H3731 H 0.62135 0.4369 0.75956 0.0
C3732 C 0.59193 0.51973 0.826 0.0
C3733 C 0.58931 0.54251 0.81991 0.0
C3734 C 0.59496 0.50234 0.80975 0.0
C3735 C 0.59536 0.50688 0.78661 0.0
C3736 C 0.59327 0.52979 0.78036 0.0
C3737 C 0.59045 0.54743 0.79683 0.0
C3738 C 0.58455 0.46917 0.73301 0.0
C3739 C 0.59804 0.45073 0.73627 0.0
C3740 C 0.5839 0.48717 0.74913 0.0
C3741 C 0.59671 0.48752 0.76926 0.0
C3742 C 0.60988 0.46877 0.7729 0.0
C3743 C 0.61054 0.45058 0.7566 0.0
H3744 H 0.93428 0.74632 0.89519 0.0
H3745 H 0.98021 0.69977 0.92146 0.0
H3746 H 0.96482 0.77514 0.89133 0.0
H3747 H 0.0116 0.72966 0.91776 0.0
H3748 H 0.06193 0.78973 0.88422 0.0
H3749 H 0.03546 0.75577 0.88968 0.0
H3750 H 0.9873 0.7998 0.91793 0.0
H3751 H 0.01305 0.833 0.9123 0.0
C3752 C 0.95094 0.74211 0.90035 0.0
C3753 C 0.95438 0.72054 0.90913 0.0
C3754 C 0.96865 0.75893 0.89814 0.0
C3755 C 0.99083 0.75522 0.90469 0.0
C3756 C 0.99475 0.73332 0.91264 0.0
C3757 C 0.97672 0.71618 0.91488 0.0
C3758 C 0.04585 0.79202 0.89198 0.0
C3759 C 0.03968 0.81431 0.89758 0.0
C3760 C 0.03061 0.77253 0.89509 0.0
C3761 C 0.00887 0.77489 0.90386 0.0
C3762 C 1.00351 0.7971 0.9106 0.0
C3763 C 0.01847 0.8163 0.90745 0.0
H3764 H 0.92653 0.2641 0.64356 0.0
H3765 H 0.97887 0.31841 0.63674 0.0
H3766 H 0.95441 0.23697 0.64942 0.0
H3767 H 0.00733 0.29067 0.64201 0.0
H3768 H 0.05217 0.24125 0.67623 0.0
H3769 H 0.02454 0.26831 0.66847 0.0
H3770 H 0.98182 0.21425 0.63489 0.0
H3771 H 0.00971 0.18675 0.6432 0.0
C3772 C 0.94409 0.27037 0.64306 0.0
C3773 C 0.95019 0.29378 0.63966 0.0
C3774 C 0.96027 0.2545 0.64628 0.0
C3775 C 0.98345 0.26119 0.64622 0.0
C3776 C 0.98972 0.28462 0.64252 0.0
C3777 C 0.97336 0.30066 0.63928 0.0
C3778 C 0.03685 0.2349 0.66727 0.0
C3779 C 0.03334 0.2115 0.66053 0.0
C3780 C 0.02095 0.25071 0.66255 0.0
C3781 C 1.00071 0.24393 0.6508 0.0
C3782 C 0.99699 0.22039 0.64419 0.0
C3783 C 0.01303 0.20445 0.64897 0.0
H3784 H 0.45078 0.21448 0.36611 0.0
H3785 H 0.47158 0.20329 0.43465 0.0
H3786 H 0.4841 0.24076 0.36133 0.0
H3787 H 0.50505 0.22991 0.43008 0.0
H3788 H 0.53562 0.3058 0.42253 0.0
H3789 H 0.51008 0.2718 0.42682 0.0
H3790 H 0.52583 0.24785 0.35938 0.0
H3791 H 0.55182 0.2822 0.35524 0.0
C3792 C 0.46294 0.21705 0.37995 0.0
C3793 C 0.4587 0.20637 0.40062 0.0
C3794 C 0.4821 0.23221 0.37722 0.0
C3795 C 0.49743 0.23769 0.3953 0.0
C3796 C 0.49364 0.22626 0.41576 0.0
C3797 C 0.47461 0.21072 0.41834 0.0
C3798 C 0.53408 0.29302 0.40877 0.0
C3799 C 0.5459 0.29673 0.38857 0.0
C3800 C 0.51942 0.27339 0.41128 0.0
C3801 C 0.51568 0.25689 0.39348 0.0
C3802 C 0.52814 0.26018 0.37346 0.0
C3803 C 0.54324 0.27975 0.37112 0.0
H3804 H 0.5325 0.7219 0.19689 0.0
H3805 H 0.52176 0.6953 0.12841 0.0
H3806 H 0.5074 0.75192 0.18993 0.0
H3807 H 0.49631 0.72565 0.12119 0.0
H3808 H 0.471 0.79889 0.11094 0.0
H3809 H 0.49654 0.76831 0.1171 0.0
H3810 H 0.46873 0.75864 0.18351 0.0
H3811 H 0.44373 0.78887 0.17733 0.0
C3812 C 0.52418 0.72207 0.18048 0.0
C3813 C 0.52865 0.70572 0.16347 0.0
C3814 C 0.50984 0.73946 0.17638 0.0
C3815 C 0.4997 0.74148 0.15493 0.0
C3816 C 0.50388 0.72486 0.13788 0.0
C3817 C 0.51809 0.70713 0.14213 0.0
C3818 C 0.47089 0.79061 0.12705 0.0
C3819 C 0.45565 0.79667 0.14384 0.0
C3820 C 0.48522 0.77277 0.13046 0.0
C3821 C 0.48478 0.76075 0.15084 0.0
C3822 C 0.4699 0.76747 0.16772 0.0
C3823 C 0.45555 0.78495 0.16421 0.0
H3824 H 0.88008 0.04694 0.77665 0.0
H3825 H 0.91092 0.10275 0.73941 0.0
H3826 H 0.88344 0.02098 0.74436 0.0
H3827 H 0.91426 0.07628 0.70625 0.0
H3828 H 0.94198 0.00766 0.66973 0.0
H3829 H 0.93596 0.04085 0.69523 0.0
H3830 H 0.86801 0.01289 0.70657 0.0
H3831 H 0.87424 0.97999 0.68187 0.0
C3832 C 0.88725 0.05378 0.7613 0.0
C3833 C 0.89504 0.07698 0.76058 0.0
C3834 C 0.88912 0.03884 0.74265 0.0
C3835 C 0.89899 0.04645 0.7225 0.0
C3836 C 0.90657 0.06983 0.7215 0.0
C3837 C 0.90442 0.08504 0.74034 0.0
C3838 C 0.92557 0.00912 0.67712 0.0
C3839 C 0.90857 0.99125 0.67382 0.0
C3840 C 0.92211 0.02807 0.69178 0.0
C3841 C 0.90161 0.02939 0.70333 0.0
C3842 C 0.88416 0.01231 0.6984 0.0
C3843 C 0.88766 0.9935 0.68406 0.0
H3844 H 0.74336 0.12349 0.44482 0.0
H3845 H 0.80238 0.1185 0.48711 0.0
H3846 H 0.72029 0.12573 0.47803 0.0
H3847 H 0.77865 0.12071 0.52107 0.0
H3848 H 0.72205 0.15298 0.5718 0.0
H3849 H 0.75152 0.14893 0.54306 0.0
H3850 H 0.70799 0.09748 0.50681 0.0
H3851 H 0.67912 0.10153 0.53489 0.0
C3852 C 0.75154 0.1228 0.46125 0.0
C3853 C 0.77487 0.12056 0.46307 0.0
C3854 C 0.73815 0.12404 0.48043 0.0
C3855 C 0.74745 0.12314 0.50235 0.0
C3856 C 0.77091 0.12145 0.50445 0.0
C3857 C 0.78447 0.12002 0.485 0.0
C3858 C 0.71916 0.14034 0.55806 0.0
C3859 C 0.69814 0.12767 0.55564 0.0
C3860 C 0.73598 0.13807 0.54152 0.0
C3861 C 0.73199 0.12317 0.52231 0.0
C3862 C 0.71158 0.10945 0.52103 0.0
C3863 C 0.69501 0.1117 0.5373 0.0
H3864 H 0.61207 0.03871 0.19196 0.0
H3865 H 0.68216 0.03477 0.17662 0.0
H3866 H 0.61401 0.00716 0.21785 0.0
H3867 H 0.6844 1.00331 0.20267 0.0
H3868 H 0.67996 0.94055 0.24833 0.0
H3869 H 0.67422 0.96406 0.21516 0.0
H3870 H 0.6306 1.00503 0.25458 0.0
H3871 H 0.63609 0.98185 0.28694 0.0
C3872 C 0.62769 0.03048 0.19348 0.0
C3873 C 0.64681 0.03889 0.18183 0.0
C3874 C 0.62897 0.01259 0.20864 0.0
C3875 C 0.64948 1.00265 0.21274 0.0
C3876 C 0.66826 0.01023 0.19995 0.0
C3877 C 0.66698 0.02825 0.1849 0.0
C3878 C 0.66887 0.95433 0.24968 0.0
C3879 C 0.6586 0.95926 0.27043 0.0
C3880 C 0.66567 0.96797 0.23072 0.0
C3881 C 0.65183 0.98658 0.23196 0.0
C3882 C 0.64106 0.99078 0.25257 0.0
C3883 C 0.64442 0.97747 0.27136 0.0
H3884 H 0.71234 0.88423 0.96175 0.0
H3885 H 0.65291 0.86875 1.00116 0.0
H3886 H 0.73573 0.88437 0.99556 0.0
H3887 H 0.67689 0.86874 0.03573 0.0
H3888 H 0.74299 0.84211 0.07831 0.0
H3889 H 0.71154 0.8442 0.05094 0.0
H3890 H 0.73998 0.91034 0.03118 0.0
H3891 H 0.77102 0.90814 0.05795 0.0
C3892 C 0.70421 0.88091 0.97773 0.0
C3893 C 0.68071 0.87659 0.97873 0.0
C3894 C 0.71768 0.88108 0.99719 0.0
C3895 C 0.7082 0.87673 0.01839 0.0
C3896 C 0.68466 0.87218 0.0196 0.0
C3897 C 0.67095 0.87238 0.99991 0.0
C3898 C 0.74194 0.85741 0.0687 0.0
C3899 C 0.75946 0.87493 0.07016 0.0
C3900 C 0.72402 0.85859 0.053 0.0
C3901 C 0.72349 0.8773 0.03867 0.0
C3902 C 0.74004 0.89558 0.04173 0.0
C3903 C 0.75779 0.89435 0.05716 0.0
H3904 H 0.30301 0.60956 0.98825 0.0
H3905 H 0.25284 0.64111 0.94904 0.0
H3906 H 0.27893 0.61215 0.02196 0.0
H3907 H 0.22944 0.64362 0.98202 0.0
H3908 H 0.17989 0.61196 0.02949 0.0
H3909 H 0.20952 0.60905 1.00234 0.0
H3910 H 0.25705 0.64489 0.04927 0.0
H3911 H 0.22665 0.64814 0.07721 0.0
C3912 C 0.28711 0.61727 0.98685 0.0
C3913 C 0.27978 0.62478 0.96577 0.0
C3914 C 0.27339 0.61883 0.00614 0.0
C3915 C 0.25217 0.6279 1.0046 0.0
C3916 C 0.24552 0.63628 0.98377 0.0
C3917 C 0.25903 0.63476 0.96476 0.0
C3918 C 0.19661 0.61918 0.03439 0.0
C3919 C 0.20064 0.63076 0.05554 0.0
C3920 C 0.21368 0.61741 0.01868 0.0
C3921 C 0.23558 0.62703 0.02344 0.0
C3922 C 0.24028 0.63735 0.04511 0.0
C3923 C 0.22289 0.63924 0.06107 0.0
H3924 H 0.11832 0.55878 0.71379 0.0
H3925 H 0.16504 0.52498 0.67165 0.0
H3926 H 0.12075 0.52989 0.74193 0.0
H3927 H 0.16813 0.49578 0.70058 0.0
H3928 H 0.15919 0.43968 0.75799 0.0
H3929 H 0.15287 0.46324 0.72477 0.0
H3930 H 0.1468 0.52201 0.7697 0.0
H3931 H 0.15246 0.49897 0.80196 0.0
C3932 C 0.1289 0.54486 0.71028 0.0
C3933 C 0.14126 0.5444 0.6901 0.0
C3934 C 0.13059 0.52825 0.72676 0.0
C3935 C 0.14512 0.51039 0.72425 0.0
C3936 C 0.15671 0.50908 0.70344 0.0
C3937 C 0.15484 0.52583 0.68665 0.0
C3938 C 0.15608 0.45753 0.76072 0.0
C3939 C 0.1562 0.4671 0.78305 0.0
C3940 C 0.1527 0.47122 0.74156 0.0
C3941 C 0.149 0.49484 0.74411 0.0
C3942 C 0.14899 0.50401 0.76651 0.0
C3943 C 0.15245 0.49059 0.78532 0.0
H3944 H 0.25236 0.36516 0.58375 0.0
H3945 H 0.29467 0.39922 0.53461 0.0
H3946 H 0.21965 0.36613 0.55754 0.0
H3947 H 0.26264 0.40001 0.50888 0.0
H3948 H 0.21643 0.36027 0.45762 0.0
H3949 H 0.2424 0.36281 0.48949 0.0
H3950 H 0.19403 0.39571 0.53047 0.0
H3951 H 0.1673 0.39334 0.49776 0.0
C3952 C 0.25456 0.37359 0.56782 0.0
C3953 C 0.27626 0.38215 0.56138 0.0
C3954 C 0.23584 0.37403 0.55272 0.0
C3955 C 0.23852 0.38293 0.53091 0.0
C3956 C 0.25989 0.39283 0.52536 0.0
C3957 C 0.27832 0.39246 0.54026 0.0
C3958 C 0.21098 0.36807 0.4733 0.0
C3959 C 0.18963 0.3769 0.47473 0.0
C3960 C 0.22606 0.36949 0.49172 0.0
C3961 C 0.22056 0.37969 0.51258 0.0
C3962 C 0.19886 0.38774 0.51464 0.0
C3963 C 0.18357 0.38645 0.49587 0.0
H3964 H 0.43319 0.58798 0.24827 0.0
H3965 H 0.36289 0.56859 0.25789 0.0
H3966 H 0.43393 0.55981 0.21664 0.0
H3967 H 0.36329 0.54068 0.22616 0.0
H3968 H 0.38302 0.47039 0.19988 0.0
H3969 H 0.37891 0.50452 0.22314 0.0
H3970 H 0.42234 0.54389 0.17854 0.0
H3971 H 0.42676 0.50892 0.155 0.0
C3972 C 0.41765 0.57839 0.24291 0.0
C3973 C 0.39785 0.58089 0.25516 0.0
C3974 C 0.41806 0.56213 0.22483 0.0
C3975 C 0.39874 0.54765 0.21884 0.0
C3976 C 0.3786 0.55123 0.23036 0.0
C3977 C 0.37821 0.56752 0.24833 0.0
C3978 C 0.39153 0.48634 0.19471 0.0
C3979 C 0.40528 0.4868 0.17549 0.0
C3980 C 0.38899 0.5061 0.20807 0.0
C3981 C 0.40015 0.52723 0.20283 0.0
C3982 C 0.41351 0.52795 0.1832 0.0
C3983 C 0.41591 0.50797 0.16956 0.0
loop_
_geom_bond_atom_site_label_1
_geom_bond_atom_site_label_2
_geom_bond_distance
_geom_bond_site_symmetry_2
_ccdc_geom_bond_type
C0 C1 1.351 . S
C0 N3 1.368 . S
C0 H5 0.931 . S
C1 C0 1.351 . S
C1 N2 1.373 . S
C1 H29 0.930 . S
N2 C1 1.373 . S
N2 C4 1.340 . S
N3 C0 1.368 . S
N3 C4 1.321 . S
N3 Co6 2.135 . S
C4 N2 1.340 . S
C4 N3 1.321 . S
C4 H28 0.930 . S
H5 C0 0.931 . S
Co6 N3 2.135 . S
Co6 N9 2.121 . S
Co6 O14 2.055 . S
Co6 O17 2.039 . S
Co6 N20 2.140 . S
C7 O8 1.227 . S
C7 O17 1.265 . S
O8 C7 1.227 . S
N9 Co6 2.121 . S
N9 C11 1.375 . S
N9 C12 1.313 . S
C10 C11 1.338 . S
C10 N13 1.377 . S
C10 H30 0.930 . S
C11 N9 1.375 . S
C11 C10 1.338 . S
C11 H15 0.931 . S
C12 N9 1.313 . S
C12 N13 1.344 . S
C12 H16 0.930 . S
N13 C10 1.377 . S
N13 C12 1.344 . S
O14 Co6 2.055 . S
O14 C18 1.253 . S
H15 C11 0.931 . S
H16 C12 0.930 . S
O17 Co6 2.039 . S
O17 C7 1.265 . S
C18 O14 1.253 . S
C18 O19 1.227 . S
O19 C18 1.227 . S
N20 Co6 2.140 . S
N20 C23 1.346 . S
N20 C24 1.345 . S
C21 C22 1.387 . S
C21 C25 1.391 . S
C22 C21 1.387 . S
C22 C23 1.369 . S
C22 H31 0.929 . S
C23 N20 1.346 . S
C23 C22 1.369 . S
C23 H26 0.928 . S
C24 N20 1.345 . S
C24 C25 1.371 . S
C24 H27 0.931 . S
C25 C21 1.391 . S
C25 C24 1.371 . S
C25 H32 0.930 . S
H26 C23 0.928 . S
H27 C24 0.931 . S
H28 C4 0.930 . S
H29 C1 0.930 . S
H30 C10 0.930 . S
H31 C22 0.929 . S
H32 C25 0.930 . S
C33 C34 1.351 . S
C33 N36 1.368 . S
C33 H38 0.931 . S
C34 C33 1.351 . S
C34 N35 1.373 . S
C34 H62 0.930 . S
N35 C34 1.373 . S
N35 C37 1.340 . S
N36 C33 1.368 . S
N36 C37 1.321 . S
N36 Co39 2.135 . S
C37 N35 1.340 . S
C37 N36 1.321 . S
C37 H61 0.930 . S
H38 C33 0.931 . S
Co39 N36 2.135 . S
Co39 N42 2.121 . S
Co39 O47 2.055 . S
Co39 O50 2.039 . S
Co39 N53 2.140 . S
C40 O41 1.227 . S
C40 O50 1.265 . S
O41 C40 1.227 . S
N42 Co39 2.121 . S
N42 C44 1.375 . S
N42 C45 1.313 . S
C43 C44 1.338 . S
C43 N46 1.377 . S
C43 H63 0.930 . S
C44 N42 1.375 . S
C44 C43 1.338 . S
C44 H48 0.931 . S
C45 N42 1.313 . S
C45 N46 1.344 . S
C45 H49 0.930 . S
N46 C43 1.377 . S
N46 C45 1.344 . S
O47 Co39 2.055 . S
O47 C51 1.253 . S
H48 C44 0.931 . S
H49 C45 0.930 . S
O50 Co39 2.039 . S
O50 C40 1.265 . S
C51 O47 1.253 . S
C51 O52 1.227 . S
O52 C51 1.227 . S
N53 Co39 2.140 . S
N53 C56 1.346 . S
N53 C57 1.345 . S
C54 C55 1.387 . S
C54 C58 1.391 . S
C55 C54 1.387 . S
C55 C56 1.369 . S
C55 H64 0.929 . S
C56 N53 1.346 . S
C56 C55 1.369 . S
C56 H59 0.928 . S
C57 N53 1.345 . S
C57 C58 1.371 . S
C57 H60 0.931 . S
C58 C54 1.391 . S
C58 C57 1.371 . S
C58 H65 0.930 . S
H59 C56 0.928 . S
H60 C57 0.931 . S
H61 C37 0.930 . S
H62 C34 0.930 . S
H63 C43 0.930 . S
H64 C55 0.929 . S
H65 C58 0.930 . S
C66 C67 1.351 . S
C66 N69 1.368 . S
C66 H71 0.931 . S
C67 C66 1.351 . S
C67 N68 1.373 . S
C67 H95 0.930 . S
N68 C67 1.373 . S
N68 C70 1.340 . S
N69 C66 1.368 . S
N69 C70 1.321 . S
N69 Co72 2.135 . S
C70 N68 1.340 . S
C70 N69 1.321 . S
C70 H94 0.930 . S
H71 C66 0.931 . S
Co72 N69 2.135 . S
Co72 N75 2.121 . S
Co72 O80 2.055 . S
Co72 O83 2.039 . S
Co72 N86 2.140 . S
C73 O74 1.227 . S
C73 O83 1.265 . S
O74 C73 1.227 . S
N75 Co72 2.121 . S
N75 C77 1.375 . S
N75 C78 1.313 . S
C76 C77 1.338 . S
C76 N79 1.377 . S
C76 H96 0.930 . S
C77 N75 1.375 . S
C77 C76 1.338 . S
C77 H81 0.931 . S
C78 N75 1.313 . S
C78 N79 1.344 . S
C78 H82 0.930 . S
N79 C76 1.377 . S
N79 C78 1.344 . S
O80 Co72 2.055 . S
O80 C84 1.253 . S
H81 C77 0.931 . S
H82 C78 0.930 . S
O83 Co72 2.039 . S
O83 C73 1.265 . S
C84 O80 1.253 . S
C84 O85 1.227 . S
O85 C84 1.227 . S
N86 Co72 2.140 . S
N86 C89 1.346 . S
N86 C90 1.345 . S
C87 C88 1.387 . S
C87 C91 1.391 . S
C88 C87 1.387 . S
C88 C89 1.369 . S
C88 H97 0.929 . S
C89 N86 1.346 . S
C89 C88 1.369 . S
C89 H92 0.928 . S
C90 N86 1.345 . S
C90 C91 1.371 . S
C90 H93 0.931 . S
C91 C87 1.391 . S
C91 C90 1.371 . S
C91 H98 0.930 . S
H92 C89 0.928 . S
H93 C90 0.931 . S
H94 C70 0.930 . S
H95 C67 0.930 . S
H96 C76 0.930 . S
H97 C88 0.929 . S
H98 C91 0.930 . S
C99 C100 1.351 . S
C99 N102 1.368 . S
C99 H104 0.931 . S
C100 C99 1.351 . S
C100 N101 1.373 . S
C100 H128 0.930 . S
N101 C100 1.373 . S
N101 C103 1.340 . S
N102 C99 1.368 . S
N102 C103 1.321 . S
N102 Co105 2.135 . S
C103 N101 1.340 . S
C103 N102 1.321 . S
C103 H127 0.930 . S
H104 C99 0.931 . S
Co105 N102 2.135 . S
Co105 N108 2.121 . S
Co105 O113 2.055 . S
Co105 O116 2.039 . S
Co105 N119 2.140 . S
C106 O107 1.227 . S
C106 O116 1.265 . S
O107 C106 1.227 . S
N108 Co105 2.121 . S
N108 C110 1.375 . S
N108 C111 1.313 . S
C109 C110 1.338 . S
C109 N112 1.377 . S
C109 H129 0.930 . S
C110 N108 1.375 . S
C110 C109 1.338 . S
C110 H114 0.931 . S
C111 N108 1.313 . S
C111 N112 1.344 . S
C111 H115 0.930 . S
N112 C109 1.377 . S
N112 C111 1.344 . S
O113 Co105 2.055 . S
O113 C117 1.253 . S
H114 C110 0.931 . S
H115 C111 0.930 . S
O116 Co105 2.039 . S
O116 C106 1.265 . S
C117 O113 1.253 . S
C117 O118 1.227 . S
O118 C117 1.227 . S
N119 Co105 2.140 . S
N119 C122 1.346 . S
N119 C123 1.345 . S
C120 C121 1.387 . S
C120 C124 1.391 . S
C121 C120 1.387 . S
C121 C122 1.369 . S
C121 H130 0.929 . S
C122 N119 1.346 . S
C122 C121 1.369 . S
C122 H125 0.928 . S
C123 N119 1.345 . S
C123 C124 1.371 . S
C123 H126 0.931 . S
C124 C120 1.391 . S
C124 C123 1.371 . S
C124 H131 0.930 . S
H125 C122 0.928 . S
H126 C123 0.931 . S
H127 C103 0.930 . S
H128 C100 0.930 . S
H129 C109 0.930 . S
H130 C121 0.929 . S
H131 C124 0.930 . S
C132 C133 1.351 . S
C132 N135 1.368 . S
C132 H137 0.931 . S
C133 C132 1.351 . S
C133 N134 1.373 . S
C133 H161 0.930 . S
N134 C133 1.373 . S
N134 C136 1.340 . S
N135 C132 1.368 . S
N135 C136 1.321 . S
N135 Co138 2.135 . S
C136 N134 1.340 . S
C136 N135 1.321 . S
C136 H160 0.930 . S
H137 C132 0.931 . S
Co138 N135 2.135 . S
Co138 N141 2.121 . S
Co138 O146 2.055 . S
Co138 O149 2.039 . S
Co138 N152 2.140 . S
C139 O140 1.227 . S
C139 O149 1.265 . S
O140 C139 1.227 . S
N141 Co138 2.121 . S
N141 C143 1.375 . S
N141 C144 1.313 . S
C142 C143 1.338 . S
C142 N145 1.377 . S
C142 H162 0.930 . S
C143 N141 1.375 . S
C143 C142 1.338 . S
C143 H147 0.931 . S
C144 N141 1.313 . S
C144 N145 1.344 . S
C144 H148 0.930 . S
N145 C142 1.377 . S
N145 C144 1.344 . S
O146 Co138 2.055 . S
O146 C150 1.253 . S
H147 C143 0.931 . S
H148 C144 0.930 . S
O149 Co138 2.039 . S
O149 C139 1.265 . S
C150 O146 1.253 . S
C150 O151 1.227 . S
O151 C150 1.227 . S
N152 Co138 2.140 . S
N152 C155 1.346 . S
N152 C156 1.345 . S
C153 C154 1.387 . S
C153 C157 1.391 . S
C154 C153 1.387 . S
C154 C155 1.369 . S
C154 H163 0.929 . S
C155 N152 1.346 . S
C155 C154 1.369 . S
C155 H158 0.928 . S
C156 N152 1.345 . S
C156 C157 1.371 . S
C156 H159 0.931 . S
C157 C153 1.391 . S
C157 C156 1.371 . S
C157 H164 0.930 . S
H158 C155 0.928 . S
H159 C156 0.931 . S
H160 C136 0.930 . S
H161 C133 0.930 . S
H162 C142 0.930 . S
H163 C154 0.929 . S
H164 C157 0.930 . S
C165 C166 1.351 . S
C165 N168 1.368 . S
C165 H170 0.931 . S
C166 C165 1.351 . S
C166 N167 1.373 . S
C166 H194 0.930 . S
N167 C166 1.373 . S
N167 C169 1.340 . S
N168 C165 1.368 . S
N168 C169 1.321 . S
N168 Co171 2.135 . S
C169 N167 1.340 . S
C169 N168 1.321 . S
C169 H193 0.930 . S
H170 C165 0.931 . S
Co171 N168 2.135 . S
Co171 N174 2.121 . S
Co171 O179 2.055 . S
Co171 O182 2.039 . S
Co171 N185 2.140 . S
C172 O173 1.227 . S
C172 O182 1.265 . S
O173 C172 1.227 . S
N174 Co171 2.121 . S
N174 C176 1.375 . S
N174 C177 1.313 . S
C175 C176 1.338 . S
C175 N178 1.377 . S
C175 H195 0.930 . S
C176 N174 1.375 . S
C176 C175 1.338 . S
C176 H180 0.931 . S
C177 N174 1.313 . S
C177 N178 1.344 . S
C177 H181 0.930 . S
N178 C175 1.377 . S
N178 C177 1.344 . S
O179 Co171 2.055 . S
O179 C183 1.253 . S
H180 C176 0.931 . S
H181 C177 0.930 . S
O182 Co171 2.039 . S
O182 C172 1.265 . S
C183 O179 1.253 . S
C183 O184 1.227 . S
O184 C183 1.227 . S
N185 Co171 2.140 . S
N185 C188 1.346 . S
N185 C189 1.345 . S
C186 C187 1.387 . S
C186 C190 1.391 . S
C187 C186 1.387 . S
C187 C188 1.369 . S
C187 H196 0.929 . S
C188 N185 1.346 . S
C188 C187 1.369 . S
C188 H191 0.928 . S
C189 N185 1.345 . S
C189 C190 1.371 . S
C189 H192 0.931 . S
C190 C186 1.391 . S
C190 C189 1.371 . S
C190 H197 0.930 . S
H191 C188 0.928 . S
H192 C189 0.931 . S
H193 C169 0.930 . S
H194 C166 0.930 . S
H195 C175 0.930 . S
H196 C187 0.929 . S
H197 C190 0.930 . S
C198 C199 1.351 . S
C198 N201 1.368 . S
C198 H203 0.931 . S
C199 C198 1.351 . S
C199 N200 1.373 . S
C199 H227 0.930 . S
N200 C199 1.373 . S
N200 C202 1.340 . S
N201 C198 1.368 . S
N201 C202 1.321 . S
N201 Co204 2.135 . S
C202 N200 1.340 . S
C202 N201 1.321 . S
C202 H226 0.930 . S
H203 C198 0.931 . S
Co204 N201 2.135 . S
Co204 N207 2.121 . S
Co204 O212 2.055 . S
Co204 O215 2.039 . S
Co204 N218 2.140 . S
C205 O206 1.227 . S
C205 O215 1.265 . S
O206 C205 1.227 . S
N207 Co204 2.121 . S
N207 C209 1.375 . S
N207 C210 1.313 . S
C208 C209 1.338 . S
C208 N211 1.377 . S
C208 H228 0.930 . S
C209 N207 1.375 . S
C209 C208 1.338 . S
C209 H213 0.931 . S
C210 N207 1.313 . S
C210 N211 1.344 . S
C210 H214 0.930 . S
N211 C208 1.377 . S
N211 C210 1.344 . S
O212 Co204 2.055 . S
O212 C216 1.253 . S
H213 C209 0.931 . S
H214 C210 0.930 . S
O215 Co204 2.039 . S
O215 C205 1.265 . S
C216 O212 1.253 . S
C216 O217 1.227 . S
O217 C216 1.227 . S
N218 Co204 2.140 . S
N218 C221 1.346 . S
N218 C222 1.345 . S
C219 C220 1.387 . S
C219 C223 1.391 . S
C220 C219 1.387 . S
C220 C221 1.369 . S
C220 H229 0.929 . S
C221 N218 1.346 . S
C221 C220 1.369 . S
C221 H224 0.928 . S
C222 N218 1.345 . S
C222 C223 1.371 . S
C222 H225 0.931 . S
C223 C219 1.391 . S
C223 C222 1.371 . S
C223 H230 0.930 . S
H224 C221 0.928 . S
H225 C222 0.931 . S
H226 C202 0.930 . S
H227 C199 0.930 . S
H228 C208 0.930 . S
H229 C220 0.929 . S
H230 C223 0.930 . S
C231 C232 1.351 . S
C231 N234 1.368 . S
C231 H236 0.931 . S
C232 C231 1.351 . S
C232 N233 1.373 . S
C232 H260 0.930 . S
N233 C232 1.373 . S
N233 C235 1.340 . S
N234 C231 1.368 . S
N234 C235 1.321 . S
N234 Co237 2.135 . S
C235 N233 1.340 . S
C235 N234 1.321 . S
C235 H259 0.930 . S
H236 C231 0.931 . S
Co237 N234 2.135 . S
Co237 N240 2.121 . S
Co237 O245 2.055 . S
Co237 O248 2.039 . S
Co237 N251 2.140 . S
C238 O239 1.227 . S
C238 O248 1.265 . S
O239 C238 1.227 . S
N240 Co237 2.121 . S
N240 C242 1.375 . S
N240 C243 1.313 . S
C241 C242 1.338 . S
C241 N244 1.377 . S
C241 H261 0.930 . S
C242 N240 1.375 . S
C242 C241 1.338 . S
C242 H246 0.931 . S
C243 N240 1.313 . S
C243 N244 1.344 . S
C243 H247 0.930 . S
N244 C241 1.377 . S
N244 C243 1.344 . S
O245 Co237 2.055 . S
O245 C249 1.253 . S
H246 C242 0.931 . S
H247 C243 0.930 . S
O248 Co237 2.039 . S
O248 C238 1.265 . S
C249 O245 1.253 . S
C249 O250 1.227 . S
O250 C249 1.227 . S
N251 Co237 2.140 . S
N251 C254 1.346 . S
N251 C255 1.345 . S
C252 C253 1.387 . S
C252 C256 1.391 . S
C253 C252 1.387 . S
C253 C254 1.369 . S
C253 H262 0.929 . S
C254 N251 1.346 . S
C254 C253 1.369 . S
C254 H257 0.928 . S
C255 N251 1.345 . S
C255 C256 1.371 . S
C255 H258 0.931 . S
C256 C252 1.391 . S
C256 C255 1.371 . S
C256 H263 0.930 . S
H257 C254 0.928 . S
H258 C255 0.931 . S
H259 C235 0.930 . S
H260 C232 0.930 . S
H261 C241 0.930 . S
H262 C253 0.929 . S
H263 C256 0.930 . S
C264 C265 1.351 . S
C264 N267 1.368 . S
C264 H269 0.931 . S
C265 C264 1.351 . S
C265 N266 1.373 . S
C265 H293 0.930 . S
N266 C265 1.373 . S
N266 C268 1.340 . S
N267 C264 1.368 . S
N267 C268 1.321 . S
N267 Co270 2.135 . S
C268 N266 1.340 . S
C268 N267 1.321 . S
C268 H292 0.930 . S
H269 C264 0.931 . S
Co270 N267 2.135 . S
Co270 N273 2.121 . S
Co270 O278 2.055 . S
Co270 O281 2.039 . S
Co270 N284 2.140 . S
C271 O272 1.227 . S
C271 O281 1.265 . S
O272 C271 1.227 . S
N273 Co270 2.121 . S
N273 C275 1.375 . S
N273 C276 1.313 . S
C274 C275 1.338 . S
C274 N277 1.377 . S
C274 H294 0.930 . S
C275 N273 1.375 . S
C275 C274 1.338 . S
C275 H279 0.931 . S
C276 N273 1.313 . S
C276 N277 1.344 . S
C276 H280 0.930 . S
N277 C274 1.377 . S
N277 C276 1.344 . S
O278 Co270 2.055 . S
O278 C282 1.253 . S
H279 C275 0.931 . S
H280 C276 0.930 . S
O281 Co270 2.039 . S
O281 C271 1.265 . S
C282 O278 1.253 . S
C282 O283 1.227 . S
O283 C282 1.227 . S
N284 Co270 2.140 . S
N284 C287 1.346 . S
N284 C288 1.345 . S
C285 C286 1.387 . S
C285 C289 1.391 . S
C286 C285 1.387 . S
C286 C287 1.369 . S
C286 H295 0.929 . S
C287 N284 1.346 . S
C287 C286 1.369 . S
C287 H290 0.928 . S
C288 N284 1.345 . S
C288 C289 1.371 . S
C288 H291 0.931 . S
C289 C285 1.391 . S
C289 C288 1.371 . S
C289 H296 0.930 . S
H290 C287 0.928 . S
H291 C288 0.931 . S
H292 C268 0.930 . S
H293 C265 0.930 . S
H294 C274 0.930 . S
H295 C286 0.929 . S
H296 C289 0.930 . S
C297 C298 1.351 . S
C297 N300 1.368 . S
C297 H302 0.931 . S
C298 C297 1.351 . S
C298 N299 1.373 . S
C298 H326 0.930 . S
N299 C298 1.373 . S
N299 C301 1.340 . S
N300 C297 1.368 . S
N300 C301 1.321 . S
N300 Co303 2.135 . S
C301 N299 1.340 . S
C301 N300 1.321 . S
C301 H325 0.930 . S
H302 C297 0.931 . S
Co303 N300 2.135 . S
Co303 N306 2.121 . S
Co303 O311 2.055 . S
Co303 O314 2.039 . S
Co303 N317 2.140 . S
C304 O305 1.227 . S
C304 O314 1.265 . S
O305 C304 1.227 . S
N306 Co303 2.121 . S
N306 C308 1.375 . S
N306 C309 1.313 . S
C307 C308 1.338 . S
C307 N310 1.377 . S
C307 H327 0.930 . S
C308 N306 1.375 . S
C308 C307 1.338 . S
C308 H312 0.931 . S
C309 N306 1.313 . S
C309 N310 1.344 . S
C309 H313 0.930 . S
N310 C307 1.377 . S
N310 C309 1.344 . S
O311 Co303 2.055 . S
O311 C315 1.253 . S
H312 C308 0.931 . S
H313 C309 0.930 . S
O314 Co303 2.039 . S
O314 C304 1.265 . S
C315 O311 1.253 . S
C315 O316 1.227 . S
O316 C315 1.227 . S
N317 Co303 2.140 . S
N317 C320 1.346 . S
N317 C321 1.345 . S
C318 C319 1.387 . S
C318 C322 1.391 . S
C319 C318 1.387 . S
C319 C320 1.369 . S
C319 H328 0.929 . S
C320 N317 1.346 . S
C320 C319 1.369 . S
C320 H323 0.928 . S
C321 N317 1.345 . S
C321 C322 1.371 . S
C321 H324 0.931 . S
C322 C318 1.391 . S
C322 C321 1.371 . S
C322 H329 0.930 . S
H323 C320 0.928 . S
H324 C321 0.931 . S
H325 C301 0.930 . S
H326 C298 0.930 . S
H327 C307 0.930 . S
H328 C319 0.929 . S
H329 C322 0.930 . S
C330 C331 1.351 . S
C330 N333 1.368 . S
C330 H335 0.931 . S
C331 C330 1.351 . S
C331 N332 1.373 . S
C331 H359 0.930 . S
N332 C331 1.373 . S
N332 C334 1.340 . S
N333 C330 1.368 . S
N333 C334 1.321 . S
N333 Co336 2.135 . S
C334 N332 1.340 . S
C334 N333 1.321 . S
C334 H358 0.930 . S
H335 C330 0.931 . S
Co336 N333 2.135 . S
Co336 N339 2.121 . S
Co336 O344 2.055 . S
Co336 O347 2.039 . S
Co336 N350 2.140 . S
C337 O338 1.227 . S
C337 O347 1.265 . S
O338 C337 1.227 . S
N339 Co336 2.121 . S
N339 C341 1.375 . S
N339 C342 1.313 . S
C340 C341 1.338 . S
C340 N343 1.377 . S
C340 H360 0.930 . S
C341 N339 1.375 . S
C341 C340 1.338 . S
C341 H345 0.931 . S
C342 N339 1.313 . S
C342 N343 1.344 . S
C342 H346 0.930 . S
N343 C340 1.377 . S
N343 C342 1.344 . S
O344 Co336 2.055 . S
O344 C348 1.253 . S
H345 C341 0.931 . S
H346 C342 0.930 . S
O347 Co336 2.039 . S
O347 C337 1.265 . S
C348 O344 1.253 . S
C348 O349 1.227 . S
O349 C348 1.227 . S
N350 Co336 2.140 . S
N350 C353 1.346 . S
N350 C354 1.345 . S
C351 C352 1.387 . S
C351 C355 1.391 . S
C352 C351 1.387 . S
C352 C353 1.369 . S
C352 H361 0.929 . S
C353 N350 1.346 . S
C353 C352 1.369 . S
C353 H356 0.928 . S
C354 N350 1.345 . S
C354 C355 1.371 . S
C354 H357 0.931 . S
C355 C351 1.391 . S
C355 C354 1.371 . S
C355 H362 0.930 . S
H356 C353 0.928 . S
H357 C354 0.931 . S
H358 C334 0.930 . S
H359 C331 0.930 . S
H360 C340 0.930 . S
H361 C352 0.929 . S
H362 C355 0.930 . S
C363 C364 1.351 . S
C363 N366 1.368 . S
C363 H368 0.931 . S
C364 C363 1.351 . S
C364 N365 1.373 . S
C364 H392 0.930 . S
N365 C364 1.373 . S
N365 C367 1.340 . S
N366 C363 1.368 . S
N366 C367 1.321 . S
N366 Co369 2.135 . S
C367 N365 1.340 . S
C367 N366 1.321 . S
C367 H391 0.930 . S
H368 C363 0.931 . S
Co369 N366 2.135 . S
Co369 N372 2.121 . S
Co369 O377 2.055 . S
Co369 O380 2.039 . S
Co369 N383 2.140 . S
C370 O371 1.227 . S
C370 O380 1.265 . S
O371 C370 1.227 . S
N372 Co369 2.121 . S
N372 C374 1.375 . S
N372 C375 1.313 . S
C373 C374 1.338 . S
C373 N376 1.377 . S
C373 H393 0.930 . S
C374 N372 1.375 . S
C374 C373 1.338 . S
C374 H378 0.931 . S
C375 N372 1.313 . S
C375 N376 1.344 . S
C375 H379 0.930 . S
N376 C373 1.377 . S
N376 C375 1.344 . S
O377 Co369 2.055 . S
O377 C381 1.253 . S
H378 C374 0.931 . S
H379 C375 0.930 . S
O380 Co369 2.039 . S
O380 C370 1.265 . S
C381 O377 1.253 . S
C381 O382 1.227 . S
O382 C381 1.227 . S
N383 Co369 2.140 . S
N383 C386 1.346 . S
N383 C387 1.345 . S
C384 C385 1.387 . S
C384 C388 1.391 . S
C385 C384 1.387 . S
C385 C386 1.369 . S
C385 H394 0.929 . S
C386 N383 1.346 . S
C386 C385 1.369 . S
C386 H389 0.928 . S
C387 N383 1.345 . S
C387 C388 1.371 . S
C387 H390 0.931 . S
C388 C384 1.391 . S
C388 C387 1.371 . S
C388 H395 0.930 . S
H389 C386 0.928 . S
H390 C387 0.931 . S
H391 C367 0.930 . S
H392 C364 0.930 . S
H393 C373 0.930 . S
H394 C385 0.929 . S
H395 C388 0.930 . S
C396 C397 1.351 . S
C396 N399 1.368 . S
C396 H401 0.931 . S
C397 C396 1.351 . S
C397 N398 1.373 . S
C397 H425 0.930 . S
N398 C397 1.373 . S
N398 C400 1.340 . S
N399 C396 1.368 . S
N399 C400 1.321 . S
N399 Co402 2.135 . S
C400 N398 1.340 . S
C400 N399 1.321 . S
C400 H424 0.930 . S
H401 C396 0.931 . S
Co402 N399 2.135 . S
Co402 N405 2.121 . S
Co402 O410 2.055 . S
Co402 O413 2.039 . S
Co402 N416 2.140 . S
C403 O404 1.227 . S
C403 O413 1.265 . S
O404 C403 1.227 . S
N405 Co402 2.121 . S
N405 C407 1.375 . S
N405 C408 1.313 . S
C406 C407 1.338 . S
C406 N409 1.377 . S
C406 H426 0.930 . S
C407 N405 1.375 . S
C407 C406 1.338 . S
C407 H411 0.931 . S
C408 N405 1.313 . S
C408 N409 1.344 . S
C408 H412 0.930 . S
N409 C406 1.377 . S
N409 C408 1.344 . S
O410 Co402 2.055 . S
O410 C414 1.253 . S
H411 C407 0.931 . S
H412 C408 0.930 . S
O413 Co402 2.039 . S
O413 C403 1.265 . S
C414 O410 1.253 . S
C414 O415 1.227 . S
O415 C414 1.227 . S
N416 Co402 2.140 . S
N416 C419 1.346 . S
N416 C420 1.345 . S
C417 C418 1.387 . S
C417 C421 1.391 . S
C418 C417 1.387 . S
C418 C419 1.369 . S
C418 H427 0.929 . S
C419 N416 1.346 . S
C419 C418 1.369 . S
C419 H422 0.928 . S
C420 N416 1.345 . S
C420 C421 1.371 . S
C420 H423 0.931 . S
C421 C417 1.391 . S
C421 C420 1.371 . S
C421 H428 0.930 . S
H422 C419 0.928 . S
H423 C420 0.931 . S
H424 C400 0.930 . S
H425 C397 0.930 . S
H426 C406 0.930 . S
H427 C418 0.929 . S
H428 C421 0.930 . S
C429 C430 1.351 . S
C429 N432 1.368 . S
C429 H434 0.931 . S
C430 C429 1.351 . S
C430 N431 1.373 . S
C430 H458 0.930 . S
N431 C430 1.373 . S
N431 C433 1.340 . S
N432 C429 1.368 . S
N432 C433 1.321 . S
N432 Co435 2.135 . S
C433 N431 1.340 . S
C433 N432 1.321 . S
C433 H457 0.930 . S
H434 C429 0.931 . S
Co435 N432 2.135 . S
Co435 N438 2.121 . S
Co435 O443 2.055 . S
Co435 O446 2.039 . S
Co435 N449 2.140 . S
C436 O437 1.227 . S
C436 O446 1.265 . S
O437 C436 1.227 . S
N438 Co435 2.121 . S
N438 C440 1.375 . S
N438 C441 1.313 . S
C439 C440 1.338 . S
C439 N442 1.377 . S
C439 H459 0.930 . S
C440 N438 1.375 . S
C440 C439 1.338 . S
C440 H444 0.931 . S
C441 N438 1.313 . S
C441 N442 1.344 . S
C441 H445 0.930 . S
N442 C439 1.377 . S
N442 C441 1.344 . S
O443 Co435 2.055 . S
O443 C447 1.253 . S
H444 C440 0.931 . S
H445 C441 0.930 . S
O446 Co435 2.039 . S
O446 C436 1.265 . S
C447 O443 1.253 . S
C447 O448 1.227 . S
O448 C447 1.227 . S
N449 Co435 2.140 . S
N449 C452 1.346 . S
N449 C453 1.345 . S
C450 C451 1.387 . S
C450 C454 1.391 . S
C451 C450 1.387 . S
C451 C452 1.369 . S
C451 H460 0.929 . S
C452 N449 1.346 . S
C452 C451 1.369 . S
C452 H455 0.928 . S
C453 N449 1.345 . S
C453 C454 1.371 . S
C453 H456 0.931 . S
C454 C450 1.391 . S
C454 C453 1.371 . S
C454 H461 0.930 . S
H455 C452 0.928 . S
H456 C453 0.931 . S
H457 C433 0.930 . S
H458 C430 0.930 . S
H459 C439 0.930 . S
H460 C451 0.929 . S
H461 C454 0.930 . S
C462 C463 1.351 . S
C462 N465 1.368 . S
C462 H467 0.931 . S
C463 C462 1.351 . S
C463 N464 1.373 . S
C463 H491 0.930 . S
N464 C463 1.373 . S
N464 C466 1.340 . S
N465 C462 1.368 . S
N465 C466 1.321 . S
N465 Co468 2.135 . S
C466 N464 1.340 . S
C466 N465 1.321 . S
C466 H490 0.930 . S
H467 C462 0.931 . S
Co468 N465 2.135 . S
Co468 N471 2.121 . S
Co468 O476 2.055 . S
Co468 O479 2.039 . S
Co468 N482 2.140 . S
C469 O470 1.227 . S
C469 O479 1.265 . S
O470 C469 1.227 . S
N471 Co468 2.121 . S
N471 C473 1.375 . S
N471 C474 1.313 . S
C472 C473 1.338 . S
C472 N475 1.377 . S
C472 H492 0.930 . S
C473 N471 1.375 . S
C473 C472 1.338 . S
C473 H477 0.931 . S
C474 N471 1.313 . S
C474 N475 1.344 . S
C474 H478 0.930 . S
N475 C472 1.377 . S
N475 C474 1.344 . S
O476 Co468 2.055 . S
O476 C480 1.253 . S
H477 C473 0.931 . S
H478 C474 0.930 . S
O479 Co468 2.039 . S
O479 C469 1.265 . S
C480 O476 1.253 . S
C480 O481 1.227 . S
O481 C480 1.227 . S
N482 Co468 2.140 . S
N482 C485 1.346 . S
N482 C486 1.345 . S
C483 C484 1.387 . S
C483 C487 1.391 . S
C484 C483 1.387 . S
C484 C485 1.369 . S
C484 H493 0.929 . S
C485 N482 1.346 . S
C485 C484 1.369 . S
C485 H488 0.928 . S
C486 N482 1.345 . S
C486 C487 1.371 . S
C486 H489 0.931 . S
C487 C483 1.391 . S
C487 C486 1.371 . S
C487 H494 0.930 . S
H488 C485 0.928 . S
H489 C486 0.931 . S
H490 C466 0.930 . S
H491 C463 0.930 . S
H492 C472 0.930 . S
H493 C484 0.929 . S
H494 C487 0.930 . S
C495 C496 1.351 . S
C495 N498 1.368 . S
C495 H500 0.931 . S
C496 C495 1.351 . S
C496 N497 1.373 . S
C496 H524 0.930 . S
N497 C496 1.373 . S
N497 C499 1.340 . S
N498 C495 1.368 . S
N498 C499 1.321 . S
N498 Co501 2.135 . S
C499 N497 1.340 . S
C499 N498 1.321 . S
C499 H523 0.930 . S
H500 C495 0.931 . S
Co501 N498 2.135 . S
Co501 N504 2.121 . S
Co501 O509 2.055 . S
Co501 O512 2.039 . S
Co501 N515 2.140 . S
C502 O503 1.227 . S
C502 O512 1.265 . S
O503 C502 1.227 . S
N504 Co501 2.121 . S
N504 C506 1.375 . S
N504 C507 1.313 . S
C505 C506 1.338 . S
C505 N508 1.377 . S
C505 H525 0.930 . S
C506 N504 1.375 . S
C506 C505 1.338 . S
C506 H510 0.931 . S
C507 N504 1.313 . S
C507 N508 1.344 . S
C507 H511 0.930 . S
N508 C505 1.377 . S
N508 C507 1.344 . S
O509 Co501 2.055 . S
O509 C513 1.253 . S
H510 C506 0.931 . S
H511 C507 0.930 . S
O512 Co501 2.039 . S
O512 C502 1.265 . S
C513 O509 1.253 . S
C513 O514 1.227 . S
O514 C513 1.227 . S
N515 Co501 2.140 . S
N515 C518 1.346 . S
N515 C519 1.345 . S
C516 C517 1.387 . S
C516 C520 1.391 . S
C517 C516 1.387 . S
C517 C518 1.369 . S
C517 H526 0.929 . S
C518 N515 1.346 . S
C518 C517 1.369 . S
C518 H521 0.928 . S
C519 N515 1.345 . S
C519 C520 1.371 . S
C519 H522 0.931 . S
C520 C516 1.391 . S
C520 C519 1.371 . S
C520 H527 0.930 . S
H521 C518 0.928 . S
H522 C519 0.931 . S
H523 C499 0.930 . S
H524 C496 0.930 . S
H525 C505 0.930 . S
H526 C517 0.929 . S
H527 C520 0.930 . S
C528 C529 1.351 . S
C528 N531 1.368 . S
C528 H533 0.931 . S
C529 C528 1.351 . S
C529 N530 1.373 . S
C529 H557 0.930 . S
N530 C529 1.373 . S
N530 C532 1.340 . S
N531 C528 1.368 . S
N531 C532 1.321 . S
N531 Co534 2.135 . S
C532 N530 1.340 . S
C532 N531 1.321 . S
C532 H556 0.930 . S
H533 C528 0.931 . S
Co534 N531 2.135 . S
Co534 N537 2.121 . S
Co534 O542 2.055 . S
Co534 O545 2.039 . S
Co534 N548 2.140 . S
C535 O536 1.227 . S
C535 O545 1.265 . S
O536 C535 1.227 . S
N537 Co534 2.121 . S
N537 C539 1.375 . S
N537 C540 1.313 . S
C538 C539 1.338 . S
C538 N541 1.377 . S
C538 H558 0.930 . S
C539 N537 1.375 . S
C539 C538 1.338 . S
C539 H543 0.931 . S
C540 N537 1.313 . S
C540 N541 1.344 . S
C540 H544 0.930 . S
N541 C538 1.377 . S
N541 C540 1.344 . S
O542 Co534 2.055 . S
O542 C546 1.253 . S
H543 C539 0.931 . S
H544 C540 0.930 . S
O545 Co534 2.039 . S
O545 C535 1.265 . S
C546 O542 1.253 . S
C546 O547 1.227 . S
O547 C546 1.227 . S
N548 Co534 2.140 . S
N548 C551 1.346 . S
N548 C552 1.345 . S
C549 C550 1.387 . S
C549 C553 1.391 . S
C550 C549 1.387 . S
C550 C551 1.369 . S
C550 H559 0.929 . S
C551 N548 1.346 . S
C551 C550 1.369 . S
C551 H554 0.928 . S
C552 N548 1.345 . S
C552 C553 1.371 . S
C552 H555 0.931 . S
C553 C549 1.391 . S
C553 C552 1.371 . S
C553 H560 0.930 . S
H554 C551 0.928 . S
H555 C552 0.931 . S
H556 C532 0.930 . S
H557 C529 0.930 . S
H558 C538 0.930 . S
H559 C550 0.929 . S
H560 C553 0.930 . S
C561 C562 1.351 . S
C561 N564 1.368 . S
C561 H566 0.931 . S
C562 C561 1.351 . S
C562 N563 1.373 . S
C562 H590 0.930 . S
N563 C562 1.373 . S
N563 C565 1.340 . S
N564 C561 1.368 . S
N564 C565 1.321 . S
N564 Co567 2.135 . S
C565 N563 1.340 . S
C565 N564 1.321 . S
C565 H589 0.930 . S
H566 C561 0.931 . S
Co567 N564 2.135 . S
Co567 N570 2.121 . S
Co567 O575 2.055 . S
Co567 O578 2.039 . S
Co567 N581 2.140 . S
C568 O569 1.227 . S
C568 O578 1.265 . S
O569 C568 1.227 . S
N570 Co567 2.121 . S
N570 C572 1.375 . S
N570 C573 1.313 . S
C571 C572 1.338 . S
C571 N574 1.377 . S
C571 H591 0.930 . S
C572 N570 1.375 . S
C572 C571 1.338 . S
C572 H576 0.931 . S
C573 N570 1.313 . S
C573 N574 1.344 . S
C573 H577 0.930 . S
N574 C571 1.377 . S
N574 C573 1.344 . S
O575 Co567 2.055 . S
O575 C579 1.253 . S
H576 C572 0.931 . S
H577 C573 0.930 . S
O578 Co567 2.039 . S
O578 C568 1.265 . S
C579 O575 1.253 . S
C579 O580 1.227 . S
O580 C579 1.227 . S
N581 Co567 2.140 . S
N581 C584 1.346 . S
N581 C585 1.345 . S
C582 C583 1.387 . S
C582 C586 1.391 . S
C583 C582 1.387 . S
C583 C584 1.369 . S
C583 H592 0.929 . S
C584 N581 1.346 . S
C584 C583 1.369 . S
C584 H587 0.928 . S
C585 N581 1.345 . S
C585 C586 1.371 . S
C585 H588 0.931 . S
C586 C582 1.391 . S
C586 C585 1.371 . S
C586 H593 0.930 . S
H587 C584 0.928 . S
H588 C585 0.931 . S
H589 C565 0.930 . S
H590 C562 0.930 . S
H591 C571 0.930 . S
H592 C583 0.929 . S
H593 C586 0.930 . S
C594 C595 1.351 . S
C594 N597 1.368 . S
C594 H599 0.931 . S
C595 C594 1.351 . S
C595 N596 1.373 . S
C595 H623 0.930 . S
N596 C595 1.373 . S
N596 C598 1.340 . S
N597 C594 1.368 . S
N597 C598 1.321 . S
N597 Co600 2.135 . S
C598 N596 1.340 . S
C598 N597 1.321 . S
C598 H622 0.930 . S
H599 C594 0.931 . S
Co600 N597 2.135 . S
Co600 N603 2.121 . S
Co600 O608 2.055 . S
Co600 O611 2.039 . S
Co600 N614 2.140 . S
C601 O602 1.227 . S
C601 O611 1.265 . S
O602 C601 1.227 . S
N603 Co600 2.121 . S
N603 C605 1.375 . S
N603 C606 1.313 . S
C604 C605 1.338 . S
C604 N607 1.377 . S
C604 H624 0.930 . S
C605 N603 1.375 . S
C605 C604 1.338 . S
C605 H609 0.931 . S
C606 N603 1.313 . S
C606 N607 1.344 . S
C606 H610 0.930 . S
N607 C604 1.377 . S
N607 C606 1.344 . S
O608 Co600 2.055 . S
O608 C612 1.253 . S
H609 C605 0.931 . S
H610 C606 0.930 . S
O611 Co600 2.039 . S
O611 C601 1.265 . S
C612 O608 1.253 . S
C612 O613 1.227 . S
O613 C612 1.227 . S
N614 Co600 2.140 . S
N614 C617 1.346 . S
N614 C618 1.345 . S
C615 C616 1.387 . S
C615 C619 1.391 . S
C616 C615 1.387 . S
C616 C617 1.369 . S
C616 H625 0.929 . S
C617 N614 1.346 . S
C617 C616 1.369 . S
C617 H620 0.928 . S
C618 N614 1.345 . S
C618 C619 1.371 . S
C618 H621 0.931 . S
C619 C615 1.391 . S
C619 C618 1.371 . S
C619 H626 0.930 . S
H620 C617 0.928 . S
H621 C618 0.931 . S
H622 C598 0.930 . S
H623 C595 0.930 . S
H624 C604 0.930 . S
H625 C616 0.929 . S
H626 C619 0.930 . S
C627 C628 1.351 . S
C627 N630 1.368 . S
C627 H632 0.931 . S
C628 C627 1.351 . S
C628 N629 1.373 . S
C628 H656 0.930 . S
N629 C628 1.373 . S
N629 C631 1.340 . S
N630 C627 1.368 . S
N630 C631 1.321 . S
N630 Co633 2.135 . S
C631 N629 1.340 . S
C631 N630 1.321 . S
C631 H655 0.930 . S
H632 C627 0.931 . S
Co633 N630 2.135 . S
Co633 N636 2.121 . S
Co633 O641 2.055 . S
Co633 O644 2.039 . S
Co633 N647 2.140 . S
C634 O635 1.227 . S
C634 O644 1.265 . S
O635 C634 1.227 . S
N636 Co633 2.121 . S
N636 C638 1.375 . S
N636 C639 1.313 . S
C637 C638 1.338 . S
C637 N640 1.377 . S
C637 H657 0.930 . S
C638 N636 1.375 . S
C638 C637 1.338 . S
C638 H642 0.931 . S
C639 N636 1.313 . S
C639 N640 1.344 . S
C639 H643 0.930 . S
N640 C637 1.377 . S
N640 C639 1.344 . S
O641 Co633 2.055 . S
O641 C645 1.253 . S
H642 C638 0.931 . S
H643 C639 0.930 . S
O644 Co633 2.039 . S
O644 C634 1.265 . S
C645 O641 1.253 . S
C645 O646 1.227 . S
O646 C645 1.227 . S
N647 Co633 2.140 . S
N647 C650 1.346 . S
N647 C651 1.345 . S
C648 C649 1.387 . S
C648 C652 1.391 . S
C649 C648 1.387 . S
C649 C650 1.369 . S
C649 H658 0.929 . S
C650 N647 1.346 . S
C650 C649 1.369 . S
C650 H653 0.928 . S
C651 N647 1.345 . S
C651 C652 1.371 . S
C651 H654 0.931 . S
C652 C648 1.391 . S
C652 C651 1.371 . S
C652 H659 0.930 . S
H653 C650 0.928 . S
H654 C651 0.931 . S
H655 C631 0.930 . S
H656 C628 0.930 . S
H657 C637 0.930 . S
H658 C649 0.929 . S
H659 C652 0.930 . S
C660 C661 1.351 . S
C660 N663 1.368 . S
C660 H665 0.931 . S
C661 C660 1.351 . S
C661 N662 1.373 . S
C661 H689 0.930 . S
N662 C661 1.373 . S
N662 C664 1.340 . S
N663 C660 1.368 . S
N663 C664 1.321 . S
N663 Co666 2.135 . S
C664 N662 1.340 . S
C664 N663 1.321 . S
C664 H688 0.930 . S
H665 C660 0.931 . S
Co666 N663 2.135 . S
Co666 N669 2.121 . S
Co666 O674 2.055 . S
Co666 O677 2.039 . S
Co666 N680 2.140 . S
C667 O668 1.227 . S
C667 O677 1.265 . S
O668 C667 1.227 . S
N669 Co666 2.121 . S
N669 C671 1.375 . S
N669 C672 1.313 . S
C670 C671 1.338 . S
C670 N673 1.377 . S
C670 H690 0.930 . S
C671 N669 1.375 . S
C671 C670 1.338 . S
C671 H675 0.931 . S
C672 N669 1.313 . S
C672 N673 1.344 . S
C672 H676 0.930 . S
N673 C670 1.377 . S
N673 C672 1.344 . S
O674 Co666 2.055 . S
O674 C678 1.253 . S
H675 C671 0.931 . S
H676 C672 0.930 . S
O677 Co666 2.039 . S
O677 C667 1.265 . S
C678 O674 1.253 . S
C678 O679 1.227 . S
O679 C678 1.227 . S
N680 Co666 2.140 . S
N680 C683 1.346 . S
N680 C684 1.345 . S
C681 C682 1.387 . S
C681 C685 1.391 . S
C682 C681 1.387 . S
C682 C683 1.369 . S
C682 H691 0.929 . S
C683 N680 1.346 . S
C683 C682 1.369 . S
C683 H686 0.928 . S
C684 N680 1.345 . S
C684 C685 1.371 . S
C684 H687 0.931 . S
C685 C681 1.391 . S
C685 C684 1.371 . S
C685 H692 0.930 . S
H686 C683 0.928 . S
H687 C684 0.931 . S
H688 C664 0.930 . S
H689 C661 0.930 . S
H690 C670 0.930 . S
H691 C682 0.929 . S
H692 C685 0.930 . S
C693 C694 1.351 . S
C693 N696 1.368 . S
C693 H698 0.931 . S
C694 C693 1.351 . S
C694 N695 1.373 . S
C694 H722 0.930 . S
N695 C694 1.373 . S
N695 C697 1.340 . S
N696 C693 1.368 . S
N696 C697 1.321 . S
N696 Co699 2.135 . S
C697 N695 1.340 . S
C697 N696 1.321 . S
C697 H721 0.930 . S
H698 C693 0.931 . S
Co699 N696 2.135 . S
Co699 N702 2.121 . S
Co699 O707 2.055 . S
Co699 O710 2.039 . S
Co699 N713 2.140 . S
C700 O701 1.227 . S
C700 O710 1.265 . S
O701 C700 1.227 . S
N702 Co699 2.121 . S
N702 C704 1.375 . S
N702 C705 1.313 . S
C703 C704 1.338 . S
C703 N706 1.377 . S
C703 H723 0.930 . S
C704 N702 1.375 . S
C704 C703 1.338 . S
C704 H708 0.931 . S
C705 N702 1.313 . S
C705 N706 1.344 . S
C705 H709 0.930 . S
N706 C703 1.377 . S
N706 C705 1.344 . S
O707 Co699 2.055 . S
O707 C711 1.253 . S
H708 C704 0.931 . S
H709 C705 0.930 . S
O710 Co699 2.039 . S
O710 C700 1.265 . S
C711 O707 1.253 . S
C711 O712 1.227 . S
O712 C711 1.227 . S
N713 Co699 2.140 . S
N713 C716 1.346 . S
N713 C717 1.345 . S
C714 C715 1.387 . S
C714 C718 1.391 . S
C715 C714 1.387 . S
C715 C716 1.369 . S
C715 H724 0.929 . S
C716 N713 1.346 . S
C716 C715 1.369 . S
C716 H719 0.928 . S
C717 N713 1.345 . S
C717 C718 1.371 . S
C717 H720 0.931 . S
C718 C714 1.391 . S
C718 C717 1.371 . S
C718 H725 0.930 . S
H719 C716 0.928 . S
H720 C717 0.931 . S
H721 C697 0.930 . S
H722 C694 0.930 . S
H723 C703 0.930 . S
H724 C715 0.929 . S
H725 C718 0.930 . S
C726 C727 1.351 . S
C726 N729 1.368 . S
C726 H731 0.931 . S
C727 C726 1.351 . S
C727 N728 1.373 . S
C727 H755 0.930 . S
N728 C727 1.373 . S
N728 C730 1.340 . S
N729 C726 1.368 . S
N729 C730 1.321 . S
N729 Co732 2.135 . S
C730 N728 1.340 . S
C730 N729 1.321 . S
C730 H754 0.930 . S
H731 C726 0.931 . S
Co732 N729 2.135 . S
Co732 N735 2.121 . S
Co732 O740 2.055 . S
Co732 O743 2.039 . S
Co732 N746 2.140 . S
C733 O734 1.227 . S
C733 O743 1.265 . S
O734 C733 1.227 . S
N735 Co732 2.121 . S
N735 C737 1.375 . S
N735 C738 1.313 . S
C736 C737 1.338 . S
C736 N739 1.377 . S
C736 H756 0.930 . S
C737 N735 1.375 . S
C737 C736 1.338 . S
C737 H741 0.931 . S
C738 N735 1.313 . S
C738 N739 1.344 . S
C738 H742 0.930 . S
N739 C736 1.377 . S
N739 C738 1.344 . S
O740 Co732 2.055 . S
O740 C744 1.253 . S
H741 C737 0.931 . S
H742 C738 0.930 . S
O743 Co732 2.039 . S
O743 C733 1.265 . S
C744 O740 1.253 . S
C744 O745 1.227 . S
O745 C744 1.227 . S
N746 Co732 2.140 . S
N746 C749 1.346 . S
N746 C750 1.345 . S
C747 C748 1.387 . S
C747 C751 1.391 . S
C748 C747 1.387 . S
C748 C749 1.369 . S
C748 H757 0.929 . S
C749 N746 1.346 . S
C749 C748 1.369 . S
C749 H752 0.928 . S
C750 N746 1.345 . S
C750 C751 1.371 . S
C750 H753 0.931 . S
C751 C747 1.391 . S
C751 C750 1.371 . S
C751 H758 0.930 . S
H752 C749 0.928 . S
H753 C750 0.931 . S
H754 C730 0.930 . S
H755 C727 0.930 . S
H756 C736 0.930 . S
H757 C748 0.929 . S
H758 C751 0.930 . S
C759 C760 1.351 . S
C759 N762 1.368 . S
C759 H764 0.931 . S
C760 C759 1.351 . S
C760 N761 1.373 . S
C760 H788 0.930 . S
N761 C760 1.373 . S
N761 C763 1.340 . S
N762 C759 1.368 . S
N762 C763 1.321 . S
N762 Co765 2.135 . S
C763 N761 1.340 . S
C763 N762 1.321 . S
C763 H787 0.930 . S
H764 C759 0.931 . S
Co765 N762 2.135 . S
Co765 N768 2.121 . S
Co765 O773 2.055 . S
Co765 O776 2.039 . S
Co765 N779 2.140 . S
C766 O767 1.227 . S
C766 O776 1.265 . S
O767 C766 1.227 . S
N768 Co765 2.121 . S
N768 C770 1.375 . S
N768 C771 1.313 . S
C769 C770 1.338 . S
C769 N772 1.377 . S
C769 H789 0.930 . S
C770 N768 1.375 . S
C770 C769 1.338 . S
C770 H774 0.931 . S
C771 N768 1.313 . S
C771 N772 1.344 . S
C771 H775 0.930 . S
N772 C769 1.377 . S
N772 C771 1.344 . S
O773 Co765 2.055 . S
O773 C777 1.253 . S
H774 C770 0.931 . S
H775 C771 0.930 . S
O776 Co765 2.039 . S
O776 C766 1.265 . S
C777 O773 1.253 . S
C777 O778 1.227 . S
O778 C777 1.227 . S
N779 Co765 2.140 . S
N779 C782 1.346 . S
N779 C783 1.345 . S
C780 C781 1.387 . S
C780 C784 1.391 . S
C781 C780 1.387 . S
C781 C782 1.369 . S
C781 H790 0.929 . S
C782 N779 1.346 . S
C782 C781 1.369 . S
C782 H785 0.928 . S
C783 N779 1.345 . S
C783 C784 1.371 . S
C783 H786 0.931 . S
C784 C780 1.391 . S
C784 C783 1.371 . S
C784 H791 0.930 . S
H785 C782 0.928 . S
H786 C783 0.931 . S
H787 C763 0.930 . S
H788 C760 0.930 . S
H789 C769 0.930 . S
H790 C781 0.929 . S
H791 C784 0.930 . S
C792 C793 1.351 . S
C792 N795 1.368 . S
C792 H797 0.931 . S
C793 C792 1.351 . S
C793 N794 1.373 . S
C793 H821 0.930 . S
N794 C793 1.373 . S
N794 C796 1.340 . S
N795 C792 1.368 . S
N795 C796 1.321 . S
N795 Co798 2.135 . S
C796 N794 1.340 . S
C796 N795 1.321 . S
C796 H820 0.930 . S
H797 C792 0.931 . S
Co798 N795 2.135 . S
Co798 N801 2.121 . S
Co798 O806 2.055 . S
Co798 O809 2.039 . S
Co798 N812 2.140 . S
C799 O800 1.227 . S
C799 O809 1.265 . S
O800 C799 1.227 . S
N801 Co798 2.121 . S
N801 C803 1.375 . S
N801 C804 1.313 . S
C802 C803 1.338 . S
C802 N805 1.377 . S
C802 H822 0.930 . S
C803 N801 1.375 . S
C803 C802 1.338 . S
C803 H807 0.931 . S
C804 N801 1.313 . S
C804 N805 1.344 . S
C804 H808 0.930 . S
N805 C802 1.377 . S
N805 C804 1.344 . S
O806 Co798 2.055 . S
O806 C810 1.253 . S
H807 C803 0.931 . S
H808 C804 0.930 . S
O809 Co798 2.039 . S
O809 C799 1.265 . S
C810 O806 1.253 . S
C810 O811 1.227 . S
O811 C810 1.227 . S
N812 Co798 2.140 . S
N812 C815 1.346 . S
N812 C816 1.345 . S
C813 C814 1.387 . S
C813 C817 1.391 . S
C814 C813 1.387 . S
C814 C815 1.369 . S
C814 H823 0.929 . S
C815 N812 1.346 . S
C815 C814 1.369 . S
C815 H818 0.928 . S
C816 N812 1.345 . S
C816 C817 1.371 . S
C816 H819 0.931 . S
C817 C813 1.391 . S
C817 C816 1.371 . S
C817 H824 0.930 . S
H818 C815 0.928 . S
H819 C816 0.931 . S
H820 C796 0.930 . S
H821 C793 0.930 . S
H822 C802 0.930 . S
H823 C814 0.929 . S
H824 C817 0.930 . S
C825 C826 1.351 . S
C825 N828 1.368 . S
C825 H830 0.931 . S
C826 C825 1.351 . S
C826 N827 1.373 . S
C826 H854 0.930 . S
N827 C826 1.373 . S
N827 C829 1.340 . S
N828 C825 1.368 . S
N828 C829 1.321 . S
N828 Co831 2.135 . S
C829 N827 1.340 . S
C829 N828 1.321 . S
C829 H853 0.930 . S
H830 C825 0.931 . S
Co831 N828 2.135 . S
Co831 N834 2.121 . S
Co831 O839 2.055 . S
Co831 O842 2.039 . S
Co831 N845 2.140 . S
C832 O833 1.227 . S
C832 O842 1.265 . S
O833 C832 1.227 . S
N834 Co831 2.121 . S
N834 C836 1.375 . S
N834 C837 1.313 . S
C835 C836 1.338 . S
C835 N838 1.377 . S
C835 H855 0.930 . S
C836 N834 1.375 . S
C836 C835 1.338 . S
C836 H840 0.931 . S
C837 N834 1.313 . S
C837 N838 1.344 . S
C837 H841 0.930 . S
N838 C835 1.377 . S
N838 C837 1.344 . S
O839 Co831 2.055 . S
O839 C843 1.253 . S
H840 C836 0.931 . S
H841 C837 0.930 . S
O842 Co831 2.039 . S
O842 C832 1.265 . S
C843 O839 1.253 . S
C843 O844 1.227 . S
O844 C843 1.227 . S
N845 Co831 2.140 . S
N845 C848 1.346 . S
N845 C849 1.345 . S
C846 C847 1.387 . S
C846 C850 1.391 . S
C847 C846 1.387 . S
C847 C848 1.369 . S
C847 H856 0.929 . S
C848 N845 1.346 . S
C848 C847 1.369 . S
C848 H851 0.928 . S
C849 N845 1.345 . S
C849 C850 1.371 . S
C849 H852 0.931 . S
C850 C846 1.391 . S
C850 C849 1.371 . S
C850 H857 0.930 . S
H851 C848 0.928 . S
H852 C849 0.931 . S
H853 C829 0.930 . S
H854 C826 0.930 . S
H855 C835 0.930 . S
H856 C847 0.929 . S
H857 C850 0.930 . S
C858 C859 1.351 . S
C858 N861 1.368 . S
C858 H863 0.931 . S
C859 C858 1.351 . S
C859 N860 1.373 . S
C859 H887 0.930 . S
N860 C859 1.373 . S
N860 C862 1.340 . S
N861 C858 1.368 . S
N861 C862 1.321 . S
N861 Co864 2.135 . S
C862 N860 1.340 . S
C862 N861 1.321 . S
C862 H886 0.930 . S
H863 C858 0.931 . S
Co864 N861 2.135 . S
Co864 N867 2.121 . S
Co864 O872 2.055 . S
Co864 O875 2.039 . S
Co864 N878 2.140 . S
C865 O866 1.227 . S
C865 O875 1.265 . S
O866 C865 1.227 . S
N867 Co864 2.121 . S
N867 C869 1.375 . S
N867 C870 1.313 . S
C868 C869 1.338 . S
C868 N871 1.377 . S
C868 H888 0.930 . S
C869 N867 1.375 . S
C869 C868 1.338 . S
C869 H873 0.931 . S
C870 N867 1.313 . S
C870 N871 1.344 . S
C870 H874 0.930 . S
N871 C868 1.377 . S
N871 C870 1.344 . S
O872 Co864 2.055 . S
O872 C876 1.253 . S
H873 C869 0.931 . S
H874 C870 0.930 . S
O875 Co864 2.039 . S
O875 C865 1.265 . S
C876 O872 1.253 . S
C876 O877 1.227 . S
O877 C876 1.227 . S
N878 Co864 2.140 . S
N878 C881 1.346 . S
N878 C882 1.345 . S
C879 C880 1.387 . S
C879 C883 1.391 . S
C880 C879 1.387 . S
C880 C881 1.369 . S
C880 H889 0.929 . S
C881 N878 1.346 . S
C881 C880 1.369 . S
C881 H884 0.928 . S
C882 N878 1.345 . S
C882 C883 1.371 . S
C882 H885 0.931 . S
C883 C879 1.391 . S
C883 C882 1.371 . S
C883 H890 0.930 . S
H884 C881 0.928 . S
H885 C882 0.931 . S
H886 C862 0.930 . S
H887 C859 0.930 . S
H888 C868 0.930 . S
H889 C880 0.929 . S
H890 C883 0.930 . S
C891 C892 1.351 . S
C891 N894 1.368 . S
C891 H896 0.931 . S
C892 C891 1.351 . S
C892 N893 1.373 . S
C892 H920 0.930 . S
N893 C892 1.373 . S
N893 C895 1.340 . S
N894 C891 1.368 . S
N894 C895 1.321 . S
N894 Co897 2.135 . S
C895 N893 1.340 . S
C895 N894 1.321 . S
C895 H919 0.930 . S
H896 C891 0.931 . S
Co897 N894 2.135 . S
Co897 N900 2.121 . S
Co897 O905 2.055 . S
Co897 O908 2.039 . S
Co897 N911 2.140 . S
C898 O899 1.227 . S
C898 O908 1.265 . S
O899 C898 1.227 . S
N900 Co897 2.121 . S
N900 C902 1.375 . S
N900 C903 1.313 . S
C901 C902 1.338 . S
C901 N904 1.377 . S
C901 H921 0.930 . S
C902 N900 1.375 . S
C902 C901 1.338 . S
C902 H906 0.931 . S
C903 N900 1.313 . S
C903 N904 1.344 . S
C903 H907 0.930 . S
N904 C901 1.377 . S
N904 C903 1.344 . S
O905 Co897 2.055 . S
O905 C909 1.253 . S
H906 C902 0.931 . S
H907 C903 0.930 . S
O908 Co897 2.039 . S
O908 C898 1.265 . S
C909 O905 1.253 . S
C909 O910 1.227 . S
O910 C909 1.227 . S
N911 Co897 2.140 . S
N911 C914 1.346 . S
N911 C915 1.345 . S
C912 C913 1.387 . S
C912 C916 1.391 . S
C913 C912 1.387 . S
C913 C914 1.369 . S
C913 H922 0.929 . S
C914 N911 1.346 . S
C914 C913 1.369 . S
C914 H917 0.928 . S
C915 N911 1.345 . S
C915 C916 1.371 . S
C915 H918 0.931 . S
C916 C912 1.391 . S
C916 C915 1.371 . S
C916 H923 0.930 . S
H917 C914 0.928 . S
H918 C915 0.931 . S
H919 C895 0.930 . S
H920 C892 0.930 . S
H921 C901 0.930 . S
H922 C913 0.929 . S
H923 C916 0.930 . S
C924 C925 1.351 . S
C924 N927 1.368 . S
C924 H929 0.931 . S
C925 C924 1.351 . S
C925 N926 1.373 . S
C925 H953 0.930 . S
N926 C925 1.373 . S
N926 C928 1.340 . S
N927 C924 1.368 . S
N927 C928 1.321 . S
N927 Co930 2.135 . S
C928 N926 1.340 . S
C928 N927 1.321 . S
C928 H952 0.930 . S
H929 C924 0.931 . S
Co930 N927 2.135 . S
Co930 N933 2.121 . S
Co930 O938 2.055 . S
Co930 O941 2.039 . S
Co930 N944 2.140 . S
C931 O932 1.227 . S
C931 O941 1.265 . S
O932 C931 1.227 . S
N933 Co930 2.121 . S
N933 C935 1.375 . S
N933 C936 1.313 . S
C934 C935 1.338 . S
C934 N937 1.377 . S
C934 H954 0.930 . S
C935 N933 1.375 . S
C935 C934 1.338 . S
C935 H939 0.931 . S
C936 N933 1.313 . S
C936 N937 1.344 . S
C936 H940 0.930 . S
N937 C934 1.377 . S
N937 C936 1.344 . S
O938 Co930 2.055 . S
O938 C942 1.253 . S
H939 C935 0.931 . S
H940 C936 0.930 . S
O941 Co930 2.039 . S
O941 C931 1.265 . S
C942 O938 1.253 . S
C942 O943 1.227 . S
O943 C942 1.227 . S
N944 Co930 2.140 . S
N944 C947 1.346 . S
N944 C948 1.345 . S
C945 C946 1.387 . S
C945 C949 1.391 . S
C946 C945 1.387 . S
C946 C947 1.369 . S
C946 H955 0.929 . S
C947 N944 1.346 . S
C947 C946 1.369 . S
C947 H950 0.928 . S
C948 N944 1.345 . S
C948 C949 1.371 . S
C948 H951 0.931 . S
C949 C945 1.391 . S
C949 C948 1.371 . S
C949 H956 0.930 . S
H950 C947 0.928 . S
H951 C948 0.931 . S
H952 C928 0.930 . S
H953 C925 0.930 . S
H954 C934 0.930 . S
H955 C946 0.929 . S
H956 C949 0.930 . S
C957 C958 1.351 . S
C957 N960 1.368 . S
C957 H962 0.931 . S
C958 C957 1.351 . S
C958 N959 1.373 . S
C958 H986 0.930 . S
N959 C958 1.373 . S
N959 C961 1.340 . S
N960 C957 1.368 . S
N960 C961 1.321 . S
N960 Co963 2.135 . S
C961 N959 1.340 . S
C961 N960 1.321 . S
C961 H985 0.930 . S
H962 C957 0.931 . S
Co963 N960 2.135 . S
Co963 N966 2.121 . S
Co963 O971 2.055 . S
Co963 O974 2.039 . S
Co963 N977 2.140 . S
C964 O965 1.227 . S
C964 O974 1.265 . S
O965 C964 1.227 . S
N966 Co963 2.121 . S
N966 C968 1.375 . S
N966 C969 1.313 . S
C967 C968 1.338 . S
C967 N970 1.377 . S
C967 H987 0.930 . S
C968 N966 1.375 . S
C968 C967 1.338 . S
C968 H972 0.931 . S
C969 N966 1.313 . S
C969 N970 1.344 . S
C969 H973 0.930 . S
N970 C967 1.377 . S
N970 C969 1.344 . S
O971 Co963 2.055 . S
O971 C975 1.253 . S
H972 C968 0.931 . S
H973 C969 0.930 . S
O974 Co963 2.039 . S
O974 C964 1.265 . S
C975 O971 1.253 . S
C975 O976 1.227 . S
O976 C975 1.227 . S
N977 Co963 2.140 . S
N977 C980 1.346 . S
N977 C981 1.345 . S
C978 C979 1.387 . S
C978 C982 1.391 . S
C979 C978 1.387 . S
C979 C980 1.369 . S
C979 H988 0.929 . S
C980 N977 1.346 . S
C980 C979 1.369 . S
C980 H983 0.928 . S
C981 N977 1.345 . S
C981 C982 1.371 . S
C981 H984 0.931 . S
C982 C978 1.391 . S
C982 C981 1.371 . S
C982 H989 0.930 . S
H983 C980 0.928 . S
H984 C981 0.931 . S
H985 C961 0.930 . S
H986 C958 0.930 . S
H987 C967 0.930 . S
H988 C979 0.929 . S
H989 C982 0.930 . S
C990 C991 1.351 . S
C990 N993 1.368 . S
C990 H995 0.931 . S
C991 C990 1.351 . S
C991 N992 1.373 . S
C991 H1019 0.930 . S
N992 C991 1.373 . S
N992 C994 1.340 . S
N993 C990 1.368 . S
N993 C994 1.321 . S
N993 Co996 2.135 . S
C994 N992 1.340 . S
C994 N993 1.321 . S
C994 H1018 0.930 . S
H995 C990 0.931 . S
Co996 N993 2.135 . S
Co996 N999 2.121 . S
Co996 O1004 2.055 . S
Co996 O1007 2.039 . S
Co996 N1010 2.140 . S
C997 O998 1.227 . S
C997 O1007 1.265 . S
O998 C997 1.227 . S
N999 Co996 2.121 . S
N999 C1001 1.375 . S
N999 C1002 1.313 . S
C1000 C1001 1.338 . S
C1000 N1003 1.377 . S
C1000 H1020 0.930 . S
C1001 N999 1.375 . S
C1001 C1000 1.338 . S
C1001 H1005 0.931 . S
C1002 N999 1.313 . S
C1002 N1003 1.344 . S
C1002 H1006 0.930 . S
N1003 C1000 1.377 . S
N1003 C1002 1.344 . S
O1004 Co996 2.055 . S
O1004 C1008 1.253 . S
H1005 C1001 0.931 . S
H1006 C1002 0.930 . S
O1007 Co996 2.039 . S
O1007 C997 1.265 . S
C1008 O1004 1.253 . S
C1008 O1009 1.227 . S
O1009 C1008 1.227 . S
N1010 Co996 2.140 . S
N1010 C1013 1.346 . S
N1010 C1014 1.345 . S
C1011 C1012 1.387 . S
C1011 C1015 1.391 . S
C1012 C1011 1.387 . S
C1012 C1013 1.369 . S
C1012 H1021 0.929 . S
C1013 N1010 1.346 . S
C1013 C1012 1.369 . S
C1013 H1016 0.928 . S
C1014 N1010 1.345 . S
C1014 C1015 1.371 . S
C1014 H1017 0.931 . S
C1015 C1011 1.391 . S
C1015 C1014 1.371 . S
C1015 H1022 0.930 . S
H1016 C1013 0.928 . S
H1017 C1014 0.931 . S
H1018 C994 0.930 . S
H1019 C991 0.930 . S
H1020 C1000 0.930 . S
H1021 C1012 0.929 . S
H1022 C1015 0.930 . S
C1023 C1024 1.351 . S
C1023 N1026 1.368 . S
C1023 H1028 0.931 . S
C1024 C1023 1.351 . S
C1024 N1025 1.373 . S
C1024 H1052 0.930 . S
N1025 C1024 1.373 . S
N1025 C1027 1.340 . S
N1026 C1023 1.368 . S
N1026 C1027 1.321 . S
N1026 Co1029 2.135 . S
C1027 N1025 1.340 . S
C1027 N1026 1.321 . S
C1027 H1051 0.930 . S
H1028 C1023 0.931 . S
Co1029 N1026 2.135 . S
Co1029 N1032 2.121 . S
Co1029 O1037 2.055 . S
Co1029 O1040 2.039 . S
Co1029 N1043 2.140 . S
C1030 O1031 1.227 . S
C1030 O1040 1.265 . S
O1031 C1030 1.227 . S
N1032 Co1029 2.121 . S
N1032 C1034 1.375 . S
N1032 C1035 1.313 . S
C1033 C1034 1.338 . S
C1033 N1036 1.377 . S
C1033 H1053 0.930 . S
C1034 N1032 1.375 . S
C1034 C1033 1.338 . S
C1034 H1038 0.931 . S
C1035 N1032 1.313 . S
C1035 N1036 1.344 . S
C1035 H1039 0.930 . S
N1036 C1033 1.377 . S
N1036 C1035 1.344 . S
O1037 Co1029 2.055 . S
O1037 C1041 1.253 . S
H1038 C1034 0.931 . S
H1039 C1035 0.930 . S
O1040 Co1029 2.039 . S
O1040 C1030 1.265 . S
C1041 O1037 1.253 . S
C1041 O1042 1.227 . S
O1042 C1041 1.227 . S
N1043 Co1029 2.140 . S
N1043 C1046 1.346 . S
N1043 C1047 1.345 . S
C1044 C1045 1.387 . S
C1044 C1048 1.391 . S
C1045 C1044 1.387 . S
C1045 C1046 1.369 . S
C1045 H1054 0.929 . S
C1046 N1043 1.346 . S
C1046 C1045 1.369 . S
C1046 H1049 0.928 . S
C1047 N1043 1.345 . S
C1047 C1048 1.371 . S
C1047 H1050 0.931 . S
C1048 C1044 1.391 . S
C1048 C1047 1.371 . S
C1048 H1055 0.930 . S
H1049 C1046 0.928 . S
H1050 C1047 0.931 . S
H1051 C1027 0.930 . S
H1052 C1024 0.930 . S
H1053 C1033 0.930 . S
H1054 C1045 0.929 . S
H1055 C1048 0.930 . S
C1056 C1057 1.351 . S
C1056 N1059 1.368 . S
C1056 H1061 0.931 . S
C1057 C1056 1.351 . S
C1057 N1058 1.373 . S
C1057 H1085 0.930 . S
N1058 C1057 1.373 . S
N1058 C1060 1.340 . S
N1059 C1056 1.368 . S
N1059 C1060 1.321 . S
N1059 Co1062 2.135 . S
C1060 N1058 1.340 . S
C1060 N1059 1.321 . S
C1060 H1084 0.930 . S
H1061 C1056 0.931 . S
Co1062 N1059 2.135 . S
Co1062 N1065 2.121 . S
Co1062 O1070 2.055 . S
Co1062 O1073 2.039 . S
Co1062 N1076 2.140 . S
C1063 O1064 1.227 . S
C1063 O1073 1.265 . S
O1064 C1063 1.227 . S
N1065 Co1062 2.121 . S
N1065 C1067 1.375 . S
N1065 C1068 1.313 . S
C1066 C1067 1.338 . S
C1066 N1069 1.377 . S
C1066 H1086 0.930 . S
C1067 N1065 1.375 . S
C1067 C1066 1.338 . S
C1067 H1071 0.931 . S
C1068 N1065 1.313 . S
C1068 N1069 1.344 . S
C1068 H1072 0.930 . S
N1069 C1066 1.377 . S
N1069 C1068 1.344 . S
O1070 Co1062 2.055 . S
O1070 C1074 1.253 . S
H1071 C1067 0.931 . S
H1072 C1068 0.930 . S
O1073 Co1062 2.039 . S
O1073 C1063 1.265 . S
C1074 O1070 1.253 . S
C1074 O1075 1.227 . S
O1075 C1074 1.227 . S
N1076 Co1062 2.140 . S
N1076 C1079 1.346 . S
N1076 C1080 1.345 . S
C1077 C1078 1.387 . S
C1077 C1081 1.391 . S
C1078 C1077 1.387 . S
C1078 C1079 1.369 . S
C1078 H1087 0.929 . S
C1079 N1076 1.346 . S
C1079 C1078 1.369 . S
C1079 H1082 0.928 . S
C1080 N1076 1.345 . S
C1080 C1081 1.371 . S
C1080 H1083 0.931 . S
C1081 C1077 1.391 . S
C1081 C1080 1.371 . S
C1081 H1088 0.930 . S
H1082 C1079 0.928 . S
H1083 C1080 0.931 . S
H1084 C1060 0.930 . S
H1085 C1057 0.930 . S
H1086 C1066 0.930 . S
H1087 C1078 0.929 . S
H1088 C1081 0.930 . S
C1089 C1090 1.351 . S
C1089 N1092 1.368 . S
C1089 H1094 0.931 . S
C1090 C1089 1.351 . S
C1090 N1091 1.373 . S
C1090 H1118 0.930 . S
N1091 C1090 1.373 . S
N1091 C1093 1.340 . S
N1092 C1089 1.368 . S
N1092 C1093 1.321 . S
N1092 Co1095 2.135 . S
C1093 N1091 1.340 . S
C1093 N1092 1.321 . S
C1093 H1117 0.930 . S
H1094 C1089 0.931 . S
Co1095 N1092 2.135 . S
Co1095 N1098 2.121 . S
Co1095 O1103 2.055 . S
Co1095 O1106 2.039 . S
Co1095 N1109 2.140 . S
C1096 O1097 1.227 . S
C1096 O1106 1.265 . S
O1097 C1096 1.227 . S
N1098 Co1095 2.121 . S
N1098 C1100 1.375 . S
N1098 C1101 1.313 . S
C1099 C1100 1.338 . S
C1099 N1102 1.377 . S
C1099 H1119 0.930 . S
C1100 N1098 1.375 . S
C1100 C1099 1.338 . S
C1100 H1104 0.931 . S
C1101 N1098 1.313 . S
C1101 N1102 1.344 . S
C1101 H1105 0.930 . S
N1102 C1099 1.377 . S
N1102 C1101 1.344 . S
O1103 Co1095 2.055 . S
O1103 C1107 1.253 . S
H1104 C1100 0.931 . S
H1105 C1101 0.930 . S
O1106 Co1095 2.039 . S
O1106 C1096 1.265 . S
C1107 O1103 1.253 . S
C1107 O1108 1.227 . S
O1108 C1107 1.227 . S
N1109 Co1095 2.140 . S
N1109 C1112 1.346 . S
N1109 C1113 1.345 . S
C1110 C1111 1.387 . S
C1110 C1114 1.391 . S
C1111 C1110 1.387 . S
C1111 C1112 1.369 . S
C1111 H1120 0.929 . S
C1112 N1109 1.346 . S
C1112 C1111 1.369 . S
C1112 H1115 0.928 . S
C1113 N1109 1.345 . S
C1113 C1114 1.371 . S
C1113 H1116 0.931 . S
C1114 C1110 1.391 . S
C1114 C1113 1.371 . S
C1114 H1121 0.930 . S
H1115 C1112 0.928 . S
H1116 C1113 0.931 . S
H1117 C1093 0.930 . S
H1118 C1090 0.930 . S
H1119 C1099 0.930 . S
H1120 C1111 0.929 . S
H1121 C1114 0.930 . S
C1122 C1123 1.351 . S
C1122 N1125 1.368 . S
C1122 H1127 0.931 . S
C1123 C1122 1.351 . S
C1123 N1124 1.373 . S
C1123 H1151 0.930 . S
N1124 C1123 1.373 . S
N1124 C1126 1.340 . S
N1125 C1122 1.368 . S
N1125 C1126 1.321 . S
N1125 Co1128 2.135 . S
C1126 N1124 1.340 . S
C1126 N1125 1.321 . S
C1126 H1150 0.930 . S
H1127 C1122 0.931 . S
Co1128 N1125 2.135 . S
Co1128 N1131 2.121 . S
Co1128 O1136 2.055 . S
Co1128 O1139 2.039 . S
Co1128 N1142 2.140 . S
C1129 O1130 1.227 . S
C1129 O1139 1.265 . S
O1130 C1129 1.227 . S
N1131 Co1128 2.121 . S
N1131 C1133 1.375 . S
N1131 C1134 1.313 . S
C1132 C1133 1.338 . S
C1132 N1135 1.377 . S
C1132 H1152 0.930 . S
C1133 N1131 1.375 . S
C1133 C1132 1.338 . S
C1133 H1137 0.931 . S
C1134 N1131 1.313 . S
C1134 N1135 1.344 . S
C1134 H1138 0.930 . S
N1135 C1132 1.377 . S
N1135 C1134 1.344 . S
O1136 Co1128 2.055 . S
O1136 C1140 1.253 . S
H1137 C1133 0.931 . S
H1138 C1134 0.930 . S
O1139 Co1128 2.039 . S
O1139 C1129 1.265 . S
C1140 O1136 1.253 . S
C1140 O1141 1.227 . S
O1141 C1140 1.227 . S
N1142 Co1128 2.140 . S
N1142 C1145 1.346 . S
N1142 C1146 1.345 . S
C1143 C1144 1.387 . S
C1143 C1147 1.391 . S
C1144 C1143 1.387 . S
C1144 C1145 1.369 . S
C1144 H1153 0.929 . S
C1145 N1142 1.346 . S
C1145 C1144 1.369 . S
C1145 H1148 0.928 . S
C1146 N1142 1.345 . S
C1146 C1147 1.371 . S
C1146 H1149 0.931 . S
C1147 C1143 1.391 . S
C1147 C1146 1.371 . S
C1147 H1154 0.930 . S
H1148 C1145 0.928 . S
H1149 C1146 0.931 . S
H1150 C1126 0.930 . S
H1151 C1123 0.930 . S
H1152 C1132 0.930 . S
H1153 C1144 0.929 . S
H1154 C1147 0.930 . S
C1155 C1156 1.351 . S
C1155 N1158 1.368 . S
C1155 H1160 0.931 . S
C1156 C1155 1.351 . S
C1156 N1157 1.373 . S
C1156 H1184 0.930 . S
N1157 C1156 1.373 . S
N1157 C1159 1.340 . S
N1158 C1155 1.368 . S
N1158 C1159 1.321 . S
N1158 Co1161 2.135 . S
C1159 N1157 1.340 . S
C1159 N1158 1.321 . S
C1159 H1183 0.930 . S
H1160 C1155 0.931 . S
Co1161 N1158 2.135 . S
Co1161 N1164 2.121 . S
Co1161 O1169 2.055 . S
Co1161 O1172 2.039 . S
Co1161 N1175 2.140 . S
C1162 O1163 1.227 . S
C1162 O1172 1.265 . S
O1163 C1162 1.227 . S
N1164 Co1161 2.121 . S
N1164 C1166 1.375 . S
N1164 C1167 1.313 . S
C1165 C1166 1.338 . S
C1165 N1168 1.377 . S
C1165 H1185 0.930 . S
C1166 N1164 1.375 . S
C1166 C1165 1.338 . S
C1166 H1170 0.931 . S
C1167 N1164 1.313 . S
C1167 N1168 1.344 . S
C1167 H1171 0.930 . S
N1168 C1165 1.377 . S
N1168 C1167 1.344 . S
O1169 Co1161 2.055 . S
O1169 C1173 1.253 . S
H1170 C1166 0.931 . S
H1171 C1167 0.930 . S
O1172 Co1161 2.039 . S
O1172 C1162 1.265 . S
C1173 O1169 1.253 . S
C1173 O1174 1.227 . S
O1174 C1173 1.227 . S
N1175 Co1161 2.140 . S
N1175 C1178 1.346 . S
N1175 C1179 1.345 . S
C1176 C1177 1.387 . S
C1176 C1180 1.391 . S
C1177 C1176 1.387 . S
C1177 C1178 1.369 . S
C1177 H1186 0.929 . S
C1178 N1175 1.346 . S
C1178 C1177 1.369 . S
C1178 H1181 0.928 . S
C1179 N1175 1.345 . S
C1179 C1180 1.371 . S
C1179 H1182 0.931 . S
C1180 C1176 1.391 . S
C1180 C1179 1.371 . S
C1180 H1187 0.930 . S
H1181 C1178 0.928 . S
H1182 C1179 0.931 . S
H1183 C1159 0.930 . S
H1184 C1156 0.930 . S
H1185 C1165 0.930 . S
H1186 C1177 0.929 . S
H1187 C1180 0.930 . S
C1188 C1189 1.351 . S
C1188 N1191 1.368 . S
C1188 H1193 0.931 . S
C1189 C1188 1.351 . S
C1189 N1190 1.373 . S
C1189 H1217 0.930 . S
N1190 C1189 1.373 . S
N1190 C1192 1.340 . S
N1191 C1188 1.368 . S
N1191 C1192 1.321 . S
N1191 Co1194 2.135 . S
C1192 N1190 1.340 . S
C1192 N1191 1.321 . S
C1192 H1216 0.930 . S
H1193 C1188 0.931 . S
Co1194 N1191 2.135 . S
Co1194 N1197 2.121 . S
Co1194 O1202 2.055 . S
Co1194 O1205 2.039 . S
Co1194 N1208 2.140 . S
C1195 O1196 1.227 . S
C1195 O1205 1.265 . S
O1196 C1195 1.227 . S
N1197 Co1194 2.121 . S
N1197 C1199 1.375 . S
N1197 C1200 1.313 . S
C1198 C1199 1.338 . S
C1198 N1201 1.377 . S
C1198 H1218 0.930 . S
C1199 N1197 1.375 . S
C1199 C1198 1.338 . S
C1199 H1203 0.931 . S
C1200 N1197 1.313 . S
C1200 N1201 1.344 . S
C1200 H1204 0.930 . S
N1201 C1198 1.377 . S
N1201 C1200 1.344 . S
O1202 Co1194 2.055 . S
O1202 C1206 1.253 . S
H1203 C1199 0.931 . S
H1204 C1200 0.930 . S
O1205 Co1194 2.039 . S
O1205 C1195 1.265 . S
C1206 O1202 1.253 . S
C1206 O1207 1.227 . S
O1207 C1206 1.227 . S
N1208 Co1194 2.140 . S
N1208 C1211 1.346 . S
N1208 C1212 1.345 . S
C1209 C1210 1.387 . S
C1209 C1213 1.391 . S
C1210 C1209 1.387 . S
C1210 C1211 1.369 . S
C1210 H1219 0.929 . S
C1211 N1208 1.346 . S
C1211 C1210 1.369 . S
C1211 H1214 0.928 . S
C1212 N1208 1.345 . S
C1212 C1213 1.371 . S
C1212 H1215 0.931 . S
C1213 C1209 1.391 . S
C1213 C1212 1.371 . S
C1213 H1220 0.930 . S
H1214 C1211 0.928 . S
H1215 C1212 0.931 . S
H1216 C1192 0.930 . S
H1217 C1189 0.930 . S
H1218 C1198 0.930 . S
H1219 C1210 0.929 . S
H1220 C1213 0.930 . S
C1221 C1222 1.351 . S
C1221 N1224 1.368 . S
C1221 H1226 0.931 . S
C1222 C1221 1.351 . S
C1222 N1223 1.373 . S
C1222 H1250 0.930 . S
N1223 C1222 1.373 . S
N1223 C1225 1.340 . S
N1224 C1221 1.368 . S
N1224 C1225 1.321 . S
N1224 Co1227 2.135 . S
C1225 N1223 1.340 . S
C1225 N1224 1.321 . S
C1225 H1249 0.930 . S
H1226 C1221 0.931 . S
Co1227 N1224 2.135 . S
Co1227 N1230 2.121 . S
Co1227 O1235 2.055 . S
Co1227 O1238 2.039 . S
Co1227 N1241 2.140 . S
C1228 O1229 1.227 . S
C1228 O1238 1.265 . S
O1229 C1228 1.227 . S
N1230 Co1227 2.121 . S
N1230 C1232 1.375 . S
N1230 C1233 1.313 . S
C1231 C1232 1.338 . S
C1231 N1234 1.377 . S
C1231 H1251 0.930 . S
C1232 N1230 1.375 . S
C1232 C1231 1.338 . S
C1232 H1236 0.931 . S
C1233 N1230 1.313 . S
C1233 N1234 1.344 . S
C1233 H1237 0.930 . S
N1234 C1231 1.377 . S
N1234 C1233 1.344 . S
O1235 Co1227 2.055 . S
O1235 C1239 1.253 . S
H1236 C1232 0.931 . S
H1237 C1233 0.930 . S
O1238 Co1227 2.039 . S
O1238 C1228 1.265 . S
C1239 O1235 1.253 . S
C1239 O1240 1.227 . S
O1240 C1239 1.227 . S
N1241 Co1227 2.140 . S
N1241 C1244 1.346 . S
N1241 C1245 1.345 . S
C1242 C1243 1.387 . S
C1242 C1246 1.391 . S
C1243 C1242 1.387 . S
C1243 C1244 1.369 . S
C1243 H1252 0.929 . S
C1244 N1241 1.346 . S
C1244 C1243 1.369 . S
C1244 H1247 0.928 . S
C1245 N1241 1.345 . S
C1245 C1246 1.371 . S
C1245 H1248 0.931 . S
C1246 C1242 1.391 . S
C1246 C1245 1.371 . S
C1246 H1253 0.930 . S
H1247 C1244 0.928 . S
H1248 C1245 0.931 . S
H1249 C1225 0.930 . S
H1250 C1222 0.930 . S
H1251 C1231 0.930 . S
H1252 C1243 0.929 . S
H1253 C1246 0.930 . S
C1254 C1255 1.351 . S
C1254 N1257 1.368 . S
C1254 H1259 0.931 . S
C1255 C1254 1.351 . S
C1255 N1256 1.373 . S
C1255 H1283 0.930 . S
N1256 C1255 1.373 . S
N1256 C1258 1.340 . S
N1257 C1254 1.368 . S
N1257 C1258 1.321 . S
N1257 Co1260 2.135 . S
C1258 N1256 1.340 . S
C1258 N1257 1.321 . S
C1258 H1282 0.930 . S
H1259 C1254 0.931 . S
Co1260 N1257 2.135 . S
Co1260 N1263 2.121 . S
Co1260 O1268 2.055 . S
Co1260 O1271 2.039 . S
Co1260 N1274 2.140 . S
C1261 O1262 1.227 . S
C1261 O1271 1.265 . S
O1262 C1261 1.227 . S
N1263 Co1260 2.121 . S
N1263 C1265 1.375 . S
N1263 C1266 1.313 . S
C1264 C1265 1.338 . S
C1264 N1267 1.377 . S
C1264 H1284 0.930 . S
C1265 N1263 1.375 . S
C1265 C1264 1.338 . S
C1265 H1269 0.931 . S
C1266 N1263 1.313 . S
C1266 N1267 1.344 . S
C1266 H1270 0.930 . S
N1267 C1264 1.377 . S
N1267 C1266 1.344 . S
O1268 Co1260 2.055 . S
O1268 C1272 1.253 . S
H1269 C1265 0.931 . S
H1270 C1266 0.930 . S
O1271 Co1260 2.039 . S
O1271 C1261 1.265 . S
C1272 O1268 1.253 . S
C1272 O1273 1.227 . S
O1273 C1272 1.227 . S
N1274 Co1260 2.140 . S
N1274 C1277 1.346 . S
N1274 C1278 1.345 . S
C1275 C1276 1.387 . S
C1275 C1279 1.391 . S
C1276 C1275 1.387 . S
C1276 C1277 1.369 . S
C1276 H1285 0.929 . S
C1277 N1274 1.346 . S
C1277 C1276 1.369 . S
C1277 H1280 0.928 . S
C1278 N1274 1.345 . S
C1278 C1279 1.371 . S
C1278 H1281 0.931 . S
C1279 C1275 1.391 . S
C1279 C1278 1.371 . S
C1279 H1286 0.930 . S
H1280 C1277 0.928 . S
H1281 C1278 0.931 . S
H1282 C1258 0.930 . S
H1283 C1255 0.930 . S
H1284 C1264 0.930 . S
H1285 C1276 0.929 . S
H1286 C1279 0.930 . S
C1287 C1288 1.351 . S
C1287 N1290 1.368 . S
C1287 H1292 0.931 . S
C1288 C1287 1.351 . S
C1288 N1289 1.373 . S
C1288 H1316 0.930 . S
N1289 C1288 1.373 . S
N1289 C1291 1.340 . S
N1290 C1287 1.368 . S
N1290 C1291 1.321 . S
N1290 Co1293 2.135 . S
C1291 N1289 1.340 . S
C1291 N1290 1.321 . S
C1291 H1315 0.930 . S
H1292 C1287 0.931 . S
Co1293 N1290 2.135 . S
Co1293 N1296 2.121 . S
Co1293 O1301 2.055 . S
Co1293 O1304 2.039 . S
Co1293 N1307 2.140 . S
C1294 O1295 1.227 . S
C1294 O1304 1.265 . S
O1295 C1294 1.227 . S
N1296 Co1293 2.121 . S
N1296 C1298 1.375 . S
N1296 C1299 1.313 . S
C1297 C1298 1.338 . S
C1297 N1300 1.377 . S
C1297 H1317 0.930 . S
C1298 N1296 1.375 . S
C1298 C1297 1.338 . S
C1298 H1302 0.931 . S
C1299 N1296 1.313 . S
C1299 N1300 1.344 . S
C1299 H1303 0.930 . S
N1300 C1297 1.377 . S
N1300 C1299 1.344 . S
O1301 Co1293 2.055 . S
O1301 C1305 1.253 . S
H1302 C1298 0.931 . S
H1303 C1299 0.930 . S
O1304 Co1293 2.039 . S
O1304 C1294 1.265 . S
C1305 O1301 1.253 . S
C1305 O1306 1.227 . S
O1306 C1305 1.227 . S
N1307 Co1293 2.140 . S
N1307 C1310 1.346 . S
N1307 C1311 1.345 . S
C1308 C1309 1.387 . S
C1308 C1312 1.391 . S
C1309 C1308 1.387 . S
C1309 C1310 1.369 . S
C1309 H1318 0.929 . S
C1310 N1307 1.346 . S
C1310 C1309 1.369 . S
C1310 H1313 0.928 . S
C1311 N1307 1.345 . S
C1311 C1312 1.371 . S
C1311 H1314 0.931 . S
C1312 C1308 1.391 . S
C1312 C1311 1.371 . S
C1312 H1319 0.930 . S
H1313 C1310 0.928 . S
H1314 C1311 0.931 . S
H1315 C1291 0.930 . S
H1316 C1288 0.930 . S
H1317 C1297 0.930 . S
H1318 C1309 0.929 . S
H1319 C1312 0.930 . S
C1320 C1321 1.351 . S
C1320 N1323 1.368 . S
C1320 H1325 0.931 . S
C1321 C1320 1.351 . S
C1321 N1322 1.373 . S
C1321 H1349 0.930 . S
N1322 C1321 1.373 . S
N1322 C1324 1.340 . S
N1323 C1320 1.368 . S
N1323 C1324 1.321 . S
N1323 Co1326 2.135 . S
C1324 N1322 1.340 . S
C1324 N1323 1.321 . S
C1324 H1348 0.930 . S
H1325 C1320 0.931 . S
Co1326 N1323 2.135 . S
Co1326 N1329 2.121 . S
Co1326 O1334 2.055 . S
Co1326 O1337 2.039 . S
Co1326 N1340 2.140 . S
C1327 O1328 1.227 . S
C1327 O1337 1.265 . S
O1328 C1327 1.227 . S
N1329 Co1326 2.121 . S
N1329 C1331 1.375 . S
N1329 C1332 1.313 . S
C1330 C1331 1.338 . S
C1330 N1333 1.377 . S
C1330 H1350 0.930 . S
C1331 N1329 1.375 . S
C1331 C1330 1.338 . S
C1331 H1335 0.931 . S
C1332 N1329 1.313 . S
C1332 N1333 1.344 . S
C1332 H1336 0.930 . S
N1333 C1330 1.377 . S
N1333 C1332 1.344 . S
O1334 Co1326 2.055 . S
O1334 C1338 1.253 . S
H1335 C1331 0.931 . S
H1336 C1332 0.930 . S
O1337 Co1326 2.039 . S
O1337 C1327 1.265 . S
C1338 O1334 1.253 . S
C1338 O1339 1.227 . S
O1339 C1338 1.227 . S
N1340 Co1326 2.140 . S
N1340 C1343 1.346 . S
N1340 C1344 1.345 . S
C1341 C1342 1.387 . S
C1341 C1345 1.391 . S
C1342 C1341 1.387 . S
C1342 C1343 1.369 . S
C1342 H1351 0.929 . S
C1343 N1340 1.346 . S
C1343 C1342 1.369 . S
C1343 H1346 0.928 . S
C1344 N1340 1.345 . S
C1344 C1345 1.371 . S
C1344 H1347 0.931 . S
C1345 C1341 1.391 . S
C1345 C1344 1.371 . S
C1345 H1352 0.930 . S
H1346 C1343 0.928 . S
H1347 C1344 0.931 . S
H1348 C1324 0.930 . S
H1349 C1321 0.930 . S
H1350 C1330 0.930 . S
H1351 C1342 0.929 . S
H1352 C1345 0.930 . S
C1353 C1354 1.351 . S
C1353 N1356 1.368 . S
C1353 H1358 0.931 . S
C1354 C1353 1.351 . S
C1354 N1355 1.373 . S
C1354 H1382 0.930 . S
N1355 C1354 1.373 . S
N1355 C1357 1.340 . S
N1356 C1353 1.368 . S
N1356 C1357 1.321 . S
N1356 Co1359 2.135 . S
C1357 N1355 1.340 . S
C1357 N1356 1.321 . S
C1357 H1381 0.930 . S
H1358 C1353 0.931 . S
Co1359 N1356 2.135 . S
Co1359 N1362 2.121 . S
Co1359 O1367 2.055 . S
Co1359 O1370 2.039 . S
Co1359 N1373 2.140 . S
C1360 O1361 1.227 . S
C1360 O1370 1.265 . S
O1361 C1360 1.227 . S
N1362 Co1359 2.121 . S
N1362 C1364 1.375 . S
N1362 C1365 1.313 . S
C1363 C1364 1.338 . S
C1363 N1366 1.377 . S
C1363 H1383 0.930 . S
C1364 N1362 1.375 . S
C1364 C1363 1.338 . S
C1364 H1368 0.931 . S
C1365 N1362 1.313 . S
C1365 N1366 1.344 . S
C1365 H1369 0.930 . S
N1366 C1363 1.377 . S
N1366 C1365 1.344 . S
O1367 Co1359 2.055 . S
O1367 C1371 1.253 . S
H1368 C1364 0.931 . S
H1369 C1365 0.930 . S
O1370 Co1359 2.039 . S
O1370 C1360 1.265 . S
C1371 O1367 1.253 . S
C1371 O1372 1.227 . S
O1372 C1371 1.227 . S
N1373 Co1359 2.140 . S
N1373 C1376 1.346 . S
N1373 C1377 1.345 . S
C1374 C1375 1.387 . S
C1374 C1378 1.391 . S
C1375 C1374 1.387 . S
C1375 C1376 1.369 . S
C1375 H1384 0.929 . S
C1376 N1373 1.346 . S
C1376 C1375 1.369 . S
C1376 H1379 0.928 . S
C1377 N1373 1.345 . S
C1377 C1378 1.371 . S
C1377 H1380 0.931 . S
C1378 C1374 1.391 . S
C1378 C1377 1.371 . S
C1378 H1385 0.930 . S
H1379 C1376 0.928 . S
H1380 C1377 0.931 . S
H1381 C1357 0.930 . S
H1382 C1354 0.930 . S
H1383 C1363 0.930 . S
H1384 C1375 0.929 . S
H1385 C1378 0.930 . S
C1386 C1387 1.351 . S
C1386 N1389 1.368 . S
C1386 H1391 0.931 . S
C1387 C1386 1.351 . S
C1387 N1388 1.373 . S
C1387 H1415 0.930 . S
N1388 C1387 1.373 . S
N1388 C1390 1.340 . S
N1389 C1386 1.368 . S
N1389 C1390 1.321 . S
N1389 Co1392 2.135 . S
C1390 N1388 1.340 . S
C1390 N1389 1.321 . S
C1390 H1414 0.930 . S
H1391 C1386 0.931 . S
Co1392 N1389 2.135 . S
Co1392 N1395 2.121 . S
Co1392 O1400 2.055 . S
Co1392 O1403 2.039 . S
Co1392 N1406 2.140 . S
C1393 O1394 1.227 . S
C1393 O1403 1.265 . S
O1394 C1393 1.227 . S
N1395 Co1392 2.121 . S
N1395 C1397 1.375 . S
N1395 C1398 1.313 . S
C1396 C1397 1.338 . S
C1396 N1399 1.377 . S
C1396 H1416 0.930 . S
C1397 N1395 1.375 . S
C1397 C1396 1.338 . S
C1397 H1401 0.931 . S
C1398 N1395 1.313 . S
C1398 N1399 1.344 . S
C1398 H1402 0.930 . S
N1399 C1396 1.377 . S
N1399 C1398 1.344 . S
O1400 Co1392 2.055 . S
O1400 C1404 1.253 . S
H1401 C1397 0.931 . S
H1402 C1398 0.930 . S
O1403 Co1392 2.039 . S
O1403 C1393 1.265 . S
C1404 O1400 1.253 . S
C1404 O1405 1.227 . S
O1405 C1404 1.227 . S
N1406 Co1392 2.140 . S
N1406 C1409 1.346 . S
N1406 C1410 1.345 . S
C1407 C1408 1.387 . S
C1407 C1411 1.391 . S
C1408 C1407 1.387 . S
C1408 C1409 1.369 . S
C1408 H1417 0.929 . S
C1409 N1406 1.346 . S
C1409 C1408 1.369 . S
C1409 H1412 0.928 . S
C1410 N1406 1.345 . S
C1410 C1411 1.371 . S
C1410 H1413 0.931 . S
C1411 C1407 1.391 . S
C1411 C1410 1.371 . S
C1411 H1418 0.930 . S
H1412 C1409 0.928 . S
H1413 C1410 0.931 . S
H1414 C1390 0.930 . S
H1415 C1387 0.930 . S
H1416 C1396 0.930 . S
H1417 C1408 0.929 . S
H1418 C1411 0.930 . S
C1419 C1420 1.351 . S
C1419 N1422 1.368 . S
C1419 H1424 0.931 . S
C1420 C1419 1.351 . S
C1420 N1421 1.373 . S
C1420 H1448 0.930 . S
N1421 C1420 1.373 . S
N1421 C1423 1.340 . S
N1422 C1419 1.368 . S
N1422 C1423 1.321 . S
N1422 Co1425 2.135 . S
C1423 N1421 1.340 . S
C1423 N1422 1.321 . S
C1423 H1447 0.930 . S
H1424 C1419 0.931 . S
Co1425 N1422 2.135 . S
Co1425 N1428 2.121 . S
Co1425 O1433 2.055 . S
Co1425 O1436 2.039 . S
Co1425 N1439 2.140 . S
C1426 O1427 1.227 . S
C1426 O1436 1.265 . S
O1427 C1426 1.227 . S
N1428 Co1425 2.121 . S
N1428 C1430 1.375 . S
N1428 C1431 1.313 . S
C1429 C1430 1.338 . S
C1429 N1432 1.377 . S
C1429 H1449 0.930 . S
C1430 N1428 1.375 . S
C1430 C1429 1.338 . S
C1430 H1434 0.931 . S
C1431 N1428 1.313 . S
C1431 N1432 1.344 . S
C1431 H1435 0.930 . S
N1432 C1429 1.377 . S
N1432 C1431 1.344 . S
O1433 Co1425 2.055 . S
O1433 C1437 1.253 . S
H1434 C1430 0.931 . S
H1435 C1431 0.930 . S
O1436 Co1425 2.039 . S
O1436 C1426 1.265 . S
C1437 O1433 1.253 . S
C1437 O1438 1.227 . S
O1438 C1437 1.227 . S
N1439 Co1425 2.140 . S
N1439 C1442 1.346 . S
N1439 C1443 1.345 . S
C1440 C1441 1.387 . S
C1440 C1444 1.391 . S
C1441 C1440 1.387 . S
C1441 C1442 1.369 . S
C1441 H1450 0.929 . S
C1442 N1439 1.346 . S
C1442 C1441 1.369 . S
C1442 H1445 0.928 . S
C1443 N1439 1.345 . S
C1443 C1444 1.371 . S
C1443 H1446 0.931 . S
C1444 C1440 1.391 . S
C1444 C1443 1.371 . S
C1444 H1451 0.930 . S
H1445 C1442 0.928 . S
H1446 C1443 0.931 . S
H1447 C1423 0.930 . S
H1448 C1420 0.930 . S
H1449 C1429 0.930 . S
H1450 C1441 0.929 . S
H1451 C1444 0.930 . S
C1452 C1453 1.351 . S
C1452 N1455 1.368 . S
C1452 H1457 0.931 . S
C1453 C1452 1.351 . S
C1453 N1454 1.373 . S
C1453 H1481 0.930 . S
N1454 C1453 1.373 . S
N1454 C1456 1.340 . S
N1455 C1452 1.368 . S
N1455 C1456 1.321 . S
N1455 Co1458 2.135 . S
C1456 N1454 1.340 . S
C1456 N1455 1.321 . S
C1456 H1480 0.930 . S
H1457 C1452 0.931 . S
Co1458 N1455 2.135 . S
Co1458 N1461 2.121 . S
Co1458 O1466 2.055 . S
Co1458 O1469 2.039 . S
Co1458 N1472 2.140 . S
C1459 O1460 1.227 . S
C1459 O1469 1.265 . S
O1460 C1459 1.227 . S
N1461 Co1458 2.121 . S
N1461 C1463 1.375 . S
N1461 C1464 1.313 . S
C1462 C1463 1.338 . S
C1462 N1465 1.377 . S
C1462 H1482 0.930 . S
C1463 N1461 1.375 . S
C1463 C1462 1.338 . S
C1463 H1467 0.931 . S
C1464 N1461 1.313 . S
C1464 N1465 1.344 . S
C1464 H1468 0.930 . S
N1465 C1462 1.377 . S
N1465 C1464 1.344 . S
O1466 Co1458 2.055 . S
O1466 C1470 1.253 . S
H1467 C1463 0.931 . S
H1468 C1464 0.930 . S
O1469 Co1458 2.039 . S
O1469 C1459 1.265 . S
C1470 O1466 1.253 . S
C1470 O1471 1.227 . S
O1471 C1470 1.227 . S
N1472 Co1458 2.140 . S
N1472 C1475 1.346 . S
N1472 C1476 1.345 . S
C1473 C1474 1.387 . S
C1473 C1477 1.391 . S
C1474 C1473 1.387 . S
C1474 C1475 1.369 . S
C1474 H1483 0.929 . S
C1475 N1472 1.346 . S
C1475 C1474 1.369 . S
C1475 H1478 0.928 . S
C1476 N1472 1.345 . S
C1476 C1477 1.371 . S
C1476 H1479 0.931 . S
C1477 C1473 1.391 . S
C1477 C1476 1.371 . S
C1477 H1484 0.930 . S
H1478 C1475 0.928 . S
H1479 C1476 0.931 . S
H1480 C1456 0.930 . S
H1481 C1453 0.930 . S
H1482 C1462 0.930 . S
H1483 C1474 0.929 . S
H1484 C1477 0.930 . S
C1485 C1486 1.351 . S
C1485 N1488 1.368 . S
C1485 H1490 0.931 . S
C1486 C1485 1.351 . S
C1486 N1487 1.373 . S
C1486 H1514 0.930 . S
N1487 C1486 1.373 . S
N1487 C1489 1.340 . S
N1488 C1485 1.368 . S
N1488 C1489 1.321 . S
N1488 Co1491 2.135 . S
C1489 N1487 1.340 . S
C1489 N1488 1.321 . S
C1489 H1513 0.930 . S
H1490 C1485 0.931 . S
Co1491 N1488 2.135 . S
Co1491 N1494 2.121 . S
Co1491 O1499 2.055 . S
Co1491 O1502 2.039 . S
Co1491 N1505 2.140 . S
C1492 O1493 1.227 . S
C1492 O1502 1.265 . S
O1493 C1492 1.227 . S
N1494 Co1491 2.121 . S
N1494 C1496 1.375 . S
N1494 C1497 1.313 . S
C1495 C1496 1.338 . S
C1495 N1498 1.377 . S
C1495 H1515 0.930 . S
C1496 N1494 1.375 . S
C1496 C1495 1.338 . S
C1496 H1500 0.931 . S
C1497 N1494 1.313 . S
C1497 N1498 1.344 . S
C1497 H1501 0.930 . S
N1498 C1495 1.377 . S
N1498 C1497 1.344 . S
O1499 Co1491 2.055 . S
O1499 C1503 1.253 . S
H1500 C1496 0.931 . S
H1501 C1497 0.930 . S
O1502 Co1491 2.039 . S
O1502 C1492 1.265 . S
C1503 O1499 1.253 . S
C1503 O1504 1.227 . S
O1504 C1503 1.227 . S
N1505 Co1491 2.140 . S
N1505 C1508 1.346 . S
N1505 C1509 1.345 . S
C1506 C1507 1.387 . S
C1506 C1510 1.391 . S
C1507 C1506 1.387 . S
C1507 C1508 1.369 . S
C1507 H1516 0.929 . S
C1508 N1505 1.346 . S
C1508 C1507 1.369 . S
C1508 H1511 0.928 . S
C1509 N1505 1.345 . S
C1509 C1510 1.371 . S
C1509 H1512 0.931 . S
C1510 C1506 1.391 . S
C1510 C1509 1.371 . S
C1510 H1517 0.930 . S
H1511 C1508 0.928 . S
H1512 C1509 0.931 . S
H1513 C1489 0.930 . S
H1514 C1486 0.930 . S
H1515 C1495 0.930 . S
H1516 C1507 0.929 . S
H1517 C1510 0.930 . S
C1518 C1519 1.351 . S
C1518 N1521 1.368 . S
C1518 H1523 0.931 . S
C1519 C1518 1.351 . S
C1519 N1520 1.373 . S
C1519 H1547 0.930 . S
N1520 C1519 1.373 . S
N1520 C1522 1.340 . S
N1521 C1518 1.368 . S
N1521 C1522 1.321 . S
N1521 Co1524 2.135 . S
C1522 N1520 1.340 . S
C1522 N1521 1.321 . S
C1522 H1546 0.930 . S
H1523 C1518 0.931 . S
Co1524 N1521 2.135 . S
Co1524 N1527 2.121 . S
Co1524 O1532 2.055 . S
Co1524 O1535 2.039 . S
Co1524 N1538 2.140 . S
C1525 O1526 1.227 . S
C1525 O1535 1.265 . S
O1526 C1525 1.227 . S
N1527 Co1524 2.121 . S
N1527 C1529 1.375 . S
N1527 C1530 1.313 . S
C1528 C1529 1.338 . S
C1528 N1531 1.377 . S
C1528 H1548 0.930 . S
C1529 N1527 1.375 . S
C1529 C1528 1.338 . S
C1529 H1533 0.931 . S
C1530 N1527 1.313 . S
C1530 N1531 1.344 . S
C1530 H1534 0.930 . S
N1531 C1528 1.377 . S
N1531 C1530 1.344 . S
O1532 Co1524 2.055 . S
O1532 C1536 1.253 . S
H1533 C1529 0.931 . S
H1534 C1530 0.930 . S
O1535 Co1524 2.039 . S
O1535 C1525 1.265 . S
C1536 O1532 1.253 . S
C1536 O1537 1.227 . S
O1537 C1536 1.227 . S
N1538 Co1524 2.140 . S
N1538 C1541 1.346 . S
N1538 C1542 1.345 . S
C1539 C1540 1.387 . S
C1539 C1543 1.391 . S
C1540 C1539 1.387 . S
C1540 C1541 1.369 . S
C1540 H1549 0.929 . S
C1541 N1538 1.346 . S
C1541 C1540 1.369 . S
C1541 H1544 0.928 . S
C1542 N1538 1.345 . S
C1542 C1543 1.371 . S
C1542 H1545 0.931 . S
C1543 C1539 1.391 . S
C1543 C1542 1.371 . S
C1543 H1550 0.930 . S
H1544 C1541 0.928 . S
H1545 C1542 0.931 . S
H1546 C1522 0.930 . S
H1547 C1519 0.930 . S
H1548 C1528 0.930 . S
H1549 C1540 0.929 . S
H1550 C1543 0.930 . S
C1551 C1552 1.351 . S
C1551 N1554 1.368 . S
C1551 H1556 0.931 . S
C1552 C1551 1.351 . S
C1552 N1553 1.373 . S
C1552 H1580 0.930 . S
N1553 C1552 1.373 . S
N1553 C1555 1.340 . S
N1554 C1551 1.368 . S
N1554 C1555 1.321 . S
N1554 Co1557 2.135 . S
C1555 N1553 1.340 . S
C1555 N1554 1.321 . S
C1555 H1579 0.930 . S
H1556 C1551 0.931 . S
Co1557 N1554 2.135 . S
Co1557 N1560 2.121 . S
Co1557 O1565 2.055 . S
Co1557 O1568 2.039 . S
Co1557 N1571 2.140 . S
C1558 O1559 1.227 . S
C1558 O1568 1.265 . S
O1559 C1558 1.227 . S
N1560 Co1557 2.121 . S
N1560 C1562 1.375 . S
N1560 C1563 1.313 . S
C1561 C1562 1.338 . S
C1561 N1564 1.377 . S
C1561 H1581 0.930 . S
C1562 N1560 1.375 . S
C1562 C1561 1.338 . S
C1562 H1566 0.931 . S
C1563 N1560 1.313 . S
C1563 N1564 1.344 . S
C1563 H1567 0.930 . S
N1564 C1561 1.377 . S
N1564 C1563 1.344 . S
O1565 Co1557 2.055 . S
O1565 C1569 1.253 . S
H1566 C1562 0.931 . S
H1567 C1563 0.930 . S
O1568 Co1557 2.039 . S
O1568 C1558 1.265 . S
C1569 O1565 1.253 . S
C1569 O1570 1.227 . S
O1570 C1569 1.227 . S
N1571 Co1557 2.140 . S
N1571 C1574 1.346 . S
N1571 C1575 1.345 . S
C1572 C1573 1.387 . S
C1572 C1576 1.391 . S
C1573 C1572 1.387 . S
C1573 C1574 1.369 . S
C1573 H1582 0.929 . S
C1574 N1571 1.346 . S
C1574 C1573 1.369 . S
C1574 H1577 0.928 . S
C1575 N1571 1.345 . S
C1575 C1576 1.371 . S
C1575 H1578 0.931 . S
C1576 C1572 1.391 . S
C1576 C1575 1.371 . S
C1576 H1583 0.930 . S
H1577 C1574 0.928 . S
H1578 C1575 0.931 . S
H1579 C1555 0.930 . S
H1580 C1552 0.930 . S
H1581 C1561 0.930 . S
H1582 C1573 0.929 . S
H1583 C1576 0.930 . S
H1584 C1592 0.950 . S
H1585 C1597 0.950 . S
H1586 C1594 0.950 . S
H1587 C1596 0.950 . S
H1588 C1598 0.950 . S
H1589 C1600 0.950 . S
H1590 C1602 0.950 . S
H1591 C1603 0.950 . S
C1592 H1584 0.950 . S
C1592 C1593 1.386 . S
C1592 C1594 1.391 . S
C1593 C1592 1.386 . S
C1593 C1597 1.393 . S
C1594 H1586 0.950 . S
C1594 C1592 1.391 . S
C1594 C1595 1.400 1_554 S
C1595 C1594 1.400 1_556 S
C1595 C1596 1.398 . S
C1595 C1601 1.491 . S
C1596 H1587 0.950 . S
C1596 C1595 1.398 . S
C1596 C1597 1.391 1_556 S
C1597 H1585 0.950 . S
C1597 C1593 1.393 . S
C1597 C1596 1.391 1_554 S
C1598 H1588 0.950 . S
C1598 C1599 1.386 . S
C1598 C1600 1.391 . S
C1599 C1598 1.386 . S
C1599 C1603 1.393 . S
C1600 H1589 0.950 . S
C1600 C1598 1.391 . S
C1600 C1601 1.400 . S
C1601 C1595 1.491 . S
C1601 C1600 1.400 . S
C1601 C1602 1.398 . S
C1602 H1590 0.950 . S
C1602 C1601 1.398 . S
C1602 C1603 1.391 . S
C1603 H1591 0.950 . S
C1603 C1599 1.393 . S
C1603 C1602 1.391 . S
H1604 C1612 0.950 . S
H1605 C1617 0.950 . S
H1606 C1614 0.950 . S
H1607 C1616 0.950 . S
H1608 C1618 0.950 . S
H1609 C1620 0.950 . S
H1610 C1622 0.950 . S
H1611 C1623 0.950 . S
C1612 H1604 0.950 . S
C1612 C1613 1.386 . S
C1612 C1614 1.391 . S
C1613 C1612 1.386 . S
C1613 C1617 1.393 . S
C1614 H1606 0.950 . S
C1614 C1612 1.391 . S
C1614 C1615 1.400 . S
C1615 C1614 1.400 . S
C1615 C1616 1.398 . S
C1615 C1621 1.491 . S
C1616 H1607 0.950 . S
C1616 C1615 1.398 . S
C1616 C1617 1.391 . S
C1617 H1605 0.950 . S
C1617 C1613 1.393 . S
C1617 C1616 1.391 . S
C1618 H1608 0.950 . S
C1618 C1619 1.386 . S
C1618 C1620 1.391 . S
C1619 C1618 1.386 . S
C1619 C1623 1.393 . S
C1620 H1609 0.950 . S
C1620 C1618 1.391 . S
C1620 C1621 1.400 . S
C1621 C1615 1.491 . S
C1621 C1620 1.400 . S
C1621 C1622 1.398 . S
C1622 H1610 0.950 . S
C1622 C1621 1.398 . S
C1622 C1623 1.391 . S
C1623 H1611 0.950 . S
C1623 C1619 1.393 . S
C1623 C1622 1.391 . S
H1624 C1632 0.950 . S
H1625 C1637 0.950 . S
H1626 C1634 0.950 . S
H1627 C1636 0.950 . S
H1628 C1638 0.950 . S
H1629 C1640 0.950 . S
H1630 C1642 0.950 . S
H1631 C1643 0.950 . S
C1632 H1624 0.950 . S
C1632 C1633 1.386 . S
C1632 C1634 1.391 . S
C1633 C1632 1.386 . S
C1633 C1637 1.393 . S
C1634 H1626 0.950 . S
C1634 C1632 1.391 . S
C1634 C1635 1.400 . S
C1635 C1634 1.400 . S
C1635 C1636 1.398 . S
C1635 C1641 1.491 . S
C1636 H1627 0.950 . S
C1636 C1635 1.398 . S
C1636 C1637 1.391 . S
C1637 H1625 0.950 . S
C1637 C1633 1.393 . S
C1637 C1636 1.391 . S
C1638 H1628 0.950 . S
C1638 C1639 1.386 . S
C1638 C1640 1.391 . S
C1639 C1638 1.386 . S
C1639 C1643 1.393 . S
C1640 H1629 0.950 . S
C1640 C1638 1.391 . S
C1640 C1641 1.400 . S
C1641 C1635 1.491 . S
C1641 C1640 1.400 . S
C1641 C1642 1.398 . S
C1642 H1630 0.950 . S
C1642 C1641 1.398 . S
C1642 C1643 1.391 . S
C1643 H1631 0.950 . S
C1643 C1639 1.393 . S
C1643 C1642 1.391 . S
H1644 C1652 0.950 . S
H1645 C1657 0.950 . S
H1646 C1654 0.950 . S
H1647 C1656 0.950 . S
H1648 C1658 0.950 . S
H1649 C1660 0.950 . S
H1650 C1662 0.950 . S
H1651 C1663 0.950 . S
C1652 H1644 0.950 . S
C1652 C1653 1.386 . S
C1652 C1654 1.391 . S
C1653 C1652 1.386 . S
C1653 C1657 1.393 . S
C1654 H1646 0.950 . S
C1654 C1652 1.391 . S
C1654 C1655 1.400 . S
C1655 C1654 1.400 . S
C1655 C1656 1.398 . S
C1655 C1661 1.491 . S
C1656 H1647 0.950 . S
C1656 C1655 1.398 . S
C1656 C1657 1.391 . S
C1657 H1645 0.950 . S
C1657 C1653 1.393 . S
C1657 C1656 1.391 . S
C1658 H1648 0.950 . S
C1658 C1659 1.386 . S
C1658 C1660 1.391 . S
C1659 C1658 1.386 . S
C1659 C1663 1.393 . S
C1660 H1649 0.950 . S
C1660 C1658 1.391 . S
C1660 C1661 1.400 . S
C1661 C1655 1.491 . S
C1661 C1660 1.400 . S
C1661 C1662 1.398 . S
C1662 H1650 0.950 . S
C1662 C1661 1.398 . S
C1662 C1663 1.391 . S
C1663 H1651 0.950 . S
C1663 C1659 1.393 . S
C1663 C1662 1.391 . S
H1664 C1672 0.950 . S
H1665 C1677 0.950 . S
H1666 C1674 0.950 . S
H1667 C1676 0.950 . S
H1668 C1678 0.950 . S
H1669 C1680 0.950 . S
H1670 C1682 0.950 . S
H1671 C1683 0.950 . S
C1672 H1664 0.950 . S
C1672 C1673 1.386 . S
C1672 C1674 1.391 . S
C1673 C1672 1.386 . S
C1673 C1677 1.393 . S
C1674 H1666 0.950 . S
C1674 C1672 1.391 . S
C1674 C1675 1.400 . S
C1675 C1674 1.400 . S
C1675 C1676 1.398 . S
C1675 C1681 1.491 . S
C1676 H1667 0.950 . S
C1676 C1675 1.398 . S
C1676 C1677 1.391 . S
C1677 H1665 0.950 . S
C1677 C1673 1.393 . S
C1677 C1676 1.391 . S
C1678 H1668 0.950 . S
C1678 C1679 1.386 . S
C1678 C1680 1.391 . S
C1679 C1678 1.386 . S
C1679 C1683 1.393 . S
C1680 H1669 0.950 . S
C1680 C1678 1.391 . S
C1680 C1681 1.400 . S
C1681 C1675 1.491 . S
C1681 C1680 1.400 . S
C1681 C1682 1.398 . S
C1682 H1670 0.950 . S
C1682 C1681 1.398 . S
C1682 C1683 1.391 . S
C1683 H1671 0.950 . S
C1683 C1679 1.393 . S
C1683 C1682 1.391 . S
H1684 C1692 0.950 . S
H1685 C1697 0.950 . S
H1686 C1694 0.950 . S
H1687 C1696 0.950 . S
H1688 C1698 0.950 . S
H1689 C1700 0.950 . S
H1690 C1702 0.950 . S
H1691 C1703 0.950 . S
C1692 H1684 0.950 . S
C1692 C1693 1.386 . S
C1692 C1694 1.391 . S
C1693 C1692 1.386 . S
C1693 C1697 1.393 . S
C1694 H1686 0.950 . S
C1694 C1692 1.391 . S
C1694 C1695 1.400 . S
C1695 C1694 1.400 . S
C1695 C1696 1.398 . S
C1695 C1701 1.491 . S
C1696 H1687 0.950 . S
C1696 C1695 1.398 . S
C1696 C1697 1.391 . S
C1697 H1685 0.950 . S
C1697 C1693 1.393 . S
C1697 C1696 1.391 . S
C1698 H1688 0.950 . S
C1698 C1699 1.386 . S
C1698 C1700 1.391 . S
C1699 C1698 1.386 . S
C1699 C1703 1.393 . S
C1700 H1689 0.950 . S
C1700 C1698 1.391 . S
C1700 C1701 1.400 . S
C1701 C1695 1.491 . S
C1701 C1700 1.400 . S
C1701 C1702 1.398 . S
C1702 H1690 0.950 . S
C1702 C1701 1.398 . S
C1702 C1703 1.391 . S
C1703 H1691 0.950 . S
C1703 C1699 1.393 . S
C1703 C1702 1.391 . S
H1704 C1712 0.950 . S
H1705 C1717 0.950 . S
H1706 C1714 0.950 . S
H1707 C1716 0.950 . S
H1708 C1718 0.950 . S
H1709 C1720 0.950 . S
H1710 C1722 0.950 . S
H1711 C1723 0.950 . S
C1712 H1704 0.950 . S
C1712 C1713 1.386 . S
C1712 C1714 1.391 . S
C1713 C1712 1.386 . S
C1713 C1717 1.393 . S
C1714 H1706 0.950 . S
C1714 C1712 1.391 . S
C1714 C1715 1.400 . S
C1715 C1714 1.400 . S
C1715 C1716 1.398 . S
C1715 C1721 1.491 1_556 S
C1716 H1707 0.950 . S
C1716 C1715 1.398 . S
C1716 C1717 1.391 . S
C1717 H1705 0.950 . S
C1717 C1713 1.393 . S
C1717 C1716 1.391 . S
C1718 H1708 0.950 . S
C1718 C1719 1.386 . S
C1718 C1720 1.391 . S
C1719 C1718 1.386 . S
C1719 C1723 1.393 . S
C1720 H1709 0.950 . S
C1720 C1718 1.391 . S
C1720 C1721 1.400 . S
C1721 C1715 1.491 1_554 S
C1721 C1720 1.400 . S
C1721 C1722 1.398 . S
C1722 H1710 0.950 . S
C1722 C1721 1.398 . S
C1722 C1723 1.391 . S
C1723 H1711 0.950 . S
C1723 C1719 1.393 . S
C1723 C1722 1.391 . S
H1724 C1732 0.950 . S
H1725 C1737 0.950 . S
H1726 C1734 0.950 . S
H1727 C1736 0.950 . S
H1728 C1738 0.950 . S
H1729 C1740 0.950 . S
H1730 C1742 0.950 . S
H1731 C1743 0.950 . S
C1732 H1724 0.950 . S
C1732 C1733 1.386 . S
C1732 C1734 1.391 . S
C1733 C1732 1.386 . S
C1733 C1737 1.393 . S
C1734 H1726 0.950 . S
C1734 C1732 1.391 . S
C1734 C1735 1.400 . S
C1735 C1734 1.400 . S
C1735 C1736 1.398 . S
C1735 C1741 1.491 . S
C1736 H1727 0.950 . S
C1736 C1735 1.398 . S
C1736 C1737 1.391 . S
C1737 H1725 0.950 . S
C1737 C1733 1.393 . S
C1737 C1736 1.391 . S
C1738 H1728 0.950 . S
C1738 C1739 1.386 . S
C1738 C1740 1.391 . S
C1739 C1738 1.386 . S
C1739 C1743 1.393 . S
C1740 H1729 0.950 . S
C1740 C1738 1.391 . S
C1740 C1741 1.400 . S
C1741 C1735 1.491 . S
C1741 C1740 1.400 . S
C1741 C1742 1.398 . S
C1742 H1730 0.950 . S
C1742 C1741 1.398 . S
C1742 C1743 1.391 . S
C1743 H1731 0.950 . S
C1743 C1739 1.393 . S
C1743 C1742 1.391 . S
H1744 C1752 0.950 . S
H1745 C1757 0.950 . S
H1746 C1754 0.950 . S
H1747 C1756 0.950 . S
H1748 C1758 0.950 . S
H1749 C1760 0.950 . S
H1750 C1762 0.950 . S
H1751 C1763 0.950 . S
C1752 H1744 0.950 . S
C1752 C1753 1.386 . S
C1752 C1754 1.391 . S
C1753 C1752 1.386 . S
C1753 C1757 1.393 . S
C1754 H1746 0.950 . S
C1754 C1752 1.391 . S
C1754 C1755 1.400 . S
C1755 C1754 1.400 . S
C1755 C1756 1.398 . S
C1755 C1761 1.491 . S
C1756 H1747 0.950 . S
C1756 C1755 1.398 . S
C1756 C1757 1.391 . S
C1757 H1745 0.950 . S
C1757 C1753 1.393 . S
C1757 C1756 1.391 . S
C1758 H1748 0.950 . S
C1758 C1759 1.386 . S
C1758 C1760 1.391 1_455 S
C1759 C1758 1.386 . S
C1759 C1763 1.393 1_455 S
C1760 H1749 0.950 . S
C1760 C1758 1.391 1_655 S
C1760 C1761 1.400 . S
C1761 C1755 1.491 . S
C1761 C1760 1.400 . S
C1761 C1762 1.398 . S
C1762 H1750 0.950 . S
C1762 C1761 1.398 . S
C1762 C1763 1.391 . S
C1763 H1751 0.950 . S
C1763 C1759 1.393 1_655 S
C1763 C1762 1.391 . S
H1764 C1772 0.950 . S
H1765 C1777 0.950 . S
H1766 C1774 0.950 . S
H1767 C1776 0.950 . S
H1768 C1778 0.950 . S
H1769 C1780 0.950 . S
H1770 C1782 0.950 . S
H1771 C1783 0.950 . S
C1772 H1764 0.950 . S
C1772 C1773 1.386 . S
C1772 C1774 1.391 . S
C1773 C1772 1.386 . S
C1773 C1777 1.393 . S
C1774 H1766 0.950 . S
C1774 C1772 1.391 . S
C1774 C1775 1.400 . S
C1775 C1774 1.400 . S
C1775 C1776 1.398 . S
C1775 C1781 1.491 . S
C1776 H1767 0.950 . S
C1776 C1775 1.398 . S
C1776 C1777 1.391 . S
C1777 H1765 0.950 . S
C1777 C1773 1.393 . S
C1777 C1776 1.391 . S
C1778 H1768 0.950 . S
C1778 C1779 1.386 . S
C1778 C1780 1.391 . S
C1779 C1778 1.386 . S
C1779 C1783 1.393 . S
C1780 H1769 0.950 . S
C1780 C1778 1.391 . S
C1780 C1781 1.400 . S
C1781 C1775 1.491 . S
C1781 C1780 1.400 . S
C1781 C1782 1.398 . S
C1782 H1770 0.950 . S
C1782 C1781 1.398 . S
C1782 C1783 1.391 . S
C1783 H1771 0.950 . S
C1783 C1779 1.393 . S
C1783 C1782 1.391 . S
H1784 C1792 0.950 . S
H1785 C1797 0.950 . S
H1786 C1794 0.950 . S
H1787 C1796 0.950 . S
H1788 C1798 0.950 . S
H1789 C1800 0.950 . S
H1790 C1802 0.950 . S
H1791 C1803 0.950 . S
C1792 H1784 0.950 . S
C1792 C1793 1.386 . S
C1792 C1794 1.391 . S
C1793 C1792 1.386 . S
C1793 C1797 1.393 . S
C1794 H1786 0.950 . S
C1794 C1792 1.391 . S
C1794 C1795 1.400 . S
C1795 C1794 1.400 . S
C1795 C1796 1.398 . S
C1795 C1801 1.491 . S
C1796 H1787 0.950 . S
C1796 C1795 1.398 . S
C1796 C1797 1.391 . S
C1797 H1785 0.950 . S
C1797 C1793 1.393 . S
C1797 C1796 1.391 . S
C1798 H1788 0.950 . S
C1798 C1799 1.386 . S
C1798 C1800 1.391 . S
C1799 C1798 1.386 . S
C1799 C1803 1.393 . S
C1800 H1789 0.950 . S
C1800 C1798 1.391 . S
C1800 C1801 1.400 . S
C1801 C1795 1.491 . S
C1801 C1800 1.400 . S
C1801 C1802 1.398 . S
C1802 H1790 0.950 . S
C1802 C1801 1.398 . S
C1802 C1803 1.391 . S
C1803 H1791 0.950 . S
C1803 C1799 1.393 . S
C1803 C1802 1.391 . S
H1804 C1812 0.950 . S
H1805 C1817 0.950 . S
H1806 C1814 0.950 . S
H1807 C1816 0.950 . S
H1808 C1818 0.950 . S
H1809 C1820 0.950 . S
H1810 C1822 0.950 . S
H1811 C1823 0.950 . S
C1812 H1804 0.950 . S
C1812 C1813 1.386 . S
C1812 C1814 1.391 . S
C1813 C1812 1.386 . S
C1813 C1817 1.393 . S
C1814 H1806 0.950 . S
C1814 C1812 1.391 . S
C1814 C1815 1.400 . S
C1815 C1814 1.400 . S
C1815 C1816 1.398 . S
C1815 C1821 1.491 . S
C1816 H1807 0.950 . S
C1816 C1815 1.398 . S
C1816 C1817 1.391 . S
C1817 H1805 0.950 . S
C1817 C1813 1.393 . S
C1817 C1816 1.391 . S
C1818 H1808 0.950 . S
C1818 C1819 1.386 . S
C1818 C1820 1.391 . S
C1819 C1818 1.386 . S
C1819 C1823 1.393 . S
C1820 H1809 0.950 . S
C1820 C1818 1.391 . S
C1820 C1821 1.400 . S
C1821 C1815 1.491 . S
C1821 C1820 1.400 . S
C1821 C1822 1.398 . S
C1822 H1810 0.950 . S
C1822 C1821 1.398 . S
C1822 C1823 1.391 . S
C1823 H1811 0.950 . S
C1823 C1819 1.393 . S
C1823 C1822 1.391 . S
H1824 C1832 0.950 . S
H1825 C1837 0.952 . S
H1826 C1834 0.950 . S
H1827 C1836 0.950 . S
H1828 C1838 0.950 . S
H1829 C1840 0.950 . S
H1830 C1842 0.950 . S
H1831 C1843 0.950 . S
C1832 H1824 0.950 . S
C1832 C1833 1.386 . S
C1832 C1834 1.391 . S
C1833 C1832 1.386 . S
C1833 C1837 1.393 . S
C1834 H1826 0.950 . S
C1834 C1832 1.391 . S
C1834 C1835 1.400 1_455 S
C1835 C1834 1.400 1_655 S
C1835 C1836 1.398 . S
C1835 C1841 1.491 . S
C1836 H1827 0.950 . S
C1836 C1835 1.398 . S
C1836 C1837 1.391 1_655 S
C1837 H1825 0.952 . S
C1837 C1833 1.393 . S
C1837 C1836 1.391 1_455 S
C1838 H1828 0.950 . S
C1838 C1839 1.386 . S
C1838 C1840 1.391 . S
C1839 C1838 1.386 . S
C1839 C1843 1.393 . S
C1840 H1829 0.950 . S
C1840 C1838 1.391 . S
C1840 C1841 1.400 . S
C1841 C1835 1.491 . S
C1841 C1840 1.400 . S
C1841 C1842 1.398 . S
C1842 H1830 0.950 . S
C1842 C1841 1.398 . S
C1842 C1843 1.391 . S
C1843 H1831 0.950 . S
C1843 C1839 1.393 . S
C1843 C1842 1.391 . S
H1844 C1852 0.950 . S
H1845 C1857 0.950 . S
H1846 C1854 0.950 . S
H1847 C1856 0.950 . S
H1848 C1858 0.950 . S
H1849 C1860 0.950 . S
H1850 C1862 0.950 . S
H1851 C1863 0.950 . S
C1852 H1844 0.950 . S
C1852 C1853 1.386 . S
C1852 C1854 1.391 . S
C1853 C1852 1.386 . S
C1853 C1857 1.393 . S
C1854 H1846 0.950 . S
C1854 C1852 1.391 . S
C1854 C1855 1.400 . S
C1855 C1854 1.400 . S
C1855 C1856 1.398 . S
C1855 C1861 1.491 . S
C1856 H1847 0.950 . S
C1856 C1855 1.398 . S
C1856 C1857 1.391 . S
C1857 H1845 0.950 . S
C1857 C1853 1.393 . S
C1857 C1856 1.391 . S
C1858 H1848 0.950 . S
C1858 C1859 1.386 . S
C1858 C1860 1.391 . S
C1859 C1858 1.386 . S
C1859 C1863 1.393 . S
C1860 H1849 0.950 . S
C1860 C1858 1.391 . S
C1860 C1861 1.400 . S
C1861 C1855 1.491 . S
C1861 C1860 1.400 . S
C1861 C1862 1.398 . S
C1862 H1850 0.950 . S
C1862 C1861 1.398 . S
C1862 C1863 1.391 . S
C1863 H1851 0.950 . S
C1863 C1859 1.393 . S
C1863 C1862 1.391 . S
H1864 C1872 0.950 . S
H1865 C1877 0.950 . S
H1866 C1874 0.950 . S
H1867 C1876 0.950 . S
H1868 C1878 0.950 . S
H1869 C1880 0.950 . S
H1870 C1882 0.950 . S
H1871 C1883 0.950 . S
C1872 H1864 0.950 . S
C1872 C1873 1.386 . S
C1872 C1874 1.391 . S
C1873 C1872 1.386 . S
C1873 C1877 1.393 . S
C1874 H1866 0.950 . S
C1874 C1872 1.391 . S
C1874 C1875 1.400 . S
C1875 C1874 1.400 . S
C1875 C1876 1.398 . S
C1875 C1881 1.491 . S
C1876 H1867 0.950 . S
C1876 C1875 1.398 . S
C1876 C1877 1.391 . S
C1877 H1865 0.950 . S
C1877 C1873 1.393 . S
C1877 C1876 1.391 . S
C1878 H1868 0.950 . S
C1878 C1879 1.386 . S
C1878 C1880 1.391 . S
C1879 C1878 1.386 . S
C1879 C1883 1.393 . S
C1880 H1869 0.950 . S
C1880 C1878 1.391 . S
C1880 C1881 1.400 . S
C1881 C1875 1.491 . S
C1881 C1880 1.400 . S
C1881 C1882 1.398 . S
C1882 H1870 0.950 . S
C1882 C1881 1.398 . S
C1882 C1883 1.391 . S
C1883 H1871 0.950 . S
C1883 C1879 1.393 . S
C1883 C1882 1.391 . S
H1884 C1892 0.950 . S
H1885 C1897 0.950 . S
H1886 C1894 0.950 . S
H1887 C1896 0.950 . S
H1888 C1898 0.950 . S
H1889 C1900 0.950 . S
H1890 C1902 0.950 . S
H1891 C1903 0.950 . S
C1892 H1884 0.950 . S
C1892 C1893 1.386 . S
C1892 C1894 1.391 . S
C1893 C1892 1.386 . S
C1893 C1897 1.393 . S
C1894 H1886 0.950 . S
C1894 C1892 1.391 . S
C1894 C1895 1.400 . S
C1895 C1894 1.400 . S
C1895 C1896 1.398 . S
C1895 C1901 1.491 . S
C1896 H1887 0.950 . S
C1896 C1895 1.398 . S
C1896 C1897 1.391 . S
C1897 H1885 0.950 . S
C1897 C1893 1.393 . S
C1897 C1896 1.391 . S
C1898 H1888 0.950 . S
C1898 C1899 1.386 . S
C1898 C1900 1.391 . S
C1899 C1898 1.386 . S
C1899 C1903 1.393 . S
C1900 H1889 0.950 . S
C1900 C1898 1.391 . S
C1900 C1901 1.400 . S
C1901 C1895 1.491 . S
C1901 C1900 1.400 . S
C1901 C1902 1.398 . S
C1902 H1890 0.950 . S
C1902 C1901 1.398 . S
C1902 C1903 1.391 . S
C1903 H1891 0.950 . S
C1903 C1899 1.393 . S
C1903 C1902 1.391 . S
H1904 C1912 0.950 . S
H1905 C1917 0.950 . S
H1906 C1914 0.950 . S
H1907 C1916 0.950 . S
H1908 C1918 0.950 . S
H1909 C1920 0.950 . S
H1910 C1922 0.950 . S
H1911 C1923 0.950 . S
C1912 H1904 0.950 . S
C1912 C1913 1.386 . S
C1912 C1914 1.391 . S
C1913 C1912 1.386 . S
C1913 C1917 1.393 . S
C1914 H1906 0.950 . S
C1914 C1912 1.391 . S
C1914 C1915 1.400 . S
C1915 C1914 1.400 . S
C1915 C1916 1.398 . S
C1915 C1921 1.491 . S
C1916 H1907 0.950 . S
C1916 C1915 1.398 . S
C1916 C1917 1.391 . S
C1917 H1905 0.950 . S
C1917 C1913 1.393 . S
C1917 C1916 1.391 . S
C1918 H1908 0.950 . S
C1918 C1919 1.386 . S
C1918 C1920 1.391 . S
C1919 C1918 1.386 . S
C1919 C1923 1.393 . S
C1920 H1909 0.950 . S
C1920 C1918 1.391 . S
C1920 C1921 1.400 1_545 S
C1921 C1915 1.491 . S
C1921 C1920 1.400 1_565 S
C1921 C1922 1.398 . S
C1922 H1910 0.950 . S
C1922 C1921 1.398 . S
C1922 C1923 1.391 1_565 S
C1923 H1911 0.950 . S
C1923 C1919 1.393 . S
C1923 C1922 1.391 1_545 S
H1924 C1932 0.950 . S
H1925 C1937 0.950 . S
H1926 C1934 0.950 . S
H1927 C1936 0.950 . S
H1928 C1938 0.950 . S
H1929 C1940 0.950 . S
H1930 C1942 0.950 . S
H1931 C1943 0.950 . S
C1932 H1924 0.950 . S
C1932 C1933 1.386 . S
C1932 C1934 1.391 . S
C1933 C1932 1.386 . S
C1933 C1937 1.393 . S
C1934 H1926 0.950 . S
C1934 C1932 1.391 . S
C1934 C1935 1.400 . S
C1935 C1934 1.400 . S
C1935 C1936 1.398 . S
C1935 C1941 1.491 . S
C1936 H1927 0.950 . S
C1936 C1935 1.398 . S
C1936 C1937 1.391 . S
C1937 H1925 0.950 . S
C1937 C1933 1.393 . S
C1937 C1936 1.391 . S
C1938 H1928 0.950 . S
C1938 C1939 1.386 . S
C1938 C1940 1.391 . S
C1939 C1938 1.386 . S
C1939 C1943 1.393 . S
C1940 H1929 0.950 . S
C1940 C1938 1.391 . S
C1940 C1941 1.400 . S
C1941 C1935 1.491 . S
C1941 C1940 1.400 . S
C1941 C1942 1.398 . S
C1942 H1930 0.950 . S
C1942 C1941 1.398 . S
C1942 C1943 1.391 . S
C1943 H1931 0.950 . S
C1943 C1939 1.393 . S
C1943 C1942 1.391 . S
H1944 C1952 0.950 . S
H1945 C1957 0.950 . S
H1946 C1954 0.950 . S
H1947 C1956 0.950 . S
H1948 C1958 0.950 . S
H1949 C1960 0.950 . S
H1950 C1962 0.950 . S
H1951 C1963 0.950 . S
C1952 H1944 0.950 . S
C1952 C1953 1.386 . S
C1952 C1954 1.391 . S
C1953 C1952 1.386 . S
C1953 C1957 1.393 . S
C1954 H1946 0.950 . S
C1954 C1952 1.391 . S
C1954 C1955 1.400 . S
C1955 C1954 1.400 . S
C1955 C1956 1.398 . S
C1955 C1961 1.491 . S
C1956 H1947 0.950 . S
C1956 C1955 1.398 . S
C1956 C1957 1.391 . S
C1957 H1945 0.950 . S
C1957 C1953 1.393 . S
C1957 C1956 1.391 . S
C1958 H1948 0.950 . S
C1958 C1959 1.386 . S
C1958 C1960 1.391 . S
C1959 C1958 1.386 . S
C1959 C1963 1.393 . S
C1960 H1949 0.950 . S
C1960 C1958 1.391 . S
C1960 C1961 1.400 . S
C1961 C1955 1.491 . S
C1961 C1960 1.400 . S
C1961 C1962 1.398 . S
C1962 H1950 0.950 . S
C1962 C1961 1.398 . S
C1962 C1963 1.391 . S
C1963 H1951 0.950 . S
C1963 C1959 1.393 . S
C1963 C1962 1.391 . S
H1964 C1972 0.950 . S
H1965 C1977 0.950 . S
H1966 C1974 0.950 . S
H1967 C1976 0.950 . S
H1968 C1978 0.950 . S
H1969 C1980 0.950 . S
H1970 C1982 0.950 . S
H1971 C1983 0.950 . S
C1972 H1964 0.950 . S
C1972 C1973 1.386 . S
C1972 C1974 1.391 . S
C1973 C1972 1.386 . S
C1973 C1977 1.393 . S
C1974 H1966 0.950 . S
C1974 C1972 1.391 . S
C1974 C1975 1.400 . S
C1975 C1974 1.400 . S
C1975 C1976 1.398 . S
C1975 C1981 1.491 . S
C1976 H1967 0.950 . S
C1976 C1975 1.398 . S
C1976 C1977 1.391 . S
C1977 H1965 0.950 . S
C1977 C1973 1.393 . S
C1977 C1976 1.391 . S
C1978 H1968 0.950 . S
C1978 C1979 1.386 . S
C1978 C1980 1.391 . S
C1979 C1978 1.386 . S
C1979 C1983 1.393 . S
C1980 H1969 0.950 . S
C1980 C1978 1.391 . S
C1980 C1981 1.400 . S
C1981 C1975 1.491 . S
C1981 C1980 1.400 . S
C1981 C1982 1.398 . S
C1982 H1970 0.950 . S
C1982 C1981 1.398 . S
C1982 C1983 1.391 . S
C1983 H1971 0.950 . S
C1983 C1979 1.393 . S
C1983 C1982 1.391 . S
H1984 C1992 0.950 . S
H1985 C1997 0.950 . S
H1986 C1994 0.950 . S
H1987 C1996 0.950 . S
H1988 C1998 0.950 . S
H1989 C2000 0.950 . S
H1990 C2002 0.950 . S
H1991 C2003 0.950 . S
C1992 H1984 0.950 . S
C1992 C1993 1.386 . S
C1992 C1994 1.391 . S
C1993 C1992 1.386 . S
C1993 C1997 1.393 . S
C1994 H1986 0.950 . S
C1994 C1992 1.391 . S
C1994 C1995 1.400 . S
C1995 C1994 1.400 . S
C1995 C1996 1.398 . S
C1995 C2001 1.491 . S
C1996 H1987 0.950 . S
C1996 C1995 1.398 . S
C1996 C1997 1.391 . S
C1997 H1985 0.950 . S
C1997 C1993 1.393 . S
C1997 C1996 1.391 . S
C1998 H1988 0.950 . S
C1998 C1999 1.386 . S
C1998 C2000 1.391 . S
C1999 C1998 1.386 . S
C1999 C2003 1.393 . S
C2000 H1989 0.950 . S
C2000 C1998 1.391 . S
C2000 C2001 1.400 . S
C2001 C1995 1.491 . S
C2001 C2000 1.400 . S
C2001 C2002 1.398 . S
C2002 H1990 0.950 . S
C2002 C2001 1.398 . S
C2002 C2003 1.391 . S
C2003 H1991 0.950 . S
C2003 C1999 1.393 . S
C2003 C2002 1.391 . S
H2004 C2012 0.950 . S
H2005 C2017 0.950 . S
H2006 C2014 0.950 . S
H2007 C2016 0.950 . S
H2008 C2018 0.950 . S
H2009 C2020 0.950 . S
H2010 C2022 0.950 . S
H2011 C2023 0.950 . S
C2012 H2004 0.950 . S
C2012 C2013 1.386 . S
C2012 C2014 1.391 1_565 S
C2013 C2012 1.386 . S
C2013 C2017 1.393 . S
C2014 H2006 0.950 . S
C2014 C2012 1.391 1_545 S
C2014 C2015 1.400 . S
C2015 C2014 1.400 . S
C2015 C2016 1.398 1_545 S
C2015 C2021 1.491 . S
C2016 H2007 0.950 . S
C2016 C2015 1.398 1_565 S
C2016 C2017 1.391 . S
C2017 H2005 0.950 . S
C2017 C2013 1.393 . S
C2017 C2016 1.391 . S
C2018 H2008 0.950 . S
C2018 C2019 1.386 . S
C2018 C2020 1.391 . S
C2019 C2018 1.386 . S
C2019 C2023 1.393 . S
C2020 H2009 0.950 . S
C2020 C2018 1.391 . S
C2020 C2021 1.400 . S
C2021 C2015 1.491 . S
C2021 C2020 1.400 . S
C2021 C2022 1.398 . S
C2022 H2010 0.950 . S
C2022 C2021 1.398 . S
C2022 C2023 1.391 . S
C2023 H2011 0.950 . S
C2023 C2019 1.393 . S
C2023 C2022 1.391 . S
H2024 C2032 0.950 . S
H2025 C2037 0.950 . S
H2026 C2034 0.950 . S
H2027 C2036 0.950 . S
H2028 C2038 0.950 . S
H2029 C2040 0.950 . S
H2030 C2042 0.950 . S
H2031 C2043 0.950 . S
C2032 H2024 0.950 . S
C2032 C2033 1.386 . S
C2032 C2034 1.391 . S
C2033 C2032 1.386 . S
C2033 C2037 1.393 . S
C2034 H2026 0.950 . S
C2034 C2032 1.391 . S
C2034 C2035 1.400 . S
C2035 C2034 1.400 . S
C2035 C2036 1.398 . S
C2035 C2041 1.491 . S
C2036 H2027 0.950 . S
C2036 C2035 1.398 . S
C2036 C2037 1.391 . S
C2037 H2025 0.950 . S
C2037 C2033 1.393 . S
C2037 C2036 1.391 . S
C2038 H2028 0.950 . S
C2038 C2039 1.386 . S
C2038 C2040 1.391 . S
C2039 C2038 1.386 . S
C2039 C2043 1.393 . S
C2040 H2029 0.950 . S
C2040 C2038 1.391 . S
C2040 C2041 1.400 . S
C2041 C2035 1.491 . S
C2041 C2040 1.400 . S
C2041 C2042 1.398 . S
C2042 H2030 0.950 . S
C2042 C2041 1.398 . S
C2042 C2043 1.391 . S
C2043 H2031 0.950 . S
C2043 C2039 1.393 . S
C2043 C2042 1.391 . S
H2044 C2052 0.950 . S
H2045 C2057 0.950 . S
H2046 C2054 0.950 . S
H2047 C2056 0.950 . S
H2048 C2058 0.950 . S
H2049 C2060 0.950 . S
H2050 C2062 0.950 . S
H2051 C2063 0.950 . S
C2052 H2044 0.950 . S
C2052 C2053 1.386 . S
C2052 C2054 1.391 . S
C2053 C2052 1.386 . S
C2053 C2057 1.393 . S
C2054 H2046 0.950 . S
C2054 C2052 1.391 . S
C2054 C2055 1.400 . S
C2055 C2054 1.400 . S
C2055 C2056 1.398 . S
C2055 C2061 1.491 . S
C2056 H2047 0.950 . S
C2056 C2055 1.398 . S
C2056 C2057 1.391 . S
C2057 H2045 0.950 . S
C2057 C2053 1.393 . S
C2057 C2056 1.391 . S
C2058 H2048 0.950 . S
C2058 C2059 1.386 . S
C2058 C2060 1.391 . S
C2059 C2058 1.386 . S
C2059 C2063 1.393 . S
C2060 H2049 0.950 . S
C2060 C2058 1.391 . S
C2060 C2061 1.400 . S
C2061 C2055 1.491 . S
C2061 C2060 1.400 . S
C2061 C2062 1.398 . S
C2062 H2050 0.950 . S
C2062 C2061 1.398 . S
C2062 C2063 1.391 . S
C2063 H2051 0.950 . S
C2063 C2059 1.393 . S
C2063 C2062 1.391 . S
H2064 C2072 0.950 . S
H2065 C2077 0.950 . S
H2066 C2074 0.950 . S
H2067 C2076 0.950 . S
H2068 C2078 0.950 . S
H2069 C2080 0.950 . S
H2070 C2082 0.951 . S
H2071 C2083 0.950 . S
C2072 H2064 0.950 . S
C2072 C2073 1.386 . S
C2072 C2074 1.391 . S
C2073 C2072 1.386 . S
C2073 C2077 1.393 . S
C2074 H2066 0.950 . S
C2074 C2072 1.391 . S
C2074 C2075 1.400 . S
C2075 C2074 1.400 . S
C2075 C2076 1.398 . S
C2075 C2081 1.491 . S
C2076 H2067 0.950 . S
C2076 C2075 1.398 . S
C2076 C2077 1.391 . S
C2077 H2065 0.950 . S
C2077 C2073 1.393 . S
C2077 C2076 1.391 . S
C2078 H2068 0.950 . S
C2078 C2079 1.386 1_554 S
C2078 C2080 1.391 . S
C2079 C2078 1.386 1_556 S
C2079 C2083 1.393 . S
C2080 H2069 0.950 . S
C2080 C2078 1.391 . S
C2080 C2081 1.400 . S
C2081 C2075 1.491 . S
C2081 C2080 1.400 . S
C2081 C2082 1.440 . S
C2082 H2070 0.951 . S
C2082 C2081 1.440 . S
C2082 C2083 1.350 1_554 S
C2083 H2071 0.950 . S
C2083 C2079 1.393 . S
C2083 C2082 1.350 1_556 S
H2084 C2092 0.950 . S
H2085 C2097 0.950 . S
H2086 C2094 0.950 . S
H2087 C2096 0.950 . S
H2088 C2098 0.950 . S
H2089 C2100 0.950 . S
H2090 C2102 0.950 . S
H2091 C2103 0.950 . S
C2092 H2084 0.950 . S
C2092 C2093 1.386 . S
C2092 C2094 1.391 . S
C2093 C2092 1.386 . S
C2093 C2097 1.393 . S
C2094 H2086 0.950 . S
C2094 C2092 1.391 . S
C2094 C2095 1.400 . S
C2095 C2094 1.400 . S
C2095 C2096 1.398 . S
C2095 C2101 1.491 . S
C2096 H2087 0.950 . S
C2096 C2095 1.398 . S
C2096 C2097 1.391 . S
C2097 H2085 0.950 . S
C2097 C2093 1.393 . S
C2097 C2096 1.391 . S
C2098 H2088 0.950 . S
C2098 C2099 1.386 . S
C2098 C2100 1.391 . S
C2099 C2098 1.386 . S
C2099 C2103 1.393 . S
C2100 H2089 0.950 . S
C2100 C2098 1.391 . S
C2100 C2101 1.400 . S
C2101 C2095 1.491 . S
C2101 C2100 1.400 . S
C2101 C2102 1.398 . S
C2102 H2090 0.950 . S
C2102 C2101 1.398 . S
C2102 C2103 1.391 . S
C2103 H2091 0.950 . S
C2103 C2099 1.393 . S
C2103 C2102 1.391 . S
H2104 C2112 0.950 . S
H2105 C2117 0.950 . S
H2106 C2114 0.950 . S
H2107 C2116 0.950 . S
H2108 C2118 0.950 . S
H2109 C2120 0.950 . S
H2110 C2122 0.950 . S
H2111 C2123 0.950 . S
C2112 H2104 0.950 . S
C2112 C2113 1.386 . S
C2112 C2114 1.391 . S
C2113 C2112 1.386 . S
C2113 C2117 1.393 . S
C2114 H2106 0.950 . S
C2114 C2112 1.391 . S
C2114 C2115 1.400 . S
C2115 C2114 1.400 . S
C2115 C2116 1.398 . S
C2115 C2121 1.491 . S
C2116 H2107 0.950 . S
C2116 C2115 1.398 . S
C2116 C2117 1.391 . S
C2117 H2105 0.950 . S
C2117 C2113 1.393 . S
C2117 C2116 1.391 . S
C2118 H2108 0.950 . S
C2118 C2119 1.386 . S
C2118 C2120 1.391 . S
C2119 C2118 1.386 . S
C2119 C2123 1.393 . S
C2120 H2109 0.950 . S
C2120 C2118 1.391 . S
C2120 C2121 1.400 . S
C2121 C2115 1.491 . S
C2121 C2120 1.400 . S
C2121 C2122 1.398 . S
C2122 H2110 0.950 . S
C2122 C2121 1.398 . S
C2122 C2123 1.391 . S
C2123 H2111 0.950 . S
C2123 C2119 1.393 . S
C2123 C2122 1.391 . S
H2124 C2132 0.950 . S
H2125 C2137 0.950 . S
H2126 C2134 0.950 . S
H2127 C2136 0.950 . S
H2128 C2138 0.950 . S
H2129 C2140 0.950 . S
H2130 C2142 0.950 . S
H2131 C2143 0.950 . S
C2132 H2124 0.950 . S
C2132 C2133 1.386 . S
C2132 C2134 1.391 . S
C2133 C2132 1.386 . S
C2133 C2137 1.393 . S
C2134 H2126 0.950 . S
C2134 C2132 1.391 . S
C2134 C2135 1.400 . S
C2135 C2134 1.400 . S
C2135 C2136 1.398 . S
C2135 C2141 1.491 . S
C2136 H2127 0.950 . S
C2136 C2135 1.398 . S
C2136 C2137 1.391 . S
C2137 H2125 0.950 . S
C2137 C2133 1.393 . S
C2137 C2136 1.391 . S
C2138 H2128 0.950 . S
C2138 C2139 1.386 . S
C2138 C2140 1.391 . S
C2139 C2138 1.386 . S
C2139 C2143 1.393 . S
C2140 H2129 0.950 . S
C2140 C2138 1.391 . S
C2140 C2141 1.400 . S
C2141 C2135 1.491 . S
C2141 C2140 1.400 . S
C2141 C2142 1.398 . S
C2142 H2130 0.950 . S
C2142 C2141 1.398 . S
C2142 C2143 1.391 . S
C2143 H2131 0.950 . S
C2143 C2139 1.393 . S
C2143 C2142 1.391 . S
H2144 C2152 0.950 . S
H2145 C2157 0.950 . S
H2146 C2154 0.950 . S
H2147 C2156 0.950 . S
H2148 C2158 0.950 . S
H2149 C2160 0.950 . S
H2150 C2162 0.950 . S
H2151 C2163 0.950 . S
C2152 H2144 0.950 . S
C2152 C2153 1.386 . S
C2152 C2154 1.391 . S
C2153 C2152 1.386 . S
C2153 C2157 1.393 . S
C2154 H2146 0.950 . S
C2154 C2152 1.391 . S
C2154 C2155 1.400 . S
C2155 C2154 1.400 . S
C2155 C2156 1.398 . S
C2155 C2161 1.491 . S
C2156 H2147 0.950 . S
C2156 C2155 1.398 . S
C2156 C2157 1.391 . S
C2157 H2145 0.950 . S
C2157 C2153 1.393 . S
C2157 C2156 1.391 . S
C2158 H2148 0.950 . S
C2158 C2159 1.386 . S
C2158 C2160 1.391 . S
C2159 C2158 1.386 . S
C2159 C2163 1.393 . S
C2160 H2149 0.950 . S
C2160 C2158 1.391 . S
C2160 C2161 1.400 . S
C2161 C2155 1.491 . S
C2161 C2160 1.400 . S
C2161 C2162 1.398 . S
C2162 H2150 0.950 . S
C2162 C2161 1.398 . S
C2162 C2163 1.391 . S
C2163 H2151 0.950 . S
C2163 C2159 1.393 . S
C2163 C2162 1.391 . S
H2164 C2172 0.950 . S
H2165 C2177 0.950 . S
H2166 C2174 0.950 . S
H2167 C2176 0.950 . S
H2168 C2178 0.950 . S
H2169 C2180 0.950 . S
H2170 C2182 0.950 . S
H2171 C2183 0.950 . S
C2172 H2164 0.950 . S
C2172 C2173 1.386 . S
C2172 C2174 1.391 . S
C2173 C2172 1.386 . S
C2173 C2177 1.393 . S
C2174 H2166 0.950 . S
C2174 C2172 1.391 . S
C2174 C2175 1.400 . S
C2175 C2174 1.400 . S
C2175 C2176 1.398 . S
C2175 C2181 1.491 . S
C2176 H2167 0.950 . S
C2176 C2175 1.398 . S
C2176 C2177 1.391 . S
C2177 H2165 0.950 . S
C2177 C2173 1.393 . S
C2177 C2176 1.391 . S
C2178 H2168 0.950 . S
C2178 C2179 1.386 . S
C2178 C2180 1.391 . S
C2179 C2178 1.386 . S
C2179 C2183 1.393 . S
C2180 H2169 0.950 . S
C2180 C2178 1.391 . S
C2180 C2181 1.400 . S
C2181 C2175 1.491 . S
C2181 C2180 1.400 . S
C2181 C2182 1.398 . S
C2182 H2170 0.950 . S
C2182 C2181 1.398 . S
C2182 C2183 1.391 . S
C2183 H2171 0.950 . S
C2183 C2179 1.393 . S
C2183 C2182 1.391 . S
H2184 C2192 0.950 . S
H2185 C2197 0.950 . S
H2186 C2194 0.950 . S
H2187 C2196 0.950 1_554 S
H2188 C2198 0.950 . S
H2189 C2200 0.950 . S
H2190 C2202 0.950 . S
H2191 C2203 0.950 . S
C2192 H2184 0.950 . S
C2192 C2193 1.386 . S
C2192 C2194 1.391 . S
C2193 C2192 1.386 . S
C2193 C2197 1.393 . S
C2194 H2186 0.950 . S
C2194 C2192 1.391 . S
C2194 C2195 1.400 1_556 S
C2195 C2194 1.400 1_554 S
C2195 C2196 1.398 1_554 S
C2195 C2201 1.491 . S
C2196 H2187 0.950 1_556 S
C2196 C2195 1.398 1_556 S
C2196 C2197 1.391 . S
C2197 H2185 0.950 . S
C2197 C2193 1.393 . S
C2197 C2196 1.391 . S
C2198 H2188 0.950 . S
C2198 C2199 1.386 . S
C2198 C2200 1.391 . S
C2199 C2198 1.386 . S
C2199 C2203 1.393 . S
C2200 H2189 0.950 . S
C2200 C2198 1.391 . S
C2200 C2201 1.400 . S
C2201 C2195 1.491 . S
C2201 C2200 1.400 . S
C2201 C2202 1.398 . S
C2202 H2190 0.950 . S
C2202 C2201 1.398 . S
C2202 C2203 1.391 . S
C2203 H2191 0.950 . S
C2203 C2199 1.393 . S
C2203 C2202 1.391 . S
H2204 C2212 0.950 . S
H2205 C2217 0.950 . S
H2206 C2214 0.950 . S
H2207 C2216 0.950 . S
H2208 C2218 0.950 . S
H2209 C2220 0.950 . S
H2210 C2222 0.950 . S
H2211 C2223 0.950 . S
C2212 H2204 0.950 . S
C2212 C2213 1.386 . S
C2212 C2214 1.391 . S
C2213 C2212 1.386 . S
C2213 C2217 1.393 . S
C2214 H2206 0.950 . S
C2214 C2212 1.391 . S
C2214 C2215 1.400 . S
C2215 C2214 1.400 . S
C2215 C2216 1.398 . S
C2215 C2221 1.491 . S
C2216 H2207 0.950 . S
C2216 C2215 1.398 . S
C2216 C2217 1.391 . S
C2217 H2205 0.950 . S
C2217 C2213 1.393 . S
C2217 C2216 1.391 . S
C2218 H2208 0.950 . S
C2218 C2219 1.386 . S
C2218 C2220 1.391 . S
C2219 C2218 1.386 . S
C2219 C2223 1.393 . S
C2220 H2209 0.950 . S
C2220 C2218 1.391 . S
C2220 C2221 1.400 . S
C2221 C2215 1.491 . S
C2221 C2220 1.400 . S
C2221 C2222 1.398 . S
C2222 H2210 0.950 . S
C2222 C2221 1.398 . S
C2222 C2223 1.391 . S
C2223 H2211 0.950 . S
C2223 C2219 1.393 . S
C2223 C2222 1.391 . S
H2224 C2232 0.950 . S
H2225 C2237 0.950 . S
H2226 C2234 0.950 . S
H2227 C2236 0.950 . S
H2228 C2238 0.950 . S
H2229 C2240 0.950 . S
H2230 C2242 0.950 . S
H2231 C2243 0.950 . S
C2232 H2224 0.950 . S
C2232 C2233 1.386 . S
C2232 C2234 1.391 . S
C2233 C2232 1.386 . S
C2233 C2237 1.393 . S
C2234 H2226 0.950 . S
C2234 C2232 1.391 . S
C2234 C2235 1.400 . S
C2235 C2234 1.400 . S
C2235 C2236 1.398 . S
C2235 C2241 1.491 . S
C2236 H2227 0.950 . S
C2236 C2235 1.398 . S
C2236 C2237 1.391 . S
C2237 H2225 0.950 . S
C2237 C2233 1.393 . S
C2237 C2236 1.391 . S
C2238 H2228 0.950 . S
C2238 C2239 1.386 1_455 S
C2238 C2240 1.391 . S
C2239 C2238 1.386 1_655 S
C2239 C2243 1.393 . S
C2240 H2229 0.950 . S
C2240 C2238 1.391 . S
C2240 C2241 1.400 . S
C2241 C2235 1.491 . S
C2241 C2240 1.400 . S
C2241 C2242 1.398 . S
C2242 H2230 0.950 . S
C2242 C2241 1.398 . S
C2242 C2243 1.391 1_455 S
C2243 H2231 0.950 . S
C2243 C2239 1.393 . S
C2243 C2242 1.391 1_655 S
H2244 C2252 0.950 . S
H2245 C2257 0.950 . S
H2246 C2254 0.950 . S
H2247 C2256 0.950 . S
H2248 C2258 0.950 . S
H2249 C2260 0.950 . S
H2250 C2262 0.950 . S
H2251 C2263 0.950 . S
C2252 H2244 0.950 . S
C2252 C2253 1.386 . S
C2252 C2254 1.391 . S
C2253 C2252 1.386 . S
C2253 C2257 1.393 . S
C2254 H2246 0.950 . S
C2254 C2252 1.391 . S
C2254 C2255 1.400 . S
C2255 C2254 1.400 . S
C2255 C2256 1.398 . S
C2255 C2261 1.491 . S
C2256 H2247 0.950 . S
C2256 C2255 1.398 . S
C2256 C2257 1.391 . S
C2257 H2245 0.950 . S
C2257 C2253 1.393 . S
C2257 C2256 1.391 . S
C2258 H2248 0.950 . S
C2258 C2259 1.386 . S
C2258 C2260 1.391 . S
C2259 C2258 1.386 . S
C2259 C2263 1.393 . S
C2260 H2249 0.950 . S
C2260 C2258 1.391 . S
C2260 C2261 1.400 . S
C2261 C2255 1.491 . S
C2261 C2260 1.400 . S
C2261 C2262 1.398 . S
C2262 H2250 0.950 . S
C2262 C2261 1.398 . S
C2262 C2263 1.391 . S
C2263 H2251 0.950 . S
C2263 C2259 1.393 . S
C2263 C2262 1.391 . S
H2264 C2272 0.950 . S
H2265 C2277 0.950 . S
H2266 C2274 0.950 . S
H2267 C2276 0.950 . S
H2268 C2278 0.950 . S
H2269 C2280 0.950 . S
H2270 C2282 0.950 . S
H2271 C2283 0.950 . S
C2272 H2264 0.950 . S
C2272 C2273 1.386 . S
C2272 C2274 1.391 . S
C2273 C2272 1.386 . S
C2273 C2277 1.393 . S
C2274 H2266 0.950 . S
C2274 C2272 1.391 . S
C2274 C2275 1.400 . S
C2275 C2274 1.400 . S
C2275 C2276 1.398 . S
C2275 C2281 1.491 . S
C2276 H2267 0.950 . S
C2276 C2275 1.398 . S
C2276 C2277 1.391 . S
C2277 H2265 0.950 . S
C2277 C2273 1.393 . S
C2277 C2276 1.391 . S
C2278 H2268 0.950 . S
C2278 C2279 1.386 . S
C2278 C2280 1.391 . S
C2279 C2278 1.386 . S
C2279 C2283 1.393 . S
C2280 H2269 0.950 . S
C2280 C2278 1.391 . S
C2280 C2281 1.400 . S
C2281 C2275 1.491 . S
C2281 C2280 1.400 . S
C2281 C2282 1.398 . S
C2282 H2270 0.950 . S
C2282 C2281 1.398 . S
C2282 C2283 1.391 . S
C2283 H2271 0.950 . S
C2283 C2279 1.393 . S
C2283 C2282 1.391 . S
H2284 C2292 0.950 . S
H2285 C2297 0.950 . S
H2286 C2294 0.950 . S
H2287 C2296 0.950 . S
H2288 C2298 0.950 . S
H2289 C2300 0.950 . S
H2290 C2302 0.950 . S
H2291 C2303 0.950 . S
C2292 H2284 0.950 . S
C2292 C2293 1.386 . S
C2292 C2294 1.391 . S
C2293 C2292 1.386 . S
C2293 C2297 1.393 . S
C2294 H2286 0.950 . S
C2294 C2292 1.391 . S
C2294 C2295 1.400 . S
C2295 C2294 1.400 . S
C2295 C2296 1.398 . S
C2295 C2301 1.491 . S
C2296 H2287 0.950 . S
C2296 C2295 1.398 . S
C2296 C2297 1.391 . S
C2297 H2285 0.950 . S
C2297 C2293 1.393 . S
C2297 C2296 1.391 . S
C2298 H2288 0.950 . S
C2298 C2299 1.386 . S
C2298 C2300 1.391 . S
C2299 C2298 1.386 . S
C2299 C2303 1.393 . S
C2300 H2289 0.950 . S
C2300 C2298 1.391 . S
C2300 C2301 1.400 . S
C2301 C2295 1.491 . S
C2301 C2300 1.400 . S
C2301 C2302 1.398 . S
C2302 H2290 0.950 . S
C2302 C2301 1.398 . S
C2302 C2303 1.391 . S
C2303 H2291 0.950 . S
C2303 C2299 1.393 . S
C2303 C2302 1.391 . S
H2304 C2312 0.950 . S
H2305 C2317 0.950 . S
H2306 C2314 0.950 . S
H2307 C2316 0.950 . S
H2308 C2318 0.950 . S
H2309 C2320 0.950 . S
H2310 C2322 0.950 . S
H2311 C2323 0.950 . S
C2312 H2304 0.950 . S
C2312 C2313 1.386 . S
C2312 C2314 1.391 . S
C2313 C2312 1.386 . S
C2313 C2317 1.393 . S
C2314 H2306 0.950 . S
C2314 C2312 1.391 . S
C2314 C2315 1.400 1_655 S
C2315 C2314 1.400 1_455 S
C2315 C2316 1.398 . S
C2315 C2321 1.491 . S
C2316 H2307 0.950 . S
C2316 C2315 1.398 . S
C2316 C2317 1.391 1_455 S
C2317 H2305 0.950 . S
C2317 C2313 1.393 . S
C2317 C2316 1.391 1_655 S
C2318 H2308 0.950 . S
C2318 C2319 1.386 . S
C2318 C2320 1.391 . S
C2319 C2318 1.386 . S
C2319 C2323 1.393 . S
C2320 H2309 0.950 . S
C2320 C2318 1.391 . S
C2320 C2321 1.400 . S
C2321 C2315 1.491 . S
C2321 C2320 1.400 . S
C2321 C2322 1.398 . S
C2322 H2310 0.950 . S
C2322 C2321 1.398 . S
C2322 C2323 1.391 . S
C2323 H2311 0.950 . S
C2323 C2319 1.393 . S
C2323 C2322 1.391 . S
H2324 C2332 0.950 . S
H2325 C2337 0.950 . S
H2326 C2334 0.950 . S
H2327 C2336 0.950 . S
H2328 C2338 0.950 . S
H2329 C2340 0.950 . S
H2330 C2342 0.950 . S
H2331 C2343 0.950 . S
C2332 H2324 0.950 . S
C2332 C2333 1.386 . S
C2332 C2334 1.391 . S
C2333 C2332 1.386 . S
C2333 C2337 1.393 . S
C2334 H2326 0.950 . S
C2334 C2332 1.391 . S
C2334 C2335 1.400 . S
C2335 C2334 1.400 . S
C2335 C2336 1.398 . S
C2335 C2341 1.491 . S
C2336 H2327 0.950 . S
C2336 C2335 1.398 . S
C2336 C2337 1.391 . S
C2337 H2325 0.950 . S
C2337 C2333 1.393 . S
C2337 C2336 1.391 . S
C2338 H2328 0.950 . S
C2338 C2339 1.386 . S
C2338 C2340 1.391 . S
C2339 C2338 1.386 . S
C2339 C2343 1.393 . S
C2340 H2329 0.950 . S
C2340 C2338 1.391 . S
C2340 C2341 1.400 . S
C2341 C2335 1.491 . S
C2341 C2340 1.400 . S
C2341 C2342 1.398 . S
C2342 H2330 0.950 . S
C2342 C2341 1.398 . S
C2342 C2343 1.391 . S
C2343 H2331 0.950 . S
C2343 C2339 1.393 . S
C2343 C2342 1.391 . S
H2344 C2352 0.950 . S
H2345 C2357 0.950 . S
H2346 C2354 0.950 . S
H2347 C2356 0.950 . S
H2348 C2358 0.950 . S
H2349 C2360 0.950 . S
H2350 C2362 0.950 . S
H2351 C2363 0.950 . S
C2352 H2344 0.950 . S
C2352 C2353 1.386 . S
C2352 C2354 1.391 . S
C2353 C2352 1.386 . S
C2353 C2357 1.393 . S
C2354 H2346 0.950 . S
C2354 C2352 1.391 . S
C2354 C2355 1.400 . S
C2355 C2354 1.400 . S
C2355 C2356 1.398 . S
C2355 C2361 1.491 . S
C2356 H2347 0.950 . S
C2356 C2355 1.398 . S
C2356 C2357 1.391 . S
C2357 H2345 0.950 . S
C2357 C2353 1.393 . S
C2357 C2356 1.391 . S
C2358 H2348 0.950 . S
C2358 C2359 1.386 . S
C2358 C2360 1.391 . S
C2359 C2358 1.386 . S
C2359 C2363 1.393 . S
C2360 H2349 0.950 . S
C2360 C2358 1.391 . S
C2360 C2361 1.400 . S
C2361 C2355 1.491 . S
C2361 C2360 1.400 . S
C2361 C2362 1.398 . S
C2362 H2350 0.950 . S
C2362 C2361 1.398 . S
C2362 C2363 1.391 . S
C2363 H2351 0.950 . S
C2363 C2359 1.393 . S
C2363 C2362 1.391 . S
H2364 C2372 0.950 . S
H2365 C2377 0.950 . S
H2366 C2374 0.950 . S
H2367 C2376 0.950 . S
H2368 C2378 0.950 . S
H2369 C2380 0.950 . S
H2370 C2382 0.950 . S
H2371 C2383 0.950 . S
C2372 H2364 0.950 . S
C2372 C2373 1.386 . S
C2372 C2374 1.391 . S
C2373 C2372 1.386 . S
C2373 C2377 1.393 . S
C2374 H2366 0.950 . S
C2374 C2372 1.391 . S
C2374 C2375 1.400 . S
C2375 C2374 1.400 . S
C2375 C2376 1.398 . S
C2375 C2381 1.491 . S
C2376 H2367 0.950 . S
C2376 C2375 1.398 . S
C2376 C2377 1.391 . S
C2377 H2365 0.950 . S
C2377 C2373 1.393 . S
C2377 C2376 1.391 . S
C2378 H2368 0.950 . S
C2378 C2379 1.386 . S
C2378 C2380 1.391 . S
C2379 C2378 1.386 . S
C2379 C2383 1.393 . S
C2380 H2369 0.950 . S
C2380 C2378 1.391 . S
C2380 C2381 1.400 . S
C2381 C2375 1.491 . S
C2381 C2380 1.400 . S
C2381 C2382 1.398 . S
C2382 H2370 0.950 . S
C2382 C2381 1.398 . S
C2382 C2383 1.391 . S
C2383 H2371 0.950 . S
C2383 C2379 1.393 . S
C2383 C2382 1.391 . S
H2384 C2392 0.950 . S
H2385 C2397 0.950 . S
H2386 C2394 0.950 . S
H2387 C2396 0.950 . S
H2388 C2398 0.950 . S
H2389 C2400 0.950 . S
H2390 C2402 0.950 . S
H2391 C2403 0.950 . S
C2392 H2384 0.950 . S
C2392 C2393 1.386 . S
C2392 C2394 1.391 . S
C2393 C2392 1.386 . S
C2393 C2397 1.393 . S
C2394 H2386 0.950 . S
C2394 C2392 1.391 . S
C2394 C2395 1.400 . S
C2395 C2394 1.400 . S
C2395 C2396 1.398 . S
C2395 C2401 1.491 . S
C2396 H2387 0.950 . S
C2396 C2395 1.398 . S
C2396 C2397 1.391 . S
C2397 H2385 0.950 . S
C2397 C2393 1.393 . S
C2397 C2396 1.391 . S
C2398 H2388 0.950 . S
C2398 C2399 1.386 . S
C2398 C2400 1.391 . S
C2399 C2398 1.386 . S
C2399 C2403 1.393 . S
C2400 H2389 0.950 . S
C2400 C2398 1.391 . S
C2400 C2401 1.400 1_565 S
C2401 C2395 1.491 . S
C2401 C2400 1.400 1_545 S
C2401 C2402 1.398 . S
C2402 H2390 0.950 . S
C2402 C2401 1.398 . S
C2402 C2403 1.391 1_545 S
C2403 H2391 0.950 . S
C2403 C2399 1.393 . S
C2403 C2402 1.391 1_565 S
H2404 C2412 0.950 . S
H2405 C2417 0.950 . S
H2406 C2414 0.950 . S
H2407 C2416 0.950 . S
H2408 C2418 0.950 . S
H2409 C2420 0.950 . S
H2410 C2422 0.950 . S
H2411 C2423 0.950 . S
C2412 H2404 0.950 . S
C2412 C2413 1.386 . S
C2412 C2414 1.391 . S
C2413 C2412 1.386 . S
C2413 C2417 1.393 . S
C2414 H2406 0.950 . S
C2414 C2412 1.391 . S
C2414 C2415 1.400 . S
C2415 C2414 1.400 . S
C2415 C2416 1.398 . S
C2415 C2421 1.491 . S
C2416 H2407 0.950 . S
C2416 C2415 1.398 . S
C2416 C2417 1.391 . S
C2417 H2405 0.950 . S
C2417 C2413 1.393 . S
C2417 C2416 1.391 . S
C2418 H2408 0.950 . S
C2418 C2419 1.386 . S
C2418 C2420 1.391 . S
C2419 C2418 1.386 . S
C2419 C2423 1.393 . S
C2420 H2409 0.950 . S
C2420 C2418 1.391 . S
C2420 C2421 1.400 . S
C2421 C2415 1.491 . S
C2421 C2420 1.400 . S
C2421 C2422 1.398 . S
C2422 H2410 0.950 . S
C2422 C2421 1.398 . S
C2422 C2423 1.391 . S
C2423 H2411 0.950 . S
C2423 C2419 1.393 . S
C2423 C2422 1.391 . S
H2424 C2432 0.950 . S
H2425 C2437 0.950 . S
H2426 C2434 0.950 . S
H2427 C2436 0.950 . S
H2428 C2438 0.950 . S
H2429 C2440 0.950 . S
H2430 C2442 0.950 . S
H2431 C2443 0.950 . S
C2432 H2424 0.950 . S
C2432 C2433 1.386 . S
C2432 C2434 1.391 . S
C2433 C2432 1.386 . S
C2433 C2437 1.393 . S
C2434 H2426 0.950 . S
C2434 C2432 1.391 . S
C2434 C2435 1.400 . S
C2435 C2434 1.400 . S
C2435 C2436 1.398 . S
C2435 C2441 1.491 . S
C2436 H2427 0.950 . S
C2436 C2435 1.398 . S
C2436 C2437 1.391 . S
C2437 H2425 0.950 . S
C2437 C2433 1.393 . S
C2437 C2436 1.391 . S
C2438 H2428 0.950 . S
C2438 C2439 1.386 . S
C2438 C2440 1.391 . S
C2439 C2438 1.386 . S
C2439 C2443 1.393 . S
C2440 H2429 0.950 . S
C2440 C2438 1.391 . S
C2440 C2441 1.400 . S
C2441 C2435 1.491 . S
C2441 C2440 1.400 . S
C2441 C2442 1.398 . S
C2442 H2430 0.950 . S
C2442 C2441 1.398 . S
C2442 C2443 1.391 . S
C2443 H2431 0.950 . S
C2443 C2439 1.393 . S
C2443 C2442 1.391 . S
H2444 C2452 0.950 . S
H2445 C2457 0.950 . S
H2446 C2454 0.950 . S
H2447 C2456 0.950 . S
H2448 C2458 0.950 . S
H2449 C2460 0.950 . S
H2450 C2462 0.950 . S
H2451 C2463 0.950 . S
C2452 H2444 0.950 . S
C2452 C2453 1.386 . S
C2452 C2454 1.391 . S
C2453 C2452 1.386 . S
C2453 C2457 1.393 . S
C2454 H2446 0.950 . S
C2454 C2452 1.391 . S
C2454 C2455 1.400 . S
C2455 C2454 1.400 . S
C2455 C2456 1.398 . S
C2455 C2461 1.491 . S
C2456 H2447 0.950 . S
C2456 C2455 1.398 . S
C2456 C2457 1.391 . S
C2457 H2445 0.950 . S
C2457 C2453 1.393 . S
C2457 C2456 1.391 . S
C2458 H2448 0.950 . S
C2458 C2459 1.386 . S
C2458 C2460 1.391 . S
C2459 C2458 1.386 . S
C2459 C2463 1.393 . S
C2460 H2449 0.950 . S
C2460 C2458 1.391 . S
C2460 C2461 1.400 . S
C2461 C2455 1.491 . S
C2461 C2460 1.400 . S
C2461 C2462 1.398 . S
C2462 H2450 0.950 . S
C2462 C2461 1.398 . S
C2462 C2463 1.391 . S
C2463 H2451 0.950 . S
C2463 C2459 1.393 . S
C2463 C2462 1.391 . S
H2464 C2472 0.950 . S
H2465 C2477 0.950 . S
H2466 C2474 0.950 . S
H2467 C2476 0.950 . S
H2468 C2478 0.950 . S
H2469 C2480 0.950 . S
H2470 C2482 0.950 . S
H2471 C2483 0.950 . S
C2472 H2464 0.950 . S
C2472 C2473 1.386 . S
C2472 C2474 1.391 . S
C2473 C2472 1.386 . S
C2473 C2477 1.393 . S
C2474 H2466 0.950 . S
C2474 C2472 1.391 . S
C2474 C2475 1.400 . S
C2475 C2474 1.400 . S
C2475 C2476 1.398 . S
C2475 C2481 1.491 . S
C2476 H2467 0.950 . S
C2476 C2475 1.398 . S
C2476 C2477 1.391 . S
C2477 H2465 0.950 . S
C2477 C2473 1.393 . S
C2477 C2476 1.391 . S
C2478 H2468 0.950 . S
C2478 C2479 1.386 . S
C2478 C2480 1.391 . S
C2479 C2478 1.386 . S
C2479 C2483 1.393 . S
C2480 H2469 0.950 . S
C2480 C2478 1.391 . S
C2480 C2481 1.400 . S
C2481 C2475 1.491 . S
C2481 C2480 1.400 . S
C2481 C2482 1.398 . S
C2482 H2470 0.950 . S
C2482 C2481 1.398 . S
C2482 C2483 1.391 . S
C2483 H2471 0.950 . S
C2483 C2479 1.393 . S
C2483 C2482 1.391 . S
H2484 C2492 0.950 . S
H2485 C2497 0.950 . S
H2486 C2494 0.950 . S
H2487 C2496 0.950 . S
H2488 C2498 0.950 . S
H2489 C2500 0.952 . S
H2490 C2502 0.950 . S
H2491 C2503 0.950 . S
C2492 H2484 0.950 . S
C2492 C2493 1.386 . S
C2492 C2494 1.391 . S
C2493 C2492 1.386 . S
C2493 C2497 1.393 . S
C2494 H2486 0.950 . S
C2494 C2492 1.391 . S
C2494 C2495 1.400 . S
C2495 C2494 1.400 . S
C2495 C2496 1.398 . S
C2495 C2501 1.491 . S
C2496 H2487 0.950 . S
C2496 C2495 1.398 . S
C2496 C2497 1.391 . S
C2497 H2485 0.950 . S
C2497 C2493 1.393 . S
C2497 C2496 1.391 . S
C2498 H2488 0.950 . S
C2498 C2499 1.386 . S
C2498 C2500 1.391 . S
C2499 C2498 1.386 . S
C2499 C2503 1.393 . S
C2500 H2489 0.952 . S
C2500 C2498 1.391 . S
C2500 C2501 1.400 1_545 S
C2501 C2495 1.491 . S
C2501 C2500 1.400 1_565 S
C2501 C2502 1.398 . S
C2502 H2490 0.950 . S
C2502 C2501 1.398 . S
C2502 C2503 1.391 1_565 S
C2503 H2491 0.950 . S
C2503 C2499 1.393 . S
C2503 C2502 1.391 1_545 S
H2504 C2512 0.950 . S
H2505 C2517 0.950 . S
H2506 C2514 0.950 . S
H2507 C2516 0.950 . S
H2508 C2518 0.950 . S
H2509 C2520 0.950 . S
H2510 C2522 0.950 . S
H2511 C2523 0.950 . S
C2512 H2504 0.950 . S
C2512 C2513 1.386 . S
C2512 C2514 1.391 . S
C2513 C2512 1.386 . S
C2513 C2517 1.393 . S
C2514 H2506 0.950 . S
C2514 C2512 1.391 . S
C2514 C2515 1.400 . S
C2515 C2514 1.400 . S
C2515 C2516 1.398 . S
C2515 C2521 1.491 . S
C2516 H2507 0.950 . S
C2516 C2515 1.398 . S
C2516 C2517 1.391 . S
C2517 H2505 0.950 . S
C2517 C2513 1.393 . S
C2517 C2516 1.391 . S
C2518 H2508 0.950 . S
C2518 C2519 1.386 . S
C2518 C2520 1.391 . S
C2519 C2518 1.386 . S
C2519 C2523 1.393 . S
C2520 H2509 0.950 . S
C2520 C2518 1.391 . S
C2520 C2521 1.400 . S
C2521 C2515 1.491 . S
C2521 C2520 1.400 . S
C2521 C2522 1.398 . S
C2522 H2510 0.950 . S
C2522 C2521 1.398 . S
C2522 C2523 1.391 . S
C2523 H2511 0.950 . S
C2523 C2519 1.393 . S
C2523 C2522 1.391 . S
H2524 C2532 0.950 . S
H2525 C2537 0.950 . S
H2526 C2534 0.950 . S
H2527 C2536 0.950 . S
H2528 C2538 0.950 . S
H2529 C2540 0.950 . S
H2530 C2542 0.950 . S
H2531 C2543 0.950 . S
C2532 H2524 0.950 . S
C2532 C2533 1.386 . S
C2532 C2534 1.391 . S
C2533 C2532 1.386 . S
C2533 C2537 1.393 . S
C2534 H2526 0.950 . S
C2534 C2532 1.391 . S
C2534 C2535 1.400 . S
C2535 C2534 1.400 . S
C2535 C2536 1.398 . S
C2535 C2541 1.491 . S
C2536 H2527 0.950 . S
C2536 C2535 1.398 . S
C2536 C2537 1.391 . S
C2537 H2525 0.950 . S
C2537 C2533 1.393 . S
C2537 C2536 1.391 . S
C2538 H2528 0.950 . S
C2538 C2539 1.386 . S
C2538 C2540 1.391 . S
C2539 C2538 1.386 . S
C2539 C2543 1.393 . S
C2540 H2529 0.950 . S
C2540 C2538 1.391 . S
C2540 C2541 1.400 . S
C2541 C2535 1.491 . S
C2541 C2540 1.400 . S
C2541 C2542 1.398 . S
C2542 H2530 0.950 . S
C2542 C2541 1.398 . S
C2542 C2543 1.391 . S
C2543 H2531 0.950 . S
C2543 C2539 1.393 . S
C2543 C2542 1.391 . S
H2544 C2552 0.950 . S
H2545 C2557 0.950 . S
H2546 C2554 0.950 . S
H2547 C2556 0.950 . S
H2548 C2558 0.950 . S
H2549 C2560 0.950 . S
H2550 C2562 0.950 . S
H2551 C2563 0.950 . S
C2552 H2544 0.950 . S
C2552 C2553 1.386 . S
C2552 C2554 1.391 . S
C2553 C2552 1.386 . S
C2553 C2557 1.393 . S
C2554 H2546 0.950 . S
C2554 C2552 1.391 . S
C2554 C2555 1.400 . S
C2555 C2554 1.400 . S
C2555 C2556 1.398 . S
C2555 C2561 1.491 . S
C2556 H2547 0.950 . S
C2556 C2555 1.398 . S
C2556 C2557 1.391 . S
C2557 H2545 0.950 . S
C2557 C2553 1.393 . S
C2557 C2556 1.391 . S
C2558 H2548 0.950 . S
C2558 C2559 1.386 . S
C2558 C2560 1.391 . S
C2559 C2558 1.386 . S
C2559 C2563 1.393 . S
C2560 H2549 0.950 . S
C2560 C2558 1.391 . S
C2560 C2561 1.400 . S
C2561 C2555 1.491 . S
C2561 C2560 1.400 . S
C2561 C2562 1.398 . S
C2562 H2550 0.950 . S
C2562 C2561 1.398 . S
C2562 C2563 1.391 . S
C2563 H2551 0.950 . S
C2563 C2559 1.393 . S
C2563 C2562 1.391 . S
H2564 C2572 0.950 . S
H2565 C2577 0.950 . S
H2566 C2574 0.950 . S
H2567 C2576 0.950 . S
H2568 C2578 0.950 . S
H2569 C2580 0.950 . S
H2570 C2582 0.950 . S
H2571 C2583 0.950 . S
C2572 H2564 0.950 . S
C2572 C2573 1.386 . S
C2572 C2574 1.391 . S
C2573 C2572 1.386 . S
C2573 C2577 1.393 . S
C2574 H2566 0.950 . S
C2574 C2572 1.391 . S
C2574 C2575 1.400 . S
C2575 C2574 1.400 . S
C2575 C2576 1.398 . S
C2575 C2581 1.491 . S
C2576 H2567 0.950 . S
C2576 C2575 1.398 . S
C2576 C2577 1.391 . S
C2577 H2565 0.950 . S
C2577 C2573 1.393 . S
C2577 C2576 1.391 . S
C2578 H2568 0.950 . S
C2578 C2579 1.386 . S
C2578 C2580 1.391 . S
C2579 C2578 1.386 . S
C2579 C2583 1.393 . S
C2580 H2569 0.950 . S
C2580 C2578 1.391 . S
C2580 C2581 1.400 . S
C2581 C2575 1.491 . S
C2581 C2580 1.400 . S
C2581 C2582 1.398 . S
C2582 H2570 0.950 . S
C2582 C2581 1.398 . S
C2582 C2583 1.391 . S
C2583 H2571 0.950 . S
C2583 C2579 1.393 . S
C2583 C2582 1.391 . S
H2584 C2592 0.950 . S
H2585 C2597 0.950 . S
H2586 C2594 0.950 . S
H2587 C2596 0.941 1_556 S
H2588 C2598 0.950 . S
H2589 C2600 0.950 . S
H2590 C2602 0.950 . S
H2591 C2603 0.950 . S
C2592 H2584 0.950 . S
C2592 C2593 1.386 . S
C2592 C2594 1.391 1_554 S
C2593 C2592 1.386 . S
C2593 C2597 1.393 . S
C2594 H2586 0.950 . S
C2594 C2592 1.391 1_556 S
C2594 C2595 1.400 . S
C2595 C2594 1.400 . S
C2595 C2596 1.398 1_556 S
C2595 C2601 1.491 . S
C2596 H2587 0.941 1_554 S
C2596 C2595 1.398 1_554 S
C2596 C2597 1.391 . S
C2597 H2585 0.950 . S
C2597 C2593 1.393 . S
C2597 C2596 1.391 . S
C2598 H2588 0.950 . S
C2598 C2599 1.386 . S
C2598 C2600 1.391 . S
C2599 C2598 1.386 . S
C2599 C2603 1.393 . S
C2600 H2589 0.950 . S
C2600 C2598 1.391 . S
C2600 C2601 1.400 . S
C2601 C2595 1.491 . S
C2601 C2600 1.400 . S
C2601 C2602 1.398 . S
C2602 H2590 0.950 . S
C2602 C2601 1.398 . S
C2602 C2603 1.391 . S
C2603 H2591 0.950 . S
C2603 C2599 1.393 . S
C2603 C2602 1.391 . S
H2604 C2612 0.950 . S
H2605 C2617 0.950 . S
H2606 C2614 0.950 . S
H2607 C2616 0.950 . S
H2608 C2618 0.950 . S
H2609 C2620 0.950 . S
H2610 C2622 0.950 . S
H2611 C2623 0.950 . S
C2612 H2604 0.950 . S
C2612 C2613 1.386 . S
C2612 C2614 1.391 . S
C2613 C2612 1.386 . S
C2613 C2617 1.393 . S
C2614 H2606 0.950 . S
C2614 C2612 1.391 . S
C2614 C2615 1.400 . S
C2615 C2614 1.400 . S
C2615 C2616 1.398 . S
C2615 C2621 1.491 . S
C2616 H2607 0.950 . S
C2616 C2615 1.398 . S
C2616 C2617 1.391 . S
C2617 H2605 0.950 . S
C2617 C2613 1.393 . S
C2617 C2616 1.391 . S
C2618 H2608 0.950 . S
C2618 C2619 1.386 . S
C2618 C2620 1.391 . S
C2619 C2618 1.386 . S
C2619 C2623 1.393 . S
C2620 H2609 0.950 . S
C2620 C2618 1.391 . S
C2620 C2621 1.400 . S
C2621 C2615 1.491 . S
C2621 C2620 1.400 . S
C2621 C2622 1.398 . S
C2622 H2610 0.950 . S
C2622 C2621 1.398 . S
C2622 C2623 1.391 . S
C2623 H2611 0.950 . S
C2623 C2619 1.393 . S
C2623 C2622 1.391 . S
H2624 C2632 0.950 . S
H2625 C2637 0.950 . S
H2626 C2634 0.950 . S
H2627 C2636 0.950 . S
H2628 C2638 0.950 . S
H2629 C2640 0.950 . S
H2630 C2642 0.950 . S
H2631 C2643 0.950 . S
C2632 H2624 0.950 . S
C2632 C2633 1.386 . S
C2632 C2634 1.391 . S
C2633 C2632 1.386 . S
C2633 C2637 1.393 . S
C2634 H2626 0.950 . S
C2634 C2632 1.391 . S
C2634 C2635 1.400 . S
C2635 C2634 1.400 . S
C2635 C2636 1.398 . S
C2635 C2641 1.491 1_556 S
C2636 H2627 0.950 . S
C2636 C2635 1.398 . S
C2636 C2637 1.391 . S
C2637 H2625 0.950 . S
C2637 C2633 1.393 . S
C2637 C2636 1.391 . S
C2638 H2628 0.950 . S
C2638 C2639 1.386 . S
C2638 C2640 1.391 . S
C2639 C2638 1.386 . S
C2639 C2643 1.393 . S
C2640 H2629 0.950 . S
C2640 C2638 1.391 . S
C2640 C2641 1.400 . S
C2641 C2635 1.491 1_554 S
C2641 C2640 1.400 . S
C2641 C2642 1.398 . S
C2642 H2630 0.950 . S
C2642 C2641 1.398 . S
C2642 C2643 1.391 . S
C2643 H2631 0.950 . S
C2643 C2639 1.393 . S
C2643 C2642 1.391 . S
H2644 C2652 0.950 . S
H2645 C2657 0.950 . S
H2646 C2654 0.950 . S
H2647 C2656 0.950 . S
H2648 C2658 0.950 . S
H2649 C2660 0.950 . S
H2650 C2662 0.950 . S
H2651 C2663 0.950 . S
C2652 H2644 0.950 . S
C2652 C2653 1.386 . S
C2652 C2654 1.391 . S
C2653 C2652 1.386 . S
C2653 C2657 1.393 . S
C2654 H2646 0.950 . S
C2654 C2652 1.391 . S
C2654 C2655 1.400 . S
C2655 C2654 1.400 . S
C2655 C2656 1.398 . S
C2655 C2661 1.491 . S
C2656 H2647 0.950 . S
C2656 C2655 1.398 . S
C2656 C2657 1.391 . S
C2657 H2645 0.950 . S
C2657 C2653 1.393 . S
C2657 C2656 1.391 . S
C2658 H2648 0.950 . S
C2658 C2659 1.386 . S
C2658 C2660 1.391 . S
C2659 C2658 1.386 . S
C2659 C2663 1.393 . S
C2660 H2649 0.950 . S
C2660 C2658 1.391 . S
C2660 C2661 1.400 . S
C2661 C2655 1.491 . S
C2661 C2660 1.400 . S
C2661 C2662 1.398 . S
C2662 H2650 0.950 . S
C2662 C2661 1.398 . S
C2662 C2663 1.391 . S
C2663 H2651 0.950 . S
C2663 C2659 1.393 . S
C2663 C2662 1.391 . S
H2664 C2672 0.950 . S
H2665 C2677 0.950 . S
H2666 C2674 0.950 . S
H2667 C2676 0.950 . S
H2668 C2678 0.950 . S
H2669 C2680 0.950 . S
H2670 C2682 0.950 . S
H2671 C2683 0.950 . S
C2672 H2664 0.950 . S
C2672 C2673 1.386 . S
C2672 C2674 1.391 . S
C2673 C2672 1.386 . S
C2673 C2677 1.393 . S
C2674 H2666 0.950 . S
C2674 C2672 1.391 . S
C2674 C2675 1.400 . S
C2675 C2674 1.400 . S
C2675 C2676 1.398 . S
C2675 C2681 1.491 . S
C2676 H2667 0.950 . S
C2676 C2675 1.398 . S
C2676 C2677 1.391 . S
C2677 H2665 0.950 . S
C2677 C2673 1.393 . S
C2677 C2676 1.391 . S
C2678 H2668 0.950 . S
C2678 C2679 1.386 . S
C2678 C2680 1.391 . S
C2679 C2678 1.386 . S
C2679 C2683 1.393 . S
C2680 H2669 0.950 . S
C2680 C2678 1.391 . S
C2680 C2681 1.400 . S
C2681 C2675 1.491 . S
C2681 C2680 1.400 . S
C2681 C2682 1.398 . S
C2682 H2670 0.950 . S
C2682 C2681 1.398 . S
C2682 C2683 1.391 . S
C2683 H2671 0.950 . S
C2683 C2679 1.393 . S
C2683 C2682 1.391 . S
H2684 C2692 0.950 . S
H2685 C2697 0.950 . S
H2686 C2694 0.950 . S
H2687 C2696 0.950 . S
H2688 C2698 0.950 . S
H2689 C2700 0.950 . S
H2690 C2702 0.950 . S
H2691 C2703 0.950 . S
C2692 H2684 0.950 . S
C2692 C2693 1.386 . S
C2692 C2694 1.391 . S
C2693 C2692 1.386 . S
C2693 C2697 1.393 . S
C2694 H2686 0.950 . S
C2694 C2692 1.391 . S
C2694 C2695 1.400 . S
C2695 C2694 1.400 . S
C2695 C2696 1.398 . S
C2695 C2701 1.491 . S
C2696 H2687 0.950 . S
C2696 C2695 1.398 . S
C2696 C2697 1.391 . S
C2697 H2685 0.950 . S
C2697 C2693 1.393 . S
C2697 C2696 1.391 . S
C2698 H2688 0.950 . S
C2698 C2699 1.386 . S
C2698 C2700 1.391 . S
C2699 C2698 1.386 . S
C2699 C2703 1.393 . S
C2700 H2689 0.950 . S
C2700 C2698 1.391 . S
C2700 C2701 1.400 . S
C2701 C2695 1.491 . S
C2701 C2700 1.400 . S
C2701 C2702 1.398 . S
C2702 H2690 0.950 . S
C2702 C2701 1.398 . S
C2702 C2703 1.391 . S
C2703 H2691 0.950 . S
C2703 C2699 1.393 . S
C2703 C2702 1.391 . S
H2704 C2712 0.950 . S
H2705 C2717 0.950 . S
H2706 C2714 0.950 . S
H2707 C2716 0.950 . S
H2708 C2718 0.950 . S
H2709 C2720 0.950 . S
H2710 C2722 0.950 . S
H2711 C2723 0.950 . S
C2712 H2704 0.950 . S
C2712 C2713 1.386 . S
C2712 C2714 1.391 . S
C2713 C2712 1.386 . S
C2713 C2717 1.393 . S
C2714 H2706 0.950 . S
C2714 C2712 1.391 . S
C2714 C2715 1.400 . S
C2715 C2714 1.400 . S
C2715 C2716 1.398 . S
C2715 C2721 1.491 . S
C2716 H2707 0.950 . S
C2716 C2715 1.398 . S
C2716 C2717 1.391 . S
C2717 H2705 0.950 . S
C2717 C2713 1.393 . S
C2717 C2716 1.391 . S
C2718 H2708 0.950 . S
C2718 C2719 1.386 . S
C2718 C2720 1.391 . S
C2719 C2718 1.386 . S
C2719 C2723 1.393 . S
C2720 H2709 0.950 . S
C2720 C2718 1.391 . S
C2720 C2721 1.400 . S
C2721 C2715 1.491 . S
C2721 C2720 1.400 . S
C2721 C2722 1.398 . S
C2722 H2710 0.950 . S
C2722 C2721 1.398 . S
C2722 C2723 1.391 . S
C2723 H2711 0.950 . S
C2723 C2719 1.393 . S
C2723 C2722 1.391 . S
H2724 C2732 0.950 . S
H2725 C2737 0.950 . S
H2726 C2734 0.950 . S
H2727 C2736 0.950 . S
H2728 C2738 0.950 . S
H2729 C2740 0.950 . S
H2730 C2742 0.950 . S
H2731 C2743 0.950 . S
C2732 H2724 0.950 . S
C2732 C2733 1.386 . S
C2732 C2734 1.391 . S
C2733 C2732 1.386 . S
C2733 C2737 1.393 . S
C2734 H2726 0.950 . S
C2734 C2732 1.391 . S
C2734 C2735 1.400 . S
C2735 C2734 1.400 . S
C2735 C2736 1.398 . S
C2735 C2741 1.491 . S
C2736 H2727 0.950 . S
C2736 C2735 1.398 . S
C2736 C2737 1.391 . S
C2737 H2725 0.950 . S
C2737 C2733 1.393 . S
C2737 C2736 1.391 . S
C2738 H2728 0.950 . S
C2738 C2739 1.386 . S
C2738 C2740 1.391 . S
C2739 C2738 1.386 . S
C2739 C2743 1.393 . S
C2740 H2729 0.950 . S
C2740 C2738 1.391 . S
C2740 C2741 1.400 . S
C2741 C2735 1.491 . S
C2741 C2740 1.400 . S
C2741 C2742 1.398 . S
C2742 H2730 0.950 . S
C2742 C2741 1.398 . S
C2742 C2743 1.391 . S
C2743 H2731 0.950 . S
C2743 C2739 1.393 . S
C2743 C2742 1.391 . S
H2744 C2752 0.950 . S
H2745 C2757 0.950 . S
H2746 C2754 0.950 . S
H2747 C2756 0.950 . S
H2748 C2758 0.950 . S
H2749 C2760 0.950 . S
H2750 C2762 0.950 . S
H2751 C2763 0.950 . S
C2752 H2744 0.950 . S
C2752 C2753 1.386 . S
C2752 C2754 1.391 . S
C2753 C2752 1.386 . S
C2753 C2757 1.393 . S
C2754 H2746 0.950 . S
C2754 C2752 1.391 . S
C2754 C2755 1.400 . S
C2755 C2754 1.400 . S
C2755 C2756 1.398 . S
C2755 C2761 1.491 1_655 S
C2756 H2747 0.950 . S
C2756 C2755 1.398 . S
C2756 C2757 1.391 . S
C2757 H2745 0.950 . S
C2757 C2753 1.393 . S
C2757 C2756 1.391 . S
C2758 H2748 0.950 . S
C2758 C2759 1.386 . S
C2758 C2760 1.391 . S
C2759 C2758 1.386 . S
C2759 C2763 1.393 . S
C2760 H2749 0.950 . S
C2760 C2758 1.391 . S
C2760 C2761 1.400 . S
C2761 C2755 1.491 1_455 S
C2761 C2760 1.400 . S
C2761 C2762 1.398 . S
C2762 H2750 0.950 . S
C2762 C2761 1.398 . S
C2762 C2763 1.391 . S
C2763 H2751 0.950 . S
C2763 C2759 1.393 . S
C2763 C2762 1.391 . S
H2764 C2772 0.950 . S
H2765 C2777 0.950 . S
H2766 C2774 0.950 . S
H2767 C2776 0.950 . S
H2768 C2778 0.950 . S
H2769 C2780 0.950 . S
H2770 C2782 0.950 . S
H2771 C2783 0.950 . S
C2772 H2764 0.950 . S
C2772 C2773 1.386 . S
C2772 C2774 1.391 . S
C2773 C2772 1.386 . S
C2773 C2777 1.393 . S
C2774 H2766 0.950 . S
C2774 C2772 1.391 . S
C2774 C2775 1.400 . S
C2775 C2774 1.400 . S
C2775 C2776 1.398 . S
C2775 C2781 1.491 . S
C2776 H2767 0.950 . S
C2776 C2775 1.398 . S
C2776 C2777 1.391 . S
C2777 H2765 0.950 . S
C2777 C2773 1.393 . S
C2777 C2776 1.391 . S
C2778 H2768 0.950 . S
C2778 C2779 1.386 . S
C2778 C2780 1.391 . S
C2779 C2778 1.386 . S
C2779 C2783 1.393 . S
C2780 H2769 0.950 . S
C2780 C2778 1.391 . S
C2780 C2781 1.400 . S
C2781 C2775 1.491 . S
C2781 C2780 1.400 . S
C2781 C2782 1.398 . S
C2782 H2770 0.950 . S
C2782 C2781 1.398 . S
C2782 C2783 1.391 . S
C2783 H2771 0.950 . S
C2783 C2779 1.393 . S
C2783 C2782 1.391 . S
H2784 C2792 0.950 . S
H2785 C2797 0.950 . S
H2786 C2794 0.950 . S
H2787 C2796 0.950 . S
H2788 C2798 0.950 . S
H2789 C2800 0.950 . S
H2790 C2802 0.950 . S
H2791 C2803 0.950 . S
C2792 H2784 0.950 . S
C2792 C2793 1.386 . S
C2792 C2794 1.391 . S
C2793 C2792 1.386 . S
C2793 C2797 1.393 . S
C2794 H2786 0.950 . S
C2794 C2792 1.391 . S
C2794 C2795 1.400 . S
C2795 C2794 1.400 . S
C2795 C2796 1.398 . S
C2795 C2801 1.491 . S
C2796 H2787 0.950 . S
C2796 C2795 1.398 . S
C2796 C2797 1.391 . S
C2797 H2785 0.950 . S
C2797 C2793 1.393 . S
C2797 C2796 1.391 . S
C2798 H2788 0.950 . S
C2798 C2799 1.386 . S
C2798 C2800 1.391 . S
C2799 C2798 1.386 . S
C2799 C2803 1.393 . S
C2800 H2789 0.950 . S
C2800 C2798 1.391 . S
C2800 C2801 1.400 . S
C2801 C2795 1.491 . S
C2801 C2800 1.400 . S
C2801 C2802 1.398 . S
C2802 H2790 0.950 . S
C2802 C2801 1.398 . S
C2802 C2803 1.391 . S
C2803 H2791 0.950 . S
C2803 C2799 1.393 . S
C2803 C2802 1.391 . S
H2804 C2812 0.950 . S
H2805 C2817 0.950 . S
H2806 C2814 0.950 . S
H2807 C2816 0.950 . S
H2808 C2818 0.950 . S
H2809 C2820 0.950 . S
H2810 C2822 0.950 . S
H2811 C2823 0.950 . S
C2812 H2804 0.950 . S
C2812 C2813 1.386 . S
C2812 C2814 1.391 . S
C2813 C2812 1.386 . S
C2813 C2817 1.393 . S
C2814 H2806 0.950 . S
C2814 C2812 1.391 . S
C2814 C2815 1.400 . S
C2815 C2814 1.400 . S
C2815 C2816 1.398 . S
C2815 C2821 1.491 . S
C2816 H2807 0.950 . S
C2816 C2815 1.398 . S
C2816 C2817 1.391 . S
C2817 H2805 0.950 . S
C2817 C2813 1.393 . S
C2817 C2816 1.391 . S
C2818 H2808 0.950 . S
C2818 C2819 1.386 . S
C2818 C2820 1.391 . S
C2819 C2818 1.386 . S
C2819 C2823 1.393 . S
C2820 H2809 0.950 . S
C2820 C2818 1.391 . S
C2820 C2821 1.400 . S
C2821 C2815 1.491 . S
C2821 C2820 1.400 . S
C2821 C2822 1.398 . S
C2822 H2810 0.950 . S
C2822 C2821 1.398 . S
C2822 C2823 1.391 . S
C2823 H2811 0.950 . S
C2823 C2819 1.393 . S
C2823 C2822 1.391 . S
H2824 C2832 0.950 . S
H2825 C2837 0.950 . S
H2826 C2834 0.950 . S
H2827 C2836 0.950 . S
H2828 C2838 0.950 . S
H2829 C2840 0.950 . S
H2830 C2842 0.950 . S
H2831 C2843 0.950 . S
C2832 H2824 0.950 . S
C2832 C2833 1.386 . S
C2832 C2834 1.391 . S
C2833 C2832 1.386 . S
C2833 C2837 1.393 . S
C2834 H2826 0.950 . S
C2834 C2832 1.391 . S
C2834 C2835 1.400 1_455 S
C2835 C2834 1.400 1_655 S
C2835 C2836 1.398 . S
C2835 C2841 1.491 . S
C2836 H2827 0.950 . S
C2836 C2835 1.398 . S
C2836 C2837 1.391 1_655 S
C2837 H2825 0.950 . S
C2837 C2833 1.393 . S
C2837 C2836 1.391 1_455 S
C2838 H2828 0.950 . S
C2838 C2839 1.386 . S
C2838 C2840 1.391 . S
C2839 C2838 1.386 . S
C2839 C2843 1.393 . S
C2840 H2829 0.950 . S
C2840 C2838 1.391 . S
C2840 C2841 1.400 . S
C2841 C2835 1.491 . S
C2841 C2840 1.400 . S
C2841 C2842 1.398 . S
C2842 H2830 0.950 . S
C2842 C2841 1.398 . S
C2842 C2843 1.391 . S
C2843 H2831 0.950 . S
C2843 C2839 1.393 . S
C2843 C2842 1.391 . S
H2844 C2852 0.950 . S
H2845 C2857 0.950 . S
H2846 C2854 0.950 . S
H2847 C2856 0.950 . S
H2848 C2858 0.950 . S
H2849 C2860 0.950 . S
H2850 C2862 0.950 . S
H2851 C2863 0.950 . S
C2852 H2844 0.950 . S
C2852 C2853 1.386 . S
C2852 C2854 1.391 . S
C2853 C2852 1.386 . S
C2853 C2857 1.393 . S
C2854 H2846 0.950 . S
C2854 C2852 1.391 . S
C2854 C2855 1.400 . S
C2855 C2854 1.400 . S
C2855 C2856 1.398 . S
C2855 C2861 1.491 . S
C2856 H2847 0.950 . S
C2856 C2855 1.398 . S
C2856 C2857 1.391 . S
C2857 H2845 0.950 . S
C2857 C2853 1.393 . S
C2857 C2856 1.391 . S
C2858 H2848 0.950 . S
C2858 C2859 1.386 . S
C2858 C2860 1.391 . S
C2859 C2858 1.386 . S
C2859 C2863 1.393 . S
C2860 H2849 0.950 . S
C2860 C2858 1.391 . S
C2860 C2861 1.400 . S
C2861 C2855 1.491 . S
C2861 C2860 1.400 . S
C2861 C2862 1.398 . S
C2862 H2850 0.950 . S
C2862 C2861 1.398 . S
C2862 C2863 1.391 . S
C2863 H2851 0.950 . S
C2863 C2859 1.393 . S
C2863 C2862 1.391 . S
H2864 C2872 0.950 . S
H2865 C2877 0.950 . S
H2866 C2874 0.950 . S
H2867 C2876 0.950 . S
H2868 C2878 0.950 . S
H2869 C2880 0.950 . S
H2870 C2882 0.950 . S
H2871 C2883 0.950 . S
C2872 H2864 0.950 . S
C2872 C2873 1.386 . S
C2872 C2874 1.391 . S
C2873 C2872 1.386 . S
C2873 C2877 1.393 . S
C2874 H2866 0.950 . S
C2874 C2872 1.391 . S
C2874 C2875 1.400 . S
C2875 C2874 1.400 . S
C2875 C2876 1.398 . S
C2875 C2881 1.491 . S
C2876 H2867 0.950 . S
C2876 C2875 1.398 . S
C2876 C2877 1.391 . S
C2877 H2865 0.950 . S
C2877 C2873 1.393 . S
C2877 C2876 1.391 . S
C2878 H2868 0.950 . S
C2878 C2879 1.386 . S
C2878 C2880 1.391 . S
C2879 C2878 1.386 . S
C2879 C2883 1.393 . S
C2880 H2869 0.950 . S
C2880 C2878 1.391 . S
C2880 C2881 1.400 . S
C2881 C2875 1.491 . S
C2881 C2880 1.400 . S
C2881 C2882 1.398 . S
C2882 H2870 0.950 . S
C2882 C2881 1.398 . S
C2882 C2883 1.391 . S
C2883 H2871 0.950 . S
C2883 C2879 1.393 . S
C2883 C2882 1.391 . S
H2884 C2892 0.950 . S
H2885 C2897 0.950 . S
H2886 C2894 0.950 . S
H2887 C2896 0.950 . S
H2888 C2898 0.950 . S
H2889 C2900 0.950 . S
H2890 C2902 0.950 . S
H2891 C2903 0.950 . S
C2892 H2884 0.950 . S
C2892 C2893 1.386 . S
C2892 C2894 1.391 1_565 S
C2893 C2892 1.386 . S
C2893 C2897 1.393 . S
C2894 H2886 0.950 . S
C2894 C2892 1.391 1_545 S
C2894 C2895 1.400 . S
C2895 C2894 1.400 . S
C2895 C2896 1.398 . S
C2895 C2901 1.491 . S
C2896 H2887 0.950 . S
C2896 C2895 1.398 . S
C2896 C2897 1.391 1_545 S
C2897 H2885 0.950 . S
C2897 C2893 1.393 . S
C2897 C2896 1.391 1_565 S
C2898 H2888 0.950 . S
C2898 C2899 1.386 . S
C2898 C2900 1.391 . S
C2899 C2898 1.386 . S
C2899 C2903 1.393 . S
C2900 H2889 0.950 . S
C2900 C2898 1.391 . S
C2900 C2901 1.400 . S
C2901 C2895 1.491 . S
C2901 C2900 1.400 . S
C2901 C2902 1.398 . S
C2902 H2890 0.950 . S
C2902 C2901 1.398 . S
C2902 C2903 1.391 . S
C2903 H2891 0.950 . S
C2903 C2899 1.393 . S
C2903 C2902 1.391 . S
H2904 C2912 0.950 . S
H2905 C2917 0.950 . S
H2906 C2914 0.950 . S
H2907 C2916 0.950 . S
H2908 C2918 0.950 . S
H2909 C2920 0.950 . S
H2910 C2922 0.950 . S
H2911 C2923 0.950 . S
C2912 H2904 0.950 . S
C2912 C2913 1.386 . S
C2912 C2914 1.391 . S
C2913 C2912 1.386 . S
C2913 C2917 1.393 . S
C2914 H2906 0.950 . S
C2914 C2912 1.391 . S
C2914 C2915 1.400 . S
C2915 C2914 1.400 . S
C2915 C2916 1.398 . S
C2915 C2921 1.491 . S
C2916 H2907 0.950 . S
C2916 C2915 1.398 . S
C2916 C2917 1.391 . S
C2917 H2905 0.950 . S
C2917 C2913 1.393 . S
C2917 C2916 1.391 . S
C2918 H2908 0.950 . S
C2918 C2919 1.386 . S
C2918 C2920 1.391 . S
C2919 C2918 1.386 . S
C2919 C2923 1.393 . S
C2920 H2909 0.950 . S
C2920 C2918 1.391 . S
C2920 C2921 1.400 . S
C2921 C2915 1.491 . S
C2921 C2920 1.400 . S
C2921 C2922 1.398 . S
C2922 H2910 0.950 . S
C2922 C2921 1.398 . S
C2922 C2923 1.391 . S
C2923 H2911 0.950 . S
C2923 C2919 1.393 . S
C2923 C2922 1.391 . S
H2924 C2932 0.950 . S
H2925 C2937 0.950 . S
H2926 C2934 0.950 1_545 S
H2927 C2936 0.950 . S
H2928 C2938 0.950 . S
H2929 C2940 0.950 . S
H2930 C2942 0.950 . S
H2931 C2943 0.950 . S
C2932 H2924 0.950 . S
C2932 C2933 1.386 . S
C2932 C2934 1.391 . S
C2933 C2932 1.386 . S
C2933 C2937 1.393 . S
C2934 H2926 0.950 1_565 S
C2934 C2932 1.391 . S
C2934 C2935 1.398 1_565 S
C2935 C2934 1.398 1_545 S
C2935 C2936 1.378 1_545 S
C2935 C2941 1.513 . S
C2936 H2927 0.950 . S
C2936 C2935 1.378 1_565 S
C2936 C2937 1.391 . S
C2937 H2925 0.950 . S
C2937 C2933 1.393 . S
C2937 C2936 1.391 . S
C2938 H2928 0.950 . S
C2938 C2939 1.386 . S
C2938 C2940 1.391 . S
C2939 C2938 1.386 . S
C2939 C2943 1.393 . S
C2940 H2929 0.950 . S
C2940 C2938 1.391 . S
C2940 C2941 1.400 . S
C2941 C2935 1.513 . S
C2941 C2940 1.400 . S
C2941 C2942 1.398 . S
C2942 H2930 0.950 . S
C2942 C2941 1.398 . S
C2942 C2943 1.391 . S
C2943 H2931 0.950 . S
C2943 C2939 1.393 . S
C2943 C2942 1.391 . S
H2944 C2952 0.950 . S
H2945 C2957 0.950 . S
H2946 C2954 0.950 . S
H2947 C2956 0.950 . S
H2948 C2958 0.950 . S
H2949 C2960 0.950 . S
H2950 C2962 0.950 . S
H2951 C2963 0.950 . S
C2952 H2944 0.950 . S
C2952 C2953 1.386 . S
C2952 C2954 1.391 . S
C2953 C2952 1.386 . S
C2953 C2957 1.393 . S
C2954 H2946 0.950 . S
C2954 C2952 1.391 . S
C2954 C2955 1.400 . S
C2955 C2954 1.400 . S
C2955 C2956 1.398 . S
C2955 C2961 1.491 . S
C2956 H2947 0.950 . S
C2956 C2955 1.398 . S
C2956 C2957 1.391 . S
C2957 H2945 0.950 . S
C2957 C2953 1.393 . S
C2957 C2956 1.391 . S
C2958 H2948 0.950 . S
C2958 C2959 1.386 . S
C2958 C2960 1.391 . S
C2959 C2958 1.386 . S
C2959 C2963 1.393 . S
C2960 H2949 0.950 . S
C2960 C2958 1.391 . S
C2960 C2961 1.400 . S
C2961 C2955 1.491 . S
C2961 C2960 1.400 . S
C2961 C2962 1.398 . S
C2962 H2950 0.950 . S
C2962 C2961 1.398 . S
C2962 C2963 1.391 . S
C2963 H2951 0.950 . S
C2963 C2959 1.393 . S
C2963 C2962 1.391 . S
H2964 C2972 0.950 . S
H2965 C2977 0.950 . S
H2966 C2974 0.950 . S
H2967 C2976 0.950 . S
H2968 C2978 0.950 . S
H2969 C2980 0.950 . S
H2970 C2982 0.950 . S
H2971 C2983 0.950 . S
C2972 H2964 0.950 . S
C2972 C2973 1.386 . S
C2972 C2974 1.391 . S
C2973 C2972 1.386 . S
C2973 C2977 1.393 . S
C2974 H2966 0.950 . S
C2974 C2972 1.391 . S
C2974 C2975 1.400 . S
C2975 C2974 1.400 . S
C2975 C2976 1.398 . S
C2975 C2981 1.491 . S
C2976 H2967 0.950 . S
C2976 C2975 1.398 . S
C2976 C2977 1.391 . S
C2977 H2965 0.950 . S
C2977 C2973 1.393 . S
C2977 C2976 1.391 . S
C2978 H2968 0.950 . S
C2978 C2979 1.386 . S
C2978 C2980 1.391 . S
C2979 C2978 1.386 . S
C2979 C2983 1.393 . S
C2980 H2969 0.950 . S
C2980 C2978 1.391 . S
C2980 C2981 1.400 . S
C2981 C2975 1.491 . S
C2981 C2980 1.400 . S
C2981 C2982 1.398 . S
C2982 H2970 0.950 . S
C2982 C2981 1.398 . S
C2982 C2983 1.391 . S
C2983 H2971 0.950 . S
C2983 C2979 1.393 . S
C2983 C2982 1.391 . S
H2984 C2992 0.950 . S
H2985 C2997 0.950 . S
H2986 C2994 0.950 . S
H2987 C2996 0.950 . S
H2988 C2998 0.950 . S
H2989 C3000 0.950 . S
H2990 C3002 0.950 . S
H2991 C3003 0.950 . S
C2992 H2984 0.950 . S
C2992 C2993 1.386 . S
C2992 C2994 1.391 . S
C2993 C2992 1.386 . S
C2993 C2997 1.393 . S
C2994 H2986 0.950 . S
C2994 C2992 1.391 . S
C2994 C2995 1.400 . S
C2995 C2994 1.400 . S
C2995 C2996 1.398 . S
C2995 C3001 1.491 . S
C2996 H2987 0.950 . S
C2996 C2995 1.398 . S
C2996 C2997 1.391 . S
C2997 H2985 0.950 . S
C2997 C2993 1.393 . S
C2997 C2996 1.391 . S
C2998 H2988 0.950 . S
C2998 C2999 1.386 . S
C2998 C3000 1.391 . S
C2999 C2998 1.386 . S
C2999 C3003 1.393 . S
C3000 H2989 0.950 . S
C3000 C2998 1.391 . S
C3000 C3001 1.400 . S
C3001 C2995 1.491 . S
C3001 C3000 1.400 . S
C3001 C3002 1.398 . S
C3002 H2990 0.950 . S
C3002 C3001 1.398 . S
C3002 C3003 1.391 . S
C3003 H2991 0.950 . S
C3003 C2999 1.393 . S
C3003 C3002 1.391 . S
H3004 C3012 0.950 . S
H3005 C3017 0.950 . S
H3006 C3014 0.950 . S
H3007 C3016 0.950 . S
H3008 C3018 0.950 . S
H3009 C3020 0.950 . S
H3010 C3022 0.950 . S
H3011 C3023 0.950 . S
C3012 H3004 0.950 . S
C3012 C3013 1.386 . S
C3012 C3014 1.391 . S
C3013 C3012 1.386 . S
C3013 C3017 1.393 . S
C3014 H3006 0.950 . S
C3014 C3012 1.391 . S
C3014 C3015 1.400 . S
C3015 C3014 1.400 . S
C3015 C3016 1.398 . S
C3015 C3021 1.491 . S
C3016 H3007 0.950 . S
C3016 C3015 1.398 . S
C3016 C3017 1.391 . S
C3017 H3005 0.950 . S
C3017 C3013 1.393 . S
C3017 C3016 1.391 . S
C3018 H3008 0.950 . S
C3018 C3019 1.386 . S
C3018 C3020 1.391 . S
C3019 C3018 1.386 . S
C3019 C3023 1.393 . S
C3020 H3009 0.950 . S
C3020 C3018 1.391 . S
C3020 C3021 1.400 . S
C3021 C3015 1.491 . S
C3021 C3020 1.400 . S
C3021 C3022 1.398 . S
C3022 H3010 0.950 . S
C3022 C3021 1.398 . S
C3022 C3023 1.391 . S
C3023 H3011 0.950 . S
C3023 C3019 1.393 . S
C3023 C3022 1.391 . S
H3024 C3032 0.950 . S
H3025 C3037 0.950 . S
H3026 C3034 0.950 . S
H3027 C3036 0.950 . S
H3028 C3038 0.950 . S
H3029 C3040 0.950 . S
H3030 C3042 0.950 . S
H3031 C3043 0.950 . S
C3032 H3024 0.950 . S
C3032 C3033 1.386 . S
C3032 C3034 1.391 . S
C3033 C3032 1.386 . S
C3033 C3037 1.393 . S
C3034 H3026 0.950 . S
C3034 C3032 1.391 . S
C3034 C3035 1.400 . S
C3035 C3034 1.400 . S
C3035 C3036 1.398 . S
C3035 C3041 1.491 . S
C3036 H3027 0.950 . S
C3036 C3035 1.398 . S
C3036 C3037 1.391 . S
C3037 H3025 0.950 . S
C3037 C3033 1.393 . S
C3037 C3036 1.391 . S
C3038 H3028 0.950 . S
C3038 C3039 1.386 . S
C3038 C3040 1.391 . S
C3039 C3038 1.386 . S
C3039 C3043 1.393 . S
C3040 H3029 0.950 . S
C3040 C3038 1.391 . S
C3040 C3041 1.400 . S
C3041 C3035 1.491 . S
C3041 C3040 1.400 . S
C3041 C3042 1.398 . S
C3042 H3030 0.950 . S
C3042 C3041 1.398 . S
C3042 C3043 1.391 . S
C3043 H3031 0.950 . S
C3043 C3039 1.393 . S
C3043 C3042 1.391 . S
H3044 C3052 0.950 . S
H3045 C3057 0.950 . S
H3046 C3054 0.950 . S
H3047 C3056 0.950 . S
H3048 C3058 0.950 . S
H3049 C3060 0.950 . S
H3050 C3062 0.950 . S
H3051 C3063 0.950 . S
C3052 H3044 0.950 . S
C3052 C3053 1.386 . S
C3052 C3054 1.391 . S
C3053 C3052 1.386 . S
C3053 C3057 1.393 . S
C3054 H3046 0.950 . S
C3054 C3052 1.391 . S
C3054 C3055 1.400 . S
C3055 C3054 1.400 . S
C3055 C3056 1.398 . S
C3055 C3061 1.491 . S
C3056 H3047 0.950 . S
C3056 C3055 1.398 . S
C3056 C3057 1.391 . S
C3057 H3045 0.950 . S
C3057 C3053 1.393 . S
C3057 C3056 1.391 . S
C3058 H3048 0.950 . S
C3058 C3059 1.386 . S
C3058 C3060 1.391 . S
C3059 C3058 1.386 . S
C3059 C3063 1.393 . S
C3060 H3049 0.950 . S
C3060 C3058 1.391 . S
C3060 C3061 1.400 . S
C3061 C3055 1.491 . S
C3061 C3060 1.400 . S
C3061 C3062 1.398 . S
C3062 H3050 0.950 . S
C3062 C3061 1.398 . S
C3062 C3063 1.391 . S
C3063 H3051 0.950 . S
C3063 C3059 1.393 . S
C3063 C3062 1.391 . S
H3064 C3072 0.950 . S
H3065 C3077 0.950 . S
H3066 C3074 0.950 . S
H3067 C3076 0.950 . S
H3068 C3078 0.950 . S
H3069 C3080 0.950 . S
H3070 C3082 0.950 . S
H3071 C3083 0.950 . S
C3072 H3064 0.950 . S
C3072 C3073 1.386 . S
C3072 C3074 1.391 . S
C3073 C3072 1.386 . S
C3073 C3077 1.393 . S
C3074 H3066 0.950 . S
C3074 C3072 1.391 . S
C3074 C3075 1.400 . S
C3075 C3074 1.400 . S
C3075 C3076 1.398 . S
C3075 C3081 1.491 . S
C3076 H3067 0.950 . S
C3076 C3075 1.398 . S
C3076 C3077 1.391 . S
C3077 H3065 0.950 . S
C3077 C3073 1.393 . S
C3077 C3076 1.391 . S
C3078 H3068 0.950 . S
C3078 C3079 1.386 . S
C3078 C3080 1.391 1_556 S
C3079 C3078 1.386 . S
C3079 C3083 1.393 . S
C3080 H3069 0.950 . S
C3080 C3078 1.391 1_554 S
C3080 C3081 1.400 . S
C3081 C3075 1.491 . S
C3081 C3080 1.400 . S
C3081 C3082 1.398 1_554 S
C3082 H3070 0.950 . S
C3082 C3081 1.398 1_556 S
C3082 C3083 1.391 . S
C3083 H3071 0.950 . S
C3083 C3079 1.393 . S
C3083 C3082 1.391 . S
H3084 C3092 0.950 . S
H3085 C3097 0.950 . S
H3086 C3094 0.950 . S
H3087 C3096 0.950 . S
H3088 C3098 0.950 . S
H3089 C3100 0.950 . S
H3090 C3102 0.950 . S
H3091 C3103 0.950 . S
C3092 H3084 0.950 . S
C3092 C3093 1.386 . S
C3092 C3094 1.391 . S
C3093 C3092 1.386 . S
C3093 C3097 1.393 . S
C3094 H3086 0.950 . S
C3094 C3092 1.391 . S
C3094 C3095 1.400 . S
C3095 C3094 1.400 . S
C3095 C3096 1.398 . S
C3095 C3101 1.491 . S
C3096 H3087 0.950 . S
C3096 C3095 1.398 . S
C3096 C3097 1.391 . S
C3097 H3085 0.950 . S
C3097 C3093 1.393 . S
C3097 C3096 1.391 . S
C3098 H3088 0.950 . S
C3098 C3099 1.386 . S
C3098 C3100 1.391 . S
C3099 C3098 1.386 . S
C3099 C3103 1.393 . S
C3100 H3089 0.950 . S
C3100 C3098 1.391 . S
C3100 C3101 1.400 . S
C3101 C3095 1.491 . S
C3101 C3100 1.400 . S
C3101 C3102 1.398 . S
C3102 H3090 0.950 . S
C3102 C3101 1.398 . S
C3102 C3103 1.391 . S
C3103 H3091 0.950 . S
C3103 C3099 1.393 . S
C3103 C3102 1.391 . S
H3104 C3112 0.950 . S
H3105 C3117 0.950 . S
H3106 C3114 0.950 . S
H3107 C3116 0.950 . S
H3108 C3118 0.950 . S
H3109 C3120 0.950 1_556 S
H3110 C3122 0.950 . S
H3111 C3123 0.950 . S
C3112 H3104 0.950 . S
C3112 C3113 1.386 . S
C3112 C3114 1.391 . S
C3113 C3112 1.386 . S
C3113 C3117 1.393 . S
C3114 H3106 0.950 . S
C3114 C3112 1.391 . S
C3114 C3115 1.400 . S
C3115 C3114 1.400 . S
C3115 C3116 1.398 . S
C3115 C3121 1.491 1_556 S
C3116 H3107 0.950 . S
C3116 C3115 1.398 . S
C3116 C3117 1.391 . S
C3117 H3105 0.950 . S
C3117 C3113 1.393 . S
C3117 C3116 1.391 . S
C3118 H3108 0.950 . S
C3118 C3119 1.386 . S
C3118 C3120 1.391 . S
C3119 C3118 1.386 . S
C3119 C3123 1.393 . S
C3120 H3109 0.950 1_554 S
C3120 C3118 1.391 . S
C3120 C3121 1.400 . S
C3121 C3115 1.491 1_554 S
C3121 C3120 1.400 . S
C3121 C3122 1.398 . S
C3122 H3110 0.950 . S
C3122 C3121 1.398 . S
C3122 C3123 1.391 . S
C3123 H3111 0.950 . S
C3123 C3119 1.393 . S
C3123 C3122 1.391 . S
H3124 C3132 0.950 . S
H3125 C3137 0.950 . S
H3126 C3134 0.950 . S
H3127 C3136 0.950 . S
H3128 C3138 0.950 . S
H3129 C3140 0.950 . S
H3130 C3142 0.950 . S
H3131 C3143 0.950 . S
C3132 H3124 0.950 . S
C3132 C3133 1.386 . S
C3132 C3134 1.391 . S
C3133 C3132 1.386 . S
C3133 C3137 1.393 . S
C3134 H3126 0.950 . S
C3134 C3132 1.391 . S
C3134 C3135 1.400 . S
C3135 C3134 1.400 . S
C3135 C3136 1.398 . S
C3135 C3141 1.491 . S
C3136 H3127 0.950 . S
C3136 C3135 1.398 . S
C3136 C3137 1.391 . S
C3137 H3125 0.950 . S
C3137 C3133 1.393 . S
C3137 C3136 1.391 . S
C3138 H3128 0.950 . S
C3138 C3139 1.386 . S
C3138 C3140 1.391 . S
C3139 C3138 1.386 . S
C3139 C3143 1.393 . S
C3140 H3129 0.950 . S
C3140 C3138 1.391 . S
C3140 C3141 1.400 . S
C3141 C3135 1.491 . S
C3141 C3140 1.400 . S
C3141 C3142 1.398 . S
C3142 H3130 0.950 . S
C3142 C3141 1.398 . S
C3142 C3143 1.391 . S
C3143 H3131 0.950 . S
C3143 C3139 1.393 . S
C3143 C3142 1.391 . S
H3144 C3152 0.950 . S
H3145 C3157 0.950 . S
H3146 C3154 0.950 . S
H3147 C3156 0.950 . S
H3148 C3158 0.950 . S
H3149 C3160 0.950 . S
H3150 C3162 0.950 . S
H3151 C3163 0.950 . S
C3152 H3144 0.950 . S
C3152 C3153 1.386 . S
C3152 C3154 1.391 . S
C3153 C3152 1.386 . S
C3153 C3157 1.393 . S
C3154 H3146 0.950 . S
C3154 C3152 1.391 . S
C3154 C3155 1.400 . S
C3155 C3154 1.400 . S
C3155 C3156 1.398 . S
C3155 C3161 1.491 . S
C3156 H3147 0.950 . S
C3156 C3155 1.398 . S
C3156 C3157 1.391 . S
C3157 H3145 0.950 . S
C3157 C3153 1.393 . S
C3157 C3156 1.391 . S
C3158 H3148 0.950 . S
C3158 C3159 1.386 . S
C3158 C3160 1.391 . S
C3159 C3158 1.386 . S
C3159 C3163 1.393 . S
C3160 H3149 0.950 . S
C3160 C3158 1.391 . S
C3160 C3161 1.400 . S
C3161 C3155 1.491 . S
C3161 C3160 1.400 . S
C3161 C3162 1.398 . S
C3162 H3150 0.950 . S
C3162 C3161 1.398 . S
C3162 C3163 1.391 . S
C3163 H3151 0.950 . S
C3163 C3159 1.393 . S
C3163 C3162 1.391 . S
H3164 C3172 0.950 . S
H3165 C3177 0.950 . S
H3166 C3174 0.950 . S
H3167 C3176 0.950 . S
H3168 C3178 0.950 . S
H3169 C3180 0.950 . S
H3170 C3182 0.950 . S
H3171 C3183 0.950 . S
C3172 H3164 0.950 . S
C3172 C3173 1.386 . S
C3172 C3174 1.391 . S
C3173 C3172 1.386 . S
C3173 C3177 1.393 . S
C3174 H3166 0.950 . S
C3174 C3172 1.391 . S
C3174 C3175 1.400 . S
C3175 C3174 1.400 . S
C3175 C3176 1.398 . S
C3175 C3181 1.491 . S
C3176 H3167 0.950 . S
C3176 C3175 1.398 . S
C3176 C3177 1.391 . S
C3177 H3165 0.950 . S
C3177 C3173 1.393 . S
C3177 C3176 1.391 . S
C3178 H3168 0.950 . S
C3178 C3179 1.386 . S
C3178 C3180 1.391 . S
C3179 C3178 1.386 . S
C3179 C3183 1.393 . S
C3180 H3169 0.950 . S
C3180 C3178 1.391 . S
C3180 C3181 1.400 . S
C3181 C3175 1.491 . S
C3181 C3180 1.400 . S
C3181 C3182 1.398 . S
C3182 H3170 0.950 . S
C3182 C3181 1.398 . S
C3182 C3183 1.391 . S
C3183 H3171 0.950 . S
C3183 C3179 1.393 . S
C3183 C3182 1.391 . S
H3184 C3192 0.950 . S
H3185 C3197 0.950 . S
H3186 C3194 0.950 . S
H3187 C3196 0.950 . S
H3188 C3198 0.950 . S
H3189 C3200 0.950 . S
H3190 C3202 0.950 . S
H3191 C3203 0.950 . S
C3192 H3184 0.950 . S
C3192 C3193 1.386 . S
C3192 C3194 1.391 . S
C3193 C3192 1.386 . S
C3193 C3197 1.393 . S
C3194 H3186 0.950 . S
C3194 C3192 1.391 . S
C3194 C3195 1.400 . S
C3195 C3194 1.400 . S
C3195 C3196 1.398 . S
C3195 C3201 1.491 . S
C3196 H3187 0.950 . S
C3196 C3195 1.398 . S
C3196 C3197 1.391 . S
C3197 H3185 0.950 . S
C3197 C3193 1.393 . S
C3197 C3196 1.391 . S
C3198 H3188 0.950 . S
C3198 C3199 1.386 . S
C3198 C3200 1.391 . S
C3199 C3198 1.386 . S
C3199 C3203 1.393 . S
C3200 H3189 0.950 . S
C3200 C3198 1.391 . S
C3200 C3201 1.400 . S
C3201 C3195 1.491 . S
C3201 C3200 1.400 . S
C3201 C3202 1.398 . S
C3202 H3190 0.950 . S
C3202 C3201 1.398 . S
C3202 C3203 1.391 . S
C3203 H3191 0.950 . S
C3203 C3199 1.393 . S
C3203 C3202 1.391 . S
H3204 C3212 0.950 . S
H3205 C3217 0.950 . S
H3206 C3214 0.950 . S
H3207 C3216 0.950 . S
H3208 C3218 0.950 . S
H3209 C3220 0.950 . S
H3210 C3222 0.950 . S
H3211 C3223 0.950 . S
C3212 H3204 0.950 . S
C3212 C3213 1.386 . S
C3212 C3214 1.391 . S
C3213 C3212 1.386 . S
C3213 C3217 1.393 . S
C3214 H3206 0.950 . S
C3214 C3212 1.391 . S
C3214 C3215 1.400 . S
C3215 C3214 1.400 . S
C3215 C3216 1.398 . S
C3215 C3221 1.491 . S
C3216 H3207 0.950 . S
C3216 C3215 1.398 . S
C3216 C3217 1.391 . S
C3217 H3205 0.950 . S
C3217 C3213 1.393 . S
C3217 C3216 1.391 . S
C3218 H3208 0.950 . S
C3218 C3219 1.386 . S
C3218 C3220 1.391 . S
C3219 C3218 1.386 . S
C3219 C3223 1.393 . S
C3220 H3209 0.950 . S
C3220 C3218 1.391 . S
C3220 C3221 1.400 . S
C3221 C3215 1.491 . S
C3221 C3220 1.400 . S
C3221 C3222 1.398 . S
C3222 H3210 0.950 . S
C3222 C3221 1.398 . S
C3222 C3223 1.391 . S
C3223 H3211 0.950 . S
C3223 C3219 1.393 . S
C3223 C3222 1.391 . S
H3224 C3232 0.950 . S
H3225 C3237 0.950 . S
H3226 C3234 0.950 . S
H3227 C3236 0.950 . S
H3228 C3238 0.950 . S
H3229 C3240 0.950 . S
H3230 C3242 0.950 . S
H3231 C3243 0.950 . S
C3232 H3224 0.950 . S
C3232 C3233 1.386 . S
C3232 C3234 1.391 . S
C3233 C3232 1.386 . S
C3233 C3237 1.393 . S
C3234 H3226 0.950 . S
C3234 C3232 1.391 . S
C3234 C3235 1.400 . S
C3235 C3234 1.400 . S
C3235 C3236 1.398 . S
C3235 C3241 1.491 1_655 S
C3236 H3227 0.950 . S
C3236 C3235 1.398 . S
C3236 C3237 1.391 . S
C3237 H3225 0.950 . S
C3237 C3233 1.393 . S
C3237 C3236 1.391 . S
C3238 H3228 0.950 . S
C3238 C3239 1.386 . S
C3238 C3240 1.391 . S
C3239 C3238 1.386 . S
C3239 C3243 1.393 . S
C3240 H3229 0.950 . S
C3240 C3238 1.391 . S
C3240 C3241 1.400 . S
C3241 C3235 1.491 1_455 S
C3241 C3240 1.400 . S
C3241 C3242 1.398 . S
C3242 H3230 0.950 . S
C3242 C3241 1.398 . S
C3242 C3243 1.391 . S
C3243 H3231 0.950 . S
C3243 C3239 1.393 . S
C3243 C3242 1.391 . S
H3244 C3252 0.950 . S
H3245 C3257 0.950 . S
H3246 C3254 0.950 . S
H3247 C3256 0.950 . S
H3248 C3258 0.950 . S
H3249 C3260 0.950 . S
H3250 C3262 0.950 . S
H3251 C3263 0.950 . S
C3252 H3244 0.950 . S
C3252 C3253 1.386 . S
C3252 C3254 1.391 . S
C3253 C3252 1.386 . S
C3253 C3257 1.393 . S
C3254 H3246 0.950 . S
C3254 C3252 1.391 . S
C3254 C3255 1.400 . S
C3255 C3254 1.400 . S
C3255 C3256 1.398 . S
C3255 C3261 1.491 . S
C3256 H3247 0.950 . S
C3256 C3255 1.398 . S
C3256 C3257 1.391 . S
C3257 H3245 0.950 . S
C3257 C3253 1.393 . S
C3257 C3256 1.391 . S
C3258 H3248 0.950 . S
C3258 C3259 1.386 . S
C3258 C3260 1.391 . S
C3259 C3258 1.386 . S
C3259 C3263 1.393 . S
C3260 H3249 0.950 . S
C3260 C3258 1.391 . S
C3260 C3261 1.400 . S
C3261 C3255 1.491 . S
C3261 C3260 1.400 . S
C3261 C3262 1.398 . S
C3262 H3250 0.950 . S
C3262 C3261 1.398 . S
C3262 C3263 1.391 . S
C3263 H3251 0.950 . S
C3263 C3259 1.393 . S
C3263 C3262 1.391 . S
H3264 C3272 0.950 . S
H3265 C3277 0.950 . S
H3266 C3274 0.950 . S
H3267 C3276 0.950 . S
H3268 C3278 0.950 . S
H3269 C3280 0.950 . S
H3270 C3282 0.950 . S
H3271 C3283 0.950 . S
C3272 H3264 0.950 . S
C3272 C3273 1.386 . S
C3272 C3274 1.391 . S
C3273 C3272 1.386 . S
C3273 C3277 1.393 . S
C3274 H3266 0.950 . S
C3274 C3272 1.391 . S
C3274 C3275 1.400 . S
C3275 C3274 1.400 . S
C3275 C3276 1.398 . S
C3275 C3281 1.491 . S
C3276 H3267 0.950 . S
C3276 C3275 1.398 . S
C3276 C3277 1.391 . S
C3277 H3265 0.950 . S
C3277 C3273 1.393 . S
C3277 C3276 1.391 . S
C3278 H3268 0.950 . S
C3278 C3279 1.386 . S
C3278 C3280 1.391 . S
C3279 C3278 1.386 . S
C3279 C3283 1.393 . S
C3280 H3269 0.950 . S
C3280 C3278 1.391 . S
C3280 C3281 1.400 . S
C3281 C3275 1.491 . S
C3281 C3280 1.400 . S
C3281 C3282 1.398 . S
C3282 H3270 0.950 . S
C3282 C3281 1.398 . S
C3282 C3283 1.391 . S
C3283 H3271 0.950 . S
C3283 C3279 1.393 . S
C3283 C3282 1.391 . S
H3284 C3292 0.950 . S
H3285 C3297 0.950 . S
H3286 C3294 0.950 . S
H3287 C3296 0.950 . S
H3288 C3298 0.950 . S
H3289 C3300 0.950 . S
H3290 C3302 0.950 . S
H3291 C3303 0.950 . S
C3292 H3284 0.950 . S
C3292 C3293 1.386 . S
C3292 C3294 1.391 . S
C3293 C3292 1.386 . S
C3293 C3297 1.393 . S
C3294 H3286 0.950 . S
C3294 C3292 1.391 . S
C3294 C3295 1.400 . S
C3295 C3294 1.400 . S
C3295 C3296 1.398 . S
C3295 C3301 1.491 . S
C3296 H3287 0.950 . S
C3296 C3295 1.398 . S
C3296 C3297 1.391 . S
C3297 H3285 0.950 . S
C3297 C3293 1.393 . S
C3297 C3296 1.391 . S
C3298 H3288 0.950 . S
C3298 C3299 1.386 . S
C3298 C3300 1.391 . S
C3299 C3298 1.386 . S
C3299 C3303 1.393 . S
C3300 H3289 0.950 . S
C3300 C3298 1.391 . S
C3300 C3301 1.400 . S
C3301 C3295 1.491 . S
C3301 C3300 1.400 . S
C3301 C3302 1.398 . S
C3302 H3290 0.950 . S
C3302 C3301 1.398 . S
C3302 C3303 1.391 . S
C3303 H3291 0.950 . S
C3303 C3299 1.393 . S
C3303 C3302 1.391 . S
H3304 C3312 0.950 . S
H3305 C3317 0.950 . S
H3306 C3314 0.950 . S
H3307 C3316 0.950 . S
H3308 C3318 0.950 . S
H3309 C3320 0.950 . S
H3310 C3322 0.950 . S
H3311 C3323 0.950 . S
C3312 H3304 0.950 . S
C3312 C3313 1.386 . S
C3312 C3314 1.391 . S
C3313 C3312 1.386 . S
C3313 C3317 1.393 . S
C3314 H3306 0.950 . S
C3314 C3312 1.391 . S
C3314 C3315 1.400 . S
C3315 C3314 1.400 . S
C3315 C3316 1.398 . S
C3315 C3321 1.491 . S
C3316 H3307 0.950 . S
C3316 C3315 1.398 . S
C3316 C3317 1.391 . S
C3317 H3305 0.950 . S
C3317 C3313 1.393 . S
C3317 C3316 1.391 . S
C3318 H3308 0.950 . S
C3318 C3319 1.386 . S
C3318 C3320 1.391 . S
C3319 C3318 1.386 . S
C3319 C3323 1.393 . S
C3320 H3309 0.950 . S
C3320 C3318 1.391 . S
C3320 C3321 1.400 1_655 S
C3321 C3315 1.491 . S
C3321 C3320 1.400 1_455 S
C3321 C3322 1.398 . S
C3322 H3310 0.950 . S
C3322 C3321 1.398 . S
C3322 C3323 1.391 1_455 S
C3323 H3311 0.950 . S
C3323 C3319 1.393 . S
C3323 C3322 1.391 1_655 S
H3324 C3332 0.950 . S
H3325 C3337 0.950 . S
H3326 C3334 0.950 . S
H3327 C3336 0.950 . S
H3328 C3338 0.950 . S
H3329 C3340 0.950 . S
H3330 C3342 0.950 . S
H3331 C3343 0.950 . S
C3332 H3324 0.950 . S
C3332 C3333 1.386 . S
C3332 C3334 1.391 . S
C3333 C3332 1.386 . S
C3333 C3337 1.393 . S
C3334 H3326 0.950 . S
C3334 C3332 1.391 . S
C3334 C3335 1.400 . S
C3335 C3334 1.400 . S
C3335 C3336 1.398 . S
C3335 C3341 1.491 . S
C3336 H3327 0.950 . S
C3336 C3335 1.398 . S
C3336 C3337 1.391 . S
C3337 H3325 0.950 . S
C3337 C3333 1.393 . S
C3337 C3336 1.391 . S
C3338 H3328 0.950 . S
C3338 C3339 1.386 . S
C3338 C3340 1.391 . S
C3339 C3338 1.386 . S
C3339 C3343 1.393 . S
C3340 H3329 0.950 . S
C3340 C3338 1.391 . S
C3340 C3341 1.400 . S
C3341 C3335 1.491 . S
C3341 C3340 1.400 . S
C3341 C3342 1.398 . S
C3342 H3330 0.950 . S
C3342 C3341 1.398 . S
C3342 C3343 1.391 . S
C3343 H3331 0.950 . S
C3343 C3339 1.393 . S
C3343 C3342 1.391 . S
H3344 C3352 0.950 . S
H3345 C3357 0.950 . S
H3346 C3354 0.950 . S
H3347 C3356 0.950 . S
H3348 C3358 0.950 . S
H3349 C3360 0.950 . S
H3350 C3362 0.950 . S
H3351 C3363 0.950 . S
C3352 H3344 0.950 . S
C3352 C3353 1.386 . S
C3352 C3354 1.391 . S
C3353 C3352 1.386 . S
C3353 C3357 1.393 . S
C3354 H3346 0.950 . S
C3354 C3352 1.391 . S
C3354 C3355 1.400 . S
C3355 C3354 1.400 . S
C3355 C3356 1.398 . S
C3355 C3361 1.491 . S
C3356 H3347 0.950 . S
C3356 C3355 1.398 . S
C3356 C3357 1.391 . S
C3357 H3345 0.950 . S
C3357 C3353 1.393 . S
C3357 C3356 1.391 . S
C3358 H3348 0.950 . S
C3358 C3359 1.386 . S
C3358 C3360 1.391 . S
C3359 C3358 1.386 . S
C3359 C3363 1.393 . S
C3360 H3349 0.950 . S
C3360 C3358 1.391 . S
C3360 C3361 1.400 . S
C3361 C3355 1.491 . S
C3361 C3360 1.400 . S
C3361 C3362 1.398 . S
C3362 H3350 0.950 . S
C3362 C3361 1.398 . S
C3362 C3363 1.391 . S
C3363 H3351 0.950 . S
C3363 C3359 1.393 . S
C3363 C3362 1.391 . S
H3364 C3372 0.950 . S
H3365 C3377 0.950 . S
H3366 C3374 0.950 . S
H3367 C3376 0.950 . S
H3368 C3378 0.950 . S
H3369 C3380 0.959 . S
H3370 C3382 0.950 1_565 S
H3371 C3383 0.950 . S
C3372 H3364 0.950 . S
C3372 C3373 1.386 . S
C3372 C3374 1.391 . S
C3373 C3372 1.386 . S
C3373 C3377 1.393 . S
C3374 H3366 0.950 . S
C3374 C3372 1.391 . S
C3374 C3375 1.400 . S
C3375 C3374 1.400 . S
C3375 C3376 1.398 . S
C3375 C3381 1.491 . S
C3376 H3367 0.950 . S
C3376 C3375 1.398 . S
C3376 C3377 1.391 . S
C3377 H3365 0.950 . S
C3377 C3373 1.393 . S
C3377 C3376 1.391 . S
C3378 H3368 0.950 . S
C3378 C3379 1.386 . S
C3378 C3380 1.391 . S
C3379 C3378 1.386 . S
C3379 C3383 1.393 . S
C3380 H3369 0.959 . S
C3380 C3378 1.391 . S
C3380 C3381 1.400 1_545 S
C3381 C3375 1.491 . S
C3381 C3380 1.400 1_565 S
C3381 C3382 1.398 1_565 S
C3382 H3370 0.950 1_545 S
C3382 C3381 1.398 1_545 S
C3382 C3383 1.391 . S
C3383 H3371 0.950 . S
C3383 C3379 1.393 . S
C3383 C3382 1.391 . S
H3384 C3392 0.950 . S
H3385 C3397 0.950 . S
H3386 C3394 0.950 . S
H3387 C3396 0.950 . S
H3388 C3398 0.950 . S
H3389 C3400 0.950 . S
H3390 C3402 0.950 . S
H3391 C3403 0.950 . S
C3392 H3384 0.950 . S
C3392 C3393 1.386 . S
C3392 C3394 1.391 . S
C3393 C3392 1.386 . S
C3393 C3397 1.393 . S
C3394 H3386 0.950 . S
C3394 C3392 1.391 . S
C3394 C3395 1.400 . S
C3395 C3394 1.400 . S
C3395 C3396 1.398 . S
C3395 C3401 1.491 . S
C3396 H3387 0.950 . S
C3396 C3395 1.398 . S
C3396 C3397 1.391 . S
C3397 H3385 0.950 . S
C3397 C3393 1.393 . S
C3397 C3396 1.391 . S
C3398 H3388 0.950 . S
C3398 C3399 1.386 . S
C3398 C3400 1.391 . S
C3399 C3398 1.386 . S
C3399 C3403 1.393 . S
C3400 H3389 0.950 . S
C3400 C3398 1.391 . S
C3400 C3401 1.400 . S
C3401 C3395 1.491 . S
C3401 C3400 1.400 . S
C3401 C3402 1.398 . S
C3402 H3390 0.950 . S
C3402 C3401 1.398 . S
C3402 C3403 1.391 . S
C3403 H3391 0.950 . S
C3403 C3399 1.393 . S
C3403 C3402 1.391 . S
H3404 C3412 0.950 . S
H3405 C3417 0.950 . S
H3406 C3414 0.950 . S
H3407 C3416 0.950 . S
H3408 C3418 0.950 . S
H3409 C3420 0.950 . S
H3410 C3422 0.950 . S
H3411 C3423 0.950 . S
C3412 H3404 0.950 . S
C3412 C3413 1.386 . S
C3412 C3414 1.391 . S
C3413 C3412 1.386 . S
C3413 C3417 1.393 . S
C3414 H3406 0.950 . S
C3414 C3412 1.391 . S
C3414 C3415 1.400 . S
C3415 C3414 1.400 . S
C3415 C3416 1.398 . S
C3415 C3421 1.491 1_565 S
C3416 H3407 0.950 . S
C3416 C3415 1.398 . S
C3416 C3417 1.391 . S
C3417 H3405 0.950 . S
C3417 C3413 1.393 . S
C3417 C3416 1.391 . S
C3418 H3408 0.950 . S
C3418 C3419 1.386 . S
C3418 C3420 1.391 . S
C3419 C3418 1.386 . S
C3419 C3423 1.393 . S
C3420 H3409 0.950 . S
C3420 C3418 1.391 . S
C3420 C3421 1.400 . S
C3421 C3415 1.491 1_545 S
C3421 C3420 1.400 . S
C3421 C3422 1.398 . S
C3422 H3410 0.950 . S
C3422 C3421 1.398 . S
C3422 C3423 1.391 . S
C3423 H3411 0.950 . S
C3423 C3419 1.393 . S
C3423 C3422 1.391 . S
H3424 C3432 0.950 . S
H3425 C3437 0.950 . S
H3426 C3434 0.950 . S
H3427 C3436 0.950 . S
H3428 C3438 0.950 . S
H3429 C3440 0.950 . S
H3430 C3442 0.950 . S
H3431 C3443 0.950 . S
C3432 H3424 0.950 . S
C3432 C3433 1.386 . S
C3432 C3434 1.391 . S
C3433 C3432 1.386 . S
C3433 C3437 1.393 . S
C3434 H3426 0.950 . S
C3434 C3432 1.391 . S
C3434 C3435 1.400 . S
C3435 C3434 1.400 . S
C3435 C3436 1.398 . S
C3435 C3441 1.491 . S
C3436 H3427 0.950 . S
C3436 C3435 1.398 . S
C3436 C3437 1.391 . S
C3437 H3425 0.950 . S
C3437 C3433 1.393 . S
C3437 C3436 1.391 . S
C3438 H3428 0.950 . S
C3438 C3439 1.386 . S
C3438 C3440 1.391 . S
C3439 C3438 1.386 . S
C3439 C3443 1.393 . S
C3440 H3429 0.950 . S
C3440 C3438 1.391 . S
C3440 C3441 1.400 . S
C3441 C3435 1.491 . S
C3441 C3440 1.400 . S
C3441 C3442 1.398 . S
C3442 H3430 0.950 . S
C3442 C3441 1.398 . S
C3442 C3443 1.391 . S
C3443 H3431 0.950 . S
C3443 C3439 1.393 . S
C3443 C3442 1.391 . S
H3444 C3452 0.950 . S
H3445 C3457 0.950 . S
H3446 C3454 0.950 . S
H3447 C3456 0.950 . S
H3448 C3458 0.950 . S
H3449 C3460 0.950 . S
H3450 C3462 0.950 . S
H3451 C3463 0.950 . S
C3452 H3444 0.950 . S
C3452 C3453 1.386 . S
C3452 C3454 1.391 . S
C3453 C3452 1.386 . S
C3453 C3457 1.393 . S
C3454 H3446 0.950 . S
C3454 C3452 1.391 . S
C3454 C3455 1.400 . S
C3455 C3454 1.400 . S
C3455 C3456 1.398 . S
C3455 C3461 1.491 . S
C3456 H3447 0.950 . S
C3456 C3455 1.398 . S
C3456 C3457 1.391 . S
C3457 H3445 0.950 . S
C3457 C3453 1.393 . S
C3457 C3456 1.391 . S
C3458 H3448 0.950 . S
C3458 C3459 1.386 . S
C3458 C3460 1.391 . S
C3459 C3458 1.386 . S
C3459 C3463 1.393 . S
C3460 H3449 0.950 . S
C3460 C3458 1.391 . S
C3460 C3461 1.400 . S
C3461 C3455 1.491 . S
C3461 C3460 1.400 . S
C3461 C3462 1.398 . S
C3462 H3450 0.950 . S
C3462 C3461 1.398 . S
C3462 C3463 1.391 . S
C3463 H3451 0.950 . S
C3463 C3459 1.393 . S
C3463 C3462 1.391 . S
H3464 C3472 0.950 . S
H3465 C3477 0.950 . S
H3466 C3474 0.950 . S
H3467 C3476 0.950 . S
H3468 C3478 0.950 . S
H3469 C3480 0.950 . S
H3470 C3482 0.950 . S
H3471 C3483 0.950 . S
C3472 H3464 0.950 . S
C3472 C3473 1.386 . S
C3472 C3474 1.391 . S
C3473 C3472 1.386 . S
C3473 C3477 1.393 . S
C3474 H3466 0.950 . S
C3474 C3472 1.391 . S
C3474 C3475 1.400 . S
C3475 C3474 1.400 . S
C3475 C3476 1.398 . S
C3475 C3481 1.491 . S
C3476 H3467 0.950 . S
C3476 C3475 1.398 . S
C3476 C3477 1.391 . S
C3477 H3465 0.950 . S
C3477 C3473 1.393 . S
C3477 C3476 1.391 . S
C3478 H3468 0.950 . S
C3478 C3479 1.386 . S
C3478 C3480 1.391 . S
C3479 C3478 1.386 . S
C3479 C3483 1.393 . S
C3480 H3469 0.950 . S
C3480 C3478 1.391 . S
C3480 C3481 1.400 . S
C3481 C3475 1.491 . S
C3481 C3480 1.400 . S
C3481 C3482 1.398 . S
C3482 H3470 0.950 . S
C3482 C3481 1.398 . S
C3482 C3483 1.391 . S
C3483 H3471 0.950 . S
C3483 C3479 1.393 . S
C3483 C3482 1.391 . S
H3484 C3492 0.950 . S
H3485 C3497 0.950 . S
H3486 C3494 0.950 . S
H3487 C3496 0.950 . S
H3488 C3498 0.950 . S
H3489 C3500 0.950 . S
H3490 C3502 0.950 . S
H3491 C3503 0.950 . S
C3492 H3484 0.950 . S
C3492 C3493 1.386 . S
C3492 C3494 1.391 . S
C3493 C3492 1.386 . S
C3493 C3497 1.393 . S
C3494 H3486 0.950 . S
C3494 C3492 1.391 . S
C3494 C3495 1.400 . S
C3495 C3494 1.400 . S
C3495 C3496 1.398 . S
C3495 C3501 1.491 . S
C3496 H3487 0.950 . S
C3496 C3495 1.398 . S
C3496 C3497 1.391 . S
C3497 H3485 0.950 . S
C3497 C3493 1.393 . S
C3497 C3496 1.391 . S
C3498 H3488 0.950 . S
C3498 C3499 1.386 . S
C3498 C3500 1.391 . S
C3499 C3498 1.386 . S
C3499 C3503 1.393 . S
C3500 H3489 0.950 . S
C3500 C3498 1.391 . S
C3500 C3501 1.400 . S
C3501 C3495 1.491 . S
C3501 C3500 1.400 . S
C3501 C3502 1.398 . S
C3502 H3490 0.950 . S
C3502 C3501 1.398 . S
C3502 C3503 1.391 . S
C3503 H3491 0.950 . S
C3503 C3499 1.393 . S
C3503 C3502 1.391 . S
H3504 C3512 0.950 . S
H3505 C3517 0.950 . S
H3506 C3514 0.950 . S
H3507 C3516 0.950 . S
H3508 C3518 0.950 . S
H3509 C3520 0.950 . S
H3510 C3522 0.950 . S
H3511 C3523 0.950 . S
C3512 H3504 0.950 . S
C3512 C3513 1.386 . S
C3512 C3514 1.391 . S
C3513 C3512 1.386 . S
C3513 C3517 1.393 . S
C3514 H3506 0.950 . S
C3514 C3512 1.391 . S
C3514 C3515 1.400 1_655 S
C3515 C3514 1.400 1_455 S
C3515 C3516 1.398 . S
C3515 C3521 1.491 . S
C3516 H3507 0.950 . S
C3516 C3515 1.398 . S
C3516 C3517 1.391 1_455 S
C3517 H3505 0.950 . S
C3517 C3513 1.393 . S
C3517 C3516 1.391 1_655 S
C3518 H3508 0.950 . S
C3518 C3519 1.386 . S
C3518 C3520 1.391 . S
C3519 C3518 1.386 . S
C3519 C3523 1.393 . S
C3520 H3509 0.950 . S
C3520 C3518 1.391 . S
C3520 C3521 1.400 . S
C3521 C3515 1.491 . S
C3521 C3520 1.400 . S
C3521 C3522 1.398 . S
C3522 H3510 0.950 . S
C3522 C3521 1.398 . S
C3522 C3523 1.391 . S
C3523 H3511 0.950 . S
C3523 C3519 1.393 . S
C3523 C3522 1.391 . S
H3524 C3532 0.950 . S
H3525 C3537 0.950 . S
H3526 C3534 0.950 . S
H3527 C3536 0.950 . S
H3528 C3538 0.950 . S
H3529 C3540 0.950 . S
H3530 C3542 0.950 1_455 S
H3531 C3543 0.950 . S
C3532 H3524 0.950 . S
C3532 C3533 1.386 . S
C3532 C3534 1.391 . S
C3533 C3532 1.386 . S
C3533 C3537 1.393 . S
C3534 H3526 0.950 . S
C3534 C3532 1.391 . S
C3534 C3535 1.400 . S
C3535 C3534 1.400 . S
C3535 C3536 1.398 . S
C3535 C3541 1.501 . S
C3536 H3527 0.950 . S
C3536 C3535 1.398 . S
C3536 C3537 1.391 . S
C3537 H3525 0.950 . S
C3537 C3533 1.393 . S
C3537 C3536 1.391 . S
C3538 H3528 0.950 . S
C3538 C3539 1.386 . S
C3538 C3540 1.391 . S
C3539 C3538 1.386 . S
C3539 C3543 1.393 . S
C3540 H3529 0.950 . S
C3540 C3538 1.391 . S
C3540 C3541 1.392 1_655 S
C3541 C3535 1.501 . S
C3541 C3540 1.392 1_455 S
C3541 C3542 1.396 1_455 S
C3542 H3530 0.950 1_655 S
C3542 C3541 1.396 1_655 S
C3542 C3543 1.391 . S
C3543 H3531 0.950 . S
C3543 C3539 1.393 . S
C3543 C3542 1.391 . S
H3544 C3552 0.950 . S
H3545 C3557 0.950 . S
H3546 C3554 0.950 . S
H3547 C3556 0.950 . S
H3548 C3558 0.950 . S
H3549 C3560 0.950 . S
H3550 C3562 0.950 . S
H3551 C3563 0.950 . S
C3552 H3544 0.950 . S
C3552 C3553 1.386 . S
C3552 C3554 1.391 . S
C3553 C3552 1.386 . S
C3553 C3557 1.393 . S
C3554 H3546 0.950 . S
C3554 C3552 1.391 . S
C3554 C3555 1.400 . S
C3555 C3554 1.400 . S
C3555 C3556 1.398 . S
C3555 C3561 1.491 . S
C3556 H3547 0.950 . S
C3556 C3555 1.398 . S
C3556 C3557 1.391 . S
C3557 H3545 0.950 . S
C3557 C3553 1.393 . S
C3557 C3556 1.391 . S
C3558 H3548 0.950 . S
C3558 C3559 1.386 . S
C3558 C3560 1.391 . S
C3559 C3558 1.386 . S
C3559 C3563 1.393 . S
C3560 H3549 0.950 . S
C3560 C3558 1.391 . S
C3560 C3561 1.400 . S
C3561 C3555 1.491 . S
C3561 C3560 1.400 . S
C3561 C3562 1.398 . S
C3562 H3550 0.950 . S
C3562 C3561 1.398 . S
C3562 C3563 1.391 . S
C3563 H3551 0.950 . S
C3563 C3559 1.393 . S
C3563 C3562 1.391 . S
H3564 C3572 0.950 . S
H3565 C3577 0.950 . S
H3566 C3574 0.950 . S
H3567 C3576 0.950 . S
H3568 C3578 0.950 . S
H3569 C3580 0.950 . S
H3570 C3582 0.950 . S
H3571 C3583 0.950 . S
C3572 H3564 0.950 . S
C3572 C3573 1.386 . S
C3572 C3574 1.391 . S
C3573 C3572 1.386 . S
C3573 C3577 1.393 . S
C3574 H3566 0.950 . S
C3574 C3572 1.391 . S
C3574 C3575 1.400 . S
C3575 C3574 1.400 . S
C3575 C3576 1.398 . S
C3575 C3581 1.491 . S
C3576 H3567 0.950 . S
C3576 C3575 1.398 . S
C3576 C3577 1.391 . S
C3577 H3565 0.950 . S
C3577 C3573 1.393 . S
C3577 C3576 1.391 . S
C3578 H3568 0.950 . S
C3578 C3579 1.386 . S
C3578 C3580 1.391 . S
C3579 C3578 1.386 . S
C3579 C3583 1.393 . S
C3580 H3569 0.950 . S
C3580 C3578 1.391 . S
C3580 C3581 1.400 . S
C3581 C3575 1.491 . S
C3581 C3580 1.400 . S
C3581 C3582 1.398 . S
C3582 H3570 0.950 . S
C3582 C3581 1.398 . S
C3582 C3583 1.391 . S
C3583 H3571 0.950 . S
C3583 C3579 1.393 . S
C3583 C3582 1.391 . S
H3584 C3592 0.950 . S
H3585 C3597 0.950 . S
H3586 C3594 0.950 . S
H3587 C3596 0.950 . S
H3588 C3598 0.950 . S
H3589 C3600 0.950 1_565 S
H3590 C3602 0.956 . S
H3591 C3603 0.950 . S
C3592 H3584 0.950 . S
C3592 C3593 1.386 . S
C3592 C3594 1.391 . S
C3593 C3592 1.386 . S
C3593 C3597 1.393 . S
C3594 H3586 0.950 . S
C3594 C3592 1.391 . S
C3594 C3595 1.400 . S
C3595 C3594 1.400 . S
C3595 C3596 1.398 . S
C3595 C3601 1.491 . S
C3596 H3587 0.950 . S
C3596 C3595 1.398 . S
C3596 C3597 1.391 . S
C3597 H3585 0.950 . S
C3597 C3593 1.393 . S
C3597 C3596 1.391 . S
C3598 H3588 0.950 . S
C3598 C3599 1.386 . S
C3598 C3600 1.391 . S
C3599 C3598 1.386 . S
C3599 C3603 1.393 . S
C3600 H3589 0.950 1_545 S
C3600 C3598 1.391 . S
C3600 C3601 1.400 1_545 S
C3601 C3595 1.491 . S
C3601 C3600 1.400 1_565 S
C3601 C3602 1.406 . S
C3602 H3590 0.956 . S
C3602 C3601 1.406 . S
C3602 C3603 1.377 1_565 S
C3603 H3591 0.950 . S
C3603 C3599 1.393 . S
C3603 C3602 1.377 1_545 S
H3604 C3612 0.950 . S
H3605 C3617 0.950 . S
H3606 C3614 0.950 . S
H3607 C3616 0.950 . S
H3608 C3618 0.950 . S
H3609 C3620 0.950 . S
H3610 C3622 0.950 . S
H3611 C3623 0.950 . S
C3612 H3604 0.950 . S
C3612 C3613 1.386 . S
C3612 C3614 1.391 . S
C3613 C3612 1.386 . S
C3613 C3617 1.393 . S
C3614 H3606 0.950 . S
C3614 C3612 1.391 . S
C3614 C3615 1.400 . S
C3615 C3614 1.400 . S
C3615 C3616 1.398 . S
C3615 C3621 1.491 . S
C3616 H3607 0.950 . S
C3616 C3615 1.398 . S
C3616 C3617 1.391 . S
C3617 H3605 0.950 . S
C3617 C3613 1.393 . S
C3617 C3616 1.391 . S
C3618 H3608 0.950 . S
C3618 C3619 1.386 . S
C3618 C3620 1.391 . S
C3619 C3618 1.386 . S
C3619 C3623 1.393 . S
C3620 H3609 0.950 . S
C3620 C3618 1.391 . S
C3620 C3621 1.400 . S
C3621 C3615 1.491 . S
C3621 C3620 1.400 . S
C3621 C3622 1.398 . S
C3622 H3610 0.950 . S
C3622 C3621 1.398 . S
C3622 C3623 1.391 . S
C3623 H3611 0.950 . S
C3623 C3619 1.393 . S
C3623 C3622 1.391 . S
H3624 C3632 0.950 . S
H3625 C3637 0.950 . S
H3626 C3634 0.950 . S
H3627 C3636 0.950 . S
H3628 C3638 0.950 . S
H3629 C3640 0.950 1_545 S
H3630 C3642 0.950 . S
H3631 C3643 0.950 . S
C3632 H3624 0.950 . S
C3632 C3633 1.386 . S
C3632 C3634 1.391 1_545 S
C3633 C3632 1.386 . S
C3633 C3637 1.393 . S
C3634 H3626 0.950 . S
C3634 C3632 1.391 1_565 S
C3634 C3635 1.400 1_565 S
C3635 C3634 1.400 1_545 S
C3635 C3636 1.398 . S
C3635 C3641 1.491 1_545 S
C3636 H3627 0.950 . S
C3636 C3635 1.398 . S
C3636 C3637 1.391 . S
C3637 H3625 0.950 . S
C3637 C3633 1.393 . S
C3637 C3636 1.391 . S
C3638 H3628 0.950 . S
C3638 C3639 1.386 . S
C3638 C3640 1.391 . S
C3639 C3638 1.386 . S
C3639 C3643 1.393 . S
C3640 H3629 0.950 1_565 S
C3640 C3638 1.391 . S
C3640 C3641 1.400 . S
C3641 C3635 1.491 1_565 S
C3641 C3640 1.400 . S
C3641 C3642 1.398 . S
C3642 H3630 0.950 . S
C3642 C3641 1.398 . S
C3642 C3643 1.391 . S
C3643 H3631 0.950 . S
C3643 C3639 1.393 . S
C3643 C3642 1.391 . S
H3644 C3652 0.950 . S
H3645 C3657 0.950 . S
H3646 C3654 0.950 . S
H3647 C3656 0.950 . S
H3648 C3658 0.950 . S
H3649 C3660 0.950 1_556 S
H3650 C3662 0.950 . S
H3651 C3663 0.950 . S
C3652 H3644 0.950 . S
C3652 C3653 1.386 . S
C3652 C3654 1.391 . S
C3653 C3652 1.386 . S
C3653 C3657 1.393 . S
C3654 H3646 0.950 . S
C3654 C3652 1.391 . S
C3654 C3655 1.400 . S
C3655 C3654 1.400 . S
C3655 C3656 1.398 . S
C3655 C3661 1.491 1_556 S
C3656 H3647 0.950 . S
C3656 C3655 1.398 . S
C3656 C3657 1.391 . S
C3657 H3645 0.950 . S
C3657 C3653 1.393 . S
C3657 C3656 1.391 . S
C3658 H3648 0.950 . S
C3658 C3659 1.386 . S
C3658 C3660 1.391 . S
C3659 C3658 1.386 . S
C3659 C3663 1.393 . S
C3660 H3649 0.950 1_554 S
C3660 C3658 1.391 . S
C3660 C3661 1.400 . S
C3661 C3655 1.491 1_554 S
C3661 C3660 1.400 . S
C3661 C3662 1.398 . S
C3662 H3650 0.950 . S
C3662 C3661 1.398 . S
C3662 C3663 1.391 . S
C3663 H3651 0.950 . S
C3663 C3659 1.393 . S
C3663 C3662 1.391 . S
H3664 C3672 0.950 . S
H3665 C3677 0.950 . S
H3666 C3674 0.950 1_556 S
H3667 C3676 0.950 . S
H3668 C3678 0.950 . S
H3669 C3680 0.983 . S
H3670 C3682 0.950 . S
H3671 C3683 0.950 . S
C3672 H3664 0.950 . S
C3672 C3673 1.386 . S
C3672 C3674 1.391 . S
C3673 C3672 1.386 . S
C3673 C3677 1.393 . S
C3674 H3666 0.950 1_554 S
C3674 C3672 1.391 . S
C3674 C3675 1.400 . S
C3675 C3674 1.400 . S
C3675 C3676 1.398 . S
C3675 C3681 1.491 1_554 S
C3676 H3667 0.950 . S
C3676 C3675 1.398 . S
C3676 C3677 1.391 . S
C3677 H3665 0.950 . S
C3677 C3673 1.393 . S
C3677 C3676 1.391 . S
C3678 H3668 0.950 . S
C3678 C3679 1.386 . S
C3678 C3680 1.366 1_556 S
C3679 C3678 1.386 . S
C3679 C3683 1.393 . S
C3680 H3669 0.983 . S
C3680 C3678 1.366 1_554 S
C3680 C3681 1.393 1_554 S
C3681 C3675 1.491 1_556 S
C3681 C3680 1.393 1_556 S
C3681 C3682 1.398 . S
C3682 H3670 0.950 . S
C3682 C3681 1.398 . S
C3682 C3683 1.391 . S
C3683 H3671 0.950 . S
C3683 C3679 1.393 . S
C3683 C3682 1.391 . S
H3684 C3692 0.950 . S
H3685 C3697 0.950 . S
H3686 C3694 0.950 . S
H3687 C3696 0.950 . S
H3688 C3698 0.950 . S
H3689 C3700 0.950 . S
H3690 C3702 0.950 . S
H3691 C3703 0.950 . S
C3692 H3684 0.950 . S
C3692 C3693 1.386 . S
C3692 C3694 1.391 . S
C3693 C3692 1.386 . S
C3693 C3697 1.393 . S
C3694 H3686 0.950 . S
C3694 C3692 1.391 . S
C3694 C3695 1.400 . S
C3695 C3694 1.400 . S
C3695 C3696 1.398 . S
C3695 C3701 1.491 . S
C3696 H3687 0.950 . S
C3696 C3695 1.398 . S
C3696 C3697 1.391 . S
C3697 H3685 0.950 . S
C3697 C3693 1.393 . S
C3697 C3696 1.391 . S
C3698 H3688 0.950 . S
C3698 C3699 1.386 . S
C3698 C3700 1.391 . S
C3699 C3698 1.386 . S
C3699 C3703 1.393 . S
C3700 H3689 0.950 . S
C3700 C3698 1.391 . S
C3700 C3701 1.400 . S
C3701 C3695 1.491 . S
C3701 C3700 1.400 . S
C3701 C3702 1.398 . S
C3702 H3690 0.950 . S
C3702 C3701 1.398 . S
C3702 C3703 1.391 . S
C3703 H3691 0.950 . S
C3703 C3699 1.393 . S
C3703 C3702 1.391 . S
H3704 C3712 0.950 . S
H3705 C3717 0.950 . S
H3706 C3714 0.950 . S
H3707 C3716 0.950 . S
H3708 C3718 0.950 . S
H3709 C3720 0.950 . S
H3710 C3722 0.950 . S
H3711 C3723 0.950 . S
C3712 H3704 0.950 . S
C3712 C3713 1.386 . S
C3712 C3714 1.391 . S
C3713 C3712 1.386 . S
C3713 C3717 1.393 . S
C3714 H3706 0.950 . S
C3714 C3712 1.391 . S
C3714 C3715 1.400 . S
C3715 C3714 1.400 . S
C3715 C3716 1.398 . S
C3715 C3721 1.491 . S
C3716 H3707 0.950 . S
C3716 C3715 1.398 . S
C3716 C3717 1.391 . S
C3717 H3705 0.950 . S
C3717 C3713 1.393 . S
C3717 C3716 1.391 . S
C3718 H3708 0.950 . S
C3718 C3719 1.386 . S
C3718 C3720 1.391 . S
C3719 C3718 1.386 . S
C3719 C3723 1.393 . S
C3720 H3709 0.950 . S
C3720 C3718 1.391 . S
C3720 C3721 1.400 . S
C3721 C3715 1.491 . S
C3721 C3720 1.400 . S
C3721 C3722 1.398 . S
C3722 H3710 0.950 . S
C3722 C3721 1.398 . S
C3722 C3723 1.391 . S
C3723 H3711 0.950 . S
C3723 C3719 1.393 . S
C3723 C3722 1.391 . S
H3724 C3732 0.950 . S
H3725 C3737 0.950 . S
H3726 C3734 0.950 . S
H3727 C3736 0.950 . S
H3728 C3738 0.950 . S
H3729 C3740 0.950 . S
H3730 C3742 0.950 . S
H3731 C3743 0.950 . S
C3732 H3724 0.950 . S
C3732 C3733 1.386 . S
C3732 C3734 1.391 . S
C3733 C3732 1.386 . S
C3733 C3737 1.393 . S
C3734 H3726 0.950 . S
C3734 C3732 1.391 . S
C3734 C3735 1.400 . S
C3735 C3734 1.400 . S
C3735 C3736 1.398 . S
C3735 C3741 1.491 . S
C3736 H3727 0.950 . S
C3736 C3735 1.398 . S
C3736 C3737 1.391 . S
C3737 H3725 0.950 . S
C3737 C3733 1.393 . S
C3737 C3736 1.391 . S
C3738 H3728 0.950 . S
C3738 C3739 1.386 . S
C3738 C3740 1.391 . S
C3739 C3738 1.386 . S
C3739 C3743 1.393 . S
C3740 H3729 0.950 . S
C3740 C3738 1.391 . S
C3740 C3741 1.400 . S
C3741 C3735 1.491 . S
C3741 C3740 1.400 . S
C3741 C3742 1.398 . S
C3742 H3730 0.950 . S
C3742 C3741 1.398 . S
C3742 C3743 1.391 . S
C3743 H3731 0.950 . S
C3743 C3739 1.393 . S
C3743 C3742 1.391 . S
H3744 C3752 0.950 . S
H3745 C3757 0.950 . S
H3746 C3754 0.950 . S
H3747 C3756 0.950 . S
H3748 C3758 0.950 . S
H3749 C3760 0.950 . S
H3750 C3762 0.950 . S
H3751 C3763 0.950 . S
C3752 H3744 0.950 . S
C3752 C3753 1.386 . S
C3752 C3754 1.391 . S
C3753 C3752 1.386 . S
C3753 C3757 1.393 . S
C3754 H3746 0.950 . S
C3754 C3752 1.391 . S
C3754 C3755 1.400 . S
C3755 C3754 1.400 . S
C3755 C3756 1.398 . S
C3755 C3761 1.491 . S
C3756 H3747 0.950 . S
C3756 C3755 1.398 . S
C3756 C3757 1.391 . S
C3757 H3745 0.950 . S
C3757 C3753 1.393 . S
C3757 C3756 1.391 . S
C3758 H3748 0.950 . S
C3758 C3759 1.386 . S
C3758 C3760 1.391 . S
C3759 C3758 1.386 . S
C3759 C3763 1.393 . S
C3760 H3749 0.950 . S
C3760 C3758 1.391 . S
C3760 C3761 1.400 1_455 S
C3761 C3755 1.491 . S
C3761 C3760 1.400 1_655 S
C3761 C3762 1.398 . S
C3762 H3750 0.950 . S
C3762 C3761 1.398 . S
C3762 C3763 1.391 1_655 S
C3763 H3751 0.950 . S
C3763 C3759 1.393 . S
C3763 C3762 1.391 1_455 S
H3764 C3772 0.950 . S
H3765 C3777 0.950 . S
H3766 C3774 0.950 . S
H3767 C3776 0.950 1_455 S
H3768 C3778 0.950 . S
H3769 C3780 0.950 . S
H3770 C3782 0.950 . S
H3771 C3783 0.950 1_655 S
C3772 H3764 0.950 . S
C3772 C3773 1.386 . S
C3772 C3774 1.391 . S
C3773 C3772 1.386 . S
C3773 C3777 1.393 . S
C3774 H3766 0.950 . S
C3774 C3772 1.391 . S
C3774 C3775 1.400 . S
C3775 C3774 1.400 . S
C3775 C3776 1.398 . S
C3775 C3781 1.491 . S
C3776 H3767 0.950 1_655 S
C3776 C3775 1.398 . S
C3776 C3777 1.391 . S
C3777 H3765 0.950 . S
C3777 C3773 1.393 . S
C3777 C3776 1.391 . S
C3778 H3768 0.950 . S
C3778 C3779 1.386 . S
C3778 C3780 1.391 . S
C3779 C3778 1.386 . S
C3779 C3783 1.393 . S
C3780 H3769 0.950 . S
C3780 C3778 1.391 . S
C3780 C3781 1.400 1_455 S
C3781 C3775 1.491 . S
C3781 C3780 1.400 1_655 S
C3781 C3782 1.398 . S
C3782 H3770 0.950 . S
C3782 C3781 1.398 . S
C3782 C3783 1.391 1_655 S
C3783 H3771 0.950 1_455 S
C3783 C3779 1.393 . S
C3783 C3782 1.391 1_455 S
H3784 C3792 0.950 . S
H3785 C3797 0.950 . S
H3786 C3794 0.950 . S
H3787 C3796 0.950 . S
H3788 C3798 0.950 . S
H3789 C3800 0.950 . S
H3790 C3802 0.950 . S
H3791 C3803 0.950 . S
C3792 H3784 0.950 . S
C3792 C3793 1.386 . S
C3792 C3794 1.391 . S
C3793 C3792 1.386 . S
C3793 C3797 1.393 . S
C3794 H3786 0.950 . S
C3794 C3792 1.391 . S
C3794 C3795 1.400 . S
C3795 C3794 1.400 . S
C3795 C3796 1.398 . S
C3795 C3801 1.491 . S
C3796 H3787 0.950 . S
C3796 C3795 1.398 . S
C3796 C3797 1.391 . S
C3797 H3785 0.950 . S
C3797 C3793 1.393 . S
C3797 C3796 1.391 . S
C3798 H3788 0.950 . S
C3798 C3799 1.386 . S
C3798 C3800 1.391 . S
C3799 C3798 1.386 . S
C3799 C3803 1.393 . S
C3800 H3789 0.950 . S
C3800 C3798 1.391 . S
C3800 C3801 1.400 . S
C3801 C3795 1.491 . S
C3801 C3800 1.400 . S
C3801 C3802 1.398 . S
C3802 H3790 0.950 . S
C3802 C3801 1.398 . S
C3802 C3803 1.391 . S
C3803 H3791 0.950 . S
C3803 C3799 1.393 . S
C3803 C3802 1.391 . S
H3804 C3812 0.950 . S
H3805 C3817 0.950 . S
H3806 C3814 0.950 . S
H3807 C3816 0.950 . S
H3808 C3818 0.950 . S
H3809 C3820 0.950 . S
H3810 C3822 0.950 . S
H3811 C3823 0.950 . S
C3812 H3804 0.950 . S
C3812 C3813 1.386 . S
C3812 C3814 1.391 . S
C3813 C3812 1.386 . S
C3813 C3817 1.393 . S
C3814 H3806 0.950 . S
C3814 C3812 1.391 . S
C3814 C3815 1.400 . S
C3815 C3814 1.400 . S
C3815 C3816 1.398 . S
C3815 C3821 1.491 . S
C3816 H3807 0.950 . S
C3816 C3815 1.398 . S
C3816 C3817 1.391 . S
C3817 H3805 0.950 . S
C3817 C3813 1.393 . S
C3817 C3816 1.391 . S
C3818 H3808 0.950 . S
C3818 C3819 1.386 . S
C3818 C3820 1.391 . S
C3819 C3818 1.386 . S
C3819 C3823 1.393 . S
C3820 H3809 0.950 . S
C3820 C3818 1.391 . S
C3820 C3821 1.400 . S
C3821 C3815 1.491 . S
C3821 C3820 1.400 . S
C3821 C3822 1.398 . S
C3822 H3810 0.950 . S
C3822 C3821 1.398 . S
C3822 C3823 1.391 . S
C3823 H3811 0.950 . S
C3823 C3819 1.393 . S
C3823 C3822 1.391 . S
H3824 C3832 0.950 . S
H3825 C3837 0.950 . S
H3826 C3834 0.950 . S
H3827 C3836 0.950 . S
H3828 C3838 0.950 . S
H3829 C3840 0.950 . S
H3830 C3842 0.950 . S
H3831 C3843 0.950 . S
C3832 H3824 0.950 . S
C3832 C3833 1.386 . S
C3832 C3834 1.391 . S
C3833 C3832 1.386 . S
C3833 C3837 1.393 . S
C3834 H3826 0.950 . S
C3834 C3832 1.391 . S
C3834 C3835 1.400 . S
C3835 C3834 1.400 . S
C3835 C3836 1.398 . S
C3835 C3841 1.491 . S
C3836 H3827 0.950 . S
C3836 C3835 1.398 . S
C3836 C3837 1.391 . S
C3837 H3825 0.950 . S
C3837 C3833 1.393 . S
C3837 C3836 1.391 . S
C3838 H3828 0.950 . S
C3838 C3839 1.386 . S
C3838 C3840 1.391 1_565 S
C3839 C3838 1.386 . S
C3839 C3843 1.393 . S
C3840 H3829 0.950 . S
C3840 C3838 1.391 1_545 S
C3840 C3841 1.400 . S
C3841 C3835 1.491 . S
C3841 C3840 1.400 . S
C3841 C3842 1.398 1_545 S
C3842 H3830 0.950 . S
C3842 C3841 1.398 1_565 S
C3842 C3843 1.391 . S
C3843 H3831 0.950 . S
C3843 C3839 1.393 . S
C3843 C3842 1.391 . S
H3844 C3852 0.950 . S
H3845 C3857 0.950 . S
H3846 C3854 0.950 . S
H3847 C3856 0.950 . S
H3848 C3858 0.950 . S
H3849 C3860 0.950 . S
H3850 C3862 0.950 . S
H3851 C3863 0.950 . S
C3852 H3844 0.950 . S
C3852 C3853 1.386 . S
C3852 C3854 1.391 . S
C3853 C3852 1.386 . S
C3853 C3857 1.393 . S
C3854 H3846 0.950 . S
C3854 C3852 1.391 . S
C3854 C3855 1.400 . S
C3855 C3854 1.400 . S
C3855 C3856 1.398 . S
C3855 C3861 1.491 . S
C3856 H3847 0.950 . S
C3856 C3855 1.398 . S
C3856 C3857 1.391 . S
C3857 H3845 0.950 . S
C3857 C3853 1.393 . S
C3857 C3856 1.391 . S
C3858 H3848 0.950 . S
C3858 C3859 1.386 . S
C3858 C3860 1.391 . S
C3859 C3858 1.386 . S
C3859 C3863 1.393 . S
C3860 H3849 0.950 . S
C3860 C3858 1.391 . S
C3860 C3861 1.400 . S
C3861 C3855 1.491 . S
C3861 C3860 1.400 . S
C3861 C3862 1.398 . S
C3862 H3850 0.950 . S
C3862 C3861 1.398 . S
C3862 C3863 1.391 . S
C3863 H3851 0.950 . S
C3863 C3859 1.393 . S
C3863 C3862 1.391 . S
H3864 C3872 0.950 . S
H3865 C3877 0.950 . S
H3866 C3874 0.950 . S
H3867 C3876 0.944 1_565 S
H3868 C3878 0.950 . S
H3869 C3880 0.950 . S
H3870 C3882 0.950 1_545 S
H3871 C3883 0.950 . S
C3872 H3864 0.950 . S
C3872 C3873 1.386 . S
C3872 C3874 1.391 . S
C3873 C3872 1.386 . S
C3873 C3877 1.393 . S
C3874 H3866 0.950 . S
C3874 C3872 1.391 . S
C3874 C3875 1.400 . S
C3875 C3874 1.400 . S
C3875 C3876 1.398 . S
C3875 C3881 1.491 1_545 S
C3876 H3867 0.944 1_545 S
C3876 C3875 1.398 . S
C3876 C3877 1.391 . S
C3877 H3865 0.950 . S
C3877 C3873 1.393 . S
C3877 C3876 1.391 . S
C3878 H3868 0.950 . S
C3878 C3879 1.386 . S
C3878 C3880 1.391 . S
C3879 C3878 1.386 . S
C3879 C3883 1.393 . S
C3880 H3869 0.950 . S
C3880 C3878 1.391 . S
C3880 C3881 1.400 . S
C3881 C3875 1.491 1_565 S
C3881 C3880 1.400 . S
C3881 C3882 1.398 . S
C3882 H3870 0.950 1_565 S
C3882 C3881 1.398 . S
C3882 C3883 1.391 . S
C3883 H3871 0.950 . S
C3883 C3879 1.393 . S
C3883 C3882 1.391 . S
H3884 C3892 0.950 . S
H3885 C3897 0.950 . S
H3886 C3894 0.950 . S
H3887 C3896 0.950 . S
H3888 C3898 0.950 . S
H3889 C3900 0.950 . S
H3890 C3902 0.950 . S
H3891 C3903 0.950 . S
C3892 H3884 0.950 . S
C3892 C3893 1.386 . S
C3892 C3894 1.391 . S
C3893 C3892 1.386 . S
C3893 C3897 1.393 . S
C3894 H3886 0.950 . S
C3894 C3892 1.391 . S
C3894 C3895 1.359 1_556 S
C3895 C3894 1.359 1_554 S
C3895 C3896 1.406 . S
C3895 C3901 1.524 . S
C3896 H3887 0.950 . S
C3896 C3895 1.406 . S
C3896 C3897 1.391 1_554 S
C3897 H3885 0.950 . S
C3897 C3893 1.393 . S
C3897 C3896 1.391 1_556 S
C3898 H3888 0.950 . S
C3898 C3899 1.386 . S
C3898 C3900 1.391 . S
C3899 C3898 1.386 . S
C3899 C3903 1.393 . S
C3900 H3889 0.950 . S
C3900 C3898 1.391 . S
C3900 C3901 1.400 . S
C3901 C3895 1.524 . S
C3901 C3900 1.400 . S
C3901 C3902 1.398 . S
C3902 H3890 0.950 . S
C3902 C3901 1.398 . S
C3902 C3903 1.391 . S
C3903 H3891 0.950 . S
C3903 C3899 1.393 . S
C3903 C3902 1.391 . S
H3904 C3912 0.950 . S
H3905 C3917 0.950 . S
H3906 C3914 0.950 . S
H3907 C3916 0.950 . S
H3908 C3918 0.948 1_556 S
H3909 C3920 0.950 . S
H3910 C3922 0.950 . S
H3911 C3923 0.950 . S
C3912 H3904 0.950 . S
C3912 C3913 1.386 . S
C3912 C3914 1.391 . S
C3913 C3912 1.386 . S
C3913 C3917 1.393 . S
C3914 H3906 0.950 . S
C3914 C3912 1.391 . S
C3914 C3915 1.400 . S
C3915 C3914 1.400 . S
C3915 C3916 1.398 . S
C3915 C3921 1.491 . S
C3916 H3907 0.950 . S
C3916 C3915 1.398 . S
C3916 C3917 1.391 . S
C3917 H3905 0.950 . S
C3917 C3913 1.393 . S
C3917 C3916 1.391 . S
C3918 H3908 0.948 1_554 S
C3918 C3919 1.386 . S
C3918 C3920 1.391 1_554 S
C3919 C3918 1.386 . S
C3919 C3923 1.393 . S
C3920 H3909 0.950 . S
C3920 C3918 1.391 1_556 S
C3920 C3921 1.400 . S
C3921 C3915 1.491 . S
C3921 C3920 1.400 . S
C3921 C3922 1.398 1_556 S
C3922 H3910 0.950 . S
C3922 C3921 1.398 1_554 S
C3922 C3923 1.391 . S
C3923 H3911 0.950 . S
C3923 C3919 1.393 . S
C3923 C3922 1.391 . S
H3924 C3932 0.950 . S
H3925 C3937 0.950 . S
H3926 C3934 0.950 . S
H3927 C3936 0.950 . S
H3928 C3938 0.950 . S
H3929 C3940 0.950 . S
H3930 C3942 0.950 . S
H3931 C3943 0.950 . S
C3932 H3924 0.950 . S
C3932 C3933 1.386 . S
C3932 C3934 1.391 . S
C3933 C3932 1.386 . S
C3933 C3937 1.393 . S
C3934 H3926 0.950 . S
C3934 C3932 1.391 . S
C3934 C3935 1.400 . S
C3935 C3934 1.400 . S
C3935 C3936 1.398 . S
C3935 C3941 1.491 . S
C3936 H3927 0.950 . S
C3936 C3935 1.398 . S
C3936 C3937 1.391 . S
C3937 H3925 0.950 . S
C3937 C3933 1.393 . S
C3937 C3936 1.391 . S
C3938 H3928 0.950 . S
C3938 C3939 1.386 . S
C3938 C3940 1.391 . S
C3939 C3938 1.386 . S
C3939 C3943 1.393 . S
C3940 H3929 0.950 . S
C3940 C3938 1.391 . S
C3940 C3941 1.400 . S
C3941 C3935 1.491 . S
C3941 C3940 1.400 . S
C3941 C3942 1.398 . S
C3942 H3930 0.950 . S
C3942 C3941 1.398 . S
C3942 C3943 1.391 . S
C3943 H3931 0.950 . S
C3943 C3939 1.393 . S
C3943 C3942 1.391 . S
H3944 C3952 0.950 . S
H3945 C3957 0.950 . S
H3946 C3954 0.950 . S
H3947 C3956 0.950 . S
H3948 C3958 0.950 . S
H3949 C3960 0.950 . S
H3950 C3962 0.950 . S
H3951 C3963 0.950 . S
C3952 H3944 0.950 . S
C3952 C3953 1.386 . S
C3952 C3954 1.391 . S
C3953 C3952 1.386 . S
C3953 C3957 1.393 . S
C3954 H3946 0.950 . S
C3954 C3952 1.391 . S
C3954 C3955 1.400 . S
C3955 C3954 1.400 . S
C3955 C3956 1.398 . S
C3955 C3961 1.491 . S
C3956 H3947 0.950 . S
C3956 C3955 1.398 . S
C3956 C3957 1.391 . S
C3957 H3945 0.950 . S
C3957 C3953 1.393 . S
C3957 C3956 1.391 . S
C3958 H3948 0.950 . S
C3958 C3959 1.386 . S
C3958 C3960 1.391 . S
C3959 C3958 1.386 . S
C3959 C3963 1.393 . S
C3960 H3949 0.950 . S
C3960 C3958 1.391 . S
C3960 C3961 1.400 . S
C3961 C3955 1.491 . S
C3961 C3960 1.400 . S
C3961 C3962 1.398 . S
C3962 H3950 0.950 . S
C3962 C3961 1.398 . S
C3962 C3963 1.391 . S
C3963 H3951 0.950 . S
C3963 C3959 1.393 . S
C3963 C3962 1.391 . S
H3964 C3972 0.950 . S
H3965 C3977 0.950 . S
H3966 C3974 0.950 . S
H3967 C3976 0.950 . S
H3968 C3978 0.950 . S
H3969 C3980 0.950 . S
H3970 C3982 0.950 . S
H3971 C3983 0.950 . S
C3972 H3964 0.950 . S
C3972 C3973 1.386 . S
C3972 C3974 1.391 . S
C3973 C3972 1.386 . S
C3973 C3977 1.393 . S
C3974 H3966 0.950 . S
C3974 C3972 1.391 . S
C3974 C3975 1.400 . S
C3975 C3974 1.400 . S
C3975 C3976 1.398 . S
C3975 C3981 1.491 . S
C3976 H3967 0.950 . S
C3976 C3975 1.398 . S
C3976 C3977 1.391 . S
C3977 H3965 0.950 . S
C3977 C3973 1.393 . S
C3977 C3976 1.391 . S
C3978 H3968 0.950 . S
C3978 C3979 1.386 . S
C3978 C3980 1.391 . S
C3979 C3978 1.386 . S
C3979 C3983 1.393 . S
C3980 H3969 0.950 . S
C3980 C3978 1.391 . S
C3980 C3981 1.400 . S
C3981 C3975 1.491 . S
C3981 C3980 1.400 . S
C3981 C3982 1.398 . S
C3982 H3970 0.950 . S
C3982 C3981 1.398 . S
C3982 C3983 1.391 . S
C3983 H3971 0.950 . S
C3983 C3979 1.393 . S
C3983 C3982 1.391 . S
C1593 N2 0.810 . S
C1599 C1275 0.799 . S
C1613 N35 0.687 . S
C1619 C1195 0.743 . S
C1633 N79 0.719 . S
C1639 C1572 0.683 . S
C1653 C1129 1.173 . S
C1659 N112 1.161 . S
C1673 N134 0.935 . S
C1679 C1327 0.868 . S
C1693 C1077 0.951 . S
C1699 N178 0.945 . S
C1713 N211 1.039 . S
C1719 C1360 1.040 . S
C1733 N233 0.689 . S
C1739 C1011 0.715 . S
C1753 C997 0.877 . S
C1759 N277 0.878 . S
C1773 N310 1.037 . S
C1779 C1341 1.072 . S
C1793 N332 1.026 . S
C1799 C1063 0.993 . S
C1813 C1374 0.800 . S
C1819 N376 0.779 . S
C1833 N409 0.759 . S
C1839 C1209 0.778 . S
C1853 N431 0.788 . S
C1859 C1558 0.750 . S
C1873 C1143 0.816 . S
C1879 N464 0.797 . S
C1893 N497 0.731 . S
C1899 C1261 0.733 . S
C1913 C799 1.014 . S
C1919 N365 1.063 . S
C1933 C700 0.834 . S
C1939 N541 0.819 . S
C1953 N574 0.899 . S
C1959 C912 0.906 . S
C1973 C780 0.761 . S
C1979 N607 0.743 . S
C1993 C813 0.988 . S
C1999 N398 0.999 . S
C2013 N299 1.109 . S
C2019 C733 1.004 . S
C2033 C766 0.712 . S
C2039 N640 0.708 . S
C2053 C714 0.841 . S
C2059 N662 0.876 . S
C2073 C568 0.941 . S
C2079 N695 1.022 . S
C2093 C502 0.848 . S
C2099 N739 0.836 . S
C2113 C1473 0.685 . S
C2119 N772 0.669 . S
C2133 N805 0.820 . S
C2139 C436 0.809 . S
C2153 C634 1.064 . S
C2159 N827 1.129 . S
C2173 N871 1.019 . S
C2179 C384 1.083 . S
C2193 C681 0.623 . S
C2199 N893 0.562 . S
C2213 C318 0.888 . S
C2219 N926 0.892 . S
C2233 C304 0.561 . S
C2239 N959 0.558 . S
C2253 C648 0.923 . S
C2259 N1003 0.885 . S
C2273 N1025 0.805 . S
C2279 C370 0.813 . S
C2293 N1069 1.196 . S
C2299 C667 1.208 . S
C2313 N1102 0.960 . S
C2319 C516 0.966 . S
C2333 N1124 0.769 . S
C2339 C1459 0.730 . S
C2353 N1168 1.133 . S
C2359 C450 1.156 . S
C2373 N1190 0.574 . S
C2379 C582 0.584 . S
C2393 C106 1.095 . S
C2399 N1058 1.150 . S
C2413 C7 0.813 . S
C2419 N1234 0.787 . S
C2433 C205 0.839 . S
C2439 N1256 0.897 . S
C2453 C87 0.791 . S
C2459 N1300 0.773 . S
C2473 N1091 0.905 . S
C2479 C120 0.871 . S
C2493 C54 0.851 . S
C2499 N992 0.944 . S
C2513 C73 0.788 . S
C2519 N1333 0.776 . S
C2533 N1366 0.862 . S
C2539 C21 0.875 . S
C2553 C1176 0.801 . S
C2559 N167 0.811 . S
C2573 C1294 0.717 . S
C2579 N200 0.685 . S
C2593 N244 0.722 . S
C2599 C1110 0.688 . S
C2613 C1228 1.132 . S
C2619 N145 1.121 . S
C2633 N101 0.929 . S
C2639 C1030 0.917 . S
C2653 N13 0.933 . S
C2659 C1539 0.935 . S
C2673 C964 1.026 . S
C2679 N46 1.029 . S
C2693 N68 0.689 . S
C2699 C1506 0.705 . S
C2713 N673 0.881 . S
C2719 C1492 0.903 . S
C2733 N1399 1.029 . S
C2739 C1044 1.050 . S
C2753 N629 1.025 . S
C2759 C1525 0.995 . S
C2773 C978 0.816 . S
C2779 N1432 0.792 . S
C2793 N1465 0.760 . S
C2799 C1308 0.747 . S
C2813 N530 0.784 . S
C2819 C1096 0.751 . S
C2833 C1242 0.797 . S
C2839 N563 0.796 . S
C2853 N596 0.726 . S
C2859 C1162 0.769 . S
C2873 C832 1.002 . S
C2879 N1421 1.060 . S
C2893 N442 0.827 . S
C2899 C865 0.837 . S
C2913 N475 0.827 . S
C2919 C747 0.845 . S
C2933 C945 0.761 . S
C2939 N508 0.743 . S
C2953 C846 0.986 . S
C2959 N1454 0.999 . S
C2973 C898 1.007 . S
C2979 N1388 1.109 . S
C2993 N343 0.692 . S
C2999 C931 0.672 . S
C3013 C879 0.867 . S
C3019 N266 0.862 . S
C3033 C469 0.968 . S
C3039 N860 1.022 . S
C3053 C601 0.838 . S
C3059 N904 0.826 . S
C3073 C417 0.674 . S
C3079 N937 0.707 . S
C3093 N838 0.822 . S
C3099 C535 0.812 . S
C3113 C337 1.063 . S
C3119 N794 1.129 . S
C3133 N706 1.050 . S
C3139 C1440 1.082 . S
C3153 C285 0.628 . S
C3159 N728 0.558 . S
C3173 C1407 0.843 . S
C3179 N761 0.894 . S
C3193 C1393 0.612 . S
C3199 N1355 0.530 . S
C3213 N1498 0.866 . S
C3219 C351 0.908 . S
C3233 C1426 0.825 . S
C3239 N1322 0.800 . S
C3253 N1531 1.183 . S
C3259 C271 1.204 . S
C3273 C615 0.917 . S
C3279 N1564 0.916 . S
C3293 C403 0.737 . S
C3299 N1223 0.770 . S
C3313 N1267 1.133 . S
C3319 C549 1.157 . S
C3333 C483 0.645 . S
C3339 N1289 0.561 . S
C3353 N1520 1.152 . S
C3359 C139 1.086 . S
C3373 C172 0.813 . S
C3379 N1135 0.787 . S
C3393 C40 0.879 . S
C3399 N1157 0.899 . S
C3413 N1201 0.785 . S
C3419 C252 0.780 . S
C3433 N1553 0.901 . S
C3439 C153 0.865 . S
C3453 N1487 0.954 . S
C3459 C219 0.908 . S
C3473 N1036 0.784 . S
C3479 C238 0.771 . S
C3493 C186 0.902 . S
C3499 N970 0.903 . S
C3513 C249 2.864 . S
C3519 C18 2.862 . S
C3533 C150 2.676 . S
C3539 C51 2.675 . S
C3553 C183 2.862 . S
C3559 C84 2.864 . S
C3573 C216 2.674 . S
C3579 C117 2.675 . S
C3593 C414 2.708 . S
C3599 C282 2.706 . S
C3613 C447 2.753 . S
C3619 C315 2.753 . S
C3633 C480 2.759 . S
C3639 C348 2.760 . S
C3653 C513 2.867 . S
C3659 C381 2.867 . S
C3673 C1404 2.754 . S
C3679 C546 2.753 . S
C3693 C579 2.760 . S
C3699 C645 2.760 . S
C3713 C612 2.868 . S
C3719 C1437 2.868 . S
C3733 C678 2.707 . S
C3739 C1470 2.707 . S
C3753 C711 2.709 . S
C3759 C942 2.712 . S
C3773 C843 2.890 . S
C3779 C744 2.885 . S
C3793 C876 2.710 . S
C3799 C777 2.711 . S
C3813 C909 2.882 . S
C3819 C810 2.889 . S
C3833 C1107 2.836 . S
C3839 C975 2.838 . S
C3853 C1008 2.768 . S
C3859 C1140 2.771 . S
C3873 C1041 2.727 . S
C3879 C1173 2.727 . S
C3893 C1074 2.706 . S
C3899 C1206 2.706 . S
C3913 C1503 2.767 . S
C3919 C1239 2.770 . S
C3933 C1338 2.726 . S
C3939 C1272 2.727 . S
C3953 C1305 2.706 . S
C3959 C1536 2.706 . S
C3973 C1569 2.834 . S
C3979 C1371 2.838 . S
