# Generated by pormake.
# Topology ske, (6)-cn, num edge types: 1
# Building blocks:
#     Node 0, Type 0, BuildingBlock: VOLQOD_clean_sbu_1, # of connection points: 6
#     Node 1, Type 0, BuildingBlock: VOLQOD_clean_sbu_1, # of connection points: 6
#     Node 2, Type 0, BuildingBlock: VOLQOD_clean_sbu_1, # of connection points: 6
#     Node 3, Type 0, BuildingBlock: VOLQOD_clean_sbu_1, # of connection points: 6
#     Node 4, Type 0, BuildingBlock: VOLQOD_clean_sbu_1, # of connection points: 6
#     Node 5, Type 0, BuildingBlock: VOLQOD_clean_sbu_1, # of connection points: 6
#     Node 6, Type 0, BuildingBlock: VOLQOD_clean_sbu_1, # of connection points: 6
#     Node 7, Type 0, BuildingBlock: VOLQOD_clean_sbu_1, # of connection points: 6
#     Edge 8, Type (0, 0), BuildingBlock: KIFKEQ_clean_linker_1, # of connection points: 2
#     Edge 9, Type (0, 0), BuildingBlock: KIFKEQ_clean_linker_1, # of connection points: 2
#     Edge 10, Type (0, 0), BuildingBlock: KIFKEQ_clean_linker_1, # of connection points: 2
#     Edge 11, Type (0, 0), BuildingBlock: KIFKEQ_clean_linker_1, # of connection points: 2
#     Edge 12, Type (0, 0), BuildingBlock: KIFKEQ_clean_linker_1, # of connection points: 2
#     Edge 13, Type (0, 0), BuildingBlock: KIFKEQ_clean_linker_1, # of connection points: 2
#     Edge 14, Type (0, 0), BuildingBlock: KIFKEQ_clean_linker_1, # of connection points: 2
#     Edge 15, Type (0, 0), BuildingBlock: KIFKEQ_clean_linker_1, # of connection points: 2
#     Edge 16, Type (0, 0), BuildingBlock: KIFKEQ_clean_linker_1, # of connection points: 2
#     Edge 17, Type (0, 0), BuildingBlock: KIFKEQ_clean_linker_1, # of connection points: 2
#     Edge 18, Type (0, 0), BuildingBlock: KIFKEQ_clean_linker_1, # of connection points: 2
#     Edge 19, Type (0, 0), BuildingBlock: KIFKEQ_clean_linker_1, # of connection points: 2
#     Edge 20, Type (0, 0), BuildingBlock: KIFKEQ_clean_linker_1, # of connection points: 2
#     Edge 21, Type (0, 0), BuildingBlock: KIFKEQ_clean_linker_1, # of connection points: 2
#     Edge 22, Type (0, 0), BuildingBlock: KIFKEQ_clean_linker_1, # of connection points: 2
#     Edge 23, Type (0, 0), BuildingBlock: KIFKEQ_clean_linker_1, # of connection points: 2
#     Edge 24, Type (0, 0), BuildingBlock: KIFKEQ_clean_linker_1, # of connection points: 2
#     Edge 25, Type (0, 0), BuildingBlock: KIFKEQ_clean_linker_1, # of connection points: 2
#     Edge 26, Type (0, 0), BuildingBlock: KIFKEQ_clean_linker_1, # of connection points: 2
#     Edge 27, Type (0, 0), BuildingBlock: KIFKEQ_clean_linker_1, # of connection points: 2
#     Edge 28, Type (0, 0), BuildingBlock: KIFKEQ_clean_linker_1, # of connection points: 2
#     Edge 29, Type (0, 0), BuildingBlock: KIFKEQ_clean_linker_1, # of connection points: 2
#     Edge 30, Type (0, 0), BuildingBlock: KIFKEQ_clean_linker_1, # of connection points: 2
#     Edge 31, Type (0, 0), BuildingBlock: KIFKEQ_clean_linker_1, # of connection points: 2
# Relax obj value: 0.030
# Max RMSD: 0.058
# Mean RMSD: 0.058
data_MOF--net-ske--node1-VOLQOD_clean_sbu_1--edge1-KIFKEQ_clean_linker_1
_symmetry_space_group_name_H-M    P1
_symmetry_Int_Tables_number       1
_symmetry_cell_setting            triclinic
loop_
_symmetry_equiv_pos_as_xyz
'x, y, z'
_cell_length_a     67.699925
_cell_length_b     34.046245
_cell_length_c     17.408209
_cell_angle_alpha  90.006124
_cell_angle_beta   90.000847
_cell_angle_gamma 90.07494
loop_
_atom_site_label
_atom_site_type_symbol
_atom_site_fract_x
_atom_site_fract_y
_atom_site_fract_z
_atom_type_partial_charge
O0 O 0.11039 0.27409 0.75393 0.0
Zn1 Zn 0.10376 0.28015 0.64094 0.0
O2 O 0.11899 0.24275 0.58043 0.0
Zn3 Zn 0.13979 0.26894 0.52179 0.0
Zn4 Zn 0.1302 0.20432 0.64939 0.0
Zn5 Zn 0.1018 0.21578 0.51041 0.0
O6 O 0.13773 0.25647 0.40719 0.0
O7 O 0.10744 0.23125 0.40296 0.0
O8 O 0.10954 0.33567 0.60487 0.0
O9 O 0.13544 0.32704 0.52807 0.0
O10 O 0.16694 0.2574 0.56751 0.0
O11 O 0.15906 0.2143 0.65837 0.0
O12 O 0.1262 0.14841 0.61269 0.0
O13 O 0.07436 0.26963 0.62914 0.0
O14 O 0.10639 0.158 0.5131 0.0
O15 O 0.07347 0.22589 0.53455 0.0
C16 C 0.11521 0.24328 0.79122 0.0
C17 C 0.12278 0.24421 0.36927 0.0
C18 C 0.17176 0.23554 0.62409 0.0
C19 C 0.12289 0.34939 0.56056 0.0
C20 C 0.11636 0.13519 0.55588 0.0
C21 C 0.06471 0.24742 0.58356 0.0
O22 O 0.12032 0.21185 0.75682 0.0
O23 O 0.87035 0.21611 0.7606 0.0
Zn24 Zn 0.87675 0.20894 0.64812 0.0
O25 O 0.86142 0.24603 0.58677 0.0
Zn26 Zn 0.84068 0.21919 0.52867 0.0
Zn27 Zn 0.84955 0.28526 0.65293 0.0
Zn28 Zn 0.87901 0.27176 0.51576 0.0
O29 O 0.84246 0.23174 0.41423 0.0
O30 O 0.87296 0.25584 0.4084 0.0
O31 O 0.87083 0.15316 0.61387 0.0
O32 O 0.84523 0.16118 0.53536 0.0
O33 O 0.81341 0.23038 0.57296 0.0
O34 O 0.82033 0.27905 0.65344 0.0
O35 O 0.85568 0.34069 0.61858 0.0
O36 O 0.90621 0.21824 0.63594 0.0
O37 O 0.87605 0.33008 0.52084 0.0
O38 O 0.90723 0.25974 0.53782 0.0
C39 C 0.86344 0.24537 0.79768 0.0
C40 C 0.85748 0.24292 0.37555 0.0
C41 C 0.80797 0.25589 0.62228 0.0
C42 C 0.85767 0.1391 0.56907 0.0
C43 C 0.86646 0.3534 0.56397 0.0
C44 C 0.91594 0.23886 0.58794 0.0
O45 O 0.85684 0.27569 0.76324 0.0
O46 O 0.1105 0.7103 0.21215 0.0
Zn47 Zn 0.1045 0.70389 0.32548 0.0
O48 O 0.12001 0.74133 0.38468 0.0
Zn49 Zn 0.14067 0.71548 0.44395 0.0
Zn50 Zn 0.13137 0.78 0.3163 0.0
Zn51 Zn 0.10297 0.76767 0.45577 0.0
O52 O 0.13846 0.72829 0.55817 0.0
O53 O 0.10717 0.74789 0.56226 0.0
O54 O 0.11037 0.6485 0.36133 0.0
O55 O 0.13626 0.65725 0.4382 0.0
O56 O 0.16791 0.72718 0.39963 0.0
O57 O 0.16037 0.77126 0.31028 0.0
O58 O 0.12669 0.83584 0.35309 0.0
O59 O 0.07524 0.71428 0.33845 0.0
O60 O 0.10891 0.82493 0.45804 0.0
O61 O 0.07465 0.76141 0.42657 0.0
C62 C 0.11644 0.74011 0.17405 0.0
C63 C 0.12284 0.73661 0.59598 0.0
C64 C 0.17296 0.74981 0.34453 0.0
C65 C 0.12368 0.63485 0.40578 0.0
C66 C 0.11799 0.8483 0.41334 0.0
C67 C 0.06578 0.73881 0.3797 0.0
O68 O 0.12258 0.77111 0.20755 0.0
O69 O 0.87192 0.77764 0.22233 0.0
Zn70 Zn 0.87816 0.78476 0.33514 0.0
O71 O 0.86324 0.74664 0.39559 0.0
Zn72 Zn 0.84252 0.77244 0.45496 0.0
Zn73 Zn 0.85159 0.70748 0.32879 0.0
Zn74 Zn 0.88103 0.72065 0.46525 0.0
O75 O 0.84497 0.75934 0.56878 0.0
O76 O 0.87598 0.73786 0.57303 0.0
O77 O 0.8719 0.84014 0.37039 0.0
O78 O 0.84654 0.83069 0.44946 0.0
O79 O 0.81518 0.76047 0.4117 0.0
O80 O 0.82243 0.71352 0.32789 0.0
O81 O 0.85743 0.65196 0.36322 0.0
O82 O 0.9076 0.7761 0.3466 0.0
O83 O 0.87723 0.66251 0.46272 0.0
O84 O 0.90917 0.73048 0.43741 0.0
C85 C 0.86552 0.748 0.18488 0.0
C86 C 0.86037 0.7496 0.60666 0.0
C87 C 0.80991 0.73561 0.36079 0.0
C88 C 0.85873 0.85345 0.41588 0.0
C89 C 0.86774 0.63923 0.41912 0.0
C90 C 0.91756 0.75306 0.38924 0.0
O91 O 0.8592 0.7173 0.21895 0.0
O92 O 0.61264 0.7734 0.26027 0.0
Zn93 Zn 0.60605 0.78065 0.14812 0.0
O94 O 0.62119 0.74353 0.08603 0.0
Zn95 Zn 0.64165 0.77021 0.02661 0.0
Zn96 Zn 0.63329 0.70445 0.15162 0.0
Zn97 Zn 0.60358 0.71774 0.01552 0.0
O98 O 0.64016 0.75598 0.91315 0.0
O99 O 0.60939 0.73334 0.9078 0.0
O100 O 0.61193 0.83646 0.11372 0.0
O101 O 0.6362 0.82795 0.02913 0.0
O102 O 0.66901 0.7604 0.0717 0.0
O103 O 0.66245 0.71086 0.15066 0.0
O104 O 0.62709 0.64903 0.118 0.0
O105 O 0.57653 0.77113 0.13682 0.0
O106 O 0.60648 0.65949 0.02096 0.0
O107 O 0.5755 0.72965 0.03862 0.0
C108 C 0.61964 0.74411 0.29693 0.0
C109 C 0.62503 0.74527 0.87468 0.0
C110 C 0.67464 0.73457 0.12006 0.0
C111 C 0.62419 0.85016 0.06483 0.0
C112 C 0.61615 0.63625 0.06396 0.0
C113 C 0.5668 0.75036 0.08901 0.0
O114 O 0.62625 0.71393 0.26212 0.0
O115 O 0.37236 0.71136 0.25842 0.0
Zn116 Zn 0.37902 0.70486 0.14557 0.0
O117 O 0.36383 0.74226 0.08452 0.0
Zn118 Zn 0.34316 0.71591 0.02536 0.0
Zn119 Zn 0.35221 0.78063 0.15262 0.0
Zn120 Zn 0.38126 0.7694 0.01541 0.0
O121 O 0.34536 0.72851 0.91109 0.0
O122 O 0.3752 0.7558 0.90715 0.0
O123 O 0.3732 0.64922 0.10987 0.0
O124 O 0.34756 0.65786 0.03177 0.0
O125 O 0.31583 0.72731 0.06966 0.0
O126 O 0.32338 0.77069 0.16036 0.0
O127 O 0.35624 0.83653 0.11623 0.0
O128 O 0.4085 0.71498 0.13414 0.0
O129 O 0.37785 0.82738 0.02225 0.0
O130 O 0.40942 0.75774 0.03796 0.0
C131 C 0.36725 0.74213 0.29526 0.0
C132 C 0.36003 0.74209 0.87333 0.0
C133 C 0.31081 0.74934 0.12568 0.0
C134 C 0.35998 0.6355 0.06495 0.0
C135 C 0.3673 0.85 0.06323 0.0
C136 C 0.41817 0.73652 0.08743 0.0
O137 O 0.36183 0.77324 0.26046 0.0
O138 O 0.61076 0.21289 0.72461 0.0
Zn139 Zn 0.60428 0.20566 0.83693 0.0
O140 O 0.61935 0.24314 0.89859 0.0
Zn141 Zn 0.63994 0.21703 0.95808 0.0
Zn142 Zn 0.63126 0.28225 0.83256 0.0
Zn143 Zn 0.60171 0.26886 0.96906 0.0
O144 O 0.63826 0.23109 0.0716 0.0
O145 O 0.60733 0.25272 0.07668 0.0
O146 O 0.6104 0.14997 0.87156 0.0
O147 O 0.6348 0.15918 0.95538 0.0
O148 O 0.66731 0.22749 0.91326 0.0
O149 O 0.66042 0.27615 0.83278 0.0
O150 O 0.62524 0.33757 0.86672 0.0
O151 O 0.57473 0.21489 0.84828 0.0
O152 O 0.60493 0.32713 0.96473 0.0
O153 O 0.57361 0.25725 0.94502 0.0
C154 C 0.61753 0.24235 0.68771 0.0
C155 C 0.62301 0.24116 0.10992 0.0
C156 C 0.67277 0.25308 0.86405 0.0
C157 C 0.62283 0.13663 0.92011 0.0
C158 C 0.61457 0.35036 0.92152 0.0
C159 C 0.56495 0.23611 0.89512 0.0
O160 O 0.62401 0.27275 0.7223 0.0
O161 O 0.37044 0.27348 0.71825 0.0
Zn162 Zn 0.3772 0.28008 0.83103 0.0
O163 O 0.36188 0.24298 0.89248 0.0
Zn164 Zn 0.3412 0.26967 0.951 0.0
Zn165 Zn 0.35023 0.20431 0.82486 0.0
Zn166 Zn 0.37925 0.21622 0.96221 0.0
O167 O 0.34304 0.2569 0.06539 0.0
O168 O 0.37277 0.22937 0.07028 0.0
O169 O 0.37161 0.33577 0.86659 0.0
O170 O 0.34597 0.32767 0.94496 0.0
O171 O 0.31391 0.25863 0.90559 0.0
O172 O 0.32137 0.21402 0.81715 0.0
O173 O 0.3545 0.14846 0.86126 0.0
O174 O 0.40667 0.26996 0.84275 0.0
O175 O 0.37622 0.15821 0.95467 0.0
O176 O 0.40744 0.22854 0.94115 0.0
C177 C 0.36514 0.24273 0.68166 0.0
C178 C 0.35755 0.24307 0.10361 0.0
C179 C 0.30886 0.23598 0.8505 0.0
C180 C 0.35853 0.34977 0.9117 0.0
C181 C 0.36576 0.13529 0.91388 0.0
C182 C 0.41628 0.24922 0.89094 0.0
O183 O 0.35968 0.2117 0.71675 0.0
H184 H 0.20572 0.26289 0.55544 0.0
H185 H 0.18359 0.21155 0.76574 0.0
H186 H 0.23895 0.2653 0.61156 0.0
H187 H 0.21652 0.21441 0.82127 0.0
H188 H 0.27514 0.26529 0.91782 0.0
H189 H 0.24187 0.26744 0.86195 0.0
H190 H 0.26375 0.21227 0.65564 0.0
H191 H 0.29669 0.20965 0.71089 0.0
C192 C 0.20792 0.25218 0.61339 0.0
C193 C 0.19206 0.23673 0.65576 0.0
C194 C 0.22689 0.25356 0.64546 0.0
C195 C 0.23022 0.24022 0.72088 0.0
C196 C 0.21432 0.22528 0.7634 0.0
C197 C 0.19551 0.22329 0.73108 0.0
C198 C 0.2728 0.25357 0.86069 0.0
C199 C 0.28852 0.23702 0.81919 0.0
C200 C 0.25381 0.2548 0.82877 0.0
C201 C 0.25033 0.24021 0.75433 0.0
C202 C 0.26607 0.22412 0.71271 0.0
C203 C 0.2849 0.22229 0.7449 0.0
H204 H 0.70115 0.19551 0.87207 0.0
H205 H 0.69078 0.31354 0.79023 0.0
H206 H 0.7337 0.19603 0.81013 0.0
H207 H 0.7229 0.31381 0.72825 0.0
H208 H 0.79001 0.3149 0.70072 0.0
H209 H 0.75798 0.3137 0.76351 0.0
H210 H 0.74725 0.19727 0.67414 0.0
H211 H 0.77967 0.19821 0.61143 0.0
C212 C 0.70591 0.22169 0.84191 0.0
C213 C 0.69341 0.25448 0.83616 0.0
C214 C 0.7244 0.2218 0.80564 0.0
C215 C 0.73076 0.25486 0.76386 0.0
C216 C 0.71848 0.28798 0.76031 0.0
C217 C 0.70004 0.28777 0.79584 0.0
C218 C 0.78078 0.28914 0.69365 0.0
C219 C 0.78739 0.25666 0.65092 0.0
C220 C 0.7624 0.28849 0.72968 0.0
C221 C 0.75016 0.25529 0.72423 0.0
C222 C 0.75651 0.22305 0.68016 0.0
C223 C 0.77493 0.22381 0.64343 0.0
H224 H 0.27707 0.72208 0.05526 0.0
H225 H 0.29849 0.77393 0.26622 0.0
H226 H 0.2436 0.72032 0.10935 0.0
H227 H 0.26534 0.77172 0.31969 0.0
H228 H 0.20649 0.72101 0.41365 0.0
H229 H 0.2399 0.71881 0.35938 0.0
H230 H 0.21866 0.77372 0.15181 0.0
H231 H 0.18553 0.77639 0.20554 0.0
C232 C 0.27466 0.73303 0.11292 0.0
C233 C 0.2904 0.74841 0.15609 0.0
C234 C 0.25555 0.73205 0.14381 0.0
C235 C 0.25198 0.74572 0.21882 0.0
C236 C 0.26774 0.76062 0.26211 0.0
C237 C 0.28668 0.76221 0.23098 0.0
C238 C 0.20899 0.7327 0.35661 0.0
C239 C 0.19339 0.74914 0.31428 0.0
C240 C 0.22807 0.73143 0.32559 0.0
C241 C 0.23177 0.7459 0.25125 0.0
C242 C 0.21616 0.76197 0.20883 0.0
C243 C 0.19723 0.76383 0.24014 0.0
H244 H 0.70257 0.79315 0.11312 0.0
H245 H 0.69307 0.67444 0.19312 0.0
H246 H 0.73508 0.79356 0.1753 0.0
H247 H 0.72517 0.6751 0.25536 0.0
H248 H 0.79233 0.67634 0.2818 0.0
H249 H 0.76022 0.67664 0.21964 0.0
H250 H 0.74865 0.79219 0.31143 0.0
H251 H 0.78116 0.79217 0.37356 0.0
C252 C 0.70751 0.76703 0.14293 0.0
C253 C 0.69527 0.73376 0.14807 0.0
C254 C 0.72598 0.76745 0.17936 0.0
C255 C 0.73257 0.73446 0.22068 0.0
C256 C 0.72055 0.70089 0.22366 0.0
C257 C 0.70213 0.70056 0.18797 0.0
C258 C 0.7829 0.70172 0.28955 0.0
C259 C 0.78929 0.73424 0.33274 0.0
C260 C 0.76448 0.70184 0.25389 0.0
C261 C 0.75198 0.73454 0.2602 0.0
C262 C 0.75811 0.7668 0.30479 0.0
C263 C 0.77658 0.76656 0.34117 0.0
H264 H 0.12987 0.91033 0.32364 0.0
H265 H 0.10773 0.88164 0.54983 0.0
H266 H 0.13045 0.97992 0.35895 0.0
H267 H 0.10831 0.95082 0.58451 0.0
H268 H 0.1315 0.07462 0.64159 0.0
H269 H 0.13306 0.00513 0.60631 0.0
H270 H 0.10466 0.03106 0.39014 0.0
H271 H 0.10309 0.10019 0.42481 0.0
C272 C 0.12518 0.9188 0.38077 0.0
C273 C 0.11866 0.89047 0.43371 0.0
C274 C 0.12545 0.95859 0.40087 0.0
C275 C 0.11945 0.97067 0.47452 0.0
C276 C 0.11322 0.9423 0.52767 0.0
C277 C 0.11274 0.90269 0.50742 0.0
C278 C 0.12559 0.06547 0.58661 0.0
C279 C 0.1171 0.09293 0.53624 0.0
C280 C 0.12645 0.02573 0.56651 0.0
C281 C 0.11905 0.01282 0.49536 0.0
C282 C 0.1107 0.04028 0.4449 0.0
C283 C 0.10965 0.07984 0.46523 0.0
H284 H 0.83871 0.40912 0.59719 0.0
H285 H 0.89589 0.39326 0.49136 0.0
H286 H 0.83911 0.47848 0.5594 0.0
H287 H 0.89637 0.46258 0.4551 0.0
H288 H 0.89641 0.59907 0.4953 0.0
H289 H 0.89627 0.52982 0.53206 0.0
H290 H 0.83965 0.51463 0.42203 0.0
H291 H 0.83987 0.58392 0.38375 0.0
C292 C 0.85144 0.42055 0.56676 0.0
C293 C 0.86727 0.39586 0.54719 0.0
C294 C 0.85158 0.46004 0.54465 0.0
C295 C 0.86773 0.47558 0.50411 0.0
C296 C 0.88378 0.45119 0.48642 0.0
C297 C 0.88347 0.4116 0.5071 0.0
C298 C 0.88399 0.58091 0.47846 0.0
C299 C 0.86815 0.59683 0.43657 0.0
C300 C 0.88395 0.54135 0.49942 0.0
C301 C 0.8679 0.51718 0.4802 0.0
C302 C 0.8521 0.53291 0.43797 0.0
C303 C 0.85232 0.57235 0.41559 0.0
H304 H 0.82896 0.89373 0.4859 0.0
H305 H 0.8873 0.909 0.38934 0.0
H306 H 0.82877 0.96232 0.52553 0.0
H307 H 0.88702 0.97792 0.42917 0.0
H308 H 0.88687 0.08488 0.59464 0.0
H309 H 0.8871 0.01583 0.55555 0.0
H310 H 0.82828 0.02857 0.46303 0.0
H311 H 0.82797 0.09726 0.50192 0.0
C312 C 0.84171 0.91177 0.47267 0.0
C313 C 0.85815 0.89588 0.43437 0.0
C314 C 0.84156 0.95109 0.49526 0.0
C315 C 0.85792 0.97536 0.48077 0.0
C316 C 0.8743 0.9597 0.44183 0.0
C317 C 0.87437 0.92038 0.4184 0.0
C318 C 0.87393 0.07283 0.56664 0.0
C319 C 0.8574 0.09656 0.55143 0.0
C320 C 0.87414 0.03344 0.54362 0.0
C321 C 0.85775 0.01695 0.50592 0.0
C322 C 0.84108 0.04044 0.49235 0.0
C323 C 0.84094 0.07982 0.5145 0.0
H324 H 0.15321 0.59376 0.47568 0.0
H325 H 0.09467 0.58012 0.37995 0.0
H326 H 0.15291 0.52522 0.51557 0.0
H327 H 0.09447 0.51125 0.41995 0.0
H328 H 0.09395 0.4043 0.58526 0.0
H329 H 0.09416 0.47329 0.54584 0.0
H330 H 0.15292 0.45901 0.45364 0.0
H331 H 0.15281 0.3904 0.49292 0.0
C332 C 0.14032 0.57609 0.46267 0.0
C333 C 0.12396 0.59243 0.42454 0.0
C334 C 0.14019 0.53679 0.48542 0.0
C335 C 0.12364 0.51299 0.47118 0.0
C336 C 0.10734 0.5291 0.43242 0.0
C337 C 0.10754 0.5684 0.4089 0.0
C338 C 0.10697 0.41599 0.55721 0.0
C339 C 0.12336 0.39185 0.54228 0.0
C340 C 0.10701 0.45535 0.53404 0.0
C341 C 0.12352 0.47141 0.49639 0.0
C342 C 0.14004 0.44749 0.48295 0.0
C343 C 0.13993 0.40815 0.50532 0.0
H344 H 0.64377 0.5804 0.09764 0.0
H345 H 0.58654 0.59649 -0.00772 0.0
H346 H 0.64317 0.51096 0.06065 0.0
H347 H 0.58588 0.52709 0.95673 0.0
H348 H 0.58577 0.39058 -0.00302 0.0
H349 H 0.5859 0.45989 0.03346 0.0
H350 H 0.64258 0.47491 0.92379 0.0
H351 H 0.64238 0.40562 0.88592 0.0
C352 C 0.63099 0.56901 0.0675 0.0
C353 C 0.61521 0.59378 0.04775 0.0
C354 C 0.63074 0.52948 0.04586 0.0
C355 C 0.61453 0.514 0.00561 0.0
C356 C 0.59851 0.53845 0.98785 0.0
C357 C 0.59893 0.57808 0.00808 0.0
C358 C 0.59819 0.40874 0.98014 0.0
C359 C 0.61406 0.39277 0.93853 0.0
C360 C 0.59823 0.44831 0.00095 0.0
C361 C 0.6143 0.47242 0.98179 0.0
C362 C 0.63011 0.45666 0.9397 0.0
C363 C 0.6299 0.41721 0.91755 0.0
H364 H 0.39602 0.89111 -0.01061 0.0
H365 H 0.33867 0.90435 0.09531 0.0
H366 H 0.39545 0.95996 0.95104 0.0
H367 H 0.33808 0.97349 0.0559 0.0
H368 H 0.33742 0.07991 0.88339 0.0
H369 H 0.33761 0.01068 0.92239 0.0
H370 H 0.39534 0.02627 0.02318 0.0
H371 H 0.39515 0.09517 0.98526 0.0
C372 C 0.38333 0.90878 0.00476 0.0
C373 C 0.36739 0.89239 0.04548 0.0
C374 C 0.38303 0.94815 0.98286 0.0
C375 C 0.36668 0.9718 0.0002 0.0
C376 C 0.35077 0.95563 0.04131 0.0
C377 C 0.3512 0.91629 0.06443 0.0
C378 C 0.3502 0.0684 0.91327 0.0
C379 C 0.36627 0.09288 0.93125 0.0
C380 C 0.35022 0.029 0.93615 0.0
C381 C 0.36645 0.01338 0.97601 0.0
C382 C 0.38268 0.03763 -0.00768 0.0
C383 C 0.38254 0.07703 0.97068 0.0
H384 H 0.38778 0.40401 0.88547 0.0
H385 H 0.32921 0.39143 0.98138 0.0
H386 H 0.38824 0.47299 0.92508 0.0
H387 H 0.32976 0.46 0.02084 0.0
H388 H 0.33009 0.59456 -0.00292 0.0
H389 H 0.32993 0.52594 0.95802 0.0
H390 H 0.38861 0.51142 0.05087 0.0
H391 H 0.38887 0.58048 0.09011 0.0
C392 C 0.37496 0.41599 0.91435 0.0
C393 C 0.35845 0.39223 0.93015 0.0
C394 C 0.37531 0.45534 0.93767 0.0
C395 C 0.35907 0.47175 0.97632 0.0
C396 C 0.34244 0.4482 -0.00925 0.0
C397 C 0.34217 0.40888 0.96824 0.0
C398 C 0.34295 0.57677 0.00966 0.0
C399 C 0.3595 0.59302 0.0468 0.0
C400 C 0.34281 0.53741 0.98741 0.0
C401 C 0.35928 0.51341 0.00112 0.0
C402 C 0.37579 0.52942 0.03886 0.0
C403 C 0.37586 0.56882 0.06195 0.0
H404 H 0.63683 0.10304 0.05096 0.0
H405 H 0.60845 0.07494 0.83536 0.0
H406 H 0.6363 0.0338 0.08669 0.0
H407 H 0.60826 0.00526 0.87112 0.0
H408 H 0.63775 0.8843 0.93369 0.0
H409 H 0.63652 0.9535 0.89791 0.0
H410 H 0.6086 0.98093 0.11418 0.0
H411 H 0.60949 0.91129 0.14999 0.0
C412 C 0.63057 0.08206 0.01096 0.0
C413 C 0.62276 0.09442 0.94008 0.0
C414 C 0.63014 0.0425 0.03182 0.0
C415 C 0.6222 0.01438 0.98174 0.0
C416 C 0.61451 0.02651 0.9106 0.0
C417 C 0.61459 0.06629 0.89025 0.0
C418 C 0.63138 0.90503 0.97384 0.0
C419 C 0.62379 0.89237 0.04492 0.0
C420 C 0.63054 0.94456 0.95295 0.0
C421 C 0.62242 0.97236 0.0032 0.0
C422 C 0.61497 0.95993 0.07456 0.0
C423 C 0.61546 0.92018 0.09495 0.0
H424 H 0.09931 0.20105 0.27539 0.0
H425 H 0.14612 0.28753 0.27108 0.0
H426 H 0.0978 0.20208 0.13612 0.0
H427 H 0.1445 0.28848 0.13004 0.0
H428 H 0.11544 0.30776 0.88576 0.0
H429 H 0.11858 0.30858 0.02596 0.0
H430 H 0.12049 0.18185 0.02794 0.0
H431 H 0.11739 0.18084 0.88866 0.0
C432 C 0.10933 0.22029 0.24468 0.0
C433 C 0.12285 0.24425 0.28432 0.0
C434 C 0.10849 0.22069 0.16481 0.0
C435 C 0.12103 0.24532 0.12244 0.0
C436 C 0.13459 0.2694 0.16162 0.0
C437 C 0.13562 0.26863 0.24206 0.0
C438 C 0.11641 0.28009 0.91623 0.0
C439 C 0.11605 0.24422 0.87612 0.0
C440 C 0.11842 0.28062 -0.00375 0.0
C441 C 0.11982 0.24529 0.03754 0.0
C442 C 0.11933 0.20951 -0.00251 0.0
C443 C 0.11756 0.20897 0.91772 0.0
H444 H 0.82561 0.23958 0.2778 0.0
H445 H 0.88946 0.24084 0.28165 0.0
H446 H 0.82638 0.23829 0.13681 0.0
H447 H 0.89013 0.23922 0.14203 0.0
H448 H 0.88277 0.19513 0.89454 0.0
H449 H 0.88024 0.19184 0.03446 0.0
H450 H 0.83837 0.28733 0.03214 0.0
H451 H 0.84092 0.29095 0.89243 0.0
C452 C 0.83975 0.23931 0.24869 0.0
C453 C 0.85745 0.24053 0.29076 0.0
C454 C 0.84019 0.23873 0.16823 0.0
C455 C 0.85832 0.23859 0.12881 0.0
C456 C 0.87596 0.23896 0.17099 0.0
C457 C 0.87554 0.24018 0.25096 0.0
C458 C 0.87302 0.21542 0.92383 0.0
C459 C 0.86217 0.24349 0.88244 0.0
C460 C 0.87159 0.21353 0.00382 0.0
C461 C 0.85906 0.23926 0.04386 0.0
C462 C 0.84798 0.26691 0.00252 0.0
C463 C 0.84962 0.26919 0.92266 0.0
H464 H 0.09801 0.68753 0.07868 0.0
H465 H 0.13734 0.78768 0.07748 0.0
H466 H 0.10039 0.68369 0.93863 0.0
H467 H 0.13975 0.78353 0.93795 0.0
H468 H 0.15435 0.73675 0.69528 0.0
H469 H 0.1532 0.73553 0.83606 0.0
H470 H 0.08957 0.7282 0.82803 0.0
H471 H 0.09063 0.7297 0.68826 0.0
C472 C 0.10714 0.70869 0.04864 0.0
C473 C 0.11737 0.73806 0.08918 0.0
C474 C 0.10849 0.70648 0.96858 0.0
C475 C 0.12033 0.7332 0.92768 0.0
C476 C 0.1307 0.7623 0.96818 0.0
C477 C 0.12913 0.76488 0.048 0.0
C478 C 0.14016 0.73459 0.72367 0.0
C479 C 0.12259 0.73357 0.68073 0.0
C480 C 0.13949 0.73408 0.80406 0.0
C481 C 0.12128 0.73181 0.84273 0.0
C482 C 0.1038 0.72967 0.79971 0.0
C483 C 0.10443 0.7308 0.71967 0.0
H484 H 0.82862 0.75157 0.7047 0.0
H485 H 0.89246 0.75316 0.70034 0.0
H486 H 0.82941 0.75303 0.8455 0.0
H487 H 0.89315 0.75494 0.84014 0.0
H488 H 0.88478 0.79886 0.08865 0.0
H489 H 0.88274 0.80171 0.94848 0.0
H490 H 0.84174 0.70451 0.9495 0.0
H491 H 0.84381 0.70132 0.08928 0.0
C492 C 0.84277 0.7525 0.73367 0.0
C493 C 0.86046 0.75204 0.69147 0.0
C494 C 0.84322 0.75317 0.81407 0.0
C495 C 0.86135 0.75412 0.85344 0.0
C496 C 0.87899 0.75454 0.81119 0.0
C497 C 0.87856 0.75324 0.73115 0.0
C498 C 0.87533 0.77811 0.05898 0.0
C499 C 0.86456 0.74971 0.10004 0.0
C500 C 0.87419 0.77972 0.97886 0.0
C501 C 0.86203 0.75341 0.93841 0.0
C502 C 0.85107 0.72538 0.97941 0.0
C503 C 0.85242 0.72337 0.05935 0.0
H504 H 0.60029 0.794 0.39429 0.0
H505 H 0.64214 0.69819 0.39108 0.0
H506 H 0.60265 0.79661 0.53427 0.0
H507 H 0.64451 0.70111 0.5309 0.0
H508 H 0.65698 0.7483 0.77744 0.0
H509 H 0.65637 0.74976 0.6365 0.0
H510 H 0.59261 0.74861 0.64066 0.0
H511 H 0.59313 0.74685 0.78027 0.0
C512 C 0.61 0.77358 0.42336 0.0
C513 C 0.6209 0.7457 0.38166 0.0
C514 C 0.61133 0.77507 0.50337 0.0
C515 C 0.6238 0.74911 0.54311 0.0
C516 C 0.63494 0.72168 0.50149 0.0
C517 C 0.63341 0.7198 0.42158 0.0
C518 C 0.64287 0.74851 0.74812 0.0
C519 C 0.62512 0.74726 0.78989 0.0
C520 C 0.64253 0.74919 0.6677 0.0
C521 C 0.62443 0.74939 0.62802 0.0
C522 C 0.60675 0.74884 0.66987 0.0
C523 C 0.60708 0.74754 0.74983 0.0
H524 H 0.33724 0.69767 0.77536 0.0
H525 H 0.38281 0.78672 0.77932 0.0
H526 H 0.33882 0.69668 0.63442 0.0
H527 H 0.3843 0.78565 0.63995 0.0
H528 H 0.36443 0.80486 0.39182 0.0
H529 H 0.36149 0.80425 0.53117 0.0
H530 H 0.36487 0.67764 0.53095 0.0
H531 H 0.36785 0.67805 0.39073 0.0
C532 C 0.34745 0.71715 0.74627 0.0
C533 C 0.35989 0.74225 0.78841 0.0
C534 C 0.34847 0.71635 0.66587 0.0
C535 C 0.36169 0.7411 0.62654 0.0
C536 C 0.37387 0.7665 0.66876 0.0
C537 C 0.37305 0.76695 0.74866 0.0
C538 C 0.36461 0.77684 0.42129 0.0
C539 C 0.36647 0.7415 0.38018 0.0
C540 C 0.36294 0.77654 0.50111 0.0
C541 C 0.3629 0.7409 0.54166 0.0
C542 C 0.36467 0.70549 0.50085 0.0
C543 C 0.36658 0.70578 0.4208 0.0
H544 H 0.59104 0.23828 0.20398 0.0
H545 H 0.65489 0.23897 0.2075 0.0
H546 H 0.59044 0.23646 0.34362 0.0
H547 H 0.65419 0.23744 0.3484 0.0
H548 H 0.63967 0.28882 0.59317 0.0
H549 H 0.64201 0.28579 0.45339 0.0
H550 H 0.6007 0.18912 0.45067 0.0
H551 H 0.59837 0.19185 0.59069 0.0
C552 C 0.60497 0.23803 0.23458 0.0
C553 C 0.62304 0.23897 0.19471 0.0
C554 C 0.60459 0.23669 0.31455 0.0
C555 C 0.62225 0.23676 0.35658 0.0
C556 C 0.64037 0.23754 0.31707 0.0
C557 C 0.64076 0.23826 0.23666 0.0
C558 C 0.63105 0.26693 0.56284 0.0
C559 C 0.61872 0.24072 0.60296 0.0
C560 C 0.63257 0.26499 0.48294 0.0
C561 C 0.62158 0.23718 0.4415 0.0
C562 C 0.60927 0.21094 0.48142 0.0
C563 C 0.60795 0.2125 0.56146 0.0
H564 H 0.37953 0.1971 0.19771 0.0
H565 H 0.33512 0.2882 0.20145 0.0
H566 H 0.38094 0.198 0.33708 0.0
H567 H 0.33662 0.28902 0.34245 0.0
H568 H 0.36615 0.30668 0.58582 0.0
H569 H 0.36286 0.30703 0.44571 0.0
H570 H 0.35813 0.18057 0.44622 0.0
H571 H 0.3614 0.18002 0.58544 0.0
C572 C 0.36999 0.21727 0.22835 0.0
C573 C 0.35721 0.24263 0.18853 0.0
C574 C 0.37076 0.21762 0.30825 0.0
C575 C 0.35891 0.24358 0.35044 0.0
C576 C 0.34601 0.26891 0.31104 0.0
C577 C 0.34504 0.26821 0.23061 0.0
C578 C 0.36452 0.27896 0.55593 0.0
C579 C 0.36415 0.2433 0.59674 0.0
C580 C 0.36243 0.27923 0.47594 0.0
C581 C 0.3602 0.24384 0.43534 0.0
C582 C 0.35994 0.20827 0.47609 0.0
C583 C 0.36181 0.208 0.55585 0.0
H584 H 0.03963 0.21699 0.47677 0.0
H585 H 0.0404 0.27452 0.69824 0.0
H586 H 0.00376 0.21408 0.48128 0.0
H587 H 0.00423 0.27135 0.7025 0.0
H588 H 0.94043 0.21491 0.70468 0.0
H589 H 0.97665 0.21725 0.70684 0.0
H590 H 0.97675 0.26604 0.47798 0.0
H591 H 0.94084 0.26397 0.47559 0.0
C592 C 0.03216 0.22898 0.52654 0.0
C593 C 0.04288 0.24614 0.58706 0.0
C594 C 0.0116 0.22739 0.52891 0.0
C595 C 0.00127 0.24254 0.59215 0.0
C596 C 0.0119 0.25924 0.65331 0.0
C597 C 0.03255 0.26131 0.65055 0.0
C598 C 0.94822 0.22602 0.65484 0.0
C599 C 0.93778 0.23917 0.58992 0.0
C600 C 0.96889 0.22761 0.65635 0.0
C601 C 0.97942 0.24176 0.59252 0.0
C602 C 0.96898 0.2547 0.5277 0.0
C603 C 0.94841 0.25362 0.52654 0.0
H604 H 0.94189 0.69405 0.43544 0.0
H605 H 0.94229 0.8079 0.32545 0.0
H606 H 0.97774 0.69089 0.42487 0.0
H607 H 0.97836 0.80473 0.31573 0.0
H608 H 0.04233 0.7998 0.42334 0.0
H609 H 0.00639 0.80365 0.41793 0.0
H610 H 0.00409 0.68795 0.3169 0.0
H611 H 0.04018 0.68407 0.32147 0.0
C612 C 0.94963 0.71843 0.40903 0.0
C613 C 0.93928 0.75136 0.38164 0.0
C614 C 0.97012 0.71641 0.40244 0.0
C615 C 0.98073 0.7475 0.36934 0.0
C616 C 0.97046 0.78043 0.34168 0.0
C617 C 0.94986 0.78219 0.34712 0.0
C618 C 0.03419 0.77522 0.39961 0.0
C619 C 0.04407 0.74149 0.3733 0.0
C620 C 0.01364 0.77761 0.39599 0.0
C621 C 0.00254 0.74611 0.36706 0.0
C622 C 0.01237 0.71256 0.33978 0.0
C623 C 0.03298 0.7104 0.34223 0.0
H624 H 0.54197 0.72376 0.97796 0.0
H625 H 0.54226 0.77406 0.20607 0.0
H626 H 0.50616 0.71986 0.98155 0.0
H627 H 0.50607 0.77 0.20933 0.0
H628 H 0.4427 0.7106 0.20266 0.0
H629 H 0.47887 0.71501 0.20675 0.0
H630 H 0.47881 0.77046 0.98376 0.0
H631 H 0.44301 0.7662 0.97932 0.0
C632 C 0.5344 0.73403 0.02895 0.0
C633 C 0.54497 0.74936 0.09169 0.0
C634 C 0.51387 0.73188 0.0308 0.0
C635 C 0.50339 0.74467 0.09564 0.0
C636 C 0.51386 0.75972 0.15886 0.0
C637 C 0.53451 0.76233 0.15669 0.0
C638 C 0.45045 0.72359 0.1545 0.0
C639 C 0.43999 0.73789 0.09055 0.0
C640 C 0.47109 0.7264 0.15718 0.0
C641 C 0.48156 0.74302 0.09551 0.0
C642 C 0.4711 0.75722 0.03179 0.0
C643 C 0.45057 0.75484 0.02944 0.0
H644 H 0.44105 0.2734 0.77494 0.0
H645 H 0.4409 0.22195 0.00204 0.0
H646 H 0.47724 0.26932 0.77244 0.0
H647 H 0.47672 0.21801 -0.00081 0.0
H648 H 0.53994 0.26457 0.00375 0.0
H649 H 0.50414 0.26844 -0.00114 0.0
H650 H 0.50441 0.21466 0.77429 0.0
H651 H 0.54058 0.21065 0.77884 0.0
C652 C 0.4487 0.2614 0.82426 0.0
C653 C 0.43811 0.24814 0.88877 0.0
C654 C 0.46935 0.25878 0.82252 0.0
C655 C 0.47971 0.2434 0.88567 0.0
C656 C 0.4691 0.23029 0.95 0.0
C657 C 0.44857 0.23247 0.95143 0.0
C658 C 0.53245 0.25349 0.95319 0.0
C659 C 0.54313 0.23715 0.89174 0.0
C660 C 0.51192 0.25563 0.9506 0.0
C661 C 0.50155 0.24181 0.88628 0.0
C662 C 0.51212 0.22576 0.82432 0.0
C663 C 0.53276 0.22317 0.82726 0.0
loop_
_geom_bond_atom_site_label_1
_geom_bond_atom_site_label_2
_geom_bond_distance
_geom_bond_site_symmetry_2
_ccdc_geom_bond_type
O0 Zn1 1.953 . S
O0 C16 1.225 . S
Zn1 O0 1.953 . S
Zn1 O2 1.949 . S
Zn1 O8 1.919 . S
Zn1 O13 1.924 . S
O2 Zn1 1.949 . S
O2 Zn3 1.923 . S
O2 Zn4 1.950 . S
O2 Zn5 1.945 . S
Zn3 O2 1.923 . S
Zn3 O6 1.933 . S
Zn3 O9 1.941 . S
Zn3 O10 1.965 . S
Zn4 O2 1.950 . S
Zn4 O11 1.938 . S
Zn4 O12 1.906 . S
Zn4 O22 1.953 . S
Zn5 O2 1.945 . S
Zn5 O7 1.932 . S
Zn5 O14 1.977 . S
Zn5 O15 1.910 . S
O6 Zn3 1.933 . S
O6 C17 1.226 . S
O7 Zn5 1.932 . S
O7 C17 1.307 . S
O8 Zn1 1.919 . S
O8 C19 1.253 . S
O9 Zn3 1.941 . S
O9 C19 1.283 . S
O10 Zn3 1.965 . S
O10 C18 1.303 . S
O11 Zn4 1.938 . S
O11 C18 1.247 . S
O12 Zn4 1.906 . S
O12 C20 1.304 . S
O13 Zn1 1.924 . S
O13 C21 1.311 . S
O14 Zn5 1.977 . S
O14 C20 1.272 . S
O15 Zn5 1.910 . S
O15 C21 1.231 . S
C16 O0 1.225 . S
C16 O22 1.298 . S
C17 O6 1.226 . S
C17 O7 1.307 . S
C18 O10 1.303 . S
C18 O11 1.247 . S
C19 O8 1.253 . S
C19 O9 1.283 . S
C20 O12 1.304 . S
C20 O14 1.272 . S
C21 O13 1.311 . S
C21 O15 1.231 . S
O22 Zn4 1.953 . S
O22 C16 1.298 . S
O23 Zn24 1.953 . S
O23 C39 1.225 . S
Zn24 O23 1.953 . S
Zn24 O25 1.949 . S
Zn24 O31 1.919 . S
Zn24 O36 1.924 . S
O25 Zn24 1.949 . S
O25 Zn26 1.923 . S
O25 Zn27 1.950 . S
O25 Zn28 1.945 . S
Zn26 O25 1.923 . S
Zn26 O29 1.933 . S
Zn26 O32 1.941 . S
Zn26 O33 1.965 . S
Zn27 O25 1.950 . S
Zn27 O34 1.938 . S
Zn27 O35 1.906 . S
Zn27 O45 1.953 . S
Zn28 O25 1.945 . S
Zn28 O30 1.932 . S
Zn28 O37 1.977 . S
Zn28 O38 1.910 . S
O29 Zn26 1.933 . S
O29 C40 1.226 . S
O30 Zn28 1.932 . S
O30 C40 1.307 . S
O31 Zn24 1.919 . S
O31 C42 1.253 . S
O32 Zn26 1.941 . S
O32 C42 1.283 . S
O33 Zn26 1.965 . S
O33 C41 1.303 . S
O34 Zn27 1.938 . S
O34 C41 1.247 . S
O35 Zn27 1.906 . S
O35 C43 1.304 . S
O36 Zn24 1.924 . S
O36 C44 1.311 . S
O37 Zn28 1.977 . S
O37 C43 1.272 . S
O38 Zn28 1.910 . S
O38 C44 1.231 . S
C39 O23 1.225 . S
C39 O45 1.298 . S
C40 O29 1.226 . S
C40 O30 1.307 . S
C41 O33 1.303 . S
C41 O34 1.247 . S
C42 O31 1.253 . S
C42 O32 1.283 . S
C43 O35 1.304 . S
C43 O37 1.272 . S
C44 O36 1.311 . S
C44 O38 1.231 . S
O45 Zn27 1.953 . S
O45 C39 1.298 . S
O46 Zn47 1.953 . S
O46 C62 1.225 . S
Zn47 O46 1.953 . S
Zn47 O48 1.949 . S
Zn47 O54 1.919 . S
Zn47 O59 1.924 . S
O48 Zn47 1.949 . S
O48 Zn49 1.923 . S
O48 Zn50 1.950 . S
O48 Zn51 1.945 . S
Zn49 O48 1.923 . S
Zn49 O52 1.933 . S
Zn49 O55 1.941 . S
Zn49 O56 1.965 . S
Zn50 O48 1.950 . S
Zn50 O57 1.938 . S
Zn50 O58 1.906 . S
Zn50 O68 1.953 . S
Zn51 O48 1.945 . S
Zn51 O53 1.932 . S
Zn51 O60 1.977 . S
Zn51 O61 1.910 . S
O52 Zn49 1.933 . S
O52 C63 1.226 . S
O53 Zn51 1.932 . S
O53 C63 1.307 . S
O54 Zn47 1.919 . S
O54 C65 1.253 . S
O55 Zn49 1.941 . S
O55 C65 1.283 . S
O56 Zn49 1.965 . S
O56 C64 1.303 . S
O57 Zn50 1.938 . S
O57 C64 1.247 . S
O58 Zn50 1.906 . S
O58 C66 1.304 . S
O59 Zn47 1.924 . S
O59 C67 1.311 . S
O60 Zn51 1.977 . S
O60 C66 1.272 . S
O61 Zn51 1.910 . S
O61 C67 1.231 . S
C62 O46 1.225 . S
C62 O68 1.298 . S
C63 O52 1.226 . S
C63 O53 1.307 . S
C64 O56 1.303 . S
C64 O57 1.247 . S
C65 O54 1.253 . S
C65 O55 1.283 . S
C66 O58 1.304 . S
C66 O60 1.272 . S
C67 O59 1.311 . S
C67 O61 1.231 . S
O68 Zn50 1.953 . S
O68 C62 1.298 . S
O69 Zn70 1.953 . S
O69 C85 1.225 . S
Zn70 O69 1.953 . S
Zn70 O71 1.949 . S
Zn70 O77 1.919 . S
Zn70 O82 1.924 . S
O71 Zn70 1.949 . S
O71 Zn72 1.923 . S
O71 Zn73 1.950 . S
O71 Zn74 1.945 . S
Zn72 O71 1.923 . S
Zn72 O75 1.933 . S
Zn72 O78 1.941 . S
Zn72 O79 1.965 . S
Zn73 O71 1.950 . S
Zn73 O80 1.938 . S
Zn73 O81 1.906 . S
Zn73 O91 1.953 . S
Zn74 O71 1.945 . S
Zn74 O76 1.932 . S
Zn74 O83 1.977 . S
Zn74 O84 1.910 . S
O75 Zn72 1.933 . S
O75 C86 1.226 . S
O76 Zn74 1.932 . S
O76 C86 1.307 . S
O77 Zn70 1.919 . S
O77 C88 1.253 . S
O78 Zn72 1.941 . S
O78 C88 1.283 . S
O79 Zn72 1.965 . S
O79 C87 1.303 . S
O80 Zn73 1.938 . S
O80 C87 1.247 . S
O81 Zn73 1.906 . S
O81 C89 1.304 . S
O82 Zn70 1.924 . S
O82 C90 1.311 . S
O83 Zn74 1.977 . S
O83 C89 1.272 . S
O84 Zn74 1.910 . S
O84 C90 1.231 . S
C85 O69 1.225 . S
C85 O91 1.298 . S
C86 O75 1.226 . S
C86 O76 1.307 . S
C87 O79 1.303 . S
C87 O80 1.247 . S
C88 O77 1.253 . S
C88 O78 1.283 . S
C89 O81 1.304 . S
C89 O83 1.272 . S
C90 O82 1.311 . S
C90 O84 1.231 . S
O91 Zn73 1.953 . S
O91 C85 1.298 . S
O92 Zn93 1.953 . S
O92 C108 1.225 . S
Zn93 O92 1.953 . S
Zn93 O94 1.949 . S
Zn93 O100 1.919 . S
Zn93 O105 1.924 . S
O94 Zn93 1.949 . S
O94 Zn95 1.923 . S
O94 Zn96 1.950 . S
O94 Zn97 1.945 . S
Zn95 O94 1.923 . S
Zn95 O98 1.933 1_554 S
Zn95 O101 1.941 . S
Zn95 O102 1.965 . S
Zn96 O94 1.950 . S
Zn96 O103 1.938 . S
Zn96 O104 1.906 . S
Zn96 O114 1.953 . S
Zn97 O94 1.945 . S
Zn97 O99 1.932 1_554 S
Zn97 O106 1.977 . S
Zn97 O107 1.910 . S
O98 Zn95 1.933 1_556 S
O98 C109 1.226 . S
O99 Zn97 1.932 1_556 S
O99 C109 1.307 . S
O100 Zn93 1.919 . S
O100 C111 1.253 . S
O101 Zn95 1.941 . S
O101 C111 1.283 . S
O102 Zn95 1.965 . S
O102 C110 1.303 . S
O103 Zn96 1.938 . S
O103 C110 1.247 . S
O104 Zn96 1.906 . S
O104 C112 1.304 . S
O105 Zn93 1.924 . S
O105 C113 1.311 . S
O106 Zn97 1.977 . S
O106 C112 1.272 . S
O107 Zn97 1.910 . S
O107 C113 1.231 . S
C108 O92 1.225 . S
C108 O114 1.298 . S
C109 O98 1.226 . S
C109 O99 1.307 . S
C110 O102 1.303 . S
C110 O103 1.247 . S
C111 O100 1.253 . S
C111 O101 1.283 . S
C112 O104 1.304 . S
C112 O106 1.272 . S
C113 O105 1.311 . S
C113 O107 1.231 . S
O114 Zn96 1.953 . S
O114 C108 1.298 . S
O115 Zn116 1.953 . S
O115 C131 1.225 . S
Zn116 O115 1.953 . S
Zn116 O117 1.949 . S
Zn116 O123 1.919 . S
Zn116 O128 1.924 . S
O117 Zn116 1.949 . S
O117 Zn118 1.923 . S
O117 Zn119 1.950 . S
O117 Zn120 1.945 . S
Zn118 O117 1.923 . S
Zn118 O121 1.933 1_554 S
Zn118 O124 1.941 . S
Zn118 O125 1.965 . S
Zn119 O117 1.950 . S
Zn119 O126 1.938 . S
Zn119 O127 1.906 . S
Zn119 O137 1.953 . S
Zn120 O117 1.945 . S
Zn120 O122 1.932 1_554 S
Zn120 O129 1.977 . S
Zn120 O130 1.910 . S
O121 Zn118 1.933 1_556 S
O121 C132 1.226 . S
O122 Zn120 1.932 1_556 S
O122 C132 1.307 . S
O123 Zn116 1.919 . S
O123 C134 1.253 . S
O124 Zn118 1.941 . S
O124 C134 1.283 . S
O125 Zn118 1.965 . S
O125 C133 1.303 . S
O126 Zn119 1.938 . S
O126 C133 1.247 . S
O127 Zn119 1.906 . S
O127 C135 1.304 . S
O128 Zn116 1.924 . S
O128 C136 1.311 . S
O129 Zn120 1.977 . S
O129 C135 1.272 . S
O130 Zn120 1.910 . S
O130 C136 1.231 . S
C131 O115 1.225 . S
C131 O137 1.298 . S
C132 O121 1.226 . S
C132 O122 1.307 . S
C133 O125 1.303 . S
C133 O126 1.247 . S
C134 O123 1.253 . S
C134 O124 1.283 . S
C135 O127 1.304 . S
C135 O129 1.272 . S
C136 O128 1.311 . S
C136 O130 1.231 . S
O137 Zn119 1.953 . S
O137 C131 1.298 . S
O138 Zn139 1.953 . S
O138 C154 1.225 . S
Zn139 O138 1.953 . S
Zn139 O140 1.949 . S
Zn139 O146 1.919 . S
Zn139 O151 1.924 . S
O140 Zn139 1.949 . S
O140 Zn141 1.923 . S
O140 Zn142 1.950 . S
O140 Zn143 1.945 . S
Zn141 O140 1.923 . S
Zn141 O144 1.933 1_556 S
Zn141 O147 1.941 . S
Zn141 O148 1.965 . S
Zn142 O140 1.950 . S
Zn142 O149 1.938 . S
Zn142 O150 1.906 . S
Zn142 O160 1.953 . S
Zn143 O140 1.945 . S
Zn143 O145 1.932 1_556 S
Zn143 O152 1.977 . S
Zn143 O153 1.910 . S
O144 Zn141 1.933 1_554 S
O144 C155 1.226 . S
O145 Zn143 1.932 1_554 S
O145 C155 1.307 . S
O146 Zn139 1.919 . S
O146 C157 1.253 . S
O147 Zn141 1.941 . S
O147 C157 1.283 . S
O148 Zn141 1.965 . S
O148 C156 1.303 . S
O149 Zn142 1.938 . S
O149 C156 1.247 . S
O150 Zn142 1.906 . S
O150 C158 1.304 . S
O151 Zn139 1.924 . S
O151 C159 1.311 . S
O152 Zn143 1.977 . S
O152 C158 1.272 . S
O153 Zn143 1.910 . S
O153 C159 1.231 . S
C154 O138 1.225 . S
C154 O160 1.298 . S
C155 O144 1.226 . S
C155 O145 1.307 . S
C156 O148 1.303 . S
C156 O149 1.247 . S
C157 O146 1.253 . S
C157 O147 1.283 . S
C158 O150 1.304 . S
C158 O152 1.272 . S
C159 O151 1.311 . S
C159 O153 1.231 . S
O160 Zn142 1.953 . S
O160 C154 1.298 . S
O161 Zn162 1.953 . S
O161 C177 1.225 . S
Zn162 O161 1.953 . S
Zn162 O163 1.949 . S
Zn162 O169 1.919 . S
Zn162 O174 1.924 . S
O163 Zn162 1.949 . S
O163 Zn164 1.923 . S
O163 Zn165 1.950 . S
O163 Zn166 1.945 . S
Zn164 O163 1.923 . S
Zn164 O167 1.933 1_556 S
Zn164 O170 1.941 . S
Zn164 O171 1.965 . S
Zn165 O163 1.950 . S
Zn165 O172 1.938 . S
Zn165 O173 1.906 . S
Zn165 O183 1.953 . S
Zn166 O163 1.945 . S
Zn166 O168 1.932 1_556 S
Zn166 O175 1.977 . S
Zn166 O176 1.910 . S
O167 Zn164 1.933 1_554 S
O167 C178 1.226 . S
O168 Zn166 1.932 1_554 S
O168 C178 1.307 . S
O169 Zn162 1.919 . S
O169 C180 1.253 . S
O170 Zn164 1.941 . S
O170 C180 1.283 . S
O171 Zn164 1.965 . S
O171 C179 1.303 . S
O172 Zn165 1.938 . S
O172 C179 1.247 . S
O173 Zn165 1.906 . S
O173 C181 1.304 . S
O174 Zn162 1.924 . S
O174 C182 1.311 . S
O175 Zn166 1.977 . S
O175 C181 1.272 . S
O176 Zn166 1.910 . S
O176 C182 1.231 . S
C177 O161 1.225 . S
C177 O183 1.298 . S
C178 O167 1.226 . S
C178 O168 1.307 . S
C179 O171 1.303 . S
C179 O172 1.247 . S
C180 O169 1.253 . S
C180 O170 1.283 . S
C181 O173 1.304 . S
C181 O175 1.272 . S
C182 O174 1.311 . S
C182 O176 1.231 . S
O183 Zn165 1.953 . S
O183 C177 1.298 . S
H184 C192 0.950 . S
H185 C197 0.950 . S
H186 C194 0.950 . S
H187 C196 0.950 . S
H188 C198 0.950 . S
H189 C200 0.950 . S
H190 C202 0.950 . S
H191 C203 0.950 . S
C192 H184 0.950 . S
C192 C193 1.386 . S
C192 C194 1.391 . S
C193 C192 1.386 . S
C193 C197 1.393 . S
C194 H186 0.950 . S
C194 C192 1.391 . S
C194 C195 1.400 . S
C195 C194 1.400 . S
C195 C196 1.398 . S
C195 C201 1.491 . S
C196 H187 0.950 . S
C196 C195 1.398 . S
C196 C197 1.391 . S
C197 H185 0.950 . S
C197 C193 1.393 . S
C197 C196 1.391 . S
C198 H188 0.950 . S
C198 C199 1.386 . S
C198 C200 1.391 . S
C199 C198 1.386 . S
C199 C203 1.393 . S
C200 H189 0.950 . S
C200 C198 1.391 . S
C200 C201 1.400 . S
C201 C195 1.491 . S
C201 C200 1.400 . S
C201 C202 1.398 . S
C202 H190 0.950 . S
C202 C201 1.398 . S
C202 C203 1.391 . S
C203 H191 0.950 . S
C203 C199 1.393 . S
C203 C202 1.391 . S
H204 C212 0.950 . S
H205 C217 0.950 . S
H206 C214 0.950 . S
H207 C216 0.950 . S
H208 C218 0.950 . S
H209 C220 0.950 . S
H210 C222 0.950 . S
H211 C223 0.950 . S
C212 H204 0.950 . S
C212 C213 1.386 . S
C212 C214 1.391 . S
C213 C212 1.386 . S
C213 C217 1.393 . S
C214 H206 0.950 . S
C214 C212 1.391 . S
C214 C215 1.400 . S
C215 C214 1.400 . S
C215 C216 1.398 . S
C215 C221 1.491 . S
C216 H207 0.950 . S
C216 C215 1.398 . S
C216 C217 1.391 . S
C217 H205 0.950 . S
C217 C213 1.393 . S
C217 C216 1.391 . S
C218 H208 0.950 . S
C218 C219 1.386 . S
C218 C220 1.391 . S
C219 C218 1.386 . S
C219 C223 1.393 . S
C220 H209 0.950 . S
C220 C218 1.391 . S
C220 C221 1.400 . S
C221 C215 1.491 . S
C221 C220 1.400 . S
C221 C222 1.398 . S
C222 H210 0.950 . S
C222 C221 1.398 . S
C222 C223 1.391 . S
C223 H211 0.950 . S
C223 C219 1.393 . S
C223 C222 1.391 . S
H224 C232 0.950 . S
H225 C237 0.950 . S
H226 C234 0.950 . S
H227 C236 0.950 . S
H228 C238 0.950 . S
H229 C240 0.950 . S
H230 C242 0.950 . S
H231 C243 0.950 . S
C232 H224 0.950 . S
C232 C233 1.386 . S
C232 C234 1.391 . S
C233 C232 1.386 . S
C233 C237 1.393 . S
C234 H226 0.950 . S
C234 C232 1.391 . S
C234 C235 1.400 . S
C235 C234 1.400 . S
C235 C236 1.398 . S
C235 C241 1.491 . S
C236 H227 0.950 . S
C236 C235 1.398 . S
C236 C237 1.391 . S
C237 H225 0.950 . S
C237 C233 1.393 . S
C237 C236 1.391 . S
C238 H228 0.950 . S
C238 C239 1.386 . S
C238 C240 1.391 . S
C239 C238 1.386 . S
C239 C243 1.393 . S
C240 H229 0.950 . S
C240 C238 1.391 . S
C240 C241 1.400 . S
C241 C235 1.491 . S
C241 C240 1.400 . S
C241 C242 1.398 . S
C242 H230 0.950 . S
C242 C241 1.398 . S
C242 C243 1.391 . S
C243 H231 0.950 . S
C243 C239 1.393 . S
C243 C242 1.391 . S
H244 C252 0.950 . S
H245 C257 0.950 . S
H246 C254 0.950 . S
H247 C256 0.950 . S
H248 C258 0.950 . S
H249 C260 0.950 . S
H250 C262 0.950 . S
H251 C263 0.950 . S
C252 H244 0.950 . S
C252 C253 1.386 . S
C252 C254 1.391 . S
C253 C252 1.386 . S
C253 C257 1.393 . S
C254 H246 0.950 . S
C254 C252 1.391 . S
C254 C255 1.400 . S
C255 C254 1.400 . S
C255 C256 1.398 . S
C255 C261 1.491 . S
C256 H247 0.950 . S
C256 C255 1.398 . S
C256 C257 1.391 . S
C257 H245 0.950 . S
C257 C253 1.393 . S
C257 C256 1.391 . S
C258 H248 0.950 . S
C258 C259 1.386 . S
C258 C260 1.391 . S
C259 C258 1.386 . S
C259 C263 1.393 . S
C260 H249 0.950 . S
C260 C258 1.391 . S
C260 C261 1.400 . S
C261 C255 1.491 . S
C261 C260 1.400 . S
C261 C262 1.398 . S
C262 H250 0.950 . S
C262 C261 1.398 . S
C262 C263 1.391 . S
C263 H251 0.950 . S
C263 C259 1.393 . S
C263 C262 1.391 . S
H264 C272 0.950 . S
H265 C277 0.950 . S
H266 C274 0.950 . S
H267 C276 0.950 . S
H268 C278 0.950 . S
H269 C280 0.950 . S
H270 C282 0.950 . S
H271 C283 0.950 . S
C272 H264 0.950 . S
C272 C273 1.386 . S
C272 C274 1.391 . S
C273 C272 1.386 . S
C273 C277 1.393 . S
C274 H266 0.950 . S
C274 C272 1.391 . S
C274 C275 1.400 . S
C275 C274 1.400 . S
C275 C276 1.398 . S
C275 C281 1.491 1_565 S
C276 H267 0.950 . S
C276 C275 1.398 . S
C276 C277 1.391 . S
C277 H265 0.950 . S
C277 C273 1.393 . S
C277 C276 1.391 . S
C278 H268 0.950 . S
C278 C279 1.386 . S
C278 C280 1.391 . S
C279 C278 1.386 . S
C279 C283 1.393 . S
C280 H269 0.950 . S
C280 C278 1.391 . S
C280 C281 1.400 . S
C281 C275 1.491 1_545 S
C281 C280 1.400 . S
C281 C282 1.398 . S
C282 H270 0.950 . S
C282 C281 1.398 . S
C282 C283 1.391 . S
C283 H271 0.950 . S
C283 C279 1.393 . S
C283 C282 1.391 . S
H284 C292 0.950 . S
H285 C297 0.950 . S
H286 C294 0.950 . S
H287 C296 0.950 . S
H288 C298 0.950 . S
H289 C300 0.950 . S
H290 C302 0.950 . S
H291 C303 0.950 . S
C292 H284 0.950 . S
C292 C293 1.386 . S
C292 C294 1.391 . S
C293 C292 1.386 . S
C293 C297 1.393 . S
C294 H286 0.950 . S
C294 C292 1.391 . S
C294 C295 1.400 . S
C295 C294 1.400 . S
C295 C296 1.398 . S
C295 C301 1.491 . S
C296 H287 0.950 . S
C296 C295 1.398 . S
C296 C297 1.391 . S
C297 H285 0.950 . S
C297 C293 1.393 . S
C297 C296 1.391 . S
C298 H288 0.950 . S
C298 C299 1.386 . S
C298 C300 1.391 . S
C299 C298 1.386 . S
C299 C303 1.393 . S
C300 H289 0.950 . S
C300 C298 1.391 . S
C300 C301 1.400 . S
C301 C295 1.491 . S
C301 C300 1.400 . S
C301 C302 1.398 . S
C302 H290 0.950 . S
C302 C301 1.398 . S
C302 C303 1.391 . S
C303 H291 0.950 . S
C303 C299 1.393 . S
C303 C302 1.391 . S
H304 C312 0.950 . S
H305 C317 0.950 . S
H306 C314 0.950 . S
H307 C316 0.950 . S
H308 C318 0.950 . S
H309 C320 0.950 . S
H310 C322 0.950 . S
H311 C323 0.950 . S
C312 H304 0.950 . S
C312 C313 1.386 . S
C312 C314 1.391 . S
C313 C312 1.386 . S
C313 C317 1.393 . S
C314 H306 0.950 . S
C314 C312 1.391 . S
C314 C315 1.400 . S
C315 C314 1.400 . S
C315 C316 1.398 . S
C315 C321 1.491 1_565 S
C316 H307 0.950 . S
C316 C315 1.398 . S
C316 C317 1.391 . S
C317 H305 0.950 . S
C317 C313 1.393 . S
C317 C316 1.391 . S
C318 H308 0.950 . S
C318 C319 1.386 . S
C318 C320 1.391 . S
C319 C318 1.386 . S
C319 C323 1.393 . S
C320 H309 0.950 . S
C320 C318 1.391 . S
C320 C321 1.400 . S
C321 C315 1.491 1_545 S
C321 C320 1.400 . S
C321 C322 1.398 . S
C322 H310 0.950 . S
C322 C321 1.398 . S
C322 C323 1.391 . S
C323 H311 0.950 . S
C323 C319 1.393 . S
C323 C322 1.391 . S
H324 C332 0.950 . S
H325 C337 0.950 . S
H326 C334 0.950 . S
H327 C336 0.950 . S
H328 C338 0.950 . S
H329 C340 0.950 . S
H330 C342 0.950 . S
H331 C343 0.950 . S
C332 H324 0.950 . S
C332 C333 1.386 . S
C332 C334 1.391 . S
C333 C332 1.386 . S
C333 C337 1.393 . S
C334 H326 0.950 . S
C334 C332 1.391 . S
C334 C335 1.400 . S
C335 C334 1.400 . S
C335 C336 1.398 . S
C335 C341 1.491 . S
C336 H327 0.950 . S
C336 C335 1.398 . S
C336 C337 1.391 . S
C337 H325 0.950 . S
C337 C333 1.393 . S
C337 C336 1.391 . S
C338 H328 0.950 . S
C338 C339 1.386 . S
C338 C340 1.391 . S
C339 C338 1.386 . S
C339 C343 1.393 . S
C340 H329 0.950 . S
C340 C338 1.391 . S
C340 C341 1.400 . S
C341 C335 1.491 . S
C341 C340 1.400 . S
C341 C342 1.398 . S
C342 H330 0.950 . S
C342 C341 1.398 . S
C342 C343 1.391 . S
C343 H331 0.950 . S
C343 C339 1.393 . S
C343 C342 1.391 . S
H344 C352 0.950 . S
H345 C357 0.950 . S
H346 C354 0.950 . S
H347 C356 0.950 1_556 S
H348 C358 0.950 . S
H349 C360 0.950 . S
H350 C362 0.950 1_554 S
H351 C363 0.950 . S
C352 H344 0.950 . S
C352 C353 1.386 . S
C352 C354 1.391 . S
C353 C352 1.386 . S
C353 C357 1.393 . S
C354 H346 0.950 . S
C354 C352 1.391 . S
C354 C355 1.400 . S
C355 C354 1.400 . S
C355 C356 1.398 . S
C355 C361 1.491 1_554 S
C356 H347 0.950 1_554 S
C356 C355 1.398 . S
C356 C357 1.391 . S
C357 H345 0.950 . S
C357 C353 1.393 . S
C357 C356 1.391 . S
C358 H348 0.950 . S
C358 C359 1.386 . S
C358 C360 1.391 . S
C359 C358 1.386 . S
C359 C363 1.393 . S
C360 H349 0.950 . S
C360 C358 1.391 . S
C360 C361 1.400 . S
C361 C355 1.491 1_556 S
C361 C360 1.400 . S
C361 C362 1.398 . S
C362 H350 0.950 1_556 S
C362 C361 1.398 . S
C362 C363 1.391 . S
C363 H351 0.950 . S
C363 C359 1.393 . S
C363 C362 1.391 . S
H364 C372 0.950 . S
H365 C377 0.950 . S
H366 C374 0.950 . S
H367 C376 0.950 . S
H368 C378 0.950 . S
H369 C380 0.950 . S
H370 C382 0.950 . S
H371 C383 0.950 . S
C372 H364 0.950 . S
C372 C373 1.386 . S
C372 C374 1.391 . S
C373 C372 1.386 . S
C373 C377 1.393 . S
C374 H366 0.950 . S
C374 C372 1.391 . S
C374 C375 1.400 . S
C375 C374 1.400 . S
C375 C376 1.398 . S
C375 C381 1.491 1_564 S
C376 H367 0.950 . S
C376 C375 1.398 . S
C376 C377 1.391 . S
C377 H365 0.950 . S
C377 C373 1.393 . S
C377 C376 1.391 . S
C378 H368 0.950 . S
C378 C379 1.386 . S
C378 C380 1.391 . S
C379 C378 1.386 . S
C379 C383 1.393 . S
C380 H369 0.950 . S
C380 C378 1.391 . S
C380 C381 1.400 . S
C381 C375 1.491 1_546 S
C381 C380 1.400 . S
C381 C382 1.398 . S
C382 H370 0.950 . S
C382 C381 1.398 . S
C382 C383 1.391 . S
C383 H371 0.950 . S
C383 C379 1.393 . S
C383 C382 1.391 . S
H384 C392 0.950 . S
H385 C397 0.950 1_554 S
H386 C394 0.950 . S
H387 C396 0.950 . S
H388 C398 0.950 . S
H389 C400 0.950 . S
H390 C402 0.950 . S
H391 C403 0.950 1_556 S
C392 H384 0.950 . S
C392 C393 1.386 . S
C392 C394 1.391 . S
C393 C392 1.386 . S
C393 C397 1.393 . S
C394 H386 0.950 . S
C394 C392 1.391 . S
C394 C395 1.400 . S
C395 C394 1.400 . S
C395 C396 1.398 1_556 S
C395 C401 1.491 1_556 S
C396 H387 0.950 . S
C396 C395 1.398 1_554 S
C396 C397 1.391 1_554 S
C397 H385 0.950 1_556 S
C397 C393 1.393 . S
C397 C396 1.391 1_556 S
C398 H388 0.950 . S
C398 C399 1.386 . S
C398 C400 1.391 . S
C399 C398 1.386 . S
C399 C403 1.393 . S
C400 H389 0.950 . S
C400 C398 1.391 . S
C400 C401 1.400 . S
C401 C395 1.491 1_554 S
C401 C400 1.400 . S
C401 C402 1.398 1_554 S
C402 H390 0.950 . S
C402 C401 1.398 1_556 S
C402 C403 1.391 1_556 S
C403 H391 0.950 1_554 S
C403 C399 1.393 . S
C403 C402 1.391 1_554 S
H404 C412 0.950 . S
H405 C417 0.950 . S
H406 C414 0.950 . S
H407 C416 0.950 . S
H408 C418 0.950 . S
H409 C420 0.950 . S
H410 C422 0.950 . S
H411 C423 0.950 . S
C412 H404 0.950 . S
C412 C413 1.386 1_554 S
C412 C414 1.391 . S
C413 C412 1.386 1_556 S
C413 C417 1.393 . S
C414 H406 0.950 . S
C414 C412 1.391 . S
C414 C415 1.400 1_554 S
C415 C414 1.400 1_556 S
C415 C416 1.398 . S
C415 C421 1.491 1_546 S
C416 H407 0.950 . S
C416 C415 1.398 . S
C416 C417 1.391 . S
C417 H405 0.950 . S
C417 C413 1.393 . S
C417 C416 1.391 . S
C418 H408 0.950 . S
C418 C419 1.386 1_556 S
C418 C420 1.391 . S
C419 C418 1.386 1_554 S
C419 C423 1.393 . S
C420 H409 0.950 . S
C420 C418 1.391 . S
C420 C421 1.400 1_556 S
C421 C415 1.491 1_564 S
C421 C420 1.400 1_554 S
C421 C422 1.398 . S
C422 H410 0.950 . S
C422 C421 1.398 . S
C422 C423 1.391 . S
C423 H411 0.950 . S
C423 C419 1.393 . S
C423 C422 1.391 . S
H424 C432 0.950 . S
H425 C437 0.950 . S
H426 C434 0.950 . S
H427 C436 0.950 . S
H428 C438 0.950 . S
H429 C440 0.950 . S
H430 C442 0.950 . S
H431 C443 0.950 . S
C432 H424 0.950 . S
C432 C433 1.386 . S
C432 C434 1.391 . S
C433 C432 1.386 . S
C433 C437 1.393 . S
C434 H426 0.950 . S
C434 C432 1.391 . S
C434 C435 1.400 . S
C435 C434 1.400 . S
C435 C436 1.398 . S
C435 C441 1.491 . S
C436 H427 0.950 . S
C436 C435 1.398 . S
C436 C437 1.391 . S
C437 H425 0.950 . S
C437 C433 1.393 . S
C437 C436 1.391 . S
C438 H428 0.950 . S
C438 C439 1.386 . S
C438 C440 1.391 1_556 S
C439 C438 1.386 . S
C439 C443 1.393 . S
C440 H429 0.950 . S
C440 C438 1.391 1_554 S
C440 C441 1.400 . S
C441 C435 1.491 . S
C441 C440 1.400 . S
C441 C442 1.398 . S
C442 H430 0.950 . S
C442 C441 1.398 . S
C442 C443 1.391 1_554 S
C443 H431 0.950 . S
C443 C439 1.393 . S
C443 C442 1.391 1_556 S
H444 C452 0.950 . S
H445 C457 0.950 . S
H446 C454 0.950 . S
H447 C456 0.950 . S
H448 C458 0.950 . S
H449 C460 0.950 . S
H450 C462 0.950 . S
H451 C463 0.950 . S
C452 H444 0.950 . S
C452 C453 1.386 . S
C452 C454 1.391 . S
C453 C452 1.386 . S
C453 C457 1.393 . S
C454 H446 0.950 . S
C454 C452 1.391 . S
C454 C455 1.400 . S
C455 C454 1.400 . S
C455 C456 1.398 . S
C455 C461 1.491 . S
C456 H447 0.950 . S
C456 C455 1.398 . S
C456 C457 1.391 . S
C457 H445 0.950 . S
C457 C453 1.393 . S
C457 C456 1.391 . S
C458 H448 0.950 . S
C458 C459 1.386 . S
C458 C460 1.391 1_556 S
C459 C458 1.386 . S
C459 C463 1.393 . S
C460 H449 0.950 . S
C460 C458 1.391 1_554 S
C460 C461 1.400 . S
C461 C455 1.491 . S
C461 C460 1.400 . S
C461 C462 1.398 . S
C462 H450 0.950 . S
C462 C461 1.398 . S
C462 C463 1.391 1_554 S
C463 H451 0.950 . S
C463 C459 1.393 . S
C463 C462 1.391 1_556 S
H464 C472 0.950 . S
H465 C477 0.950 . S
H466 C474 0.950 . S
H467 C476 0.950 . S
H468 C478 0.950 . S
H469 C480 0.950 . S
H470 C482 0.950 . S
H471 C483 0.950 . S
C472 H464 0.950 . S
C472 C473 1.386 . S
C472 C474 1.391 1_554 S
C473 C472 1.386 . S
C473 C477 1.393 . S
C474 H466 0.950 . S
C474 C472 1.391 1_556 S
C474 C475 1.400 . S
C475 C474 1.400 . S
C475 C476 1.398 . S
C475 C481 1.491 . S
C476 H467 0.950 . S
C476 C475 1.398 . S
C476 C477 1.391 1_556 S
C477 H465 0.950 . S
C477 C473 1.393 . S
C477 C476 1.391 1_554 S
C478 H468 0.950 . S
C478 C479 1.386 . S
C478 C480 1.391 . S
C479 C478 1.386 . S
C479 C483 1.393 . S
C480 H469 0.950 . S
C480 C478 1.391 . S
C480 C481 1.400 . S
C481 C475 1.491 . S
C481 C480 1.400 . S
C481 C482 1.398 . S
C482 H470 0.950 . S
C482 C481 1.398 . S
C482 C483 1.391 . S
C483 H471 0.950 . S
C483 C479 1.393 . S
C483 C482 1.391 . S
H484 C492 0.950 . S
H485 C497 0.950 . S
H486 C494 0.950 . S
H487 C496 0.950 . S
H488 C498 0.950 . S
H489 C500 0.950 . S
H490 C502 0.950 . S
H491 C503 0.950 . S
C492 H484 0.950 . S
C492 C493 1.386 . S
C492 C494 1.391 . S
C493 C492 1.386 . S
C493 C497 1.393 . S
C494 H486 0.950 . S
C494 C492 1.391 . S
C494 C495 1.400 . S
C495 C494 1.400 . S
C495 C496 1.398 . S
C495 C501 1.491 . S
C496 H487 0.950 . S
C496 C495 1.398 . S
C496 C497 1.391 . S
C497 H485 0.950 . S
C497 C493 1.393 . S
C497 C496 1.391 . S
C498 H488 0.950 . S
C498 C499 1.386 . S
C498 C500 1.391 1_554 S
C499 C498 1.386 . S
C499 C503 1.393 . S
C500 H489 0.950 . S
C500 C498 1.391 1_556 S
C500 C501 1.400 . S
C501 C495 1.491 . S
C501 C500 1.400 . S
C501 C502 1.398 . S
C502 H490 0.950 . S
C502 C501 1.398 . S
C502 C503 1.391 1_556 S
C503 H491 0.950 . S
C503 C499 1.393 . S
C503 C502 1.391 1_554 S
H504 C512 0.950 . S
H505 C517 0.950 . S
H506 C514 0.950 . S
H507 C516 0.950 . S
H508 C518 0.950 . S
H509 C520 0.950 . S
H510 C522 0.950 . S
H511 C523 0.950 . S
C512 H504 0.950 . S
C512 C513 1.386 . S
C512 C514 1.391 . S
C513 C512 1.386 . S
C513 C517 1.393 . S
C514 H506 0.950 . S
C514 C512 1.391 . S
C514 C515 1.400 . S
C515 C514 1.400 . S
C515 C516 1.398 . S
C515 C521 1.491 . S
C516 H507 0.950 . S
C516 C515 1.398 . S
C516 C517 1.391 . S
C517 H505 0.950 . S
C517 C513 1.393 . S
C517 C516 1.391 . S
C518 H508 0.950 . S
C518 C519 1.386 . S
C518 C520 1.391 . S
C519 C518 1.386 . S
C519 C523 1.393 . S
C520 H509 0.950 . S
C520 C518 1.391 . S
C520 C521 1.400 . S
C521 C515 1.491 . S
C521 C520 1.400 . S
C521 C522 1.398 . S
C522 H510 0.950 . S
C522 C521 1.398 . S
C522 C523 1.391 . S
C523 H511 0.950 . S
C523 C519 1.393 . S
C523 C522 1.391 . S
H524 C532 0.950 . S
H525 C537 0.950 . S
H526 C534 0.950 . S
H527 C536 0.950 . S
H528 C538 0.950 . S
H529 C540 0.950 . S
H530 C542 0.950 . S
H531 C543 0.950 . S
C532 H524 0.950 . S
C532 C533 1.386 . S
C532 C534 1.391 . S
C533 C532 1.386 . S
C533 C537 1.393 . S
C534 H526 0.950 . S
C534 C532 1.391 . S
C534 C535 1.400 . S
C535 C534 1.400 . S
C535 C536 1.398 . S
C535 C541 1.491 . S
C536 H527 0.950 . S
C536 C535 1.398 . S
C536 C537 1.391 . S
C537 H525 0.950 . S
C537 C533 1.393 . S
C537 C536 1.391 . S
C538 H528 0.950 . S
C538 C539 1.386 . S
C538 C540 1.391 . S
C539 C538 1.386 . S
C539 C543 1.393 . S
C540 H529 0.950 . S
C540 C538 1.391 . S
C540 C541 1.400 . S
C541 C535 1.491 . S
C541 C540 1.400 . S
C541 C542 1.398 . S
C542 H530 0.950 . S
C542 C541 1.398 . S
C542 C543 1.391 . S
C543 H531 0.950 . S
C543 C539 1.393 . S
C543 C542 1.391 . S
H544 C552 0.950 . S
H545 C557 0.950 . S
H546 C554 0.950 . S
H547 C556 0.950 . S
H548 C558 0.950 . S
H549 C560 0.950 . S
H550 C562 0.950 . S
H551 C563 0.950 . S
C552 H544 0.950 . S
C552 C553 1.386 . S
C552 C554 1.391 . S
C553 C552 1.386 . S
C553 C557 1.393 . S
C554 H546 0.950 . S
C554 C552 1.391 . S
C554 C555 1.400 . S
C555 C554 1.400 . S
C555 C556 1.398 . S
C555 C561 1.491 . S
C556 H547 0.950 . S
C556 C555 1.398 . S
C556 C557 1.391 . S
C557 H545 0.950 . S
C557 C553 1.393 . S
C557 C556 1.391 . S
C558 H548 0.950 . S
C558 C559 1.386 . S
C558 C560 1.391 . S
C559 C558 1.386 . S
C559 C563 1.393 . S
C560 H549 0.950 . S
C560 C558 1.391 . S
C560 C561 1.400 . S
C561 C555 1.491 . S
C561 C560 1.400 . S
C561 C562 1.398 . S
C562 H550 0.950 . S
C562 C561 1.398 . S
C562 C563 1.391 . S
C563 H551 0.950 . S
C563 C559 1.393 . S
C563 C562 1.391 . S
H564 C572 0.950 . S
H565 C577 0.950 . S
H566 C574 0.950 . S
H567 C576 0.950 . S
H568 C578 0.950 . S
H569 C580 0.950 . S
H570 C582 0.950 . S
H571 C583 0.950 . S
C572 H564 0.950 . S
C572 C573 1.386 . S
C572 C574 1.391 . S
C573 C572 1.386 . S
C573 C577 1.393 . S
C574 H566 0.950 . S
C574 C572 1.391 . S
C574 C575 1.400 . S
C575 C574 1.400 . S
C575 C576 1.398 . S
C575 C581 1.491 . S
C576 H567 0.950 . S
C576 C575 1.398 . S
C576 C577 1.391 . S
C577 H565 0.950 . S
C577 C573 1.393 . S
C577 C576 1.391 . S
C578 H568 0.950 . S
C578 C579 1.386 . S
C578 C580 1.391 . S
C579 C578 1.386 . S
C579 C583 1.393 . S
C580 H569 0.950 . S
C580 C578 1.391 . S
C580 C581 1.400 . S
C581 C575 1.491 . S
C581 C580 1.400 . S
C581 C582 1.398 . S
C582 H570 0.950 . S
C582 C581 1.398 . S
C582 C583 1.391 . S
C583 H571 0.950 . S
C583 C579 1.393 . S
C583 C582 1.391 . S
H584 C592 0.950 . S
H585 C597 0.950 . S
H586 C594 0.950 . S
H587 C596 0.950 . S
H588 C598 0.950 . S
H589 C600 0.950 . S
H590 C602 0.950 . S
H591 C603 0.950 . S
C592 H584 0.950 . S
C592 C593 1.386 . S
C592 C594 1.391 . S
C593 C592 1.386 . S
C593 C597 1.393 . S
C594 H586 0.950 . S
C594 C592 1.391 . S
C594 C595 1.400 . S
C595 C594 1.400 . S
C595 C596 1.398 . S
C595 C601 1.491 1_455 S
C596 H587 0.950 . S
C596 C595 1.398 . S
C596 C597 1.391 . S
C597 H585 0.950 . S
C597 C593 1.393 . S
C597 C596 1.391 . S
C598 H588 0.950 . S
C598 C599 1.386 . S
C598 C600 1.391 . S
C599 C598 1.386 . S
C599 C603 1.393 . S
C600 H589 0.950 . S
C600 C598 1.391 . S
C600 C601 1.400 . S
C601 C595 1.491 1_655 S
C601 C600 1.400 . S
C601 C602 1.398 . S
C602 H590 0.950 . S
C602 C601 1.398 . S
C602 C603 1.391 . S
C603 H591 0.950 . S
C603 C599 1.393 . S
C603 C602 1.391 . S
H604 C612 0.950 . S
H605 C617 0.950 . S
H606 C614 0.950 . S
H607 C616 0.950 . S
H608 C618 0.950 . S
H609 C620 0.950 . S
H610 C622 0.950 . S
H611 C623 0.950 . S
C612 H604 0.950 . S
C612 C613 1.386 . S
C612 C614 1.391 . S
C613 C612 1.386 . S
C613 C617 1.393 . S
C614 H606 0.950 . S
C614 C612 1.391 . S
C614 C615 1.400 . S
C615 C614 1.400 . S
C615 C616 1.398 . S
C615 C621 1.491 1_655 S
C616 H607 0.950 . S
C616 C615 1.398 . S
C616 C617 1.391 . S
C617 H605 0.950 . S
C617 C613 1.393 . S
C617 C616 1.391 . S
C618 H608 0.950 . S
C618 C619 1.386 . S
C618 C620 1.391 . S
C619 C618 1.386 . S
C619 C623 1.393 . S
C620 H609 0.950 . S
C620 C618 1.391 . S
C620 C621 1.400 . S
C621 C615 1.491 1_455 S
C621 C620 1.400 . S
C621 C622 1.398 . S
C622 H610 0.950 . S
C622 C621 1.398 . S
C622 C623 1.391 . S
C623 H611 0.950 . S
C623 C619 1.393 . S
C623 C622 1.391 . S
H624 C632 0.950 . S
H625 C637 0.950 . S
H626 C634 0.950 . S
H627 C636 0.950 . S
H628 C638 0.950 . S
H629 C640 0.950 . S
H630 C642 0.950 . S
H631 C643 0.950 . S
C632 H624 0.950 . S
C632 C633 1.386 . S
C632 C634 1.391 . S
C633 C632 1.386 . S
C633 C637 1.393 . S
C634 H626 0.950 . S
C634 C632 1.391 . S
C634 C635 1.400 . S
C635 C634 1.400 . S
C635 C636 1.398 . S
C635 C641 1.491 . S
C636 H627 0.950 . S
C636 C635 1.398 . S
C636 C637 1.391 . S
C637 H625 0.950 . S
C637 C633 1.393 . S
C637 C636 1.391 . S
C638 H628 0.950 . S
C638 C639 1.386 . S
C638 C640 1.391 . S
C639 C638 1.386 . S
C639 C643 1.393 . S
C640 H629 0.950 . S
C640 C638 1.391 . S
C640 C641 1.400 . S
C641 C635 1.491 . S
C641 C640 1.400 . S
C641 C642 1.398 . S
C642 H630 0.950 . S
C642 C641 1.398 . S
C642 C643 1.391 . S
C643 H631 0.950 . S
C643 C639 1.393 . S
C643 C642 1.391 . S
H644 C652 0.950 . S
H645 C657 0.950 . S
H646 C654 0.950 . S
H647 C656 0.950 . S
H648 C658 0.950 . S
H649 C660 0.950 . S
H650 C662 0.950 . S
H651 C663 0.950 . S
C652 H644 0.950 . S
C652 C653 1.386 . S
C652 C654 1.391 . S
C653 C652 1.386 . S
C653 C657 1.393 . S
C654 H646 0.950 . S
C654 C652 1.391 . S
C654 C655 1.400 . S
C655 C654 1.400 . S
C655 C656 1.398 . S
C655 C661 1.491 . S
C656 H647 0.950 . S
C656 C655 1.398 . S
C656 C657 1.391 . S
C657 H645 0.950 . S
C657 C653 1.393 . S
C657 C656 1.391 . S
C658 H648 0.950 . S
C658 C659 1.386 . S
C658 C660 1.391 . S
C659 C658 1.386 . S
C659 C663 1.393 . S
C660 H649 0.950 . S
C660 C658 1.391 . S
C660 C661 1.400 . S
C661 C655 1.491 . S
C661 C660 1.400 . S
C661 C662 1.398 . S
C662 H650 0.950 . S
C662 C661 1.398 . S
C662 C663 1.391 . S
C663 H651 0.950 . S
C663 C659 1.393 . S
C663 C662 1.391 . S
C193 C18 1.462 . S
C199 C179 1.446 . S
C213 C156 1.455 . S
C219 C41 1.458 . S
C233 C133 1.459 . S
C239 C64 1.444 . S
C253 C110 1.458 . S
C259 C87 1.454 . S
C273 C66 1.562 . S
C279 C20 1.571 . S
C293 C43 1.567 . S
C299 C89 1.564 . S
C313 C88 1.521 . S
C319 C42 1.524 . S
C333 C65 1.523 . S
C339 C19 1.520 . S
C353 C112 1.564 . S
C359 C158 1.567 . S
C373 C135 1.571 . S
C379 C181 1.569 . S
C393 C180 1.513 . S
C399 C134 1.516 . S
C413 C157 1.517 . S
C419 C111 1.513 . S
C433 C17 1.384 . S
C439 C16 1.382 . S
C453 C40 1.381 . S
C459 C39 1.380 . S
C473 C62 1.383 . S
C479 C63 1.384 . S
C493 C86 1.382 . S
C499 C85 1.381 . S
C513 C108 1.384 . S
C519 C109 1.385 . S
C533 C132 1.382 . S
C539 C131 1.381 . S
C553 C155 1.385 . S
C559 C154 1.384 . S
C573 C178 1.381 . S
C579 C177 1.378 . S
C593 C21 1.469 . S
C599 C44 1.470 . S
C613 C90 1.474 . S
C619 C67 1.457 . S
C633 C113 1.463 . S
C639 C136 1.474 . S
C653 C182 1.467 . S
C659 C159 1.459 . S
