# Generated by pormake.
# Topology wfw, (7)-cn, num edge types: 1
# Building blocks:
#     Node 0, Type 0, BuildingBlock: HICVOG_clean_sbu_0, # of connection points: 7
#     Node 1, Type 0, BuildingBlock: HICVOG_clean_sbu_0, # of connection points: 7
#     Node 2, Type 0, BuildingBlock: HICVOG_clean_sbu_0, # of connection points: 7
#     Node 3, Type 0, BuildingBlock: HICVOG_clean_sbu_0, # of connection points: 7
#     Node 4, Type 0, BuildingBlock: HICVOG_clean_sbu_0, # of connection points: 7
#     Node 5, Type 0, BuildingBlock: HICVOG_clean_sbu_0, # of connection points: 7
#     Node 6, Type 0, BuildingBlock: HICVOG_clean_sbu_0, # of connection points: 7
#     Node 7, Type 0, BuildingBlock: HICVOG_clean_sbu_0, # of connection points: 7
#     Node 8, Type 0, BuildingBlock: HICVOG_clean_sbu_0, # of connection points: 7
#     Node 9, Type 0, BuildingBlock: HICVOG_clean_sbu_0, # of connection points: 7
#     Node 10, Type 0, BuildingBlock: HICVOG_clean_sbu_0, # of connection points: 7
#     Node 11, Type 0, BuildingBlock: HICVOG_clean_sbu_0, # of connection points: 7
#     Node 12, Type 0, BuildingBlock: HICVOG_clean_sbu_0, # of connection points: 7
#     Node 13, Type 0, BuildingBlock: HICVOG_clean_sbu_0, # of connection points: 7
#     Node 14, Type 0, BuildingBlock: HICVOG_clean_sbu_0, # of connection points: 7
#     Node 15, Type 0, BuildingBlock: HICVOG_clean_sbu_0, # of connection points: 7
#     Edge 16, Type (0, 0), BuildingBlock: AJUNOK_clean_linker_0, # of connection points: 2
#     Edge 17, Type (0, 0), BuildingBlock: AJUNOK_clean_linker_0, # of connection points: 2
#     Edge 18, Type (0, 0), BuildingBlock: AJUNOK_clean_linker_0, # of connection points: 2
#     Edge 19, Type (0, 0), BuildingBlock: AJUNOK_clean_linker_0, # of connection points: 2
#     Edge 20, Type (0, 0), BuildingBlock: AJUNOK_clean_linker_0, # of connection points: 2
#     Edge 21, Type (0, 0), BuildingBlock: AJUNOK_clean_linker_0, # of connection points: 2
#     Edge 22, Type (0, 0), BuildingBlock: AJUNOK_clean_linker_0, # of connection points: 2
#     Edge 23, Type (0, 0), BuildingBlock: AJUNOK_clean_linker_0, # of connection points: 2
#     Edge 24, Type (0, 0), BuildingBlock: AJUNOK_clean_linker_0, # of connection points: 2
#     Edge 25, Type (0, 0), BuildingBlock: AJUNOK_clean_linker_0, # of connection points: 2
#     Edge 26, Type (0, 0), BuildingBlock: AJUNOK_clean_linker_0, # of connection points: 2
#     Edge 27, Type (0, 0), BuildingBlock: AJUNOK_clean_linker_0, # of connection points: 2
#     Edge 28, Type (0, 0), BuildingBlock: AJUNOK_clean_linker_0, # of connection points: 2
#     Edge 29, Type (0, 0), BuildingBlock: AJUNOK_clean_linker_0, # of connection points: 2
#     Edge 30, Type (0, 0), BuildingBlock: AJUNOK_clean_linker_0, # of connection points: 2
#     Edge 31, Type (0, 0), BuildingBlock: AJUNOK_clean_linker_0, # of connection points: 2
#     Edge 32, Type (0, 0), BuildingBlock: AJUNOK_clean_linker_0, # of connection points: 2
#     Edge 33, Type (0, 0), BuildingBlock: AJUNOK_clean_linker_0, # of connection points: 2
#     Edge 34, Type (0, 0), BuildingBlock: AJUNOK_clean_linker_0, # of connection points: 2
#     Edge 35, Type (0, 0), BuildingBlock: AJUNOK_clean_linker_0, # of connection points: 2
#     Edge 36, Type (0, 0), BuildingBlock: AJUNOK_clean_linker_0, # of connection points: 2
#     Edge 37, Type (0, 0), BuildingBlock: AJUNOK_clean_linker_0, # of connection points: 2
#     Edge 38, Type (0, 0), BuildingBlock: AJUNOK_clean_linker_0, # of connection points: 2
#     Edge 39, Type (0, 0), BuildingBlock: AJUNOK_clean_linker_0, # of connection points: 2
#     Edge 40, Type (0, 0), BuildingBlock: AJUNOK_clean_linker_0, # of connection points: 2
#     Edge 41, Type (0, 0), BuildingBlock: AJUNOK_clean_linker_0, # of connection points: 2
#     Edge 42, Type (0, 0), BuildingBlock: AJUNOK_clean_linker_0, # of connection points: 2
#     Edge 43, Type (0, 0), BuildingBlock: AJUNOK_clean_linker_0, # of connection points: 2
#     Edge 44, Type (0, 0), BuildingBlock: AJUNOK_clean_linker_0, # of connection points: 2
#     Edge 45, Type (0, 0), BuildingBlock: AJUNOK_clean_linker_0, # of connection points: 2
#     Edge 46, Type (0, 0), BuildingBlock: AJUNOK_clean_linker_0, # of connection points: 2
#     Edge 47, Type (0, 0), BuildingBlock: AJUNOK_clean_linker_0, # of connection points: 2
#     Edge 48, Type (0, 0), BuildingBlock: AJUNOK_clean_linker_0, # of connection points: 2
#     Edge 49, Type (0, 0), BuildingBlock: AJUNOK_clean_linker_0, # of connection points: 2
#     Edge 50, Type (0, 0), BuildingBlock: AJUNOK_clean_linker_0, # of connection points: 2
#     Edge 51, Type (0, 0), BuildingBlock: AJUNOK_clean_linker_0, # of connection points: 2
#     Edge 52, Type (0, 0), BuildingBlock: AJUNOK_clean_linker_0, # of connection points: 2
#     Edge 53, Type (0, 0), BuildingBlock: AJUNOK_clean_linker_0, # of connection points: 2
#     Edge 54, Type (0, 0), BuildingBlock: AJUNOK_clean_linker_0, # of connection points: 2
#     Edge 55, Type (0, 0), BuildingBlock: AJUNOK_clean_linker_0, # of connection points: 2
#     Edge 56, Type (0, 0), BuildingBlock: AJUNOK_clean_linker_0, # of connection points: 2
#     Edge 57, Type (0, 0), BuildingBlock: AJUNOK_clean_linker_0, # of connection points: 2
#     Edge 58, Type (0, 0), BuildingBlock: AJUNOK_clean_linker_0, # of connection points: 2
#     Edge 59, Type (0, 0), BuildingBlock: AJUNOK_clean_linker_0, # of connection points: 2
#     Edge 60, Type (0, 0), BuildingBlock: AJUNOK_clean_linker_0, # of connection points: 2
#     Edge 61, Type (0, 0), BuildingBlock: AJUNOK_clean_linker_0, # of connection points: 2
#     Edge 62, Type (0, 0), BuildingBlock: AJUNOK_clean_linker_0, # of connection points: 2
#     Edge 63, Type (0, 0), BuildingBlock: AJUNOK_clean_linker_0, # of connection points: 2
#     Edge 64, Type (0, 0), BuildingBlock: AJUNOK_clean_linker_0, # of connection points: 2
#     Edge 65, Type (0, 0), BuildingBlock: AJUNOK_clean_linker_0, # of connection points: 2
#     Edge 66, Type (0, 0), BuildingBlock: AJUNOK_clean_linker_0, # of connection points: 2
#     Edge 67, Type (0, 0), BuildingBlock: AJUNOK_clean_linker_0, # of connection points: 2
#     Edge 68, Type (0, 0), BuildingBlock: AJUNOK_clean_linker_0, # of connection points: 2
#     Edge 69, Type (0, 0), BuildingBlock: AJUNOK_clean_linker_0, # of connection points: 2
#     Edge 70, Type (0, 0), BuildingBlock: AJUNOK_clean_linker_0, # of connection points: 2
#     Edge 71, Type (0, 0), BuildingBlock: AJUNOK_clean_linker_0, # of connection points: 2
# Relax obj value: 0.102
# Max RMSD: 0.170
# Mean RMSD: 0.170
data_MOF--net-wfw--node1-HICVOG_clean_sbu_0--edge1-AJUNOK_clean_linker_0
_symmetry_space_group_name_H-M    P1
_symmetry_Int_Tables_number       1
_symmetry_cell_setting            triclinic
loop_
_symmetry_equiv_pos_as_xyz
'x, y, z'
_cell_length_a     34.242386
_cell_length_b     33.759767
_cell_length_c     27.433797
_cell_angle_alpha  89.888591
_cell_angle_beta   90.056989
_cell_angle_gamma 89.71742
loop_
_atom_site_label
_atom_site_type_symbol
_atom_site_fract_x
_atom_site_fract_y
_atom_site_fract_z
_atom_type_partial_charge
Zn0 Zn 0.58652 0.28253 0.41219 0.0
C1 C 0.61036 0.17829 0.34757 0.0
N2 N 0.63328 0.17581 0.38733 0.0
C3 C 0.62222 0.20708 0.41371 0.0
N4 N 0.59457 0.22858 0.39138 0.0
N5 N 0.58586 0.21041 0.34985 0.0
C6 C 0.56062 0.23966 0.21915 0.0
O7 O 0.57893 0.26677 0.24466 0.0
O8 O 0.57608 0.28645 0.48532 0.0
Zn9 Zn 0.53667 0.22234 0.31445 0.0
N10 N 0.63513 0.30996 0.40089 0.0
C11 C 0.68627 0.33183 0.3487 0.0
C12 C 0.65194 0.31033 0.35603 0.0
C13 C 0.65164 0.32947 0.43883 0.0
N14 N 0.7022 0.35227 0.38645 0.0
C15 C 0.68585 0.35123 0.43158 0.0
O16 O 0.51555 0.27942 0.31882 0.0
C17 C 0.51988 0.31114 0.34328 0.0
O18 O 0.54494 0.31316 0.37729 0.0
H19 H 0.63856 0.29442 0.32622 0.0
H20 H 0.63758 0.32909 0.47411 0.0
C21 C 0.46936 0.16608 0.32584 0.0
C22 C 0.44237 0.14662 0.35647 0.0
C23 C 0.47003 0.17849 0.42522 0.0
C24 C 0.49654 0.19767 0.39515 0.0
N25 N 0.49621 0.19095 0.3463 0.0
N26 N 0.44379 0.1534 0.40528 0.0
H27 H 0.4692 0.1613 0.28685 0.0
C28 C 0.54398 0.29894 0.50302 0.0
O29 O 0.51465 0.30617 0.47335 0.0
O30 O 0.54109 0.21353 0.24191 0.0
H31 H 0.51732 0.2181 0.41066 0.0
H32 H 0.69983 0.33271 0.31312 0.0
H33 H 0.47024 0.18351 0.46415 0.0
Zn34 Zn 0.32844 0.53124 0.31092 0.0
C35 C 0.3554 0.61796 0.40535 0.0
N36 N 0.38515 0.62493 0.37476 0.0
C37 C 0.37727 0.60077 0.33708 0.0
N38 N 0.34367 0.58033 0.34432 0.0
N39 N 0.32989 0.59174 0.38719 0.0
C40 C 0.24381 0.56504 0.50417 0.0
O41 O 0.21393 0.55703 0.47589 0.0
O42 O 0.33395 0.53581 0.23711 0.0
Zn43 Zn 0.27715 0.58792 0.41167 0.0
N44 N 0.35951 0.48943 0.3418 0.0
C45 C 0.36952 0.46186 0.4208 0.0
C46 C 0.35037 0.48822 0.38999 0.0
C47 C 0.38709 0.46441 0.32268 0.0
N48 N 0.39721 0.43745 0.40229 0.0
C49 C 0.40664 0.4376 0.35413 0.0
O50 O 0.2431 0.54752 0.37913 0.0
C51 C 0.24194 0.52097 0.3464 0.0
O52 O 0.27179 0.51314 0.3205 0.0
H53 H 0.32835 0.50805 0.40443 0.0
H54 H 0.39419 0.46584 0.28429 0.0
C55 C 0.23626 0.65688 0.4407 0.0
C56 C 0.21527 0.69227 0.43497 0.0
C57 C 0.22989 0.69157 0.35058 0.0
C58 C 0.25042 0.65592 0.3565 0.0
N59 N 0.25269 0.63906 0.40145 0.0
N60 N 0.21214 0.7086 0.38974 0.0
H61 H 0.23798 0.64271 0.47593 0.0
C62 C 0.30361 0.55081 0.21716 0.0
O63 O 0.2754 0.5643 0.24502 0.0
O64 O 0.27535 0.57736 0.48483 0.0
H65 H 0.26381 0.64145 0.32553 0.0
H66 H 0.36262 0.46093 0.45926 0.0
H67 H 0.22735 0.70512 0.31494 0.0
Zn68 Zn 0.96725 0.28416 0.40807 0.0
C69 C 0.93757 0.38378 0.33513 0.0
N70 N 0.91375 0.38639 0.37393 0.0
C71 C 0.92618 0.35711 0.40276 0.0
N72 N 0.95587 0.33675 0.3831 0.0
N73 N 0.96422 0.35359 0.34049 0.0
C74 C 0.98696 0.33094 0.21297 0.0
O75 O 0.96301 0.30942 0.23928 0.0
O76 O 0.97588 0.28215 0.48219 0.0
Zn77 Zn 1.01516 0.34291 0.30792 0.0
N78 N 0.92078 0.25371 0.39587 0.0
C79 C 0.87338 0.22725 0.34153 0.0
C80 C 0.90579 0.25129 0.35009 0.0
C81 C 0.90418 0.23392 0.43356 0.0
N82 N 0.85759 0.20638 0.37904 0.0
C83 C 0.87203 0.20949 0.42506 0.0
O84 O 0.03764 0.28618 0.31335 0.0
C85 C 0.03481 0.25566 0.34054 0.0
O86 O 1.01051 0.25463 0.3754 0.0
H87 H 0.91926 0.26743 0.32049 0.0
H88 H 0.91673 0.23599 0.46962 0.0
C89 C 0.08102 0.40081 0.32491 0.0
C90 C 0.10533 0.4212 0.35818 0.0
C91 C 0.07356 0.38906 0.42404 0.0
C92 C 0.05001 0.36881 0.39144 0.0
N93 N 0.05341 0.37538 0.3427 0.0
N94 N 0.10041 0.41472 0.40675 0.0
H95 H 0.08372 0.40538 0.28601 0.0
C96 C 0.99473 0.25392 0.50268 0.0
O97 O 1.01272 0.22766 0.47539 0.0
O98 O 1.0126 0.35151 0.23489 0.0
H99 H 0.02908 0.34768 0.40498 0.0
H100 H 0.86133 0.22463 0.30522 0.0
H101 H 0.07071 0.38428 0.46288 0.0
Zn102 Zn 0.27814 0.97815 0.41254 0.0
C103 C 0.17551 0.96173 0.34622 0.0
N104 N 0.16892 0.94158 0.38774 0.0
C105 C 0.19951 0.95084 0.41568 0.0
N106 N 0.22445 0.97486 0.39252 0.0
N107 N 0.20925 0.98283 0.34909 0.0
C108 C 0.23889 1.0079 0.21714 0.0
O109 O 0.26801 0.9925 0.24213 0.0
O110 O 0.28297 0.98692 0.48574 0.0
Zn111 Zn 0.22228 1.03166 0.31282 0.0
N112 N 0.30179 0.92718 0.39963 0.0
C113 C 0.31757 0.87307 0.34747 0.0
C114 C 0.29869 0.90937 0.35541 0.0
C115 C 0.32238 0.90995 0.43629 0.0
N116 N 0.33886 0.8562 0.38402 0.0
C117 C 0.34136 0.87376 0.42846 0.0
O118 O 0.27954 0.05021 0.31745 0.0
C119 C 0.31004 0.04364 0.343 0.0
O120 O 0.30998 1.01857 0.37754 0.0
H121 H 0.28205 0.92341 0.32655 0.0
H122 H 0.32483 0.92475 0.47105 0.0
C123 C 0.16514 0.09963 0.3242 0.0
C124 C 0.14672 0.12775 0.35484 0.0
C125 C 0.18388 0.10386 0.42189 0.0
C126 C 0.202 0.0763 0.39185 0.0
N127 N 0.19226 0.07423 0.34387 0.0
N128 N 0.15667 0.12866 0.40283 0.0
H129 H 0.15765 0.09763 0.28595 0.0
C130 C 0.30968 1.0075 0.50561 0.0
O131 O 0.33377 1.02772 0.47801 0.0
O132 O 0.21195 1.02599 0.24028 0.0
H133 H 0.22382 0.05639 0.40669 0.0
H134 H 0.31567 0.85867 0.31236 0.0
H135 H 0.19127 0.10548 0.46018 0.0
Zn136 Zn 0.03929 0.84711 0.19878 0.0
C137 C 0.13353 0.85569 0.10958 0.0
N138 N 0.14471 0.88388 0.14087 0.0
C139 C 0.1178 0.88111 0.17628 0.0
N140 N 0.09132 0.85209 0.16734 0.0
N141 N 0.10175 0.83604 0.12517 0.0
C142 C 0.06694 0.75159 0.00728 0.0
O143 O 0.05637 0.72201 0.03541 0.0
O144 O 0.04785 0.848 0.27267 0.0
Zn145 Zn 0.0893 0.78405 0.10074 0.0
N146 N 1.00709 0.8928 0.17473 0.0
C147 C 1.00906 0.94903 0.12177 0.0
C148 C 0.02691 0.91632 0.14285 0.0
C149 C 0.96856 0.90074 0.18502 0.0
N150 N 0.97116 0.9566 0.13151 0.0
C151 C 0.94986 0.93351 0.16209 0.0
O152 O 0.04258 0.75877 0.1317 0.0
C153 C 1.01444 0.7625 0.16155 0.0
O154 O 1.01 0.79419 0.1864 0.0
H155 H 0.05645 0.90984 0.13264 0.0
H156 H 0.95246 0.88129 0.20901 0.0
C157 C 0.1539 0.73428 0.07775 0.0
C158 C 0.18472 0.70785 0.08717 0.0
C159 C 0.17562 0.71757 0.17192 0.0
C160 C 0.14455 0.74348 0.16229 0.0
N161 N 0.13401 0.75084 0.11535 0.0
N162 N 0.19453 0.69973 0.13422 0.0
H163 H 0.14473 0.74028 0.04075 0.0
C164 C 1.02134 0.83479 0.30082 0.0
O165 O 0.98749 0.82512 0.28179 0.0
O166 O 0.08128 0.78249 0.02696 0.0
H167 H 0.12859 0.75717 0.19187 0.0
H168 H 1.02497 0.96783 0.09682 0.0
H169 H 0.18407 0.71102 0.20909 0.0
Zn170 Zn 0.71406 1.0262 0.20011 0.0
C171 C 0.68929 0.11551 0.10719 0.0
N172 N 0.66008 0.12311 0.13838 0.0
C173 C 0.66749 0.09835 0.17561 0.0
N174 N 0.70039 0.07651 0.16744 0.0
N175 N 0.71414 0.08786 0.12439 0.0
C176 C 0.79892 0.05946 0.00485 0.0
O177 O 0.82961 0.05484 0.0331 0.0
O178 O 0.70412 1.02988 0.27272 0.0
Zn179 Zn 0.76612 0.07945 0.09757 0.0
N180 N 0.68308 0.98604 0.16727 0.0
C181 C 0.67174 0.95968 0.08811 0.0
C182 C 0.69119 0.9857 0.11877 0.0
C183 C 0.65633 0.96062 0.1868 0.0
N184 N 0.6449 0.93475 0.10713 0.0
C185 C 0.6366 0.93418 0.1556 0.0
O186 O 0.79671 0.03516 0.12899 0.0
C187 C 0.79853 1.01009 0.16359 0.0
O188 O 0.7706 1.00599 0.19376 0.0
H189 H 0.7127 1.00577 0.10403 0.0
H190 H 0.65018 0.96129 0.22547 0.0
C191 C 0.81158 0.14643 0.06736 0.0
C192 C 0.8371 0.17846 0.07372 0.0
C193 C 0.82729 0.17421 0.15916 0.0
C194 C 0.8027 0.14169 0.15258 0.0
N195 N 0.79579 0.12805 0.10684 0.0
N196 N 0.84454 0.19131 0.11978 0.0
H197 H 0.80591 0.13508 0.03135 0.0
C198 C 0.73007 0.05036 0.29412 0.0
O199 O 0.75784 0.06634 0.26765 0.0
O200 O 0.76634 0.06847 0.02455 0.0
H201 H 0.7899 0.12688 0.18367 0.0
H202 H 0.67783 0.95935 0.04942 0.0
H203 H 0.83345 0.18509 0.19541 0.0
Zn204 Zn 0.51037 0.71885 0.19711 0.0
C205 C 0.426 0.70286 0.09611 0.0
N206 N 0.41445 0.67244 0.12349 0.0
C207 C 0.43669 0.67572 0.1637 0.0
N208 N 0.46131 0.70739 0.16082 0.0
N209 N 0.4534 0.72457 0.11827 0.0
C210 C 0.48735 0.81324 0.00553 0.0
O211 O 0.49624 0.84271 0.03462 0.0
O212 O 0.5058 0.70977 0.2702 0.0
Zn213 Zn 0.46188 0.77809 0.0967 0.0
N214 N 0.55114 0.68726 0.16529 0.0
C215 C 0.5759 0.67321 0.08602 0.0
C216 C 0.54967 0.6928 0.1162 0.0
C217 C 0.5791 0.66334 0.18582 0.0
N218 N 0.60321 0.64907 0.10606 0.0
C219 C 0.60594 0.64357 0.15506 0.0
O220 O 0.50253 0.80829 0.13235 0.0
C221 C 0.52663 0.80707 0.16743 0.0
O222 O 0.53115 0.77581 0.19292 0.0
H223 H 0.52826 0.71267 0.10051 0.0
H224 H 0.58025 0.65953 0.22498 0.0
C225 C 0.39743 0.82488 0.06755 0.0
C226 C 0.36446 0.84901 0.07334 0.0
C227 C 0.3631 0.83256 0.1573 0.0
C228 C 0.39653 0.80903 0.15139 0.0
N229 N 0.41328 0.80618 0.10664 0.0
N230 N 0.34827 0.85271 0.11838 0.0
H231 H 0.41151 0.82261 0.0325 0.0
C232 C 0.48829 0.73716 0.29359 0.0
O233 O 0.47187 0.76605 0.26864 0.0
O234 O 0.47381 0.78146 0.024 0.0
H235 H 0.40945 0.79384 0.18224 0.0
H236 H 0.5747 0.67725 0.04692 0.0
H237 H 0.34968 0.83559 0.19279 0.0
Zn238 Zn 0.83127 0.53584 0.1945 0.0
C239 C 0.86248 0.45758 0.09251 0.0
N240 N 0.89248 0.45154 0.12338 0.0
C241 C 0.88087 0.46916 0.16464 0.0
N242 N 0.84522 0.48643 0.15903 0.0
N243 N 0.8327 0.47772 0.11439 0.0
C244 C 0.79003 0.51111 0.99547 0.0
O245 O 0.82418 0.52277 0.01168 0.0
O246 O 0.84331 0.52953 0.26646 0.0
Zn247 Zn 0.77659 0.48205 0.09664 0.0
N248 N 0.85932 0.57931 0.16217 0.0
C249 C 0.86329 0.60971 0.0839 0.0
C250 C 0.84773 0.58125 0.11483 0.0
C251 C 0.88587 0.60576 0.18035 0.0
N252 N 0.88991 0.63556 0.10146 0.0
C253 C 0.90169 0.63485 0.14881 0.0
O254 O 0.74535 0.52211 0.13299 0.0
C255 C 0.7439 0.54693 0.16753 0.0
O256 O 0.77391 0.55416 0.1933 0.0
H257 H 0.82625 0.56064 0.1013 0.0
H258 H 0.8948 0.60399 0.21815 0.0
C259 C 0.71997 0.42036 0.08552 0.0
C260 C 0.70589 0.38151 0.08982 0.0
C261 C 0.75112 0.36953 0.1536 0.0
C262 C 0.76629 0.40762 0.14763 0.0
N263 N 0.75097 0.43198 0.11294 0.0
N264 N 0.72204 0.35693 0.12368 0.0
H265 H 0.70889 0.43996 0.05738 0.0
C266 C 0.81698 0.51051 0.28935 0.0
O267 O 0.78767 0.49579 0.26442 0.0
O268 O 0.76625 0.49486 0.02473 0.0
H269 H 0.79087 0.4172 0.1693 0.0
H270 H 0.85435 0.61123 0.04611 0.0
H271 H 0.76346 0.3496 0.18049 0.0
Zn272 Zn 0.46792 0.78451 0.59864 0.0
C273 C 0.44223 0.88581 0.66798 0.0
N274 N 0.41835 0.88928 0.62914 0.0
C275 C 0.42936 0.85894 0.60101 0.0
N276 N 0.45789 0.83729 0.62148 0.0
N277 N 0.46693 0.85424 0.66356 0.0
C278 C 0.48867 0.83089 0.79357 0.0
O279 O 0.4695 0.80446 0.76796 0.0
O280 O 0.47926 0.78357 0.52575 0.0
Zn281 Zn 0.51621 0.84332 0.69886 0.0
N282 N 0.42016 0.75517 0.60857 0.0
C283 C 0.3713 0.72831 0.66061 0.0
C284 C 0.40425 0.752 0.65378 0.0
C285 C 0.40387 0.73652 0.56985 0.0
N286 N 0.35608 0.70823 0.62213 0.0
C287 C 0.37147 0.71201 0.57666 0.0
O288 O 0.53708 0.78596 0.69622 0.0
C289 C 0.53354 0.75523 0.66967 0.0
O290 O 0.50974 0.75452 0.63412 0.0
H291 H 0.4174 0.76727 0.68425 0.0
H292 H 0.41694 0.73937 0.53425 0.0
C293 C 0.58317 0.90002 0.68536 0.0
C294 C 0.61008 0.91889 0.65399 0.0
C295 C 0.58275 0.88492 0.58656 0.0
C296 C 0.55637 0.86631 0.61735 0.0
N297 N 0.55657 0.87431 0.66591 0.0
N298 N 0.60875 0.91077 0.60549 0.0
H299 H 0.5832 0.90589 0.72413 0.0
C300 C 0.49187 0.75182 0.50608 0.0
O301 O 0.49999 0.72135 0.53424 0.0
O302 O 0.51077 0.85496 0.77098 0.0
H303 H 0.53577 0.84531 0.60265 0.0
H304 H 0.3585 0.72518 0.69644 0.0
H305 H 0.58262 0.87887 0.54786 0.0
Zn306 Zn 0.77795 0.48049 0.59522 0.0
C307 C 0.68056 0.4586 0.67041 0.0
N308 N 0.67481 0.43397 0.63263 0.0
C309 C 0.70352 0.44395 0.60195 0.0
N310 N 0.7263 0.47261 0.62004 0.0
N311 N 0.71192 0.48256 0.66317 0.0
C312 C 0.7539 0.51375 0.78736 0.0
O313 O 0.77994 0.50113 0.75583 0.0
O314 O 0.77842 0.48976 0.52199 0.0
Zn315 Zn 0.72386 0.53325 0.69657 0.0
N316 N 0.80612 0.43224 0.6086 0.0
C317 C 0.83618 0.3873 0.66425 0.0
C318 C 0.81266 0.42049 0.65532 0.0
C319 C 0.82092 0.41152 0.57055 0.0
N320 N 0.85276 0.36784 0.62609 0.0
C321 C 0.84531 0.37895 0.57929 0.0
O322 O 0.77859 0.55633 0.68488 0.0
C323 C 0.80836 0.55078 0.65796 0.0
O324 O 0.80859 0.52398 0.62563 0.0
H325 H 0.8004 0.43724 0.68524 0.0
H326 H 0.81539 0.42148 0.53374 0.0
C327 C 0.66301 0.59888 0.68771 0.0
C328 C 0.64048 0.62376 0.65685 0.0
C329 C 0.67115 0.59518 0.58771 0.0
C330 C 0.69331 0.5709 0.61792 0.0
N331 N 0.68867 0.57254 0.66709 0.0
N332 N 0.64527 0.62075 0.60778 0.0
H333 H 0.65981 0.60011 0.72692 0.0
C334 C 0.81069 0.49852 0.50159 0.0
O335 O 0.84188 0.50246 0.52902 0.0
O336 O 0.72192 0.5281 0.77089 0.0
H337 H 0.71432 0.55065 0.6022 0.0
H338 H 0.84215 0.37781 0.70121 0.0
H339 H 0.67445 0.59376 0.54854 0.0
Zn340 Zn 0.08746 0.78381 0.59914 0.0
C341 C 0.1043 0.6812 0.67155 0.0
N342 N 0.12959 0.67535 0.63477 0.0
C343 C 0.12213 0.70604 0.60498 0.0
N344 N 0.09422 0.73013 0.62268 0.0
N345 N 0.08271 0.71469 0.66473 0.0
C346 C 0.05782 0.74281 0.79472 0.0
O347 O 0.07504 0.77116 0.77 0.0
O348 O 0.07735 0.78752 0.5256 0.0
Zn349 Zn 0.03409 0.7292 0.69859 0.0
N350 N 0.13646 0.80995 0.61103 0.0
C351 C 0.1898 0.82741 0.66234 0.0
C352 C 0.15499 0.80679 0.65472 0.0
C353 C 0.15157 0.83217 0.57451 0.0
N354 N 0.2045 0.85043 0.62602 0.0
C355 C 0.18627 0.853 0.58206 0.0
O356 O 1.0165 0.78712 0.69441 0.0
C357 C 1.02171 0.81734 0.66741 0.0
O358 O 0.04625 0.81657 0.63268 0.0
H359 H 0.14264 0.78875 0.68342 0.0
H360 H 0.13609 0.83453 0.54023 0.0
C361 C 0.96597 0.67481 0.6802 0.0
C362 C 0.93936 0.65821 0.64661 0.0
C363 C 0.96765 0.69624 0.58307 0.0
C364 C 0.99379 0.71252 0.61601 0.0
N365 N 0.99295 0.70138 0.66366 0.0
N366 N 0.94134 0.66942 0.59901 0.0
H367 H 0.96565 0.66631 0.71825 0.0
C368 C 0.04468 0.79839 0.5077 0.0
O369 O 1.01494 0.80384 0.53719 0.0
O370 O 0.03776 0.71746 0.77124 0.0
H371 H 1.0149 0.73402 0.60371 0.0
H372 H 0.20478 0.82548 0.697 0.0
H373 H 0.96831 0.70473 0.54503 0.0
Zn374 Zn 0.8294 0.03597 0.69729 0.0
C375 C 0.85348 0.11659 0.59553 0.0
N376 N 0.88444 0.12476 0.62349 0.0
C377 C 0.87718 0.10452 0.6648 0.0
N378 N 0.84271 0.08479 0.66189 0.0
N379 N 0.82777 0.0933 0.61853 0.0
C380 C 0.74234 0.06211 0.50538 0.0
O381 O 0.71635 0.04492 0.5334 0.0
O382 O 0.83929 0.04175 0.76982 0.0
Zn383 Zn 0.77427 0.08991 0.59819 0.0
N384 N 0.85992 0.99439 0.66542 0.0
C385 C 0.86787 0.96613 0.58659 0.0
C386 C 0.84899 0.99219 0.61786 0.0
C387 C 0.88899 0.97055 0.68353 0.0
N388 N 0.89701 0.9429 0.60408 0.0
C389 C 0.90823 0.94394 0.65166 0.0
O390 O 0.74225 0.04894 0.6322 0.0
C391 C 0.74196 1.02347 0.6663 0.0
O392 O 0.77231 1.01684 0.6921 0.0
H393 H 0.8258 1.01106 0.60423 0.0
H394 H 0.89748 0.97279 0.72143 0.0
C395 C 0.73122 0.15897 0.57514 0.0
C396 C 0.71184 0.19486 0.58368 0.0
C397 C 0.73277 0.19298 0.66587 0.0
C398 C 0.75193 0.15694 0.65723 0.0
N399 N 0.75041 0.14055 0.61205 0.0
N400 N 0.71264 0.21092 0.62908 0.0
H401 H 0.73008 0.14521 0.5396 0.0
C402 C 0.81161 0.0591 0.79249 0.0
O403 O 0.7822 0.07349 0.76715 0.0
O404 O 0.77034 0.08111 0.52493 0.0
H405 H 0.76757 0.14199 0.68627 0.0
H406 H 0.85959 0.96446 0.54859 0.0
H407 H 0.73344 0.20626 0.70171 0.0
Zn408 Zn 1.01839 0.22053 0.80953 0.0
C409 C 0.92732 0.20199 0.90126 0.0
N410 N 0.91922 0.17197 0.87113 0.0
C411 C 0.94479 0.17706 0.83457 0.0
N412 N 0.9676 0.20942 0.84185 0.0
N413 N 0.95606 0.22516 0.88381 0.0
C414 C 0.99542 0.30429 1.00325 0.0
O415 O 1.01832 0.32678 0.97675 0.0
O416 O 1.01584 0.20937 0.73671 0.0
Zn417 Zn 0.96723 0.27764 0.90833 0.0
N418 N 0.05696 0.18838 0.84427 0.0
C419 C 0.07736 0.1721 0.92486 0.0
C420 C 0.05326 0.19312 0.89325 0.0
C421 C 0.08507 0.16397 0.82528 0.0
N422 N 0.10478 0.14739 0.9063 0.0
C423 C 0.10976 0.1427 0.85744 0.0
O424 O 1.01077 0.30654 0.87623 0.0
C425 C 0.03502 0.30721 0.84136 0.0
O426 O 0.03933 0.27756 0.81321 0.0
H427 H 0.03154 0.21323 0.9077 0.0
H428 H 0.0878 0.16075 0.78619 0.0
C429 C 0.91805 0.34245 0.9243 0.0
C430 C 0.88774 0.36954 0.91583 0.0
C431 C 0.86987 0.33334 0.84523 0.0
C432 C 0.90011 0.30631 0.85418 0.0
N433 N 0.92327 0.31131 0.89388 0.0
N434 N 0.86408 0.36406 0.87649 0.0
H435 H 0.93685 0.34547 0.95566 0.0
C436 C 0.99423 0.2343 0.71439 0.0
O437 O 0.97526 0.26078 0.74037 0.0
O438 O 0.97346 0.27925 0.98212 0.0
H439 H 0.90525 0.28181 0.8297 0.0
H440 H 0.07438 0.17541 0.96389 0.0
H441 H 0.85096 0.32976 0.81395 0.0
Zn442 Zn 0.33515 0.03735 0.81145 0.0
C443 C 0.3606 0.94943 0.90694 0.0
N444 N 0.3902 0.94115 0.8767 0.0
C445 C 0.38386 0.9658 0.83885 0.0
N446 N 0.35125 0.98836 0.84609 0.0
N447 N 0.33658 0.97716 0.88863 0.0
C448 C 0.24921 1.00321 1.00449 0.0
O449 O 0.21806 1.0059 0.97668 0.0
O450 O 0.34739 0.03418 0.73929 0.0
Zn451 Zn 0.28375 0.98163 0.91241 0.0
N452 N 0.35975 0.08217 0.84465 0.0
C453 C 0.35884 0.11517 0.92132 0.0
C454 C 0.34661 0.08451 0.8913 0.0
C455 C 0.38499 0.10987 0.82649 0.0
N456 N 0.384 0.14249 0.90366 0.0
C457 C 0.39747 0.14106 0.85709 0.0
O458 O 0.24997 1.02067 0.87709 0.0
C459 C 0.2475 0.04464 0.84147 0.0
O460 O 0.27677 0.05148 0.81413 0.0
H461 H 0.32635 0.06265 0.90493 0.0
H462 H 0.39523 0.10766 0.78928 0.0
C463 C 0.24309 0.91178 0.94263 0.0
C464 C 0.22107 0.87738 0.9356 0.0
C465 C 0.23548 0.8798 0.85122 0.0
C466 C 0.25624 0.91489 0.85818 0.0
N467 N 0.2593 0.93039 0.90369 0.0
N468 N 0.21761 0.86229 0.88987 0.0
H469 H 0.24552 0.9247 0.97848 0.0
C470 C 0.32602 1.00929 0.71705 0.0
O471 O 0.30153 0.98794 0.74278 0.0
O472 O 0.2818 0.99452 0.98473 0.0
H473 H 0.269 0.93022 0.82749 0.0
H474 H 0.34852 0.11721 0.95849 0.0
H475 H 0.23254 0.86729 0.81514 0.0
Zn476 Zn 0.57848 0.29134 0.91598 0.0
C477 C 0.61788 0.38456 0.84391 0.0
N478 N 0.63833 0.38824 0.88552 0.0
C479 C 0.62117 0.36243 0.91528 0.0
N480 N 0.59179 0.34324 0.89336 0.0
N481 N 0.58799 0.35807 0.84869 0.0
C482 C 0.52333 0.33887 0.70889 0.0
O483 O 0.4879 0.33627 0.72691 0.0
O484 O 0.5684 0.29113 0.98889 0.0
Zn485 Zn 0.53869 0.35216 0.80999 0.0
N486 N 0.62362 0.25756 0.90512 0.0
C487 C 0.67302 0.22952 0.85456 0.0
C488 C 0.64056 0.25441 0.86051 0.0
C489 C 0.63803 0.23716 0.94387 0.0
N490 N 0.68724 0.20892 0.89348 0.0
C491 C 0.67078 0.21256 0.93838 0.0
O492 O 0.50629 0.30098 0.8226 0.0
C493 C 0.50794 0.27 0.84936 0.0
O494 O 0.53368 0.26622 0.88233 0.0
H495 H 0.62891 0.27097 0.82995 0.0
H496 H 0.62387 0.2397 0.97876 0.0
C497 C 0.46591 0.40201 0.81792 0.0
C498 C 0.44629 0.43779 0.82949 0.0
C499 C 0.50677 0.46707 0.85008 0.0
C500 C 0.52594 0.43179 0.83964 0.0
N501 N 0.50575 0.39987 0.82296 0.0
N502 N 0.46757 0.46917 0.84506 0.0
H503 H 0.44975 0.37627 0.80617 0.0
C504 C 0.55279 0.26067 0.00802 0.0
O505 O 0.54081 0.23213 0.97927 0.0
O506 O 0.55125 0.34763 0.73757 0.0
H507 H 0.55691 0.43025 0.84524 0.0
H508 H 0.68669 0.22648 0.81922 0.0
H509 H 0.52287 0.4925 0.86292 0.0
Zn510 Zn 0.21282 0.53664 0.81169 0.0
C511 C 0.20136 0.62335 0.91216 0.0
N512 N 0.17163 0.63639 0.88497 0.0
C513 C 0.17376 0.61364 0.84484 0.0
N514 N 0.20403 0.58714 0.84772 0.0
N515 N 0.22149 0.59435 0.89007 0.0
C516 C 0.26915 0.54885 0.0098 0.0
O517 O 0.24685 0.52112 0.99134 0.0
O518 O 0.20424 0.54266 0.73895 0.0
Zn519 Zn 0.27437 0.58304 0.90966 0.0
N520 N 0.17869 0.49762 0.84322 0.0
C521 C 0.16125 0.47544 0.92276 0.0
C522 C 0.18244 0.50029 0.89246 0.0
C523 C 0.15496 0.46962 0.82274 0.0
N524 N 0.13731 0.44818 0.90276 0.0
C525 C 0.13352 0.44414 0.85368 0.0
O526 O 0.29955 0.53581 0.87946 0.0
C527 C 0.29684 0.51109 0.84488 0.0
O528 O 0.26751 0.51088 0.81626 0.0
H529 H 0.20217 0.52152 0.90821 0.0
H530 H 0.1526 0.4674 0.7835 0.0
C531 C 0.32162 0.64932 0.92926 0.0
C532 C 0.3456 0.68176 0.91915 0.0
C533 C 0.33308 0.67348 0.83487 0.0
C534 C 0.3095 0.64077 0.84519 0.0
N535 N 0.30469 0.6291 0.89224 0.0
N536 N 0.35113 0.69289 0.87198 0.0
H537 H 0.31765 0.63934 0.96638 0.0
C538 C 0.2291 0.56365 0.71622 0.0
O539 O 0.25601 0.58204 0.74162 0.0
O540 O 0.2812 0.57674 0.98272 0.0
H541 H 0.29554 0.62456 0.81608 0.0
H542 H 0.16392 0.47765 0.96196 0.0
H543 H 0.33753 0.68292 0.79759 0.0
C544 C 0.66256 0.15026 0.2955 0.0
C545 C 0.6221 0.15534 0.30362 0.0
C546 C 0.67696 0.12778 0.25667 0.0
C547 C 0.65171 0.10894 0.22406 0.0
H548 H 0.68367 0.16484 0.31875 0.0
H549 H 0.70816 0.12758 0.25018 0.0
S550 S 0.54345 0.10894 0.23118 0.0
N551 N 0.55701 0.13612 0.27829 0.0
N552 N 0.58409 0.09543 0.20307 0.0
C553 C 0.61115 0.11271 0.2322 0.0
C554 C 0.59634 0.1354 0.2725 0.0
C555 C 0.36882 0.62871 0.25511 0.0
C556 C 0.39371 0.61041 0.28887 0.0
C557 C 0.38379 0.65022 0.2159 0.0
C558 C 0.42436 0.65408 0.20816 0.0
H559 H 0.3375 0.62875 0.26082 0.0
H560 H 0.36308 0.66474 0.19179 0.0
S561 S 0.50179 0.60568 0.28153 0.0
N562 N 0.46088 0.59457 0.3104 0.0
N563 N 0.48896 0.63274 0.23377 0.0
C564 C 0.44967 0.63388 0.23988 0.0
C565 C 0.43433 0.61261 0.28092 0.0
C566 C 0.87151 0.43408 0.24302 0.0
C567 C 0.89678 0.4543 0.21168 0.0
C568 C 0.88588 0.4105 0.28105 0.0
C569 C 0.92631 0.40608 0.29022 0.0
H570 H 0.8403 0.43465 0.23658 0.0
H571 H 0.86472 0.39511 0.30343 0.0
S572 S 1.00495 0.45598 0.22135 0.0
N573 N 0.96446 0.46941 0.1927 0.0
N574 N 0.99129 0.42739 0.26721 0.0
C575 C 0.95206 0.42729 0.26034 0.0
C576 C 0.93734 0.45075 0.22041 0.0
C577 C 0.16607 0.90289 0.29478 0.0
C578 C 0.16023 0.94394 0.30092 0.0
C579 C 0.14835 0.88209 0.25682 0.0
C580 C 0.12432 0.90145 0.22294 0.0
H581 H 0.18465 0.88652 0.31981 0.0
H582 H 0.15512 0.85088 0.25256 0.0
S583 S 0.09764 1.00809 0.22389 0.0
N584 N 0.12655 1.00276 0.2718 0.0
N585 N 0.09509 0.96403 0.19783 0.0
C586 C 0.11795 0.94248 0.22851 0.0
C587 C 0.13542 0.96365 0.26817 0.0
C588 C 0.43589 0.95777 0.77483 0.0
C589 C 0.39717 0.95173 0.79071 0.0
C590 C 0.45194 0.93525 0.7362 0.0
C591 C 0.43021 0.90492 0.71406 0.0
H592 H 0.45401 0.97943 0.79298 0.0
H593 H 0.48117 0.94168 0.72349 0.0
S594 S 0.32988 0.87375 0.74702 0.0
N595 N 0.33911 0.91132 0.78358 0.0
N596 N 0.36925 0.86851 0.71293 0.0
C597 C 0.39209 0.89799 0.73084 0.0
C598 C 0.3756 0.92141 0.76868 0.0
C599 C 0.62359 0.44125 0.72281 0.0
C600 C 0.66412 0.44758 0.71814 0.0
C601 C 0.60803 0.42009 0.76262 0.0
C602 C 0.63259 0.40426 0.79891 0.0
H603 H 0.60391 0.45154 0.6945 0.0
H604 H 0.57683 0.41618 0.7646 0.0
S605 S 0.74137 0.40616 0.79814 0.0
N606 N 0.72845 0.43171 0.7494 0.0
N607 N 0.70006 0.39303 0.82431 0.0
C608 C 0.67333 0.40961 0.79358 0.0
C609 C 0.68888 0.43102 0.75333 0.0
C610 C 0.13262 0.68648 0.75338 0.0
C611 C 0.11305 0.66303 0.71931 0.0
C612 C 0.15245 0.66942 0.79271 0.0
C613 C 0.15366 0.62801 0.80009 0.0
H614 H 0.13482 0.71819 0.74792 0.0
H615 H 0.16785 0.68914 0.81715 0.0
S616 S 0.10338 0.55368 0.7238 0.0
N617 N 0.09465 0.59629 0.69585 0.0
N618 N 0.12973 0.56431 0.77257 0.0
C619 C 0.13278 0.60415 0.7675 0.0
C620 C 0.11312 0.62164 0.72641 0.0
C621 C 0.94193 0.12012 0.77617 0.0
C622 C 0.93454 0.16036 0.78672 0.0
C623 C 0.92233 0.10077 0.73765 0.0
C624 C 0.89348 0.1207 0.7104 0.0
H625 H 0.96223 0.10336 0.79851 0.0
H626 H 0.92968 0.0703 0.72923 0.0
S627 S 0.86015 0.22445 0.72755 0.0
N628 N 0.89503 0.21831 0.76848 0.0
N629 N 0.85722 0.18192 0.69829 0.0
C630 C 0.88531 0.16047 0.72166 0.0
C631 C 0.90601 0.18029 0.75928 0.0
C632 C 0.57636 0.27988 0.09114 0.0
C633 C 0.55378 0.2547 0.06173 0.0
C634 C 0.57913 0.27404 0.14163 0.0
C635 C 0.55932 0.24285 0.16507 0.0
H636 H 0.59239 0.30422 0.0751 0.0
H637 H 0.59675 0.29453 0.16243 0.0
S638 S 0.4969 0.16788 0.1046 0.0
N639 N 0.51172 0.19678 0.05975 0.0
N640 N 0.51681 0.18598 0.15456 0.0
C641 C 0.53699 0.21712 0.13604 0.0
C642 C 0.53423 0.22302 0.0845 0.0
C643 C 0.25174 0.53605 0.0967 0.0
C644 C 0.27937 0.54849 0.06222 0.0
C645 C 0.26018 0.53683 0.1467 0.0
C646 C 0.29697 0.54889 0.164 0.0
H647 H 0.22302 0.52657 0.08505 0.0
H648 H 0.23771 0.52772 0.1721 0.0
S649 S 0.37996 0.58296 0.08862 0.0
N650 N 0.34518 0.57308 0.04873 0.0
N651 N 0.3615 0.57281 0.14283 0.0
C652 C 0.32523 0.56048 0.12995 0.0
C653 C 0.31627 0.5608 0.07901 0.0
C654 C 1.02097 0.33649 0.13223 0.0
C655 C 0.9873 0.32676 0.15904 0.0
C656 C 1.02336 0.32897 0.08198 0.0
C657 C 0.99225 0.31133 0.05654 0.0
H658 H 0.04611 0.34911 0.15036 0.0
H659 H 0.05007 0.33653 0.06307 0.0
S660 S 0.89554 0.28544 0.10834 0.0
N661 N 0.92078 0.30194 0.15534 0.0
N662 N 0.92525 0.28808 0.06111 0.0
C663 C 0.95788 0.30284 0.08253 0.0
C664 C 0.9554 0.31054 0.13366 0.0
C665 C 0.27488 0.99596 0.13917 0.0
C666 C 0.23998 1.00688 0.16291 0.0
C667 C 0.27772 0.99566 0.08821 0.0
C668 C 0.24567 1.00578 0.05851 0.0
H669 H 0.30058 0.98788 0.16005 0.0
H670 H 0.30532 0.9871 0.07209 0.0
S671 S 0.14728 0.03614 0.1023 0.0
N672 N 0.17261 1.02818 0.15263 0.0
N673 N 0.17755 1.02692 0.05688 0.0
C674 C 0.21045 1.01663 0.0817 0.0
C675 C 0.20771 1.01734 0.13378 0.0
C676 C 0.99707 0.8194 0.38483 0.0
C677 C 0.0288 0.82715 0.35365 0.0
C678 C 1.00265 0.80994 0.43418 0.0
C679 C 0.04027 0.80722 0.45467 0.0
H680 H 0.96742 0.82062 0.37107 0.0
H681 H 0.97709 0.80443 0.45637 0.0
S682 S 0.13355 0.82497 0.38924 0.0
N683 N 0.09953 0.83183 0.34728 0.0
N684 N 0.11004 0.81356 0.43984 0.0
C685 C 0.07242 0.81486 0.42403 0.0
C686 C 0.06669 0.82502 0.37371 0.0
C687 C 0.71392 1.02653 0.37856 0.0
C688 C 0.7306 0.05522 0.34784 0.0
C689 C 0.71759 1.02913 0.42952 0.0
C690 C 0.73809 0.06047 0.45155 0.0
H691 H 0.6989 1.00131 0.36317 0.0
H692 H 0.70496 1.00594 0.45173 0.0
S693 S 0.78152 0.14631 0.38731 0.0
N694 N 0.76464 0.11804 0.34324 0.0
N695 N 0.77138 0.12302 0.43867 0.0
C696 C 0.75333 0.09022 0.42123 0.0
C697 C 0.74958 0.08757 0.3695 0.0
C698 C 0.47232 0.77205 0.37169 0.0
C699 C 0.48912 0.73915 0.34789 0.0
C700 C 0.47402 0.77618 0.4225 0.0
C701 C 0.49234 0.74748 0.45203 0.0
H702 H 0.45783 0.79518 0.35096 0.0
H703 H 0.46045 0.802 0.4387 0.0
S704 S 0.54102 0.65557 0.40826 0.0
N705 N 0.52503 0.67738 0.35813 0.0
N706 N 0.52775 0.68477 0.45356 0.0
C707 C 0.50915 0.71428 0.42885 0.0
C708 C 0.50764 0.7102 0.37692 0.0
C709 C 0.78047 0.49459 0.41855 0.0
C710 C 0.81358 0.50172 0.44757 0.0
C711 C 0.78222 0.497 0.36762 0.0
C712 C 0.81707 0.50694 0.34332 0.0
H713 H 0.75281 0.48709 0.43519 0.0
H714 H 0.7557 0.49152 0.34721 0.0
S715 S 0.91278 0.52632 0.40173 0.0
N716 N 0.88295 0.51769 0.44776 0.0
N717 N 0.88592 0.52239 0.35198 0.0
C718 C 0.85058 0.51366 0.37165 0.0
C719 C 0.84891 0.51099 0.4237 0.0
C720 C 0.46509 0.79488 0.92163 0.0
C721 C 0.48826 0.81887 0.95174 0.0
C722 C 0.46471 0.79982 0.87088 0.0
C723 C 0.48752 0.82903 0.84784 0.0
H724 H 0.44664 0.77231 0.93736 0.0
H725 H 0.44654 0.78015 0.84961 0.0
S726 S 0.55198 0.90105 0.91041 0.0
N727 N 0.53367 0.874 0.95499 0.0
N728 N 0.53294 0.88339 0.85964 0.0
C729 C 0.51018 0.85392 0.87762 0.0
C730 C 0.51053 0.84885 0.92947 0.0
C731 C 0.73382 0.51842 0.8757 0.0
C732 C 0.76312 0.5124 0.84047 0.0
C733 C 0.7426 0.51776 0.92586 0.0
C734 C 0.78114 0.51204 0.94257 0.0
H735 H 0.70385 0.52342 0.86452 0.0
H736 H 0.71914 0.5223 0.95174 0.0
S737 S 0.86824 0.49245 0.86601 0.0
N738 N 0.83223 0.49847 0.82663 0.0
N739 N 0.84839 0.49828 0.92029 0.0
C740 C 0.81057 0.5056 0.90791 0.0
C741 C 0.80165 0.50549 0.85706 0.0
C742 C 0.08572 0.7695 0.8724 0.0
C743 C 0.06071 0.74245 0.84894 0.0
C744 C 0.0876 0.77206 0.92336 0.0
C745 C 0.06446 0.74787 0.9533 0.0
H746 H 0.10403 0.78918 0.85129 0.0
H747 H 0.10771 0.79295 0.9394 0.0
S748 S 0.99513 0.67097 0.91068 0.0
N749 N 1.01315 0.68995 0.86001 0.0
N750 N 1.01647 0.69495 0.95575 0.0
C751 C 0.03994 0.72002 0.93051 0.0
C752 C 0.03809 0.7173 0.87844 0.0
C753 C 0.7735 0.06455 0.8699 0.0
C754 C 0.80986 0.0598 0.84658 0.0
C755 C 0.77024 0.06396 0.92085 0.0
C756 C 0.80325 0.05883 0.95081 0.0
H757 H 0.74704 0.0682 0.84866 0.0
H758 H 0.74151 0.06755 0.93675 0.0
S759 S 0.90584 0.0485 0.90778 0.0
N760 N 0.87985 0.05186 0.85723 0.0
N761 N 0.8741 0.05101 0.95295 0.0
C762 C 0.84002 0.05483 0.92791 0.0
C763 C 0.84323 0.05524 0.87588 0.0
C764 C 1.02389 0.22227 0.63151 0.0
C765 C 0.99284 0.23656 0.66022 0.0
C766 C 1.02433 0.22805 0.58063 0.0
C767 C 0.9938 0.24838 0.55656 0.0
H768 H 0.04852 0.20748 0.64854 0.0
H769 H 0.04912 0.21707 0.56011 0.0
S770 S 0.90326 0.28605 0.61445 0.0
N771 N 0.92928 0.26857 0.66024 0.0
N772 N 0.92971 0.27861 0.56504 0.0
C773 C 0.96191 0.26122 0.5847 0.0
C774 C 0.96154 0.25549 0.63633 0.0
C775 C 0.33194 0.03939 0.58338 0.0
C776 C 0.31517 1.00681 0.55929 0.0
C777 C 0.33674 0.03957 0.63431 0.0
C778 C 0.32505 1.00711 0.66298 0.0
H779 H 0.34066 0.06532 0.56286 0.0
H780 H 0.34861 0.06579 0.65139 0.0
S781 S 0.28584 0.91205 0.61689 0.0
N782 N 0.29123 0.93948 0.56752 0.0
N783 N 0.29986 0.93997 0.66287 0.0
C784 C 0.30993 0.9737 0.63904 0.0
C785 C 0.30506 0.97351 0.58733 0.0
C786 C 0.49798 0.32524 0.62496 0.0
C787 C 0.53017 0.3294 0.65653 0.0
C788 C 0.50286 0.31501 0.57582 0.0
C789 C 0.54013 0.30804 0.55595 0.0
H790 H 0.46854 0.33 0.63818 0.0
H791 H 0.47701 0.31248 0.55328 0.0
S792 S 0.6342 0.31478 0.62293 0.0
N793 N 0.60085 0.32575 0.6642 0.0
N794 N 0.61007 0.3061 0.57197 0.0
C795 C 0.5727 0.31187 0.58708 0.0
C796 C 0.56771 0.32272 0.63721 0.0
C797 C 0.25828 0.58875 0.63836 0.0
C798 C 0.23052 0.5647 0.66196 0.0
C799 C 0.26244 0.58851 0.5875 0.0
C800 C 0.23916 0.56415 0.55799 0.0
H801 H 0.27725 0.60789 0.65926 0.0
H802 H 0.28371 0.60805 0.57117 0.0
S803 S 0.16114 0.49658 0.60094 0.0
N804 N 0.17855 0.51656 0.65129 0.0
N805 N 0.18646 0.51616 0.55583 0.0
C806 C 0.2107 0.54059 0.58084 0.0
C807 C 0.2064 0.54081 0.63272 0.0
C808 C 0.62473 0.2116 0.50379 0.0
C809 C 0.64259 0.21828 0.45848 0.0
C810 C 0.64725 0.20895 0.54645 0.0
C811 C 0.6881 0.2123 0.5444 0.0
H812 H 0.59383 0.205 0.50566 0.0
H813 H 0.63313 0.20038 0.58016 0.0
S814 S 0.74729 0.23703 0.43581 0.0
N815 N 0.70216 0.23391 0.41497 0.0
N816 N 0.74462 0.22803 0.4949 0.0
C817 C 0.70558 0.22272 0.50003 0.0
C818 C 0.68271 0.22583 0.45696 0.0
C819 C 0.34643 0.68186 0.44823 0.0
C820 C 0.34995 0.64045 0.45055 0.0
C821 C 0.35008 0.705 0.49029 0.0
C822 C 0.3576 0.68737 0.53586 0.0
H823 H 0.34281 0.69652 0.41332 0.0
H824 H 0.34922 0.73698 0.48677 0.0
S825 S 0.36866 0.58001 0.56088 0.0
N826 N 0.3604 0.58263 0.50161 0.0
N827 N 0.36699 0.62609 0.58103 0.0
C828 C 0.35899 0.64586 0.53897 0.0
C829 C 0.35537 0.62234 0.49607 0.0
C830 C 0.90765 0.36565 0.53632 0.0
C831 C 0.86689 0.36129 0.53832 0.0
C832 C 0.92799 0.35953 0.49264 0.0
C833 C 0.90798 0.34908 0.44993 0.0
H834 H 0.92347 0.37671 0.56766 0.0
H835 H 0.95886 0.36634 0.49129 0.0
S836 S 0.8022 0.3298 0.43753 0.0
N837 N 0.80796 0.34215 0.49531 0.0
N838 N 0.84619 0.3312 0.41296 0.0
C839 C 0.86781 0.34176 0.45238 0.0
C840 C 0.84718 0.34775 0.49675 0.0
C841 C 0.21349 0.88728 0.45652 0.0
C842 C 0.20829 0.92846 0.46015 0.0
C843 C 0.20984 0.86292 0.49755 0.0
C844 C 0.20091 0.87913 0.54334 0.0
H845 H 0.21763 0.87361 0.42117 0.0
H846 H 0.21137 0.83108 0.49288 0.0
S847 S 0.18819 0.98546 0.57244 0.0
N848 N 0.19674 0.98471 0.51317 0.0
N849 N 0.19002 0.93882 0.59077 0.0
C850 C 0.19853 0.92045 0.54804 0.0
C851 C 0.20218 0.94524 0.50617 0.0
C852 C 0.21614 0.85029 0.01998 0.0
C853 C 0.19771 0.86142 0.97622 0.0
C854 C 0.19439 0.84446 0.06266 0.0
C855 C 0.15363 0.8496 0.06285 0.0
H856 H 0.24772 0.8484 0.02183 0.0
H857 H 0.20979 0.83838 0.0964 0.0
S858 S 0.0919 0.87937 0.95798 0.0
N859 N 0.13653 0.87662 0.93535 0.0
N860 N 0.09582 0.86665 0.01597 0.0
C861 C 0.13474 0.85891 0.01889 0.0
C862 C 0.15681 0.86453 0.97535 0.0
C863 C 0.69498 0.12368 0.01709 0.0
C864 C 0.69562 0.14029 0.06396 0.0
C865 C 0.69047 0.14784 0.97565 0.0
C866 C 0.68526 0.18904 0.98031 0.0
H867 H 0.6948 0.09182 0.01266 0.0
H868 H 0.6878 0.13388 0.94028 0.0
S869 S 0.68935 0.24674 0.09528 0.0
N870 N 0.69509 0.20023 0.11254 0.0
N871 N 0.68507 0.24544 0.03539 0.0
C872 C 0.68852 0.20596 0.02695 0.0
C873 C 0.6939 0.18156 0.06867 0.0
C874 C 0.36791 0.71734 0.04564 0.0
C875 C 0.40842 0.7112 0.04841 0.0
C876 C 0.34784 0.71201 1.00168 0.0
C877 C 0.36773 0.70008 0.9593 0.0
H878 H 0.35128 0.72331 0.07843 0.0
H879 H 0.31624 0.71411 1.00171 0.0
S880 S 0.47422 0.68326 0.94708 0.0
N881 N 0.46809 0.69525 0.00494 0.0
N882 N 0.43041 0.6856 0.92187 0.0
C883 C 0.40862 0.69714 0.96074 0.0
C884 C 0.42901 0.70246 0.0056 0.0
C885 C 0.90243 0.44109 0.01985 0.0
C886 C 0.86513 0.44232 0.04161 0.0
C887 C 0.90928 0.42016 0.97667 0.0
C888 C 0.87889 0.40017 0.95281 0.0
H889 H 0.92717 0.45477 0.0377 0.0
H890 H 0.93893 0.41804 0.96316 0.0
S891 S 0.77531 0.39914 0.98899 0.0
N892 N 0.79749 0.42303 0.03338 0.0
N893 N 0.8095 0.38775 0.9493 0.0
C894 C 0.84101 0.40443 0.97108 0.0
C895 C 0.83434 0.42428 0.01633 0.0
C896 C 0.42783 0.86282 0.51106 0.0
C897 C 0.41017 0.85018 0.55451 0.0
C898 C 0.40598 0.86635 0.468 0.0
C899 C 0.36601 0.85722 0.46742 0.0
H900 H 0.45779 0.87302 0.51129 0.0
H901 H 0.41959 0.87932 0.43615 0.0
S902 S 0.30817 0.81639 0.5696 0.0
N903 N 0.35194 0.82406 0.59315 0.0
N904 N 0.31094 0.83023 0.51189 0.0
C905 C 0.34901 0.84124 0.50953 0.0
C906 C 0.37113 0.83789 0.55333 0.0
C907 C 0.69779 0.41687 0.46951 0.0
C908 C 0.70142 0.37542 0.47165 0.0
C909 C 0.7022 0.43992 0.51168 0.0
C910 C 0.71085 0.42207 0.5567 0.0
H911 H 0.68844 0.43118 0.43606 0.0
H912 H 0.69597 0.47139 0.50976 0.0
S913 S 0.73151 0.31579 0.57883 0.0
N914 N 0.71948 0.3182 0.52056 0.0
N915 N 0.72873 0.36166 0.59955 0.0
C916 C 0.71816 0.38119 0.55819 0.0
C917 C 0.71325 0.35777 0.51559 0.0
C918 C 0.15199 0.71129 0.47308 0.0
C919 C 0.19287 0.70812 0.47662 0.0
C920 C 0.12881 0.71392 0.51516 0.0
C921 C 0.146 0.71412 0.56165 0.0
H922 H 0.1377 0.7081 0.43806 0.0
H923 H 0.09735 0.7125 0.51144 0.0
S924 S 0.25183 0.71396 0.58972 0.0
N925 N 0.24966 0.71098 0.52969 0.0
N926 N 0.20607 0.71608 0.60863 0.0
C927 C 0.18684 0.7147 0.5653 0.0
C928 C 0.21036 0.71191 0.52271 0.0
C929 C 0.86362 0.1435 0.4637 0.0
C930 C 0.857 0.18461 0.46484 0.0
C931 C 0.85849 0.1203 0.50568 0.0
C932 C 0.84635 0.13765 0.54961 0.0
H933 H 0.87542 0.12972 0.43122 0.0
H934 H 0.8667 0.08928 0.50467 0.0
S935 S 0.81975 0.24281 0.56931 0.0
N936 N 0.83395 0.24092 0.5118 0.0
N937 N 0.82401 0.1972 0.59062 0.0
C938 C 0.83684 0.17808 0.55012 0.0
C939 C 0.84226 0.20168 0.50764 0.0
C940 C 0.90031 0.19644 0.03397 0.0
C941 C 0.85926 0.19453 0.03167 0.0
C942 C 0.9227 0.20306 0.99182 0.0
C943 C 0.90469 0.2084 0.94625 0.0
H944 H 0.91533 0.18997 0.06786 0.0
H945 H 0.95422 0.20086 0.9943 0.0
S946 S 0.79824 0.21228 0.92197 0.0
N947 N 0.80154 0.20348 0.98109 0.0
N948 N 0.84363 0.21543 0.902 0.0
C949 C 0.86372 0.20959 0.94418 0.0
C950 C 0.84097 0.20287 0.9869 0.0
C951 C 0.35299 0.91568 0.03751 0.0
C952 C 0.35174 0.87428 0.03234 0.0
C953 C 0.35316 0.94049 0.99642 0.0
C954 C 0.35166 0.9245 0.9493 0.0
H955 H 0.35724 0.92874 0.07316 0.0
H956 H 0.35727 0.97202 1.00143 0.0
S957 S 0.34128 0.81864 0.91676 0.0
N958 N 0.34378 0.81881 0.9769 0.0
N959 N 0.34421 0.86551 0.89972 0.0
C960 C 0.34712 0.88349 0.94385 0.0
C961 C 0.3469 0.85831 0.98548 0.0
C962 C 0.64181 0.383 0.04645 0.0
C963 C 0.67906 0.36599 0.05236 0.0
C964 C 0.6204 0.37722 1.0034 0.0
C965 C 0.63611 0.35516 0.96466 0.0
H966 H 0.63037 0.403 0.07384 0.0
H967 H 0.59309 0.39312 0.99865 0.0
S968 S 0.73168 0.30336 0.9629 0.0
N969 N 0.72908 0.32316 0.01788 0.0
N970 N 0.69046 0.3156 0.93529 0.0
C971 C 0.67233 0.33637 0.97119 0.0
C972 C 0.69339 0.34088 0.01566 0.0
C973 C 0.19815 0.64378 0.04594 0.0
C974 C 0.20209 0.68522 0.04659 0.0
C975 C 0.20231 0.62257 1.00231 0.0
C976 C 0.21144 0.64213 0.95862 0.0
H977 H 0.18802 0.62823 0.07808 0.0
H978 H 0.19482 0.59143 1.00193 0.0
S979 S 0.23229 0.74897 0.94333 0.0
N980 N 0.22112 0.74412 1.00161 0.0
N981 N 0.22942 0.70405 0.91977 0.0
C982 C 0.21945 0.68281 0.95996 0.0
C983 C 0.21485 0.70444 1.00409 0.0
C984 C 0.37697 0.13173 0.3201 0.0
C985 C 0.41287 0.11813 0.33891 0.0
C986 C 0.3442 0.10662 0.31797 0.0
C987 C 0.3462 0.0673 0.33532 0.0
H988 H 0.37344 0.16264 0.31028 0.0
H989 H 0.31655 0.11893 0.30591 0.0
S990 S 0.43526 1.01648 0.38189 0.0
N991 N 0.44959 0.0622 0.37052 0.0
N992 N 0.38868 1.01497 0.36641 0.0
C993 C 0.38287 0.05279 0.35078 0.0
C994 C 0.41599 0.07824 0.35271 0.0
C995 C 0.47463 0.41305 0.36122 0.0
C996 C 0.43803 0.41009 0.33844 0.0
C997 C 0.50178 0.38189 0.35959 0.0
C998 C 0.49334 0.34597 0.33567 0.0
H999 H 0.48148 0.43888 0.38297 0.0
H1000 H 0.52886 0.38538 0.37954 0.0
S1001 S 0.4024 0.32475 0.26666 0.0
N1002 N 0.39551 0.3699 0.28826 0.0
N1003 N 0.44639 0.31092 0.28502 0.0
C1004 C 0.4577 0.34366 0.30991 0.0
C1005 C 0.43005 0.37576 0.31145 0.0
C1006 C 0.17157 0.50956 0.36679 0.0
C1007 C 0.20512 0.49772 0.34077 0.0
C1008 C 0.13812 0.48591 0.36851 0.0
C1009 C 0.1363 0.44952 0.34384 0.0
H1010 H 0.17151 0.53666 0.38786 0.0
H1011 H 0.11405 0.49532 0.39142 0.0
S1012 S 0.21405 0.40626 0.26628 0.0
N1013 N 0.23291 0.44819 0.2862 0.0
N1014 N 0.16969 0.4038 0.28973 0.0
C1015 C 0.16837 0.43836 0.31496 0.0
C1016 C 0.20281 0.46244 0.31332 0.0
C1017 C 0.05224 0.18487 0.35815 0.0
C1018 C 0.06136 0.22067 0.33419 0.0
C1019 C 0.07897 0.15334 0.36052 0.0
C1020 C 0.11588 0.1558 0.3385 0.0
H1021 H 1.02481 0.18169 0.37738 0.0
H1022 H 0.07152 0.12758 0.38218 0.0
S1023 S 0.15357 0.24095 0.26765 0.0
N1024 N 0.10946 0.25527 0.28482 0.0
N1025 N 0.15962 0.19566 0.28944 0.0
C1026 C 0.12466 0.19015 0.31172 0.0
C1027 C 0.0974 0.22259 0.30939 0.0
C1028 C 0.85182 0.97262 0.12249 0.0
C1029 C 0.83376 0.98411 0.16626 0.0
C1030 C 0.8877 0.95266 0.12234 0.0
C1031 C 0.90758 0.94346 0.1659 0.0
H1032 H 0.83868 0.98023 0.08774 0.0
H1033 H 0.90111 0.94625 0.08744 0.0
S1034 S 0.8716 0.96414 0.29073 0.0
N1035 N 0.83695 0.98206 0.25479 0.0
N1036 N 0.90533 0.94522 0.25437 0.0
C1037 C 0.88891 0.95255 0.21018 0.0
C1038 C 0.85179 0.97271 0.21038 0.0
C1039 C 0.59 0.83798 0.19433 0.0
C1040 C 0.55188 0.84229 0.17547 0.0
C1041 C 0.61685 0.86947 0.19243 0.0
C1042 C 0.60624 0.90633 0.17226 0.0
H1043 H 0.60004 0.80941 0.20743 0.0
H1044 H 0.64677 0.86409 0.20356 0.0
S1045 S 0.50873 0.93494 0.12513 0.0
N1046 N 0.50384 0.88818 0.14164 0.0
N1047 N 0.55439 0.94664 0.13776 0.0
C1048 C 0.56755 0.91188 0.15691 0.0
C1049 C 0.54031 0.88008 0.15871 0.0
C1050 C 0.70631 0.60805 0.19318 0.0
C1051 C 0.70651 0.56886 0.17544 0.0
C1052 C 0.67212 0.63154 0.19146 0.0
C1053 C 0.63698 0.6164 0.17264 0.0
H1054 H 0.73326 0.62155 0.20524 0.0
H1055 H 0.67393 0.6625 0.20152 0.0
S1056 S 0.6203 0.51411 0.12899 0.0
N1057 N 0.66696 0.51478 0.14418 0.0
N1058 N 0.60342 0.55897 0.1408 0.0
C1059 C 0.63612 0.57651 0.15854 0.0
C1060 C 0.67066 0.55271 0.16007 0.0
C1061 C 0.99565 0.69227 0.14298 0.0
C1062 C 0.98646 0.72855 0.16598 0.0
C1063 C 0.96901 0.66086 0.14137 0.0
C1064 C 0.9321 0.66377 0.16331 0.0
H1065 H 1.02328 0.68833 0.12441 0.0
H1066 H 0.97672 0.63461 0.12075 0.0
S1067 S 0.89369 0.75054 0.23088 0.0
N1068 N 0.93781 0.76431 0.21359 0.0
N1069 N 0.8879 0.70493 0.21041 0.0
C1070 C 0.92295 0.69885 0.18847 0.0
C1071 C 0.95009 0.73121 0.18998 0.0
C1072 C 0.7076 0.96084 0.69273 0.0
C1073 C 0.70579 0.99955 0.67331 0.0
C1074 C 0.67499 0.93545 0.69096 0.0
C1075 C 0.63939 0.94813 0.67037 0.0
H1076 H 0.73502 0.94916 0.70644 0.0
H1077 H 0.67846 0.90497 0.70267 0.0
S1078 S 0.61739 0.04801 0.62118 0.0
N1079 N 0.6636 0.0504 0.63807 0.0
N1080 N 0.60311 1.00263 0.63449 0.0
C1081 C 0.63642 0.98745 0.6542 0.0
C1082 C 0.66936 1.0132 0.65584 0.0
C1083 C 0.57325 0.65087 0.65449 0.0
C1084 C 0.61109 0.65292 0.67414 0.0
C1085 C 0.54761 0.68329 0.65636 0.0
C1086 C 0.55876 0.71952 0.67759 0.0
H1087 H 0.56422 0.6247 0.63472 0.0
H1088 H 0.51946 0.68045 0.63869 0.0
S1089 S 0.65374 0.73901 0.73823 0.0
N1090 N 0.65768 0.69287 0.71874 0.0
N1091 N 0.60949 0.75414 0.72257 0.0
C1092 C 0.5956 0.72106 0.70058 0.0
C1093 C 0.62179 0.68773 0.69869 0.0
C1094 C 0.90886 0.59306 0.63201 0.0
C1095 C 0.90987 0.62803 0.65954 0.0
C1096 C 0.87675 0.56765 0.63373 0.0
C1097 C 0.8437 0.57634 0.66253 0.0
H1098 H 0.93252 0.58609 0.6072 0.0
H1099 H 0.87744 0.54166 0.61067 0.0
S1100 S 0.83318 0.66331 0.7444 0.0
N1101 N 0.87644 0.66924 0.71881 0.0
N1102 N 0.81556 0.62157 0.72222 0.0
C1103 C 0.84522 0.61033 0.69237 0.0
C1104 C 0.87837 0.63617 0.69079 0.0
C1105 C 1.00201 0.88584 0.64138 0.0
C1106 C 0.99599 0.85311 0.67245 0.0
C1107 C 0.97481 0.91688 0.63821 0.0
C1108 C 0.9406 0.9171 0.66646 0.0
H1109 H 0.02699 0.88669 0.6172 0.0
H1110 H 0.97962 0.94 0.61145 0.0
S1111 S 0.91234 0.84132 0.75751 0.0
N1112 N 0.95425 0.82489 0.73539 0.0
N1113 N 0.90332 0.88364 0.72923 0.0
C1114 C 0.93534 0.88628 0.70025 0.0
C1115 C 0.96299 0.85425 0.70333 0.0
C1116 C 0.17666 0.05399 0.86038 0.0
C1117 C 0.21009 0.06702 0.83518 0.0
C1118 C 0.14303 0.07756 0.86365 0.0
C1119 C 0.14096 0.11502 0.8414 0.0
H1120 H 0.177 1.02608 0.87994 0.0
H1121 H 0.11907 0.0672 0.88601 0.0
S1122 S 0.21835 0.16167 0.76677 0.0
N1123 N 0.23755 0.11886 0.78395 0.0
N1124 N 0.17392 0.16306 0.79017 0.0
C1125 C 0.17286 0.12738 0.81307 0.0
C1126 C 0.20748 0.10337 0.80987 0.0
C1127 C 0.46499 0.16666 0.8607 0.0
C1128 C 0.42685 0.17096 0.84271 0.0
C1129 C 0.49118 0.19844 0.86046 0.0
C1130 C 0.48037 0.2362 0.84254 0.0
H1131 H 0.474 0.13903 0.87756 0.0
H1132 H 0.51986 0.19358 0.87616 0.0
S1133 S 0.38405 0.26217 0.78894 0.0
N1134 N 0.37967 0.2151 0.80469 0.0
N1135 N 0.42908 0.27503 0.80356 0.0
C1136 C 0.44282 0.24033 0.82207 0.0
C1137 C 0.41599 0.20774 0.82254 0.0
C1138 C 0.3473 0.47697 0.79258 0.0
C1139 C 0.32965 0.4826 0.83843 0.0
C1140 C 0.38388 0.45776 0.78851 0.0
C1141 C 0.40334 0.44278 0.82996 0.0
H1142 H 0.33443 0.49029 0.76036 0.0
H1143 H 0.39838 0.45743 0.75344 0.0
S1144 S 0.36683 0.44509 0.95697 0.0
N1145 N 0.33253 0.46799 0.92511 0.0
N1146 N 0.4005 0.43162 0.91717 0.0
C1147 C 0.38428 0.44529 0.8751 0.0
C1148 C 0.34761 0.46523 0.87941 0.0
C1149 C 0.09672 0.34303 0.8166 0.0
C1150 C 0.058 0.34417 0.83405 0.0
C1151 C 0.1206 0.377 0.81808 0.0
C1152 C 0.1063 0.41324 0.83632 0.0
H1153 H 0.10943 0.31521 0.80484 0.0
H1154 H 0.15112 0.37417 0.80825 0.0
S1155 S 1.00553 0.43355 0.8789 0.0
N1156 N 1.00536 0.38612 0.86439 0.0
N1157 N 0.05017 0.44921 0.86724 0.0
C1158 C 0.06692 0.41539 0.85015 0.0
C1159 C 0.04278 0.38109 0.84893 0.0
loop_
_geom_bond_atom_site_label_1
_geom_bond_atom_site_label_2
_geom_bond_distance
_geom_bond_site_symmetry_2
_ccdc_geom_bond_type
Zn0 N4 2.020 . S
Zn0 O8 2.019 . S
Zn0 N10 2.119 . S
Zn0 O18 1.975 . S
C1 N2 1.334 . S
C1 N5 1.336 . S
N2 C1 1.334 . S
N2 C3 1.334 . S
C3 N2 1.334 . S
C3 N4 1.336 . S
N4 Zn0 2.020 . S
N4 C3 1.336 . S
N4 N5 1.354 . S
N5 C1 1.336 . S
N5 N4 1.354 . S
N5 Zn9 2.020 . S
C6 O7 1.244 . S
C6 O30 1.257 . S
O7 C6 1.244 . S
O8 Zn0 2.019 . S
O8 C28 1.257 . S
Zn9 N5 2.020 . S
Zn9 O16 1.975 . S
Zn9 N25 2.119 . S
Zn9 O30 2.019 . S
N10 Zn0 2.119 . S
N10 C12 1.334 . S
N10 C13 1.328 . S
C11 C12 1.391 . S
C11 N14 1.329 . S
C11 H32 0.930 . S
C12 N10 1.334 . S
C12 C11 1.391 . S
C12 H19 0.930 . S
C13 N10 1.328 . S
C13 C15 1.392 . S
C13 H20 0.930 . S
N14 C11 1.329 . S
N14 C15 1.331 . S
C15 C13 1.392 . S
C15 N14 1.331 . S
O16 Zn9 1.975 . S
O16 C17 1.252 . S
C17 O16 1.252 . S
C17 O18 1.252 . S
O18 Zn0 1.975 . S
O18 C17 1.252 . S
H19 C12 0.930 . S
H20 C13 0.930 . S
C21 C22 1.392 . S
C21 N25 1.328 . S
C21 H27 0.930 . S
C22 C21 1.392 . S
C22 N26 1.331 . S
C23 C24 1.391 . S
C23 N26 1.329 . S
C23 H33 0.930 . S
C24 C23 1.391 . S
C24 N25 1.334 . S
C24 H31 0.930 . S
N25 Zn9 2.119 . S
N25 C21 1.328 . S
N25 C24 1.334 . S
N26 C22 1.331 . S
N26 C23 1.329 . S
H27 C21 0.930 . S
C28 O8 1.257 . S
C28 O29 1.244 . S
O29 C28 1.244 . S
O30 C6 1.257 . S
O30 Zn9 2.019 . S
H31 C24 0.930 . S
H32 C11 0.930 . S
H33 C23 0.930 . S
Zn34 N38 2.020 . S
Zn34 O42 2.019 . S
Zn34 N44 2.119 . S
Zn34 O52 1.975 . S
C35 N36 1.334 . S
C35 N39 1.336 . S
N36 C35 1.334 . S
N36 C37 1.334 . S
C37 N36 1.334 . S
C37 N38 1.336 . S
N38 Zn34 2.020 . S
N38 C37 1.336 . S
N38 N39 1.354 . S
N39 C35 1.336 . S
N39 N38 1.354 . S
N39 Zn43 2.020 . S
C40 O41 1.244 . S
C40 O64 1.257 . S
O41 C40 1.244 . S
O42 Zn34 2.019 . S
O42 C62 1.257 . S
Zn43 N39 2.020 . S
Zn43 O50 1.975 . S
Zn43 N59 2.119 . S
Zn43 O64 2.019 . S
N44 Zn34 2.119 . S
N44 C46 1.334 . S
N44 C47 1.328 . S
C45 C46 1.391 . S
C45 N48 1.329 . S
C45 H66 0.930 . S
C46 N44 1.334 . S
C46 C45 1.391 . S
C46 H53 0.930 . S
C47 N44 1.328 . S
C47 C49 1.392 . S
C47 H54 0.930 . S
N48 C45 1.329 . S
N48 C49 1.331 . S
C49 C47 1.392 . S
C49 N48 1.331 . S
O50 Zn43 1.975 . S
O50 C51 1.252 . S
C51 O50 1.252 . S
C51 O52 1.252 . S
O52 Zn34 1.975 . S
O52 C51 1.252 . S
H53 C46 0.930 . S
H54 C47 0.930 . S
C55 C56 1.392 . S
C55 N59 1.328 . S
C55 H61 0.930 . S
C56 C55 1.392 . S
C56 N60 1.331 . S
C57 C58 1.391 . S
C57 N60 1.329 . S
C57 H67 0.930 . S
C58 C57 1.391 . S
C58 N59 1.334 . S
C58 H65 0.930 . S
N59 Zn43 2.119 . S
N59 C55 1.328 . S
N59 C58 1.334 . S
N60 C56 1.331 . S
N60 C57 1.329 . S
H61 C55 0.930 . S
C62 O42 1.257 . S
C62 O63 1.244 . S
O63 C62 1.244 . S
O64 C40 1.257 . S
O64 Zn43 2.019 . S
H65 C58 0.930 . S
H66 C45 0.930 . S
H67 C57 0.930 . S
Zn68 N72 2.020 . S
Zn68 O76 2.019 . S
Zn68 N78 2.119 . S
Zn68 O86 1.975 1_655 S
C69 N70 1.334 . S
C69 N73 1.336 . S
N70 C69 1.334 . S
N70 C71 1.334 . S
C71 N70 1.334 . S
C71 N72 1.336 . S
N72 Zn68 2.020 . S
N72 C71 1.336 . S
N72 N73 1.354 . S
N73 C69 1.336 . S
N73 N72 1.354 . S
N73 Zn77 2.031 . S
C74 O75 1.244 . S
C74 O98 1.257 1_655 S
O75 C74 1.244 . S
O76 Zn68 2.019 . S
O76 C96 1.257 . S
Zn77 N73 2.031 . S
Zn77 O84 1.971 1_655 S
Zn77 N93 2.108 1_655 S
Zn77 O98 2.014 1_655 S
N78 Zn68 2.119 . S
N78 C80 1.334 . S
N78 C81 1.328 . S
C79 C80 1.391 . S
C79 N82 1.329 . S
C79 H100 0.930 . S
C80 N78 1.334 . S
C80 C79 1.391 . S
C80 H87 0.930 . S
C81 N78 1.328 . S
C81 C83 1.392 . S
C81 H88 0.930 . S
N82 C79 1.329 . S
N82 C83 1.331 . S
C83 C81 1.392 . S
C83 N82 1.331 . S
O84 Zn77 1.971 1_455 S
O84 C85 1.252 . S
C85 O84 1.252 . S
C85 O86 1.252 . S
O86 Zn68 1.975 1_455 S
O86 C85 1.252 . S
H87 C80 0.930 . S
H88 C81 0.930 . S
C89 C90 1.392 . S
C89 N93 1.328 . S
C89 H95 0.930 . S
C90 C89 1.392 . S
C90 N94 1.331 . S
C91 C92 1.391 . S
C91 N94 1.329 . S
C91 H101 0.930 . S
C92 C91 1.391 . S
C92 N93 1.334 . S
C92 H99 0.930 . S
N93 Zn77 2.108 1_455 S
N93 C89 1.328 . S
N93 C92 1.334 . S
N94 C90 1.331 . S
N94 C91 1.329 . S
H95 C89 0.930 . S
C96 O76 1.257 . S
C96 O97 1.244 . S
O97 C96 1.244 . S
O98 C74 1.257 1_455 S
O98 Zn77 2.014 1_455 S
H99 C92 0.930 . S
H100 C79 0.930 . S
H101 C91 0.930 . S
Zn102 N106 2.020 . S
Zn102 O110 2.019 . S
Zn102 N112 2.119 . S
Zn102 O120 1.975 1_565 S
C103 N104 1.334 . S
C103 N107 1.336 . S
N104 C103 1.334 . S
N104 C105 1.334 . S
C105 N104 1.334 . S
C105 N106 1.336 . S
N106 Zn102 2.020 . S
N106 C105 1.336 . S
N106 N107 1.354 . S
N107 C103 1.336 . S
N107 N106 1.354 . S
N107 Zn111 2.031 . S
C108 O109 1.244 . S
C108 O132 1.257 1_565 S
O109 C108 1.244 . S
O110 Zn102 2.019 . S
O110 C130 1.257 . S
Zn111 N107 2.031 . S
Zn111 O118 1.971 1_565 S
Zn111 N127 2.108 1_565 S
Zn111 O132 2.014 1_565 S
N112 Zn102 2.119 . S
N112 C114 1.334 . S
N112 C115 1.328 . S
C113 C114 1.391 . S
C113 N116 1.329 . S
C113 H134 0.930 . S
C114 N112 1.334 . S
C114 C113 1.391 . S
C114 H121 0.930 . S
C115 N112 1.328 . S
C115 C117 1.392 . S
C115 H122 0.930 . S
N116 C113 1.329 . S
N116 C117 1.331 . S
C117 C115 1.392 . S
C117 N116 1.331 . S
O118 Zn111 1.971 1_545 S
O118 C119 1.252 . S
C119 O118 1.252 . S
C119 O120 1.252 . S
O120 Zn102 1.975 1_545 S
O120 C119 1.252 . S
H121 C114 0.930 . S
H122 C115 0.930 . S
C123 C124 1.392 . S
C123 N127 1.328 . S
C123 H129 0.930 . S
C124 C123 1.392 . S
C124 N128 1.331 . S
C125 C126 1.391 . S
C125 N128 1.329 . S
C125 H135 0.930 . S
C126 C125 1.391 . S
C126 N127 1.334 . S
C126 H133 0.930 . S
N127 Zn111 2.108 1_545 S
N127 C123 1.328 . S
N127 C126 1.334 . S
N128 C124 1.331 . S
N128 C125 1.329 . S
H129 C123 0.930 . S
C130 O110 1.257 . S
C130 O131 1.244 . S
O131 C130 1.244 . S
O132 C108 1.257 1_545 S
O132 Zn111 2.014 1_545 S
H133 C126 0.930 . S
H134 C113 0.930 . S
H135 C125 0.930 . S
Zn136 N140 2.031 . S
Zn136 O144 2.014 1_455 S
Zn136 N146 2.108 1_455 S
Zn136 O154 1.971 1_455 S
C137 N138 1.334 . S
C137 N141 1.336 . S
N138 C137 1.334 . S
N138 C139 1.334 . S
C139 N138 1.334 . S
C139 N140 1.336 . S
N140 Zn136 2.031 . S
N140 C139 1.336 . S
N140 N141 1.354 . S
N141 C137 1.336 . S
N141 N140 1.354 . S
N141 Zn145 2.020 . S
C142 O143 1.244 1_556 S
C142 O166 1.257 . S
O143 C142 1.244 1_554 S
O144 Zn136 2.014 1_655 S
O144 C164 1.257 1_655 S
Zn145 N141 2.020 . S
Zn145 O152 1.975 1_455 S
Zn145 N161 2.119 . S
Zn145 O166 2.019 1_554 S
N146 Zn136 2.108 1_655 S
N146 C148 1.334 . S
N146 C149 1.328 . S
C147 C148 1.391 . S
C147 N150 1.329 . S
C147 H168 0.930 . S
C148 N146 1.334 . S
C148 C147 1.391 . S
C148 H155 0.930 . S
C149 N146 1.328 . S
C149 C151 1.392 . S
C149 H156 0.930 . S
N150 C147 1.329 . S
N150 C151 1.331 . S
C151 C149 1.392 . S
C151 N150 1.331 . S
O152 Zn145 1.975 1_655 S
O152 C153 1.252 . S
C153 O152 1.252 . S
C153 O154 1.252 . S
O154 Zn136 1.971 1_655 S
O154 C153 1.252 . S
H155 C148 0.930 . S
H156 C149 0.930 . S
C157 C158 1.392 . S
C157 N161 1.328 . S
C157 H163 0.930 . S
C158 C157 1.392 . S
C158 N162 1.331 . S
C159 C160 1.391 . S
C159 N162 1.329 . S
C159 H169 0.930 . S
C160 C159 1.391 . S
C160 N161 1.334 . S
C160 H167 0.930 . S
N161 Zn145 2.119 . S
N161 C157 1.328 . S
N161 C160 1.334 . S
N162 C158 1.331 . S
N162 C159 1.329 . S
H163 C157 0.930 . S
C164 O144 1.257 1_455 S
C164 O165 1.244 . S
O165 C164 1.244 . S
O166 C142 1.257 . S
O166 Zn145 2.019 1_556 S
H167 C160 0.930 . S
H168 C147 0.930 . S
H169 C159 0.930 . S
Zn170 N174 2.031 . S
Zn170 O178 2.014 1_545 S
Zn170 N180 2.108 1_545 S
Zn170 O188 1.971 1_545 S
C171 N172 1.334 . S
C171 N175 1.336 . S
N172 C171 1.334 . S
N172 C173 1.334 . S
C173 N172 1.334 . S
C173 N174 1.336 . S
N174 Zn170 2.031 . S
N174 C173 1.336 . S
N174 N175 1.354 . S
N175 C171 1.336 . S
N175 N174 1.354 . S
N175 Zn179 2.020 . S
C176 O177 1.244 1_556 S
C176 O200 1.257 . S
O177 C176 1.244 1_554 S
O178 Zn170 2.014 1_565 S
O178 C198 1.257 1_565 S
Zn179 N175 2.020 . S
Zn179 O186 1.975 1_545 S
Zn179 N195 2.119 . S
Zn179 O200 2.019 1_554 S
N180 Zn170 2.108 1_565 S
N180 C182 1.334 . S
N180 C183 1.328 . S
C181 C182 1.391 . S
C181 N184 1.329 . S
C181 H202 0.930 . S
C182 N180 1.334 . S
C182 C181 1.391 . S
C182 H189 0.930 . S
C183 N180 1.328 . S
C183 C185 1.392 . S
C183 H190 0.930 . S
N184 C181 1.329 . S
N184 C185 1.331 . S
C185 C183 1.392 . S
C185 N184 1.331 . S
O186 Zn179 1.975 1_565 S
O186 C187 1.252 . S
C187 O186 1.252 . S
C187 O188 1.252 . S
O188 Zn170 1.971 1_565 S
O188 C187 1.252 . S
H189 C182 0.930 . S
H190 C183 0.930 . S
C191 C192 1.392 . S
C191 N195 1.328 . S
C191 H197 0.930 . S
C192 C191 1.392 . S
C192 N196 1.331 . S
C193 C194 1.391 . S
C193 N196 1.329 . S
C193 H203 0.930 . S
C194 C193 1.391 . S
C194 N195 1.334 . S
C194 H201 0.930 . S
N195 Zn179 2.119 . S
N195 C191 1.328 . S
N195 C194 1.334 . S
N196 C192 1.331 . S
N196 C193 1.329 . S
H197 C191 0.930 . S
C198 O178 1.257 1_545 S
C198 O199 1.244 . S
O199 C198 1.244 . S
O200 C176 1.257 . S
O200 Zn179 2.019 1_556 S
H201 C194 0.930 . S
H202 C181 0.930 . S
H203 C193 0.930 . S
Zn204 N208 2.020 . S
Zn204 O212 2.019 . S
Zn204 N214 2.119 . S
Zn204 O222 1.975 . S
C205 N206 1.334 . S
C205 N209 1.336 . S
N206 C205 1.334 . S
N206 C207 1.334 . S
C207 N206 1.334 . S
C207 N208 1.336 . S
N208 Zn204 2.020 . S
N208 C207 1.336 . S
N208 N209 1.354 . S
N209 C205 1.336 . S
N209 N208 1.354 . S
N209 Zn213 2.020 . S
C210 O211 1.244 1_556 S
C210 O234 1.257 . S
O211 C210 1.244 1_554 S
O212 Zn204 2.019 . S
O212 C232 1.257 . S
Zn213 N209 2.020 . S
Zn213 O220 1.975 . S
Zn213 N229 2.119 . S
Zn213 O234 2.019 1_554 S
N214 Zn204 2.119 . S
N214 C216 1.334 . S
N214 C217 1.328 . S
C215 C216 1.391 . S
C215 N218 1.329 . S
C215 H236 0.930 . S
C216 N214 1.334 . S
C216 C215 1.391 . S
C216 H223 0.930 . S
C217 N214 1.328 . S
C217 C219 1.392 . S
C217 H224 0.930 . S
N218 C215 1.329 . S
N218 C219 1.331 . S
C219 C217 1.392 . S
C219 N218 1.331 . S
O220 Zn213 1.975 . S
O220 C221 1.252 . S
C221 O220 1.252 . S
C221 O222 1.252 . S
O222 Zn204 1.975 . S
O222 C221 1.252 . S
H223 C216 0.930 . S
H224 C217 0.930 . S
C225 C226 1.392 . S
C225 N229 1.328 . S
C225 H231 0.930 . S
C226 C225 1.392 . S
C226 N230 1.331 . S
C227 C228 1.391 . S
C227 N230 1.329 . S
C227 H237 0.930 . S
C228 C227 1.391 . S
C228 N229 1.334 . S
C228 H235 0.930 . S
N229 Zn213 2.119 . S
N229 C225 1.328 . S
N229 C228 1.334 . S
N230 C226 1.331 . S
N230 C227 1.329 . S
H231 C225 0.930 . S
C232 O212 1.257 . S
C232 O233 1.244 . S
O233 C232 1.244 . S
O234 C210 1.257 . S
O234 Zn213 2.019 1_556 S
H235 C228 0.930 . S
H236 C215 0.930 . S
H237 C227 0.930 . S
Zn238 N242 2.020 . S
Zn238 O246 2.019 . S
Zn238 N248 2.119 . S
Zn238 O256 1.975 . S
C239 N240 1.334 . S
C239 N243 1.336 . S
N240 C239 1.334 . S
N240 C241 1.334 . S
C241 N240 1.334 . S
C241 N242 1.336 . S
N242 Zn238 2.020 . S
N242 C241 1.336 . S
N242 N243 1.354 . S
N243 C239 1.336 . S
N243 N242 1.354 . S
N243 Zn247 2.020 . S
C244 O245 1.244 1_556 S
C244 O268 1.257 . S
O245 C244 1.244 1_554 S
O246 Zn238 2.019 . S
O246 C266 1.257 . S
Zn247 N243 2.020 . S
Zn247 O254 1.975 . S
Zn247 N263 2.119 . S
Zn247 O268 2.019 1_554 S
N248 Zn238 2.119 . S
N248 C250 1.334 . S
N248 C251 1.328 . S
C249 C250 1.391 . S
C249 N252 1.329 . S
C249 H270 0.930 . S
C250 N248 1.334 . S
C250 C249 1.391 . S
C250 H257 0.930 . S
C251 N248 1.328 . S
C251 C253 1.392 . S
C251 H258 0.930 . S
N252 C249 1.329 . S
N252 C253 1.331 . S
C253 C251 1.392 . S
C253 N252 1.331 . S
O254 Zn247 1.975 . S
O254 C255 1.252 . S
C255 O254 1.252 . S
C255 O256 1.252 . S
O256 Zn238 1.975 . S
O256 C255 1.252 . S
H257 C250 0.930 . S
H258 C251 0.930 . S
C259 C260 1.392 . S
C259 N263 1.328 . S
C259 H265 0.930 . S
C260 C259 1.392 . S
C260 N264 1.331 . S
C261 C262 1.391 . S
C261 N264 1.329 . S
C261 H271 0.930 . S
C262 C261 1.391 . S
C262 N263 1.334 . S
C262 H269 0.930 . S
N263 Zn247 2.119 . S
N263 C259 1.328 . S
N263 C262 1.334 . S
N264 C260 1.331 . S
N264 C261 1.329 . S
H265 C259 0.930 . S
C266 O246 1.257 . S
C266 O267 1.244 . S
O267 C266 1.244 . S
O268 C244 1.257 . S
O268 Zn247 2.019 1_556 S
H269 C262 0.930 . S
H270 C249 0.930 . S
H271 C261 0.930 . S
Zn272 N276 2.020 . S
Zn272 O280 2.019 . S
Zn272 N282 2.119 . S
Zn272 O290 1.975 . S
C273 N274 1.334 . S
C273 N277 1.336 . S
N274 C273 1.334 . S
N274 C275 1.334 . S
C275 N274 1.334 . S
C275 N276 1.336 . S
N276 Zn272 2.020 . S
N276 C275 1.336 . S
N276 N277 1.354 . S
N277 C273 1.336 . S
N277 N276 1.354 . S
N277 Zn281 2.020 . S
C278 O279 1.244 . S
C278 O302 1.257 . S
O279 C278 1.244 . S
O280 Zn272 2.019 . S
O280 C300 1.257 . S
Zn281 N277 2.020 . S
Zn281 O288 1.975 . S
Zn281 N297 2.119 . S
Zn281 O302 2.019 . S
N282 Zn272 2.119 . S
N282 C284 1.334 . S
N282 C285 1.328 . S
C283 C284 1.391 . S
C283 N286 1.329 . S
C283 H304 0.930 . S
C284 N282 1.334 . S
C284 C283 1.391 . S
C284 H291 0.930 . S
C285 N282 1.328 . S
C285 C287 1.392 . S
C285 H292 0.930 . S
N286 C283 1.329 . S
N286 C287 1.331 . S
C287 C285 1.392 . S
C287 N286 1.331 . S
O288 Zn281 1.975 . S
O288 C289 1.252 . S
C289 O288 1.252 . S
C289 O290 1.252 . S
O290 Zn272 1.975 . S
O290 C289 1.252 . S
H291 C284 0.930 . S
H292 C285 0.930 . S
C293 C294 1.392 . S
C293 N297 1.328 . S
C293 H299 0.930 . S
C294 C293 1.392 . S
C294 N298 1.331 . S
C295 C296 1.391 . S
C295 N298 1.329 . S
C295 H305 0.930 . S
C296 C295 1.391 . S
C296 N297 1.334 . S
C296 H303 0.930 . S
N297 Zn281 2.119 . S
N297 C293 1.328 . S
N297 C296 1.334 . S
N298 C294 1.331 . S
N298 C295 1.329 . S
H299 C293 0.930 . S
C300 O280 1.257 . S
C300 O301 1.244 . S
O301 C300 1.244 . S
O302 C278 1.257 . S
O302 Zn281 2.019 . S
H303 C296 0.930 . S
H304 C283 0.930 . S
H305 C295 0.930 . S
Zn306 N310 2.020 . S
Zn306 O314 2.019 . S
Zn306 N316 2.119 . S
Zn306 O324 1.975 . S
C307 N308 1.334 . S
C307 N311 1.336 . S
N308 C307 1.334 . S
N308 C309 1.334 . S
C309 N308 1.334 . S
C309 N310 1.336 . S
N310 Zn306 2.020 . S
N310 C309 1.336 . S
N310 N311 1.354 . S
N311 C307 1.336 . S
N311 N310 1.354 . S
N311 Zn315 2.020 . S
C312 O313 1.244 . S
C312 O336 1.257 . S
O313 C312 1.244 . S
O314 Zn306 2.019 . S
O314 C334 1.257 . S
Zn315 N311 2.020 . S
Zn315 O322 1.975 . S
Zn315 N331 2.119 . S
Zn315 O336 2.019 . S
N316 Zn306 2.119 . S
N316 C318 1.334 . S
N316 C319 1.328 . S
C317 C318 1.391 . S
C317 N320 1.329 . S
C317 H338 0.930 . S
C318 N316 1.334 . S
C318 C317 1.391 . S
C318 H325 0.930 . S
C319 N316 1.328 . S
C319 C321 1.392 . S
C319 H326 0.930 . S
N320 C317 1.329 . S
N320 C321 1.331 . S
C321 C319 1.392 . S
C321 N320 1.331 . S
O322 Zn315 1.975 . S
O322 C323 1.252 . S
C323 O322 1.252 . S
C323 O324 1.252 . S
O324 Zn306 1.975 . S
O324 C323 1.252 . S
H325 C318 0.930 . S
H326 C319 0.930 . S
C327 C328 1.392 . S
C327 N331 1.328 . S
C327 H333 0.930 . S
C328 C327 1.392 . S
C328 N332 1.331 . S
C329 C330 1.391 . S
C329 N332 1.329 . S
C329 H339 0.930 . S
C330 C329 1.391 . S
C330 N331 1.334 . S
C330 H337 0.930 . S
N331 Zn315 2.119 . S
N331 C327 1.328 . S
N331 C330 1.334 . S
N332 C328 1.331 . S
N332 C329 1.329 . S
H333 C327 0.930 . S
C334 O314 1.257 . S
C334 O335 1.244 . S
O335 C334 1.244 . S
O336 C312 1.257 . S
O336 Zn315 2.019 . S
H337 C330 0.930 . S
H338 C317 0.930 . S
H339 C329 0.930 . S
Zn340 N344 2.020 . S
Zn340 O348 2.019 . S
Zn340 N350 2.119 . S
Zn340 O358 1.975 1_455 S
C341 N342 1.334 . S
C341 N345 1.336 . S
N342 C341 1.334 . S
N342 C343 1.334 . S
C343 N342 1.334 . S
C343 N344 1.336 . S
N344 Zn340 2.020 . S
N344 C343 1.336 . S
N344 N345 1.354 . S
N345 C341 1.336 . S
N345 N344 1.354 . S
N345 Zn349 2.031 . S
C346 O347 1.244 . S
C346 O370 1.257 1_455 S
O347 C346 1.244 . S
O348 Zn340 2.019 . S
O348 C368 1.257 . S
Zn349 N345 2.031 . S
Zn349 O356 1.971 1_455 S
Zn349 N365 2.108 1_455 S
Zn349 O370 2.014 1_455 S
N350 Zn340 2.119 . S
N350 C352 1.334 . S
N350 C353 1.328 . S
C351 C352 1.391 . S
C351 N354 1.329 . S
C351 H372 0.930 . S
C352 N350 1.334 . S
C352 C351 1.391 . S
C352 H359 0.930 . S
C353 N350 1.328 . S
C353 C355 1.392 . S
C353 H360 0.930 . S
N354 C351 1.329 . S
N354 C355 1.331 . S
C355 C353 1.392 . S
C355 N354 1.331 . S
O356 Zn349 1.971 1_655 S
O356 C357 1.252 . S
C357 O356 1.252 . S
C357 O358 1.252 . S
O358 Zn340 1.975 1_655 S
O358 C357 1.252 . S
H359 C352 0.930 . S
H360 C353 0.930 . S
C361 C362 1.392 . S
C361 N365 1.328 . S
C361 H367 0.930 . S
C362 C361 1.392 . S
C362 N366 1.331 . S
C363 C364 1.391 . S
C363 N366 1.329 . S
C363 H373 0.930 . S
C364 C363 1.391 . S
C364 N365 1.334 . S
C364 H371 0.930 . S
N365 Zn349 2.108 1_655 S
N365 C361 1.328 . S
N365 C364 1.334 . S
N366 C362 1.331 . S
N366 C363 1.329 . S
H367 C361 0.930 . S
C368 O348 1.257 . S
C368 O369 1.244 . S
O369 C368 1.244 . S
O370 C346 1.257 1_655 S
O370 Zn349 2.014 1_655 S
H371 C364 0.930 . S
H372 C351 0.930 . S
H373 C363 0.930 . S
Zn374 N378 2.031 . S
Zn374 O382 2.014 1_545 S
Zn374 N384 2.108 1_545 S
Zn374 O392 1.971 1_545 S
C375 N376 1.334 . S
C375 N379 1.336 . S
N376 C375 1.334 . S
N376 C377 1.334 . S
C377 N376 1.334 . S
C377 N378 1.336 . S
N378 Zn374 2.031 . S
N378 C377 1.336 . S
N378 N379 1.354 . S
N379 C375 1.336 . S
N379 N378 1.354 . S
N379 Zn383 2.020 . S
C380 O381 1.244 . S
C380 O404 1.257 . S
O381 C380 1.244 . S
O382 Zn374 2.014 1_565 S
O382 C402 1.257 1_565 S
Zn383 N379 2.020 . S
Zn383 O390 1.975 1_545 S
Zn383 N399 2.119 . S
Zn383 O404 2.019 . S
N384 Zn374 2.108 1_565 S
N384 C386 1.334 . S
N384 C387 1.328 . S
C385 C386 1.391 . S
C385 N388 1.329 . S
C385 H406 0.930 . S
C386 N384 1.334 . S
C386 C385 1.391 . S
C386 H393 0.930 . S
C387 N384 1.328 . S
C387 C389 1.392 . S
C387 H394 0.930 . S
N388 C385 1.329 . S
N388 C389 1.331 . S
C389 C387 1.392 . S
C389 N388 1.331 . S
O390 Zn383 1.975 1_565 S
O390 C391 1.252 . S
C391 O390 1.252 . S
C391 O392 1.252 . S
O392 Zn374 1.971 1_565 S
O392 C391 1.252 . S
H393 C386 0.930 . S
H394 C387 0.930 . S
C395 C396 1.392 . S
C395 N399 1.328 . S
C395 H401 0.930 . S
C396 C395 1.392 . S
C396 N400 1.331 . S
C397 C398 1.391 . S
C397 N400 1.329 . S
C397 H407 0.930 . S
C398 C397 1.391 . S
C398 N399 1.334 . S
C398 H405 0.930 . S
N399 Zn383 2.119 . S
N399 C395 1.328 . S
N399 C398 1.334 . S
N400 C396 1.331 . S
N400 C397 1.329 . S
H401 C395 0.930 . S
C402 O382 1.257 1_545 S
C402 O403 1.244 . S
O403 C402 1.244 . S
O404 C380 1.257 . S
O404 Zn383 2.019 . S
H405 C398 0.930 . S
H406 C385 0.930 . S
H407 C397 0.930 . S
Zn408 N412 2.031 . S
Zn408 O416 2.014 1_655 S
Zn408 N418 2.108 1_655 S
Zn408 O426 1.971 1_655 S
C409 N410 1.334 . S
C409 N413 1.336 . S
N410 C409 1.334 . S
N410 C411 1.334 . S
C411 N410 1.334 . S
C411 N412 1.336 . S
N412 Zn408 2.031 . S
N412 C411 1.336 . S
N412 N413 1.354 . S
N413 C409 1.336 . S
N413 N412 1.354 . S
N413 Zn417 2.020 . S
C414 O415 1.244 1_554 S
C414 O438 1.257 . S
O415 C414 1.244 1_556 S
O416 Zn408 2.014 1_455 S
O416 C436 1.257 1_455 S
Zn417 N413 2.020 . S
Zn417 O424 1.975 1_655 S
Zn417 N433 2.119 . S
Zn417 O438 2.019 1_556 S
N418 Zn408 2.108 1_455 S
N418 C420 1.334 . S
N418 C421 1.328 . S
C419 C420 1.391 . S
C419 N422 1.329 . S
C419 H440 0.930 . S
C420 N418 1.334 . S
C420 C419 1.391 . S
C420 H427 0.930 . S
C421 N418 1.328 . S
C421 C423 1.392 . S
C421 H428 0.930 . S
N422 C419 1.329 . S
N422 C423 1.331 . S
C423 C421 1.392 . S
C423 N422 1.331 . S
O424 Zn417 1.975 1_455 S
O424 C425 1.252 . S
C425 O424 1.252 . S
C425 O426 1.252 . S
O426 Zn408 1.971 1_455 S
O426 C425 1.252 . S
H427 C420 0.930 . S
H428 C421 0.930 . S
C429 C430 1.392 . S
C429 N433 1.328 . S
C429 H435 0.930 . S
C430 C429 1.392 . S
C430 N434 1.331 . S
C431 C432 1.391 . S
C431 N434 1.329 . S
C431 H441 0.930 . S
C432 C431 1.391 . S
C432 N433 1.334 . S
C432 H439 0.930 . S
N433 Zn417 2.119 . S
N433 C429 1.328 . S
N433 C432 1.334 . S
N434 C430 1.331 . S
N434 C431 1.329 . S
H435 C429 0.930 . S
C436 O416 1.257 1_655 S
C436 O437 1.244 . S
O437 C436 1.244 . S
O438 C414 1.257 . S
O438 Zn417 2.019 1_554 S
H439 C432 0.930 . S
H440 C419 0.930 . S
H441 C431 0.930 . S
Zn442 N446 2.031 . S
Zn442 O450 2.014 1_565 S
Zn442 N452 2.108 1_565 S
Zn442 O460 1.971 1_565 S
C443 N444 1.334 . S
C443 N447 1.336 . S
N444 C443 1.334 . S
N444 C445 1.334 . S
C445 N444 1.334 . S
C445 N446 1.336 . S
N446 Zn442 2.031 . S
N446 C445 1.336 . S
N446 N447 1.354 . S
N447 C443 1.336 . S
N447 N446 1.354 . S
N447 Zn451 2.020 . S
C448 O449 1.244 1_554 S
C448 O472 1.257 . S
O449 C448 1.244 1_556 S
O450 Zn442 2.014 1_545 S
O450 C470 1.257 1_545 S
Zn451 N447 2.020 . S
Zn451 O458 1.975 1_565 S
Zn451 N467 2.119 . S
Zn451 O472 2.019 1_556 S
N452 Zn442 2.108 1_545 S
N452 C454 1.334 . S
N452 C455 1.328 . S
C453 C454 1.391 . S
C453 N456 1.329 . S
C453 H474 0.930 . S
C454 N452 1.334 . S
C454 C453 1.391 . S
C454 H461 0.930 . S
C455 N452 1.328 . S
C455 C457 1.392 . S
C455 H462 0.930 . S
N456 C453 1.329 . S
N456 C457 1.331 . S
C457 C455 1.392 . S
C457 N456 1.331 . S
O458 Zn451 1.975 1_545 S
O458 C459 1.252 . S
C459 O458 1.252 . S
C459 O460 1.252 . S
O460 Zn442 1.971 1_545 S
O460 C459 1.252 . S
H461 C454 0.930 . S
H462 C455 0.930 . S
C463 C464 1.392 . S
C463 N467 1.328 . S
C463 H469 0.930 . S
C464 C463 1.392 . S
C464 N468 1.331 . S
C465 C466 1.391 . S
C465 N468 1.329 . S
C465 H475 0.930 . S
C466 C465 1.391 . S
C466 N467 1.334 . S
C466 H473 0.930 . S
N467 Zn451 2.119 . S
N467 C463 1.328 . S
N467 C466 1.334 . S
N468 C464 1.331 . S
N468 C465 1.329 . S
H469 C463 0.930 . S
C470 O450 1.257 1_565 S
C470 O471 1.244 . S
O471 C470 1.244 . S
O472 C448 1.257 . S
O472 Zn451 2.019 1_554 S
H473 C466 0.930 . S
H474 C453 0.930 . S
H475 C465 0.930 . S
Zn476 N480 2.020 . S
Zn476 O484 2.019 1_556 S
Zn476 N486 2.119 . S
Zn476 O494 1.975 . S
C477 N478 1.334 . S
C477 N481 1.336 . S
N478 C477 1.334 . S
N478 C479 1.334 . S
C479 N478 1.334 . S
C479 N480 1.336 . S
N480 Zn476 2.020 . S
N480 C479 1.336 . S
N480 N481 1.354 . S
N481 C477 1.336 . S
N481 N480 1.354 . S
N481 Zn485 2.020 . S
C482 O483 1.244 . S
C482 O506 1.257 . S
O483 C482 1.244 . S
O484 Zn476 2.019 1_554 S
O484 C504 1.257 . S
Zn485 N481 2.020 . S
Zn485 O492 1.975 . S
Zn485 N501 2.119 . S
Zn485 O506 2.019 . S
N486 Zn476 2.119 . S
N486 C488 1.334 . S
N486 C489 1.328 . S
C487 C488 1.391 . S
C487 N490 1.329 . S
C487 H508 0.930 . S
C488 N486 1.334 . S
C488 C487 1.391 . S
C488 H495 0.930 . S
C489 N486 1.328 . S
C489 C491 1.392 . S
C489 H496 0.930 . S
N490 C487 1.329 . S
N490 C491 1.331 . S
C491 C489 1.392 . S
C491 N490 1.331 . S
O492 Zn485 1.975 . S
O492 C493 1.252 . S
C493 O492 1.252 . S
C493 O494 1.252 . S
O494 Zn476 1.975 . S
O494 C493 1.252 . S
H495 C488 0.930 . S
H496 C489 0.930 . S
C497 C498 1.392 . S
C497 N501 1.328 . S
C497 H503 0.930 . S
C498 C497 1.392 . S
C498 N502 1.331 . S
C499 C500 1.391 . S
C499 N502 1.329 . S
C499 H509 0.930 . S
C500 C499 1.391 . S
C500 N501 1.334 . S
C500 H507 0.930 . S
N501 Zn485 2.119 . S
N501 C497 1.328 . S
N501 C500 1.334 . S
N502 C498 1.331 . S
N502 C499 1.329 . S
H503 C497 0.930 . S
C504 O484 1.257 . S
C504 O505 1.244 1_554 S
O505 C504 1.244 1_556 S
O506 C482 1.257 . S
O506 Zn485 2.019 . S
H507 C500 0.930 . S
H508 C487 0.930 . S
H509 C499 0.930 . S
Zn510 N514 2.020 . S
Zn510 O518 2.019 . S
Zn510 N520 2.119 . S
Zn510 O528 1.975 . S
C511 N512 1.334 . S
C511 N515 1.336 . S
N512 C511 1.334 . S
N512 C513 1.334 . S
C513 N512 1.334 . S
C513 N514 1.336 . S
N514 Zn510 2.020 . S
N514 C513 1.336 . S
N514 N515 1.354 . S
N515 C511 1.336 . S
N515 N514 1.354 . S
N515 Zn519 2.020 . S
C516 O517 1.244 1_554 S
C516 O540 1.257 . S
O517 C516 1.244 1_556 S
O518 Zn510 2.019 . S
O518 C538 1.257 . S
Zn519 N515 2.020 . S
Zn519 O526 1.975 . S
Zn519 N535 2.119 . S
Zn519 O540 2.019 1_556 S
N520 Zn510 2.119 . S
N520 C522 1.334 . S
N520 C523 1.328 . S
C521 C522 1.391 . S
C521 N524 1.329 . S
C521 H542 0.930 . S
C522 N520 1.334 . S
C522 C521 1.391 . S
C522 H529 0.930 . S
C523 N520 1.328 . S
C523 C525 1.392 . S
C523 H530 0.930 . S
N524 C521 1.329 . S
N524 C525 1.331 . S
C525 C523 1.392 . S
C525 N524 1.331 . S
O526 Zn519 1.975 . S
O526 C527 1.252 . S
C527 O526 1.252 . S
C527 O528 1.252 . S
O528 Zn510 1.975 . S
O528 C527 1.252 . S
H529 C522 0.930 . S
H530 C523 0.930 . S
C531 C532 1.392 . S
C531 N535 1.328 . S
C531 H537 0.930 . S
C532 C531 1.392 . S
C532 N536 1.331 . S
C533 C534 1.391 . S
C533 N536 1.329 . S
C533 H543 0.930 . S
C534 C533 1.391 . S
C534 N535 1.334 . S
C534 H541 0.930 . S
N535 Zn519 2.119 . S
N535 C531 1.328 . S
N535 C534 1.334 . S
N536 C532 1.331 . S
N536 C533 1.329 . S
H537 C531 0.930 . S
C538 O518 1.257 . S
C538 O539 1.244 . S
O539 C538 1.244 . S
O540 C516 1.257 . S
O540 Zn519 2.019 1_554 S
H541 C534 0.930 . S
H542 C521 0.930 . S
H543 C533 0.930 . S
C544 C545 1.369 . S
C544 C546 1.419 . S
C544 H548 0.930 . S
C545 C544 1.369 . S
C545 C554 1.429 . S
C546 C544 1.419 . S
C546 C547 1.363 . S
C546 H549 0.929 . S
C547 C546 1.363 . S
C547 C553 1.428 . S
H548 C544 0.930 . S
H549 C546 0.929 . S
S550 N551 1.613 . S
S550 N552 1.610 . S
N551 S550 1.613 . S
N551 C554 1.350 . S
N552 S550 1.610 . S
N552 C553 1.351 . S
C553 C547 1.428 . S
C553 N552 1.351 . S
C553 C554 1.434 . S
C554 C545 1.429 . S
C554 N551 1.350 . S
C554 C553 1.434 . S
C555 C556 1.369 . S
C555 C557 1.419 . S
C555 H559 0.930 . S
C556 C555 1.369 . S
C556 C565 1.429 . S
C557 C555 1.419 . S
C557 C558 1.363 . S
C557 H560 0.929 . S
C558 C557 1.363 . S
C558 C564 1.428 . S
H559 C555 0.930 . S
H560 C557 0.929 . S
S561 N562 1.613 . S
S561 N563 1.610 . S
N562 S561 1.613 . S
N562 C565 1.350 . S
N563 S561 1.610 . S
N563 C564 1.351 . S
C564 C558 1.428 . S
C564 N563 1.351 . S
C564 C565 1.434 . S
C565 C556 1.429 . S
C565 N562 1.350 . S
C565 C564 1.434 . S
C566 C567 1.369 . S
C566 C568 1.419 . S
C566 H570 0.930 . S
C567 C566 1.369 . S
C567 C576 1.429 . S
C568 C566 1.419 . S
C568 C569 1.363 . S
C568 H571 0.929 . S
C569 C568 1.363 . S
C569 C575 1.428 . S
H570 C566 0.930 . S
H571 C568 0.929 . S
S572 N573 1.613 . S
S572 N574 1.610 . S
N573 S572 1.613 . S
N573 C576 1.350 . S
N574 S572 1.610 . S
N574 C575 1.351 . S
C575 C569 1.428 . S
C575 N574 1.351 . S
C575 C576 1.434 . S
C576 C567 1.429 . S
C576 N573 1.350 . S
C576 C575 1.434 . S
C577 C578 1.369 . S
C577 C579 1.419 . S
C577 H581 0.930 . S
C578 C577 1.369 . S
C578 C587 1.429 . S
C579 C577 1.419 . S
C579 C580 1.363 . S
C579 H582 0.929 . S
C580 C579 1.363 . S
C580 C586 1.428 . S
H581 C577 0.930 . S
H582 C579 0.929 . S
S583 N584 1.613 . S
S583 N585 1.610 . S
N584 S583 1.613 . S
N584 C587 1.350 . S
N585 S583 1.610 . S
N585 C586 1.351 . S
C586 C580 1.428 . S
C586 N585 1.351 . S
C586 C587 1.434 . S
C587 C578 1.429 . S
C587 N584 1.350 . S
C587 C586 1.434 . S
C588 C589 1.369 . S
C588 C590 1.419 . S
C588 H592 0.930 . S
C589 C588 1.369 . S
C589 C598 1.429 . S
C590 C588 1.419 . S
C590 C591 1.363 . S
C590 H593 0.929 . S
C591 C590 1.363 . S
C591 C597 1.428 . S
H592 C588 0.930 . S
H593 C590 0.929 . S
S594 N595 1.613 . S
S594 N596 1.610 . S
N595 S594 1.613 . S
N595 C598 1.350 . S
N596 S594 1.610 . S
N596 C597 1.351 . S
C597 C591 1.428 . S
C597 N596 1.351 . S
C597 C598 1.434 . S
C598 C589 1.429 . S
C598 N595 1.350 . S
C598 C597 1.434 . S
C599 C600 1.369 . S
C599 C601 1.419 . S
C599 H603 0.930 . S
C600 C599 1.369 . S
C600 C609 1.429 . S
C601 C599 1.419 . S
C601 C602 1.363 . S
C601 H604 0.929 . S
C602 C601 1.363 . S
C602 C608 1.428 . S
H603 C599 0.930 . S
H604 C601 0.929 . S
S605 N606 1.613 . S
S605 N607 1.610 . S
N606 S605 1.613 . S
N606 C609 1.350 . S
N607 S605 1.610 . S
N607 C608 1.351 . S
C608 C602 1.428 . S
C608 N607 1.351 . S
C608 C609 1.434 . S
C609 C600 1.429 . S
C609 N606 1.350 . S
C609 C608 1.434 . S
C610 C611 1.369 . S
C610 C612 1.419 . S
C610 H614 0.930 . S
C611 C610 1.369 . S
C611 C620 1.429 . S
C612 C610 1.419 . S
C612 C613 1.363 . S
C612 H615 0.929 . S
C613 C612 1.363 . S
C613 C619 1.428 . S
H614 C610 0.930 . S
H615 C612 0.929 . S
S616 N617 1.613 . S
S616 N618 1.610 . S
N617 S616 1.613 . S
N617 C620 1.350 . S
N618 S616 1.610 . S
N618 C619 1.351 . S
C619 C613 1.428 . S
C619 N618 1.351 . S
C619 C620 1.434 . S
C620 C611 1.429 . S
C620 N617 1.350 . S
C620 C619 1.434 . S
C621 C622 1.369 . S
C621 C623 1.419 . S
C621 H625 0.930 . S
C622 C621 1.369 . S
C622 C631 1.429 . S
C623 C621 1.419 . S
C623 C624 1.363 . S
C623 H626 0.929 . S
C624 C623 1.363 . S
C624 C630 1.428 . S
H625 C621 0.930 . S
H626 C623 0.929 . S
S627 N628 1.613 . S
S627 N629 1.610 . S
N628 S627 1.613 . S
N628 C631 1.350 . S
N629 S627 1.610 . S
N629 C630 1.351 . S
C630 C624 1.428 . S
C630 N629 1.351 . S
C630 C631 1.434 . S
C631 C622 1.429 . S
C631 N628 1.350 . S
C631 C630 1.434 . S
C632 C633 1.369 . S
C632 C634 1.419 . S
C632 H636 0.930 . S
C633 C632 1.369 . S
C633 C642 1.429 . S
C634 C632 1.419 . S
C634 C635 1.363 . S
C634 H637 0.929 . S
C635 C634 1.363 . S
C635 C641 1.428 . S
H636 C632 0.930 . S
H637 C634 0.929 . S
S638 N639 1.613 . S
S638 N640 1.610 . S
N639 S638 1.613 . S
N639 C642 1.350 . S
N640 S638 1.610 . S
N640 C641 1.351 . S
C641 C635 1.428 . S
C641 N640 1.351 . S
C641 C642 1.434 . S
C642 C633 1.429 . S
C642 N639 1.350 . S
C642 C641 1.434 . S
C643 C644 1.369 . S
C643 C645 1.419 . S
C643 H647 0.930 . S
C644 C643 1.369 . S
C644 C653 1.429 . S
C645 C643 1.419 . S
C645 C646 1.363 . S
C645 H648 0.929 . S
C646 C645 1.363 . S
C646 C652 1.428 . S
H647 C643 0.930 . S
H648 C645 0.929 . S
S649 N650 1.613 . S
S649 N651 1.610 . S
N650 S649 1.613 . S
N650 C653 1.350 . S
N651 S649 1.610 . S
N651 C652 1.351 . S
C652 C646 1.428 . S
C652 N651 1.351 . S
C652 C653 1.434 . S
C653 C644 1.429 . S
C653 N650 1.350 . S
C653 C652 1.434 . S
C654 C655 1.369 1_455 S
C654 C656 1.419 . S
C654 H658 0.930 . S
C655 C654 1.369 1_655 S
C655 C664 1.429 . S
C656 C654 1.419 . S
C656 C657 1.363 1_455 S
C656 H659 0.929 . S
C657 C656 1.363 1_655 S
C657 C663 1.428 . S
H658 C654 0.930 . S
H659 C656 0.929 . S
S660 N661 1.613 . S
S660 N662 1.610 . S
N661 S660 1.613 . S
N661 C664 1.350 . S
N662 S660 1.610 . S
N662 C663 1.351 . S
C663 C657 1.428 . S
C663 N662 1.351 . S
C663 C664 1.434 . S
C664 C655 1.429 . S
C664 N661 1.350 . S
C664 C663 1.434 . S
C665 C666 1.369 . S
C665 C667 1.419 . S
C665 H669 0.930 1_565 S
C666 C665 1.369 . S
C666 C675 1.429 . S
C667 C665 1.419 . S
C667 C668 1.363 . S
C667 H670 0.929 1_565 S
C668 C667 1.363 . S
C668 C674 1.428 . S
H669 C665 0.930 1_545 S
H670 C667 0.929 1_545 S
S671 N672 1.613 . S
S671 N673 1.610 . S
N672 S671 1.613 . S
N672 C675 1.350 . S
N673 S671 1.610 . S
N673 C674 1.351 . S
C674 C668 1.428 . S
C674 N673 1.351 . S
C674 C675 1.434 . S
C675 C666 1.429 . S
C675 N672 1.350 . S
C675 C674 1.434 . S
C676 C677 1.369 . S
C676 C678 1.419 . S
C676 H680 0.930 . S
C677 C676 1.369 . S
C677 C686 1.429 . S
C678 C676 1.419 . S
C678 C679 1.363 . S
C678 H681 0.929 . S
C679 C678 1.363 . S
C679 C685 1.428 . S
H680 C676 0.930 . S
H681 C678 0.929 . S
S682 N683 1.613 . S
S682 N684 1.612 . S
N683 S682 1.613 . S
N683 C686 1.350 1_655 S
N684 S682 1.612 . S
N684 C685 1.350 1_655 S
C685 C679 1.428 . S
C685 N684 1.350 1_455 S
C685 C686 1.434 . S
C686 C677 1.429 . S
C686 N683 1.350 1_455 S
C686 C685 1.434 . S
C687 C688 1.369 1_565 S
C687 C689 1.419 . S
C687 H691 0.930 . S
C688 C687 1.369 1_545 S
C688 C697 1.429 . S
C689 C687 1.419 . S
C689 C690 1.363 1_565 S
C689 H692 0.929 . S
C690 C689 1.363 1_545 S
C690 C696 1.428 . S
H691 C687 0.930 . S
H692 C689 0.929 . S
S693 N694 1.613 . S
S693 N695 1.610 . S
N694 S693 1.613 . S
N694 C697 1.350 . S
N695 S693 1.610 . S
N695 C696 1.351 . S
C696 C690 1.428 . S
C696 N695 1.351 . S
C696 C697 1.434 . S
C697 C688 1.429 . S
C697 N694 1.350 . S
C697 C696 1.434 . S
C698 C699 1.369 . S
C698 C700 1.419 . S
C698 H702 0.930 . S
C699 C698 1.369 . S
C699 C708 1.429 . S
C700 C698 1.419 . S
C700 C701 1.363 . S
C700 H703 0.929 . S
C701 C700 1.363 . S
C701 C707 1.428 . S
H702 C698 0.930 . S
H703 C700 0.929 . S
S704 N705 1.613 . S
S704 N706 1.610 . S
N705 S704 1.613 . S
N705 C708 1.350 . S
N706 S704 1.610 . S
N706 C707 1.351 . S
C707 C701 1.428 . S
C707 N706 1.351 . S
C707 C708 1.434 . S
C708 C699 1.429 . S
C708 N705 1.350 . S
C708 C707 1.434 . S
C709 C710 1.369 . S
C709 C711 1.419 . S
C709 H713 0.930 . S
C710 C709 1.369 . S
C710 C719 1.429 . S
C711 C709 1.419 . S
C711 C712 1.363 . S
C711 H714 0.929 . S
C712 C711 1.363 . S
C712 C718 1.428 . S
H713 C709 0.930 . S
H714 C711 0.929 . S
S715 N716 1.613 . S
S715 N717 1.610 . S
N716 S715 1.613 . S
N716 C719 1.350 . S
N717 S715 1.610 . S
N717 C718 1.351 . S
C718 C712 1.428 . S
C718 N717 1.351 . S
C718 C719 1.434 . S
C719 C710 1.429 . S
C719 N716 1.350 . S
C719 C718 1.434 . S
C720 C721 1.369 . S
C720 C722 1.419 . S
C720 H724 0.930 . S
C721 C720 1.369 . S
C721 C730 1.429 . S
C722 C720 1.419 . S
C722 C723 1.363 . S
C722 H725 0.929 . S
C723 C722 1.363 . S
C723 C729 1.428 . S
H724 C720 0.930 . S
H725 C722 0.929 . S
S726 N727 1.613 . S
S726 N728 1.610 . S
N727 S726 1.613 . S
N727 C730 1.350 . S
N728 S726 1.610 . S
N728 C729 1.351 . S
C729 C723 1.428 . S
C729 N728 1.351 . S
C729 C730 1.434 . S
C730 C721 1.429 . S
C730 N727 1.350 . S
C730 C729 1.434 . S
C731 C732 1.369 . S
C731 C733 1.419 . S
C731 H735 0.930 . S
C732 C731 1.369 . S
C732 C741 1.429 . S
C733 C731 1.419 . S
C733 C734 1.363 . S
C733 H736 0.929 . S
C734 C733 1.363 . S
C734 C740 1.428 . S
H735 C731 0.930 . S
H736 C733 0.929 . S
S737 N738 1.613 . S
S737 N739 1.610 . S
N738 S737 1.613 . S
N738 C741 1.350 . S
N739 S737 1.610 . S
N739 C740 1.351 . S
C740 C734 1.428 . S
C740 N739 1.351 . S
C740 C741 1.434 . S
C741 C732 1.429 . S
C741 N738 1.350 . S
C741 C740 1.434 . S
C742 C743 1.369 . S
C742 C744 1.419 . S
C742 H746 0.930 . S
C743 C742 1.369 . S
C743 C752 1.429 1_455 S
C744 C742 1.419 . S
C744 C745 1.363 . S
C744 H747 0.929 . S
C745 C744 1.363 . S
C745 C751 1.428 1_455 S
H746 C742 0.930 . S
H747 C744 0.929 . S
S748 N749 1.613 . S
S748 N750 1.610 . S
N749 S748 1.613 . S
N749 C752 1.350 . S
N750 S748 1.610 . S
N750 C751 1.351 . S
C751 C745 1.428 1_655 S
C751 N750 1.351 . S
C751 C752 1.434 . S
C752 C743 1.429 1_655 S
C752 N749 1.350 . S
C752 C751 1.434 . S
C753 C754 1.369 . S
C753 C755 1.419 . S
C753 H757 0.930 . S
C754 C753 1.369 . S
C754 C763 1.428 1_545 S
C755 C753 1.419 . S
C755 C756 1.363 . S
C755 H758 0.929 . S
C756 C755 1.363 . S
C756 C762 1.428 . S
H757 C753 0.930 . S
H758 C755 0.929 . S
S759 N760 1.613 . S
S759 N761 1.610 . S
N760 S759 1.613 . S
N760 C763 1.350 . S
N761 S759 1.610 . S
N761 C762 1.351 1_565 S
C762 C756 1.428 . S
C762 N761 1.351 1_545 S
C762 C763 1.434 1_545 S
C763 C754 1.428 1_565 S
C763 N760 1.350 . S
C763 C762 1.434 1_565 S
C764 C765 1.369 1_455 S
C764 C766 1.419 . S
C764 H768 0.930 . S
C765 C764 1.369 1_655 S
C765 C774 1.429 . S
C766 C764 1.419 . S
C766 C767 1.363 1_455 S
C766 H769 0.929 . S
C767 C766 1.363 1_655 S
C767 C773 1.428 . S
H768 C764 0.930 . S
H769 C766 0.929 . S
S770 N771 1.613 . S
S770 N772 1.610 . S
N771 S770 1.613 . S
N771 C774 1.350 . S
N772 S770 1.610 . S
N772 C773 1.351 . S
C773 C767 1.428 . S
C773 N772 1.351 . S
C773 C774 1.434 . S
C774 C765 1.429 . S
C774 N771 1.350 . S
C774 C773 1.434 . S
C775 C776 1.369 1_545 S
C775 C777 1.419 . S
C775 H779 0.930 . S
C776 C775 1.369 1_565 S
C776 C785 1.429 . S
C777 C775 1.419 . S
C777 C778 1.363 1_545 S
C777 H780 0.929 . S
C778 C777 1.363 1_565 S
C778 C784 1.428 . S
H779 C775 0.930 . S
H780 C777 0.929 . S
S781 N782 1.613 . S
S781 N783 1.610 . S
N782 S781 1.613 . S
N782 C785 1.350 . S
N783 S781 1.610 . S
N783 C784 1.351 . S
C784 C778 1.428 . S
C784 N783 1.351 . S
C784 C785 1.434 . S
C785 C776 1.429 . S
C785 N782 1.350 . S
C785 C784 1.434 . S
C786 C787 1.369 . S
C786 C788 1.419 . S
C786 H790 0.930 . S
C787 C786 1.369 . S
C787 C796 1.429 . S
C788 C786 1.419 . S
C788 C789 1.363 . S
C788 H791 0.929 . S
C789 C788 1.363 . S
C789 C795 1.428 . S
H790 C786 0.930 . S
H791 C788 0.929 . S
S792 N793 1.613 . S
S792 N794 1.610 . S
N793 S792 1.613 . S
N793 C796 1.350 . S
N794 S792 1.610 . S
N794 C795 1.351 . S
C795 C789 1.428 . S
C795 N794 1.351 . S
C795 C796 1.434 . S
C796 C787 1.429 . S
C796 N793 1.350 . S
C796 C795 1.434 . S
C797 C798 1.369 . S
C797 C799 1.419 . S
C797 H801 0.930 . S
C798 C797 1.369 . S
C798 C807 1.429 . S
C799 C797 1.419 . S
C799 C800 1.363 . S
C799 H802 0.929 . S
C800 C799 1.363 . S
C800 C806 1.428 . S
H801 C797 0.930 . S
H802 C799 0.929 . S
S803 N804 1.613 . S
S803 N805 1.610 . S
N804 S803 1.613 . S
N804 C807 1.350 . S
N805 S803 1.610 . S
N805 C806 1.351 . S
C806 C800 1.428 . S
C806 N805 1.351 . S
C806 C807 1.434 . S
C807 C798 1.429 . S
C807 N804 1.350 . S
C807 C806 1.434 . S
C808 C809 1.369 . S
C808 C810 1.419 . S
C808 H812 0.930 . S
C809 C808 1.369 . S
C809 C818 1.429 . S
C810 C808 1.419 . S
C810 C811 1.363 . S
C810 H813 0.929 . S
C811 C810 1.363 . S
C811 C817 1.428 . S
H812 C808 0.930 . S
H813 C810 0.929 . S
S814 N815 1.613 . S
S814 N816 1.610 . S
N815 S814 1.613 . S
N815 C818 1.350 . S
N816 S814 1.610 . S
N816 C817 1.351 . S
C817 C811 1.428 . S
C817 N816 1.351 . S
C817 C818 1.434 . S
C818 C809 1.429 . S
C818 N815 1.350 . S
C818 C817 1.434 . S
C819 C820 1.369 . S
C819 C821 1.419 . S
C819 H823 0.930 . S
C820 C819 1.369 . S
C820 C829 1.429 . S
C821 C819 1.419 . S
C821 C822 1.363 . S
C821 H824 0.929 . S
C822 C821 1.363 . S
C822 C828 1.428 . S
H823 C819 0.930 . S
H824 C821 0.929 . S
S825 N826 1.613 . S
S825 N827 1.610 . S
N826 S825 1.613 . S
N826 C829 1.350 . S
N827 S825 1.610 . S
N827 C828 1.351 . S
C828 C822 1.428 . S
C828 N827 1.351 . S
C828 C829 1.434 . S
C829 C820 1.429 . S
C829 N826 1.350 . S
C829 C828 1.434 . S
C830 C831 1.369 . S
C830 C832 1.419 . S
C830 H834 0.930 . S
C831 C830 1.369 . S
C831 C840 1.429 . S
C832 C830 1.419 . S
C832 C833 1.363 . S
C832 H835 0.929 . S
C833 C832 1.363 . S
C833 C839 1.428 . S
H834 C830 0.930 . S
H835 C832 0.929 . S
S836 N837 1.613 . S
S836 N838 1.610 . S
N837 S836 1.613 . S
N837 C840 1.350 . S
N838 S836 1.610 . S
N838 C839 1.351 . S
C839 C833 1.428 . S
C839 N838 1.351 . S
C839 C840 1.434 . S
C840 C831 1.429 . S
C840 N837 1.350 . S
C840 C839 1.434 . S
C841 C842 1.369 . S
C841 C843 1.419 . S
C841 H845 0.930 . S
C842 C841 1.369 . S
C842 C851 1.429 . S
C843 C841 1.419 . S
C843 C844 1.363 . S
C843 H846 0.929 . S
C844 C843 1.363 . S
C844 C850 1.428 . S
H845 C841 0.930 . S
H846 C843 0.929 . S
S847 N848 1.613 . S
S847 N849 1.610 . S
N848 S847 1.613 . S
N848 C851 1.350 . S
N849 S847 1.610 . S
N849 C850 1.351 . S
C850 C844 1.428 . S
C850 N849 1.351 . S
C850 C851 1.434 . S
C851 C842 1.429 . S
C851 N848 1.350 . S
C851 C850 1.434 . S
C852 C853 1.369 . S
C852 C854 1.419 1_556 S
C852 H856 0.930 . S
C853 C852 1.369 . S
C853 C862 1.429 . S
C854 C852 1.419 1_554 S
C854 C855 1.363 . S
C854 H857 0.929 . S
C855 C854 1.363 . S
C855 C861 1.428 . S
H856 C852 0.930 . S
H857 C854 0.929 . S
S858 N859 1.613 1_554 S
S858 N860 1.610 . S
N859 S858 1.613 1_556 S
N859 C862 1.350 . S
N860 S858 1.610 . S
N860 C861 1.351 . S
C861 C855 1.428 . S
C861 N860 1.351 . S
C861 C862 1.434 1_554 S
C862 C853 1.429 . S
C862 N859 1.350 . S
C862 C861 1.434 1_556 S
C863 C864 1.369 . S
C863 C865 1.419 1_554 S
C863 H867 0.930 . S
C864 C863 1.369 . S
C864 C873 1.429 . S
C865 C863 1.419 1_556 S
C865 C866 1.363 . S
C865 H868 0.929 . S
C866 C865 1.363 . S
C866 C872 1.428 1_556 S
H867 C863 0.930 . S
H868 C865 0.929 . S
S869 N870 1.613 . S
S869 N871 1.610 . S
N870 S869 1.613 . S
N870 C873 1.350 . S
N871 S869 1.610 . S
N871 C872 1.351 . S
C872 C866 1.428 1_554 S
C872 N871 1.351 . S
C872 C873 1.434 . S
C873 C864 1.429 . S
C873 N870 1.350 . S
C873 C872 1.434 . S
C874 C875 1.369 . S
C874 C876 1.419 . S
C874 H878 0.930 . S
C875 C874 1.369 . S
C875 C884 1.429 . S
C876 C874 1.419 . S
C876 C877 1.363 1_554 S
C876 H879 0.929 . S
C877 C876 1.363 1_556 S
C877 C883 1.428 . S
H878 C874 0.930 . S
H879 C876 0.929 . S
S880 N881 1.613 . S
S880 N882 1.610 . S
N881 S880 1.613 . S
N881 C884 1.350 1_556 S
N882 S880 1.610 . S
N882 C883 1.351 . S
C883 C877 1.428 . S
C883 N882 1.351 . S
C883 C884 1.434 1_556 S
C884 C875 1.429 . S
C884 N881 1.350 1_554 S
C884 C883 1.434 1_554 S
C885 C886 1.369 . S
C885 C887 1.419 . S
C885 H889 0.930 . S
C886 C885 1.369 . S
C886 C895 1.429 . S
C887 C885 1.419 . S
C887 C888 1.363 1_554 S
C887 H890 0.929 . S
C888 C887 1.363 1_556 S
C888 C894 1.428 . S
H889 C885 0.930 . S
H890 C887 0.929 . S
S891 N892 1.613 . S
S891 N893 1.610 . S
N892 S891 1.613 . S
N892 C895 1.350 1_556 S
N893 S891 1.610 . S
N893 C894 1.351 . S
C894 C888 1.428 . S
C894 N893 1.351 . S
C894 C895 1.434 1_556 S
C895 C886 1.429 . S
C895 N892 1.350 1_554 S
C895 C894 1.434 1_554 S
C896 C897 1.369 . S
C896 C898 1.419 . S
C896 H900 0.930 . S
C897 C896 1.369 . S
C897 C906 1.429 . S
C898 C896 1.419 . S
C898 C899 1.363 . S
C898 H901 0.929 . S
C899 C898 1.363 . S
C899 C905 1.428 . S
H900 C896 0.930 . S
H901 C898 0.929 . S
S902 N903 1.613 . S
S902 N904 1.610 . S
N903 S902 1.613 . S
N903 C906 1.350 . S
N904 S902 1.610 . S
N904 C905 1.351 . S
C905 C899 1.428 . S
C905 N904 1.351 . S
C905 C906 1.434 . S
C906 C897 1.429 . S
C906 N903 1.350 . S
C906 C905 1.434 . S
C907 C908 1.369 . S
C907 C909 1.419 . S
C907 H911 0.930 . S
C908 C907 1.369 . S
C908 C917 1.429 . S
C909 C907 1.419 . S
C909 C910 1.363 . S
C909 H912 0.929 . S
C910 C909 1.363 . S
C910 C916 1.428 . S
H911 C907 0.930 . S
H912 C909 0.929 . S
S913 N914 1.613 . S
S913 N915 1.610 . S
N914 S913 1.613 . S
N914 C917 1.350 . S
N915 S913 1.610 . S
N915 C916 1.351 . S
C916 C910 1.428 . S
C916 N915 1.351 . S
C916 C917 1.434 . S
C917 C908 1.429 . S
C917 N914 1.350 . S
C917 C916 1.434 . S
C918 C919 1.369 . S
C918 C920 1.419 . S
C918 H922 0.930 . S
C919 C918 1.369 . S
C919 C928 1.429 . S
C920 C918 1.419 . S
C920 C921 1.363 . S
C920 H923 0.929 . S
C921 C920 1.363 . S
C921 C927 1.428 . S
H922 C918 0.930 . S
H923 C920 0.929 . S
S924 N925 1.613 . S
S924 N926 1.610 . S
N925 S924 1.613 . S
N925 C928 1.350 . S
N926 S924 1.610 . S
N926 C927 1.351 . S
C927 C921 1.428 . S
C927 N926 1.351 . S
C927 C928 1.434 . S
C928 C919 1.429 . S
C928 N925 1.350 . S
C928 C927 1.434 . S
C929 C930 1.369 . S
C929 C931 1.419 . S
C929 H933 0.930 . S
C930 C929 1.369 . S
C930 C939 1.429 . S
C931 C929 1.419 . S
C931 C932 1.363 . S
C931 H934 0.929 . S
C932 C931 1.363 . S
C932 C938 1.428 . S
H933 C929 0.930 . S
H934 C931 0.929 . S
S935 N936 1.613 . S
S935 N937 1.610 . S
N936 S935 1.613 . S
N936 C939 1.350 . S
N937 S935 1.610 . S
N937 C938 1.351 . S
C938 C932 1.428 . S
C938 N937 1.351 . S
C938 C939 1.434 . S
C939 C930 1.429 . S
C939 N936 1.350 . S
C939 C938 1.434 . S
C940 C941 1.369 . S
C940 C942 1.419 1_554 S
C940 H944 0.930 . S
C941 C940 1.369 . S
C941 C950 1.429 1_554 S
C942 C940 1.419 1_556 S
C942 C943 1.363 . S
C942 H945 0.929 1_556 S
C943 C942 1.363 . S
C943 C949 1.428 . S
H944 C940 0.930 . S
H945 C942 0.929 1_554 S
S946 N947 1.613 . S
S946 N948 1.610 . S
N947 S946 1.613 . S
N947 C950 1.350 . S
N948 S946 1.610 . S
N948 C949 1.351 . S
C949 C943 1.428 . S
C949 N948 1.351 . S
C949 C950 1.434 . S
C950 C941 1.429 1_556 S
C950 N947 1.350 . S
C950 C949 1.434 . S
C951 C952 1.369 . S
C951 C953 1.419 1_554 S
C951 H955 0.930 . S
C952 C951 1.369 . S
C952 C961 1.429 1_554 S
C953 C951 1.419 1_556 S
C953 C954 1.363 . S
C953 H956 0.924 1_556 S
C954 C953 1.363 . S
C954 C960 1.428 . S
H955 C951 0.930 . S
H956 C953 0.924 1_554 S
S957 N958 1.613 . S
S957 N959 1.610 . S
N958 S957 1.613 . S
N958 C961 1.350 . S
N959 S957 1.610 . S
N959 C960 1.351 . S
C960 C954 1.428 . S
C960 N959 1.351 . S
C960 C961 1.434 . S
C961 C952 1.429 1_556 S
C961 N958 1.350 . S
C961 C960 1.434 . S
C962 C963 1.369 . S
C962 C964 1.419 1_554 S
C962 H966 0.930 . S
C963 C962 1.369 . S
C963 C972 1.429 1_554 S
C964 C962 1.419 1_556 S
C964 C965 1.363 . S
C964 H967 0.929 . S
C965 C964 1.363 . S
C965 C971 1.428 . S
H966 C962 0.930 . S
H967 C964 0.929 . S
S968 N969 1.613 . S
S968 N970 1.610 . S
N969 S968 1.613 . S
N969 C972 1.350 . S
N970 S968 1.610 . S
N970 C971 1.351 . S
C971 C965 1.428 . S
C971 N970 1.351 . S
C971 C972 1.434 . S
C972 C963 1.429 1_556 S
C972 N969 1.350 . S
C972 C971 1.434 . S
C973 C974 1.369 1_556 S
C973 C975 1.419 . S
C973 H977 0.930 . S
C974 C973 1.369 1_554 S
C974 C983 1.429 . S
C975 C973 1.419 . S
C975 C976 1.363 . S
C975 H978 0.929 . S
C976 C975 1.363 . S
C976 C982 1.428 . S
H977 C973 0.930 . S
H978 C975 0.929 . S
S979 N980 1.613 . S
S979 N981 1.610 1_554 S
N980 S979 1.613 . S
N980 C983 1.350 . S
N981 S979 1.610 1_556 S
N981 C982 1.351 . S
C982 C976 1.428 . S
C982 N981 1.351 . S
C982 C983 1.434 1_556 S
C983 C974 1.429 . S
C983 N980 1.350 . S
C983 C982 1.434 1_554 S
C984 C985 1.369 . S
C984 C986 1.419 . S
C984 H988 0.930 . S
C985 C984 1.369 . S
C985 C994 1.429 . S
C986 C984 1.419 . S
C986 C987 1.363 . S
C986 H989 0.929 . S
C987 C986 1.363 . S
C987 C993 1.428 . S
H988 C984 0.930 . S
H989 C986 0.929 . S
S990 N991 1.613 . S
S990 N992 1.610 . S
N991 S990 1.613 . S
N991 C994 1.350 . S
N992 S990 1.610 . S
N992 C993 1.351 . S
C993 C987 1.428 . S
C993 N992 1.351 . S
C993 C994 1.434 . S
C994 C985 1.429 . S
C994 N991 1.350 . S
C994 C993 1.434 . S
C995 C996 1.369 . S
C995 C997 1.419 . S
C995 H999 0.930 . S
C996 C995 1.369 . S
C996 C1005 1.429 . S
C997 C995 1.419 . S
C997 C998 1.363 . S
C997 H1000 0.929 . S
C998 C997 1.363 . S
C998 C1004 1.428 . S
H999 C995 0.930 . S
H1000 C997 0.929 . S
S1001 N1002 1.613 . S
S1001 N1003 1.610 . S
N1002 S1001 1.613 . S
N1002 C1005 1.350 . S
N1003 S1001 1.610 . S
N1003 C1004 1.351 . S
C1004 C998 1.428 . S
C1004 N1003 1.351 . S
C1004 C1005 1.434 . S
C1005 C996 1.429 . S
C1005 N1002 1.350 . S
C1005 C1004 1.434 . S
C1006 C1007 1.369 . S
C1006 C1008 1.419 . S
C1006 H1010 0.930 . S
C1007 C1006 1.369 . S
C1007 C1016 1.429 . S
C1008 C1006 1.419 . S
C1008 C1009 1.363 . S
C1008 H1011 0.929 . S
C1009 C1008 1.363 . S
C1009 C1015 1.428 . S
H1010 C1006 0.930 . S
H1011 C1008 0.929 . S
S1012 N1013 1.613 . S
S1012 N1014 1.610 . S
N1013 S1012 1.613 . S
N1013 C1016 1.350 . S
N1014 S1012 1.610 . S
N1014 C1015 1.351 . S
C1015 C1009 1.428 . S
C1015 N1014 1.351 . S
C1015 C1016 1.434 . S
C1016 C1007 1.429 . S
C1016 N1013 1.350 . S
C1016 C1015 1.434 . S
C1017 C1018 1.369 . S
C1017 C1019 1.419 . S
C1017 H1021 0.930 . S
C1018 C1017 1.369 . S
C1018 C1027 1.429 . S
C1019 C1017 1.419 . S
C1019 C1020 1.363 . S
C1019 H1022 0.929 . S
C1020 C1019 1.363 . S
C1020 C1026 1.428 . S
H1021 C1017 0.930 . S
H1022 C1019 0.929 . S
S1023 N1024 1.613 . S
S1023 N1025 1.610 . S
N1024 S1023 1.613 . S
N1024 C1027 1.350 . S
N1025 S1023 1.610 . S
N1025 C1026 1.351 . S
C1026 C1020 1.428 . S
C1026 N1025 1.351 . S
C1026 C1027 1.434 . S
C1027 C1018 1.429 . S
C1027 N1024 1.350 . S
C1027 C1026 1.434 . S
C1028 C1029 1.369 . S
C1028 C1030 1.419 . S
C1028 H1032 0.930 . S
C1029 C1028 1.369 . S
C1029 C1038 1.429 . S
C1030 C1028 1.419 . S
C1030 C1031 1.363 . S
C1030 H1033 0.929 . S
C1031 C1030 1.363 . S
C1031 C1037 1.428 . S
H1032 C1028 0.930 . S
H1033 C1030 0.929 . S
S1034 N1035 1.613 . S
S1034 N1036 1.610 . S
N1035 S1034 1.613 . S
N1035 C1038 1.350 . S
N1036 S1034 1.610 . S
N1036 C1037 1.351 . S
C1037 C1031 1.428 . S
C1037 N1036 1.351 . S
C1037 C1038 1.434 . S
C1038 C1029 1.429 . S
C1038 N1035 1.350 . S
C1038 C1037 1.434 . S
C1039 C1040 1.369 . S
C1039 C1041 1.419 . S
C1039 H1043 0.930 . S
C1040 C1039 1.369 . S
C1040 C1049 1.429 . S
C1041 C1039 1.419 . S
C1041 C1042 1.363 . S
C1041 H1044 0.929 . S
C1042 C1041 1.363 . S
C1042 C1048 1.428 . S
H1043 C1039 0.930 . S
H1044 C1041 0.929 . S
S1045 N1046 1.613 . S
S1045 N1047 1.610 . S
N1046 S1045 1.613 . S
N1046 C1049 1.350 . S
N1047 S1045 1.610 . S
N1047 C1048 1.351 . S
C1048 C1042 1.428 . S
C1048 N1047 1.351 . S
C1048 C1049 1.434 . S
C1049 C1040 1.429 . S
C1049 N1046 1.350 . S
C1049 C1048 1.434 . S
C1050 C1051 1.369 . S
C1050 C1052 1.419 . S
C1050 H1054 0.930 . S
C1051 C1050 1.369 . S
C1051 C1060 1.429 . S
C1052 C1050 1.419 . S
C1052 C1053 1.363 . S
C1052 H1055 0.929 . S
C1053 C1052 1.363 . S
C1053 C1059 1.428 . S
H1054 C1050 0.930 . S
H1055 C1052 0.929 . S
S1056 N1057 1.613 . S
S1056 N1058 1.610 . S
N1057 S1056 1.613 . S
N1057 C1060 1.350 . S
N1058 S1056 1.610 . S
N1058 C1059 1.351 . S
C1059 C1053 1.428 . S
C1059 N1058 1.351 . S
C1059 C1060 1.434 . S
C1060 C1051 1.429 . S
C1060 N1057 1.350 . S
C1060 C1059 1.434 . S
C1061 C1062 1.369 . S
C1061 C1063 1.419 . S
C1061 H1065 0.930 . S
C1062 C1061 1.369 . S
C1062 C1071 1.429 . S
C1063 C1061 1.419 . S
C1063 C1064 1.363 . S
C1063 H1066 0.929 . S
C1064 C1063 1.363 . S
C1064 C1070 1.428 . S
H1065 C1061 0.930 . S
H1066 C1063 0.929 . S
S1067 N1068 1.613 . S
S1067 N1069 1.610 . S
N1068 S1067 1.613 . S
N1068 C1071 1.350 . S
N1069 S1067 1.610 . S
N1069 C1070 1.351 . S
C1070 C1064 1.428 . S
C1070 N1069 1.351 . S
C1070 C1071 1.434 . S
C1071 C1062 1.429 . S
C1071 N1068 1.350 . S
C1071 C1070 1.434 . S
C1072 C1073 1.369 . S
C1072 C1074 1.419 . S
C1072 H1076 0.930 . S
C1073 C1072 1.369 . S
C1073 C1082 1.429 . S
C1074 C1072 1.419 . S
C1074 C1075 1.363 . S
C1074 H1077 0.929 . S
C1075 C1074 1.363 . S
C1075 C1081 1.428 . S
H1076 C1072 0.930 . S
H1077 C1074 0.929 . S
S1078 N1079 1.613 . S
S1078 N1080 1.610 . S
N1079 S1078 1.613 . S
N1079 C1082 1.350 . S
N1080 S1078 1.610 . S
N1080 C1081 1.351 . S
C1081 C1075 1.428 . S
C1081 N1080 1.351 . S
C1081 C1082 1.434 . S
C1082 C1073 1.429 . S
C1082 N1079 1.350 . S
C1082 C1081 1.434 . S
C1083 C1084 1.369 . S
C1083 C1085 1.419 . S
C1083 H1087 0.930 . S
C1084 C1083 1.369 . S
C1084 C1093 1.429 . S
C1085 C1083 1.419 . S
C1085 C1086 1.363 . S
C1085 H1088 0.929 . S
C1086 C1085 1.363 . S
C1086 C1092 1.428 . S
H1087 C1083 0.930 . S
H1088 C1085 0.929 . S
S1089 N1090 1.613 . S
S1089 N1091 1.610 . S
N1090 S1089 1.613 . S
N1090 C1093 1.350 . S
N1091 S1089 1.610 . S
N1091 C1092 1.351 . S
C1092 C1086 1.428 . S
C1092 N1091 1.351 . S
C1092 C1093 1.434 . S
C1093 C1084 1.429 . S
C1093 N1090 1.350 . S
C1093 C1092 1.434 . S
C1094 C1095 1.369 . S
C1094 C1096 1.419 . S
C1094 H1098 0.930 . S
C1095 C1094 1.369 . S
C1095 C1104 1.429 . S
C1096 C1094 1.419 . S
C1096 C1097 1.363 . S
C1096 H1099 0.929 . S
C1097 C1096 1.363 . S
C1097 C1103 1.428 . S
H1098 C1094 0.930 . S
H1099 C1096 0.929 . S
S1100 N1101 1.613 . S
S1100 N1102 1.610 . S
N1101 S1100 1.613 . S
N1101 C1104 1.350 . S
N1102 S1100 1.610 . S
N1102 C1103 1.351 . S
C1103 C1097 1.428 . S
C1103 N1102 1.351 . S
C1103 C1104 1.434 . S
C1104 C1095 1.429 . S
C1104 N1101 1.350 . S
C1104 C1103 1.434 . S
C1105 C1106 1.369 . S
C1105 C1107 1.419 . S
C1105 H1109 0.930 . S
C1106 C1105 1.369 . S
C1106 C1115 1.429 . S
C1107 C1105 1.419 . S
C1107 C1108 1.363 . S
C1107 H1110 0.929 . S
C1108 C1107 1.363 . S
C1108 C1114 1.428 . S
H1109 C1105 0.930 . S
H1110 C1107 0.929 . S
S1111 N1112 1.613 . S
S1111 N1113 1.610 . S
N1112 S1111 1.613 . S
N1112 C1115 1.350 . S
N1113 S1111 1.610 . S
N1113 C1114 1.351 . S
C1114 C1108 1.428 . S
C1114 N1113 1.351 . S
C1114 C1115 1.434 . S
C1115 C1106 1.429 . S
C1115 N1112 1.350 . S
C1115 C1114 1.434 . S
C1116 C1117 1.369 . S
C1116 C1118 1.419 . S
C1116 H1120 0.930 . S
C1117 C1116 1.369 . S
C1117 C1126 1.429 . S
C1118 C1116 1.419 . S
C1118 C1119 1.363 . S
C1118 H1121 0.929 . S
C1119 C1118 1.363 . S
C1119 C1125 1.428 . S
H1120 C1116 0.930 . S
H1121 C1118 0.929 . S
S1122 N1123 1.613 . S
S1122 N1124 1.610 . S
N1123 S1122 1.613 . S
N1123 C1126 1.350 . S
N1124 S1122 1.610 . S
N1124 C1125 1.351 . S
C1125 C1119 1.428 . S
C1125 N1124 1.351 . S
C1125 C1126 1.434 . S
C1126 C1117 1.429 . S
C1126 N1123 1.350 . S
C1126 C1125 1.434 . S
C1127 C1128 1.369 . S
C1127 C1129 1.419 . S
C1127 H1131 0.930 . S
C1128 C1127 1.369 . S
C1128 C1137 1.429 . S
C1129 C1127 1.419 . S
C1129 C1130 1.363 . S
C1129 H1132 0.929 . S
C1130 C1129 1.363 . S
C1130 C1136 1.428 . S
H1131 C1127 0.930 . S
H1132 C1129 0.929 . S
S1133 N1134 1.613 . S
S1133 N1135 1.610 . S
N1134 S1133 1.613 . S
N1134 C1137 1.350 . S
N1135 S1133 1.610 . S
N1135 C1136 1.351 . S
C1136 C1130 1.428 . S
C1136 N1135 1.351 . S
C1136 C1137 1.434 . S
C1137 C1128 1.429 . S
C1137 N1134 1.350 . S
C1137 C1136 1.434 . S
C1138 C1139 1.369 . S
C1138 C1140 1.419 . S
C1138 H1142 0.930 . S
C1139 C1138 1.369 . S
C1139 C1148 1.429 . S
C1140 C1138 1.419 . S
C1140 C1141 1.363 . S
C1140 H1143 0.929 . S
C1141 C1140 1.363 . S
C1141 C1147 1.428 . S
H1142 C1138 0.930 . S
H1143 C1140 0.929 . S
S1144 N1145 1.613 . S
S1144 N1146 1.610 . S
N1145 S1144 1.613 . S
N1145 C1148 1.350 . S
N1146 S1144 1.610 . S
N1146 C1147 1.351 . S
C1147 C1141 1.428 . S
C1147 N1146 1.351 . S
C1147 C1148 1.434 . S
C1148 C1139 1.429 . S
C1148 N1145 1.350 . S
C1148 C1147 1.434 . S
C1149 C1150 1.369 . S
C1149 C1151 1.419 . S
C1149 H1153 0.930 . S
C1150 C1149 1.369 . S
C1150 C1159 1.429 . S
C1151 C1149 1.419 . S
C1151 C1152 1.363 . S
C1151 H1154 0.929 . S
C1152 C1151 1.363 . S
C1152 C1158 1.428 . S
H1153 C1149 0.930 . S
H1154 C1151 0.929 . S
S1155 N1156 1.613 . S
S1155 N1157 1.610 . S
N1156 S1155 1.613 . S
N1156 C1159 1.350 . S
N1157 S1155 1.610 . S
N1157 C1158 1.351 . S
C1158 C1152 1.428 . S
C1158 N1157 1.351 . S
C1158 C1159 1.434 . S
C1159 C1150 1.429 . S
C1159 N1156 1.350 . S
C1159 C1158 1.434 . S
C545 C1 1.901 . S
C547 C173 1.895 . S
C556 C37 1.892 . S
C558 C207 1.900 . S
C567 C241 1.897 . S
C569 C69 1.900 . S
C578 C103 1.901 . S
C580 C139 1.897 . S
C589 C445 1.893 . S
C591 C273 1.896 . S
C600 C307 1.893 . S
C602 C477 1.895 . S
C611 C341 1.894 . S
C613 C513 1.900 . S
C622 C411 1.895 . S
C624 C377 1.894 . S
C633 C504 1.349 . S
C635 C6 1.355 . S
C644 C516 1.343 . S
C646 C62 1.357 . S
C655 C74 1.356 . S
C657 C414 1.344 . S
C666 C108 1.357 . S
C668 C448 1.344 . S
C677 C164 1.357 . S
C679 C368 1.343 . S
C688 C198 1.354 . S
C690 C380 1.347 . S
C699 C232 1.356 . S
C701 C300 1.344 . S
C710 C334 1.347 . S
C712 C266 1.356 . S
C721 C210 1.349 . S
C723 C278 1.354 . S
C732 C312 1.354 . S
C734 C244 1.347 . S
C743 C346 1.354 . S
C745 C142 1.348 . S
C754 C402 1.358 . S
C756 C176 1.344 . S
C765 C436 1.357 . S
C767 C96 1.344 . S
C776 C130 1.348 . S
C778 C470 1.354 . S
C787 C482 1.357 . S
C789 C28 1.343 . S
C798 C538 1.357 . S
C800 C40 1.345 . S
C809 C3 1.530 . S
C811 C396 1.587 . S
C820 C35 1.531 . S
C822 C287 1.587 . S
C831 C321 1.587 . S
C833 C71 1.536 . S
C842 C105 1.532 . S
C844 C355 1.587 . S
C853 C464 1.587 . S
C855 C137 1.529 . S
C864 C171 1.533 . S
C866 C491 1.587 . S
C875 C205 1.536 . S
C877 C532 1.587 . S
C886 C239 1.537 . S
C888 C430 1.587 . S
C897 C275 1.533 . S
C899 C117 1.587 . S
C908 C15 1.587 . S
C910 C309 1.535 . S
C919 C56 1.587 . S
C921 C343 1.531 . S
C930 C83 1.587 . S
C932 C375 1.533 . S
C941 C192 1.587 . S
C943 C409 1.530 . S
C952 C226 1.587 . S
C954 C443 1.529 . S
C963 C260 1.587 . S
C965 C479 1.532 . S
C974 C158 1.587 . S
C976 C511 1.535 . S
C985 C22 1.750 . S
C987 C119 2.059 . S
C996 C49 1.736 . S
C998 C17 2.063 . S
C1007 C51 2.061 . S
C1009 C90 1.745 . S
C1018 C85 2.063 . S
C1020 C124 1.741 . S
C1029 C187 2.058 . S
C1031 C151 1.748 . S
C1040 C221 2.063 . S
C1042 C185 1.740 . S
C1051 C255 2.059 . S
C1053 C219 1.746 . S
C1062 C153 2.061 . S
C1064 C253 1.743 . S
C1073 C391 2.061 . S
C1075 C294 1.742 . S
C1084 C328 1.744 . S
C1086 C289 2.062 . S
C1095 C362 1.742 . S
C1097 C323 2.062 . S
C1106 C357 2.059 . S
C1108 C389 1.748 . S
C1117 C459 2.063 . S
C1119 C423 1.742 . S
C1128 C457 1.742 . S
C1130 C493 2.062 . S
C1139 C527 2.064 . S
C1141 C498 1.738 . S
C1150 C425 2.059 . S
C1152 C525 1.746 . S
