# Generated by pormake.
# Topology msp, (4)-cn, num edge types: 1
# Building blocks:
#     Node 0, Type 0, BuildingBlock: NAWXER_clean_sbu_0, # of connection points: 4
#     Node 1, Type 0, BuildingBlock: NAWXER_clean_sbu_0, # of connection points: 4
#     Node 2, Type 0, BuildingBlock: NAWXER_clean_sbu_0, # of connection points: 4
#     Node 3, Type 0, BuildingBlock: NAWXER_clean_sbu_0, # of connection points: 4
#     Node 4, Type 0, BuildingBlock: NAWXER_clean_sbu_0, # of connection points: 4
#     Node 5, Type 0, BuildingBlock: NAWXER_clean_sbu_0, # of connection points: 4
#     Node 6, Type 0, BuildingBlock: NAWXER_clean_sbu_0, # of connection points: 4
#     Node 7, Type 0, BuildingBlock: NAWXER_clean_sbu_0, # of connection points: 4
#     Edge 8, Type (0, 0), BuildingBlock: UVAHIK_clean_linker_0, # of connection points: 2
#     Edge 9, Type (0, 0), BuildingBlock: UVAHIK_clean_linker_0, # of connection points: 2
#     Edge 10, Type (0, 0), BuildingBlock: UVAHIK_clean_linker_0, # of connection points: 2
#     Edge 11, Type (0, 0), BuildingBlock: UVAHIK_clean_linker_0, # of connection points: 2
#     Edge 12, Type (0, 0), BuildingBlock: UVAHIK_clean_linker_0, # of connection points: 2
#     Edge 13, Type (0, 0), BuildingBlock: UVAHIK_clean_linker_0, # of connection points: 2
#     Edge 14, Type (0, 0), BuildingBlock: UVAHIK_clean_linker_0, # of connection points: 2
#     Edge 15, Type (0, 0), BuildingBlock: UVAHIK_clean_linker_0, # of connection points: 2
#     Edge 16, Type (0, 0), BuildingBlock: UVAHIK_clean_linker_0, # of connection points: 2
#     Edge 17, Type (0, 0), BuildingBlock: UVAHIK_clean_linker_0, # of connection points: 2
#     Edge 18, Type (0, 0), BuildingBlock: UVAHIK_clean_linker_0, # of connection points: 2
#     Edge 19, Type (0, 0), BuildingBlock: UVAHIK_clean_linker_0, # of connection points: 2
#     Edge 20, Type (0, 0), BuildingBlock: UVAHIK_clean_linker_0, # of connection points: 2
#     Edge 21, Type (0, 0), BuildingBlock: UVAHIK_clean_linker_0, # of connection points: 2
#     Edge 22, Type (0, 0), BuildingBlock: UVAHIK_clean_linker_0, # of connection points: 2
#     Edge 23, Type (0, 0), BuildingBlock: UVAHIK_clean_linker_0, # of connection points: 2
# Relax obj value: 0.113
# Max RMSD: 0.238
# Mean RMSD: 0.238
data_MOF--net-msp--node1-NAWXER_clean_sbu_0--edge1-UVAHIK_clean_linker_0
_symmetry_space_group_name_H-M    P1
_symmetry_Int_Tables_number       1
_symmetry_cell_setting            triclinic
loop_
_symmetry_equiv_pos_as_xyz
'x, y, z'
_cell_length_a     29.74112
_cell_length_b     25.055951
_cell_length_c     57.817101
_cell_angle_alpha  89.97295
_cell_angle_beta   100.40413
_cell_angle_gamma 90.032339
loop_
_atom_site_label
_atom_site_type_symbol
_atom_site_fract_x
_atom_site_fract_y
_atom_site_fract_z
_atom_type_partial_charge
C0 C 0.09119 0.2488 0.39033 0.0
C1 C 0.95523 0.27879 0.33222 0.0
O2 O 0.09165 0.29573 0.38134 0.0
Zn3 Zn 0.04621 0.34227 0.35476 0.0
O4 O 0.05809 0.21745 0.38314 0.0
Zn5 Zn 0.02474 0.2658 0.36128 0.0
O6 O 0.06822 0.27074 0.33486 0.0
O7 O 0.08406 0.3561 0.33191 0.0
O8 O 0.96779 0.239 0.34527 0.0
O9 O 0.98094 0.32031 0.33378 0.0
O10 O 0.03287 0.40269 0.37287 0.0
O11 O 0.00816 0.3268 0.38517 0.0
C12 C 0.08858 0.30821 0.3256 0.0
C13 C 0.01408 0.37742 0.3876 0.0
C14 C 0.40271 0.30983 0.67032 0.0
C15 C 0.47685 0.37867 0.60812 0.0
O16 O 0.423 0.27232 0.66107 0.0
Zn17 Zn 0.46627 0.26721 0.63461 0.0
O18 O 0.40718 0.3577 0.66394 0.0
Zn19 Zn 0.4448 0.34375 0.64102 0.0
O20 O 0.39922 0.29698 0.61461 0.0
O21 O 0.43274 0.21871 0.61286 0.0
O22 O 0.458 0.40402 0.62279 0.0
O23 O 0.48278 0.32808 0.61063 0.0
O24 O 0.5233 0.2406 0.65059 0.0
O25 O 0.51021 0.32207 0.66187 0.0
C26 C 0.39959 0.24999 0.60569 0.0
C27 C 0.53595 0.28062 0.66348 0.0
C28 C 0.90422 0.69833 0.66989 0.0
C29 C 0.97832 0.62956 0.60765 0.0
O30 O 0.90856 0.6505 0.66344 0.0
Zn31 Zn 0.94633 0.66449 0.64058 0.0
O32 O 0.9246 0.73586 0.66067 0.0
Zn33 Zn 0.96794 0.74098 0.63419 0.0
O34 O 0.93459 0.78959 0.61244 0.0
O35 O 0.90091 0.71136 0.61413 0.0
O36 O 0.98433 0.68015 0.61016 0.0
O37 O 0.9595 0.60422 0.62235 0.0
O38 O 0.01169 0.68614 0.66155 0.0
O39 O 0.025 0.76752 0.6502 0.0
C40 C 0.90142 0.75836 0.60522 0.0
C41 C 0.03749 0.72758 0.66317 0.0
C42 C 0.45655 0.72547 0.33236 0.0
C43 C 0.59284 0.75686 0.3901 0.0
O44 O 0.46911 0.76561 0.34518 0.0
Zn45 Zn 0.52619 0.73925 0.36122 0.0
O46 O 0.48237 0.68408 0.33404 0.0
Zn47 Zn 0.54781 0.66271 0.35494 0.0
O48 O 0.53473 0.60256 0.37326 0.0
O49 O 0.5098 0.67854 0.38531 0.0
O50 O 0.5933 0.70979 0.38127 0.0
O51 O 0.55962 0.788 0.38288 0.0
O52 O 0.5695 0.734 0.33477 0.0
O53 O 0.58546 0.64862 0.33205 0.0
C54 C 0.51583 0.62798 0.3879 0.0
C55 C 0.58986 0.69644 0.32559 0.0
C56 C 0.58666 0.81306 0.82484 0.0
C57 C 0.50988 0.87808 0.88685 0.0
O58 O 0.56813 0.77459 0.83442 0.0
Zn59 Zn 0.52578 0.76686 0.86103 0.0
O60 O 0.58019 0.86069 0.83091 0.0
Zn61 Zn 0.54301 0.84505 0.85401 0.0
O62 O 0.59012 0.8028 0.8812 0.0
O63 O 0.56268 0.72117 0.88305 0.0
O64 O 0.52677 0.9046 0.87175 0.0
O65 O 0.50652 0.8271 0.88474 0.0
O66 O 0.4698 0.73626 0.84536 0.0
O67 O 0.47871 0.81858 0.8337 0.0
C68 C 0.59291 0.75598 0.89045 0.0
C69 C 0.45503 0.77547 0.83237 0.0
C70 C 0.91022 0.81279 0.1725 0.0
C71 C 0.98204 0.87771 0.1087 0.0
O72 O 0.92796 0.77438 0.1625 0.0
Zn73 Zn 0.96827 0.76666 0.1349 0.0
O74 O 0.91634 0.86051 0.16639 0.0
Zn75 Zn 0.95139 0.84473 0.14244 0.0
O76 O 0.90197 0.8018 0.11665 0.0
O77 O 0.92991 0.7209 0.11351 0.0
O78 O 0.96618 0.90414 0.12414 0.0
O79 O 0.98546 0.82675 0.11075 0.0
O80 O 0.02502 0.73627 0.14974 0.0
O81 O 0.01624 0.81814 0.16193 0.0
C82 C 0.89846 0.75503 0.10735 0.0
C83 C 0.04006 0.77524 0.16282 0.0
C84 C 0.48251 0.12612 0.10879 0.0
C85 C 0.40627 0.1913 0.17098 0.0
O86 O 0.46575 0.09964 0.12394 0.0
Zn87 Zn 0.44965 0.15923 0.14171 0.0
O88 O 0.48588 0.17711 0.11088 0.0
Zn89 Zn 0.46683 0.23739 0.13461 0.0
O90 O 0.52287 0.26801 0.15016 0.0
O91 O 0.51405 0.18576 0.16192 0.0
O92 O 0.42473 0.22973 0.16134 0.0
O93 O 0.41265 0.14366 0.1649 0.0
O94 O 0.40235 0.20146 0.11459 0.0
O95 O 0.4298 0.28306 0.11265 0.0
C96 C 0.53772 0.22887 0.16317 0.0
C97 C 0.39951 0.24827 0.10533 0.0
C98 C 0.95242 0.2294 0.83291 0.0
C99 C 0.09393 0.2495 0.88843 0.0
O100 O 0.96743 0.26832 0.84603 0.0
Zn101 Zn 0.02418 0.23792 0.86085 0.0
O102 O 0.97626 0.18652 0.83376 0.0
Zn103 Zn 0.04112 0.15991 0.85324 0.0
O104 O 0.02634 0.10038 0.87149 0.0
O105 O 0.00698 0.17769 0.88493 0.0
O106 O 0.09047 0.20278 0.87909 0.0
O107 O 0.06247 0.28362 0.88229 0.0
O108 O 0.06454 0.23042 0.83326 0.0
O109 O 0.07622 0.14432 0.82929 0.0
C110 C 0.01043 0.12672 0.88694 0.0
C111 C 0.08232 0.19209 0.82323 0.0
C112 C 0.01377 0.45954 0.41246 0.0
C113 C 0.0041 0.4049 0.40886 0.0
C114 C 0.01004 0.484 0.43378 0.0
C115 C 0.01213 0.45148 0.49632 0.0
H116 H 0.96705 0.59596 0.49938 0.0
C117 C 0.9786 0.54757 0.58272 0.0
C118 C 0.98825 0.6022 0.58635 0.0
C119 C 0.98235 0.52319 0.56139 0.0
C120 C 0.98033 0.55583 0.49886 0.0
H121 H 0.98113 0.33367 0.42465 0.0
H122 H 0.97397 0.37651 0.46167 0.0
H123 H 0.96677 0.55457 0.46121 0.0
H124 H 0.01117 0.67352 0.57061 0.0
H125 H 0.01836 0.63081 0.53356 0.0
H126 H 0.0257 0.45275 0.53397 0.0
C127 C 0.98525 0.40025 0.44813 0.0
C128 C 0.98004 0.53203 0.47695 0.0
C129 C 0.98893 0.3758 0.42679 0.0
C130 C 0.00339 0.63139 0.56844 0.0
C131 C 0.00709 0.60701 0.54708 0.0
C132 C 0.01243 0.47529 0.51823 0.0
C133 C -0.00344 0.45443 0.45206 0.0
C134 C 0.99591 0.47952 0.47538 0.0
C135 C 0.99582 0.55283 0.54312 0.0
C136 C -0.00346 0.52778 0.5198 0.0
H137 H 0.02568 0.48318 0.39907 0.0
H138 H 0.01936 0.52567 0.43623 0.0
H139 H 0.02542 0.41135 0.4958 0.0
H140 H 0.96671 0.52387 0.59609 0.0
H141 H 0.97305 0.48152 0.55891 0.0
C142 C 0.49049 0.62999 0.42703 0.0
C143 C 0.50573 0.60072 0.40918 0.0
C144 C 0.48655 0.60569 0.44837 0.0
C145 C 0.53164 0.49134 0.48589 0.0
H146 H 0.43316 0.52504 0.51914 0.0
C147 C 0.50229 0.37686 0.56901 0.0
C148 C 0.48701 0.40605 0.58687 0.0
C149 C 0.50627 0.40126 0.5477 0.0
C150 C 0.46125 0.51572 0.51024 0.0
H151 H 0.52694 0.52224 0.39949 0.0
H152 H 0.51939 0.47977 0.43653 0.0
H153 H 0.43396 0.56495 0.48075 0.0
H154 H 0.46577 0.48447 0.59662 0.0
H155 H 0.47341 0.52711 0.55963 0.0
H156 H 0.55893 0.44211 0.51538 0.0
C157 C 0.51133 0.5218 0.4342 0.0
C158 C 0.46163 0.53853 0.48818 0.0
C159 C 0.51525 0.54608 0.41286 0.0
C160 C 0.4775 0.4607 0.58324 0.0
C161 C 0.48147 0.48508 0.56192 0.0
C162 C 0.53126 0.46853 0.50795 0.0
C163 C 0.49776 0.55152 0.45239 0.0
C164 C 0.4968 0.5266 0.47571 0.0
C165 C 0.49508 0.45544 0.54372 0.0
C166 C 0.49608 0.48044 0.52042 0.0
H167 H 0.48304 0.6722 0.42485 0.0
H168 H 0.47632 0.6299 0.46204 0.0
H169 H 0.55972 0.48201 0.47699 0.0
H170 H 0.50974 0.33465 0.57116 0.0
H171 H 0.51653 0.3771 0.53402 0.0
C172 C 0.50423 0.12956 0.06881 0.0
C173 C 0.49231 0.09938 0.08732 0.0
C174 C 0.50703 0.10555 0.04726 0.0
C175 C 0.51541 0.97453 0.01822 0.0
H176 H 0.46085 0.05132 0.96186 0.0
C177 C 0.48799 0.87455 0.92679 0.0
C178 C 0.49996 0.90477 0.90831 0.0
C179 C 0.4851 0.89853 0.94834 0.0
C180 C 0.4766 0.02951 0.9774 0.0
H181 H 0.47573 0.01971 0.09787 0.0
H182 H 0.48056 0.97796 0.06036 0.0
H183 H 0.46314 0.09231 0.00029 0.0
H184 H 0.51651 0.98449 0.89779 0.0
H185 H 0.51152 0.02616 0.93529 0.0
H186 H 0.52888 0.91173 0.99533 0.0
C187 C 0.488 0.02017 0.06252 0.0
C188 C 0.47805 0.05309 -0.00054 0.0
C189 C 0.48514 0.04419 0.08405 0.0
C190 C 0.50707 0.95997 0.91159 0.0
C191 C 0.50412 0.98395 0.93312 0.0
C192 C 0.51396 0.95094 0.99616 0.0
C193 C 0.49807 0.05074 0.04368 0.0
C194 C 0.4975 0.02594 0.02017 0.0
C195 C 0.49402 0.95334 0.95194 0.0
C196 C 0.49453 0.97811 0.97545 0.0
H197 H 0.51 0.17215 0.07067 0.0
H198 H 0.51569 0.13012 0.03328 0.0
H199 H 0.53117 0.95272 0.03376 0.0
H200 H 0.48227 0.83196 0.92492 0.0
H201 H 0.47642 0.87392 0.9623 0.0
C202 C 0.00325 0.87463 0.0686 0.0
C203 C 0.9913 0.90459 0.08714 0.0
C204 C 0.00616 0.8989 0.0471 0.0
C205 C 0.96319 0.01629 0.01105 0.0
H206 H 0.05556 0.9768 0.97473 0.0
C207 C 0.98913 0.12961 0.92702 0.0
C208 C 0.00115 0.09973 0.90847 0.0
C209 C 0.98619 0.10526 0.94849 0.0
C210 C 0.02914 0.98778 0.9845 0.0
H211 H 0.97489 0.98415 0.09787 0.0
H212 H 0.98067 0.02651 0.06056 0.0
H213 H 0.05676 0.93662 0.01325 0.0
H214 H 0.01764 0.02024 0.8977 0.0
H215 H 0.0118 0.97773 0.93497 0.0
H216 H 0.93557 0.06745 0.9823 0.0
C217 C 0.98694 0.98403 0.06247 0.0
C218 C 0.02991 0.96481 0.00663 0.0
C219 C 0.98405 0.95978 0.08396 0.0
C220 C 0.00843 0.04454 0.91161 0.0
C221 C 0.0055 0.02021 0.93308 0.0
C222 C 0.96242 0.03926 0.98891 0.0
C223 C -0.00281 0.95372 0.04362 0.0
C224 C -0.00303 0.9788 0.02021 0.0
C225 C 0.99519 0.05044 0.95194 0.0
C226 C 0.99537 0.02529 0.97534 0.0
H227 H 0.00887 0.832 0.07037 0.0
H228 H 0.01381 0.87423 0.03293 0.0
H229 H 0.93677 0.02728 0.02082 0.0
H230 H 0.98348 0.17224 0.92527 0.0
H231 H 0.97849 0.12987 0.96267 0.0
C232 C 0.59743 0.19196 0.19548 0.0
C233 C 0.58151 0.23367 0.17989 0.0
C234 C 0.63827 0.19745 0.21162 0.0
C235 C 0.7175 0.29962 0.2418 0.0
H236 H 0.80177 0.18072 0.25419 0.0
C237 C 0.89797 0.3184 0.29938 0.0
C238 C 0.91191 0.27612 0.31501 0.0
C239 C 0.85773 0.31433 0.28264 0.0
C240 C 0.77838 0.21416 0.25109 0.0
H241 H 0.59636 0.31361 0.16883 0.0
H242 H 0.66766 0.32281 0.19673 0.0
H243 H 0.73154 0.17081 0.22541 0.0
H244 H 0.89406 0.19683 0.32559 0.0
H245 H 0.82407 0.19011 0.2967 0.0
H246 H 0.76443 0.34292 0.26753 0.0
C247 C 0.64828 0.2862 0.19676 0.0
C248 C 0.73812 0.20844 0.23461 0.0
C249 C 0.60751 0.28075 0.18065 0.0
C250 C 0.88451 0.23009 0.31375 0.0
C251 C 0.84448 0.22603 0.29707 0.0
C252 C 0.75782 0.30535 0.25828 0.0
C253 C 0.66405 0.24475 0.2125 0.0
C254 C 0.70711 0.25102 0.22985 0.0
C255 C 0.83077 0.26787 0.2812 0.0
C256 C 0.78858 0.26257 0.2632 0.0
H257 H 0.57814 0.15525 0.19539 0.0
H258 H 0.64923 0.16499 0.22369 0.0
H259 H 0.69403 0.33298 0.23877 0.0
H260 H 0.91835 0.35435 0.29987 0.0
H261 H 0.8482 0.34712 0.27054 0.0
C262 C 0.59337 0.32077 0.69608 0.0
C263 C 0.57953 0.27841 0.68048 0.0
C264 C 0.63402 0.31727 0.71255 0.0
C265 C 0.74375 0.24404 0.72519 0.0
H266 H 0.74511 0.2892 0.78944 0.0
C267 C 0.89306 0.19329 0.80029 0.0
C268 C 0.90856 0.2344 0.81628 0.0
C269 C 0.85263 0.1993 0.78391 0.0
C270 C 0.74539 0.2769 0.77151 0.0
H271 H 0.59772 0.19934 0.66986 0.0
H272 H 0.66798 0.1932 0.69855 0.0
H273 H 0.67571 0.30036 0.76007 0.0
H274 H 0.89336 0.31375 0.82783 0.0
H275 H 0.8231 0.32421 0.79922 0.0
H276 H 0.81331 0.22034 0.73662 0.0
C277 C 0.64787 0.22937 0.69793 0.0
C278 C 0.70568 0.28342 0.75468 0.0
C279 C 0.60736 0.23281 0.68156 0.0
C280 C 0.88239 0.28125 0.81578 0.0
C281 C 0.84196 0.28719 0.79945 0.0
C282 C 0.7834 0.23748 0.742 0.0
C283 C 0.66164 0.27144 0.71367 0.0
C284 C 0.70435 0.26677 0.73136 0.0
C285 C 0.8268 0.24647 0.78322 0.0
C286 C 0.78461 0.25359 0.76538 0.0
H287 H 0.57271 0.35645 0.69569 0.0
H288 H 0.64396 0.35058 0.72429 0.0
H289 H 0.74406 0.2316 0.70728 0.0
H290 H 0.91236 0.15666 0.80025 0.0
H291 H 0.8415 0.1669 0.77183 0.0
C292 C 0.09473 0.68752 0.6959 0.0
C293 C 0.08083 0.73 0.68037 0.0
C294 C 0.13499 0.69135 0.71264 0.0
C295 C 0.21446 0.79108 0.74443 0.0
H296 H 0.29869 0.67208 0.75646 0.0
C297 C 0.3954 0.81264 0.80009 0.0
C298 C 0.41129 0.77077 0.8156 0.0
C299 C 0.35458 0.8073 0.78392 0.0
C300 C 0.27526 0.70549 0.75351 0.0
H301 H 0.0988 0.8094 0.66997 0.0
H302 H 0.16882 0.81571 0.69887 0.0
H303 H 0.22827 0.66252 0.72768 0.0
H304 H 0.39642 0.69068 0.82647 0.0
H305 H 0.32514 0.68175 0.79852 0.0
H306 H 0.26135 0.8341 0.77021 0.0
C307 C 0.14836 0.77981 0.69842 0.0
C308 C 0.23492 0.69997 0.73702 0.0
C309 C 0.10831 0.77599 0.68173 0.0
C310 C 0.38529 0.72367 0.81471 0.0
C311 C 0.34453 0.71837 0.79858 0.0
C312 C 0.25473 0.79658 0.76092 0.0
C313 C 0.16201 0.73777 0.71419 0.0
C314 C 0.20421 0.74282 0.7322 0.0
C315 C 0.32878 0.76 0.78293 0.0
C316 C 0.2857 0.75394 0.76558 0.0
H317 H 0.0743 0.65159 0.69533 0.0
H318 H 0.14448 0.65841 0.72466 0.0
H319 H 0.19111 0.82456 0.74141 0.0
H320 H 0.41469 0.84936 0.80027 0.0
H321 H 0.34364 0.8399 0.77192 0.0
C322 C 0.39921 0.68495 0.29982 0.0
C323 C 0.41296 0.72745 0.31534 0.0
C324 C 0.35856 0.68823 0.28334 0.0
C325 C 0.24867 0.76115 0.27059 0.0
H326 H 0.24738 0.71557 0.20639 0.0
C327 C 0.09941 0.81148 0.19541 0.0
C328 C 0.08391 0.7703 0.17946 0.0
C329 C 0.13983 0.80553 0.2118 0.0
C330 C 0.24708 0.72798 0.22431 0.0
H331 H 0.3946 0.80656 0.32585 0.0
H332 H 0.32433 0.81233 0.29714 0.0
H333 H 0.3168 0.70467 0.23579 0.0
H334 H 0.09912 0.69088 0.16798 0.0
H335 H 0.16938 0.68053 0.19662 0.0
H336 H 0.17909 0.78471 0.25911 0.0
C337 C 0.34452 0.7762 0.29782 0.0
C338 C 0.2868 0.72162 0.24115 0.0
C339 C 0.38503 0.77298 0.3142 0.0
C340 C 0.11009 0.72343 0.18001 0.0
C341 C 0.15051 0.71756 0.19635 0.0
C342 C 0.20902 0.76756 0.25376 0.0
C343 C 0.33083 0.73399 0.28215 0.0
C344 C 0.28811 0.73844 0.26445 0.0
C345 C 0.16566 0.75835 0.21255 0.0
C346 C 0.20784 0.75131 0.2304 0.0
H347 H 0.41995 0.64931 0.30027 0.0
H348 H 0.34868 0.65481 0.27165 0.0
H349 H 0.24833 0.77371 0.28848 0.0
H350 H 0.08011 0.84812 0.19542 0.0
H351 H 0.15095 0.83798 0.22385 0.0
C352 C 0.35389 0.16077 0.19788 0.0
C353 C 0.37595 0.2026 0.18813 0.0
C354 C 0.32326 0.17157 0.213 0.0
C355 C 0.28875 0.27639 0.25141 0.0
H356 H 0.17534 0.19638 0.24362 0.0
C357 C 0.14177 0.33671 0.29883 0.0
C358 C 0.11897 0.29562 0.30862 0.0
C359 C 0.17257 0.32489 0.28394 0.0
C360 C 0.20705 0.21869 0.2462 0.0
H361 H 0.38351 0.28864 0.18699 0.0
H362 H 0.32996 0.30743 0.21325 0.0
H363 H 0.23109 0.17647 0.21864 0.0
H364 H 0.11021 0.20979 0.31007 0.0
H365 H 0.1642 0.18918 0.28419 0.0
H366 H 0.26474 0.31863 0.27895 0.0
C367 C 0.33665 0.26622 0.20937 0.0
C368 C 0.23905 0.20725 0.2319 0.0
C369 C 0.36724 0.25544 0.19422 0.0
C370 C 0.12707 0.24244 0.30279 0.0
C371 C 0.15792 0.23062 0.28787 0.0
C372 C 0.25677 0.28781 0.26572 0.0
C373 C 0.31398 0.22444 0.21879 0.0
C374 C 0.28026 0.23604 0.23429 0.0
C375 C 0.18139 0.2717 0.27845 0.0
C376 C 0.21546 0.25922 0.26325 0.0
H377 H 0.35986 0.11959 0.19362 0.0
H378 H 0.30692 0.13841 0.22022 0.0
H379 H 0.32043 0.29877 0.25398 0.0
H380 H 0.13624 0.37814 0.30285 0.0
H381 H 0.18944 0.35756 0.27667 0.0
C382 C 0.3642 0.24403 0.69312 0.0
C383 C 0.37234 0.29723 0.6873 0.0
C384 C 0.33325 0.23217 0.70797 0.0
C385 C 0.27298 0.29184 0.75242 0.0
H386 H 0.18838 0.17439 0.73574 0.0
C387 C 0.12091 0.25668 0.79998 0.0
C388 C 0.1122 0.20371 0.8059 0.0
C389 C 0.15183 0.26782 0.78504 0.0
C390 C 0.21205 0.20698 0.74079 0.0
H391 H 0.35483 0.37972 0.6929 0.0
H392 H 0.30082 0.35901 0.71863 0.0
H393 H 0.2454 0.19381 0.71142 0.0
H394 H 0.1285 0.12085 0.8003 0.0
H395 H 0.18259 0.14032 0.7744 0.0
H396 H 0.2397 0.30502 0.78178 0.0
C397 C 0.31863 0.32644 0.7119 0.0
C398 C 0.2448 0.21806 0.72686 0.0
C399 C 0.34949 0.3383 0.69704 0.0
C400 C 0.1343 0.16211 0.79607 0.0
C401 C 0.16521 0.17326 0.78113 0.0
C402 C 0.24026 0.28074 0.76634 0.0
C403 C 0.3098 0.27322 0.71738 0.0
C404 C 0.27561 0.26069 0.73249 0.0
C405 C 0.17478 0.22628 0.77566 0.0
C406 C 0.20932 0.23825 0.76068 0.0
H407 H 0.38126 0.21143 0.68596 0.0
H408 H 0.32772 0.19079 0.7121 0.0
H409 H 0.29662 0.32446 0.75746 0.0
H410 H 0.10439 0.2897 0.80717 0.0
H411 H 0.15782 0.30907 0.78088 0.0
C412 C 0.63942 0.8437 0.79815 0.0
C413 C 0.61719 0.80184 0.80777 0.0
C414 C 0.67029 0.83297 0.78315 0.0
C415 C 0.74465 0.72588 0.76732 0.0
H416 H 0.74856 0.81426 0.71265 0.0
C417 C 0.85134 0.66961 0.69678 0.0
C418 C 0.87409 0.71078 0.68701 0.0
C419 C 0.82097 0.68128 0.71192 0.0
C420 C 0.74832 0.7896 0.72801 0.0
H421 H 0.60934 0.71581 0.8087 0.0
H422 H 0.66272 0.69717 0.78231 0.0
H423 H 0.69253 0.83319 0.73758 0.0
H424 H 0.88324 0.79658 0.68586 0.0
H425 H 0.83054 0.81689 0.71249 0.0
H426 H 0.80035 0.68223 0.75774 0.0
C427 C 0.65683 0.7383 0.78667 0.0
C428 C 0.71613 0.80041 0.7423 0.0
C429 C 0.62595 0.74903 0.80168 0.0
C430 C 0.86626 0.76389 0.69304 0.0
C431 C 0.83578 0.77557 0.70817 0.0
C432 C 0.7768 0.71507 0.75304 0.0
C433 C 0.67971 0.78011 0.77739 0.0
C434 C 0.71382 0.7686 0.7621 0.0
C435 C 0.81252 0.73441 0.71767 0.0
C436 C 0.77898 0.74671 0.73318 0.0
H437 H 0.63359 0.88485 0.80252 0.0
H438 H 0.68762 0.86611 0.77652 0.0
H439 H 0.7444 0.70116 0.78267 0.0
H440 H 0.85643 0.62824 0.69247 0.0
H441 H 0.80326 0.64862 0.71868 0.0
C442 C 0.85831 0.84302 0.19965 0.0
C443 C 0.88037 0.80132 0.18986 0.0
C444 C 0.82741 0.83202 0.21461 0.0
C445 C 0.75229 0.72475 0.22953 0.0
H446 H 0.74722 0.81205 0.28435 0.0
C447 C 0.64308 0.66777 0.29891 0.0
C448 C 0.62023 0.70892 0.3086 0.0
C449 C 0.67394 0.67951 0.28403 0.0
C450 C 0.7478 0.7877 0.26894 0.0
H451 H 0.88811 0.71532 0.18869 0.0
H452 H 0.83471 0.6962 0.21502 0.0
H453 H 0.80425 0.83123 0.26001 0.0
H454 H 0.61133 0.79474 0.30984 0.0
H455 H 0.66488 0.81516 0.28367 0.0
H456 H 0.69592 0.68117 0.23847 0.0
C457 C 0.84072 0.73741 0.21081 0.0
C458 C 0.78056 0.79864 0.255 0.0
C459 C 0.87162 0.74841 0.19584 0.0
C460 C 0.62838 0.76207 0.30272 0.0
C461 C 0.65934 0.77381 0.28786 0.0
C462 C 0.71957 0.7138 0.24347 0.0
C463 C 0.81781 0.77905 0.22015 0.0
C464 C 0.78326 0.76724 0.23515 0.0
C465 C 0.68278 0.73268 0.27849 0.0
C466 C 0.71696 0.74508 0.26337 0.0
H467 H 0.86413 0.88425 0.19537 0.0
H468 H 0.81006 0.86503 0.22131 0.0
H469 H 0.75284 0.70037 0.21412 0.0
H470 H 0.63773 0.62638 0.3031 0.0
H471 H 0.69175 0.64688 0.27734 0.0
C472 C 0.37116 0.19082 0.57144 0.0
C473 C 0.36394 0.23431 0.58569 0.0
C474 C 0.34058 0.18035 0.55065 0.0
C475 C 0.22491 0.20568 0.51832 0.0
H476 H 0.28111 0.20519 0.4627 0.0
C477 C 0.16648 0.26405 0.41664 0.0
C478 C 0.1266 0.23335 0.41048 0.0
C479 C 0.19718 0.25335 0.43738 0.0
C480 C 0.26508 0.20476 0.47811 0.0
H481 H 0.3177 0.29888 0.59014 0.0
H482 H 0.26385 0.27997 0.55392 0.0
H483 H 0.32938 0.20527 0.50175 0.0
H484 H 0.08848 0.16602 0.42067 0.0
H485 H 0.14189 0.14808 0.45713 0.0
H486 H 0.16062 0.20656 0.49466 0.0
C487 C 0.29333 0.25428 0.55882 0.0
C488 C 0.29257 0.20446 0.50038 0.0
C489 C 0.32423 0.26524 0.57945 0.0
C490 C 0.11894 0.19039 0.42494 0.0
C491 C 0.14931 0.1802 0.44584 0.0
C492 C 0.19742 0.20519 0.49604 0.0
C493 C 0.30191 0.21265 0.54396 0.0
C494 C 0.27269 0.2061 0.52064 0.0
C495 C 0.18819 0.21223 0.45242 0.0
C496 C 0.21732 0.20592 0.47578 0.0
H497 H 0.40146 0.16623 0.57578 0.0
H498 H 0.34768 0.14782 0.53951 0.0
H499 H 0.2089 0.20681 0.53372 0.0
H500 H 0.17333 0.29729 0.4058 0.0
H501 H 0.22684 0.27883 0.44219 0.0
C502 C 0.82602 0.7435 0.57896 0.0
C503 C 0.86599 0.77405 0.58512 0.0
C504 C 0.79529 0.75438 0.55826 0.0
C505 C 0.72742 0.80315 0.51757 0.0
H506 H 0.78356 0.80097 0.46195 0.0
C507 C 0.62118 0.81636 0.42425 0.0
C508 C 0.62848 0.77278 0.41006 0.0
C509 C 0.65179 0.82707 0.44501 0.0
C510 C 0.76755 0.80216 0.47735 0.0
H511 H 0.90422 0.84132 0.57497 0.0
H512 H 0.85075 0.85959 0.53857 0.0
H513 H 0.83186 0.80131 0.50099 0.0
H514 H 0.67487 0.70832 0.40569 0.0
H515 H 0.72874 0.72764 0.44185 0.0
H516 H 0.66311 0.80256 0.49394 0.0
C517 C 0.84329 0.82744 0.54984 0.0
C518 C 0.79506 0.80269 0.49962 0.0
C519 C 0.87369 0.81707 0.5707 0.0
C520 C 0.66828 0.74201 0.41633 0.0
C521 C 0.6992 0.75321 0.43693 0.0
C522 C 0.69992 0.8034 0.4953 0.0
C523 C 0.80432 0.79554 0.54324 0.0
C524 C 0.77519 0.80198 0.51989 0.0
C525 C 0.69054 0.79493 0.45173 0.0
C526 C 0.71977 0.80169 0.47504 0.0
H527 H 0.81913 0.71022 0.58977 0.0
H528 H 0.76557 0.729 0.55343 0.0
H529 H 0.71141 0.80274 0.53298 0.0
H530 H 0.59082 0.84083 0.41988 0.0
H531 H 0.64462 0.85966 0.4561 0.0
C532 C 0.85553 0.69218 0.07758 0.0
C533 C 0.85993 0.74285 0.08818 0.0
C534 C 0.82221 0.68295 0.05762 0.0
C535 C 0.71854 0.74294 0.02104 0.0
H536 H 0.7611 0.67091 0.96962 0.0
C537 C 0.64913 0.78804 0.92478 0.0
C538 C 0.62746 0.74516 0.9116 0.0
C539 C 0.67612 0.77912 0.94673 0.0
C540 C 0.7487 0.69042 0.98397 0.0
H541 H 0.83164 0.82285 0.08681 0.0
H542 H 0.77466 0.80731 0.05193 0.0
H543 H 0.80841 0.67 0.00891 0.0
H544 H 0.61922 0.65907 0.91038 0.0
H545 H 0.6681 0.6435 0.94878 0.0
H546 H 0.66028 0.76621 0.99562 0.0
C547 C 0.79616 0.77424 0.05914 0.0
C548 C 0.7755 0.6897 0.00646 0.0
C549 C 0.82915 0.78333 0.0791 0.0
C550 C 0.63546 0.69285 0.92021 0.0
C551 C 0.66326 0.68387 0.94208 0.0
C552 C 0.69223 0.74433 -0.00146 0.0
C553 C 0.79283 0.72428 0.04788 0.0
C554 C 0.76129 0.71732 0.0251 0.0
C555 C 0.68259 0.72717 0.95571 0.0
C556 C 0.7077 0.71926 0.97978 0.0
H557 H 0.87859 0.66004 0.08428 0.0
H558 H 0.82008 0.64381 0.04956 0.0
H559 H 0.70608 0.76348 0.03511 0.0
H560 H 0.64352 0.8288 0.91868 0.0
H561 H 0.6912 0.81295 0.95698 0.0
C562 C 0.35683 0.31141 0.07562 0.0
C563 C 0.36481 0.2591 0.08424 0.0
C564 C 0.32894 0.32039 0.05378 0.0
C565 C 0.29992 0.26002 0.99736 0.0
H566 H 0.18365 0.33418 0.98698 0.0
C567 C 0.16319 0.22116 0.9167 0.0
C568 C 0.13241 0.26165 0.90763 0.0
C569 C 0.19613 0.2302 0.93669 0.0
C570 C 0.21658 0.31453 0.98943 0.0
H571 H 0.3486 0.17548 0.07721 0.0
H572 H 0.30075 0.19134 0.03896 0.0
H573 H 0.2309 0.33322 0.02628 0.0
H574 H 0.11369 0.34442 0.91158 0.0
H575 H 0.1721 0.36056 0.94635 0.0
H576 H 0.28616 0.24099 0.96078 0.0
C577 C 0.31591 0.22517 0.04918 0.0
C578 C 0.24335 0.31378 0.01194 0.0
C579 C 0.343 0.21624 0.07111 0.0
C580 C 0.13675 0.31228 0.91827 0.0
C581 C 0.17001 0.32145 0.93825 0.0
C582 C 0.27364 0.26145 0.97485 0.0
C583 C 0.30949 0.27711 0.04019 0.0
C584 C 0.28438 0.28501 0.01612 0.0
C585 C 0.19939 0.28011 0.94798 0.0
C586 C 0.23088 0.28701 0.97079 0.0
H587 H 0.37317 0.34518 0.08542 0.0
H588 H 0.32413 0.36076 0.04707 0.0
H589 H 0.3319 0.2382 0.00028 0.0
H590 H 0.16074 0.18167 0.90896 0.0
H591 H 0.21763 0.19713 0.94389 0.0
loop_
_geom_bond_atom_site_label_1
_geom_bond_atom_site_label_2
_geom_bond_distance
_geom_bond_site_symmetry_2
_ccdc_geom_bond_type
C0 O2 1.247 . S
C0 O4 1.258 . S
C1 O8 1.247 . S
C1 O9 1.258 1_655 S
O2 C0 1.247 . S
O2 Zn3 2.028 . S
Zn3 O2 2.028 . S
Zn3 O7 2.035 . S
Zn3 O9 2.035 . S
Zn3 O10 2.028 . S
O4 C0 1.258 . S
O4 Zn5 2.035 . S
Zn5 O4 2.035 . S
Zn5 O6 2.028 . S
Zn5 O8 2.028 1_455 S
Zn5 O11 2.035 . S
O6 Zn5 2.028 . S
O6 C12 1.247 . S
O7 Zn3 2.035 . S
O7 C12 1.258 . S
O8 C1 1.247 . S
O8 Zn5 2.028 1_655 S
O9 C1 1.258 1_455 S
O9 Zn3 2.035 . S
O10 Zn3 2.028 . S
O10 C13 1.247 . S
O11 Zn5 2.035 . S
O11 C13 1.258 . S
C12 O6 1.247 . S
C12 O7 1.258 . S
C13 O10 1.247 . S
C13 O11 1.258 . S
C14 O16 1.247 . S
C14 O18 1.258 . S
C15 O22 1.247 . S
C15 O23 1.258 . S
O16 C14 1.247 . S
O16 Zn17 2.028 . S
Zn17 O16 2.028 . S
Zn17 O21 2.035 . S
Zn17 O23 2.035 . S
Zn17 O24 2.028 . S
O18 C14 1.258 . S
O18 Zn19 2.035 . S
Zn19 O18 2.035 . S
Zn19 O20 2.028 . S
Zn19 O22 2.028 . S
Zn19 O25 2.035 . S
O20 Zn19 2.028 . S
O20 C26 1.247 . S
O21 Zn17 2.035 . S
O21 C26 1.258 . S
O22 C15 1.247 . S
O22 Zn19 2.028 . S
O23 C15 1.258 . S
O23 Zn17 2.035 . S
O24 Zn17 2.028 . S
O24 C27 1.247 . S
O25 Zn19 2.035 . S
O25 C27 1.258 . S
C26 O20 1.247 . S
C26 O21 1.258 . S
C27 O24 1.247 . S
C27 O25 1.258 . S
C28 O30 1.247 . S
C28 O32 1.258 . S
C29 O36 1.247 . S
C29 O37 1.258 . S
O30 C28 1.247 . S
O30 Zn31 2.028 . S
Zn31 O30 2.028 . S
Zn31 O35 2.035 . S
Zn31 O37 2.035 . S
Zn31 O38 2.045 . S
O32 C28 1.258 . S
O32 Zn33 2.035 . S
Zn33 O32 2.035 . S
Zn33 O34 2.028 . S
Zn33 O36 2.028 . S
Zn33 O39 2.035 1_655 S
O34 Zn33 2.028 . S
O34 C40 1.247 . S
O35 Zn31 2.035 . S
O35 C40 1.258 . S
O36 C29 1.247 . S
O36 Zn33 2.028 . S
O37 C29 1.258 . S
O37 Zn31 2.035 . S
O38 Zn31 2.045 . S
O38 C41 1.235 1_655 S
O39 Zn33 2.035 1_455 S
O39 C41 1.258 . S
C40 O34 1.247 . S
C40 O35 1.258 . S
C41 O38 1.235 1_455 S
C41 O39 1.258 . S
C42 O44 1.247 . S
C42 O46 1.258 . S
C43 O50 1.247 . S
C43 O51 1.258 . S
O44 C42 1.247 . S
O44 Zn45 2.028 . S
Zn45 O44 2.028 . S
Zn45 O49 2.035 . S
Zn45 O51 2.035 . S
Zn45 O52 2.028 . S
O46 C42 1.258 . S
O46 Zn47 2.035 . S
Zn47 O46 2.035 . S
Zn47 O48 2.028 . S
Zn47 O50 2.028 . S
Zn47 O53 2.035 . S
O48 Zn47 2.028 . S
O48 C54 1.247 . S
O49 Zn45 2.035 . S
O49 C54 1.258 . S
O50 C43 1.247 . S
O50 Zn47 2.028 . S
O51 C43 1.258 . S
O51 Zn45 2.035 . S
O52 Zn45 2.028 . S
O52 C55 1.247 . S
O53 Zn47 2.035 . S
O53 C55 1.258 . S
C54 O48 1.247 . S
C54 O49 1.258 . S
C55 O52 1.247 . S
C55 O53 1.258 . S
C56 O58 1.247 . S
C56 O60 1.258 . S
C57 O64 1.247 . S
C57 O65 1.258 . S
O58 C56 1.247 . S
O58 Zn59 2.028 . S
Zn59 O58 2.028 . S
Zn59 O63 2.035 . S
Zn59 O65 2.035 . S
Zn59 O66 2.028 . S
O60 C56 1.258 . S
O60 Zn61 2.035 . S
Zn61 O60 2.035 . S
Zn61 O62 2.028 . S
Zn61 O64 2.028 . S
Zn61 O67 2.035 . S
O62 Zn61 2.028 . S
O62 C68 1.247 . S
O63 Zn59 2.035 . S
O63 C68 1.258 . S
O64 C57 1.247 . S
O64 Zn61 2.028 . S
O65 C57 1.258 . S
O65 Zn59 2.035 . S
O66 Zn59 2.028 . S
O66 C69 1.247 . S
O67 Zn61 2.035 . S
O67 C69 1.258 . S
C68 O62 1.247 . S
C68 O63 1.258 . S
C69 O66 1.247 . S
C69 O67 1.258 . S
C70 O72 1.247 . S
C70 O74 1.258 . S
C71 O78 1.247 . S
C71 O79 1.258 . S
O72 C70 1.247 . S
O72 Zn73 2.028 . S
Zn73 O72 2.028 . S
Zn73 O77 2.035 . S
Zn73 O79 2.035 . S
Zn73 O80 2.028 1_655 S
O74 C70 1.258 . S
O74 Zn75 2.035 . S
Zn75 O74 2.035 . S
Zn75 O76 2.028 . S
Zn75 O78 2.028 . S
Zn75 O81 2.035 . S
O76 Zn75 2.028 . S
O76 C82 1.247 . S
O77 Zn73 2.035 . S
O77 C82 1.258 . S
O78 C71 1.247 . S
O78 Zn75 2.028 . S
O79 C71 1.258 . S
O79 Zn73 2.035 . S
O80 Zn73 2.028 1_455 S
O80 C83 1.247 . S
O81 Zn75 2.035 . S
O81 C83 1.258 1_655 S
C82 O76 1.247 . S
C82 O77 1.258 . S
C83 O80 1.247 . S
C83 O81 1.258 1_455 S
C84 O86 1.247 . S
C84 O88 1.258 . S
C85 O92 1.247 . S
C85 O93 1.258 . S
O86 C84 1.247 . S
O86 Zn87 2.028 . S
Zn87 O86 2.028 . S
Zn87 O91 2.035 . S
Zn87 O93 2.035 . S
Zn87 O94 2.028 . S
O88 C84 1.258 . S
O88 Zn89 2.035 . S
Zn89 O88 2.035 . S
Zn89 O90 2.028 . S
Zn89 O92 2.028 . S
Zn89 O95 2.035 . S
O90 Zn89 2.028 . S
O90 C96 1.247 . S
O91 Zn87 2.035 . S
O91 C96 1.258 . S
O92 C85 1.247 . S
O92 Zn89 2.028 . S
O93 C85 1.258 . S
O93 Zn87 2.035 . S
O94 Zn87 2.028 . S
O94 C97 1.247 . S
O95 Zn89 2.035 . S
O95 C97 1.258 . S
C96 O90 1.247 . S
C96 O91 1.258 . S
C97 O94 1.247 . S
C97 O95 1.258 . S
C98 O100 1.247 . S
C98 O102 1.258 1_655 S
C99 O106 1.247 . S
C99 O107 1.258 . S
O100 C98 1.247 . S
O100 Zn101 2.028 1_655 S
Zn101 O100 2.028 1_455 S
Zn101 O105 2.035 . S
Zn101 O107 2.035 . S
Zn101 O108 2.028 . S
O102 C98 1.258 1_455 S
O102 Zn103 2.035 . S
Zn103 O102 2.035 . S
Zn103 O104 2.028 . S
Zn103 O106 2.028 . S
Zn103 O109 2.035 . S
O104 Zn103 2.028 . S
O104 C110 1.247 . S
O105 Zn101 2.035 . S
O105 C110 1.258 . S
O106 C99 1.247 . S
O106 Zn103 2.028 . S
O107 C99 1.258 . S
O107 Zn101 2.035 . S
O108 Zn101 2.028 . S
O108 C111 1.247 . S
O109 Zn103 2.035 . S
O109 C111 1.258 . S
C110 O104 1.247 . S
C110 O105 1.258 . S
C111 O108 1.247 . S
C111 O109 1.258 . S
C112 C113 1.355 . S
C112 C114 1.327 . S
C112 H137 0.950 . S
C113 C112 1.355 . S
C113 C129 1.342 1_455 S
C114 C112 1.327 . S
C114 C133 1.431 . S
C114 H138 0.950 . S
C115 C132 1.574 . S
C115 C134 1.369 1_655 S
C115 H139 0.949 . S
H116 C120 0.949 . S
C117 C118 1.355 . S
C117 C119 1.327 . S
C117 H140 0.950 . S
C118 C117 1.355 . S
C118 C130 1.342 1_655 S
C119 C117 1.327 . S
C119 C135 1.431 . S
C119 H141 0.950 . S
C120 H116 0.949 . S
C120 C128 1.574 . S
C120 C136 1.369 1_455 S
H121 C129 0.950 . S
H122 C127 0.950 . S
H123 C128 0.949 . S
H124 C130 0.950 . S
H125 C131 0.950 . S
H126 C132 0.949 . S
C127 H122 0.950 . S
C127 C129 1.327 . S
C127 C133 1.427 1_655 S
C128 C120 1.574 . S
C128 H123 0.949 . S
C128 C134 1.368 . S
C129 C113 1.342 1_655 S
C129 H121 0.950 . S
C129 C127 1.327 . S
C130 C118 1.342 1_455 S
C130 H124 0.950 . S
C130 C131 1.327 . S
C131 H125 0.950 . S
C131 C130 1.327 . S
C131 C135 1.427 1_455 S
C132 C115 1.574 . S
C132 H126 0.949 . S
C132 C136 1.368 . S
C133 C114 1.431 . S
C133 C127 1.427 1_455 S
C133 C134 1.522 . S
C134 C115 1.369 1_455 S
C134 C128 1.368 . S
C134 C133 1.522 . S
C135 C119 1.431 . S
C135 C131 1.427 1_655 S
C135 C136 1.522 . S
C136 C120 1.369 1_655 S
C136 C132 1.368 . S
C136 C135 1.522 . S
H137 C112 0.950 . S
H138 C114 0.950 . S
H139 C115 0.949 . S
H140 C117 0.950 . S
H141 C119 0.950 . S
C142 C143 1.349 . S
C142 C144 1.327 . S
C142 H167 0.950 . S
C143 C142 1.349 . S
C143 C159 1.349 . S
C144 C142 1.327 . S
C144 C163 1.429 . S
C144 H168 0.950 . S
C145 C162 1.574 . S
C145 C164 1.368 . S
C145 H169 0.949 . S
H146 C150 0.949 . S
C147 C148 1.349 . S
C147 C149 1.327 . S
C147 H170 0.950 . S
C148 C147 1.349 . S
C148 C160 1.349 . S
C149 C147 1.327 . S
C149 C165 1.429 . S
C149 H171 0.950 . S
C150 H146 0.949 . S
C150 C158 1.574 . S
C150 C166 1.368 . S
H151 C159 0.950 . S
H152 C157 0.950 . S
H153 C158 0.949 . S
H154 C160 0.950 . S
H155 C161 0.950 . S
H156 C162 0.949 . S
C157 H152 0.950 . S
C157 C159 1.327 . S
C157 C163 1.429 . S
C158 C150 1.574 . S
C158 H153 0.949 . S
C158 C164 1.368 . S
C159 C143 1.349 . S
C159 H151 0.950 . S
C159 C157 1.327 . S
C160 C148 1.349 . S
C160 H154 0.950 . S
C160 C161 1.327 . S
C161 H155 0.950 . S
C161 C160 1.327 . S
C161 C165 1.429 . S
C162 C145 1.574 . S
C162 H156 0.949 . S
C162 C166 1.368 . S
C163 C144 1.429 . S
C163 C157 1.429 . S
C163 C164 1.523 . S
C164 C145 1.368 . S
C164 C158 1.368 . S
C164 C163 1.523 . S
C165 C149 1.429 . S
C165 C161 1.429 . S
C165 C166 1.523 . S
C166 C150 1.368 . S
C166 C162 1.368 . S
C166 C165 1.523 . S
H167 C142 0.950 . S
H168 C144 0.950 . S
H169 C145 0.949 . S
H170 C147 0.950 . S
H171 C149 0.950 . S
C172 C173 1.349 . S
C172 C174 1.327 . S
C172 H197 0.950 . S
C173 C172 1.349 . S
C173 C189 1.349 . S
C174 C172 1.327 . S
C174 C193 1.429 . S
C174 H198 0.950 . S
C175 C192 1.574 . S
C175 C194 1.368 1_565 S
C175 H199 0.949 . S
H176 C180 0.949 . S
C177 C178 1.349 . S
C177 C179 1.327 . S
C177 H200 0.950 . S
C178 C177 1.349 . S
C178 C190 1.349 . S
C179 C177 1.327 . S
C179 C195 1.429 . S
C179 H201 0.950 . S
C180 H176 0.949 . S
C180 C188 1.574 . S
C180 C196 1.368 1_545 S
H181 C189 0.950 . S
H182 C187 0.950 . S
H183 C188 0.949 . S
H184 C190 0.950 . S
H185 C191 0.950 . S
H186 C192 0.949 . S
C187 H182 0.950 . S
C187 C189 1.327 . S
C187 C193 1.429 . S
C188 C180 1.574 . S
C188 H183 0.949 . S
C188 C194 1.368 1_556 S
C189 C173 1.349 . S
C189 H181 0.950 . S
C189 C187 1.327 . S
C190 C178 1.349 . S
C190 H184 0.950 . S
C190 C191 1.327 . S
C191 H185 0.950 . S
C191 C190 1.327 . S
C191 C195 1.429 . S
C192 C175 1.574 . S
C192 H186 0.949 . S
C192 C196 1.368 1_554 S
C193 C174 1.429 . S
C193 C187 1.429 . S
C193 C194 1.523 . S
C194 C175 1.368 1_545 S
C194 C188 1.368 1_554 S
C194 C193 1.523 . S
C195 C179 1.429 . S
C195 C191 1.429 . S
C195 C196 1.523 . S
C196 C180 1.368 1_565 S
C196 C192 1.368 1_556 S
C196 C195 1.523 . S
H197 C172 0.950 . S
H198 C174 0.950 . S
H199 C175 0.949 . S
H200 C177 0.950 . S
H201 C179 0.950 . S
C202 C203 1.348 . S
C202 C204 1.327 . S
C202 H227 0.950 . S
C203 C202 1.348 . S
C203 C219 1.348 1_655 S
C204 C202 1.327 . S
C204 C223 1.429 . S
C204 H228 0.950 . S
C205 C222 1.574 . S
C205 C224 1.368 1_445 S
C205 H229 0.949 . S
H206 C210 0.949 . S
C207 C208 1.348 . S
C207 C209 1.327 . S
C207 H230 0.950 . S
C208 C207 1.348 . S
C208 C220 1.348 1_455 S
C209 C207 1.327 . S
C209 C225 1.429 . S
C209 H231 0.950 . S
C210 H206 0.949 . S
C210 C218 1.574 . S
C210 C226 1.368 1_665 S
H211 C219 0.950 . S
H212 C217 0.950 . S
H213 C218 0.949 . S
H214 C220 0.950 . S
H215 C221 0.950 . S
H216 C222 0.949 . S
C217 H212 0.950 . S
C217 C219 1.327 . S
C217 C223 1.429 1_455 S
C218 C210 1.574 . S
C218 H213 0.949 . S
C218 C224 1.368 1_556 S
C219 C203 1.348 1_455 S
C219 H211 0.950 . S
C219 C217 1.327 . S
C220 C208 1.348 1_655 S
C220 H214 0.950 . S
C220 C221 1.327 . S
C221 H215 0.950 . S
C221 C220 1.327 . S
C221 C225 1.429 1_655 S
C222 C205 1.574 . S
C222 H216 0.949 . S
C222 C226 1.368 1_554 S
C223 C204 1.429 . S
C223 C217 1.429 1_655 S
C223 C224 1.522 . S
C224 C205 1.368 1_665 S
C224 C218 1.368 1_554 S
C224 C223 1.522 . S
C225 C209 1.429 . S
C225 C221 1.429 1_455 S
C225 C226 1.522 . S
C226 C210 1.368 1_445 S
C226 C222 1.368 1_556 S
C226 C225 1.522 . S
H227 C202 0.950 . S
H228 C204 0.950 . S
H229 C205 0.949 . S
H230 C207 0.950 . S
H231 C209 0.950 . S
C232 C233 1.349 . S
C232 C234 1.327 . S
C232 H257 0.950 . S
C233 C232 1.349 . S
C233 C249 1.349 . S
C234 C232 1.327 . S
C234 C253 1.429 . S
C234 H258 0.950 . S
C235 C252 1.574 . S
C235 C254 1.368 . S
C235 H259 0.949 . S
H236 C240 0.949 . S
C237 C238 1.349 . S
C237 C239 1.327 . S
C237 H260 0.950 . S
C238 C237 1.349 . S
C238 C250 1.349 . S
C239 C237 1.327 . S
C239 C255 1.429 . S
C239 H261 0.950 . S
C240 H236 0.949 . S
C240 C248 1.574 . S
C240 C256 1.368 . S
H241 C249 0.950 . S
H242 C247 0.950 . S
H243 C248 0.949 . S
H244 C250 0.950 . S
H245 C251 0.950 . S
H246 C252 0.949 . S
C247 H242 0.950 . S
C247 C249 1.327 . S
C247 C253 1.429 . S
C248 C240 1.574 . S
C248 H243 0.949 . S
C248 C254 1.368 . S
C249 C233 1.349 . S
C249 H241 0.950 . S
C249 C247 1.327 . S
C250 C238 1.349 . S
C250 H244 0.950 . S
C250 C251 1.327 . S
C251 H245 0.950 . S
C251 C250 1.327 . S
C251 C255 1.429 . S
C252 C235 1.574 . S
C252 H246 0.949 . S
C252 C256 1.368 . S
C253 C234 1.429 . S
C253 C247 1.429 . S
C253 C254 1.523 . S
C254 C235 1.368 . S
C254 C248 1.368 . S
C254 C253 1.523 . S
C255 C239 1.429 . S
C255 C251 1.429 . S
C255 C256 1.523 . S
C256 C240 1.368 . S
C256 C252 1.368 . S
C256 C255 1.523 . S
H257 C232 0.950 . S
H258 C234 0.950 . S
H259 C235 0.949 . S
H260 C237 0.950 . S
H261 C239 0.950 . S
C262 C263 1.349 . S
C262 C264 1.327 . S
C262 H287 0.950 . S
C263 C262 1.349 . S
C263 C279 1.349 . S
C264 C262 1.327 . S
C264 C283 1.429 . S
C264 H288 0.950 . S
C265 C282 1.574 . S
C265 C284 1.368 . S
C265 H289 0.949 . S
H266 C270 0.949 . S
C267 C268 1.349 . S
C267 C269 1.327 . S
C267 H290 0.950 . S
C268 C267 1.349 . S
C268 C280 1.349 . S
C269 C267 1.327 . S
C269 C285 1.429 . S
C269 H291 0.950 . S
C270 H266 0.949 . S
C270 C278 1.574 . S
C270 C286 1.368 . S
H271 C279 0.950 . S
H272 C277 0.950 . S
H273 C278 0.949 . S
H274 C280 0.950 . S
H275 C281 0.950 . S
H276 C282 0.949 . S
C277 H272 0.950 . S
C277 C279 1.327 . S
C277 C283 1.429 . S
C278 C270 1.574 . S
C278 H273 0.949 . S
C278 C284 1.368 . S
C279 C263 1.349 . S
C279 H271 0.950 . S
C279 C277 1.327 . S
C280 C268 1.349 . S
C280 H274 0.950 . S
C280 C281 1.327 . S
C281 H275 0.950 . S
C281 C280 1.327 . S
C281 C285 1.429 . S
C282 C265 1.574 . S
C282 H276 0.949 . S
C282 C286 1.368 . S
C283 C264 1.429 . S
C283 C277 1.429 . S
C283 C284 1.523 . S
C284 C265 1.368 . S
C284 C278 1.368 . S
C284 C283 1.523 . S
C285 C269 1.429 . S
C285 C281 1.429 . S
C285 C286 1.523 . S
C286 C270 1.368 . S
C286 C282 1.368 . S
C286 C285 1.523 . S
H287 C262 0.950 . S
H288 C264 0.950 . S
H289 C265 0.949 . S
H290 C267 0.950 . S
H291 C269 0.950 . S
C292 C293 1.349 . S
C292 C294 1.327 . S
C292 H317 0.950 . S
C293 C292 1.349 . S
C293 C309 1.349 . S
C294 C292 1.327 . S
C294 C313 1.429 . S
C294 H318 0.950 . S
C295 C312 1.574 . S
C295 C314 1.368 . S
C295 H319 0.949 . S
H296 C300 0.949 . S
C297 C298 1.349 . S
C297 C299 1.327 . S
C297 H320 0.950 . S
C298 C297 1.349 . S
C298 C310 1.349 . S
C299 C297 1.327 . S
C299 C315 1.429 . S
C299 H321 0.950 . S
C300 H296 0.949 . S
C300 C308 1.574 . S
C300 C316 1.368 . S
H301 C309 0.950 . S
H302 C307 0.950 . S
H303 C308 0.949 . S
H304 C310 0.950 . S
H305 C311 0.950 . S
H306 C312 0.949 . S
C307 H302 0.950 . S
C307 C309 1.327 . S
C307 C313 1.429 . S
C308 C300 1.574 . S
C308 H303 0.949 . S
C308 C314 1.368 . S
C309 C293 1.349 . S
C309 H301 0.950 . S
C309 C307 1.327 . S
C310 C298 1.349 . S
C310 H304 0.950 . S
C310 C311 1.327 . S
C311 H305 0.950 . S
C311 C310 1.327 . S
C311 C315 1.429 . S
C312 C295 1.574 . S
C312 H306 0.949 . S
C312 C316 1.368 . S
C313 C294 1.429 . S
C313 C307 1.429 . S
C313 C314 1.523 . S
C314 C295 1.368 . S
C314 C308 1.368 . S
C314 C313 1.523 . S
C315 C299 1.429 . S
C315 C311 1.429 . S
C315 C316 1.523 . S
C316 C300 1.368 . S
C316 C312 1.368 . S
C316 C315 1.523 . S
H317 C292 0.950 . S
H318 C294 0.950 . S
H319 C295 0.949 . S
H320 C297 0.950 . S
H321 C299 0.950 . S
C322 C323 1.349 . S
C322 C324 1.327 . S
C322 H347 0.950 . S
C323 C322 1.349 . S
C323 C339 1.349 . S
C324 C322 1.327 . S
C324 C343 1.429 . S
C324 H348 0.950 . S
C325 C342 1.574 . S
C325 C344 1.368 . S
C325 H349 0.949 . S
H326 C330 0.949 . S
C327 C328 1.349 . S
C327 C329 1.327 . S
C327 H350 0.950 . S
C328 C327 1.349 . S
C328 C340 1.349 . S
C329 C327 1.327 . S
C329 C345 1.429 . S
C329 H351 0.950 . S
C330 H326 0.949 . S
C330 C338 1.574 . S
C330 C346 1.368 . S
H331 C339 0.950 . S
H332 C337 0.950 . S
H333 C338 0.949 . S
H334 C340 0.950 . S
H335 C341 0.950 . S
H336 C342 0.949 . S
C337 H332 0.950 . S
C337 C339 1.327 . S
C337 C343 1.429 . S
C338 C330 1.574 . S
C338 H333 0.949 . S
C338 C344 1.368 . S
C339 C323 1.349 . S
C339 H331 0.950 . S
C339 C337 1.327 . S
C340 C328 1.349 . S
C340 H334 0.950 . S
C340 C341 1.327 . S
C341 H335 0.950 . S
C341 C340 1.327 . S
C341 C345 1.429 . S
C342 C325 1.574 . S
C342 H336 0.949 . S
C342 C346 1.368 . S
C343 C324 1.429 . S
C343 C337 1.429 . S
C343 C344 1.523 . S
C344 C325 1.368 . S
C344 C338 1.368 . S
C344 C343 1.523 . S
C345 C329 1.429 . S
C345 C341 1.429 . S
C345 C346 1.523 . S
C346 C330 1.368 . S
C346 C342 1.368 . S
C346 C345 1.523 . S
H347 C322 0.950 . S
H348 C324 0.950 . S
H349 C325 0.949 . S
H350 C327 0.950 . S
H351 C329 0.950 . S
C352 C353 1.349 . S
C352 C354 1.327 . S
C352 H377 0.950 . S
C353 C352 1.349 . S
C353 C369 1.349 . S
C354 C352 1.327 . S
C354 C373 1.429 . S
C354 H378 0.950 . S
C355 C372 1.574 . S
C355 C374 1.368 . S
C355 H379 0.949 . S
H356 C360 0.949 . S
C357 C358 1.349 . S
C357 C359 1.327 . S
C357 H380 0.950 . S
C358 C357 1.349 . S
C358 C370 1.349 . S
C359 C357 1.327 . S
C359 C375 1.429 . S
C359 H381 0.950 . S
C360 H356 0.949 . S
C360 C368 1.574 . S
C360 C376 1.368 . S
H361 C369 0.950 . S
H362 C367 0.950 . S
H363 C368 0.949 . S
H364 C370 0.950 . S
H365 C371 0.950 . S
H366 C372 0.949 . S
C367 H362 0.950 . S
C367 C369 1.327 . S
C367 C373 1.429 . S
C368 C360 1.574 . S
C368 H363 0.949 . S
C368 C374 1.368 . S
C369 C353 1.349 . S
C369 H361 0.950 . S
C369 C367 1.327 . S
C370 C358 1.349 . S
C370 H364 0.950 . S
C370 C371 1.327 . S
C371 H365 0.950 . S
C371 C370 1.327 . S
C371 C375 1.429 . S
C372 C355 1.574 . S
C372 H366 0.949 . S
C372 C376 1.368 . S
C373 C354 1.429 . S
C373 C367 1.429 . S
C373 C374 1.523 . S
C374 C355 1.368 . S
C374 C368 1.368 . S
C374 C373 1.523 . S
C375 C359 1.429 . S
C375 C371 1.429 . S
C375 C376 1.523 . S
C376 C360 1.368 . S
C376 C372 1.368 . S
C376 C375 1.523 . S
H377 C352 0.950 . S
H378 C354 0.950 . S
H379 C355 0.949 . S
H380 C357 0.950 . S
H381 C359 0.950 . S
C382 C383 1.349 . S
C382 C384 1.327 . S
C382 H407 0.950 . S
C383 C382 1.349 . S
C383 C399 1.349 . S
C384 C382 1.327 . S
C384 C403 1.429 . S
C384 H408 0.950 . S
C385 C402 1.574 . S
C385 C404 1.368 . S
C385 H409 0.949 . S
H386 C390 0.949 . S
C387 C388 1.349 . S
C387 C389 1.327 . S
C387 H410 0.950 . S
C388 C387 1.349 . S
C388 C400 1.349 . S
C389 C387 1.327 . S
C389 C405 1.429 . S
C389 H411 0.950 . S
C390 H386 0.949 . S
C390 C398 1.574 . S
C390 C406 1.368 . S
H391 C399 0.950 . S
H392 C397 0.950 . S
H393 C398 0.949 . S
H394 C400 0.950 . S
H395 C401 0.950 . S
H396 C402 0.949 . S
C397 H392 0.950 . S
C397 C399 1.327 . S
C397 C403 1.429 . S
C398 C390 1.574 . S
C398 H393 0.949 . S
C398 C404 1.368 . S
C399 C383 1.349 . S
C399 H391 0.950 . S
C399 C397 1.327 . S
C400 C388 1.349 . S
C400 H394 0.950 . S
C400 C401 1.327 . S
C401 H395 0.950 . S
C401 C400 1.327 . S
C401 C405 1.429 . S
C402 C385 1.574 . S
C402 H396 0.949 . S
C402 C406 1.368 . S
C403 C384 1.429 . S
C403 C397 1.429 . S
C403 C404 1.523 . S
C404 C385 1.368 . S
C404 C398 1.368 . S
C404 C403 1.523 . S
C405 C389 1.429 . S
C405 C401 1.429 . S
C405 C406 1.523 . S
C406 C390 1.368 . S
C406 C402 1.368 . S
C406 C405 1.523 . S
H407 C382 0.950 . S
H408 C384 0.950 . S
H409 C385 0.949 . S
H410 C387 0.950 . S
H411 C389 0.950 . S
C412 C413 1.349 . S
C412 C414 1.327 . S
C412 H437 0.950 . S
C413 C412 1.349 . S
C413 C429 1.349 . S
C414 C412 1.327 . S
C414 C433 1.429 . S
C414 H438 0.950 . S
C415 C432 1.574 . S
C415 C434 1.368 . S
C415 H439 0.949 . S
H416 C420 0.949 . S
C417 C418 1.349 . S
C417 C419 1.327 . S
C417 H440 0.950 . S
C418 C417 1.349 . S
C418 C430 1.349 . S
C419 C417 1.327 . S
C419 C435 1.429 . S
C419 H441 0.950 . S
C420 H416 0.949 . S
C420 C428 1.574 . S
C420 C436 1.368 . S
H421 C429 0.950 . S
H422 C427 0.950 . S
H423 C428 0.949 . S
H424 C430 0.950 . S
H425 C431 0.950 . S
H426 C432 0.949 . S
C427 H422 0.950 . S
C427 C429 1.327 . S
C427 C433 1.429 . S
C428 C420 1.574 . S
C428 H423 0.949 . S
C428 C434 1.368 . S
C429 C413 1.349 . S
C429 H421 0.950 . S
C429 C427 1.327 . S
C430 C418 1.349 . S
C430 H424 0.950 . S
C430 C431 1.327 . S
C431 H425 0.950 . S
C431 C430 1.327 . S
C431 C435 1.429 . S
C432 C415 1.574 . S
C432 H426 0.949 . S
C432 C436 1.368 . S
C433 C414 1.429 . S
C433 C427 1.429 . S
C433 C434 1.523 . S
C434 C415 1.368 . S
C434 C428 1.368 . S
C434 C433 1.523 . S
C435 C419 1.429 . S
C435 C431 1.429 . S
C435 C436 1.523 . S
C436 C420 1.368 . S
C436 C432 1.368 . S
C436 C435 1.523 . S
H437 C412 0.950 . S
H438 C414 0.950 . S
H439 C415 0.949 . S
H440 C417 0.950 . S
H441 C419 0.950 . S
C442 C443 1.349 . S
C442 C444 1.327 . S
C442 H467 0.950 . S
C443 C442 1.349 . S
C443 C459 1.349 . S
C444 C442 1.327 . S
C444 C463 1.429 . S
C444 H468 0.950 . S
C445 C462 1.574 . S
C445 C464 1.368 . S
C445 H469 0.949 . S
H446 C450 0.949 . S
C447 C448 1.349 . S
C447 C449 1.327 . S
C447 H470 0.950 . S
C448 C447 1.349 . S
C448 C460 1.349 . S
C449 C447 1.327 . S
C449 C465 1.429 . S
C449 H471 0.950 . S
C450 H446 0.949 . S
C450 C458 1.574 . S
C450 C466 1.368 . S
H451 C459 0.950 . S
H452 C457 0.950 . S
H453 C458 0.949 . S
H454 C460 0.950 . S
H455 C461 0.950 . S
H456 C462 0.949 . S
C457 H452 0.950 . S
C457 C459 1.327 . S
C457 C463 1.429 . S
C458 C450 1.574 . S
C458 H453 0.949 . S
C458 C464 1.368 . S
C459 C443 1.349 . S
C459 H451 0.950 . S
C459 C457 1.327 . S
C460 C448 1.349 . S
C460 H454 0.950 . S
C460 C461 1.327 . S
C461 H455 0.950 . S
C461 C460 1.327 . S
C461 C465 1.429 . S
C462 C445 1.574 . S
C462 H456 0.949 . S
C462 C466 1.368 . S
C463 C444 1.429 . S
C463 C457 1.429 . S
C463 C464 1.523 . S
C464 C445 1.368 . S
C464 C458 1.368 . S
C464 C463 1.523 . S
C465 C449 1.429 . S
C465 C461 1.429 . S
C465 C466 1.523 . S
C466 C450 1.368 . S
C466 C462 1.368 . S
C466 C465 1.523 . S
H467 C442 0.950 . S
H468 C444 0.950 . S
H469 C445 0.949 . S
H470 C447 0.950 . S
H471 C449 0.950 . S
C472 C473 1.349 . S
C472 C474 1.327 . S
C472 H497 0.950 . S
C473 C472 1.349 . S
C473 C489 1.349 . S
C474 C472 1.327 . S
C474 C493 1.429 . S
C474 H498 0.950 . S
C475 C492 1.574 . S
C475 C494 1.368 . S
C475 H499 0.949 . S
H476 C480 0.949 . S
C477 C478 1.349 . S
C477 C479 1.327 . S
C477 H500 0.950 . S
C478 C477 1.349 . S
C478 C490 1.349 . S
C479 C477 1.327 . S
C479 C495 1.429 . S
C479 H501 0.950 . S
C480 H476 0.949 . S
C480 C488 1.574 . S
C480 C496 1.368 . S
H481 C489 0.950 . S
H482 C487 0.950 . S
H483 C488 0.949 . S
H484 C490 0.950 . S
H485 C491 0.950 . S
H486 C492 0.949 . S
C487 H482 0.950 . S
C487 C489 1.327 . S
C487 C493 1.429 . S
C488 C480 1.574 . S
C488 H483 0.949 . S
C488 C494 1.368 . S
C489 C473 1.349 . S
C489 H481 0.950 . S
C489 C487 1.327 . S
C490 C478 1.349 . S
C490 H484 0.950 . S
C490 C491 1.327 . S
C491 H485 0.950 . S
C491 C490 1.327 . S
C491 C495 1.429 . S
C492 C475 1.574 . S
C492 H486 0.949 . S
C492 C496 1.368 . S
C493 C474 1.429 . S
C493 C487 1.429 . S
C493 C494 1.523 . S
C494 C475 1.368 . S
C494 C488 1.368 . S
C494 C493 1.523 . S
C495 C479 1.429 . S
C495 C491 1.429 . S
C495 C496 1.523 . S
C496 C480 1.368 . S
C496 C492 1.368 . S
C496 C495 1.523 . S
H497 C472 0.950 . S
H498 C474 0.950 . S
H499 C475 0.949 . S
H500 C477 0.950 . S
H501 C479 0.950 . S
C502 C503 1.349 . S
C502 C504 1.327 . S
C502 H527 0.950 . S
C503 C502 1.349 . S
C503 C519 1.349 . S
C504 C502 1.327 . S
C504 C523 1.429 . S
C504 H528 0.950 . S
C505 C522 1.574 . S
C505 C524 1.368 . S
C505 H529 0.949 . S
H506 C510 0.949 . S
C507 C508 1.349 . S
C507 C509 1.327 . S
C507 H530 0.950 . S
C508 C507 1.349 . S
C508 C520 1.349 . S
C509 C507 1.327 . S
C509 C525 1.429 . S
C509 H531 0.950 . S
C510 H506 0.949 . S
C510 C518 1.574 . S
C510 C526 1.368 . S
H511 C519 0.950 . S
H512 C517 0.950 . S
H513 C518 0.949 . S
H514 C520 0.950 . S
H515 C521 0.950 . S
H516 C522 0.949 . S
C517 H512 0.950 . S
C517 C519 1.327 . S
C517 C523 1.429 . S
C518 C510 1.574 . S
C518 H513 0.949 . S
C518 C524 1.368 . S
C519 C503 1.349 . S
C519 H511 0.950 . S
C519 C517 1.327 . S
C520 C508 1.349 . S
C520 H514 0.950 . S
C520 C521 1.327 . S
C521 H515 0.950 . S
C521 C520 1.327 . S
C521 C525 1.429 . S
C522 C505 1.574 . S
C522 H516 0.949 . S
C522 C526 1.368 . S
C523 C504 1.429 . S
C523 C517 1.429 . S
C523 C524 1.523 . S
C524 C505 1.368 . S
C524 C518 1.368 . S
C524 C523 1.523 . S
C525 C509 1.429 . S
C525 C521 1.429 . S
C525 C526 1.523 . S
C526 C510 1.368 . S
C526 C522 1.368 . S
C526 C525 1.523 . S
H527 C502 0.950 . S
H528 C504 0.950 . S
H529 C505 0.949 . S
H530 C507 0.950 . S
H531 C509 0.950 . S
C532 C533 1.349 . S
C532 C534 1.327 . S
C532 H557 0.950 . S
C533 C532 1.349 . S
C533 C549 1.349 . S
C534 C532 1.327 . S
C534 C553 1.429 . S
C534 H558 0.950 . S
C535 C552 1.574 1_554 S
C535 C554 1.368 . S
C535 H559 0.949 . S
H536 C540 0.949 . S
C537 C538 1.349 . S
C537 C539 1.327 . S
C537 H560 0.950 . S
C538 C537 1.349 . S
C538 C550 1.349 . S
C539 C537 1.327 . S
C539 C555 1.429 . S
C539 H561 0.950 . S
C540 H536 0.949 . S
C540 C548 1.574 1_556 S
C540 C556 1.368 . S
H541 C549 0.950 . S
H542 C547 0.950 . S
H543 C548 0.949 . S
H544 C550 0.950 . S
H545 C551 0.950 . S
H546 C552 0.949 . S
C547 H542 0.950 . S
C547 C549 1.327 . S
C547 C553 1.429 . S
C548 C540 1.574 1_554 S
C548 H543 0.949 . S
C548 C554 1.368 . S
C549 C533 1.349 . S
C549 H541 0.950 . S
C549 C547 1.327 . S
C550 C538 1.349 . S
C550 H544 0.950 . S
C550 C551 1.327 . S
C551 H545 0.950 . S
C551 C550 1.327 . S
C551 C555 1.429 . S
C552 C535 1.574 1_556 S
C552 H546 0.949 . S
C552 C556 1.368 . S
C553 C534 1.429 . S
C553 C547 1.429 . S
C553 C554 1.523 . S
C554 C535 1.368 . S
C554 C548 1.368 . S
C554 C553 1.523 . S
C555 C539 1.429 . S
C555 C551 1.429 . S
C555 C556 1.523 . S
C556 C540 1.368 . S
C556 C552 1.368 . S
C556 C555 1.523 . S
H557 C532 0.950 . S
H558 C534 0.950 . S
H559 C535 0.949 . S
H560 C537 0.950 . S
H561 C539 0.950 . S
C562 C563 1.349 . S
C562 C564 1.327 . S
C562 H587 0.950 . S
C563 C562 1.349 . S
C563 C579 1.349 . S
C564 C562 1.327 . S
C564 C583 1.429 . S
C564 H588 0.950 . S
C565 C582 1.574 1_554 S
C565 C584 1.368 . S
C565 H589 0.949 . S
H566 C570 0.949 . S
C567 C568 1.349 . S
C567 C569 1.327 . S
C567 H590 0.950 . S
C568 C567 1.349 . S
C568 C580 1.349 . S
C569 C567 1.327 . S
C569 C585 1.429 . S
C569 H591 0.950 . S
C570 H566 0.949 . S
C570 C578 1.574 1_556 S
C570 C586 1.368 . S
H571 C579 0.950 . S
H572 C577 0.950 . S
H573 C578 0.949 . S
H574 C580 0.950 . S
H575 C581 0.950 . S
H576 C582 0.949 . S
C577 H572 0.950 . S
C577 C579 1.327 . S
C577 C583 1.429 . S
C578 C570 1.574 1_554 S
C578 H573 0.949 . S
C578 C584 1.368 . S
C579 C563 1.349 . S
C579 H571 0.950 . S
C579 C577 1.327 . S
C580 C568 1.349 . S
C580 H574 0.950 . S
C580 C581 1.327 . S
C581 H575 0.950 . S
C581 C580 1.327 . S
C581 C585 1.429 . S
C582 C565 1.574 1_556 S
C582 H576 0.949 . S
C582 C586 1.368 . S
C583 C564 1.429 . S
C583 C577 1.429 . S
C583 C584 1.523 . S
C584 C565 1.368 . S
C584 C578 1.368 . S
C584 C583 1.523 . S
C585 C569 1.429 . S
C585 C581 1.429 . S
C585 C586 1.523 . S
C586 C570 1.368 . S
C586 C582 1.368 . S
C586 C585 1.523 . S
H587 C562 0.950 . S
H588 C564 0.950 . S
H589 C565 0.949 . S
H590 C567 0.950 . S
H591 C569 0.950 . S
C113 C13 1.796 . S
C118 C29 1.799 . S
C143 C54 1.794 . S
C148 C15 1.794 . S
C173 C84 1.794 . S
C178 C57 1.794 . S
C203 C71 1.796 . S
C208 C110 1.796 . S
C233 C96 2.073 . S
C238 C1 2.073 . S
C263 C27 2.073 . S
C268 C98 2.073 . S
C293 C41 2.074 . S
C298 C69 2.074 . S
C323 C42 2.073 . S
C328 C83 2.073 . S
C353 C85 2.187 . S
C358 C12 2.187 . S
C383 C14 2.187 . S
C388 C111 2.187 . S
C413 C56 2.187 . S
C418 C28 2.184 . S
C443 C70 2.187 . S
C448 C55 2.187 . S
C473 C26 0.354 . S
C478 C0 0.354 . S
C503 C40 0.354 . S
C508 C43 0.353 . S
C533 C82 0.353 . S
C538 C68 0.353 . S
C563 C97 0.354 . S
C568 C99 0.354 . S
