# Generated by pormake.
# Topology mmt, (4)-cn, num edge types: 1
# Building blocks:
#     Node 0, Type 0, BuildingBlock: QUQFOY_clean_sbu_1, # of connection points: 4
#     Node 1, Type 0, BuildingBlock: QUQFOY_clean_sbu_1, # of connection points: 4
#     Node 2, Type 0, BuildingBlock: QUQFOY_clean_sbu_1, # of connection points: 4
#     Node 3, Type 0, BuildingBlock: QUQFOY_clean_sbu_1, # of connection points: 4
#     Node 4, Type 0, BuildingBlock: QUQFOY_clean_sbu_1, # of connection points: 4
#     Node 5, Type 0, BuildingBlock: QUQFOY_clean_sbu_1, # of connection points: 4
#     Node 6, Type 0, BuildingBlock: QUQFOY_clean_sbu_1, # of connection points: 4
#     Node 7, Type 0, BuildingBlock: QUQFOY_clean_sbu_1, # of connection points: 4
#     Edge 8, Type (0, 0), BuildingBlock: XIVTED_clean_linker_0, # of connection points: 2
#     Edge 9, Type (0, 0), BuildingBlock: XIVTED_clean_linker_0, # of connection points: 2
#     Edge 10, Type (0, 0), BuildingBlock: XIVTED_clean_linker_0, # of connection points: 2
#     Edge 11, Type (0, 0), BuildingBlock: XIVTED_clean_linker_0, # of connection points: 2
#     Edge 12, Type (0, 0), BuildingBlock: XIVTED_clean_linker_0, # of connection points: 2
#     Edge 13, Type (0, 0), BuildingBlock: XIVTED_clean_linker_0, # of connection points: 2
#     Edge 14, Type (0, 0), BuildingBlock: XIVTED_clean_linker_0, # of connection points: 2
#     Edge 15, Type (0, 0), BuildingBlock: XIVTED_clean_linker_0, # of connection points: 2
#     Edge 16, Type (0, 0), BuildingBlock: XIVTED_clean_linker_0, # of connection points: 2
#     Edge 17, Type (0, 0), BuildingBlock: XIVTED_clean_linker_0, # of connection points: 2
#     Edge 18, Type (0, 0), BuildingBlock: XIVTED_clean_linker_0, # of connection points: 2
#     Edge 19, Type (0, 0), BuildingBlock: XIVTED_clean_linker_0, # of connection points: 2
#     Edge 20, Type (0, 0), BuildingBlock: XIVTED_clean_linker_0, # of connection points: 2
#     Edge 21, Type (0, 0), BuildingBlock: XIVTED_clean_linker_0, # of connection points: 2
#     Edge 22, Type (0, 0), BuildingBlock: XIVTED_clean_linker_0, # of connection points: 2
#     Edge 23, Type (0, 0), BuildingBlock: XIVTED_clean_linker_0, # of connection points: 2
# Relax obj value: 0.022
# Max RMSD: 0.102
# Mean RMSD: 0.102
data_MOF--net-mmt--node1-QUQFOY_clean_sbu_1--edge1-XIVTED_clean_linker_0
_symmetry_space_group_name_H-M    P1
_symmetry_Int_Tables_number       1
_symmetry_cell_setting            triclinic
loop_
_symmetry_equiv_pos_as_xyz
'x, y, z'
_cell_length_a     23.110665
_cell_length_b     42.148286
_cell_length_c     46.217543
_cell_angle_alpha  89.947118
_cell_angle_beta   90.018322
_cell_angle_gamma 90.017472
loop_
_atom_site_label
_atom_site_type_symbol
_atom_site_fract_x
_atom_site_fract_y
_atom_site_fract_z
_atom_type_partial_charge
O0 O 0.17789 0.57476 0.32741 0.0
Cd1 Cd 0.10689 0.60065 0.3401 0.0
Cd2 Cd 0.09299 0.5436 0.37022 0.0
O3 O 0.17463 0.53252 0.35558 0.0
O4 O 0.12368 0.6413 0.31988 0.0
O5 O 0.11938 0.6379 0.3674 0.0
C6 C 0.12923 0.65482 0.34464 0.0
C7 C 0.06347 0.53365 0.41759 0.0
C8 C 0.19962 0.54874 0.33607 0.0
C9 C 0.0072 0.56008 0.323 0.0
O10 O 0.02829 0.53954 0.34013 0.0
O11 O 0.02911 0.58768 0.32138 0.0
O12 O 0.07244 0.51089 0.39954 0.0
O13 O 0.07415 0.5623 0.40911 0.0
O14 O 0.26285 0.95236 0.32467 0.0
Cd15 Cd 0.33146 0.92571 0.33918 0.0
Cd16 Cd 0.34405 0.98155 0.37033 0.0
O17 O 0.2643 0.99377 0.35378 0.0
O18 O 0.31453 0.88464 0.3198 0.0
O19 O 0.31571 0.88961 0.36727 0.0
C20 C 0.3067 0.87204 0.34485 0.0
C21 C 0.36971 0.99074 0.41836 0.0
C22 C 0.24101 0.97836 0.33324 0.0
C23 C 0.4341 0.96506 0.32509 0.0
O24 O 0.41209 0.98538 0.34211 0.0
O25 O 0.41121 0.93783 0.32222 0.0
O26 O 0.36288 0.01377 0.40032 0.0
O27 O 0.35872 0.96229 0.40949 0.0
O28 O 0.67799 0.45209 0.1992 0.0
Cd29 Cd 0.60628 0.42671 0.18661 0.0
Cd30 Cd 0.59384 0.48369 0.15611 0.0
O31 O 0.67548 0.49437 0.17104 0.0
O32 O 0.62204 0.38592 0.20678 0.0
O33 O 0.61805 0.38948 0.15926 0.0
C34 C 0.6275 0.37245 0.18199 0.0
C35 C 0.56507 0.49339 0.10859 0.0
C36 C 0.70022 0.47797 0.19051 0.0
C37 C 0.50706 0.46799 0.20307 0.0
O38 O 0.52862 0.48823 0.1858 0.0
O39 O 0.52869 0.44035 0.20513 0.0
O40 O 0.57433 0.51626 0.1265 0.0
O41 O 0.57518 0.46476 0.11728 0.0
O42 O 0.76293 0.07533 0.20183 0.0
Cd43 Cd 0.83146 0.10203 0.18732 0.0
Cd44 Cd 0.84416 0.04589 0.15615 0.0
O45 O 0.76448 0.03379 0.17285 0.0
O46 O 0.81435 0.14306 0.20672 0.0
O47 O 0.81545 0.13813 0.15925 0.0
C48 C 0.80634 0.15565 0.18168 0.0
C49 C 0.86949 0.0356 0.10824 0.0
C50 C 0.74116 0.04928 0.19332 0.0
C51 C 0.9343 0.06281 0.20137 0.0
O52 O 0.91237 0.04245 0.18435 0.0
O53 O 0.91126 0.09 0.20427 0.0
O54 O 0.86269 1.013 0.12673 0.0
O55 O 0.85875 0.06425 0.11661 0.0
O56 O 0.7667 0.45114 0.70278 0.0
Cd57 Cd 0.83447 0.42416 0.6879 0.0
Cd58 Cd 0.84695 0.48018 0.65627 0.0
O59 O 0.76788 0.49251 0.67353 0.0
O60 O 0.81776 0.3833 0.70777 0.0
O61 O 0.81721 0.38788 0.66026 0.0
C62 C 0.80884 0.37053 0.6829 0.0
C63 C 0.87099 0.4904 0.60815 0.0
C64 C 0.74499 0.47722 0.69428 0.0
C65 C 0.93821 0.46316 0.7009 0.0
O66 O 0.91608 0.48351 0.68391 0.0
O67 O 0.91487 0.43609 0.70417 0.0
O68 O 0.86485 0.51302 0.62663 0.0
O69 O 0.86027 0.46177 0.61665 0.0
O70 O 0.67196 0.07497 0.7008 0.0
Cd71 Cd 0.60185 0.10095 0.68705 0.0
Cd72 Cd 0.58962 0.04453 0.65633 0.0
O73 O 0.67011 0.03301 0.67233 0.0
O74 O 0.61825 0.14198 0.70662 0.0
O75 O 0.61593 0.13744 0.65914 0.0
C76 C 0.6252 0.15485 0.68163 0.0
C77 C 0.56294 0.03538 0.60845 0.0
C78 C 0.69404 0.049 0.6923 0.0
C79 C 0.50065 0.0607 0.70215 0.0
O80 O 0.52257 0.04042 0.68507 0.0
O81 O 0.52299 0.08812 0.70468 0.0
O82 O 0.57059 1.01232 0.62638 0.0
O83 O 0.57361 0.06385 0.61735 0.0
O84 O 0.267 0.57476 0.82346 0.0
Cd85 Cd 0.33487 0.6016 0.83853 0.0
Cd86 Cd 0.34682 0.54574 0.87008 0.0
O87 O 0.26756 0.53356 0.85291 0.0
O88 O 0.3187 0.64259 0.81879 0.0
O89 O 0.31781 0.63779 0.86628 0.0
C90 C 0.30984 0.65528 0.84368 0.0
C91 C 0.37112 0.53582 0.91821 0.0
C92 C 0.24498 0.54878 0.83203 0.0
C93 C 0.43818 0.5624 0.82548 0.0
O94 O 0.41574 0.54205 0.84237 0.0
O95 O 0.41525 0.58958 0.82235 0.0
O96 O 0.36455 0.51308 0.89989 0.0
O97 O 0.36063 0.56441 0.90955 0.0
O98 O 0.17183 0.9514 0.82582 0.0
Cd99 Cd 0.10244 0.92487 0.83963 0.0
Cd100 Cd 0.08876 0.98146 0.8701 0.0
O101 O 0.16934 0.99325 0.8544 0.0
O102 O 0.11997 0.88401 0.82001 0.0
O103 O 0.11722 0.88838 0.86749 0.0
C104 C 0.12701 0.87111 0.84498 0.0
C105 C 0.06125 0.99171 0.91771 0.0
C106 C 0.19346 0.97748 0.83435 0.0
C107 C 0.00084 0.9644 0.82392 0.0
O108 O 0.02231 0.98495 0.8409 0.0
O109 O 0.02343 0.93701 0.82179 0.0
O110 O 0.06894 0.01433 0.89933 0.0
O111 O 0.07218 0.96305 0.90942 0.0
H112 H 0.24525 0.48827 0.33758 0.0
H113 H 0.4493 0.52421 0.20213 0.0
H114 H 0.26979 0.58059 0.29886 0.0
H115 H 0.45706 0.43519 0.24837 0.0
H116 H 0.37836 0.54332 0.23653 0.0
H117 H 0.32069 0.46703 0.30554 0.0
C118 C 0.26706 0.50416 0.32272 0.0
C119 C 0.25081 0.53621 0.32071 0.0
C120 C 0.39544 0.51958 0.23926 0.0
C121 C 0.33598 0.51202 0.28387 0.0
C122 C 0.43585 0.50853 0.21946 0.0
C123 C 0.45951 0.47806 0.2224 0.0
C124 C 0.37805 0.50008 0.2623 0.0
C125 C 0.43995 0.45886 0.24528 0.0
C126 C 0.30978 0.49197 0.30435 0.0
C127 C 0.28034 0.55567 0.301 0.0
N128 N 0.40033 0.47023 0.26447 0.0
N129 N 0.321 0.54322 0.28326 0.0
H130 H -0.00017 1.00959 0.19599 0.0
H131 H 0.1928 0.03816 0.33707 0.0
H132 H -0.01905 0.09356 0.24863 0.0
H133 H 0.17761 0.94911 0.2915 0.0
H134 H 0.11944 0.06092 0.30459 0.0
H135 H 0.07262 0.98995 0.22926 0.0
C136 C 0.01129 0.02407 0.21449 0.0
C137 C -0.01619 0.05318 0.21963 0.0
C138 C 0.13207 0.03635 0.30195 0.0
C139 C 0.0672 0.0305 0.25824 0.0
C140 C 0.17361 0.0233 0.32054 0.0
C141 C 0.19168 0.99172 0.3169 0.0
C142 C 0.10896 0.01768 0.27958 0.0
C143 C 0.16551 0.97361 0.29505 0.0
C144 C 0.05276 1.01272 0.23362 0.0
C145 C 0.00101 0.07096 0.24387 0.0
N146 N 0.12592 0.9869 0.27718 0.0
N147 N 0.04151 0.05925 0.26244 0.0
H148 H 0.77319 0.44469 0.2252 0.0
H149 H 0.95558 0.59461 0.27925 0.0
H150 H 0.7443 0.53877 0.19108 0.0
H151 H 0.95242 0.50295 0.32113 0.0
H152 H 0.88428 0.57509 0.24405 0.0
H153 H 0.84841 0.46569 0.25642 0.0
C154 C 0.78308 0.46979 0.22406 0.0
C155 C 0.75196 0.49006 0.2057 0.0
C156 C 0.89922 0.55941 0.26106 0.0
C157 C 0.83791 0.51447 0.24188 0.0
C158 C 0.93962 0.57055 0.28122 0.0
C159 C 0.96016 0.55038 0.30317 0.0
C160 C 0.87974 0.52789 0.26285 0.0
C161 C 0.93813 0.5194 0.30461 0.0
C162 C 0.82593 0.48182 0.24205 0.0
C163 C 0.76722 0.52232 0.20496 0.0
N164 N 0.89947 0.50914 0.28468 0.0
N165 N 0.80891 0.53365 0.22305 0.0
H166 H 0.69311 0.98942 0.1897 0.0
H167 H 0.49891 0.01862 0.33017 0.0
H168 H 0.67748 0.0787 0.23483 0.0
H169 H 0.4813 0.93412 0.27809 0.0
H170 H 0.57173 0.03822 0.29692 0.0
H171 H 0.61958 0.96677 0.22213 0.0
C172 C 0.67379 1.00435 0.20612 0.0
C173 C 0.69178 0.03596 0.20966 0.0
C174 C 0.55214 0.01535 0.29268 0.0
C175 C 0.60885 1.01014 0.24692 0.0
C176 C 0.51065 1.00402 0.31181 0.0
C177 C 0.48353 0.97476 0.30682 0.0
C178 C 0.56697 0.99739 0.26822 0.0
C179 C 0.50108 0.95684 0.28273 0.0
C180 C 0.63215 0.99136 0.22469 0.0
C181 C 0.66545 0.05417 0.23136 0.0
N182 N 0.5416 0.96853 0.26417 0.0
N183 N 0.62575 0.04095 0.24921 0.0
H184 H 0.50397 0.50933 0.83154 0.0
H185 H 0.69648 0.53691 0.69006 0.0
H186 H 0.4855 0.59298 0.77828 0.0
H187 H 0.68312 0.4485 0.73694 0.0
H188 H 0.62357 0.55993 0.72256 0.0
H189 H 0.57732 0.48959 0.79867 0.0
C190 C 0.51566 0.52372 0.81301 0.0
C191 C 0.48811 0.55275 0.80755 0.0
C192 C 0.63653 0.53545 0.72551 0.0
C193 C 0.5721 0.52996 0.7694 0.0
C194 C 0.67781 0.52225 0.7069 0.0
C195 C 0.6962 0.49076 0.71086 0.0
C196 C 0.61395 0.51702 0.74821 0.0
C197 C 0.67072 0.47291 0.73311 0.0
C198 C 0.55745 0.51231 0.7941 0.0
C199 C 0.5056 0.57043 0.78328 0.0
N200 N 0.63132 0.48634 0.75097 0.0
N201 N 0.54636 0.55865 0.76492 0.0
H202 H 0.76349 0.08096 0.7297 0.0
H203 H 0.95108 0.93105 0.77892 0.0
H204 H 0.73917 0.9884 0.69158 0.0
H205 H 0.94143 0.02009 0.82489 0.0
H206 H 0.87868 0.95105 0.74448 0.0
H207 H 0.83736 0.05908 0.76118 0.0
C208 C 0.77405 0.05601 0.72776 0.0
C209 C 0.74466 0.03643 0.70813 0.0
C210 C 0.89237 0.96603 0.76223 0.0
C211 C 0.8292 1.01098 0.74459 0.0
C212 C 0.93339 0.9546 0.78197 0.0
C213 C 0.95261 0.97397 0.80477 0.0
C214 C 0.87095 0.99703 0.76533 0.0
C215 C 0.92834 1.00432 0.80761 0.0
C216 C 0.81613 0.04346 0.7459 0.0
C217 C 0.76075 1.00433 0.70644 0.0
N218 N 0.88918 0.0149 0.78806 0.0
N219 N 0.80179 0.99248 0.72465 0.0
H220 H 0.19506 0.48948 0.83695 0.0
H221 H 0.0057 0.51548 0.6941 0.0
H222 H 0.18472 0.57699 0.7885 0.0
H223 H -0.01583 0.43313 0.74872 0.0
H224 H 0.07918 0.53531 0.7269 0.0
H225 H 0.12231 0.46627 0.80444 0.0
C226 C 0.1771 0.50391 0.81975 0.0
C227 C 0.19626 0.5352 0.81538 0.0
C228 C 0.05862 0.51285 0.73179 0.0
C229 C 0.11421 0.5087 0.77802 0.0
C230 C 0.01675 0.50139 0.71292 0.0
C231 C -0.0117 0.47271 0.71878 0.0
C232 C 0.07241 0.49562 0.75685 0.0
C233 C 0.00499 0.45539 0.74341 0.0
C234 C 0.1359 0.4906 0.80114 0.0
C235 C 0.17168 0.55275 0.79268 0.0
N236 N 0.04582 0.46723 0.76172 0.0
N237 N 0.13234 0.53921 0.77483 0.0
H238 H 0.24029 0.03767 0.83712 0.0
H239 H 0.43838 1.00609 0.69855 0.0
H240 H 0.25995 0.94713 0.79454 0.0
H241 H 0.45242 0.09229 0.74855 0.0
H242 H 0.36626 0.9866 0.73221 0.0
H243 H 0.31451 0.05986 0.80484 0.0
C244 C 0.26069 0.02237 0.82132 0.0
C245 C 0.24354 0.99054 0.8184 0.0
C246 C 0.38494 1.00981 0.73592 0.0
C247 C 0.32728 0.01583 0.78129 0.0
C248 C 0.42603 0.02108 0.71655 0.0
C249 C 0.4519 0.05081 0.72081 0.0
C250 C 0.36919 0.02832 0.75988 0.0
C251 C 0.43362 0.0692 0.74447 0.0
C252 C 0.30272 0.0351 0.80282 0.0
C253 C 0.27126 0.97185 0.79748 0.0
N254 N 0.39343 0.05758 0.76326 0.0
N255 N 0.3113 0.98483 0.77967 0.0
H256 H 0.03664 0.47586 0.44083 0.0
H257 H 0.89564 0.54826 0.58446 0.0
H258 H 0.03073 0.57614 0.4595 0.0
H259 H 0.9007 0.44801 0.5656 0.0
H260 H 0.94322 0.55895 0.53837 0.0
H261 H -0.01278 0.46523 0.48645 0.0
C262 C 0.02533 0.49567 0.45463 0.0
C263 C 0.03792 0.52697 0.44631 0.0
C264 C 0.9337 0.53462 0.54421 0.0
C265 C -0.01934 0.51492 0.49856 0.0
C266 C 0.90628 0.52847 0.57051 0.0
C267 C 0.89419 0.49715 0.57895 0.0
C268 C 0.9494 0.50928 0.52617 0.0
C269 C 0.90909 0.47251 0.55996 0.0
C270 C -0.00315 0.48956 0.48065 0.0
C271 C 0.02204 0.55164 0.46506 0.0
N272 N 0.93615 0.4791 0.53452 0.0
N273 N -0.00589 0.54509 0.49027 0.0
H274 H 0.3985 0.94749 0.46042 0.0
H275 H 0.53346 0.07863 0.56653 0.0
H276 H 0.39743 0.04799 0.44234 0.0
H277 H 0.53497 0.97812 0.58454 0.0
H278 H 0.48446 0.06785 0.52064 0.0
H279 H 0.4472 0.95826 0.50639 0.0
C280 C 0.40798 0.97183 0.46623 0.0
C281 C 0.39387 0.99686 0.44748 0.0
C282 C 0.49573 0.04814 0.53459 0.0
C283 C 0.45024 1.00936 0.49989 0.0
C284 C 0.52398 0.05429 0.56072 0.0
C285 C 0.53835 0.02926 0.57942 0.0
C286 C 0.48164 0.01674 0.5271 0.0
C287 C 0.52474 0.99817 0.57082 0.0
C288 C 0.43608 0.97797 0.49241 0.0
C289 C 0.40749 0.02793 0.45609 0.0
N290 N 0.49702 0.99282 0.54536 0.0
N291 N 0.43505 0.03328 0.48159 0.0
H292 H 0.53937 0.55112 0.08489 0.0
H293 H 0.39512 0.47807 0.94227 0.0
H294 H 0.53139 0.4507 0.06702 0.0
H295 H 0.40212 0.57847 0.96034 0.0
H296 H 0.44325 0.46758 0.98827 0.0
H297 H 0.48967 0.56157 0.03929 0.0
C298 C 0.52757 0.53124 0.07127 0.0
C299 C 0.53962 0.49995 0.07981 0.0
C300 C 0.43404 0.49191 0.98227 0.0
C301 C 0.48203 0.51181 0.0276 0.0
C302 C 0.4063 0.49794 0.95604 0.0
C303 C 0.39459 0.52923 0.94739 0.0
C304 C 0.45045 0.51734 1.00006 0.0
C305 C 0.41019 0.55398 0.96614 0.0
C306 C 0.49893 0.53725 0.04526 0.0
C307 C 0.52312 0.47519 0.06129 0.0
N308 N 0.43755 0.5475 0.99153 0.0
N309 N 0.49503 0.48165 0.03609 0.0
H310 H 0.03487 0.0496 0.94075 0.0
H311 H 0.89482 0.97769 0.08495 0.0
H312 H 0.03001 0.94943 0.96016 0.0
H313 H 0.89979 0.07788 0.06562 0.0
H314 H 0.94283 0.96688 0.03902 0.0
H315 H -0.01382 0.06041 0.98651 0.0
C316 C 0.02398 0.02986 0.95474 0.0
C317 C 0.03657 0.99853 0.94658 0.0
C318 C 0.93323 0.99122 0.04473 0.0
C319 C -0.01987 1.01078 0.99898 0.0
C320 C 0.90555 0.99744 0.07093 0.0
C321 C 0.89326 0.02878 0.07918 0.0
C322 C 0.94895 0.01651 0.02658 0.0
C323 C 0.90832 0.05336 0.06012 0.0
C324 C -0.00408 0.03607 0.98084 0.0
C325 C 0.02127 0.97394 0.96559 0.0
N326 N 0.93557 0.04671 0.03476 0.0
N327 N -0.00631 0.98059 0.99086 0.0
H328 H 0.14607 0.69557 0.29988 0.0
H329 H 0.27525 0.83847 0.39381 0.0
H330 H 0.1614 0.68947 0.39281 0.0
H331 H 0.28538 0.83104 0.30079 0.0
H332 H 0.22935 0.78576 0.39532 0.0
H333 H 0.18988 0.74784 0.30124 0.0
C334 C 0.15831 0.70532 0.32068 0.0
C335 C 0.15025 0.68797 0.34627 0.0
C336 C 0.242 0.79572 0.37466 0.0
C337 C 0.2014 0.74817 0.34797 0.0
C338 C 0.26835 0.82569 0.37378 0.0
C339 C 0.2841 0.83924 0.34713 0.0
C340 C 0.23108 0.77945 0.34869 0.0
C341 C 0.27393 0.82169 0.32185 0.0
C342 C 0.18369 0.73522 0.32143 0.0
C343 C 0.16684 0.70204 0.37256 0.0
N344 N 0.24792 0.79292 0.32328 0.0
N345 N 0.19191 0.73135 0.37275 0.0
H346 H 0.775 0.18926 0.13272 0.0
H347 H 0.64305 0.33136 0.22662 0.0
H348 H 0.78399 0.19642 0.22579 0.0
H349 H 0.66039 0.33806 0.13382 0.0
H350 H 0.68699 0.27913 0.22523 0.0
H351 H 0.72846 0.24179 0.13121 0.0
C352 C 0.76771 0.20194 0.15276 0.0
C353 C 0.78335 0.18837 0.17943 0.0
C354 C 0.6812 0.29187 0.20508 0.0
C355 C 0.72956 0.24795 0.17787 0.0
C356 C 0.65574 0.32174 0.20584 0.0
C357 C 0.64825 0.33925 0.1803 0.0
C358 C 0.69957 0.27912 0.17858 0.0
C359 C 0.66538 0.32535 0.15403 0.0
C360 C 0.74099 0.23181 0.15188 0.0
C361 C 0.77266 0.20579 0.20472 0.0
N362 N 0.69054 0.29608 0.15383 0.0
N363 N 0.74628 0.23446 0.2033 0.0
H364 H 0.65684 0.18862 0.63282 0.0
H365 H 0.79049 0.3296 0.72741 0.0
H366 H 0.64573 0.19581 0.72582 0.0
H367 H 0.77364 0.33697 0.63462 0.0
H368 H 0.74427 0.27798 0.72578 0.0
H369 H 0.70337 0.24116 0.63157 0.0
C370 C 0.66358 0.20133 0.65289 0.0
C371 C 0.6475 0.18772 0.67948 0.0
C372 C 0.75061 0.29074 0.70569 0.0
C373 C 0.70128 0.24732 0.67822 0.0
C374 C 0.7774 0.32027 0.70658 0.0
C375 C 0.78582 0.33778 0.68111 0.0
C376 C 0.73193 0.2783 0.67911 0.0
C377 C 0.76798 0.32426 0.65478 0.0
C378 C 0.69031 0.23121 0.65216 0.0
C379 C 0.6575 0.20519 0.70482 0.0
N380 N 0.74167 0.29528 0.65444 0.0
N381 N 0.68394 0.23386 0.70354 0.0
H382 H 0.29416 0.69683 0.79941 0.0
H383 H 0.15726 0.83698 0.89383 0.0
H384 H 0.27332 0.68846 0.89192 0.0
H385 H 0.14999 0.83073 0.80067 0.0
H386 H 0.20398 0.7845 0.89511 0.0
H387 H 0.24864 0.74863 0.80104 0.0
C388 C 0.28032 0.70598 0.82018 0.0
C389 C 0.28738 0.68813 0.84556 0.0
C390 C 0.19175 0.79466 0.87447 0.0
C391 C 0.23429 0.7478 0.84756 0.0
C392 C 0.16493 0.8245 0.87372 0.0
C393 C 0.1498 0.83834 0.84709 0.0
C394 C 0.20378 0.77881 0.8484 0.0
C395 C 0.16096 0.82117 0.82171 0.0
C396 C 0.25396 0.73561 0.82108 0.0
C397 C 0.2687 0.70143 0.87183 0.0
N398 N 0.18745 0.79252 0.82302 0.0
N399 N 0.24276 0.7305 0.87217 0.0
loop_
_geom_bond_atom_site_label_1
_geom_bond_atom_site_label_2
_geom_bond_distance
_geom_bond_site_symmetry_2
_ccdc_geom_bond_type
O0 Cd1 2.223 . S
O0 C8 1.315 . S
Cd1 O0 2.223 . S
Cd1 O4 2.297 . S
Cd1 O5 2.439 . S
Cd1 O11 2.240 . S
Cd2 O3 2.240 . S
Cd2 O10 2.223 . S
Cd2 O12 2.297 . S
Cd2 O13 2.439 . S
O3 Cd2 2.240 . S
O3 C8 1.279 . S
O4 Cd1 2.297 . S
O4 C6 1.247 . S
O5 Cd1 2.439 . S
O5 C6 1.208 . S
C6 O4 1.247 . S
C6 O5 1.208 . S
C7 O12 1.247 . S
C7 O13 1.208 . S
C8 O0 1.315 . S
C8 O3 1.279 . S
C9 O10 1.315 . S
C9 O11 1.279 . S
O10 Cd2 2.223 . S
O10 C9 1.315 . S
O11 Cd1 2.240 . S
O11 C9 1.279 . S
O12 Cd2 2.297 . S
O12 C7 1.247 . S
O13 Cd2 2.439 . S
O13 C7 1.208 . S
O14 Cd15 2.223 . S
O14 C22 1.315 . S
Cd15 O14 2.223 . S
Cd15 O18 2.297 . S
Cd15 O19 2.439 . S
Cd15 O25 2.240 . S
Cd16 O17 2.240 . S
Cd16 O24 2.223 . S
Cd16 O26 2.297 . S
Cd16 O27 2.439 . S
O17 Cd16 2.240 . S
O17 C22 1.279 . S
O18 Cd15 2.297 . S
O18 C20 1.247 . S
O19 Cd15 2.439 . S
O19 C20 1.208 . S
C20 O18 1.247 . S
C20 O19 1.208 . S
C21 O26 1.247 . S
C21 O27 1.208 . S
C22 O14 1.315 . S
C22 O17 1.279 . S
C23 O24 1.315 . S
C23 O25 1.279 . S
O24 Cd16 2.223 . S
O24 C23 1.315 . S
O25 Cd15 2.240 . S
O25 C23 1.279 . S
O26 Cd16 2.297 . S
O26 C21 1.247 . S
O27 Cd16 2.439 . S
O27 C21 1.208 . S
O28 Cd29 2.223 . S
O28 C36 1.315 . S
Cd29 O28 2.223 . S
Cd29 O32 2.297 . S
Cd29 O33 2.439 . S
Cd29 O39 2.240 . S
Cd30 O31 2.240 . S
Cd30 O38 2.223 . S
Cd30 O40 2.297 . S
Cd30 O41 2.439 . S
O31 Cd30 2.240 . S
O31 C36 1.279 . S
O32 Cd29 2.297 . S
O32 C34 1.247 . S
O33 Cd29 2.439 . S
O33 C34 1.208 . S
C34 O32 1.247 . S
C34 O33 1.208 . S
C35 O40 1.247 . S
C35 O41 1.208 . S
C36 O28 1.315 . S
C36 O31 1.279 . S
C37 O38 1.315 . S
C37 O39 1.279 . S
O38 Cd30 2.223 . S
O38 C37 1.315 . S
O39 Cd29 2.240 . S
O39 C37 1.279 . S
O40 Cd30 2.297 . S
O40 C35 1.247 . S
O41 Cd30 2.439 . S
O41 C35 1.208 . S
O42 Cd43 2.223 . S
O42 C50 1.315 . S
Cd43 O42 2.223 . S
Cd43 O46 2.297 . S
Cd43 O47 2.439 . S
Cd43 O53 2.240 . S
Cd44 O45 2.240 . S
Cd44 O52 2.223 . S
Cd44 O54 2.297 . S
Cd44 O55 2.439 . S
O45 Cd44 2.240 . S
O45 C50 1.279 . S
O46 Cd43 2.297 . S
O46 C48 1.247 . S
O47 Cd43 2.439 . S
O47 C48 1.208 . S
C48 O46 1.247 . S
C48 O47 1.208 . S
C49 O54 1.247 . S
C49 O55 1.208 . S
C50 O42 1.315 . S
C50 O45 1.279 . S
C51 O52 1.315 . S
C51 O53 1.279 . S
O52 Cd44 2.223 . S
O52 C51 1.315 . S
O53 Cd43 2.240 . S
O53 C51 1.279 . S
O54 Cd44 2.297 . S
O54 C49 1.247 . S
O55 Cd44 2.439 . S
O55 C49 1.208 . S
O56 Cd57 2.223 . S
O56 C64 1.315 . S
Cd57 O56 2.223 . S
Cd57 O60 2.297 . S
Cd57 O61 2.439 . S
Cd57 O67 2.240 . S
Cd58 O59 2.240 . S
Cd58 O66 2.223 . S
Cd58 O68 2.297 . S
Cd58 O69 2.439 . S
O59 Cd58 2.240 . S
O59 C64 1.279 . S
O60 Cd57 2.297 . S
O60 C62 1.247 . S
O61 Cd57 2.439 . S
O61 C62 1.208 . S
C62 O60 1.247 . S
C62 O61 1.208 . S
C63 O68 1.247 . S
C63 O69 1.208 . S
C64 O56 1.315 . S
C64 O59 1.279 . S
C65 O66 1.315 . S
C65 O67 1.279 . S
O66 Cd58 2.223 . S
O66 C65 1.315 . S
O67 Cd57 2.240 . S
O67 C65 1.279 . S
O68 Cd58 2.297 . S
O68 C63 1.247 . S
O69 Cd58 2.439 . S
O69 C63 1.208 . S
O70 Cd71 2.223 . S
O70 C78 1.315 . S
Cd71 O70 2.223 . S
Cd71 O74 2.297 . S
Cd71 O75 2.439 . S
Cd71 O81 2.240 . S
Cd72 O73 2.240 . S
Cd72 O80 2.223 . S
Cd72 O82 2.297 . S
Cd72 O83 2.439 . S
O73 Cd72 2.240 . S
O73 C78 1.279 . S
O74 Cd71 2.297 . S
O74 C76 1.247 . S
O75 Cd71 2.439 . S
O75 C76 1.208 . S
C76 O74 1.247 . S
C76 O75 1.208 . S
C77 O82 1.247 . S
C77 O83 1.208 . S
C78 O70 1.315 . S
C78 O73 1.279 . S
C79 O80 1.315 . S
C79 O81 1.279 . S
O80 Cd72 2.223 . S
O80 C79 1.315 . S
O81 Cd71 2.240 . S
O81 C79 1.279 . S
O82 Cd72 2.297 . S
O82 C77 1.247 . S
O83 Cd72 2.439 . S
O83 C77 1.208 . S
O84 Cd85 2.223 . S
O84 C92 1.315 . S
Cd85 O84 2.223 . S
Cd85 O88 2.297 . S
Cd85 O89 2.439 . S
Cd85 O95 2.240 . S
Cd86 O87 2.240 . S
Cd86 O94 2.223 . S
Cd86 O96 2.297 . S
Cd86 O97 2.439 . S
O87 Cd86 2.240 . S
O87 C92 1.279 . S
O88 Cd85 2.297 . S
O88 C90 1.247 . S
O89 Cd85 2.439 . S
O89 C90 1.208 . S
C90 O88 1.247 . S
C90 O89 1.208 . S
C91 O96 1.247 . S
C91 O97 1.208 . S
C92 O84 1.315 . S
C92 O87 1.279 . S
C93 O94 1.315 . S
C93 O95 1.279 . S
O94 Cd86 2.223 . S
O94 C93 1.315 . S
O95 Cd85 2.240 . S
O95 C93 1.279 . S
O96 Cd86 2.297 . S
O96 C91 1.247 . S
O97 Cd86 2.439 . S
O97 C91 1.208 . S
O98 Cd99 2.223 . S
O98 C106 1.315 . S
Cd99 O98 2.223 . S
Cd99 O102 2.297 . S
Cd99 O103 2.439 . S
Cd99 O109 2.240 . S
Cd100 O101 2.240 . S
Cd100 O108 2.223 . S
Cd100 O110 2.297 . S
Cd100 O111 2.439 . S
O101 Cd100 2.240 . S
O101 C106 1.279 . S
O102 Cd99 2.297 . S
O102 C104 1.247 . S
O103 Cd99 2.439 . S
O103 C104 1.208 . S
C104 O102 1.247 . S
C104 O103 1.208 . S
C105 O110 1.247 . S
C105 O111 1.208 . S
C106 O98 1.315 . S
C106 O101 1.279 . S
C107 O108 1.315 . S
C107 O109 1.279 . S
O108 Cd100 2.223 . S
O108 C107 1.315 . S
O109 Cd99 2.240 . S
O109 C107 1.279 . S
O110 Cd100 2.297 . S
O110 C105 1.247 . S
O111 Cd100 2.439 . S
O111 C105 1.208 . S
H112 C118 0.930 . S
H113 C122 0.930 . S
H114 C127 0.929 . S
H115 C125 0.929 . S
H116 C120 0.929 . S
H117 C126 0.929 . S
C118 H112 0.930 . S
C118 C119 1.367 . S
C118 C126 1.378 . S
C119 C118 1.367 . S
C119 C127 1.433 . S
C120 H116 0.929 . S
C120 C122 1.378 . S
C120 C124 1.350 . S
C121 C124 1.463 . S
C121 C126 1.350 . S
C121 N129 1.427 . S
C122 H113 0.930 . S
C122 C120 1.378 . S
C122 C123 1.367 . S
C123 C122 1.367 . S
C123 C125 1.433 . S
C124 C120 1.350 . S
C124 C121 1.463 . S
C124 N128 1.427 . S
C125 H115 0.929 . S
C125 C123 1.433 . S
C125 N128 1.384 . S
C126 H117 0.929 . S
C126 C118 1.378 . S
C126 C121 1.350 . S
C127 H114 0.929 . S
C127 C119 1.433 . S
C127 N129 1.384 . S
N128 C124 1.427 . S
N128 C125 1.384 . S
N129 C121 1.427 . S
N129 C127 1.384 . S
H130 C136 0.930 . S
H131 C140 0.930 . S
H132 C145 0.929 1_655 S
H133 C143 0.929 . S
H134 C138 0.929 1_545 S
H135 C144 0.929 . S
C136 H130 0.930 . S
C136 C137 1.367 . S
C136 C144 1.378 1_545 S
C137 C136 1.367 . S
C137 C145 1.433 . S
C138 H134 0.929 1_565 S
C138 C140 1.378 . S
C138 C142 1.350 . S
C139 C142 1.457 1_545 S
C139 C144 1.347 1_545 S
C139 N147 1.436 . S
C140 H131 0.930 . S
C140 C138 1.378 . S
C140 C141 1.367 . S
C141 C140 1.367 . S
C141 C143 1.433 . S
C142 C138 1.350 . S
C142 C139 1.457 1_565 S
C142 N146 1.427 . S
C143 H133 0.929 . S
C143 C141 1.433 . S
C143 N146 1.384 . S
C144 H135 0.929 . S
C144 C136 1.378 1_565 S
C144 C139 1.347 1_565 S
C145 H132 0.929 1_455 S
C145 C137 1.433 . S
C145 N147 1.384 . S
N146 C142 1.427 . S
N146 C143 1.384 . S
N147 C139 1.436 . S
N147 C145 1.384 . S
H148 C154 0.930 . S
H149 C158 0.930 . S
H150 C163 0.929 . S
H151 C161 0.929 1_455 S
H152 C156 0.929 . S
H153 C162 0.929 . S
C154 H148 0.930 . S
C154 C155 1.367 . S
C154 C162 1.378 . S
C155 C154 1.367 . S
C155 C163 1.433 . S
C156 H152 0.929 . S
C156 C158 1.378 . S
C156 C160 1.350 . S
C157 C160 1.463 . S
C157 C162 1.350 . S
C157 N165 1.427 . S
C158 H149 0.930 . S
C158 C156 1.378 . S
C158 C159 1.367 . S
C159 C158 1.367 . S
C159 C161 1.433 . S
C160 C156 1.350 . S
C160 C157 1.463 . S
C160 N164 1.427 . S
C161 H151 0.929 1_655 S
C161 C159 1.433 . S
C161 N164 1.384 . S
C162 H153 0.929 . S
C162 C154 1.378 . S
C162 C157 1.350 . S
C163 H150 0.929 . S
C163 C155 1.433 . S
C163 N165 1.384 . S
N164 C160 1.427 . S
N164 C161 1.384 . S
N165 C157 1.427 . S
N165 C163 1.384 . S
H166 C172 0.930 1_565 S
H167 C176 0.930 . S
H168 C181 0.929 . S
H169 C179 0.929 . S
H170 C174 0.929 . S
H171 C180 0.929 . S
C172 H166 0.930 1_545 S
C172 C173 1.367 . S
C172 C180 1.378 1_545 S
C173 C172 1.367 . S
C173 C181 1.433 . S
C174 H170 0.929 . S
C174 C176 1.378 . S
C174 C178 1.350 1_545 S
C175 C178 1.463 1_545 S
C175 C180 1.350 1_545 S
C175 N183 1.427 . S
C176 H167 0.930 . S
C176 C174 1.378 . S
C176 C177 1.367 1_545 S
C177 C176 1.367 1_565 S
C177 C179 1.433 . S
C178 C174 1.350 1_565 S
C178 C175 1.463 1_565 S
C178 N182 1.427 . S
C179 H169 0.929 . S
C179 C177 1.433 . S
C179 N182 1.384 . S
C180 H171 0.929 . S
C180 C172 1.378 1_565 S
C180 C175 1.350 1_565 S
C181 H168 0.929 . S
C181 C173 1.433 . S
C181 N183 1.384 . S
N182 C178 1.427 . S
N182 C179 1.384 . S
N183 C175 1.427 . S
N183 C181 1.384 . S
H184 C190 0.930 . S
H185 C194 0.930 . S
H186 C199 0.929 . S
H187 C197 0.929 . S
H188 C192 0.929 . S
H189 C198 0.929 . S
C190 H184 0.930 . S
C190 C191 1.367 . S
C190 C198 1.378 . S
C191 C190 1.367 . S
C191 C199 1.433 . S
C192 H188 0.929 . S
C192 C194 1.378 . S
C192 C196 1.350 . S
C193 C196 1.463 . S
C193 C198 1.350 . S
C193 N201 1.427 . S
C194 H185 0.930 . S
C194 C192 1.378 . S
C194 C195 1.367 . S
C195 C194 1.367 . S
C195 C197 1.433 . S
C196 C192 1.350 . S
C196 C193 1.463 . S
C196 N200 1.427 . S
C197 H187 0.929 . S
C197 C195 1.433 . S
C197 N200 1.384 . S
C198 H189 0.929 . S
C198 C190 1.378 . S
C198 C193 1.350 . S
C199 H186 0.929 . S
C199 C191 1.433 . S
C199 N201 1.384 . S
N200 C196 1.427 . S
N200 C197 1.384 . S
N201 C193 1.427 . S
N201 C199 1.384 . S
H202 C208 0.930 . S
H203 C212 0.930 . S
H204 C217 0.929 1_565 S
H205 C215 0.929 . S
H206 C210 0.929 . S
H207 C216 0.929 . S
C208 H202 0.930 . S
C208 C209 1.367 . S
C208 C216 1.378 . S
C209 C208 1.367 . S
C209 C217 1.433 . S
C210 H206 0.929 . S
C210 C212 1.378 . S
C210 C214 1.350 . S
C211 C214 1.463 1_545 S
C211 C216 1.350 . S
C211 N219 1.427 1_545 S
C212 H203 0.930 . S
C212 C210 1.378 . S
C212 C213 1.367 . S
C213 C212 1.367 . S
C213 C215 1.433 1_565 S
C214 C210 1.350 . S
C214 C211 1.463 1_565 S
C214 N218 1.427 1_565 S
C215 H205 0.929 . S
C215 C213 1.433 1_545 S
C215 N218 1.384 . S
C216 H207 0.929 . S
C216 C208 1.378 . S
C216 C211 1.350 . S
C217 H204 0.929 1_545 S
C217 C209 1.433 . S
C217 N219 1.384 1_545 S
N218 C214 1.427 1_545 S
N218 C215 1.384 . S
N219 C211 1.427 1_565 S
N219 C217 1.384 1_565 S
H220 C226 0.930 . S
H221 C230 0.930 . S
H222 C235 0.929 . S
H223 C233 0.929 . S
H224 C228 0.929 . S
H225 C234 0.929 . S
C226 H220 0.930 . S
C226 C227 1.367 . S
C226 C234 1.378 . S
C227 C226 1.367 . S
C227 C235 1.433 . S
C228 H224 0.929 . S
C228 C230 1.378 . S
C228 C232 1.350 . S
C229 C232 1.463 . S
C229 C234 1.350 . S
C229 N237 1.427 . S
C230 H221 0.930 . S
C230 C228 1.378 . S
C230 C231 1.367 . S
C231 C230 1.367 . S
C231 C233 1.433 1_455 S
C232 C228 1.350 . S
C232 C229 1.463 . S
C232 N236 1.427 . S
C233 H223 0.929 . S
C233 C231 1.433 1_655 S
C233 N236 1.384 1_655 S
C234 H225 0.929 . S
C234 C226 1.378 . S
C234 C229 1.350 . S
C235 H222 0.929 . S
C235 C227 1.433 . S
C235 N237 1.384 . S
N236 C232 1.427 . S
N236 C233 1.384 1_455 S
N237 C229 1.427 . S
N237 C235 1.384 . S
H238 C244 0.930 . S
H239 C248 0.930 . S
H240 C253 0.929 . S
H241 C251 0.929 . S
H242 C246 0.929 . S
H243 C252 0.929 1_545 S
C244 H238 0.930 . S
C244 C245 1.367 . S
C244 C252 1.378 . S
C245 C244 1.367 . S
C245 C253 1.433 . S
C246 H242 0.929 . S
C246 C248 1.378 1_565 S
C246 C250 1.348 1_565 S
C247 C250 1.457 1_565 S
C247 C252 1.350 . S
C247 N255 1.427 . S
C248 H239 0.930 . S
C248 C246 1.378 1_545 S
C248 C249 1.367 . S
C249 C248 1.367 . S
C249 C251 1.433 . S
C250 C246 1.348 1_545 S
C250 C247 1.457 1_545 S
C250 N254 1.436 . S
C251 H241 0.929 . S
C251 C249 1.433 . S
C251 N254 1.384 . S
C252 H243 0.929 1_565 S
C252 C244 1.378 . S
C252 C247 1.350 . S
C253 H240 0.929 . S
C253 C245 1.433 . S
C253 N255 1.384 . S
N254 C250 1.436 . S
N254 C251 1.384 . S
N255 C247 1.427 . S
N255 C253 1.384 . S
H256 C262 0.930 . S
H257 C266 0.930 . S
H258 C271 0.929 1_655 S
H259 C269 0.929 1_455 S
H260 C264 0.929 . S
H261 C270 0.929 . S
C262 H256 0.930 . S
C262 C263 1.367 . S
C262 C270 1.378 . S
C263 C262 1.367 . S
C263 C271 1.433 . S
C264 H260 0.929 . S
C264 C266 1.378 . S
C264 C268 1.350 . S
C265 C268 1.463 1_455 S
C265 C270 1.350 . S
C265 N273 1.427 1_455 S
C266 H257 0.930 . S
C266 C264 1.378 . S
C266 C267 1.367 . S
C267 C266 1.367 . S
C267 C269 1.433 . S
C268 C264 1.350 . S
C268 C265 1.463 1_655 S
C268 N272 1.427 1_655 S
C269 H259 0.929 1_655 S
C269 C267 1.433 . S
C269 N272 1.384 1_655 S
C270 H261 0.929 . S
C270 C262 1.378 . S
C270 C265 1.350 . S
C271 H258 0.929 1_455 S
C271 C263 1.433 . S
C271 N273 1.384 1_455 S
N272 C268 1.427 1_455 S
N272 C269 1.384 1_455 S
N273 C265 1.427 1_655 S
N273 C271 1.384 1_655 S
H274 C280 0.930 . S
H275 C284 0.930 . S
H276 C289 0.929 . S
H277 C287 0.929 . S
H278 C282 0.929 . S
H279 C288 0.929 . S
C280 H274 0.930 . S
C280 C281 1.367 . S
C280 C288 1.378 . S
C281 C280 1.367 . S
C281 C289 1.433 . S
C282 H278 0.929 . S
C282 C284 1.378 . S
C282 C286 1.350 . S
C283 C286 1.463 1_565 S
C283 C288 1.350 . S
C283 N291 1.427 1_565 S
C284 H275 0.930 . S
C284 C282 1.378 . S
C284 C285 1.367 . S
C285 C284 1.367 . S
C285 C287 1.433 . S
C286 C282 1.350 . S
C286 C283 1.463 1_545 S
C286 N290 1.427 1_545 S
C287 H277 0.929 . S
C287 C285 1.433 . S
C287 N290 1.384 1_545 S
C288 H279 0.929 . S
C288 C280 1.378 . S
C288 C283 1.350 . S
C289 H276 0.929 . S
C289 C281 1.433 . S
C289 N291 1.384 1_565 S
N290 C286 1.427 1_565 S
N290 C287 1.384 1_565 S
N291 C283 1.427 1_545 S
N291 C289 1.384 1_545 S
H292 C298 0.930 . S
H293 C302 0.930 . S
H294 C307 0.929 . S
H295 C305 0.929 . S
H296 C300 0.929 . S
H297 C306 0.929 . S
C298 H292 0.930 . S
C298 C299 1.367 . S
C298 C306 1.378 . S
C299 C298 1.367 . S
C299 C307 1.433 . S
C300 H296 0.929 . S
C300 C302 1.378 . S
C300 C304 1.350 . S
C301 C304 1.463 1_554 S
C301 C306 1.350 . S
C301 N309 1.427 . S
C302 H293 0.930 . S
C302 C300 1.378 . S
C302 C303 1.367 . S
C303 C302 1.367 . S
C303 C305 1.433 . S
C304 C300 1.350 . S
C304 C301 1.463 1_556 S
C304 N308 1.427 . S
C305 H295 0.929 . S
C305 C303 1.433 . S
C305 N308 1.384 . S
C306 H297 0.929 . S
C306 C298 1.378 . S
C306 C301 1.350 . S
C307 H294 0.929 . S
C307 C299 1.433 . S
C307 N309 1.384 . S
N308 C304 1.427 . S
N308 C305 1.384 . S
N309 C301 1.427 . S
N309 C307 1.384 . S
H310 C316 0.930 1_545 S
H311 C320 0.930 1_565 S
H312 C325 0.929 . S
H313 C323 0.929 . S
H314 C318 0.929 . S
H315 C324 0.929 . S
C316 H310 0.930 1_565 S
C316 C317 1.367 . S
C316 C324 1.378 1_465 S
C317 C316 1.367 . S
C317 C325 1.433 . S
C318 H314 0.929 . S
C318 C320 1.378 1_465 S
C318 C322 1.350 1_465 S
C319 C322 1.463 1_466 S
C319 C324 1.350 1_465 S
C319 N327 1.427 . S
C320 H311 0.930 1_545 S
C320 C318 1.378 1_645 S
C320 C321 1.367 . S
C321 C320 1.367 . S
C321 C323 1.433 . S
C322 C318 1.350 1_645 S
C322 C319 1.463 1_644 S
C322 N326 1.427 . S
C323 H313 0.929 . S
C323 C321 1.433 . S
C323 N326 1.384 . S
C324 H315 0.929 . S
C324 C316 1.378 1_645 S
C324 C319 1.350 1_645 S
C325 H312 0.929 . S
C325 C317 1.433 . S
C325 N327 1.384 . S
N326 C322 1.427 . S
N326 C323 1.384 . S
N327 C319 1.427 . S
N327 C325 1.384 . S
H328 C334 0.930 . S
H329 C338 0.930 . S
H330 C343 0.929 . S
H331 C341 0.929 . S
H332 C336 0.929 . S
H333 C342 0.929 . S
C334 H328 0.930 . S
C334 C335 1.367 . S
C334 C342 1.378 . S
C335 C334 1.367 . S
C335 C343 1.433 . S
C336 H332 0.929 . S
C336 C338 1.378 . S
C336 C340 1.350 . S
C337 C340 1.463 . S
C337 C342 1.350 . S
C337 N345 1.427 . S
C338 H329 0.930 . S
C338 C336 1.378 . S
C338 C339 1.367 . S
C339 C338 1.367 . S
C339 C341 1.433 . S
C340 C336 1.350 . S
C340 C337 1.463 . S
C340 N344 1.427 . S
C341 H331 0.929 . S
C341 C339 1.433 . S
C341 N344 1.384 . S
C342 H333 0.929 . S
C342 C334 1.378 . S
C342 C337 1.350 . S
C343 H330 0.929 . S
C343 C335 1.433 . S
C343 N345 1.384 . S
N344 C340 1.427 . S
N344 C341 1.384 . S
N345 C337 1.427 . S
N345 C343 1.384 . S
H346 C352 0.930 . S
H347 C356 0.930 . S
H348 C361 0.929 . S
H349 C359 0.929 . S
H350 C354 0.929 . S
H351 C360 0.929 . S
C352 H346 0.930 . S
C352 C353 1.367 . S
C352 C360 1.378 . S
C353 C352 1.367 . S
C353 C361 1.433 . S
C354 H350 0.929 . S
C354 C356 1.378 . S
C354 C358 1.350 . S
C355 C358 1.463 . S
C355 C360 1.350 . S
C355 N363 1.427 . S
C356 H347 0.930 . S
C356 C354 1.378 . S
C356 C357 1.367 . S
C357 C356 1.367 . S
C357 C359 1.433 . S
C358 C354 1.350 . S
C358 C355 1.463 . S
C358 N362 1.427 . S
C359 H349 0.929 . S
C359 C357 1.433 . S
C359 N362 1.384 . S
C360 H351 0.929 . S
C360 C352 1.378 . S
C360 C355 1.350 . S
C361 H348 0.929 . S
C361 C353 1.433 . S
C361 N363 1.384 . S
N362 C358 1.427 . S
N362 C359 1.384 . S
N363 C355 1.427 . S
N363 C361 1.384 . S
H364 C370 0.930 . S
H365 C374 0.930 . S
H366 C379 0.929 . S
H367 C377 0.929 . S
H368 C372 0.929 . S
H369 C378 0.929 . S
C370 H364 0.930 . S
C370 C371 1.367 . S
C370 C378 1.378 . S
C371 C370 1.367 . S
C371 C379 1.433 . S
C372 H368 0.929 . S
C372 C374 1.378 . S
C372 C376 1.350 . S
C373 C376 1.463 . S
C373 C378 1.350 . S
C373 N381 1.427 . S
C374 H365 0.930 . S
C374 C372 1.378 . S
C374 C375 1.367 . S
C375 C374 1.367 . S
C375 C377 1.433 . S
C376 C372 1.350 . S
C376 C373 1.463 . S
C376 N380 1.427 . S
C377 H367 0.929 . S
C377 C375 1.433 . S
C377 N380 1.384 . S
C378 H369 0.929 . S
C378 C370 1.378 . S
C378 C373 1.350 . S
C379 H366 0.929 . S
C379 C371 1.433 . S
C379 N381 1.384 . S
N380 C376 1.427 . S
N380 C377 1.384 . S
N381 C373 1.427 . S
N381 C379 1.384 . S
H382 C388 0.930 . S
H383 C392 0.930 . S
H384 C397 0.929 . S
H385 C395 0.929 . S
H386 C390 0.929 . S
H387 C396 0.929 . S
C388 H382 0.930 . S
C388 C389 1.367 . S
C388 C396 1.378 . S
C389 C388 1.367 . S
C389 C397 1.433 . S
C390 H386 0.929 . S
C390 C392 1.378 . S
C390 C394 1.350 . S
C391 C394 1.463 . S
C391 C396 1.350 . S
C391 N399 1.427 . S
C392 H383 0.930 . S
C392 C390 1.378 . S
C392 C393 1.367 . S
C393 C392 1.367 . S
C393 C395 1.433 . S
C394 C390 1.350 . S
C394 C391 1.463 . S
C394 N398 1.427 . S
C395 H385 0.929 . S
C395 C393 1.433 . S
C395 N398 1.384 . S
C396 H387 0.929 . S
C396 C388 1.378 . S
C396 C391 1.350 . S
C397 H384 0.929 . S
C397 C389 1.433 . S
C397 N399 1.384 . S
N398 C394 1.427 . S
N398 C395 1.384 . S
N399 C391 1.427 . S
N399 C397 1.384 . S
C119 C8 1.681 . S
C123 C37 1.681 . S
C137 C51 1.680 1_455 S
C141 C22 1.680 . S
C155 C36 1.674 . S
C159 C9 1.685 1_655 S
C173 C50 1.681 . S
C177 C23 1.680 . S
C191 C93 1.681 . S
C195 C64 1.678 . S
C209 C78 1.674 . S
C213 C107 1.686 1_655 S
C227 C92 1.677 . S
C231 C65 1.682 1_455 S
C245 C106 1.680 . S
C249 C79 1.680 . S
C263 C7 1.483 . S
C267 C63 1.483 . S
C281 C21 1.495 . S
C285 C77 1.495 . S
C299 C35 1.483 . S
C303 C91 1.483 . S
C317 C105 1.485 . S
C321 C49 1.485 . S
C335 C6 1.487 . S
C339 C20 1.498 . S
C353 C48 1.499 . S
C357 C34 1.489 . S
C371 C76 1.499 . S
C375 C62 1.492 . S
C389 C90 1.488 . S
C393 C104 1.489 . S
