# Generated by pormake.
# Topology vbm, (6)-cn, num edge types: 1
# Building blocks:
#     Node 0, Type 0, BuildingBlock: NUHQIS_clean_sbu_0, # of connection points: 6
#     Node 1, Type 0, BuildingBlock: NUHQIS_clean_sbu_0, # of connection points: 6
#     Node 2, Type 0, BuildingBlock: NUHQIS_clean_sbu_0, # of connection points: 6
#     Node 3, Type 0, BuildingBlock: NUHQIS_clean_sbu_0, # of connection points: 6
#     Node 4, Type 0, BuildingBlock: NUHQIS_clean_sbu_0, # of connection points: 6
#     Node 5, Type 0, BuildingBlock: NUHQIS_clean_sbu_0, # of connection points: 6
#     Node 6, Type 0, BuildingBlock: NUHQIS_clean_sbu_0, # of connection points: 6
#     Node 7, Type 0, BuildingBlock: NUHQIS_clean_sbu_0, # of connection points: 6
#     Node 8, Type 0, BuildingBlock: NUHQIS_clean_sbu_0, # of connection points: 6
#     Node 9, Type 0, BuildingBlock: NUHQIS_clean_sbu_0, # of connection points: 6
#     Node 10, Type 0, BuildingBlock: NUHQIS_clean_sbu_0, # of connection points: 6
#     Node 11, Type 0, BuildingBlock: NUHQIS_clean_sbu_0, # of connection points: 6
#     Node 12, Type 0, BuildingBlock: NUHQIS_clean_sbu_0, # of connection points: 6
#     Node 13, Type 0, BuildingBlock: NUHQIS_clean_sbu_0, # of connection points: 6
#     Node 14, Type 0, BuildingBlock: NUHQIS_clean_sbu_0, # of connection points: 6
#     Node 15, Type 0, BuildingBlock: NUHQIS_clean_sbu_0, # of connection points: 6
#     Edge 16, Type (0, 0), None
#     Edge 17, Type (0, 0), None
#     Edge 18, Type (0, 0), None
#     Edge 19, Type (0, 0), None
#     Edge 20, Type (0, 0), None
#     Edge 21, Type (0, 0), None
#     Edge 22, Type (0, 0), None
#     Edge 23, Type (0, 0), None
#     Edge 24, Type (0, 0), None
#     Edge 25, Type (0, 0), None
#     Edge 26, Type (0, 0), None
#     Edge 27, Type (0, 0), None
#     Edge 28, Type (0, 0), None
#     Edge 29, Type (0, 0), None
#     Edge 30, Type (0, 0), None
#     Edge 31, Type (0, 0), None
#     Edge 32, Type (0, 0), None
#     Edge 33, Type (0, 0), None
#     Edge 34, Type (0, 0), None
#     Edge 35, Type (0, 0), None
#     Edge 36, Type (0, 0), None
#     Edge 37, Type (0, 0), None
#     Edge 38, Type (0, 0), None
#     Edge 39, Type (0, 0), None
#     Edge 40, Type (0, 0), None
#     Edge 41, Type (0, 0), None
#     Edge 42, Type (0, 0), None
#     Edge 43, Type (0, 0), None
#     Edge 44, Type (0, 0), None
#     Edge 45, Type (0, 0), None
#     Edge 46, Type (0, 0), None
#     Edge 47, Type (0, 0), None
#     Edge 48, Type (0, 0), None
#     Edge 49, Type (0, 0), None
#     Edge 50, Type (0, 0), None
#     Edge 51, Type (0, 0), None
#     Edge 52, Type (0, 0), None
#     Edge 53, Type (0, 0), None
#     Edge 54, Type (0, 0), None
#     Edge 55, Type (0, 0), None
#     Edge 56, Type (0, 0), None
#     Edge 57, Type (0, 0), None
#     Edge 58, Type (0, 0), None
#     Edge 59, Type (0, 0), None
#     Edge 60, Type (0, 0), None
#     Edge 61, Type (0, 0), None
#     Edge 62, Type (0, 0), None
#     Edge 63, Type (0, 0), None
# Relax obj value: 0.091
# Max RMSD: 0.207
# Mean RMSD: 0.207
data_MOF--net-vbm--node1-NUHQIS_clean_sbu_0--edge1-none
_symmetry_space_group_name_H-M    P1
_symmetry_Int_Tables_number       1
_symmetry_cell_setting            triclinic
loop_
_symmetry_equiv_pos_as_xyz
'x, y, z'
_cell_length_a     23.069054
_cell_length_b     15.75347
_cell_length_c     25.311122
_cell_angle_alpha  89.893854
_cell_angle_beta   90.049481
_cell_angle_gamma 90.038757
loop_
_atom_site_label
_atom_site_type_symbol
_atom_site_fract_x
_atom_site_fract_y
_atom_site_fract_z
_atom_type_partial_charge
Tb0 Tb 0.12466 0.14219 0.10067 0.0
Eu1 Eu 0.04345 0.29689 0.13421 0.0
C2 C 0.07889 0.25845 0.0153 0.0
C3 C 0.17815 0.32316 0.12859 0.0
C4 C 0.15754 0.92492 0.0819 0.0
C5 C 0.12153 0.7892 0.04907 0.0
C6 C 0.14867 0.86789 0.04037 0.0
C7 C 0.13958 0.90131 0.13275 0.0
C8 C 0.11436 0.82227 0.14187 0.0
C9 C 0.10316 0.76551 0.10015 0.0
C10 C 0.17765 1.01264 0.07134 0.0
O11 O 0.08801 0.08781 0.17062 0.0
O12 O 0.05917 0.21206 0.20914 0.0
O13 O -0.02414 0.19844 0.13078 0.0
O14 O 0.03346 0.10164 0.08667 0.0
C15 C 0.06955 0.12867 0.21161 0.0
O16 O 0.0321 0.40265 0.18882 0.0
O17 O -0.02231 0.39319 0.119 0.0
O18 O 0.03378 0.27582 0.04488 0.0
O19 O 0.12672 0.2346 0.0382 0.0
O20 O 0.18279 0.24008 0.13698 0.0
O21 O 0.12898 0.35414 0.11301 0.0
C22 C -0.01744 0.1272 0.10526 0.0
O23 O 0.1443 1.0564 0.03969 0.0
O24 O 0.19334 1.05693 0.11265 0.0
C25 C 0.0201 0.52588 0.13798 0.0
C26 C 0.07262 0.68294 0.11079 0.0
C27 C 0.03472 0.6755 0.15413 0.0
C28 C 0.01056 0.59759 0.16866 0.0
C29 C 0.05554 0.5327 0.09289 0.0
C30 C 0.08206 0.61013 0.07972 0.0
C31 C -0.00186 0.44281 0.15587 0.0
H32 H 0.11404 0.74817 0.01555 0.0
H33 H 0.16152 0.88578 0.00096 0.0
H34 H 0.14571 0.94331 0.16608 0.0
H35 H 0.10468 0.8058 0.1822 0.0
H36 H 0.02498 0.72956 0.17862 0.0
H37 H -0.01547 0.59345 0.2042 0.0
H38 H 0.06423 0.47751 0.06873 0.0
H39 H 0.11121 0.61172 0.04627 0.0
Tb40 Tb 0.78837 1.05737 0.09957 0.0
Eu41 Eu 0.87044 0.9079 0.13304 0.0
C42 C 0.82071 0.92466 0.01559 0.0
C43 C 0.73195 0.87678 0.12619 0.0
C44 C 0.77505 0.27798 0.07491 0.0
C45 C 0.7923 0.42617 0.05279 0.0
C46 C 0.76551 0.34828 0.0421 0.0
C47 C 0.81204 0.28675 0.1187 0.0
C48 C 0.83741 0.36488 0.13035 0.0
C49 C 0.82732 0.43564 0.09782 0.0
C50 C 0.75014 0.19394 0.06281 0.0
O51 O 0.78641 1.07798 0.18273 0.0
O52 O 0.87149 1.00975 0.20088 0.0
O53 O 0.94095 0.98975 0.10499 0.0
O54 O 0.87945 0.10358 0.1061 0.0
C55 C 0.83155 1.06769 0.21281 0.0
O56 O 0.87863 0.80762 0.19226 0.0
O57 O 0.93771 0.8122 0.12532 0.0
O58 O 0.8675 0.90541 0.04251 0.0
O59 O 0.77832 0.96466 0.0384 0.0
O60 O 0.72294 0.95984 0.12181 0.0
O61 O 0.78396 0.84529 0.12389 0.0
C62 C 0.93201 1.07082 0.10173 0.0
O63 O 0.7849 0.14422 0.03652 0.0
O64 O 0.72617 0.15417 0.10257 0.0
C65 C 0.89311 0.67993 0.14476 0.0
C66 C 0.85011 0.51996 0.11321 0.0
C67 C 0.84267 0.54864 0.16517 0.0
C68 C 0.86402 0.62759 0.18082 0.0
C69 C 0.9 0.65171 0.09226 0.0
C70 C 0.87866 0.57239 0.07667 0.0
C71 C 0.91363 0.76485 0.16164 0.0
H72 H 0.78338 0.47991 0.02729 0.0
H73 H 0.73688 0.34356 0.00869 0.0
H74 H 0.82046 0.23355 0.14466 0.0
H75 H 0.86458 0.3702 0.16509 0.0
H76 H 0.81915 0.51018 0.19326 0.0
H77 H 0.85756 0.64838 0.221 0.0
H78 H 0.92199 0.69062 0.0632 0.0
H79 H 0.88497 0.5517 0.03629 0.0
Tb80 Tb 0.12229 1.05666 0.36726 0.0
Eu81 Eu 0.04962 0.90592 0.33371 0.0
C82 C 0.08105 0.93867 0.45717 0.0
C83 C 0.17703 0.87317 0.35503 0.0
C84 C 0.16288 0.2721 0.36649 0.0
C85 C 0.08992 0.38187 0.375 0.0
C86 C 0.10931 0.3003 0.38599 0.0
C87 C 0.19384 0.32372 0.33142 0.0
C88 C 0.17442 0.40563 0.32012 0.0
C89 C 0.12292 0.43639 0.34306 0.0
C90 C 0.18265 0.18547 0.37774 0.0
O91 O 0.07175 0.11681 0.30614 0.0
O92 O 0.07167 0.99416 0.26235 0.0
O93 O -0.02467 0.99014 0.3464 0.0
O94 O 0.03135 0.0914 0.38843 0.0
C95 C 0.06679 1.07801 0.26175 0.0
O96 O 0.05489 0.81484 0.26999 0.0
O97 O -0.01013 0.79878 0.33146 0.0
O98 O 0.04207 0.90673 0.42447 0.0
O99 O 0.12269 0.98796 0.44019 0.0
O100 O 0.18093 0.95291 0.3387 0.0
O101 O 0.12699 0.84586 0.36934 0.0
C102 C -0.01986 1.06002 0.37369 0.0
O103 O 0.15802 0.14751 0.418 0.0
O104 O 0.18623 0.13678 0.3361 0.0
C105 C 0.05011 0.68086 0.30939 0.0
C106 C 0.10242 0.52398 0.33301 0.0
C107 C 0.11079 0.56213 0.28354 0.0
C108 C 0.08676 0.64114 0.27284 0.0
C109 C 0.04719 0.64766 0.36088 0.0
C110 C 0.07318 0.56981 0.3726 0.0
C111 C 0.02153 0.76166 0.29525 0.0
H112 H 0.04861 0.4017 0.39109 0.0
H113 H 0.08223 0.2595 0.41007 0.0
H114 H 0.23327 0.30099 0.31311 0.0
H115 H 0.20073 0.44535 0.29473 0.0
H116 H 0.13491 0.53074 0.25255 0.0
H117 H 0.0976 0.67131 0.23601 0.0
H118 H 0.0236 0.68026 0.39173 0.0
H119 H 0.06896 0.54459 0.41224 0.0
Tb120 Tb 0.78434 0.11938 0.37231 0.0
Eu121 Eu 0.86593 0.27088 0.34346 0.0
C122 C 0.81988 0.24354 0.46403 0.0
C123 C 0.72784 0.30458 0.36312 0.0
C124 C 0.76342 0.89284 0.37476 0.0
C125 C 0.82736 0.77388 0.39341 0.0
C126 C 0.80486 0.85277 0.40698 0.0
C127 C 0.74758 0.85402 0.32687 0.0
C128 C 0.7706 0.77506 0.31292 0.0
C129 C 0.81056 0.73409 0.34625 0.0
C130 C 0.74015 0.97711 0.3896 0.0
O131 O 0.78233 0.12373 0.28784 0.0
O132 O 0.8748 0.16419 0.2798 0.0
O133 O 0.9339 0.19301 0.37986 0.0
O134 O 0.87633 1.07553 0.37005 0.0
C135 C 0.83114 0.11753 0.26289 0.0
O136 O 0.87954 0.3524 0.27515 0.0
O137 O 0.92877 0.37415 0.34732 0.0
O138 O 0.86005 0.27968 0.43429 0.0
O139 O 0.7823 0.18992 0.44449 0.0
O140 O 0.71897 0.22204 0.36947 0.0
O141 O 0.77941 0.33479 0.35367 0.0
C142 C 0.92742 0.11118 0.37966 0.0
O143 O 0.76996 1.01886 0.42481 0.0
O144 O 0.72323 1.02622 0.35099 0.0
C145 C 0.88505 0.49223 0.30725 0.0
C146 C 0.83592 0.65101 0.33173 0.0
C147 C 0.80135 0.58623 0.31031 0.0
C148 C 0.82556 0.50713 0.29887 0.0
C149 C 0.9193 0.55695 0.32773 0.0
C150 C 0.89507 0.63527 0.34042 0.0
C151 C 0.90972 0.40651 0.30296 0.0
H152 H 0.85801 0.74408 0.42004 0.0
H153 H 0.82079 0.88272 0.44258 0.0
H154 H 0.71732 0.88452 0.30018 0.0
H155 H 0.75776 0.74671 0.27574 0.0
H156 H 0.75548 0.5959 0.30352 0.0
H157 H 0.79745 0.45758 0.28397 0.0
H158 H -0.03578 0.54453 0.33593 0.0
H159 H 0.92238 0.6831 0.3579 0.0
Tb160 Tb 0.85111 0.88618 0.83855 0.0
Eu161 Eu 0.77158 1.03671 0.87007 0.0
C162 C 0.83281 1.05248 0.76403 0.0
C163 C 0.91492 1.04651 0.87629 0.0
C164 C 0.86857 0.66417 0.82161 0.0
C165 C 0.78983 0.56246 0.81102 0.0
C166 C 0.81425 0.6417 0.80041 0.0
C167 C 0.89518 0.60839 0.85721 0.0
C168 C 0.87117 0.5286 0.86751 0.0
C169 C 0.8186 0.50374 0.84374 0.0
C170 C 0.89442 0.74856 0.81086 0.0
O171 O 0.85841 0.89854 0.92597 0.0
O172 O 0.76783 0.95055 0.93872 0.0
O173 O 0.71156 0.93027 0.83853 0.0
O174 O 0.77106 0.82196 0.86044 0.0
C175 C 0.81502 0.91716 0.9578 0.0
O176 O 0.73814 0.13118 0.9247 0.0
O177 O 0.70629 0.12686 0.84336 0.0
O178 O 0.82402 0.09477 0.80651 0.0
O179 O 0.8312 0.96782 0.76678 0.0
O180 O 0.91898 0.97841 0.847 0.0
O181 O 0.86439 1.07441 0.89402 0.0
C182 C 0.71931 0.84839 0.84857 0.0
O183 O 0.86552 0.79746 0.77858 0.0
O184 O 0.91304 0.7902 0.85204 0.0
C185 C 0.74044 0.25906 0.87485 0.0
C186 C 0.79313 0.4181 0.85381 0.0
C187 C 0.80203 0.37644 0.90234 0.0
C188 C 0.77725 0.29717 0.91202 0.0
C189 C 0.7331 0.29891 0.82554 0.0
C190 C 0.75922 0.37724 0.81509 0.0
C191 C 0.71547 0.1739 0.88523 0.0
H192 H 0.74795 0.54801 0.79393 0.0
H193 H 0.7903 0.68514 0.7754 0.0
H194 H 0.93471 0.62654 0.87715 0.0
H195 H 0.8946 0.48632 0.89357 0.0
H196 H 0.82767 0.40495 0.93339 0.0
H197 H 0.78749 0.26518 0.94863 0.0
H198 H 0.70697 0.26971 0.79497 0.0
H199 H 0.7529 0.40531 0.77644 0.0
Tb200 Tb 0.03159 0.26167 0.83922 0.0
Eu201 Eu 0.10681 0.10636 0.87201 0.0
C202 C 0.05213 0.10218 0.76251 0.0
C203 C -0.03438 0.10265 0.87728 0.0
C204 C 0.00204 0.48006 0.82452 0.0
C205 C 0.02617 0.62177 0.79483 0.0
C206 C 0.00141 0.54236 0.78572 0.0
C207 C 0.02843 0.49688 0.87343 0.0
C208 C 0.05316 0.57627 0.88304 0.0
C209 C 0.05226 0.63945 0.84369 0.0
C210 C -0.01708 0.39454 0.81051 0.0
O211 O 0.03229 0.26364 0.92733 0.0
O212 O 0.11583 0.18894 0.94136 0.0
O213 O 0.17138 0.21279 0.84715 0.0
O214 O 0.11192 0.32665 0.85825 0.0
C215 C 0.07526 0.2393 0.95843 0.0
O216 O 0.13495 1.0075 0.92617 0.0
O217 O 0.16929 1.01191 0.84576 0.0
O218 O 0.0556 1.05646 0.80442 0.0
O219 O 0.05721 0.18579 0.76771 0.0
O220 O -0.03533 0.16715 0.84486 0.0
O221 O 0.01442 1.07649 0.89912 0.0
C222 C 0.16398 0.29606 0.85296 0.0
O223 O 0.0196 0.35392 0.78066 0.0
O224 O -0.0369 0.34776 0.84909 0.0
C225 C 0.13081 0.88102 0.87579 0.0
C226 C 0.07794 0.72368 0.85384 0.0
C227 C 0.06749 0.76485 0.90191 0.0
C228 C 0.09286 0.84323 0.91237 0.0
C229 C 0.13833 0.84206 0.8263 0.0
C230 C 0.11264 0.76369 0.81562 0.0
C231 C 0.15763 0.9645 0.88706 0.0
H232 H 0.02439 0.66957 0.76411 0.0
H233 H -0.01799 0.52729 0.7485 0.0
H234 H 0.03093 0.44838 0.90373 0.0
H235 H 0.07376 0.5878 0.92084 0.0
H236 H 0.03889 0.73705 0.93116 0.0
H237 H 0.08152 0.87474 0.94877 0.0
H238 H 0.16514 0.87115 0.79616 0.0
H239 H 0.12096 0.73365 0.77791 0.0
Tb240 Tb 0.84997 0.27425 0.6418 0.0
Eu241 Eu 0.7731 0.12201 0.60209 0.0
C242 C 0.83037 0.10184 0.71332 0.0
C243 C 0.91791 0.11724 0.60687 0.0
C244 C 0.86797 0.4968 0.65343 0.0
C245 C 0.8496 0.64443 0.67274 0.0
C246 C 0.86814 0.56417 0.68877 0.0
C247 C 0.84293 0.50832 0.60329 0.0
C248 C 0.8199 0.58716 0.58861 0.0
C249 C 0.82356 0.65749 0.62294 0.0
C250 C 0.89038 0.41348 0.6701 0.0
O251 O 0.85837 0.26803 0.55395 0.0
O252 O 0.76671 0.22416 0.54184 0.0
O253 O 0.70966 0.21735 0.64109 0.0
O254 O 0.76613 0.3329 0.62698 0.0
C255 C 0.81412 0.25542 0.52197 0.0
O256 O 0.75644 1.03119 0.53873 0.0
O257 O 0.70306 1.02996 0.60958 0.0
O258 O 0.81291 1.06105 0.67211 0.0
O259 O 0.83678 0.18627 0.71159 0.0
O260 O 0.91957 0.18454 0.63691 0.0
O261 O 0.86893 0.08953 0.58558 0.0
C262 C 0.71582 0.30112 0.63928 0.0
O263 O 0.85511 0.36943 0.69965 0.0
O264 O 0.91415 0.36756 0.63307 0.0
C265 C 0.74571 0.90051 0.58283 0.0
C266 C 0.79875 0.74271 0.60832 0.0
C267 C 0.78658 0.76514 0.55533 0.0
C268 C 0.75976 0.84258 0.5431 0.0
C269 C 0.76038 0.88041 0.63517 0.0
C270 C 0.78485 0.80227 0.64788 0.0
C271 C 0.72313 0.98594 0.56972 0.0
H272 H 0.85712 0.69607 0.69958 0.0
H273 H 0.88586 0.55579 0.72797 0.0
H274 H 0.84007 0.45591 0.57576 0.0
H275 H 0.79877 0.59166 0.5506 0.0
H276 H 0.79769 0.72376 0.5229 0.0
H277 H 0.75045 0.858 0.50252 0.0
H278 H 0.75098 0.92379 0.66713 0.0
H279 H 0.79066 0.78886 0.68936 0.0
Tb280 Tb 0.03391 0.89867 0.62887 0.0
Eu281 Eu 0.11439 1.05183 0.59727 0.0
C282 C 0.05782 1.05815 0.71054 0.0
C283 C -0.03018 1.0629 0.60585 0.0
C284 C 0.00401 0.67727 0.6198 0.0
C285 C 0.0169 0.52856 0.63989 0.0
C286 C -0.00521 0.60818 0.65229 0.0
C287 C 0.03836 0.66732 0.57434 0.0
C288 C 0.06278 0.58793 0.56241 0.0
C289 C 0.05254 0.5171 0.59544 0.0
C290 C -0.01711 0.76036 0.63784 0.0
O291 O 0.03273 0.91958 0.54222 0.0
O292 O 0.12676 0.94824 0.53936 0.0
O293 O 0.17847 0.95327 0.6324 0.0
O294 O 0.11869 0.83751 0.62813 0.0
C295 C 0.08058 0.92413 0.51464 0.0
O296 O 0.12834 0.13903 0.53144 0.0
O297 O 0.18077 0.14974 0.6027 0.0
O298 O 0.08459 0.10069 0.67411 0.0
O299 O 0.04168 0.97721 0.70326 0.0
O300 O -0.03237 0.99272 0.63296 0.0
O301 O 0.01854 0.08963 0.58371 0.0
C302 C 0.17018 0.86977 0.63575 0.0
O303 O 0.01251 0.79414 0.67649 0.0
O304 O -0.02978 0.81504 0.60094 0.0
C305 C 0.13585 0.27425 0.56949 0.0
C306 C 0.08049 0.43278 0.58578 0.0
C307 C 0.09588 0.40607 0.53457 0.0
C308 C 0.12307 0.32757 0.52677 0.0
C309 C 0.11819 0.29894 0.62018 0.0
C310 C 0.09242 0.3777 0.62843 0.0
C311 C 0.16036 0.18868 0.5608 0.0
H312 H 0.00644 0.47637 0.66585 0.0
H313 H -0.02873 0.61826 0.68815 0.0
H314 H 0.0479 0.72118 0.54914 0.0
H315 H 0.09095 0.58316 0.52839 0.0
H316 H 0.0863 0.44481 0.50032 0.0
H317 H 0.13383 0.30778 0.48732 0.0
H318 H 0.12548 0.2583 0.65407 0.0
H319 H 0.08332 0.39542 0.66883 0.0
Tb320 Tb 0.62861 0.62949 0.12266 0.0
Eu321 Eu 0.54831 0.77445 0.15365 0.0
C322 C 0.58574 0.74492 0.03292 0.0
C323 C 0.68335 0.81465 0.13118 0.0
C324 C 0.65335 0.40784 0.11769 0.0
C325 C 0.57866 0.29996 0.11139 0.0
C326 C 0.59962 0.37991 0.0982 0.0
C327 C 0.68278 0.35773 0.15472 0.0
C328 C 0.6621 0.27713 0.16772 0.0
C329 C 0.61073 0.24594 0.14461 0.0
C330 C 0.67611 0.49182 0.1029 0.0
O331 O 0.62749 0.61921 0.20669 0.0
O332 O 0.53736 0.66761 0.2172 0.0
O333 O 0.47657 0.69943 0.12379 0.0
O334 O 0.53639 0.5828 0.11959 0.0
C335 C 0.57835 0.61366 0.23099 0.0
O336 O 0.54447 0.86412 0.21865 0.0
O337 O 0.48579 0.87726 0.15146 0.0
O338 O 0.54304 0.77079 0.06327 0.0
O339 O 0.63083 0.70716 0.05319 0.0
O340 O 0.6934 0.73202 0.13161 0.0
O341 O 0.63072 0.84331 0.13336 0.0
C342 C 0.48415 0.61865 0.11654 0.0
O343 O 0.64616 0.53388 0.06786 0.0
O344 O 0.69249 0.53961 0.14215 0.0
C345 C 0.54082 0.99802 0.17692 0.0
C346 C 0.59029 0.15787 0.1545 0.0
C347 C 0.602 0.11659 0.20257 0.0
C348 C 0.57947 1.03614 0.2125 0.0
C349 C 0.53355 1.03535 0.12686 0.0
C350 C 0.55844 0.11399 0.11563 0.0
C351 C 0.51307 0.91587 0.19 0.0
H352 H 0.53723 0.28072 0.09523 0.0
H353 H 0.57395 0.41904 0.07187 0.0
H354 H 0.72244 0.38024 0.17281 0.0
H355 H 0.68792 0.23852 0.19413 0.0
H356 H 0.62774 0.14628 0.23314 0.0
H357 H 0.59271 1.00385 0.24806 0.0
H358 H 0.50767 1.00497 0.09658 0.0
H359 H 0.55157 0.14083 0.07674 0.0
Tb360 Tb 0.28814 0.56693 0.12126 0.0
Eu361 Eu 0.36516 0.41284 0.15864 0.0
C362 C 0.32238 0.43262 0.03435 0.0
C363 C 0.22798 0.3836 0.13433 0.0
C364 C 0.26643 0.79379 0.12302 0.0
C365 C 0.32295 0.92198 0.1086 0.0
C366 C 0.30292 0.8436 0.09117 0.0
C367 C 0.25291 0.82284 0.17422 0.0
C368 C 0.27302 0.90192 0.19178 0.0
C369 C 0.30817 0.95207 0.15894 0.0
C370 C 0.24579 0.71028 0.10348 0.0
O371 O 0.28534 0.56923 0.20594 0.0
O372 O 0.37617 0.52531 0.21801 0.0
O373 O 0.43654 0.48496 0.12234 0.0
O374 O 0.38075 0.60565 0.12178 0.0
C375 C 0.33377 0.5769 0.23149 0.0
O376 O 0.3744 0.33559 0.2295 0.0
O377 O 0.42634 0.30744 0.15992 0.0
O378 O 0.35543 0.39031 0.06837 0.0
O379 O 0.29124 0.49814 0.04854 0.0
O380 O 0.22303 0.4635 0.11825 0.0
O381 O 0.27604 0.35509 0.15474 0.0
C382 C 0.43132 0.56656 0.11635 0.0
O383 O 0.2803 0.67162 0.07063 0.0
O384 O 0.22414 0.65799 0.13834 0.0
C385 C 0.38087 0.19281 0.20238 0.0
C386 C 0.33252 1.03372 0.17728 0.0
C387 C 0.29722 0.09813 0.19785 0.0
C388 C 0.32108 0.17777 0.20942 0.0
C389 C 0.41598 0.12713 0.18455 0.0
C390 C 0.3919 1.04906 0.17117 0.0
C391 C 0.40541 0.27898 0.20463 0.0
H392 H 0.35053 0.959 0.08267 0.0
H393 H 0.31739 0.82142 0.05306 0.0
H394 H 0.22625 0.78511 0.20051 0.0
H395 H 0.26197 0.92319 0.23118 0.0
H396 H 0.25116 0.08802 0.20316 0.0
H397 H 0.2925 0.22775 0.22281 0.0
H398 H 0.46158 0.13847 0.17864 0.0
H399 H 0.41907 1.00099 0.15431 0.0
Tb400 Tb 0.62321 0.54705 0.39319 0.0
Eu401 Eu 0.53903 0.396 0.35649 0.0
C402 C 0.57927 0.42077 0.47593 0.0
C403 C 0.67867 0.36622 0.36697 0.0
C404 C 0.64645 0.76813 0.4139 0.0
C405 C 0.61462 0.90911 0.44059 0.0
C406 C 0.64054 0.83086 0.4525 0.0
C407 C 0.62668 0.78546 0.3626 0.0
C408 C 0.60315 0.86451 0.34997 0.0
C409 C 0.59551 0.92758 0.38879 0.0
C410 C 0.6664 0.68174 0.42802 0.0
O411 O 0.62195 0.57152 0.31057 0.0
O412 O 0.5391 0.49926 0.28928 0.0
O413 O 0.46892 0.48355 0.37731 0.0
O414 O 0.53238 0.59503 0.38917 0.0
C415 C 0.57716 0.56138 0.28016 0.0
O416 O 0.5272 0.29567 0.29776 0.0
O417 O 0.47335 0.29845 0.36793 0.0
O418 O 0.53396 0.4034 0.44666 0.0
O419 O 0.62575 0.45166 0.45397 0.0
O420 O 0.68783 0.44911 0.3711 0.0
O421 O 0.62639 0.3349 0.36792 0.0
C422 C 0.47917 0.56324 0.38676 0.0
O423 O 0.62877 0.6367 0.45447 0.0
O424 O 0.68998 0.63777 0.38997 0.0
C425 C 0.51713 0.16892 0.34606 0.0
C426 C 0.56802 1.01134 0.37492 0.0
C427 C 0.5304 1.01858 0.33118 0.0
C428 C 0.50625 0.09648 0.31629 0.0
C429 C 0.55355 0.16269 0.39052 0.0
C430 C 0.57924 1.08529 0.40442 0.0
C431 C 0.49393 0.25207 0.32965 0.0
H432 H 0.60909 0.9541 0.4724 0.0
H433 H 0.65498 0.81842 0.49218 0.0
H434 H 0.6301 0.73831 0.33172 0.0
H435 H 0.59194 0.87568 0.30924 0.0
H436 H 0.51913 0.96391 0.30771 0.0
H437 H 0.4785 0.09968 0.28184 0.0
H438 H 0.56293 0.21816 0.41424 0.0
H439 H 0.60867 1.08458 0.43769 0.0
Tb440 Tb 0.28546 0.63786 0.39537 0.0
Eu441 Eu 0.36743 0.78832 0.36232 0.0
C442 C 0.31915 0.76149 0.47889 0.0
C443 C 0.22751 0.81451 0.35971 0.0
C444 C 0.26953 0.4199 0.42302 0.0
C445 C 0.28456 0.27242 0.44764 0.0
C446 C 0.25739 0.3508 0.45587 0.0
C447 C 0.30937 0.40989 0.38155 0.0
C448 C 0.33505 0.33136 0.37215 0.0
C449 C 0.32277 0.26197 0.40501 0.0
C450 C 0.24429 0.50413 0.43291 0.0
O451 O 0.29005 0.60936 0.31303 0.0
O452 O 0.36875 0.69177 0.29165 0.0
O453 O 0.43811 0.6968 0.36672 0.0
O454 O 0.37735 0.59348 0.39938 0.0
C455 C 0.33313 0.62681 0.28171 0.0
O456 O 0.38883 0.89385 0.30995 0.0
O457 O 0.4294 0.88416 0.38748 0.0
O458 O 0.3676 0.77144 0.45277 0.0
O459 O 0.27427 0.73727 0.45221 0.0
O460 O 0.21959 0.73362 0.37279 0.0
O461 O 0.27914 0.84708 0.35533 0.0
C462 C 0.42953 0.62141 0.38588 0.0
O463 O 0.27779 0.55474 0.45999 0.0
O464 O 0.22262 0.54212 0.39145 0.0
C465 C 0.39264 1.01884 0.36298 0.0
C466 C 0.34638 0.17775 0.39172 0.0
C467 C 0.33276 0.14141 0.34283 0.0
C468 C 0.35544 1.06271 0.32864 0.0
C469 C 0.40642 1.05554 0.4122 0.0
C470 C 0.38311 0.13422 0.4266 0.0
C471 C 0.41527 0.93403 0.3483 0.0
H472 H 0.27411 0.21938 0.47322 0.0
H473 H 0.2275 0.35807 0.48809 0.0
H474 H 0.31981 0.46234 0.35563 0.0
H475 H 0.36381 0.32445 0.33867 0.0
H476 H 0.30371 0.17375 0.31603 0.0
H477 H 0.34346 1.0357 0.29101 0.0
H478 H 0.43521 1.02352 0.43955 0.0
H479 H 0.39436 0.16159 0.46449 0.0
Tb480 Tb 0.34833 0.38499 0.85754 0.0
Eu481 Eu 0.27067 0.53605 0.89468 0.0
C482 C 0.32754 0.55457 0.78275 0.0
C483 C 0.41584 0.54449 0.88864 0.0
C484 C 0.36525 0.16148 0.84718 0.0
C485 C 0.34642 1.01435 0.8266 0.0
C486 C 0.36532 0.09484 0.81129 0.0
C487 C 0.33965 0.14923 0.89699 0.0
C488 C 0.31605 1.07031 0.91083 0.0
C489 C 0.31978 1.0006 0.87602 0.0
C490 C 0.38859 0.24469 0.83127 0.0
O491 O 0.35865 0.39751 0.94521 0.0
O492 O 0.26637 0.43606 0.95695 0.0
O493 O 0.2082 0.43994 0.85528 0.0
O494 O 0.26454 0.326 0.87288 0.0
C495 C 0.31477 0.40974 0.97762 0.0
O496 O 0.25284 0.62649 0.95786 0.0
O497 O 0.20003 0.62682 0.88652 0.0
O498 O 0.308 0.59582 0.82306 0.0
O499 O 0.33652 0.47066 0.78601 0.0
O500 O 0.4182 0.47439 0.86127 0.0
O501 O 0.36643 0.57368 0.90824 0.0
C502 C 0.21452 0.35644 0.85848 0.0
O503 O 0.35478 0.28892 0.80041 0.0
O504 O 0.4112 0.29058 0.86895 0.0
C505 C 0.24156 0.75685 0.91385 0.0
C506 C 0.29457 0.91524 0.88979 0.0
C507 C 0.28253 0.89153 0.94255 0.0
C508 C 0.25588 0.81362 0.95408 0.0
C509 C 0.25595 0.7782 0.86166 0.0
C510 C 0.28043 0.8567 0.84966 0.0
C511 C 0.21947 0.6711 0.92657 0.0
H512 H 0.35408 0.96301 0.79955 0.0
H513 H 0.38339 0.10403 0.77224 0.0
H514 H 0.33683 0.20113 0.92488 0.0
H515 H 0.2945 1.06518 0.94859 0.0
H516 H 0.29373 0.93222 0.97533 0.0
H517 H 0.2468 0.79664 0.9945 0.0
H518 H 0.24656 0.73541 0.82935 0.0
H519 H 0.2862 0.87122 0.80832 0.0
Tb520 Tb 0.53279 0.76104 0.86099 0.0
Eu521 Eu 0.61222 0.60692 0.89495 0.0
C522 C 0.55514 0.59864 0.78192 0.0
C523 C 0.46786 0.59887 0.88868 0.0
C524 C 0.50372 0.98156 0.86801 0.0
C525 C 0.5153 0.1312 0.85036 0.0
C526 C 0.49319 1.05191 0.83702 0.0
C527 C 0.5395 0.98975 0.91273 0.0
C528 C 0.56409 1.06874 0.92544 0.0
C529 C 0.55248 0.14094 0.89401 0.0
C530 C 0.48257 0.89903 0.84914 0.0
O531 O 0.53468 0.74927 0.94815 0.0
O532 O 0.62778 0.71155 0.9516 0.0
O533 O 0.67666 0.70428 0.85884 0.0
O534 O 0.61775 0.82108 0.861 0.0
C535 C 0.58322 0.74454 0.97484 0.0
O536 O 0.62605 0.51829 0.96002 0.0
O537 O 0.67894 0.50964 0.88919 0.0
O538 O 0.58004 0.55594 0.81931 0.0
O539 O 0.54119 0.68058 0.78783 0.0
O540 O 0.46627 0.66677 0.85936 0.0
O541 O 0.51638 0.57334 0.91172 0.0
C542 C 0.66898 0.78777 0.85433 0.0
O543 O 0.51379 0.86466 0.81183 0.0
O544 O 0.46767 0.84477 0.88561 0.0
C545 C 0.63562 0.38362 0.92165 0.0
C546 C 0.58065 0.22497 0.90431 0.0
C547 C 0.59861 0.24914 0.95538 0.0
C548 C 0.62602 0.32741 0.96371 0.0
C549 C 0.61629 0.36071 0.87109 0.0
C550 C 0.59067 0.28202 0.86229 0.0
C551 C 0.65895 0.46978 0.93088 0.0
H552 H 0.50367 0.18447 0.82571 0.0
H553 H 0.46853 1.04316 0.80159 0.0
H554 H 0.55003 0.93485 0.93669 0.0
H555 H 0.59344 1.07211 0.95873 0.0
H556 H 0.59099 0.20851 0.98916 0.0
H557 H 0.63882 0.34473 0.00313 0.0
H558 H 0.62215 0.40276 0.83766 0.0
H559 H 0.5801 0.26601 0.82189 0.0
Tb560 Tb 0.35103 0.77006 0.65812 0.0
Eu561 Eu 0.2741 0.6191 0.62345 0.0
C562 C 0.33141 0.60343 0.73158 0.0
C563 C 0.41695 0.61305 0.61717 0.0
C564 C 0.36735 0.9904 0.67918 0.0
C565 C 0.28888 0.09286 0.68748 0.0
C566 C 0.31274 1.01377 0.69923 0.0
C567 C 0.39473 1.0449 0.64337 0.0
C568 C 0.37133 0.12456 0.632 0.0
C569 C 0.31864 0.15064 0.65487 0.0
C570 C 0.39234 0.9059 0.69086 0.0
O571 O 0.35694 0.77011 0.57015 0.0
O572 O 0.27264 0.69933 0.55182 0.0
O573 O 0.21189 0.72618 0.65072 0.0
O574 O 0.27247 0.83565 0.63384 0.0
C575 C 0.31622 0.74619 0.53648 0.0
O576 O 0.24121 0.52234 0.57001 0.0
O577 O 0.20918 0.529 0.65109 0.0
O578 O 0.32592 0.56146 0.68842 0.0
O579 O 0.32795 0.68778 0.72865 0.0
O580 O 0.41992 0.67972 0.64784 0.0
O581 O 0.36687 0.58438 0.59893 0.0
C582 C 0.2201 0.80841 0.64205 0.0
O583 O 0.36056 0.85625 0.72027 0.0
O584 O 0.41473 0.86534 0.65083 0.0
C585 C 0.24327 0.39603 0.6213 0.0
C586 C 0.29413 0.23658 0.64406 0.0
C587 C 0.30597 0.27884 0.59627 0.0
C588 C 0.28249 0.35857 0.58605 0.0
C589 C 0.23322 0.35595 0.67007 0.0
C590 C 0.25857 0.27749 0.68146 0.0
C591 C 0.2184 0.48077 0.60982 0.0
H592 H 0.24669 0.10782 0.70362 0.0
H593 H 0.28802 0.97111 0.72412 0.0
H594 H 0.43436 1.02584 0.62402 0.0
H595 H 0.39543 0.16564 0.60577 0.0
H596 H 0.33311 0.25082 0.56619 0.0
H597 H 0.29603 0.39149 0.55074 0.0
H598 H 0.2055 0.38502 0.69945 0.0
H599 H 0.25023 0.24938 0.71975 0.0
Tb600 Tb 0.53261 0.39637 0.65146 0.0
Eu601 Eu 0.61005 0.5509 0.62344 0.0
C602 C 0.55057 0.55465 0.73 0.0
C603 C 0.46796 0.55741 0.61614 0.0
C604 C 0.5039 0.17652 0.66459 0.0
C605 C 0.52992 1.03722 0.6973 0.0
C606 C 0.50458 0.1166 0.70485 0.0
C607 C 0.52949 0.15722 0.61572 0.0
C608 C 0.55457 1.07765 0.60761 0.0
C609 C 0.55504 1.01692 0.64846 0.0
C610 C 0.48338 0.26207 0.6769 0.0
O611 O 0.533 0.40441 0.56346 0.0
O612 O 0.62085 0.46853 0.55426 0.0
O613 O 0.67202 0.44379 0.65201 0.0
O614 O 0.61337 0.33177 0.63355 0.0
C615 C 0.57784 0.42634 0.53399 0.0
O616 O 0.64252 0.64875 0.57058 0.0
O617 O 0.6716 0.64447 0.65284 0.0
O618 O 0.55616 0.60089 0.68862 0.0
O619 O 0.5553 0.47098 0.72453 0.0
O620 O 0.46555 0.49017 0.64621 0.0
O621 O 0.5177 0.58495 0.59654 0.0
C622 C 0.66497 0.36107 0.64356 0.0
O623 O 0.51732 0.30355 0.709 0.0
O624 O 0.46617 0.30833 0.63705 0.0
C625 C 0.6351 0.7751 0.6208 0.0
C626 C 0.5811 0.93246 0.63992 0.0
C627 C 0.57032 0.88836 0.59288 0.0
C628 C 0.59613 0.80985 0.58392 0.0
C629 C 0.6427 0.81665 0.66944 0.0
C630 C 0.61651 0.89508 0.67869 0.0
C631 C 0.66262 0.69178 0.61093 0.0
H632 H 0.52909 0.99134 0.72916 0.0
H633 H 0.48524 0.1333 0.74183 0.0
H634 H 0.53098 0.20385 0.58425 0.0
H635 H 0.57448 1.06416 0.56979 0.0
H636 H 0.54117 0.91399 0.56329 0.0
H637 H 0.58474 0.77598 0.54826 0.0
H638 H 0.67002 0.78954 0.69994 0.0
H639 H 0.62503 0.92726 0.71569 0.0
loop_
_geom_bond_atom_site_label_1
_geom_bond_atom_site_label_2
_geom_bond_distance
_geom_bond_site_symmetry_2
_ccdc_geom_bond_type
Tb0 C10 2.825 1_545 S
Tb0 O11 2.347 . S
Tb0 O14 2.366 1_545 S
Tb0 O19 2.418 . S
Tb0 O20 2.384 . S
Tb0 O23 2.479 1_545 S
Tb0 O24 2.471 1_545 S
Eu1 O12 2.418 . S
Eu1 O13 2.384 . S
Eu1 O16 2.479 . S
Eu1 O17 2.471 . S
Eu1 O18 2.347 . S
Eu1 O21 2.366 . S
Eu1 C31 2.825 . S
C2 O18 1.259 . S
C2 O19 1.265 . S
C3 O20 1.255 . S
C3 O21 1.265 . S
C4 C6 1.380 . S
C4 C7 1.374 . S
C4 C10 1.507 . S
C5 C6 1.384 . S
C5 C9 1.387 . S
C5 H32 0.930 . S
C6 C4 1.380 . S
C6 C5 1.384 . S
C6 H33 0.931 . S
C7 C4 1.374 . S
C7 C8 1.390 . S
C7 H34 0.930 . S
C8 C7 1.390 . S
C8 C9 1.391 . S
C8 H35 0.930 . S
C9 C5 1.387 . S
C9 C8 1.391 . S
C10 Tb0 2.825 1_565 S
C10 C4 1.507 . S
C10 O23 1.238 . S
C10 O24 1.247 . S
O11 Tb0 2.347 . S
O11 C15 1.259 . S
O12 Eu1 2.418 . S
O12 C15 1.265 . S
O13 Eu1 2.384 . S
O13 C22 1.268 . S
O14 Tb0 2.366 1_565 S
O14 C22 1.260 1_565 S
C15 O11 1.259 . S
C15 O12 1.265 . S
O16 Eu1 2.479 . S
O16 C31 1.238 . S
O17 Eu1 2.471 . S
O17 C31 1.247 . S
O18 Eu1 2.347 . S
O18 C2 1.259 . S
O19 Tb0 2.418 . S
O19 C2 1.265 . S
O20 Tb0 2.384 . S
O20 C3 1.255 . S
O21 Eu1 2.366 . S
O21 C3 1.265 . S
C22 O13 1.268 . S
C22 O14 1.260 1_545 S
O23 Tb0 2.479 1_565 S
O23 C10 1.238 . S
O24 Tb0 2.471 1_565 S
O24 C10 1.247 . S
C25 C28 1.380 . S
C25 C29 1.374 . S
C25 C31 1.507 . S
C26 C27 1.387 . S
C26 C30 1.391 . S
C27 C26 1.387 . S
C27 C28 1.384 . S
C27 H36 0.930 . S
C28 C25 1.380 . S
C28 C27 1.384 . S
C28 H37 0.931 . S
C29 C25 1.374 . S
C29 C30 1.390 . S
C29 H38 0.930 . S
C30 C26 1.391 . S
C30 C29 1.390 . S
C30 H39 0.930 . S
C31 Eu1 2.825 . S
C31 O16 1.238 . S
C31 O17 1.247 . S
C31 C25 1.507 . S
H32 C5 0.930 . S
H33 C6 0.931 . S
H34 C7 0.930 . S
H35 C8 0.930 . S
H36 C27 0.930 . S
H37 C28 0.931 . S
H38 C29 0.930 . S
H39 C30 0.930 . S
Tb40 C50 2.825 1_565 S
Tb40 O51 2.347 . S
Tb40 O54 2.366 1_565 S
Tb40 O59 2.418 . S
Tb40 O60 2.384 . S
Tb40 O63 2.479 1_565 S
Tb40 O64 2.471 1_565 S
Eu41 O52 2.418 . S
Eu41 O53 2.384 . S
Eu41 O56 2.479 . S
Eu41 O57 2.471 . S
Eu41 O58 2.347 . S
Eu41 O61 2.366 . S
Eu41 C71 2.825 . S
C42 O58 1.259 . S
C42 O59 1.265 . S
C43 O60 1.255 . S
C43 O61 1.265 . S
C44 C46 1.380 . S
C44 C47 1.374 . S
C44 C50 1.507 . S
C45 C46 1.384 . S
C45 C49 1.387 . S
C45 H72 0.930 . S
C46 C44 1.380 . S
C46 C45 1.384 . S
C46 H73 0.931 . S
C47 C44 1.374 . S
C47 C48 1.390 . S
C47 H74 0.930 . S
C48 C47 1.390 . S
C48 C49 1.391 . S
C48 H75 0.930 . S
C49 C45 1.387 . S
C49 C48 1.391 . S
C50 Tb40 2.825 1_545 S
C50 C44 1.507 . S
C50 O63 1.238 . S
C50 O64 1.247 . S
O51 Tb40 2.347 . S
O51 C55 1.259 . S
O52 Eu41 2.418 . S
O52 C55 1.265 . S
O53 Eu41 2.384 . S
O53 C62 1.268 . S
O54 Tb40 2.366 1_545 S
O54 C62 1.260 1_545 S
C55 O51 1.259 . S
C55 O52 1.265 . S
O56 Eu41 2.479 . S
O56 C71 1.238 . S
O57 Eu41 2.471 . S
O57 C71 1.247 . S
O58 Eu41 2.347 . S
O58 C42 1.259 . S
O59 Tb40 2.418 . S
O59 C42 1.265 . S
O60 Tb40 2.384 . S
O60 C43 1.255 . S
O61 Eu41 2.366 . S
O61 C43 1.265 . S
C62 O53 1.268 . S
C62 O54 1.260 1_565 S
O63 Tb40 2.479 1_545 S
O63 C50 1.238 . S
O64 Tb40 2.471 1_545 S
O64 C50 1.247 . S
C65 C68 1.380 . S
C65 C69 1.374 . S
C65 C71 1.507 . S
C66 C67 1.387 . S
C66 C70 1.391 . S
C67 C66 1.387 . S
C67 C68 1.384 . S
C67 H76 0.930 . S
C68 C65 1.380 . S
C68 C67 1.384 . S
C68 H77 0.931 . S
C69 C65 1.374 . S
C69 C70 1.390 . S
C69 H78 0.930 . S
C70 C66 1.391 . S
C70 C69 1.390 . S
C70 H79 0.930 . S
C71 Eu41 2.825 . S
C71 O56 1.238 . S
C71 O57 1.247 . S
C71 C65 1.507 . S
H72 C45 0.930 . S
H73 C46 0.931 . S
H74 C47 0.930 . S
H75 C48 0.930 . S
H76 C67 0.930 . S
H77 C68 0.931 . S
H78 C69 0.930 . S
H79 C70 0.930 . S
Tb80 C90 2.825 1_565 S
Tb80 O91 2.347 . S
Tb80 O94 2.366 1_565 S
Tb80 O99 2.418 . S
Tb80 O100 2.384 . S
Tb80 O103 2.479 1_565 S
Tb80 O104 2.471 1_565 S
Eu81 O92 2.418 . S
Eu81 O93 2.384 . S
Eu81 O96 2.479 . S
Eu81 O97 2.471 . S
Eu81 O98 2.347 . S
Eu81 O101 2.366 . S
Eu81 C111 2.825 . S
C82 O98 1.259 . S
C82 O99 1.265 . S
C83 O100 1.255 . S
C83 O101 1.265 . S
C84 C86 1.380 . S
C84 C87 1.374 . S
C84 C90 1.507 . S
C85 C86 1.384 . S
C85 C89 1.387 . S
C85 H112 0.930 . S
C86 C84 1.380 . S
C86 C85 1.384 . S
C86 H113 0.931 . S
C87 C84 1.374 . S
C87 C88 1.390 . S
C87 H114 0.930 . S
C88 C87 1.390 . S
C88 C89 1.391 . S
C88 H115 0.930 . S
C89 C85 1.387 . S
C89 C88 1.391 . S
C90 Tb80 2.825 1_545 S
C90 C84 1.507 . S
C90 O103 1.238 . S
C90 O104 1.247 . S
O91 Tb80 2.347 . S
O91 C95 1.259 . S
O92 Eu81 2.418 . S
O92 C95 1.265 . S
O93 Eu81 2.384 . S
O93 C102 1.268 . S
O94 Tb80 2.366 1_545 S
O94 C102 1.260 1_545 S
C95 O91 1.259 . S
C95 O92 1.265 . S
O96 Eu81 2.479 . S
O96 C111 1.238 . S
O97 Eu81 2.471 . S
O97 C111 1.247 . S
O98 Eu81 2.347 . S
O98 C82 1.259 . S
O99 Tb80 2.418 . S
O99 C82 1.265 . S
O100 Tb80 2.384 . S
O100 C83 1.255 . S
O101 Eu81 2.366 . S
O101 C83 1.265 . S
C102 O93 1.268 . S
C102 O94 1.260 1_565 S
O103 Tb80 2.479 1_545 S
O103 C90 1.238 . S
O104 Tb80 2.471 1_545 S
O104 C90 1.247 . S
C105 C108 1.380 . S
C105 C109 1.374 . S
C105 C111 1.507 . S
C106 C107 1.387 . S
C106 C110 1.391 . S
C107 C106 1.387 . S
C107 C108 1.384 . S
C107 H116 0.930 . S
C108 C105 1.380 . S
C108 C107 1.384 . S
C108 H117 0.931 . S
C109 C105 1.374 . S
C109 C110 1.390 . S
C109 H118 0.930 . S
C110 C106 1.391 . S
C110 C109 1.390 . S
C110 H119 0.930 . S
C111 Eu81 2.825 . S
C111 O96 1.238 . S
C111 O97 1.247 . S
C111 C105 1.507 . S
H112 C85 0.930 . S
H113 C86 0.931 . S
H114 C87 0.930 . S
H115 C88 0.930 . S
H116 C107 0.930 . S
H117 C108 0.931 . S
H118 C109 0.930 . S
H119 C110 0.930 . S
Tb120 C130 2.825 1_545 S
Tb120 O131 2.347 . S
Tb120 O134 2.366 1_545 S
Tb120 O139 2.418 . S
Tb120 O140 2.384 . S
Tb120 O143 2.479 1_545 S
Tb120 O144 2.471 1_545 S
Eu121 O132 2.418 . S
Eu121 O133 2.384 . S
Eu121 O136 2.479 . S
Eu121 O137 2.471 . S
Eu121 O138 2.347 . S
Eu121 O141 2.366 . S
Eu121 C151 2.825 . S
C122 O138 1.259 . S
C122 O139 1.265 . S
C123 O140 1.255 . S
C123 O141 1.265 . S
C124 C126 1.380 . S
C124 C127 1.374 . S
C124 C130 1.507 . S
C125 C126 1.384 . S
C125 C129 1.387 . S
C125 H152 0.930 . S
C126 C124 1.380 . S
C126 C125 1.384 . S
C126 H153 0.931 . S
C127 C124 1.374 . S
C127 C128 1.390 . S
C127 H154 0.930 . S
C128 C127 1.390 . S
C128 C129 1.391 . S
C128 H155 0.930 . S
C129 C125 1.387 . S
C129 C128 1.391 . S
C130 Tb120 2.825 1_565 S
C130 C124 1.507 . S
C130 O143 1.238 . S
C130 O144 1.247 . S
O131 Tb120 2.347 . S
O131 C135 1.259 . S
O132 Eu121 2.418 . S
O132 C135 1.265 . S
O133 Eu121 2.384 . S
O133 C142 1.268 . S
O134 Tb120 2.366 1_565 S
O134 C142 1.260 1_565 S
C135 O131 1.259 . S
C135 O132 1.265 . S
O136 Eu121 2.479 . S
O136 C151 1.238 . S
O137 Eu121 2.471 . S
O137 C151 1.247 . S
O138 Eu121 2.347 . S
O138 C122 1.259 . S
O139 Tb120 2.418 . S
O139 C122 1.265 . S
O140 Tb120 2.384 . S
O140 C123 1.255 . S
O141 Eu121 2.366 . S
O141 C123 1.265 . S
C142 O133 1.268 . S
C142 O134 1.260 1_545 S
O143 Tb120 2.479 1_565 S
O143 C130 1.238 . S
O144 Tb120 2.471 1_565 S
O144 C130 1.247 . S
C145 C148 1.380 . S
C145 C149 1.374 . S
C145 C151 1.507 . S
C146 C147 1.387 . S
C146 C150 1.391 . S
C147 C146 1.387 . S
C147 C148 1.384 . S
C147 H156 0.930 . S
C148 C145 1.380 . S
C148 C147 1.384 . S
C148 H157 0.931 . S
C149 C145 1.374 . S
C149 C150 1.390 . S
C149 H158 0.930 . S
C150 C146 1.391 . S
C150 C149 1.390 . S
C150 H159 0.930 . S
C151 Eu121 2.825 . S
C151 O136 1.238 . S
C151 O137 1.247 . S
C151 C145 1.507 . S
H152 C125 0.930 . S
H153 C126 0.931 . S
H154 C127 0.930 . S
H155 C128 0.930 . S
H156 C147 0.930 . S
H157 C148 0.931 . S
H158 C149 0.930 . S
H159 C150 0.930 . S
Tb160 C170 2.825 . S
Tb160 O171 2.347 . S
Tb160 O174 2.366 . S
Tb160 O179 2.418 . S
Tb160 O180 2.384 . S
Tb160 O183 2.479 . S
Tb160 O184 2.471 . S
Eu161 O172 2.418 . S
Eu161 O173 2.384 . S
Eu161 O176 2.479 1_565 S
Eu161 O177 2.471 1_565 S
Eu161 O178 2.347 . S
Eu161 O181 2.366 1_565 S
Eu161 C191 2.825 1_565 S
C162 O178 1.259 . S
C162 O179 1.265 . S
C163 O180 1.268 . S
C163 O181 1.260 1_565 S
C164 C166 1.380 . S
C164 C167 1.374 . S
C164 C170 1.507 . S
C165 C166 1.384 . S
C165 C169 1.387 . S
C165 H192 0.930 . S
C166 C164 1.380 . S
C166 C165 1.384 . S
C166 H193 0.931 . S
C167 C164 1.374 . S
C167 C168 1.390 . S
C167 H194 0.930 . S
C168 C167 1.390 . S
C168 C169 1.391 . S
C168 H195 0.930 . S
C169 C165 1.387 . S
C169 C168 1.391 . S
C170 Tb160 2.825 . S
C170 C164 1.507 . S
C170 O183 1.238 . S
C170 O184 1.247 . S
O171 Tb160 2.347 . S
O171 C175 1.259 . S
O172 Eu161 2.418 . S
O172 C175 1.265 . S
O173 Eu161 2.384 . S
O173 C182 1.255 . S
O174 Tb160 2.366 . S
O174 C182 1.265 . S
C175 O171 1.259 . S
C175 O172 1.265 . S
O176 Eu161 2.479 1_545 S
O176 C191 1.238 . S
O177 Eu161 2.471 1_545 S
O177 C191 1.247 . S
O178 Eu161 2.347 . S
O178 C162 1.259 . S
O179 Tb160 2.418 . S
O179 C162 1.265 . S
O180 Tb160 2.384 . S
O180 C163 1.268 . S
O181 Eu161 2.366 1_545 S
O181 C163 1.260 1_545 S
C182 O173 1.255 . S
C182 O174 1.265 . S
O183 Tb160 2.479 . S
O183 C170 1.238 . S
O184 Tb160 2.471 . S
O184 C170 1.247 . S
C185 C188 1.380 . S
C185 C189 1.374 . S
C185 C191 1.507 . S
C186 C187 1.387 . S
C186 C190 1.391 . S
C187 C186 1.387 . S
C187 C188 1.384 . S
C187 H196 0.930 . S
C188 C185 1.380 . S
C188 C187 1.384 . S
C188 H197 0.931 . S
C189 C185 1.374 . S
C189 C190 1.390 . S
C189 H198 0.930 . S
C190 C186 1.391 . S
C190 C189 1.390 . S
C190 H199 0.930 . S
C191 Eu161 2.825 1_545 S
C191 O176 1.238 . S
C191 O177 1.247 . S
C191 C185 1.507 . S
H192 C165 0.930 . S
H193 C166 0.931 . S
H194 C167 0.930 . S
H195 C168 0.930 . S
H196 C187 0.930 . S
H197 C188 0.931 . S
H198 C189 0.930 . S
H199 C190 0.930 . S
Tb200 C210 2.825 . S
Tb200 O211 2.347 . S
Tb200 O214 2.366 . S
Tb200 O219 2.418 . S
Tb200 O220 2.384 . S
Tb200 O223 2.479 . S
Tb200 O224 2.471 . S
Eu201 O212 2.418 . S
Eu201 O213 2.384 . S
Eu201 O216 2.479 1_545 S
Eu201 O217 2.471 1_545 S
Eu201 O218 2.347 . S
Eu201 O221 2.366 1_545 S
Eu201 C231 2.825 1_545 S
C202 O218 1.259 . S
C202 O219 1.265 . S
C203 O220 1.268 . S
C203 O221 1.260 1_545 S
C204 C206 1.380 . S
C204 C207 1.374 . S
C204 C210 1.507 . S
C205 C206 1.384 . S
C205 C209 1.387 . S
C205 H232 0.930 . S
C206 C204 1.380 . S
C206 C205 1.384 . S
C206 H233 0.931 . S
C207 C204 1.374 . S
C207 C208 1.390 . S
C207 H234 0.930 . S
C208 C207 1.390 . S
C208 C209 1.391 . S
C208 H235 0.930 . S
C209 C205 1.387 . S
C209 C208 1.391 . S
C210 Tb200 2.825 . S
C210 C204 1.507 . S
C210 O223 1.238 . S
C210 O224 1.247 . S
O211 Tb200 2.347 . S
O211 C215 1.259 . S
O212 Eu201 2.418 . S
O212 C215 1.265 . S
O213 Eu201 2.384 . S
O213 C222 1.255 . S
O214 Tb200 2.366 . S
O214 C222 1.265 . S
C215 O211 1.259 . S
C215 O212 1.265 . S
O216 Eu201 2.479 1_565 S
O216 C231 1.238 . S
O217 Eu201 2.471 1_565 S
O217 C231 1.247 . S
O218 Eu201 2.347 . S
O218 C202 1.259 . S
O219 Tb200 2.418 . S
O219 C202 1.265 . S
O220 Tb200 2.384 . S
O220 C203 1.268 . S
O221 Eu201 2.366 1_565 S
O221 C203 1.260 1_565 S
C222 O213 1.255 . S
C222 O214 1.265 . S
O223 Tb200 2.479 . S
O223 C210 1.238 . S
O224 Tb200 2.471 . S
O224 C210 1.247 . S
C225 C228 1.380 . S
C225 C229 1.374 . S
C225 C231 1.507 . S
C226 C227 1.387 . S
C226 C230 1.391 . S
C227 C226 1.387 . S
C227 C228 1.384 . S
C227 H236 0.930 . S
C228 C225 1.380 . S
C228 C227 1.384 . S
C228 H237 0.931 . S
C229 C225 1.374 . S
C229 C230 1.390 . S
C229 H238 0.930 . S
C230 C226 1.391 . S
C230 C229 1.390 . S
C230 H239 0.930 . S
C231 Eu201 2.825 1_565 S
C231 O216 1.238 . S
C231 O217 1.247 . S
C231 C225 1.507 . S
H232 C205 0.930 . S
H233 C206 0.931 . S
H234 C207 0.930 . S
H235 C208 0.930 . S
H236 C227 0.930 . S
H237 C228 0.931 . S
H238 C229 0.930 . S
H239 C230 0.930 . S
Tb240 C250 2.825 . S
Tb240 O251 2.347 . S
Tb240 O254 2.366 . S
Tb240 O259 2.418 . S
Tb240 O260 2.384 . S
Tb240 O263 2.479 . S
Tb240 O264 2.471 . S
Eu241 O252 2.418 . S
Eu241 O253 2.384 . S
Eu241 O256 2.479 1_545 S
Eu241 O257 2.471 1_545 S
Eu241 O258 2.347 . S
Eu241 O261 2.366 1_545 S
Eu241 C271 2.825 1_545 S
C242 O258 1.259 . S
C242 O259 1.265 . S
C243 O260 1.268 . S
C243 O261 1.260 1_545 S
C244 C246 1.380 . S
C244 C247 1.374 . S
C244 C250 1.507 . S
C245 C246 1.384 . S
C245 C249 1.387 . S
C245 H272 0.930 . S
C246 C244 1.380 . S
C246 C245 1.384 . S
C246 H273 0.931 . S
C247 C244 1.374 . S
C247 C248 1.390 . S
C247 H274 0.930 . S
C248 C247 1.390 . S
C248 C249 1.391 . S
C248 H275 0.930 . S
C249 C245 1.387 . S
C249 C248 1.391 . S
C250 Tb240 2.825 . S
C250 C244 1.507 . S
C250 O263 1.238 . S
C250 O264 1.247 . S
O251 Tb240 2.347 . S
O251 C255 1.259 . S
O252 Eu241 2.418 . S
O252 C255 1.265 . S
O253 Eu241 2.384 . S
O253 C262 1.255 . S
O254 Tb240 2.366 . S
O254 C262 1.265 . S
C255 O251 1.259 . S
C255 O252 1.265 . S
O256 Eu241 2.479 1_565 S
O256 C271 1.238 . S
O257 Eu241 2.471 1_565 S
O257 C271 1.247 . S
O258 Eu241 2.347 . S
O258 C242 1.259 . S
O259 Tb240 2.418 . S
O259 C242 1.265 . S
O260 Tb240 2.384 . S
O260 C243 1.268 . S
O261 Eu241 2.366 1_565 S
O261 C243 1.260 1_565 S
C262 O253 1.255 . S
C262 O254 1.265 . S
O263 Tb240 2.479 . S
O263 C250 1.238 . S
O264 Tb240 2.471 . S
O264 C250 1.247 . S
C265 C268 1.380 . S
C265 C269 1.374 . S
C265 C271 1.507 . S
C266 C267 1.387 . S
C266 C270 1.391 . S
C267 C266 1.387 . S
C267 C268 1.384 . S
C267 H276 0.930 . S
C268 C265 1.380 . S
C268 C267 1.384 . S
C268 H277 0.931 . S
C269 C265 1.374 . S
C269 C270 1.390 . S
C269 H278 0.930 . S
C270 C266 1.391 . S
C270 C269 1.390 . S
C270 H279 0.930 . S
C271 Eu241 2.825 1_565 S
C271 O256 1.238 . S
C271 O257 1.247 . S
C271 C265 1.507 . S
H272 C245 0.930 . S
H273 C246 0.931 . S
H274 C247 0.930 . S
H275 C248 0.930 . S
H276 C267 0.930 . S
H277 C268 0.931 . S
H278 C269 0.930 . S
H279 C270 0.930 . S
Tb280 C290 2.825 . S
Tb280 O291 2.347 . S
Tb280 O294 2.366 . S
Tb280 O299 2.418 . S
Tb280 O300 2.384 . S
Tb280 O303 2.479 . S
Tb280 O304 2.471 . S
Eu281 O292 2.418 . S
Eu281 O293 2.384 . S
Eu281 O296 2.479 1_565 S
Eu281 O297 2.471 1_565 S
Eu281 O298 2.347 . S
Eu281 O301 2.366 1_565 S
Eu281 C311 2.825 1_565 S
C282 O298 1.259 . S
C282 O299 1.265 . S
C283 O300 1.268 . S
C283 O301 1.260 1_565 S
C284 C286 1.380 . S
C284 C287 1.374 . S
C284 C290 1.507 . S
C285 C286 1.384 . S
C285 C289 1.387 . S
C285 H312 0.930 . S
C286 C284 1.380 . S
C286 C285 1.384 . S
C286 H313 0.931 . S
C287 C284 1.374 . S
C287 C288 1.390 . S
C287 H314 0.930 . S
C288 C287 1.390 . S
C288 C289 1.391 . S
C288 H315 0.930 . S
C289 C285 1.387 . S
C289 C288 1.391 . S
C290 Tb280 2.825 . S
C290 C284 1.507 . S
C290 O303 1.238 . S
C290 O304 1.247 . S
O291 Tb280 2.347 . S
O291 C295 1.259 . S
O292 Eu281 2.418 . S
O292 C295 1.265 . S
O293 Eu281 2.384 . S
O293 C302 1.255 . S
O294 Tb280 2.366 . S
O294 C302 1.265 . S
C295 O291 1.259 . S
C295 O292 1.265 . S
O296 Eu281 2.479 1_545 S
O296 C311 1.238 . S
O297 Eu281 2.471 1_545 S
O297 C311 1.247 . S
O298 Eu281 2.347 . S
O298 C282 1.259 . S
O299 Tb280 2.418 . S
O299 C282 1.265 . S
O300 Tb280 2.384 . S
O300 C283 1.268 . S
O301 Eu281 2.366 1_545 S
O301 C283 1.260 1_545 S
C302 O293 1.255 . S
C302 O294 1.265 . S
O303 Tb280 2.479 . S
O303 C290 1.238 . S
O304 Tb280 2.471 . S
O304 C290 1.247 . S
C305 C308 1.380 . S
C305 C309 1.374 . S
C305 C311 1.507 . S
C306 C307 1.387 . S
C306 C310 1.391 . S
C307 C306 1.387 . S
C307 C308 1.384 . S
C307 H316 0.930 . S
C308 C305 1.380 . S
C308 C307 1.384 . S
C308 H317 0.931 . S
C309 C305 1.374 . S
C309 C310 1.390 . S
C309 H318 0.930 . S
C310 C306 1.391 . S
C310 C309 1.390 . S
C310 H319 0.930 . S
C311 Eu281 2.825 1_545 S
C311 O296 1.238 . S
C311 O297 1.247 . S
C311 C305 1.507 . S
H312 C285 0.930 . S
H313 C286 0.931 . S
H314 C287 0.930 . S
H315 C288 0.930 . S
H316 C307 0.930 . S
H317 C308 0.931 . S
H318 C309 0.930 . S
H319 C310 0.930 . S
Tb320 C330 2.825 . S
Tb320 O331 2.347 . S
Tb320 O334 2.366 . S
Tb320 O339 2.418 . S
Tb320 O340 2.384 . S
Tb320 O343 2.479 . S
Tb320 O344 2.471 . S
Eu321 O332 2.418 . S
Eu321 O333 2.384 . S
Eu321 O336 2.479 . S
Eu321 O337 2.471 . S
Eu321 O338 2.347 . S
Eu321 O341 2.366 . S
Eu321 C351 2.825 . S
C322 O338 1.259 . S
C322 O339 1.265 . S
C323 O340 1.255 . S
C323 O341 1.265 . S
C324 C326 1.380 . S
C324 C327 1.374 . S
C324 C330 1.507 . S
C325 C326 1.384 . S
C325 C329 1.387 . S
C325 H352 0.930 . S
C326 C324 1.380 . S
C326 C325 1.384 . S
C326 H353 0.931 . S
C327 C324 1.374 . S
C327 C328 1.390 . S
C327 H354 0.930 . S
C328 C327 1.390 . S
C328 C329 1.391 . S
C328 H355 0.930 . S
C329 C325 1.387 . S
C329 C328 1.391 . S
C330 Tb320 2.825 . S
C330 C324 1.507 . S
C330 O343 1.238 . S
C330 O344 1.247 . S
O331 Tb320 2.347 . S
O331 C335 1.259 . S
O332 Eu321 2.418 . S
O332 C335 1.265 . S
O333 Eu321 2.384 . S
O333 C342 1.255 . S
O334 Tb320 2.366 . S
O334 C342 1.265 . S
C335 O331 1.259 . S
C335 O332 1.265 . S
O336 Eu321 2.479 . S
O336 C351 1.238 . S
O337 Eu321 2.471 . S
O337 C351 1.247 . S
O338 Eu321 2.347 . S
O338 C322 1.259 . S
O339 Tb320 2.418 . S
O339 C322 1.265 . S
O340 Tb320 2.384 . S
O340 C323 1.255 . S
O341 Eu321 2.366 . S
O341 C323 1.265 . S
C342 O333 1.255 . S
C342 O334 1.265 . S
O343 Tb320 2.479 . S
O343 C330 1.238 . S
O344 Tb320 2.471 . S
O344 C330 1.247 . S
C345 C348 1.380 . S
C345 C349 1.374 . S
C345 C351 1.507 . S
C346 C347 1.387 . S
C346 C350 1.391 . S
C347 C346 1.387 . S
C347 C348 1.384 1_545 S
C347 H356 0.930 . S
C348 C345 1.380 . S
C348 C347 1.384 1_565 S
C348 H357 0.931 . S
C349 C345 1.374 . S
C349 C350 1.390 1_565 S
C349 H358 0.930 . S
C350 C346 1.391 . S
C350 C349 1.390 1_545 S
C350 H359 0.930 . S
C351 Eu321 2.825 . S
C351 O336 1.238 . S
C351 O337 1.247 . S
C351 C345 1.507 . S
H352 C325 0.930 . S
H353 C326 0.931 . S
H354 C327 0.930 . S
H355 C328 0.930 . S
H356 C347 0.930 . S
H357 C348 0.931 . S
H358 C349 0.930 . S
H359 C350 0.930 . S
Tb360 C370 2.825 . S
Tb360 O371 2.347 . S
Tb360 O374 2.366 . S
Tb360 O379 2.418 . S
Tb360 O380 2.384 . S
Tb360 O383 2.479 . S
Tb360 O384 2.471 . S
Eu361 O372 2.418 . S
Eu361 O373 2.384 . S
Eu361 O376 2.479 . S
Eu361 O377 2.471 . S
Eu361 O378 2.347 . S
Eu361 O381 2.366 . S
Eu361 C391 2.825 . S
C362 O378 1.259 . S
C362 O379 1.265 . S
C363 O380 1.255 . S
C363 O381 1.265 . S
C364 C366 1.380 . S
C364 C367 1.374 . S
C364 C370 1.507 . S
C365 C366 1.384 . S
C365 C369 1.387 . S
C365 H392 0.930 . S
C366 C364 1.380 . S
C366 C365 1.384 . S
C366 H393 0.931 . S
C367 C364 1.374 . S
C367 C368 1.390 . S
C367 H394 0.930 . S
C368 C367 1.390 . S
C368 C369 1.391 . S
C368 H395 0.930 . S
C369 C365 1.387 . S
C369 C368 1.391 . S
C370 Tb360 2.825 . S
C370 C364 1.507 . S
C370 O383 1.238 . S
C370 O384 1.247 . S
O371 Tb360 2.347 . S
O371 C375 1.259 . S
O372 Eu361 2.418 . S
O372 C375 1.265 . S
O373 Eu361 2.384 . S
O373 C382 1.255 . S
O374 Tb360 2.366 . S
O374 C382 1.265 . S
C375 O371 1.259 . S
C375 O372 1.265 . S
O376 Eu361 2.479 . S
O376 C391 1.238 . S
O377 Eu361 2.471 . S
O377 C391 1.247 . S
O378 Eu361 2.347 . S
O378 C362 1.259 . S
O379 Tb360 2.418 . S
O379 C362 1.265 . S
O380 Tb360 2.384 . S
O380 C363 1.255 . S
O381 Eu361 2.366 . S
O381 C363 1.265 . S
C382 O373 1.255 . S
C382 O374 1.265 . S
O383 Tb360 2.479 . S
O383 C370 1.238 . S
O384 Tb360 2.471 . S
O384 C370 1.247 . S
C385 C388 1.380 . S
C385 C389 1.374 . S
C385 C391 1.507 . S
C386 C387 1.387 . S
C386 C390 1.391 . S
C387 C386 1.387 . S
C387 C388 1.384 1_565 S
C387 H396 0.930 . S
C388 C385 1.380 . S
C388 C387 1.384 1_545 S
C388 H397 0.931 . S
C389 C385 1.374 . S
C389 C390 1.390 1_545 S
C389 H398 0.930 . S
C390 C386 1.391 . S
C390 C389 1.390 1_565 S
C390 H399 0.930 . S
C391 Eu361 2.825 . S
C391 O376 1.238 . S
C391 O377 1.247 . S
C391 C385 1.507 . S
H392 C365 0.930 . S
H393 C366 0.931 . S
H394 C367 0.930 . S
H395 C368 0.930 . S
H396 C387 0.930 . S
H397 C388 0.931 . S
H398 C389 0.930 . S
H399 C390 0.930 . S
Tb400 C410 2.825 . S
Tb400 O411 2.347 . S
Tb400 O414 2.366 . S
Tb400 O419 2.418 . S
Tb400 O420 2.384 . S
Tb400 O423 2.479 . S
Tb400 O424 2.471 . S
Eu401 O412 2.418 . S
Eu401 O413 2.384 . S
Eu401 O416 2.479 . S
Eu401 O417 2.471 . S
Eu401 O418 2.347 . S
Eu401 O421 2.366 . S
Eu401 C431 2.825 . S
C402 O418 1.259 . S
C402 O419 1.265 . S
C403 O420 1.255 . S
C403 O421 1.265 . S
C404 C406 1.380 . S
C404 C407 1.374 . S
C404 C410 1.507 . S
C405 C406 1.384 . S
C405 C409 1.387 . S
C405 H432 0.930 . S
C406 C404 1.380 . S
C406 C405 1.384 . S
C406 H433 0.931 . S
C407 C404 1.374 . S
C407 C408 1.390 . S
C407 H434 0.930 . S
C408 C407 1.390 . S
C408 C409 1.391 . S
C408 H435 0.930 . S
C409 C405 1.387 . S
C409 C408 1.391 . S
C410 Tb400 2.825 . S
C410 C404 1.507 . S
C410 O423 1.238 . S
C410 O424 1.247 . S
O411 Tb400 2.347 . S
O411 C415 1.259 . S
O412 Eu401 2.418 . S
O412 C415 1.265 . S
O413 Eu401 2.384 . S
O413 C422 1.255 . S
O414 Tb400 2.366 . S
O414 C422 1.265 . S
C415 O411 1.259 . S
C415 O412 1.265 . S
O416 Eu401 2.479 . S
O416 C431 1.238 . S
O417 Eu401 2.471 . S
O417 C431 1.247 . S
O418 Eu401 2.347 . S
O418 C402 1.259 . S
O419 Tb400 2.418 . S
O419 C402 1.265 . S
O420 Tb400 2.384 . S
O420 C403 1.255 . S
O421 Eu401 2.366 . S
O421 C403 1.265 . S
C422 O413 1.255 . S
C422 O414 1.265 . S
O423 Tb400 2.479 . S
O423 C410 1.238 . S
O424 Tb400 2.471 . S
O424 C410 1.247 . S
C425 C428 1.380 . S
C425 C429 1.374 . S
C425 C431 1.507 . S
C426 C427 1.387 . S
C426 C430 1.391 . S
C427 C426 1.387 . S
C427 C428 1.384 1_565 S
C427 H436 0.930 . S
C428 C425 1.380 . S
C428 C427 1.384 1_545 S
C428 H437 0.931 . S
C429 C425 1.374 . S
C429 C430 1.390 1_545 S
C429 H438 0.930 . S
C430 C426 1.391 . S
C430 C429 1.390 1_565 S
C430 H439 0.930 . S
C431 Eu401 2.825 . S
C431 O416 1.238 . S
C431 O417 1.247 . S
C431 C425 1.507 . S
H432 C405 0.930 . S
H433 C406 0.931 . S
H434 C407 0.930 . S
H435 C408 0.930 . S
H436 C427 0.930 . S
H437 C428 0.931 . S
H438 C429 0.930 . S
H439 C430 0.930 . S
Tb440 C450 2.825 . S
Tb440 O451 2.347 . S
Tb440 O454 2.366 . S
Tb440 O459 2.418 . S
Tb440 O460 2.384 . S
Tb440 O463 2.479 . S
Tb440 O464 2.471 . S
Eu441 O452 2.418 . S
Eu441 O453 2.384 . S
Eu441 O456 2.479 . S
Eu441 O457 2.471 . S
Eu441 O458 2.347 . S
Eu441 O461 2.366 . S
Eu441 C471 2.825 . S
C442 O458 1.259 . S
C442 O459 1.265 . S
C443 O460 1.255 . S
C443 O461 1.265 . S
C444 C446 1.380 . S
C444 C447 1.374 . S
C444 C450 1.507 . S
C445 C446 1.384 . S
C445 C449 1.387 . S
C445 H472 0.930 . S
C446 C444 1.380 . S
C446 C445 1.384 . S
C446 H473 0.931 . S
C447 C444 1.374 . S
C447 C448 1.390 . S
C447 H474 0.930 . S
C448 C447 1.390 . S
C448 C449 1.391 . S
C448 H475 0.930 . S
C449 C445 1.387 . S
C449 C448 1.391 . S
C450 Tb440 2.825 . S
C450 C444 1.507 . S
C450 O463 1.238 . S
C450 O464 1.247 . S
O451 Tb440 2.347 . S
O451 C455 1.259 . S
O452 Eu441 2.418 . S
O452 C455 1.265 . S
O453 Eu441 2.384 . S
O453 C462 1.255 . S
O454 Tb440 2.366 . S
O454 C462 1.265 . S
C455 O451 1.259 . S
C455 O452 1.265 . S
O456 Eu441 2.479 . S
O456 C471 1.238 . S
O457 Eu441 2.471 . S
O457 C471 1.247 . S
O458 Eu441 2.347 . S
O458 C442 1.259 . S
O459 Tb440 2.418 . S
O459 C442 1.265 . S
O460 Tb440 2.384 . S
O460 C443 1.255 . S
O461 Eu441 2.366 . S
O461 C443 1.265 . S
C462 O453 1.255 . S
C462 O454 1.265 . S
O463 Tb440 2.479 . S
O463 C450 1.238 . S
O464 Tb440 2.471 . S
O464 C450 1.247 . S
C465 C468 1.380 . S
C465 C469 1.374 . S
C465 C471 1.507 . S
C466 C467 1.387 . S
C466 C470 1.391 . S
C467 C466 1.387 . S
C467 C468 1.384 1_545 S
C467 H476 0.930 . S
C468 C465 1.380 . S
C468 C467 1.384 1_565 S
C468 H477 0.931 . S
C469 C465 1.374 . S
C469 C470 1.390 1_565 S
C469 H478 0.930 . S
C470 C466 1.391 . S
C470 C469 1.390 1_545 S
C470 H479 0.930 . S
C471 Eu441 2.825 . S
C471 O456 1.238 . S
C471 O457 1.247 . S
C471 C465 1.507 . S
H472 C445 0.930 . S
H473 C446 0.931 . S
H474 C447 0.930 . S
H475 C448 0.930 . S
H476 C467 0.930 . S
H477 C468 0.931 . S
H478 C469 0.930 . S
H479 C470 0.930 . S
Tb480 C490 2.825 . S
Tb480 O491 2.347 . S
Tb480 O494 2.366 . S
Tb480 O499 2.418 . S
Tb480 O500 2.384 . S
Tb480 O503 2.479 . S
Tb480 O504 2.471 . S
Eu481 O492 2.418 . S
Eu481 O493 2.384 . S
Eu481 O496 2.479 . S
Eu481 O497 2.471 . S
Eu481 O498 2.347 . S
Eu481 O501 2.366 . S
Eu481 C511 2.825 . S
C482 O498 1.259 . S
C482 O499 1.265 . S
C483 O500 1.255 . S
C483 O501 1.265 . S
C484 C486 1.380 . S
C484 C487 1.374 . S
C484 C490 1.507 . S
C485 C486 1.384 1_565 S
C485 C489 1.387 . S
C485 H512 0.930 . S
C486 C484 1.380 . S
C486 C485 1.384 1_545 S
C486 H513 0.931 . S
C487 C484 1.374 . S
C487 C488 1.390 1_545 S
C487 H514 0.930 . S
C488 C487 1.390 1_565 S
C488 C489 1.391 . S
C488 H515 0.930 . S
C489 C485 1.387 . S
C489 C488 1.391 . S
C490 Tb480 2.825 . S
C490 C484 1.507 . S
C490 O503 1.238 . S
C490 O504 1.247 . S
O491 Tb480 2.347 . S
O491 C495 1.259 . S
O492 Eu481 2.418 . S
O492 C495 1.265 . S
O493 Eu481 2.384 . S
O493 C502 1.255 . S
O494 Tb480 2.366 . S
O494 C502 1.265 . S
C495 O491 1.259 . S
C495 O492 1.265 . S
O496 Eu481 2.479 . S
O496 C511 1.238 . S
O497 Eu481 2.471 . S
O497 C511 1.247 . S
O498 Eu481 2.347 . S
O498 C482 1.259 . S
O499 Tb480 2.418 . S
O499 C482 1.265 . S
O500 Tb480 2.384 . S
O500 C483 1.255 . S
O501 Eu481 2.366 . S
O501 C483 1.265 . S
C502 O493 1.255 . S
C502 O494 1.265 . S
O503 Tb480 2.479 . S
O503 C490 1.238 . S
O504 Tb480 2.471 . S
O504 C490 1.247 . S
C505 C508 1.380 . S
C505 C509 1.374 . S
C505 C511 1.507 . S
C506 C507 1.387 . S
C506 C510 1.391 . S
C507 C506 1.387 . S
C507 C508 1.384 . S
C507 H516 0.930 . S
C508 C505 1.380 . S
C508 C507 1.384 . S
C508 H517 0.931 . S
C509 C505 1.374 . S
C509 C510 1.390 . S
C509 H518 0.930 . S
C510 C506 1.391 . S
C510 C509 1.390 . S
C510 H519 0.930 . S
C511 Eu481 2.825 . S
C511 O496 1.238 . S
C511 O497 1.247 . S
C511 C505 1.507 . S
H512 C485 0.930 . S
H513 C486 0.931 . S
H514 C487 0.930 . S
H515 C488 0.930 . S
H516 C507 0.930 . S
H517 C508 0.931 . S
H518 C509 0.930 . S
H519 C510 0.930 . S
Tb520 C530 2.825 . S
Tb520 O531 2.347 . S
Tb520 O534 2.366 . S
Tb520 O539 2.418 . S
Tb520 O540 2.384 . S
Tb520 O543 2.479 . S
Tb520 O544 2.471 . S
Eu521 O532 2.418 . S
Eu521 O533 2.384 . S
Eu521 O536 2.479 . S
Eu521 O537 2.471 . S
Eu521 O538 2.347 . S
Eu521 O541 2.366 . S
Eu521 C551 2.825 . S
C522 O538 1.259 . S
C522 O539 1.265 . S
C523 O540 1.255 . S
C523 O541 1.265 . S
C524 C526 1.380 . S
C524 C527 1.374 . S
C524 C530 1.507 . S
C525 C526 1.384 1_545 S
C525 C529 1.387 . S
C525 H552 0.930 . S
C526 C524 1.380 . S
C526 C525 1.384 1_565 S
C526 H553 0.931 . S
C527 C524 1.374 . S
C527 C528 1.390 1_565 S
C527 H554 0.930 . S
C528 C527 1.390 1_545 S
C528 C529 1.391 . S
C528 H555 0.930 . S
C529 C525 1.387 . S
C529 C528 1.391 . S
C530 Tb520 2.825 . S
C530 C524 1.507 . S
C530 O543 1.238 . S
C530 O544 1.247 . S
O531 Tb520 2.347 . S
O531 C535 1.259 . S
O532 Eu521 2.418 . S
O532 C535 1.265 . S
O533 Eu521 2.384 . S
O533 C542 1.255 . S
O534 Tb520 2.366 . S
O534 C542 1.265 . S
C535 O531 1.259 . S
C535 O532 1.265 . S
O536 Eu521 2.479 . S
O536 C551 1.238 . S
O537 Eu521 2.471 . S
O537 C551 1.247 . S
O538 Eu521 2.347 . S
O538 C522 1.259 . S
O539 Tb520 2.418 . S
O539 C522 1.265 . S
O540 Tb520 2.384 . S
O540 C523 1.255 . S
O541 Eu521 2.366 . S
O541 C523 1.265 . S
C542 O533 1.255 . S
C542 O534 1.265 . S
O543 Tb520 2.479 . S
O543 C530 1.238 . S
O544 Tb520 2.471 . S
O544 C530 1.247 . S
C545 C548 1.380 . S
C545 C549 1.374 . S
C545 C551 1.507 . S
C546 C547 1.387 . S
C546 C550 1.391 . S
C547 C546 1.387 . S
C547 C548 1.384 . S
C547 H556 0.930 . S
C548 C545 1.380 . S
C548 C547 1.384 . S
C548 H557 0.931 . S
C549 C545 1.374 . S
C549 C550 1.390 . S
C549 H558 0.930 . S
C550 C546 1.391 . S
C550 C549 1.390 . S
C550 H559 0.930 . S
C551 Eu521 2.825 . S
C551 O536 1.238 . S
C551 O537 1.247 . S
C551 C545 1.507 . S
H552 C525 0.930 . S
H553 C526 0.931 . S
H554 C527 0.930 . S
H555 C528 0.930 . S
H556 C547 0.930 . S
H557 C548 0.931 . S
H558 C549 0.930 . S
H559 C550 0.930 . S
Tb560 C570 2.825 . S
Tb560 O571 2.347 . S
Tb560 O574 2.366 . S
Tb560 O579 2.418 . S
Tb560 O580 2.384 . S
Tb560 O583 2.479 . S
Tb560 O584 2.471 . S
Eu561 O572 2.418 . S
Eu561 O573 2.384 . S
Eu561 O576 2.479 . S
Eu561 O577 2.471 . S
Eu561 O578 2.347 . S
Eu561 O581 2.366 . S
Eu561 C591 2.825 . S
C562 O578 1.259 . S
C562 O579 1.265 . S
C563 O580 1.255 . S
C563 O581 1.265 . S
C564 C566 1.380 . S
C564 C567 1.374 . S
C564 C570 1.507 . S
C565 C566 1.384 1_545 S
C565 C569 1.387 . S
C565 H592 0.930 . S
C566 C564 1.380 . S
C566 C565 1.384 1_565 S
C566 H593 0.931 . S
C567 C564 1.374 . S
C567 C568 1.390 1_565 S
C567 H594 0.930 . S
C568 C567 1.390 1_545 S
C568 C569 1.391 . S
C568 H595 0.930 . S
C569 C565 1.387 . S
C569 C568 1.391 . S
C570 Tb560 2.825 . S
C570 C564 1.507 . S
C570 O583 1.238 . S
C570 O584 1.247 . S
O571 Tb560 2.347 . S
O571 C575 1.259 . S
O572 Eu561 2.418 . S
O572 C575 1.265 . S
O573 Eu561 2.384 . S
O573 C582 1.255 . S
O574 Tb560 2.366 . S
O574 C582 1.265 . S
C575 O571 1.259 . S
C575 O572 1.265 . S
O576 Eu561 2.479 . S
O576 C591 1.238 . S
O577 Eu561 2.471 . S
O577 C591 1.247 . S
O578 Eu561 2.347 . S
O578 C562 1.259 . S
O579 Tb560 2.418 . S
O579 C562 1.265 . S
O580 Tb560 2.384 . S
O580 C563 1.255 . S
O581 Eu561 2.366 . S
O581 C563 1.265 . S
C582 O573 1.255 . S
C582 O574 1.265 . S
O583 Tb560 2.479 . S
O583 C570 1.238 . S
O584 Tb560 2.471 . S
O584 C570 1.247 . S
C585 C588 1.380 . S
C585 C589 1.374 . S
C585 C591 1.507 . S
C586 C587 1.387 . S
C586 C590 1.391 . S
C587 C586 1.387 . S
C587 C588 1.384 . S
C587 H596 0.930 . S
C588 C585 1.380 . S
C588 C587 1.384 . S
C588 H597 0.931 . S
C589 C585 1.374 . S
C589 C590 1.390 . S
C589 H598 0.930 . S
C590 C586 1.391 . S
C590 C589 1.390 . S
C590 H599 0.930 . S
C591 Eu561 2.825 . S
C591 O576 1.238 . S
C591 O577 1.247 . S
C591 C585 1.507 . S
H592 C565 0.930 . S
H593 C566 0.931 . S
H594 C567 0.930 . S
H595 C568 0.930 . S
H596 C587 0.930 . S
H597 C588 0.931 . S
H598 C589 0.930 . S
H599 C590 0.930 . S
Tb600 C610 2.825 . S
Tb600 O611 2.347 . S
Tb600 O614 2.366 . S
Tb600 O619 2.418 . S
Tb600 O620 2.384 . S
Tb600 O623 2.479 . S
Tb600 O624 2.471 . S
Eu601 O612 2.418 . S
Eu601 O613 2.384 . S
Eu601 O616 2.479 . S
Eu601 O617 2.471 . S
Eu601 O618 2.347 . S
Eu601 O621 2.366 . S
Eu601 C631 2.825 . S
C602 O618 1.259 . S
C602 O619 1.265 . S
C603 O620 1.255 . S
C603 O621 1.265 . S
C604 C606 1.380 . S
C604 C607 1.374 . S
C604 C610 1.507 . S
C605 C606 1.384 1_565 S
C605 C609 1.387 . S
C605 H632 0.930 . S
C606 C604 1.380 . S
C606 C605 1.384 1_545 S
C606 H633 0.931 . S
C607 C604 1.374 . S
C607 C608 1.390 1_545 S
C607 H634 0.930 . S
C608 C607 1.390 1_565 S
C608 C609 1.391 . S
C608 H635 0.930 . S
C609 C605 1.387 . S
C609 C608 1.391 . S
C610 Tb600 2.825 . S
C610 C604 1.507 . S
C610 O623 1.238 . S
C610 O624 1.247 . S
O611 Tb600 2.347 . S
O611 C615 1.259 . S
O612 Eu601 2.418 . S
O612 C615 1.265 . S
O613 Eu601 2.384 . S
O613 C622 1.255 . S
O614 Tb600 2.366 . S
O614 C622 1.265 . S
C615 O611 1.259 . S
C615 O612 1.265 . S
O616 Eu601 2.479 . S
O616 C631 1.238 . S
O617 Eu601 2.471 . S
O617 C631 1.247 . S
O618 Eu601 2.347 . S
O618 C602 1.259 . S
O619 Tb600 2.418 . S
O619 C602 1.265 . S
O620 Tb600 2.384 . S
O620 C603 1.255 . S
O621 Eu601 2.366 . S
O621 C603 1.265 . S
C622 O613 1.255 . S
C622 O614 1.265 . S
O623 Tb600 2.479 . S
O623 C610 1.238 . S
O624 Tb600 2.471 . S
O624 C610 1.247 . S
C625 C628 1.380 . S
C625 C629 1.374 . S
C625 C631 1.507 . S
C626 C627 1.387 . S
C626 C630 1.391 . S
C627 C626 1.387 . S
C627 C628 1.384 . S
C627 H636 0.930 . S
C628 C625 1.380 . S
C628 C627 1.384 . S
C628 H637 0.931 . S
C629 C625 1.374 . S
C629 C630 1.390 . S
C629 H638 0.930 . S
C630 C626 1.391 . S
C630 C629 1.390 . S
C630 H639 0.930 . S
C631 Eu601 2.825 . S
C631 O616 1.238 . S
C631 O617 1.247 . S
C631 C625 1.507 . S
H632 C605 0.930 . S
H633 C606 0.931 . S
H634 C607 0.930 . S
H635 C608 0.930 . S
H636 C627 0.930 . S
H637 C628 0.931 . S
H638 C629 0.930 . S
H639 C630 0.930 . S
C3 C363 2.613 . S
C43 C323 2.613 . S
C443 C83 2.613 . S
C123 C403 2.613 . S
C542 C182 2.613 . S
C502 C222 2.613 . S
C622 C262 2.613 . S
C302 C582 2.613 . S
C95 C15 3.012 1_565 S
C135 C55 3.012 1_545 S
C242 C162 3.012 1_545 S
C202 C282 3.012 1_545 S
C415 C335 3.012 . S
C455 C375 3.012 . S
C482 C562 3.012 . S
C522 C602 3.012 . S
C215 C2 1.490 1_556 S
C175 C42 1.490 1_556 S
C82 C295 1.490 . S
C255 C122 1.490 . S
C322 C535 1.490 1_554 S
C495 C362 1.490 1_556 S
C402 C615 1.490 . S
C575 C442 1.490 . S
C62 C22 1.872 1_665 S
C142 C102 1.872 1_645 S
C203 C163 1.872 1_445 S
C243 C283 1.872 1_645 S
C382 C342 1.872 . S
C462 C422 1.872 . S
C483 C523 1.872 . S
C563 C603 1.872 . S
C9 C26 1.693 . S
C49 C66 1.693 . S
C89 C106 1.693 . S
C146 C129 1.693 . S
C186 C169 1.693 . S
C209 C226 1.693 . S
C266 C249 1.693 . S
C306 C289 1.693 . S
C346 C329 1.693 . S
C369 C386 1.693 . S
C426 C409 1.693 . S
C466 C449 1.693 . S
C506 C489 1.693 . S
C546 C529 1.693 . S
C569 C586 1.693 . S
C626 C609 1.693 . S
