# Generated by pormake.
# Topology lvt-a, (3)-cn, num edge types: 1
# Building blocks:
#     Node 0, Type 0, BuildingBlock: WUSLED_clean_sbu_0, # of connection points: 3
#     Node 1, Type 0, BuildingBlock: WUSLED_clean_sbu_0, # of connection points: 3
#     Node 2, Type 0, BuildingBlock: WUSLED_clean_sbu_0, # of connection points: 3
#     Node 3, Type 0, BuildingBlock: WUSLED_clean_sbu_0, # of connection points: 3
#     Node 4, Type 0, BuildingBlock: WUSLED_clean_sbu_0, # of connection points: 3
#     Node 5, Type 0, BuildingBlock: WUSLED_clean_sbu_0, # of connection points: 3
#     Node 6, Type 0, BuildingBlock: WUSLED_clean_sbu_0, # of connection points: 3
#     Node 7, Type 0, BuildingBlock: WUSLED_clean_sbu_0, # of connection points: 3
#     Node 8, Type 0, BuildingBlock: WUSLED_clean_sbu_0, # of connection points: 3
#     Node 9, Type 0, BuildingBlock: WUSLED_clean_sbu_0, # of connection points: 3
#     Node 10, Type 0, BuildingBlock: WUSLED_clean_sbu_0, # of connection points: 3
#     Node 11, Type 0, BuildingBlock: WUSLED_clean_sbu_0, # of connection points: 3
#     Node 12, Type 0, BuildingBlock: WUSLED_clean_sbu_0, # of connection points: 3
#     Node 13, Type 0, BuildingBlock: WUSLED_clean_sbu_0, # of connection points: 3
#     Node 14, Type 0, BuildingBlock: WUSLED_clean_sbu_0, # of connection points: 3
#     Node 15, Type 0, BuildingBlock: WUSLED_clean_sbu_0, # of connection points: 3
#     Node 16, Type 0, BuildingBlock: WUSLED_clean_sbu_0, # of connection points: 3
#     Node 17, Type 0, BuildingBlock: WUSLED_clean_sbu_0, # of connection points: 3
#     Node 18, Type 0, BuildingBlock: WUSLED_clean_sbu_0, # of connection points: 3
#     Node 19, Type 0, BuildingBlock: WUSLED_clean_sbu_0, # of connection points: 3
#     Node 20, Type 0, BuildingBlock: WUSLED_clean_sbu_0, # of connection points: 3
#     Node 21, Type 0, BuildingBlock: WUSLED_clean_sbu_0, # of connection points: 3
#     Node 22, Type 0, BuildingBlock: WUSLED_clean_sbu_0, # of connection points: 3
#     Node 23, Type 0, BuildingBlock: WUSLED_clean_sbu_0, # of connection points: 3
#     Node 24, Type 0, BuildingBlock: WUSLED_clean_sbu_0, # of connection points: 3
#     Node 25, Type 0, BuildingBlock: WUSLED_clean_sbu_0, # of connection points: 3
#     Node 26, Type 0, BuildingBlock: WUSLED_clean_sbu_0, # of connection points: 3
#     Node 27, Type 0, BuildingBlock: WUSLED_clean_sbu_0, # of connection points: 3
#     Node 28, Type 0, BuildingBlock: WUSLED_clean_sbu_0, # of connection points: 3
#     Node 29, Type 0, BuildingBlock: WUSLED_clean_sbu_0, # of connection points: 3
#     Node 30, Type 0, BuildingBlock: WUSLED_clean_sbu_0, # of connection points: 3
#     Node 31, Type 0, BuildingBlock: WUSLED_clean_sbu_0, # of connection points: 3
#     Edge 32, Type (0, 0), BuildingBlock: EZIPEK_clean_linker_0, # of connection points: 2
#     Edge 33, Type (0, 0), BuildingBlock: EZIPEK_clean_linker_0, # of connection points: 2
#     Edge 34, Type (0, 0), BuildingBlock: EZIPEK_clean_linker_0, # of connection points: 2
#     Edge 35, Type (0, 0), BuildingBlock: EZIPEK_clean_linker_0, # of connection points: 2
#     Edge 36, Type (0, 0), BuildingBlock: EZIPEK_clean_linker_0, # of connection points: 2
#     Edge 37, Type (0, 0), BuildingBlock: EZIPEK_clean_linker_0, # of connection points: 2
#     Edge 38, Type (0, 0), BuildingBlock: EZIPEK_clean_linker_0, # of connection points: 2
#     Edge 39, Type (0, 0), BuildingBlock: EZIPEK_clean_linker_0, # of connection points: 2
#     Edge 40, Type (0, 0), BuildingBlock: EZIPEK_clean_linker_0, # of connection points: 2
#     Edge 41, Type (0, 0), BuildingBlock: EZIPEK_clean_linker_0, # of connection points: 2
#     Edge 42, Type (0, 0), BuildingBlock: EZIPEK_clean_linker_0, # of connection points: 2
#     Edge 43, Type (0, 0), BuildingBlock: EZIPEK_clean_linker_0, # of connection points: 2
#     Edge 44, Type (0, 0), BuildingBlock: EZIPEK_clean_linker_0, # of connection points: 2
#     Edge 45, Type (0, 0), BuildingBlock: EZIPEK_clean_linker_0, # of connection points: 2
#     Edge 46, Type (0, 0), BuildingBlock: EZIPEK_clean_linker_0, # of connection points: 2
#     Edge 47, Type (0, 0), BuildingBlock: EZIPEK_clean_linker_0, # of connection points: 2
#     Edge 48, Type (0, 0), BuildingBlock: EZIPEK_clean_linker_0, # of connection points: 2
#     Edge 49, Type (0, 0), BuildingBlock: EZIPEK_clean_linker_0, # of connection points: 2
#     Edge 50, Type (0, 0), BuildingBlock: EZIPEK_clean_linker_0, # of connection points: 2
#     Edge 51, Type (0, 0), BuildingBlock: EZIPEK_clean_linker_0, # of connection points: 2
#     Edge 52, Type (0, 0), BuildingBlock: EZIPEK_clean_linker_0, # of connection points: 2
#     Edge 53, Type (0, 0), BuildingBlock: EZIPEK_clean_linker_0, # of connection points: 2
#     Edge 54, Type (0, 0), BuildingBlock: EZIPEK_clean_linker_0, # of connection points: 2
#     Edge 55, Type (0, 0), BuildingBlock: EZIPEK_clean_linker_0, # of connection points: 2
#     Edge 56, Type (0, 0), BuildingBlock: EZIPEK_clean_linker_0, # of connection points: 2
#     Edge 57, Type (0, 0), BuildingBlock: EZIPEK_clean_linker_0, # of connection points: 2
#     Edge 58, Type (0, 0), BuildingBlock: EZIPEK_clean_linker_0, # of connection points: 2
#     Edge 59, Type (0, 0), BuildingBlock: EZIPEK_clean_linker_0, # of connection points: 2
#     Edge 60, Type (0, 0), BuildingBlock: EZIPEK_clean_linker_0, # of connection points: 2
#     Edge 61, Type (0, 0), BuildingBlock: EZIPEK_clean_linker_0, # of connection points: 2
#     Edge 62, Type (0, 0), BuildingBlock: EZIPEK_clean_linker_0, # of connection points: 2
#     Edge 63, Type (0, 0), BuildingBlock: EZIPEK_clean_linker_0, # of connection points: 2
#     Edge 64, Type (0, 0), BuildingBlock: EZIPEK_clean_linker_0, # of connection points: 2
#     Edge 65, Type (0, 0), BuildingBlock: EZIPEK_clean_linker_0, # of connection points: 2
#     Edge 66, Type (0, 0), BuildingBlock: EZIPEK_clean_linker_0, # of connection points: 2
#     Edge 67, Type (0, 0), BuildingBlock: EZIPEK_clean_linker_0, # of connection points: 2
#     Edge 68, Type (0, 0), BuildingBlock: EZIPEK_clean_linker_0, # of connection points: 2
#     Edge 69, Type (0, 0), BuildingBlock: EZIPEK_clean_linker_0, # of connection points: 2
#     Edge 70, Type (0, 0), BuildingBlock: EZIPEK_clean_linker_0, # of connection points: 2
#     Edge 71, Type (0, 0), BuildingBlock: EZIPEK_clean_linker_0, # of connection points: 2
#     Edge 72, Type (0, 0), BuildingBlock: EZIPEK_clean_linker_0, # of connection points: 2
#     Edge 73, Type (0, 0), BuildingBlock: EZIPEK_clean_linker_0, # of connection points: 2
#     Edge 74, Type (0, 0), BuildingBlock: EZIPEK_clean_linker_0, # of connection points: 2
#     Edge 75, Type (0, 0), BuildingBlock: EZIPEK_clean_linker_0, # of connection points: 2
#     Edge 76, Type (0, 0), BuildingBlock: EZIPEK_clean_linker_0, # of connection points: 2
#     Edge 77, Type (0, 0), BuildingBlock: EZIPEK_clean_linker_0, # of connection points: 2
#     Edge 78, Type (0, 0), BuildingBlock: EZIPEK_clean_linker_0, # of connection points: 2
#     Edge 79, Type (0, 0), BuildingBlock: EZIPEK_clean_linker_0, # of connection points: 2
# Relax obj value: 0.110
# Max RMSD: 0.101
# Mean RMSD: 0.094
data_MOF--net-lvt-a--node1-WUSLED_clean_sbu_0--edge1-EZIPEK_clean_linker_0
_symmetry_space_group_name_H-M    P1
_symmetry_Int_Tables_number       1
_symmetry_cell_setting            triclinic
loop_
_symmetry_equiv_pos_as_xyz
'x, y, z'
_cell_length_a     73.95194
_cell_length_b     77.224246
_cell_length_c     126.14383
_cell_angle_alpha  89.990863
_cell_angle_beta   89.99815
_cell_angle_gamma 90.004016
loop_
_atom_site_label
_atom_site_type_symbol
_atom_site_fract_x
_atom_site_fract_y
_atom_site_fract_z
_atom_type_partial_charge
C0 C 0.15551 0.49923 0.05788 0.0
C1 C 0.13868 0.50121 0.05281 0.0
C2 C 0.15361 0.50174 0.0356 0.0
C3 C 0.13776 0.50247 0.04173 0.0
C4 C 0.17028 0.49907 0.04065 0.0
C5 C 0.1712 0.49782 0.0517 0.0
U6 U 0.13758 0.49405 0.08651 0.0
O7 O 0.15212 0.48519 0.10082 0.0
O8 O 0.14105 0.51153 0.10013 0.0
C9 C 0.15044 0.50022 0.10562 0.0
C10 C 0.15733 0.4999 0.06954 0.0
C11 C 0.16633 0.50705 0.1114 0.0
C12 C 0.1961 0.52064 0.11214 0.0
C13 C 0.18218 0.5127 0.10627 0.0
C14 C 0.17868 0.51688 0.12824 0.0
C15 C 0.19423 0.52311 0.12316 0.0
C16 C 0.16492 0.50892 0.12242 0.0
C17 C 0.08667 0.47826 0.08865 0.0
C18 C 0.0602 0.48616 0.09913 0.0
C19 C 0.05805 0.46318 0.08613 0.0
C20 C 0.0764 0.46524 0.08374 0.0
C21 C 0.04965 0.47405 0.09355 0.0
C22 C 0.07861 0.4883 0.09667 0.0
C23 C 0.10425 0.48292 0.0838 0.0
O24 O 0.14784 0.51193 0.07438 0.0
O25 O 0.15731 0.485 0.07458 0.0
O26 O 0.11806 0.4724 0.08507 0.0
O27 O 0.1088 0.49937 0.08381 0.0
H28 H 0.12638 0.50226 0.05743 0.0
H29 H 0.12477 0.50448 0.03795 0.0
H30 H 0.18263 0.49843 0.03605 0.0
H31 H 0.18428 0.49627 0.05545 0.0
H32 H 0.20798 0.52544 0.10807 0.0
H33 H 0.18355 0.51141 0.09776 0.0
H34 H 0.17693 0.5187 0.13669 0.0
H35 H 0.15283 0.50467 0.12652 0.0
H36 H 0.05392 0.49474 0.10484 0.0
H37 H 0.05014 0.45387 0.08169 0.0
H38 H 0.08226 0.45743 0.07748 0.0
H39 H 0.08619 0.49848 0.10057 0.0
C40 C 0.76605 0.88557 0.30818 0.0
C41 C 0.77517 0.87233 0.30267 0.0
C42 C 0.76381 0.88363 0.28586 0.0
C43 C 0.77417 0.87146 0.29154 0.0
C44 C 0.75497 0.89687 0.29144 0.0
C45 C 0.75614 0.89786 0.30245 0.0
U46 U 0.77183 0.86825 0.33696 0.0
O47 O 0.7812 0.88245 0.35119 0.0
O48 O 0.75351 0.8723 0.35045 0.0
C49 C 0.76533 0.88146 0.35585 0.0
C50 C 0.76592 0.88692 0.31986 0.0
C51 C 0.75841 0.89717 0.3613 0.0
C52 C 0.73615 0.92032 0.36329 0.0
C53 C 0.74448 0.90749 0.35705 0.0
C54 C 0.75617 0.91336 0.37786 0.0
C55 C 0.74161 0.92299 0.37385 0.0
C56 C 0.76449 0.90061 0.37164 0.0
C57 C 0.78785 0.81921 0.33927 0.0
C58 C 0.78005 0.79412 0.3501 0.0
C59 C 0.80285 0.79152 0.33642 0.0
C60 C 0.80081 0.80909 0.33401 0.0
C61 C 0.79204 0.78374 0.34421 0.0
C62 C 0.77789 0.81176 0.34761 0.0
C63 C 0.78303 0.83614 0.33451 0.0
O64 O 0.75325 0.87806 0.32474 0.0
O65 O 0.7816 0.88649 0.32477 0.0
O66 O 0.79418 0.84926 0.3357 0.0
O67 O 0.76589 0.84066 0.3346 0.0
H68 H 0.78287 0.86267 0.30696 0.0
H69 H 0.78118 0.86119 0.28737 0.0
H70 H 0.74702 0.90646 0.28724 0.0
H71 H 0.74907 0.90818 0.30654 0.0
H72 H 0.72488 0.92757 0.36006 0.0
H73 H 0.73952 0.90513 0.3491 0.0
H74 H 0.76053 0.91512 0.38598 0.0
H75 H 0.77513 0.89282 0.37511 0.0
H76 H 0.77151 0.78832 0.3561 0.0
H77 H 0.81208 0.78374 0.33174 0.0
H78 H 0.80854 0.8145 0.3275 0.0
H79 H 0.76775 0.81925 0.35177 0.0
C80 C 0.361 0.51632 0.55861 0.0
C81 C 0.37724 0.52064 0.55346 0.0
C82 C 0.36364 0.51355 0.53642 0.0
C83 C 0.37851 0.51933 0.54239 0.0
C84 C 0.34733 0.50971 0.54158 0.0
C85 C 0.34603 0.51113 0.55259 0.0
U86 U 0.38006 0.52141 0.58694 0.0
O87 O 0.36612 0.53064 0.60139 0.0
O88 O 0.37638 0.50399 0.60054 0.0
C89 C 0.36691 0.51535 0.60597 0.0
C90 C 0.35953 0.51594 0.57025 0.0
C91 C 0.35023 0.50888 0.61121 0.0
C92 C 0.32736 0.48646 0.61383 0.0
C93 C 0.34095 0.49409 0.60758 0.0
C94 C 0.33123 0.50894 0.62701 0.0
C95 C 0.32284 0.49352 0.62375 0.0
C96 C 0.3448 0.51651 0.6208 0.0
C97 C 0.43176 0.53609 0.58755 0.0
C98 C 0.45512 0.53713 0.60118 0.0
C99 C 0.46286 0.54292 0.58286 0.0
C100 C 0.4448 0.54063 0.57998 0.0
C101 C 0.46831 0.54079 0.59342 0.0
C102 C 0.43691 0.53465 0.59824 0.0
C103 C 0.41353 0.53165 0.58359 0.0
O104 O 0.36887 0.50372 0.57498 0.0
O105 O 0.36034 0.53092 0.57518 0.0
O106 O 0.40013 0.54249 0.5853 0.0
O107 O 0.40867 0.5153 0.58396 0.0
H108 H 0.38896 0.52461 0.55799 0.0
H109 H 0.3912 0.52232 0.5385 0.0
H110 H 0.33574 0.50526 0.53709 0.0
H111 H 0.33342 0.50774 0.55644 0.0
H112 H 0.32105 0.47458 0.61117 0.0
H113 H 0.34475 0.48796 0.60019 0.0
H114 H 0.32798 0.51457 0.63464 0.0
H115 H 0.35173 0.52788 0.62377 0.0
H116 H 0.45906 0.53548 0.60939 0.0
H117 H 0.47274 0.54575 0.57676 0.0
H118 H 0.44111 0.54179 0.57169 0.0
H119 H 0.42705 0.53113 0.60422 0.0
C120 C 0.75628 0.13139 0.80856 0.0
C121 C 0.74764 0.14477 0.80303 0.0
C122 C 0.7552 0.13104 0.7859 0.0
C123 C 0.74756 0.14486 0.79186 0.0
C124 C 0.76581 0.11911 0.79176 0.0
C125 C 0.7658 0.11894 0.80283 0.0
U126 U 0.74902 0.1483 0.83739 0.0
O127 O 0.74084 0.1331 0.85147 0.0
O128 O 0.76745 0.14564 0.851 0.0
C129 C 0.7565 0.13532 0.85624 0.0
C130 C 0.75653 0.13024 0.82025 0.0
C131 C 0.76503 0.12029 0.86173 0.0
C132 C 0.7668 0.08962 0.86657 0.0
C133 C 0.7592 0.10303 0.86041 0.0
C134 C 0.78623 0.11042 0.87527 0.0
C135 C 0.78039 0.09324 0.87409 0.0
C136 C 0.77865 0.12372 0.8692 0.0
C137 C 0.7305 0.19655 0.83981 0.0
C138 C 0.73773 0.22188 0.85058 0.0
C139 C 0.71504 0.22399 0.83681 0.0
C140 C 0.7174 0.20642 0.83448 0.0
C141 C 0.72566 0.23203 0.8446 0.0
C142 C 0.74021 0.20425 0.84817 0.0
C143 C 0.73595 0.1798 0.83503 0.0
O144 O 0.7684 0.14002 0.82515 0.0
O145 O 0.74082 0.12956 0.82511 0.0
O146 O 0.72554 0.16614 0.8363 0.0
O147 O 0.7533 0.17612 0.835 0.0
H148 H 0.74115 0.15522 0.80731 0.0
H149 H 0.74182 0.15613 0.78811 0.0
H150 H 0.77461 0.10986 0.78798 0.0
H151 H 0.77351 0.10906 0.80693 0.0
H152 H 0.762 0.07647 0.86555 0.0
H153 H 0.74864 0.09993 0.85478 0.0
H154 H 0.79657 0.11359 0.88104 0.0
H155 H 0.78325 0.13687 0.8705 0.0
H156 H 0.74613 0.22787 0.85659 0.0
H157 H 0.70576 0.23159 0.83206 0.0
H158 H 0.70987 0.20084 0.82795 0.0
H159 H 0.75047 0.19698 0.85238 0.0
C160 C 0.15685 0.51426 0.96774 0.0
C161 C 0.14048 0.51826 0.97287 0.0
C162 C 0.15448 0.51267 0.99004 0.0
C163 C 0.13934 0.51754 0.98398 0.0
C164 C 0.17088 0.50917 0.98489 0.0
C165 C 0.17205 0.51001 0.97385 0.0
U166 U 0.13829 0.51787 0.93908 0.0
O167 O 0.15271 0.52564 0.9245 0.0
O168 O 0.1417 0.49933 0.92596 0.0
C169 C 0.15086 0.5103 0.92009 0.0
C170 C 0.15829 0.51314 0.95609 0.0
C171 C 0.16623 0.50325 0.91388 0.0
C172 C 0.19766 0.49436 0.91142 0.0
C173 C 0.18371 0.50088 0.91795 0.0
C174 C 0.17653 0.49166 0.89703 0.0
C175 C 0.19477 0.49089 0.90045 0.0
C176 C 0.16277 0.49814 0.90347 0.0
C177 C 0.08722 0.53315 0.93629 0.0
C178 C 0.05758 0.52347 0.93007 0.0
C179 C 0.06195 0.55339 0.93513 0.0
C180 C 0.08016 0.54996 0.93738 0.0
C181 C 0.05029 0.53999 0.93192 0.0
C182 C 0.07588 0.52008 0.9322 0.0
C183 C 0.1048 0.52895 0.94144 0.0
O184 O 0.14874 0.50082 0.95161 0.0
O185 O 0.15792 0.5278 0.95079 0.0
O186 O 0.11859 0.53944 0.93997 0.0
O187 O 0.10954 0.51257 0.94202 0.0
H188 H 0.12857 0.52152 0.96829 0.0
H189 H 0.12657 0.52029 0.98784 0.0
H190 H 0.1827 0.50545 0.98943 0.0
H191 H 0.18477 0.50688 0.97004 0.0
H192 H 0.21034 0.49171 0.91528 0.0
H193 H 0.18653 0.50382 0.92618 0.0
H194 H 0.17244 0.48701 0.88932 0.0
H195 H 0.14919 0.49901 0.90029 0.0
H196 H 0.04889 0.51297 0.92753 0.0
H197 H 0.05665 0.56624 0.9366 0.0
H198 H 0.08843 0.56025 0.94063 0.0
H199 H 0.08082 0.50697 0.93125 0.0
C200 C 0.75503 0.88405 0.21727 0.0
C201 C 0.74645 0.87068 0.22288 0.0
C202 C 0.75446 0.88444 0.23995 0.0
C203 C 0.74663 0.87062 0.23406 0.0
C204 C 0.76506 0.89623 0.234 0.0
C205 C 0.76479 0.8964 0.22295 0.0
U206 U 0.74949 0.86865 0.18774 0.0
O207 O 0.73998 0.88414 0.17405 0.0
O208 O 0.76799 0.87472 0.17462 0.0
C209 C 0.75586 0.88372 0.16936 0.0
C210 C 0.75486 0.88558 0.20558 0.0
C211 C 0.76229 0.89949 0.1638 0.0
C212 C 0.78277 0.92412 0.16204 0.0
C213 C 0.77448 0.91135 0.16836 0.0
C214 C 0.76617 0.91386 0.14674 0.0
C215 C 0.77905 0.9251 0.15111 0.0
C216 C 0.75784 0.90125 0.15303 0.0
C217 C 0.735 0.81804 0.18615 0.0
C218 C 0.71867 0.79597 0.17613 0.0
C219 C 0.73818 0.78756 0.19067 0.0
C220 C 0.74236 0.8049 0.19249 0.0
C221 C 0.7265 0.78289 0.18242 0.0
C222 C 0.72288 0.81351 0.17798 0.0
C223 C 0.73971 0.83607 0.18901 0.0
O224 O 0.76775 0.87745 0.20044 0.0
O225 O 0.73914 0.88505 0.20072 0.0
O226 O 0.72799 0.84873 0.18781 0.0
O227 O 0.75672 0.841 0.18897 0.0
H228 H 0.73978 0.86028 0.21866 0.0
H229 H 0.7409 0.8594 0.23788 0.0
H230 H 0.77401 0.90544 0.23771 0.0
H231 H 0.77245 0.90625 0.21879 0.0
H232 H 0.79275 0.93265 0.16555 0.0
H233 H 0.77819 0.91024 0.17664 0.0
H234 H 0.76321 0.91429 0.13834 0.0
H235 H 0.7486 0.89221 0.14933 0.0
H236 H 0.70956 0.79256 0.16973 0.0
H237 H 0.74424 0.77772 0.19565 0.0
H238 H 0.75141 0.8081 0.19897 0.0
H239 H 0.7168 0.82342 0.17306 0.0
C240 C 0.36605 0.49641 0.46898 0.0
C241 C 0.38242 0.50021 0.47417 0.0
C242 C 0.36687 0.50014 0.4912 0.0
C243 C 0.38282 0.50201 0.48524 0.0
C244 C 0.35077 0.49559 0.48605 0.0
C245 C 0.3504 0.4937 0.47504 0.0
U246 U 0.37953 0.49504 0.43866 0.0
O247 O 0.36149 0.48814 0.42531 0.0
O248 O 0.372 0.51478 0.42687 0.0
C249 C 0.36263 0.50374 0.42117 0.0
C250 C 0.36395 0.49761 0.45735 0.0
C251 C 0.34819 0.51047 0.41423 0.0
C252 C 0.31701 0.51309 0.40827 0.0
C253 C 0.32983 0.50609 0.41531 0.0
C254 C 0.34084 0.52815 0.39884 0.0
C255 C 0.32246 0.52435 0.40008 0.0
C256 C 0.35353 0.52128 0.40585 0.0
C257 C 0.43256 0.48137 0.43517 0.0
C258 C 0.45632 0.46678 0.42519 0.0
C259 C 0.46415 0.48605 0.43963 0.0
C260 C 0.44583 0.48937 0.44142 0.0
C261 C 0.46955 0.4749 0.43144 0.0
C262 C 0.43791 0.46996 0.42707 0.0
C263 C 0.4134 0.48631 0.43643 0.0
O264 O 0.37216 0.51054 0.45259 0.0
O265 O 0.36397 0.48319 0.45179 0.0
O266 O 0.40025 0.47483 0.43606 0.0
O267 O 0.40843 0.50226 0.43854 0.0
H268 H 0.39466 0.50242 0.46965 0.0
H269 H 0.39537 0.50545 0.48913 0.0
H270 H 0.33837 0.49406 0.49053 0.0
H271 H 0.33762 0.4909 0.4712 0.0
H272 H 0.30281 0.51016 0.40938 0.0
H273 H 0.3254 0.49759 0.42162 0.0
H274 H 0.34529 0.53691 0.39266 0.0
H275 H 0.36766 0.5246 0.40479 0.0
H276 H 0.46026 0.45823 0.41878 0.0
H277 H 0.47418 0.49243 0.44452 0.0
H278 H 0.44202 0.49835 0.44763 0.0
H279 H 0.42791 0.46394 0.42199 0.0
C280 C 0.76644 0.13111 0.71765 0.0
C281 C 0.77551 0.14432 0.72321 0.0
C282 C 0.76424 0.13271 0.73999 0.0
C283 C 0.77453 0.14503 0.73437 0.0
C284 C 0.75544 0.11953 0.73434 0.0
C285 C 0.7566 0.11872 0.72333 0.0
U286 U 0.77033 0.14642 0.68794 0.0
O287 O 0.778 0.1304 0.67411 0.0
O288 O 0.7505 0.141 0.67541 0.0
C289 C 0.76189 0.1318 0.66976 0.0
C290 C 0.76624 0.12969 0.70597 0.0
C291 C 0.75426 0.11702 0.66383 0.0
C292 C 0.7477 0.08642 0.66098 0.0
C293 C 0.75545 0.09968 0.66718 0.0
C294 C 0.73764 0.10775 0.64819 0.0
C295 C 0.73854 0.09043 0.65148 0.0
C296 C 0.74542 0.12084 0.65428 0.0
C297 C 0.78534 0.1972 0.68646 0.0
C298 C 0.80081 0.21995 0.6766 0.0
C299 C 0.78086 0.22741 0.69115 0.0
C300 C 0.77738 0.20987 0.6929 0.0
C301 C 0.79234 0.2326 0.68289 0.0
C302 C 0.79731 0.20231 0.67837 0.0
C303 C 0.77961 0.17902 0.68772 0.0
O304 O 0.75301 0.13772 0.70107 0.0
O305 O 0.78173 0.1304 0.70084 0.0
O306 O 0.79142 0.16636 0.68681 0.0
O307 O 0.76269 0.17423 0.68897 0.0
H308 H 0.78317 0.15406 0.71897 0.0
H309 H 0.7815 0.15526 0.73859 0.0
H310 H 0.74754 0.10984 0.73849 0.0
H311 H 0.74957 0.10841 0.71921 0.0
H312 H 0.74859 0.07312 0.66365 0.0
H313 H 0.76223 0.09643 0.67452 0.0
H314 H 0.73075 0.11116 0.64091 0.0
H315 H 0.74445 0.1341 0.65153 0.0
H316 H 0.8097 0.22376 0.67019 0.0
H317 H 0.77428 0.23698 0.6961 0.0
H318 H 0.76808 0.20621 0.69915 0.0
H319 H 0.80344 0.19275 0.67322 0.0
C320 C 0.86675 0.51254 0.96757 0.0
C321 C 0.88166 0.5052 0.97287 0.0
C322 C 0.86792 0.51171 0.98996 0.0
C323 C 0.8822 0.50476 0.98399 0.0
C324 C 0.85349 0.5198 0.9847 0.0
C325 C 0.8529 0.52015 0.9736 0.0
U326 U 0.88329 0.5153 0.93842 0.0
O327 O 0.87929 0.49682 0.92537 0.0
O328 O 0.86798 0.52304 0.92412 0.0
C329 C 0.86936 0.50759 0.91978 0.0
C330 C 0.86443 0.51102 0.95592 0.0
C331 C 0.85331 0.50003 0.91437 0.0
C332 C 0.8214 0.49996 0.90923 0.0
C333 C 0.83565 0.50671 0.9154 0.0
C334 C 0.84216 0.47967 0.90114 0.0
C335 C 0.82461 0.4864 0.90199 0.0
C336 C 0.85628 0.4864 0.90722 0.0
C337 C 0.93549 0.5307 0.9378 0.0
C338 C 0.96037 0.53557 0.92545 0.0
C339 C 0.96539 0.53818 0.94422 0.0
C340 C 0.94739 0.53393 0.94613 0.0
C341 C 0.97221 0.54054 0.93382 0.0
C342 C 0.94214 0.53109 0.9274 0.0
C343 C 0.91681 0.52585 0.94072 0.0
O344 O 0.86431 0.52551 0.95045 0.0
O345 O 0.87333 0.49848 0.9512 0.0
O346 O 0.91219 0.50943 0.94074 0.0
O347 O 0.90334 0.53658 0.93891 0.0
H348 H 0.89261 0.49933 0.96845 0.0
H349 H 0.8935 0.49858 0.98793 0.0
H350 H 0.8424 0.52531 0.98918 0.0
H351 H 0.84129 0.52589 0.96972 0.0
H352 H 0.80797 0.50542 0.90998 0.0
H353 H 0.83291 0.51729 0.92081 0.0
H354 H 0.84501 0.46932 0.89558 0.0
H355 H 0.86975 0.48114 0.90616 0.0
H356 H 0.96494 0.53441 0.91737 0.0
H357 H 0.97389 0.53911 0.95114 0.0
H358 H 0.94283 0.53279 0.95427 0.0
H359 H 0.93342 0.52764 0.92083 0.0
C360 C 0.25402 0.1335 0.71741 0.0
C361 C 0.26236 0.14743 0.72271 0.0
C362 C 0.25468 0.13476 0.73981 0.0
C363 C 0.26273 0.14801 0.73382 0.0
C364 C 0.24558 0.12133 0.73454 0.0
C365 C 0.24533 0.12067 0.72344 0.0
U366 U 0.25146 0.14987 0.68847 0.0
O367 O 0.27128 0.14681 0.67557 0.0
O368 O 0.24405 0.13586 0.6738 0.0
C369 C 0.26031 0.13752 0.66967 0.0
C370 C 0.25564 0.13122 0.70575 0.0
C371 C 0.26848 0.12248 0.66403 0.0
C372 C 0.26969 0.09191 0.65892 0.0
C373 C 0.26233 0.1053 0.6652 0.0
C374 C 0.28952 0.1126 0.65042 0.0
C375 C 0.28336 0.09549 0.65145 0.0
C376 C 0.28217 0.12587 0.6566 0.0
C377 C 0.23657 0.19969 0.68723 0.0
C378 C 0.22287 0.22053 0.67507 0.0
C379 C 0.23754 0.23056 0.69109 0.0
C380 C 0.24173 0.21351 0.69378 0.0
C381 C 0.2281 0.23429 0.68174 0.0
C382 C 0.22706 0.20327 0.67781 0.0
C383 C 0.24043 0.18199 0.69116 0.0
O384 O 0.24055 0.13132 0.70022 0.0
O385 O 0.26887 0.13964 0.70109 0.0
O386 O 0.25745 0.17726 0.69179 0.0
O387 O 0.22935 0.16919 0.68886 0.0
H388 H 0.26906 0.15761 0.7183 0.0
H389 H 0.26968 0.15856 0.73775 0.0
H390 H 0.2392 0.11105 0.73903 0.0
H391 H 0.23882 0.10982 0.71956 0.0
H392 H 0.26466 0.07882 0.65983 0.0
H393 H 0.25172 0.10225 0.67081 0.0
H394 H 0.29993 0.11574 0.64469 0.0
H395 H 0.28702 0.13897 0.65543 0.0
H396 H 0.21556 0.22316 0.6678 0.0
H397 H 0.24166 0.24093 0.69635 0.0
H398 H 0.24886 0.21108 0.70114 0.0
H399 H 0.22278 0.19283 0.67265 0.0
C400 C 0.65225 0.50223 0.46803 0.0
C401 C 0.63621 0.50715 0.47323 0.0
C402 C 0.65083 0.50344 0.49038 0.0
C403 C 0.63553 0.50779 0.48434 0.0
C404 C 0.66653 0.49775 0.4852 0.0
C405 C 0.66724 0.49718 0.47412 0.0
U406 U 0.63429 0.50013 0.43931 0.0
O407 O 0.63815 0.51905 0.42642 0.0
O408 O 0.64814 0.49244 0.42452 0.0
C409 C 0.64675 0.50799 0.42033 0.0
C410 C 0.6543 0.50377 0.45639 0.0
C411 C 0.66225 0.51467 0.41408 0.0
C412 C 0.69311 0.52545 0.41191 0.0
C413 C 0.67909 0.51905 0.41845 0.0
C414 C 0.67324 0.52405 0.39685 0.0
C415 C 0.691 0.52688 0.40071 0.0
C416 C 0.65945 0.51761 0.40329 0.0
C417 C 0.58239 0.48628 0.43772 0.0
C418 C 0.56128 0.47098 0.42612 0.0
C419 C 0.5499 0.48873 0.44046 0.0
C420 C 0.56757 0.49295 0.44334 0.0
C421 C 0.54655 0.47769 0.43188 0.0
C422 C 0.57914 0.47526 0.42902 0.0
C423 C 0.60065 0.48984 0.44205 0.0
O424 O 0.65376 0.48934 0.45087 0.0
O425 O 0.64545 0.51656 0.45189 0.0
O426 O 0.60574 0.50611 0.44265 0.0
O427 O 0.614 0.47912 0.43996 0.0
H428 H 0.62441 0.51101 0.46873 0.0
H429 H 0.62327 0.51212 0.48822 0.0
H430 H 0.67843 0.49429 0.48974 0.0
H431 H 0.67972 0.49334 0.47029 0.0
H432 H 0.70519 0.52973 0.41589 0.0
H433 H 0.68132 0.51782 0.4269 0.0
H434 H 0.66942 0.52716 0.38883 0.0
H435 H 0.64628 0.5152 0.39981 0.0
H436 H 0.55894 0.46238 0.41948 0.0
H437 H 0.53877 0.49391 0.44506 0.0
H438 H 0.56969 0.50118 0.45018 0.0
H439 H 0.59031 0.46976 0.4246 0.0
C440 C 0.26314 0.88205 0.21794 0.0
C441 C 0.25489 0.86811 0.22329 0.0
C442 C 0.26284 0.88074 0.24035 0.0
C443 C 0.2547 0.86751 0.2344 0.0
C444 C 0.27188 0.89418 0.23503 0.0
C445 C 0.27195 0.89486 0.22393 0.0
U446 U 0.26479 0.86562 0.189 0.0
O447 O 0.2448 0.8695 0.17625 0.0
O448 O 0.27253 0.87913 0.17423 0.0
C449 C 0.25624 0.87781 0.17011 0.0
C450 C 0.2613 0.88437 0.20629 0.0
C451 C 0.24914 0.89265 0.16387 0.0
C452 C 0.23769 0.92215 0.16176 0.0
C453 C 0.24447 0.90873 0.16826 0.0
C454 C 0.2393 0.90325 0.14665 0.0
C455 C 0.23623 0.92021 0.15055 0.0
C456 C 0.24608 0.89002 0.15307 0.0
C457 C 0.27949 0.81576 0.1875 0.0
C458 C 0.29423 0.79527 0.17553 0.0
C459 C 0.27811 0.78475 0.19095 0.0
C460 C 0.27375 0.80174 0.19372 0.0
C461 C 0.28836 0.7813 0.18185 0.0
C462 C 0.28981 0.81244 0.17834 0.0
C463 C 0.27562 0.83339 0.19159 0.0
O464 O 0.27625 0.88405 0.20064 0.0
O465 O 0.24783 0.87613 0.20174 0.0
O466 O 0.25862 0.8382 0.19222 0.0
O467 O 0.28675 0.84619 0.1894 0.0
H468 H 0.24812 0.85794 0.21891 0.0
H469 H 0.2478 0.85696 0.23836 0.0
H470 H 0.27833 0.90445 0.23949 0.0
H471 H 0.2784 0.90571 0.22002 0.0
H472 H 0.23315 0.93363 0.16579 0.0
H473 H 0.24575 0.91083 0.17672 0.0
H474 H 0.23616 0.8997 0.13858 0.0
H475 H 0.24867 0.87745 0.14956 0.0
H476 H 0.3022 0.79286 0.16848 0.0
H477 H 0.27357 0.77423 0.19597 0.0
H478 H 0.26607 0.80395 0.20091 0.0
H479 H 0.29459 0.82302 0.17345 0.0
C480 C 0.86426 0.50262 0.05818 0.0
C481 C 0.87966 0.49645 0.05283 0.0
C482 C 0.8661 0.50423 0.03585 0.0
C483 C 0.88053 0.49717 0.04171 0.0
C484 C 0.85068 0.5101 0.04123 0.0
C485 C 0.84977 0.50927 0.05228 0.0
U486 U 0.88319 0.49681 0.08663 0.0
O487 O 0.88002 0.51422 0.1003 0.0
O488 O 0.86879 0.48794 0.10098 0.0
C489 C 0.8706 0.50294 0.1058 0.0
C490 C 0.86304 0.50299 0.06985 0.0
C491 C 0.85476 0.50984 0.11159 0.0
C492 C 0.82467 0.52276 0.11239 0.0
C493 C 0.83865 0.5149 0.10652 0.0
C494 C 0.84263 0.52021 0.12837 0.0
C495 C 0.82677 0.52579 0.12334 0.0
C496 C 0.85643 0.51229 0.12256 0.0
C497 C 0.934 0.48091 0.08881 0.0
C498 C 0.96139 0.4895 0.09822 0.0
C499 C 0.96158 0.46378 0.08726 0.0
C500 C 0.94328 0.46638 0.08489 0.0
C501 C 0.97095 0.47568 0.09362 0.0
C502 C 0.94304 0.4921 0.09585 0.0
C503 C 0.91649 0.48561 0.08383 0.0
O504 O 0.86331 0.48798 0.07477 0.0
O505 O 0.87282 0.51488 0.0746 0.0
O506 O 0.91196 0.50207 0.0838 0.0
O507 O 0.90264 0.47512 0.08506 0.0
H508 H 0.89101 0.49129 0.05725 0.0
H509 H 0.89252 0.49253 0.03769 0.0
H510 H 0.8394 0.5155 0.03685 0.0
H511 H 0.83779 0.51407 0.05626 0.0
H512 H 0.81252 0.52701 0.10836 0.0
H513 H 0.83708 0.51316 0.09805 0.0
H514 H 0.84454 0.52242 0.13677 0.0
H515 H 0.86872 0.50849 0.12662 0.0
H516 H 0.96842 0.49887 0.10311 0.0
H517 H 0.96873 0.45314 0.08356 0.0
H518 H 0.93671 0.45766 0.07937 0.0
H519 H 0.93627 0.50343 0.09899 0.0
C520 C 0.26231 0.13189 0.80818 0.0
C521 C 0.27047 0.14584 0.80283 0.0
C522 C 0.2613 0.13358 0.78581 0.0
C523 C 0.27004 0.14662 0.79169 0.0
C524 C 0.2534 0.11961 0.7912 0.0
C525 C 0.25394 0.11877 0.80226 0.0
U526 U 0.26719 0.14974 0.8369 0.0
O527 O 0.24859 0.14581 0.85028 0.0
O528 O 0.2763 0.13579 0.8513 0.0
C529 C 0.26027 0.13667 0.8558 0.0
C530 C 0.26172 0.1307 0.81987 0.0
C531 C 0.25329 0.12087 0.86121 0.0
C532 C 0.22962 0.09924 0.86402 0.0
C533 C 0.23783 0.11195 0.85763 0.0
C534 C 0.2528 0.1033 0.87731 0.0
C535 C 0.23673 0.0952 0.87406 0.0
C536 C 0.26096 0.11601 0.87096 0.0
C537 C 0.28314 0.1993 0.838 0.0
C538 C 0.2854 0.22164 0.85163 0.0
C539 C 0.29049 0.22903 0.83321 0.0
C540 C 0.28768 0.21177 0.83036 0.0
C541 C 0.28899 0.23427 0.84381 0.0
C542 C 0.28228 0.20425 0.84872 0.0
C543 C 0.27829 0.18183 0.83409 0.0
O544 O 0.27724 0.13123 0.82494 0.0
O545 O 0.24896 0.1397 0.82456 0.0
O546 O 0.26116 0.17734 0.8343 0.0
O547 O 0.28944 0.16884 0.83574 0.0
H548 H 0.27697 0.15613 0.80725 0.0
H549 H 0.27627 0.15748 0.78766 0.0
H550 H 0.24669 0.10939 0.78682 0.0
H551 H 0.24761 0.10791 0.80623 0.0
H552 H 0.21725 0.09313 0.86134 0.0
H553 H 0.23162 0.11533 0.85013 0.0
H554 H 0.2585 0.10045 0.88503 0.0
H555 H 0.2728 0.12269 0.87394 0.0
H556 H 0.28428 0.22539 0.85987 0.0
H557 H 0.29337 0.23844 0.82707 0.0
H558 H 0.28849 0.20824 0.82206 0.0
H559 H 0.27879 0.19485 0.85475 0.0
C560 C 0.65362 0.5141 0.55847 0.0
C561 C 0.63713 0.51686 0.55318 0.0
C562 C 0.652 0.5123 0.53615 0.0
C563 C 0.63634 0.51603 0.54207 0.0
C564 C 0.66849 0.51001 0.54146 0.0
C565 C 0.66928 0.51094 0.55252 0.0
U566 U 0.63415 0.51878 0.58681 0.0
O567 O 0.63707 0.50091 0.6003 0.0
O568 O 0.64808 0.52724 0.60141 0.0
C569 C 0.64639 0.51202 0.60599 0.0
C570 C 0.65481 0.51336 0.57014 0.0
C571 C 0.6623 0.50495 0.61166 0.0
C572 C 0.69378 0.49552 0.61262 0.0
C573 C 0.67943 0.50311 0.60692 0.0
C574 C 0.67404 0.49171 0.62776 0.0
C575 C 0.69106 0.48949 0.62305 0.0
C576 C 0.65987 0.49938 0.62214 0.0
C577 C 0.58261 0.53395 0.58734 0.0
C578 C 0.55975 0.5372 0.60114 0.0
C579 C 0.55123 0.53949 0.58266 0.0
C580 C 0.5692 0.53691 0.5797 0.0
C581 C 0.5462 0.53931 0.59337 0.0
C582 C 0.57787 0.53433 0.59814 0.0
C583 C 0.60087 0.52954 0.58341 0.0
O584 O 0.65426 0.52821 0.57523 0.0
O585 O 0.64515 0.50121 0.57472 0.0
O586 O 0.60554 0.51313 0.58353 0.0
O587 O 0.61437 0.54016 0.58536 0.0
H588 H 0.62487 0.5193 0.55764 0.0
H589 H 0.6235 0.51788 0.53809 0.0
H590 H 0.6807 0.50721 0.53704 0.0
H591 H 0.68211 0.5088 0.55645 0.0
H592 H 0.70682 0.49392 0.60883 0.0
H593 H 0.68162 0.50728 0.59882 0.0
H594 H 0.67164 0.48722 0.63577 0.0
H595 H 0.64682 0.50071 0.62596 0.0
H596 H 0.55616 0.53712 0.60947 0.0
H597 H 0.5411 0.54123 0.57654 0.0
H598 H 0.57257 0.53673 0.57134 0.0
H599 H 0.58801 0.53206 0.60417 0.0
C600 C 0.25603 0.88344 0.30877 0.0
C601 C 0.24785 0.8695 0.30342 0.0
C602 C 0.25675 0.8819 0.28639 0.0
C603 C 0.24812 0.8688 0.29228 0.0
C604 C 0.26465 0.89587 0.29177 0.0
C605 C 0.26425 0.89663 0.30284 0.0
U606 U 0.25065 0.86535 0.33738 0.0
O607 O 0.26963 0.86775 0.35078 0.0
O608 O 0.24266 0.8794 0.35191 0.0
C609 C 0.25849 0.87718 0.35647 0.0
C610 C 0.25686 0.88448 0.32047 0.0
C611 C 0.26656 0.89201 0.36232 0.0
C612 C 0.27319 0.92274 0.3648 0.0
C613 C 0.26542 0.90927 0.35879 0.0
C614 C 0.28335 0.90192 0.37784 0.0
C615 C 0.28236 0.91915 0.37437 0.0
C616 C 0.2755 0.88856 0.37191 0.0
C617 C 0.23302 0.81688 0.33949 0.0
C618 C 0.24155 0.79083 0.34924 0.0
C619 C 0.21575 0.79017 0.33744 0.0
C620 C 0.2184 0.80772 0.33511 0.0
C621 C 0.2277 0.78143 0.34422 0.0
C622 C 0.24421 0.80844 0.3469 0.0
C623 C 0.23804 0.83374 0.33465 0.0
O624 O 0.24139 0.88457 0.32561 0.0
O625 O 0.26923 0.87484 0.32504 0.0
O626 O 0.25531 0.83772 0.33438 0.0
O627 O 0.22747 0.8472 0.33621 0.0
H628 H 0.24145 0.85915 0.30785 0.0
H629 H 0.2419 0.85793 0.28826 0.0
H630 H 0.27127 0.90614 0.28739 0.0
H631 H 0.27061 0.90749 0.30681 0.0
H632 H 0.27225 0.93594 0.36194 0.0
H633 H 0.2586 0.91233 0.35142 0.0
H634 H 0.29026 0.8988 0.38517 0.0
H635 H 0.27645 0.8754 0.37483 0.0
H636 H 0.25097 0.78429 0.35446 0.0
H637 H 0.20511 0.78313 0.33341 0.0
H638 H 0.20971 0.81385 0.32929 0.0
H639 H 0.25563 0.81513 0.35038 0.0
C640 C 0.65713 0.01398 0.55805 0.0
C641 C 0.64233 1.00532 0.55347 0.0
C642 C 0.65497 0.01002 0.53581 0.0
C643 C 0.64132 1.00327 0.5424 0.0
C644 C 0.66977 0.01848 0.54045 0.0
C645 C 0.67085 0.02038 0.55145 0.0
U646 U 0.63813 0.016 0.58671 0.0
O647 O 0.6522 0.01067 0.60184 0.0
O648 O 0.64161 0.03667 0.59855 0.0
C649 C 0.65097 0.02684 0.60505 0.0
C650 C 0.65849 0.01716 0.56959 0.0
C651 C 0.66692 0.03503 0.61027 0.0
C652 C 0.69743 0.03384 0.61778 0.0
C653 C 0.68368 0.02652 0.61147 0.0
C654 C 0.67817 0.05842 0.62147 0.0
C655 C 0.69464 0.04976 0.62295 0.0
C656 C 0.66451 0.05115 0.61524 0.0
C657 C 0.58617 1.00256 0.58886 0.0
C658 C 0.56215 0.00789 0.60172 0.0
C659 C 0.55518 0.99399 0.58501 0.0
C660 C 0.57342 0.99472 0.58218 0.0
C661 C 0.54926 1.00096 0.59466 0.0
C662 C 0.58052 0.00888 0.59879 0.0
C663 C 0.60446 1.00551 0.58447 0.0
O664 O 0.64929 0.03047 0.57318 0.0
O665 O 0.65762 1.00359 0.57586 0.0
O666 O 0.6177 0.99502 0.58716 0.0
O667 O 0.60963 0.02165 0.5832 0.0
H668 H 0.63154 1.00034 0.55841 0.0
H669 H 0.62977 0.99671 0.53897 0.0
H670 H 0.68044 0.02373 0.53552 0.0
H671 H 0.68236 0.0271 0.55483 0.0
H672 H 0.71002 0.02689 0.61885 0.0
H673 H 0.68598 0.01402 0.60782 0.0
H674 H 0.67566 0.07064 0.62543 0.0
H675 H 0.65172 0.05792 0.6146 0.0
H676 H 0.55785 0.0133 0.60923 0.0
H677 H 0.54555 0.98853 0.57947 0.0
H678 H 0.57747 0.98981 0.57449 0.0
H679 H 0.59011 0.01506 0.60406 0.0
C680 C 0.26534 0.41142 0.80822 0.0
C681 C 0.27446 0.39819 0.8027 0.0
C682 C 0.26335 0.40965 0.78585 0.0
C683 C 0.2736 0.3974 0.79155 0.0
C684 C 0.25455 0.42291 0.79144 0.0
C685 C 0.25559 0.42381 0.80248 0.0
U686 U 0.27076 0.39334 0.83684 0.0
O687 O 0.27887 0.40729 0.8514 0.0
O688 O 0.25176 0.39594 0.85021 0.0
C689 C 0.26299 0.40524 0.85593 0.0
C690 C 0.26489 0.41252 0.81993 0.0
C691 C 0.25502 0.42016 0.86175 0.0
C692 C 0.24769 0.45081 0.86389 0.0
C693 C 0.25555 0.43729 0.85795 0.0
C694 C 0.23865 0.43028 0.87737 0.0
C695 C 0.23901 0.44738 0.87363 0.0
C696 C 0.24661 0.41688 0.87153 0.0
C697 C 0.28732 0.34421 0.83789 0.0
C698 C 0.28651 0.32156 0.85137 0.0
C699 C 0.29554 0.31457 0.83342 0.0
C700 C 0.29346 0.33192 0.83054 0.0
C701 C 0.29161 0.30909 0.84376 0.0
C702 C 0.28421 0.33903 0.84842 0.0
C703 C 0.28258 0.36156 0.83377 0.0
O704 O 0.25229 0.40331 0.82461 0.0
O705 O 0.28043 0.41225 0.82499 0.0
O706 O 0.29344 0.37468 0.83568 0.0
O707 O 0.26539 0.36581 0.83376 0.0
H708 H 0.28203 0.38844 0.80699 0.0
H709 H 0.28058 0.38712 0.78739 0.0
H710 H 0.24668 0.43256 0.78724 0.0
H711 H 0.2485 0.43412 0.80656 0.0
H712 H 0.24814 0.46391 0.86082 0.0
H713 H 0.26194 0.4402 0.85043 0.0
H714 H 0.23211 0.42728 0.88484 0.0
H715 H 0.2461 0.40382 0.87464 0.0
H716 H 0.28345 0.3176 0.85941 0.0
H717 H 0.29949 0.30525 0.82743 0.0
H718 H 0.29589 0.33562 0.82237 0.0
H719 H 0.27941 0.34829 0.85423 0.0
C720 C 0.86043 1.00284 0.05791 0.0
C721 C 0.87687 1.00764 0.05313 0.0
C722 C 0.8627 1.00657 0.03566 0.0
C723 C 0.87797 0.00954 0.04206 0.0
C724 C 0.84626 1.0021 0.0405 0.0
C725 C 0.84515 1.00029 0.05151 0.0
U726 U 0.87932 1.0004 0.08654 0.0
O727 O 0.86586 1.0069 0.10169 0.0
O728 O 0.87478 0.98026 0.09859 0.0
C729 C 0.86667 0.99088 0.1052 0.0
C730 C 0.85887 0.9996 0.06944 0.0
C731 C 0.85091 0.98399 0.11111 0.0
C732 C 0.8218 0.96916 0.1122 0.0
C733 C 0.83532 0.97739 0.10614 0.0
C734 C 0.83904 0.97453 0.12818 0.0
C735 C 0.82379 0.96736 0.12325 0.0
C736 C 0.8524 0.98277 0.12218 0.0
C737 C 0.93138 0.01311 0.08881 0.0
C738 C 0.95588 1.00585 0.10098 0.0
C739 C 0.96194 0.02356 0.08554 0.0
C740 C 0.94367 0.02282 0.08277 0.0
C741 C 0.96833 0.01469 0.09448 0.0
C742 C 0.93749 1.00494 0.09811 0.0
C743 C 0.91321 0.01018 0.08423 0.0
O744 O 0.86773 0.9861 0.07306 0.0
O745 O 0.86002 0.01316 0.07571 0.0
O746 O 0.90012 0.02103 0.08659 0.0
O747 O 0.90774 0.99407 0.08322 0.0
H748 H 0.88885 0.00965 0.05792 0.0
H749 H 0.89078 0.013 0.03846 0.0
H750 H 0.83434 0.99979 0.03571 0.0
H751 H 0.83236 0.99659 0.05504 0.0
H752 H 0.81016 0.96361 0.10824 0.0
H753 H 0.83388 0.97814 0.09761 0.0
H754 H 0.84092 0.97319 0.13665 0.0
H755 H 0.86431 0.98768 0.12617 0.0
H756 H 0.96057 0.99889 0.10791 0.0
H757 H 0.97127 0.03041 0.08041 0.0
H758 H 0.93928 0.02915 0.07554 0.0
H759 H 0.92827 0.99731 0.10288 0.0
C760 C 0.25268 0.6042 0.30745 0.0
C761 C 0.2436 0.61749 0.30197 0.0
C762 C 0.2545 0.60594 0.28512 0.0
C763 C 0.24437 0.61825 0.29082 0.0
C764 C 0.26323 0.5926 0.29068 0.0
C765 C 0.26226 0.59171 0.3017 0.0
U766 U 0.24752 0.62229 0.33603 0.0
O767 O 0.23981 0.60823 0.35059 0.0
O768 O 0.26685 0.6198 0.34921 0.0
C769 C 0.25574 0.61052 0.35501 0.0
C770 C 0.25336 0.60319 0.31912 0.0
C771 C 0.26377 0.59592 0.36099 0.0
C772 C 0.27351 0.56593 0.36319 0.0
C773 C 0.26615 0.57923 0.35684 0.0
C774 C 0.2773 0.58621 0.37747 0.0
C775 C 0.27781 0.56873 0.37406 0.0
C776 C 0.2699 0.59931 0.37123 0.0
C777 C 0.23022 0.67071 0.3384 0.0
C778 C 0.23806 0.69546 0.34951 0.0
C779 C 0.2152 0.69849 0.33589 0.0
C780 C 0.21722 0.68099 0.33328 0.0
C781 C 0.22607 0.70603 0.34374 0.0
C782 C 0.2402 0.6779 0.34682 0.0
C783 C 0.23502 0.65394 0.33345 0.0
O784 O 0.26589 0.61266 0.32368 0.0
O785 O 0.23789 0.60326 0.32427 0.0
O786 O 0.22442 0.64052 0.33507 0.0
O787 O 0.25227 0.64992 0.33306 0.0
H788 H 0.23616 0.62731 0.30628 0.0
H789 H 0.23745 0.62859 0.28667 0.0
H790 H 0.271 0.5829 0.28646 0.0
H791 H 0.26932 0.58137 0.30578 0.0
H792 H 0.27617 0.5538 0.35929 0.0
H793 H 0.26254 0.57651 0.34868 0.0
H794 H 0.28286 0.59023 0.38499 0.0
H795 H 0.26914 0.61232 0.37443 0.0
H796 H 0.24663 0.70107 0.35556 0.0
H797 H 0.20597 0.70641 0.33131 0.0
H798 H 0.20947 0.67578 0.32673 0.0
H799 H 0.25035 0.67027 0.35088 0.0
C800 C 0.65533 1.00431 0.46731 0.0
C801 C 0.63949 0.99956 0.4728 0.0
C802 C 0.65341 1.00762 0.48964 0.0
C803 C 0.63856 1.00121 0.48389 0.0
C804 C 0.66887 0.01303 0.48411 0.0
C805 C 0.66981 0.01139 0.47306 0.0
U806 U 0.63951 0.99923 0.43802 0.0
O807 O 0.65428 1.005 0.42315 0.0
O808 O 0.64619 0.97829 0.42682 0.0
C809 C 0.65419 0.98873 0.42007 0.0
C810 C 0.65797 1.00052 0.45587 0.0
C811 C 0.66995 0.98191 0.41407 0.0
C812 C 0.69996 0.96884 0.41268 0.0
C813 C 0.68641 0.97696 0.4188 0.0
C814 C 0.68092 0.97098 0.39712 0.0
C815 C 0.69709 0.96545 0.40181 0.0
C816 C 0.66758 0.97914 0.40317 0.0
C817 C 0.58602 0.00979 0.43574 0.0
C818 C 0.5623 0.01872 0.42342 0.0
C819 C 0.55435 0.00855 0.44097 0.0
C820 C 0.57262 1.00608 0.44327 0.0
C821 C 0.54896 0.01475 0.43103 0.0
C822 C 0.58079 0.01631 0.42577 0.0
C823 C 0.60504 1.00739 0.43914 0.0
O824 O 0.65029 0.98638 0.45222 0.0
O825 O 0.65695 0.01362 0.44923 0.0
O826 O 0.6176 0.01859 0.43639 0.0
O827 O 0.61114 0.99163 0.44079 0.0
H828 H 0.62808 0.99411 0.46857 0.0
H829 H 0.62647 0.99704 0.48801 0.0
H830 H 0.68044 0.01806 0.48838 0.0
H831 H 0.68214 0.01512 0.46903 0.0
H832 H 0.71235 0.96461 0.41646 0.0
H833 H 0.68858 0.97893 0.42721 0.0
H834 H 0.67837 0.96846 0.38881 0.0
H835 H 0.65502 0.98279 0.39936 0.0
H836 H 0.55838 0.02349 0.41568 0.0
H837 H 0.54434 1.0054 0.44694 0.0
H838 H 0.57632 1.00126 0.45104 0.0
H839 H 0.59088 0.01944 0.41985 0.0
C840 C 0.25479 0.40955 0.71717 0.0
C841 C 0.24619 0.39625 0.72282 0.0
C842 C 0.2542 0.41013 0.73986 0.0
C843 C 0.24635 0.39627 0.734 0.0
C844 C 0.26484 0.42185 0.73387 0.0
C845 C 0.26458 0.42192 0.72281 0.0
U846 U 0.24878 0.39372 0.68778 0.0
O847 O 0.24001 0.40943 0.67401 0.0
O848 O 0.26744 0.39861 0.67451 0.0
C849 C 0.25576 0.40809 0.66924 0.0
C850 C 0.25465 0.41095 0.70546 0.0
C851 C 0.2631 0.42332 0.66347 0.0
C852 C 0.27278 0.4535 0.66198 0.0
C853 C 0.26475 0.44 0.66789 0.0
C854 C 0.27726 0.43385 0.64726 0.0
C855 C 0.27941 0.45036 0.65167 0.0
C856 C 0.26918 0.42055 0.65308 0.0
C857 C 0.23408 0.34332 0.68601 0.0
C858 C 0.21806 0.32162 0.67548 0.0
C859 C 0.23736 0.31261 0.68997 0.0
C860 C 0.24145 0.32988 0.69212 0.0
C861 C 0.22578 0.30825 0.68161 0.0
C862 C 0.22217 0.33912 0.67768 0.0
C863 C 0.23842 0.36124 0.68941 0.0
O864 O 0.26731 0.40245 0.70035 0.0
O865 O 0.2389 0.41068 0.70061 0.0
O866 O 0.22693 0.37403 0.68792 0.0
O867 O 0.25544 0.3661 0.68955 0.0
H868 H 0.2395 0.38582 0.71862 0.0
H869 H 0.24059 0.3851 0.73785 0.0
H870 H 0.2738 0.43106 0.73756 0.0
H871 H 0.27227 0.43172 0.71863 0.0
H872 H 0.27434 0.46618 0.66553 0.0
H873 H 0.26017 0.4425 0.6759 0.0
H874 H 0.28221 0.43113 0.63935 0.0
H875 H 0.26799 0.40785 0.64948 0.0
H876 H 0.20905 0.3185 0.66899 0.0
H877 H 0.24337 0.30256 0.69482 0.0
H878 H 0.25036 0.33277 0.69871 0.0
H879 H 0.2161 0.34924 0.67292 0.0
C880 C 0.8613 0.0129 0.96726 0.0
C881 C 0.87819 0.01236 0.9724 0.0
C882 C 0.86325 0.00899 0.98952 0.0
C883 C 0.87915 0.01041 0.98346 0.0
C884 C 0.84646 0.00896 0.98434 0.0
C885 C 0.84552 0.01088 0.97331 0.0
U886 U 0.87952 0.01611 0.9385 0.0
O887 O 0.86521 0.01108 0.92342 0.0
O888 O 0.87587 0.03703 0.92681 0.0
C889 C 0.86672 0.02722 0.92019 0.0
C890 C 0.85956 0.01672 0.9558 0.0
C891 C 0.8512 0.03544 0.9146 0.0
C892 C 0.81921 0.03796 0.90985 0.0
C893 C 0.83303 0.03041 0.91603 0.0
C894 C 0.84146 0.05565 0.90088 0.0
C895 C 0.82335 0.05067 0.90219 0.0
C896 C 0.85515 0.04814 0.90698 0.0
C897 C 0.93139 1.00236 0.936 0.0
C898 C 0.95614 0.00974 0.92402 0.0
C899 C 0.96191 0.99194 0.93946 0.0
C900 C 0.94358 0.99263 0.9421 0.0
C901 C 0.96848 1.00087 0.93058 0.0
C902 C 0.93769 0.01062 0.92677 0.0
C903 C 0.91317 1.00537 0.94049 0.0
O904 O 0.86873 0.03012 0.95229 0.0
O905 O 0.86004 1.00343 0.94929 0.0
O906 O 0.89982 0.995 0.93782 0.0
O907 O 0.90811 0.02151 0.94189 0.0
H908 H 0.89056 0.01386 0.96789 0.0
H909 H 0.89222 0.01045 0.98733 0.0
H910 H 0.83407 0.00786 0.98886 0.0
H911 H 0.83237 0.01125 0.96953 0.0
H912 H 0.80534 0.03384 0.91097 0.0
H913 H 0.82956 0.02057 0.92181 0.0
H914 H 0.84504 0.0653 0.89501 0.0
H915 H 0.86901 0.05212 0.90562 0.0
H916 H 0.96096 0.01675 0.91714 0.0
H917 H 0.97115 0.98507 0.94463 0.0
H918 H 0.93906 0.98627 0.94929 0.0
H919 H 0.92857 0.01829 0.92197 0.0
C920 C 0.26335 0.60566 0.21659 0.0
C921 C 0.27181 0.61905 0.22222 0.0
C922 C 0.26388 0.60515 0.23925 0.0
C923 C 0.27162 0.61906 0.23339 0.0
C924 C 0.25337 0.59331 0.23328 0.0
C925 C 0.25366 0.5932 0.22223 0.0
U926 U 0.26909 0.62168 0.18727 0.0
O927 O 0.2786 0.60641 0.17347 0.0
O928 O 0.25068 0.616 0.17404 0.0
C929 C 0.26264 0.60667 0.16887 0.0
C930 C 0.26352 0.60427 0.2049 0.0
C931 C 0.25604 0.5905 0.16375 0.0
C932 C 0.23296 0.56815 0.16148 0.0
C933 C 0.24124 0.581 0.16773 0.0
C934 C 0.25489 0.57321 0.14758 0.0
C935 C 0.23935 0.56461 0.1512 0.0
C936 C 0.26312 0.58601 0.15379 0.0
C937 C 0.28343 0.67223 0.18578 0.0
C938 C 0.29805 0.69417 0.17476 0.0
C939 C 0.28131 0.70278 0.19039 0.0
C940 C 0.2773 0.68547 0.19249 0.0
C941 C 0.29154 0.70736 0.18149 0.0
C942 C 0.29406 0.67664 0.17691 0.0
C943 C 0.27897 0.65425 0.18895 0.0
O944 O 0.25071 0.61258 0.19981 0.0
O945 O 0.27928 0.60484 0.20007 0.0
O946 O 0.29065 0.64159 0.18756 0.0
O947 O 0.26198 0.64928 0.18891 0.0
H948 H 0.2784 0.62953 0.21802 0.0
H949 H 0.27727 0.63028 0.23724 0.0
H950 H 0.24447 0.58404 0.23696 0.0
H951 H 0.24608 0.58333 0.21804 0.0
H952 H 0.22101 0.56163 0.16443 0.0
H953 H 0.23551 0.58411 0.17539 0.0
H954 H 0.25999 0.57074 0.13967 0.0
H955 H 0.27444 0.59315 0.15053 0.0
H956 H 0.30597 0.69748 0.16782 0.0
H957 H 0.27618 0.71268 0.19568 0.0
H958 H 0.26933 0.68239 0.19945 0.0
H959 H 0.29914 0.66665 0.17167 0.0
C960 C 0.3637 1.00029 0.46775 0.0
C961 C 0.37992 0.9973 0.4733 0.0
C962 C 0.36535 1.00531 0.48993 0.0
C963 C 0.38071 0.99976 0.48432 0.0
C964 C 0.34939 0.00891 0.48433 0.0
C965 C 0.34858 1.0064 0.47334 0.0
U966 U 0.38219 0.99447 0.4393 0.0
O967 O 0.37736 0.97301 0.4281 0.0
O968 O 0.36919 0.99945 0.42382 0.0
C969 C 0.3698 0.98308 0.42096 0.0
C970 C 0.36173 0.99592 0.45636 0.0
C971 C 0.35442 0.97595 0.41476 0.0
C972 C 0.32312 0.9665 0.41235 0.0
C973 C 0.33702 0.97323 0.41887 0.0
C974 C 0.34415 0.96433 0.39788 0.0
C975 C 0.32596 0.96314 0.40137 0.0
C976 C 0.35785 0.97102 0.40431 0.0
C977 C 0.43492 1.00588 0.4375 0.0
C978 C 0.45724 0.01501 0.42435 0.0
C979 C 0.46707 1.00547 0.4417 0.0
C980 C 0.4491 1.00262 0.44461 0.0
C981 C 0.47136 0.01168 0.43158 0.0
C982 C 0.43908 0.01212 0.42729 0.0
C983 C 0.41625 1.00377 0.44157 0.0
O984 O 0.36307 0.00877 0.44956 0.0
O985 O 0.37002 0.98181 0.45317 0.0
O986 O 0.4104 0.98797 0.44334 0.0
O987 O 0.40352 0.01447 0.43839 0.0
H988 H 0.39181 0.99265 0.46917 0.0
H989 H 0.39317 0.99699 0.48851 0.0
H990 H 0.33742 0.01323 0.48851 0.0
H991 H 0.33596 0.00879 0.46924 0.0
H992 H 0.31055 0.96358 0.41625 0.0
H993 H 0.33422 0.97604 0.42712 0.0
H994 H 0.34825 0.95982 0.39015 0.0
H995 H 0.37138 0.97216 0.40108 0.0
H996 H 0.46029 0.01984 0.41649 0.0
H997 H 0.47768 1.00293 0.44741 0.0
H998 H 0.44624 0.99806 0.45256 0.0
H999 H 0.42839 0.01489 0.42168 0.0
C1000 C 0.75325 0.60913 0.21815 0.0
C1001 C 0.7621 0.62277 0.22345 0.0
C1002 C 0.75452 0.61 0.24056 0.0
C1003 C 0.76274 0.62316 0.23457 0.0
C1004 C 0.74492 0.59689 0.23529 0.0
C1005 C 0.74435 0.59645 0.2242 0.0
U1006 U 0.75169 0.62325 0.18841 0.0
O1007 O 0.7713 0.61705 0.17588 0.0
O1008 O 0.74327 0.60794 0.17441 0.0
C1009 C 0.75964 0.60797 0.17032 0.0
C1010 C 0.75487 0.60655 0.20652 0.0
C1011 C 0.76627 0.59185 0.16518 0.0
C1012 C 0.7907 0.57146 0.16148 0.0
C1013 C 0.78274 0.58399 0.16807 0.0
C1014 C 0.76529 0.57348 0.14945 0.0
C1015 C 0.78233 0.5666 0.15193 0.0
C1016 C 0.75738 0.58601 0.156 0.0
C1017 C 0.73714 0.6738 0.18633 0.0
C1018 C 0.72121 0.69557 0.17585 0.0
C1019 C 0.73905 0.70429 0.19104 0.0
C1020 C 0.74361 0.68705 0.19292 0.0
C1021 C 0.72794 0.70875 0.18248 0.0
C1022 C 0.72571 0.67812 0.1778 0.0
C1023 C 0.74175 0.65582 0.18937 0.0
O1024 O 0.73987 0.60665 0.20092 0.0
O1025 O 0.7684 0.61434 0.20173 0.0
O1026 O 0.75876 0.65095 0.18986 0.0
O1027 O 0.7302 0.64311 0.18781 0.0
H1028 H 0.76903 0.6328 0.21903 0.0
H1029 H 0.77005 0.63348 0.23851 0.0
H1030 H 0.7384 0.58668 0.23977 0.0
H1031 H 0.7375 0.58578 0.22032 0.0
H1032 H 0.80382 0.56622 0.16355 0.0
H1033 H 0.78993 0.58816 0.1751 0.0
H1034 H 0.75864 0.56992 0.14212 0.0
H1035 H 0.74477 0.59191 0.15355 0.0
H1036 H 0.71262 0.69882 0.16919 0.0
H1037 H 0.74437 0.71424 0.19624 0.0
H1038 H 0.75216 0.68401 0.19964 0.0
H1039 H 0.72034 0.66811 0.17267 0.0
C1040 C 0.15364 0.01517 0.96752 0.0
C1041 C 0.13785 0.0194 0.97321 0.0
C1042 C 0.15206 0.01027 0.98974 0.0
C1043 C 0.1371 0.017 0.98424 0.0
C1044 C 0.16753 1.00543 0.98401 0.0
C1045 C 0.16831 0.00789 0.97302 0.0
U1046 U 0.13604 0.01913 0.93867 0.0
O1047 O 0.14101 0.03968 0.9269 0.0
O1048 O 0.14997 0.01314 0.92358 0.0
C1049 C 0.14926 0.02925 0.92024 0.0
C1050 C 0.15571 0.01922 0.95607 0.0
C1051 C 0.16508 0.03629 0.9144 0.0
C1052 C 0.19433 0.05096 0.91343 0.0
C1053 C 0.18068 0.04276 0.91943 0.0
C1054 C 0.17718 0.04589 0.89739 0.0
C1055 C 0.19246 0.05293 0.90237 0.0
C1056 C 0.16372 0.03764 0.90333 0.0
C1057 C 0.08405 1.00562 0.93594 0.0
C1058 C 0.0585 0.01374 0.92475 0.0
C1059 C 0.05443 0.99253 0.93868 0.0
C1060 C 0.07274 0.99395 0.94131 0.0
C1061 C 0.04702 1.00274 0.93059 0.0
C1062 C 0.07692 0.01524 0.92744 0.0
C1063 C 0.10219 0.00889 0.94052 0.0
O1064 O 0.1552 1.00605 0.94948 0.0
O1065 O 0.14699 0.03287 0.95253 0.0
O1066 O 0.10739 0.02506 0.94166 0.0
O1067 O 0.1155 0.99826 0.9382 0.0
H1068 H 0.12628 0.02492 0.96917 0.0
H1069 H 0.12501 0.02072 0.98851 0.0
H1070 H 0.17918 1.00017 0.9881 0.0
H1071 H 0.18059 1.0045 0.96882 0.0
H1072 H 0.206 0.05633 0.91745 0.0
H1073 H 0.18206 0.0419 0.92796 0.0
H1074 H 0.17539 0.04727 0.88891 0.0
H1075 H 0.15184 0.03279 0.89927 0.0
H1076 H 0.05302 0.02177 0.91849 0.0
H1077 H 0.04583 0.98408 0.94333 0.0
H1078 H 0.07788 0.98653 0.94795 0.0
H1079 H 0.08535 0.02439 0.9232 0.0
C1080 C 0.7644 0.40652 0.71769 0.0
C1081 C 0.75549 0.39293 0.72302 0.0
C1082 C 0.76319 0.4057 0.7401 0.0
C1083 C 0.75488 0.39256 0.73414 0.0
C1084 C 0.77283 0.41876 0.73481 0.0
C1085 C 0.77338 0.41917 0.72372 0.0
U1086 U 0.76602 0.39225 0.68799 0.0
O1087 O 0.74654 0.39835 0.67538 0.0
O1088 O 0.77457 0.40747 0.67397 0.0
C1089 C 0.75823 0.40745 0.66984 0.0
C1090 C 0.7628 0.40906 0.70605 0.0
C1091 C 0.75161 0.4236 0.66468 0.0
C1092 C 0.72658 0.44263 0.65984 0.0
C1093 C 0.73413 0.43014 0.6666 0.0
C1094 C 0.75429 0.44339 0.64966 0.0
C1095 C 0.73634 0.44885 0.65108 0.0
C1096 C 0.76179 0.43079 0.65635 0.0
C1097 C 0.78039 0.34165 0.6861 0.0
C1098 C 0.79659 0.31979 0.67586 0.0
C1099 C 0.77829 0.31121 0.6909 0.0
C1100 C 0.77369 0.32847 0.69267 0.0
C1101 C 0.78967 0.30668 0.68248 0.0
C1102 C 0.79204 0.33725 0.6777 0.0
C1103 C 0.77581 0.35966 0.68906 0.0
O1104 O 0.77782 0.40889 0.70047 0.0
O1105 O 0.74927 0.40129 0.70127 0.0
O1106 O 0.75881 0.36459 0.68949 0.0
O1107 O 0.78742 0.37231 0.6875 0.0
H1108 H 0.7485 0.38293 0.71861 0.0
H1109 H 0.74752 0.38229 0.73809 0.0
H1110 H 0.77942 0.42895 0.73928 0.0
H1111 H 0.78028 0.42979 0.71982 0.0
H1112 H 0.71279 0.44687 0.66116 0.0
H1113 H 0.72592 0.42497 0.67297 0.0
H1114 H 0.7621 0.44811 0.64299 0.0
H1115 H 0.77522 0.42594 0.65463 0.0
H1116 H 0.8054 0.31648 0.66931 0.0
H1117 H 0.77284 0.30131 0.69608 0.0
H1118 H 0.76496 0.33157 0.6993 0.0
H1119 H 0.7976 0.34721 0.6726 0.0
C1120 C 0.36305 0.01558 0.55821 0.0
C1121 C 0.37968 0.01211 0.55323 0.0
C1122 C 0.36465 0.01072 0.53601 0.0
C1123 C 0.38046 0.00963 0.5422 0.0
C1124 C 0.34805 0.01378 0.54106 0.0
C1125 C 0.34727 0.01615 0.55205 0.0
U1126 U 0.38216 0.01895 0.58677 0.0
O1127 O 0.37865 0.03988 0.59848 0.0
O1128 O 0.36822 0.01388 0.60196 0.0
C1129 C 0.36968 0.03004 0.60516 0.0
C1130 C 0.36171 0.01949 0.56967 0.0
C1131 C 0.35414 0.03815 0.61078 0.0
C1132 C 0.32204 0.04096 0.61521 0.0
C1133 C 0.33594 0.0335 0.60904 0.0
C1134 C 0.34429 0.05783 0.62475 0.0
C1135 C 0.32615 0.05323 0.62314 0.0
C1136 C 0.35805 0.0504 0.61867 0.0
C1137 C 0.43401 1.00498 0.58895 0.0
C1138 C 0.45865 0.01114 0.60126 0.0
C1139 C 0.46439 0.99419 0.58546 0.0
C1140 C 0.44615 0.99548 0.58268 0.0
C1141 C 0.47093 1.00233 0.59463 0.0
C1142 C 0.44028 0.01256 0.5984 0.0
C1143 C 0.41575 0.00814 0.58455 0.0
O1144 O 0.36241 1.00624 0.5762 0.0
O1145 O 0.37107 0.03288 0.57301 0.0
O1146 O 0.41074 0.02432 0.58323 0.0
O1147 O 0.4024 0.99781 0.58727 0.0
H1148 H 0.39203 0.0116 0.55784 0.0
H1149 H 0.3934 1.00722 0.53845 0.0
H1150 H 0.33572 0.01459 0.53645 0.0
H1151 H 0.33432 0.01878 0.55572 0.0
H1152 H 0.30814 0.03713 0.61385 0.0
H1153 H 0.33249 0.02402 0.60305 0.0
H1154 H 0.34785 0.06714 0.63083 0.0
H1155 H 0.37193 0.05408 0.62025 0.0
H1156 H 0.46344 0.01752 0.60837 0.0
H1157 H 0.47358 0.9874 0.58022 0.0
H1158 H 0.44165 0.98963 0.57533 0.0
H1159 H 0.43119 0.02003 0.60334 0.0
C1160 C 0.76225 0.60623 0.3089 0.0
C1161 C 0.77043 0.62018 0.30357 0.0
C1162 C 0.76145 0.60789 0.28653 0.0
C1163 C 0.77012 0.62095 0.29243 0.0
C1164 C 0.75359 0.59387 0.29189 0.0
C1165 C 0.75402 0.59305 0.30296 0.0
U1166 U 0.76753 0.62443 0.33745 0.0
O1167 O 0.74852 0.62209 0.35083 0.0
O1168 O 0.77551 0.61048 0.35201 0.0
C1169 C 0.75965 0.61268 0.35654 0.0
C1170 C 0.76139 0.60519 0.32059 0.0
C1171 C 0.75157 0.5978 0.36232 0.0
C1172 C 0.74443 0.56712 0.3645 0.0
C1173 C 0.75231 0.58064 0.35858 0.0
C1174 C 0.73494 0.5877 0.37785 0.0
C1175 C 0.73551 0.57057 0.37416 0.0
C1176 C 0.74292 0.6011 0.37202 0.0
C1177 C 0.78508 0.6729 0.33951 0.0
C1178 C 0.77655 0.6989 0.3493 0.0
C1179 C 0.80235 0.69962 0.3375 0.0
C1180 C 0.7997 0.68208 0.33514 0.0
C1181 C 0.79041 0.70833 0.3443 0.0
C1182 C 0.77389 0.68131 0.34693 0.0
C1183 C 0.7801 0.65605 0.33467 0.0
O1184 O 0.77684 0.60516 0.32574 0.0
O1185 O 0.74899 0.61484 0.32513 0.0
O1186 O 0.76283 0.65205 0.33439 0.0
O1187 O 0.79068 0.6426 0.33625 0.0
H1188 H 0.77682 0.63052 0.308 0.0
H1189 H 0.7763 0.63185 0.28842 0.0
H1190 H 0.74693 0.58365 0.2875 0.0
H1191 H 0.74767 0.58218 0.30692 0.0
H1192 H 0.74508 0.554 0.36148 0.0
H1193 H 0.75889 0.57772 0.35112 0.0
H1194 H 0.72823 0.59071 0.38525 0.0
H1195 H 0.74228 0.61418 0.3751 0.0
H1196 H 0.76714 0.70542 0.35453 0.0
H1197 H 0.813 0.70667 0.33348 0.0
H1198 H 0.8084 0.67598 0.32932 0.0
H1199 H 0.76247 0.6746 0.3504 0.0
C1200 C 0.15462 0.99941 0.05805 0.0
C1201 C 0.13835 1.00459 0.05322 0.0
C1202 C 0.15296 1.00441 0.03585 0.0
C1203 C 0.13755 1.00715 0.04219 0.0
C1204 C 0.16923 0.99958 0.04074 0.0
C1205 C 0.17005 0.99714 0.05173 0.0
U1206 U 0.13542 0.9963 0.08665 0.0
O1207 O 0.13886 0.97541 0.09842 0.0
O1208 O 0.14921 1.00143 0.10187 0.0
C1209 C 0.14761 0.98533 0.10515 0.0
C1210 C 0.15589 0.99556 0.06954 0.0
C1211 C 0.16303 0.97736 0.11096 0.0
C1212 C 0.19518 0.97225 0.1142 0.0
C1213 C 0.18125 0.97978 0.1081 0.0
C1214 C 0.1729 0.95979 0.12599 0.0
C1215 C 0.1911 0.96211 0.1232 0.0
C1216 C 0.15908 0.96734 0.11997 0.0
C1217 C 0.08382 0.01058 0.08911 0.0
C1218 C 0.05838 1.00216 0.1003 0.0
C1219 C 0.05413 0.02362 0.08653 0.0
C1220 C 0.07244 0.02232 0.08385 0.0
C1221 C 0.04681 0.01322 0.09457 0.0
C1222 C 0.07678 1.00079 0.09757 0.0
C1223 C 0.1019 1.00734 0.08446 0.0
O1224 O 0.15525 0.00884 0.07605 0.0
O1225 O 0.14645 0.98224 0.07291 0.0
O1226 O 0.10681 0.99114 0.08312 0.0
O1227 O 0.11537 0.01763 0.08704 0.0
H1228 H 0.12626 1.00642 0.05795 0.0
H1229 H 0.12488 0.01094 0.03856 0.0
H1230 H 0.18128 0.99749 0.03603 0.0
H1231 H 0.18272 0.99319 0.05529 0.0
H1232 H 0.20913 0.97423 0.11187 0.0
H1233 H 0.18471 0.98747 0.10121 0.0
H1234 H 0.16938 0.95212 0.13288 0.0
H1235 H 0.14518 0.96539 0.12239 0.0
H1236 H 0.05296 0.99399 0.10652 0.0
H1237 H 0.04547 0.03212 0.08196 0.0
H1238 H 0.0775 0.02987 0.07724 0.0
H1239 H 0.08526 0.99158 0.10171 0.0
C1240 C 0.75502 0.4094 0.8084 0.0
C1241 C 0.74693 0.39545 0.80303 0.0
C1242 C 0.75613 0.40781 0.78605 0.0
C1243 C 0.7474 0.39472 0.7919 0.0
C1244 C 0.76394 0.4218 0.79146 0.0
C1245 C 0.76334 0.42259 0.80253 0.0
U1246 U 0.74923 0.39138 0.83699 0.0
O1247 O 0.76805 0.39383 0.85043 0.0
O1248 O 0.74113 0.40569 0.8514 0.0
C1249 C 0.75698 0.40357 0.85597 0.0
C1250 C 0.75566 0.41044 0.82009 0.0
C1251 C 0.76525 0.41853 0.86159 0.0
C1252 C 0.76842 0.4494 0.86553 0.0
C1253 C 0.76082 0.43594 0.85943 0.0
C1254 C 0.78505 0.42829 0.87583 0.0
C1255 C 0.78066 0.44565 0.87379 0.0
C1256 C 0.77744 0.41495 0.86983 0.0
C1257 C 0.73186 0.34289 0.83933 0.0
C1258 C 0.74049 0.31709 0.8493 0.0
C1259 C 0.71479 0.31603 0.83744 0.0
C1260 C 0.71733 0.33355 0.83498 0.0
C1261 C 0.72674 0.30749 0.84432 0.0
C1262 C 0.74304 0.33467 0.84683 0.0
C1263 C 0.73678 0.35969 0.83438 0.0
O1264 O 0.74011 0.4105 0.82514 0.0
O1265 O 0.76797 0.4008 0.82472 0.0
O1266 O 0.75403 0.36374 0.8341 0.0
O1267 O 0.72614 0.37313 0.83585 0.0
H1268 H 0.74047 0.38511 0.80743 0.0
H1269 H 0.74127 0.38384 0.78785 0.0
H1270 H 0.77065 0.43204 0.78711 0.0
H1271 H 0.76964 0.43345 0.80652 0.0
H1272 H 0.76476 0.4627 0.86384 0.0
H1273 H 0.75142 0.43911 0.85315 0.0
H1274 H 0.79433 0.42505 0.88217 0.0
H1275 H 0.78095 0.40168 0.87173 0.0
H1276 H 0.74991 0.31072 0.85459 0.0
H1277 H 0.70423 0.30885 0.83343 0.0
H1278 H 0.70864 0.33951 0.8291 0.0
H1279 H 0.75439 0.34151 0.85029 0.0
C1280 C 0.15927 0.52359 1.00865 0.0
C1281 C 0.15317 0.51031 1.00174 0.0
C1282 C 0.14804 0.49109 0.017 0.0
C1283 C 0.15301 0.50475 0.02393 0.0
N1284 N 0.16106 0.53468 0.02663 0.0
N1285 N 0.13983 0.48212 0.99919 0.0
C1286 C 0.158 0.5212 0.01982 0.0
C1287 C 0.14692 0.49427 1.00589 0.0
N1288 N 0.16668 0.53834 1.00451 0.0
N1289 N 0.14514 0.47487 0.02101 0.0
H1290 H 0.1395 0.48363 0.99098 0.0
H1291 H 0.13315 0.47103 1.00177 0.0
H1292 H 0.14562 0.47212 0.0291 0.0
H1293 H 0.14358 0.46387 0.01633 0.0
H1294 H 0.17348 0.54755 1.00902 0.0
H1295 H 0.16704 0.54091 0.99639 0.0
H1296 H 0.16287 0.54743 0.02419 0.0
H1297 H 0.16042 0.5334 0.03486 0.0
C1298 C 0.74424 0.87349 0.25854 0.0
C1299 C 0.75348 0.88578 0.2521 0.0
C1300 C 0.76841 0.8971 0.26801 0.0
C1301 C 0.76177 0.88304 0.27407 0.0
N1302 N 0.7431 0.85741 0.27503 0.0
N1303 N 0.76042 0.91617 0.25378 0.0
C1304 C 0.74971 0.871 0.26929 0.0
C1305 C 0.76185 0.8997 0.2576 0.0
N1306 N 0.72807 0.86699 0.2552 0.0
N1307 N 0.78091 0.90817 0.27219 0.0
H1308 H 0.75235 0.91904 0.24721 0.0
H1309 H 0.76487 0.92698 0.25799 0.0
H1310 H 0.78632 0.90657 0.27977 0.0
H1311 H 0.78704 0.91786 0.26767 0.0
H1312 H 0.71982 0.85916 0.25987 0.0
H1313 H 0.72154 0.87194 0.24851 0.0
H1314 H 0.7359 0.84727 0.27158 0.0
H1315 H 0.74589 0.85562 0.28305 0.0
C1316 C 0.35869 0.52311 0.51757 0.0
C1317 C 0.36523 0.51051 0.52481 0.0
C1318 C 0.37187 0.49072 0.51006 0.0
C1319 C 0.36665 0.5038 0.50279 0.0
N1320 N 0.35679 0.53302 0.49933 0.0
N1321 N 0.37968 0.48305 0.52814 0.0
C1322 C 0.3605 0.52017 0.50647 0.0
C1323 C 0.37235 0.49454 0.5211 0.0
N1324 N 0.35039 0.5377 0.52132 0.0
N1325 N 0.37563 0.47443 0.50643 0.0
H1326 H 0.37955 0.48496 0.53632 0.0
H1327 H 0.38699 0.47214 0.52588 0.0
H1328 H 0.37567 0.47123 0.4984 0.0
H1329 H 0.37737 0.46375 0.51136 0.0
H1330 H 0.3433 0.54636 0.51655 0.0
H1331 H 0.34958 0.54067 0.52937 0.0
H1332 H 0.35407 0.54578 0.50145 0.0
H1333 H 0.35768 0.53127 0.49114 0.0
C1334 C 0.74478 0.14231 0.76743 0.0
C1335 C 0.75405 0.12989 0.77376 0.0
C1336 C 0.76883 0.11883 0.75773 0.0
C1337 C 0.76222 0.13305 0.75179 0.0
N1338 N 0.74347 0.15864 0.75103 0.0
N1339 N 0.76085 0.09952 0.77185 0.0
C1340 C 0.75017 0.14498 0.75668 0.0
C1341 C 0.76233 0.11605 0.76814 0.0
N1342 N 0.72866 0.14878 0.77087 0.0
N1343 N 0.78126 0.1078 0.75346 0.0
H1344 H 0.75283 0.09657 0.77843 0.0
H1345 H 0.76522 0.08876 0.76756 0.0
H1346 H 0.78664 0.10953 0.74588 0.0
H1347 H 0.78736 0.09799 0.75789 0.0
H1348 H 0.72038 0.15672 0.76629 0.0
H1349 H 0.7222 0.14375 0.77756 0.0
H1350 H 0.73628 0.16872 0.75456 0.0
H1351 H 0.74616 0.16054 0.74301 0.0
C1352 C 0.8573 0.49403 0.01761 0.0
C1353 C 0.86704 0.50586 0.02407 0.0
C1354 C 0.87728 0.52165 1.00819 0.0
C1355 C 0.86764 0.50974 1.00174 0.0
N1356 N 0.84673 0.48597 1.00003 0.0
N1357 N 0.88726 0.53016 0.02582 0.0
C1358 C 0.85717 0.49629 1.00638 0.0
C1359 C 0.87731 0.51947 0.01943 0.0
N1360 N 0.84881 0.4802 0.02222 0.0
N1361 N 0.88566 0.53552 1.00355 0.0
H1362 H 0.8868 0.52962 0.03408 0.0
H1363 H 0.89665 0.53911 0.02307 0.0
H1364 H 0.886 0.53741 0.99537 0.0
H1365 H 0.8914 0.54576 1.0077 0.0
H1366 H 0.84289 0.47007 0.01804 0.0
H1367 H 0.84863 0.47814 0.03039 0.0
H1368 H 0.83704 0.47736 1.00284 0.0
H1369 H 0.84698 0.4866 0.99178 0.0
C1370 C 0.27141 0.12363 0.76773 0.0
C1371 C 0.26007 0.13441 0.77399 0.0
C1372 C 0.24507 0.1453 0.75788 0.0
C1373 C 0.25648 0.13462 0.75161 0.0
N1374 N 0.27918 0.11232 0.75031 0.0
N1375 N 0.23721 0.15654 0.77529 0.0
C1376 C 0.26931 0.12342 0.75648 0.0
C1377 C 0.24721 0.14555 0.76912 0.0
N1378 N 0.28473 0.11418 0.77256 0.0
N1379 N 0.23155 0.15451 0.75306 0.0
H1380 H 0.23761 0.1564 0.78355 0.0
H1381 H 0.22916 0.16645 0.77233 0.0
H1382 H 0.22963 0.15465 0.74487 0.0
H1383 H 0.22145 0.16115 0.7571 0.0
H1384 H 0.29463 0.10724 0.76855 0.0
H1385 H 0.28669 0.11409 0.78075 0.0
H1386 H 0.28711 0.10231 0.75327 0.0
H1387 H 0.27885 0.1125 0.74205 0.0
C1388 C 0.65786 0.52129 0.50654 0.0
C1389 C 0.65077 0.50577 0.50212 0.0
C1390 C 0.64444 0.49453 0.51999 0.0
C1391 C 0.65122 0.51019 0.5244 0.0
N1392 N 0.66262 0.53917 0.52216 0.0
N1393 N 0.6393 0.47683 0.50429 0.0
C1394 C 0.65756 0.52372 0.51774 0.0
C1395 C 0.64447 0.4922 0.50876 0.0
N1396 N 0.66537 0.53346 0.49999 0.0
N1397 N 0.63778 0.48198 0.52659 0.0
H1398 H 0.63895 0.47483 0.49611 0.0
H1399 H 0.63621 0.46569 0.50854 0.0
H1400 H 0.63849 0.48278 0.53483 0.0
H1401 H 0.63089 0.47101 0.52405 0.0
H1402 H 0.67277 0.54406 0.50262 0.0
H1403 H 0.66512 0.53251 0.49174 0.0
H1404 H 0.66571 0.55024 0.51784 0.0
H1405 H 0.66265 0.54138 0.53032 0.0
C1406 C 0.27069 0.86999 0.26964 0.0
C1407 C 0.25787 0.88112 0.27456 0.0
C1408 C 0.24842 0.89209 0.25708 0.0
C1409 C 0.26119 0.8809 0.25216 0.0
N1410 N 0.28615 0.86102 0.25351 0.0
N1411 N 0.23318 0.90132 0.27322 0.0
C1412 C 0.27269 0.87022 0.25838 0.0
C1413 C 0.24645 0.89188 0.26834 0.0
N1414 N 0.28079 0.85902 0.27577 0.0
N1415 N 0.23847 0.90318 0.25095 0.0
H1416 H 0.23131 0.90141 0.28141 0.0
H1417 H 0.22321 0.90824 0.26924 0.0
H1418 H 0.23871 0.903 0.24269 0.0
H1419 H 0.23058 0.9132 0.25394 0.0
H1420 H 0.28882 0.84912 0.27278 0.0
H1421 H 0.28051 0.85918 0.28403 0.0
H1422 H 0.2963 0.85438 0.25751 0.0
H1423 H 0.28796 0.86087 0.24531 0.0
C1424 C 0.64316 0.02097 0.51829 0.0
C1425 C 0.65374 0.00876 0.524 0.0
C1426 C 0.66283 0.99497 0.50723 0.0
C1427 C 0.65323 0.00789 0.5015 0.0
N1428 N 0.63652 0.03465 0.50138 0.0
N1429 N 0.67527 0.98533 0.52406 0.0
C1430 C 0.64393 0.02125 0.50698 0.0
C1431 C 0.66405 0.99609 0.5185 0.0
N1432 N 0.63231 0.03228 0.52368 0.0
N1433 N 0.67034 0.98133 0.5019 0.0
H1434 H 0.67575 0.98508 0.53232 0.0
H1435 H 0.68489 0.97736 0.52053 0.0
H1436 H 0.66986 0.98012 0.49367 0.0
H1437 H 0.67589 0.97053 0.50561 0.0
H1438 H 0.62268 0.0401 0.52004 0.0
H1439 H 0.63203 0.03309 0.53193 0.0
H1440 H 0.63143 0.04584 0.50487 0.0
H1441 H 0.6367 0.03522 0.49312 0.0
C1442 C 0.26156 0.42553 0.75749 0.0
C1443 C 0.2532 0.41157 0.75202 0.0
C1444 C 0.24928 0.39697 0.76927 0.0
C1445 C 0.2613 0.40904 0.77405 0.0
N1446 N 0.28046 0.43415 0.77212 0.0
N1447 N 0.22772 0.39287 0.75514 0.0
C1448 C 0.26799 0.42304 0.76795 0.0
C1449 C 0.24389 0.39936 0.75849 0.0
N1450 N 0.2602 0.44195 0.7536 0.0
N1451 N 0.24261 0.38343 0.77502 0.0
H1452 H 0.22124 0.39778 0.74843 0.0
H1453 H 0.21941 0.38512 0.75982 0.0
H1454 H 0.2453 0.38171 0.78306 0.0
H1455 H 0.23545 0.37325 0.77158 0.0
H1456 H 0.26465 0.45281 0.75777 0.0
H1457 H 0.25219 0.44478 0.747 0.0
H1458 H 0.28666 0.44378 0.76759 0.0
H1459 H 0.28578 0.43264 0.77973 0.0
C1460 C 0.85907 0.02301 0.0185 0.0
C1461 C 0.86384 1.00748 0.02385 0.0
C1462 C 0.86753 0.99267 1.0067 0.0
C1463 C 0.86397 0.00849 1.00136 0.0
N1464 N 0.85868 0.03927 1.00202 0.0
N1465 N 0.87463 0.97806 0.02325 0.0
C1466 C 0.86039 0.02382 1.00723 0.0
C1467 C 0.86871 0.99247 0.01799 0.0
N1468 N 0.85282 0.03683 0.02419 0.0
N1469 N 0.86907 0.9777 1.00099 0.0
H1470 H 0.87509 0.97721 0.03149 0.0
H1471 H 0.88029 0.96736 0.01948 0.0
H1472 H 0.86855 0.9774 0.99272 0.0
H1473 H 0.86952 0.96543 1.00439 0.0
H1474 H 0.84698 0.04774 0.02076 0.0
H1475 H 0.85235 0.03696 0.03246 0.0
H1476 H 0.85798 0.0512 1.00583 0.0
H1477 H 0.85935 0.04036 0.99378 0.0
C1478 C 0.25643 0.58989 0.25688 0.0
C1479 C 0.26486 0.60378 0.25139 0.0
C1480 C 0.26868 0.61853 0.26858 0.0
C1481 C 0.25654 0.60655 0.27334 0.0
N1482 N 0.23727 0.58151 0.27144 0.0
N1483 N 0.29033 0.6225 0.25447 0.0
C1484 C 0.24984 0.59252 0.26728 0.0
C1485 C 0.27415 0.61603 0.25783 0.0
N1486 N 0.25787 0.57341 0.25309 0.0
N1487 N 0.27539 0.63206 0.27433 0.0
H1488 H 0.2968 0.61758 0.24777 0.0
H1489 H 0.29863 0.63028 0.25915 0.0
H1490 H 0.27265 0.63383 0.28236 0.0
H1491 H 0.28264 0.64218 0.27088 0.0
H1492 H 0.25336 0.56261 0.2573 0.0
H1493 H 0.26599 0.5705 0.24655 0.0
H1494 H 0.23113 0.57184 0.26692 0.0
H1495 H 0.23184 0.58313 0.27902 0.0
C1496 C 0.35934 0.99245 0.50795 0.0
C1497 C 0.36565 1.0066 0.50176 0.0
C1498 C 0.37133 0.02348 0.518 0.0
C1499 C 0.36535 0.00918 0.52419 0.0
N1500 N 0.3555 0.97952 0.52539 0.0
N1501 N 0.37575 0.03615 0.50049 0.0
C1502 C 0.35975 0.99355 0.51924 0.0
C1503 C 0.37126 0.02225 0.50669 0.0
N1504 N 0.3524 0.97817 0.50297 0.0
N1505 N 0.37725 0.03816 0.52299 0.0
H1506 H 0.37609 0.03557 0.49223 0.0
H1507 H 0.37832 0.04852 0.50334 0.0
H1508 H 0.37654 0.03989 0.53118 0.0
H1509 H 0.38351 0.04849 0.5192 0.0
H1510 H 0.34551 0.96827 0.50683 0.0
H1511 H 0.35259 0.97657 0.49476 0.0
H1512 H 0.35305 0.96717 0.52244 0.0
H1513 H 0.35557 0.97988 0.53366 0.0
C1514 C 0.74722 0.62011 0.26997 0.0
C1515 C 0.7601 0.60886 0.27472 0.0
C1516 C 0.76923 0.59825 0.2571 0.0
C1517 C 0.75645 0.60962 0.25235 0.0
N1518 N 0.73149 0.62943 0.25401 0.0
N1519 N 0.78468 0.58859 0.27308 0.0
C1520 C 0.74505 0.62013 0.25872 0.0
C1521 C 0.77139 0.5982 0.26835 0.0
N1522 N 0.73722 0.63094 0.27624 0.0
N1523 N 0.77897 0.5872 0.25083 0.0
H1524 H 0.78667 0.5883 0.28127 0.0
H1525 H 0.79455 0.58171 0.26899 0.0
H1526 H 0.77851 0.5875 0.24257 0.0
H1527 H 0.78688 0.5771 0.2537 0.0
H1528 H 0.72918 0.64094 0.27336 0.0
H1529 H 0.73758 0.63056 0.2845 0.0
H1530 H 0.72136 0.6359 0.25812 0.0
H1531 H 0.72957 0.62981 0.24582 0.0
C1532 C 0.16003 0.02216 1.00776 0.0
C1533 C 0.15185 0.00891 1.00158 0.0
C1534 C 0.14426 0.99275 0.01783 0.0
C1535 C 0.15218 1.00615 0.02403 0.0
N1536 N 0.16579 0.03441 0.02521 0.0
N1537 N 0.13812 0.98074 1.00033 0.0
C1538 C 0.15968 0.02103 0.01906 0.0
C1539 C 0.14435 0.99402 1.00652 0.0
N1540 N 0.16862 0.03559 1.00277 0.0
N1541 N 0.13648 0.97888 0.02282 0.0
H1542 H 0.1378 0.98136 0.99207 0.0
H1543 H 0.13409 0.96873 1.00319 0.0
H1544 H 0.13709 0.977 0.031 0.0
H1545 H 0.12875 0.9695 0.01904 0.0
H1546 H 0.17682 0.04456 1.00661 0.0
H1547 H 0.16842 0.03732 0.99458 0.0
H1548 H 0.16979 0.04639 0.02226 0.0
H1549 H 0.16577 0.03403 0.03347 0.0
C1550 C 0.77052 0.3957 0.76952 0.0
C1551 C 0.75758 0.4069 0.77425 0.0
C1552 C 0.74849 0.4175 0.75663 0.0
C1553 C 0.76128 0.40612 0.75189 0.0
N1554 N 0.78626 0.38636 0.75357 0.0
N1555 N 0.73297 0.42714 0.77259 0.0
C1556 C 0.7727 0.39565 0.75828 0.0
C1557 C 0.7463 0.41755 0.76787 0.0
N1558 N 0.78057 0.38493 0.77581 0.0
N1559 N 0.73876 0.42855 0.75035 0.0
H1560 H 0.73096 0.42745 0.78077 0.0
H1561 H 0.72309 0.43398 0.76849 0.0
H1562 H 0.73926 0.42826 0.74209 0.0
H1563 H 0.73086 0.43866 0.75321 0.0
H1564 H 0.78868 0.37498 0.77296 0.0
H1565 H 0.78019 0.38533 0.78407 0.0
H1566 H 0.79639 0.37988 0.75769 0.0
H1567 H 0.78818 0.38596 0.74538 0.0
C1568 C 1.00094 0.48509 0.08632 0.0
C1569 C 0.99114 0.47532 0.09394 0.0
C1570 C 0.01973 0.46396 0.10116 0.0
C1571 C 0.02948 0.47472 0.09403 0.0
N1572 N 0.02965 0.49712 0.08069 0.0
N1573 N 0.99077 0.45659 0.10918 0.0
C1574 C 0.02014 0.48574 0.08687 0.0
C1575 C 1.00043 0.46505 0.10153 0.0
N1576 N 0.99189 0.49327 0.07829 0.0
N1577 N 0.02894 0.45245 0.10737 0.0
H1578 H 0.97667 0.45685 0.10949 0.0
H1579 H 0.99661 0.45023 0.11559 0.0
H1580 H 0.04303 0.45173 0.10748 0.0
H1581 H 0.02273 0.44294 0.11194 0.0
H1582 H 0.99826 0.49866 0.07171 0.0
H1583 H 0.97783 0.49357 0.07771 0.0
H1584 H 0.02364 0.50698 0.0763 0.0
H1585 H 0.04373 0.49763 0.08052 0.0
C1586 C 0.80342 0.75507 0.35139 0.0
C1587 C 0.7912 0.76443 0.34485 0.0
C1588 C 0.77928 0.7371 0.3377 0.0
C1589 C 0.7906 0.72768 0.34474 0.0
N1590 N 0.81228 0.7273 0.35896 0.0
N1591 N 0.76595 0.7646 0.33274 0.0
C1592 C 0.80237 0.73657 0.35179 0.0
C1593 C 0.77866 0.75548 0.33831 0.0
N1594 N 0.81626 0.76388 0.35702 0.0
N1595 N 0.76963 0.72846 0.3301 0.0
H1596 H 0.76544 0.77809 0.33256 0.0
H1597 H 0.75503 0.75886 0.3289 0.0
H1598 H 0.76931 0.715 0.32949 0.0
H1599 H 0.76302 0.73459 0.32385 0.0
H1600 H 0.82683 0.75794 0.36107 0.0
H1601 H 0.81695 0.77738 0.35714 0.0
H1602 H 0.81985 0.73288 0.36502 0.0
H1603 H 0.81204 0.7138 0.35927 0.0
C1604 C 0.51719 0.55645 0.59472 0.0
C1605 C 0.52651 0.54049 0.59606 0.0
C1606 C 0.49746 0.5251 0.59741 0.0
C1607 C 0.48811 0.541 0.5959 0.0
N1608 N 0.48861 0.57211 0.59511 0.0
N1609 N 0.52577 0.51028 0.60089 0.0
C1610 C 0.49789 0.5568 0.59522 0.0
C1611 C 0.51669 0.52508 0.59823 0.0
N1612 N 0.52688 0.57116 0.59266 0.0
N1613 N 0.48807 0.50984 0.59727 0.0
H1614 H 0.53982 0.50938 0.60098 0.0
H1615 H 0.51945 0.49923 0.60382 0.0
H1616 H 0.47403 0.50915 0.59674 0.0
H1617 H 0.49418 0.49771 0.59691 0.0
H1618 H 0.52112 0.58284 0.59033 0.0
H1619 H 0.54098 0.5715 0.59293 0.0
H1620 H 0.49471 0.58424 0.59542 0.0
H1621 H 0.47453 0.57268 0.59552 0.0
C1622 C 0.71395 0.26074 0.85156 0.0
C1623 C 0.7263 0.25137 0.84512 0.0
C1624 C 0.73817 0.27871 0.83792 0.0
C1625 C 0.72669 0.28814 0.84486 0.0
N1626 N 0.70481 0.28855 0.85897 0.0
N1627 N 0.75174 0.25122 0.83314 0.0
C1628 C 0.71488 0.27925 0.85189 0.0
C1629 C 0.73888 0.26032 0.8386 0.0
N1630 N 0.70109 0.25192 0.85717 0.0
N1631 N 0.74789 0.28731 0.83033 0.0
H1632 H 0.75231 0.23774 0.833 0.0
H1633 H 0.76269 0.25699 0.82934 0.0
H1634 H 0.74815 0.30077 0.82967 0.0
H1635 H 0.75463 0.28116 0.82415 0.0
H1636 H 0.69044 0.25784 0.86116 0.0
H1637 H 0.70047 0.23842 0.85735 0.0
H1638 H 0.69718 0.283 0.86501 0.0
H1639 H 0.70498 0.30205 0.85923 0.0
C1640 C 1.00262 0.55118 0.94107 0.0
C1641 C 0.99201 0.54608 0.93225 0.0
C1642 C 0.02031 0.54288 0.92209 0.0
C1643 C 0.03025 0.54286 0.93176 0.0
N1644 N 0.02987 0.54587 0.95089 0.0
N1645 N 0.9924 0.55153 0.9135 0.0
C1646 C 0.02117 0.54685 0.94137 0.0
C1647 C 1.00116 0.54577 0.92233 0.0
N1648 N 0.99561 0.56215 0.94847 0.0
N1649 N 0.02911 0.54034 0.91271 0.0
H1650 H 0.97989 0.55772 0.91405 0.0
H1651 H 0.99857 0.55294 0.90613 0.0
H1652 H 0.04316 0.53941 0.91219 0.0
H1653 H 0.02239 0.53831 0.90556 0.0
H1654 H 1.00337 0.56742 0.95458 0.0
H1655 H 0.98274 0.56753 0.9476 0.0
H1656 H 0.02305 0.54735 0.95808 0.0
H1657 H 0.0433 0.54195 0.95167 0.0
C1658 C 0.71066 0.73622 0.18606 0.0
C1659 C 0.72447 0.72747 0.18036 0.0
C1660 C 0.73549 0.75527 0.17341 0.0
C1661 C 0.72349 0.76408 0.18032 0.0
N1662 N 0.6991 0.76353 0.19294 0.0
N1663 N 0.75004 0.7282 0.16856 0.0
C1664 C 0.71071 0.7547 0.18646 0.0
C1665 C 0.73669 0.73687 0.17387 0.0
N1666 N 0.69757 0.72676 0.19106 0.0
N1667 N 0.7458 0.76457 0.16644 0.0
H1668 H 0.75089 0.71472 0.16836 0.0
H1669 H 0.76079 0.73425 0.16474 0.0
H1670 H 0.74551 0.77806 0.16607 0.0
H1671 H 0.75355 0.75903 0.16046 0.0
H1672 H 0.68624 0.73212 0.19467 0.0
H1673 H 0.69734 0.71325 0.1909 0.0
H1674 H 0.69071 0.75767 0.1985 0.0
H1675 H 0.69827 0.77702 0.19297 0.0
C1676 C 0.4984 0.48356 0.4223 0.0
C1677 C 0.48922 0.4723 0.42939 0.0
C1678 C 0.51823 0.46079 0.43573 0.0
C1679 C 0.52738 0.47319 0.42937 0.0
N1680 N 0.527 0.49316 0.41476 0.0
N1681 N 0.4896 0.44781 0.44115 0.0
C1682 C 0.51768 0.48345 0.42199 0.0
C1683 C 0.49894 0.46002 0.43551 0.0
N1684 N 0.48864 0.49493 0.41626 0.0
N1685 N 0.52811 0.45016 0.44219 0.0
H1686 H 0.47552 0.44703 0.44105 0.0
H1687 H 0.49556 0.43785 0.44544 0.0
H1688 H 0.54222 0.44992 0.44205 0.0
H1689 H 0.5226 0.44173 0.44774 0.0
H1690 H 0.49431 0.50484 0.41178 0.0
H1691 H 0.47454 0.49487 0.41602 0.0
H1692 H 0.521 0.49986 0.40854 0.0
H1693 H 0.54109 0.49348 0.41449 0.0
C1694 C 0.7813 0.27833 0.67406 0.0
C1695 C 0.79336 0.28798 0.68052 0.0
C1696 C 0.80745 0.26105 0.68683 0.0
C1697 C 0.79476 0.25144 0.68079 0.0
N1698 N 0.77264 0.25038 0.66681 0.0
N1699 N 0.82014 0.28922 0.69131 0.0
C1700 C 0.78272 0.25995 0.67375 0.0
C1701 C 0.80724 0.27951 0.68632 0.0
N1702 N 0.76793 0.28675 0.66862 0.0
N1703 N 0.81928 0.25246 0.6933 0.0
H1704 H 0.82016 0.30273 0.69109 0.0
H1705 H 0.8315 0.28408 0.69501 0.0
H1706 H 0.82033 0.23898 0.6934 0.0
H1707 H 0.82766 0.25847 0.6988 0.0
H1708 H 0.75731 0.28051 0.6648 0.0
H1709 H 0.76694 0.30022 0.66832 0.0
H1710 H 0.76491 0.25572 0.66074 0.0
H1711 H 0.77312 0.23689 0.66654 0.0
C1712 C 0.23618 0.26239 0.67273 0.0
C1713 C 0.22409 0.25282 0.67922 0.0
C1714 C 0.21002 0.27989 0.68536 0.0
C1715 C 0.22272 0.28948 0.67928 0.0
N1716 N 0.24496 0.29027 0.66537 0.0
N1717 N 0.19686 0.25181 0.68959 0.0
C1718 C 0.23475 0.2808 0.67231 0.0
C1719 C 0.21007 0.26142 0.68481 0.0
N1720 N 0.24968 0.25392 0.66745 0.0
N1721 N 0.19845 0.28847 0.69197 0.0
H1722 H 0.19663 0.2383 0.68924 0.0
H1723 H 0.18539 0.25708 0.69311 0.0
H1724 H 0.19756 0.30196 0.69215 0.0
H1725 H 0.19026 0.28239 0.69755 0.0
H1726 H 0.26036 0.26012 0.66365 0.0
H1727 H 0.25072 0.24045 0.66727 0.0
H1728 H 0.25275 0.28484 0.65937 0.0
H1729 H 0.2445 0.30375 0.66505 0.0
C1730 C 0.28096 0.75339 0.17253 0.0
C1731 C 0.29269 0.76284 0.17928 0.0
C1732 C 0.30755 0.7357 0.18476 0.0
C1733 C 0.29416 0.72619 0.17914 0.0
N1734 N 0.26835 0.72549 0.16753 0.0
N1735 N 0.31891 0.7639 0.1905 0.0
C1736 C 0.28118 0.73492 0.17279 0.0
C1737 C 0.30669 0.75422 0.18491 0.0
N1738 N 0.26955 0.76217 0.16591 0.0
N1739 N 0.32072 0.72687 0.19011 0.0
H1740 H 0.31887 0.77741 0.19035 0.0
H1741 H 0.3293 0.75887 0.19511 0.0
H1742 H 0.32172 0.71339 0.1899 0.0
H1743 H 0.33097 0.73259 0.19452 0.0
H1744 H 0.26179 0.75631 0.16004 0.0
H1745 H 0.26885 0.77565 0.1657 0.0
H1746 H 0.2571 0.73085 0.16383 0.0
H1747 H 0.26848 0.712 0.16721 0.0
C1748 C 0.27394 0.26289 0.84765 0.0
C1749 C 0.29013 0.25324 0.84631 0.0
C1750 C 0.30763 0.28044 0.84617 0.0
C1751 C 0.29123 0.29004 0.84608 0.0
N1752 N 0.2586 0.29046 0.84577 0.0
N1753 N 0.3225 0.25246 0.84439 0.0
C1754 C 0.27435 0.2813 0.84676 0.0
C1755 C 0.30705 0.26195 0.84569 0.0
N1756 N 0.25803 0.25445 0.84959 0.0
N1757 N 0.32372 0.28911 0.84679 0.0
H1758 H 0.32263 0.23896 0.8447 0.0
H1759 H 0.33506 0.2578 0.8426 0.0
H1760 H 0.32447 0.30259 0.84721 0.0
H1761 H 0.3362 0.2831 0.84772 0.0
H1762 H 0.24624 0.2607 0.85197 0.0
H1763 H 0.25682 0.24101 0.84964 0.0
H1764 H 0.24597 0.28474 0.84479 0.0
H1765 H 0.25812 0.3039 0.84509 0.0
C1766 C 0.2396 0.73435 0.33811 0.0
C1767 C 0.22698 0.72532 0.34455 0.0
C1768 C 0.21572 0.75308 0.35157 0.0
C1769 C 0.22755 0.76207 0.3446 0.0
N1770 N 0.24868 0.76147 0.33004 0.0
N1771 N 0.20181 0.7257 0.35664 0.0
C1772 C 0.23897 0.75274 0.33757 0.0
C1773 C 0.21469 0.73459 0.35109 0.0
N1774 N 0.25241 0.72532 0.33257 0.0
N1775 N 0.20572 0.76226 0.35875 0.0
H1776 H 0.20114 0.7122 0.35671 0.0
H1777 H 0.1912 0.73158 0.36068 0.0
H1778 H 0.20596 0.77576 0.35912 0.0
H1779 H 0.19809 0.75661 0.36475 0.0
H1780 H 0.26338 0.73112 0.32882 0.0
H1781 H 0.25293 0.71184 0.33232 0.0
H1782 H 0.25537 0.75541 0.3238 0.0
H1783 H 0.24898 0.77494 0.32947 0.0
C1784 C 0.50011 0.98757 0.59985 0.0
C1785 C 0.49093 1.00281 0.59653 0.0
C1786 C 0.52011 0.01784 0.59456 0.0
C1787 C 0.52934 1.00208 0.59672 0.0
N1788 N 0.52856 0.97186 0.60136 0.0
N1789 N 0.492 0.03201 0.58978 0.0
C1790 C 0.51943 0.98694 0.59943 0.0
C1791 C 0.50088 0.01792 0.5938 0.0
N1792 N 0.49027 0.9738 0.60348 0.0
N1793 N 0.52978 0.03275 0.59309 0.0
H1794 H 0.47797 0.03276 0.58915 0.0
H1795 H 0.49849 0.04256 0.58633 0.0
H1796 H 0.54385 0.03314 0.59289 0.0
H1797 H 0.52394 0.045 0.59281 0.0
H1798 H 0.4959 0.96272 0.6068 0.0
H1799 H 0.47617 0.97396 0.60387 0.0
H1800 H 0.52238 0.95984 0.60218 0.0
H1801 H 0.54264 0.97125 0.60174 0.0
C1802 C 0.0175 0.02603 0.10134 0.0
C1803 C 0.02672 0.01251 0.09593 0.0
C1804 C 0.99758 0.99879 0.09165 0.0
C1805 C 0.98832 0.01317 0.0961 0.0
N1806 N 0.98906 0.0409 0.10479 0.0
N1807 N 0.0257 0.98705 0.08487 0.0
C1808 C 0.99819 0.02688 0.10091 0.0
C1809 C 0.01679 0.99906 0.0909 0.0
N1810 N 0.02728 0.03791 0.10696 0.0
N1811 N 0.98795 0.98484 0.08807 0.0
H1812 H 0.03974 0.98654 0.08421 0.0
H1813 H 0.01922 0.97832 0.07987 0.0
H1814 H 0.97386 0.9844 0.08799 0.0
H1815 H 0.99385 0.97312 0.08592 0.0
H1816 H 0.02155 0.04726 0.11186 0.0
H1817 H 0.04137 0.03764 0.10734 0.0
H1818 H 0.99529 0.05225 0.10732 0.0
H1819 H 0.97497 0.0415 0.10504 0.0
C1820 C 0.51913 0.03047 0.43242 0.0
C1821 C 0.52915 0.01598 0.4287 0.0
C1822 C 0.50082 1.00112 0.42396 0.0
C1823 C 0.49085 0.01459 0.42888 0.0
N1824 N 0.48968 0.0429 0.43675 0.0
N1825 N 0.53 0.98746 0.42101 0.0
C1826 C 0.4998 0.02964 0.4327 0.0
C1827 C 0.5201 1.00143 0.42429 0.0
N1828 N 0.52826 0.04484 0.43582 0.0
N1829 N 0.49178 0.98798 0.41899 0.0
H1830 H 0.5441 0.98745 0.42078 0.0
H1831 H 0.52444 0.97555 0.41899 0.0
H1832 H 0.4777 0.98717 0.41883 0.0
H1833 H 0.498 0.9786 0.41434 0.0
H1834 H 0.52219 0.05617 0.43848 0.0
H1835 H 0.54234 0.04573 0.43559 0.0
H1836 H 0.49493 0.05396 0.44028 0.0
H1837 H 0.47557 0.04286 0.43657 0.0
C1838 C 0.01777 0.98964 0.92392 0.0
C1839 C 0.02691 1.00329 0.92924 0.0
C1840 C 0.99767 0.01687 0.93349 0.0
C1841 C 0.9885 1.00241 0.92907 0.0
N1842 N 0.98942 0.97457 0.92051 0.0
N1843 N 0.02574 0.02887 0.94019 0.0
C1844 C 0.99846 0.98869 0.92434 0.0
C1845 C 0.0169 0.01673 0.93422 0.0
N1846 N 0.02763 0.97772 0.91837 0.0
N1847 N 0.98796 0.03078 0.93705 0.0
H1848 H 0.03978 0.02948 0.94082 0.0
H1849 H 0.01922 0.03762 0.94516 0.0
H1850 H 0.97387 0.0311 0.93718 0.0
H1851 H 0.99378 0.04255 0.93916 0.0
H1852 H 0.02197 0.96825 0.91353 0.0
H1853 H 0.04173 0.97805 0.918 0.0
H1854 H 0.99571 0.96323 0.91803 0.0
H1855 H 0.97533 0.97389 0.92025 0.0
C1856 C 0.21627 0.56213 0.13661 0.0
C1857 C 0.22847 0.55379 0.14368 0.0
C1858 C 0.22006 0.5254 0.13623 0.0
C1859 C 0.20746 0.5337 0.12939 0.0
N1860 N 0.19261 0.55963 0.1233 0.0
N1861 N 0.24419 0.52811 0.14928 0.0
C1862 C 0.20551 0.55202 0.12954 0.0
C1863 C 0.23097 0.53556 0.14323 0.0
N1864 N 0.21523 0.57983 0.13656 0.0
N1865 N 0.22111 0.50771 0.13622 0.0
H1866 H 0.2521 0.53515 0.1546 0.0
H1867 H 0.24815 0.51523 0.14867 0.0
H1868 H 0.21405 0.50002 0.13082 0.0
H1869 H 0.22834 0.50051 0.14175 0.0
H1870 H 0.20843 0.58704 0.13085 0.0
H1871 H 0.22199 0.58766 0.14201 0.0
H1872 H 0.18881 0.57256 0.12379 0.0
H1873 H 0.18484 0.55281 0.11782 0.0
C1874 C 0.71741 0.92622 0.38775 0.0
C1875 C 0.7307 0.93412 0.38119 0.0
C1876 C 0.72265 0.96271 0.3885 0.0
C1877 C 0.70993 0.95468 0.39539 0.0
N1878 N 0.69686 0.9287 0.40268 0.0
N1879 N 0.74774 0.95935 0.37615 0.0
C1880 C 0.70788 0.93639 0.39535 0.0
C1881 C 0.73382 0.95224 0.38181 0.0
N1882 N 0.71344 0.90905 0.38642 0.0
N1883 N 0.7237 0.98037 0.38819 0.0
H1884 H 0.75583 0.95212 0.37102 0.0
H1885 H 0.75207 0.9721 0.37701 0.0
H1886 H 0.71636 0.98832 0.39332 0.0
H1887 H 0.73107 0.98723 0.38256 0.0
H1888 H 0.70252 0.90289 0.39 0.0
H1889 H 0.72024 0.90108 0.38107 0.0
H1890 H 0.6963 0.9154 0.40395 0.0
H1891 H 0.68915 0.93568 0.40813 0.0
C1892 C 0.29212 0.48334 0.63014 0.0
C1893 C 0.31121 0.48363 0.63135 0.0
C1894 C 0.30859 0.46557 0.64736 0.0
C1895 C 0.28976 0.46367 0.6455 0.0
N1896 N 0.26349 0.46987 0.63487 0.0
N1897 N 0.33797 0.47319 0.64022 0.0
C1898 C 0.28147 0.4724 0.63683 0.0
C1899 C 0.31952 0.47437 0.63978 0.0
N1900 N 0.28417 0.4938 0.62274 0.0
N1901 N 0.31609 0.45889 0.65638 0.0
H1902 H 0.34654 0.47929 0.63482 0.0
H1903 H 0.34485 0.46497 0.64537 0.0
H1904 H 0.30877 0.45174 0.66192 0.0
H1905 H 0.32922 0.46162 0.65884 0.0
H1906 H 0.27027 0.49559 0.62212 0.0
H1907 H 0.29161 0.50175 0.61767 0.0
H1908 H 0.257 0.47403 0.62801 0.0
H1909 H 0.25514 0.4628 0.63995 0.0
C1910 C 0.80972 0.05555 0.88411 0.0
C1911 C 0.80921 0.05875 0.8952 0.0
C1912 C 0.78521 0.08028 0.89222 0.0
C1913 C 0.78837 0.0795 0.88112 0.0
N1914 N 0.80455 0.06685 0.86643 0.0
N1915 N 0.797 0.07504 0.90986 0.0
C1916 C 0.80068 0.06706 0.87702 0.0
C1917 C 0.79689 0.07118 0.8993 0.0
N1918 N 0.81877 0.04138 0.88038 0.0
N1919 N 0.7709 0.08964 0.89597 0.0
H1920 H 0.80524 0.06868 0.91532 0.0
H1921 H 0.78989 0.08541 0.9131 0.0
H1922 H 0.76202 0.09625 0.89097 0.0
H1923 H 0.7668 0.08942 0.90387 0.0
H1924 H 0.81825 0.03736 0.87251 0.0
H1925 H 0.82532 0.03265 0.8854 0.0
H1926 H 0.81495 0.05949 0.86316 0.0
H1927 H 0.79823 0.07498 0.86097 0.0
C1928 C 0.20574 0.48304 0.88172 0.0
C1929 C 0.20954 0.48469 0.89271 0.0
C1930 C 0.2368 0.46693 0.88984 0.0
C1931 C 0.22983 0.46147 0.87985 0.0
N1932 N 0.20666 0.46441 0.86641 0.0
N1933 N 0.23633 0.4896 0.90308 0.0
C1934 C 0.21416 0.46972 0.87575 0.0
C1935 C 0.22728 0.47976 0.89584 0.0
N1936 N 0.19593 0.49554 0.87669 0.0
N1937 N 0.25257 0.46006 0.89356 0.0
H1938 H 0.23137 0.50166 0.90543 0.0
H1939 H 0.24978 0.48753 0.90518 0.0
H1940 H 0.26066 0.45178 0.88907 0.0
H1941 H 0.25714 0.462 0.90129 0.0
H1942 H 0.1941 0.49578 0.8685 0.0
H1943 H 0.19175 0.50673 0.88064 0.0
H1944 H 0.19421 0.46904 0.86375 0.0
H1945 H 0.21199 0.45439 0.86184 0.0
C1946 C 0.80583 0.92893 0.13906 0.0
C1947 C 0.79021 0.93617 0.1439 0.0
C1948 C 0.796 0.96389 0.13483 0.0
C1949 C 0.8112 0.9564 0.12968 0.0
N1950 N 0.82901 0.93119 0.12549 0.0
N1951 N 0.76884 0.95954 0.14543 0.0
C1952 C 0.81561 0.93872 0.13139 0.0
C1953 C 0.78482 0.95339 0.14149 0.0
N1954 N 0.8116 0.9128 0.14202 0.0
N1955 N 0.79255 0.98115 0.13355 0.0
H1956 H 0.76069 0.95236 0.15056 0.0
H1957 H 0.76306 0.97124 0.14314 0.0
H1958 H 0.80004 0.98898 0.12843 0.0
H1959 H 0.78298 0.98796 0.13793 0.0
H1960 H 0.82397 0.90754 0.13979 0.0
H1961 H 0.8046 0.90501 0.14739 0.0
H1962 H 0.83161 0.91795 0.12543 0.0
H1963 H 0.83672 0.93798 0.11996 0.0
C1964 C 0.28866 0.53729 0.37841 0.0
C1965 C 0.28463 0.55455 0.38163 0.0
C1966 C 0.30182 0.54975 0.39798 0.0
C1967 C 0.30886 0.53415 0.39379 0.0
N1968 N 0.30866 0.51246 0.38004 0.0
N1969 N 0.27569 0.56816 0.398 0.0
C1970 C 0.30214 0.52767 0.38401 0.0
C1971 C 0.2878 0.55836 0.39248 0.0
N1972 N 0.27736 0.52899 0.37155 0.0
N1973 N 0.30862 0.55663 0.40712 0.0
H1974 H 0.26359 0.57231 0.39456 0.0
H1975 H 0.27653 0.57005 0.40617 0.0
H1976 H 0.31878 0.5507 0.41156 0.0
H1977 H 0.305 0.56894 0.40978 0.0
H1978 H 0.27873 0.51598 0.36952 0.0
H1979 H 0.26487 0.53429 0.36949 0.0
H1980 H 0.30558 0.50805 0.37244 0.0
H1981 H 0.31806 0.50487 0.38411 0.0
C1982 C 0.72411 0.06537 0.62693 0.0
C1983 C 0.70814 0.05709 0.63059 0.0
C1984 C 0.71329 0.06883 0.64845 0.0
C1985 C 0.72942 0.07692 0.64485 0.0
N1986 N 0.7526 0.07913 0.63152 0.0
N1987 N 0.69058 0.04675 0.64537 0.0
C1988 C 0.73562 0.07391 0.63435 0.0
C1989 C 0.70379 0.05744 0.64155 0.0
N1990 N 0.72782 0.06584 0.61633 0.0
N1991 N 0.70635 0.07286 0.65818 0.0
H1992 H 0.68349 0.03814 0.64053 0.0
H1993 H 0.688 0.04515 0.65343 0.0
H1994 H 0.71269 0.08125 0.66347 0.0
H1995 H 0.69355 0.06896 0.66067 0.0
H1996 H 0.73807 0.07339 0.61305 0.0
H1997 H 0.71984 0.05958 0.61069 0.0
H1998 H 0.75859 0.07597 0.6243 0.0
H1999 H 0.76138 0.08521 0.63683 0.0
C2000 C 0.80248 0.47064 0.87664 0.0
C2001 C 0.78883 0.45947 0.88064 0.0
C2002 C 0.79638 0.46836 0.89885 0.0
C2003 C 0.81016 0.47938 0.89484 0.0
N2004 N 0.82234 0.49508 0.88 0.0
N2005 N 0.76914 0.45189 0.8951 0.0
C2006 C 0.81182 0.48188 0.88374 0.0
C2007 C 0.78457 0.45977 0.89162 0.0
N2008 N 0.80734 0.46981 0.8662 0.0
N2009 N 0.79521 0.46527 0.90948 0.0
H2010 H 0.76015 0.44572 0.88996 0.0
H2011 H 0.76435 0.45299 0.90284 0.0
H2012 H 0.8035 0.47134 0.91503 0.0
H2013 H 0.78686 0.45579 0.91274 0.0
H2014 H 0.81862 0.47614 0.86313 0.0
H2015 H 0.8009 0.46179 0.86074 0.0
H2016 H 0.82281 0.49864 0.87204 0.0
H2017 H 0.82916 0.5036 0.88503 0.0
C2018 C 0.30318 0.06904 0.64834 0.0
C2019 C 0.29116 0.0818 0.64432 0.0
C2020 C 0.29986 0.07395 0.62609 0.0
C2021 C 0.31192 0.06121 0.63011 0.0
N2022 N 0.32083 0.04316 0.64476 0.0
N2023 N 0.27408 0.09263 0.62949 0.0
C2024 C 0.31213 0.05762 0.64116 0.0
C2025 C 0.28819 0.08296 0.63321 0.0
N2026 N 0.30689 0.06843 0.65894 0.0
N2027 N 0.30025 0.07819 0.61558 0.0
H2028 H 0.2652 0.09917 0.63452 0.0
H2029 H 0.2701 0.09271 0.62157 0.0
H2030 H 0.30852 0.07191 0.6101 0.0
H2031 H 0.29334 0.08875 0.61243 0.0
H2032 H 0.31711 0.0608 0.66217 0.0
H2033 H 0.30064 0.0765 0.66446 0.0
H2034 H 0.32006 0.03888 0.65258 0.0
H2035 H 0.32729 0.03448 0.63967 0.0
C2036 C 0.71115 0.54772 0.37612 0.0
C2037 C 0.72639 0.55645 0.38038 0.0
C2038 C 0.72341 0.53869 0.39659 0.0
C2039 C 0.706 0.5332 0.39315 0.0
N2040 N 0.69433 0.52109 0.37695 0.0
N2041 N 0.74859 0.55859 0.39436 0.0
C2042 C 0.70291 0.53429 0.38207 0.0
C2043 C 0.73304 0.5514 0.39053 0.0
N2044 N 0.7039 0.55256 0.36663 0.0
N2045 N 0.73207 0.52953 0.4043 0.0
H2046 H 0.75679 0.56673 0.38983 0.0
H2047 H 0.75289 0.55702 0.40217 0.0
H2048 H 0.72697 0.51774 0.40703 0.0
H2049 H 0.74535 0.5319 0.40665 0.0
H2050 H 0.69178 0.5474 0.36381 0.0
H2051 H 0.70904 0.56269 0.36207 0.0
H2052 H 0.69313 0.52056 0.36871 0.0
H2053 H 0.6907 0.50973 0.3809 0.0
C2054 C 0.21593 0.93977 0.12549 0.0
C2055 C 0.20569 0.9537 0.12971 0.0
C2056 C 0.22289 0.95087 0.14641 0.0
C2057 C 0.22964 0.93457 0.14296 0.0
N2058 N 0.24392 0.92399 0.12708 0.0
N2059 N 0.2008 0.97381 0.14409 0.0
C2060 C 0.22957 0.93194 0.13181 0.0
C2061 C 0.20961 0.95967 0.14015 0.0
N2062 N 0.21229 0.93342 0.11562 0.0
N2063 N 0.23159 0.95946 0.15435 0.0
H2064 H 0.19208 0.98137 0.13952 0.0
H2065 H 0.20156 0.97749 0.15202 0.0
H2066 H 0.24409 0.95521 0.15717 0.0
H2067 H 0.22829 0.97199 0.15672 0.0
H2068 H 0.2183 0.92214 0.11274 0.0
H2069 H 0.20226 0.93851 0.11072 0.0
H2070 H 0.24536 0.9231 0.11887 0.0
H2071 H 0.2554 0.92047 0.1314 0.0
C2072 C 0.81331 0.55435 0.12887 0.0
C2073 C 0.81322 0.53597 0.12958 0.0
C2074 C 0.79166 0.53751 0.1445 0.0
C2075 C 0.79231 0.55587 0.14399 0.0
N2076 N 0.8008 0.58185 0.13462 0.0
N2077 N 0.80246 0.50977 0.13775 0.0
C2078 C 0.80222 0.56428 0.13582 0.0
C2079 C 0.80226 0.52747 0.13726 0.0
N2080 N 0.82494 0.56236 0.12199 0.0
N2081 N 0.78051 0.52979 0.15176 0.0
H2082 H 0.80924 0.50214 0.1322 0.0
H2083 H 0.79628 0.50247 0.14365 0.0
H2084 H 0.77274 0.53683 0.15715 0.0
H2085 H 0.7782 0.51654 0.15226 0.0
H2086 H 0.82751 0.5756 0.12199 0.0
H2087 H 0.83307 0.55568 0.11663 0.0
H2088 H 0.80559 0.58858 0.12805 0.0
H2089 H 0.79371 0.58976 0.13987 0.0
C2090 C 0.21762 0.05552 0.88878 0.0
C2091 C 0.20543 0.06366 0.89596 0.0
C2092 C 0.21469 0.0923 0.8892 0.0
C2093 C 0.22623 0.08417 0.88169 0.0
N2094 N 0.24072 0.05849 0.87506 0.0
N2095 N 0.19088 0.08957 0.90235 0.0
C2096 C 0.22823 0.06586 0.88167 0.0
C2097 C 0.20377 0.08201 0.89609 0.0
N2098 N 0.21861 0.03783 0.88861 0.0
N2099 N 0.21444 0.10999 0.88989 0.0
H2100 H 0.18281 0.08266 0.90764 0.0
H2101 H 0.18721 0.10255 0.90188 0.0
H2102 H 0.2213 0.11806 0.88462 0.0
H2103 H 0.2084 0.1168 0.89606 0.0
H2104 H 0.22566 0.03069 0.88298 0.0
H2105 H 0.21182 0.03004 0.89407 0.0
H2106 H 0.24419 0.04545 0.8751 0.0
H2107 H 0.24843 0.06571 0.86972 0.0
C2108 C 0.72069 0.45262 0.63346 0.0
C2109 C 0.72718 0.46008 0.64304 0.0
C2110 C 0.71353 0.48805 0.6381 0.0
C2111 C 0.7055 0.48008 0.62907 0.0
N2112 N 0.70036 0.45462 0.61842 0.0
N2113 N 0.73271 0.48524 0.65376 0.0
C2114 C 0.70911 0.46242 0.6267 0.0
C2115 C 0.72445 0.47796 0.64514 0.0
N2116 N 0.72565 0.43612 0.6308 0.0
N2117 N 0.71023 0.50521 0.64 0.0
H2118 H 0.74097 0.47819 0.6589 0.0
H2119 H 0.73223 0.49831 0.6557 0.0
H2120 H 0.70323 0.51307 0.63467 0.0
H2121 H 0.71417 0.51182 0.64679 0.0
H2122 H 0.72359 0.43075 0.62333 0.0
H2123 H 0.73302 0.42803 0.63581 0.0
H2124 H 0.70041 0.44133 0.61706 0.0
H2125 H 0.69192 0.46125 0.6132 0.0
C2126 C 0.3067 0.94198 0.37656 0.0
C2127 C 0.29134 0.93325 0.38068 0.0
C2128 C 0.2937 0.95121 0.39683 0.0
C2129 C 0.31125 0.95667 0.39364 0.0
N2130 N 0.32439 0.96813 0.37765 0.0
N2131 N 0.26897 0.93086 0.39456 0.0
C2132 C 0.31493 0.95533 0.38261 0.0
C2133 C 0.28445 0.93826 0.39078 0.0
N2134 N 0.31408 0.93713 0.3671 0.0
N2135 N 0.28447 0.96068 0.40416 0.0
H2136 H 0.26105 0.92244 0.39005 0.0
H2137 H 0.26453 0.9325 0.40233 0.0
H2138 H 0.28907 0.97285 0.40654 0.0
H2139 H 0.27111 0.95821 0.40631 0.0
H2140 H 0.32636 0.94209 0.36439 0.0
H2141 H 0.30885 0.92717 0.36244 0.0
H2142 H 0.32608 0.96862 0.36945 0.0
H2143 H 0.32839 0.97932 0.38167 0.0
loop_
_geom_bond_atom_site_label_1
_geom_bond_atom_site_label_2
_geom_bond_distance
_geom_bond_site_symmetry_2
_ccdc_geom_bond_type
C0 C1 1.264 . S
C0 C5 1.479 . S
C0 C10 1.465 . S
C1 C0 1.264 . S
C1 C3 1.339 . S
C1 H28 0.931 . S
C2 C3 1.395 . S
C2 C4 1.320 . S
C3 C1 1.339 . S
C3 C2 1.395 . S
C3 H29 0.929 . S
C4 C2 1.320 . S
C4 C5 1.405 . S
C4 H30 0.930 . S
C5 C0 1.479 . S
C5 C4 1.405 . S
C5 H31 0.931 . S
U6 O7 2.454 . S
U6 O8 2.458 . S
U6 C9 2.984 . S
U6 C10 2.847 . S
U6 C23 2.882 . S
U6 O24 2.441 . S
U6 O25 2.420 . S
U6 O26 2.455 . S
U6 O27 2.449 . S
O7 U6 2.454 . S
O7 C9 1.353 . S
O8 U6 2.458 . S
O8 C9 1.286 . S
C9 U6 2.984 . S
C9 O7 1.353 . S
C9 O8 1.286 . S
C9 C11 1.363 . S
C10 C0 1.465 . S
C10 U6 2.847 . S
C10 O24 1.249 . S
C10 O25 1.202 . S
C11 C9 1.363 . S
C11 C13 1.408 . S
C11 C16 1.342 . S
C12 C13 1.310 . S
C12 C15 1.461 . S
C12 H32 0.932 . S
C13 C11 1.408 . S
C13 C12 1.310 . S
C13 H33 0.930 . S
C14 C15 1.474 . S
C14 C16 1.285 . S
C14 H34 0.929 . S
C15 C12 1.461 . S
C15 C14 1.474 . S
C16 C11 1.342 . S
C16 C14 1.285 . S
C16 H35 0.930 . S
C17 C20 1.424 . S
C17 C22 1.245 . S
C17 C23 1.428 . S
C18 C21 1.260 . S
C18 C22 1.477 . S
C18 H36 0.932 . S
C19 C20 1.384 . S
C19 C21 1.479 . S
C19 H37 0.929 . S
C20 C17 1.424 . S
C20 C19 1.384 . S
C20 H38 0.928 . S
C21 C18 1.260 . S
C21 C19 1.479 . S
C22 C17 1.245 . S
C22 C18 1.477 . S
C22 H39 0.932 . S
C23 U6 2.882 . S
C23 C17 1.428 . S
C23 O26 1.301 . S
C23 O27 1.282 . S
O24 U6 2.441 . S
O24 C10 1.249 . S
O25 U6 2.420 . S
O25 C10 1.202 . S
O26 U6 2.455 . S
O26 C23 1.301 . S
O27 U6 2.449 . S
O27 C23 1.282 . S
H28 C1 0.931 . S
H29 C3 0.929 . S
H30 C4 0.930 . S
H31 C5 0.931 . S
H32 C12 0.932 . S
H33 C13 0.930 . S
H34 C14 0.929 . S
H35 C16 0.930 . S
H36 C18 0.932 . S
H37 C19 0.929 . S
H38 C20 0.928 . S
H39 C22 0.932 . S
C40 C41 1.264 . S
C40 C45 1.479 . S
C40 C50 1.465 . S
C41 C40 1.264 . S
C41 C43 1.339 . S
C41 H68 0.931 . S
C42 C43 1.395 . S
C42 C44 1.320 . S
C43 C41 1.339 . S
C43 C42 1.395 . S
C43 H69 0.929 . S
C44 C42 1.320 . S
C44 C45 1.405 . S
C44 H70 0.930 . S
C45 C40 1.479 . S
C45 C44 1.405 . S
C45 H71 0.931 . S
U46 O47 2.454 . S
U46 O48 2.458 . S
U46 C49 2.984 . S
U46 C50 2.847 . S
U46 C63 2.882 . S
U46 O64 2.441 . S
U46 O65 2.420 . S
U46 O66 2.455 . S
U46 O67 2.449 . S
O47 U46 2.454 . S
O47 C49 1.353 . S
O48 U46 2.458 . S
O48 C49 1.286 . S
C49 U46 2.984 . S
C49 O47 1.353 . S
C49 O48 1.286 . S
C49 C51 1.363 . S
C50 C40 1.465 . S
C50 U46 2.847 . S
C50 O64 1.249 . S
C50 O65 1.202 . S
C51 C49 1.363 . S
C51 C53 1.408 . S
C51 C56 1.342 . S
C52 C53 1.310 . S
C52 C55 1.461 . S
C52 H72 0.932 . S
C53 C51 1.408 . S
C53 C52 1.310 . S
C53 H73 0.930 . S
C54 C55 1.474 . S
C54 C56 1.285 . S
C54 H74 0.929 . S
C55 C52 1.461 . S
C55 C54 1.474 . S
C56 C51 1.342 . S
C56 C54 1.285 . S
C56 H75 0.930 . S
C57 C60 1.424 . S
C57 C62 1.245 . S
C57 C63 1.428 . S
C58 C61 1.260 . S
C58 C62 1.477 . S
C58 H76 0.932 . S
C59 C60 1.384 . S
C59 C61 1.479 . S
C59 H77 0.929 . S
C60 C57 1.424 . S
C60 C59 1.384 . S
C60 H78 0.928 . S
C61 C58 1.260 . S
C61 C59 1.479 . S
C62 C57 1.245 . S
C62 C58 1.477 . S
C62 H79 0.932 . S
C63 U46 2.882 . S
C63 C57 1.428 . S
C63 O66 1.301 . S
C63 O67 1.282 . S
O64 U46 2.441 . S
O64 C50 1.249 . S
O65 U46 2.420 . S
O65 C50 1.202 . S
O66 U46 2.455 . S
O66 C63 1.301 . S
O67 U46 2.449 . S
O67 C63 1.282 . S
H68 C41 0.931 . S
H69 C43 0.929 . S
H70 C44 0.930 . S
H71 C45 0.931 . S
H72 C52 0.932 . S
H73 C53 0.930 . S
H74 C54 0.929 . S
H75 C56 0.930 . S
H76 C58 0.932 . S
H77 C59 0.929 . S
H78 C60 0.928 . S
H79 C62 0.932 . S
C80 C81 1.264 . S
C80 C85 1.479 . S
C80 C90 1.465 . S
C81 C80 1.264 . S
C81 C83 1.339 . S
C81 H108 0.931 . S
C82 C83 1.395 . S
C82 C84 1.320 . S
C83 C81 1.339 . S
C83 C82 1.395 . S
C83 H109 0.929 . S
C84 C82 1.320 . S
C84 C85 1.405 . S
C84 H110 0.930 . S
C85 C80 1.479 . S
C85 C84 1.405 . S
C85 H111 0.931 . S
U86 O87 2.454 . S
U86 O88 2.458 . S
U86 C89 2.984 . S
U86 C90 2.847 . S
U86 C103 2.882 . S
U86 O104 2.441 . S
U86 O105 2.420 . S
U86 O106 2.455 . S
U86 O107 2.449 . S
O87 U86 2.454 . S
O87 C89 1.353 . S
O88 U86 2.458 . S
O88 C89 1.286 . S
C89 U86 2.984 . S
C89 O87 1.353 . S
C89 O88 1.286 . S
C89 C91 1.363 . S
C90 C80 1.465 . S
C90 U86 2.847 . S
C90 O104 1.249 . S
C90 O105 1.202 . S
C91 C89 1.363 . S
C91 C93 1.408 . S
C91 C96 1.342 . S
C92 C93 1.310 . S
C92 C95 1.461 . S
C92 H112 0.932 . S
C93 C91 1.408 . S
C93 C92 1.310 . S
C93 H113 0.930 . S
C94 C95 1.474 . S
C94 C96 1.285 . S
C94 H114 0.929 . S
C95 C92 1.461 . S
C95 C94 1.474 . S
C96 C91 1.342 . S
C96 C94 1.285 . S
C96 H115 0.930 . S
C97 C100 1.424 . S
C97 C102 1.245 . S
C97 C103 1.428 . S
C98 C101 1.260 . S
C98 C102 1.477 . S
C98 H116 0.932 . S
C99 C100 1.384 . S
C99 C101 1.479 . S
C99 H117 0.929 . S
C100 C97 1.424 . S
C100 C99 1.384 . S
C100 H118 0.928 . S
C101 C98 1.260 . S
C101 C99 1.479 . S
C102 C97 1.245 . S
C102 C98 1.477 . S
C102 H119 0.932 . S
C103 U86 2.882 . S
C103 C97 1.428 . S
C103 O106 1.301 . S
C103 O107 1.282 . S
O104 U86 2.441 . S
O104 C90 1.249 . S
O105 U86 2.420 . S
O105 C90 1.202 . S
O106 U86 2.455 . S
O106 C103 1.301 . S
O107 U86 2.449 . S
O107 C103 1.282 . S
H108 C81 0.931 . S
H109 C83 0.929 . S
H110 C84 0.930 . S
H111 C85 0.931 . S
H112 C92 0.932 . S
H113 C93 0.930 . S
H114 C94 0.929 . S
H115 C96 0.930 . S
H116 C98 0.932 . S
H117 C99 0.929 . S
H118 C100 0.928 . S
H119 C102 0.932 . S
C120 C121 1.264 . S
C120 C125 1.479 . S
C120 C130 1.465 . S
C121 C120 1.264 . S
C121 C123 1.339 . S
C121 H148 0.931 . S
C122 C123 1.395 . S
C122 C124 1.320 . S
C123 C121 1.339 . S
C123 C122 1.395 . S
C123 H149 0.929 . S
C124 C122 1.320 . S
C124 C125 1.405 . S
C124 H150 0.930 . S
C125 C120 1.479 . S
C125 C124 1.405 . S
C125 H151 0.931 . S
U126 O127 2.454 . S
U126 O128 2.458 . S
U126 C129 2.984 . S
U126 C130 2.847 . S
U126 C143 2.882 . S
U126 O144 2.441 . S
U126 O145 2.420 . S
U126 O146 2.455 . S
U126 O147 2.449 . S
O127 U126 2.454 . S
O127 C129 1.353 . S
O128 U126 2.458 . S
O128 C129 1.286 . S
C129 U126 2.984 . S
C129 O127 1.353 . S
C129 O128 1.286 . S
C129 C131 1.363 . S
C130 C120 1.465 . S
C130 U126 2.847 . S
C130 O144 1.249 . S
C130 O145 1.202 . S
C131 C129 1.363 . S
C131 C133 1.408 . S
C131 C136 1.342 . S
C132 C133 1.310 . S
C132 C135 1.461 . S
C132 H152 0.932 . S
C133 C131 1.408 . S
C133 C132 1.310 . S
C133 H153 0.930 . S
C134 C135 1.474 . S
C134 C136 1.285 . S
C134 H154 0.929 . S
C135 C132 1.461 . S
C135 C134 1.474 . S
C136 C131 1.342 . S
C136 C134 1.285 . S
C136 H155 0.930 . S
C137 C140 1.424 . S
C137 C142 1.245 . S
C137 C143 1.428 . S
C138 C141 1.260 . S
C138 C142 1.477 . S
C138 H156 0.932 . S
C139 C140 1.384 . S
C139 C141 1.479 . S
C139 H157 0.929 . S
C140 C137 1.424 . S
C140 C139 1.384 . S
C140 H158 0.928 . S
C141 C138 1.260 . S
C141 C139 1.479 . S
C142 C137 1.245 . S
C142 C138 1.477 . S
C142 H159 0.932 . S
C143 U126 2.882 . S
C143 C137 1.428 . S
C143 O146 1.301 . S
C143 O147 1.282 . S
O144 U126 2.441 . S
O144 C130 1.249 . S
O145 U126 2.420 . S
O145 C130 1.202 . S
O146 U126 2.455 . S
O146 C143 1.301 . S
O147 U126 2.449 . S
O147 C143 1.282 . S
H148 C121 0.931 . S
H149 C123 0.929 . S
H150 C124 0.930 . S
H151 C125 0.931 . S
H152 C132 0.932 . S
H153 C133 0.930 . S
H154 C134 0.929 . S
H155 C136 0.930 . S
H156 C138 0.932 . S
H157 C139 0.929 . S
H158 C140 0.928 . S
H159 C142 0.932 . S
C160 C161 1.264 . S
C160 C165 1.479 . S
C160 C170 1.465 . S
C161 C160 1.264 . S
C161 C163 1.339 . S
C161 H188 0.931 . S
C162 C163 1.395 . S
C162 C164 1.320 . S
C163 C161 1.339 . S
C163 C162 1.395 . S
C163 H189 0.929 . S
C164 C162 1.320 . S
C164 C165 1.405 . S
C164 H190 0.930 . S
C165 C160 1.479 . S
C165 C164 1.405 . S
C165 H191 0.931 . S
U166 O167 2.454 . S
U166 O168 2.458 . S
U166 C169 2.984 . S
U166 C170 2.847 . S
U166 C183 2.882 . S
U166 O184 2.441 . S
U166 O185 2.420 . S
U166 O186 2.455 . S
U166 O187 2.449 . S
O167 U166 2.454 . S
O167 C169 1.353 . S
O168 U166 2.458 . S
O168 C169 1.286 . S
C169 U166 2.984 . S
C169 O167 1.353 . S
C169 O168 1.286 . S
C169 C171 1.363 . S
C170 C160 1.465 . S
C170 U166 2.847 . S
C170 O184 1.249 . S
C170 O185 1.202 . S
C171 C169 1.363 . S
C171 C173 1.408 . S
C171 C176 1.342 . S
C172 C173 1.310 . S
C172 C175 1.461 . S
C172 H192 0.932 . S
C173 C171 1.408 . S
C173 C172 1.310 . S
C173 H193 0.930 . S
C174 C175 1.474 . S
C174 C176 1.285 . S
C174 H194 0.929 . S
C175 C172 1.461 . S
C175 C174 1.474 . S
C176 C171 1.342 . S
C176 C174 1.285 . S
C176 H195 0.930 . S
C177 C180 1.424 . S
C177 C182 1.245 . S
C177 C183 1.428 . S
C178 C181 1.260 . S
C178 C182 1.477 . S
C178 H196 0.932 . S
C179 C180 1.384 . S
C179 C181 1.479 . S
C179 H197 0.929 . S
C180 C177 1.424 . S
C180 C179 1.384 . S
C180 H198 0.928 . S
C181 C178 1.260 . S
C181 C179 1.479 . S
C182 C177 1.245 . S
C182 C178 1.477 . S
C182 H199 0.932 . S
C183 U166 2.882 . S
C183 C177 1.428 . S
C183 O186 1.301 . S
C183 O187 1.282 . S
O184 U166 2.441 . S
O184 C170 1.249 . S
O185 U166 2.420 . S
O185 C170 1.202 . S
O186 U166 2.455 . S
O186 C183 1.301 . S
O187 U166 2.449 . S
O187 C183 1.282 . S
H188 C161 0.931 . S
H189 C163 0.929 . S
H190 C164 0.930 . S
H191 C165 0.931 . S
H192 C172 0.932 . S
H193 C173 0.930 . S
H194 C174 0.929 . S
H195 C176 0.930 . S
H196 C178 0.932 . S
H197 C179 0.929 . S
H198 C180 0.928 . S
H199 C182 0.932 . S
C200 C201 1.264 . S
C200 C205 1.479 . S
C200 C210 1.465 . S
C201 C200 1.264 . S
C201 C203 1.339 . S
C201 H228 0.931 . S
C202 C203 1.395 . S
C202 C204 1.320 . S
C203 C201 1.339 . S
C203 C202 1.395 . S
C203 H229 0.929 . S
C204 C202 1.320 . S
C204 C205 1.405 . S
C204 H230 0.930 . S
C205 C200 1.479 . S
C205 C204 1.405 . S
C205 H231 0.931 . S
U206 O207 2.454 . S
U206 O208 2.458 . S
U206 C209 2.984 . S
U206 C210 2.847 . S
U206 C223 2.882 . S
U206 O224 2.441 . S
U206 O225 2.420 . S
U206 O226 2.455 . S
U206 O227 2.449 . S
O207 U206 2.454 . S
O207 C209 1.353 . S
O208 U206 2.458 . S
O208 C209 1.286 . S
C209 U206 2.984 . S
C209 O207 1.353 . S
C209 O208 1.286 . S
C209 C211 1.363 . S
C210 C200 1.465 . S
C210 U206 2.847 . S
C210 O224 1.249 . S
C210 O225 1.202 . S
C211 C209 1.363 . S
C211 C213 1.408 . S
C211 C216 1.342 . S
C212 C213 1.310 . S
C212 C215 1.461 . S
C212 H232 0.932 . S
C213 C211 1.408 . S
C213 C212 1.310 . S
C213 H233 0.930 . S
C214 C215 1.474 . S
C214 C216 1.285 . S
C214 H234 0.929 . S
C215 C212 1.461 . S
C215 C214 1.474 . S
C216 C211 1.342 . S
C216 C214 1.285 . S
C216 H235 0.930 . S
C217 C220 1.424 . S
C217 C222 1.245 . S
C217 C223 1.428 . S
C218 C221 1.260 . S
C218 C222 1.477 . S
C218 H236 0.932 . S
C219 C220 1.384 . S
C219 C221 1.479 . S
C219 H237 0.929 . S
C220 C217 1.424 . S
C220 C219 1.384 . S
C220 H238 0.928 . S
C221 C218 1.260 . S
C221 C219 1.479 . S
C222 C217 1.245 . S
C222 C218 1.477 . S
C222 H239 0.932 . S
C223 U206 2.882 . S
C223 C217 1.428 . S
C223 O226 1.301 . S
C223 O227 1.282 . S
O224 U206 2.441 . S
O224 C210 1.249 . S
O225 U206 2.420 . S
O225 C210 1.202 . S
O226 U206 2.455 . S
O226 C223 1.301 . S
O227 U206 2.449 . S
O227 C223 1.282 . S
H228 C201 0.931 . S
H229 C203 0.929 . S
H230 C204 0.930 . S
H231 C205 0.931 . S
H232 C212 0.932 . S
H233 C213 0.930 . S
H234 C214 0.929 . S
H235 C216 0.930 . S
H236 C218 0.932 . S
H237 C219 0.929 . S
H238 C220 0.928 . S
H239 C222 0.932 . S
C240 C241 1.264 . S
C240 C245 1.479 . S
C240 C250 1.465 . S
C241 C240 1.264 . S
C241 C243 1.339 . S
C241 H268 0.931 . S
C242 C243 1.395 . S
C242 C244 1.320 . S
C243 C241 1.339 . S
C243 C242 1.395 . S
C243 H269 0.929 . S
C244 C242 1.320 . S
C244 C245 1.405 . S
C244 H270 0.930 . S
C245 C240 1.479 . S
C245 C244 1.405 . S
C245 H271 0.931 . S
U246 O247 2.454 . S
U246 O248 2.458 . S
U246 C249 2.984 . S
U246 C250 2.847 . S
U246 C263 2.882 . S
U246 O264 2.441 . S
U246 O265 2.420 . S
U246 O266 2.455 . S
U246 O267 2.449 . S
O247 U246 2.454 . S
O247 C249 1.353 . S
O248 U246 2.458 . S
O248 C249 1.286 . S
C249 U246 2.984 . S
C249 O247 1.353 . S
C249 O248 1.286 . S
C249 C251 1.363 . S
C250 C240 1.465 . S
C250 U246 2.847 . S
C250 O264 1.249 . S
C250 O265 1.202 . S
C251 C249 1.363 . S
C251 C253 1.408 . S
C251 C256 1.342 . S
C252 C253 1.310 . S
C252 C255 1.461 . S
C252 H272 0.932 . S
C253 C251 1.408 . S
C253 C252 1.310 . S
C253 H273 0.930 . S
C254 C255 1.474 . S
C254 C256 1.285 . S
C254 H274 0.929 . S
C255 C252 1.461 . S
C255 C254 1.474 . S
C256 C251 1.342 . S
C256 C254 1.285 . S
C256 H275 0.930 . S
C257 C260 1.424 . S
C257 C262 1.245 . S
C257 C263 1.428 . S
C258 C261 1.260 . S
C258 C262 1.477 . S
C258 H276 0.932 . S
C259 C260 1.384 . S
C259 C261 1.479 . S
C259 H277 0.929 . S
C260 C257 1.424 . S
C260 C259 1.384 . S
C260 H278 0.928 . S
C261 C258 1.260 . S
C261 C259 1.479 . S
C262 C257 1.245 . S
C262 C258 1.477 . S
C262 H279 0.932 . S
C263 U246 2.882 . S
C263 C257 1.428 . S
C263 O266 1.301 . S
C263 O267 1.282 . S
O264 U246 2.441 . S
O264 C250 1.249 . S
O265 U246 2.420 . S
O265 C250 1.202 . S
O266 U246 2.455 . S
O266 C263 1.301 . S
O267 U246 2.449 . S
O267 C263 1.282 . S
H268 C241 0.931 . S
H269 C243 0.929 . S
H270 C244 0.930 . S
H271 C245 0.931 . S
H272 C252 0.932 . S
H273 C253 0.930 . S
H274 C254 0.929 . S
H275 C256 0.930 . S
H276 C258 0.932 . S
H277 C259 0.929 . S
H278 C260 0.928 . S
H279 C262 0.932 . S
C280 C281 1.264 . S
C280 C285 1.479 . S
C280 C290 1.465 . S
C281 C280 1.264 . S
C281 C283 1.339 . S
C281 H308 0.931 . S
C282 C283 1.395 . S
C282 C284 1.320 . S
C283 C281 1.339 . S
C283 C282 1.395 . S
C283 H309 0.929 . S
C284 C282 1.320 . S
C284 C285 1.405 . S
C284 H310 0.930 . S
C285 C280 1.479 . S
C285 C284 1.405 . S
C285 H311 0.931 . S
U286 O287 2.454 . S
U286 O288 2.458 . S
U286 C289 2.984 . S
U286 C290 2.847 . S
U286 C303 2.882 . S
U286 O304 2.441 . S
U286 O305 2.420 . S
U286 O306 2.455 . S
U286 O307 2.449 . S
O287 U286 2.454 . S
O287 C289 1.353 . S
O288 U286 2.458 . S
O288 C289 1.286 . S
C289 U286 2.984 . S
C289 O287 1.353 . S
C289 O288 1.286 . S
C289 C291 1.363 . S
C290 C280 1.465 . S
C290 U286 2.847 . S
C290 O304 1.249 . S
C290 O305 1.202 . S
C291 C289 1.363 . S
C291 C293 1.408 . S
C291 C296 1.342 . S
C292 C293 1.310 . S
C292 C295 1.461 . S
C292 H312 0.932 . S
C293 C291 1.408 . S
C293 C292 1.310 . S
C293 H313 0.930 . S
C294 C295 1.474 . S
C294 C296 1.285 . S
C294 H314 0.929 . S
C295 C292 1.461 . S
C295 C294 1.474 . S
C296 C291 1.342 . S
C296 C294 1.285 . S
C296 H315 0.930 . S
C297 C300 1.424 . S
C297 C302 1.245 . S
C297 C303 1.428 . S
C298 C301 1.260 . S
C298 C302 1.477 . S
C298 H316 0.932 . S
C299 C300 1.384 . S
C299 C301 1.479 . S
C299 H317 0.929 . S
C300 C297 1.424 . S
C300 C299 1.384 . S
C300 H318 0.928 . S
C301 C298 1.260 . S
C301 C299 1.479 . S
C302 C297 1.245 . S
C302 C298 1.477 . S
C302 H319 0.932 . S
C303 U286 2.882 . S
C303 C297 1.428 . S
C303 O306 1.301 . S
C303 O307 1.282 . S
O304 U286 2.441 . S
O304 C290 1.249 . S
O305 U286 2.420 . S
O305 C290 1.202 . S
O306 U286 2.455 . S
O306 C303 1.301 . S
O307 U286 2.449 . S
O307 C303 1.282 . S
H308 C281 0.931 . S
H309 C283 0.929 . S
H310 C284 0.930 . S
H311 C285 0.931 . S
H312 C292 0.932 . S
H313 C293 0.930 . S
H314 C294 0.929 . S
H315 C296 0.930 . S
H316 C298 0.932 . S
H317 C299 0.929 . S
H318 C300 0.928 . S
H319 C302 0.932 . S
C320 C321 1.264 . S
C320 C325 1.479 . S
C320 C330 1.465 . S
C321 C320 1.264 . S
C321 C323 1.339 . S
C321 H348 0.931 . S
C322 C323 1.395 . S
C322 C324 1.320 . S
C323 C321 1.339 . S
C323 C322 1.395 . S
C323 H349 0.929 . S
C324 C322 1.320 . S
C324 C325 1.405 . S
C324 H350 0.930 . S
C325 C320 1.479 . S
C325 C324 1.405 . S
C325 H351 0.931 . S
U326 O327 2.454 . S
U326 O328 2.458 . S
U326 C329 2.984 . S
U326 C330 2.847 . S
U326 C343 2.882 . S
U326 O344 2.441 . S
U326 O345 2.420 . S
U326 O346 2.455 . S
U326 O347 2.449 . S
O327 U326 2.454 . S
O327 C329 1.353 . S
O328 U326 2.458 . S
O328 C329 1.286 . S
C329 U326 2.984 . S
C329 O327 1.353 . S
C329 O328 1.286 . S
C329 C331 1.363 . S
C330 C320 1.465 . S
C330 U326 2.847 . S
C330 O344 1.249 . S
C330 O345 1.202 . S
C331 C329 1.363 . S
C331 C333 1.408 . S
C331 C336 1.342 . S
C332 C333 1.310 . S
C332 C335 1.461 . S
C332 H352 0.932 . S
C333 C331 1.408 . S
C333 C332 1.310 . S
C333 H353 0.930 . S
C334 C335 1.474 . S
C334 C336 1.285 . S
C334 H354 0.929 . S
C335 C332 1.461 . S
C335 C334 1.474 . S
C336 C331 1.342 . S
C336 C334 1.285 . S
C336 H355 0.930 . S
C337 C340 1.424 . S
C337 C342 1.245 . S
C337 C343 1.428 . S
C338 C341 1.260 . S
C338 C342 1.477 . S
C338 H356 0.932 . S
C339 C340 1.384 . S
C339 C341 1.479 . S
C339 H357 0.929 . S
C340 C337 1.424 . S
C340 C339 1.384 . S
C340 H358 0.928 . S
C341 C338 1.260 . S
C341 C339 1.479 . S
C342 C337 1.245 . S
C342 C338 1.477 . S
C342 H359 0.932 . S
C343 U326 2.882 . S
C343 C337 1.428 . S
C343 O346 1.301 . S
C343 O347 1.282 . S
O344 U326 2.441 . S
O344 C330 1.249 . S
O345 U326 2.420 . S
O345 C330 1.202 . S
O346 U326 2.455 . S
O346 C343 1.301 . S
O347 U326 2.449 . S
O347 C343 1.282 . S
H348 C321 0.931 . S
H349 C323 0.929 . S
H350 C324 0.930 . S
H351 C325 0.931 . S
H352 C332 0.932 . S
H353 C333 0.930 . S
H354 C334 0.929 . S
H355 C336 0.930 . S
H356 C338 0.932 . S
H357 C339 0.929 . S
H358 C340 0.928 . S
H359 C342 0.932 . S
C360 C361 1.264 . S
C360 C365 1.479 . S
C360 C370 1.465 . S
C361 C360 1.264 . S
C361 C363 1.339 . S
C361 H388 0.931 . S
C362 C363 1.395 . S
C362 C364 1.320 . S
C363 C361 1.339 . S
C363 C362 1.395 . S
C363 H389 0.929 . S
C364 C362 1.320 . S
C364 C365 1.405 . S
C364 H390 0.930 . S
C365 C360 1.479 . S
C365 C364 1.405 . S
C365 H391 0.931 . S
U366 O367 2.454 . S
U366 O368 2.458 . S
U366 C369 2.984 . S
U366 C370 2.847 . S
U366 C383 2.882 . S
U366 O384 2.441 . S
U366 O385 2.420 . S
U366 O386 2.455 . S
U366 O387 2.449 . S
O367 U366 2.454 . S
O367 C369 1.353 . S
O368 U366 2.458 . S
O368 C369 1.286 . S
C369 U366 2.984 . S
C369 O367 1.353 . S
C369 O368 1.286 . S
C369 C371 1.363 . S
C370 C360 1.465 . S
C370 U366 2.847 . S
C370 O384 1.249 . S
C370 O385 1.202 . S
C371 C369 1.363 . S
C371 C373 1.408 . S
C371 C376 1.342 . S
C372 C373 1.310 . S
C372 C375 1.461 . S
C372 H392 0.932 . S
C373 C371 1.408 . S
C373 C372 1.310 . S
C373 H393 0.930 . S
C374 C375 1.474 . S
C374 C376 1.285 . S
C374 H394 0.929 . S
C375 C372 1.461 . S
C375 C374 1.474 . S
C376 C371 1.342 . S
C376 C374 1.285 . S
C376 H395 0.930 . S
C377 C380 1.424 . S
C377 C382 1.245 . S
C377 C383 1.428 . S
C378 C381 1.260 . S
C378 C382 1.477 . S
C378 H396 0.932 . S
C379 C380 1.384 . S
C379 C381 1.479 . S
C379 H397 0.929 . S
C380 C377 1.424 . S
C380 C379 1.384 . S
C380 H398 0.928 . S
C381 C378 1.260 . S
C381 C379 1.479 . S
C382 C377 1.245 . S
C382 C378 1.477 . S
C382 H399 0.932 . S
C383 U366 2.882 . S
C383 C377 1.428 . S
C383 O386 1.301 . S
C383 O387 1.282 . S
O384 U366 2.441 . S
O384 C370 1.249 . S
O385 U366 2.420 . S
O385 C370 1.202 . S
O386 U366 2.455 . S
O386 C383 1.301 . S
O387 U366 2.449 . S
O387 C383 1.282 . S
H388 C361 0.931 . S
H389 C363 0.929 . S
H390 C364 0.930 . S
H391 C365 0.931 . S
H392 C372 0.932 . S
H393 C373 0.930 . S
H394 C374 0.929 . S
H395 C376 0.930 . S
H396 C378 0.932 . S
H397 C379 0.929 . S
H398 C380 0.928 . S
H399 C382 0.932 . S
C400 C401 1.264 . S
C400 C405 1.479 . S
C400 C410 1.465 . S
C401 C400 1.264 . S
C401 C403 1.339 . S
C401 H428 0.931 . S
C402 C403 1.395 . S
C402 C404 1.320 . S
C403 C401 1.339 . S
C403 C402 1.395 . S
C403 H429 0.929 . S
C404 C402 1.320 . S
C404 C405 1.405 . S
C404 H430 0.930 . S
C405 C400 1.479 . S
C405 C404 1.405 . S
C405 H431 0.931 . S
U406 O407 2.454 . S
U406 O408 2.458 . S
U406 C409 2.984 . S
U406 C410 2.847 . S
U406 C423 2.882 . S
U406 O424 2.441 . S
U406 O425 2.420 . S
U406 O426 2.455 . S
U406 O427 2.449 . S
O407 U406 2.454 . S
O407 C409 1.353 . S
O408 U406 2.458 . S
O408 C409 1.286 . S
C409 U406 2.984 . S
C409 O407 1.353 . S
C409 O408 1.286 . S
C409 C411 1.363 . S
C410 C400 1.465 . S
C410 U406 2.847 . S
C410 O424 1.249 . S
C410 O425 1.202 . S
C411 C409 1.363 . S
C411 C413 1.408 . S
C411 C416 1.342 . S
C412 C413 1.310 . S
C412 C415 1.461 . S
C412 H432 0.932 . S
C413 C411 1.408 . S
C413 C412 1.310 . S
C413 H433 0.930 . S
C414 C415 1.474 . S
C414 C416 1.285 . S
C414 H434 0.929 . S
C415 C412 1.461 . S
C415 C414 1.474 . S
C416 C411 1.342 . S
C416 C414 1.285 . S
C416 H435 0.930 . S
C417 C420 1.424 . S
C417 C422 1.245 . S
C417 C423 1.428 . S
C418 C421 1.260 . S
C418 C422 1.477 . S
C418 H436 0.932 . S
C419 C420 1.384 . S
C419 C421 1.479 . S
C419 H437 0.929 . S
C420 C417 1.424 . S
C420 C419 1.384 . S
C420 H438 0.928 . S
C421 C418 1.260 . S
C421 C419 1.479 . S
C422 C417 1.245 . S
C422 C418 1.477 . S
C422 H439 0.932 . S
C423 U406 2.882 . S
C423 C417 1.428 . S
C423 O426 1.301 . S
C423 O427 1.282 . S
O424 U406 2.441 . S
O424 C410 1.249 . S
O425 U406 2.420 . S
O425 C410 1.202 . S
O426 U406 2.455 . S
O426 C423 1.301 . S
O427 U406 2.449 . S
O427 C423 1.282 . S
H428 C401 0.931 . S
H429 C403 0.929 . S
H430 C404 0.930 . S
H431 C405 0.931 . S
H432 C412 0.932 . S
H433 C413 0.930 . S
H434 C414 0.929 . S
H435 C416 0.930 . S
H436 C418 0.932 . S
H437 C419 0.929 . S
H438 C420 0.928 . S
H439 C422 0.932 . S
C440 C441 1.264 . S
C440 C445 1.479 . S
C440 C450 1.465 . S
C441 C440 1.264 . S
C441 C443 1.339 . S
C441 H468 0.931 . S
C442 C443 1.395 . S
C442 C444 1.320 . S
C443 C441 1.339 . S
C443 C442 1.395 . S
C443 H469 0.929 . S
C444 C442 1.320 . S
C444 C445 1.405 . S
C444 H470 0.930 . S
C445 C440 1.479 . S
C445 C444 1.405 . S
C445 H471 0.931 . S
U446 O447 2.454 . S
U446 O448 2.458 . S
U446 C449 2.984 . S
U446 C450 2.847 . S
U446 C463 2.882 . S
U446 O464 2.441 . S
U446 O465 2.420 . S
U446 O466 2.455 . S
U446 O467 2.449 . S
O447 U446 2.454 . S
O447 C449 1.353 . S
O448 U446 2.458 . S
O448 C449 1.286 . S
C449 U446 2.984 . S
C449 O447 1.353 . S
C449 O448 1.286 . S
C449 C451 1.363 . S
C450 C440 1.465 . S
C450 U446 2.847 . S
C450 O464 1.249 . S
C450 O465 1.202 . S
C451 C449 1.363 . S
C451 C453 1.408 . S
C451 C456 1.342 . S
C452 C453 1.310 . S
C452 C455 1.461 . S
C452 H472 0.932 . S
C453 C451 1.408 . S
C453 C452 1.310 . S
C453 H473 0.930 . S
C454 C455 1.474 . S
C454 C456 1.285 . S
C454 H474 0.929 . S
C455 C452 1.461 . S
C455 C454 1.474 . S
C456 C451 1.342 . S
C456 C454 1.285 . S
C456 H475 0.930 . S
C457 C460 1.424 . S
C457 C462 1.245 . S
C457 C463 1.428 . S
C458 C461 1.260 . S
C458 C462 1.477 . S
C458 H476 0.932 . S
C459 C460 1.384 . S
C459 C461 1.479 . S
C459 H477 0.929 . S
C460 C457 1.424 . S
C460 C459 1.384 . S
C460 H478 0.928 . S
C461 C458 1.260 . S
C461 C459 1.479 . S
C462 C457 1.245 . S
C462 C458 1.477 . S
C462 H479 0.932 . S
C463 U446 2.882 . S
C463 C457 1.428 . S
C463 O466 1.301 . S
C463 O467 1.282 . S
O464 U446 2.441 . S
O464 C450 1.249 . S
O465 U446 2.420 . S
O465 C450 1.202 . S
O466 U446 2.455 . S
O466 C463 1.301 . S
O467 U446 2.449 . S
O467 C463 1.282 . S
H468 C441 0.931 . S
H469 C443 0.929 . S
H470 C444 0.930 . S
H471 C445 0.931 . S
H472 C452 0.932 . S
H473 C453 0.930 . S
H474 C454 0.929 . S
H475 C456 0.930 . S
H476 C458 0.932 . S
H477 C459 0.929 . S
H478 C460 0.928 . S
H479 C462 0.932 . S
C480 C481 1.264 . S
C480 C485 1.479 . S
C480 C490 1.465 . S
C481 C480 1.264 . S
C481 C483 1.339 . S
C481 H508 0.931 . S
C482 C483 1.395 . S
C482 C484 1.320 . S
C483 C481 1.339 . S
C483 C482 1.395 . S
C483 H509 0.929 . S
C484 C482 1.320 . S
C484 C485 1.405 . S
C484 H510 0.930 . S
C485 C480 1.479 . S
C485 C484 1.405 . S
C485 H511 0.931 . S
U486 O487 2.454 . S
U486 O488 2.458 . S
U486 C489 2.984 . S
U486 C490 2.847 . S
U486 C503 2.882 . S
U486 O504 2.441 . S
U486 O505 2.420 . S
U486 O506 2.455 . S
U486 O507 2.449 . S
O487 U486 2.454 . S
O487 C489 1.353 . S
O488 U486 2.458 . S
O488 C489 1.286 . S
C489 U486 2.984 . S
C489 O487 1.353 . S
C489 O488 1.286 . S
C489 C491 1.363 . S
C490 C480 1.465 . S
C490 U486 2.847 . S
C490 O504 1.249 . S
C490 O505 1.202 . S
C491 C489 1.363 . S
C491 C493 1.408 . S
C491 C496 1.342 . S
C492 C493 1.310 . S
C492 C495 1.461 . S
C492 H512 0.932 . S
C493 C491 1.408 . S
C493 C492 1.310 . S
C493 H513 0.930 . S
C494 C495 1.474 . S
C494 C496 1.285 . S
C494 H514 0.929 . S
C495 C492 1.461 . S
C495 C494 1.474 . S
C496 C491 1.342 . S
C496 C494 1.285 . S
C496 H515 0.930 . S
C497 C500 1.424 . S
C497 C502 1.245 . S
C497 C503 1.428 . S
C498 C501 1.260 . S
C498 C502 1.477 . S
C498 H516 0.932 . S
C499 C500 1.384 . S
C499 C501 1.479 . S
C499 H517 0.929 . S
C500 C497 1.424 . S
C500 C499 1.384 . S
C500 H518 0.928 . S
C501 C498 1.260 . S
C501 C499 1.479 . S
C502 C497 1.245 . S
C502 C498 1.477 . S
C502 H519 0.932 . S
C503 U486 2.882 . S
C503 C497 1.428 . S
C503 O506 1.301 . S
C503 O507 1.282 . S
O504 U486 2.441 . S
O504 C490 1.249 . S
O505 U486 2.420 . S
O505 C490 1.202 . S
O506 U486 2.455 . S
O506 C503 1.301 . S
O507 U486 2.449 . S
O507 C503 1.282 . S
H508 C481 0.931 . S
H509 C483 0.929 . S
H510 C484 0.930 . S
H511 C485 0.931 . S
H512 C492 0.932 . S
H513 C493 0.930 . S
H514 C494 0.929 . S
H515 C496 0.930 . S
H516 C498 0.932 . S
H517 C499 0.929 . S
H518 C500 0.928 . S
H519 C502 0.932 . S
C520 C521 1.264 . S
C520 C525 1.479 . S
C520 C530 1.465 . S
C521 C520 1.264 . S
C521 C523 1.339 . S
C521 H548 0.931 . S
C522 C523 1.395 . S
C522 C524 1.320 . S
C523 C521 1.339 . S
C523 C522 1.395 . S
C523 H549 0.929 . S
C524 C522 1.320 . S
C524 C525 1.405 . S
C524 H550 0.930 . S
C525 C520 1.479 . S
C525 C524 1.405 . S
C525 H551 0.931 . S
U526 O527 2.454 . S
U526 O528 2.458 . S
U526 C529 2.984 . S
U526 C530 2.847 . S
U526 C543 2.882 . S
U526 O544 2.441 . S
U526 O545 2.420 . S
U526 O546 2.455 . S
U526 O547 2.449 . S
O527 U526 2.454 . S
O527 C529 1.353 . S
O528 U526 2.458 . S
O528 C529 1.286 . S
C529 U526 2.984 . S
C529 O527 1.353 . S
C529 O528 1.286 . S
C529 C531 1.363 . S
C530 C520 1.465 . S
C530 U526 2.847 . S
C530 O544 1.249 . S
C530 O545 1.202 . S
C531 C529 1.363 . S
C531 C533 1.408 . S
C531 C536 1.342 . S
C532 C533 1.310 . S
C532 C535 1.461 . S
C532 H552 0.932 . S
C533 C531 1.408 . S
C533 C532 1.310 . S
C533 H553 0.930 . S
C534 C535 1.474 . S
C534 C536 1.285 . S
C534 H554 0.929 . S
C535 C532 1.461 . S
C535 C534 1.474 . S
C536 C531 1.342 . S
C536 C534 1.285 . S
C536 H555 0.930 . S
C537 C540 1.424 . S
C537 C542 1.245 . S
C537 C543 1.428 . S
C538 C541 1.260 . S
C538 C542 1.477 . S
C538 H556 0.932 . S
C539 C540 1.384 . S
C539 C541 1.479 . S
C539 H557 0.929 . S
C540 C537 1.424 . S
C540 C539 1.384 . S
C540 H558 0.928 . S
C541 C538 1.260 . S
C541 C539 1.479 . S
C542 C537 1.245 . S
C542 C538 1.477 . S
C542 H559 0.932 . S
C543 U526 2.882 . S
C543 C537 1.428 . S
C543 O546 1.301 . S
C543 O547 1.282 . S
O544 U526 2.441 . S
O544 C530 1.249 . S
O545 U526 2.420 . S
O545 C530 1.202 . S
O546 U526 2.455 . S
O546 C543 1.301 . S
O547 U526 2.449 . S
O547 C543 1.282 . S
H548 C521 0.931 . S
H549 C523 0.929 . S
H550 C524 0.930 . S
H551 C525 0.931 . S
H552 C532 0.932 . S
H553 C533 0.930 . S
H554 C534 0.929 . S
H555 C536 0.930 . S
H556 C538 0.932 . S
H557 C539 0.929 . S
H558 C540 0.928 . S
H559 C542 0.932 . S
C560 C561 1.264 . S
C560 C565 1.479 . S
C560 C570 1.465 . S
C561 C560 1.264 . S
C561 C563 1.339 . S
C561 H588 0.931 . S
C562 C563 1.395 . S
C562 C564 1.320 . S
C563 C561 1.339 . S
C563 C562 1.395 . S
C563 H589 0.929 . S
C564 C562 1.320 . S
C564 C565 1.405 . S
C564 H590 0.930 . S
C565 C560 1.479 . S
C565 C564 1.405 . S
C565 H591 0.931 . S
U566 O567 2.454 . S
U566 O568 2.458 . S
U566 C569 2.984 . S
U566 C570 2.847 . S
U566 C583 2.882 . S
U566 O584 2.441 . S
U566 O585 2.420 . S
U566 O586 2.455 . S
U566 O587 2.449 . S
O567 U566 2.454 . S
O567 C569 1.353 . S
O568 U566 2.458 . S
O568 C569 1.286 . S
C569 U566 2.984 . S
C569 O567 1.353 . S
C569 O568 1.286 . S
C569 C571 1.363 . S
C570 C560 1.465 . S
C570 U566 2.847 . S
C570 O584 1.249 . S
C570 O585 1.202 . S
C571 C569 1.363 . S
C571 C573 1.408 . S
C571 C576 1.342 . S
C572 C573 1.310 . S
C572 C575 1.461 . S
C572 H592 0.932 . S
C573 C571 1.408 . S
C573 C572 1.310 . S
C573 H593 0.930 . S
C574 C575 1.474 . S
C574 C576 1.285 . S
C574 H594 0.929 . S
C575 C572 1.461 . S
C575 C574 1.474 . S
C576 C571 1.342 . S
C576 C574 1.285 . S
C576 H595 0.930 . S
C577 C580 1.424 . S
C577 C582 1.245 . S
C577 C583 1.428 . S
C578 C581 1.260 . S
C578 C582 1.477 . S
C578 H596 0.932 . S
C579 C580 1.384 . S
C579 C581 1.479 . S
C579 H597 0.929 . S
C580 C577 1.424 . S
C580 C579 1.384 . S
C580 H598 0.928 . S
C581 C578 1.260 . S
C581 C579 1.479 . S
C582 C577 1.245 . S
C582 C578 1.477 . S
C582 H599 0.932 . S
C583 U566 2.882 . S
C583 C577 1.428 . S
C583 O586 1.301 . S
C583 O587 1.282 . S
O584 U566 2.441 . S
O584 C570 1.249 . S
O585 U566 2.420 . S
O585 C570 1.202 . S
O586 U566 2.455 . S
O586 C583 1.301 . S
O587 U566 2.449 . S
O587 C583 1.282 . S
H588 C561 0.931 . S
H589 C563 0.929 . S
H590 C564 0.930 . S
H591 C565 0.931 . S
H592 C572 0.932 . S
H593 C573 0.930 . S
H594 C574 0.929 . S
H595 C576 0.930 . S
H596 C578 0.932 . S
H597 C579 0.929 . S
H598 C580 0.928 . S
H599 C582 0.932 . S
C600 C601 1.264 . S
C600 C605 1.479 . S
C600 C610 1.465 . S
C601 C600 1.264 . S
C601 C603 1.339 . S
C601 H628 0.931 . S
C602 C603 1.395 . S
C602 C604 1.320 . S
C603 C601 1.339 . S
C603 C602 1.395 . S
C603 H629 0.929 . S
C604 C602 1.320 . S
C604 C605 1.405 . S
C604 H630 0.930 . S
C605 C600 1.479 . S
C605 C604 1.405 . S
C605 H631 0.931 . S
U606 O607 2.454 . S
U606 O608 2.458 . S
U606 C609 2.984 . S
U606 C610 2.847 . S
U606 C623 2.882 . S
U606 O624 2.441 . S
U606 O625 2.420 . S
U606 O626 2.455 . S
U606 O627 2.449 . S
O607 U606 2.454 . S
O607 C609 1.353 . S
O608 U606 2.458 . S
O608 C609 1.286 . S
C609 U606 2.984 . S
C609 O607 1.353 . S
C609 O608 1.286 . S
C609 C611 1.363 . S
C610 C600 1.465 . S
C610 U606 2.847 . S
C610 O624 1.249 . S
C610 O625 1.202 . S
C611 C609 1.363 . S
C611 C613 1.408 . S
C611 C616 1.342 . S
C612 C613 1.310 . S
C612 C615 1.461 . S
C612 H632 0.932 . S
C613 C611 1.408 . S
C613 C612 1.310 . S
C613 H633 0.930 . S
C614 C615 1.474 . S
C614 C616 1.285 . S
C614 H634 0.929 . S
C615 C612 1.461 . S
C615 C614 1.474 . S
C616 C611 1.342 . S
C616 C614 1.285 . S
C616 H635 0.930 . S
C617 C620 1.424 . S
C617 C622 1.245 . S
C617 C623 1.428 . S
C618 C621 1.260 . S
C618 C622 1.477 . S
C618 H636 0.932 . S
C619 C620 1.384 . S
C619 C621 1.479 . S
C619 H637 0.929 . S
C620 C617 1.424 . S
C620 C619 1.384 . S
C620 H638 0.928 . S
C621 C618 1.260 . S
C621 C619 1.479 . S
C622 C617 1.245 . S
C622 C618 1.477 . S
C622 H639 0.932 . S
C623 U606 2.882 . S
C623 C617 1.428 . S
C623 O626 1.301 . S
C623 O627 1.282 . S
O624 U606 2.441 . S
O624 C610 1.249 . S
O625 U606 2.420 . S
O625 C610 1.202 . S
O626 U606 2.455 . S
O626 C623 1.301 . S
O627 U606 2.449 . S
O627 C623 1.282 . S
H628 C601 0.931 . S
H629 C603 0.929 . S
H630 C604 0.930 . S
H631 C605 0.931 . S
H632 C612 0.932 . S
H633 C613 0.930 . S
H634 C614 0.929 . S
H635 C616 0.930 . S
H636 C618 0.932 . S
H637 C619 0.929 . S
H638 C620 0.928 . S
H639 C622 0.932 . S
C640 C641 1.264 . S
C640 C645 1.479 . S
C640 C650 1.465 . S
C641 C640 1.264 . S
C641 C643 1.339 . S
C641 H668 0.931 . S
C642 C643 1.395 . S
C642 C644 1.320 . S
C643 C641 1.339 . S
C643 C642 1.395 . S
C643 H669 0.929 . S
C644 C642 1.320 . S
C644 C645 1.405 . S
C644 H670 0.930 . S
C645 C640 1.479 . S
C645 C644 1.405 . S
C645 H671 0.931 . S
U646 O647 2.454 1_565 S
U646 O648 2.458 1_565 S
U646 C649 2.984 1_565 S
U646 C650 2.847 . S
U646 C663 2.882 . S
U646 O664 2.441 . S
U646 O665 2.420 . S
U646 O666 2.455 . S
U646 O667 2.449 . S
O647 U646 2.454 1_545 S
O647 C649 1.353 . S
O648 U646 2.458 1_545 S
O648 C649 1.286 . S
C649 U646 2.984 1_545 S
C649 O647 1.353 . S
C649 O648 1.286 . S
C649 C651 1.363 . S
C650 C640 1.465 . S
C650 U646 2.847 . S
C650 O664 1.249 . S
C650 O665 1.202 . S
C651 C649 1.363 . S
C651 C653 1.408 . S
C651 C656 1.342 . S
C652 C653 1.310 . S
C652 C655 1.461 . S
C652 H672 0.932 . S
C653 C651 1.408 . S
C653 C652 1.310 . S
C653 H673 0.930 . S
C654 C655 1.474 . S
C654 C656 1.285 . S
C654 H674 0.929 . S
C655 C652 1.461 . S
C655 C654 1.474 . S
C656 C651 1.342 . S
C656 C654 1.285 . S
C656 H675 0.930 . S
C657 C660 1.424 . S
C657 C662 1.245 . S
C657 C663 1.428 . S
C658 C661 1.260 . S
C658 C662 1.477 . S
C658 H676 0.932 . S
C659 C660 1.384 . S
C659 C661 1.479 . S
C659 H677 0.929 . S
C660 C657 1.424 . S
C660 C659 1.384 . S
C660 H678 0.928 . S
C661 C658 1.260 . S
C661 C659 1.479 . S
C662 C657 1.245 . S
C662 C658 1.477 . S
C662 H679 0.932 . S
C663 U646 2.882 . S
C663 C657 1.428 . S
C663 O666 1.301 . S
C663 O667 1.282 . S
O664 U646 2.441 . S
O664 C650 1.249 . S
O665 U646 2.420 . S
O665 C650 1.202 . S
O666 U646 2.455 . S
O666 C663 1.301 . S
O667 U646 2.449 . S
O667 C663 1.282 . S
H668 C641 0.931 . S
H669 C643 0.929 . S
H670 C644 0.930 . S
H671 C645 0.931 . S
H672 C652 0.932 . S
H673 C653 0.930 . S
H674 C654 0.929 . S
H675 C656 0.930 . S
H676 C658 0.932 . S
H677 C659 0.929 . S
H678 C660 0.928 . S
H679 C662 0.932 . S
C680 C681 1.264 . S
C680 C685 1.479 . S
C680 C690 1.465 . S
C681 C680 1.264 . S
C681 C683 1.339 . S
C681 H708 0.931 . S
C682 C683 1.395 . S
C682 C684 1.320 . S
C683 C681 1.339 . S
C683 C682 1.395 . S
C683 H709 0.929 . S
C684 C682 1.320 . S
C684 C685 1.405 . S
C684 H710 0.930 . S
C685 C680 1.479 . S
C685 C684 1.405 . S
C685 H711 0.931 . S
U686 O687 2.454 . S
U686 O688 2.458 . S
U686 C689 2.984 . S
U686 C690 2.847 . S
U686 C703 2.882 . S
U686 O704 2.441 . S
U686 O705 2.420 . S
U686 O706 2.455 . S
U686 O707 2.449 . S
O687 U686 2.454 . S
O687 C689 1.353 . S
O688 U686 2.458 . S
O688 C689 1.286 . S
C689 U686 2.984 . S
C689 O687 1.353 . S
C689 O688 1.286 . S
C689 C691 1.363 . S
C690 C680 1.465 . S
C690 U686 2.847 . S
C690 O704 1.249 . S
C690 O705 1.202 . S
C691 C689 1.363 . S
C691 C693 1.408 . S
C691 C696 1.342 . S
C692 C693 1.310 . S
C692 C695 1.461 . S
C692 H712 0.932 . S
C693 C691 1.408 . S
C693 C692 1.310 . S
C693 H713 0.930 . S
C694 C695 1.474 . S
C694 C696 1.285 . S
C694 H714 0.929 . S
C695 C692 1.461 . S
C695 C694 1.474 . S
C696 C691 1.342 . S
C696 C694 1.285 . S
C696 H715 0.930 . S
C697 C700 1.424 . S
C697 C702 1.245 . S
C697 C703 1.428 . S
C698 C701 1.260 . S
C698 C702 1.477 . S
C698 H716 0.932 . S
C699 C700 1.384 . S
C699 C701 1.479 . S
C699 H717 0.929 . S
C700 C697 1.424 . S
C700 C699 1.384 . S
C700 H718 0.928 . S
C701 C698 1.260 . S
C701 C699 1.479 . S
C702 C697 1.245 . S
C702 C698 1.477 . S
C702 H719 0.932 . S
C703 U686 2.882 . S
C703 C697 1.428 . S
C703 O706 1.301 . S
C703 O707 1.282 . S
O704 U686 2.441 . S
O704 C690 1.249 . S
O705 U686 2.420 . S
O705 C690 1.202 . S
O706 U686 2.455 . S
O706 C703 1.301 . S
O707 U686 2.449 . S
O707 C703 1.282 . S
H708 C681 0.931 . S
H709 C683 0.929 . S
H710 C684 0.930 . S
H711 C685 0.931 . S
H712 C692 0.932 . S
H713 C693 0.930 . S
H714 C694 0.929 . S
H715 C696 0.930 . S
H716 C698 0.932 . S
H717 C699 0.929 . S
H718 C700 0.928 . S
H719 C702 0.932 . S
C720 C721 1.264 . S
C720 C725 1.479 . S
C720 C730 1.465 . S
C721 C720 1.264 . S
C721 C723 1.339 . S
C721 H748 0.931 . S
C722 C723 1.395 . S
C722 C724 1.320 . S
C723 C721 1.339 . S
C723 C722 1.395 . S
C723 H749 0.929 . S
C724 C722 1.320 . S
C724 C725 1.405 . S
C724 H750 0.930 . S
C725 C720 1.479 . S
C725 C724 1.405 . S
C725 H751 0.931 . S
U726 O727 2.454 1_545 S
U726 O728 2.458 1_545 S
U726 C729 2.984 1_545 S
U726 C730 2.847 . S
U726 C743 2.882 . S
U726 O744 2.441 . S
U726 O745 2.420 . S
U726 O746 2.455 . S
U726 O747 2.449 . S
O727 U726 2.454 1_565 S
O727 C729 1.353 . S
O728 U726 2.458 1_565 S
O728 C729 1.286 . S
C729 U726 2.984 1_565 S
C729 O727 1.353 . S
C729 O728 1.286 . S
C729 C731 1.363 . S
C730 C720 1.465 . S
C730 U726 2.847 . S
C730 O744 1.249 . S
C730 O745 1.202 . S
C731 C729 1.363 . S
C731 C733 1.408 . S
C731 C736 1.342 . S
C732 C733 1.310 . S
C732 C735 1.461 . S
C732 H752 0.932 . S
C733 C731 1.408 . S
C733 C732 1.310 . S
C733 H753 0.930 . S
C734 C735 1.474 . S
C734 C736 1.285 . S
C734 H754 0.929 . S
C735 C732 1.461 . S
C735 C734 1.474 . S
C736 C731 1.342 . S
C736 C734 1.285 . S
C736 H755 0.930 . S
C737 C740 1.424 . S
C737 C742 1.245 . S
C737 C743 1.428 . S
C738 C741 1.260 . S
C738 C742 1.477 . S
C738 H756 0.932 . S
C739 C740 1.384 . S
C739 C741 1.479 . S
C739 H757 0.929 . S
C740 C737 1.424 . S
C740 C739 1.384 . S
C740 H758 0.928 . S
C741 C738 1.260 . S
C741 C739 1.479 . S
C742 C737 1.245 . S
C742 C738 1.477 . S
C742 H759 0.932 . S
C743 U726 2.882 . S
C743 C737 1.428 . S
C743 O746 1.301 . S
C743 O747 1.282 . S
O744 U726 2.441 . S
O744 C730 1.249 . S
O745 U726 2.420 . S
O745 C730 1.202 . S
O746 U726 2.455 . S
O746 C743 1.301 . S
O747 U726 2.449 . S
O747 C743 1.282 . S
H748 C721 0.931 . S
H749 C723 0.929 . S
H750 C724 0.930 . S
H751 C725 0.931 . S
H752 C732 0.932 . S
H753 C733 0.930 . S
H754 C734 0.929 . S
H755 C736 0.930 . S
H756 C738 0.932 . S
H757 C739 0.929 . S
H758 C740 0.928 . S
H759 C742 0.932 . S
C760 C761 1.264 . S
C760 C765 1.479 . S
C760 C770 1.465 . S
C761 C760 1.264 . S
C761 C763 1.339 . S
C761 H788 0.931 . S
C762 C763 1.395 . S
C762 C764 1.320 . S
C763 C761 1.339 . S
C763 C762 1.395 . S
C763 H789 0.929 . S
C764 C762 1.320 . S
C764 C765 1.405 . S
C764 H790 0.930 . S
C765 C760 1.479 . S
C765 C764 1.405 . S
C765 H791 0.931 . S
U766 O767 2.454 . S
U766 O768 2.458 . S
U766 C769 2.984 . S
U766 C770 2.847 . S
U766 C783 2.882 . S
U766 O784 2.441 . S
U766 O785 2.420 . S
U766 O786 2.455 . S
U766 O787 2.449 . S
O767 U766 2.454 . S
O767 C769 1.353 . S
O768 U766 2.458 . S
O768 C769 1.286 . S
C769 U766 2.984 . S
C769 O767 1.353 . S
C769 O768 1.286 . S
C769 C771 1.363 . S
C770 C760 1.465 . S
C770 U766 2.847 . S
C770 O784 1.249 . S
C770 O785 1.202 . S
C771 C769 1.363 . S
C771 C773 1.408 . S
C771 C776 1.342 . S
C772 C773 1.310 . S
C772 C775 1.461 . S
C772 H792 0.932 . S
C773 C771 1.408 . S
C773 C772 1.310 . S
C773 H793 0.930 . S
C774 C775 1.474 . S
C774 C776 1.285 . S
C774 H794 0.929 . S
C775 C772 1.461 . S
C775 C774 1.474 . S
C776 C771 1.342 . S
C776 C774 1.285 . S
C776 H795 0.930 . S
C777 C780 1.424 . S
C777 C782 1.245 . S
C777 C783 1.428 . S
C778 C781 1.260 . S
C778 C782 1.477 . S
C778 H796 0.932 . S
C779 C780 1.384 . S
C779 C781 1.479 . S
C779 H797 0.929 . S
C780 C777 1.424 . S
C780 C779 1.384 . S
C780 H798 0.928 . S
C781 C778 1.260 . S
C781 C779 1.479 . S
C782 C777 1.245 . S
C782 C778 1.477 . S
C782 H799 0.932 . S
C783 U766 2.882 . S
C783 C777 1.428 . S
C783 O786 1.301 . S
C783 O787 1.282 . S
O784 U766 2.441 . S
O784 C770 1.249 . S
O785 U766 2.420 . S
O785 C770 1.202 . S
O786 U766 2.455 . S
O786 C783 1.301 . S
O787 U766 2.449 . S
O787 C783 1.282 . S
H788 C761 0.931 . S
H789 C763 0.929 . S
H790 C764 0.930 . S
H791 C765 0.931 . S
H792 C772 0.932 . S
H793 C773 0.930 . S
H794 C774 0.929 . S
H795 C776 0.930 . S
H796 C778 0.932 . S
H797 C779 0.929 . S
H798 C780 0.928 . S
H799 C782 0.932 . S
C800 C801 1.264 . S
C800 C805 1.479 . S
C800 C810 1.465 . S
C801 C800 1.264 . S
C801 C803 1.339 . S
C801 H828 0.931 . S
C802 C803 1.395 . S
C802 C804 1.320 . S
C803 C801 1.339 . S
C803 C802 1.395 . S
C803 H829 0.929 . S
C804 C802 1.320 . S
C804 C805 1.405 . S
C804 H830 0.930 . S
C805 C800 1.479 . S
C805 C804 1.405 . S
C805 H831 0.931 . S
U806 O807 2.454 1_545 S
U806 O808 2.458 1_545 S
U806 C809 2.984 1_545 S
U806 C810 2.847 . S
U806 C823 2.882 . S
U806 O824 2.441 . S
U806 O825 2.420 . S
U806 O826 2.455 . S
U806 O827 2.449 . S
O807 U806 2.454 1_565 S
O807 C809 1.353 . S
O808 U806 2.458 1_565 S
O808 C809 1.286 . S
C809 U806 2.984 1_565 S
C809 O807 1.353 . S
C809 O808 1.286 . S
C809 C811 1.363 . S
C810 C800 1.465 . S
C810 U806 2.847 . S
C810 O824 1.249 . S
C810 O825 1.202 . S
C811 C809 1.363 . S
C811 C813 1.408 . S
C811 C816 1.342 . S
C812 C813 1.310 . S
C812 C815 1.461 . S
C812 H832 0.932 . S
C813 C811 1.408 . S
C813 C812 1.310 . S
C813 H833 0.930 . S
C814 C815 1.474 . S
C814 C816 1.285 . S
C814 H834 0.929 . S
C815 C812 1.461 . S
C815 C814 1.474 . S
C816 C811 1.342 . S
C816 C814 1.285 . S
C816 H835 0.930 . S
C817 C820 1.424 . S
C817 C822 1.245 . S
C817 C823 1.428 . S
C818 C821 1.260 . S
C818 C822 1.477 . S
C818 H836 0.932 . S
C819 C820 1.384 . S
C819 C821 1.479 . S
C819 H837 0.929 . S
C820 C817 1.424 . S
C820 C819 1.384 . S
C820 H838 0.928 . S
C821 C818 1.260 . S
C821 C819 1.479 . S
C822 C817 1.245 . S
C822 C818 1.477 . S
C822 H839 0.932 . S
C823 U806 2.882 . S
C823 C817 1.428 . S
C823 O826 1.301 . S
C823 O827 1.282 . S
O824 U806 2.441 . S
O824 C810 1.249 . S
O825 U806 2.420 . S
O825 C810 1.202 . S
O826 U806 2.455 . S
O826 C823 1.301 . S
O827 U806 2.449 . S
O827 C823 1.282 . S
H828 C801 0.931 . S
H829 C803 0.929 . S
H830 C804 0.930 . S
H831 C805 0.931 . S
H832 C812 0.932 . S
H833 C813 0.930 . S
H834 C814 0.929 . S
H835 C816 0.930 . S
H836 C818 0.932 . S
H837 C819 0.929 . S
H838 C820 0.928 . S
H839 C822 0.932 . S
C840 C841 1.264 . S
C840 C845 1.479 . S
C840 C850 1.465 . S
C841 C840 1.264 . S
C841 C843 1.339 . S
C841 H868 0.931 . S
C842 C843 1.395 . S
C842 C844 1.320 . S
C843 C841 1.339 . S
C843 C842 1.395 . S
C843 H869 0.929 . S
C844 C842 1.320 . S
C844 C845 1.405 . S
C844 H870 0.930 . S
C845 C840 1.479 . S
C845 C844 1.405 . S
C845 H871 0.931 . S
U846 O847 2.454 . S
U846 O848 2.458 . S
U846 C849 2.984 . S
U846 C850 2.847 . S
U846 C863 2.882 . S
U846 O864 2.441 . S
U846 O865 2.420 . S
U846 O866 2.455 . S
U846 O867 2.449 . S
O847 U846 2.454 . S
O847 C849 1.353 . S
O848 U846 2.458 . S
O848 C849 1.286 . S
C849 U846 2.984 . S
C849 O847 1.353 . S
C849 O848 1.286 . S
C849 C851 1.363 . S
C850 C840 1.465 . S
C850 U846 2.847 . S
C850 O864 1.249 . S
C850 O865 1.202 . S
C851 C849 1.363 . S
C851 C853 1.408 . S
C851 C856 1.342 . S
C852 C853 1.310 . S
C852 C855 1.461 . S
C852 H872 0.932 . S
C853 C851 1.408 . S
C853 C852 1.310 . S
C853 H873 0.930 . S
C854 C855 1.474 . S
C854 C856 1.285 . S
C854 H874 0.929 . S
C855 C852 1.461 . S
C855 C854 1.474 . S
C856 C851 1.342 . S
C856 C854 1.285 . S
C856 H875 0.930 . S
C857 C860 1.424 . S
C857 C862 1.245 . S
C857 C863 1.428 . S
C858 C861 1.260 . S
C858 C862 1.477 . S
C858 H876 0.932 . S
C859 C860 1.384 . S
C859 C861 1.479 . S
C859 H877 0.929 . S
C860 C857 1.424 . S
C860 C859 1.384 . S
C860 H878 0.928 . S
C861 C858 1.260 . S
C861 C859 1.479 . S
C862 C857 1.245 . S
C862 C858 1.477 . S
C862 H879 0.932 . S
C863 U846 2.882 . S
C863 C857 1.428 . S
C863 O866 1.301 . S
C863 O867 1.282 . S
O864 U846 2.441 . S
O864 C850 1.249 . S
O865 U846 2.420 . S
O865 C850 1.202 . S
O866 U846 2.455 . S
O866 C863 1.301 . S
O867 U846 2.449 . S
O867 C863 1.282 . S
H868 C841 0.931 . S
H869 C843 0.929 . S
H870 C844 0.930 . S
H871 C845 0.931 . S
H872 C852 0.932 . S
H873 C853 0.930 . S
H874 C854 0.929 . S
H875 C856 0.930 . S
H876 C858 0.932 . S
H877 C859 0.929 . S
H878 C860 0.928 . S
H879 C862 0.932 . S
C880 C881 1.264 . S
C880 C885 1.479 . S
C880 C890 1.465 . S
C881 C880 1.264 . S
C881 C883 1.339 . S
C881 H908 0.931 . S
C882 C883 1.395 . S
C882 C884 1.320 . S
C883 C881 1.339 . S
C883 C882 1.395 . S
C883 H909 0.929 . S
C884 C882 1.320 . S
C884 C885 1.405 . S
C884 H910 0.930 . S
C885 C880 1.479 . S
C885 C884 1.405 . S
C885 H911 0.931 . S
U886 O887 2.454 1_565 S
U886 O888 2.458 1_565 S
U886 C889 2.984 1_565 S
U886 C890 2.847 . S
U886 C903 2.882 . S
U886 O904 2.441 . S
U886 O905 2.420 . S
U886 O906 2.455 . S
U886 O907 2.449 . S
O887 U886 2.454 1_545 S
O887 C889 1.353 . S
O888 U886 2.458 1_545 S
O888 C889 1.286 . S
C889 U886 2.984 1_545 S
C889 O887 1.353 . S
C889 O888 1.286 . S
C889 C891 1.363 . S
C890 C880 1.465 . S
C890 U886 2.847 . S
C890 O904 1.249 . S
C890 O905 1.202 . S
C891 C889 1.363 . S
C891 C893 1.408 . S
C891 C896 1.342 . S
C892 C893 1.310 . S
C892 C895 1.461 . S
C892 H912 0.932 . S
C893 C891 1.408 . S
C893 C892 1.310 . S
C893 H913 0.930 . S
C894 C895 1.474 . S
C894 C896 1.285 . S
C894 H914 0.929 . S
C895 C892 1.461 . S
C895 C894 1.474 . S
C896 C891 1.342 . S
C896 C894 1.285 . S
C896 H915 0.930 . S
C897 C900 1.424 . S
C897 C902 1.245 . S
C897 C903 1.428 . S
C898 C901 1.260 . S
C898 C902 1.477 . S
C898 H916 0.932 . S
C899 C900 1.384 . S
C899 C901 1.479 . S
C899 H917 0.929 . S
C900 C897 1.424 . S
C900 C899 1.384 . S
C900 H918 0.928 . S
C901 C898 1.260 . S
C901 C899 1.479 . S
C902 C897 1.245 . S
C902 C898 1.477 . S
C902 H919 0.932 . S
C903 U886 2.882 . S
C903 C897 1.428 . S
C903 O906 1.301 . S
C903 O907 1.282 . S
O904 U886 2.441 . S
O904 C890 1.249 . S
O905 U886 2.420 . S
O905 C890 1.202 . S
O906 U886 2.455 . S
O906 C903 1.301 . S
O907 U886 2.449 . S
O907 C903 1.282 . S
H908 C881 0.931 . S
H909 C883 0.929 . S
H910 C884 0.930 . S
H911 C885 0.931 . S
H912 C892 0.932 . S
H913 C893 0.930 . S
H914 C894 0.929 . S
H915 C896 0.930 . S
H916 C898 0.932 . S
H917 C899 0.929 . S
H918 C900 0.928 . S
H919 C902 0.932 . S
C920 C921 1.264 . S
C920 C925 1.479 . S
C920 C930 1.465 . S
C921 C920 1.264 . S
C921 C923 1.339 . S
C921 H948 0.931 . S
C922 C923 1.395 . S
C922 C924 1.320 . S
C923 C921 1.339 . S
C923 C922 1.395 . S
C923 H949 0.929 . S
C924 C922 1.320 . S
C924 C925 1.405 . S
C924 H950 0.930 . S
C925 C920 1.479 . S
C925 C924 1.405 . S
C925 H951 0.931 . S
U926 O927 2.454 . S
U926 O928 2.458 . S
U926 C929 2.984 . S
U926 C930 2.847 . S
U926 C943 2.882 . S
U926 O944 2.441 . S
U926 O945 2.420 . S
U926 O946 2.455 . S
U926 O947 2.449 . S
O927 U926 2.454 . S
O927 C929 1.353 . S
O928 U926 2.458 . S
O928 C929 1.286 . S
C929 U926 2.984 . S
C929 O927 1.353 . S
C929 O928 1.286 . S
C929 C931 1.363 . S
C930 C920 1.465 . S
C930 U926 2.847 . S
C930 O944 1.249 . S
C930 O945 1.202 . S
C931 C929 1.363 . S
C931 C933 1.408 . S
C931 C936 1.342 . S
C932 C933 1.310 . S
C932 C935 1.461 . S
C932 H952 0.932 . S
C933 C931 1.408 . S
C933 C932 1.310 . S
C933 H953 0.930 . S
C934 C935 1.474 . S
C934 C936 1.285 . S
C934 H954 0.929 . S
C935 C932 1.461 . S
C935 C934 1.474 . S
C936 C931 1.342 . S
C936 C934 1.285 . S
C936 H955 0.930 . S
C937 C940 1.424 . S
C937 C942 1.245 . S
C937 C943 1.428 . S
C938 C941 1.260 . S
C938 C942 1.477 . S
C938 H956 0.932 . S
C939 C940 1.384 . S
C939 C941 1.479 . S
C939 H957 0.929 . S
C940 C937 1.424 . S
C940 C939 1.384 . S
C940 H958 0.928 . S
C941 C938 1.260 . S
C941 C939 1.479 . S
C942 C937 1.245 . S
C942 C938 1.477 . S
C942 H959 0.932 . S
C943 U926 2.882 . S
C943 C937 1.428 . S
C943 O946 1.301 . S
C943 O947 1.282 . S
O944 U926 2.441 . S
O944 C930 1.249 . S
O945 U926 2.420 . S
O945 C930 1.202 . S
O946 U926 2.455 . S
O946 C943 1.301 . S
O947 U926 2.449 . S
O947 C943 1.282 . S
H948 C921 0.931 . S
H949 C923 0.929 . S
H950 C924 0.930 . S
H951 C925 0.931 . S
H952 C932 0.932 . S
H953 C933 0.930 . S
H954 C934 0.929 . S
H955 C936 0.930 . S
H956 C938 0.932 . S
H957 C939 0.929 . S
H958 C940 0.928 . S
H959 C942 0.932 . S
C960 C961 1.264 . S
C960 C965 1.479 . S
C960 C970 1.465 1_545 S
C961 C960 1.264 . S
C961 C963 1.339 . S
C961 H988 0.931 . S
C962 C963 1.395 . S
C962 C964 1.320 . S
C963 C961 1.339 . S
C963 C962 1.395 . S
C963 H989 0.929 . S
C964 C962 1.320 . S
C964 C965 1.404 . S
C964 H990 0.930 . S
C965 C960 1.479 . S
C965 C964 1.404 . S
C965 H991 0.932 1_545 S
U966 O967 2.454 . S
U966 O968 2.458 . S
U966 C969 2.984 . S
U966 C970 2.847 . S
U966 C983 2.882 . S
U966 O984 2.441 . S
U966 O985 2.420 . S
U966 O986 2.455 . S
U966 O987 2.449 . S
O967 U966 2.454 . S
O967 C969 1.353 . S
O968 U966 2.458 . S
O968 C969 1.286 . S
C969 U966 2.984 . S
C969 O967 1.353 . S
C969 O968 1.286 . S
C969 C971 1.363 . S
C970 C960 1.465 1_565 S
C970 U966 2.847 . S
C970 O984 1.249 . S
C970 O985 1.202 . S
C971 C969 1.363 . S
C971 C973 1.408 . S
C971 C976 1.342 . S
C972 C973 1.310 . S
C972 C975 1.461 . S
C972 H992 0.932 . S
C973 C971 1.408 . S
C973 C972 1.310 . S
C973 H993 0.930 . S
C974 C975 1.474 . S
C974 C976 1.285 . S
C974 H994 0.929 . S
C975 C972 1.461 . S
C975 C974 1.474 . S
C976 C971 1.342 . S
C976 C974 1.285 . S
C976 H995 0.930 . S
C977 C980 1.425 . S
C977 C982 1.245 1_545 S
C977 C983 1.427 1_545 S
C978 C981 1.260 . S
C978 C982 1.473 1_545 S
C978 H996 0.932 . S
C979 C980 1.384 . S
C979 C981 1.479 . S
C979 H997 0.929 . S
C980 C977 1.425 . S
C980 C979 1.384 . S
C980 H998 0.928 . S
C981 C978 1.260 . S
C981 C979 1.479 . S
C982 C977 1.245 1_565 S
C982 C978 1.473 1_565 S
C982 H999 0.936 . S
C983 U966 2.882 . S
C983 C977 1.427 1_565 S
C983 O986 1.301 . S
C983 O987 1.282 . S
O984 U966 2.441 . S
O984 C970 1.249 . S
O985 U966 2.420 . S
O985 C970 1.202 . S
O986 U966 2.455 . S
O986 C983 1.301 . S
O987 U966 2.449 . S
O987 C983 1.282 . S
H988 C961 0.931 . S
H989 C963 0.929 . S
H990 C964 0.930 . S
H991 C965 0.932 1_565 S
H992 C972 0.932 . S
H993 C973 0.930 . S
H994 C974 0.929 . S
H995 C976 0.930 . S
H996 C978 0.932 . S
H997 C979 0.929 . S
H998 C980 0.928 . S
H999 C982 0.936 . S
C1000 C1001 1.264 . S
C1000 C1005 1.479 . S
C1000 C1010 1.465 . S
C1001 C1000 1.264 . S
C1001 C1003 1.339 . S
C1001 H1028 0.931 . S
C1002 C1003 1.395 . S
C1002 C1004 1.320 . S
C1003 C1001 1.339 . S
C1003 C1002 1.395 . S
C1003 H1029 0.929 . S
C1004 C1002 1.320 . S
C1004 C1005 1.405 . S
C1004 H1030 0.930 . S
C1005 C1000 1.479 . S
C1005 C1004 1.405 . S
C1005 H1031 0.931 . S
U1006 O1007 2.454 . S
U1006 O1008 2.458 . S
U1006 C1009 2.984 . S
U1006 C1010 2.847 . S
U1006 C1023 2.882 . S
U1006 O1024 2.441 . S
U1006 O1025 2.420 . S
U1006 O1026 2.455 . S
U1006 O1027 2.449 . S
O1007 U1006 2.454 . S
O1007 C1009 1.353 . S
O1008 U1006 2.458 . S
O1008 C1009 1.286 . S
C1009 U1006 2.984 . S
C1009 O1007 1.353 . S
C1009 O1008 1.286 . S
C1009 C1011 1.363 . S
C1010 C1000 1.465 . S
C1010 U1006 2.847 . S
C1010 O1024 1.249 . S
C1010 O1025 1.202 . S
C1011 C1009 1.363 . S
C1011 C1013 1.408 . S
C1011 C1016 1.342 . S
C1012 C1013 1.310 . S
C1012 C1015 1.461 . S
C1012 H1032 0.932 . S
C1013 C1011 1.408 . S
C1013 C1012 1.310 . S
C1013 H1033 0.930 . S
C1014 C1015 1.474 . S
C1014 C1016 1.285 . S
C1014 H1034 0.929 . S
C1015 C1012 1.461 . S
C1015 C1014 1.474 . S
C1016 C1011 1.342 . S
C1016 C1014 1.285 . S
C1016 H1035 0.930 . S
C1017 C1020 1.424 . S
C1017 C1022 1.245 . S
C1017 C1023 1.428 . S
C1018 C1021 1.260 . S
C1018 C1022 1.477 . S
C1018 H1036 0.932 . S
C1019 C1020 1.384 . S
C1019 C1021 1.479 . S
C1019 H1037 0.929 . S
C1020 C1017 1.424 . S
C1020 C1019 1.384 . S
C1020 H1038 0.928 . S
C1021 C1018 1.260 . S
C1021 C1019 1.479 . S
C1022 C1017 1.245 . S
C1022 C1018 1.477 . S
C1022 H1039 0.932 . S
C1023 U1006 2.882 . S
C1023 C1017 1.428 . S
C1023 O1026 1.301 . S
C1023 O1027 1.282 . S
O1024 U1006 2.441 . S
O1024 C1010 1.249 . S
O1025 U1006 2.420 . S
O1025 C1010 1.202 . S
O1026 U1006 2.455 . S
O1026 C1023 1.301 . S
O1027 U1006 2.449 . S
O1027 C1023 1.282 . S
H1028 C1001 0.931 . S
H1029 C1003 0.929 . S
H1030 C1004 0.930 . S
H1031 C1005 0.931 . S
H1032 C1012 0.932 . S
H1033 C1013 0.930 . S
H1034 C1014 0.929 . S
H1035 C1016 0.930 . S
H1036 C1018 0.932 . S
H1037 C1019 0.929 . S
H1038 C1020 0.928 . S
H1039 C1022 0.932 . S
C1040 C1041 1.264 . S
C1040 C1045 1.479 . S
C1040 C1050 1.465 1_565 S
C1041 C1040 1.264 . S
C1041 C1043 1.339 . S
C1041 H1068 0.931 . S
C1042 C1043 1.395 . S
C1042 C1044 1.320 . S
C1043 C1041 1.339 . S
C1043 C1042 1.395 . S
C1043 H1069 0.929 . S
C1044 C1042 1.320 . S
C1044 C1045 1.404 . S
C1044 H1070 0.930 . S
C1045 C1040 1.479 . S
C1045 C1044 1.404 . S
C1045 H1071 0.932 1_565 S
U1046 O1047 2.454 . S
U1046 O1048 2.458 . S
U1046 C1049 2.984 . S
U1046 C1050 2.847 . S
U1046 C1063 2.882 . S
U1046 O1064 2.441 . S
U1046 O1065 2.420 . S
U1046 O1066 2.455 . S
U1046 O1067 2.449 . S
O1047 U1046 2.454 . S
O1047 C1049 1.353 . S
O1048 U1046 2.458 . S
O1048 C1049 1.286 . S
C1049 U1046 2.984 . S
C1049 O1047 1.353 . S
C1049 O1048 1.286 . S
C1049 C1051 1.363 . S
C1050 C1040 1.465 1_545 S
C1050 U1046 2.847 . S
C1050 O1064 1.249 . S
C1050 O1065 1.202 . S
C1051 C1049 1.363 . S
C1051 C1053 1.408 . S
C1051 C1056 1.342 . S
C1052 C1053 1.310 . S
C1052 C1055 1.461 . S
C1052 H1072 0.932 . S
C1053 C1051 1.408 . S
C1053 C1052 1.310 . S
C1053 H1073 0.930 . S
C1054 C1055 1.474 . S
C1054 C1056 1.285 . S
C1054 H1074 0.929 . S
C1055 C1052 1.461 . S
C1055 C1054 1.474 . S
C1056 C1051 1.342 . S
C1056 C1054 1.285 . S
C1056 H1075 0.930 . S
C1057 C1060 1.425 . S
C1057 C1062 1.245 1_565 S
C1057 C1063 1.427 1_565 S
C1058 C1061 1.260 . S
C1058 C1062 1.473 1_565 S
C1058 H1076 0.932 . S
C1059 C1060 1.384 . S
C1059 C1061 1.479 . S
C1059 H1077 0.929 . S
C1060 C1057 1.425 . S
C1060 C1059 1.384 . S
C1060 H1078 0.928 . S
C1061 C1058 1.260 . S
C1061 C1059 1.479 . S
C1062 C1057 1.245 1_545 S
C1062 C1058 1.473 1_545 S
C1062 H1079 0.936 . S
C1063 U1046 2.882 . S
C1063 C1057 1.427 1_545 S
C1063 O1066 1.301 . S
C1063 O1067 1.282 . S
O1064 U1046 2.441 . S
O1064 C1050 1.249 . S
O1065 U1046 2.420 . S
O1065 C1050 1.202 . S
O1066 U1046 2.455 . S
O1066 C1063 1.301 . S
O1067 U1046 2.449 . S
O1067 C1063 1.282 . S
H1068 C1041 0.931 . S
H1069 C1043 0.929 . S
H1070 C1044 0.930 . S
H1071 C1045 0.932 1_545 S
H1072 C1052 0.932 . S
H1073 C1053 0.930 . S
H1074 C1054 0.929 . S
H1075 C1056 0.930 . S
H1076 C1058 0.932 . S
H1077 C1059 0.929 . S
H1078 C1060 0.928 . S
H1079 C1062 0.936 . S
C1080 C1081 1.264 . S
C1080 C1085 1.479 . S
C1080 C1090 1.465 . S
C1081 C1080 1.264 . S
C1081 C1083 1.339 . S
C1081 H1108 0.931 . S
C1082 C1083 1.395 . S
C1082 C1084 1.320 . S
C1083 C1081 1.339 . S
C1083 C1082 1.395 . S
C1083 H1109 0.929 . S
C1084 C1082 1.320 . S
C1084 C1085 1.405 . S
C1084 H1110 0.930 . S
C1085 C1080 1.479 . S
C1085 C1084 1.405 . S
C1085 H1111 0.931 . S
U1086 O1087 2.454 . S
U1086 O1088 2.458 . S
U1086 C1089 2.984 . S
U1086 C1090 2.847 . S
U1086 C1103 2.882 . S
U1086 O1104 2.441 . S
U1086 O1105 2.420 . S
U1086 O1106 2.455 . S
U1086 O1107 2.449 . S
O1087 U1086 2.454 . S
O1087 C1089 1.353 . S
O1088 U1086 2.458 . S
O1088 C1089 1.286 . S
C1089 U1086 2.984 . S
C1089 O1087 1.353 . S
C1089 O1088 1.286 . S
C1089 C1091 1.363 . S
C1090 C1080 1.465 . S
C1090 U1086 2.847 . S
C1090 O1104 1.249 . S
C1090 O1105 1.202 . S
C1091 C1089 1.363 . S
C1091 C1093 1.408 . S
C1091 C1096 1.342 . S
C1092 C1093 1.310 . S
C1092 C1095 1.461 . S
C1092 H1112 0.932 . S
C1093 C1091 1.408 . S
C1093 C1092 1.310 . S
C1093 H1113 0.930 . S
C1094 C1095 1.474 . S
C1094 C1096 1.285 . S
C1094 H1114 0.929 . S
C1095 C1092 1.461 . S
C1095 C1094 1.474 . S
C1096 C1091 1.342 . S
C1096 C1094 1.285 . S
C1096 H1115 0.930 . S
C1097 C1100 1.424 . S
C1097 C1102 1.245 . S
C1097 C1103 1.428 . S
C1098 C1101 1.260 . S
C1098 C1102 1.477 . S
C1098 H1116 0.932 . S
C1099 C1100 1.384 . S
C1099 C1101 1.479 . S
C1099 H1117 0.929 . S
C1100 C1097 1.424 . S
C1100 C1099 1.384 . S
C1100 H1118 0.928 . S
C1101 C1098 1.260 . S
C1101 C1099 1.479 . S
C1102 C1097 1.245 . S
C1102 C1098 1.477 . S
C1102 H1119 0.932 . S
C1103 U1086 2.882 . S
C1103 C1097 1.428 . S
C1103 O1106 1.301 . S
C1103 O1107 1.282 . S
O1104 U1086 2.441 . S
O1104 C1090 1.249 . S
O1105 U1086 2.420 . S
O1105 C1090 1.202 . S
O1106 U1086 2.455 . S
O1106 C1103 1.301 . S
O1107 U1086 2.449 . S
O1107 C1103 1.282 . S
H1108 C1081 0.931 . S
H1109 C1083 0.929 . S
H1110 C1084 0.930 . S
H1111 C1085 0.931 . S
H1112 C1092 0.932 . S
H1113 C1093 0.930 . S
H1114 C1094 0.929 . S
H1115 C1096 0.930 . S
H1116 C1098 0.932 . S
H1117 C1099 0.929 . S
H1118 C1100 0.928 . S
H1119 C1102 0.932 . S
C1120 C1121 1.264 . S
C1120 C1125 1.479 . S
C1120 C1130 1.465 1_565 S
C1121 C1120 1.264 . S
C1121 C1123 1.339 . S
C1121 H1148 0.931 . S
C1122 C1123 1.395 . S
C1122 C1124 1.320 . S
C1123 C1121 1.339 . S
C1123 C1122 1.395 . S
C1123 H1149 0.929 . S
C1124 C1122 1.320 . S
C1124 C1125 1.404 . S
C1124 H1150 0.930 . S
C1125 C1120 1.479 . S
C1125 C1124 1.404 . S
C1125 H1151 0.932 1_565 S
U1126 O1127 2.454 . S
U1126 O1128 2.458 . S
U1126 C1129 2.984 . S
U1126 C1130 2.847 . S
U1126 C1143 2.882 . S
U1126 O1144 2.441 . S
U1126 O1145 2.420 . S
U1126 O1146 2.455 . S
U1126 O1147 2.449 . S
O1127 U1126 2.454 . S
O1127 C1129 1.353 . S
O1128 U1126 2.458 . S
O1128 C1129 1.286 . S
C1129 U1126 2.984 . S
C1129 O1127 1.353 . S
C1129 O1128 1.286 . S
C1129 C1131 1.363 . S
C1130 C1120 1.465 1_545 S
C1130 U1126 2.847 . S
C1130 O1144 1.249 . S
C1130 O1145 1.202 . S
C1131 C1129 1.363 . S
C1131 C1133 1.408 . S
C1131 C1136 1.342 . S
C1132 C1133 1.310 . S
C1132 C1135 1.461 . S
C1132 H1152 0.932 . S
C1133 C1131 1.408 . S
C1133 C1132 1.310 . S
C1133 H1153 0.930 . S
C1134 C1135 1.474 . S
C1134 C1136 1.285 . S
C1134 H1154 0.929 . S
C1135 C1132 1.461 . S
C1135 C1134 1.474 . S
C1136 C1131 1.342 . S
C1136 C1134 1.285 . S
C1136 H1155 0.930 . S
C1137 C1140 1.425 . S
C1137 C1142 1.245 1_565 S
C1137 C1143 1.427 1_565 S
C1138 C1141 1.260 . S
C1138 C1142 1.473 1_565 S
C1138 H1156 0.932 . S
C1139 C1140 1.384 . S
C1139 C1141 1.479 . S
C1139 H1157 0.929 . S
C1140 C1137 1.425 . S
C1140 C1139 1.384 . S
C1140 H1158 0.928 . S
C1141 C1138 1.260 . S
C1141 C1139 1.479 . S
C1142 C1137 1.245 1_545 S
C1142 C1138 1.473 1_545 S
C1142 H1159 0.936 . S
C1143 U1126 2.882 . S
C1143 C1137 1.427 1_545 S
C1143 O1146 1.301 . S
C1143 O1147 1.282 . S
O1144 U1126 2.441 . S
O1144 C1130 1.249 . S
O1145 U1126 2.420 . S
O1145 C1130 1.202 . S
O1146 U1126 2.455 . S
O1146 C1143 1.301 . S
O1147 U1126 2.449 . S
O1147 C1143 1.282 . S
H1148 C1121 0.931 . S
H1149 C1123 0.929 . S
H1150 C1124 0.930 . S
H1151 C1125 0.932 1_545 S
H1152 C1132 0.932 . S
H1153 C1133 0.930 . S
H1154 C1134 0.929 . S
H1155 C1136 0.930 . S
H1156 C1138 0.932 . S
H1157 C1139 0.929 . S
H1158 C1140 0.928 . S
H1159 C1142 0.936 . S
C1160 C1161 1.264 . S
C1160 C1165 1.479 . S
C1160 C1170 1.465 . S
C1161 C1160 1.264 . S
C1161 C1163 1.339 . S
C1161 H1188 0.931 . S
C1162 C1163 1.395 . S
C1162 C1164 1.320 . S
C1163 C1161 1.339 . S
C1163 C1162 1.395 . S
C1163 H1189 0.929 . S
C1164 C1162 1.320 . S
C1164 C1165 1.405 . S
C1164 H1190 0.930 . S
C1165 C1160 1.479 . S
C1165 C1164 1.405 . S
C1165 H1191 0.931 . S
U1166 O1167 2.454 . S
U1166 O1168 2.458 . S
U1166 C1169 2.984 . S
U1166 C1170 2.847 . S
U1166 C1183 2.882 . S
U1166 O1184 2.441 . S
U1166 O1185 2.420 . S
U1166 O1186 2.455 . S
U1166 O1187 2.449 . S
O1167 U1166 2.454 . S
O1167 C1169 1.353 . S
O1168 U1166 2.458 . S
O1168 C1169 1.286 . S
C1169 U1166 2.984 . S
C1169 O1167 1.353 . S
C1169 O1168 1.286 . S
C1169 C1171 1.363 . S
C1170 C1160 1.465 . S
C1170 U1166 2.847 . S
C1170 O1184 1.249 . S
C1170 O1185 1.202 . S
C1171 C1169 1.363 . S
C1171 C1173 1.408 . S
C1171 C1176 1.342 . S
C1172 C1173 1.310 . S
C1172 C1175 1.461 . S
C1172 H1192 0.932 . S
C1173 C1171 1.408 . S
C1173 C1172 1.310 . S
C1173 H1193 0.930 . S
C1174 C1175 1.474 . S
C1174 C1176 1.285 . S
C1174 H1194 0.929 . S
C1175 C1172 1.461 . S
C1175 C1174 1.474 . S
C1176 C1171 1.342 . S
C1176 C1174 1.285 . S
C1176 H1195 0.930 . S
C1177 C1180 1.424 . S
C1177 C1182 1.245 . S
C1177 C1183 1.428 . S
C1178 C1181 1.260 . S
C1178 C1182 1.477 . S
C1178 H1196 0.932 . S
C1179 C1180 1.384 . S
C1179 C1181 1.479 . S
C1179 H1197 0.929 . S
C1180 C1177 1.424 . S
C1180 C1179 1.384 . S
C1180 H1198 0.928 . S
C1181 C1178 1.260 . S
C1181 C1179 1.479 . S
C1182 C1177 1.245 . S
C1182 C1178 1.477 . S
C1182 H1199 0.932 . S
C1183 U1166 2.882 . S
C1183 C1177 1.428 . S
C1183 O1186 1.301 . S
C1183 O1187 1.282 . S
O1184 U1166 2.441 . S
O1184 C1170 1.249 . S
O1185 U1166 2.420 . S
O1185 C1170 1.202 . S
O1186 U1166 2.455 . S
O1186 C1183 1.301 . S
O1187 U1166 2.449 . S
O1187 C1183 1.282 . S
H1188 C1161 0.931 . S
H1189 C1163 0.929 . S
H1190 C1164 0.930 . S
H1191 C1165 0.931 . S
H1192 C1172 0.932 . S
H1193 C1173 0.930 . S
H1194 C1174 0.929 . S
H1195 C1176 0.930 . S
H1196 C1178 0.932 . S
H1197 C1179 0.929 . S
H1198 C1180 0.928 . S
H1199 C1182 0.932 . S
C1200 C1201 1.264 . S
C1200 C1205 1.479 . S
C1200 C1210 1.465 1_545 S
C1201 C1200 1.264 . S
C1201 C1203 1.339 . S
C1201 H1228 0.931 . S
C1202 C1203 1.395 . S
C1202 C1204 1.320 . S
C1203 C1201 1.339 . S
C1203 C1202 1.395 . S
C1203 H1229 0.929 . S
C1204 C1202 1.320 . S
C1204 C1205 1.404 . S
C1204 H1230 0.930 . S
C1205 C1200 1.479 . S
C1205 C1204 1.404 . S
C1205 H1231 0.932 1_545 S
U1206 O1207 2.454 . S
U1206 O1208 2.458 . S
U1206 C1209 2.984 . S
U1206 C1210 2.847 . S
U1206 C1223 2.882 . S
U1206 O1224 2.441 . S
U1206 O1225 2.420 . S
U1206 O1226 2.455 . S
U1206 O1227 2.449 . S
O1207 U1206 2.454 . S
O1207 C1209 1.353 . S
O1208 U1206 2.458 . S
O1208 C1209 1.286 . S
C1209 U1206 2.984 . S
C1209 O1207 1.353 . S
C1209 O1208 1.286 . S
C1209 C1211 1.363 . S
C1210 C1200 1.465 1_565 S
C1210 U1206 2.847 . S
C1210 O1224 1.249 . S
C1210 O1225 1.202 . S
C1211 C1209 1.363 . S
C1211 C1213 1.408 . S
C1211 C1216 1.342 . S
C1212 C1213 1.310 . S
C1212 C1215 1.461 . S
C1212 H1232 0.932 . S
C1213 C1211 1.408 . S
C1213 C1212 1.310 . S
C1213 H1233 0.930 . S
C1214 C1215 1.474 . S
C1214 C1216 1.285 . S
C1214 H1234 0.929 . S
C1215 C1212 1.461 . S
C1215 C1214 1.474 . S
C1216 C1211 1.342 . S
C1216 C1214 1.285 . S
C1216 H1235 0.930 . S
C1217 C1220 1.425 . S
C1217 C1222 1.245 1_545 S
C1217 C1223 1.427 1_545 S
C1218 C1221 1.260 . S
C1218 C1222 1.473 1_545 S
C1218 H1236 0.932 . S
C1219 C1220 1.384 . S
C1219 C1221 1.479 . S
C1219 H1237 0.929 . S
C1220 C1217 1.425 . S
C1220 C1219 1.384 . S
C1220 H1238 0.928 . S
C1221 C1218 1.260 . S
C1221 C1219 1.479 . S
C1222 C1217 1.245 1_565 S
C1222 C1218 1.473 1_565 S
C1222 H1239 0.936 . S
C1223 U1206 2.882 . S
C1223 C1217 1.427 1_565 S
C1223 O1226 1.301 . S
C1223 O1227 1.282 . S
O1224 U1206 2.441 . S
O1224 C1210 1.249 . S
O1225 U1206 2.420 . S
O1225 C1210 1.202 . S
O1226 U1206 2.455 . S
O1226 C1223 1.301 . S
O1227 U1206 2.449 . S
O1227 C1223 1.282 . S
H1228 C1201 0.931 . S
H1229 C1203 0.929 . S
H1230 C1204 0.930 . S
H1231 C1205 0.932 1_565 S
H1232 C1212 0.932 . S
H1233 C1213 0.930 . S
H1234 C1214 0.929 . S
H1235 C1216 0.930 . S
H1236 C1218 0.932 . S
H1237 C1219 0.929 . S
H1238 C1220 0.928 . S
H1239 C1222 0.936 . S
C1240 C1241 1.264 . S
C1240 C1245 1.479 . S
C1240 C1250 1.465 . S
C1241 C1240 1.264 . S
C1241 C1243 1.339 . S
C1241 H1268 0.931 . S
C1242 C1243 1.395 . S
C1242 C1244 1.320 . S
C1243 C1241 1.339 . S
C1243 C1242 1.395 . S
C1243 H1269 0.929 . S
C1244 C1242 1.320 . S
C1244 C1245 1.405 . S
C1244 H1270 0.930 . S
C1245 C1240 1.479 . S
C1245 C1244 1.405 . S
C1245 H1271 0.931 . S
U1246 O1247 2.454 . S
U1246 O1248 2.458 . S
U1246 C1249 2.984 . S
U1246 C1250 2.847 . S
U1246 C1263 2.882 . S
U1246 O1264 2.441 . S
U1246 O1265 2.420 . S
U1246 O1266 2.455 . S
U1246 O1267 2.449 . S
O1247 U1246 2.454 . S
O1247 C1249 1.353 . S
O1248 U1246 2.458 . S
O1248 C1249 1.286 . S
C1249 U1246 2.984 . S
C1249 O1247 1.353 . S
C1249 O1248 1.286 . S
C1249 C1251 1.363 . S
C1250 C1240 1.465 . S
C1250 U1246 2.847 . S
C1250 O1264 1.249 . S
C1250 O1265 1.202 . S
C1251 C1249 1.363 . S
C1251 C1253 1.408 . S
C1251 C1256 1.342 . S
C1252 C1253 1.310 . S
C1252 C1255 1.461 . S
C1252 H1272 0.932 . S
C1253 C1251 1.408 . S
C1253 C1252 1.310 . S
C1253 H1273 0.930 . S
C1254 C1255 1.474 . S
C1254 C1256 1.285 . S
C1254 H1274 0.929 . S
C1255 C1252 1.461 . S
C1255 C1254 1.474 . S
C1256 C1251 1.342 . S
C1256 C1254 1.285 . S
C1256 H1275 0.930 . S
C1257 C1260 1.424 . S
C1257 C1262 1.245 . S
C1257 C1263 1.428 . S
C1258 C1261 1.260 . S
C1258 C1262 1.477 . S
C1258 H1276 0.932 . S
C1259 C1260 1.384 . S
C1259 C1261 1.479 . S
C1259 H1277 0.929 . S
C1260 C1257 1.424 . S
C1260 C1259 1.384 . S
C1260 H1278 0.928 . S
C1261 C1258 1.260 . S
C1261 C1259 1.479 . S
C1262 C1257 1.245 . S
C1262 C1258 1.477 . S
C1262 H1279 0.932 . S
C1263 U1246 2.882 . S
C1263 C1257 1.428 . S
C1263 O1266 1.301 . S
C1263 O1267 1.282 . S
O1264 U1246 2.441 . S
O1264 C1250 1.249 . S
O1265 U1246 2.420 . S
O1265 C1250 1.202 . S
O1266 U1246 2.455 . S
O1266 C1263 1.301 . S
O1267 U1246 2.449 . S
O1267 C1263 1.282 . S
H1268 C1241 0.931 . S
H1269 C1243 0.929 . S
H1270 C1244 0.930 . S
H1271 C1245 0.931 . S
H1272 C1252 0.932 . S
H1273 C1253 0.930 . S
H1274 C1254 0.929 . S
H1275 C1256 0.930 . S
H1276 C1258 0.932 . S
H1277 C1259 0.929 . S
H1278 C1260 0.928 . S
H1279 C1262 0.932 . S
C1280 C1281 1.363 1_554 S
C1280 C1286 1.379 . S
C1280 N1288 1.365 . S
C1281 C1280 1.363 1_556 S
C1281 C1287 1.363 . S
C1282 C1283 1.363 1_556 S
C1282 C1287 1.379 . S
C1282 N1289 1.368 . S
C1283 C1282 1.363 1_554 S
C1283 C1286 1.363 . S
N1284 C1286 1.356 . S
N1284 H1296 0.984 . S
N1284 H1297 0.985 . S
N1285 C1287 1.356 . S
N1285 H1290 0.984 . S
N1285 H1291 0.985 . S
C1286 C1280 1.379 . S
C1286 C1283 1.363 . S
C1286 N1284 1.356 . S
C1287 C1281 1.363 . S
C1287 C1282 1.379 . S
C1287 N1285 1.356 . S
N1288 C1280 1.365 . S
N1288 H1294 1.037 . S
N1288 H1295 0.926 1_554 S
N1289 C1282 1.368 . S
N1289 H1292 0.911 1_556 S
N1289 H1293 1.051 . S
H1290 N1285 0.984 . S
H1291 N1285 0.985 . S
H1292 N1289 0.911 1_554 S
H1293 N1289 1.051 . S
H1294 N1288 1.037 . S
H1295 N1288 0.926 1_556 S
H1296 N1284 0.984 . S
H1297 N1284 0.985 . S
C1298 C1299 1.363 . S
C1298 C1304 1.379 . S
C1298 N1306 1.356 . S
C1299 C1298 1.363 . S
C1299 C1305 1.363 . S
C1300 C1301 1.363 . S
C1300 C1305 1.379 . S
C1300 N1307 1.356 . S
C1301 C1300 1.363 . S
C1301 C1304 1.363 . S
N1302 C1304 1.356 . S
N1302 H1314 0.984 . S
N1302 H1315 0.985 . S
N1303 C1305 1.356 . S
N1303 H1308 0.984 . S
N1303 H1309 0.985 . S
C1304 C1298 1.379 . S
C1304 C1301 1.363 . S
C1304 N1302 1.356 . S
C1305 C1299 1.363 . S
C1305 C1300 1.379 . S
C1305 N1303 1.356 . S
N1306 C1298 1.356 . S
N1306 H1312 0.984 . S
N1306 H1313 0.984 . S
N1307 C1300 1.356 . S
N1307 H1310 0.984 . S
N1307 H1311 0.985 . S
H1308 N1303 0.984 . S
H1309 N1303 0.985 . S
H1310 N1307 0.984 . S
H1311 N1307 0.985 . S
H1312 N1306 0.984 . S
H1313 N1306 0.984 . S
H1314 N1302 0.984 . S
H1315 N1302 0.985 . S
C1316 C1317 1.363 . S
C1316 C1322 1.379 . S
C1316 N1324 1.356 . S
C1317 C1316 1.363 . S
C1317 C1323 1.363 . S
C1318 C1319 1.363 . S
C1318 C1323 1.379 . S
C1318 N1325 1.356 . S
C1319 C1318 1.363 . S
C1319 C1322 1.363 . S
N1320 C1322 1.356 . S
N1320 H1332 0.984 . S
N1320 H1333 0.985 . S
N1321 C1323 1.356 . S
N1321 H1326 0.984 . S
N1321 H1327 0.985 . S
C1322 C1316 1.379 . S
C1322 C1319 1.363 . S
C1322 N1320 1.356 . S
C1323 C1317 1.363 . S
C1323 C1318 1.379 . S
C1323 N1321 1.356 . S
N1324 C1316 1.356 . S
N1324 H1330 0.984 . S
N1324 H1331 0.984 . S
N1325 C1318 1.356 . S
N1325 H1328 0.984 . S
N1325 H1329 0.985 . S
H1326 N1321 0.984 . S
H1327 N1321 0.985 . S
H1328 N1325 0.984 . S
H1329 N1325 0.985 . S
H1330 N1324 0.984 . S
H1331 N1324 0.984 . S
H1332 N1320 0.984 . S
H1333 N1320 0.985 . S
C1334 C1335 1.363 . S
C1334 C1340 1.379 . S
C1334 N1342 1.356 . S
C1335 C1334 1.363 . S
C1335 C1341 1.363 . S
C1336 C1337 1.363 . S
C1336 C1341 1.379 . S
C1336 N1343 1.356 . S
C1337 C1336 1.363 . S
C1337 C1340 1.363 . S
N1338 C1340 1.356 . S
N1338 H1350 0.984 . S
N1338 H1351 0.985 . S
N1339 C1341 1.356 . S
N1339 H1344 0.984 . S
N1339 H1345 0.985 . S
C1340 C1334 1.379 . S
C1340 C1337 1.363 . S
C1340 N1338 1.356 . S
C1341 C1335 1.363 . S
C1341 C1336 1.379 . S
C1341 N1339 1.356 . S
N1342 C1334 1.356 . S
N1342 H1348 0.984 . S
N1342 H1349 0.984 . S
N1343 C1336 1.356 . S
N1343 H1346 0.984 . S
N1343 H1347 0.985 . S
H1344 N1339 0.984 . S
H1345 N1339 0.985 . S
H1346 N1343 0.984 . S
H1347 N1343 0.985 . S
H1348 N1342 0.984 . S
H1349 N1342 0.984 . S
H1350 N1338 0.984 . S
H1351 N1338 0.985 . S
C1352 C1353 1.335 1_556 S
C1352 C1358 1.405 . S
C1352 N1360 1.349 1_556 S
C1353 C1352 1.335 1_554 S
C1353 C1359 1.363 . S
C1354 C1355 1.321 1_554 S
C1354 C1359 1.418 . S
C1354 N1361 1.346 1_554 S
C1355 C1354 1.321 1_556 S
C1355 C1358 1.363 . S
N1356 C1358 1.356 . S
N1356 H1368 0.984 . S
N1356 H1369 0.985 . S
N1357 C1359 1.356 . S
N1357 H1362 0.984 . S
N1357 H1363 0.985 . S
C1358 C1352 1.405 . S
C1358 C1355 1.363 . S
C1358 N1356 1.356 . S
C1359 C1353 1.363 . S
C1359 C1354 1.418 . S
C1359 N1357 1.356 . S
N1360 C1352 1.349 1_554 S
N1360 H1366 0.984 1_554 S
N1360 H1367 0.984 . S
N1361 C1354 1.346 1_556 S
N1361 H1364 0.984 . S
N1361 H1365 0.985 1_556 S
H1362 N1357 0.984 . S
H1363 N1357 0.985 . S
H1364 N1361 0.984 . S
H1365 N1361 0.985 1_554 S
H1366 N1360 0.984 1_556 S
H1367 N1360 0.984 . S
H1368 N1356 0.984 . S
H1369 N1356 0.985 . S
C1370 C1371 1.363 . S
C1370 C1376 1.379 . S
C1370 N1378 1.356 . S
C1371 C1370 1.363 . S
C1371 C1377 1.363 . S
C1372 C1373 1.363 . S
C1372 C1377 1.379 . S
C1372 N1379 1.356 . S
C1373 C1372 1.363 . S
C1373 C1376 1.363 . S
N1374 C1376 1.356 . S
N1374 H1386 0.984 . S
N1374 H1387 0.985 . S
N1375 C1377 1.356 . S
N1375 H1380 0.984 . S
N1375 H1381 0.985 . S
C1376 C1370 1.379 . S
C1376 C1373 1.363 . S
C1376 N1374 1.356 . S
C1377 C1371 1.363 . S
C1377 C1372 1.379 . S
C1377 N1375 1.356 . S
N1378 C1370 1.356 . S
N1378 H1384 0.984 . S
N1378 H1385 0.984 . S
N1379 C1372 1.356 . S
N1379 H1382 0.984 . S
N1379 H1383 0.985 . S
H1380 N1375 0.984 . S
H1381 N1375 0.985 . S
H1382 N1379 0.984 . S
H1383 N1379 0.985 . S
H1384 N1378 0.984 . S
H1385 N1378 0.984 . S
H1386 N1374 0.984 . S
H1387 N1374 0.985 . S
C1388 C1389 1.363 . S
C1388 C1394 1.379 . S
C1388 N1396 1.356 . S
C1389 C1388 1.363 . S
C1389 C1395 1.363 . S
C1390 C1391 1.363 . S
C1390 C1395 1.379 . S
C1390 N1397 1.356 . S
C1391 C1390 1.363 . S
C1391 C1394 1.363 . S
N1392 C1394 1.356 . S
N1392 H1404 0.984 . S
N1392 H1405 0.985 . S
N1393 C1395 1.356 . S
N1393 H1398 0.984 . S
N1393 H1399 0.985 . S
C1394 C1388 1.379 . S
C1394 C1391 1.363 . S
C1394 N1392 1.356 . S
C1395 C1389 1.363 . S
C1395 C1390 1.379 . S
C1395 N1393 1.356 . S
N1396 C1388 1.356 . S
N1396 H1402 0.984 . S
N1396 H1403 0.984 . S
N1397 C1390 1.356 . S
N1397 H1400 0.984 . S
N1397 H1401 0.985 . S
H1398 N1393 0.984 . S
H1399 N1393 0.985 . S
H1400 N1397 0.984 . S
H1401 N1397 0.985 . S
H1402 N1396 0.984 . S
H1403 N1396 0.984 . S
H1404 N1392 0.984 . S
H1405 N1392 0.985 . S
C1406 C1407 1.363 . S
C1406 C1412 1.379 . S
C1406 N1414 1.356 . S
C1407 C1406 1.363 . S
C1407 C1413 1.363 . S
C1408 C1409 1.363 . S
C1408 C1413 1.379 . S
C1408 N1415 1.356 . S
C1409 C1408 1.363 . S
C1409 C1412 1.363 . S
N1410 C1412 1.356 . S
N1410 H1422 0.984 . S
N1410 H1423 0.985 . S
N1411 C1413 1.356 . S
N1411 H1416 0.984 . S
N1411 H1417 0.985 . S
C1412 C1406 1.379 . S
C1412 C1409 1.363 . S
C1412 N1410 1.356 . S
C1413 C1407 1.363 . S
C1413 C1408 1.379 . S
C1413 N1411 1.356 . S
N1414 C1406 1.356 . S
N1414 H1420 0.984 . S
N1414 H1421 0.984 . S
N1415 C1408 1.356 . S
N1415 H1418 0.984 . S
N1415 H1419 0.985 . S
H1416 N1411 0.984 . S
H1417 N1411 0.985 . S
H1418 N1415 0.984 . S
H1419 N1415 0.985 . S
H1420 N1414 0.984 . S
H1421 N1414 0.984 . S
H1422 N1410 0.984 . S
H1423 N1410 0.985 . S
C1424 C1425 1.363 1_545 S
C1424 C1430 1.379 . S
C1424 N1432 1.356 . S
C1425 C1424 1.363 1_565 S
C1425 C1431 1.363 . S
C1426 C1427 1.363 1_565 S
C1426 C1431 1.379 . S
C1426 N1433 1.356 . S
C1427 C1426 1.363 1_545 S
C1427 C1430 1.363 . S
N1428 C1430 1.356 . S
N1428 H1440 0.984 . S
N1428 H1441 0.985 . S
N1429 C1431 1.356 . S
N1429 H1434 0.984 . S
N1429 H1435 0.985 . S
C1430 C1424 1.379 . S
C1430 C1427 1.363 . S
C1430 N1428 1.356 . S
C1431 C1425 1.363 . S
C1431 C1426 1.379 . S
C1431 N1429 1.356 . S
N1432 C1424 1.356 . S
N1432 H1438 0.984 . S
N1432 H1439 0.984 1_545 S
N1433 C1426 1.356 . S
N1433 H1436 0.984 1_565 S
N1433 H1437 0.985 . S
H1434 N1429 0.984 . S
H1435 N1429 0.985 . S
H1436 N1433 0.984 1_545 S
H1437 N1433 0.985 . S
H1438 N1432 0.984 . S
H1439 N1432 0.984 1_565 S
H1440 N1428 0.984 . S
H1441 N1428 0.985 . S
C1442 C1443 1.363 . S
C1442 C1448 1.379 . S
C1442 N1450 1.356 . S
C1443 C1442 1.363 . S
C1443 C1449 1.363 . S
C1444 C1445 1.363 . S
C1444 C1449 1.379 . S
C1444 N1451 1.356 . S
C1445 C1444 1.363 . S
C1445 C1448 1.363 . S
N1446 C1448 1.356 . S
N1446 H1458 0.984 . S
N1446 H1459 0.985 . S
N1447 C1449 1.356 . S
N1447 H1452 0.984 . S
N1447 H1453 0.985 . S
C1448 C1442 1.379 . S
C1448 C1445 1.363 . S
C1448 N1446 1.356 . S
C1449 C1443 1.363 . S
C1449 C1444 1.379 . S
C1449 N1447 1.356 . S
N1450 C1442 1.356 . S
N1450 H1456 0.984 . S
N1450 H1457 0.984 . S
N1451 C1444 1.356 . S
N1451 H1454 0.984 . S
N1451 H1455 0.985 . S
H1452 N1447 0.984 . S
H1453 N1447 0.985 . S
H1454 N1451 0.984 . S
H1455 N1451 0.985 . S
H1456 N1450 0.984 . S
H1457 N1450 0.984 . S
H1458 N1446 0.984 . S
H1459 N1446 0.985 . S
C1460 C1461 1.440 . S
C1460 C1466 1.300 1_554 S
C1460 N1468 1.391 . S
C1461 C1460 1.440 . S
C1461 C1467 1.363 1_545 S
C1462 C1463 1.431 . S
C1462 C1467 1.308 1_556 S
C1462 N1469 1.387 . S
C1463 C1462 1.431 . S
C1463 C1466 1.363 1_565 S
N1464 C1466 1.356 . S
N1464 H1476 0.984 . S
N1464 H1477 0.985 . S
N1465 C1467 1.356 . S
N1465 H1470 0.984 . S
N1465 H1471 0.985 . S
C1466 C1460 1.300 1_556 S
C1466 C1463 1.363 1_545 S
C1466 N1464 1.356 . S
C1467 C1461 1.363 1_565 S
C1467 C1462 1.308 1_554 S
C1467 N1465 1.356 . S
N1468 C1460 1.391 . S
N1468 H1474 0.975 1_554 S
N1468 H1475 0.984 . S
N1469 C1462 1.387 . S
N1469 H1472 0.984 . S
N1469 H1473 0.969 1_556 S
H1470 N1465 0.984 . S
H1471 N1465 0.985 . S
H1472 N1469 0.984 . S
H1473 N1469 0.969 1_554 S
H1474 N1468 0.975 1_556 S
H1475 N1468 0.984 . S
H1476 N1464 0.984 . S
H1477 N1464 0.985 . S
C1478 C1479 1.363 . S
C1478 C1484 1.379 . S
C1478 N1486 1.356 . S
C1479 C1478 1.363 . S
C1479 C1485 1.363 . S
C1480 C1481 1.363 . S
C1480 C1485 1.379 . S
C1480 N1487 1.356 . S
C1481 C1480 1.363 . S
C1481 C1484 1.363 . S
N1482 C1484 1.356 . S
N1482 H1494 0.984 . S
N1482 H1495 0.985 . S
N1483 C1485 1.356 . S
N1483 H1488 0.984 . S
N1483 H1489 0.985 . S
C1484 C1478 1.379 . S
C1484 C1481 1.363 . S
C1484 N1482 1.356 . S
C1485 C1479 1.363 . S
C1485 C1480 1.379 . S
C1485 N1483 1.356 . S
N1486 C1478 1.356 . S
N1486 H1492 0.984 . S
N1486 H1493 0.984 . S
N1487 C1480 1.356 . S
N1487 H1490 0.984 . S
N1487 H1491 0.985 . S
H1488 N1483 0.984 . S
H1489 N1483 0.985 . S
H1490 N1487 0.984 . S
H1491 N1487 0.985 . S
H1492 N1486 0.984 . S
H1493 N1486 0.984 . S
H1494 N1482 0.984 . S
H1495 N1482 0.985 . S
C1496 C1497 1.363 1_565 S
C1496 C1502 1.379 . S
C1496 N1504 1.356 . S
C1497 C1496 1.363 1_545 S
C1497 C1503 1.363 . S
C1498 C1499 1.363 1_545 S
C1498 C1503 1.379 . S
C1498 N1505 1.356 . S
C1499 C1498 1.363 1_565 S
C1499 C1502 1.363 . S
N1500 C1502 1.356 . S
N1500 H1512 0.984 . S
N1500 H1513 0.985 . S
N1501 C1503 1.356 . S
N1501 H1506 0.984 . S
N1501 H1507 0.985 . S
C1502 C1496 1.379 . S
C1502 C1499 1.363 . S
C1502 N1500 1.356 . S
C1503 C1497 1.363 . S
C1503 C1498 1.379 . S
C1503 N1501 1.356 . S
N1504 C1496 1.356 . S
N1504 H1510 0.984 . S
N1504 H1511 0.984 . S
N1505 C1498 1.356 . S
N1505 H1508 0.984 . S
N1505 H1509 0.985 . S
H1506 N1501 0.984 . S
H1507 N1501 0.985 . S
H1508 N1505 0.984 . S
H1509 N1505 0.985 . S
H1510 N1504 0.984 . S
H1511 N1504 0.984 . S
H1512 N1500 0.984 . S
H1513 N1500 0.985 . S
C1514 C1515 1.363 . S
C1514 C1520 1.379 . S
C1514 N1522 1.356 . S
C1515 C1514 1.363 . S
C1515 C1521 1.363 . S
C1516 C1517 1.363 . S
C1516 C1521 1.379 . S
C1516 N1523 1.356 . S
C1517 C1516 1.363 . S
C1517 C1520 1.363 . S
N1518 C1520 1.356 . S
N1518 H1530 0.984 . S
N1518 H1531 0.985 . S
N1519 C1521 1.356 . S
N1519 H1524 0.984 . S
N1519 H1525 0.985 . S
C1520 C1514 1.379 . S
C1520 C1517 1.363 . S
C1520 N1518 1.356 . S
C1521 C1515 1.363 . S
C1521 C1516 1.379 . S
C1521 N1519 1.356 . S
N1522 C1514 1.356 . S
N1522 H1528 0.984 . S
N1522 H1529 0.984 . S
N1523 C1516 1.356 . S
N1523 H1526 0.984 . S
N1523 H1527 0.985 . S
H1524 N1519 0.984 . S
H1525 N1519 0.985 . S
H1526 N1523 0.984 . S
H1527 N1523 0.985 . S
H1528 N1522 0.984 . S
H1529 N1522 0.984 . S
H1530 N1518 0.984 . S
H1531 N1518 0.985 . S
C1532 C1533 1.363 1_545 S
C1532 C1538 1.379 1_556 S
C1532 N1540 1.356 . S
C1533 C1532 1.363 1_565 S
C1533 C1539 1.363 . S
C1534 C1535 1.363 1_565 S
C1534 C1539 1.379 1_554 S
C1534 N1541 1.356 . S
C1535 C1534 1.363 1_545 S
C1535 C1538 1.363 . S
N1536 C1538 1.356 . S
N1536 H1548 0.984 . S
N1536 H1549 0.985 . S
N1537 C1539 1.356 . S
N1537 H1542 0.984 . S
N1537 H1543 0.985 . S
C1538 C1532 1.379 1_554 S
C1538 C1535 1.363 . S
C1538 N1536 1.356 . S
C1539 C1533 1.363 . S
C1539 C1534 1.379 1_556 S
C1539 N1537 1.356 . S
N1540 C1532 1.356 . S
N1540 H1546 0.984 . S
N1540 H1547 0.984 . S
N1541 C1534 1.356 . S
N1541 H1544 1.028 . S
N1541 H1545 0.985 . S
H1542 N1537 0.984 . S
H1543 N1537 0.985 . S
H1544 N1541 1.028 . S
H1545 N1541 0.985 . S
H1546 N1540 0.984 . S
H1547 N1540 0.984 . S
H1548 N1536 0.984 . S
H1549 N1536 0.985 . S
C1550 C1551 1.363 . S
C1550 C1556 1.379 . S
C1550 N1558 1.356 . S
C1551 C1550 1.363 . S
C1551 C1557 1.363 . S
C1552 C1553 1.363 . S
C1552 C1557 1.379 . S
C1552 N1559 1.356 . S
C1553 C1552 1.363 . S
C1553 C1556 1.363 . S
N1554 C1556 1.356 . S
N1554 H1566 0.984 . S
N1554 H1567 0.985 . S
N1555 C1557 1.356 . S
N1555 H1560 0.984 . S
N1555 H1561 0.985 . S
C1556 C1550 1.379 . S
C1556 C1553 1.363 . S
C1556 N1554 1.356 . S
C1557 C1551 1.363 . S
C1557 C1552 1.379 . S
C1557 N1555 1.356 . S
N1558 C1550 1.356 . S
N1558 H1564 0.984 . S
N1558 H1565 0.984 . S
N1559 C1552 1.356 . S
N1559 H1562 0.984 . S
N1559 H1563 0.985 . S
H1560 N1555 0.984 . S
H1561 N1555 0.985 . S
H1562 N1559 0.984 . S
H1563 N1559 0.985 . S
H1564 N1558 0.984 . S
H1565 N1558 0.984 . S
H1566 N1554 0.984 . S
H1567 N1554 0.985 . S
C1568 C1569 1.363 . S
C1568 C1574 1.379 1_655 S
C1568 N1576 1.356 . S
C1569 C1568 1.363 . S
C1569 C1575 1.363 . S
C1570 C1571 1.363 . S
C1570 C1575 1.379 1_455 S
C1570 N1577 1.356 . S
C1571 C1570 1.363 . S
C1571 C1574 1.363 . S
N1572 C1574 1.356 . S
N1572 H1584 0.984 . S
N1572 H1585 0.985 . S
N1573 C1575 1.356 . S
N1573 H1578 0.984 . S
N1573 H1579 0.985 . S
C1574 C1568 1.379 1_455 S
C1574 C1571 1.363 . S
C1574 N1572 1.356 . S
C1575 C1569 1.363 . S
C1575 C1570 1.379 1_655 S
C1575 N1573 1.356 . S
N1576 C1568 1.356 . S
N1576 H1582 0.984 . S
N1576 H1583 0.984 . S
N1577 C1570 1.356 . S
N1577 H1580 0.984 . S
N1577 H1581 0.985 . S
H1578 N1573 0.984 . S
H1579 N1573 0.985 . S
H1580 N1577 0.984 . S
H1581 N1577 0.985 . S
H1582 N1576 0.984 . S
H1583 N1576 0.984 . S
H1584 N1572 0.984 . S
H1585 N1572 0.985 . S
C1586 C1587 1.363 . S
C1586 C1592 1.379 . S
C1586 N1594 1.356 . S
C1587 C1586 1.363 . S
C1587 C1593 1.363 . S
C1588 C1589 1.363 . S
C1588 C1593 1.379 . S
C1588 N1595 1.356 . S
C1589 C1588 1.363 . S
C1589 C1592 1.363 . S
N1590 C1592 1.356 . S
N1590 H1602 0.984 . S
N1590 H1603 0.985 . S
N1591 C1593 1.356 . S
N1591 H1596 0.984 . S
N1591 H1597 0.985 . S
C1592 C1586 1.379 . S
C1592 C1589 1.363 . S
C1592 N1590 1.356 . S
C1593 C1587 1.363 . S
C1593 C1588 1.379 . S
C1593 N1591 1.356 . S
N1594 C1586 1.356 . S
N1594 H1600 0.984 . S
N1594 H1601 0.984 . S
N1595 C1588 1.356 . S
N1595 H1598 0.984 . S
N1595 H1599 0.985 . S
H1596 N1591 0.984 . S
H1597 N1591 0.985 . S
H1598 N1595 0.984 . S
H1599 N1595 0.985 . S
H1600 N1594 0.984 . S
H1601 N1594 0.984 . S
H1602 N1590 0.984 . S
H1603 N1590 0.985 . S
C1604 C1605 1.363 . S
C1604 C1610 1.379 . S
C1604 N1612 1.356 . S
C1605 C1604 1.363 . S
C1605 C1611 1.363 . S
C1606 C1607 1.363 . S
C1606 C1611 1.379 . S
C1606 N1613 1.356 . S
C1607 C1606 1.363 . S
C1607 C1610 1.363 . S
N1608 C1610 1.356 . S
N1608 H1620 0.984 . S
N1608 H1621 0.985 . S
N1609 C1611 1.356 . S
N1609 H1614 0.984 . S
N1609 H1615 0.985 . S
C1610 C1604 1.379 . S
C1610 C1607 1.363 . S
C1610 N1608 1.356 . S
C1611 C1605 1.363 . S
C1611 C1606 1.379 . S
C1611 N1609 1.356 . S
N1612 C1604 1.356 . S
N1612 H1618 0.984 . S
N1612 H1619 0.984 . S
N1613 C1606 1.356 . S
N1613 H1616 0.984 . S
N1613 H1617 0.985 . S
H1614 N1609 0.984 . S
H1615 N1609 0.985 . S
H1616 N1613 0.984 . S
H1617 N1613 0.985 . S
H1618 N1612 0.984 . S
H1619 N1612 0.984 . S
H1620 N1608 0.984 . S
H1621 N1608 0.985 . S
C1622 C1623 1.363 . S
C1622 C1628 1.379 . S
C1622 N1630 1.356 . S
C1623 C1622 1.363 . S
C1623 C1629 1.363 . S
C1624 C1625 1.363 . S
C1624 C1629 1.379 . S
C1624 N1631 1.356 . S
C1625 C1624 1.363 . S
C1625 C1628 1.363 . S
N1626 C1628 1.356 . S
N1626 H1638 0.984 . S
N1626 H1639 0.985 . S
N1627 C1629 1.356 . S
N1627 H1632 0.984 . S
N1627 H1633 0.985 . S
C1628 C1622 1.379 . S
C1628 C1625 1.363 . S
C1628 N1626 1.356 . S
C1629 C1623 1.363 . S
C1629 C1624 1.379 . S
C1629 N1627 1.356 . S
N1630 C1622 1.356 . S
N1630 H1636 0.984 . S
N1630 H1637 0.984 . S
N1631 C1624 1.356 . S
N1631 H1634 0.984 . S
N1631 H1635 0.985 . S
H1632 N1627 0.984 . S
H1633 N1627 0.985 . S
H1634 N1631 0.984 . S
H1635 N1631 0.985 . S
H1636 N1630 0.984 . S
H1637 N1630 0.984 . S
H1638 N1626 0.984 . S
H1639 N1626 0.985 . S
C1640 C1641 1.363 . S
C1640 C1646 1.379 1_655 S
C1640 N1648 1.356 . S
C1641 C1640 1.363 . S
C1641 C1647 1.363 . S
C1642 C1643 1.363 . S
C1642 C1647 1.379 1_455 S
C1642 N1649 1.356 . S
C1643 C1642 1.363 . S
C1643 C1646 1.363 . S
N1644 C1646 1.356 . S
N1644 H1656 0.984 . S
N1644 H1657 0.985 . S
N1645 C1647 1.356 . S
N1645 H1650 0.984 . S
N1645 H1651 0.985 . S
C1646 C1640 1.379 1_455 S
C1646 C1643 1.363 . S
C1646 N1644 1.356 . S
C1647 C1641 1.363 . S
C1647 C1642 1.379 1_655 S
C1647 N1645 1.356 . S
N1648 C1640 1.356 . S
N1648 H1654 0.984 . S
N1648 H1655 0.984 . S
N1649 C1642 1.356 . S
N1649 H1652 0.984 . S
N1649 H1653 0.985 . S
H1650 N1645 0.984 . S
H1651 N1645 0.985 . S
H1652 N1649 0.984 . S
H1653 N1649 0.985 . S
H1654 N1648 0.984 . S
H1655 N1648 0.984 . S
H1656 N1644 0.984 . S
H1657 N1644 0.985 . S
C1658 C1659 1.363 . S
C1658 C1664 1.379 . S
C1658 N1666 1.356 . S
C1659 C1658 1.363 . S
C1659 C1665 1.363 . S
C1660 C1661 1.363 . S
C1660 C1665 1.379 . S
C1660 N1667 1.356 . S
C1661 C1660 1.363 . S
C1661 C1664 1.363 . S
N1662 C1664 1.356 . S
N1662 H1674 0.984 . S
N1662 H1675 0.985 . S
N1663 C1665 1.356 . S
N1663 H1668 0.984 . S
N1663 H1669 0.985 . S
C1664 C1658 1.379 . S
C1664 C1661 1.363 . S
C1664 N1662 1.356 . S
C1665 C1659 1.363 . S
C1665 C1660 1.379 . S
C1665 N1663 1.356 . S
N1666 C1658 1.356 . S
N1666 H1672 0.984 . S
N1666 H1673 0.984 . S
N1667 C1660 1.356 . S
N1667 H1670 0.984 . S
N1667 H1671 0.985 . S
H1668 N1663 0.984 . S
H1669 N1663 0.985 . S
H1670 N1667 0.984 . S
H1671 N1667 0.985 . S
H1672 N1666 0.984 . S
H1673 N1666 0.984 . S
H1674 N1662 0.984 . S
H1675 N1662 0.985 . S
C1676 C1677 1.363 . S
C1676 C1682 1.379 . S
C1676 N1684 1.356 . S
C1677 C1676 1.363 . S
C1677 C1683 1.363 . S
C1678 C1679 1.363 . S
C1678 C1683 1.379 . S
C1678 N1685 1.356 . S
C1679 C1678 1.363 . S
C1679 C1682 1.363 . S
N1680 C1682 1.356 . S
N1680 H1692 0.984 . S
N1680 H1693 0.985 . S
N1681 C1683 1.356 . S
N1681 H1686 0.984 . S
N1681 H1687 0.985 . S
C1682 C1676 1.379 . S
C1682 C1679 1.363 . S
C1682 N1680 1.356 . S
C1683 C1677 1.363 . S
C1683 C1678 1.379 . S
C1683 N1681 1.356 . S
N1684 C1676 1.356 . S
N1684 H1690 0.984 . S
N1684 H1691 0.984 . S
N1685 C1678 1.356 . S
N1685 H1688 0.984 . S
N1685 H1689 0.985 . S
H1686 N1681 0.984 . S
H1687 N1681 0.985 . S
H1688 N1685 0.984 . S
H1689 N1685 0.985 . S
H1690 N1684 0.984 . S
H1691 N1684 0.984 . S
H1692 N1680 0.984 . S
H1693 N1680 0.985 . S
C1694 C1695 1.363 . S
C1694 C1700 1.379 . S
C1694 N1702 1.356 . S
C1695 C1694 1.363 . S
C1695 C1701 1.363 . S
C1696 C1697 1.363 . S
C1696 C1701 1.379 . S
C1696 N1703 1.356 . S
C1697 C1696 1.363 . S
C1697 C1700 1.363 . S
N1698 C1700 1.356 . S
N1698 H1710 0.984 . S
N1698 H1711 0.985 . S
N1699 C1701 1.356 . S
N1699 H1704 0.984 . S
N1699 H1705 0.985 . S
C1700 C1694 1.379 . S
C1700 C1697 1.363 . S
C1700 N1698 1.356 . S
C1701 C1695 1.363 . S
C1701 C1696 1.379 . S
C1701 N1699 1.356 . S
N1702 C1694 1.356 . S
N1702 H1708 0.984 . S
N1702 H1709 0.984 . S
N1703 C1696 1.356 . S
N1703 H1706 0.984 . S
N1703 H1707 0.985 . S
H1704 N1699 0.984 . S
H1705 N1699 0.985 . S
H1706 N1703 0.984 . S
H1707 N1703 0.985 . S
H1708 N1702 0.984 . S
H1709 N1702 0.984 . S
H1710 N1698 0.984 . S
H1711 N1698 0.985 . S
C1712 C1713 1.363 . S
C1712 C1718 1.379 . S
C1712 N1720 1.356 . S
C1713 C1712 1.363 . S
C1713 C1719 1.363 . S
C1714 C1715 1.363 . S
C1714 C1719 1.379 . S
C1714 N1721 1.356 . S
C1715 C1714 1.363 . S
C1715 C1718 1.363 . S
N1716 C1718 1.356 . S
N1716 H1728 0.984 . S
N1716 H1729 0.985 . S
N1717 C1719 1.356 . S
N1717 H1722 0.984 . S
N1717 H1723 0.985 . S
C1718 C1712 1.379 . S
C1718 C1715 1.363 . S
C1718 N1716 1.356 . S
C1719 C1713 1.363 . S
C1719 C1714 1.379 . S
C1719 N1717 1.356 . S
N1720 C1712 1.356 . S
N1720 H1726 0.984 . S
N1720 H1727 0.984 . S
N1721 C1714 1.356 . S
N1721 H1724 0.984 . S
N1721 H1725 0.985 . S
H1722 N1717 0.984 . S
H1723 N1717 0.985 . S
H1724 N1721 0.984 . S
H1725 N1721 0.985 . S
H1726 N1720 0.984 . S
H1727 N1720 0.984 . S
H1728 N1716 0.984 . S
H1729 N1716 0.985 . S
C1730 C1731 1.363 . S
C1730 C1736 1.379 . S
C1730 N1738 1.356 . S
C1731 C1730 1.363 . S
C1731 C1737 1.363 . S
C1732 C1733 1.363 . S
C1732 C1737 1.379 . S
C1732 N1739 1.356 . S
C1733 C1732 1.363 . S
C1733 C1736 1.363 . S
N1734 C1736 1.356 . S
N1734 H1746 0.984 . S
N1734 H1747 0.985 . S
N1735 C1737 1.356 . S
N1735 H1740 0.984 . S
N1735 H1741 0.985 . S
C1736 C1730 1.379 . S
C1736 C1733 1.363 . S
C1736 N1734 1.356 . S
C1737 C1731 1.363 . S
C1737 C1732 1.379 . S
C1737 N1735 1.356 . S
N1738 C1730 1.356 . S
N1738 H1744 0.984 . S
N1738 H1745 0.984 . S
N1739 C1732 1.356 . S
N1739 H1742 0.984 . S
N1739 H1743 0.985 . S
H1740 N1735 0.984 . S
H1741 N1735 0.985 . S
H1742 N1739 0.984 . S
H1743 N1739 0.985 . S
H1744 N1738 0.984 . S
H1745 N1738 0.984 . S
H1746 N1734 0.984 . S
H1747 N1734 0.985 . S
C1748 C1749 1.363 . S
C1748 C1754 1.379 . S
C1748 N1756 1.356 . S
C1749 C1748 1.363 . S
C1749 C1755 1.363 . S
C1750 C1751 1.363 . S
C1750 C1755 1.379 . S
C1750 N1757 1.356 . S
C1751 C1750 1.363 . S
C1751 C1754 1.363 . S
N1752 C1754 1.356 . S
N1752 H1764 0.984 . S
N1752 H1765 0.985 . S
N1753 C1755 1.356 . S
N1753 H1758 0.984 . S
N1753 H1759 0.985 . S
C1754 C1748 1.379 . S
C1754 C1751 1.363 . S
C1754 N1752 1.356 . S
C1755 C1749 1.363 . S
C1755 C1750 1.379 . S
C1755 N1753 1.356 . S
N1756 C1748 1.356 . S
N1756 H1762 0.984 . S
N1756 H1763 0.984 . S
N1757 C1750 1.356 . S
N1757 H1760 0.984 . S
N1757 H1761 0.985 . S
H1758 N1753 0.984 . S
H1759 N1753 0.985 . S
H1760 N1757 0.984 . S
H1761 N1757 0.985 . S
H1762 N1756 0.984 . S
H1763 N1756 0.984 . S
H1764 N1752 0.984 . S
H1765 N1752 0.985 . S
C1766 C1767 1.363 . S
C1766 C1772 1.379 . S
C1766 N1774 1.356 . S
C1767 C1766 1.363 . S
C1767 C1773 1.363 . S
C1768 C1769 1.363 . S
C1768 C1773 1.379 . S
C1768 N1775 1.356 . S
C1769 C1768 1.363 . S
C1769 C1772 1.363 . S
N1770 C1772 1.356 . S
N1770 H1782 0.984 . S
N1770 H1783 0.985 . S
N1771 C1773 1.356 . S
N1771 H1776 0.984 . S
N1771 H1777 0.985 . S
C1772 C1766 1.379 . S
C1772 C1769 1.363 . S
C1772 N1770 1.356 . S
C1773 C1767 1.363 . S
C1773 C1768 1.379 . S
C1773 N1771 1.356 . S
N1774 C1766 1.356 . S
N1774 H1780 0.984 . S
N1774 H1781 0.984 . S
N1775 C1768 1.356 . S
N1775 H1778 0.984 . S
N1775 H1779 0.985 . S
H1776 N1771 0.984 . S
H1777 N1771 0.985 . S
H1778 N1775 0.984 . S
H1779 N1775 0.985 . S
H1780 N1774 0.984 . S
H1781 N1774 0.984 . S
H1782 N1770 0.984 . S
H1783 N1770 0.985 . S
C1784 C1785 1.363 . S
C1784 C1790 1.379 . S
C1784 N1792 1.356 . S
C1785 C1784 1.363 . S
C1785 C1791 1.363 . S
C1786 C1787 1.363 . S
C1786 C1791 1.379 . S
C1786 N1793 1.356 1_565 S
C1787 C1786 1.363 . S
C1787 C1790 1.363 . S
N1788 C1790 1.356 . S
N1788 H1800 0.984 . S
N1788 H1801 0.985 . S
N1789 C1791 1.356 1_545 S
N1789 H1794 0.984 . S
N1789 H1795 0.985 . S
C1790 C1784 1.379 . S
C1790 C1787 1.363 . S
C1790 N1788 1.356 . S
C1791 C1785 1.363 . S
C1791 C1786 1.379 . S
C1791 N1789 1.356 1_565 S
N1792 C1784 1.356 . S
N1792 H1798 0.984 . S
N1792 H1799 0.984 . S
N1793 C1786 1.356 1_545 S
N1793 H1796 0.984 . S
N1793 H1797 0.985 . S
H1794 N1789 0.984 . S
H1795 N1789 0.985 . S
H1796 N1793 0.984 . S
H1797 N1793 0.985 . S
H1798 N1792 0.984 . S
H1799 N1792 0.984 . S
H1800 N1788 0.984 . S
H1801 N1788 0.985 . S
C1802 C1803 1.363 . S
C1802 C1808 1.379 1_455 S
C1802 N1810 1.356 . S
C1803 C1802 1.363 . S
C1803 C1809 1.363 . S
C1804 C1805 1.363 . S
C1804 C1809 1.379 1_655 S
C1804 N1811 1.356 1_545 S
C1805 C1804 1.363 . S
C1805 C1808 1.363 . S
N1806 C1808 1.356 . S
N1806 H1818 0.984 . S
N1806 H1819 0.985 . S
N1807 C1809 1.356 1_565 S
N1807 H1812 0.998 . S
N1807 H1813 0.985 . S
C1808 C1802 1.379 1_655 S
C1808 C1805 1.363 . S
C1808 N1806 1.356 . S
C1809 C1803 1.363 . S
C1809 C1804 1.379 1_455 S
C1809 N1807 1.356 1_545 S
N1810 C1802 1.356 . S
N1810 H1816 0.984 . S
N1810 H1817 0.984 . S
N1811 C1804 1.356 1_565 S
N1811 H1814 0.998 . S
N1811 H1815 0.985 . S
H1812 N1807 0.998 . S
H1813 N1807 0.985 . S
H1814 N1811 0.998 . S
H1815 N1811 0.985 . S
H1816 N1810 0.984 . S
H1817 N1810 0.984 . S
H1818 N1806 0.984 . S
H1819 N1806 0.985 . S
C1820 C1821 1.363 . S
C1820 C1826 1.379 . S
C1820 N1828 1.356 . S
C1821 C1820 1.363 . S
C1821 C1827 1.363 . S
C1822 C1823 1.363 . S
C1822 C1827 1.379 . S
C1822 N1829 1.356 1_545 S
C1823 C1822 1.363 . S
C1823 C1826 1.363 . S
N1824 C1826 1.356 . S
N1824 H1836 0.984 . S
N1824 H1837 0.985 . S
N1825 C1827 1.356 1_565 S
N1825 H1830 0.998 . S
N1825 H1831 0.985 . S
C1826 C1820 1.379 . S
C1826 C1823 1.363 . S
C1826 N1824 1.356 . S
C1827 C1821 1.363 . S
C1827 C1822 1.379 . S
C1827 N1825 1.356 1_545 S
N1828 C1820 1.356 . S
N1828 H1834 0.984 . S
N1828 H1835 0.984 . S
N1829 C1822 1.356 1_565 S
N1829 H1832 0.998 . S
N1829 H1833 0.985 . S
H1830 N1825 0.998 . S
H1831 N1825 0.985 . S
H1832 N1829 0.998 . S
H1833 N1829 0.985 . S
H1834 N1828 0.984 . S
H1835 N1828 0.984 . S
H1836 N1824 0.984 . S
H1837 N1824 0.985 . S
C1838 C1839 1.363 . S
C1838 C1844 1.379 1_455 S
C1838 N1846 1.356 . S
C1839 C1838 1.363 . S
C1839 C1845 1.363 . S
C1840 C1841 1.363 . S
C1840 C1845 1.379 1_655 S
C1840 N1847 1.356 1_565 S
C1841 C1840 1.363 . S
C1841 C1844 1.363 . S
N1842 C1844 1.356 . S
N1842 H1854 0.984 . S
N1842 H1855 0.985 . S
N1843 C1845 1.356 1_545 S
N1843 H1848 1.003 . S
N1843 H1849 0.985 . S
C1844 C1838 1.379 1_655 S
C1844 C1841 1.363 . S
C1844 N1842 1.356 . S
C1845 C1839 1.363 . S
C1845 C1840 1.379 1_455 S
C1845 N1843 1.356 1_565 S
N1846 C1838 1.356 . S
N1846 H1852 0.984 . S
N1846 H1853 0.984 . S
N1847 C1840 1.356 1_545 S
N1847 H1850 1.003 . S
N1847 H1851 0.985 . S
H1848 N1843 1.003 . S
H1849 N1843 0.985 . S
H1850 N1847 1.003 . S
H1851 N1847 0.985 . S
H1852 N1846 0.984 . S
H1853 N1846 0.984 . S
H1854 N1842 0.984 . S
H1855 N1842 0.985 . S
C1856 C1857 1.363 . S
C1856 C1862 1.379 . S
C1856 N1864 1.356 . S
C1857 C1856 1.363 . S
C1857 C1863 1.363 . S
C1858 C1859 1.363 . S
C1858 C1863 1.379 . S
C1858 N1865 1.356 . S
C1859 C1858 1.363 . S
C1859 C1862 1.363 . S
N1860 C1862 1.356 . S
N1860 H1872 0.984 . S
N1860 H1873 0.985 . S
N1861 C1863 1.356 . S
N1861 H1866 0.984 . S
N1861 H1867 0.985 . S
C1862 C1856 1.379 . S
C1862 C1859 1.363 . S
C1862 N1860 1.356 . S
C1863 C1857 1.363 . S
C1863 C1858 1.379 . S
C1863 N1861 1.356 . S
N1864 C1856 1.356 . S
N1864 H1870 0.984 . S
N1864 H1871 0.984 . S
N1865 C1858 1.356 . S
N1865 H1868 0.984 . S
N1865 H1869 0.985 . S
H1866 N1861 0.984 . S
H1867 N1861 0.985 . S
H1868 N1865 0.984 . S
H1869 N1865 0.985 . S
H1870 N1864 0.984 . S
H1871 N1864 0.984 . S
H1872 N1860 0.984 . S
H1873 N1860 0.985 . S
C1874 C1875 1.363 . S
C1874 C1880 1.379 . S
C1874 N1882 1.356 . S
C1875 C1874 1.363 . S
C1875 C1881 1.363 . S
C1876 C1877 1.363 . S
C1876 C1881 1.379 . S
C1876 N1883 1.356 . S
C1877 C1876 1.363 . S
C1877 C1880 1.363 . S
N1878 C1880 1.356 . S
N1878 H1890 0.984 . S
N1878 H1891 0.985 . S
N1879 C1881 1.356 . S
N1879 H1884 0.984 . S
N1879 H1885 0.985 . S
C1880 C1874 1.379 . S
C1880 C1877 1.363 . S
C1880 N1878 1.356 . S
C1881 C1875 1.363 . S
C1881 C1876 1.379 . S
C1881 N1879 1.356 . S
N1882 C1874 1.356 . S
N1882 H1888 0.984 . S
N1882 H1889 0.984 . S
N1883 C1876 1.356 . S
N1883 H1886 0.984 . S
N1883 H1887 0.985 . S
H1884 N1879 0.984 . S
H1885 N1879 0.985 . S
H1886 N1883 0.984 . S
H1887 N1883 0.985 . S
H1888 N1882 0.984 . S
H1889 N1882 0.984 . S
H1890 N1878 0.984 . S
H1891 N1878 0.985 . S
C1892 C1893 1.363 . S
C1892 C1898 1.379 . S
C1892 N1900 1.356 . S
C1893 C1892 1.363 . S
C1893 C1899 1.363 . S
C1894 C1895 1.363 . S
C1894 C1899 1.379 . S
C1894 N1901 1.356 . S
C1895 C1894 1.363 . S
C1895 C1898 1.363 . S
N1896 C1898 1.356 . S
N1896 H1908 0.984 . S
N1896 H1909 0.985 . S
N1897 C1899 1.356 . S
N1897 H1902 0.984 . S
N1897 H1903 0.985 . S
C1898 C1892 1.379 . S
C1898 C1895 1.363 . S
C1898 N1896 1.356 . S
C1899 C1893 1.363 . S
C1899 C1894 1.379 . S
C1899 N1897 1.356 . S
N1900 C1892 1.356 . S
N1900 H1906 0.984 . S
N1900 H1907 0.984 . S
N1901 C1894 1.356 . S
N1901 H1904 0.984 . S
N1901 H1905 0.985 . S
H1902 N1897 0.984 . S
H1903 N1897 0.985 . S
H1904 N1901 0.984 . S
H1905 N1901 0.985 . S
H1906 N1900 0.984 . S
H1907 N1900 0.984 . S
H1908 N1896 0.984 . S
H1909 N1896 0.985 . S
C1910 C1911 1.363 . S
C1910 C1916 1.379 . S
C1910 N1918 1.356 . S
C1911 C1910 1.363 . S
C1911 C1917 1.363 . S
C1912 C1913 1.363 . S
C1912 C1917 1.379 . S
C1912 N1919 1.356 . S
C1913 C1912 1.363 . S
C1913 C1916 1.363 . S
N1914 C1916 1.356 . S
N1914 H1926 0.984 . S
N1914 H1927 0.985 . S
N1915 C1917 1.356 . S
N1915 H1920 0.984 . S
N1915 H1921 0.985 . S
C1916 C1910 1.379 . S
C1916 C1913 1.363 . S
C1916 N1914 1.356 . S
C1917 C1911 1.363 . S
C1917 C1912 1.379 . S
C1917 N1915 1.356 . S
N1918 C1910 1.356 . S
N1918 H1924 0.984 . S
N1918 H1925 0.984 . S
N1919 C1912 1.356 . S
N1919 H1922 0.984 . S
N1919 H1923 0.985 . S
H1920 N1915 0.984 . S
H1921 N1915 0.985 . S
H1922 N1919 0.984 . S
H1923 N1919 0.985 . S
H1924 N1918 0.984 . S
H1925 N1918 0.984 . S
H1926 N1914 0.984 . S
H1927 N1914 0.985 . S
C1928 C1929 1.363 . S
C1928 C1934 1.379 . S
C1928 N1936 1.356 . S
C1929 C1928 1.363 . S
C1929 C1935 1.363 . S
C1930 C1931 1.363 . S
C1930 C1935 1.379 . S
C1930 N1937 1.356 . S
C1931 C1930 1.363 . S
C1931 C1934 1.363 . S
N1932 C1934 1.356 . S
N1932 H1944 0.984 . S
N1932 H1945 0.985 . S
N1933 C1935 1.356 . S
N1933 H1938 0.984 . S
N1933 H1939 0.985 . S
C1934 C1928 1.379 . S
C1934 C1931 1.363 . S
C1934 N1932 1.356 . S
C1935 C1929 1.363 . S
C1935 C1930 1.379 . S
C1935 N1933 1.356 . S
N1936 C1928 1.356 . S
N1936 H1942 0.984 . S
N1936 H1943 0.984 . S
N1937 C1930 1.356 . S
N1937 H1940 0.984 . S
N1937 H1941 0.985 . S
H1938 N1933 0.984 . S
H1939 N1933 0.985 . S
H1940 N1937 0.984 . S
H1941 N1937 0.985 . S
H1942 N1936 0.984 . S
H1943 N1936 0.984 . S
H1944 N1932 0.984 . S
H1945 N1932 0.985 . S
C1946 C1947 1.363 . S
C1946 C1952 1.379 . S
C1946 N1954 1.356 . S
C1947 C1946 1.363 . S
C1947 C1953 1.363 . S
C1948 C1949 1.363 . S
C1948 C1953 1.379 . S
C1948 N1955 1.356 . S
C1949 C1948 1.363 . S
C1949 C1952 1.363 . S
N1950 C1952 1.356 . S
N1950 H1962 0.984 . S
N1950 H1963 0.985 . S
N1951 C1953 1.356 . S
N1951 H1956 0.984 . S
N1951 H1957 0.985 . S
C1952 C1946 1.379 . S
C1952 C1949 1.363 . S
C1952 N1950 1.356 . S
C1953 C1947 1.363 . S
C1953 C1948 1.379 . S
C1953 N1951 1.356 . S
N1954 C1946 1.356 . S
N1954 H1960 0.984 . S
N1954 H1961 0.984 . S
N1955 C1948 1.356 . S
N1955 H1958 0.984 . S
N1955 H1959 0.985 . S
H1956 N1951 0.984 . S
H1957 N1951 0.985 . S
H1958 N1955 0.984 . S
H1959 N1955 0.985 . S
H1960 N1954 0.984 . S
H1961 N1954 0.984 . S
H1962 N1950 0.984 . S
H1963 N1950 0.985 . S
C1964 C1965 1.363 . S
C1964 C1970 1.379 . S
C1964 N1972 1.356 . S
C1965 C1964 1.363 . S
C1965 C1971 1.363 . S
C1966 C1967 1.363 . S
C1966 C1971 1.379 . S
C1966 N1973 1.356 . S
C1967 C1966 1.363 . S
C1967 C1970 1.363 . S
N1968 C1970 1.356 . S
N1968 H1980 0.984 . S
N1968 H1981 0.985 . S
N1969 C1971 1.356 . S
N1969 H1974 0.984 . S
N1969 H1975 0.985 . S
C1970 C1964 1.379 . S
C1970 C1967 1.363 . S
C1970 N1968 1.356 . S
C1971 C1965 1.363 . S
C1971 C1966 1.379 . S
C1971 N1969 1.356 . S
N1972 C1964 1.356 . S
N1972 H1978 0.984 . S
N1972 H1979 0.984 . S
N1973 C1966 1.356 . S
N1973 H1976 0.984 . S
N1973 H1977 0.985 . S
H1974 N1969 0.984 . S
H1975 N1969 0.985 . S
H1976 N1973 0.984 . S
H1977 N1973 0.985 . S
H1978 N1972 0.984 . S
H1979 N1972 0.984 . S
H1980 N1968 0.984 . S
H1981 N1968 0.985 . S
C1982 C1983 1.363 . S
C1982 C1988 1.379 . S
C1982 N1990 1.356 . S
C1983 C1982 1.363 . S
C1983 C1989 1.363 . S
C1984 C1985 1.363 . S
C1984 C1989 1.379 . S
C1984 N1991 1.356 . S
C1985 C1984 1.363 . S
C1985 C1988 1.363 . S
N1986 C1988 1.356 . S
N1986 H1998 0.984 . S
N1986 H1999 0.985 . S
N1987 C1989 1.356 . S
N1987 H1992 0.984 . S
N1987 H1993 0.985 . S
C1988 C1982 1.379 . S
C1988 C1985 1.363 . S
C1988 N1986 1.356 . S
C1989 C1983 1.363 . S
C1989 C1984 1.379 . S
C1989 N1987 1.356 . S
N1990 C1982 1.356 . S
N1990 H1996 0.984 . S
N1990 H1997 0.984 . S
N1991 C1984 1.356 . S
N1991 H1994 0.984 . S
N1991 H1995 0.985 . S
H1992 N1987 0.984 . S
H1993 N1987 0.985 . S
H1994 N1991 0.984 . S
H1995 N1991 0.985 . S
H1996 N1990 0.984 . S
H1997 N1990 0.984 . S
H1998 N1986 0.984 . S
H1999 N1986 0.985 . S
C2000 C2001 1.363 . S
C2000 C2006 1.379 . S
C2000 N2008 1.356 . S
C2001 C2000 1.363 . S
C2001 C2007 1.363 . S
C2002 C2003 1.363 . S
C2002 C2007 1.379 . S
C2002 N2009 1.356 . S
C2003 C2002 1.363 . S
C2003 C2006 1.363 . S
N2004 C2006 1.356 . S
N2004 H2016 0.984 . S
N2004 H2017 0.985 . S
N2005 C2007 1.356 . S
N2005 H2010 0.984 . S
N2005 H2011 0.985 . S
C2006 C2000 1.379 . S
C2006 C2003 1.363 . S
C2006 N2004 1.356 . S
C2007 C2001 1.363 . S
C2007 C2002 1.379 . S
C2007 N2005 1.356 . S
N2008 C2000 1.356 . S
N2008 H2014 0.984 . S
N2008 H2015 0.984 . S
N2009 C2002 1.356 . S
N2009 H2012 0.984 . S
N2009 H2013 0.985 . S
H2010 N2005 0.984 . S
H2011 N2005 0.985 . S
H2012 N2009 0.984 . S
H2013 N2009 0.985 . S
H2014 N2008 0.984 . S
H2015 N2008 0.984 . S
H2016 N2004 0.984 . S
H2017 N2004 0.985 . S
C2018 C2019 1.363 . S
C2018 C2024 1.379 . S
C2018 N2026 1.356 . S
C2019 C2018 1.363 . S
C2019 C2025 1.363 . S
C2020 C2021 1.363 . S
C2020 C2025 1.379 . S
C2020 N2027 1.356 . S
C2021 C2020 1.363 . S
C2021 C2024 1.363 . S
N2022 C2024 1.356 . S
N2022 H2034 0.984 . S
N2022 H2035 0.985 . S
N2023 C2025 1.356 . S
N2023 H2028 0.984 . S
N2023 H2029 0.985 . S
C2024 C2018 1.379 . S
C2024 C2021 1.363 . S
C2024 N2022 1.356 . S
C2025 C2019 1.363 . S
C2025 C2020 1.379 . S
C2025 N2023 1.356 . S
N2026 C2018 1.356 . S
N2026 H2032 0.984 . S
N2026 H2033 0.984 . S
N2027 C2020 1.356 . S
N2027 H2030 0.984 . S
N2027 H2031 0.985 . S
H2028 N2023 0.984 . S
H2029 N2023 0.985 . S
H2030 N2027 0.984 . S
H2031 N2027 0.985 . S
H2032 N2026 0.984 . S
H2033 N2026 0.984 . S
H2034 N2022 0.984 . S
H2035 N2022 0.985 . S
C2036 C2037 1.363 . S
C2036 C2042 1.379 . S
C2036 N2044 1.356 . S
C2037 C2036 1.363 . S
C2037 C2043 1.363 . S
C2038 C2039 1.363 . S
C2038 C2043 1.379 . S
C2038 N2045 1.356 . S
C2039 C2038 1.363 . S
C2039 C2042 1.363 . S
N2040 C2042 1.356 . S
N2040 H2052 0.984 . S
N2040 H2053 0.985 . S
N2041 C2043 1.356 . S
N2041 H2046 0.984 . S
N2041 H2047 0.985 . S
C2042 C2036 1.379 . S
C2042 C2039 1.363 . S
C2042 N2040 1.356 . S
C2043 C2037 1.363 . S
C2043 C2038 1.379 . S
C2043 N2041 1.356 . S
N2044 C2036 1.356 . S
N2044 H2050 0.984 . S
N2044 H2051 0.984 . S
N2045 C2038 1.356 . S
N2045 H2048 0.984 . S
N2045 H2049 0.985 . S
H2046 N2041 0.984 . S
H2047 N2041 0.985 . S
H2048 N2045 0.984 . S
H2049 N2045 0.985 . S
H2050 N2044 0.984 . S
H2051 N2044 0.984 . S
H2052 N2040 0.984 . S
H2053 N2040 0.985 . S
C2054 C2055 1.363 . S
C2054 C2060 1.379 . S
C2054 N2062 1.356 . S
C2055 C2054 1.363 . S
C2055 C2061 1.363 . S
C2056 C2057 1.363 . S
C2056 C2061 1.379 . S
C2056 N2063 1.356 . S
C2057 C2056 1.363 . S
C2057 C2060 1.363 . S
N2058 C2060 1.356 . S
N2058 H2070 0.984 . S
N2058 H2071 0.985 . S
N2059 C2061 1.356 . S
N2059 H2064 0.984 . S
N2059 H2065 0.985 . S
C2060 C2054 1.379 . S
C2060 C2057 1.363 . S
C2060 N2058 1.356 . S
C2061 C2055 1.363 . S
C2061 C2056 1.379 . S
C2061 N2059 1.356 . S
N2062 C2054 1.356 . S
N2062 H2068 0.984 . S
N2062 H2069 0.984 . S
N2063 C2056 1.356 . S
N2063 H2066 0.984 . S
N2063 H2067 0.985 . S
H2064 N2059 0.984 . S
H2065 N2059 0.985 . S
H2066 N2063 0.984 . S
H2067 N2063 0.985 . S
H2068 N2062 0.984 . S
H2069 N2062 0.984 . S
H2070 N2058 0.984 . S
H2071 N2058 0.985 . S
C2072 C2073 1.363 . S
C2072 C2078 1.379 . S
C2072 N2080 1.356 . S
C2073 C2072 1.363 . S
C2073 C2079 1.363 . S
C2074 C2075 1.363 . S
C2074 C2079 1.379 . S
C2074 N2081 1.356 . S
C2075 C2074 1.363 . S
C2075 C2078 1.363 . S
N2076 C2078 1.356 . S
N2076 H2088 0.984 . S
N2076 H2089 0.985 . S
N2077 C2079 1.356 . S
N2077 H2082 0.984 . S
N2077 H2083 0.985 . S
C2078 C2072 1.379 . S
C2078 C2075 1.363 . S
C2078 N2076 1.356 . S
C2079 C2073 1.363 . S
C2079 C2074 1.379 . S
C2079 N2077 1.356 . S
N2080 C2072 1.356 . S
N2080 H2086 0.984 . S
N2080 H2087 0.984 . S
N2081 C2074 1.356 . S
N2081 H2084 0.984 . S
N2081 H2085 0.985 . S
H2082 N2077 0.984 . S
H2083 N2077 0.985 . S
H2084 N2081 0.984 . S
H2085 N2081 0.985 . S
H2086 N2080 0.984 . S
H2087 N2080 0.984 . S
H2088 N2076 0.984 . S
H2089 N2076 0.985 . S
C2090 C2091 1.363 . S
C2090 C2096 1.379 . S
C2090 N2098 1.356 . S
C2091 C2090 1.363 . S
C2091 C2097 1.363 . S
C2092 C2093 1.363 . S
C2092 C2097 1.379 . S
C2092 N2099 1.356 . S
C2093 C2092 1.363 . S
C2093 C2096 1.363 . S
N2094 C2096 1.356 . S
N2094 H2106 0.984 . S
N2094 H2107 0.985 . S
N2095 C2097 1.356 . S
N2095 H2100 0.984 . S
N2095 H2101 0.985 . S
C2096 C2090 1.379 . S
C2096 C2093 1.363 . S
C2096 N2094 1.356 . S
C2097 C2091 1.363 . S
C2097 C2092 1.379 . S
C2097 N2095 1.356 . S
N2098 C2090 1.356 . S
N2098 H2104 0.984 . S
N2098 H2105 0.984 . S
N2099 C2092 1.356 . S
N2099 H2102 0.984 . S
N2099 H2103 0.985 . S
H2100 N2095 0.984 . S
H2101 N2095 0.985 . S
H2102 N2099 0.984 . S
H2103 N2099 0.985 . S
H2104 N2098 0.984 . S
H2105 N2098 0.984 . S
H2106 N2094 0.984 . S
H2107 N2094 0.985 . S
C2108 C2109 1.363 . S
C2108 C2114 1.379 . S
C2108 N2116 1.356 . S
C2109 C2108 1.363 . S
C2109 C2115 1.363 . S
C2110 C2111 1.363 . S
C2110 C2115 1.379 . S
C2110 N2117 1.356 . S
C2111 C2110 1.363 . S
C2111 C2114 1.363 . S
N2112 C2114 1.356 . S
N2112 H2124 0.984 . S
N2112 H2125 0.985 . S
N2113 C2115 1.356 . S
N2113 H2118 0.984 . S
N2113 H2119 0.985 . S
C2114 C2108 1.379 . S
C2114 C2111 1.363 . S
C2114 N2112 1.356 . S
C2115 C2109 1.363 . S
C2115 C2110 1.379 . S
C2115 N2113 1.356 . S
N2116 C2108 1.356 . S
N2116 H2122 0.984 . S
N2116 H2123 0.984 . S
N2117 C2110 1.356 . S
N2117 H2120 0.984 . S
N2117 H2121 0.985 . S
H2118 N2113 0.984 . S
H2119 N2113 0.985 . S
H2120 N2117 0.984 . S
H2121 N2117 0.985 . S
H2122 N2116 0.984 . S
H2123 N2116 0.984 . S
H2124 N2112 0.984 . S
H2125 N2112 0.985 . S
C2126 C2127 1.363 . S
C2126 C2132 1.379 . S
C2126 N2134 1.356 . S
C2127 C2126 1.363 . S
C2127 C2133 1.363 . S
C2128 C2129 1.363 . S
C2128 C2133 1.379 . S
C2128 N2135 1.356 . S
C2129 C2128 1.363 . S
C2129 C2132 1.363 . S
N2130 C2132 1.356 . S
N2130 H2142 0.984 . S
N2130 H2143 0.985 . S
N2131 C2133 1.356 . S
N2131 H2136 0.984 . S
N2131 H2137 0.985 . S
C2132 C2126 1.379 . S
C2132 C2129 1.363 . S
C2132 N2130 1.356 . S
C2133 C2127 1.363 . S
C2133 C2128 1.379 . S
C2133 N2131 1.356 . S
N2134 C2126 1.356 . S
N2134 H2140 0.984 . S
N2134 H2141 0.984 . S
N2135 C2128 1.356 . S
N2135 H2138 0.984 . S
N2135 H2139 0.985 . S
H2136 N2131 0.984 . S
H2137 N2131 0.985 . S
H2138 N2135 0.984 . S
H2139 N2135 0.985 . S
H2140 N2134 0.984 . S
H2141 N2134 0.984 . S
H2142 N2130 0.984 . S
H2143 N2130 0.985 . S
C1281 C162 2.299 . S
C1283 C2 2.299 . S
C1299 C202 2.353 . S
C1301 C42 2.353 . S
C1317 C82 2.299 . S
C1319 C242 2.299 . S
C1335 C122 2.353 . S
C1337 C282 2.353 . S
C1353 C482 2.115 . S
C1355 C322 2.115 . S
C1371 C522 2.171 . S
C1373 C362 2.171 . S
C1389 C402 2.115 . S
C1391 C562 2.115 . S
C1407 C602 2.171 . S
C1409 C442 2.171 . S
C1425 C642 2.087 . S
C1427 C802 2.082 . S
C1443 C842 2.298 . S
C1445 C682 2.298 . S
C1461 C722 2.087 . S
C1463 C882 2.082 . S
C1479 C922 2.298 . S
C1481 C762 2.298 . S
C1497 C962 1.936 . S
C1499 C1122 1.933 . S
C1515 C1162 2.115 . S
C1517 C1002 2.115 . S
C1533 C1042 1.936 . S
C1535 C1202 1.933 . S
C1551 C1242 2.115 . S
C1553 C1082 2.115 . S
C1569 C501 1.865 . S
C1571 C21 1.932 . S
C1587 C61 1.923 . S
C1589 C1181 1.860 . S
C1605 C581 1.864 . S
C1607 C101 1.932 . S
C1623 C141 1.923 . S
C1625 C1261 1.860 . S
C1641 C341 1.865 . S
C1643 C181 1.932 . S
C1659 C1021 1.860 . S
C1661 C221 1.922 . S
C1677 C261 1.932 . S
C1679 C421 1.865 . S
C1695 C1101 1.860 . S
C1697 C301 1.922 . S
C1713 C381 1.856 . S
C1715 C861 1.927 . S
C1731 C461 1.856 . S
C1733 C941 1.927 . S
C1749 C541 1.855 . S
C1751 C701 1.926 . S
C1767 C781 1.926 . S
C1769 C621 1.855 . S
C1785 C1141 1.746 . S
C1787 C661 1.799 . S
C1803 C1221 1.746 . S
C1805 C741 1.799 . S
C1821 C821 1.799 . S
C1823 C981 1.746 . S
C1839 C1061 1.746 . S
C1841 C901 1.799 . S
C1857 C935 1.880 . S
C1859 C15 1.879 . S
C1875 C55 1.777 . S
C1877 C815 1.796 . S
C1893 C95 1.879 . S
C1895 C855 1.880 . S
C1911 C895 1.800 . S
C1913 C135 1.772 . S
C1929 C175 1.878 . S
C1931 C695 1.880 . S
C1947 C215 1.778 . S
C1949 C735 1.797 . S
C1965 C775 1.880 . S
C1967 C255 1.878 . S
C1983 C655 1.801 . S
C1985 C295 1.773 . S
C2001 C1255 1.872 . S
C2003 C335 1.871 . S
C2019 C375 1.768 . S
C2021 C1135 1.789 . S
C2037 C1175 1.872 . S
C2039 C415 1.871 . S
C2055 C1215 1.793 . S
C2057 C455 1.763 . S
C2073 C495 1.870 . S
C2075 C1015 1.872 . S
C2091 C1055 1.794 . S
C2093 C535 1.764 . S
C2109 C1095 1.872 . S
C2111 C575 1.870 . S
C2127 C615 1.769 . S
C2129 C975 1.790 . S
