# Generated by pormake.
# Topology loh, (5)-cn, num edge types: 1
# Building blocks:
#     Node 0, Type 0, BuildingBlock: XOMCOT_clean_sbu_1, # of connection points: 5
#     Node 1, Type 0, BuildingBlock: XOMCOT_clean_sbu_1, # of connection points: 5
#     Node 2, Type 0, BuildingBlock: XOMCOT_clean_sbu_1, # of connection points: 5
#     Node 3, Type 0, BuildingBlock: XOMCOT_clean_sbu_1, # of connection points: 5
#     Node 4, Type 0, BuildingBlock: XOMCOT_clean_sbu_1, # of connection points: 5
#     Node 5, Type 0, BuildingBlock: XOMCOT_clean_sbu_1, # of connection points: 5
#     Node 6, Type 0, BuildingBlock: XOMCOT_clean_sbu_1, # of connection points: 5
#     Node 7, Type 0, BuildingBlock: XOMCOT_clean_sbu_1, # of connection points: 5
#     Edge 8, Type (0, 0), BuildingBlock: OJICUG_clean_linker_0, # of connection points: 2
#     Edge 9, Type (0, 0), BuildingBlock: OJICUG_clean_linker_0, # of connection points: 2
#     Edge 10, Type (0, 0), BuildingBlock: OJICUG_clean_linker_0, # of connection points: 2
#     Edge 11, Type (0, 0), BuildingBlock: OJICUG_clean_linker_0, # of connection points: 2
#     Edge 12, Type (0, 0), BuildingBlock: OJICUG_clean_linker_0, # of connection points: 2
#     Edge 13, Type (0, 0), BuildingBlock: OJICUG_clean_linker_0, # of connection points: 2
#     Edge 14, Type (0, 0), BuildingBlock: OJICUG_clean_linker_0, # of connection points: 2
#     Edge 15, Type (0, 0), BuildingBlock: OJICUG_clean_linker_0, # of connection points: 2
#     Edge 16, Type (0, 0), BuildingBlock: OJICUG_clean_linker_0, # of connection points: 2
#     Edge 17, Type (0, 0), BuildingBlock: OJICUG_clean_linker_0, # of connection points: 2
#     Edge 18, Type (0, 0), BuildingBlock: OJICUG_clean_linker_0, # of connection points: 2
#     Edge 19, Type (0, 0), BuildingBlock: OJICUG_clean_linker_0, # of connection points: 2
#     Edge 20, Type (0, 0), BuildingBlock: OJICUG_clean_linker_0, # of connection points: 2
#     Edge 21, Type (0, 0), BuildingBlock: OJICUG_clean_linker_0, # of connection points: 2
#     Edge 22, Type (0, 0), BuildingBlock: OJICUG_clean_linker_0, # of connection points: 2
#     Edge 23, Type (0, 0), BuildingBlock: OJICUG_clean_linker_0, # of connection points: 2
#     Edge 24, Type (0, 0), BuildingBlock: OJICUG_clean_linker_0, # of connection points: 2
#     Edge 25, Type (0, 0), BuildingBlock: OJICUG_clean_linker_0, # of connection points: 2
#     Edge 26, Type (0, 0), BuildingBlock: OJICUG_clean_linker_0, # of connection points: 2
#     Edge 27, Type (0, 0), BuildingBlock: OJICUG_clean_linker_0, # of connection points: 2
# Relax obj value: 0.223
# Max RMSD: 0.136
# Mean RMSD: 0.136
data_MOF--net-loh--node1-XOMCOT_clean_sbu_1--edge1-OJICUG_clean_linker_0
_symmetry_space_group_name_H-M    P1
_symmetry_Int_Tables_number       1
_symmetry_cell_setting            triclinic
loop_
_symmetry_equiv_pos_as_xyz
'x, y, z'
_cell_length_a     19.784861
_cell_length_b     18.197495
_cell_length_c     31.229233
_cell_angle_alpha  90.04102
_cell_angle_beta   89.940139
_cell_angle_gamma 89.316331
loop_
_atom_site_label
_atom_site_type_symbol
_atom_site_fract_x
_atom_site_fract_y
_atom_site_fract_z
_atom_type_partial_charge
C0 C 0.15281 0.18326 0.19614 0.0
C1 C 0.16692 0.11634 0.21431 0.0
N2 N 0.11255 0.07357 0.20965 0.0
N3 N 0.09033 0.18264 0.17869 0.0
C4 C 1.06618 0.11515 0.18851 0.0
H5 H 0.1862 0.22989 0.19584 0.0
Co6 Co 1.0492 0.26605 0.15355 0.0
C7 C 1.05352 0.33143 0.23247 0.0
O8 O 1.00127 0.28845 0.23785 0.0
N9 N 1.00723 0.34819 0.13079 0.0
C10 C 0.9289 0.43427 0.11988 0.0
C11 C 0.9522 0.3814 0.14778 0.0
C12 C 1.01676 0.38152 0.09276 0.0
N13 N 0.96953 0.43396 0.08524 0.0
O14 O 0.13102 0.28485 0.11851 0.0
H15 H 0.92909 0.36626 0.17784 0.0
H16 H 1.05541 0.36515 0.07005 0.0
O17 O 0.08644 0.32696 0.19753 0.0
C18 C 0.17757 0.2428 0.10326 0.0
O19 O 0.17228 0.17111 0.10667 0.0
N20 N 1.006 0.20993 0.11069 0.0
C21 C 0.90555 0.20536 0.04747 0.0
C22 C 0.88896 0.19902 0.0911 0.0
C23 C 0.94012 0.20028 0.1221 0.0
C24 C 1.02388 0.20702 0.06841 0.0
C25 C 0.97449 0.20349 0.03646 0.0
H26 H 0.92606 0.20465 0.1555 0.0
H27 H 0.07485 0.21593 0.05812 0.0
H28 H 1.01565 0.0972 0.18089 0.0
H29 H 0.21291 0.10086 0.23097 0.0
H30 H 0.88521 0.46971 0.1246 0.0
H31 H 0.83689 0.20021 0.10173 0.0
H32 H 0.99044 0.20526 1.00331 0.0
C33 C 0.58873 0.94879 0.63904 0.0
C34 C 0.57612 1.01671 0.65632 0.0
N35 N 0.59674 1.0166 0.69743 0.0
N36 N 0.61729 0.90453 0.66875 0.0
C37 C 0.62207 0.94774 0.70412 0.0
H38 H 0.57841 0.93315 0.60633 0.0
Co39 Co 0.64834 0.80806 0.65638 0.0
C40 C 0.6438 0.75871 0.73885 0.0
O41 O 0.70297 0.7908 0.7388 0.0
N42 N 0.68061 0.71424 0.64316 0.0
C43 C 0.75226 0.6207 0.63281 0.0
C44 C 0.7371 0.68091 0.65816 0.0
C45 C 0.66225 0.67332 0.60921 0.0
N46 N 0.70481 0.61646 0.60207 0.0
O47 O 0.566 0.78951 0.62317 0.0
H48 H 0.76811 0.70204 0.68374 0.0
H49 H 0.62248 0.68875 0.58729 0.0
O50 O 0.60544 0.76806 0.7065 0.0
C51 C 0.50378 0.79853 0.63311 0.0
O52 O 0.48763 0.82642 0.67062 0.0
N53 N 0.69577 0.84265 0.6086 0.0
C54 C 0.7923 0.84554 0.54316 0.0
C55 C 0.81097 0.85544 0.58619 0.0
C56 C 0.7618 0.85435 0.61829 0.0
C57 C 0.67537 0.83874 0.5669 0.0
C58 C 0.72292 0.84081 0.53368 0.0
H59 H 0.77722 0.85569 0.65151 0.0
H60 H 0.62315 0.82897 0.55894 0.0
H61 H 0.64373 0.92918 0.73406 0.0
H62 H 0.55465 0.06318 0.6393 0.0
H63 H 0.79624 0.58506 0.63557 0.0
H64 H 0.86349 0.85851 0.59559 0.0
H65 H 0.70555 0.83513 0.501 0.0
C66 C 0.11681 0.90862 0.86049 0.0
C67 C 0.13168 0.97648 0.84452 0.0
N68 N 0.07418 1.01629 0.84254 0.0
N69 N 1.05026 0.90529 0.87009 0.0
C70 C 1.02507 0.97172 0.85756 0.0
H71 H 0.15251 0.86355 0.86393 0.0
Co72 Co 1.01056 0.81728 0.88966 0.0
C73 C 1.02138 0.75626 0.81088 0.0
O74 O 0.96428 0.79337 0.80716 0.0
N75 N 0.97153 0.73042 0.90704 0.0
C76 C 0.89418 0.64529 0.91853 0.0
C77 C 0.90937 0.70781 0.89583 0.0
C78 C 0.99368 0.68063 0.93585 0.0
N79 N 0.94749 0.62851 0.94364 0.0
O80 O 0.08929 0.7992 0.92708 0.0
H81 H 0.87623 0.73674 0.87388 0.0
H82 H 1.041 0.68474 0.9529 0.0
O83 O 1.05559 0.76384 0.84503 0.0
C84 C 0.12233 0.8426 0.95134 0.0
O85 O 0.10287 0.91165 0.95514 0.0
N86 N 0.95976 0.86541 0.93331 0.0
C87 C 0.84665 0.86613 0.98738 0.0
C88 C 0.84121 0.88966 0.94471 0.0
C89 C 0.8987 0.88976 0.91834 0.0
C90 C 0.96647 0.84792 0.97584 0.0
C91 C 0.91094 0.84981 1.00348 0.0
H92 H 0.89215 0.89874 0.88437 0.0
H93 H 1.01138 0.82172 0.98805 0.0
H94 H 0.97206 0.98675 0.85852 0.0
H95 H 0.18064 0.99429 0.83331 0.0
H96 H 0.84705 0.61572 0.91748 0.0
H97 H 0.79212 0.90159 0.93087 0.0
H98 H 0.91698 0.82932 0.03585 0.0
C99 C 0.57098 0.12118 0.41057 0.0
C100 C 0.55728 0.05391 0.39332 0.0
N101 N 0.57668 0.05344 0.35194 0.0
N102 N 0.59914 0.16466 0.38064 0.0
C103 C 0.60253 0.12146 0.34509 0.0
H104 H 0.56166 0.13683 0.44343 0.0
Co105 Co 0.63186 0.25972 0.39357 0.0
C106 C 0.62208 0.31542 0.31133 0.0
O107 O 0.68133 0.28274 0.30735 0.0
N108 N 0.66587 0.35161 0.40729 0.0
C109 C 0.74072 0.44017 0.41739 0.0
C110 C 0.722 0.38276 0.39123 0.0
C111 C 0.65109 0.39118 0.44268 0.0
N112 N 0.69589 0.44487 0.44977 0.0
O113 O 0.55082 0.28084 0.42815 0.0
H114 H 0.75064 0.36149 0.36436 0.0
H115 H 0.61243 0.37649 0.46543 0.0
O116 O 0.58735 0.30351 0.34494 0.0
C117 C 0.48845 0.27418 0.41841 0.0
O118 O 0.47184 0.2477 0.38076 0.0
N119 N 0.68045 0.22178 0.44032 0.0
C120 C 0.7778 0.22201 0.50502 0.0
C121 C 0.79637 0.21133 0.46199 0.0
C122 C 0.74673 0.21077 0.43021 0.0
C123 C 0.66041 0.22497 0.48216 0.0
C124 C 0.70844 0.22452 0.51502 0.0
H125 H 0.76181 0.20981 0.3969 0.0
H126 H 0.608 0.23387 0.49052 0.0
H127 H 0.62366 0.13942 0.31495 0.0
H128 H 0.53591 1.00819 0.41058 0.0
H129 H 0.78543 0.47338 0.41402 0.0
H130 H 0.8489 0.20953 0.45231 0.0
H131 H 0.69133 0.23043 0.5478 0.0
C132 C 0.52839 0.60801 0.13674 0.0
C133 C 0.54383 0.54197 0.15534 0.0
N134 N 0.56269 0.55435 0.19589 0.0
N135 N 0.53892 0.66371 0.1647 0.0
C136 C 0.55877 0.62841 0.20112 0.0
H137 H 0.50857 0.61363 0.10471 0.0
Co138 Co 0.51723 0.76522 0.15389 0.0
C139 C 0.53374 0.81165 0.23507 0.0
O140 O 0.47258 0.78429 0.23628 0.0
N141 N 0.49303 0.86249 0.14373 0.0
C142 C 0.4235 0.95771 0.13384 0.0
C143 C 0.43554 0.89518 0.15764 0.0
C144 C 0.51588 0.90677 0.11248 0.0
N145 N 0.47398 0.96421 0.10518 0.0
O146 O 0.59844 0.77662 0.11713 0.0
H147 H 0.40124 0.87135 0.1806 0.0
H148 H 0.55791 0.89288 0.0918 0.0
O149 O 0.56989 0.79828 0.20206 0.0
C150 C 0.62962 0.74137 0.08747 0.0
O151 O 0.60784 0.67706 0.07504 0.0
N152 N 0.45972 0.73964 0.10837 0.0
C153 C 0.34829 0.74444 0.05396 0.0
C154 C 0.34131 0.72127 0.09645 0.0
C155 C 0.39796 0.71878 0.12309 0.0
C156 C 0.46792 0.75899 0.06637 0.0
C157 C 0.4128 0.76044 0.03842 0.0
H158 H 0.39162 0.70652 0.15674 0.0
H159 H 0.51495 0.78053 0.05486 0.0
H160 H 0.56929 0.65603 0.23102 0.0
H161 H 0.53905 0.48838 0.14062 0.0
H162 H 0.37884 0.99254 0.13551 0.0
H163 H 0.29189 0.70973 0.10963 0.0
H164 H 0.41949 0.78053 1.00606 0.0
C165 C 0.06961 0.45287 0.63281 0.0
C166 C 1.05429 0.52051 0.64971 0.0
N167 N 0.07065 0.52009 0.69156 0.0
N168 N 0.09551 0.40898 0.66367 0.0
C169 C 0.09601 0.45178 0.69918 0.0
H170 H 1.06218 0.43692 0.59985 0.0
Co171 Co 0.12696 0.3125 0.65453 0.0
C172 C 0.11027 0.26873 0.73915 0.0
O173 O 0.17039 0.29804 0.74277 0.0
N174 N 0.15978 0.21818 0.64455 0.0
C175 C 0.23434 0.12671 0.63653 0.0
C176 C 0.21505 0.18572 0.66182 0.0
C177 C 0.14596 0.17777 0.6096 0.0
N178 N 0.19049 0.1224 0.60371 0.0
O179 O 1.04727 0.29199 0.61944 0.0
H180 H 0.24308 0.20744 0.6886 0.0
H181 H 0.10894 0.19346 0.58587 0.0
O182 O 0.07887 0.27626 0.70382 0.0
C183 C 0.9847 0.30192 0.62814 0.0
O184 O 0.96704 0.33303 0.66451 0.0
N185 N 0.17858 0.34374 0.60738 0.0
C186 C 0.27769 0.34237 0.54325 0.0
C187 C 0.29511 0.35152 0.58655 0.0
C188 C 0.24471 0.3527 0.61797 0.0
C189 C 0.15968 0.34046 0.56537 0.0
C190 C 0.20848 0.34046 0.53284 0.0
H191 H 0.25899 0.35379 0.6514 0.0
H192 H 0.10745 0.33297 0.55661 0.0
H193 H 0.11404 0.43309 0.73002 0.0
H194 H 1.03348 0.56676 0.63217 0.0
H195 H 0.27903 0.09254 0.64057 0.0
H196 H 0.34737 0.35259 0.59667 0.0
H197 H 0.19201 0.33562 0.49993 0.0
C198 C 0.62307 0.44816 0.91505 0.0
C199 C 0.63675 0.51565 0.89784 0.0
N200 N 0.6143 0.51722 0.85711 0.0
N201 N 0.59242 0.40603 0.88547 0.0
C202 C 0.58718 0.44991 0.85049 0.0
H203 H 0.63309 0.43168 0.94771 0.0
Co204 Co 0.55638 0.31285 0.89711 0.0
C205 C 0.56344 0.26015 0.81492 0.0
O206 O 0.50505 0.29523 0.81332 0.0
N207 N 0.51853 0.22245 0.90929 0.0
C208 C 0.43823 0.14024 0.9205 0.0
C209 C 0.45875 0.19756 0.89489 0.0
C210 C 0.53375 0.17906 0.94291 0.0
N211 N 0.48561 0.12934 0.95084 0.0
O212 O 0.63608 0.28737 0.93216 0.0
H213 H 0.42902 0.22364 0.87004 0.0
H214 H 0.57516 0.18902 0.96445 0.0
O215 O 0.60022 0.26878 0.84797 0.0
C216 C 0.69897 0.29008 0.92296 0.0
O217 O 0.71773 0.31562 0.8855 0.0
N218 N 0.50815 0.35168 0.94401 0.0
C219 C 0.40516 0.349 1.00492 0.0
C220 C 0.39181 0.37206 0.96289 0.0
C221 C 0.44429 0.37289 0.93283 0.0
C222 C 0.52384 0.33839 0.98592 0.0
C223 C 0.47272 0.33627 1.01688 0.0
H224 H 0.43247 0.38193 0.89941 0.0
H225 H 0.57427 0.3217 0.99515 0.0
H226 H 0.56322 0.4331 0.82101 0.0
H227 H 0.65959 0.56091 0.91477 0.0
H228 H 0.39047 0.11206 0.91854 0.0
H229 H 0.34045 0.38211 0.95223 0.0
H230 H 0.48526 0.31936 0.04919 0.0
C231 C 0.09359 0.62916 0.41397 0.0
C232 C 0.07935 0.56247 0.39599 0.0
N233 N 0.09541 0.56488 0.35409 0.0
N234 N 0.11862 0.6744 0.38378 0.0
C235 C 0.11958 0.6334 0.34755 0.0
H236 H 0.08593 0.64362 0.44719 0.0
Co237 Co 0.1475 0.77055 0.39461 0.0
C238 C 0.13778 0.81605 0.31078 0.0
O239 O 0.19829 0.78546 0.30987 0.0
N240 N 0.17765 0.8646 0.40629 0.0
C241 C 0.24932 0.95596 0.41741 0.0
C242 C 0.2342 0.89676 0.39152 0.0
C243 C 0.15898 0.90538 0.44037 0.0
N244 N 0.20159 0.96073 0.44808 0.0
O245 O 1.06529 0.78957 0.42817 0.0
H246 H 0.26567 0.87481 0.36612 0.0
H247 H 0.11952 0.89016 0.46235 0.0
O248 O 0.10216 0.80826 0.34445 0.0
C249 C 1.00333 0.77959 0.4185 0.0
O250 O 0.98787 0.75007 0.38143 0.0
N251 N 0.19692 0.73792 0.44253 0.0
C252 C 0.29404 0.73648 0.50773 0.0
C253 C 0.31266 0.7262 0.46465 0.0
C254 C 0.26325 0.72651 0.4327 0.0
C255 C 0.17676 0.74261 0.48431 0.0
C256 C 0.22457 0.74128 0.51738 0.0
H257 H 0.27853 0.72455 0.39943 0.0
H258 H 0.12433 0.75217 0.49243 0.0
H259 H 0.13693 0.65355 0.31694 0.0
H260 H 1.05945 0.51549 0.41283 0.0
H261 H 0.29366 0.99004 0.41529 0.0
H262 H 0.36519 0.72308 0.45507 0.0
H263 H 0.20718 0.74724 0.55009 0.0
C264 C 0.29002 0.37007 0.03849 0.0
C265 C 0.34875 0.32644 0.0335 0.0
H266 H 0.18996 0.37857 0.06516 0.0
C267 C 0.35115 0.25681 0.05293 0.0
H268 H 0.28662 0.42382 1.02371 0.0
C269 C 0.29576 0.23049 0.07576 0.0
C270 C 0.23671 0.27348 0.0804 0.0
H271 H 0.39509 0.2213 0.04912 0.0
H272 H 0.29914 0.17595 0.08954 0.0
C273 C 0.23478 0.34418 0.06218 0.0
C274 C 0.46207 0.73114 0.56803 0.0
C275 C 0.44976 0.78037 0.60192 0.0
H276 H 0.42253 0.67578 0.51325 0.0
C277 C 0.38512 0.81257 0.60569 0.0
H278 H 0.51096 0.70469 0.56438 0.0
C279 C 0.33455 0.7974 0.57571 0.0
C280 C 0.34672 0.7484 0.54149 0.0
H281 H 0.37399 0.85115 0.63124 0.0
H282 H 0.28653 0.82603 0.57882 0.0
C283 C 0.41112 0.71478 0.5385 0.0
C284 C 0.24758 0.8244 0.04209 0.0
C285 C 0.28803 0.76495 0.02856 0.0
H286 H 0.16407 0.89601 0.02793 0.0
C287 C 0.27309 0.72968 0.98977 0.0
H288 H 0.25879 0.8529 0.07169 0.0
C289 C 0.21799 0.75354 0.96496 0.0
C290 C 0.17854 0.81436 0.97804 0.0
H291 H 0.30416 0.68408 0.97867 0.0
H292 H 0.20736 0.72577 0.93506 0.0
C293 C 0.1938 0.84932 1.0169 0.0
C294 C 0.4471 0.34164 0.48404 0.0
C295 C 0.43464 0.29345 0.44984 0.0
H296 H 0.40728 0.39768 0.53897 0.0
C297 C 0.36981 0.26357 0.44575 0.0
H298 H 0.49625 0.36621 0.48791 0.0
C299 C 0.31903 0.28022 0.47557 0.0
C300 C 0.33112 0.32848 0.50998 0.0
H301 H 0.3586 0.22576 0.41999 0.0
H302 H 0.2708 0.2534 0.47212 0.0
C303 C 0.39588 0.35947 0.51348 0.0
C304 C 0.69347 0.75658 1.01894 0.0
C305 C 0.6829 0.77781 0.06177 0.0
H306 H 0.75204 0.76959 0.96179 0.0
C307 C 0.72335 0.83352 0.07909 0.0
H308 H 0.6628 0.71446 1.00438 0.0
C309 C 0.77533 0.86471 0.05458 0.0
C310 C 0.78621 0.84248 1.01192 0.0
H311 H 0.71622 0.85125 0.11191 0.0
H312 H 0.80775 0.90525 0.06912 0.0
C313 C 0.744 0.78892 0.99426 0.0
C314 C 0.94574 0.22775 0.56496 0.0
C315 C 0.93183 0.27968 0.59723 0.0
H316 H 0.90785 0.16618 0.51193 0.0
C317 C 0.86639 0.3101 0.59999 0.0
H318 H 0.99538 0.20266 0.56219 0.0
C319 C 0.8164 0.29029 0.57069 0.0
C320 C 0.83005 0.23842 0.53819 0.0
H321 H 0.85407 0.35066 0.62426 0.0
H322 H 0.76757 0.31753 0.57289 0.0
C323 C 0.89537 0.20692 0.53604 0.0
C324 C 0.78549 0.19858 1.0186 0.0
C325 C 0.85254 0.22312 1.01448 0.0
H326 H 0.68451 0.20095 0.99365 0.0
C327 C 0.86773 0.26974 0.97979 0.0
H328 H 0.77144 0.16226 0.04446 0.0
C329 C 0.81809 0.29049 0.95016 0.0
C330 C 0.75119 0.26674 0.95462 0.0
H331 H 0.91773 0.29229 0.97592 0.0
H332 H 0.83202 0.32669 0.92416 0.0
C333 C 0.73541 0.22062 0.98928 0.0
C334 C 0.90875 0.86667 0.51208 0.0
C335 C 0.84504 0.83316 0.50936 0.0
H336 H 1.00852 0.87557 0.48619 0.0
C337 C 0.83385 0.78332 0.47561 0.0
H338 H 0.9193 0.90625 0.537 0.0
C339 C 0.88483 0.76704 0.44585 0.0
C340 C 0.94887 0.799 0.4494 0.0
H341 H 0.78636 0.7548 0.47276 0.0
H342 H 0.87453 0.72775 0.42068 0.0
C343 C 0.96013 0.84925 0.48276 0.0
C344 C 0.11679 0.44368 0.25677 0.0
C345 C 1.06782 0.3897 0.26437 0.0
H346 H 0.16416 0.54194 0.27938 0.0
C347 C 1.02888 0.39437 0.30191 0.0
H348 H 0.14742 0.4419 0.22801 0.0
C349 C 1.03795 0.45173 0.3309 0.0
C350 C 0.08647 0.50618 0.32343 0.0
H351 H 0.99036 0.35423 0.30873 0.0
H352 H 1.00572 0.45395 0.35888 0.0
C353 C 0.12594 0.50143 0.28598 0.0
C354 C 0.67347 0.69298 0.80663 0.0
C355 C 0.63016 0.70071 0.77126 0.0
H356 H 0.70384 0.62878 0.86042 0.0
C357 C 0.5798 0.64767 0.76505 0.0
H358 H 0.71319 0.73225 0.81236 0.0
C359 C 0.57422 0.58743 0.79305 0.0
C360 C 0.61869 0.57912 0.82798 0.0
H361 H 0.54598 0.65148 0.73787 0.0
H362 H 0.53521 0.54748 0.78727 0.0
C363 C 0.66794 0.63325 0.83443 0.0
C364 C 1.01052 0.63398 0.7133 0.0
C365 C 1.06068 0.58027 0.72127 0.0
H366 H 0.9598 0.7315 0.73463 0.0
C367 C 0.1005 0.58699 0.75836 0.0
H368 H 0.97809 0.63031 0.68553 0.0
C369 C 0.08977 0.64568 0.7869 0.0
C370 C 1.03876 0.69854 0.77901 0.0
H371 H 0.13999 0.5471 0.76528 0.0
H372 H 0.1204 0.6487 0.81556 0.0
C373 C 0.99981 0.69219 0.74166 0.0
C374 C 0.6322 0.37765 0.24029 0.0
C375 C 0.60355 0.37591 0.28142 0.0
H376 H 0.64195 0.43629 0.18118 0.0
C377 C 0.5631 0.43599 0.29482 0.0
H378 H 0.66416 0.33282 0.22912 0.0
C379 C 0.55187 0.49648 0.26758 0.0
C380 C 0.57987 0.49729 0.22622 0.0
H381 H 0.54129 0.43694 0.32665 0.0
H382 H 0.52001 0.54165 0.27832 0.0
C383 C 0.61995 0.43713 0.21295 0.0
C384 C 0.60177 0.92245 0.2584 0.0
C385 C 0.55177 0.8697 0.2667 0.0
H386 H 0.64887 1.02282 0.27877 0.0
C387 C 0.51178 0.87831 0.30356 0.0
H388 H 0.63284 0.91817 0.22992 0.0
C389 C 0.52006 0.93828 0.33084 0.0
C390 C 0.56912 0.99198 0.32262 0.0
H391 H 0.47233 0.83949 0.31091 0.0
H392 H 0.48632 0.94318 0.35798 0.0
C393 C 0.61028 0.98307 0.28605 0.0
C394 C 0.11725 0.14128 0.83441 0.0
C395 C 0.06932 0.08822 0.82346 0.0
H396 H 0.16648 0.24082 0.81711 0.0
C397 C 1.02661 0.10154 0.78834 0.0
H398 H 0.15071 0.13209 0.86136 0.0
C399 C 1.03603 0.16377 0.7624 0.0
C400 C 0.08819 0.21366 0.77137 0.0
H401 H 0.98985 0.06096 0.77901 0.0
H402 H 1.00564 0.16996 0.73377 0.0
C403 C 0.12635 0.20339 0.80888 0.0
C404 C 0.63389 0.08515 0.76262 0.0
C405 C 0.5911 0.07825 0.72683 0.0
H406 H 0.66004 0.14878 0.81823 0.0
C407 C 0.5424 0.13394 0.71957 0.0
H408 H 0.67231 0.04385 0.7691 0.0
C409 C 0.53608 0.19407 0.74711 0.0
C410 C 0.57788 0.20075 0.78318 0.0
H411 H 0.50759 0.13056 0.69299 0.0
H412 H 0.49695 0.23466 0.74055 0.0
C413 C 0.62744 0.14586 0.79046 0.0
C414 C 1.05861 0.98543 0.25888 0.0
C415 C 0.10697 1.00084 0.22728 0.0
H416 H 1.02994 0.91402 0.31043 0.0
C417 C 0.15837 0.94898 0.21906 0.0
H418 H 1.01909 1.02522 0.26609 0.0
C419 C 0.16451 0.88547 0.24392 0.0
C420 C 0.12 0.87285 0.27824 0.0
H421 H 0.19627 0.96 0.19493 0.0
H422 H 0.20703 0.84881 0.23797 0.0
C423 C 1.06515 0.92195 0.2843 0.0
C424 C 0.89384 0.55292 0.99943 0.0
C425 C 0.95174 0.5736 0.97658 0.0
H426 H 0.85415 0.49174 0.05203 0.0
C427 C 1.0149 0.5442 0.98855 0.0
H428 H 0.84459 0.5751 0.99111 0.0
C429 C 1.0205 0.49722 1.02363 0.0
C430 C 0.96304 0.47882 0.04756 0.0
H431 H 1.06022 0.55857 0.97117 0.0
H432 H 0.07014 0.47724 0.0328 0.0
C433 C 0.89947 0.50608 0.03467 0.0
C434 C 0.76386 0.54748 0.54451 0.0
C435 C 0.70367 0.56976 0.56493 0.0
H436 H 0.80857 0.49073 0.49107 0.0
C437 C 0.64148 0.55068 0.54668 0.0
H438 H 0.81245 0.56228 0.55763 0.0
C439 C 0.63926 0.51078 0.50866 0.0
C440 C 0.69918 0.48917 0.48785 0.0
H441 H 0.59438 0.56695 0.56184 0.0
H442 H 0.5905 0.49724 0.49529 0.0
C443 C 0.76162 0.50777 0.50611 0.0
C444 C 0.41884 0.07095 1.00834 0.0
C445 C 0.48148 0.08578 0.98912 0.0
H446 H 0.3672 1.02124 0.06099 0.0
C447 C 0.54108 0.06253 1.00966 0.0
H448 H 0.37211 0.08942 0.99367 0.0
C449 C 0.53838 1.02559 0.04856 0.0
C450 C 0.47598 1.00999 0.06771 0.0
H451 H 0.59007 0.07285 0.99558 0.0
H452 H 0.58533 1.00856 0.06355 0.0
C453 C 0.4161 1.0334 0.04736 0.0
C454 C 0.13803 1.02392 0.50478 0.0
C455 C 0.20043 1.00497 0.48618 0.0
H456 H 0.08628 0.07356 0.55748 0.0
C457 C 0.2604 1.02353 0.50752 0.0
H458 H 0.09109 1.01038 0.48899 0.0
C459 C 0.25762 0.06 0.54705 0.0
C460 C 0.19485 0.07861 0.5655 0.0
H461 H 0.30913 1.00847 0.49416 0.0
H462 H 0.30429 0.07491 0.5627 0.0
C463 C 0.13528 0.05995 0.54396 0.0
loop_
_geom_bond_atom_site_label_1
_geom_bond_atom_site_label_2
_geom_bond_distance
_geom_bond_site_symmetry_2
_ccdc_geom_bond_type
C0 C1 1.351 . S
C0 N3 1.368 . S
C0 H5 0.931 . S
C1 C0 1.351 . S
C1 N2 1.373 . S
C1 H29 0.930 . S
N2 C1 1.373 . S
N2 C4 1.340 . S
N3 C0 1.368 . S
N3 C4 1.321 . S
N3 Co6 2.135 . S
C4 N2 1.340 . S
C4 N3 1.321 . S
C4 H28 0.930 . S
H5 C0 0.931 . S
Co6 N3 2.135 . S
Co6 N9 2.121 . S
Co6 O14 2.055 . S
Co6 O17 2.039 . S
Co6 N20 2.140 1_455 S
C7 O8 1.227 1_455 S
C7 O17 1.265 . S
O8 C7 1.227 1_655 S
N9 Co6 2.121 . S
N9 C11 1.375 . S
N9 C12 1.313 . S
C10 C11 1.338 . S
C10 N13 1.377 . S
C10 H30 0.930 1_455 S
C11 N9 1.375 . S
C11 C10 1.338 . S
C11 H15 0.931 1_455 S
C12 N9 1.313 . S
C12 N13 1.344 . S
C12 H16 0.930 . S
N13 C10 1.377 . S
N13 C12 1.344 . S
O14 Co6 2.055 . S
O14 C18 1.253 . S
H15 C11 0.931 1_655 S
H16 C12 0.930 . S
O17 Co6 2.039 . S
O17 C7 1.265 . S
C18 O14 1.253 . S
C18 O19 1.227 . S
O19 C18 1.227 . S
N20 Co6 2.140 1_655 S
N20 C23 1.346 . S
N20 C24 1.345 . S
C21 C22 1.387 . S
C21 C25 1.391 . S
C22 C21 1.387 . S
C22 C23 1.369 . S
C22 H31 0.929 . S
C23 N20 1.346 . S
C23 C22 1.369 . S
C23 H26 0.928 . S
C24 N20 1.345 . S
C24 C25 1.371 . S
C24 H27 0.931 . S
C25 C21 1.391 . S
C25 C24 1.371 . S
C25 H32 0.930 . S
H26 C23 0.928 . S
H27 C24 0.931 . S
H28 C4 0.930 . S
H29 C1 0.930 . S
H30 C10 0.930 1_655 S
H31 C22 0.929 . S
H32 C25 0.930 . S
C33 C34 1.351 . S
C33 N36 1.368 . S
C33 H38 0.931 . S
C34 C33 1.351 . S
C34 N35 1.373 . S
C34 H62 0.930 . S
N35 C34 1.373 . S
N35 C37 1.340 . S
N36 C33 1.368 . S
N36 C37 1.321 . S
N36 Co39 2.135 . S
C37 N35 1.340 . S
C37 N36 1.321 . S
C37 H61 0.930 . S
H38 C33 0.931 . S
Co39 N36 2.135 . S
Co39 N42 2.121 . S
Co39 O47 2.055 . S
Co39 O50 2.039 . S
Co39 N53 2.140 . S
C40 O41 1.227 . S
C40 O50 1.265 . S
O41 C40 1.227 . S
N42 Co39 2.121 . S
N42 C44 1.375 . S
N42 C45 1.313 . S
C43 C44 1.338 . S
C43 N46 1.377 . S
C43 H63 0.930 . S
C44 N42 1.375 . S
C44 C43 1.338 . S
C44 H48 0.931 . S
C45 N42 1.313 . S
C45 N46 1.344 . S
C45 H49 0.930 . S
N46 C43 1.377 . S
N46 C45 1.344 . S
O47 Co39 2.055 . S
O47 C51 1.253 . S
H48 C44 0.931 . S
H49 C45 0.930 . S
O50 Co39 2.039 . S
O50 C40 1.265 . S
C51 O47 1.253 . S
C51 O52 1.227 . S
O52 C51 1.227 . S
N53 Co39 2.140 . S
N53 C56 1.346 . S
N53 C57 1.345 . S
C54 C55 1.387 . S
C54 C58 1.391 . S
C55 C54 1.387 . S
C55 C56 1.369 . S
C55 H64 0.929 . S
C56 N53 1.346 . S
C56 C55 1.369 . S
C56 H59 0.928 . S
C57 N53 1.345 . S
C57 C58 1.371 . S
C57 H60 0.931 . S
C58 C54 1.391 . S
C58 C57 1.371 . S
C58 H65 0.930 . S
H59 C56 0.928 . S
H60 C57 0.931 . S
H61 C37 0.930 . S
H62 C34 0.930 . S
H63 C43 0.930 . S
H64 C55 0.929 . S
H65 C58 0.930 . S
C66 C67 1.351 . S
C66 N69 1.368 . S
C66 H71 0.931 . S
C67 C66 1.351 . S
C67 N68 1.373 . S
C67 H95 0.930 . S
N68 C67 1.373 . S
N68 C70 1.340 . S
N69 C66 1.368 . S
N69 C70 1.321 . S
N69 Co72 2.135 . S
C70 N68 1.340 . S
C70 N69 1.321 . S
C70 H94 0.930 . S
H71 C66 0.931 . S
Co72 N69 2.135 . S
Co72 N75 2.121 . S
Co72 O80 2.055 . S
Co72 O83 2.039 . S
Co72 N86 2.140 1_455 S
C73 O74 1.227 1_455 S
C73 O83 1.265 . S
O74 C73 1.227 1_655 S
N75 Co72 2.121 . S
N75 C77 1.375 . S
N75 C78 1.313 . S
C76 C77 1.338 . S
C76 N79 1.377 . S
C76 H96 0.930 1_455 S
C77 N75 1.375 . S
C77 C76 1.338 . S
C77 H81 0.931 1_455 S
C78 N75 1.313 . S
C78 N79 1.344 . S
C78 H82 0.930 . S
N79 C76 1.377 . S
N79 C78 1.344 . S
O80 Co72 2.055 . S
O80 C84 1.253 . S
H81 C77 0.931 1_655 S
H82 C78 0.930 . S
O83 Co72 2.039 . S
O83 C73 1.265 . S
C84 O80 1.253 . S
C84 O85 1.227 . S
O85 C84 1.227 . S
N86 Co72 2.140 1_655 S
N86 C89 1.346 . S
N86 C90 1.345 . S
C87 C88 1.387 . S
C87 C91 1.391 . S
C88 C87 1.387 . S
C88 C89 1.369 . S
C88 H97 0.929 . S
C89 N86 1.346 . S
C89 C88 1.369 . S
C89 H92 0.928 . S
C90 N86 1.345 . S
C90 C91 1.371 . S
C90 H93 0.931 . S
C91 C87 1.391 . S
C91 C90 1.371 . S
C91 H98 0.930 . S
H92 C89 0.928 . S
H93 C90 0.931 . S
H94 C70 0.930 . S
H95 C67 0.930 . S
H96 C76 0.930 1_655 S
H97 C88 0.929 . S
H98 C91 0.930 . S
C99 C100 1.351 . S
C99 N102 1.368 . S
C99 H104 0.931 . S
C100 C99 1.351 . S
C100 N101 1.373 . S
C100 H128 0.930 . S
N101 C100 1.373 . S
N101 C103 1.340 . S
N102 C99 1.368 . S
N102 C103 1.321 . S
N102 Co105 2.135 . S
C103 N101 1.340 . S
C103 N102 1.321 . S
C103 H127 0.930 . S
H104 C99 0.931 . S
Co105 N102 2.135 . S
Co105 N108 2.121 . S
Co105 O113 2.055 . S
Co105 O116 2.039 . S
Co105 N119 2.140 . S
C106 O107 1.227 . S
C106 O116 1.265 . S
O107 C106 1.227 . S
N108 Co105 2.121 . S
N108 C110 1.375 . S
N108 C111 1.313 . S
C109 C110 1.338 . S
C109 N112 1.377 . S
C109 H129 0.930 . S
C110 N108 1.375 . S
C110 C109 1.338 . S
C110 H114 0.931 . S
C111 N108 1.313 . S
C111 N112 1.344 . S
C111 H115 0.930 . S
N112 C109 1.377 . S
N112 C111 1.344 . S
O113 Co105 2.055 . S
O113 C117 1.253 . S
H114 C110 0.931 . S
H115 C111 0.930 . S
O116 Co105 2.039 . S
O116 C106 1.265 . S
C117 O113 1.253 . S
C117 O118 1.227 . S
O118 C117 1.227 . S
N119 Co105 2.140 . S
N119 C122 1.346 . S
N119 C123 1.345 . S
C120 C121 1.387 . S
C120 C124 1.391 . S
C121 C120 1.387 . S
C121 C122 1.369 . S
C121 H130 0.929 . S
C122 N119 1.346 . S
C122 C121 1.369 . S
C122 H125 0.928 . S
C123 N119 1.345 . S
C123 C124 1.371 . S
C123 H126 0.931 . S
C124 C120 1.391 . S
C124 C123 1.371 . S
C124 H131 0.930 . S
H125 C122 0.928 . S
H126 C123 0.931 . S
H127 C103 0.930 . S
H128 C100 0.930 . S
H129 C109 0.930 . S
H130 C121 0.929 . S
H131 C124 0.930 . S
C132 C133 1.351 . S
C132 N135 1.368 . S
C132 H137 0.931 . S
C133 C132 1.351 . S
C133 N134 1.373 . S
C133 H161 0.930 . S
N134 C133 1.373 . S
N134 C136 1.340 . S
N135 C132 1.368 . S
N135 C136 1.321 . S
N135 Co138 2.135 . S
C136 N134 1.340 . S
C136 N135 1.321 . S
C136 H160 0.930 . S
H137 C132 0.931 . S
Co138 N135 2.135 . S
Co138 N141 2.121 . S
Co138 O146 2.055 . S
Co138 O149 2.039 . S
Co138 N152 2.140 . S
C139 O140 1.227 . S
C139 O149 1.265 . S
O140 C139 1.227 . S
N141 Co138 2.121 . S
N141 C143 1.375 . S
N141 C144 1.313 . S
C142 C143 1.338 . S
C142 N145 1.377 . S
C142 H162 0.930 1_565 S
C143 N141 1.375 . S
C143 C142 1.338 . S
C143 H147 0.931 . S
C144 N141 1.313 . S
C144 N145 1.344 . S
C144 H148 0.930 . S
N145 C142 1.377 . S
N145 C144 1.344 . S
O146 Co138 2.055 . S
O146 C150 1.253 . S
H147 C143 0.931 . S
H148 C144 0.930 . S
O149 Co138 2.039 . S
O149 C139 1.265 . S
C150 O146 1.253 . S
C150 O151 1.227 . S
O151 C150 1.227 . S
N152 Co138 2.140 . S
N152 C155 1.346 . S
N152 C156 1.345 . S
C153 C154 1.387 . S
C153 C157 1.391 . S
C154 C153 1.387 . S
C154 C155 1.369 . S
C154 H163 0.929 . S
C155 N152 1.346 . S
C155 C154 1.369 . S
C155 H158 0.928 . S
C156 N152 1.345 . S
C156 C157 1.371 . S
C156 H159 0.931 . S
C157 C153 1.391 . S
C157 C156 1.371 . S
C157 H164 0.930 . S
H158 C155 0.928 . S
H159 C156 0.931 . S
H160 C136 0.930 . S
H161 C133 0.930 . S
H162 C142 0.930 1_545 S
H163 C154 0.929 . S
H164 C157 0.930 . S
C165 C166 1.351 . S
C165 N168 1.368 . S
C165 H170 0.931 . S
C166 C165 1.351 . S
C166 N167 1.373 . S
C166 H194 0.930 . S
N167 C166 1.373 . S
N167 C169 1.340 . S
N168 C165 1.368 . S
N168 C169 1.321 . S
N168 Co171 2.135 . S
C169 N167 1.340 . S
C169 N168 1.321 . S
C169 H193 0.930 . S
H170 C165 0.931 . S
Co171 N168 2.135 . S
Co171 N174 2.121 . S
Co171 O179 2.055 . S
Co171 O182 2.039 . S
Co171 N185 2.140 1_655 S
C172 O173 1.227 . S
C172 O182 1.265 1_455 S
O173 C172 1.227 . S
N174 Co171 2.121 . S
N174 C176 1.375 1_655 S
N174 C177 1.313 . S
C175 C176 1.338 . S
C175 N178 1.377 1_455 S
C175 H195 0.930 1_545 S
C176 N174 1.375 1_455 S
C176 C175 1.338 . S
C176 H180 0.931 . S
C177 N174 1.313 . S
C177 N178 1.344 . S
C177 H181 0.930 . S
N178 C175 1.377 1_655 S
N178 C177 1.344 . S
O179 Co171 2.055 . S
O179 C183 1.253 . S
H180 C176 0.931 . S
H181 C177 0.930 . S
O182 Co171 2.039 . S
O182 C172 1.265 1_655 S
C183 O179 1.253 . S
C183 O184 1.227 . S
O184 C183 1.227 . S
N185 Co171 2.140 1_455 S
N185 C188 1.346 . S
N185 C189 1.345 . S
C186 C187 1.387 . S
C186 C190 1.391 . S
C187 C186 1.387 . S
C187 C188 1.369 . S
C187 H196 0.929 . S
C188 N185 1.346 . S
C188 C187 1.369 . S
C188 H191 0.928 . S
C189 N185 1.345 . S
C189 C190 1.371 . S
C189 H192 0.931 . S
C190 C186 1.391 . S
C190 C189 1.371 . S
C190 H197 0.930 . S
H191 C188 0.928 . S
H192 C189 0.931 . S
H193 C169 0.930 . S
H194 C166 0.930 . S
H195 C175 0.930 1_565 S
H196 C187 0.929 . S
H197 C190 0.930 . S
C198 C199 1.351 . S
C198 N201 1.368 . S
C198 H203 0.931 . S
C199 C198 1.351 . S
C199 N200 1.373 . S
C199 H227 0.930 . S
N200 C199 1.373 . S
N200 C202 1.340 . S
N201 C198 1.368 . S
N201 C202 1.321 . S
N201 Co204 2.135 . S
C202 N200 1.340 . S
C202 N201 1.321 . S
C202 H226 0.930 . S
H203 C198 0.931 . S
Co204 N201 2.135 . S
Co204 N207 2.121 . S
Co204 O212 2.055 . S
Co204 O215 2.039 . S
Co204 N218 2.140 . S
C205 O206 1.227 . S
C205 O215 1.265 . S
O206 C205 1.227 . S
N207 Co204 2.121 . S
N207 C209 1.375 . S
N207 C210 1.313 . S
C208 C209 1.338 . S
C208 N211 1.377 . S
C208 H228 0.930 1_545 S
C209 N207 1.375 . S
C209 C208 1.338 . S
C209 H213 0.931 . S
C210 N207 1.313 . S
C210 N211 1.344 . S
C210 H214 0.930 . S
N211 C208 1.377 . S
N211 C210 1.344 . S
O212 Co204 2.055 . S
O212 C216 1.253 . S
H213 C209 0.931 . S
H214 C210 0.930 . S
O215 Co204 2.039 . S
O215 C205 1.265 . S
C216 O212 1.253 . S
C216 O217 1.227 . S
O217 C216 1.227 . S
N218 Co204 2.140 . S
N218 C221 1.346 . S
N218 C222 1.345 . S
C219 C220 1.387 . S
C219 C223 1.391 . S
C220 C219 1.387 . S
C220 C221 1.369 . S
C220 H229 0.929 . S
C221 N218 1.346 . S
C221 C220 1.369 . S
C221 H224 0.928 . S
C222 N218 1.345 . S
C222 C223 1.371 . S
C222 H225 0.931 . S
C223 C219 1.391 . S
C223 C222 1.371 . S
C223 H230 0.930 . S
H224 C221 0.928 . S
H225 C222 0.931 . S
H226 C202 0.930 . S
H227 C199 0.930 . S
H228 C208 0.930 1_565 S
H229 C220 0.929 . S
H230 C223 0.930 . S
C231 C232 1.351 . S
C231 N234 1.368 . S
C231 H236 0.931 . S
C232 C231 1.351 . S
C232 N233 1.373 . S
C232 H260 0.930 . S
N233 C232 1.373 . S
N233 C235 1.340 . S
N234 C231 1.368 . S
N234 C235 1.321 . S
N234 Co237 2.135 . S
C235 N233 1.340 . S
C235 N234 1.321 . S
C235 H259 0.930 . S
H236 C231 0.931 . S
Co237 N234 2.135 . S
Co237 N240 2.121 . S
Co237 O245 2.055 . S
Co237 O248 2.039 . S
Co237 N251 2.140 1_655 S
C238 O239 1.227 . S
C238 O248 1.265 1_455 S
O239 C238 1.227 . S
N240 Co237 2.121 . S
N240 C242 1.375 1_655 S
N240 C243 1.313 . S
C241 C242 1.338 . S
C241 N244 1.377 1_455 S
C241 H261 0.930 1_565 S
C242 N240 1.375 1_455 S
C242 C241 1.338 . S
C242 H246 0.931 . S
C243 N240 1.313 . S
C243 N244 1.344 . S
C243 H247 0.930 . S
N244 C241 1.377 1_655 S
N244 C243 1.344 . S
O245 Co237 2.055 . S
O245 C249 1.253 . S
H246 C242 0.931 . S
H247 C243 0.930 . S
O248 Co237 2.039 . S
O248 C238 1.265 1_655 S
C249 O245 1.253 . S
C249 O250 1.227 . S
O250 C249 1.227 . S
N251 Co237 2.140 1_455 S
N251 C254 1.346 . S
N251 C255 1.345 . S
C252 C253 1.387 . S
C252 C256 1.391 . S
C253 C252 1.387 . S
C253 C254 1.369 . S
C253 H262 0.929 . S
C254 N251 1.346 . S
C254 C253 1.369 . S
C254 H257 0.928 . S
C255 N251 1.345 . S
C255 C256 1.371 . S
C255 H258 0.931 . S
C256 C252 1.391 . S
C256 C255 1.371 . S
C256 H263 0.930 . S
H257 C254 0.928 . S
H258 C255 0.931 . S
H259 C235 0.930 . S
H260 C232 0.930 . S
H261 C241 0.930 1_545 S
H262 C253 0.929 . S
H263 C256 0.930 . S
C264 C265 1.387 1_554 S
C264 H268 0.950 . S
C264 C273 1.390 . S
C265 C264 1.387 1_556 S
C265 C267 1.387 . S
H266 C273 0.950 . S
C267 C265 1.387 . S
C267 C269 1.390 1_556 S
C267 H271 0.950 . S
H268 C264 0.950 . S
C269 C267 1.390 1_554 S
C269 C270 1.387 . S
C269 H272 0.950 1_554 S
C270 C269 1.387 . S
C270 C273 1.387 . S
H271 C267 0.950 . S
H272 C269 0.950 1_556 S
C273 C264 1.390 . S
C273 H266 0.950 . S
C273 C270 1.387 . S
C274 C275 1.387 . S
C274 H278 0.950 . S
C274 C283 1.390 . S
C275 C274 1.387 . S
C275 C277 1.387 . S
H276 C283 0.950 . S
C277 C275 1.387 . S
C277 C279 1.390 . S
C277 H281 0.950 . S
H278 C274 0.950 . S
C279 C277 1.390 . S
C279 C280 1.387 . S
C279 H282 0.950 . S
C280 C279 1.387 . S
C280 C283 1.387 . S
H281 C277 0.950 . S
H282 C279 0.950 . S
C283 C274 1.390 . S
C283 H276 0.950 . S
C283 C280 1.387 . S
C284 C285 1.387 . S
C284 H288 0.950 . S
C284 C293 1.390 1_554 S
C285 C284 1.387 . S
C285 C287 1.387 1_554 S
H286 C293 0.950 . S
C287 C285 1.387 1_556 S
C287 C289 1.390 . S
C287 H291 0.950 . S
H288 C284 0.950 . S
C289 C287 1.390 . S
C289 C290 1.387 . S
C289 H292 0.950 . S
C290 C289 1.387 . S
C290 C293 1.387 . S
H291 C287 0.950 . S
H292 C289 0.950 . S
C293 C284 1.390 1_556 S
C293 H286 0.950 . S
C293 C290 1.387 . S
C294 C295 1.387 . S
C294 H298 0.950 . S
C294 C303 1.390 . S
C295 C294 1.387 . S
C295 C297 1.387 . S
H296 C303 0.950 . S
C297 C295 1.387 . S
C297 C299 1.390 . S
C297 H301 0.950 . S
H298 C294 0.950 . S
C299 C297 1.390 . S
C299 C300 1.387 . S
C299 H302 0.950 . S
C300 C299 1.387 . S
C300 C303 1.387 . S
H301 C297 0.950 . S
H302 C299 0.950 . S
C303 C294 1.390 . S
C303 H296 0.950 . S
C303 C300 1.387 . S
C304 C305 1.387 1_556 S
C304 H308 0.950 . S
C304 C313 1.390 . S
C305 C304 1.387 1_554 S
C305 C307 1.387 . S
H306 C313 0.950 . S
C307 C305 1.387 . S
C307 C309 1.390 . S
C307 H311 0.950 . S
H308 C304 0.950 . S
C309 C307 1.390 . S
C309 C310 1.387 1_554 S
C309 H312 0.950 . S
C310 C309 1.387 1_556 S
C310 C313 1.387 . S
H311 C307 0.950 . S
H312 C309 0.950 . S
C313 C304 1.390 . S
C313 H306 0.950 . S
C313 C310 1.387 . S
C314 C315 1.387 . S
C314 H318 0.950 . S
C314 C323 1.390 . S
C315 C314 1.387 . S
C315 C317 1.387 . S
H316 C323 0.950 . S
C317 C315 1.387 . S
C317 C319 1.390 . S
C317 H321 0.950 . S
H318 C314 0.950 . S
C319 C317 1.390 . S
C319 C320 1.387 . S
C319 H322 0.950 . S
C320 C319 1.387 . S
C320 C323 1.387 . S
H321 C317 0.950 . S
H322 C319 0.950 . S
C323 C314 1.390 . S
C323 H316 0.950 . S
C323 C320 1.387 . S
C324 C325 1.387 . S
C324 H328 0.950 . S
C324 C333 1.390 1_554 S
C325 C324 1.387 . S
C325 C327 1.387 . S
H326 C333 0.950 . S
C327 C325 1.387 . S
C327 C329 1.390 1_554 S
C327 H331 0.950 . S
H328 C324 0.950 . S
C329 C327 1.390 1_556 S
C329 C330 1.387 . S
C329 H332 0.950 . S
C330 C329 1.387 . S
C330 C333 1.387 . S
H331 C327 0.950 . S
H332 C329 0.950 . S
C333 C324 1.390 1_556 S
C333 H326 0.950 . S
C333 C330 1.387 . S
C334 C335 1.387 . S
C334 H338 0.950 . S
C334 C343 1.390 . S
C335 C334 1.387 . S
C335 C337 1.387 . S
H336 C343 0.950 . S
C337 C335 1.387 . S
C337 C339 1.390 . S
C337 H341 0.950 . S
H338 C334 0.950 . S
C339 C337 1.390 . S
C339 C340 1.387 . S
C339 H342 0.950 . S
C340 C339 1.387 . S
C340 C343 1.387 . S
H341 C337 0.950 . S
H342 C339 0.950 . S
C343 C334 1.390 . S
C343 H336 0.950 . S
C343 C340 1.387 . S
C344 C345 1.387 . S
C344 H348 0.950 . S
C344 C353 1.390 . S
C345 C344 1.387 . S
C345 C347 1.387 1_455 S
H346 C353 0.950 . S
C347 C345 1.387 1_655 S
C347 C349 1.390 . S
C347 H351 0.950 . S
H348 C344 0.950 . S
C349 C347 1.390 . S
C349 C350 1.387 . S
C349 H352 0.950 . S
C350 C349 1.387 . S
C350 C353 1.387 1_655 S
H351 C347 0.950 . S
H352 C349 0.950 . S
C353 C344 1.390 . S
C353 H346 0.950 . S
C353 C350 1.387 1_455 S
C354 C355 1.387 . S
C354 H358 0.950 . S
C354 C363 1.390 . S
C355 C354 1.387 . S
C355 C357 1.387 . S
H356 C363 0.950 . S
C357 C355 1.387 . S
C357 C359 1.390 . S
C357 H361 0.950 . S
H358 C354 0.950 . S
C359 C357 1.390 . S
C359 C360 1.387 . S
C359 H362 0.950 . S
C360 C359 1.387 . S
C360 C363 1.387 . S
H361 C357 0.950 . S
H362 C359 0.950 . S
C363 C354 1.390 . S
C363 H356 0.950 . S
C363 C360 1.387 . S
C364 C365 1.387 . S
C364 H368 0.950 . S
C364 C373 1.390 . S
C365 C364 1.387 . S
C365 C367 1.387 1_655 S
H366 C373 0.950 . S
C367 C365 1.387 1_455 S
C367 C369 1.390 . S
C367 H371 0.950 . S
H368 C364 0.950 . S
C369 C367 1.390 . S
C369 C370 1.387 . S
C369 H372 0.950 . S
C370 C369 1.387 . S
C370 C373 1.387 1_455 S
H371 C367 0.950 . S
H372 C369 0.950 . S
C373 C364 1.390 . S
C373 H366 0.950 . S
C373 C370 1.387 1_655 S
C374 C375 1.387 . S
C374 H378 0.950 . S
C374 C383 1.390 . S
C375 C374 1.387 . S
C375 C377 1.387 . S
H376 C383 0.950 . S
C377 C375 1.387 . S
C377 C379 1.390 . S
C377 H381 0.950 . S
H378 C374 0.950 . S
C379 C377 1.390 . S
C379 C380 1.387 . S
C379 H382 0.950 . S
C380 C379 1.387 . S
C380 C383 1.387 . S
H381 C377 0.950 . S
H382 C379 0.950 . S
C383 C374 1.390 . S
C383 H376 0.950 . S
C383 C380 1.387 . S
C384 C385 1.387 . S
C384 H388 0.950 . S
C384 C393 1.390 1_565 S
C385 C384 1.387 . S
C385 C387 1.387 . S
H386 C393 0.950 . S
C387 C385 1.387 . S
C387 C389 1.390 1_565 S
C387 H391 0.950 . S
H388 C384 0.950 . S
C389 C387 1.390 1_545 S
C389 C390 1.387 . S
C389 H392 0.950 . S
C390 C389 1.387 . S
C390 C393 1.387 . S
H391 C387 0.950 . S
H392 C389 0.950 . S
C393 C384 1.390 1_545 S
C393 H386 0.950 . S
C393 C390 1.387 . S
C394 C395 1.387 1_545 S
C394 H398 0.950 . S
C394 C403 1.390 . S
C395 C394 1.387 1_565 S
C395 C397 1.387 . S
H396 C403 0.950 . S
C397 C395 1.387 . S
C397 C399 1.390 1_565 S
C397 H401 0.950 . S
H398 C394 0.950 . S
C399 C397 1.390 1_545 S
C399 C400 1.387 . S
C399 H402 0.950 . S
C400 C399 1.387 . S
C400 C403 1.387 . S
H401 C397 0.950 . S
H402 C399 0.950 . S
C403 C394 1.390 . S
C403 H396 0.950 . S
C403 C400 1.387 . S
C404 C405 1.387 . S
C404 H408 0.950 . S
C404 C413 1.390 1_565 S
C405 C404 1.387 . S
C405 C407 1.387 . S
H406 C413 0.950 . S
C407 C405 1.387 . S
C407 C409 1.390 1_565 S
C407 H411 0.950 . S
H408 C404 0.950 . S
C409 C407 1.390 1_545 S
C409 C410 1.387 . S
C409 H412 0.950 . S
C410 C409 1.387 . S
C410 C413 1.387 . S
H411 C407 0.950 . S
H412 C409 0.950 . S
C413 C404 1.390 1_545 S
C413 H406 0.950 . S
C413 C410 1.387 . S
C414 C415 1.387 . S
C414 H418 0.950 . S
C414 C423 1.390 1_545 S
C415 C414 1.387 . S
C415 C417 1.387 1_545 S
H416 C423 0.950 1_655 S
C417 C415 1.387 1_565 S
C417 C419 1.390 . S
C417 H421 0.950 . S
H418 C414 0.950 . S
C419 C417 1.390 . S
C419 C420 1.387 . S
C419 H422 0.950 . S
C420 C419 1.387 . S
C420 C423 1.387 . S
H421 C417 0.950 . S
H422 C419 0.950 . S
C423 C414 1.390 1_565 S
C423 H416 0.950 1_455 S
C423 C420 1.387 . S
C424 C425 1.387 . S
C424 H428 0.950 1_455 S
C424 C433 1.390 1_556 S
C425 C424 1.387 . S
C425 C427 1.387 . S
H426 C433 0.950 1_655 S
C427 C425 1.387 . S
C427 C429 1.390 1_556 S
C427 H431 0.950 . S
H428 C424 0.950 1_655 S
C429 C427 1.390 1_554 S
C429 C430 1.387 . S
C429 H432 0.950 . S
C430 C429 1.387 . S
C430 C433 1.387 . S
H431 C427 0.950 . S
H432 C429 0.950 . S
C433 C424 1.390 1_554 S
C433 H426 0.950 1_455 S
C433 C430 1.387 . S
C434 C435 1.387 . S
C434 H438 0.950 . S
C434 C443 1.390 . S
C435 C434 1.387 . S
C435 C437 1.387 . S
H436 C443 0.950 . S
C437 C435 1.387 . S
C437 C439 1.390 . S
C437 H441 0.950 . S
H438 C434 0.950 . S
C439 C437 1.390 . S
C439 C440 1.387 . S
C439 H442 0.950 . S
C440 C439 1.387 . S
C440 C443 1.387 . S
H441 C437 0.950 . S
H442 C439 0.950 . S
C443 C434 1.390 . S
C443 H436 0.950 . S
C443 C440 1.387 . S
C444 C445 1.387 . S
C444 H448 0.950 . S
C444 C453 1.390 1_546 S
C445 C444 1.387 . S
C445 C447 1.387 . S
H446 C453 0.950 . S
C447 C445 1.387 . S
C447 C449 1.390 1_546 S
C447 H451 0.950 . S
H448 C444 0.950 . S
C449 C447 1.390 1_564 S
C449 C450 1.387 . S
C449 H452 0.950 . S
C450 C449 1.387 . S
C450 C453 1.387 . S
H451 C447 0.950 . S
H452 C449 0.950 . S
C453 C444 1.390 1_564 S
C453 H446 0.950 . S
C453 C450 1.387 . S
C454 C455 1.387 . S
C454 H458 0.950 . S
C454 C463 1.390 1_565 S
C455 C454 1.387 . S
C455 C457 1.387 1_655 S
H456 C463 0.950 . S
C457 C455 1.387 1_455 S
C457 C459 1.390 1_565 S
C457 H461 0.950 . S
H458 C454 0.950 . S
C459 C457 1.390 1_545 S
C459 C460 1.387 1_455 S
C459 H462 0.950 . S
C460 C459 1.387 1_655 S
C460 C463 1.387 . S
H461 C457 0.950 . S
H462 C459 0.950 . S
C463 C454 1.390 1_545 S
C463 H456 0.950 . S
C463 C460 1.387 . S
C265 C219 1.815 . S
C270 C18 1.828 . S
C275 C51 1.828 . S
C280 C252 1.815 . S
C285 C153 1.818 . S
C290 C84 1.830 . S
C295 C117 1.830 . S
C300 C186 1.817 . S
C305 C150 1.831 . S
C310 C87 1.818 . S
C315 C183 1.829 . S
C320 C120 1.816 . S
C325 C21 1.816 . S
C330 C216 1.829 . S
C335 C54 1.816 . S
C340 C249 1.829 . S
C345 C7 1.914 . S
C350 N233 1.870 . S
C355 C40 1.913 . S
C360 N200 1.869 . S
C365 N167 1.869 . S
C370 C73 1.913 . S
C375 C106 1.913 . S
C380 N134 1.869 . S
C385 C139 1.914 . S
C390 N101 1.871 . S
C395 N68 1.871 . S
C400 C172 1.913 . S
C405 N35 1.871 . S
C410 C205 1.914 . S
C415 N2 1.870 . S
C420 C238 1.914 . S
C425 N79 0.413 . S
C430 N13 0.413 . S
C435 N46 0.413 . S
C440 N112 0.413 . S
C445 N211 0.413 . S
C450 N145 0.413 . S
C455 N244 0.404 . S
C460 N178 0.404 . S
