# Generated by pormake.
# Topology wmn, (6)-cn, num edge types: 1
# Building blocks:
#     Node 0, Type 0, BuildingBlock: KUMBUR_clean_sbu_1, # of connection points: 6
#     Node 1, Type 0, BuildingBlock: KUMBUR_clean_sbu_1, # of connection points: 6
#     Node 2, Type 0, BuildingBlock: KUMBUR_clean_sbu_1, # of connection points: 6
#     Node 3, Type 0, BuildingBlock: KUMBUR_clean_sbu_1, # of connection points: 6
#     Node 4, Type 0, BuildingBlock: KUMBUR_clean_sbu_1, # of connection points: 6
#     Node 5, Type 0, BuildingBlock: KUMBUR_clean_sbu_1, # of connection points: 6
#     Node 6, Type 0, BuildingBlock: KUMBUR_clean_sbu_1, # of connection points: 6
#     Node 7, Type 0, BuildingBlock: KUMBUR_clean_sbu_1, # of connection points: 6
#     Node 8, Type 0, BuildingBlock: KUMBUR_clean_sbu_1, # of connection points: 6
#     Node 9, Type 0, BuildingBlock: KUMBUR_clean_sbu_1, # of connection points: 6
#     Node 10, Type 0, BuildingBlock: KUMBUR_clean_sbu_1, # of connection points: 6
#     Node 11, Type 0, BuildingBlock: KUMBUR_clean_sbu_1, # of connection points: 6
#     Edge 12, Type (0, 0), BuildingBlock: CIFDUS_clean_linker_0, # of connection points: 2
#     Edge 13, Type (0, 0), BuildingBlock: CIFDUS_clean_linker_0, # of connection points: 2
#     Edge 14, Type (0, 0), BuildingBlock: CIFDUS_clean_linker_0, # of connection points: 2
#     Edge 15, Type (0, 0), BuildingBlock: CIFDUS_clean_linker_0, # of connection points: 2
#     Edge 16, Type (0, 0), BuildingBlock: CIFDUS_clean_linker_0, # of connection points: 2
#     Edge 17, Type (0, 0), BuildingBlock: CIFDUS_clean_linker_0, # of connection points: 2
#     Edge 18, Type (0, 0), BuildingBlock: CIFDUS_clean_linker_0, # of connection points: 2
#     Edge 19, Type (0, 0), BuildingBlock: CIFDUS_clean_linker_0, # of connection points: 2
#     Edge 20, Type (0, 0), BuildingBlock: CIFDUS_clean_linker_0, # of connection points: 2
#     Edge 21, Type (0, 0), BuildingBlock: CIFDUS_clean_linker_0, # of connection points: 2
#     Edge 22, Type (0, 0), BuildingBlock: CIFDUS_clean_linker_0, # of connection points: 2
#     Edge 23, Type (0, 0), BuildingBlock: CIFDUS_clean_linker_0, # of connection points: 2
#     Edge 24, Type (0, 0), BuildingBlock: CIFDUS_clean_linker_0, # of connection points: 2
#     Edge 25, Type (0, 0), BuildingBlock: CIFDUS_clean_linker_0, # of connection points: 2
#     Edge 26, Type (0, 0), BuildingBlock: CIFDUS_clean_linker_0, # of connection points: 2
#     Edge 27, Type (0, 0), BuildingBlock: CIFDUS_clean_linker_0, # of connection points: 2
#     Edge 28, Type (0, 0), BuildingBlock: CIFDUS_clean_linker_0, # of connection points: 2
#     Edge 29, Type (0, 0), BuildingBlock: CIFDUS_clean_linker_0, # of connection points: 2
#     Edge 30, Type (0, 0), BuildingBlock: CIFDUS_clean_linker_0, # of connection points: 2
#     Edge 31, Type (0, 0), BuildingBlock: CIFDUS_clean_linker_0, # of connection points: 2
#     Edge 32, Type (0, 0), BuildingBlock: CIFDUS_clean_linker_0, # of connection points: 2
#     Edge 33, Type (0, 0), BuildingBlock: CIFDUS_clean_linker_0, # of connection points: 2
#     Edge 34, Type (0, 0), BuildingBlock: CIFDUS_clean_linker_0, # of connection points: 2
#     Edge 35, Type (0, 0), BuildingBlock: CIFDUS_clean_linker_0, # of connection points: 2
#     Edge 36, Type (0, 0), BuildingBlock: CIFDUS_clean_linker_0, # of connection points: 2
#     Edge 37, Type (0, 0), BuildingBlock: CIFDUS_clean_linker_0, # of connection points: 2
#     Edge 38, Type (0, 0), BuildingBlock: CIFDUS_clean_linker_0, # of connection points: 2
#     Edge 39, Type (0, 0), BuildingBlock: CIFDUS_clean_linker_0, # of connection points: 2
#     Edge 40, Type (0, 0), BuildingBlock: CIFDUS_clean_linker_0, # of connection points: 2
#     Edge 41, Type (0, 0), BuildingBlock: CIFDUS_clean_linker_0, # of connection points: 2
#     Edge 42, Type (0, 0), BuildingBlock: CIFDUS_clean_linker_0, # of connection points: 2
#     Edge 43, Type (0, 0), BuildingBlock: CIFDUS_clean_linker_0, # of connection points: 2
#     Edge 44, Type (0, 0), BuildingBlock: CIFDUS_clean_linker_0, # of connection points: 2
#     Edge 45, Type (0, 0), BuildingBlock: CIFDUS_clean_linker_0, # of connection points: 2
#     Edge 46, Type (0, 0), BuildingBlock: CIFDUS_clean_linker_0, # of connection points: 2
#     Edge 47, Type (0, 0), BuildingBlock: CIFDUS_clean_linker_0, # of connection points: 2
# Relax obj value: 0.143
# Max RMSD: 0.305
# Mean RMSD: 0.305
data_MOF--net-wmn--node1-KUMBUR_clean_sbu_1--edge1-CIFDUS_clean_linker_0
_symmetry_space_group_name_H-M    P1
_symmetry_Int_Tables_number       1
_symmetry_cell_setting            triclinic
loop_
_symmetry_equiv_pos_as_xyz
'x, y, z'
_cell_length_a     53.69022
_cell_length_b     53.608351
_cell_length_c     20.859777
_cell_angle_alpha  89.902581
_cell_angle_beta   90.087823
_cell_angle_gamma 120.1862
loop_
_atom_site_label
_atom_site_type_symbol
_atom_site_fract_x
_atom_site_fract_y
_atom_site_fract_z
_atom_type_partial_charge
Tb0 Tb 0.1331 0.41284 0.07959 0.0
C1 C 0.08226 0.27955 0.03512 0.0
N2 N 0.09995 0.29452 0.08451 0.0
C3 C 0.07126 0.2555 0.15634 0.0
C4 C 0.05734 0.2525 0.04508 0.0
C5 C 0.09592 0.28213 0.1437 0.0
C6 C 0.05152 0.24092 0.10711 0.0
C7 C 0.07423 0.27432 0.92036 0.0
C8 C 0.09059 0.29028 0.9736 0.0
C9 C 0.04825 0.24832 0.93022 0.0
C10 C 0.03982 0.23742 0.99252 0.0
Tb11 Tb 0.137 0.3393 0.05888 0.0
N12 N 0.11576 0.31554 0.96587 0.0
C13 C 0.08494 0.28459 0.85891 0.0
C14 C 0.12787 0.32386 0.90634 0.0
C15 C 0.11215 0.3092 0.85192 0.0
H16 H 0.11126 0.29335 0.18169 0.0
H17 H 0.12101 0.31705 0.80482 0.0
H18 H 0.18526 0.45794 0.97973 0.0
H19 H 0.11789 0.41803 0.33465 0.0
H20 H 0.14888 0.34274 0.90103 0.0
H21 H 0.07278 0.27312 0.81687 0.0
H22 H 0.10333 0.39842 0.22612 0.0
H23 H 0.06751 0.24625 0.20395 0.0
H24 H 0.03503 0.23603 0.88994 0.0
H25 H 0.02026 0.21686 0.99929 0.0
H26 H 0.23278 0.50158 0.98897 0.0
H27 H 0.03254 0.22023 0.11691 0.0
H28 H 0.16565 0.46121 0.35316 0.0
N29 N 0.17754 0.45346 0.08059 0.0
C30 C 0.18678 0.46608 0.13898 0.0
C31 C 0.22023 0.49158 0.03166 0.0
C32 C 0.21376 0.49142 0.14625 0.0
C33 C 0.19335 0.4664 0.02683 0.0
C34 C 0.23063 0.50398 0.09167 0.0
N35 N 0.14303 0.42927 0.18277 0.0
C36 C 0.12449 0.41684 0.23305 0.0
C37 C 0.17802 0.46576 0.2532 0.0
C38 C 0.169 0.45357 0.19174 0.0
C39 C 0.15949 0.45255 0.30515 0.0
C40 C 0.13254 0.42813 0.29491 0.0
H41 H 0.25145 0.52351 0.09519 0.0
H42 H 0.24361 0.52294 0.21399 0.0
H43 H 0.21242 0.50034 0.30768 0.0
O44 O 0.10814 0.43134 0.10739 0.0
O45 O 0.16636 0.40611 0.12999 0.0
O46 O 0.1466 0.35762 0.15491 0.0
O47 O 0.12618 0.43861 0.013 0.0
O48 O 0.09802 0.3743 0.1267 0.0
O49 O 0.10929 0.3375 0.1402 0.0
O50 O 0.18086 0.35068 0.06393 0.0
O51 O 0.11627 0.35319 0.98837 0.0
O52 O 0.09495 0.37466 0.04094 0.0
O53 O 0.14768 0.30685 0.04944 0.0
O54 O 0.17087 0.38194 0.02497 0.0
O55 O 0.15096 0.40795 0.98725 0.0
C56 C 0.16247 0.38512 0.16999 0.0
C57 C 0.11252 0.4722 0.05204 0.0
C58 C 0.08876 0.50151 0.04659 0.0
C59 C 0.11614 0.52643 0.05207 0.0
C60 C 0.13932 0.49747 0.05754 0.0
C61 C 0.14104 0.52437 0.05741 0.0
C62 C 0.08732 0.47432 0.04662 0.0
C63 C 0.09336 0.34959 0.15205 0.0
C64 C 0.11012 0.44337 0.05215 0.0
C65 C 0.22289 0.50354 0.20745 0.0
C66 C 0.20511 0.4907 0.2608 0.0
C67 C 0.09365 0.3554 1.00045 0.0
C68 C 0.19053 0.31389 0.09701 0.0
C69 C 0.22985 0.30326 0.10546 0.0
C70 C 0.21635 0.28656 0.1605 0.0
C71 C 0.17794 0.2977 0.15253 0.0
C72 C 0.21676 0.3173 0.07481 0.0
C73 C 0.19086 0.28415 0.18402 0.0
C74 C 0.16855 0.39759 0.97944 0.0
C75 C 0.17507 0.32426 0.05668 0.0
H76 H 0.11838 0.54765 0.05363 0.0
H77 H 0.15886 0.49642 0.06206 0.0
H78 H 0.16185 0.5438 0.06196 0.0
H79 H 0.06664 0.45471 0.04187 0.0
H80 H 0.22483 0.27453 0.18458 0.0
H81 H 0.1577 0.29475 0.17025 0.0
H82 H 0.22639 0.33035 0.03248 0.0
H83 H 0.18058 0.27099 0.22584 0.0
Tb84 Tb 0.62217 0.72735 0.06325 0.0
C85 C 0.75904 0.82993 0.07063 0.0
N86 N 0.73668 0.82489 0.10917 0.0
C87 C 0.76786 0.84079 0.20073 0.0
C88 C 0.78669 0.83949 0.0962 0.0
C89 C 0.74079 0.83126 0.17301 0.0
C90 C 0.79077 0.84432 0.16237 0.0
C91 C 0.7781 0.83615 0.9629 0.0
C92 C 0.75475 0.8282 0.00483 0.0
C93 C 0.80526 0.84356 0.98809 0.0
C94 C 0.80955 0.84523 0.05466 0.0
Tb95 Tb 0.69361 0.80772 0.05918 0.0
N96 N 0.72828 0.82132 0.98222 0.0
C97 C 0.77384 0.83799 0.89729 0.0
C98 C 0.72472 0.82584 0.91913 0.0
C99 C 0.74731 0.83365 0.87562 0.0
H100 H 0.72298 0.82808 0.20278 0.0
H101 H 0.74454 0.83669 0.82554 0.0
H102 H 0.58175 0.74021 0.96107 0.0
H103 H 0.61478 0.70816 0.31947 0.0
H104 H 0.70417 0.82247 0.90249 0.0
H105 H 0.79128 0.84419 0.86344 0.0
H106 H 0.63592 0.71371 0.21252 0.0
H107 H 0.77098 0.84515 0.25164 0.0
H108 H 0.82337 0.84927 0.95655 0.0
H109 H 0.83088 0.85217 0.07338 0.0
H110 H 0.53892 0.7454 0.96738 0.0
H111 H 0.81171 0.85172 0.18393 0.0
H112 H 0.57097 0.71173 0.33372 0.0
N113 N 0.58314 0.73354 0.06152 0.0
C114 C 0.56917 0.72888 0.11866 0.0
C115 C 0.54743 0.74111 0.01041 0.0
C116 C 0.54437 0.73142 0.12419 0.0
C117 C 0.57211 0.73862 0.00727 0.0
C118 C 0.53363 0.73773 0.06915 0.0
N119 N 0.60505 0.7213 0.16579 0.0
C120 C 0.61713 0.71577 0.21758 0.0
C121 C 0.56761 0.71945 0.23301 0.0
C122 C 0.58053 0.72269 0.17246 0.0
C123 C 0.5802 0.71427 0.28635 0.0
C124 C 0.60501 0.71235 0.27853 0.0
H125 H 0.51458 0.73978 0.07137 0.0
H126 H 0.5122 0.72972 0.1895 0.0
H127 H 0.53264 0.71947 0.28473 0.0
O128 O 0.60196 0.68389 0.09342 0.0
O129 O 0.6266 0.767 0.10916 0.0
O130 O 0.67221 0.79121 0.14932 0.0
O131 O 0.59442 0.69432 0.9994 0.0
O132 O 0.66002 0.72966 0.11073 0.0
O133 O 0.69566 0.77809 0.13051 0.0
O134 O 0.67238 0.83177 0.06451 0.0
O135 O 0.69145 0.77836 0.98397 0.0
O136 O 0.66095 0.73089 0.01848 0.0
O137 O 0.71839 0.85317 0.0617 0.0
O138 O 0.65281 0.79439 0.00963 0.0
O139 O 0.63009 0.74886 0.96926 0.0
C140 C 0.64472 0.78172 0.1557 0.0
C141 C 0.59258 0.64925 0.01319 0.0
C142 C 0.57408 0.59703 0.99894 0.0
C143 C 0.60002 0.60404 0.96758 0.0
C144 C 0.61805 0.65516 0.98199 0.0
C145 C 0.62165 0.63275 0.95917 0.0
C146 C 0.5706 0.62009 0.02181 0.0
C147 C 0.68465 0.74969 0.13666 0.0
C148 C 0.58953 0.67346 0.03878 0.0
C149 C 0.53124 0.72779 0.18433 0.0
C150 C 0.54286 0.72191 0.23858 0.0
C151 C 0.68348 0.75082 0.98646 0.0
C152 C 0.69805 0.87655 0.11851 0.0
C153 C 0.7057 0.92403 0.14997 0.0
C154 C 0.70262 0.91526 0.2146 0.0
C155 C 0.69514 0.86849 0.18318 0.0
C156 C 0.70325 0.90426 0.10206 0.0
C157 C 0.69727 0.8877 0.23086 0.0
C158 C 0.64169 0.7769 0.96077 0.0
C159 C 0.6962 0.85648 0.06785 0.0
H160 H 0.60404 0.58729 0.95076 0.0
H161 H 0.63529 0.67715 0.97585 0.0
H162 H 0.64154 0.63766 0.93545 0.0
H163 H 0.55091 0.61548 0.0461 0.0
H164 H 0.70483 0.92986 0.25289 0.0
H165 H 0.69138 0.84743 0.19672 0.0
H166 H 0.70514 0.91024 0.05191 0.0
H167 H 0.69504 0.8813 0.28073 0.0
Tb168 Tb 0.2995 0.89969 0.07497 0.0
C169 C 0.21244 0.94878 0.02826 0.0
N170 N 0.21214 0.93183 0.07702 0.0
C171 C 0.19924 0.95759 0.15117 0.0
C172 C 0.20715 0.97162 0.03953 0.0
C173 C 0.20434 0.93501 0.1374 0.0
C174 C 0.20108 0.97625 0.1022 0.0
C175 C 0.21468 0.95778 0.9139 0.0
C176 C 0.21619 0.94196 0.96625 0.0
C177 C 0.21109 0.98162 0.9251 0.0
C178 C 0.20723 0.98847 0.98778 0.0
Tb179 Tb 0.22293 0.89731 0.04902 0.0
N180 N 0.2193 0.91859 0.95708 0.0
C181 C 0.21563 0.94844 0.85186 0.0
C182 C 0.217 0.90757 0.89679 0.0
C183 C 0.21609 0.92282 0.84322 0.0
H184 H 0.20305 0.9207 0.17545 0.0
H185 H 0.21568 0.91479 0.79544 0.0
H186 H 0.28106 0.83868 0.99636 0.0
H187 H 0.32702 0.93002 0.32408 0.0
H188 H 0.21719 0.88771 0.89018 0.0
H189 H 0.21488 0.96025 0.81055 0.0
H190 H 0.32259 0.93904 0.21055 0.0
H191 H 0.19391 0.96057 0.19951 0.0
H192 H 0.21029 0.9943 0.88549 0.0
H193 H 0.20362 1.00638 0.99556 0.0
H194 H 0.27 0.78951 0.02328 0.0
H195 H 0.19698 0.99363 0.11292 0.0
H196 H 0.31534 0.88138 0.36026 0.0
N197 N 0.28884 0.85337 0.09314 0.0
C198 C 0.29232 0.84715 0.15466 0.0
C199 C 0.27589 0.80543 0.06082 0.0
C200 C 0.28635 0.81927 0.17213 0.0
C201 C 0.28178 0.83332 0.04586 0.0
C202 C 0.27787 0.79826 0.12429 0.0
N203 N 0.3065 0.89533 0.18187 0.0
C204 C 0.31639 0.91741 0.22524 0.0
C205 C 0.30395 0.86282 0.26521 0.0
C206 C 0.30114 0.86873 0.20056 0.0
C207 C 0.31296 0.88507 0.3101 0.0
C208 C 0.31945 0.91252 0.2899 0.0
H209 H 0.27319 0.7766 0.13569 0.0
H210 H 0.28437 0.79193 0.25094 0.0
H211 H 0.29964 0.83 0.33246 0.0
O212 O 0.34343 0.91932 0.1016 0.0
O213 O 0.25752 0.86787 0.12027 0.0
O214 O 0.23174 0.88992 0.1468 0.0
O215 O 0.32985 0.90062 0.00903 0.0
O216 O 0.29801 0.93725 0.11505 0.0
O217 O 0.25009 0.92728 0.12607 0.0
O218 O 0.19149 0.85355 0.065 0.0
O219 O 0.25792 0.91777 0.97894 0.0
O220 O 0.3015 0.9377 0.03057 0.0
O221 O 0.17948 0.88362 0.03056 0.0
O222 O 0.2316 0.86355 0.01562 0.0
O223 O 0.27785 0.88175 0.98125 0.0
C224 C 0.24301 0.87395 0.16262 0.0
C225 C 0.3769 0.9421 0.01708 0.0
C226 C 0.42935 0.97398 0.99874 0.0
C227 C 0.42294 0.99228 0.96262 0.0
C228 C 0.37176 0.96113 0.9809 0.0
C229 C 0.39455 0.98592 0.95405 0.0
C230 C 0.40586 0.94861 0.0259 0.0
C231 C 0.27822 0.94293 0.13792 0.0
C232 C 0.35201 0.91589 0.04595 0.0
C233 C 0.28899 0.81327 0.23654 0.0
C234 C 0.2977 0.83496 0.28296 0.0
C235 C 0.28376 0.93953 0.99002 0.0
C236 C 0.14428 0.84422 0.08879 0.0
C237 C 0.09243 0.80985 0.09782 0.0
C238 C 0.09217 0.8238 0.1549 0.0
C239 C 0.14353 0.85705 0.14655 0.0
C240 C 0.11899 0.82029 0.06551 0.0
C241 C 0.11756 0.84693 0.17921 0.0
C242 C 0.24975 0.86559 0.97112 0.0
C243 C 0.17025 0.85726 0.0484 0.0
H244 H 0.43987 1.01139 0.9395 0.0
H245 H 0.35003 0.95676 0.97294 0.0
H246 H 0.39016 1.00026 0.92587 0.0
H247 H 0.41001 0.93412 0.05418 0.0
H248 H 0.07233 0.81742 0.18038 0.0
H249 H 0.16281 0.87528 0.16548 0.0
H250 H 0.12018 0.81022 0.02155 0.0
H251 H 0.11697 0.85747 0.22293 0.0
Tb252 Tb 0.41654 0.121 0.43638 0.0
C253 C 0.28365 0.0842 0.41824 0.0
N254 N 0.3047 0.10023 0.37514 0.0
C255 C 0.27249 0.07412 0.28859 0.0
C256 C 0.25685 0.06106 0.39823 0.0
C257 C 0.29872 0.09683 0.31081 0.0
C258 C 0.25174 0.05567 0.3325 0.0
C259 C 0.26631 0.0773 0.52792 0.0
C260 C 0.28813 0.09241 0.4822 0.0
C261 C 0.24036 0.05296 0.50889 0.0
C262 C 0.23562 0.0449 0.44415 0.0
Tb263 Tb 0.34712 0.13496 0.41964 0.0
N264 N 0.31359 0.11589 0.49918 0.0
C265 C 0.27097 0.08756 0.59101 0.0
C266 C 0.31765 0.12702 0.55969 0.0
C267 C 0.29649 0.11286 0.60658 0.0
H268 H 0.31455 0.11116 0.2764 0.0
H269 H 0.29978 0.12147 0.6546 0.0
H270 H 0.44554 0.16027 0.57162 0.0
H271 H 0.47098 0.13674 0.20883 0.0
H272 H 0.33734 0.14653 0.57175 0.0
H273 H 0.2547 0.0766 0.62756 0.0
H274 H 0.43654 0.10842 0.29467 0.0
H275 H 0.2683 0.07085 0.23763 0.0
H276 H 0.2235 0.04077 0.54352 0.0
H277 H 0.21508 0.02672 0.42981 0.0
H278 H 0.47885 0.21096 0.59857 0.0
H279 H 0.23143 0.03811 0.31515 0.0
H280 H 0.5035 0.18933 0.22207 0.0
N281 N 0.44994 0.16707 0.47016 0.0
C282 C 0.4681 0.18493 0.42412 0.0
C283 C 0.47547 0.20419 0.54892 0.0
C284 C 0.48878 0.21392 0.43764 0.0
C285 C 0.45584 0.17551 0.53302 0.0
C286 C 0.49134 0.22379 0.50062 0.0
N287 N 0.44943 0.1447 0.35587 0.0
C288 C 0.45112 0.13126 0.30147 0.0
C289 C 0.48806 0.19024 0.31739 0.0
C290 C 0.46826 0.17322 0.36531 0.0
C291 C 0.48862 0.17698 0.26009 0.0
C292 C 0.47037 0.14728 0.25252 0.0
H293 H 0.50694 0.24588 0.5131 0.0
H294 H 0.52316 0.25395 0.39823 0.0
H295 H 0.52225 0.23324 0.29243 0.0
O296 O 0.43235 0.09333 0.41146 0.0
O297 O 0.41076 0.14006 0.34768 0.0
O298 O 0.39196 0.16371 0.39584 0.0
O299 O 0.43998 0.11145 0.5043 0.0
O300 O 0.38192 0.09021 0.37316 0.0
O301 O 0.35052 0.10746 0.34407 0.0
O302 O 0.33638 0.16607 0.44812 0.0
O303 O 0.34457 0.10372 0.49196 0.0
O304 O 0.37365 0.08462 0.4633 0.0
O305 O 0.34101 0.15914 0.34811 0.0
O306 O 0.38407 0.16184 0.48166 0.0
O307 O 0.3999 0.13243 0.52303 0.0
C308 C 0.40276 0.15934 0.34441 0.0
C309 C 0.43965 0.06712 0.49281 0.0
C310 C 0.45816 0.03394 0.51209 0.0
C311 C 0.43159 0.01453 0.54085 0.0
C312 C 0.41346 0.04722 0.52132 0.0
C313 C 0.40953 0.02113 0.54521 0.0
C314 C 0.46189 0.06038 0.48812 0.0
C315 C 0.36067 0.08943 0.33875 0.0
C316 C 0.44397 0.09468 0.46638 0.0
C317 C 0.50748 0.23151 0.38899 0.0
C318 C 0.50709 0.21969 0.32888 0.0
C319 C 0.34924 0.08197 0.48525 0.0
C320 C 0.31255 0.18061 0.374 0.0
C321 C 0.29473 0.21446 0.38433 0.0
C322 C 0.27298 0.19804 0.33956 0.0
C323 C 0.2906 0.16445 0.32962 0.0
C324 C 0.31437 0.20545 0.40136 0.0
C325 C 0.27091 0.17316 0.3127 0.0
C326 C 0.39242 0.15241 0.53065 0.0
C327 C 0.33521 0.17369 0.38953 0.0
H328 H 0.42792 0.99435 0.56108 0.0
H329 H 0.39606 0.05186 0.52505 0.0
H330 H 0.38928 1.00594 0.56751 0.0
H331 H 0.48192 0.07563 0.46498 0.0
H332 H 0.25737 0.20425 0.32589 0.0
H333 H 0.28886 0.14539 0.30751 0.0
H334 H 0.33161 0.2182 0.43487 0.0
H335 H 0.25408 0.1607 0.27826 0.0
Tb336 Tb 0.90478 0.29235 0.45206 0.0
C337 C 0.96189 0.21208 0.41829 0.0
N338 N 0.94531 0.2153 0.37358 0.0
C339 C 0.97648 0.21609 0.29009 0.0
C340 C 0.98695 0.21151 0.4008 0.0
C341 C 0.95202 0.21693 0.30987 0.0
C342 C 0.99418 0.21363 0.33579 0.0
C343 C 0.97061 0.20675 0.5302 0.0
C344 C 0.9538 0.20961 0.482 0.0
C345 C 0.99586 0.20662 0.51324 0.0
C346 C 1.00399 0.20896 0.44868 0.0
Tb347 Tb 0.90712 0.21849 0.41214 0.0
N348 N 0.9299 0.21112 0.49679 0.0
C349 C 0.9616 0.2043 0.59396 0.0
C350 C 0.92021 0.20716 0.55846 0.0
C351 C 0.9361 0.20417 0.60798 0.0
H352 H 0.93862 0.21916 0.27421 0.0
H353 H 0.92871 0.20184 0.65692 0.0
H354 H 0.86952 0.28587 0.58771 0.0
H355 H 0.88724 0.31376 0.20832 0.0
H356 H 0.90049 0.20658 0.56987 0.0
H357 H 0.97395 0.20218 0.63253 0.0
H358 H 0.91253 0.30436 0.29576 0.0
H359 H 0.98186 0.21769 0.2397 0.0
H360 H 1.0092 0.20468 0.54965 0.0
H361 H 0.02347 0.20874 0.43628 0.0
H362 H 0.82469 0.28457 0.62023 0.0
H363 H 1.01328 0.21333 0.32037 0.0
H364 H 0.84227 0.31427 0.23138 0.0
N365 N 0.86426 0.29143 0.4887 0.0
C366 C 0.84856 0.29588 0.44373 0.0
C367 C 0.83104 0.28754 0.57031 0.0
C368 C 0.82324 0.29611 0.46025 0.0
C369 C 0.85616 0.28776 0.55161 0.0
C370 C 0.81443 0.29162 0.52441 0.0
N371 N 0.88246 0.29971 0.36696 0.0
C372 C 0.89327 0.30495 0.30623 0.0
C373 C 0.84284 0.30564 0.33268 0.0
C374 C 0.85818 0.3006 0.38086 0.0
C375 C 0.85345 0.31036 0.26988 0.0
C376 C 0.87884 0.31011 0.25668 0.0
H377 H 0.79508 0.29161 0.53911 0.0
H378 H 0.78819 0.30125 0.42413 0.0
H379 H 0.80536 0.3096 0.31243 0.0
O380 O 0.93922 0.33423 0.43001 0.0
O381 O 0.8689 0.25693 0.3947 0.0
O382 O 0.89056 0.23559 0.34058 0.0
O383 O 0.91297 0.32744 0.51216 0.0
O384 O 0.93958 0.29632 0.38844 0.0
O385 O 0.92718 0.25244 0.33872 0.0
O386 O 0.87243 0.1766 0.43898 0.0
O387 O 0.94326 0.25307 0.46284 0.0
O388 O 0.92886 0.28074 0.51982 0.0
O389 O 0.89574 0.18428 0.34922 0.0
O390 O 0.8727 0.21887 0.46917 0.0
O391 O 0.89034 0.26007 0.53022 0.0
C392 C 0.86875 0.23952 0.34946 0.0
C393 C 0.9353 0.37456 0.46547 0.0
C394 C 0.96054 0.42809 0.46945 0.0
C395 C 0.93555 0.42664 0.44391 0.0
C396 C 0.91098 0.37439 0.44055 0.0
C397 C 0.91117 0.40015 0.42973 0.0
C398 C 0.96025 0.40161 0.47962 0.0
C399 C 0.94443 0.28058 0.34693 0.0
C400 C 0.93434 0.34661 0.47812 0.0
C401 C 0.80772 0.30101 0.41239 0.0
C402 C 0.81751 0.30579 0.34877 0.0
C403 C 0.94795 0.27315 0.50484 0.0
C404 C 0.85985 0.13453 0.36824 0.0
C405 C 0.81943 0.08482 0.37955 0.0
C406 C 0.83251 0.07602 0.3333 0.0
C407 C 0.87199 0.12485 0.32184 0.0
C408 C 0.8335 0.11434 0.39744 0.0
C409 C 0.8585 0.09586 0.30493 0.0
C410 C 0.87401 0.23176 0.52383 0.0
C411 C 0.87588 0.16548 0.3866 0.0
H412 H 0.93491 0.44612 0.43372 0.0
H413 H 0.89169 0.35432 0.42965 0.0
H414 H 0.89222 0.3996 0.4101 0.0
H415 H 0.9791 0.40198 0.49937 0.0
H416 H 0.82295 0.05355 0.31975 0.0
H417 H 0.89231 0.13966 0.29914 0.0
H418 H 0.82398 0.12157 0.43334 0.0
H419 H 0.86838 0.08869 0.26987 0.0
Tb420 Tb 0.7392 0.61944 0.45434 0.0
C421 C 0.81848 0.75859 0.42504 0.0
N422 N 0.81755 0.73788 0.38613 0.0
C423 C 0.82337 0.76699 0.29373 0.0
C424 C 0.82065 0.78396 0.39949 0.0
C425 C 0.82112 0.74213 0.32142 0.0
C426 C 0.82246 0.78769 0.33283 0.0
C427 C 0.82502 0.77829 0.53232 0.0
C428 C 0.82041 0.7557 0.49067 0.0
C429 C 0.82473 0.80255 0.50766 0.0
C430 C 0.82253 0.80537 0.44131 0.0
Tb431 Tb 0.81259 0.69814 0.43735 0.0
N432 N 0.82114 0.73222 0.51263 0.0
C433 C 0.83165 0.77663 0.59659 0.0
C434 C 0.83035 0.73178 0.5735 0.0
C435 C 0.83519 0.75372 0.61678 0.0
H436 H 0.82126 0.72584 0.29113 0.0
H437 H 0.84179 0.75307 0.66548 0.0
H438 H 0.75178 0.58746 0.57904 0.0
H439 H 0.71832 0.59018 0.20372 0.0
H440 H 0.83333 0.71413 0.58847 0.0
H441 H 0.83549 0.79362 0.63013 0.0
H442 H 0.72173 0.61816 0.29977 0.0
H443 H 0.82547 0.77001 0.24231 0.0
H444 H 0.82764 0.81989 0.53909 0.0
H445 H 0.82371 0.82482 0.42267 0.0
H446 H 0.76277 0.54865 0.59469 0.0
H447 H 0.82421 0.80691 0.31127 0.0
H448 H 0.7287 0.55024 0.21089 0.0
N449 N 0.74885 0.58337 0.47708 0.0
C450 C 0.74705 0.56665 0.42622 0.0
C451 C 0.75884 0.55378 0.54688 0.0
C452 C 0.7525 0.54366 0.4334 0.0
C453 C 0.75318 0.5763 0.53746 0.0
C454 C 0.7589 0.53764 0.49453 0.0
N455 N 0.73414 0.59465 0.36155 0.0
C456 C 0.72622 0.60083 0.30408 0.0
C457 C 0.73764 0.55576 0.31276 0.0
C458 C 0.73929 0.57233 0.36672 0.0
C459 C 0.73011 0.56241 0.25353 0.0
C460 C 0.72425 0.58494 0.24929 0.0
H461 H 0.76318 0.52013 0.50207 0.0
H462 H 0.75526 0.50952 0.38428 0.0
H463 H 0.74255 0.52032 0.27857 0.0
O464 O 0.69523 0.59282 0.42953 0.0
O465 O 0.77856 0.62791 0.3988 0.0
O466 O 0.79781 0.67247 0.3507 0.0
O467 O 0.70865 0.59615 0.52681 0.0
O468 O 0.73394 0.64953 0.39179 0.0
O469 O 0.77777 0.6925 0.37063 0.0
O470 O 0.84488 0.68771 0.41514 0.0
O471 O 0.78336 0.6888 0.51863 0.0
O472 O 0.73747 0.65794 0.48357 0.0
O473 O 0.85615 0.73064 0.44117 0.0
O474 O 0.81049 0.66148 0.48968 0.0
O475 O 0.76714 0.63467 0.54076 0.0
C476 C 0.79052 0.6452 0.34871 0.0
C477 C 0.66143 0.5888 0.50838 0.0
C478 C 0.60877 0.56912 0.52175 0.0
C479 C 0.61519 0.59587 0.54831 0.0
C480 C 0.66645 0.61502 0.53443 0.0
C481 C 0.64357 0.61845 0.55414 0.0
C482 C 0.63242 0.5658 0.50193 0.0
C483 C 0.74957 0.6747 0.36235 0.0
C484 C 0.68654 0.58576 0.48825 0.0
C485 C 0.75098 0.52717 0.3797 0.0
C486 C 0.74365 0.53325 0.31952 0.0
C487 C 0.75639 0.682 0.51212 0.0
C488 C 0.89012 0.72617 0.37807 0.0
C489 C 0.94036 0.74014 0.35373 0.0
C490 C 0.93945 0.75647 0.30156 0.0
C491 C 0.8899 0.74205 0.32498 0.0
C492 C 0.91517 0.72481 0.39158 0.0
C493 C 0.91439 0.75709 0.28716 0.0
C494 C 0.79561 0.64752 0.54064 0.0
C495 C 0.86588 0.71391 0.42406 0.0
H496 H 0.59828 0.59936 0.56615 0.0
H497 H 0.68817 0.63291 0.54025 0.0
H498 H 0.64789 0.63876 0.57477 0.0
H499 H 0.6284 0.5456 0.4812 0.0
H500 H 0.95828 0.76952 0.27244 0.0
H501 H 0.87117 0.74366 0.31389 0.0
H502 H 0.91495 0.71213 0.43227 0.0
H503 H 0.91415 0.76996 0.24742 0.0
Tb504 Tb 0.89507 0.68906 0.92159 0.0
C505 C 0.8459 0.55044 0.94375 0.0
N506 N 0.85936 0.57278 0.98581 0.0
C507 C 0.82366 0.54496 0.06556 0.0
C508 C 0.81996 0.52517 0.95997 0.0
C509 C 0.84965 0.56927 0.0477 0.0
C510 C 0.80841 0.52307 0.02108 0.0
C511 C 0.84713 0.52863 0.84263 0.0
C512 C 0.85939 0.55186 0.88611 0.0
C513 C 0.82065 0.50403 0.85737 0.0
C514 C 0.80708 0.5023 0.9159 0.0
Tb515 Tb 0.9016 0.61152 0.94899 0.0
N516 N 0.88485 0.57615 0.87299 0.0
C517 C 0.86213 0.53069 0.78615 0.0
C518 C 0.90021 0.57777 0.81941 0.0
C519 C 0.88893 0.55525 0.77483 0.0
H520 H 0.86214 0.58466 0.08441 0.0
H521 H 0.90092 0.55679 0.73191 0.0
H522 H 0.93003 0.72663 0.79099 0.0
H523 H 0.89227 0.72797 0.15832 0.0
H524 H 0.92099 0.5966 0.81101 0.0
H525 H 0.85346 0.51326 0.75156 0.0
H526 H 0.87205 0.69527 0.06498 0.0
H527 H 0.81581 0.5428 0.11418 0.0
H528 H 0.81076 0.48598 0.82443 0.0
H529 H 0.78704 0.48285 0.92738 0.0
H530 H 0.97454 0.77284 0.76816 0.0
H531 H 0.78854 0.50403 0.03542 0.0
H532 H 0.94079 0.77169 0.15066 0.0
N533 N 0.93383 0.73236 0.89228 0.0
C534 C 0.94757 0.75101 0.94098 0.0
C535 C 0.96735 0.76683 0.81713 0.0
C536 C 0.9731 0.77748 0.93052 0.0
C537 C 0.94216 0.74068 0.83026 0.0
C538 C 0.98337 0.78492 0.86769 0.0
N539 N 0.9088 0.7199 0.00663 0.0
C540 C 0.89298 0.71439 0.06146 0.0
C541 C 0.94701 0.76387 0.05195 0.0
C542 C 0.93455 0.74456 1.00042 0.0
C543 C 0.93186 0.75741 0.10987 0.0
C544 C 0.90447 0.73283 0.11427 0.0
H545 H 1.00292 0.80508 0.85748 0.0
H546 H 1.00667 0.81629 0.97587 0.0
H547 H 0.98393 0.80419 0.08262 0.0
O548 O 0.86027 0.69699 0.929 0.0
O549 O 0.91525 0.684 0.00758 0.0
O550 O 0.93521 0.65554 0.97959 0.0
O551 O 0.87689 0.69353 0.83598 0.0
O552 O 0.8608 0.64964 0.96767 0.0
O553 O 0.88166 0.62696 0.02334 0.0
O554 O 0.93568 0.60294 0.93623 0.0
O555 O 0.87351 0.60619 0.86522 0.0
O556 O 0.88539 0.64733 0.90032 0.0
O557 O 0.91298 0.5927 0.02455 0.0
O558 O 0.93142 0.64423 0.87827 0.0
O559 O 0.92732 0.68621 0.86028 0.0
C560 C 0.93647 0.67848 0.007 0.0
C561 C 0.8366 0.70243 0.83358 0.0
C562 C 0.79804 0.71429 0.83544 0.0
C563 C 0.79379 0.70835 0.7694 0.0
C564 C 0.83244 0.69759 0.76733 0.0
C565 C 0.81068 0.69979 0.73599 0.0
C566 C 0.81938 0.71093 0.86747 0.0
C567 C 0.86288 0.63643 0.0194 0.0
C568 C 0.85816 0.69758 0.86689 0.0
C569 C 0.98669 0.7961 0.98256 0.0
C570 C 0.9737 0.78925 0.0433 0.0
C571 C 0.87068 0.62835 0.85707 0.0
C572 C 0.93294 0.56342 0.99362 0.0
C573 C 0.95934 0.53664 1.00062 0.0
C574 C 0.93272 0.51078 0.99498 0.0
C575 C 0.90699 0.53711 0.98921 0.0
C576 C 0.95916 0.56311 0.9993 0.0
C577 C 0.90695 0.51109 0.98959 0.0
C578 C 0.93901 0.66962 0.85045 0.0
C579 C 0.93276 0.59113 0.99194 0.0
H580 H 0.77769 0.71076 0.74319 0.0
H581 H 0.84569 0.6916 0.73983 0.0
H582 H 0.80694 0.69496 0.68544 0.0
H583 H 0.82239 0.71464 0.91867 0.0
H584 H 0.93171 0.49011 0.99373 0.0
H585 H 0.88668 0.5366 0.98551 0.0
H586 H 0.97923 0.5834 1.00345 0.0
H587 H 0.88675 0.49094 0.98548 0.0
Tb588 Tb 0.34166 0.22053 0.9495 0.0
C589 C 0.46687 0.2908 0.86162 0.0
N590 N 0.45393 0.28544 0.92009 0.0
C591 C 0.48617 0.27024 0.95997 0.0
C592 C 0.48904 0.28467 0.84922 0.0
C593 C 0.46416 0.27656 0.96991 0.0
C594 C 0.49839 0.27391 0.89917 0.0
C595 C 0.47053 0.30839 0.75292 0.0
C596 C 0.45765 0.30241 0.81409 0.0
C597 C 0.4921 0.3016 0.73973 0.0
C598 C 0.50135 0.28979 0.78779 0.0
Tb599 Tb 0.41803 0.29638 0.92979 0.0
N600 N 0.43661 0.30854 0.82846 0.0
C601 C 0.46176 0.32156 0.70727 0.0
C602 C 0.42931 0.32302 0.78537 0.0
C603 C 0.4414 0.32933 0.72395 0.0
H604 H 0.45595 0.27474 0.01776 0.0
H605 H 0.43518 0.34041 0.68973 0.0
H606 H 0.2955 0.20919 0.82965 0.0
H607 H 0.32056 0.20696 0.20391 0.0
H608 H 0.41462 0.33034 0.79866 0.0
H609 H 0.47113 0.32653 0.65972 0.0
H610 H 0.34454 0.20649 0.1029 0.0
H611 H 0.49389 0.26281 0.99942 0.0
H612 H 0.50209 0.30584 0.69285 0.0
H613 H 0.51829 0.28505 0.77721 0.0
H614 H 0.25128 0.21191 0.81446 0.0
H615 H 0.51545 0.26902 0.8917 0.0
H616 H 0.2799 0.21646 0.20055 0.0
N617 N 0.29872 0.21873 0.92953 0.0
C618 C 0.28516 0.22148 0.98154 0.0
C619 C 0.26076 0.21495 0.86168 0.0
C620 C 0.2596 0.22263 0.97544 0.0
C621 C 0.28595 0.21367 0.87044 0.0
C622 C 0.24792 0.22019 0.9142 0.0
N623 N 0.31944 0.21796 0.04471 0.0
C624 C 0.32738 0.21134 0.10162 0.0
C625 C 0.28082 0.2205 0.09719 0.0
C626 C 0.29561 0.22057 0.04141 0.0
C627 C 0.29059 0.21653 0.15651 0.0
C628 C 0.31358 0.21125 0.15859 0.0
H629 H 0.22836 0.22106 0.90735 0.0
H630 H 0.22656 0.22629 0.02711 0.0
H631 H 0.24511 0.22428 0.13396 0.0
O632 O 0.34774 0.18541 0.96879 0.0
O633 O 0.35578 0.2559 0.01847 0.0
O634 O 0.3798 0.29806 0.96135 0.0
O635 O 0.3074 0.17842 0.93241 0.0
O636 O 0.38309 0.2272 0.98589 0.0
O637 O 0.41028 0.27346 0.02221 0.0
O638 O 0.44512 0.34101 0.91217 0.0
O639 O 0.4105 0.25521 0.88488 0.0
O640 O 0.3625 0.22728 0.85635 0.0
O641 O 0.44199 0.32403 0.00608 0.0
O642 O 0.38184 0.29458 0.87516 0.0
O643 O 0.34368 0.24654 0.86469 0.0
C644 C 0.36055 0.28172 0.00436 0.0
C645 C 0.32131 0.14462 0.90378 0.0
C646 C 0.31279 0.09568 0.88757 0.0
C647 C 0.31755 0.1016 0.82139 0.0
C648 C 0.32619 0.15009 0.83799 0.0
C649 C 0.32462 0.12873 0.79722 0.0
C650 C 0.31527 0.1178 0.92839 0.0
C651 C 0.39861 0.2454 0.03124 0.0
C652 C 0.32239 0.16645 0.94799 0.0
C653 C 0.2459 0.2248 0.03079 0.0
C654 C 0.25643 0.2236 0.09164 0.0
C655 C 0.39008 0.23817 0.84395 0.0
C656 C 0.44893 0.37156 0.9977 0.0
C657 C 0.46681 0.42376 0.01067 0.0
C658 C 0.4412 0.41655 0.04382 0.0
C659 C 0.42394 0.36548 0.03154 0.0
C660 C 0.47037 0.40081 0.98732 0.0
C661 C 0.42015 0.38779 0.05424 0.0
C662 C 0.35728 0.27435 0.84933 0.0
C663 C 0.45216 0.34746 0.97172 0.0
H664 H 0.31547 0.0853 0.78782 0.0
H665 H 0.33116 0.17078 0.81822 0.0
H666 H 0.32871 0.13316 0.74657 0.0
H667 H 0.3127 0.11446 0.97973 0.0
H668 H 0.43702 0.43316 0.06087 0.0
H669 H 0.40718 0.34342 0.04026 0.0
H670 H 0.48977 0.40557 0.96155 0.0
H671 H 0.40062 0.38275 0.07973 0.0
Tb672 Tb 0.81199 0.12791 0.95316 0.0
C673 C 0.73611 0.17796 0.88963 0.0
N674 N 0.73919 0.16717 0.9464 0.0
C675 C 0.74509 0.20928 1.00089 0.0
C676 C 0.73887 0.20552 0.88606 0.0
C677 C 0.74216 0.18185 1.00214 0.0
C678 C 0.74382 0.22135 0.94256 0.0
C679 C 0.7277 0.17208 0.77472 0.0
C680 C 0.73013 0.16127 0.83465 0.0
C681 C 0.73082 0.19966 0.77097 0.0
C682 C 0.73631 0.2163 0.82649 0.0
Tb683 Tb 0.73321 0.12173 0.94093 0.0
N684 N 0.7279 0.1349 0.83971 0.0
C685 C 0.7225 0.15495 0.72024 0.0
C686 C 0.72243 0.11797 0.78674 0.0
C687 C 0.71979 0.12776 0.72635 0.0
H688 H 0.74157 0.17248 0.04826 0.0
H689 H 0.71568 0.11432 0.68451 0.0
H690 H 0.83397 0.11247 0.81879 0.0
H691 H 0.8265 0.1078 0.2012 0.0
H692 H 0.72011 0.09694 0.79045 0.0
H693 H 0.72056 0.1625 0.67331 0.0
H694 H 0.81897 0.13425 0.11274 0.0
H695 H 0.74789 0.22093 0.04514 0.0
H696 H 0.72903 0.20832 0.72534 0.0
H697 H 0.73847 0.23747 0.82287 0.0
H698 H 0.85044 0.07884 0.78505 0.0
H699 H 0.74601 0.24257 0.94186 0.0
H700 H 0.83422 0.06697 0.17654 0.0
N701 N 0.82826 0.09901 0.91612 0.0
C702 C 0.83141 0.08254 0.96129 0.0
C703 C 0.84505 0.0796 0.83471 0.0
C704 C 0.84043 0.0629 0.94432 0.0
C705 C 0.83591 0.09871 0.85391 0.0
C706 C 0.84684 0.06125 0.8799 0.0
N707 N 0.82039 0.10721 0.04001 0.0
C708 C 0.82215 0.11632 0.102 0.0
C709 C 0.8322 0.07141 0.07384 0.0
C710 C 0.82725 0.0867 0.0253 0.0
C711 C 0.83082 0.07843 0.13787 0.0
C712 C 0.82646 0.10145 0.15197 0.0
H713 H 0.85388 0.04645 0.86488 0.0
H714 H 0.85023 0.03082 0.98017 0.0
H715 H 0.84304 0.03827 0.09354 0.0
O716 O 0.8392 0.17262 0.9376 0.0
O717 O 0.7789 0.10469 0.02613 0.0
O718 O 0.73392 0.08413 0.98103 0.0
O719 O 0.85652 0.14648 0.96922 0.0
O720 O 0.79962 0.15871 0.98537 0.0
O721 O 0.75642 0.13862 0.03348 0.0
O722 O 0.68967 0.09854 0.91059 0.0
O723 O 0.77233 0.15381 0.88526 0.0
O724 O 0.79993 0.13348 0.85721 0.0
O725 O 0.70019 0.1156 0.0052 0.0
O726 O 0.73586 0.08676 0.89037 0.0
O727 O 0.78364 0.09552 0.8816 0.0
C728 C 0.75336 0.08224 0.0158 0.0
C729 C 0.88766 0.1879 0.9104 0.0
C730 C 0.93893 0.22415 0.90005 0.0
C731 C 0.93811 0.21456 0.83671 0.0
C732 C 0.88725 0.17934 0.84693 0.0
C733 C 0.91241 0.19259 0.81043 0.0
C734 C 0.9132 0.21059 0.93623 0.0
C735 C 0.7845 0.15622 0.03616 0.0
C736 C 0.86246 0.17214 0.95231 0.0
C737 C 0.84366 0.04632 0.99231 0.0
C738 C 0.83953 0.05054 0.05691 0.0
C739 C 0.78878 0.1498 0.84375 0.0
C740 C 0.65487 0.07259 0.99145 0.0
C741 C 0.60264 0.03989 0.01096 0.0
C742 C 0.60963 0.02107 0.04314 0.0
C743 C 0.6606 0.05298 0.02334 0.0
C744 C 0.62577 0.06593 0.98518 0.0
C745 C 0.63818 0.02752 0.04887 0.0
C746 C 0.7555 0.0806 0.86853 0.0
C747 C 0.67928 0.10001 0.96569 0.0
H748 H 0.95735 0.22354 0.8075 0.0
H749 H 0.86767 0.16216 0.82606 0.0
H750 H 0.9121 0.18537 0.76194 0.0
H751 H 0.91282 0.21741 0.98487 0.0
H752 H 0.59307 1.00146 0.06539 0.0
H753 H 0.68249 0.05746 0.02916 0.0
H754 H 0.62128 0.08092 0.96003 0.0
H755 H 0.643 1.01274 0.07397 0.0
Tb756 Tb 0.69826 0.89938 0.56618 0.0
C757 C 0.56857 0.83719 0.60463 0.0
N758 N 0.58374 0.84868 0.54959 0.0
C759 C 0.55176 0.80502 0.49318 0.0
C760 C 0.54528 0.80857 0.60659 0.0
C761 C 0.57467 0.83349 0.49353 0.0
C762 C 0.53725 0.79235 0.5501 0.0
C763 C 0.56154 0.84293 0.71752 0.0
C764 C 0.57632 0.85428 0.65934 0.0
C765 C 0.53868 0.81428 0.71983 0.0
C766 C 0.53053 0.79718 0.6645 0.0
Tb767 Tb 0.62024 0.89566 0.55722 0.0
N768 N 0.59898 0.88177 0.65581 0.0
C769 C 0.57028 0.86067 0.77175 0.0
C770 C 0.6072 0.89933 0.70836 0.0
C771 C 0.59309 0.88902 0.76702 0.0
H772 H 0.58432 0.84326 0.44836 0.0
H773 H 0.59989 0.90296 0.80861 0.0
H774 H 0.73145 0.9172 0.70594 0.0
H775 H 0.74488 0.9263 0.32732 0.0
H776 H 0.62456 0.92126 0.70562 0.0
H777 H 0.5595 0.85273 0.81737 0.0
H778 H 0.70967 0.89447 0.40888 0.0
H779 H 0.54502 0.79301 0.44874 0.0
H780 H 0.5271 0.80517 0.76414 0.0
H781 H 0.51267 0.77519 0.66693 0.0
H782 H 0.77673 0.958 0.7496 0.0
H783 H 0.51943 0.77031 0.54957 0.0
H784 H 0.78588 0.9737 0.35926 0.0
N785 N 0.73999 0.93361 0.61087 0.0
C786 C 0.75907 0.95369 0.56973 0.0
C787 C 0.77192 0.95713 0.69898 0.0
C788 C 0.78484 0.97741 0.59217 0.0
C789 C 0.74644 0.9341 0.67431 0.0
C790 C 0.79083 0.97929 0.65799 0.0
N791 N 0.73013 0.92414 0.4853 0.0
C792 C 0.72772 0.91496 0.42317 0.0
C793 C 0.7746 0.9676 0.45996 0.0
C794 C 0.75399 0.94879 0.50455 0.0
C795 C 0.77059 0.95981 0.39513 0.0
C796 C 0.74748 0.93301 0.37693 0.0
H797 H 0.81046 0.99716 0.67724 0.0
H798 H 0.82397 0.01636 0.56423 0.0
H799 H 0.81492 1.00783 0.4483 0.0
O800 O 0.68441 0.85526 0.57061 0.0
O801 O 0.68757 0.91829 0.48578 0.0
O802 O 0.65826 0.93526 0.52014 0.0
O803 O 0.72929 0.88618 0.57661 0.0
O804 O 0.65781 0.86504 0.52541 0.0
O805 O 0.63176 0.88022 0.46992 0.0
O806 O 0.59439 0.91375 0.58029 0.0
O807 O 0.62906 0.8662 0.61761 0.0
O808 O 0.67574 0.8916 0.65606 0.0
O809 O 0.5946 0.89931 0.48508 0.0
O810 O 0.65362 0.9333 0.60929 0.0
O811 O 0.69416 0.9289 0.6351 0.0
C812 C 0.68164 0.93901 0.49076 0.0
C813 C 0.7128 0.84039 0.62582 0.0
C814 C 0.72306 0.80179 0.65183 0.0
C815 C 0.71313 0.80112 0.71453 0.0
C816 C 0.70326 0.83944 0.68874 0.0
C817 C 0.70308 0.81963 0.73247 0.0
C818 C 0.72256 0.82144 0.60739 0.0
C819 C 0.64569 0.86585 0.47159 0.0
C820 C 0.71005 0.85893 0.57741 0.0
C821 C 0.80431 0.9976 0.54795 0.0
C822 C 0.79916 0.99272 0.4819 0.0
C823 C 0.64828 0.87296 0.66406 0.0
C824 C 0.58741 0.93944 0.49698 0.0
C825 C 0.56687 0.97126 0.48364 0.0
C826 C 0.59222 0.99108 0.45126 0.0
C827 C 0.61235 0.95984 0.46482 0.0
C828 C 0.56467 0.94523 0.50633 0.0
C829 C 0.61467 0.98541 0.44217 0.0
C830 C 0.67836 0.94172 0.63961 0.0
C831 C 0.58539 0.91253 0.52206 0.0
H832 H 0.71269 0.78593 0.74949 0.0
H833 H 0.69541 0.85359 0.70357 0.0
H834 H 0.69503 0.81857 0.78052 0.0
H835 H 0.72963 0.82192 0.55852 0.0
H836 H 0.59462 1.0109 0.43176 0.0
H837 H 0.63007 0.95601 0.457 0.0
H838 H 0.54554 0.92967 0.53188 0.0
H839 H 0.63396 1.00091 0.41707 0.0
Tb840 Tb 0.12844 0.80786 0.55382 0.0
C841 C 0.17879 0.73036 0.62222 0.0
N842 N 0.16816 0.73332 0.56527 0.0
C843 C 0.20963 0.73789 0.51087 0.0
C844 C 0.20593 0.7323 0.62596 0.0
C845 C 0.18262 0.73584 0.50956 0.0
C846 C 0.22151 0.73647 0.56937 0.0
C847 C 0.17251 0.722 0.73696 0.0
C848 C 0.16215 0.72493 0.67694 0.0
C849 C 0.19983 0.72458 0.74112 0.0
C850 C 0.21645 0.72962 0.68574 0.0
Tb851 Tb 0.12377 0.72929 0.56997 0.0
N852 N 0.13591 0.72283 0.67127 0.0
C853 C 0.15507 0.71646 0.79098 0.0
C854 C 0.11841 0.71645 0.72356 0.0
C855 C 0.12783 0.71344 0.78411 0.0
H856 H 0.17332 0.73565 0.46362 0.0
H857 H 0.114 0.7087 0.82546 0.0
H858 H 0.09816 0.82358 0.6752 0.0
H859 H 0.12123 0.82174 0.29925 0.0
H860 H 0.09705 0.71336 0.71926 0.0
H861 H 0.16228 0.71413 0.83798 0.0
H862 H 0.14461 0.81894 0.39882 0.0
H863 H 0.22112 0.74022 0.46663 0.0
H864 H 0.20818 0.72245 0.78685 0.0
H865 H 0.23733 0.7312 0.68958 0.0
H866 H 0.0542 0.82665 0.69199 0.0
H867 H 0.24241 0.73798 0.57017 0.0
H868 H 0.07397 0.81948 0.30464 0.0
N869 N 0.09048 0.81451 0.57567 0.0
C870 C 0.0749 0.814 0.52379 0.0
C871 C 0.05958 0.82275 0.64449 0.0
C872 C 0.05011 0.81646 0.53064 0.0
C873 C 0.08432 0.82077 0.63495 0.0
C874 C 0.04204 0.81996 0.59226 0.0
N875 N 0.11007 0.81262 0.45877 0.0
C876 C 0.12389 0.81739 0.40124 0.0
C877 C 0.0714 0.81583 0.40809 0.0
C878 C 0.08531 0.81356 0.46329 0.0
C879 C 0.08411 0.81795 0.34824 0.0
C880 C 0.11074 0.81925 0.34496 0.0
H881 H 0.02307 0.82183 0.59965 0.0
H882 H 1.0156 0.81803 0.48007 0.0
H883 H 0.03432 0.81756 0.37267 0.0
O884 O 0.17197 0.84094 0.5674 0.0
O885 O 0.10653 0.77339 0.4829 0.0
O886 O 0.08554 0.73024 0.53487 0.0
O887 O 0.13941 0.8512 0.54497 0.0
O888 O 0.16169 0.7993 0.51566 0.0
O889 O 0.14058 0.75284 0.47823 0.0
O890 O 0.09841 0.68567 0.59776 0.0
O891 O 0.15769 0.76936 0.61954 0.0
O892 O 0.13831 0.79784 0.64822 0.0
O893 O 0.1157 0.69626 0.50303 0.0
O894 O 0.09024 0.73289 0.62256 0.0
O895 O 0.10046 0.78089 0.63448 0.0
C896 C 0.08367 0.74858 0.49617 0.0
C897 C 0.17858 0.88603 0.60449 0.0
C898 C 0.21284 0.93762 0.62536 0.0
C899 C 0.19494 0.93581 0.677 0.0
C900 C 0.1629 0.88486 0.65903 0.0
C901 C 0.17097 0.90965 0.69471 0.0
C902 C 0.204 0.91206 0.589 0.0
C903 C 0.15891 0.78081 0.47094 0.0
C904 C 0.16635 0.86161 0.5589 0.0
C905 C 0.03499 0.81666 0.47575 0.0
C906 C 0.04569 0.81648 0.41458 0.0
C907 C 0.15423 0.78614 0.6611 0.0
C908 C 0.10305 0.64925 0.5435 0.0
C909 C 0.08105 0.596 0.53588 0.0
C910 C 0.10824 0.59958 0.55129 0.0
C911 C 0.12961 0.65164 0.55809 0.0
C912 C 0.07884 0.62139 0.53214 0.0
C913 C 0.13212 0.627 0.5618 0.0
C914 C 0.08567 0.7528 0.64862 0.0
C915 C 0.09993 0.67535 0.54261 0.0
H916 H 0.19867 0.95457 0.7037 0.0
H917 H 0.14365 0.86508 0.6723 0.0
H918 H 0.15801 0.90882 0.73526 0.0
H919 H 0.21613 0.91206 0.54778 0.0
H920 H 0.11115 0.58113 0.55679 0.0
H921 H 0.14835 0.67253 0.56726 0.0
H922 H 0.05839 0.61967 0.52031 0.0
H923 H 0.15273 0.62912 0.57377 0.0
Tb924 Tb 0.22771 0.33494 0.56037 0.0
C925 C 0.3026 0.4551 0.66526 0.0
N926 N 0.29819 0.4458 0.60338 0.0
C927 C 0.28853 0.48334 0.57375 0.0
C928 C 0.29876 0.47814 0.68431 0.0
C929 C 0.29225 0.46014 0.55722 0.0
C930 C 0.2915 0.4922 0.63764 0.0
C931 C 0.31387 0.44908 0.77481 0.0
C932 C 0.31003 0.44067 0.70988 0.0
C933 C 0.3097 0.4718 0.79423 0.0
C934 C 0.30222 0.48633 0.74909 0.0
Tb935 Tb 0.30516 0.40805 0.58228 0.0
N936 N 0.31341 0.4184 0.68955 0.0
C937 C 0.32198 0.43453 0.81824 0.0
C938 C 0.32299 0.40533 0.73125 0.0
C939 C 0.32691 0.41283 0.79618 0.0
H940 H 0.29062 0.45404 0.50749 0.0
H941 H 0.33408 0.40208 0.82905 0.0
H942 H 0.21631 0.28828 0.67891 0.0
H943 H 0.21065 0.31506 0.30622 0.0
H944 H 0.32848 0.38965 0.71496 0.0
H945 H 0.32509 0.4403 0.86856 0.0
H946 H 0.21399 0.3402 0.40795 0.0
H947 H 0.2835 0.49447 0.53714 0.0
H948 H 0.3124 0.47845 0.84398 0.0
H949 H 0.29923 0.50391 0.76475 0.0
H950 H 0.21723 0.24295 0.69195 0.0
H951 H 0.28846 0.51009 0.65028 0.0
H952 H 0.21582 0.27157 0.30704 0.0
N953 N 0.22456 0.29127 0.57854 0.0
C954 C 0.22511 0.27695 0.52544 0.0
C955 C 0.21989 0.25248 0.64487 0.0
C956 C 0.2244 0.25036 0.53012 0.0
C957 C 0.21987 0.27842 0.63743 0.0
C958 C 0.22281 0.23869 0.59106 0.0
N959 N 0.2231 0.31273 0.46412 0.0
C960 C 0.21667 0.3216 0.40819 0.0
C961 C 0.22138 0.27226 0.40983 0.0
C962 C 0.22377 0.28777 0.46617 0.0
C963 C 0.21747 0.28273 0.35142 0.0
C964 C 0.21458 0.30725 0.35076 0.0
H965 H 0.22239 0.21839 0.59679 0.0
H966 H 0.22392 0.2155 0.47648 0.0
H967 H 0.2211 0.23463 0.371 0.0
O968 O 0.19351 0.34377 0.55942 0.0
O969 O 0.26141 0.34963 0.48705 0.0
O970 O 0.30469 0.37029 0.53889 0.0
O971 O 0.18527 0.30033 0.56576 0.0
O972 O 0.2348 0.37676 0.52437 0.0
O973 O 0.28194 0.40522 0.49155 0.0
O974 O 0.34926 0.43303 0.60709 0.0
O975 O 0.26417 0.40198 0.62579 0.0
O976 O 0.23672 0.35437 0.65548 0.0
O977 O 0.33551 0.43477 0.51231 0.0
O978 O 0.30214 0.36809 0.62004 0.0
O979 O 0.25376 0.33617 0.64424 0.0
C980 C 0.28671 0.35228 0.4959 0.0
C981 C 0.14968 0.30904 0.6085 0.0
C982 C 0.10024 0.29944 0.61965 0.0
C983 C 0.09816 0.28563 0.67839 0.0
C984 C 0.14732 0.29553 0.66759 0.0
C985 C 0.12166 0.28398 0.70237 0.0
C986 C 0.12656 0.31179 0.58601 0.0
C987 C 0.25386 0.39442 0.48232 0.0
C988 C 0.17397 0.31673 0.56485 0.0
C989 C 0.22397 0.23571 0.47393 0.0
C990 C 0.2223 0.24657 0.41387 0.0
C991 C 0.24736 0.38195 0.6677 0.0
C992 C 0.38263 0.44078 0.52438 0.0
C993 C 0.43516 0.46074 0.50843 0.0
C994 C 0.42862 0.43464 0.47832 0.0
C995 C 0.37741 0.41522 0.49434 0.0
C996 C 0.41167 0.46362 0.53133 0.0
C997 C 0.40018 0.41225 0.47158 0.0
C998 C 0.28158 0.34516 0.65012 0.0
C999 C 0.35777 0.44302 0.54976 0.0
H1000 H 0.07805 0.27507 0.7045 0.0
H1001 H 0.16488 0.29303 0.68566 0.0
H1002 H 0.11966 0.27289 0.74715 0.0
H1003 H 0.1288 0.32252 0.5405 0.0
H1004 H 0.44553 0.43158 0.45852 0.0
H1005 H 0.35565 0.39746 0.48826 0.0
H1006 H 0.41589 0.48333 0.55506 0.0
H1007 H 0.39574 0.39243 0.44812 0.0
H1008 H 0.08125 0.54317 0.98554 0.0
H1009 H 0.03558 0.46597 0.1003 0.0
H1010 H 0.99263 0.47054 0.09774 0.0
H1011 H 0.96791 0.4966 0.06481 0.0
H1012 H 1.013 0.57355 0.94922 0.0
H1013 H 0.05638 0.56952 0.9529 0.0
C1014 C 0.06203 0.5274 0.01054 0.0
C1015 C 0.06202 0.50411 0.04295 0.0
C1016 C 0.03723 0.53031 0.00954 0.0
C1017 C 0.03646 0.48381 0.07395 0.0
C1018 C 1.01182 0.48657 0.07306 0.0
C1019 C 0.98707 0.51245 0.03976 0.0
C1020 C 0.98674 0.53534 0.0064 0.0
C1021 C 1.01192 0.50972 0.04107 0.0
C1022 C 1.01234 0.55589 0.97592 0.0
C1023 C 0.03721 0.55343 0.9775 0.0
H1024 H 0.48226 0.47011 0.09108 0.0
H1025 H 0.50127 0.44881 0.90477 0.0
H1026 H 0.53504 0.49987 0.88441 0.0
H1027 H 0.55843 0.55084 0.91793 0.0
H1028 H 0.53915 0.57207 0.10399 0.0
H1029 H 0.50529 0.52103 0.1242 0.0
C1030 C 0.49349 0.47648 0.04559 0.0
C1031 C 0.48888 0.45514 0.99957 0.0
C1032 C 0.51261 0.5061 0.03357 0.0
C1033 C 0.50443 0.46429 0.94172 0.0
C1034 C 0.52362 0.49367 0.92969 0.0
C1035 C 0.54704 0.54443 0.96324 0.0
C1036 C 0.55167 0.56574 0.00936 0.0
C1037 C 0.52781 0.51481 0.97511 0.0
C1038 C 0.53599 0.55659 0.06703 0.0
C1039 C 0.51675 0.52723 0.07896 0.0
H1040 H 0.55371 0.98602 0.9994 0.0
H1041 H 0.5803 0.07639 0.01432 0.0
H1042 H 0.52989 0.06405 0.0141 0.0
H1043 H 0.47804 0.02769 0.01223 0.0
H1044 H 0.45142 0.93732 0.99857 0.0
H1045 H 0.5019 0.94964 0.99928 0.0
C1046 C 0.5487 1.00317 1.00336 0.0
C1047 C 0.57141 0.03231 0.007 0.0
C1048 C 0.51942 0.99586 0.00456 0.0
C1049 C 0.56381 0.05389 0.01043 0.0
C1050 C 0.53479 0.04679 0.01103 0.0
C1051 C 0.48311 1.01055 0.00898 0.0
C1052 C 0.46044 0.98143 0.00503 0.0
C1053 C 0.51238 0.01785 0.00838 0.0
C1054 C 0.46797 0.95981 1.00243 0.0
C1055 C 0.497 0.9669 1.00213 0.0
H1056 H 0.45354 0.98098 0.491 0.0
H1057 H 0.51653 0.07041 0.52584 0.0
H1058 H 0.55502 0.05886 0.52199 0.0
H1059 H 0.5711 0.02349 0.50977 0.0
H1060 H 0.50834 0.93404 0.47503 0.0
H1061 H 0.46961 0.94538 0.48063 0.0
C1062 C 0.47563 0.998 0.49843 0.0
C1063 C 0.48184 0.02668 0.50849 0.0
C1064 C 0.49783 0.99113 0.49698 0.0
C1065 C 0.51085 0.04829 0.51684 0.0
C1066 C 0.53297 0.04163 0.51525 0.0
C1067 C 0.54899 1.0064 0.50296 0.0
C1068 C 0.5429 0.97786 0.49166 0.0
C1069 C 0.52675 0.01315 0.50529 0.0
C1070 C 0.51389 0.9561 0.48451 0.0
C1071 C 0.49166 0.96264 0.48712 0.0
H1072 H 0.07975 0.54699 0.48765 0.0
H1073 H 0.02359 0.5759 0.56291 0.0
H1074 H 0.98246 0.52735 0.55076 0.0
H1075 H 0.96197 0.47623 0.52046 0.0
H1076 H 0.01803 0.44675 0.44852 0.0
H1077 H 0.05951 0.49546 0.46095 0.0
C1078 C 0.05868 0.54286 0.50243 0.0
C1079 C 0.05535 0.56586 0.52625 0.0
C1080 C 0.03489 0.51441 0.4968 0.0
C1081 C 0.02732 0.55939 0.54328 0.0
C1082 C 1.00361 0.53132 0.53702 0.0
C1083 C 0.98322 0.48034 0.5072 0.0
C1084 C 0.98652 0.45742 0.48309 0.0
C1085 C 1.00709 0.50862 0.51393 0.0
C1086 C 1.01455 0.46351 0.46771 0.0
C1087 C 0.03835 0.49157 0.47426 0.0
H1088 H 0.48365 0.45629 0.53034 0.0
H1089 H 0.4578 0.51949 0.49601 0.0
H1090 H 0.50838 0.55771 0.49452 0.0
H1091 H 0.56008 0.57327 0.4992 0.0
H1092 H 0.58604 0.51024 0.53544 0.0
H1093 H 0.5355 0.472 0.5364 0.0
C1094 C 0.48891 0.47837 0.52209 0.0
C1095 C 0.46637 0.48463 0.51306 0.0
C1096 C 0.51829 0.50039 0.52039 0.0
C1097 C 0.47419 0.5137 0.50394 0.0
C1098 C 0.5033 0.53565 0.50239 0.0
C1099 C 0.55493 0.55127 0.50812 0.0
C1100 C 0.57752 0.54511 0.51758 0.0
C1101 C 0.52557 0.52927 0.51013 0.0
C1102 C 0.56969 0.51604 0.52712 0.0
C1103 C 0.54057 0.49405 0.52841 0.0
H1104 H 0.9902 0.27218 0.34104 0.0
H1105 H 0.95825 0.32531 0.26395 0.0
H1106 H 1.00106 0.35081 0.1971 0.0
H1107 H 0.04739 0.35782 0.15956 0.0
H1108 H 0.08145 0.30726 0.242 0.0
H1109 H 0.03782 0.28046 0.30642 0.0
C1110 C 0.99226 0.28877 0.30835 0.0
C1111 C 0.97033 0.29586 0.30557 0.0
C1112 C 1.0174 0.30382 0.27092 0.0
C1113 C 0.97423 0.31874 0.26592 0.0
C1114 C 0.99888 0.33348 0.22778 0.0
C1115 C 0.04546 0.34103 0.19176 0.0
C1116 C 0.06759 0.33415 0.19442 0.0
C1117 C 0.02057 0.32617 0.22978 0.0
C1118 C 0.0645 0.31238 0.23694 0.0
C1119 C 0.0396 0.29723 0.27442 0.0
H1120 H 0.66665 0.69478 0.18016 0.0
H1121 H 0.73954 0.78132 0.18294 0.0
H1122 H 0.76525 0.7663 0.25425 0.0
H1123 H 0.76647 0.7288 0.31867 0.0
H1124 H 0.69518 0.64157 0.31194 0.0
H1125 H 0.66912 0.6567 0.24105 0.0
C1126 C 0.68809 0.71047 0.1965 0.0
C1127 C 0.70059 0.73963 0.17784 0.0
C1128 C 0.70311 0.70144 0.2369 0.0
C1129 C 0.72874 0.75921 0.1985 0.0
C1130 C 0.74368 0.75049 0.23888 0.0
C1131 C 0.74586 0.71287 0.29981 0.0
C1132 C 0.73372 0.68388 0.31849 0.0
C1133 C 0.73102 0.72169 0.25866 0.0
C1134 C 0.7057 0.66394 0.29715 0.0
C1135 C 0.69061 0.67259 0.25666 0.0
H1136 H 0.30507 0.04583 0.3283 0.0
H1137 H 0.38881 0.08072 0.24174 0.0
H1138 H 0.37058 0.03891 0.17047 0.0
H1139 H 0.33156 0.99106 0.13717 0.0
H1140 H 0.24856 0.9545 0.22893 0.0
H1141 H 0.26546 0.99823 0.29291 0.0
C1142 C 0.31902 0.0446 0.29251 0.0
C1143 C 0.34811 0.06652 0.28942 0.0
C1144 C 0.30854 0.01997 0.2531 0.0
C1145 C 0.3663 0.06419 0.24457 0.0
C1146 C 0.3559 0.04021 0.2041 0.0
C1147 C 0.31713 0.9926 0.1712 0.0
C1148 C 0.28864 0.96949 0.17752 0.0
C1149 C 0.32722 0.01767 0.20882 0.0
C1150 C 0.27032 0.97208 0.22176 0.0
C1151 C 0.28007 0.99707 0.25885 0.0
H1152 H 0.04135 0.69768 0.66079 0.0
H1153 H 0.07377 0.78296 0.73915 0.0
H1154 H 0.03032 0.76525 0.80442 0.0
H1155 H 0.98331 0.72518 0.84 0.0
H1156 H 0.95192 0.63995 0.7634 0.0
H1157 H 0.995 0.65792 0.69701 0.0
C1158 C 0.03917 0.7125 0.69242 0.0
C1159 C 0.06069 0.74196 0.69342 0.0
C1160 C 1.01423 0.70209 0.73013 0.0
C1161 C 0.05725 0.76055 0.73521 0.0
C1162 C 0.03245 0.75032 0.7731 0.0
C1163 C 0.98559 0.71064 0.80802 0.0
C1164 C 0.9642 0.68121 0.80659 0.0
C1165 C 1.01067 0.72117 0.77046 0.0
C1166 C 0.96805 0.66256 0.766 0.0
C1167 C 0.99271 0.67288 0.72791 0.0
H1168 H 0.32899 0.33988 0.63798 0.0
H1169 H 0.25467 0.31406 0.75819 0.0
H1170 H 0.2699 0.28726 0.82764 0.0
H1171 H 0.30646 0.27399 0.8578 0.0
H1172 H 0.37737 0.29549 0.73036 0.0
H1173 H 0.36136 0.32101 0.65957 0.0
C1174 C 0.3159 0.32813 0.67893 0.0
C1175 C 0.29053 0.32872 0.69237 0.0
C1176 C 0.32445 0.31231 0.71771 0.0
C1177 C 0.27406 0.31363 0.74617 0.0
C1178 C 0.28286 0.29844 0.78612 0.0
C1179 C 0.31812 0.28391 0.81412 0.0
C1180 C 0.34392 0.28413 0.80082 0.0
C1181 C 0.30821 0.29787 0.77272 0.0
C1182 C 0.35848 0.29654 0.74343 0.0
C1183 C 0.34911 0.31083 0.70259 0.0
H1184 H 0.70269 0.04888 0.81111 0.0
H1185 H 0.78389 0.05189 0.83653 0.0
H1186 H 0.76763 1.00987 0.76824 0.0
H1187 H 0.73037 0.97242 0.70027 0.0
H1188 H 0.64985 0.97043 0.67174 0.0
H1189 H 0.66598 1.01203 0.74134 0.0
C1190 C 0.71712 0.04078 0.80106 0.0
C1191 C 0.74507 0.05453 0.82742 0.0
C1192 C 0.70761 0.0165 0.7613 0.0
C1193 C 0.76282 0.04272 0.8152 0.0
C1194 C 0.75337 0.01837 0.77652 0.0
C1195 C 0.71622 0.98075 0.70967 0.0
C1196 C 0.68867 0.96749 0.68175 0.0
C1197 C 0.72583 1.00514 0.74904 0.0
C1198 C 0.671 0.97951 0.69332 0.0
C1199 C 0.68023 1.00351 0.73309 0.0
H1200 H 0.21751 0.41041 0.69436 0.0
H1201 H 0.25874 0.36801 0.78348 0.0
H1202 H 0.24026 0.37139 0.88806 0.0
H1203 H 0.20898 0.38228 0.95314 0.0
H1204 H 0.16442 0.42167 0.86537 0.0
H1205 H 0.18745 0.42371 0.76241 0.0
C1206 C 0.22294 0.40257 0.73703 0.0
C1207 C 0.23992 0.38936 0.73117 0.0
C1208 C 0.2112 0.40364 0.79742 0.0
C1209 C 0.24608 0.37859 0.78671 0.0
C1210 C 0.23533 0.38034 0.84658 0.0
C1211 C 0.20439 0.3916 0.91182 0.0
C1212 C 0.18467 0.40165 0.91763 0.0
C1213 C 0.2173 0.39217 0.85239 0.0
C1214 C 0.17935 0.4137 0.86292 0.0
C1215 C 0.19252 0.4148 0.80372 0.0
H1216 H 0.65008 0.83051 0.94142 0.0
H1217 H 0.62336 0.7502 0.84315 0.0
H1218 H 0.61892 0.77167 0.74271 0.0
H1219 H 0.62651 0.81501 0.68125 0.0
H1220 H 0.65604 0.89519 0.78187 0.0
H1221 H 0.65478 0.87187 0.88332 0.0
C1222 C 0.64308 0.81747 0.89832 0.0
C1223 C 0.63721 0.78875 0.89999 0.0
C1224 C 0.64077 0.82996 0.84115 0.0
C1225 C 0.62803 0.77234 0.84336 0.0
C1226 C 0.62547 0.78463 0.78591 0.0
C1227 C 0.63174 0.82697 0.72585 0.0
C1228 C 0.64079 0.85661 0.72466 0.0
C1229 C 0.63213 0.81359 0.78401 0.0
C1230 C 0.64854 0.87226 0.78213 0.0
C1231 C 0.64811 0.85901 0.83994 0.0
H1232 H 0.19375 0.82627 0.9448 0.0
H1233 H 0.27803 0.86828 0.85798 0.0
H1234 H 0.25655 0.84469 0.75542 0.0
H1235 H 0.2127 0.81487 0.68759 0.0
H1236 H 0.12901 0.77634 0.7764 0.0
H1237 H 0.15126 0.79536 0.88049 0.0
C1238 C 0.20764 0.83019 0.90381 0.0
C1239 C 0.23763 0.8493 0.90963 0.0
C1240 C 0.19507 0.81698 0.84484 0.0
C1241 C 0.25497 0.85378 0.8554 0.0
C1242 C 0.24261 0.8403 0.7965 0.0
C1243 C 0.1995 0.81012 0.73015 0.0
C1244 C 0.16916 0.79374 0.7244 0.0
C1245 C 0.21256 0.82217 0.7902 0.0
C1246 C 0.15232 0.78849 0.77966 0.0
C1247 C 0.16506 0.79955 0.8392 0.0
H1248 H 0.39905 0.20541 0.55759 0.0
H1249 H 0.39151 0.12985 0.64959 0.0
H1250 H 0.39271 0.1506 0.75502 0.0
H1251 H 0.39295 0.18932 0.82166 0.0
H1252 H 0.40019 0.26435 0.72851 0.0
H1253 H 0.40264 0.24522 0.62378 0.0
C1254 C 0.39785 0.1935 0.60066 0.0
C1255 C 0.39503 0.16592 0.59523 0.0
C1256 C 0.39878 0.20572 0.66132 0.0
C1257 C 0.39376 0.15107 0.65195 0.0
C1258 C 0.39441 0.16296 0.71242 0.0
C1259 C 0.39584 0.20175 0.77843 0.0
C1260 C 0.39723 0.2287 0.78304 0.0
C1261 C 0.39663 0.19017 0.71785 0.0
C1262 C 0.40001 0.2441 0.72649 0.0
C1263 C 0.40102 0.23292 0.66643 0.0
H1264 H 0.8668 0.24804 0.64616 0.0
H1265 H 0.83625 0.17371 0.52258 0.0
H1266 H 0.80701 0.14244 0.60874 0.0
H1267 H 0.79135 0.13517 0.72131 0.0
H1268 H 0.81669 0.20884 0.843 0.0
H1269 H 0.8457 0.24124 0.75556 0.0
C1270 C 0.85332 0.22515 0.63739 0.0
C1271 C 0.85432 0.2136 0.57713 0.0
C1272 C 0.83533 0.20697 0.68715 0.0
C1273 C 0.83667 0.18359 0.56799 0.0
C1274 C 0.81964 0.16547 0.61747 0.0
C1275 C 0.80283 0.15838 0.72817 0.0
C1276 C 0.80191 0.16962 0.78837 0.0
C1277 C 0.81901 0.17681 0.67743 0.0
C1278 C 0.81684 0.1997 0.79682 0.0
C1279 C 0.83364 0.2182 0.74694 0.0
H1280 H 0.88481 0.64187 0.73228 0.0
H1281 H 0.81625 0.6196 0.86717 0.0
H1282 H 0.78569 0.62141 0.78145 0.0
H1283 H 0.77901 0.63076 0.66706 0.0
H1284 H 0.84955 0.65524 0.53517 0.0
H1285 H 0.87838 0.65127 0.61974 0.0
C1286 C 0.8632 0.63752 0.74272 0.0
C1287 C 0.85283 0.63086 0.80583 0.0
C1288 C 0.84593 0.63892 0.69331 0.0
C1289 C 0.82474 0.62504 0.8189 0.0
C1290 C 0.80722 0.6259 0.76977 0.0
C1291 C 0.80055 0.63491 0.65674 0.0
C1292 C 0.81183 0.6433 0.59421 0.0
C1293 C 0.81757 0.63293 0.70652 0.0
C1294 C 0.84006 0.64892 0.58244 0.0
C1295 C 0.85675 0.64662 0.63097 0.0
H1296 H 0.86592 0.62307 0.14784 0.0
H1297 H 0.81766 0.64579 0.0179 0.0
H1298 H 0.79075 0.64941 0.10688 0.0
H1299 H 0.78275 0.64974 0.22255 0.0
H1300 H 0.82623 0.6224 0.35379 0.0
H1301 H 0.85245 0.61636 0.26406 0.0
C1302 C 0.84907 0.62811 0.13867 0.0
C1303 C 0.84439 0.63449 0.07545 0.0
C1304 C 0.83271 0.62946 0.19067 0.0
C1305 C 0.82237 0.64115 0.0655 0.0
C1306 C 0.80677 0.64324 0.11661 0.0
C1307 C 0.7976 0.64194 0.23128 0.0
C1308 C 0.8026 0.63658 0.29459 0.0
C1309 C 0.81208 0.638 0.17944 0.0
C1310 C 0.82183 0.62644 0.30535 0.0
C1311 C 0.83698 0.6232 0.25401 0.0
H1312 H 0.40499 0.21073 0.32017 0.0
H1313 H 0.39822 0.13602 0.22604 0.0
H1314 H 0.39644 0.15579 0.12163 0.0
H1315 H 0.39659 0.19431 0.05617 0.0
H1316 H 0.40676 0.27067 0.149 0.0
H1317 H 0.40764 0.25054 0.25393 0.0
C1318 C 0.40304 0.19878 0.27675 0.0
C1319 C 0.40147 0.17175 0.2812 0.0
C1320 C 0.40283 0.21072 0.21629 0.0
C1321 C 0.39941 0.15678 0.22429 0.0
C1322 C 0.39839 0.16811 0.16438 0.0
C1323 C 0.39921 0.20664 0.09934 0.0
C1324 C 0.40166 0.23404 0.09447 0.0
C1325 C 0.40013 0.19508 0.15966 0.0
C1326 C 0.40516 0.24971 0.15107 0.0
C1327 C 0.40545 0.23809 0.21125 0.0
H1328 H 0.76922 0.15348 0.16515 0.0
H1329 H 0.83383 0.20727 0.02638 0.0
H1330 H 0.86366 0.23953 0.1102 0.0
H1331 H 0.8747 0.25004 0.22349 0.0
H1332 H 0.81185 0.19849 0.36595 0.0
H1333 H 0.7781 0.16845 0.28114 0.0
C1334 C 0.78955 0.17254 0.15335 0.0
C1335 C 0.79935 0.17735 0.08921 0.0
C1336 C 0.80711 0.19158 0.20269 0.0
C1337 C 0.82582 0.20235 0.07506 0.0
C1338 C 0.84303 0.22109 0.12311 0.0
C1339 C 0.85322 0.2328 0.23584 0.0
C1340 C 0.84559 0.22671 0.30063 0.0
C1341 C 0.83432 0.21555 0.18711 0.0
C1342 C 0.81795 0.20396 0.3162 0.0
C1343 C 0.79883 0.18656 0.26765 0.0
H1344 H 0.66753 0.791 0.27209 0.0
H1345 H 0.60367 0.79851 0.16234 0.0
H1346 H 0.59785 0.82574 0.25058 0.0
H1347 H 0.61435 0.85068 0.35715 0.0
H1348 H 0.68001 0.84261 0.45935 0.0
H1349 H 0.68211 0.81323 0.37581 0.0
C1350 C 0.65205 0.79831 0.2677 0.0
C1351 C 0.63628 0.79307 0.21091 0.0
C1352 C 0.64948 0.81436 0.31722 0.0
C1353 C 0.61605 0.80231 0.20594 0.0
C1354 C 0.613 0.81813 0.25608 0.0
C1355 C 0.6289 0.84229 0.36131 0.0
C1356 C 0.64658 0.8487 0.4162 0.0
C1357 C 0.63017 0.82493 0.31165 0.0
C1358 C 0.66552 0.83777 0.41965 0.0
C1359 C 0.66694 0.82089 0.37122 0.0
H1360 H 0.20133 0.83611 0.44636 0.0
H1361 H 0.1555 0.75197 0.35859 0.0
H1362 H 0.18039 0.7726 0.25697 0.0
H1363 H 0.21203 0.81579 0.18968 0.0
H1364 H 0.25356 0.89987 0.27751 0.0
H1365 H 0.23392 0.87816 0.38192 0.0
C1366 C 0.1969 0.82208 0.40535 0.0
C1367 C 0.17625 0.79241 0.41058 0.0
C1368 C 0.21062 0.83425 0.34654 0.0
C1369 C 0.17112 0.77482 0.35643 0.0
C1370 C 0.18531 0.78668 0.29802 0.0
C1371 C 0.21721 0.82917 0.2321 0.0
C1372 C 0.23459 0.85941 0.22613 0.0
C1373 C 0.2047 0.81651 0.29199 0.0
C1374 C 0.24054 0.87658 0.28109 0.0
C1375 C 0.22915 0.86416 0.34074 0.0
H1376 H 0.22059 0.41308 0.19915 0.0
H1377 H 0.13605 0.36924 0.28423 0.0
H1378 H 0.15706 0.37119 0.38931 0.0
H1379 H 0.19867 0.38102 0.45543 0.0
H1380 H 0.28342 0.42107 0.37117 0.0
H1381 H 0.26341 0.42521 0.26847 0.0
C1382 C 0.20694 0.40464 0.24113 0.0
C1383 C 0.17674 0.39152 0.23404 0.0
C1384 C 0.21924 0.40479 0.30165 0.0
C1385 C 0.1593 0.37986 0.28853 0.0
C1386 C 0.17132 0.38079 0.34865 0.0
C1387 C 0.21298 0.39098 0.41499 0.0
C1388 C 0.24265 0.40052 0.42159 0.0
C1389 C 0.20117 0.39255 0.35559 0.0
C1390 C 0.26057 0.41347 0.36807 0.0
C1391 C 0.24906 0.41572 0.309 0.0
H1392 H 0.27276 0.29914 0.16891 0.0
H1393 H 0.24685 0.30947 0.97868 0.0
H1394 H 0.28844 0.30962 0.93349 0.0
H1395 H 0.32977 0.30217 0.94558 0.0
H1396 H 0.34986 0.28211 0.13139 0.0
H1397 H 0.31324 0.29045 0.18065 0.0
C1398 C 0.27578 0.30107 0.11744 0.0
C1399 C 0.25627 0.30445 0.07795 0.0
C1400 C 0.29894 0.29939 0.09072 0.0
C1401 C 0.2615 0.30761 0.01132 0.0
C1402 C 0.28523 0.30732 0.98488 0.0
C1403 C 0.32612 0.2998 0.99675 0.0
C1404 C 0.34219 0.29145 0.03483 0.0
C1405 C 0.30377 0.30269 0.02388 0.0
C1406 C 0.33767 0.28866 0.10133 0.0
C1407 C 0.31665 0.29324 0.12932 0.0
H1408 H 0.71935 0.04832 0.1134 0.0
H1409 H 0.773 0.05057 0.95808 0.0
H1410 H 0.76415 1.00268 0.98646 0.0
H1411 H 0.74071 0.95973 0.05503 0.0
H1412 H 0.6843 0.9556 0.20714 0.0
H1413 H 0.69471 1.00431 0.18116 0.0
C1414 C 0.72915 0.03825 0.08628 0.0
C1415 C 0.74763 0.05328 0.03498 0.0
C1416 C 0.72333 1.01021 0.10227 0.0
C1417 C 0.75967 0.03986 0.99915 0.0
C1418 C 0.75431 1.01229 0.015 0.0
C1419 C 0.73035 0.96923 0.0821 0.0
C1420 C 0.71169 0.95373 0.13302 0.0
C1421 C 0.73612 0.9972 0.06642 0.0
C1422 C 0.69905 0.96695 0.1682 0.0
C1423 C 0.70485 0.99484 0.15314 0.0
H1424 H 0.98547 0.71274 0.94375 0.0
H1425 H 0.94833 0.69348 0.13232 0.0
H1426 H 0.99416 0.73106 0.17782 0.0
H1427 H 0.04408 0.76989 0.16326 0.0
H1428 H 0.07812 0.79434 0.97097 0.0
H1429 H 0.03423 0.75431 0.92771 0.0
C1430 C 0.98753 0.717 0.99462 0.0
C1431 C 0.96401 0.70037 0.03481 0.0
C1432 C 1.01327 0.73966 0.0197 0.0
C1433 C 0.96646 0.70597 0.10078 0.0
C1434 C 0.9925 0.72756 0.12661 0.0
C1435 C 0.04198 0.76702 0.11175 0.0
C1436 C 0.06506 0.78534 0.07107 0.0
C1437 C 1.01599 0.74473 0.08643 0.0
C1438 C 0.06151 0.78038 0.00437 0.0
C1439 C 0.03614 0.75759 0.97915 0.0
H1440 H 0.29138 0.25809 0.32455 0.0
H1441 H 0.30257 0.22971 0.51054 0.0
H1442 H 0.30428 0.27174 0.5605 0.0
H1443 H 0.2989 0.31446 0.55218 0.0
H1444 H 0.28598 0.34227 0.36804 0.0
H1445 H 0.28885 0.30276 0.31596 0.0
C1446 C 0.29429 0.26119 0.37598 0.0
C1447 C 0.29679 0.24073 0.41377 0.0
C1448 C 0.29523 0.28544 0.40446 0.0
C1449 C 0.30082 0.24521 0.48029 0.0
C1450 C 0.30174 0.26921 0.50893 0.0
C1451 C 0.29784 0.31248 0.50062 0.0
C1452 C 0.29294 0.33152 0.46384 0.0
C1453 C 0.29871 0.2893 0.4716 0.0
C1454 C 0.29018 0.328 0.39707 0.0
C1455 C 0.29166 0.30536 0.36745 0.0
H1456 H 0.71786 0.98983 0.54875 0.0
H1457 H 0.69126 0.9492 0.36383 0.0
H1458 H 0.72989 0.9924 0.31215 0.0
H1459 H 0.77349 0.03985 0.32062 0.0
H1460 H 0.80325 0.0791 0.50635 0.0
H1461 H 0.76091 0.03876 0.55664 0.0
C1462 C 0.72013 0.9909 0.49702 0.0
C1463 C 0.70146 0.96677 0.45972 0.0
C1464 C 0.74312 0.01546 0.468 0.0
C1465 C 0.7051 0.96782 0.39305 0.0
C1466 C 0.72729 0.99241 0.36367 0.0
C1467 C 0.77074 0.03971 0.37215 0.0
C1468 C 0.79179 0.0625 0.40959 0.0
C1469 C 0.74682 0.01608 0.40082 0.0
C1470 C 0.7874 0.06208 0.47615 0.0
C1471 C 0.76327 0.03886 0.50503 0.0
H1472 H 0.96011 0.73409 0.47169 0.0
H1473 H 0.98345 0.74679 0.27133 0.0
H1474 H 0.02943 0.75058 0.29666 0.0
H1475 H 0.0641 0.75143 0.37679 0.0
H1476 H 0.03809 0.73404 0.57423 0.0
H1477 H 0.99216 0.73018 0.549 0.0
C1478 C 0.97471 0.73695 0.43294 0.0
C1479 C 0.96783 0.74028 0.36939 0.0
C1480 C 1.00095 0.73823 0.44751 0.0
C1481 C 0.98797 0.7447 0.32087 0.0
C1482 C 1.01436 0.74662 0.3352 0.0
C1483 C 0.04816 0.74647 0.41396 0.0
C1484 C 0.05475 0.74344 0.47776 0.0
C1485 C 0.02123 0.74362 0.39849 0.0
C1486 C 0.03381 0.73672 0.52521 0.0
C1487 C 1.00742 0.73455 0.51064 0.0
H1488 H 0.74021 0.77061 1.00046 0.0
H1489 H 0.66546 0.70958 0.89408 0.0
H1490 H 0.6942 0.69231 0.83882 0.0
H1491 H 0.74051 0.69443 0.82195 0.0
H1492 H 0.81571 0.75651 0.9267 0.0
H1493 H 0.78694 0.77369 0.98145 0.0
C1494 C 0.73046 0.75397 0.96421 0.0
C1495 C 0.70094 0.74144 0.95079 0.0
C1496 C 0.74714 0.74425 0.93287 0.0
C1497 C 0.68814 0.71924 0.9054 0.0
C1498 C 0.70459 0.70951 0.87372 0.0
C1499 C 0.7507 0.71188 0.85636 0.0
C1500 C 0.78028 0.72412 0.87017 0.0
C1501 C 0.73409 0.72178 0.8873 0.0
C1502 C 0.79294 0.74639 0.91578 0.0
C1503 C 0.77656 0.75638 0.94677 0.0
H1504 H 0.32812 0.05687 0.84249 0.0
H1505 H 0.27913 0.06809 0.99284 0.0
H1506 H 0.2687 0.02258 0.04021 0.0
H1507 H 0.2722 0.97877 0.0384 0.0
H1508 H 0.31474 0.96358 0.88148 0.0
H1509 H 0.32846 1.0112 0.83625 0.0
C1510 C 0.31463 0.04928 0.88477 0.0
C1511 C 0.30503 0.06666 0.9142 0.0
C1512 C 0.30724 0.02211 0.91031 0.0
C1513 C 0.28791 0.05612 0.96984 0.0
C1514 C 0.28148 0.02973 0.99677 0.0
C1515 C 0.28404 0.98578 0.99374 0.0
C1516 C 0.29202 0.9678 0.96236 0.0
C1517 C 0.29092 1.01254 0.96735 0.0
C1518 C 0.30814 0.97719 0.9057 0.0
C1519 C 0.31592 1.0043 0.88002 0.0
H1520 H 0.04722 0.31405 0.06251 0.0
H1521 H 0.07866 0.34892 0.87467 0.0
H1522 H 0.03304 0.3121 0.82674 0.0
H1523 H 0.9845 0.27006 0.83904 0.0
H1524 H 0.95649 0.23118 0.02644 0.0
H1525 H 1.00017 0.26987 0.07383 0.0
C1526 C 0.04381 0.31379 0.01126 0.0
C1527 C 0.06577 0.33439 0.97208 0.0
C1528 C 0.01812 0.2919 0.98409 0.0
C1529 C 0.06169 0.33342 0.90554 0.0
C1530 C 0.03573 0.31234 0.87829 0.0
C1531 C 0.9879 0.26959 0.89012 0.0
C1532 C 0.96648 0.2476 0.92873 0.0
C1533 C 1.01381 0.29134 0.91714 0.0
C1534 C 0.97171 0.24808 0.99515 0.0
C1535 C 0.99697 0.27014 0.02255 0.0
H1536 H 0.70767 0.76697 0.5465 0.0
H1537 H 0.76068 0.7904 0.71608 0.0
H1538 H 0.7758 0.75562 0.68851 0.0
H1539 H 0.77317 0.71757 0.61679 0.0
H1540 H 0.71839 0.69291 0.45011 0.0
H1541 H 0.70459 0.72868 0.47598 0.0
C1542 C 0.72277 0.76467 0.57701 0.0
C1543 C 0.73314 0.78143 0.63306 0.0
C1544 C 0.73095 0.7442 0.56149 0.0
C1545 C 0.75229 0.77774 0.67274 0.0
C1546 C 0.76096 0.75785 0.65699 0.0
C1547 C 0.75852 0.72035 0.58585 0.0
C1548 C 0.74735 0.70301 0.53086 0.0
C1549 C 0.75034 0.74083 0.6016 0.0
C1550 C 0.72753 0.7061 0.49242 0.0
C1551 C 0.71965 0.72664 0.50712 0.0
H1552 H 0.24585 0.95475 0.51291 0.0
H1553 H 0.24314 0.98645 0.70246 0.0
H1554 H 0.28241 0.03331 0.67436 0.0
H1555 H 0.31842 0.06648 0.59638 0.0
H1556 H 0.32851 0.03225 0.41812 0.0
H1557 H 0.2863 0.98531 0.44238 0.0
C1558 C 0.25374 0.97132 0.54926 0.0
C1559 C 0.23963 0.9662 0.60927 0.0
C1560 C 0.27822 0.99826 0.53483 0.0
C1561 C 0.25144 0.98908 0.65433 0.0
C1562 C 0.27466 0.01625 0.63888 0.0
C1563 C 0.31145 0.04861 0.56324 0.0
C1564 C 0.32605 0.05293 0.50482 0.0
C1565 C 0.28811 0.0212 0.57917 0.0
C1566 C 0.31724 0.02953 0.46282 0.0
C1567 C 0.29314 1.00267 0.47682 0.0
H1568 H 0.99682 0.28442 0.45011 0.0
H1569 H 0.9617 0.28779 0.63307 0.0
H1570 H 1.00721 0.29831 0.68557 0.0
H1571 H 0.05558 0.30236 0.6785 0.0
H1572 H 0.08565 0.29237 0.49312 0.0
H1573 H 0.04338 0.28852 0.44249 0.0
C1574 C 0.99918 0.28779 0.50145 0.0
C1575 C 0.97604 0.28532 0.53768 0.0
C1576 C 0.02446 0.29238 0.53078 0.0
C1577 C 0.97941 0.28995 0.60411 0.0
C1578 C 1.00526 0.29556 0.63401 0.0
C1579 C 0.0529 0.29936 0.62706 0.0
C1580 C 0.07435 0.29824 0.58986 0.0
C1581 C 0.02771 0.2961 0.59781 0.0
C1582 C 0.07032 0.29437 0.52313 0.0
C1583 C 0.0459 0.29184 0.49392 0.0
loop_
_geom_bond_atom_site_label_1
_geom_bond_atom_site_label_2
_geom_bond_distance
_geom_bond_site_symmetry_2
_ccdc_geom_bond_type
Tb0 N29 2.617 . S
Tb0 N35 2.572 . S
Tb0 O44 2.465 . S
Tb0 O45 2.387 . S
Tb0 O47 2.428 . S
Tb0 O48 2.308 . S
Tb0 O52 2.349 . S
Tb0 O55 2.393 1_554 S
Tb0 C64 2.802 . S
C1 N2 1.379 . S
C1 C4 1.416 . S
C1 C8 1.424 . S
N2 C1 1.379 . S
N2 C5 1.334 . S
N2 Tb11 2.617 . S
C3 C5 1.390 . S
C3 C6 1.339 . S
C3 H23 0.930 . S
C4 C1 1.416 . S
C4 C6 1.416 . S
C4 C10 1.448 . S
C5 N2 1.334 . S
C5 C3 1.390 . S
C5 H16 0.930 . S
C6 C3 1.339 . S
C6 C4 1.416 . S
C6 H27 0.930 1_455 S
C7 C8 1.413 1_556 S
C7 C9 1.427 . S
C7 C13 1.416 . S
C8 C1 1.424 . S
C8 C7 1.413 1_554 S
C8 N12 1.361 . S
C9 C7 1.427 . S
C9 C10 1.328 1_556 S
C9 H24 0.929 . S
C10 C4 1.448 . S
C10 C9 1.328 1_554 S
C10 H25 0.946 . S
Tb11 N2 2.617 . S
Tb11 N12 2.572 . S
Tb11 O46 2.349 . S
Tb11 O49 2.393 . S
Tb11 O50 2.465 . S
Tb11 O51 2.387 . S
Tb11 O53 2.428 . S
Tb11 O54 2.308 . S
Tb11 C75 2.802 . S
N12 C8 1.361 . S
N12 Tb11 2.572 . S
N12 C14 1.340 1_554 S
C13 C7 1.416 . S
C13 C15 1.332 . S
C13 H21 0.931 . S
C14 N12 1.340 1_556 S
C14 C15 1.407 . S
C14 H20 0.930 . S
C15 C13 1.332 . S
C15 C14 1.407 . S
C15 H17 0.929 . S
H16 C5 0.930 . S
H17 C15 0.929 . S
H18 C33 0.930 . S
H19 C40 0.929 . S
H20 C14 0.930 . S
H21 C13 0.931 . S
H22 C36 0.930 . S
H23 C3 0.930 . S
H24 C9 0.929 . S
H25 C10 0.946 . S
H26 C31 0.930 . S
H27 C6 0.930 1_655 S
H28 C39 0.931 . S
N29 Tb0 2.617 . S
N29 C30 1.379 . S
N29 C33 1.334 1_554 S
C30 N29 1.379 . S
C30 C32 1.416 . S
C30 C38 1.424 . S
C31 H26 0.930 . S
C31 C33 1.390 . S
C31 C34 1.339 1_556 S
C32 C30 1.416 . S
C32 C34 1.416 . S
C32 C65 1.448 . S
C33 H18 0.930 . S
C33 N29 1.334 1_556 S
C33 C31 1.390 . S
C34 C31 1.339 1_554 S
C34 C32 1.416 . S
C34 H41 0.930 . S
N35 Tb0 2.572 . S
N35 C36 1.340 . S
N35 C38 1.361 . S
C36 H22 0.930 . S
C36 N35 1.340 . S
C36 C40 1.407 . S
C37 C38 1.413 . S
C37 C39 1.416 . S
C37 C66 1.427 . S
C38 C30 1.424 . S
C38 N35 1.361 . S
C38 C37 1.413 . S
C39 H28 0.931 . S
C39 C37 1.416 . S
C39 C40 1.332 . S
C40 H19 0.929 . S
C40 C36 1.407 . S
C40 C39 1.332 . S
H41 C34 0.930 . S
H42 C65 0.930 . S
H43 C66 0.929 . S
O44 Tb0 2.465 . S
O44 C64 1.264 . S
O45 Tb0 2.387 . S
O45 C56 1.264 . S
O46 Tb11 2.349 . S
O46 C56 1.243 . S
O47 Tb0 2.428 . S
O47 C64 1.256 . S
O48 Tb0 2.308 . S
O48 C63 1.266 . S
O49 Tb11 2.393 . S
O49 C63 1.248 . S
O50 Tb11 2.465 . S
O50 C75 1.264 . S
O51 Tb11 2.387 . S
O51 C67 1.264 . S
O52 Tb0 2.349 . S
O52 C67 1.243 . S
O53 Tb11 2.428 . S
O53 C75 1.256 . S
O54 Tb11 2.308 . S
O54 C74 1.266 1_554 S
O55 Tb0 2.393 1_556 S
O55 C74 1.248 . S
C56 O45 1.264 . S
C56 O46 1.243 . S
C57 C60 1.399 1_554 S
C57 C62 1.383 . S
C57 C64 1.496 . S
C58 C59 1.399 . S
C58 C62 1.389 . S
C59 C58 1.399 . S
C59 C61 1.380 1_554 S
C59 H76 0.928 1_554 S
C60 C57 1.399 1_556 S
C60 C61 1.392 . S
C60 H77 0.929 . S
C61 C59 1.380 1_556 S
C61 C60 1.392 . S
C61 H78 0.929 . S
C62 C57 1.383 . S
C62 C58 1.389 . S
C62 H79 0.931 . S
C63 O48 1.266 . S
C63 O49 1.248 . S
C64 Tb0 2.802 . S
C64 O44 1.264 . S
C64 O47 1.256 . S
C64 C57 1.496 . S
C65 C32 1.448 . S
C65 H42 0.930 . S
C65 C66 1.328 . S
C66 C37 1.427 . S
C66 H43 0.929 . S
C66 C65 1.328 . S
C67 O51 1.264 . S
C67 O52 1.243 . S
C68 C71 1.399 . S
C68 C72 1.383 . S
C68 C75 1.496 . S
C69 C70 1.399 . S
C69 C72 1.389 . S
C70 C69 1.399 . S
C70 C73 1.380 . S
C70 H80 0.929 . S
C71 C68 1.399 . S
C71 C73 1.392 . S
C71 H81 0.929 . S
C72 C68 1.383 . S
C72 C69 1.389 . S
C72 H82 0.931 . S
C73 C70 1.380 . S
C73 C71 1.392 . S
C73 H83 0.929 . S
C74 O54 1.266 1_556 S
C74 O55 1.248 . S
C75 Tb11 2.802 . S
C75 O50 1.264 . S
C75 O53 1.256 . S
C75 C68 1.496 . S
H76 C59 0.928 1_556 S
H77 C60 0.929 . S
H78 C61 0.929 . S
H79 C62 0.931 . S
H80 C70 0.929 . S
H81 C71 0.929 . S
H82 C72 0.931 . S
H83 C73 0.929 . S
Tb84 N113 2.617 . S
Tb84 N119 2.572 . S
Tb84 O128 2.465 . S
Tb84 O129 2.387 . S
Tb84 O131 2.428 . S
Tb84 O132 2.308 . S
Tb84 O136 2.349 . S
Tb84 O139 2.393 1_554 S
Tb84 C148 2.802 . S
C85 N86 1.379 . S
C85 C88 1.416 . S
C85 C92 1.424 . S
N86 C85 1.379 . S
N86 C89 1.334 . S
N86 Tb95 2.617 . S
C87 C89 1.390 . S
C87 C90 1.339 . S
C87 H107 0.930 . S
C88 C85 1.416 . S
C88 C90 1.416 . S
C88 C94 1.448 . S
C89 N86 1.334 . S
C89 C87 1.390 . S
C89 H100 0.930 . S
C90 C87 1.339 . S
C90 C88 1.416 . S
C90 H111 0.930 . S
C91 C92 1.413 1_556 S
C91 C93 1.427 . S
C91 C97 1.416 . S
C92 C85 1.424 . S
C92 C91 1.413 1_554 S
C92 N96 1.361 . S
C93 C91 1.427 . S
C93 C94 1.328 1_556 S
C93 H108 0.929 . S
C94 C88 1.448 . S
C94 C93 1.328 1_554 S
C94 H109 0.930 . S
Tb95 N86 2.617 . S
Tb95 N96 2.572 . S
Tb95 O130 2.349 . S
Tb95 O133 2.393 . S
Tb95 O134 2.465 . S
Tb95 O135 2.387 . S
Tb95 O137 2.428 . S
Tb95 O138 2.308 . S
Tb95 C159 2.802 . S
N96 C92 1.361 . S
N96 Tb95 2.572 . S
N96 C98 1.340 1_554 S
C97 C91 1.416 . S
C97 C99 1.332 . S
C97 H105 0.931 . S
C98 N96 1.340 1_556 S
C98 C99 1.407 . S
C98 H104 0.930 . S
C99 C97 1.332 . S
C99 C98 1.407 . S
C99 H101 0.929 . S
H100 C89 0.930 . S
H101 C99 0.929 . S
H102 C117 0.930 . S
H103 C124 0.929 . S
H104 C98 0.930 . S
H105 C97 0.931 . S
H106 C120 0.930 . S
H107 C87 0.930 . S
H108 C93 0.929 . S
H109 C94 0.930 . S
H110 C115 0.930 . S
H111 C90 0.930 . S
H112 C123 0.931 . S
N113 Tb84 2.617 . S
N113 C114 1.379 . S
N113 C117 1.334 1_554 S
C114 N113 1.379 . S
C114 C116 1.416 . S
C114 C122 1.424 . S
C115 H110 0.930 . S
C115 C117 1.390 . S
C115 C118 1.339 1_556 S
C116 C114 1.416 . S
C116 C118 1.416 . S
C116 C149 1.448 . S
C117 H102 0.930 . S
C117 N113 1.334 1_556 S
C117 C115 1.390 . S
C118 C115 1.339 1_554 S
C118 C116 1.416 . S
C118 H125 0.930 . S
N119 Tb84 2.572 . S
N119 C120 1.340 . S
N119 C122 1.361 . S
C120 H106 0.930 . S
C120 N119 1.340 . S
C120 C124 1.407 . S
C121 C122 1.413 . S
C121 C123 1.416 . S
C121 C150 1.427 . S
C122 C114 1.424 . S
C122 N119 1.361 . S
C122 C121 1.413 . S
C123 H112 0.931 . S
C123 C121 1.416 . S
C123 C124 1.332 . S
C124 H103 0.929 . S
C124 C120 1.407 . S
C124 C123 1.332 . S
H125 C118 0.930 . S
H126 C149 0.930 . S
H127 C150 0.929 . S
O128 Tb84 2.465 . S
O128 C148 1.264 . S
O129 Tb84 2.387 . S
O129 C140 1.264 . S
O130 Tb95 2.349 . S
O130 C140 1.243 . S
O131 Tb84 2.428 . S
O131 C148 1.256 . S
O132 Tb84 2.308 . S
O132 C147 1.266 . S
O133 Tb95 2.393 . S
O133 C147 1.248 . S
O134 Tb95 2.465 . S
O134 C159 1.264 . S
O135 Tb95 2.387 . S
O135 C151 1.264 . S
O136 Tb84 2.349 . S
O136 C151 1.243 . S
O137 Tb95 2.428 . S
O137 C159 1.256 . S
O138 Tb95 2.308 . S
O138 C158 1.266 1_554 S
O139 Tb84 2.393 1_556 S
O139 C158 1.248 . S
C140 O129 1.264 . S
C140 O130 1.243 . S
C141 C144 1.399 1_554 S
C141 C146 1.383 . S
C141 C148 1.496 . S
C142 C143 1.399 . S
C142 C146 1.389 . S
C143 C142 1.399 . S
C143 C145 1.380 1_554 S
C143 H160 0.927 1_554 S
C144 C141 1.399 1_556 S
C144 C145 1.392 . S
C144 H161 0.929 . S
C145 C143 1.380 1_556 S
C145 C144 1.392 . S
C145 H162 0.929 . S
C146 C141 1.383 . S
C146 C142 1.389 . S
C146 H163 0.931 . S
C147 O132 1.266 . S
C147 O133 1.248 . S
C148 Tb84 2.802 . S
C148 O128 1.264 . S
C148 O131 1.256 . S
C148 C141 1.496 . S
C149 C116 1.448 . S
C149 H126 0.930 . S
C149 C150 1.328 . S
C150 C121 1.427 . S
C150 H127 0.929 . S
C150 C149 1.328 . S
C151 O135 1.264 . S
C151 O136 1.243 . S
C152 C155 1.399 . S
C152 C156 1.383 . S
C152 C159 1.496 . S
C153 C154 1.399 . S
C153 C156 1.389 . S
C154 C153 1.399 . S
C154 C157 1.380 . S
C154 H164 0.929 . S
C155 C152 1.399 . S
C155 C157 1.392 . S
C155 H165 0.929 . S
C156 C152 1.383 . S
C156 C153 1.389 . S
C156 H166 0.931 . S
C157 C154 1.380 . S
C157 C155 1.392 . S
C157 H167 0.929 . S
C158 O138 1.266 1_556 S
C158 O139 1.248 . S
C159 Tb95 2.802 . S
C159 O134 1.264 . S
C159 O137 1.256 . S
C159 C152 1.496 . S
H160 C143 0.927 1_556 S
H161 C144 0.929 . S
H162 C145 0.929 . S
H163 C146 0.931 . S
H164 C154 0.929 . S
H165 C155 0.929 . S
H166 C156 0.931 . S
H167 C157 0.929 . S
Tb168 N197 2.617 . S
Tb168 N203 2.572 . S
Tb168 O212 2.465 . S
Tb168 O213 2.387 . S
Tb168 O215 2.428 . S
Tb168 O216 2.308 . S
Tb168 O220 2.349 . S
Tb168 O223 2.393 1_554 S
Tb168 C232 2.802 . S
C169 N170 1.379 . S
C169 C172 1.416 . S
C169 C176 1.424 . S
N170 C169 1.379 . S
N170 C173 1.334 . S
N170 Tb179 2.617 . S
C171 C173 1.390 . S
C171 C174 1.339 . S
C171 H191 0.930 . S
C172 C169 1.416 . S
C172 C174 1.416 . S
C172 C178 1.448 . S
C173 N170 1.334 . S
C173 C171 1.390 . S
C173 H184 0.930 . S
C174 C171 1.339 . S
C174 C172 1.416 . S
C174 H195 0.930 1_565 S
C175 C176 1.413 1_556 S
C175 C177 1.427 . S
C175 C181 1.416 . S
C176 C169 1.424 . S
C176 C175 1.413 1_554 S
C176 N180 1.361 . S
C177 C175 1.427 . S
C177 C178 1.328 1_556 S
C177 H192 0.929 . S
C178 C172 1.448 . S
C178 C177 1.328 1_554 S
C178 H193 0.961 . S
Tb179 N170 2.617 . S
Tb179 N180 2.572 . S
Tb179 O214 2.349 . S
Tb179 O217 2.393 . S
Tb179 O218 2.465 . S
Tb179 O219 2.387 . S
Tb179 O221 2.428 . S
Tb179 O222 2.308 . S
Tb179 C243 2.802 . S
N180 C176 1.361 . S
N180 Tb179 2.572 . S
N180 C182 1.340 1_554 S
C181 C175 1.416 . S
C181 C183 1.332 . S
C181 H189 0.931 . S
C182 N180 1.340 1_556 S
C182 C183 1.407 . S
C182 H188 0.930 . S
C183 C181 1.332 . S
C183 C182 1.407 . S
C183 H185 0.929 . S
H184 C173 0.930 . S
H185 C183 0.929 . S
H186 C201 0.930 . S
H187 C208 0.929 . S
H188 C182 0.930 . S
H189 C181 0.931 . S
H190 C204 0.930 . S
H191 C171 0.930 . S
H192 C177 0.929 . S
H193 C178 0.961 . S
H194 C199 0.930 . S
H195 C174 0.930 1_545 S
H196 C207 0.931 . S
N197 Tb168 2.617 . S
N197 C198 1.379 . S
N197 C201 1.334 1_554 S
C198 N197 1.379 . S
C198 C200 1.416 . S
C198 C206 1.424 . S
C199 H194 0.930 . S
C199 C201 1.390 . S
C199 C202 1.339 1_556 S
C200 C198 1.416 . S
C200 C202 1.416 . S
C200 C233 1.448 . S
C201 H186 0.930 . S
C201 N197 1.334 1_556 S
C201 C199 1.390 . S
C202 C199 1.339 1_554 S
C202 C200 1.416 . S
C202 H209 0.930 . S
N203 Tb168 2.572 . S
N203 C204 1.340 . S
N203 C206 1.361 . S
C204 H190 0.930 . S
C204 N203 1.340 . S
C204 C208 1.407 . S
C205 C206 1.413 . S
C205 C207 1.416 . S
C205 C234 1.427 . S
C206 C198 1.424 . S
C206 N203 1.361 . S
C206 C205 1.413 . S
C207 H196 0.931 . S
C207 C205 1.416 . S
C207 C208 1.332 . S
C208 H187 0.929 . S
C208 C204 1.407 . S
C208 C207 1.332 . S
H209 C202 0.930 . S
H210 C233 0.930 . S
H211 C234 0.929 . S
O212 Tb168 2.465 . S
O212 C232 1.264 . S
O213 Tb168 2.387 . S
O213 C224 1.264 . S
O214 Tb179 2.349 . S
O214 C224 1.243 . S
O215 Tb168 2.428 . S
O215 C232 1.256 . S
O216 Tb168 2.308 . S
O216 C231 1.266 . S
O217 Tb179 2.393 . S
O217 C231 1.248 . S
O218 Tb179 2.465 . S
O218 C243 1.264 . S
O219 Tb179 2.387 . S
O219 C235 1.264 . S
O220 Tb168 2.349 . S
O220 C235 1.243 . S
O221 Tb179 2.428 . S
O221 C243 1.256 . S
O222 Tb179 2.308 . S
O222 C242 1.266 1_554 S
O223 Tb168 2.393 1_556 S
O223 C242 1.248 . S
C224 O213 1.264 . S
C224 O214 1.243 . S
C225 C228 1.399 1_554 S
C225 C230 1.383 . S
C225 C232 1.496 . S
C226 C227 1.399 . S
C226 C230 1.389 . S
C227 C226 1.399 . S
C227 C229 1.380 1_554 S
C227 H244 0.927 1_554 S
C228 C225 1.399 1_556 S
C228 C229 1.392 . S
C228 H245 0.929 . S
C229 C227 1.380 1_556 S
C229 C228 1.392 . S
C229 H246 0.929 . S
C230 C225 1.383 . S
C230 C226 1.389 . S
C230 H247 0.931 . S
C231 O216 1.266 . S
C231 O217 1.248 . S
C232 Tb168 2.802 . S
C232 O212 1.264 . S
C232 O215 1.256 . S
C232 C225 1.496 . S
C233 C200 1.448 . S
C233 H210 0.930 . S
C233 C234 1.328 . S
C234 C205 1.427 . S
C234 H211 0.929 . S
C234 C233 1.328 . S
C235 O219 1.264 . S
C235 O220 1.243 . S
C236 C239 1.399 . S
C236 C240 1.383 . S
C236 C243 1.496 . S
C237 C238 1.399 . S
C237 C240 1.389 . S
C238 C237 1.399 . S
C238 C241 1.380 . S
C238 H248 0.929 . S
C239 C236 1.399 . S
C239 C241 1.392 . S
C239 H249 0.929 . S
C240 C236 1.383 . S
C240 C237 1.389 . S
C240 H250 0.931 . S
C241 C238 1.380 . S
C241 C239 1.392 . S
C241 H251 0.929 . S
C242 O222 1.266 1_556 S
C242 O223 1.248 . S
C243 Tb179 2.802 . S
C243 O218 1.264 . S
C243 O221 1.256 . S
C243 C236 1.496 . S
H244 C227 0.927 1_556 S
H245 C228 0.929 . S
H246 C229 0.929 . S
H247 C230 0.931 . S
H248 C238 0.929 . S
H249 C239 0.929 . S
H250 C240 0.931 . S
H251 C241 0.929 . S
Tb252 N281 2.617 . S
Tb252 N287 2.572 . S
Tb252 O296 2.465 . S
Tb252 O297 2.387 . S
Tb252 O299 2.428 . S
Tb252 O300 2.308 . S
Tb252 O304 2.349 . S
Tb252 O307 2.393 . S
Tb252 C316 2.802 . S
C253 N254 1.379 . S
C253 C256 1.416 . S
C253 C260 1.424 . S
N254 C253 1.379 . S
N254 C257 1.334 . S
N254 Tb263 2.617 . S
C255 C257 1.390 . S
C255 C258 1.339 . S
C255 H275 0.930 . S
C256 C253 1.416 . S
C256 C258 1.416 . S
C256 C262 1.448 . S
C257 N254 1.334 . S
C257 C255 1.390 . S
C257 H268 0.930 . S
C258 C255 1.339 . S
C258 C256 1.416 . S
C258 H279 0.930 1_545 S
C259 C260 1.413 . S
C259 C261 1.427 . S
C259 C265 1.416 . S
C260 C253 1.424 . S
C260 C259 1.413 . S
C260 N264 1.361 . S
C261 C259 1.427 . S
C261 C262 1.328 . S
C261 H276 0.929 . S
C262 C256 1.448 . S
C262 C261 1.328 . S
C262 H277 0.946 . S
Tb263 N254 2.617 . S
Tb263 N264 2.572 . S
Tb263 O298 2.349 . S
Tb263 O301 2.393 . S
Tb263 O302 2.465 . S
Tb263 O303 2.387 . S
Tb263 O305 2.428 . S
Tb263 O306 2.308 . S
Tb263 C327 2.802 . S
N264 C260 1.361 . S
N264 Tb263 2.572 . S
N264 C266 1.340 . S
C265 C259 1.416 . S
C265 C267 1.332 . S
C265 H273 0.931 . S
C266 N264 1.340 . S
C266 C267 1.407 . S
C266 H272 0.930 . S
C267 C265 1.332 . S
C267 C266 1.407 . S
C267 H269 0.929 . S
H268 C257 0.930 . S
H269 C267 0.929 . S
H270 C285 0.930 . S
H271 C292 0.929 . S
H272 C266 0.930 . S
H273 C265 0.931 . S
H274 C288 0.930 . S
H275 C255 0.930 . S
H276 C261 0.929 . S
H277 C262 0.946 . S
H278 C283 0.930 . S
H279 C258 0.930 1_565 S
H280 C291 0.931 . S
N281 Tb252 2.617 . S
N281 C282 1.379 . S
N281 C285 1.334 . S
C282 N281 1.379 . S
C282 C284 1.416 . S
C282 C290 1.424 . S
C283 H278 0.930 . S
C283 C285 1.390 . S
C283 C286 1.339 . S
C284 C282 1.416 . S
C284 C286 1.416 . S
C284 C317 1.448 . S
C285 H270 0.930 . S
C285 N281 1.334 . S
C285 C283 1.390 . S
C286 C283 1.339 . S
C286 C284 1.416 . S
C286 H293 0.930 . S
N287 Tb252 2.572 . S
N287 C288 1.340 . S
N287 C290 1.361 . S
C288 H274 0.930 . S
C288 N287 1.340 . S
C288 C292 1.407 . S
C289 C290 1.413 . S
C289 C291 1.416 . S
C289 C318 1.427 . S
C290 C282 1.424 . S
C290 N287 1.361 . S
C290 C289 1.413 . S
C291 H280 0.931 . S
C291 C289 1.416 . S
C291 C292 1.332 . S
C292 H271 0.929 . S
C292 C288 1.407 . S
C292 C291 1.332 . S
H293 C286 0.930 . S
H294 C317 0.930 . S
H295 C318 0.929 . S
O296 Tb252 2.465 . S
O296 C316 1.264 . S
O297 Tb252 2.387 . S
O297 C308 1.264 . S
O298 Tb263 2.349 . S
O298 C308 1.243 . S
O299 Tb252 2.428 . S
O299 C316 1.256 . S
O300 Tb252 2.308 . S
O300 C315 1.266 . S
O301 Tb263 2.393 . S
O301 C315 1.248 . S
O302 Tb263 2.465 . S
O302 C327 1.264 . S
O303 Tb263 2.387 . S
O303 C319 1.264 . S
O304 Tb252 2.349 . S
O304 C319 1.243 . S
O305 Tb263 2.428 . S
O305 C327 1.256 . S
O306 Tb263 2.308 . S
O306 C326 1.266 . S
O307 Tb252 2.393 . S
O307 C326 1.248 . S
C308 O297 1.264 . S
C308 O298 1.243 . S
C309 C312 1.399 . S
C309 C314 1.383 . S
C309 C316 1.496 . S
C310 C311 1.399 . S
C310 C314 1.389 . S
C311 C310 1.399 . S
C311 C313 1.380 . S
C311 H328 0.929 . S
C312 C309 1.399 . S
C312 C313 1.392 . S
C312 H329 0.929 . S
C313 C311 1.380 . S
C313 C312 1.392 . S
C313 H330 0.929 . S
C314 C309 1.383 . S
C314 C310 1.389 . S
C314 H331 0.931 . S
C315 O300 1.266 . S
C315 O301 1.248 . S
C316 Tb252 2.802 . S
C316 O296 1.264 . S
C316 O299 1.256 . S
C316 C309 1.496 . S
C317 C284 1.448 . S
C317 H294 0.930 . S
C317 C318 1.328 . S
C318 C289 1.427 . S
C318 H295 0.929 . S
C318 C317 1.328 . S
C319 O303 1.264 . S
C319 O304 1.243 . S
C320 C323 1.399 . S
C320 C324 1.383 . S
C320 C327 1.496 . S
C321 C322 1.399 . S
C321 C324 1.389 . S
C322 C321 1.399 . S
C322 C325 1.380 . S
C322 H332 0.929 . S
C323 C320 1.399 . S
C323 C325 1.392 . S
C323 H333 0.929 . S
C324 C320 1.383 . S
C324 C321 1.389 . S
C324 H334 0.931 . S
C325 C322 1.380 . S
C325 C323 1.392 . S
C325 H335 0.929 . S
C326 O306 1.266 . S
C326 O307 1.248 . S
C327 Tb263 2.802 . S
C327 O302 1.264 . S
C327 O305 1.256 . S
C327 C320 1.496 . S
H328 C311 0.929 . S
H329 C312 0.929 . S
H330 C313 0.929 . S
H331 C314 0.931 . S
H332 C322 0.929 . S
H333 C323 0.929 . S
H334 C324 0.931 . S
H335 C325 0.929 . S
Tb336 N365 2.617 . S
Tb336 N371 2.572 . S
Tb336 O380 2.465 . S
Tb336 O381 2.387 . S
Tb336 O383 2.428 . S
Tb336 O384 2.308 . S
Tb336 O388 2.349 . S
Tb336 O391 2.393 . S
Tb336 C400 2.802 . S
C337 N338 1.379 . S
C337 C340 1.416 . S
C337 C344 1.424 . S
N338 C337 1.379 . S
N338 C341 1.334 . S
N338 Tb347 2.617 . S
C339 C341 1.390 . S
C339 C342 1.339 . S
C339 H359 0.930 . S
C340 C337 1.416 . S
C340 C342 1.416 . S
C340 C346 1.448 . S
C341 N338 1.334 . S
C341 C339 1.390 . S
C341 H352 0.930 . S
C342 C339 1.339 . S
C342 C340 1.416 . S
C342 H363 0.930 1_655 S
C343 C344 1.413 . S
C343 C345 1.427 . S
C343 C349 1.416 . S
C344 C337 1.424 . S
C344 C343 1.413 . S
C344 N348 1.361 . S
C345 C343 1.427 . S
C345 C346 1.328 . S
C345 H360 0.929 . S
C346 C340 1.448 . S
C346 C345 1.328 . S
C346 H361 0.962 . S
Tb347 N338 2.617 . S
Tb347 N348 2.572 . S
Tb347 O382 2.349 . S
Tb347 O385 2.393 . S
Tb347 O386 2.465 . S
Tb347 O387 2.387 . S
Tb347 O389 2.428 . S
Tb347 O390 2.308 . S
Tb347 C411 2.802 . S
N348 C344 1.361 . S
N348 Tb347 2.572 . S
N348 C350 1.340 . S
C349 C343 1.416 . S
C349 C351 1.332 . S
C349 H357 0.931 . S
C350 N348 1.340 . S
C350 C351 1.407 . S
C350 H356 0.930 . S
C351 C349 1.332 . S
C351 C350 1.407 . S
C351 H353 0.929 . S
H352 C341 0.930 . S
H353 C351 0.929 . S
H354 C369 0.930 . S
H355 C376 0.929 . S
H356 C350 0.930 . S
H357 C349 0.931 . S
H358 C372 0.930 . S
H359 C339 0.930 . S
H360 C345 0.929 . S
H361 C346 0.962 . S
H362 C367 0.930 . S
H363 C342 0.930 1_455 S
H364 C375 0.931 . S
N365 Tb336 2.617 . S
N365 C366 1.379 . S
N365 C369 1.334 . S
C366 N365 1.379 . S
C366 C368 1.416 . S
C366 C374 1.424 . S
C367 H362 0.930 . S
C367 C369 1.390 . S
C367 C370 1.339 . S
C368 C366 1.416 . S
C368 C370 1.416 . S
C368 C401 1.448 . S
C369 H354 0.930 . S
C369 N365 1.334 . S
C369 C367 1.390 . S
C370 C367 1.339 . S
C370 C368 1.416 . S
C370 H377 0.930 . S
N371 Tb336 2.572 . S
N371 C372 1.340 . S
N371 C374 1.361 . S
C372 H358 0.930 . S
C372 N371 1.340 . S
C372 C376 1.407 . S
C373 C374 1.413 . S
C373 C375 1.416 . S
C373 C402 1.427 . S
C374 C366 1.424 . S
C374 N371 1.361 . S
C374 C373 1.413 . S
C375 H364 0.931 . S
C375 C373 1.416 . S
C375 C376 1.332 . S
C376 H355 0.929 . S
C376 C372 1.407 . S
C376 C375 1.332 . S
H377 C370 0.930 . S
H378 C401 0.930 . S
H379 C402 0.929 . S
O380 Tb336 2.465 . S
O380 C400 1.264 . S
O381 Tb336 2.387 . S
O381 C392 1.264 . S
O382 Tb347 2.349 . S
O382 C392 1.243 . S
O383 Tb336 2.428 . S
O383 C400 1.256 . S
O384 Tb336 2.308 . S
O384 C399 1.266 . S
O385 Tb347 2.393 . S
O385 C399 1.248 . S
O386 Tb347 2.465 . S
O386 C411 1.264 . S
O387 Tb347 2.387 . S
O387 C403 1.264 . S
O388 Tb336 2.349 . S
O388 C403 1.243 . S
O389 Tb347 2.428 . S
O389 C411 1.256 . S
O390 Tb347 2.308 . S
O390 C410 1.266 . S
O391 Tb336 2.393 . S
O391 C410 1.248 . S
C392 O381 1.264 . S
C392 O382 1.243 . S
C393 C396 1.399 . S
C393 C398 1.383 . S
C393 C400 1.496 . S
C394 C395 1.399 . S
C394 C398 1.389 . S
C395 C394 1.399 . S
C395 C397 1.380 . S
C395 H412 0.929 . S
C396 C393 1.399 . S
C396 C397 1.392 . S
C396 H413 0.929 . S
C397 C395 1.380 . S
C397 C396 1.392 . S
C397 H414 0.929 . S
C398 C393 1.383 . S
C398 C394 1.389 . S
C398 H415 0.931 . S
C399 O384 1.266 . S
C399 O385 1.248 . S
C400 Tb336 2.802 . S
C400 O380 1.264 . S
C400 O383 1.256 . S
C400 C393 1.496 . S
C401 C368 1.448 . S
C401 H378 0.930 . S
C401 C402 1.328 . S
C402 C373 1.427 . S
C402 H379 0.929 . S
C402 C401 1.328 . S
C403 O387 1.264 . S
C403 O388 1.243 . S
C404 C407 1.399 . S
C404 C408 1.383 . S
C404 C411 1.496 . S
C405 C406 1.399 . S
C405 C408 1.389 . S
C406 C405 1.399 . S
C406 C409 1.380 . S
C406 H416 0.929 . S
C407 C404 1.399 . S
C407 C409 1.392 . S
C407 H417 0.929 . S
C408 C404 1.383 . S
C408 C405 1.389 . S
C408 H418 0.931 . S
C409 C406 1.380 . S
C409 C407 1.392 . S
C409 H419 0.929 . S
C410 O390 1.266 . S
C410 O391 1.248 . S
C411 Tb347 2.802 . S
C411 O386 1.264 . S
C411 O389 1.256 . S
C411 C404 1.496 . S
H412 C395 0.929 . S
H413 C396 0.929 . S
H414 C397 0.929 . S
H415 C398 0.931 . S
H416 C406 0.929 . S
H417 C407 0.929 . S
H418 C408 0.931 . S
H419 C409 0.929 . S
Tb420 N449 2.617 . S
Tb420 N455 2.572 . S
Tb420 O464 2.465 . S
Tb420 O465 2.387 . S
Tb420 O467 2.428 . S
Tb420 O468 2.308 . S
Tb420 O472 2.349 . S
Tb420 O475 2.393 . S
Tb420 C484 2.802 . S
C421 N422 1.379 . S
C421 C424 1.416 . S
C421 C428 1.424 . S
N422 C421 1.379 . S
N422 C425 1.334 . S
N422 Tb431 2.617 . S
C423 C425 1.390 . S
C423 C426 1.339 . S
C423 H443 0.930 . S
C424 C421 1.416 . S
C424 C426 1.416 . S
C424 C430 1.448 . S
C425 N422 1.334 . S
C425 C423 1.390 . S
C425 H436 0.930 . S
C426 C423 1.339 . S
C426 C424 1.416 . S
C426 H447 0.930 . S
C427 C428 1.413 . S
C427 C429 1.427 . S
C427 C433 1.416 . S
C428 C421 1.424 . S
C428 C427 1.413 . S
C428 N432 1.361 . S
C429 C427 1.427 . S
C429 C430 1.328 . S
C429 H444 0.929 . S
C430 C424 1.448 . S
C430 C429 1.328 . S
C430 H445 0.930 . S
Tb431 N422 2.617 . S
Tb431 N432 2.572 . S
Tb431 O466 2.349 . S
Tb431 O469 2.393 . S
Tb431 O470 2.465 . S
Tb431 O471 2.387 . S
Tb431 O473 2.428 . S
Tb431 O474 2.308 . S
Tb431 C495 2.802 . S
N432 C428 1.361 . S
N432 Tb431 2.572 . S
N432 C434 1.340 . S
C433 C427 1.416 . S
C433 C435 1.332 . S
C433 H441 0.931 . S
C434 N432 1.340 . S
C434 C435 1.407 . S
C434 H440 0.930 . S
C435 C433 1.332 . S
C435 C434 1.407 . S
C435 H437 0.929 . S
H436 C425 0.930 . S
H437 C435 0.929 . S
H438 C453 0.930 . S
H439 C460 0.929 . S
H440 C434 0.930 . S
H441 C433 0.931 . S
H442 C456 0.930 . S
H443 C423 0.930 . S
H444 C429 0.929 . S
H445 C430 0.930 . S
H446 C451 0.930 . S
H447 C426 0.930 . S
H448 C459 0.931 . S
N449 Tb420 2.617 . S
N449 C450 1.379 . S
N449 C453 1.334 . S
C450 N449 1.379 . S
C450 C452 1.416 . S
C450 C458 1.424 . S
C451 H446 0.930 . S
C451 C453 1.390 . S
C451 C454 1.339 . S
C452 C450 1.416 . S
C452 C454 1.416 . S
C452 C485 1.448 . S
C453 H438 0.930 . S
C453 N449 1.334 . S
C453 C451 1.390 . S
C454 C451 1.339 . S
C454 C452 1.416 . S
C454 H461 0.930 . S
N455 Tb420 2.572 . S
N455 C456 1.340 . S
N455 C458 1.361 . S
C456 H442 0.930 . S
C456 N455 1.340 . S
C456 C460 1.407 . S
C457 C458 1.413 . S
C457 C459 1.416 . S
C457 C486 1.427 . S
C458 C450 1.424 . S
C458 N455 1.361 . S
C458 C457 1.413 . S
C459 H448 0.931 . S
C459 C457 1.416 . S
C459 C460 1.332 . S
C460 H439 0.929 . S
C460 C456 1.407 . S
C460 C459 1.332 . S
H461 C454 0.930 . S
H462 C485 0.930 . S
H463 C486 0.929 . S
O464 Tb420 2.465 . S
O464 C484 1.264 . S
O465 Tb420 2.387 . S
O465 C476 1.264 . S
O466 Tb431 2.349 . S
O466 C476 1.243 . S
O467 Tb420 2.428 . S
O467 C484 1.256 . S
O468 Tb420 2.308 . S
O468 C483 1.266 . S
O469 Tb431 2.393 . S
O469 C483 1.248 . S
O470 Tb431 2.465 . S
O470 C495 1.264 . S
O471 Tb431 2.387 . S
O471 C487 1.264 . S
O472 Tb420 2.349 . S
O472 C487 1.243 . S
O473 Tb431 2.428 . S
O473 C495 1.256 . S
O474 Tb431 2.308 . S
O474 C494 1.266 . S
O475 Tb420 2.393 . S
O475 C494 1.248 . S
C476 O465 1.264 . S
C476 O466 1.243 . S
C477 C480 1.399 . S
C477 C482 1.383 . S
C477 C484 1.496 . S
C478 C479 1.399 . S
C478 C482 1.389 . S
C479 C478 1.399 . S
C479 C481 1.380 . S
C479 H496 0.929 . S
C480 C477 1.399 . S
C480 C481 1.392 . S
C480 H497 0.929 . S
C481 C479 1.380 . S
C481 C480 1.392 . S
C481 H498 0.929 . S
C482 C477 1.383 . S
C482 C478 1.389 . S
C482 H499 0.931 . S
C483 O468 1.266 . S
C483 O469 1.248 . S
C484 Tb420 2.802 . S
C484 O464 1.264 . S
C484 O467 1.256 . S
C484 C477 1.496 . S
C485 C452 1.448 . S
C485 H462 0.930 . S
C485 C486 1.328 . S
C486 C457 1.427 . S
C486 H463 0.929 . S
C486 C485 1.328 . S
C487 O471 1.264 . S
C487 O472 1.243 . S
C488 C491 1.399 . S
C488 C492 1.383 . S
C488 C495 1.496 . S
C489 C490 1.399 . S
C489 C492 1.389 . S
C490 C489 1.399 . S
C490 C493 1.380 . S
C490 H500 0.929 . S
C491 C488 1.399 . S
C491 C493 1.392 . S
C491 H501 0.929 . S
C492 C488 1.383 . S
C492 C489 1.389 . S
C492 H502 0.931 . S
C493 C490 1.380 . S
C493 C491 1.392 . S
C493 H503 0.929 . S
C494 O474 1.266 . S
C494 O475 1.248 . S
C495 Tb431 2.802 . S
C495 O470 1.264 . S
C495 O473 1.256 . S
C495 C488 1.496 . S
H496 C479 0.929 . S
H497 C480 0.929 . S
H498 C481 0.929 . S
H499 C482 0.931 . S
H500 C490 0.929 . S
H501 C491 0.929 . S
H502 C492 0.931 . S
H503 C493 0.929 . S
Tb504 N533 2.617 . S
Tb504 N539 2.572 . S
Tb504 O548 2.465 . S
Tb504 O549 2.387 . S
Tb504 O551 2.428 . S
Tb504 O552 2.308 . S
Tb504 O556 2.349 . S
Tb504 O559 2.393 . S
Tb504 C568 2.802 . S
C505 N506 1.379 . S
C505 C508 1.416 . S
C505 C512 1.424 . S
N506 C505 1.379 . S
N506 C509 1.334 1_556 S
N506 Tb515 2.617 . S
C507 C509 1.390 . S
C507 C510 1.339 1_554 S
C507 H527 0.930 . S
C508 C505 1.416 . S
C508 C510 1.416 . S
C508 C514 1.448 . S
C509 N506 1.334 1_554 S
C509 C507 1.390 . S
C509 H520 0.930 . S
C510 C507 1.339 1_556 S
C510 C508 1.416 . S
C510 H531 0.930 . S
C511 C512 1.413 . S
C511 C513 1.427 . S
C511 C517 1.416 . S
C512 C505 1.424 . S
C512 C511 1.413 . S
C512 N516 1.361 . S
C513 C511 1.427 . S
C513 C514 1.328 . S
C513 H528 0.929 . S
C514 C508 1.448 . S
C514 C513 1.328 . S
C514 H529 0.930 . S
Tb515 N506 2.617 . S
Tb515 N516 2.572 . S
Tb515 O550 2.349 . S
Tb515 O553 2.393 1_556 S
Tb515 O554 2.465 . S
Tb515 O555 2.387 . S
Tb515 O557 2.428 . S
Tb515 O558 2.308 . S
Tb515 C579 2.802 . S
N516 C512 1.361 . S
N516 Tb515 2.572 . S
N516 C518 1.340 . S
C517 C511 1.416 . S
C517 C519 1.332 . S
C517 H525 0.931 . S
C518 N516 1.340 . S
C518 C519 1.407 . S
C518 H524 0.930 . S
C519 C517 1.332 . S
C519 C518 1.407 . S
C519 H521 0.929 . S
H520 C509 0.930 . S
H521 C519 0.929 . S
H522 C537 0.930 . S
H523 C544 0.929 . S
H524 C518 0.930 . S
H525 C517 0.931 . S
H526 C540 0.930 . S
H527 C507 0.930 . S
H528 C513 0.929 . S
H529 C514 0.930 . S
H530 C535 0.930 . S
H531 C510 0.930 . S
H532 C543 0.931 . S
N533 Tb504 2.617 . S
N533 C534 1.379 . S
N533 C537 1.334 . S
C534 N533 1.379 . S
C534 C536 1.416 . S
C534 C542 1.424 . S
C535 H530 0.930 . S
C535 C537 1.390 . S
C535 C538 1.339 . S
C536 C534 1.416 . S
C536 C538 1.416 . S
C536 C569 1.448 . S
C537 H522 0.930 . S
C537 N533 1.334 . S
C537 C535 1.390 . S
C538 C535 1.339 . S
C538 C536 1.416 . S
C538 H545 0.930 1_655 S
N539 Tb504 2.572 . S
N539 C540 1.340 1_556 S
N539 C542 1.361 . S
C540 H526 0.930 . S
C540 N539 1.340 1_554 S
C540 C544 1.407 . S
C541 C542 1.413 1_554 S
C541 C543 1.416 . S
C541 C570 1.427 . S
C542 C534 1.424 . S
C542 N539 1.361 . S
C542 C541 1.413 1_556 S
C543 H532 0.931 . S
C543 C541 1.416 . S
C543 C544 1.332 . S
C544 H523 0.929 . S
C544 C540 1.407 . S
C544 C543 1.332 . S
H545 C538 0.930 1_455 S
H546 C569 0.946 . S
H547 C570 0.929 . S
O548 Tb504 2.465 . S
O548 C568 1.264 . S
O549 Tb504 2.387 . S
O549 C560 1.264 . S
O550 Tb515 2.349 . S
O550 C560 1.243 . S
O551 Tb504 2.428 . S
O551 C568 1.256 . S
O552 Tb504 2.308 . S
O552 C567 1.266 1_556 S
O553 Tb515 2.393 1_554 S
O553 C567 1.248 . S
O554 Tb515 2.465 . S
O554 C579 1.264 . S
O555 Tb515 2.387 . S
O555 C571 1.264 . S
O556 Tb504 2.349 . S
O556 C571 1.243 . S
O557 Tb515 2.428 . S
O557 C579 1.256 . S
O558 Tb515 2.308 . S
O558 C578 1.266 . S
O559 Tb504 2.393 . S
O559 C578 1.248 . S
C560 O549 1.264 . S
C560 O550 1.243 . S
C561 C564 1.399 . S
C561 C566 1.383 . S
C561 C568 1.496 . S
C562 C563 1.399 . S
C562 C566 1.389 . S
C563 C562 1.399 . S
C563 C565 1.380 . S
C563 H580 0.929 . S
C564 C561 1.399 . S
C564 C565 1.392 . S
C564 H581 0.929 . S
C565 C563 1.380 . S
C565 C564 1.392 . S
C565 H582 0.929 . S
C566 C561 1.383 . S
C566 C562 1.389 . S
C566 H583 0.931 . S
C567 O552 1.266 1_554 S
C567 O553 1.248 . S
C568 Tb504 2.802 . S
C568 O548 1.264 . S
C568 O551 1.256 . S
C568 C561 1.496 . S
C569 C536 1.448 . S
C569 H546 0.946 . S
C569 C570 1.328 1_556 S
C570 C541 1.427 . S
C570 H547 0.929 . S
C570 C569 1.328 1_554 S
C571 O555 1.264 . S
C571 O556 1.243 . S
C572 C575 1.399 1_556 S
C572 C576 1.383 . S
C572 C579 1.496 . S
C573 C574 1.399 . S
C573 C576 1.389 . S
C574 C573 1.399 . S
C574 C577 1.380 1_556 S
C574 H584 0.928 1_556 S
C575 C572 1.399 1_554 S
C575 C577 1.392 . S
C575 H585 0.929 . S
C576 C572 1.383 . S
C576 C573 1.389 . S
C576 H586 0.931 . S
C577 C574 1.380 1_554 S
C577 C575 1.392 . S
C577 H587 0.929 . S
C578 O558 1.266 . S
C578 O559 1.248 . S
C579 Tb515 2.802 . S
C579 O554 1.264 . S
C579 O557 1.256 . S
C579 C572 1.496 . S
H580 C563 0.929 . S
H581 C564 0.929 . S
H582 C565 0.929 . S
H583 C566 0.931 . S
H584 C574 0.928 1_554 S
H585 C575 0.929 . S
H586 C576 0.931 . S
H587 C577 0.929 . S
Tb588 N617 2.617 . S
Tb588 N623 2.572 . S
Tb588 O632 2.465 . S
Tb588 O633 2.387 . S
Tb588 O635 2.428 . S
Tb588 O636 2.308 . S
Tb588 O640 2.349 . S
Tb588 O643 2.393 . S
Tb588 C652 2.802 . S
C589 N590 1.379 . S
C589 C592 1.416 . S
C589 C596 1.424 . S
N590 C589 1.379 . S
N590 C593 1.334 1_556 S
N590 Tb599 2.617 . S
C591 C593 1.390 . S
C591 C594 1.339 1_554 S
C591 H611 0.930 . S
C592 C589 1.416 . S
C592 C594 1.416 . S
C592 C598 1.448 . S
C593 N590 1.334 1_554 S
C593 C591 1.390 . S
C593 H604 0.930 . S
C594 C591 1.339 1_556 S
C594 C592 1.416 . S
C594 H615 0.930 . S
C595 C596 1.413 . S
C595 C597 1.427 . S
C595 C601 1.416 . S
C596 C589 1.424 . S
C596 C595 1.413 . S
C596 N600 1.361 . S
C597 C595 1.427 . S
C597 C598 1.328 . S
C597 H612 0.929 . S
C598 C592 1.448 . S
C598 C597 1.328 . S
C598 H613 0.930 . S
Tb599 N590 2.617 . S
Tb599 N600 2.572 . S
Tb599 O634 2.349 . S
Tb599 O637 2.393 1_556 S
Tb599 O638 2.465 . S
Tb599 O639 2.387 . S
Tb599 O641 2.428 . S
Tb599 O642 2.308 . S
Tb599 C663 2.802 . S
N600 C596 1.361 . S
N600 Tb599 2.572 . S
N600 C602 1.340 . S
C601 C595 1.416 . S
C601 C603 1.332 . S
C601 H609 0.931 . S
C602 N600 1.340 . S
C602 C603 1.407 . S
C602 H608 0.930 . S
C603 C601 1.332 . S
C603 C602 1.407 . S
C603 H605 0.929 . S
H604 C593 0.930 . S
H605 C603 0.929 . S
H606 C621 0.930 . S
H607 C628 0.929 . S
H608 C602 0.930 . S
H609 C601 0.931 . S
H610 C624 0.930 . S
H611 C591 0.930 . S
H612 C597 0.929 . S
H613 C598 0.930 . S
H614 C619 0.930 . S
H615 C594 0.930 . S
H616 C627 0.931 . S
N617 Tb588 2.617 . S
N617 C618 1.379 . S
N617 C621 1.334 . S
C618 N617 1.379 . S
C618 C620 1.416 . S
C618 C626 1.424 . S
C619 H614 0.930 . S
C619 C621 1.390 . S
C619 C622 1.339 . S
C620 C618 1.416 . S
C620 C622 1.416 . S
C620 C653 1.448 . S
C621 H606 0.930 . S
C621 N617 1.334 . S
C621 C619 1.390 . S
C622 C619 1.339 . S
C622 C620 1.416 . S
C622 H629 0.930 . S
N623 Tb588 2.572 . S
N623 C624 1.340 1_556 S
N623 C626 1.361 . S
C624 H610 0.930 . S
C624 N623 1.340 1_554 S
C624 C628 1.407 . S
C625 C626 1.413 1_554 S
C625 C627 1.416 . S
C625 C654 1.427 . S
C626 C618 1.424 . S
C626 N623 1.361 . S
C626 C625 1.413 1_556 S
C627 H616 0.931 . S
C627 C625 1.416 . S
C627 C628 1.332 . S
C628 H607 0.929 . S
C628 C624 1.407 . S
C628 C627 1.332 . S
H629 C622 0.930 . S
H630 C653 0.930 . S
H631 C654 0.929 . S
O632 Tb588 2.465 . S
O632 C652 1.264 . S
O633 Tb588 2.387 . S
O633 C644 1.264 . S
O634 Tb599 2.349 . S
O634 C644 1.243 . S
O635 Tb588 2.428 . S
O635 C652 1.256 . S
O636 Tb588 2.308 . S
O636 C651 1.266 1_556 S
O637 Tb599 2.393 1_554 S
O637 C651 1.248 . S
O638 Tb599 2.465 . S
O638 C663 1.264 . S
O639 Tb599 2.387 . S
O639 C655 1.264 . S
O640 Tb588 2.349 . S
O640 C655 1.243 . S
O641 Tb599 2.428 . S
O641 C663 1.256 . S
O642 Tb599 2.308 . S
O642 C662 1.266 . S
O643 Tb588 2.393 . S
O643 C662 1.248 . S
C644 O633 1.264 . S
C644 O634 1.243 . S
C645 C648 1.399 . S
C645 C650 1.383 . S
C645 C652 1.496 . S
C646 C647 1.399 . S
C646 C650 1.389 . S
C647 C646 1.399 . S
C647 C649 1.380 . S
C647 H664 0.929 . S
C648 C645 1.399 . S
C648 C649 1.392 . S
C648 H665 0.929 . S
C649 C647 1.380 . S
C649 C648 1.392 . S
C649 H666 0.929 . S
C650 C645 1.383 . S
C650 C646 1.389 . S
C650 H667 0.931 . S
C651 O636 1.266 1_554 S
C651 O637 1.248 . S
C652 Tb588 2.802 . S
C652 O632 1.264 . S
C652 O635 1.256 . S
C652 C645 1.496 . S
C653 C620 1.448 . S
C653 H630 0.930 . S
C653 C654 1.328 1_556 S
C654 C625 1.427 . S
C654 H631 0.929 . S
C654 C653 1.328 1_554 S
C655 O639 1.264 . S
C655 O640 1.243 . S
C656 C659 1.399 1_556 S
C656 C660 1.383 . S
C656 C663 1.496 . S
C657 C658 1.399 . S
C657 C660 1.389 . S
C658 C657 1.399 . S
C658 C661 1.380 1_556 S
C658 H668 0.927 1_556 S
C659 C656 1.399 1_554 S
C659 C661 1.392 . S
C659 H669 0.929 . S
C660 C656 1.383 . S
C660 C657 1.389 . S
C660 H670 0.931 . S
C661 C658 1.380 1_554 S
C661 C659 1.392 . S
C661 H671 0.929 . S
C662 O642 1.266 . S
C662 O643 1.248 . S
C663 Tb599 2.802 . S
C663 O638 1.264 . S
C663 O641 1.256 . S
C663 C656 1.496 . S
H664 C647 0.929 . S
H665 C648 0.929 . S
H666 C649 0.929 . S
H667 C650 0.931 . S
H668 C658 0.927 1_554 S
H669 C659 0.929 . S
H670 C660 0.931 . S
H671 C661 0.929 . S
Tb672 N701 2.617 . S
Tb672 N707 2.572 . S
Tb672 O716 2.465 . S
Tb672 O717 2.387 . S
Tb672 O719 2.428 . S
Tb672 O720 2.308 . S
Tb672 O724 2.349 . S
Tb672 O727 2.393 . S
Tb672 C736 2.802 . S
C673 N674 1.379 . S
C673 C676 1.416 . S
C673 C680 1.424 . S
N674 C673 1.379 . S
N674 C677 1.334 1_556 S
N674 Tb683 2.617 . S
C675 C677 1.390 . S
C675 C678 1.339 1_554 S
C675 H695 0.930 . S
C676 C673 1.416 . S
C676 C678 1.416 . S
C676 C682 1.448 . S
C677 N674 1.334 1_554 S
C677 C675 1.390 . S
C677 H688 0.930 . S
C678 C675 1.339 1_556 S
C678 C676 1.416 . S
C678 H699 0.930 . S
C679 C680 1.413 . S
C679 C681 1.427 . S
C679 C685 1.416 . S
C680 C673 1.424 . S
C680 C679 1.413 . S
C680 N684 1.361 . S
C681 C679 1.427 . S
C681 C682 1.328 . S
C681 H696 0.929 . S
C682 C676 1.448 . S
C682 C681 1.328 . S
C682 H697 0.930 . S
Tb683 N674 2.617 . S
Tb683 N684 2.572 . S
Tb683 O718 2.349 . S
Tb683 O721 2.393 1_556 S
Tb683 O722 2.465 . S
Tb683 O723 2.387 . S
Tb683 O725 2.428 . S
Tb683 O726 2.308 . S
Tb683 C747 2.802 . S
N684 C680 1.361 . S
N684 Tb683 2.572 . S
N684 C686 1.340 . S
C685 C679 1.416 . S
C685 C687 1.332 . S
C685 H693 0.931 . S
C686 N684 1.340 . S
C686 C687 1.407 . S
C686 H692 0.930 . S
C687 C685 1.332 . S
C687 C686 1.407 . S
C687 H689 0.929 . S
H688 C677 0.930 . S
H689 C687 0.929 . S
H690 C705 0.930 . S
H691 C712 0.929 . S
H692 C686 0.930 . S
H693 C685 0.931 . S
H694 C708 0.930 . S
H695 C675 0.930 . S
H696 C681 0.929 . S
H697 C682 0.930 . S
H698 C703 0.930 . S
H699 C678 0.930 . S
H700 C711 0.931 . S
N701 Tb672 2.617 . S
N701 C702 1.379 . S
N701 C705 1.334 . S
C702 N701 1.379 . S
C702 C704 1.416 . S
C702 C710 1.424 . S
C703 H698 0.930 . S
C703 C705 1.390 . S
C703 C706 1.339 . S
C704 C702 1.416 . S
C704 C706 1.416 . S
C704 C737 1.448 . S
C705 H690 0.930 . S
C705 N701 1.334 . S
C705 C703 1.390 . S
C706 C703 1.339 . S
C706 C704 1.416 . S
C706 H713 0.930 1_545 S
N707 Tb672 2.572 . S
N707 C708 1.340 1_556 S
N707 C710 1.361 . S
C708 H694 0.930 . S
C708 N707 1.340 1_554 S
C708 C712 1.407 . S
C709 C710 1.413 1_554 S
C709 C711 1.416 . S
C709 C738 1.427 . S
C710 C702 1.424 . S
C710 N707 1.361 . S
C710 C709 1.413 1_556 S
C711 H700 0.931 . S
C711 C709 1.416 . S
C711 C712 1.332 . S
C712 H691 0.929 . S
C712 C708 1.407 . S
C712 C711 1.332 . S
H713 C706 0.930 1_565 S
H714 C737 0.961 . S
H715 C738 0.929 . S
O716 Tb672 2.465 . S
O716 C736 1.264 . S
O717 Tb672 2.387 . S
O717 C728 1.264 . S
O718 Tb683 2.349 . S
O718 C728 1.243 . S
O719 Tb672 2.428 . S
O719 C736 1.256 . S
O720 Tb672 2.308 . S
O720 C735 1.266 1_556 S
O721 Tb683 2.393 1_554 S
O721 C735 1.248 . S
O722 Tb683 2.465 . S
O722 C747 1.264 . S
O723 Tb683 2.387 . S
O723 C739 1.264 . S
O724 Tb672 2.349 . S
O724 C739 1.243 . S
O725 Tb683 2.428 . S
O725 C747 1.256 . S
O726 Tb683 2.308 . S
O726 C746 1.266 . S
O727 Tb672 2.393 . S
O727 C746 1.248 . S
C728 O717 1.264 . S
C728 O718 1.243 . S
C729 C732 1.399 . S
C729 C734 1.383 . S
C729 C736 1.496 . S
C730 C731 1.399 . S
C730 C734 1.389 . S
C731 C730 1.399 . S
C731 C733 1.380 . S
C731 H748 0.929 . S
C732 C729 1.399 . S
C732 C733 1.392 . S
C732 H749 0.929 . S
C733 C731 1.380 . S
C733 C732 1.392 . S
C733 H750 0.929 . S
C734 C729 1.383 . S
C734 C730 1.389 . S
C734 H751 0.931 . S
C735 O720 1.266 1_554 S
C735 O721 1.248 . S
C736 Tb672 2.802 . S
C736 O716 1.264 . S
C736 O719 1.256 . S
C736 C729 1.496 . S
C737 C704 1.448 . S
C737 H714 0.961 . S
C737 C738 1.328 1_556 S
C738 C709 1.427 . S
C738 H715 0.929 . S
C738 C737 1.328 1_554 S
C739 O723 1.264 . S
C739 O724 1.243 . S
C740 C743 1.399 1_556 S
C740 C744 1.383 . S
C740 C747 1.496 . S
C741 C742 1.399 . S
C741 C744 1.389 . S
C742 C741 1.399 . S
C742 C745 1.380 1_556 S
C742 H752 0.927 1_556 S
C743 C740 1.399 1_554 S
C743 C745 1.392 . S
C743 H753 0.929 . S
C744 C740 1.383 . S
C744 C741 1.389 . S
C744 H754 0.931 . S
C745 C742 1.380 1_554 S
C745 C743 1.392 . S
C745 H755 0.929 . S
C746 O726 1.266 . S
C746 O727 1.248 . S
C747 Tb683 2.802 . S
C747 O722 1.264 . S
C747 O725 1.256 . S
C747 C740 1.496 . S
H748 C731 0.929 . S
H749 C732 0.929 . S
H750 C733 0.929 . S
H751 C734 0.931 . S
H752 C742 0.927 1_554 S
H753 C743 0.929 . S
H754 C744 0.931 . S
H755 C745 0.929 . S
Tb756 N785 2.617 . S
Tb756 N791 2.572 . S
Tb756 O800 2.465 . S
Tb756 O801 2.387 . S
Tb756 O803 2.428 . S
Tb756 O804 2.308 . S
Tb756 O808 2.349 . S
Tb756 O811 2.393 . S
Tb756 C820 2.802 . S
C757 N758 1.379 . S
C757 C760 1.416 . S
C757 C764 1.424 . S
N758 C757 1.379 . S
N758 C761 1.334 . S
N758 Tb767 2.617 . S
C759 C761 1.390 . S
C759 C762 1.339 . S
C759 H779 0.930 . S
C760 C757 1.416 . S
C760 C762 1.416 . S
C760 C766 1.448 . S
C761 N758 1.334 . S
C761 C759 1.390 . S
C761 H772 0.930 . S
C762 C759 1.339 . S
C762 C760 1.416 . S
C762 H783 0.930 . S
C763 C764 1.413 . S
C763 C765 1.427 . S
C763 C769 1.416 . S
C764 C757 1.424 . S
C764 C763 1.413 . S
C764 N768 1.361 . S
C765 C763 1.427 . S
C765 C766 1.328 . S
C765 H780 0.929 . S
C766 C760 1.448 . S
C766 C765 1.328 . S
C766 H781 0.930 . S
Tb767 N758 2.617 . S
Tb767 N768 2.572 . S
Tb767 O802 2.349 . S
Tb767 O805 2.393 . S
Tb767 O806 2.465 . S
Tb767 O807 2.387 . S
Tb767 O809 2.428 . S
Tb767 O810 2.308 . S
Tb767 C831 2.802 . S
N768 C764 1.361 . S
N768 Tb767 2.572 . S
N768 C770 1.340 . S
C769 C763 1.416 . S
C769 C771 1.332 . S
C769 H777 0.931 . S
C770 N768 1.340 . S
C770 C771 1.407 . S
C770 H776 0.930 . S
C771 C769 1.332 . S
C771 C770 1.407 . S
C771 H773 0.929 . S
H772 C761 0.930 . S
H773 C771 0.929 . S
H774 C789 0.930 . S
H775 C796 0.929 . S
H776 C770 0.930 . S
H777 C769 0.931 . S
H778 C792 0.930 . S
H779 C759 0.930 . S
H780 C765 0.929 . S
H781 C766 0.930 . S
H782 C787 0.930 . S
H783 C762 0.930 . S
H784 C795 0.931 . S
N785 Tb756 2.617 . S
N785 C786 1.379 . S
N785 C789 1.334 . S
C786 N785 1.379 . S
C786 C788 1.416 . S
C786 C794 1.424 . S
C787 H782 0.930 . S
C787 C789 1.390 . S
C787 C790 1.339 . S
C788 C786 1.416 . S
C788 C790 1.416 . S
C788 C821 1.448 . S
C789 H774 0.930 . S
C789 N785 1.334 . S
C789 C787 1.390 . S
C790 C787 1.339 . S
C790 C788 1.416 . S
C790 H797 0.930 1_565 S
N791 Tb756 2.572 . S
N791 C792 1.340 . S
N791 C794 1.361 . S
C792 H778 0.930 . S
C792 N791 1.340 . S
C792 C796 1.407 . S
C793 C794 1.413 . S
C793 C795 1.416 . S
C793 C822 1.427 . S
C794 C786 1.424 . S
C794 N791 1.361 . S
C794 C793 1.413 . S
C795 H784 0.931 . S
C795 C793 1.416 . S
C795 C796 1.332 . S
C796 H775 0.929 . S
C796 C792 1.407 . S
C796 C795 1.332 . S
H797 C790 0.930 1_545 S
H798 C821 0.946 . S
H799 C822 0.929 . S
O800 Tb756 2.465 . S
O800 C820 1.264 . S
O801 Tb756 2.387 . S
O801 C812 1.264 . S
O802 Tb767 2.349 . S
O802 C812 1.243 . S
O803 Tb756 2.428 . S
O803 C820 1.256 . S
O804 Tb756 2.308 . S
O804 C819 1.266 . S
O805 Tb767 2.393 . S
O805 C819 1.248 . S
O806 Tb767 2.465 . S
O806 C831 1.264 . S
O807 Tb767 2.387 . S
O807 C823 1.264 . S
O808 Tb756 2.349 . S
O808 C823 1.243 . S
O809 Tb767 2.428 . S
O809 C831 1.256 . S
O810 Tb767 2.308 . S
O810 C830 1.266 . S
O811 Tb756 2.393 . S
O811 C830 1.248 . S
C812 O801 1.264 . S
C812 O802 1.243 . S
C813 C816 1.399 . S
C813 C818 1.383 . S
C813 C820 1.496 . S
C814 C815 1.399 . S
C814 C818 1.389 . S
C815 C814 1.399 . S
C815 C817 1.380 . S
C815 H832 0.929 . S
C816 C813 1.399 . S
C816 C817 1.392 . S
C816 H833 0.929 . S
C817 C815 1.380 . S
C817 C816 1.392 . S
C817 H834 0.929 . S
C818 C813 1.383 . S
C818 C814 1.389 . S
C818 H835 0.931 . S
C819 O804 1.266 . S
C819 O805 1.248 . S
C820 Tb756 2.802 . S
C820 O800 1.264 . S
C820 O803 1.256 . S
C820 C813 1.496 . S
C821 C788 1.448 . S
C821 H798 0.946 . S
C821 C822 1.328 . S
C822 C793 1.427 . S
C822 H799 0.929 . S
C822 C821 1.328 . S
C823 O807 1.264 . S
C823 O808 1.243 . S
C824 C827 1.399 . S
C824 C828 1.383 . S
C824 C831 1.496 . S
C825 C826 1.399 . S
C825 C828 1.389 . S
C826 C825 1.399 . S
C826 C829 1.380 . S
C826 H836 0.929 . S
C827 C824 1.399 . S
C827 C829 1.392 . S
C827 H837 0.929 . S
C828 C824 1.383 . S
C828 C825 1.389 . S
C828 H838 0.931 . S
C829 C826 1.380 . S
C829 C827 1.392 . S
C829 H839 0.929 . S
C830 O810 1.266 . S
C830 O811 1.248 . S
C831 Tb767 2.802 . S
C831 O806 1.264 . S
C831 O809 1.256 . S
C831 C824 1.496 . S
H832 C815 0.929 . S
H833 C816 0.929 . S
H834 C817 0.929 . S
H835 C818 0.931 . S
H836 C826 0.929 . S
H837 C827 0.929 . S
H838 C828 0.931 . S
H839 C829 0.929 . S
Tb840 N869 2.617 . S
Tb840 N875 2.572 . S
Tb840 O884 2.465 . S
Tb840 O885 2.387 . S
Tb840 O887 2.428 . S
Tb840 O888 2.308 . S
Tb840 O892 2.349 . S
Tb840 O895 2.393 . S
Tb840 C904 2.802 . S
C841 N842 1.379 . S
C841 C844 1.416 . S
C841 C848 1.424 . S
N842 C841 1.379 . S
N842 C845 1.334 . S
N842 Tb851 2.617 . S
C843 C845 1.390 . S
C843 C846 1.339 . S
C843 H863 0.930 . S
C844 C841 1.416 . S
C844 C846 1.416 . S
C844 C850 1.448 . S
C845 N842 1.334 . S
C845 C843 1.390 . S
C845 H856 0.930 . S
C846 C843 1.339 . S
C846 C844 1.416 . S
C846 H867 0.930 . S
C847 C848 1.413 . S
C847 C849 1.427 . S
C847 C853 1.416 . S
C848 C841 1.424 . S
C848 C847 1.413 . S
C848 N852 1.361 . S
C849 C847 1.427 . S
C849 C850 1.328 . S
C849 H864 0.929 . S
C850 C844 1.448 . S
C850 C849 1.328 . S
C850 H865 0.930 . S
Tb851 N842 2.617 . S
Tb851 N852 2.572 . S
Tb851 O886 2.349 . S
Tb851 O889 2.393 . S
Tb851 O890 2.465 . S
Tb851 O891 2.387 . S
Tb851 O893 2.428 . S
Tb851 O894 2.308 . S
Tb851 C915 2.802 . S
N852 C848 1.361 . S
N852 Tb851 2.572 . S
N852 C854 1.340 . S
C853 C847 1.416 . S
C853 C855 1.332 . S
C853 H861 0.931 . S
C854 N852 1.340 . S
C854 C855 1.407 . S
C854 H860 0.930 . S
C855 C853 1.332 . S
C855 C854 1.407 . S
C855 H857 0.929 . S
H856 C845 0.930 . S
H857 C855 0.929 . S
H858 C873 0.930 . S
H859 C880 0.929 . S
H860 C854 0.930 . S
H861 C853 0.931 . S
H862 C876 0.930 . S
H863 C843 0.930 . S
H864 C849 0.929 . S
H865 C850 0.930 . S
H866 C871 0.930 . S
H867 C846 0.930 . S
H868 C879 0.931 . S
N869 Tb840 2.617 . S
N869 C870 1.379 . S
N869 C873 1.334 . S
C870 N869 1.379 . S
C870 C872 1.416 . S
C870 C878 1.424 . S
C871 H866 0.930 . S
C871 C873 1.390 . S
C871 C874 1.339 . S
C872 C870 1.416 . S
C872 C874 1.416 . S
C872 C905 1.448 . S
C873 H858 0.930 . S
C873 N869 1.334 . S
C873 C871 1.390 . S
C874 C871 1.339 . S
C874 C872 1.416 . S
C874 H881 0.930 1_455 S
N875 Tb840 2.572 . S
N875 C876 1.340 . S
N875 C878 1.361 . S
C876 H862 0.930 . S
C876 N875 1.340 . S
C876 C880 1.407 . S
C877 C878 1.413 . S
C877 C879 1.416 . S
C877 C906 1.427 . S
C878 C870 1.424 . S
C878 N875 1.361 . S
C878 C877 1.413 . S
C879 H868 0.931 . S
C879 C877 1.416 . S
C879 C880 1.332 . S
C880 H859 0.929 . S
C880 C876 1.407 . S
C880 C879 1.332 . S
H881 C874 0.930 1_655 S
H882 C905 0.962 . S
H883 C906 0.929 . S
O884 Tb840 2.465 . S
O884 C904 1.264 . S
O885 Tb840 2.387 . S
O885 C896 1.264 . S
O886 Tb851 2.349 . S
O886 C896 1.243 . S
O887 Tb840 2.428 . S
O887 C904 1.256 . S
O888 Tb840 2.308 . S
O888 C903 1.266 . S
O889 Tb851 2.393 . S
O889 C903 1.248 . S
O890 Tb851 2.465 . S
O890 C915 1.264 . S
O891 Tb851 2.387 . S
O891 C907 1.264 . S
O892 Tb840 2.349 . S
O892 C907 1.243 . S
O893 Tb851 2.428 . S
O893 C915 1.256 . S
O894 Tb851 2.308 . S
O894 C914 1.266 . S
O895 Tb840 2.393 . S
O895 C914 1.248 . S
C896 O885 1.264 . S
C896 O886 1.243 . S
C897 C900 1.399 . S
C897 C902 1.383 . S
C897 C904 1.496 . S
C898 C899 1.399 . S
C898 C902 1.389 . S
C899 C898 1.399 . S
C899 C901 1.380 . S
C899 H916 0.929 . S
C900 C897 1.399 . S
C900 C901 1.392 . S
C900 H917 0.929 . S
C901 C899 1.380 . S
C901 C900 1.392 . S
C901 H918 0.929 . S
C902 C897 1.383 . S
C902 C898 1.389 . S
C902 H919 0.931 . S
C903 O888 1.266 . S
C903 O889 1.248 . S
C904 Tb840 2.802 . S
C904 O884 1.264 . S
C904 O887 1.256 . S
C904 C897 1.496 . S
C905 C872 1.448 . S
C905 H882 0.962 . S
C905 C906 1.328 . S
C906 C877 1.427 . S
C906 H883 0.929 . S
C906 C905 1.328 . S
C907 O891 1.264 . S
C907 O892 1.243 . S
C908 C911 1.399 . S
C908 C912 1.383 . S
C908 C915 1.496 . S
C909 C910 1.399 . S
C909 C912 1.389 . S
C910 C909 1.399 . S
C910 C913 1.380 . S
C910 H920 0.929 . S
C911 C908 1.399 . S
C911 C913 1.392 . S
C911 H921 0.929 . S
C912 C908 1.383 . S
C912 C909 1.389 . S
C912 H922 0.931 . S
C913 C910 1.380 . S
C913 C911 1.392 . S
C913 H923 0.929 . S
C914 O894 1.266 . S
C914 O895 1.248 . S
C915 Tb851 2.802 . S
C915 O890 1.264 . S
C915 O893 1.256 . S
C915 C908 1.496 . S
H916 C899 0.929 . S
H917 C900 0.929 . S
H918 C901 0.929 . S
H919 C902 0.931 . S
H920 C910 0.929 . S
H921 C911 0.929 . S
H922 C912 0.931 . S
H923 C913 0.929 . S
Tb924 N953 2.617 . S
Tb924 N959 2.572 . S
Tb924 O968 2.465 . S
Tb924 O969 2.387 . S
Tb924 O971 2.428 . S
Tb924 O972 2.308 . S
Tb924 O976 2.349 . S
Tb924 O979 2.393 . S
Tb924 C988 2.802 . S
C925 N926 1.379 . S
C925 C928 1.416 . S
C925 C932 1.424 . S
N926 C925 1.379 . S
N926 C929 1.334 . S
N926 Tb935 2.617 . S
C927 C929 1.390 . S
C927 C930 1.339 . S
C927 H947 0.930 . S
C928 C925 1.416 . S
C928 C930 1.416 . S
C928 C934 1.448 . S
C929 N926 1.334 . S
C929 C927 1.390 . S
C929 H940 0.930 . S
C930 C927 1.339 . S
C930 C928 1.416 . S
C930 H951 0.930 . S
C931 C932 1.413 . S
C931 C933 1.427 . S
C931 C937 1.416 . S
C932 C925 1.424 . S
C932 C931 1.413 . S
C932 N936 1.361 . S
C933 C931 1.427 . S
C933 C934 1.328 . S
C933 H948 0.929 . S
C934 C928 1.448 . S
C934 C933 1.328 . S
C934 H949 0.930 . S
Tb935 N926 2.617 . S
Tb935 N936 2.572 . S
Tb935 O970 2.349 . S
Tb935 O973 2.393 . S
Tb935 O974 2.465 . S
Tb935 O975 2.387 . S
Tb935 O977 2.428 . S
Tb935 O978 2.308 . S
Tb935 C999 2.802 . S
N936 C932 1.361 . S
N936 Tb935 2.572 . S
N936 C938 1.340 . S
C937 C931 1.416 . S
C937 C939 1.332 . S
C937 H945 0.931 . S
C938 N936 1.340 . S
C938 C939 1.407 . S
C938 H944 0.930 . S
C939 C937 1.332 . S
C939 C938 1.407 . S
C939 H941 0.929 . S
H940 C929 0.930 . S
H941 C939 0.929 . S
H942 C957 0.930 . S
H943 C964 0.929 . S
H944 C938 0.930 . S
H945 C937 0.931 . S
H946 C960 0.930 . S
H947 C927 0.930 . S
H948 C933 0.929 . S
H949 C934 0.930 . S
H950 C955 0.930 . S
H951 C930 0.930 . S
H952 C963 0.931 . S
N953 Tb924 2.617 . S
N953 C954 1.379 . S
N953 C957 1.334 . S
C954 N953 1.379 . S
C954 C956 1.416 . S
C954 C962 1.424 . S
C955 H950 0.930 . S
C955 C957 1.390 . S
C955 C958 1.339 . S
C956 C954 1.416 . S
C956 C958 1.416 . S
C956 C989 1.448 . S
C957 H942 0.930 . S
C957 N953 1.334 . S
C957 C955 1.390 . S
C958 C955 1.339 . S
C958 C956 1.416 . S
C958 H965 0.930 . S
N959 Tb924 2.572 . S
N959 C960 1.340 . S
N959 C962 1.361 . S
C960 H946 0.930 . S
C960 N959 1.340 . S
C960 C964 1.407 . S
C961 C962 1.413 . S
C961 C963 1.416 . S
C961 C990 1.427 . S
C962 C954 1.424 . S
C962 N959 1.361 . S
C962 C961 1.413 . S
C963 H952 0.931 . S
C963 C961 1.416 . S
C963 C964 1.332 . S
C964 H943 0.929 . S
C964 C960 1.407 . S
C964 C963 1.332 . S
H965 C958 0.930 . S
H966 C989 0.930 . S
H967 C990 0.929 . S
O968 Tb924 2.465 . S
O968 C988 1.264 . S
O969 Tb924 2.387 . S
O969 C980 1.264 . S
O970 Tb935 2.349 . S
O970 C980 1.243 . S
O971 Tb924 2.428 . S
O971 C988 1.256 . S
O972 Tb924 2.308 . S
O972 C987 1.266 . S
O973 Tb935 2.393 . S
O973 C987 1.248 . S
O974 Tb935 2.465 . S
O974 C999 1.264 . S
O975 Tb935 2.387 . S
O975 C991 1.264 . S
O976 Tb924 2.349 . S
O976 C991 1.243 . S
O977 Tb935 2.428 . S
O977 C999 1.256 . S
O978 Tb935 2.308 . S
O978 C998 1.266 . S
O979 Tb924 2.393 . S
O979 C998 1.248 . S
C980 O969 1.264 . S
C980 O970 1.243 . S
C981 C984 1.399 . S
C981 C986 1.383 . S
C981 C988 1.496 . S
C982 C983 1.399 . S
C982 C986 1.389 . S
C983 C982 1.399 . S
C983 C985 1.380 . S
C983 H1000 0.929 . S
C984 C981 1.399 . S
C984 C985 1.392 . S
C984 H1001 0.929 . S
C985 C983 1.380 . S
C985 C984 1.392 . S
C985 H1002 0.929 . S
C986 C981 1.383 . S
C986 C982 1.389 . S
C986 H1003 0.931 . S
C987 O972 1.266 . S
C987 O973 1.248 . S
C988 Tb924 2.802 . S
C988 O968 1.264 . S
C988 O971 1.256 . S
C988 C981 1.496 . S
C989 C956 1.448 . S
C989 H966 0.930 . S
C989 C990 1.328 . S
C990 C961 1.427 . S
C990 H967 0.929 . S
C990 C989 1.328 . S
C991 O975 1.264 . S
C991 O976 1.243 . S
C992 C995 1.399 . S
C992 C996 1.383 . S
C992 C999 1.496 . S
C993 C994 1.399 . S
C993 C996 1.389 . S
C994 C993 1.399 . S
C994 C997 1.380 . S
C994 H1004 0.929 . S
C995 C992 1.399 . S
C995 C997 1.392 . S
C995 H1005 0.929 . S
C996 C992 1.383 . S
C996 C993 1.389 . S
C996 H1006 0.931 . S
C997 C994 1.380 . S
C997 C995 1.392 . S
C997 H1007 0.929 . S
C998 O978 1.266 . S
C998 O979 1.248 . S
C999 Tb935 2.802 . S
C999 O974 1.264 . S
C999 O977 1.256 . S
C999 C992 1.496 . S
H1000 C983 0.929 . S
H1001 C984 0.929 . S
H1002 C985 0.929 . S
H1003 C986 0.931 . S
H1004 C994 0.929 . S
H1005 C995 0.929 . S
H1006 C996 0.931 . S
H1007 C997 0.929 . S
H1008 C1014 0.930 1_556 S
H1009 C1017 0.930 . S
H1010 C1018 0.930 . S
H1011 C1019 0.930 1_554 S
H1012 C1022 0.930 . S
H1013 C1023 0.930 . S
C1014 H1008 0.930 1_554 S
C1014 C1015 1.355 1_655 S
C1014 C1016 1.415 1_554 S
C1015 C1014 1.355 1_455 S
C1015 C1017 1.419 . S
C1016 C1014 1.415 1_556 S
C1016 C1021 1.425 1_656 S
C1016 C1023 1.409 . S
C1017 H1009 0.930 . S
C1017 C1015 1.419 . S
C1017 C1018 1.362 . S
C1018 H1010 0.930 . S
C1018 C1017 1.362 . S
C1018 C1021 1.409 . S
C1019 H1011 0.930 1_556 S
C1019 C1020 1.355 1_455 S
C1019 C1021 1.415 1_556 S
C1020 C1019 1.355 1_655 S
C1020 C1022 1.419 . S
C1021 C1016 1.425 1_454 S
C1021 C1018 1.409 . S
C1021 C1019 1.415 1_554 S
C1022 H1012 0.930 . S
C1022 C1020 1.419 . S
C1022 C1023 1.362 . S
C1023 H1013 0.930 . S
C1023 C1016 1.409 . S
C1023 C1022 1.362 . S
H1024 C1030 0.930 . S
H1025 C1033 0.930 . S
H1026 C1034 0.930 . S
H1027 C1035 0.930 . S
H1028 C1038 0.930 . S
H1029 C1039 0.930 . S
C1030 H1024 0.930 . S
C1030 C1031 1.355 . S
C1030 C1032 1.415 1_556 S
C1031 C1030 1.355 . S
C1031 C1033 1.419 . S
C1032 C1030 1.415 1_554 S
C1032 C1037 1.425 1_554 S
C1032 C1039 1.409 . S
C1033 H1025 0.930 . S
C1033 C1031 1.419 . S
C1033 C1034 1.362 . S
C1034 H1026 0.930 . S
C1034 C1033 1.362 . S
C1034 C1037 1.409 . S
C1035 H1027 0.930 . S
C1035 C1036 1.355 . S
C1035 C1037 1.415 1_554 S
C1036 C1035 1.355 . S
C1036 C1038 1.419 . S
C1037 C1032 1.425 1_556 S
C1037 C1034 1.409 . S
C1037 C1035 1.415 1_556 S
C1038 H1028 0.930 . S
C1038 C1036 1.419 . S
C1038 C1039 1.362 . S
C1039 H1029 0.930 . S
C1039 C1032 1.409 . S
C1039 C1038 1.362 . S
H1040 C1046 0.930 . S
H1041 C1049 0.930 . S
H1042 C1050 0.930 . S
H1043 C1051 0.930 . S
H1044 C1054 0.930 . S
H1045 C1055 0.930 . S
C1046 H1040 0.930 . S
C1046 C1047 1.355 1_565 S
C1046 C1048 1.415 1_556 S
C1047 C1046 1.355 1_545 S
C1047 C1049 1.419 . S
C1048 C1046 1.415 1_554 S
C1048 C1053 1.425 1_564 S
C1048 C1055 1.409 . S
C1049 H1041 0.930 . S
C1049 C1047 1.419 . S
C1049 C1050 1.362 . S
C1050 H1042 0.930 . S
C1050 C1049 1.362 . S
C1050 C1053 1.409 . S
C1051 H1043 0.930 . S
C1051 C1052 1.355 1_545 S
C1051 C1053 1.415 1_554 S
C1052 C1051 1.355 1_565 S
C1052 C1054 1.419 . S
C1053 C1048 1.425 1_546 S
C1053 C1050 1.409 . S
C1053 C1051 1.415 1_556 S
C1054 H1044 0.930 . S
C1054 C1052 1.419 . S
C1054 C1055 1.362 . S
C1055 H1045 0.930 . S
C1055 C1048 1.409 . S
C1055 C1054 1.362 . S
H1056 C1062 0.930 . S
H1057 C1065 0.930 . S
H1058 C1066 0.930 . S
H1059 C1067 0.930 . S
H1060 C1070 0.930 . S
H1061 C1071 0.930 . S
C1062 H1056 0.930 . S
C1062 C1063 1.355 1_565 S
C1062 C1064 1.415 . S
C1063 C1062 1.355 1_545 S
C1063 C1065 1.419 . S
C1064 C1062 1.415 . S
C1064 C1069 1.425 1_565 S
C1064 C1071 1.409 . S
C1065 H1057 0.930 . S
C1065 C1063 1.419 . S
C1065 C1066 1.362 . S
C1066 H1058 0.930 . S
C1066 C1065 1.362 . S
C1066 C1069 1.409 . S
C1067 H1059 0.930 . S
C1067 C1068 1.355 1_545 S
C1067 C1069 1.415 . S
C1068 C1067 1.355 1_565 S
C1068 C1070 1.419 . S
C1069 C1064 1.425 1_545 S
C1069 C1066 1.409 . S
C1069 C1067 1.415 . S
C1070 H1060 0.930 . S
C1070 C1068 1.419 . S
C1070 C1071 1.362 . S
C1071 H1061 0.930 . S
C1071 C1064 1.409 . S
C1071 C1070 1.362 . S
H1072 C1078 0.930 . S
H1073 C1081 0.930 . S
H1074 C1082 0.930 . S
H1075 C1083 0.930 . S
H1076 C1086 0.930 . S
H1077 C1087 0.930 . S
C1078 H1072 0.930 . S
C1078 C1079 1.355 . S
C1078 C1080 1.415 . S
C1079 C1078 1.355 . S
C1079 C1081 1.419 1_455 S
C1080 C1078 1.415 . S
C1080 C1085 1.425 1_455 S
C1080 C1087 1.409 . S
C1081 H1073 0.930 . S
C1081 C1079 1.419 1_655 S
C1081 C1082 1.362 . S
C1082 H1074 0.930 . S
C1082 C1081 1.362 . S
C1082 C1085 1.409 . S
C1083 H1075 0.930 . S
C1083 C1084 1.355 . S
C1083 C1085 1.415 . S
C1084 C1083 1.355 . S
C1084 C1086 1.419 1_655 S
C1085 C1080 1.425 1_655 S
C1085 C1082 1.409 . S
C1085 C1083 1.415 . S
C1086 H1076 0.930 . S
C1086 C1084 1.419 1_455 S
C1086 C1087 1.362 . S
C1087 H1077 0.930 . S
C1087 C1080 1.409 . S
C1087 C1086 1.362 . S
H1088 C1094 0.930 . S
H1089 C1097 0.930 . S
H1090 C1098 0.930 . S
H1091 C1099 0.930 . S
H1092 C1102 0.930 . S
H1093 C1103 0.930 . S
C1094 H1088 0.930 . S
C1094 C1095 1.355 . S
C1094 C1096 1.415 . S
C1095 C1094 1.355 . S
C1095 C1097 1.419 . S
C1096 C1094 1.415 . S
C1096 C1101 1.425 . S
C1096 C1103 1.409 . S
C1097 H1089 0.930 . S
C1097 C1095 1.419 . S
C1097 C1098 1.362 . S
C1098 H1090 0.930 . S
C1098 C1097 1.362 . S
C1098 C1101 1.409 . S
C1099 H1091 0.930 . S
C1099 C1100 1.355 . S
C1099 C1101 1.415 . S
C1100 C1099 1.355 . S
C1100 C1102 1.419 . S
C1101 C1096 1.425 . S
C1101 C1098 1.409 . S
C1101 C1099 1.415 . S
C1102 H1092 0.930 . S
C1102 C1100 1.419 . S
C1102 C1103 1.362 . S
C1103 H1093 0.930 . S
C1103 C1096 1.409 . S
C1103 C1102 1.362 . S
H1104 C1110 0.930 . S
H1105 C1113 0.930 . S
H1106 C1114 0.930 . S
H1107 C1115 0.930 . S
H1108 C1118 0.930 . S
H1109 C1119 0.930 . S
C1110 H1104 0.930 . S
C1110 C1111 1.355 . S
C1110 C1112 1.415 . S
C1111 C1110 1.355 . S
C1111 C1113 1.419 . S
C1112 C1110 1.415 . S
C1112 C1117 1.425 1_655 S
C1112 C1119 1.409 1_655 S
C1113 H1105 0.930 . S
C1113 C1111 1.419 . S
C1113 C1114 1.362 . S
C1114 H1106 0.930 . S
C1114 C1113 1.362 . S
C1114 C1117 1.409 1_655 S
C1115 H1107 0.930 . S
C1115 C1116 1.355 . S
C1115 C1117 1.415 . S
C1116 C1115 1.355 . S
C1116 C1118 1.419 . S
C1117 C1112 1.425 1_455 S
C1117 C1114 1.409 1_455 S
C1117 C1115 1.415 . S
C1118 H1108 0.930 . S
C1118 C1116 1.419 . S
C1118 C1119 1.362 . S
C1119 H1109 0.930 . S
C1119 C1112 1.409 1_455 S
C1119 C1118 1.362 . S
H1120 C1126 0.930 . S
H1121 C1129 0.930 . S
H1122 C1130 0.930 . S
H1123 C1131 0.930 . S
H1124 C1134 0.930 . S
H1125 C1135 0.930 . S
C1126 H1120 0.930 . S
C1126 C1127 1.355 . S
C1126 C1128 1.415 . S
C1127 C1126 1.355 . S
C1127 C1129 1.419 . S
C1128 C1126 1.415 . S
C1128 C1133 1.425 . S
C1128 C1135 1.409 . S
C1129 H1121 0.930 . S
C1129 C1127 1.419 . S
C1129 C1130 1.362 . S
C1130 H1122 0.930 . S
C1130 C1129 1.362 . S
C1130 C1133 1.409 . S
C1131 H1123 0.930 . S
C1131 C1132 1.355 . S
C1131 C1133 1.415 . S
C1132 C1131 1.355 . S
C1132 C1134 1.419 . S
C1133 C1128 1.425 . S
C1133 C1130 1.409 . S
C1133 C1131 1.415 . S
C1134 H1124 0.930 . S
C1134 C1132 1.419 . S
C1134 C1135 1.362 . S
C1135 H1125 0.930 . S
C1135 C1128 1.409 . S
C1135 C1134 1.362 . S
H1136 C1142 0.930 . S
H1137 C1145 0.930 . S
H1138 C1146 0.930 . S
H1139 C1147 0.930 . S
H1140 C1150 0.930 . S
H1141 C1151 0.930 . S
C1142 H1136 0.930 . S
C1142 C1143 1.355 . S
C1142 C1144 1.415 . S
C1143 C1142 1.355 . S
C1143 C1145 1.419 . S
C1144 C1142 1.415 . S
C1144 C1149 1.425 1_545 S
C1144 C1151 1.409 1_545 S
C1145 H1137 0.930 . S
C1145 C1143 1.419 . S
C1145 C1146 1.362 . S
C1146 H1138 0.930 . S
C1146 C1145 1.362 . S
C1146 C1149 1.409 1_545 S
C1147 H1139 0.930 . S
C1147 C1148 1.355 . S
C1147 C1149 1.415 . S
C1148 C1147 1.355 . S
C1148 C1150 1.419 . S
C1149 C1144 1.425 1_565 S
C1149 C1146 1.409 1_565 S
C1149 C1147 1.415 . S
C1150 H1140 0.930 . S
C1150 C1148 1.419 . S
C1150 C1151 1.362 . S
C1151 H1141 0.930 . S
C1151 C1144 1.409 1_565 S
C1151 C1150 1.362 . S
H1152 C1158 0.930 . S
H1153 C1161 0.930 . S
H1154 C1162 0.930 . S
H1155 C1163 0.930 . S
H1156 C1166 0.930 . S
H1157 C1167 0.930 . S
C1158 H1152 0.930 . S
C1158 C1159 1.355 . S
C1158 C1160 1.415 . S
C1159 C1158 1.355 . S
C1159 C1161 1.419 . S
C1160 C1158 1.415 . S
C1160 C1165 1.425 1_455 S
C1160 C1167 1.409 1_455 S
C1161 H1153 0.930 . S
C1161 C1159 1.419 . S
C1161 C1162 1.362 . S
C1162 H1154 0.930 . S
C1162 C1161 1.362 . S
C1162 C1165 1.409 1_455 S
C1163 H1155 0.930 . S
C1163 C1164 1.355 . S
C1163 C1165 1.415 . S
C1164 C1163 1.355 . S
C1164 C1166 1.419 . S
C1165 C1160 1.425 1_655 S
C1165 C1162 1.409 1_655 S
C1165 C1163 1.415 . S
C1166 H1156 0.930 . S
C1166 C1164 1.419 . S
C1166 C1167 1.362 . S
C1167 H1157 0.930 . S
C1167 C1160 1.409 1_655 S
C1167 C1166 1.362 . S
H1168 C1174 0.930 . S
H1169 C1177 0.930 . S
H1170 C1178 0.930 . S
H1171 C1179 0.930 . S
H1172 C1182 0.930 . S
H1173 C1183 0.930 . S
C1174 H1168 0.930 . S
C1174 C1175 1.355 . S
C1174 C1176 1.415 . S
C1175 C1174 1.355 . S
C1175 C1177 1.419 . S
C1176 C1174 1.415 . S
C1176 C1181 1.425 . S
C1176 C1183 1.409 . S
C1177 H1169 0.930 . S
C1177 C1175 1.419 . S
C1177 C1178 1.362 . S
C1178 H1170 0.930 . S
C1178 C1177 1.362 . S
C1178 C1181 1.409 . S
C1179 H1171 0.930 . S
C1179 C1180 1.355 . S
C1179 C1181 1.415 . S
C1180 C1179 1.355 . S
C1180 C1182 1.419 . S
C1181 C1176 1.425 . S
C1181 C1178 1.409 . S
C1181 C1179 1.415 . S
C1182 H1172 0.930 . S
C1182 C1180 1.419 . S
C1182 C1183 1.362 . S
C1183 H1173 0.930 . S
C1183 C1176 1.409 . S
C1183 C1182 1.362 . S
H1184 C1190 0.930 . S
H1185 C1193 0.930 . S
H1186 C1194 0.930 . S
H1187 C1195 0.930 . S
H1188 C1198 0.930 . S
H1189 C1199 0.930 . S
C1190 H1184 0.930 . S
C1190 C1191 1.355 . S
C1190 C1192 1.415 . S
C1191 C1190 1.355 . S
C1191 C1193 1.419 . S
C1192 C1190 1.415 . S
C1192 C1197 1.425 1_545 S
C1192 C1199 1.409 1_545 S
C1193 H1185 0.930 . S
C1193 C1191 1.419 . S
C1193 C1194 1.362 . S
C1194 H1186 0.930 . S
C1194 C1193 1.362 . S
C1194 C1197 1.409 1_545 S
C1195 H1187 0.930 . S
C1195 C1196 1.355 . S
C1195 C1197 1.415 . S
C1196 C1195 1.355 . S
C1196 C1198 1.419 . S
C1197 C1192 1.425 1_565 S
C1197 C1194 1.409 1_565 S
C1197 C1195 1.415 . S
C1198 H1188 0.930 . S
C1198 C1196 1.419 . S
C1198 C1199 1.362 . S
C1199 H1189 0.930 . S
C1199 C1192 1.409 1_565 S
C1199 C1198 1.362 . S
H1200 C1206 0.930 . S
H1201 C1209 0.930 . S
H1202 C1210 0.930 . S
H1203 C1211 0.930 . S
H1204 C1214 0.930 . S
H1205 C1215 0.930 . S
C1206 H1200 0.930 . S
C1206 C1207 1.355 . S
C1206 C1208 1.415 . S
C1207 C1206 1.355 . S
C1207 C1209 1.419 . S
C1208 C1206 1.415 . S
C1208 C1213 1.425 . S
C1208 C1215 1.409 . S
C1209 H1201 0.930 . S
C1209 C1207 1.419 . S
C1209 C1210 1.362 . S
C1210 H1202 0.930 . S
C1210 C1209 1.362 . S
C1210 C1213 1.409 . S
C1211 H1203 0.930 . S
C1211 C1212 1.355 . S
C1211 C1213 1.415 . S
C1212 C1211 1.355 . S
C1212 C1214 1.419 . S
C1213 C1208 1.425 . S
C1213 C1210 1.409 . S
C1213 C1211 1.415 . S
C1214 H1204 0.930 . S
C1214 C1212 1.419 . S
C1214 C1215 1.362 . S
C1215 H1205 0.930 . S
C1215 C1208 1.409 . S
C1215 C1214 1.362 . S
H1216 C1222 0.930 . S
H1217 C1225 0.930 . S
H1218 C1226 0.930 . S
H1219 C1227 0.930 . S
H1220 C1230 0.930 . S
H1221 C1231 0.930 . S
C1222 H1216 0.930 . S
C1222 C1223 1.355 . S
C1222 C1224 1.415 . S
C1223 C1222 1.355 . S
C1223 C1225 1.419 . S
C1224 C1222 1.415 . S
C1224 C1229 1.425 . S
C1224 C1231 1.409 . S
C1225 H1217 0.930 . S
C1225 C1223 1.419 . S
C1225 C1226 1.362 . S
C1226 H1218 0.930 . S
C1226 C1225 1.362 . S
C1226 C1229 1.409 . S
C1227 H1219 0.930 . S
C1227 C1228 1.355 . S
C1227 C1229 1.415 . S
C1228 C1227 1.355 . S
C1228 C1230 1.419 . S
C1229 C1224 1.425 . S
C1229 C1226 1.409 . S
C1229 C1227 1.415 . S
C1230 H1220 0.930 . S
C1230 C1228 1.419 . S
C1230 C1231 1.362 . S
C1231 H1221 0.930 . S
C1231 C1224 1.409 . S
C1231 C1230 1.362 . S
H1232 C1238 0.930 . S
H1233 C1241 0.930 . S
H1234 C1242 0.930 . S
H1235 C1243 0.930 . S
H1236 C1246 0.930 . S
H1237 C1247 0.930 . S
C1238 H1232 0.930 . S
C1238 C1239 1.355 . S
C1238 C1240 1.415 . S
C1239 C1238 1.355 . S
C1239 C1241 1.419 . S
C1240 C1238 1.415 . S
C1240 C1245 1.425 . S
C1240 C1247 1.409 . S
C1241 H1233 0.930 . S
C1241 C1239 1.419 . S
C1241 C1242 1.362 . S
C1242 H1234 0.930 . S
C1242 C1241 1.362 . S
C1242 C1245 1.409 . S
C1243 H1235 0.930 . S
C1243 C1244 1.355 . S
C1243 C1245 1.415 . S
C1244 C1243 1.355 . S
C1244 C1246 1.419 . S
C1245 C1240 1.425 . S
C1245 C1242 1.409 . S
C1245 C1243 1.415 . S
C1246 H1236 0.930 . S
C1246 C1244 1.419 . S
C1246 C1247 1.362 . S
C1247 H1237 0.930 . S
C1247 C1240 1.409 . S
C1247 C1246 1.362 . S
H1248 C1254 0.930 . S
H1249 C1257 0.930 . S
H1250 C1258 0.930 . S
H1251 C1259 0.930 . S
H1252 C1262 0.930 . S
H1253 C1263 0.930 . S
C1254 H1248 0.930 . S
C1254 C1255 1.355 . S
C1254 C1256 1.415 . S
C1255 C1254 1.355 . S
C1255 C1257 1.419 . S
C1256 C1254 1.415 . S
C1256 C1261 1.425 . S
C1256 C1263 1.409 . S
C1257 H1249 0.930 . S
C1257 C1255 1.419 . S
C1257 C1258 1.362 . S
C1258 H1250 0.930 . S
C1258 C1257 1.362 . S
C1258 C1261 1.409 . S
C1259 H1251 0.930 . S
C1259 C1260 1.355 . S
C1259 C1261 1.415 . S
C1260 C1259 1.355 . S
C1260 C1262 1.419 . S
C1261 C1256 1.425 . S
C1261 C1258 1.409 . S
C1261 C1259 1.415 . S
C1262 H1252 0.930 . S
C1262 C1260 1.419 . S
C1262 C1263 1.362 . S
C1263 H1253 0.930 . S
C1263 C1256 1.409 . S
C1263 C1262 1.362 . S
H1264 C1270 0.930 . S
H1265 C1273 0.930 . S
H1266 C1274 0.930 . S
H1267 C1275 0.930 . S
H1268 C1278 0.930 . S
H1269 C1279 0.930 . S
C1270 H1264 0.930 . S
C1270 C1271 1.355 . S
C1270 C1272 1.415 . S
C1271 C1270 1.355 . S
C1271 C1273 1.419 . S
C1272 C1270 1.415 . S
C1272 C1277 1.425 . S
C1272 C1279 1.409 . S
C1273 H1265 0.930 . S
C1273 C1271 1.419 . S
C1273 C1274 1.362 . S
C1274 H1266 0.930 . S
C1274 C1273 1.362 . S
C1274 C1277 1.409 . S
C1275 H1267 0.930 . S
C1275 C1276 1.355 . S
C1275 C1277 1.415 . S
C1276 C1275 1.355 . S
C1276 C1278 1.419 . S
C1277 C1272 1.425 . S
C1277 C1274 1.409 . S
C1277 C1275 1.415 . S
C1278 H1268 0.930 . S
C1278 C1276 1.419 . S
C1278 C1279 1.362 . S
C1279 H1269 0.930 . S
C1279 C1272 1.409 . S
C1279 C1278 1.362 . S
H1280 C1286 0.930 . S
H1281 C1289 0.930 . S
H1282 C1290 0.930 . S
H1283 C1291 0.930 . S
H1284 C1294 0.930 . S
H1285 C1295 0.930 . S
C1286 H1280 0.930 . S
C1286 C1287 1.355 . S
C1286 C1288 1.415 . S
C1287 C1286 1.355 . S
C1287 C1289 1.419 . S
C1288 C1286 1.415 . S
C1288 C1293 1.425 . S
C1288 C1295 1.409 . S
C1289 H1281 0.930 . S
C1289 C1287 1.419 . S
C1289 C1290 1.362 . S
C1290 H1282 0.930 . S
C1290 C1289 1.362 . S
C1290 C1293 1.409 . S
C1291 H1283 0.930 . S
C1291 C1292 1.355 . S
C1291 C1293 1.415 . S
C1292 C1291 1.355 . S
C1292 C1294 1.419 . S
C1293 C1288 1.425 . S
C1293 C1290 1.409 . S
C1293 C1291 1.415 . S
C1294 H1284 0.930 . S
C1294 C1292 1.419 . S
C1294 C1295 1.362 . S
C1295 H1285 0.930 . S
C1295 C1288 1.409 . S
C1295 C1294 1.362 . S
H1296 C1302 0.930 . S
H1297 C1305 0.930 . S
H1298 C1306 0.930 . S
H1299 C1307 0.930 . S
H1300 C1310 0.930 . S
H1301 C1311 0.930 . S
C1302 H1296 0.930 . S
C1302 C1303 1.355 . S
C1302 C1304 1.415 . S
C1303 C1302 1.355 . S
C1303 C1305 1.419 . S
C1304 C1302 1.415 . S
C1304 C1309 1.425 . S
C1304 C1311 1.409 . S
C1305 H1297 0.930 . S
C1305 C1303 1.419 . S
C1305 C1306 1.362 . S
C1306 H1298 0.930 . S
C1306 C1305 1.362 . S
C1306 C1309 1.409 . S
C1307 H1299 0.930 . S
C1307 C1308 1.355 . S
C1307 C1309 1.415 . S
C1308 C1307 1.355 . S
C1308 C1310 1.419 . S
C1309 C1304 1.425 . S
C1309 C1306 1.409 . S
C1309 C1307 1.415 . S
C1310 H1300 0.930 . S
C1310 C1308 1.419 . S
C1310 C1311 1.362 . S
C1311 H1301 0.930 . S
C1311 C1304 1.409 . S
C1311 C1310 1.362 . S
H1312 C1318 0.930 . S
H1313 C1321 0.930 . S
H1314 C1322 0.930 . S
H1315 C1323 0.930 . S
H1316 C1326 0.930 . S
H1317 C1327 0.930 . S
C1318 H1312 0.930 . S
C1318 C1319 1.355 . S
C1318 C1320 1.415 . S
C1319 C1318 1.355 . S
C1319 C1321 1.419 . S
C1320 C1318 1.415 . S
C1320 C1325 1.425 . S
C1320 C1327 1.409 . S
C1321 H1313 0.930 . S
C1321 C1319 1.419 . S
C1321 C1322 1.362 . S
C1322 H1314 0.930 . S
C1322 C1321 1.362 . S
C1322 C1325 1.409 . S
C1323 H1315 0.930 . S
C1323 C1324 1.355 . S
C1323 C1325 1.415 . S
C1324 C1323 1.355 . S
C1324 C1326 1.419 . S
C1325 C1320 1.425 . S
C1325 C1322 1.409 . S
C1325 C1323 1.415 . S
C1326 H1316 0.930 . S
C1326 C1324 1.419 . S
C1326 C1327 1.362 . S
C1327 H1317 0.930 . S
C1327 C1320 1.409 . S
C1327 C1326 1.362 . S
H1328 C1334 0.930 . S
H1329 C1337 0.930 . S
H1330 C1338 0.930 . S
H1331 C1339 0.930 . S
H1332 C1342 0.930 . S
H1333 C1343 0.930 . S
C1334 H1328 0.930 . S
C1334 C1335 1.355 . S
C1334 C1336 1.415 . S
C1335 C1334 1.355 . S
C1335 C1337 1.419 . S
C1336 C1334 1.415 . S
C1336 C1341 1.425 . S
C1336 C1343 1.409 . S
C1337 H1329 0.930 . S
C1337 C1335 1.419 . S
C1337 C1338 1.362 . S
C1338 H1330 0.930 . S
C1338 C1337 1.362 . S
C1338 C1341 1.409 . S
C1339 H1331 0.930 . S
C1339 C1340 1.355 . S
C1339 C1341 1.415 . S
C1340 C1339 1.355 . S
C1340 C1342 1.419 . S
C1341 C1336 1.425 . S
C1341 C1338 1.409 . S
C1341 C1339 1.415 . S
C1342 H1332 0.930 . S
C1342 C1340 1.419 . S
C1342 C1343 1.362 . S
C1343 H1333 0.930 . S
C1343 C1336 1.409 . S
C1343 C1342 1.362 . S
H1344 C1350 0.930 . S
H1345 C1353 0.930 . S
H1346 C1354 0.930 . S
H1347 C1355 0.930 . S
H1348 C1358 0.930 . S
H1349 C1359 0.930 . S
C1350 H1344 0.930 . S
C1350 C1351 1.355 . S
C1350 C1352 1.415 . S
C1351 C1350 1.355 . S
C1351 C1353 1.419 . S
C1352 C1350 1.415 . S
C1352 C1357 1.425 . S
C1352 C1359 1.409 . S
C1353 H1345 0.930 . S
C1353 C1351 1.419 . S
C1353 C1354 1.362 . S
C1354 H1346 0.930 . S
C1354 C1353 1.362 . S
C1354 C1357 1.409 . S
C1355 H1347 0.930 . S
C1355 C1356 1.355 . S
C1355 C1357 1.415 . S
C1356 C1355 1.355 . S
C1356 C1358 1.419 . S
C1357 C1352 1.425 . S
C1357 C1354 1.409 . S
C1357 C1355 1.415 . S
C1358 H1348 0.930 . S
C1358 C1356 1.419 . S
C1358 C1359 1.362 . S
C1359 H1349 0.930 . S
C1359 C1352 1.409 . S
C1359 C1358 1.362 . S
H1360 C1366 0.930 . S
H1361 C1369 0.930 . S
H1362 C1370 0.930 . S
H1363 C1371 0.930 . S
H1364 C1374 0.930 . S
H1365 C1375 0.930 . S
C1366 H1360 0.930 . S
C1366 C1367 1.355 . S
C1366 C1368 1.415 . S
C1367 C1366 1.355 . S
C1367 C1369 1.419 . S
C1368 C1366 1.415 . S
C1368 C1373 1.425 . S
C1368 C1375 1.409 . S
C1369 H1361 0.930 . S
C1369 C1367 1.419 . S
C1369 C1370 1.362 . S
C1370 H1362 0.930 . S
C1370 C1369 1.362 . S
C1370 C1373 1.409 . S
C1371 H1363 0.930 . S
C1371 C1372 1.355 . S
C1371 C1373 1.415 . S
C1372 C1371 1.355 . S
C1372 C1374 1.419 . S
C1373 C1368 1.425 . S
C1373 C1370 1.409 . S
C1373 C1371 1.415 . S
C1374 H1364 0.930 . S
C1374 C1372 1.419 . S
C1374 C1375 1.362 . S
C1375 H1365 0.930 . S
C1375 C1368 1.409 . S
C1375 C1374 1.362 . S
H1376 C1382 0.930 . S
H1377 C1385 0.930 . S
H1378 C1386 0.930 . S
H1379 C1387 0.930 . S
H1380 C1390 0.930 . S
H1381 C1391 0.930 . S
C1382 H1376 0.930 . S
C1382 C1383 1.355 . S
C1382 C1384 1.415 . S
C1383 C1382 1.355 . S
C1383 C1385 1.419 . S
C1384 C1382 1.415 . S
C1384 C1389 1.425 . S
C1384 C1391 1.409 . S
C1385 H1377 0.930 . S
C1385 C1383 1.419 . S
C1385 C1386 1.362 . S
C1386 H1378 0.930 . S
C1386 C1385 1.362 . S
C1386 C1389 1.409 . S
C1387 H1379 0.930 . S
C1387 C1388 1.355 . S
C1387 C1389 1.415 . S
C1388 C1387 1.355 . S
C1388 C1390 1.419 . S
C1389 C1384 1.425 . S
C1389 C1386 1.409 . S
C1389 C1387 1.415 . S
C1390 H1380 0.930 . S
C1390 C1388 1.419 . S
C1390 C1391 1.362 . S
C1391 H1381 0.930 . S
C1391 C1384 1.409 . S
C1391 C1390 1.362 . S
H1392 C1398 0.930 . S
H1393 C1401 0.932 . S
H1394 C1402 0.930 . S
H1395 C1403 0.930 . S
H1396 C1406 0.930 . S
H1397 C1407 0.930 . S
C1398 H1392 0.930 . S
C1398 C1399 1.355 . S
C1398 C1400 1.415 . S
C1399 C1398 1.355 . S
C1399 C1401 1.419 . S
C1400 C1398 1.415 . S
C1400 C1405 1.425 . S
C1400 C1407 1.409 . S
C1401 H1393 0.932 . S
C1401 C1399 1.419 . S
C1401 C1402 1.362 1_554 S
C1402 H1394 0.930 . S
C1402 C1401 1.362 1_556 S
C1402 C1405 1.409 1_556 S
C1403 H1395 0.930 . S
C1403 C1404 1.355 1_556 S
C1403 C1405 1.415 1_556 S
C1404 C1403 1.355 1_554 S
C1404 C1406 1.419 . S
C1405 C1400 1.425 . S
C1405 C1402 1.409 1_554 S
C1405 C1403 1.415 1_554 S
C1406 H1396 0.930 . S
C1406 C1404 1.419 . S
C1406 C1407 1.362 . S
C1407 H1397 0.930 . S
C1407 C1400 1.409 . S
C1407 C1406 1.362 . S
H1408 C1414 0.930 . S
H1409 C1417 0.930 . S
H1410 C1418 0.930 1_565 S
H1411 C1419 0.925 1_556 S
H1412 C1422 0.930 . S
H1413 C1423 0.930 . S
C1414 H1408 0.930 . S
C1414 C1415 1.355 . S
C1414 C1416 1.415 1_545 S
C1415 C1414 1.355 . S
C1415 C1417 1.419 1_554 S
C1416 C1414 1.415 1_565 S
C1416 C1421 1.425 . S
C1416 C1423 1.409 . S
C1417 H1409 0.930 . S
C1417 C1415 1.419 1_556 S
C1417 C1418 1.362 . S
C1418 H1410 0.930 1_545 S
C1418 C1417 1.362 . S
C1418 C1421 1.409 1_546 S
C1419 H1411 0.925 1_554 S
C1419 C1420 1.355 . S
C1419 C1421 1.415 . S
C1420 C1419 1.355 . S
C1420 C1422 1.419 . S
C1421 C1416 1.425 . S
C1421 C1418 1.409 1_564 S
C1421 C1419 1.415 . S
C1422 H1412 0.930 . S
C1422 C1420 1.419 . S
C1422 C1423 1.362 . S
C1423 H1413 0.930 . S
C1423 C1416 1.409 . S
C1423 C1422 1.362 . S
H1424 C1430 0.930 . S
H1425 C1433 0.930 . S
H1426 C1434 0.930 . S
H1427 C1435 0.930 . S
H1428 C1438 0.930 1_556 S
H1429 C1439 0.930 . S
C1430 H1424 0.930 . S
C1430 C1431 1.355 1_556 S
C1430 C1432 1.415 1_656 S
C1431 C1430 1.355 1_554 S
C1431 C1433 1.419 . S
C1432 C1430 1.415 1_454 S
C1432 C1437 1.425 . S
C1432 C1439 1.409 1_554 S
C1433 H1425 0.930 . S
C1433 C1431 1.419 . S
C1433 C1434 1.362 . S
C1434 H1426 0.930 . S
C1434 C1433 1.362 . S
C1434 C1437 1.409 1_655 S
C1435 H1427 0.930 . S
C1435 C1436 1.355 . S
C1435 C1437 1.415 . S
C1436 C1435 1.355 . S
C1436 C1438 1.419 . S
C1437 C1432 1.425 . S
C1437 C1434 1.409 1_455 S
C1437 C1435 1.415 . S
C1438 H1428 0.930 1_554 S
C1438 C1436 1.419 . S
C1438 C1439 1.362 1_554 S
C1439 H1429 0.930 . S
C1439 C1432 1.409 1_556 S
C1439 C1438 1.362 1_556 S
H1440 C1446 0.930 . S
H1441 C1449 0.930 . S
H1442 C1450 0.930 . S
H1443 C1451 0.930 . S
H1444 C1454 0.930 . S
H1445 C1455 0.930 . S
C1446 H1440 0.930 . S
C1446 C1447 1.355 . S
C1446 C1448 1.415 . S
C1447 C1446 1.355 . S
C1447 C1449 1.419 . S
C1448 C1446 1.415 . S
C1448 C1453 1.425 . S
C1448 C1455 1.409 . S
C1449 H1441 0.930 . S
C1449 C1447 1.419 . S
C1449 C1450 1.362 . S
C1450 H1442 0.930 . S
C1450 C1449 1.362 . S
C1450 C1453 1.409 . S
C1451 H1443 0.930 . S
C1451 C1452 1.355 . S
C1451 C1453 1.415 . S
C1452 C1451 1.355 . S
C1452 C1454 1.419 . S
C1453 C1448 1.425 . S
C1453 C1450 1.409 . S
C1453 C1451 1.415 . S
C1454 H1444 0.930 . S
C1454 C1452 1.419 . S
C1454 C1455 1.362 . S
C1455 H1445 0.930 . S
C1455 C1448 1.409 . S
C1455 C1454 1.362 . S
H1456 C1462 0.930 . S
H1457 C1465 0.930 . S
H1458 C1466 0.930 . S
H1459 C1467 0.930 . S
H1460 C1470 0.930 . S
H1461 C1471 0.930 . S
C1462 H1456 0.930 . S
C1462 C1463 1.355 . S
C1462 C1464 1.415 1_565 S
C1463 C1462 1.355 . S
C1463 C1465 1.419 . S
C1464 C1462 1.415 1_545 S
C1464 C1469 1.425 . S
C1464 C1471 1.409 . S
C1465 H1457 0.930 . S
C1465 C1463 1.419 . S
C1465 C1466 1.362 . S
C1466 H1458 0.930 . S
C1466 C1465 1.362 . S
C1466 C1469 1.409 1_565 S
C1467 H1459 0.930 . S
C1467 C1468 1.355 . S
C1467 C1469 1.415 . S
C1468 C1467 1.355 . S
C1468 C1470 1.419 . S
C1469 C1464 1.425 . S
C1469 C1466 1.409 1_545 S
C1469 C1467 1.415 . S
C1470 H1460 0.930 . S
C1470 C1468 1.419 . S
C1470 C1471 1.362 . S
C1471 H1461 0.930 . S
C1471 C1464 1.409 . S
C1471 C1470 1.362 . S
H1472 C1478 0.930 . S
H1473 C1481 0.930 . S
H1474 C1482 0.930 1_455 S
H1475 C1483 0.930 . S
H1476 C1486 0.930 . S
H1477 C1487 0.930 . S
C1478 H1472 0.930 . S
C1478 C1479 1.355 . S
C1478 C1480 1.415 . S
C1479 C1478 1.355 . S
C1479 C1481 1.419 . S
C1480 C1478 1.415 . S
C1480 C1485 1.410 1_655 S
C1480 C1487 1.409 . S
C1481 H1473 0.930 . S
C1481 C1479 1.419 . S
C1481 C1482 1.362 . S
C1482 H1474 0.930 1_655 S
C1482 C1481 1.362 . S
C1482 C1485 1.397 1_655 S
C1483 H1475 0.930 . S
C1483 C1484 1.355 . S
C1483 C1485 1.442 . S
C1484 C1483 1.355 . S
C1484 C1486 1.419 . S
C1485 C1480 1.410 1_455 S
C1485 C1482 1.397 1_455 S
C1485 C1483 1.442 . S
C1486 H1476 0.930 . S
C1486 C1484 1.419 . S
C1486 C1487 1.362 1_455 S
C1487 H1477 0.930 . S
C1487 C1480 1.409 . S
C1487 C1486 1.362 1_655 S
H1488 C1494 0.930 . S
H1489 C1497 0.930 . S
H1490 C1498 0.930 . S
H1491 C1499 0.930 . S
H1492 C1502 0.930 . S
H1493 C1503 0.930 . S
C1494 H1488 0.930 . S
C1494 C1495 1.355 . S
C1494 C1496 1.415 . S
C1495 C1494 1.355 . S
C1495 C1497 1.419 . S
C1496 C1494 1.415 . S
C1496 C1501 1.425 . S
C1496 C1503 1.409 . S
C1497 H1489 0.930 . S
C1497 C1495 1.419 . S
C1497 C1498 1.362 . S
C1498 H1490 0.930 . S
C1498 C1497 1.362 . S
C1498 C1501 1.409 . S
C1499 H1491 0.930 . S
C1499 C1500 1.355 . S
C1499 C1501 1.415 . S
C1500 C1499 1.355 . S
C1500 C1502 1.419 . S
C1501 C1496 1.425 . S
C1501 C1498 1.409 . S
C1501 C1499 1.415 . S
C1502 H1492 0.930 . S
C1502 C1500 1.419 . S
C1502 C1503 1.362 . S
C1503 H1493 0.930 . S
C1503 C1496 1.409 . S
C1503 C1502 1.362 . S
H1504 C1510 0.930 . S
H1505 C1513 0.930 . S
H1506 C1514 0.930 1_565 S
H1507 C1515 0.930 . S
H1508 C1518 0.930 . S
H1509 C1519 0.930 . S
C1510 H1504 0.930 . S
C1510 C1511 1.355 . S
C1510 C1512 1.415 . S
C1511 C1510 1.355 . S
C1511 C1513 1.419 . S
C1512 C1510 1.415 . S
C1512 C1517 1.425 1_545 S
C1512 C1519 1.409 . S
C1513 H1505 0.930 . S
C1513 C1511 1.419 . S
C1513 C1514 1.362 . S
C1514 H1506 0.930 1_545 S
C1514 C1513 1.362 . S
C1514 C1517 1.409 1_545 S
C1515 H1507 0.930 . S
C1515 C1516 1.355 . S
C1515 C1517 1.415 . S
C1516 C1515 1.355 . S
C1516 C1518 1.419 . S
C1517 C1512 1.425 1_565 S
C1517 C1514 1.409 1_565 S
C1517 C1515 1.415 . S
C1518 H1508 0.930 . S
C1518 C1516 1.419 . S
C1518 C1519 1.362 1_565 S
C1519 H1509 0.930 . S
C1519 C1512 1.409 . S
C1519 C1518 1.362 1_545 S
H1520 C1526 0.930 . S
H1521 C1529 0.930 . S
H1522 C1530 0.930 . S
H1523 C1531 0.930 . S
H1524 C1534 0.930 . S
H1525 C1535 0.930 . S
C1526 H1520 0.930 . S
C1526 C1527 1.355 1_554 S
C1526 C1528 1.415 1_454 S
C1527 C1526 1.355 1_556 S
C1527 C1529 1.419 . S
C1528 C1526 1.415 1_656 S
C1528 C1533 1.425 . S
C1528 C1535 1.409 1_556 S
C1529 H1521 0.930 . S
C1529 C1527 1.419 . S
C1529 C1530 1.362 . S
C1530 H1522 0.930 . S
C1530 C1529 1.362 . S
C1530 C1533 1.409 1_455 S
C1531 H1523 0.930 . S
C1531 C1532 1.355 . S
C1531 C1533 1.415 . S
C1532 C1531 1.355 . S
C1532 C1534 1.419 . S
C1533 C1528 1.425 . S
C1533 C1530 1.409 1_655 S
C1533 C1531 1.415 . S
C1534 H1524 0.930 . S
C1534 C1532 1.419 . S
C1534 C1535 1.362 1_556 S
C1535 H1525 0.930 . S
C1535 C1528 1.409 1_554 S
C1535 C1534 1.362 1_554 S
H1536 C1542 0.930 . S
H1537 C1545 0.930 . S
H1538 C1546 0.930 . S
H1539 C1547 0.930 . S
H1540 C1550 0.930 . S
H1541 C1551 0.930 . S
C1542 H1536 0.930 . S
C1542 C1543 1.355 . S
C1542 C1544 1.415 . S
C1543 C1542 1.355 . S
C1543 C1545 1.419 . S
C1544 C1542 1.415 . S
C1544 C1549 1.425 . S
C1544 C1551 1.409 . S
C1545 H1537 0.930 . S
C1545 C1543 1.419 . S
C1545 C1546 1.362 . S
C1546 H1538 0.930 . S
C1546 C1545 1.362 . S
C1546 C1549 1.409 . S
C1547 H1539 0.930 . S
C1547 C1548 1.355 . S
C1547 C1549 1.415 . S
C1548 C1547 1.355 . S
C1548 C1550 1.419 . S
C1549 C1544 1.425 . S
C1549 C1546 1.409 . S
C1549 C1547 1.415 . S
C1550 H1540 0.930 . S
C1550 C1548 1.419 . S
C1550 C1551 1.362 . S
C1551 H1541 0.930 . S
C1551 C1544 1.409 . S
C1551 C1550 1.362 . S
H1552 C1558 0.930 . S
H1553 C1561 0.930 . S
H1554 C1562 0.930 1_545 S
H1555 C1563 0.930 . S
H1556 C1566 0.930 . S
H1557 C1567 0.930 . S
C1558 H1552 0.930 . S
C1558 C1559 1.355 . S
C1558 C1560 1.415 . S
C1559 C1558 1.355 . S
C1559 C1561 1.419 . S
C1560 C1558 1.415 . S
C1560 C1565 1.425 1_565 S
C1560 C1567 1.409 . S
C1561 H1553 0.930 . S
C1561 C1559 1.419 . S
C1561 C1562 1.362 . S
C1562 H1554 0.930 1_565 S
C1562 C1561 1.362 . S
C1562 C1565 1.409 1_565 S
C1563 H1555 0.930 . S
C1563 C1564 1.355 . S
C1563 C1565 1.415 . S
C1564 C1563 1.355 . S
C1564 C1566 1.419 . S
C1565 C1560 1.425 1_545 S
C1565 C1562 1.409 1_545 S
C1565 C1563 1.415 . S
C1566 H1556 0.930 . S
C1566 C1564 1.419 . S
C1566 C1567 1.362 1_545 S
C1567 H1557 0.930 . S
C1567 C1560 1.409 . S
C1567 C1566 1.362 1_565 S
H1568 C1574 0.930 . S
H1569 C1577 0.930 . S
H1570 C1578 0.930 . S
H1571 C1579 0.930 . S
H1572 C1582 0.930 . S
H1573 C1583 0.930 . S
C1574 H1568 0.930 . S
C1574 C1575 1.355 . S
C1574 C1576 1.415 1_655 S
C1575 C1574 1.355 . S
C1575 C1577 1.419 . S
C1576 C1574 1.415 1_455 S
C1576 C1581 1.425 . S
C1576 C1583 1.409 . S
C1577 H1569 0.930 . S
C1577 C1575 1.419 . S
C1577 C1578 1.362 . S
C1578 H1570 0.930 . S
C1578 C1577 1.362 . S
C1578 C1581 1.409 1_655 S
C1579 H1571 0.930 . S
C1579 C1580 1.355 . S
C1579 C1581 1.415 . S
C1580 C1579 1.355 . S
C1580 C1582 1.419 . S
C1581 C1576 1.425 . S
C1581 C1578 1.409 1_455 S
C1581 C1579 1.415 . S
C1582 H1572 0.930 . S
C1582 C1580 1.419 . S
C1582 C1583 1.362 . S
C1583 H1573 0.930 . S
C1583 C1576 1.409 . S
C1583 C1582 1.362 . S
C1015 C58 1.498 . S
C1020 C573 1.498 . S
C1031 C657 1.565 . S
C1036 C142 1.565 . S
C1047 C741 1.511 . S
C1052 C226 1.511 . S
C1063 C310 1.456 . S
C1068 C825 1.456 . S
C1079 C909 1.584 . S
C1084 C394 1.584 . S
C1095 C993 1.467 . S
C1100 C478 1.467 . S
C1111 C399 1.657 . S
C1116 C63 1.632 . S
C1127 C147 1.601 . S
C1132 C483 1.642 . S
C1143 C315 1.623 . S
C1148 C231 1.594 . S
C1159 C914 1.601 . S
C1164 C578 1.641 . S
C1175 C998 1.647 . S
C1180 C662 1.651 . S
C1191 C746 1.594 . S
C1196 C830 1.620 . S
C1207 C991 1.591 . S
C1212 C74 1.570 . S
C1223 C158 1.562 . S
C1228 C823 1.563 . S
C1239 C242 1.574 . S
C1244 C907 1.547 . S
C1255 C326 1.568 . S
C1260 C655 1.550 . S
C1271 C410 1.600 . S
C1276 C739 1.607 . S
C1287 C571 1.550 . S
C1292 C494 1.596 . S
C1303 C567 1.616 . S
C1308 C476 1.584 . S
C1319 C308 1.547 . S
C1324 C651 1.591 . S
C1335 C735 1.615 . S
C1340 C392 1.595 . S
C1351 C140 1.607 . S
C1356 C819 1.591 . S
C1367 C903 1.562 . S
C1372 C224 1.570 . S
C1383 C56 1.549 . S
C1388 C987 1.570 . S
C1399 C69 1.835 . S
C1404 C644 1.794 1_554 S
C1415 C728 1.725 1_554 S
C1420 C153 1.808 . S
C1431 C560 1.789 1_554 S
C1436 C237 1.838 . S
C1447 C321 1.838 . S
C1452 C980 1.790 . S
C1463 C812 1.769 . S
C1468 C405 1.839 . S
C1479 C489 1.796 . S
C1484 C896 1.741 . S
C1495 C151 1.789 1_556 S
C1500 C562 1.817 . S
C1511 C646 1.806 . S
C1516 C235 1.775 1_556 S
C1527 C67 1.765 1_556 S
C1532 C730 1.838 . S
C1543 C814 1.797 . S
C1548 C487 1.751 . S
C1559 C898 1.797 . S
C1564 C319 1.732 . S
C1575 C403 1.776 . S
C1580 C982 1.840 . S
