# Generated by pormake.
# Topology yfk, (5)-cn, num edge types: 1
# Building blocks:
#     Node 0, Type 0, BuildingBlock: XOMCOT_clean_sbu_1, # of connection points: 5
#     Node 1, Type 0, BuildingBlock: XOMCOT_clean_sbu_1, # of connection points: 5
#     Node 2, Type 0, BuildingBlock: XOMCOT_clean_sbu_1, # of connection points: 5
#     Node 3, Type 0, BuildingBlock: XOMCOT_clean_sbu_1, # of connection points: 5
#     Node 4, Type 0, BuildingBlock: XOMCOT_clean_sbu_1, # of connection points: 5
#     Node 5, Type 0, BuildingBlock: XOMCOT_clean_sbu_1, # of connection points: 5
#     Node 6, Type 0, BuildingBlock: XOMCOT_clean_sbu_1, # of connection points: 5
#     Node 7, Type 0, BuildingBlock: XOMCOT_clean_sbu_1, # of connection points: 5
#     Node 8, Type 0, BuildingBlock: XOMCOT_clean_sbu_1, # of connection points: 5
#     Node 9, Type 0, BuildingBlock: XOMCOT_clean_sbu_1, # of connection points: 5
#     Node 10, Type 0, BuildingBlock: XOMCOT_clean_sbu_1, # of connection points: 5
#     Node 11, Type 0, BuildingBlock: XOMCOT_clean_sbu_1, # of connection points: 5
#     Node 12, Type 0, BuildingBlock: XOMCOT_clean_sbu_1, # of connection points: 5
#     Node 13, Type 0, BuildingBlock: XOMCOT_clean_sbu_1, # of connection points: 5
#     Node 14, Type 0, BuildingBlock: XOMCOT_clean_sbu_1, # of connection points: 5
#     Node 15, Type 0, BuildingBlock: XOMCOT_clean_sbu_1, # of connection points: 5
#     Edge 16, Type (0, 0), BuildingBlock: XUDNAN_clean_linker_2, # of connection points: 2
#     Edge 17, Type (0, 0), BuildingBlock: XUDNAN_clean_linker_2, # of connection points: 2
#     Edge 18, Type (0, 0), BuildingBlock: XUDNAN_clean_linker_2, # of connection points: 2
#     Edge 19, Type (0, 0), BuildingBlock: XUDNAN_clean_linker_2, # of connection points: 2
#     Edge 20, Type (0, 0), BuildingBlock: XUDNAN_clean_linker_2, # of connection points: 2
#     Edge 21, Type (0, 0), BuildingBlock: XUDNAN_clean_linker_2, # of connection points: 2
#     Edge 22, Type (0, 0), BuildingBlock: XUDNAN_clean_linker_2, # of connection points: 2
#     Edge 23, Type (0, 0), BuildingBlock: XUDNAN_clean_linker_2, # of connection points: 2
#     Edge 24, Type (0, 0), BuildingBlock: XUDNAN_clean_linker_2, # of connection points: 2
#     Edge 25, Type (0, 0), BuildingBlock: XUDNAN_clean_linker_2, # of connection points: 2
#     Edge 26, Type (0, 0), BuildingBlock: XUDNAN_clean_linker_2, # of connection points: 2
#     Edge 27, Type (0, 0), BuildingBlock: XUDNAN_clean_linker_2, # of connection points: 2
#     Edge 28, Type (0, 0), BuildingBlock: XUDNAN_clean_linker_2, # of connection points: 2
#     Edge 29, Type (0, 0), BuildingBlock: XUDNAN_clean_linker_2, # of connection points: 2
#     Edge 30, Type (0, 0), BuildingBlock: XUDNAN_clean_linker_2, # of connection points: 2
#     Edge 31, Type (0, 0), BuildingBlock: XUDNAN_clean_linker_2, # of connection points: 2
#     Edge 32, Type (0, 0), BuildingBlock: XUDNAN_clean_linker_2, # of connection points: 2
#     Edge 33, Type (0, 0), BuildingBlock: XUDNAN_clean_linker_2, # of connection points: 2
#     Edge 34, Type (0, 0), BuildingBlock: XUDNAN_clean_linker_2, # of connection points: 2
#     Edge 35, Type (0, 0), BuildingBlock: XUDNAN_clean_linker_2, # of connection points: 2
#     Edge 36, Type (0, 0), BuildingBlock: XUDNAN_clean_linker_2, # of connection points: 2
#     Edge 37, Type (0, 0), BuildingBlock: XUDNAN_clean_linker_2, # of connection points: 2
#     Edge 38, Type (0, 0), BuildingBlock: XUDNAN_clean_linker_2, # of connection points: 2
#     Edge 39, Type (0, 0), BuildingBlock: XUDNAN_clean_linker_2, # of connection points: 2
#     Edge 40, Type (0, 0), BuildingBlock: XUDNAN_clean_linker_2, # of connection points: 2
#     Edge 41, Type (0, 0), BuildingBlock: XUDNAN_clean_linker_2, # of connection points: 2
#     Edge 42, Type (0, 0), BuildingBlock: XUDNAN_clean_linker_2, # of connection points: 2
#     Edge 43, Type (0, 0), BuildingBlock: XUDNAN_clean_linker_2, # of connection points: 2
#     Edge 44, Type (0, 0), BuildingBlock: XUDNAN_clean_linker_2, # of connection points: 2
#     Edge 45, Type (0, 0), BuildingBlock: XUDNAN_clean_linker_2, # of connection points: 2
#     Edge 46, Type (0, 0), BuildingBlock: XUDNAN_clean_linker_2, # of connection points: 2
#     Edge 47, Type (0, 0), BuildingBlock: XUDNAN_clean_linker_2, # of connection points: 2
#     Edge 48, Type (0, 0), BuildingBlock: XUDNAN_clean_linker_2, # of connection points: 2
#     Edge 49, Type (0, 0), BuildingBlock: XUDNAN_clean_linker_2, # of connection points: 2
#     Edge 50, Type (0, 0), BuildingBlock: XUDNAN_clean_linker_2, # of connection points: 2
#     Edge 51, Type (0, 0), BuildingBlock: XUDNAN_clean_linker_2, # of connection points: 2
#     Edge 52, Type (0, 0), BuildingBlock: XUDNAN_clean_linker_2, # of connection points: 2
#     Edge 53, Type (0, 0), BuildingBlock: XUDNAN_clean_linker_2, # of connection points: 2
#     Edge 54, Type (0, 0), BuildingBlock: XUDNAN_clean_linker_2, # of connection points: 2
#     Edge 55, Type (0, 0), BuildingBlock: XUDNAN_clean_linker_2, # of connection points: 2
# Relax obj value: 0.583
# Max RMSD: 0.279
# Mean RMSD: 0.279
data_MOF--net-yfk--node1-XOMCOT_clean_sbu_1--edge1-XUDNAN_clean_linker_2
_symmetry_space_group_name_H-M    P1
_symmetry_Int_Tables_number       1
_symmetry_cell_setting            triclinic
loop_
_symmetry_equiv_pos_as_xyz
'x, y, z'
_cell_length_a     48.780581
_cell_length_b     48.700107
_cell_length_c     28.071958
_cell_angle_alpha  90.097161
_cell_angle_beta   89.927812
_cell_angle_gamma 90.063977
loop_
_atom_site_label
_atom_site_type_symbol
_atom_site_fract_x
_atom_site_fract_y
_atom_site_fract_z
_atom_type_partial_charge
C0 C 0.1102 0.16723 0.37499 0.0
C1 C 0.11932 0.1582 0.41847 0.0
N2 N 0.13378 0.135 0.41152 0.0
N3 N 0.11841 0.14953 0.34084 0.0
C4 C 0.13244 0.1299 0.36428 0.0
H5 H 0.10048 0.18679 0.36822 0.0
Co6 Co 0.12086 0.15848 0.27666 0.0
C7 C 0.089 0.11297 0.22924 0.0
O8 O 0.07822 0.13117 0.20033 0.0
N9 N 0.12561 0.16995 0.21362 0.0
C10 C 0.13364 0.17922 0.13707 0.0
C11 C 0.12674 0.1589 0.16944 0.0
C12 C 0.13377 0.19617 0.20734 0.0
N13 N 0.13814 0.20265 0.1614 0.0
O14 O 0.15887 0.14667 0.27755 0.0
H15 H 0.12386 0.13744 0.16108 0.0
H16 H 0.13635 0.21046 0.23655 0.0
O17 O 0.10774 0.1206 0.25877 0.0
C18 C 0.17515 0.16383 0.2972 0.0
O19 O 0.16525 0.18782 0.31004 0.0
N20 N 0.08362 0.17104 0.27795 0.0
C21 C 0.02966 0.18879 0.29285 0.0
C22 C 0.03776 0.16216 0.30499 0.0
C23 C 0.06464 0.15399 0.2982 0.0
C24 C 0.07613 0.19721 0.26587 0.0
C25 C 0.0492 0.20648 0.27287 0.0
H26 H 0.0705 0.13428 0.31212 0.0
H27 H 0.091 0.21176 0.25323 0.0
H28 H 0.14351 0.11361 0.34645 0.0
H29 H 0.11762 0.16922 0.45186 0.0
H30 H 0.13597 0.17676 0.09895 0.0
H31 H 0.02398 0.14816 0.32308 0.0
H32 H 0.04402 0.22755 0.26457 0.0
C33 C 0.16183 0.93175 0.5763 0.0
C34 C 0.15281 0.92297 0.53267 0.0
N35 N 0.12864 0.91005 0.53878 0.0
N36 N 0.14322 0.92492 0.60983 0.0
C37 C 0.12314 0.91177 0.5859 0.0
H38 H 0.18176 0.94052 0.58362 0.0
Co39 Co 0.15161 0.92388 0.6741 0.0
C40 C 0.10926 0.95741 0.72196 0.0
O41 O 0.12934 0.96686 0.74855 0.0
N42 N 0.16223 0.92043 0.73775 0.0
C43 C 0.16558 0.90707 0.81342 0.0
C44 C 0.14775 0.91439 0.77748 0.0
C45 C 0.18846 0.91516 0.74984 0.0
N46 N 0.19123 0.90771 0.79572 0.0
O47 O 0.13878 0.8866 0.67558 0.0
H48 H 0.12563 0.91355 0.77953 0.0
H49 H 0.20496 0.91387 0.72426 0.0
O50 O 0.11429 0.93801 0.69199 0.0
C51 C 0.15617 0.86895 0.66116 0.0
O52 O 0.18139 0.87717 0.65281 0.0
N53 N 0.16488 0.96089 0.66967 0.0
C54 C 0.18347 1.01347 0.64563 0.0
C55 C 0.15612 1.00598 0.63869 0.0
C56 C 0.14756 0.97964 0.64943 0.0
C57 C 0.19174 0.9679 0.67693 0.0
C58 C 0.20149 0.99415 0.66513 0.0
H59 H 0.1272 0.97391 0.63815 0.0
H60 H 0.2064 0.95289 0.6884 0.0
H61 H 0.10591 0.90195 0.60325 0.0
H62 H 0.16424 0.92409 0.49967 0.0
H63 H 0.16 0.9007 0.84906 0.0
H64 H 0.1418 1.01961 0.62114 0.0
H65 H 0.22308 0.99885 0.66908 0.0
C66 C 0.93432 0.90747 0.36551 0.0
C67 C 0.927 0.91654 0.40995 0.0
N68 N 0.91238 0.93973 0.40478 0.0
N69 N 0.9249 0.92521 0.33244 0.0
C70 C 0.91178 0.94483 0.35758 0.0
H71 H 0.9437 0.88787 0.35774 0.0
Co72 Co 0.92099 0.91648 0.26842 0.0
C73 C 0.95408 0.96195 0.22161 0.0
O74 O 0.9651 0.94421 0.19204 0.0
N75 N 0.91522 0.90493 0.20546 0.0
C76 C 0.91264 0.88977 0.1306 0.0
C77 C 0.91828 0.91228 0.15938 0.0
C78 C 0.90549 0.8791 0.20307 0.0
N79 N 0.9051 0.86857 0.15865 0.0
O80 O 0.88342 0.93006 0.27109 0.0
H81 H 0.92464 0.93225 0.14695 0.0
H82 H 0.90005 0.86783 0.23469 0.0
O83 O 0.93533 0.95382 0.2507 0.0
C84 C 0.86704 0.91368 0.29249 0.0
O85 O 0.87661 0.88975 0.30619 0.0
N86 N 0.95735 0.90175 0.2684 0.0
C87 C 1.00761 0.87798 0.29268 0.0
C88 C 1.00356 0.90632 0.29676 0.0
C89 C 0.97828 0.91757 0.28569 0.0
C90 C 0.96143 0.87415 0.26217 0.0
C91 C 0.98644 0.86188 0.27394 0.0
H92 H 0.97483 0.93848 0.29638 0.0
H93 H 0.94483 0.86078 0.25256 0.0
H94 H 0.90001 0.96116 0.34139 0.0
H95 H 0.92996 0.90557 0.44306 0.0
H96 H 0.91506 0.88893 0.09232 0.0
H97 H 1.01875 0.91944 0.31341 0.0
H98 H 0.98851 0.83977 0.27161 0.0
C99 C 0.93697 0.11055 0.58901 0.0
C100 C 0.93872 0.11868 0.54211 0.0
N101 N 0.93008 0.14492 0.53915 0.0
N102 N 0.92739 0.1317 0.61523 0.0
C103 C 0.92315 0.15214 0.58383 0.0
H104 H 0.94237 0.0906 0.60302 0.0
Co105 Co 0.91957 0.13413 0.67959 0.0
C106 C 0.97445 0.1081 0.7027 0.0
O107 O 0.98724 0.13154 0.70934 0.0
N108 N 0.91066 0.13732 0.74346 0.0
C109 C 0.90656 0.14101 0.82204 0.0
C110 C 0.92487 0.1379 0.78462 0.0
C111 C 0.88425 0.14032 0.75638 0.0
N112 N 0.88103 0.14223 0.80378 0.0
O113 O 0.94359 0.16556 0.68314 0.0
H114 H 0.94691 0.13615 0.7873 0.0
H115 H 0.86758 0.14123 0.73102 0.0
O116 O 0.94898 0.108 0.69259 0.0
C117 C 0.92987 0.18781 0.6828 0.0
O118 O 0.90325 0.18608 0.68946 0.0
N119 N 0.89512 0.10478 0.6743 0.0
C120 C 0.86435 0.05884 0.65087 0.0
C121 C 0.88137 0.05869 0.69123 0.0
C122 C 0.897 0.08184 0.70191 0.0
C123 C 0.87525 0.10689 0.64053 0.0
C124 C 0.85989 0.08397 0.62758 0.0
H125 H 0.91157 0.08089 0.73086 0.0
H126 H 0.8729 0.12579 0.6208 0.0
H127 H 0.91501 0.17202 0.59347 0.0
H128 H 0.9467 0.10658 0.51284 0.0
H129 H 0.91156 0.1418 0.85957 0.0
H130 H 0.88449 0.04014 0.71174 0.0
H131 H 0.84682 0.08551 0.59659 0.0
C132 C 0.09494 0.39455 0.80435 0.0
C133 C 0.10085 0.39822 0.75714 0.0
N134 N 0.1123 0.42321 0.7517 0.0
N135 N 0.10214 0.41724 0.82892 0.0
C136 C 0.11225 0.43456 0.79581 0.0
H137 H 0.0887 0.37536 0.82042 0.0
Co138 Co 0.10963 0.41555 0.8938 0.0
C139 C 0.075 0.45905 0.93813 0.0
O140 O 0.07118 0.44138 0.97282 0.0
N141 N 0.11972 0.41093 0.95752 0.0
C142 C 0.13356 0.41046 0.03317 0.0
C143 C 0.12459 0.42686 -0.00393 0.0
C144 C 0.12814 0.38577 0.97095 0.0
N145 N 0.13538 0.38441 0.01712 0.0
O146 O 0.14563 0.43134 0.8807 0.0
H147 H 0.12202 0.4489 -0.00272 0.0
H148 H 0.12963 0.36868 0.94646 0.0
O149 O 0.09258 0.45314 0.90528 0.0
C150 C 0.16207 0.41397 0.86206 0.0
O151 O 0.15451 0.38806 0.86127 0.0
N152 N 0.07402 0.39906 0.90387 0.0
C153 C 1.02137 0.37575 0.90098 0.0
C154 C 0.02666 0.40154 0.88119 0.0
C155 C 0.05279 0.41236 0.88209 0.0
C156 C 0.0693 0.37381 0.92384 0.0
C157 C 0.04307 0.36183 0.92292 0.0
H158 H 0.05608 0.43109 0.86238 0.0
H159 H 0.0857 0.36167 0.93789 0.0
H160 H 0.12202 0.45378 0.80498 0.0
H161 H 0.09949 0.38243 0.73011 0.0
H162 H 0.13803 0.41716 0.0691 0.0
H163 H 1.01124 0.41266 0.86139 0.0
H164 H 0.04017 0.34132 0.93694 0.0
C165 C 0.4009 0.90192 0.14199 0.0
C166 C 0.40811 0.89179 0.18554 0.0
N167 N 0.43341 0.881 0.18193 0.0
N168 N 0.42171 0.89813 0.11099 0.0
C169 C 0.44134 0.88528 0.13634 0.0
H170 H 0.38078 0.90941 0.13248 0.0
Co171 Co 0.41519 0.89935 0.04612 0.0
C172 C 0.45712 0.93835 0.00823 0.0
O173 O 0.43686 0.95084 -0.01366 0.0
N174 N 0.40575 0.89807 -0.01828 0.0
C175 C 0.39779 0.89728 0.90352 0.0
C176 C 0.41719 0.90237 0.93845 0.0
C177 C 0.38044 0.88862 0.97184 0.0
N178 N 0.3747 0.88853 0.92503 0.0
O179 O 0.43016 0.86258 0.0415 0.0
H180 H 0.43816 0.90853 0.93219 0.0
H181 H 0.36594 0.88277 -0.00081 0.0
O182 O 0.4522 0.91629 0.03221 0.0
C183 C 0.41379 0.84389 0.05604 0.0
O184 O 0.38825 0.85077 0.06488 0.0
N185 N 0.39963 0.93522 0.05412 0.0
C186 C 0.37647 0.9845 0.0848 0.0
C187 C 0.40361 0.97819 0.0956 0.0
C188 C 0.41458 0.95344 0.08079 0.0
C189 C 0.37311 0.94147 0.04233 0.0
C190 C 0.36117 0.96629 0.05699 0.0
H191 H 0.43487 0.94832 0.09329 0.0
H192 H 0.36031 0.92687 0.02417 0.0
H193 H 0.46005 0.87741 0.12075 0.0
H194 H 0.39487 0.89057 0.21643 0.0
H195 H 0.40049 0.89966 0.86547 0.0
H196 H 0.41591 0.99176 0.11758 0.0
H197 H 0.33987 0.97048 0.04892 0.0
C198 C 0.86295 0.65068 0.81378 0.0
C199 C 0.85071 0.63807 0.77588 0.0
N200 N 0.85124 0.61073 0.78319 0.0
N201 N 0.87155 0.63153 0.84493 0.0
C202 C 0.8643 0.60729 0.82536 0.0
H203 H 0.86516 0.67259 0.81885 0.0
Co204 Co 0.88708 0.64201 0.90218 0.0
C205 C 0.93896 0.6087 0.90813 0.0
O206 O 0.95245 0.63169 0.91555 0.0
N207 N 0.90053 0.65441 0.96082 0.0
C208 C 0.91724 0.66017 0.03392 0.0
C209 C 0.91474 0.64218 -0.00381 0.0
C210 C 0.89319 0.67897 0.97927 0.0
N211 N 0.90385 0.68347 0.02283 0.0
O212 O 0.8602 0.62037 0.9369 0.0
H213 H 0.92212 0.62129 -0.00429 0.0
H214 H 0.87948 0.69308 0.96149 0.0
O215 O 0.91269 0.60943 0.90279 0.0
C216 C 0.83524 0.61219 0.93542 0.0
O217 O 0.82685 0.59508 0.9685 0.0
N218 N 0.91364 0.66304 0.86728 0.0
C219 C 0.95466 0.68937 0.8152 0.0
C220 C 0.94664 0.66263 0.80382 0.0
C221 C 0.92619 0.64995 0.82997 0.0
C222 C 0.9197 0.69003 0.87618 0.0
C223 C 0.94082 0.70337 0.85145 0.0
H224 H 0.9211 0.62899 0.82095 0.0
H225 H 0.90856 0.70164 0.90227 0.0
H226 H 0.86789 0.58774 0.84247 0.0
H227 H 0.84241 0.64848 0.74515 0.0
H228 H 0.92802 0.65635 0.06692 0.0
H229 H 0.95701 0.65101 0.77619 0.0
H230 H 0.94633 0.72428 0.86061 0.0
C231 C 0.65726 0.10057 0.13633 0.0
C232 C 0.64551 0.11142 0.17665 0.0
N233 N 0.62036 0.12087 0.16535 0.0
N234 N 0.63954 0.1029 0.09981 0.0
C235 C 0.61693 0.11435 0.11891 0.0
H236 H 0.6786 0.09495 0.13249 0.0
Co237 Co 0.65051 0.10648 0.03675 0.0
C238 C 0.6147 0.06607 -0.01324 0.0
O239 O 0.63658 0.05921 0.96213 0.0
N240 N 0.66313 0.11263 0.97456 0.0
C241 C 0.67301 0.12102 0.8983 0.0
C242 C 0.6532 0.11151 0.92962 0.0
C243 C 0.6878 0.12478 0.96963 0.0
N244 N 0.69471 0.12946 0.92404 0.0
O245 O 0.6334 0.1425 0.03578 0.0
H246 H 0.63278 0.10495 0.91996 0.0
H247 H 0.70086 0.12984 -0.00054 0.0
O248 O 0.61607 0.08691 0.01502 0.0
C249 C 0.64967 0.15944 0.05617 0.0
O250 O 0.67403 0.15045 0.06857 0.0
N251 N 0.66917 0.07207 0.04098 0.0
C252 C 0.69659 1.02312 0.06148 0.0
C253 C 0.66849 0.02589 0.07044 0.0
C254 C 0.65545 0.05053 0.06113 0.0
C255 C 0.69666 0.06968 0.03196 0.0
C256 C 0.71074 0.04532 0.04171 0.0
H257 H 0.6344 0.05263 0.07248 0.0
H258 H 0.70856 0.08689 0.02019 0.0
H259 H 0.59984 0.12101 0.09737 0.0
H260 H 0.65612 0.11521 0.20984 0.0
H261 H 0.67138 0.12214 0.8599 0.0
H262 H 0.65693 1.00987 0.08819 0.0
H263 H 0.73271 0.04436 0.03629 0.0
C264 C 0.67347 0.63417 0.8437 0.0
C265 C 0.67897 0.62297 0.88716 0.0
N266 N 0.657 0.60826 0.90043 0.0
N267 N 0.64828 0.62637 0.82938 0.0
C268 C 0.63837 0.61083 0.86524 0.0
H269 H 0.68612 0.64897 0.82538 0.0
Co270 Co 0.6339 0.64216 0.77583 0.0
C271 C 0.59742 0.59439 0.7444 0.0
O272 O 0.6126 0.5893 0.70673 0.0
N273 N 0.62119 0.66046 0.72289 0.0
C274 C 0.60026 0.68253 0.66401 0.0
C275 C 0.60311 0.65745 0.6869 0.0
C276 C 0.62912 0.68687 0.72083 0.0
N277 N 0.61645 0.70099 0.68626 0.0
O278 O 0.65893 0.62005 0.73808 0.0
H279 H 0.59155 0.639 0.67948 0.0
H280 H 0.64333 0.69583 0.74607 0.0
O281 O 0.60443 0.61379 0.77276 0.0
C282 C 0.67925 0.63102 0.71649 0.0
O283 O 0.67416 0.64993 0.68441 0.0
N284 N 0.61126 0.66426 0.81358 0.0
C285 C 0.57933 0.69287 0.87864 0.0
C286 C 0.56705 0.67805 0.84147 0.0
C287 C 0.58342 0.66394 0.80909 0.0
C288 C 0.62356 0.68115 0.84596 0.0
C289 C 0.60793 0.69536 0.87949 0.0
H290 H 0.57361 0.65203 0.78145 0.0
H291 H 0.64563 0.68264 0.84723 0.0
H292 H 0.61776 0.6026 0.8665 0.0
H293 H 0.69686 0.62682 0.90894 0.0
H294 H 0.58624 0.68717 0.63527 0.0
H295 H 0.54501 0.67557 0.83945 0.0
H296 H 0.61811 0.70695 0.90731 0.0
C297 C 0.62617 0.39984 0.10845 0.0
C298 C 0.60696 0.39331 0.07471 0.0
N299 N 0.58396 0.38503 0.09725 0.0
N300 N 0.61513 0.3962 0.15196 0.0
C301 C 0.58947 0.38707 0.14419 0.0
H302 H 0.64711 0.40615 0.10191 0.0
Co303 Co 0.63498 0.39734 0.20743 0.0
C304 C 0.60295 0.43272 0.27302 0.0
O305 O 0.62653 0.44394 0.28449 0.0
N306 N 0.65685 0.39586 0.26197 0.0
C307 C 0.67624 0.38986 0.33309 0.0
C308 C 0.65187 0.39436 0.30934 0.0
C309 C 0.68376 0.39004 0.2579 0.0
N310 N 0.69611 0.38696 0.30025 0.0
O311 O 0.62471 0.35949 0.21737 0.0
H312 H 0.63184 0.39549 0.32571 0.0
H313 H 0.6942 0.38777 0.2241 0.0
O314 O 0.60242 0.41211 0.24407 0.0
C315 C 0.64102 0.34364 0.19477 0.0
O316 O 0.66273 0.35452 0.17447 0.0
N317 N 0.6454 0.43456 0.19369 0.0
C318 C 0.65559 0.48891 0.16681 0.0
C319 C 0.62912 0.47815 0.16565 0.0
C320 C 0.62461 0.45114 0.17829 0.0
C321 C 0.67164 0.44456 0.19418 0.0
C322 C 0.67717 0.4718 0.18103 0.0
H323 H 0.6041 0.44331 0.17439 0.0
H324 H 0.6887 0.43164 0.20289 0.0
H325 H 0.57569 0.38076 0.17237 0.0
H326 H 0.60985 0.39445 0.03654 0.0
H327 H 0.67901 0.38792 0.37119 0.0
H328 H 0.61201 0.49 0.15226 0.0
H329 H 0.69814 0.47913 0.18066 0.0
C330 C 0.34973 0.44304 0.84112 0.0
C331 C 0.34769 0.45037 0.888 0.0
N332 N 0.37229 0.45959 0.90217 0.0
N333 N 0.37527 0.44842 0.82518 0.0
C334 C 0.38879 0.45819 0.86362 0.0
H335 H 0.33451 0.4315 0.82176 0.0
Co336 Co 0.38808 0.43407 0.76834 0.0
C337 C 0.43397 0.47221 0.73239 0.0
O338 O 0.43857 0.45599 0.69595 0.0
N339 N 0.39981 0.41734 0.71079 0.0
C340 C 0.40131 0.40235 0.63558 0.0
C341 C 0.3943 0.42404 0.66501 0.0
C342 C 0.40987 0.39151 0.70791 0.0
N343 N 0.41117 0.38197 0.66294 0.0
O344 O 0.35835 0.45315 0.73606 0.0
H345 H 0.38455 0.4429 0.65389 0.0
H346 H 0.41407 0.37875 0.73843 0.0
O347 O 0.4145 0.46624 0.76177 0.0
C348 C 0.33902 0.43637 0.72575 0.0
O349 O 0.34406 0.40994 0.72906 0.0
N350 N 0.41364 0.41386 0.80288 0.0
C351 C 0.44296 0.38469 0.87046 0.0
C352 C 0.45627 0.40361 0.84062 0.0
C353 C 0.44118 0.41807 0.80681 0.0
C354 C 0.4009 0.39398 0.82898 0.0
C355 C 0.41513 0.37929 0.86338 0.0
H356 H 0.45161 0.43309 0.78543 0.0
H357 H 0.37915 0.39051 0.82451 0.0
H358 H 0.41069 0.46179 0.8645 0.0
H359 H 0.33042 0.4464 0.91128 0.0
H360 H 0.39844 0.4013 0.59739 0.0
H361 H 0.4778 0.4084 0.8452 0.0
H362 H 0.40427 0.3646 0.88539 0.0
C363 C 0.43648 0.59623 0.14321 0.0
C364 C 0.44823 0.60563 0.10191 0.0
N365 N 0.47061 0.62035 0.11359 0.0
N366 N 0.4515 0.60499 0.1806 0.0
C367 C 0.47267 0.61886 0.1613 0.0
H368 H 0.41634 0.58705 0.14607 0.0
Co369 Co 0.43632 0.61174 0.23985 0.0
C370 C 0.47356 0.58401 0.30705 0.0
O371 O 0.45139 0.57708 0.3308 0.0
N372 N 0.41929 0.62095 0.29713 0.0
C373 C 0.40608 0.64033 0.36554 0.0
C374 C 0.42788 0.62902 0.34082 0.0
C375 C 0.393 0.62928 0.29527 0.0
N376 N 0.38437 0.64067 0.33613 0.0
O377 O 0.44728 0.65002 0.23352 0.0
H378 H 0.4489 0.62861 0.35296 0.0
H379 H 0.3806 0.62821 0.26339 0.0
O380 O 0.47138 0.60047 0.27142 0.0
C381 C 0.43005 0.66283 0.20743 0.0
O382 O 0.40819 0.64944 0.19289 0.0
N383 N 0.42412 0.57428 0.24264 0.0
C384 C 0.40601 0.52194 0.21614 0.0
C385 C 0.43397 0.52835 0.21627 0.0
C386 C 0.44242 0.55454 0.2288 0.0
C387 C 0.39712 0.56739 0.24798 0.0
C388 C 0.3877 0.54118 0.23557 0.0
H389 H 0.46338 0.55976 0.22137 0.0
H390 H 0.38209 0.58248 0.25755 0.0
H391 H 0.4865 0.63155 0.18198 0.0
H392 H 0.43926 0.60454 0.0667 0.0
H393 H 0.40656 0.64914 0.40096 0.0
H394 H 0.44907 0.51471 0.20079 0.0
H395 H 0.3659 0.53703 0.23671 0.0
C396 C 0.62271 0.89889 0.35224 0.0
C397 C 0.63392 0.90232 0.30791 0.0
N398 N 0.64726 0.92647 0.30736 0.0
N399 N 0.62841 0.92104 0.3796 0.0
C400 C 0.64301 0.93775 0.35077 0.0
H401 H 0.61383 0.87995 0.36496 0.0
Co402 Co 0.62902 0.91997 0.4462 0.0
C403 C 0.58731 0.96234 0.47521 0.0
O404 O 0.57751 0.94392 0.50488 0.0
N405 N 0.6317 0.91668 0.51284 0.0
C406 C 0.6285 0.91517 0.59202 0.0
C407 C 0.62628 0.93176 0.55222 0.0
C408 C 0.64024 0.89245 0.53031 0.0
N409 N 0.63668 0.89008 0.57762 0.0
O410 O 0.66477 0.9377 0.44505 0.0
H411 H 0.62 0.95303 0.55238 0.0
H412 H 0.64842 0.87628 0.5082 0.0
O413 O 0.60883 0.9564 0.45041 0.0
C414 C 0.683 0.91962 0.43567 0.0
O415 O 0.67515 0.89381 0.4341 0.0
N416 N 0.59511 0.90021 0.44512 0.0
C417 C 0.54961 0.86712 0.42591 0.0
C418 C 0.54978 0.8949 0.41321 0.0
C419 C 0.57295 0.91074 0.4216 0.0
C420 C 0.59513 0.87302 0.45746 0.0
C421 C 0.57251 0.85619 0.44871 0.0
H422 H 0.57377 0.93079 0.40539 0.0
H423 H 0.61351 0.86316 0.46912 0.0
H424 H 0.6527 0.95647 0.36296 0.0
H425 H 0.63475 0.88687 0.28017 0.0
H426 H 0.62293 0.92072 0.62809 0.0
H427 H 0.53318 0.90372 0.39266 0.0
H428 H 0.5737 0.83444 0.45647 0.0
C429 C 0.95518 0.43581 0.58488 0.0
C430 C 0.9558 0.42962 0.63286 0.0
N431 N 0.94464 0.40453 0.63875 0.0
N432 N 0.94378 0.41454 0.56119 0.0
C433 C 0.93745 0.39603 0.59502 0.0
H434 H 0.96196 0.45474 0.56859 0.0
Co435 Co 0.9331 0.41043 0.4986 0.0
C436 C 0.96562 0.45061 0.43992 0.0
O437 O 0.9458 0.45046 0.40834 0.0
N438 N 0.92086 0.40504 0.43569 0.0
C439 C 0.9149 0.38932 0.36186 0.0
C440 C 0.9338 0.39406 0.39759 0.0
C441 C 0.89433 0.40626 0.4225 0.0
N442 N 0.89 0.39704 0.3779 0.0
O443 O 0.95603 0.37789 0.49463 0.0
H444 H 0.95534 0.38883 0.39658 0.0
H445 H 0.878 0.41164 0.44656 0.0
O446 O 0.96343 0.43576 0.47757 0.0
C447 C 0.93983 0.35736 0.49932 0.0
O448 O 0.91349 0.36172 0.49302 0.0
N449 N 0.90842 0.43926 0.50782 0.0
C450 C 0.87012 0.47433 0.5482 0.0
C451 C 0.89192 0.4849 0.52136 0.0
C452 C 0.91125 0.46695 0.50192 0.0
C453 C 0.88645 0.42882 0.53189 0.0
C454 C 0.86702 0.44598 0.55239 0.0
H455 H 0.92911 0.47577 0.48565 0.0
H456 H 0.88492 0.40689 0.53734 0.0
H457 H 0.92688 0.37696 0.58807 0.0
H458 H 0.96413 0.44231 0.66105 0.0
H459 H 0.91909 0.38004 0.32757 0.0
H460 H 0.89527 0.50686 0.51901 0.0
H461 H 0.85071 0.43726 0.57382 0.0
C462 C 0.42139 0.17206 0.3209 0.0
C463 C 0.41282 0.16136 0.27821 0.0
N464 N 0.40364 0.13563 0.28569 0.0
N465 N 0.41826 0.15305 0.35541 0.0
C466 C 0.40753 0.13108 0.33273 0.0
H467 H 0.42754 0.19308 0.32614 0.0
Co468 Co 0.41931 0.15781 0.42142 0.0
C469 C 0.43634 0.09732 0.44309 0.0
O470 O 0.41477 0.08916 0.46728 0.0
N471 N 0.41961 0.164 0.48633 0.0
C472 C 0.42865 0.16774 0.56353 0.0
C473 C 0.42828 0.15008 0.52494 0.0
C474 C 0.4146 0.18961 0.50222 0.0
N475 N 0.42019 0.19273 0.54891 0.0
O476 O 0.38298 0.14197 0.42481 0.0
H477 H 0.43562 0.12918 0.52478 0.0
H478 H 0.40916 0.20629 0.47866 0.0
O479 O 0.4373 0.12181 0.42698 0.0
C480 C 0.3646 0.15996 0.41642 0.0
O481 O 0.37229 0.18576 0.41304 0.0
N482 N 0.45394 0.17487 0.41768 0.0
C483 C 0.50304 0.19843 0.38868 0.0
C484 C 0.50276 0.17295 0.41217 0.0
C485 C 0.47804 0.16181 0.42728 0.0
C486 C 0.45432 0.2017 0.40401 0.0
C487 C 0.47875 0.21392 0.38881 0.0
H488 H 0.47861 0.14203 0.44428 0.0
H489 H 0.43526 0.21287 0.40082 0.0
H490 H 0.4008 0.11288 0.35142 0.0
H491 H 0.41245 0.17233 0.24478 0.0
H492 H 0.43579 0.16281 0.59897 0.0
H493 H 0.52082 0.1602 0.41499 0.0
H494 H 0.47809 0.23434 0.37366 0.0
C495 C 0.13977 0.61506 0.60613 0.0
C496 C 0.12637 0.62292 0.64704 0.0
N497 N 0.10398 0.63739 0.63453 0.0
N498 N 0.12566 0.62424 0.56809 0.0
C499 C 0.10375 0.63729 0.58649 0.0
H500 H 0.15976 0.60553 0.60437 0.0
Co501 Co 0.13991 0.62948 0.50772 0.0
C502 C 0.10147 0.59983 0.4438 0.0
O503 O 0.12325 0.59145 0.42036 0.0
N504 N 0.15581 0.6369 0.44849 0.0
C505 C 0.16767 0.65086 0.37572 0.0
C506 C 0.14609 0.6432 0.40476 0.0
C507 C 0.18266 0.64308 0.4459 0.0
N508 N 0.19076 0.65052 0.40197 0.0
O509 O 0.12805 0.66717 0.51042 0.0
H510 H 0.12469 0.64323 0.39481 0.0
H511 H 0.19579 0.644 0.47677 0.0
O512 O 0.10437 0.61678 0.47867 0.0
C513 C 0.14571 0.68175 0.53246 0.0
O514 O 0.16855 0.66991 0.54628 0.0
N515 N 0.15308 0.59256 0.50785 0.0
C516 C 0.17122 0.5387 0.51914 0.0
C517 C 0.14336 0.54498 0.52198 0.0
C518 C 0.13494 0.57201 0.51823 0.0
C519 C 0.18049 0.58672 0.50568 0.0
C520 C 0.19004 0.55984 0.51125 0.0
H521 H 0.11389 0.57653 0.52656 0.0
H522 H 0.19547 0.60279 0.50337 0.0
H523 H 0.08974 0.64926 0.56508 0.0
H524 H 0.13359 0.61974 0.68304 0.0
H525 H 0.16633 0.65649 0.33853 0.0
H526 H 0.12841 0.52943 0.53155 0.0
H527 H 0.21188 0.55585 0.51212 0.0
H528 H 0.11789 0.33274 -0.00365 0.0
H529 H 0.16574 0.37959 0.09828 0.0
H530 H 0.17454 0.33695 0.14376 0.0
H531 H 0.08601 0.28892 0.07892 0.0
H532 H 0.08668 0.25917 0.04063 0.0
H533 H 0.08568 0.29303 0.0151 0.0
H534 H 0.12963 0.28232 0.96663 0.0
H535 H 0.13083 0.24841 -0.00788 0.0
H536 H 0.16002 0.27094 -0.00278 0.0
H537 H 0.17638 0.28924 0.17956 0.0
H538 H 0.16974 0.24109 0.20458 0.0
H539 H 0.12094 0.22565 0.07842 0.0
C540 C 0.13074 0.3341 0.02762 0.0
C541 C 0.14141 0.35962 0.04337 0.0
C542 C 0.15733 0.36038 0.08551 0.0
C543 C 0.16256 0.33622 0.11137 0.0
C544 C 0.15174 0.31146 0.09462 0.0
C545 C 0.13612 0.31029 0.05371 0.0
C546 C 0.12569 0.28144 0.04435 0.0
C547 C 0.09415 0.2806 0.0448 0.0
C548 C 0.13724 0.27011 -0.00272 0.0
C549 C 0.13759 0.26647 0.08677 0.0
C550 C 0.15269 0.28412 0.11519 0.0
C551 C 0.16471 0.27527 0.15742 0.0
C552 C 0.16075 0.2479 0.17143 0.0
C553 C 0.14483 0.2296 0.14343 0.0
C554 C 0.13359 0.23899 0.10008 0.0
H555 H 0.24195 0.92803 0.77824 0.0
H556 H 0.19758 0.86923 0.8649 0.0
H557 H 0.24114 0.85482 0.90229 0.0
H558 H 0.30318 0.88674 0.75889 0.0
H559 H 0.32608 0.91572 0.76316 0.0
H560 H 0.29164 0.92042 0.74151 0.0
H561 H 0.28285 0.95735 0.80632 0.0
H562 H 0.31731 0.95297 0.82781 0.0
H563 H 0.28874 0.94899 0.86801 0.0
H564 H 0.28924 0.84765 0.93125 0.0
H565 H 0.33777 0.85107 0.95534 0.0
H566 H 0.35093 0.91501 0.85055 0.0
C567 C 0.24147 0.9119 0.8047 0.0
C568 C 0.21641 0.89962 0.81852 0.0
C569 C 0.21649 0.87902 0.85404 0.0
C570 C 0.24116 0.87054 0.87509 0.0
C571 C 0.26552 0.88293 0.86031 0.0
C572 C 0.26584 0.90334 0.82623 0.0
C573 C 0.29455 0.91449 0.81867 0.0
C574 C 0.30444 0.90901 0.76751 0.0
C575 C 0.29594 0.94527 0.83096 0.0
C576 C 0.31036 0.89738 0.85429 0.0
C577 C 0.29324 0.87908 0.87748 0.0
C578 C 0.30283 0.86183 0.91324 0.0
C579 C 0.33039 0.86395 0.92672 0.0
C580 C 0.34808 0.88329 0.9048 0.0
C581 C 0.33803 0.8997 0.86725 0.0
H582 H 0.90002 0.84525 0.06941 0.0
H583 H 0.90421 0.82493 0.22026 0.0
H584 H 0.90175 0.77646 0.20103 0.0
H585 H 0.85352 0.78914 0.03585 0.0
H586 H 0.8707 0.78253 -0.01989 0.0
H587 H 0.87077 0.81666 0.00506 0.0
H588 H 0.92384 0.8174 0.00191 0.0
H589 H 0.92392 0.78329 0.97704 0.0
H590 H 0.94289 0.79043 0.03072 0.0
H591 H 0.90196 0.72967 0.16727 0.0
H592 H 0.90365 0.68726 0.1191 0.0
H593 H 0.89989 0.73594 -0.01003 0.0
C594 C 0.90017 0.83073 0.0985 0.0
C595 C 0.90196 0.8397 0.14654 0.0
C596 C 0.90224 0.81951 0.18317 0.0
C597 C 0.90103 0.79149 0.1727 0.0
C598 C 0.89955 0.78349 0.12535 0.0
C599 C 0.89902 0.80239 0.08871 0.0
C600 C 0.89836 0.78785 0.04078 0.0
C601 C 0.87175 0.79444 0.01387 0.0
C602 C 0.92377 0.79518 0.01086 0.0
C603 C 0.89901 0.75801 0.05656 0.0
C604 C 0.89963 0.75607 0.10557 0.0
C605 C 0.90129 0.73085 0.1288 0.0
C606 C 0.9024 0.70688 0.10119 0.0
C607 C 0.90178 0.70823 0.05086 0.0
C608 C 0.8999 0.73421 0.0284 0.0
H609 H 0.8332 0.11831 0.77813 0.0
H610 H 0.87039 0.1709 0.88473 0.0
H611 H 0.82504 0.17662 0.92363 0.0
H612 H 0.76888 0.15454 0.76769 0.0
H613 H 0.74887 0.12363 0.76113 0.0
H614 H 0.78398 0.1244 0.74111 0.0
H615 H 0.79526 0.08241 0.79413 0.0
H616 H 0.76015 0.08128 0.81381 0.0
H617 H 0.78743 0.08367 0.85689 0.0
H618 H 0.77568 0.17651 0.95016 0.0
H619 H 0.72717 0.16659 0.96832 0.0
H620 H 0.7225 0.11319 0.84488 0.0
C621 C 0.83175 0.13124 0.80943 0.0
C622 C 0.85519 0.14444 0.82829 0.0
C623 C 0.85266 0.16059 0.86995 0.0
C624 C 0.82699 0.16412 0.8919 0.0
C625 C 0.80419 0.15119 0.87178 0.0
C626 C 0.80642 0.13479 0.83182 0.0
C627 C 0.77912 0.12201 0.81859 0.0
C628 C 0.76966 0.13174 0.7692 0.0
C629 C 0.78059 0.09048 0.82103 0.0
C630 C 0.76109 0.13362 0.85763 0.0
C631 C 0.77591 0.15066 0.88757 0.0
C632 C 0.76393 0.16318 0.927 0.0
C633 C 0.73639 0.15738 0.93705 0.0
C634 C 0.72112 0.13903 0.90811 0.0
C635 C 0.73351 0.12762 0.86715 0.0
H636 H 0.61388 0.72902 0.60263 0.0
H637 H 0.62273 0.73935 0.75528 0.0
H638 H 0.6293 0.78914 0.74456 0.0
H639 H 0.66468 0.77777 0.5692 0.0
H640 H 0.64612 0.79057 0.51841 0.0
H641 H 0.64092 0.75578 0.53808 0.0
H642 H 0.58869 0.7647 0.54596 0.0
H643 H 0.59378 0.79942 0.52577 0.0
H644 H 0.57684 0.79308 0.58178 0.0
H645 H 0.63608 0.83819 0.71682 0.0
H646 H 0.64131 0.8823 0.67361 0.0
H647 H 0.6277 0.83925 0.54013 0.0
C648 C 0.61682 0.74186 0.63371 0.0
C649 C 0.61806 0.73028 0.67965 0.0
C650 C 0.62222 0.74771 0.7196 0.0
C651 C 0.62583 0.77606 0.71394 0.0
C652 C 0.62517 0.78679 0.6681 0.0
C653 C 0.6206 0.77026 0.62868 0.0
C654 C 0.62138 0.78689 0.58327 0.0
C655 C 0.64466 0.77717 0.55031 0.0
C656 C 0.59351 0.78597 0.55771 0.0
C657 C 0.62722 0.81517 0.60334 0.0
C658 C 0.62928 0.81483 0.65228 0.0
C659 C 0.63448 0.83873 0.67839 0.0
C660 C 0.63741 0.86368 0.65364 0.0
C661 C 0.63529 0.86444 0.60336 0.0
C662 C 0.63015 0.83967 0.57833 0.0
H663 H 0.84267 0.42351 0.40053 0.0
H664 H 0.87651 0.36126 0.30642 0.0
H665 H 0.82994 0.35144 0.27627 0.0
H666 H 0.78409 0.38496 0.43468 0.0
H667 H 0.76187 0.41445 0.43806 0.0
H668 H 0.79805 0.41825 0.44901 0.0
H669 H 0.80124 0.4554 0.38322 0.0
H670 H 0.76502 0.45198 0.37242 0.0
H671 H 0.78902 0.44767 0.32411 0.0
H672 H 0.77913 0.34805 0.25775 0.0
H673 H 0.7286 0.35193 0.25162 0.0
H674 H 0.72851 0.41328 0.36339 0.0
C675 C 0.84051 0.40766 0.37379 0.0
C676 C 0.86345 0.393 0.35628 0.0
C677 C 0.85944 0.37297 0.32024 0.0
C678 C 0.83299 0.36709 0.30317 0.0
C679 C 0.81082 0.38128 0.32271 0.0
C680 C 0.81438 0.40118 0.35719 0.0
C681 C 0.78729 0.41294 0.37373 0.0
C682 C 0.78256 0.4073 0.42703 0.0
C683 C 0.78555 0.44382 0.36268 0.0
C684 C 0.76777 0.39653 0.34314 0.0
C685 C 0.78172 0.37852 0.31365 0.0
C686 C 0.76803 0.36195 0.28088 0.0
C687 C 0.73944 0.36423 0.27768 0.0
C688 C 0.72488 0.38263 0.30749 0.0
C689 C 0.73921 0.39864 0.34105 0.0
H690 H 0.39099 0.23909 0.52997 0.0
H691 H 0.45251 0.20544 0.62497 0.0
H692 H 0.4576 0.25084 0.66309 0.0
H693 H 0.42389 0.30374 0.51133 0.0
H694 H 0.39244 0.32312 0.51006 0.0
H695 H 0.39258 0.28769 0.49155 0.0
H696 H 0.35457 0.27648 0.5531 0.0
H697 H 0.35406 0.31194 0.57139 0.0
H698 H 0.35968 0.28533 0.61484 0.0
H699 H 0.45718 0.30027 0.68901 0.0
H700 H 0.44896 0.34947 0.70471 0.0
H701 H 0.38835 0.35126 0.59189 0.0
C702 C 0.40556 0.24119 0.55877 0.0
C703 C 0.42139 0.21854 0.5743 0.0
C704 C 0.43989 0.22224 0.61269 0.0
C705 C 0.44311 0.24806 0.6343 0.0
C706 C 0.42769 0.27001 0.61721 0.0
C707 C 0.40911 0.2668 0.58059 0.0
C708 C 0.39508 0.29372 0.56881 0.0
C709 C 0.40138 0.30258 0.51738 0.0
C710 C 0.36401 0.29174 0.57758 0.0
C711 C 0.40872 0.31265 0.60453 0.0
C712 C 0.42751 0.29854 0.63201 0.0
C713 C 0.44246 0.31148 0.66781 0.0
C714 C 0.43764 0.33941 0.67648 0.0
C715 C 0.41801 0.3542 0.64958 0.0
C716 C 0.40374 0.34064 0.61258 0.0
H717 H 0.35158 0.63015 0.41115 0.0
H718 H 0.3562 0.67397 0.27746 0.0
H719 H 0.30693 0.68556 0.28347 0.0
H720 H 0.28999 0.59874 0.38805 0.0
H721 H 0.27679 0.60015 0.44801 0.0
H722 H 0.31319 0.59978 0.43797 0.0
H723 H 0.31846 0.64497 0.48609 0.0
H724 H 0.28202 0.64531 0.49676 0.0
H725 H 0.29845 0.67459 0.46979 0.0
H726 H 0.25607 0.68728 0.29923 0.0
H727 H 0.20804 0.67988 0.32461 0.0
H728 H 0.23707 0.63282 0.44568 0.0
C729 C 0.34233 0.64311 0.38432 0.0
C730 C 0.35749 0.65156 0.34428 0.0
C731 C 0.34472 0.66756 0.30858 0.0
C732 C 0.31685 0.67425 0.31175 0.0
C733 C 0.30208 0.66468 0.35083 0.0
C734 C 0.31442 0.6496 0.38667 0.0
C735 C 0.29349 0.63921 0.42208 0.0
C736 C 0.29337 0.60761 0.4241 0.0
C737 C 0.2984 0.65178 0.47161 0.0
C738 C 0.26747 0.65017 0.39991 0.0
C739 C 0.27278 0.66511 0.35922 0.0
C740 C 0.25168 0.67593 0.33147 0.0
C741 C 0.22445 0.67143 0.3459 0.0
C742 C 0.21861 0.65604 0.38748 0.0
C743 C 0.2406 0.64538 0.41454 0.0
H744 H 0.21313 0.19739 0.33811 0.0
H745 H 0.20152 0.11352 0.28996 0.0
H746 H 0.24814 0.10183 0.31922 0.0
H747 H 0.28369 0.20357 0.30692 0.0
H748 H 0.29182 0.22428 0.35828 0.0
H749 H 0.25784 0.22516 0.3335 0.0
H750 H 0.23766 0.21215 0.41595 0.0
H751 H 0.27164 0.21087 0.44088 0.0
H752 H 0.24936 0.18142 0.4453 0.0
H753 H 0.29765 0.10024 0.35449 0.0
H754 H 0.34401 0.10954 0.38749 0.0
H755 H 0.32078 0.19424 0.41269 0.0
C756 C 0.22028 0.17652 0.3334 0.0
C757 C 0.20361 0.15641 0.31143 0.0
C758 C 0.21397 0.12937 0.30628 0.0
C759 C 0.24037 0.12253 0.32309 0.0
C760 C 0.25614 0.14293 0.34506 0.0
C761 C 0.24634 0.16941 0.34995 0.0
C762 C 0.26697 0.1879 0.37422 0.0
C763 C 0.27559 0.21162 0.34126 0.0
C764 C 0.25573 0.19871 0.42191 0.0
C765 C 0.29022 0.16791 0.38192 0.0
C766 C 0.28376 0.14197 0.36527 0.0
C767 C 0.30271 0.12048 0.36785 0.0
C768 C 0.32895 0.12587 0.38698 0.0
C769 C 0.33602 0.15257 0.40304 0.0
C770 C 0.31608 0.17356 0.401 0.0
H771 H 0.1896 0.82598 0.6397 0.0
H772 H 0.10382 0.84892 0.64695 0.0
H773 H 0.09098 0.80374 0.61257 0.0
H774 H 0.1866 0.79142 0.52909 0.0
H775 H 0.21069 0.76512 0.54585 0.0
H776 H 0.2127 0.79863 0.5728 0.0
H777 H 0.20893 0.77694 0.65689 0.0
H778 H 0.20735 0.74333 0.63022 0.0
H779 H 0.18061 0.7544 0.67023 0.0
H780 H 0.08829 0.75547 0.57367 0.0
H781 H 0.09603 0.70878 0.54032 0.0
H782 H 0.18359 0.71937 0.55954 0.0
C783 C 0.16805 0.82146 0.63464 0.0
C784 C 0.14772 0.84096 0.64621 0.0
C785 C 0.11976 0.83418 0.63884 0.0
C786 C 0.1123 0.80863 0.61901 0.0
C787 C 0.13303 0.79008 0.60706 0.0
C788 C 0.16032 0.79621 0.61517 0.0
C789 C 0.17888 0.77313 0.59925 0.0
C790 C 0.19836 0.78265 0.55938 0.0
C791 C 0.19487 0.76125 0.64167 0.0
C792 C 0.1579 0.75296 0.5807 0.0
C793 C 0.13151 0.76295 0.58516 0.0
C794 C 0.10891 0.74754 0.5701 0.0
C795 C 0.11347 0.72114 0.55087 0.0
C796 C 0.1404 0.71049 0.54718 0.0
C797 C 0.16274 0.72688 0.56189 0.0
H798 H 0.827 0.87981 0.32471 0.0
H799 H 0.8438 0.96577 0.29743 0.0
H800 H 0.79881 0.97805 0.33353 0.0
H801 H 0.75433 0.88187 0.30001 0.0
H802 H 0.74666 0.85723 0.34599 0.0
H803 H 0.77932 0.85628 0.31613 0.0
H804 H 0.80379 0.85973 0.39798 0.0
H805 H 0.7712 0.86124 0.42799 0.0
H806 H 0.7961 0.88812 0.43705 0.0
H807 H 0.75096 0.97998 0.37746 0.0
H808 H 0.70601 0.97092 0.41656 0.0
H809 H 0.72353 0.88366 0.41378 0.0
C810 C 0.82124 0.90127 0.32577 0.0
C811 C 0.839 0.92181 0.30814 0.0
C812 C 0.83045 0.94961 0.31026 0.0
C813 C 0.805 0.95676 0.33108 0.0
C814 C 0.78829 0.93586 0.34927 0.0
C815 C 0.79615 0.90865 0.3461 0.0
C816 C 0.77511 0.88972 0.36801 0.0
C817 C 0.76314 0.87013 0.33029 0.0
C818 C 0.78728 0.87377 0.41026 0.0
C819 C 0.75406 0.91035 0.38453 0.0
C820 C 0.76174 0.93694 0.37372 0.0
C821 C 0.74491 0.95916 0.38589 0.0
C822 C 0.71947 0.95387 0.40846 0.0
C823 C 0.71108 0.92658 0.41829 0.0
C824 C 0.72907 0.90481 0.40682 0.0
H825 H 0.90685 0.32969 0.55884 0.0
H826 H 0.98973 0.32876 0.50297 0.0
H827 H 0.99886 0.28586 0.54911 0.0
H828 H 0.92238 0.30571 0.67795 0.0
H829 H 0.89032 0.28754 0.68046 0.0
H830 H 0.89329 0.31816 0.64489 0.0
H831 H 0.87584 0.28941 0.57194 0.0
H832 H 0.87437 0.25901 0.60806 0.0
H833 H 0.89456 0.25915 0.55425 0.0
H834 H 0.99572 0.23929 0.59838 0.0
H835 H 0.98176 0.19812 0.64498 0.0
H836 H 0.90242 0.23539 0.67068 0.0
C837 C 0.92707 0.32066 0.55593 0.0
C838 C 0.94748 0.33239 0.52662 0.0
C839 C 0.97373 0.32003 0.52501 0.0
C840 C 0.97902 0.29572 0.55116 0.0
C841 C 0.95804 0.28463 0.57946 0.0
C842 C 0.93272 0.29721 0.58217 0.0
C843 C 0.91304 0.28185 0.61382 0.0
C844 C 0.90424 0.29939 0.65679 0.0
C845 C 0.888 0.27176 0.5853 0.0
C846 C 0.93097 0.25831 0.62888 0.0
C847 C 0.95681 0.25974 0.60866 0.0
C848 C 0.97571 0.23846 0.61503 0.0
C849 C 0.96769 0.2152 0.64181 0.0
C850 C 0.94109 0.2136 0.66217 0.0
C851 C 0.92305 0.23592 0.6564 0.0
H852 H 0.31027 0.4697 0.78823 0.0
H853 H 0.30134 0.41832 0.66313 0.0
H854 H 0.25196 0.41374 0.67938 0.0
H855 H 0.27371 0.42948 0.85982 0.0
H856 H 0.25629 0.45502 0.89521 0.0
H857 H 0.28846 0.46318 0.86744 0.0
H858 H 0.26774 0.50441 0.82409 0.0
H859 H 0.23524 0.49771 0.85253 0.0
H860 H 0.23732 0.50011 0.78858 0.0
H861 H 0.20758 0.40514 0.71771 0.0
H862 H 0.16935 0.39596 0.77252 0.0
H863 H 0.20533 0.45068 0.87725 0.0
C864 C 0.29765 0.4586 0.76308 0.0
C865 C 0.3097 0.44444 0.72413 0.0
C866 C 0.29252 0.42973 0.69257 0.0
C867 C 0.26444 0.42676 0.70189 0.0
C868 C 0.25371 0.43861 0.74312 0.0
C869 C 0.26953 0.45479 0.77283 0.0
C870 C 0.25371 0.46185 0.81817 0.0
C871 C 0.26895 0.45174 0.86277 0.0
C872 C 0.24816 0.49286 0.82099 0.0
C873 C 0.22724 0.44585 0.81033 0.0
C874 C 0.2277 0.43303 0.76633 0.0
C875 C 0.20686 0.41535 0.75195 0.0
C876 C 0.18526 0.41015 0.78351 0.0
C877 C 0.18429 0.42265 0.82907 0.0
C878 C 0.20531 0.44124 0.84231 0.0
H879 H 0.38256 0.79945 0.0782 0.0
H880 H 0.46708 0.82688 0.0735 0.0
H881 H 0.4815 0.78361 0.11294 0.0
H882 H 0.3848 0.77007 0.19189 0.0
H883 H 0.36238 0.74183 0.17741 0.0
H884 H 0.3594 0.77379 0.14578 0.0
H885 H 0.36616 0.74852 0.06519 0.0
H886 H 0.36862 0.71639 0.09653 0.0
H887 H 0.39574 0.72687 0.05684 0.0
H888 H 0.48561 0.73676 0.15822 0.0
H889 H 0.479 0.69161 0.19815 0.0
H890 H 0.39159 0.69737 0.17252 0.0
C891 C 0.40421 0.79627 0.08464 0.0
C892 C 0.42369 0.81657 0.07246 0.0
C893 C 0.45178 0.8115 0.08189 0.0
C894 C 0.46012 0.78704 0.10465 0.0
C895 C 0.44014 0.76778 0.11743 0.0
C896 C 0.41278 0.77216 0.10709 0.0
C897 C 0.39497 0.74896 0.12504 0.0
C898 C 0.37417 0.75929 0.16223 0.0
C899 C 0.38053 0.73432 0.08342 0.0
C900 C 0.41639 0.73078 0.14759 0.0
C901 C 0.44241 0.74174 0.1431 0.0
C902 C 0.46526 0.72813 0.16179 0.0
C903 C 0.46133 0.70261 0.18481 0.0
C904 C 0.43477 0.69101 0.18878 0.0
C905 C 0.41219 0.7056 0.17019 0.0
H906 H 0.79814 0.57888 0.89146 0.0
H907 H 0.82675 0.66307 0.89637 0.0
H908 H 0.79271 0.67563 0.8345 0.0
H909 H 0.7801 0.5758 0.76229 0.0
H910 H 0.75043 0.55505 0.77464 0.0
H911 H 0.78013 0.55296 0.81266 0.0
H912 H 0.74785 0.56243 0.88277 0.0
H913 H 0.71825 0.56866 0.8461 0.0
H914 H 0.7303 0.59468 0.88685 0.0
H915 H 0.7558 0.67874 0.77207 0.0
H916 H 0.71395 0.67473 0.72361 0.0
H917 H 0.7057 0.58934 0.76527 0.0
C918 C 0.79753 0.59987 0.87881 0.0
C919 C 0.81576 0.61989 0.89723 0.0
C920 C 0.81361 0.64732 0.88142 0.0
C921 C 0.79436 0.65456 0.84634 0.0
C922 C 0.77708 0.63419 0.82813 0.0
C923 C 0.77826 0.60744 0.84423 0.0
C924 C 0.75545 0.59013 0.82269 0.0
C925 C 0.76725 0.56712 0.79123 0.0
C926 C 0.73681 0.57829 0.86184 0.0
C927 C 0.7408 0.61152 0.79274 0.0
C928 C 0.75421 0.63653 0.79529 0.0
C929 C 0.7451 0.6593 0.76995 0.0
C930 C 0.72135 0.65673 0.74216 0.0
C931 C 0.70642 0.63173 0.74063 0.0
C932 C 0.71661 0.6087 0.76579 0.0
H933 H 0.68259 0.19842 0.09451 0.0
H934 H 0.59767 0.18309 0.05744 0.0
H935 H 0.5846 0.22724 0.0961 0.0
H936 H 0.67075 0.22818 0.20858 0.0
H937 H 0.69819 0.25277 0.20268 0.0
H938 H 0.70026 0.22021 0.1724 0.0
H939 H 0.70689 0.24493 0.09139 0.0
H940 H 0.70548 0.27752 0.12153 0.0
H941 H 0.68234 0.27044 0.07301 0.0
H942 H 0.58181 0.2744 0.14123 0.0
H943 H 0.59033 0.32023 0.17771 0.0
H944 H 0.6772 0.30235 0.18296 0.0
C945 C 0.66116 0.20423 0.09414 0.0
C946 C 0.64111 0.18709 0.07323 0.0
C947 C 0.61342 0.19584 0.07328 0.0
C948 C 0.60582 0.2208 0.09548 0.0
C949 C 0.62621 0.23679 0.11705 0.0
C950 C 0.65338 0.22881 0.11576 0.0
C951 C 0.67185 0.24951 0.1398 0.0
C952 C 0.68609 0.23691 0.18345 0.0
C953 C 0.69286 0.2613 0.10431 0.0
C954 C 0.65104 0.2708 0.15455 0.0
C955 C 0.6247 0.26318 0.1419 0.0
C956 C 0.60237 0.28036 0.15136 0.0
C957 C 0.60732 0.30623 0.17258 0.0
C958 C 0.6344 0.31465 0.18361 0.0
C959 C 0.65626 0.29634 0.17536 0.0
H960 H 0.06259 0.08133 0.16222 0.0
H961 H 0.07837 0.08656 0.31392 0.0
H962 H 0.04252 0.05162 0.32858 0.0
H963 H 0.99145 0.07079 0.16497 0.0
H964 H 0.99042 0.04531 0.11836 0.0
H965 H 1.01738 0.07061 0.11915 0.0
H966 H 0.05418 0.03232 0.11882 0.0
H967 H 0.02734 1.00692 0.11662 0.0
H968 H 0.05271 1.00563 0.16318 0.0
H969 H 0.99986 1.02061 0.32679 0.0
H970 H 0.96418 0.98608 0.30846 0.0
H971 H 0.98135 0.99508 0.15769 0.0
C972 C 0.05896 0.07464 0.19845 0.0
C973 C 0.07313 0.08708 0.23696 0.0
C974 C 0.06779 0.0776 0.28379 0.0
C975 C 0.04723 0.05786 0.29251 0.0
C976 C 0.03279 0.04696 0.25392 0.0
C977 C 0.03928 0.05413 0.20765 0.0
C978 C 1.02194 0.03802 0.17231 0.0
C979 C 1.00425 0.05735 0.14191 0.0
C980 C 0.04012 1.01962 0.14088 0.0
C981 C 1.00429 1.02105 0.20587 0.0
C982 C 1.01033 0.02708 0.25282 0.0
C983 C 0.99549 1.01527 0.29013 0.0
C984 C 0.975 0.99582 0.27932 0.0
C985 C 0.97008 0.98752 0.23163 0.0
C986 C 0.98465 1.00085 0.19451 0.0
H987 H 0.10409 1.0113 0.74614 0.0
H988 H 0.05813 0.94331 0.68604 0.0
H989 H 1.01778 0.97403 0.67656 0.0
H990 H 0.0496 0.04431 0.81025 0.0
H991 H 0.0614 0.0784 0.79592 0.0
H992 H 0.08556 0.05058 0.80002 0.0
H993 H 0.10263 0.0609 0.71432 0.0
H994 H 0.07855 0.08878 0.70998 0.0
H995 H 0.07828 0.06172 0.66612 0.0
H996 H 0.98225 1.01335 0.67453 0.0
H997 H 0.95635 0.05694 0.67529 0.0
H998 H 0.02748 0.09909 0.73272 0.0
C999 C 0.08544 1.00257 0.73171 0.0
C1000 C 0.08412 0.97462 0.71777 0.0
C1001 C 0.05952 0.9645 0.69755 0.0
C1002 C 0.03654 0.98184 0.69204 0.0
C1003 C 0.03868 1.00935 0.70617 0.0
C1004 C 0.0627 1.01961 0.72516 0.0
C1005 C 0.06061 0.05014 0.73516 0.0
C1006 C 0.06452 0.0562 0.78851 0.0
C1007 C 0.08123 0.06633 0.70458 0.0
C1008 C 0.03142 0.05562 0.71963 0.0
C1009 C 1.01899 0.03187 0.70318 0.0
C1010 C 0.99191 0.03199 0.68726 0.0
C1011 C 0.97732 0.05692 0.68794 0.0
C1012 C 0.98982 0.08161 0.70403 0.0
C1013 C 1.01726 0.08071 0.72012 0.0
H1014 H 0.07527 0.5148 0.91133 0.0
H1015 H 1.02135 0.44683 0.94635 0.0
H1016 H 0.98121 0.47625 0.93508 0.0
H1017 H 0.03636 0.56413 0.97735 0.0
H1018 H 0.04184 0.59215 0.93653 0.0
H1019 H 0.06681 0.56507 0.94091 0.0
H1020 H 0.06281 0.5562 0.85021 0.0
H1021 H 0.0378 0.58329 0.84561 0.0
H1022 H 0.02965 0.54926 0.82458 0.0
H1023 H 0.94615 0.51302 0.92302 0.0
H1024 H 0.91925 0.55599 0.91778 0.0
H1025 H 0.99468 0.6019 0.89744 0.0
C1026 C 0.05499 0.50611 0.91571 0.0
C1027 C 0.05164 0.47817 0.92861 0.0
C1028 C 0.02466 0.4679 0.93556 0.0
C1029 C 1.00155 0.48451 0.92929 0.0
C1030 C 1.00539 0.51188 0.91713 0.0
C1031 C 0.03138 0.52282 0.91096 0.0
C1032 C 0.02946 0.55362 0.90232 0.0
C1033 C 0.04451 0.56968 0.94162 0.0
C1034 C 0.04059 0.56102 0.85273 0.0
C1035 C 0.99855 0.55806 0.90513 0.0
C1036 C 0.98505 0.53358 0.91284 0.0
C1037 C 0.9565 0.53237 0.91698 0.0
C1038 C 0.94133 0.55688 0.91387 0.0
C1039 C 0.9547 0.58241 0.90746 0.0
C1040 C 0.98373 0.58278 0.90259 0.0
H1041 H 0.46637 0.99359 0.00096 0.0
H1042 H 0.50871 0.91617 0.02067 0.0
H1043 H 0.55322 0.94097 0.01957 0.0
H1044 H 0.51392 0.02495 0.92226 0.0
H1045 H 0.51079 0.05881 0.9477 0.0
H1046 H 0.48247 0.03514 0.95106 0.0
H1047 H 0.48129 0.04052 0.04279 0.0
H1048 H 0.50957 0.06431 0.03975 0.0
H1049 H 0.51197 0.03421 0.07679 0.0
H1050 H 0.5929 0.97381 0.00903 0.0
H1051 H 0.62512 1.01203 -0.00228 0.0
H1052 H 0.55735 0.06954 -0.00807 0.0
C1053 C 0.48501 0.98178 0.00512 0.0
C1054 C 0.48407 0.95277 0.01035 0.0
C1055 C 0.5089 0.93828 0.01652 0.0
C1056 C 0.53424 0.95224 0.01584 0.0
C1057 C 0.53438 0.98079 0.00998 0.0
C1058 C 0.51036 0.99545 0.00552 0.0
C1059 C 0.5161 0.02606 0.00027 0.0
C1060 C 0.50517 0.03687 0.95248 0.0
C1061 C 0.50401 0.04223 0.04241 0.0
C1062 C 0.54725 0.0264 0.0014 0.0
C1063 C 0.55726 0.99996 0.00668 0.0
C1064 C 0.58523 0.99456 0.00567 0.0
C1065 C 0.6034 1.01654 -0.00091 0.0
C1066 C 0.59389 0.04397 -0.00552 0.0
C1067 C 0.56531 0.04894 -0.00386 0.0
H1068 H 0.47909 0.48603 0.67885 0.0
H1069 H 0.4369 0.50819 0.80947 0.0
H1070 H 0.47362 0.54212 0.82713 0.0
H1071 H 0.54681 0.48936 0.72565 0.0
H1072 H 0.56166 0.50284 0.6717 0.0
H1073 H 0.5315 0.48155 0.6688 0.0
H1074 H 0.50582 0.51974 0.62289 0.0
H1075 H 0.53595 0.5411 0.6254 0.0
H1076 H 0.50376 0.55375 0.64811 0.0
H1077 H 0.51692 0.57362 0.83047 0.0
H1078 H 0.56063 0.59874 0.81907 0.0
H1079 H 0.5742 0.55453 0.68689 0.0
C1080 C 0.47724 0.49812 0.71109 0.0
C1081 C 0.45471 0.49437 0.74258 0.0
C1082 C 0.45364 0.51068 0.78446 0.0
C1083 C 0.47454 0.52998 0.79484 0.0
C1084 C 0.49659 0.53282 0.76315 0.0
C1085 C 0.49791 0.51726 0.72204 0.0
C1086 C 0.52388 0.52348 0.69405 0.0
C1087 C 0.54203 0.49778 0.68982 0.0
C1088 C 0.51693 0.53522 0.64469 0.0
C1089 C 0.53715 0.54505 0.72561 0.0
C1090 C 0.52116 0.55028 0.76533 0.0
C1091 C 0.52944 0.56955 0.79941 0.0
C1092 C 0.55443 0.58376 0.79264 0.0
C1093 C 0.57117 0.57873 0.75212 0.0
C1094 C 0.56216 0.55896 0.71839 0.0
H1095 H 0.50858 0.56368 0.23748 0.0
H1096 H 0.49156 0.56079 0.38904 0.0
H1097 H 0.52103 0.51984 0.39653 0.0
H1098 H 0.50134 0.4924 0.22094 0.0
H1099 H 0.52751 0.48935 0.17585 0.0
H1100 H 0.50921 0.5212 0.18305 0.0
H1101 H 0.55491 0.54774 0.19538 0.0
H1102 H 0.57308 0.51608 0.18587 0.0
H1103 H 0.57897 0.53572 0.23936 0.0
H1104 H 0.55053 0.47735 0.3867 0.0
H1105 H 0.58078 0.43929 0.36083 0.0
H1106 H 0.5722 0.46585 0.21445 0.0
C1107 C 0.5115 0.55486 0.27243 0.0
C1108 C 0.49764 0.56555 0.31274 0.0
C1109 C 0.50213 0.55317 0.35774 0.0
C1110 C 0.5186 0.52967 0.36226 0.0
C1111 C 0.53018 0.51839 0.32128 0.0
C1112 C 0.52704 0.5307 0.27726 0.0
C1113 C 0.53993 0.5133 0.23832 0.0
C1114 C 0.5182 0.50349 0.20243 0.0
C1115 C 0.56311 0.52915 0.21329 0.0
C1116 C 0.55101 0.48946 0.26736 0.0
C1117 C 0.5453 0.49287 0.31519 0.0
C1118 C 0.5548 0.4743 0.34922 0.0
C1119 C 0.5716 0.45246 0.33419 0.0
C1120 C 0.57821 0.44885 0.28549 0.0
C1121 C 0.56702 0.46726 0.25169 0.0
H1122 H 0.53833 0.97572 0.51697 0.0
H1123 H 0.59523 1.00391 0.4086 0.0
H1124 H 0.5629 0.04147 0.38801 0.0
H1125 H 0.47754 0.98693 0.45044 0.0
H1126 H 0.45752 0.99749 0.50126 0.0
H1127 H 0.48576 0.97414 0.50892 0.0
H1128 H 0.50757 1.00691 0.57104 0.0
H1129 H 0.47926 0.03026 0.56395 0.0
H1130 H 0.51388 0.04223 0.55529 0.0
H1131 H 0.5227 0.07576 0.37864 0.0
H1132 H 0.4801 0.10318 0.38203 0.0
H1133 H 0.44947 0.05104 0.49539 0.0
C1134 C 0.54434 0.98988 0.48916 0.0
C1135 C 0.56965 0.9868 0.46466 0.0
C1136 C 0.57622 1.00584 0.42826 0.0
C1137 C 0.55786 0.0272 0.41621 0.0
C1138 C 0.53288 0.02923 0.44068 0.0
C1139 C 0.52625 1.01102 0.47651 0.0
C1140 C 0.49797 1.01691 0.49682 0.0
C1141 C 0.47856 0.99241 0.48887 0.0
C1142 C 0.49979 0.02454 0.54992 0.0
C1143 C 0.48951 0.04139 0.46696 0.0
C1144 C 0.50991 0.04829 0.43481 0.0
C1145 C 0.50672 0.07042 0.40378 0.0
C1146 C 0.48237 0.08594 0.40602 0.0
C1147 C 0.46125 0.07943 0.43902 0.0
C1148 C 0.46498 0.05658 0.46948 0.0
H1149 H 0.9941 0.48074 0.50904 0.0
H1150 H 0.9856 0.46917 0.35644 0.0
H1151 H 1.01571 0.50882 0.34209 0.0
H1152 H 0.99377 0.55443 0.50738 0.0
H1153 H 1.0194 0.55879 0.55298 0.0
H1154 H 0.998 0.5286 0.5527 0.0
H1155 H 0.04099 0.49744 0.55115 0.0
H1156 H 0.06248 0.52754 0.55241 0.0
H1157 H 0.06656 0.50253 0.50558 0.0
H1158 H 0.04599 0.54952 0.34284 0.0
H1159 H 0.07932 0.58643 0.35912 0.0
H1160 H 0.06763 0.57482 0.51094 0.0
C1161 C 0.9991 0.48625 0.47271 0.0
C1162 C 0.98753 0.47165 0.43379 0.0
C1163 C 0.99418 0.47991 0.38679 0.0
C1164 C 1.01118 0.50255 0.37822 0.0
C1165 C 1.02148 0.51706 0.41701 0.0
C1166 C 1.01611 0.50915 0.46338 0.0
C1167 C 0.03019 0.52863 0.49823 0.0
C1168 C 1.00907 0.54349 0.52969 0.0
C1169 C 0.05131 0.51311 0.52864 0.0
C1170 C 0.0442 0.54853 0.46407 0.0
C1171 C 0.03872 0.54136 0.41742 0.0
C1172 C 0.05029 0.55548 0.37923 0.0
C1173 C 0.069 0.57664 0.38879 0.0
C1174 C 0.07587 0.58387 0.43613 0.0
C1175 C 0.0625 0.57021 0.47432 0.0
H1176 H 0.16075 0.06389 0.65456 0.0
H1177 H 0.22547 1.01955 0.58253 0.0
H1178 H 0.2264 0.05463 0.51957 0.0
H1179 H 0.1232 0.07061 0.56369 0.0
H1180 H 0.10908 0.10436 0.57346 0.0
H1181 H 0.12108 0.0847 0.62304 0.0
H1182 H 0.15436 0.12338 0.64806 0.0
H1183 H 0.14177 0.14401 0.5995 0.0
H1184 H 0.17799 0.13746 0.60511 0.0
H1185 H 0.21021 0.08396 0.45368 0.0
H1186 H 0.18195 0.10843 0.39478 0.0
H1187 H 0.12486 0.13149 0.50628 0.0
C1188 C 0.17633 0.06272 0.62711 0.0
C1189 C 0.19304 0.03921 0.62326 0.0
C1190 C 0.21282 0.03768 0.58651 0.0
C1191 C 0.21329 0.05746 0.5503 0.0
C1192 C 0.19409 0.07867 0.55189 0.0
C1193 C 0.1764 0.08188 0.59015 0.0
C1194 C 0.15398 0.10241 0.57909 0.0
C1195 C 0.12517 0.08973 0.58513 0.0
C1196 C 0.15724 0.12836 0.60975 0.0
C1197 C 0.16032 0.10831 0.52741 0.0
C1198 C 0.18399 0.09516 0.51276 0.0
C1199 C 0.19208 0.09495 0.46511 0.0
C1200 C 0.17561 0.10849 0.43171 0.0
C1201 C 0.15107 0.12172 0.44599 0.0
C1202 C 0.14373 0.12196 0.49458 0.0
H1203 H 0.12868 0.91968 0.44415 0.0
H1204 H 0.09515 0.86582 0.55239 0.0
H1205 H 0.06833 0.8416 0.49092 0.0
H1206 H 0.07082 0.93049 0.38458 0.0
H1207 H 0.08564 0.93114 0.32573 0.0
H1208 H 0.10636 0.93955 0.37629 0.0
H1209 H 0.14101 0.90168 0.35148 0.0
H1210 H 0.11985 0.89284 0.30107 0.0
H1211 H 0.12931 0.86684 0.3436 0.0
H1212 H 0.03876 0.82997 0.42223 0.0
H1213 H 1.00608 0.83589 0.35649 0.0
H1214 H 0.0608 0.8945 0.29006 0.0
C1215 C 0.11645 0.90218 0.4547 0.0
C1216 C 0.11402 0.89471 0.50304 0.0
C1217 C 0.0971 0.87221 0.51567 0.0
C1218 C 0.08216 0.85798 0.48082 0.0
C1219 C 0.08472 0.8662 0.43344 0.0
C1220 C 0.10157 0.88776 0.42039 0.0
C1221 C 0.09769 0.89543 0.36869 0.0
C1222 C 0.08962 0.92592 0.36359 0.0
C1223 C 0.12351 0.88879 0.33949 0.0
C1224 C 0.07436 0.87638 0.35566 0.0
C1225 C 0.0678 0.85896 0.39294 0.0
C1226 C 0.04417 0.84283 0.39224 0.0
C1227 C 0.02576 0.84614 0.35442 0.0
C1228 C 0.03105 0.86567 0.31826 0.0
C1229 C 0.0566 0.87919 0.31705 0.0
H1230 H 0.8953 1.0125 0.64791 0.0
H1231 H 0.8192 0.04674 0.59464 0.0
H1232 H 0.81934 1.0126 0.52978 0.0
H1233 H 0.92685 1.00853 0.5504 0.0
H1234 H 0.94476 0.97647 0.55781 0.0
H1235 H 0.93447 0.99571 0.60917 0.0
H1236 H 0.90689 0.95454 0.64219 0.0
H1237 H 0.91812 0.93434 0.59194 0.0
H1238 H 0.88206 0.93749 0.60491 0.0
H1239 H 0.8353 0.98577 0.45927 0.0
H1240 H 0.86196 0.96285 0.39577 0.0
H1241 H 0.92706 0.94609 0.49627 0.0
C1242 C 0.8776 1.01186 0.6248 0.0
C1243 C 0.85751 0.03273 0.62605 0.0
C1244 C 0.83517 0.03132 0.59392 0.0
C1245 C 0.83498 1.01186 0.55705 0.0
C1246 C 0.8568 0.99348 0.55389 0.0
C1247 C 0.87719 0.99264 0.58805 0.0
C1248 C 0.90061 0.97421 0.57305 0.0
C1249 C 0.92825 0.98968 0.57256 0.0
C1250 C 0.90199 0.94862 0.60491 0.0
C1251 C 0.89143 0.96685 0.52339 0.0
C1252 C 0.86586 0.9776 0.5132 0.0
C1253 C 0.85489 0.97649 0.46738 0.0
C1254 C 0.87036 0.96389 0.43135 0.0
C1255 C 0.89652 0.95277 0.4414 0.0
C1256 C 0.90688 0.95399 0.48809 0.0
H1257 H 0.92398 0.1305 0.44705 0.0
H1258 H 0.94165 0.19934 0.5397 0.0
H1259 H 0.95509 0.22705 0.47049 0.0
H1260 H 0.97801 0.13236 0.38411 0.0
H1261 H 0.96403 0.12404 0.3264 0.0
H1262 H 0.94604 0.11393 0.37891 0.0
H1263 H 0.90288 0.13974 0.3493 0.0
H1264 H 0.92115 0.15026 0.29646 0.0
H1265 H 0.90514 0.17563 0.33412 0.0
H1266 H 0.9817 0.24019 0.40095 0.0
H1267 H 1.01848 0.23607 0.34171 0.0
H1268 H 0.981 0.16215 0.28636 0.0
C1269 C 0.92962 0.15179 0.45217 0.0
C1270 C 0.93191 0.16272 0.49846 0.0
C1271 C 0.93944 0.19059 0.50444 0.0
C1272 C 0.94701 0.20657 0.46514 0.0
C1273 C 0.9463 0.19463 0.41993 0.0
C1274 C 0.93707 0.16799 0.4131 0.0
C1275 C 0.94306 0.15811 0.36302 0.0
C1276 C 0.95874 0.13055 0.36321 0.0
C1277 C 0.91647 0.15582 0.33401 0.0
C1278 C 0.96058 0.18167 0.34518 0.0
C1279 C 0.96116 0.20315 0.37764 0.0
C1280 C 0.98063 0.22412 0.37433 0.0
C1281 C 1.00149 0.22176 0.34018 0.0
C1282 C 1.00261 0.19855 0.30996 0.0
C1283 C 0.98033 0.18007 0.30921 0.0
H1284 H 0.19444 0.53 0.60331 0.0
H1285 H 0.1625 0.48851 0.47914 0.0
H1286 H 0.15305 0.44737 0.52738 0.0
H1287 H 0.21645 0.46504 0.67631 0.0
H1288 H 0.20375 0.48168 0.72953 0.0
H1289 H 0.21966 0.50169 0.68318 0.0
H1290 H 0.17638 0.53208 0.68097 0.0
H1291 H 0.15975 0.51152 0.72523 0.0
H1292 H 0.14358 0.51659 0.66821 0.0
H1293 H 0.13162 0.42003 0.58999 0.0
H1294 H 0.10657 0.40452 0.66072 0.0
H1295 H 0.15101 0.46389 0.74688 0.0
C1296 C 0.18764 0.51135 0.58584 0.0
C1297 C 0.17968 0.51193 0.53772 0.0
C1298 C 0.16937 0.48795 0.51581 0.0
C1299 C 0.16368 0.46464 0.54319 0.0
C1300 C 0.16849 0.46586 0.59214 0.0
C1301 C 0.18094 0.48841 0.6132 0.0
C1302 C 0.17812 0.48763 0.66689 0.0
C1303 C 0.2062 0.48374 0.69039 0.0
C1304 C 0.16358 0.51347 0.68637 0.0
C1305 C 0.1604 0.46239 0.6725 0.0
C1306 C 0.15553 0.44983 0.62917 0.0
C1307 C 0.13629 0.42887 0.62443 0.0
C1308 C 0.12197 0.4203 0.665 0.0
C1309 C 0.12687 0.43263 0.71001 0.0
C1310 C 0.14662 0.4538 0.71347 0.0
H1311 H 0.42733 0.88761 0.27643 0.0
H1312 H 0.47147 0.84051 0.17026 0.0
H1313 H 0.49781 0.81789 0.2339 0.0
H1314 H 0.47919 0.90548 0.34059 0.0
H1315 H 0.46316 0.90337 0.39841 0.0
H1316 H 0.44251 0.90858 0.34678 0.0
H1317 H 0.41396 0.86537 0.36863 0.0
H1318 H 0.4352 0.85982 0.42029 0.0
H1319 H 0.43089 0.83285 0.37688 0.0
H1320 H 0.52649 0.81 0.30392 0.0
H1321 H 0.55795 0.82316 0.36824 0.0
H1322 H 0.49474 0.87335 0.43193 0.0
C1323 C 0.4417 0.87167 0.26671 0.0
C1324 C 0.4473 0.86581 0.2185 0.0
C1325 C 0.46698 0.84554 0.20697 0.0
C1326 C 0.48167 0.83219 0.24301 0.0
C1327 C 0.47618 0.83908 0.29039 0.0
C1328 C 0.45647 0.85832 0.30222 0.0
C1329 C 0.45804 0.86634 0.35417 0.0
C1330 C 0.46095 0.89776 0.36025 0.0
C1331 C 0.43304 0.85543 0.38161 0.0
C1332 C 0.48376 0.85116 0.36843 0.0
C1333 C 0.49307 0.83431 0.33194 0.0
C1334 C 0.51902 0.82232 0.33329 0.0
C1335 C 0.53678 0.82975 0.37027 0.0
C1336 C 0.5285 0.84927 0.40468 0.0
C1337 C 0.50105 0.85801 0.4062 0.0
H1338 H 0.86377 0.55626 0.78365 0.0
H1339 H 0.81656 0.61782 0.70785 0.0
H1340 H 0.80839 0.58502 0.64323 0.0
H1341 H 0.89827 0.53151 0.69319 0.0
H1342 H 0.89749 0.49567 0.70913 0.0
H1343 H 0.89419 0.52136 0.75455 0.0
H1344 H 0.84814 0.50002 0.78197 0.0
H1345 H 0.85143 0.4739 0.73671 0.0
H1346 H 0.82099 0.49482 0.73937 0.0
H1347 H 0.8162 0.55112 0.57891 0.0
H1348 H 0.83522 0.51603 0.52398 0.0
H1349 H 0.87289 0.47465 0.6434 0.0
C1350 C 0.85079 0.56263 0.75455 0.0
C1351 C 0.84157 0.58998 0.75059 0.0
C1352 C 0.82485 0.59736 0.71129 0.0
C1353 C 0.81962 0.57867 0.67455 0.0
C1354 C 0.8305 0.5524 0.67821 0.0
C1355 C 0.84508 0.54409 0.71788 0.0
C1356 C 0.85723 0.51584 0.71076 0.0
C1357 C 0.88863 0.51616 0.71725 0.0
C1358 C 0.84362 0.4949 0.74418 0.0
C1359 C 0.84924 0.51069 0.65951 0.0
C1360 C 0.8334 0.53179 0.64149 0.0
C1361 C 0.82753 0.53384 0.59293 0.0
C1362 C 0.83846 0.51404 0.56198 0.0
C1363 C 0.8547 0.49251 0.58009 0.0
C1364 C 0.85952 0.49043 0.62937 0.0
H1365 H 0.62152 0.12901 0.26128 0.0
H1366 H 0.5832 0.15805 0.13126 0.0
H1367 H 0.5581 0.1926 0.17676 0.0
H1368 H 0.5649 0.13117 0.32999 0.0
H1369 H 0.58151 0.14248 0.3839 0.0
H1370 H 0.60073 0.12408 0.33975 0.0
H1371 H 0.63573 0.16424 0.33637 0.0
H1372 H 0.61606 0.18303 0.38001 0.0
H1373 H 0.62397 0.19849 0.32332 0.0
H1374 H 0.53093 0.21738 0.23568 0.0
H1375 H 0.4999 0.22488 0.3025 0.0
H1376 H 0.55788 0.18506 0.3972 0.0
C1377 C 0.60844 0.1431 0.24215 0.0
C1378 C 0.60481 0.14076 0.19237 0.0
C1379 C 0.58666 0.15911 0.16914 0.0
C1380 C 0.5725 0.17927 0.1947 0.0
C1381 C 0.57669 0.18107 0.2436 0.0
C1382 C 0.59414 0.16341 0.2672 0.0
C1383 C 0.59189 0.16693 0.32064 0.0
C1384 C 0.58428 0.13956 0.34494 0.0
C1385 C 0.6185 0.17889 0.3413 0.0
C1386 C 0.56876 0.18762 0.32336 0.0
C1387 C 0.56097 0.19622 0.27846 0.0
C1388 C 0.53722 0.21145 0.27115 0.0
C1389 C 0.5197 0.21586 0.30987 0.0
C1390 C 0.52598 0.20495 0.3554 0.0
C1391 C 0.55211 0.19312 0.36276 0.0
H1392 H 0.69023 0.57002 0.93623 0.0
H1393 H 0.61761 0.61792 0.96566 0.0
H1394 H 0.61602 0.59895 0.04791 0.0
H1395 H 0.6671 0.5104 -0.00669 0.0
H1396 H 0.70059 0.50041 0.01409 0.0
H1397 H 0.6974 0.52089 0.96125 0.0
H1398 H 0.72978 0.55722 -0.00105 0.0
H1399 H 0.73228 0.5371 0.05264 0.0
H1400 H 0.72106 0.57231 0.05565 0.0
H1401 H 0.62163 0.57362 0.12451 0.0
H1402 H 0.62628 0.53584 0.18226 0.0
H1403 H 0.69366 0.50231 0.09993 0.0
C1404 C 0.67416 0.57649 0.96038 0.0
C1405 C 0.65407 0.5953 0.9456 0.0
C1406 C 0.63296 0.6033 0.97705 0.0
C1407 C 0.63225 0.59304 0.0237 0.0
C1408 C 0.65279 0.57481 0.03767 0.0
C1409 C 0.67294 0.5661 0.00649 0.0
C1410 C 0.69031 0.5436 0.02775 0.0
C1411 C 0.68872 0.51728 -0.00268 0.0
C1412 C 0.72013 0.55314 0.03412 0.0
C1413 C 0.67615 0.54019 0.07531 0.0
C1414 C 0.65526 0.55914 0.08107 0.0
C1415 C 0.63799 0.5588 0.12055 0.0
C1416 C 0.64085 0.53734 0.15321 0.0
C1417 C 0.66019 0.51613 0.14516 0.0
C1418 C 0.6791 0.51853 0.10742 0.0
H1419 H 0.49426 0.36269 0.87306 0.0
H1420 H 0.4245 0.3831 0.96198 0.0
H1421 H 0.45224 0.37499 0.03377 0.0
H1422 H 0.52755 0.31123 0.96055 0.0
H1423 H 0.56112 0.32337 0.94382 0.0
H1424 H 0.53391 0.32248 0.90039 0.0
H1425 H 0.54178 0.37416 0.88328 0.0
H1426 H 0.56855 0.37539 0.92689 0.0
H1427 H 0.5398 0.39847 0.93171 0.0
H1428 H 0.48949 0.37696 0.09317 0.0
H1429 H 0.53273 0.38659 0.13531 0.0
H1430 H 0.57844 0.36328 0.00897 0.0
C1431 C 0.48462 0.36429 0.90773 0.0
C1432 C 0.45736 0.37338 0.91217 0.0
C1433 C 0.4453 0.3757 0.95789 0.0
C1434 C 0.4609 0.37112 -0.00111 0.0
C1435 C 0.4883 0.36369 -0.00659 0.0
C1436 C 0.49992 0.35968 0.9489 0.0
C1437 C 0.5306 0.35592 0.95223 0.0
C1438 C 0.53877 0.32649 0.93844 0.0
C1439 C 0.54606 0.37726 0.92177 0.0
C1440 C 0.53468 0.3609 0.00487 0.0
C1441 C 0.51003 0.36459 0.0283 0.0
C1442 C 0.5089 0.37316 0.07567 0.0
C1443 C 0.53358 0.37865 0.09933 0.0
C1444 C 0.55898 0.37579 0.07536 0.0
C1445 C 0.55939 0.36584 0.02816 0.0
H1446 H 0.34694 0.49157 0.96578 0.0
H1447 H 0.41411 0.43459 0.94791 0.0
H1448 H 0.42324 0.43636 0.03494 0.0
H1449 H 0.38094 0.53448 0.04713 0.0
H1450 H 0.35028 0.54262 0.08017 0.0
H1451 H 0.34791 0.53335 0.01841 0.0
H1452 H 0.3135 0.49476 0.04143 0.0
H1453 H 0.31686 0.50337 0.10364 0.0
H1454 H 0.32364 0.46884 0.08366 0.0
H1455 H 0.42564 0.44607 0.12322 0.0
H1456 H 0.42928 0.47104 0.19945 0.0
H1457 H 0.362 0.52373 0.15657 0.0
C1458 C 0.3635 0.47951 -0.01946 0.0
C1459 C 0.37989 0.46301 0.95092 0.0
C1460 C 0.40161 0.44755 0.97056 0.0
C1461 C 0.40655 0.44808 0.01982 0.0
C1462 C 0.38958 0.46427 0.04844 0.0
C1463 C 0.36891 0.48019 0.02922 0.0
C1464 C 0.3559 0.49859 0.06613 0.0
C1465 C 0.35897 0.52904 0.05215 0.0
C1466 C 0.32568 0.49092 0.07418 0.0
C1467 C 0.37314 0.49136 0.10898 0.0
C1468 C 0.39175 0.47079 0.09861 0.0
C1469 C 0.41115 0.46218 0.13171 0.0
C1470 C 0.41303 0.47648 0.17498 0.0
C1471 C 0.39633 0.4998 0.18373 0.0
C1472 C 0.37489 0.50588 0.15168 0.0
H1473 H 0.52431 0.63208 0.10817 0.0
H1474 H 0.44452 0.65586 0.05553 0.0
H1475 H 0.46601 0.69032 0.0031 0.0
H1476 H 0.55839 0.7035 0.09331 0.0
H1477 H 0.59004 0.68763 0.07482 0.0
H1478 H 0.56837 0.67088 0.11808 0.0
H1479 H 0.56657 0.627 0.06535 0.0
H1480 H 0.58878 0.6436 0.02361 0.0
H1481 H 0.55627 0.63006 0.00387 0.0
H1482 H 0.49529 0.71331 0.94488 0.0
H1483 H 0.52936 0.71856 0.88067 0.0
H1484 H 0.59093 0.68084 0.9701 0.0
C1485 C 0.51156 0.64519 0.08638 0.0
C1486 C 0.48303 0.64126 0.08502 0.0
C1487 C 0.46658 0.65832 0.05607 0.0
C1488 C 0.47856 0.67829 0.02698 0.0
C1489 C 0.50699 0.68109 0.02766 0.0
C1490 C 0.52332 0.66502 0.05676 0.0
C1491 C 0.55333 0.66849 0.04478 0.0
C1492 C 0.56842 0.68353 0.08516 0.0
C1493 C 0.56697 0.64063 0.03368 0.0
C1494 C 0.5511 0.68652 0.00105 0.0
C1495 C 0.52433 0.69475 -0.00675 0.0
C1496 C 0.51644 0.70774 0.9512 0.0
C1497 C 0.53589 0.71061 0.91485 0.0
C1498 C 0.56269 0.70018 0.92073 0.0
C1499 C 0.57079 0.68975 0.96538 0.0
H1500 H 0.68336 0.96942 0.05394 0.0
H1501 H 0.74018 0.02518 0.12154 0.0
H1502 H 0.74419 0.99406 0.18948 0.0
H1503 H 0.64382 0.96517 0.13593 0.0
H1504 H 0.63336 0.92966 0.13555 0.0
H1505 H 0.64651 0.94477 0.08236 0.0
H1506 H 0.68436 0.90776 0.07632 0.0
H1507 H 0.67061 0.89169 0.12907 0.0
H1508 H 0.70631 0.90118 0.12662 0.0
H1509 H 0.72585 0.97238 0.25999 0.0
H1510 H 0.6936 0.9565 0.32123 0.0
H1511 H 0.64515 0.91568 0.21324 0.0
C1512 C 0.69819 0.97374 0.08163 0.0
C1513 C 0.711 0.99966 0.08329 0.0
C1514 C 0.73019 1.00533 0.11961 0.0
C1515 C 0.73238 0.98774 0.15874 0.0
C1516 C 0.7155 0.9646 0.16038 0.0
C1517 C 0.69946 0.95686 0.12178 0.0
C1518 C 0.67807 0.93581 0.13625 0.0
C1519 C 0.64877 0.94443 0.1217 0.0
C1520 C 0.68528 0.90742 0.11587 0.0
C1521 C 0.68176 0.93629 0.18967 0.0
C1522 C 0.70423 0.95192 0.20274 0.0
C1523 C 0.70891 0.9592 0.25012 0.0
C1524 C 0.69016 0.95052 0.28473 0.0
C1525 C 0.66687 0.93484 0.27194 0.0
C1526 C 0.66312 0.92715 0.22398 0.0
H1527 H 0.93037 0.42269 0.72599 0.0
H1528 H 0.95681 0.35094 0.64784 0.0
H1529 H 0.96311 0.32586 0.72304 0.0
H1530 H 0.97481 0.42453 0.8049 0.0
H1531 H 0.95526 0.43347 0.85734 0.0
H1532 H 0.94222 0.44163 0.79978 0.0
H1533 H 0.8978 0.41486 0.8167 0.0
H1534 H 0.91029 0.40649 0.87538 0.0
H1535 H 0.89934 0.37955 0.8356 0.0
H1536 H 0.98208 0.31559 0.79992 0.0
H1537 H 1.0145 0.32415 0.86456 0.0
H1538 H 0.97025 0.3976 0.90348 0.0
C1539 C 0.93628 0.40129 0.7252 0.0
C1540 C 0.9432 0.38867 0.68169 0.0
C1541 C 0.95119 0.36081 0.68104 0.0
C1542 C 0.95454 0.34634 0.72363 0.0
C1543 C 0.94876 0.35964 0.76654 0.0
C1544 C 0.93902 0.38637 0.7676 0.0
C1545 C 0.93925 0.39773 0.81782 0.0
C1546 C 0.95381 0.42592 0.82009 0.0
C1547 C 0.90992 0.39976 0.83753 0.0
C1548 C 0.95504 0.37519 0.84309 0.0
C1549 C 0.95892 0.35265 0.81352 0.0
C1550 C 0.97845 0.33256 0.82403 0.0
C1551 C 0.99677 0.33739 0.86149 0.0
C1552 C 0.99524 0.3621 0.88776 0.0
C1553 C 0.97171 0.37875 0.88313 0.0
H1554 H 0.39181 0.08128 0.29668 0.0
H1555 H 0.38522 0.1488 0.19634 0.0
H1556 H 0.36625 0.11725 0.13673 0.0
H1557 H 0.41515 0.03406 0.22053 0.0
H1558 H 0.39658 1.00533 0.24506 0.0
H1559 H 0.40457 0.03423 0.28212 0.0
H1560 H 0.35295 0.03978 0.30245 0.0
H1561 H 0.3448 1.0109 0.26472 0.0
H1562 H 0.32836 0.04354 0.25505 0.0
H1563 H 0.3571 0.07724 0.08342 0.0
H1564 H 0.36059 0.03233 0.04229 0.0
H1565 H 0.36899 0.99176 0.17834 0.0
C1566 C 0.38561 0.08985 0.26292 0.0
C1567 C 0.39032 0.11772 0.25171 0.0
C1568 C 0.38235 0.12756 0.20619 0.0
C1569 C 0.37109 0.10982 0.17205 0.0
C1570 C 0.36728 0.08237 0.18411 0.0
C1571 C 0.37406 0.07253 0.22872 0.0
C1572 C 0.37117 0.04169 0.23123 0.0
C1573 C 0.39848 0.02806 0.24552 0.0
C1574 C 0.34793 0.0335 0.26539 0.0
C1575 C 0.36362 0.03551 0.18011 0.0
C1576 C 0.3608 0.05926 0.15357 0.0
C1577 C 0.35825 0.05851 0.10399 0.0
C1578 C 0.36007 0.03298 0.08085 0.0
C1579 C 0.36445 1.00886 0.10754 0.0
C1580 C 0.36471 1.01002 0.15765 0.0
H1581 H 0.05246 0.65458 0.61578 0.0
H1582 H 0.11668 0.6579 0.72233 0.0
H1583 H 0.08654 0.6851 0.7746 0.0
H1584 H 1.02253 0.72515 0.64255 0.0
H1585 H 0.98831 0.71256 0.63189 0.0
H1586 H 1.01683 0.69857 0.5989 0.0
H1587 H 1.00387 0.64938 0.62662 0.0
H1588 H 0.97519 0.6632 0.65844 0.0
H1589 H 1.00016 0.64265 0.68946 0.0
H1590 H 0.04734 0.70359 0.82049 0.0
H1591 H 1.00169 0.70603 0.85809 0.0
H1592 H 0.96351 0.69406 0.7207 0.0
C1593 C 0.06052 0.66177 0.64944 0.0
C1594 C 0.0869 0.65403 0.66484 0.0
C1595 C 0.0964 0.66318 0.70985 0.0
C1596 C 0.0796 0.67914 0.73947 0.0
C1597 C 0.05355 0.68621 0.72329 0.0
C1598 C 0.04411 0.67782 0.67917 0.0
C1599 C 1.01412 0.68447 0.67274 0.0
C1600 C 1.01023 0.70651 0.63424 0.0
C1601 C 0.99738 0.65838 0.66122 0.0
C1602 C 1.00753 0.69575 0.72166 0.0
C1603 C 0.03076 0.6976 0.7498 0.0
C1604 C 0.02913 0.70312 0.79853 0.0
C1605 C 1.00311 0.70473 0.81963 0.0
C1606 C 0.97934 0.70045 0.79193 0.0
C1607 C 0.98156 0.69803 0.74208 0.0
loop_
_geom_bond_atom_site_label_1
_geom_bond_atom_site_label_2
_geom_bond_distance
_geom_bond_site_symmetry_2
_ccdc_geom_bond_type
C0 C1 1.351 . S
C0 N3 1.368 . S
C0 H5 0.931 . S
C1 C0 1.351 . S
C1 N2 1.373 . S
C1 H29 0.930 . S
N2 C1 1.373 . S
N2 C4 1.340 . S
N3 C0 1.368 . S
N3 C4 1.321 . S
N3 Co6 2.135 . S
C4 N2 1.340 . S
C4 N3 1.321 . S
C4 H28 0.930 . S
H5 C0 0.931 . S
Co6 N3 2.135 . S
Co6 N9 2.121 . S
Co6 O14 2.055 . S
Co6 O17 2.039 . S
Co6 N20 2.140 . S
C7 O8 1.227 . S
C7 O17 1.265 . S
O8 C7 1.227 . S
N9 Co6 2.121 . S
N9 C11 1.375 . S
N9 C12 1.313 . S
C10 C11 1.338 . S
C10 N13 1.377 . S
C10 H30 0.930 . S
C11 N9 1.375 . S
C11 C10 1.338 . S
C11 H15 0.931 . S
C12 N9 1.313 . S
C12 N13 1.344 . S
C12 H16 0.930 . S
N13 C10 1.377 . S
N13 C12 1.344 . S
O14 Co6 2.055 . S
O14 C18 1.253 . S
H15 C11 0.931 . S
H16 C12 0.930 . S
O17 Co6 2.039 . S
O17 C7 1.265 . S
C18 O14 1.253 . S
C18 O19 1.227 . S
O19 C18 1.227 . S
N20 Co6 2.140 . S
N20 C23 1.346 . S
N20 C24 1.345 . S
C21 C22 1.387 . S
C21 C25 1.391 . S
C22 C21 1.387 . S
C22 C23 1.369 . S
C22 H31 0.929 . S
C23 N20 1.346 . S
C23 C22 1.369 . S
C23 H26 0.928 . S
C24 N20 1.345 . S
C24 C25 1.371 . S
C24 H27 0.931 . S
C25 C21 1.391 . S
C25 C24 1.371 . S
C25 H32 0.930 . S
H26 C23 0.928 . S
H27 C24 0.931 . S
H28 C4 0.930 . S
H29 C1 0.930 . S
H30 C10 0.930 . S
H31 C22 0.929 . S
H32 C25 0.930 . S
C33 C34 1.351 . S
C33 N36 1.368 . S
C33 H38 0.931 . S
C34 C33 1.351 . S
C34 N35 1.373 . S
C34 H62 0.930 . S
N35 C34 1.373 . S
N35 C37 1.340 . S
N36 C33 1.368 . S
N36 C37 1.321 . S
N36 Co39 2.135 . S
C37 N35 1.340 . S
C37 N36 1.321 . S
C37 H61 0.930 . S
H38 C33 0.931 . S
Co39 N36 2.135 . S
Co39 N42 2.121 . S
Co39 O47 2.055 . S
Co39 O50 2.039 . S
Co39 N53 2.140 . S
C40 O41 1.227 . S
C40 O50 1.265 . S
O41 C40 1.227 . S
N42 Co39 2.121 . S
N42 C44 1.375 . S
N42 C45 1.313 . S
C43 C44 1.338 . S
C43 N46 1.377 . S
C43 H63 0.930 . S
C44 N42 1.375 . S
C44 C43 1.338 . S
C44 H48 0.931 . S
C45 N42 1.313 . S
C45 N46 1.344 . S
C45 H49 0.930 . S
N46 C43 1.377 . S
N46 C45 1.344 . S
O47 Co39 2.055 . S
O47 C51 1.253 . S
H48 C44 0.931 . S
H49 C45 0.930 . S
O50 Co39 2.039 . S
O50 C40 1.265 . S
C51 O47 1.253 . S
C51 O52 1.227 . S
O52 C51 1.227 . S
N53 Co39 2.140 . S
N53 C56 1.346 . S
N53 C57 1.345 . S
C54 C55 1.387 . S
C54 C58 1.391 . S
C55 C54 1.387 . S
C55 C56 1.369 . S
C55 H64 0.929 . S
C56 N53 1.346 . S
C56 C55 1.369 . S
C56 H59 0.928 . S
C57 N53 1.345 . S
C57 C58 1.371 . S
C57 H60 0.931 . S
C58 C54 1.391 . S
C58 C57 1.371 . S
C58 H65 0.930 . S
H59 C56 0.928 . S
H60 C57 0.931 . S
H61 C37 0.930 . S
H62 C34 0.930 . S
H63 C43 0.930 . S
H64 C55 0.929 . S
H65 C58 0.930 . S
C66 C67 1.351 . S
C66 N69 1.368 . S
C66 H71 0.931 . S
C67 C66 1.351 . S
C67 N68 1.373 . S
C67 H95 0.930 . S
N68 C67 1.373 . S
N68 C70 1.340 . S
N69 C66 1.368 . S
N69 C70 1.321 . S
N69 Co72 2.135 . S
C70 N68 1.340 . S
C70 N69 1.321 . S
C70 H94 0.930 . S
H71 C66 0.931 . S
Co72 N69 2.135 . S
Co72 N75 2.121 . S
Co72 O80 2.055 . S
Co72 O83 2.039 . S
Co72 N86 2.140 . S
C73 O74 1.227 . S
C73 O83 1.265 . S
O74 C73 1.227 . S
N75 Co72 2.121 . S
N75 C77 1.375 . S
N75 C78 1.313 . S
C76 C77 1.338 . S
C76 N79 1.377 . S
C76 H96 0.930 . S
C77 N75 1.375 . S
C77 C76 1.338 . S
C77 H81 0.931 . S
C78 N75 1.313 . S
C78 N79 1.344 . S
C78 H82 0.930 . S
N79 C76 1.377 . S
N79 C78 1.344 . S
O80 Co72 2.055 . S
O80 C84 1.253 . S
H81 C77 0.931 . S
H82 C78 0.930 . S
O83 Co72 2.039 . S
O83 C73 1.265 . S
C84 O80 1.253 . S
C84 O85 1.227 . S
O85 C84 1.227 . S
N86 Co72 2.140 . S
N86 C89 1.346 . S
N86 C90 1.345 . S
C87 C88 1.387 . S
C87 C91 1.391 . S
C88 C87 1.387 . S
C88 C89 1.369 . S
C88 H97 0.929 . S
C89 N86 1.346 . S
C89 C88 1.369 . S
C89 H92 0.928 . S
C90 N86 1.345 . S
C90 C91 1.371 . S
C90 H93 0.931 . S
C91 C87 1.391 . S
C91 C90 1.371 . S
C91 H98 0.930 . S
H92 C89 0.928 . S
H93 C90 0.931 . S
H94 C70 0.930 . S
H95 C67 0.930 . S
H96 C76 0.930 . S
H97 C88 0.929 . S
H98 C91 0.930 . S
C99 C100 1.351 . S
C99 N102 1.368 . S
C99 H104 0.931 . S
C100 C99 1.351 . S
C100 N101 1.373 . S
C100 H128 0.930 . S
N101 C100 1.373 . S
N101 C103 1.340 . S
N102 C99 1.368 . S
N102 C103 1.321 . S
N102 Co105 2.135 . S
C103 N101 1.340 . S
C103 N102 1.321 . S
C103 H127 0.930 . S
H104 C99 0.931 . S
Co105 N102 2.135 . S
Co105 N108 2.121 . S
Co105 O113 2.055 . S
Co105 O116 2.039 . S
Co105 N119 2.140 . S
C106 O107 1.227 . S
C106 O116 1.265 . S
O107 C106 1.227 . S
N108 Co105 2.121 . S
N108 C110 1.375 . S
N108 C111 1.313 . S
C109 C110 1.338 . S
C109 N112 1.377 . S
C109 H129 0.930 . S
C110 N108 1.375 . S
C110 C109 1.338 . S
C110 H114 0.931 . S
C111 N108 1.313 . S
C111 N112 1.344 . S
C111 H115 0.930 . S
N112 C109 1.377 . S
N112 C111 1.344 . S
O113 Co105 2.055 . S
O113 C117 1.253 . S
H114 C110 0.931 . S
H115 C111 0.930 . S
O116 Co105 2.039 . S
O116 C106 1.265 . S
C117 O113 1.253 . S
C117 O118 1.227 . S
O118 C117 1.227 . S
N119 Co105 2.140 . S
N119 C122 1.346 . S
N119 C123 1.345 . S
C120 C121 1.387 . S
C120 C124 1.391 . S
C121 C120 1.387 . S
C121 C122 1.369 . S
C121 H130 0.929 . S
C122 N119 1.346 . S
C122 C121 1.369 . S
C122 H125 0.928 . S
C123 N119 1.345 . S
C123 C124 1.371 . S
C123 H126 0.931 . S
C124 C120 1.391 . S
C124 C123 1.371 . S
C124 H131 0.930 . S
H125 C122 0.928 . S
H126 C123 0.931 . S
H127 C103 0.930 . S
H128 C100 0.930 . S
H129 C109 0.930 . S
H130 C121 0.929 . S
H131 C124 0.930 . S
C132 C133 1.351 . S
C132 N135 1.368 . S
C132 H137 0.931 . S
C133 C132 1.351 . S
C133 N134 1.373 . S
C133 H161 0.930 . S
N134 C133 1.373 . S
N134 C136 1.340 . S
N135 C132 1.368 . S
N135 C136 1.321 . S
N135 Co138 2.135 . S
C136 N134 1.340 . S
C136 N135 1.321 . S
C136 H160 0.930 . S
H137 C132 0.931 . S
Co138 N135 2.135 . S
Co138 N141 2.121 1_556 S
Co138 O146 2.055 . S
Co138 O149 2.039 1_556 S
Co138 N152 2.140 . S
C139 O140 1.227 1_554 S
C139 O149 1.265 . S
O140 C139 1.227 1_556 S
N141 Co138 2.121 1_554 S
N141 C143 1.375 . S
N141 C144 1.313 . S
C142 C143 1.338 . S
C142 N145 1.377 . S
C142 H162 0.930 . S
C143 N141 1.375 . S
C143 C142 1.338 . S
C143 H147 0.931 . S
C144 N141 1.313 . S
C144 N145 1.344 . S
C144 H148 0.930 . S
N145 C142 1.377 . S
N145 C144 1.344 . S
O146 Co138 2.055 . S
O146 C150 1.253 . S
H147 C143 0.931 . S
H148 C144 0.930 . S
O149 Co138 2.039 1_554 S
O149 C139 1.265 . S
C150 O146 1.253 . S
C150 O151 1.227 . S
O151 C150 1.227 . S
N152 Co138 2.140 . S
N152 C155 1.346 . S
N152 C156 1.345 . S
C153 C154 1.387 . S
C153 C157 1.391 . S
C154 C153 1.387 . S
C154 C155 1.369 . S
C154 H163 0.929 . S
C155 N152 1.346 . S
C155 C154 1.369 . S
C155 H158 0.928 . S
C156 N152 1.345 . S
C156 C157 1.371 . S
C156 H159 0.931 . S
C157 C153 1.391 . S
C157 C156 1.371 . S
C157 H164 0.930 . S
H158 C155 0.928 . S
H159 C156 0.931 . S
H160 C136 0.930 . S
H161 C133 0.930 . S
H162 C142 0.930 . S
H163 C154 0.929 . S
H164 C157 0.930 . S
C165 C166 1.351 . S
C165 N168 1.368 . S
C165 H170 0.931 . S
C166 C165 1.351 . S
C166 N167 1.373 . S
C166 H194 0.930 . S
N167 C166 1.373 . S
N167 C169 1.340 . S
N168 C165 1.368 . S
N168 C169 1.321 . S
N168 Co171 2.135 . S
C169 N167 1.340 . S
C169 N168 1.321 . S
C169 H193 0.930 . S
H170 C165 0.931 . S
Co171 N168 2.135 . S
Co171 N174 2.121 1_554 S
Co171 O179 2.055 . S
Co171 O182 2.039 1_554 S
Co171 N185 2.140 . S
C172 O173 1.227 1_556 S
C172 O182 1.265 . S
O173 C172 1.227 1_554 S
N174 Co171 2.121 1_556 S
N174 C176 1.375 . S
N174 C177 1.313 . S
C175 C176 1.338 . S
C175 N178 1.377 . S
C175 H195 0.930 . S
C176 N174 1.375 . S
C176 C175 1.338 . S
C176 H180 0.931 . S
C177 N174 1.313 . S
C177 N178 1.344 . S
C177 H181 0.930 . S
N178 C175 1.377 . S
N178 C177 1.344 . S
O179 Co171 2.055 . S
O179 C183 1.253 . S
H180 C176 0.931 . S
H181 C177 0.930 . S
O182 Co171 2.039 1_556 S
O182 C172 1.265 . S
C183 O179 1.253 . S
C183 O184 1.227 . S
O184 C183 1.227 . S
N185 Co171 2.140 . S
N185 C188 1.346 . S
N185 C189 1.345 . S
C186 C187 1.387 . S
C186 C190 1.391 . S
C187 C186 1.387 . S
C187 C188 1.369 . S
C187 H196 0.929 . S
C188 N185 1.346 . S
C188 C187 1.369 . S
C188 H191 0.928 . S
C189 N185 1.345 . S
C189 C190 1.371 . S
C189 H192 0.931 . S
C190 C186 1.391 . S
C190 C189 1.371 . S
C190 H197 0.930 . S
H191 C188 0.928 . S
H192 C189 0.931 . S
H193 C169 0.930 . S
H194 C166 0.930 . S
H195 C175 0.930 . S
H196 C187 0.929 . S
H197 C190 0.930 . S
C198 C199 1.351 . S
C198 N201 1.368 . S
C198 H203 0.931 . S
C199 C198 1.351 . S
C199 N200 1.373 . S
C199 H227 0.930 . S
N200 C199 1.373 . S
N200 C202 1.340 . S
N201 C198 1.368 . S
N201 C202 1.321 . S
N201 Co204 2.135 . S
C202 N200 1.340 . S
C202 N201 1.321 . S
C202 H226 0.930 . S
H203 C198 0.931 . S
Co204 N201 2.135 . S
Co204 N207 2.121 1_556 S
Co204 O212 2.055 . S
Co204 O215 2.039 1_556 S
Co204 N218 2.140 . S
C205 O206 1.227 1_554 S
C205 O215 1.265 . S
O206 C205 1.227 1_556 S
N207 Co204 2.121 1_554 S
N207 C209 1.375 . S
N207 C210 1.313 . S
C208 C209 1.338 . S
C208 N211 1.377 . S
C208 H228 0.930 . S
C209 N207 1.375 . S
C209 C208 1.338 . S
C209 H213 0.931 . S
C210 N207 1.313 . S
C210 N211 1.344 . S
C210 H214 0.930 . S
N211 C208 1.377 . S
N211 C210 1.344 . S
O212 Co204 2.055 . S
O212 C216 1.253 . S
H213 C209 0.931 . S
H214 C210 0.930 . S
O215 Co204 2.039 1_554 S
O215 C205 1.265 . S
C216 O212 1.253 . S
C216 O217 1.227 . S
O217 C216 1.227 . S
N218 Co204 2.140 . S
N218 C221 1.346 . S
N218 C222 1.345 . S
C219 C220 1.387 . S
C219 C223 1.391 . S
C220 C219 1.387 . S
C220 C221 1.369 . S
C220 H229 0.929 . S
C221 N218 1.346 . S
C221 C220 1.369 . S
C221 H224 0.928 . S
C222 N218 1.345 . S
C222 C223 1.371 . S
C222 H225 0.931 . S
C223 C219 1.391 . S
C223 C222 1.371 . S
C223 H230 0.930 . S
H224 C221 0.928 . S
H225 C222 0.931 . S
H226 C202 0.930 . S
H227 C199 0.930 . S
H228 C208 0.930 . S
H229 C220 0.929 . S
H230 C223 0.930 . S
C231 C232 1.351 . S
C231 N234 1.368 . S
C231 H236 0.931 . S
C232 C231 1.351 . S
C232 N233 1.373 . S
C232 H260 0.930 . S
N233 C232 1.373 . S
N233 C235 1.340 . S
N234 C231 1.368 . S
N234 C235 1.321 . S
N234 Co237 2.135 . S
C235 N233 1.340 . S
C235 N234 1.321 . S
C235 H259 0.930 . S
H236 C231 0.931 . S
Co237 N234 2.135 . S
Co237 N240 2.121 1_554 S
Co237 O245 2.055 . S
Co237 O248 2.039 1_554 S
Co237 N251 2.140 . S
C238 O239 1.227 1_556 S
C238 O248 1.265 . S
O239 C238 1.227 1_554 S
N240 Co237 2.121 1_556 S
N240 C242 1.375 . S
N240 C243 1.313 . S
C241 C242 1.338 . S
C241 N244 1.377 . S
C241 H261 0.930 . S
C242 N240 1.375 . S
C242 C241 1.338 . S
C242 H246 0.931 . S
C243 N240 1.313 . S
C243 N244 1.344 . S
C243 H247 0.930 . S
N244 C241 1.377 . S
N244 C243 1.344 . S
O245 Co237 2.055 . S
O245 C249 1.253 . S
H246 C242 0.931 . S
H247 C243 0.930 . S
O248 Co237 2.039 1_556 S
O248 C238 1.265 . S
C249 O245 1.253 . S
C249 O250 1.227 . S
O250 C249 1.227 . S
N251 Co237 2.140 . S
N251 C254 1.346 . S
N251 C255 1.345 . S
C252 C253 1.387 . S
C252 C256 1.391 . S
C253 C252 1.387 . S
C253 C254 1.369 . S
C253 H262 0.929 . S
C254 N251 1.346 . S
C254 C253 1.369 . S
C254 H257 0.928 . S
C255 N251 1.345 . S
C255 C256 1.371 . S
C255 H258 0.931 . S
C256 C252 1.391 . S
C256 C255 1.371 . S
C256 H263 0.930 . S
H257 C254 0.928 . S
H258 C255 0.931 . S
H259 C235 0.930 . S
H260 C232 0.930 . S
H261 C241 0.930 . S
H262 C253 0.929 . S
H263 C256 0.930 . S
C264 C265 1.351 . S
C264 N267 1.368 . S
C264 H269 0.931 . S
C265 C264 1.351 . S
C265 N266 1.373 . S
C265 H293 0.930 . S
N266 C265 1.373 . S
N266 C268 1.340 . S
N267 C264 1.368 . S
N267 C268 1.321 . S
N267 Co270 2.135 . S
C268 N266 1.340 . S
C268 N267 1.321 . S
C268 H292 0.930 . S
H269 C264 0.931 . S
Co270 N267 2.135 . S
Co270 N273 2.121 . S
Co270 O278 2.055 . S
Co270 O281 2.039 . S
Co270 N284 2.140 . S
C271 O272 1.227 . S
C271 O281 1.265 . S
O272 C271 1.227 . S
N273 Co270 2.121 . S
N273 C275 1.375 . S
N273 C276 1.313 . S
C274 C275 1.338 . S
C274 N277 1.377 . S
C274 H294 0.930 . S
C275 N273 1.375 . S
C275 C274 1.338 . S
C275 H279 0.931 . S
C276 N273 1.313 . S
C276 N277 1.344 . S
C276 H280 0.930 . S
N277 C274 1.377 . S
N277 C276 1.344 . S
O278 Co270 2.055 . S
O278 C282 1.253 . S
H279 C275 0.931 . S
H280 C276 0.930 . S
O281 Co270 2.039 . S
O281 C271 1.265 . S
C282 O278 1.253 . S
C282 O283 1.227 . S
O283 C282 1.227 . S
N284 Co270 2.140 . S
N284 C287 1.346 . S
N284 C288 1.345 . S
C285 C286 1.387 . S
C285 C289 1.391 . S
C286 C285 1.387 . S
C286 C287 1.369 . S
C286 H295 0.929 . S
C287 N284 1.346 . S
C287 C286 1.369 . S
C287 H290 0.928 . S
C288 N284 1.345 . S
C288 C289 1.371 . S
C288 H291 0.931 . S
C289 C285 1.391 . S
C289 C288 1.371 . S
C289 H296 0.930 . S
H290 C287 0.928 . S
H291 C288 0.931 . S
H292 C268 0.930 . S
H293 C265 0.930 . S
H294 C274 0.930 . S
H295 C286 0.929 . S
H296 C289 0.930 . S
C297 C298 1.351 . S
C297 N300 1.368 . S
C297 H302 0.931 . S
C298 C297 1.351 . S
C298 N299 1.373 . S
C298 H326 0.930 . S
N299 C298 1.373 . S
N299 C301 1.340 . S
N300 C297 1.368 . S
N300 C301 1.321 . S
N300 Co303 2.135 . S
C301 N299 1.340 . S
C301 N300 1.321 . S
C301 H325 0.930 . S
H302 C297 0.931 . S
Co303 N300 2.135 . S
Co303 N306 2.121 . S
Co303 O311 2.055 . S
Co303 O314 2.039 . S
Co303 N317 2.140 . S
C304 O305 1.227 . S
C304 O314 1.265 . S
O305 C304 1.227 . S
N306 Co303 2.121 . S
N306 C308 1.375 . S
N306 C309 1.313 . S
C307 C308 1.338 . S
C307 N310 1.377 . S
C307 H327 0.930 . S
C308 N306 1.375 . S
C308 C307 1.338 . S
C308 H312 0.931 . S
C309 N306 1.313 . S
C309 N310 1.344 . S
C309 H313 0.930 . S
N310 C307 1.377 . S
N310 C309 1.344 . S
O311 Co303 2.055 . S
O311 C315 1.253 . S
H312 C308 0.931 . S
H313 C309 0.930 . S
O314 Co303 2.039 . S
O314 C304 1.265 . S
C315 O311 1.253 . S
C315 O316 1.227 . S
O316 C315 1.227 . S
N317 Co303 2.140 . S
N317 C320 1.346 . S
N317 C321 1.345 . S
C318 C319 1.387 . S
C318 C322 1.391 . S
C319 C318 1.387 . S
C319 C320 1.369 . S
C319 H328 0.929 . S
C320 N317 1.346 . S
C320 C319 1.369 . S
C320 H323 0.928 . S
C321 N317 1.345 . S
C321 C322 1.371 . S
C321 H324 0.931 . S
C322 C318 1.391 . S
C322 C321 1.371 . S
C322 H329 0.930 . S
H323 C320 0.928 . S
H324 C321 0.931 . S
H325 C301 0.930 . S
H326 C298 0.930 . S
H327 C307 0.930 . S
H328 C319 0.929 . S
H329 C322 0.930 . S
C330 C331 1.351 . S
C330 N333 1.368 . S
C330 H335 0.931 . S
C331 C330 1.351 . S
C331 N332 1.373 . S
C331 H359 0.930 . S
N332 C331 1.373 . S
N332 C334 1.340 . S
N333 C330 1.368 . S
N333 C334 1.321 . S
N333 Co336 2.135 . S
C334 N332 1.340 . S
C334 N333 1.321 . S
C334 H358 0.930 . S
H335 C330 0.931 . S
Co336 N333 2.135 . S
Co336 N339 2.121 . S
Co336 O344 2.055 . S
Co336 O347 2.039 . S
Co336 N350 2.140 . S
C337 O338 1.227 . S
C337 O347 1.265 . S
O338 C337 1.227 . S
N339 Co336 2.121 . S
N339 C341 1.375 . S
N339 C342 1.313 . S
C340 C341 1.338 . S
C340 N343 1.377 . S
C340 H360 0.930 . S
C341 N339 1.375 . S
C341 C340 1.338 . S
C341 H345 0.931 . S
C342 N339 1.313 . S
C342 N343 1.344 . S
C342 H346 0.930 . S
N343 C340 1.377 . S
N343 C342 1.344 . S
O344 Co336 2.055 . S
O344 C348 1.253 . S
H345 C341 0.931 . S
H346 C342 0.930 . S
O347 Co336 2.039 . S
O347 C337 1.265 . S
C348 O344 1.253 . S
C348 O349 1.227 . S
O349 C348 1.227 . S
N350 Co336 2.140 . S
N350 C353 1.346 . S
N350 C354 1.345 . S
C351 C352 1.387 . S
C351 C355 1.391 . S
C352 C351 1.387 . S
C352 C353 1.369 . S
C352 H361 0.929 . S
C353 N350 1.346 . S
C353 C352 1.369 . S
C353 H356 0.928 . S
C354 N350 1.345 . S
C354 C355 1.371 . S
C354 H357 0.931 . S
C355 C351 1.391 . S
C355 C354 1.371 . S
C355 H362 0.930 . S
H356 C353 0.928 . S
H357 C354 0.931 . S
H358 C334 0.930 . S
H359 C331 0.930 . S
H360 C340 0.930 . S
H361 C352 0.929 . S
H362 C355 0.930 . S
C363 C364 1.351 . S
C363 N366 1.368 . S
C363 H368 0.931 . S
C364 C363 1.351 . S
C364 N365 1.373 . S
C364 H392 0.930 . S
N365 C364 1.373 . S
N365 C367 1.340 . S
N366 C363 1.368 . S
N366 C367 1.321 . S
N366 Co369 2.135 . S
C367 N365 1.340 . S
C367 N366 1.321 . S
C367 H391 0.930 . S
H368 C363 0.931 . S
Co369 N366 2.135 . S
Co369 N372 2.121 . S
Co369 O377 2.055 . S
Co369 O380 2.039 . S
Co369 N383 2.140 . S
C370 O371 1.227 . S
C370 O380 1.265 . S
O371 C370 1.227 . S
N372 Co369 2.121 . S
N372 C374 1.375 . S
N372 C375 1.313 . S
C373 C374 1.338 . S
C373 N376 1.377 . S
C373 H393 0.930 . S
C374 N372 1.375 . S
C374 C373 1.338 . S
C374 H378 0.931 . S
C375 N372 1.313 . S
C375 N376 1.344 . S
C375 H379 0.930 . S
N376 C373 1.377 . S
N376 C375 1.344 . S
O377 Co369 2.055 . S
O377 C381 1.253 . S
H378 C374 0.931 . S
H379 C375 0.930 . S
O380 Co369 2.039 . S
O380 C370 1.265 . S
C381 O377 1.253 . S
C381 O382 1.227 . S
O382 C381 1.227 . S
N383 Co369 2.140 . S
N383 C386 1.346 . S
N383 C387 1.345 . S
C384 C385 1.387 . S
C384 C388 1.391 . S
C385 C384 1.387 . S
C385 C386 1.369 . S
C385 H394 0.929 . S
C386 N383 1.346 . S
C386 C385 1.369 . S
C386 H389 0.928 . S
C387 N383 1.345 . S
C387 C388 1.371 . S
C387 H390 0.931 . S
C388 C384 1.391 . S
C388 C387 1.371 . S
C388 H395 0.930 . S
H389 C386 0.928 . S
H390 C387 0.931 . S
H391 C367 0.930 . S
H392 C364 0.930 . S
H393 C373 0.930 . S
H394 C385 0.929 . S
H395 C388 0.930 . S
C396 C397 1.351 . S
C396 N399 1.368 . S
C396 H401 0.931 . S
C397 C396 1.351 . S
C397 N398 1.373 . S
C397 H425 0.930 . S
N398 C397 1.373 . S
N398 C400 1.340 . S
N399 C396 1.368 . S
N399 C400 1.321 . S
N399 Co402 2.135 . S
C400 N398 1.340 . S
C400 N399 1.321 . S
C400 H424 0.930 . S
H401 C396 0.931 . S
Co402 N399 2.135 . S
Co402 N405 2.121 . S
Co402 O410 2.055 . S
Co402 O413 2.039 . S
Co402 N416 2.140 . S
C403 O404 1.227 . S
C403 O413 1.265 . S
O404 C403 1.227 . S
N405 Co402 2.121 . S
N405 C407 1.375 . S
N405 C408 1.313 . S
C406 C407 1.338 . S
C406 N409 1.377 . S
C406 H426 0.930 . S
C407 N405 1.375 . S
C407 C406 1.338 . S
C407 H411 0.931 . S
C408 N405 1.313 . S
C408 N409 1.344 . S
C408 H412 0.930 . S
N409 C406 1.377 . S
N409 C408 1.344 . S
O410 Co402 2.055 . S
O410 C414 1.253 . S
H411 C407 0.931 . S
H412 C408 0.930 . S
O413 Co402 2.039 . S
O413 C403 1.265 . S
C414 O410 1.253 . S
C414 O415 1.227 . S
O415 C414 1.227 . S
N416 Co402 2.140 . S
N416 C419 1.346 . S
N416 C420 1.345 . S
C417 C418 1.387 . S
C417 C421 1.391 . S
C418 C417 1.387 . S
C418 C419 1.369 . S
C418 H427 0.929 . S
C419 N416 1.346 . S
C419 C418 1.369 . S
C419 H422 0.928 . S
C420 N416 1.345 . S
C420 C421 1.371 . S
C420 H423 0.931 . S
C421 C417 1.391 . S
C421 C420 1.371 . S
C421 H428 0.930 . S
H422 C419 0.928 . S
H423 C420 0.931 . S
H424 C400 0.930 . S
H425 C397 0.930 . S
H426 C406 0.930 . S
H427 C418 0.929 . S
H428 C421 0.930 . S
C429 C430 1.351 . S
C429 N432 1.368 . S
C429 H434 0.931 . S
C430 C429 1.351 . S
C430 N431 1.373 . S
C430 H458 0.930 . S
N431 C430 1.373 . S
N431 C433 1.340 . S
N432 C429 1.368 . S
N432 C433 1.321 . S
N432 Co435 2.135 . S
C433 N431 1.340 . S
C433 N432 1.321 . S
C433 H457 0.930 . S
H434 C429 0.931 . S
Co435 N432 2.135 . S
Co435 N438 2.121 . S
Co435 O443 2.055 . S
Co435 O446 2.039 . S
Co435 N449 2.140 . S
C436 O437 1.227 . S
C436 O446 1.265 . S
O437 C436 1.227 . S
N438 Co435 2.121 . S
N438 C440 1.375 . S
N438 C441 1.313 . S
C439 C440 1.338 . S
C439 N442 1.377 . S
C439 H459 0.930 . S
C440 N438 1.375 . S
C440 C439 1.338 . S
C440 H444 0.931 . S
C441 N438 1.313 . S
C441 N442 1.344 . S
C441 H445 0.930 . S
N442 C439 1.377 . S
N442 C441 1.344 . S
O443 Co435 2.055 . S
O443 C447 1.253 . S
H444 C440 0.931 . S
H445 C441 0.930 . S
O446 Co435 2.039 . S
O446 C436 1.265 . S
C447 O443 1.253 . S
C447 O448 1.227 . S
O448 C447 1.227 . S
N449 Co435 2.140 . S
N449 C452 1.346 . S
N449 C453 1.345 . S
C450 C451 1.387 . S
C450 C454 1.391 . S
C451 C450 1.387 . S
C451 C452 1.369 . S
C451 H460 0.929 . S
C452 N449 1.346 . S
C452 C451 1.369 . S
C452 H455 0.928 . S
C453 N449 1.345 . S
C453 C454 1.371 . S
C453 H456 0.931 . S
C454 C450 1.391 . S
C454 C453 1.371 . S
C454 H461 0.930 . S
H455 C452 0.928 . S
H456 C453 0.931 . S
H457 C433 0.930 . S
H458 C430 0.930 . S
H459 C439 0.930 . S
H460 C451 0.929 . S
H461 C454 0.930 . S
C462 C463 1.351 . S
C462 N465 1.368 . S
C462 H467 0.931 . S
C463 C462 1.351 . S
C463 N464 1.373 . S
C463 H491 0.930 . S
N464 C463 1.373 . S
N464 C466 1.340 . S
N465 C462 1.368 . S
N465 C466 1.321 . S
N465 Co468 2.135 . S
C466 N464 1.340 . S
C466 N465 1.321 . S
C466 H490 0.930 . S
H467 C462 0.931 . S
Co468 N465 2.135 . S
Co468 N471 2.121 . S
Co468 O476 2.055 . S
Co468 O479 2.039 . S
Co468 N482 2.140 . S
C469 O470 1.227 . S
C469 O479 1.265 . S
O470 C469 1.227 . S
N471 Co468 2.121 . S
N471 C473 1.375 . S
N471 C474 1.313 . S
C472 C473 1.338 . S
C472 N475 1.377 . S
C472 H492 0.930 . S
C473 N471 1.375 . S
C473 C472 1.338 . S
C473 H477 0.931 . S
C474 N471 1.313 . S
C474 N475 1.344 . S
C474 H478 0.930 . S
N475 C472 1.377 . S
N475 C474 1.344 . S
O476 Co468 2.055 . S
O476 C480 1.253 . S
H477 C473 0.931 . S
H478 C474 0.930 . S
O479 Co468 2.039 . S
O479 C469 1.265 . S
C480 O476 1.253 . S
C480 O481 1.227 . S
O481 C480 1.227 . S
N482 Co468 2.140 . S
N482 C485 1.346 . S
N482 C486 1.345 . S
C483 C484 1.387 . S
C483 C487 1.391 . S
C484 C483 1.387 . S
C484 C485 1.369 . S
C484 H493 0.929 . S
C485 N482 1.346 . S
C485 C484 1.369 . S
C485 H488 0.928 . S
C486 N482 1.345 . S
C486 C487 1.371 . S
C486 H489 0.931 . S
C487 C483 1.391 . S
C487 C486 1.371 . S
C487 H494 0.930 . S
H488 C485 0.928 . S
H489 C486 0.931 . S
H490 C466 0.930 . S
H491 C463 0.930 . S
H492 C472 0.930 . S
H493 C484 0.929 . S
H494 C487 0.930 . S
C495 C496 1.351 . S
C495 N498 1.368 . S
C495 H500 0.931 . S
C496 C495 1.351 . S
C496 N497 1.373 . S
C496 H524 0.930 . S
N497 C496 1.373 . S
N497 C499 1.340 . S
N498 C495 1.368 . S
N498 C499 1.321 . S
N498 Co501 2.135 . S
C499 N497 1.340 . S
C499 N498 1.321 . S
C499 H523 0.930 . S
H500 C495 0.931 . S
Co501 N498 2.135 . S
Co501 N504 2.121 . S
Co501 O509 2.055 . S
Co501 O512 2.039 . S
Co501 N515 2.140 . S
C502 O503 1.227 . S
C502 O512 1.265 . S
O503 C502 1.227 . S
N504 Co501 2.121 . S
N504 C506 1.375 . S
N504 C507 1.313 . S
C505 C506 1.338 . S
C505 N508 1.377 . S
C505 H525 0.930 . S
C506 N504 1.375 . S
C506 C505 1.338 . S
C506 H510 0.931 . S
C507 N504 1.313 . S
C507 N508 1.344 . S
C507 H511 0.930 . S
N508 C505 1.377 . S
N508 C507 1.344 . S
O509 Co501 2.055 . S
O509 C513 1.253 . S
H510 C506 0.931 . S
H511 C507 0.930 . S
O512 Co501 2.039 . S
O512 C502 1.265 . S
C513 O509 1.253 . S
C513 O514 1.227 . S
O514 C513 1.227 . S
N515 Co501 2.140 . S
N515 C518 1.346 . S
N515 C519 1.345 . S
C516 C517 1.387 . S
C516 C520 1.391 . S
C517 C516 1.387 . S
C517 C518 1.369 . S
C517 H526 0.929 . S
C518 N515 1.346 . S
C518 C517 1.369 . S
C518 H521 0.928 . S
C519 N515 1.345 . S
C519 C520 1.371 . S
C519 H522 0.931 . S
C520 C516 1.391 . S
C520 C519 1.371 . S
C520 H527 0.930 . S
H521 C518 0.928 . S
H522 C519 0.931 . S
H523 C499 0.930 . S
H524 C496 0.930 . S
H525 C505 0.930 . S
H526 C517 0.929 . S
H527 C520 0.930 . S
H528 C540 0.930 . S
H529 C542 0.930 . S
H530 C543 0.930 . S
H531 C547 0.959 . S
H532 C547 0.959 . S
H533 C547 0.961 . S
H534 C548 0.960 . S
H535 C548 0.961 . S
H536 C548 0.959 . S
H537 C551 0.929 . S
H538 C552 0.931 . S
H539 C554 0.930 . S
C540 H528 0.930 . S
C540 C541 1.399 . S
C540 C545 1.399 . S
C541 C540 1.399 . S
C541 C542 1.376 . S
C542 H529 0.930 . S
C542 C541 1.376 . S
C542 C543 1.388 . S
C543 H530 0.930 . S
C543 C542 1.388 . S
C543 C544 1.390 . S
C544 C543 1.390 . S
C544 C545 1.394 . S
C544 C550 1.465 . S
C545 C540 1.399 . S
C545 C544 1.394 . S
C545 C546 1.516 . S
C546 C545 1.516 . S
C546 C547 1.502 . S
C546 C548 1.561 . S
C546 C549 1.526 . S
C547 H531 0.959 . S
C547 H532 0.959 . S
C547 H533 0.961 . S
C547 C546 1.502 . S
C548 H534 0.960 . S
C548 H535 0.961 . S
C548 H536 0.959 . S
C548 C546 1.561 . S
C549 C546 1.526 . S
C549 C550 1.396 . S
C549 C554 1.390 . S
C550 C544 1.465 . S
C550 C549 1.396 . S
C550 C551 1.399 . S
C551 H537 0.929 . S
C551 C550 1.399 . S
C551 C552 1.385 . S
C552 H538 0.931 . S
C552 C551 1.385 . S
C552 C553 1.389 . S
C553 C552 1.389 . S
C553 C554 1.387 . S
C554 H539 0.930 . S
C554 C549 1.390 . S
C554 C553 1.387 . S
H555 C567 0.930 . S
H556 C569 0.930 . S
H557 C570 0.930 . S
H558 C574 0.959 . S
H559 C574 0.959 . S
H560 C574 0.961 . S
H561 C575 0.960 . S
H562 C575 0.961 . S
H563 C575 0.959 . S
H564 C578 0.929 . S
H565 C579 0.931 . S
H566 C581 0.930 . S
C567 H555 0.930 . S
C567 C568 1.399 . S
C567 C572 1.399 . S
C568 C567 1.399 . S
C568 C569 1.376 . S
C569 H556 0.930 . S
C569 C568 1.376 . S
C569 C570 1.388 . S
C570 H557 0.930 . S
C570 C569 1.388 . S
C570 C571 1.390 . S
C571 C570 1.390 . S
C571 C572 1.394 . S
C571 C577 1.465 . S
C572 C567 1.399 . S
C572 C571 1.394 . S
C572 C573 1.516 . S
C573 C572 1.516 . S
C573 C574 1.502 . S
C573 C575 1.561 . S
C573 C576 1.526 . S
C574 H558 0.959 . S
C574 H559 0.959 . S
C574 H560 0.961 . S
C574 C573 1.502 . S
C575 H561 0.960 . S
C575 H562 0.961 . S
C575 H563 0.959 . S
C575 C573 1.561 . S
C576 C573 1.526 . S
C576 C577 1.396 . S
C576 C581 1.390 . S
C577 C571 1.465 . S
C577 C576 1.396 . S
C577 C578 1.399 . S
C578 H564 0.929 . S
C578 C577 1.399 . S
C578 C579 1.385 . S
C579 H565 0.931 . S
C579 C578 1.385 . S
C579 C580 1.389 . S
C580 C579 1.389 . S
C580 C581 1.387 . S
C581 H566 0.930 . S
C581 C576 1.390 . S
C581 C580 1.387 . S
H582 C594 0.930 . S
H583 C596 0.930 . S
H584 C597 0.930 . S
H585 C601 0.959 . S
H586 C601 0.959 . S
H587 C601 0.961 . S
H588 C602 0.960 . S
H589 C602 0.963 1_556 S
H590 C602 0.959 . S
H591 C605 0.929 . S
H592 C606 0.931 . S
H593 C608 0.930 . S
C594 H582 0.930 . S
C594 C595 1.399 . S
C594 C599 1.399 . S
C595 C594 1.399 . S
C595 C596 1.376 . S
C596 H583 0.930 . S
C596 C595 1.376 . S
C596 C597 1.388 . S
C597 H584 0.930 . S
C597 C596 1.388 . S
C597 C598 1.390 . S
C598 C597 1.390 . S
C598 C599 1.394 . S
C598 C604 1.465 . S
C599 C594 1.399 . S
C599 C598 1.394 . S
C599 C600 1.516 . S
C600 C599 1.516 . S
C600 C601 1.502 . S
C600 C602 1.561 . S
C600 C603 1.526 . S
C601 H585 0.959 . S
C601 H586 0.959 . S
C601 H587 0.961 . S
C601 C600 1.502 . S
C602 H588 0.960 . S
C602 H589 0.963 1_554 S
C602 H590 0.959 . S
C602 C600 1.561 . S
C603 C600 1.526 . S
C603 C604 1.396 . S
C603 C608 1.390 . S
C604 C598 1.465 . S
C604 C603 1.396 . S
C604 C605 1.399 . S
C605 H591 0.929 . S
C605 C604 1.399 . S
C605 C606 1.385 . S
C606 H592 0.931 . S
C606 C605 1.385 . S
C606 C607 1.389 . S
C607 C606 1.389 . S
C607 C608 1.387 . S
C608 H593 0.930 . S
C608 C603 1.390 . S
C608 C607 1.387 . S
H609 C621 0.930 . S
H610 C623 0.930 . S
H611 C624 0.930 . S
H612 C628 0.959 . S
H613 C628 0.959 . S
H614 C628 0.961 . S
H615 C629 0.960 . S
H616 C629 0.961 . S
H617 C629 0.959 . S
H618 C632 0.929 . S
H619 C633 0.931 . S
H620 C635 0.930 . S
C621 H609 0.930 . S
C621 C622 1.399 . S
C621 C626 1.399 . S
C622 C621 1.399 . S
C622 C623 1.376 . S
C623 H610 0.930 . S
C623 C622 1.376 . S
C623 C624 1.388 . S
C624 H611 0.930 . S
C624 C623 1.388 . S
C624 C625 1.390 . S
C625 C624 1.390 . S
C625 C626 1.394 . S
C625 C631 1.465 . S
C626 C621 1.399 . S
C626 C625 1.394 . S
C626 C627 1.516 . S
C627 C626 1.516 . S
C627 C628 1.502 . S
C627 C629 1.561 . S
C627 C630 1.526 . S
C628 H612 0.959 . S
C628 H613 0.959 . S
C628 H614 0.961 . S
C628 C627 1.502 . S
C629 H615 0.960 . S
C629 H616 0.961 . S
C629 H617 0.959 . S
C629 C627 1.561 . S
C630 C627 1.526 . S
C630 C631 1.396 . S
C630 C635 1.390 . S
C631 C625 1.465 . S
C631 C630 1.396 . S
C631 C632 1.399 . S
C632 H618 0.929 . S
C632 C631 1.399 . S
C632 C633 1.385 . S
C633 H619 0.931 . S
C633 C632 1.385 . S
C633 C634 1.389 . S
C634 C633 1.389 . S
C634 C635 1.387 . S
C635 H620 0.930 . S
C635 C630 1.390 . S
C635 C634 1.387 . S
H636 C648 0.930 . S
H637 C650 0.930 . S
H638 C651 0.930 . S
H639 C655 0.959 . S
H640 C655 0.959 . S
H641 C655 0.961 . S
H642 C656 0.960 . S
H643 C656 0.961 . S
H644 C656 0.959 . S
H645 C659 0.929 . S
H646 C660 0.931 . S
H647 C662 0.930 . S
C648 H636 0.930 . S
C648 C649 1.399 . S
C648 C653 1.399 . S
C649 C648 1.399 . S
C649 C650 1.376 . S
C650 H637 0.930 . S
C650 C649 1.376 . S
C650 C651 1.388 . S
C651 H638 0.930 . S
C651 C650 1.388 . S
C651 C652 1.390 . S
C652 C651 1.390 . S
C652 C653 1.394 . S
C652 C658 1.465 . S
C653 C648 1.399 . S
C653 C652 1.394 . S
C653 C654 1.516 . S
C654 C653 1.516 . S
C654 C655 1.502 . S
C654 C656 1.561 . S
C654 C657 1.526 . S
C655 H639 0.959 . S
C655 H640 0.959 . S
C655 H641 0.961 . S
C655 C654 1.502 . S
C656 H642 0.960 . S
C656 H643 0.961 . S
C656 H644 0.959 . S
C656 C654 1.561 . S
C657 C654 1.526 . S
C657 C658 1.396 . S
C657 C662 1.390 . S
C658 C652 1.465 . S
C658 C657 1.396 . S
C658 C659 1.399 . S
C659 H645 0.929 . S
C659 C658 1.399 . S
C659 C660 1.385 . S
C660 H646 0.931 . S
C660 C659 1.385 . S
C660 C661 1.389 . S
C661 C660 1.389 . S
C661 C662 1.387 . S
C662 H647 0.930 . S
C662 C657 1.390 . S
C662 C661 1.387 . S
H663 C675 0.930 . S
H664 C677 0.930 . S
H665 C678 0.930 . S
H666 C682 0.959 . S
H667 C682 0.959 . S
H668 C682 0.961 . S
H669 C683 0.960 . S
H670 C683 0.961 . S
H671 C683 0.959 . S
H672 C686 0.929 . S
H673 C687 0.931 . S
H674 C689 0.930 . S
C675 H663 0.930 . S
C675 C676 1.399 . S
C675 C680 1.399 . S
C676 C675 1.399 . S
C676 C677 1.376 . S
C677 H664 0.930 . S
C677 C676 1.376 . S
C677 C678 1.388 . S
C678 H665 0.930 . S
C678 C677 1.388 . S
C678 C679 1.390 . S
C679 C678 1.390 . S
C679 C680 1.394 . S
C679 C685 1.465 . S
C680 C675 1.399 . S
C680 C679 1.394 . S
C680 C681 1.516 . S
C681 C680 1.516 . S
C681 C682 1.502 . S
C681 C683 1.561 . S
C681 C684 1.526 . S
C682 H666 0.959 . S
C682 H667 0.959 . S
C682 H668 0.961 . S
C682 C681 1.502 . S
C683 H669 0.960 . S
C683 H670 0.961 . S
C683 H671 0.959 . S
C683 C681 1.561 . S
C684 C681 1.526 . S
C684 C685 1.396 . S
C684 C689 1.390 . S
C685 C679 1.465 . S
C685 C684 1.396 . S
C685 C686 1.399 . S
C686 H672 0.929 . S
C686 C685 1.399 . S
C686 C687 1.385 . S
C687 H673 0.931 . S
C687 C686 1.385 . S
C687 C688 1.389 . S
C688 C687 1.389 . S
C688 C689 1.387 . S
C689 H674 0.930 . S
C689 C684 1.390 . S
C689 C688 1.387 . S
H690 C702 0.930 . S
H691 C704 0.930 . S
H692 C705 0.930 . S
H693 C709 0.959 . S
H694 C709 0.959 . S
H695 C709 0.961 . S
H696 C710 0.960 . S
H697 C710 0.961 . S
H698 C710 0.959 . S
H699 C713 0.929 . S
H700 C714 0.931 . S
H701 C716 0.930 . S
C702 H690 0.930 . S
C702 C703 1.399 . S
C702 C707 1.399 . S
C703 C702 1.399 . S
C703 C704 1.376 . S
C704 H691 0.930 . S
C704 C703 1.376 . S
C704 C705 1.388 . S
C705 H692 0.930 . S
C705 C704 1.388 . S
C705 C706 1.390 . S
C706 C705 1.390 . S
C706 C707 1.394 . S
C706 C712 1.465 . S
C707 C702 1.399 . S
C707 C706 1.394 . S
C707 C708 1.516 . S
C708 C707 1.516 . S
C708 C709 1.502 . S
C708 C710 1.561 . S
C708 C711 1.526 . S
C709 H693 0.959 . S
C709 H694 0.959 . S
C709 H695 0.961 . S
C709 C708 1.502 . S
C710 H696 0.960 . S
C710 H697 0.961 . S
C710 H698 0.959 . S
C710 C708 1.561 . S
C711 C708 1.526 . S
C711 C712 1.396 . S
C711 C716 1.390 . S
C712 C706 1.465 . S
C712 C711 1.396 . S
C712 C713 1.399 . S
C713 H699 0.929 . S
C713 C712 1.399 . S
C713 C714 1.385 . S
C714 H700 0.931 . S
C714 C713 1.385 . S
C714 C715 1.389 . S
C715 C714 1.389 . S
C715 C716 1.387 . S
C716 H701 0.930 . S
C716 C711 1.390 . S
C716 C715 1.387 . S
H717 C729 0.930 . S
H718 C731 0.930 . S
H719 C732 0.930 . S
H720 C736 0.959 . S
H721 C736 0.959 . S
H722 C736 0.961 . S
H723 C737 0.960 . S
H724 C737 0.961 . S
H725 C737 0.959 . S
H726 C740 0.929 . S
H727 C741 0.931 . S
H728 C743 0.930 . S
C729 H717 0.930 . S
C729 C730 1.399 . S
C729 C734 1.399 . S
C730 C729 1.399 . S
C730 C731 1.376 . S
C731 H718 0.930 . S
C731 C730 1.376 . S
C731 C732 1.388 . S
C732 H719 0.930 . S
C732 C731 1.388 . S
C732 C733 1.390 . S
C733 C732 1.390 . S
C733 C734 1.394 . S
C733 C739 1.465 . S
C734 C729 1.399 . S
C734 C733 1.394 . S
C734 C735 1.516 . S
C735 C734 1.516 . S
C735 C736 1.502 . S
C735 C737 1.561 . S
C735 C738 1.526 . S
C736 H720 0.959 . S
C736 H721 0.959 . S
C736 H722 0.961 . S
C736 C735 1.502 . S
C737 H723 0.960 . S
C737 H724 0.961 . S
C737 H725 0.959 . S
C737 C735 1.561 . S
C738 C735 1.526 . S
C738 C739 1.396 . S
C738 C743 1.390 . S
C739 C733 1.465 . S
C739 C738 1.396 . S
C739 C740 1.399 . S
C740 H726 0.929 . S
C740 C739 1.399 . S
C740 C741 1.385 . S
C741 H727 0.931 . S
C741 C740 1.385 . S
C741 C742 1.389 . S
C742 C741 1.389 . S
C742 C743 1.387 . S
C743 H728 0.930 . S
C743 C738 1.390 . S
C743 C742 1.387 . S
H744 C756 0.930 . S
H745 C758 0.930 . S
H746 C759 0.930 . S
H747 C763 0.959 . S
H748 C763 0.959 . S
H749 C763 0.961 . S
H750 C764 0.960 . S
H751 C764 0.961 . S
H752 C764 0.959 . S
H753 C767 0.929 . S
H754 C768 0.931 . S
H755 C770 0.930 . S
C756 H744 0.930 . S
C756 C757 1.399 . S
C756 C761 1.399 . S
C757 C756 1.399 . S
C757 C758 1.376 . S
C758 H745 0.930 . S
C758 C757 1.376 . S
C758 C759 1.388 . S
C759 H746 0.930 . S
C759 C758 1.388 . S
C759 C760 1.390 . S
C760 C759 1.390 . S
C760 C761 1.394 . S
C760 C766 1.465 . S
C761 C756 1.399 . S
C761 C760 1.394 . S
C761 C762 1.516 . S
C762 C761 1.516 . S
C762 C763 1.502 . S
C762 C764 1.561 . S
C762 C765 1.526 . S
C763 H747 0.959 . S
C763 H748 0.959 . S
C763 H749 0.961 . S
C763 C762 1.502 . S
C764 H750 0.960 . S
C764 H751 0.961 . S
C764 H752 0.959 . S
C764 C762 1.561 . S
C765 C762 1.526 . S
C765 C766 1.396 . S
C765 C770 1.390 . S
C766 C760 1.465 . S
C766 C765 1.396 . S
C766 C767 1.399 . S
C767 H753 0.929 . S
C767 C766 1.399 . S
C767 C768 1.385 . S
C768 H754 0.931 . S
C768 C767 1.385 . S
C768 C769 1.389 . S
C769 C768 1.389 . S
C769 C770 1.387 . S
C770 H755 0.930 . S
C770 C765 1.390 . S
C770 C769 1.387 . S
H771 C783 0.930 . S
H772 C785 0.930 . S
H773 C786 0.930 . S
H774 C790 0.959 . S
H775 C790 0.959 . S
H776 C790 0.961 . S
H777 C791 0.960 . S
H778 C791 0.961 . S
H779 C791 0.959 . S
H780 C794 0.929 . S
H781 C795 0.931 . S
H782 C797 0.930 . S
C783 H771 0.930 . S
C783 C784 1.399 . S
C783 C788 1.399 . S
C784 C783 1.399 . S
C784 C785 1.376 . S
C785 H772 0.930 . S
C785 C784 1.376 . S
C785 C786 1.388 . S
C786 H773 0.930 . S
C786 C785 1.388 . S
C786 C787 1.390 . S
C787 C786 1.390 . S
C787 C788 1.394 . S
C787 C793 1.465 . S
C788 C783 1.399 . S
C788 C787 1.394 . S
C788 C789 1.516 . S
C789 C788 1.516 . S
C789 C790 1.502 . S
C789 C791 1.561 . S
C789 C792 1.526 . S
C790 H774 0.959 . S
C790 H775 0.959 . S
C790 H776 0.961 . S
C790 C789 1.502 . S
C791 H777 0.960 . S
C791 H778 0.961 . S
C791 H779 0.959 . S
C791 C789 1.561 . S
C792 C789 1.526 . S
C792 C793 1.396 . S
C792 C797 1.390 . S
C793 C787 1.465 . S
C793 C792 1.396 . S
C793 C794 1.399 . S
C794 H780 0.929 . S
C794 C793 1.399 . S
C794 C795 1.385 . S
C795 H781 0.931 . S
C795 C794 1.385 . S
C795 C796 1.389 . S
C796 C795 1.389 . S
C796 C797 1.387 . S
C797 H782 0.930 . S
C797 C792 1.390 . S
C797 C796 1.387 . S
H798 C810 0.930 . S
H799 C812 0.930 . S
H800 C813 0.930 . S
H801 C817 0.959 . S
H802 C817 0.959 . S
H803 C817 0.961 . S
H804 C818 0.960 . S
H805 C818 0.961 . S
H806 C818 0.959 . S
H807 C821 0.929 . S
H808 C822 0.931 . S
H809 C824 0.930 . S
C810 H798 0.930 . S
C810 C811 1.399 . S
C810 C815 1.399 . S
C811 C810 1.399 . S
C811 C812 1.376 . S
C812 H799 0.930 . S
C812 C811 1.376 . S
C812 C813 1.388 . S
C813 H800 0.930 . S
C813 C812 1.388 . S
C813 C814 1.390 . S
C814 C813 1.390 . S
C814 C815 1.394 . S
C814 C820 1.465 . S
C815 C810 1.399 . S
C815 C814 1.394 . S
C815 C816 1.516 . S
C816 C815 1.516 . S
C816 C817 1.502 . S
C816 C818 1.561 . S
C816 C819 1.526 . S
C817 H801 0.959 . S
C817 H802 0.959 . S
C817 H803 0.961 . S
C817 C816 1.502 . S
C818 H804 0.960 . S
C818 H805 0.961 . S
C818 H806 0.959 . S
C818 C816 1.561 . S
C819 C816 1.526 . S
C819 C820 1.396 . S
C819 C824 1.390 . S
C820 C814 1.465 . S
C820 C819 1.396 . S
C820 C821 1.399 . S
C821 H807 0.929 . S
C821 C820 1.399 . S
C821 C822 1.385 . S
C822 H808 0.931 . S
C822 C821 1.385 . S
C822 C823 1.389 . S
C823 C822 1.389 . S
C823 C824 1.387 . S
C824 H809 0.930 . S
C824 C819 1.390 . S
C824 C823 1.387 . S
H825 C837 0.930 . S
H826 C839 0.930 . S
H827 C840 0.930 . S
H828 C844 0.959 . S
H829 C844 0.959 . S
H830 C844 0.961 . S
H831 C845 0.960 . S
H832 C845 0.961 . S
H833 C845 0.959 . S
H834 C848 0.929 . S
H835 C849 0.931 . S
H836 C851 0.930 . S
C837 H825 0.930 . S
C837 C838 1.399 . S
C837 C842 1.399 . S
C838 C837 1.399 . S
C838 C839 1.376 . S
C839 H826 0.930 . S
C839 C838 1.376 . S
C839 C840 1.388 . S
C840 H827 0.930 . S
C840 C839 1.388 . S
C840 C841 1.390 . S
C841 C840 1.390 . S
C841 C842 1.394 . S
C841 C847 1.465 . S
C842 C837 1.399 . S
C842 C841 1.394 . S
C842 C843 1.516 . S
C843 C842 1.516 . S
C843 C844 1.502 . S
C843 C845 1.561 . S
C843 C846 1.526 . S
C844 H828 0.959 . S
C844 H829 0.959 . S
C844 H830 0.961 . S
C844 C843 1.502 . S
C845 H831 0.960 . S
C845 H832 0.961 . S
C845 H833 0.959 . S
C845 C843 1.561 . S
C846 C843 1.526 . S
C846 C847 1.396 . S
C846 C851 1.390 . S
C847 C841 1.465 . S
C847 C846 1.396 . S
C847 C848 1.399 . S
C848 H834 0.929 . S
C848 C847 1.399 . S
C848 C849 1.385 . S
C849 H835 0.931 . S
C849 C848 1.385 . S
C849 C850 1.389 . S
C850 C849 1.389 . S
C850 C851 1.387 . S
C851 H836 0.930 . S
C851 C846 1.390 . S
C851 C850 1.387 . S
H852 C864 0.930 . S
H853 C866 0.930 . S
H854 C867 0.930 . S
H855 C871 0.959 . S
H856 C871 0.959 . S
H857 C871 0.961 . S
H858 C872 0.960 . S
H859 C872 0.961 . S
H860 C872 0.959 . S
H861 C875 0.929 . S
H862 C876 0.931 . S
H863 C878 0.930 . S
C864 H852 0.930 . S
C864 C865 1.399 . S
C864 C869 1.399 . S
C865 C864 1.399 . S
C865 C866 1.376 . S
C866 H853 0.930 . S
C866 C865 1.376 . S
C866 C867 1.388 . S
C867 H854 0.930 . S
C867 C866 1.388 . S
C867 C868 1.390 . S
C868 C867 1.390 . S
C868 C869 1.394 . S
C868 C874 1.465 . S
C869 C864 1.399 . S
C869 C868 1.394 . S
C869 C870 1.516 . S
C870 C869 1.516 . S
C870 C871 1.502 . S
C870 C872 1.561 . S
C870 C873 1.526 . S
C871 H855 0.959 . S
C871 H856 0.959 . S
C871 H857 0.961 . S
C871 C870 1.502 . S
C872 H858 0.960 . S
C872 H859 0.961 . S
C872 H860 0.959 . S
C872 C870 1.561 . S
C873 C870 1.526 . S
C873 C874 1.396 . S
C873 C878 1.390 . S
C874 C868 1.465 . S
C874 C873 1.396 . S
C874 C875 1.399 . S
C875 H861 0.929 . S
C875 C874 1.399 . S
C875 C876 1.385 . S
C876 H862 0.931 . S
C876 C875 1.385 . S
C876 C877 1.389 . S
C877 C876 1.389 . S
C877 C878 1.387 . S
C878 H863 0.930 . S
C878 C873 1.390 . S
C878 C877 1.387 . S
H879 C891 0.930 . S
H880 C893 0.930 . S
H881 C894 0.930 . S
H882 C898 0.959 . S
H883 C898 0.959 . S
H884 C898 0.961 . S
H885 C899 0.960 . S
H886 C899 0.961 . S
H887 C899 0.959 . S
H888 C902 0.929 . S
H889 C903 0.931 . S
H890 C905 0.930 . S
C891 H879 0.930 . S
C891 C892 1.399 . S
C891 C896 1.399 . S
C892 C891 1.399 . S
C892 C893 1.376 . S
C893 H880 0.930 . S
C893 C892 1.376 . S
C893 C894 1.388 . S
C894 H881 0.930 . S
C894 C893 1.388 . S
C894 C895 1.390 . S
C895 C894 1.390 . S
C895 C896 1.394 . S
C895 C901 1.465 . S
C896 C891 1.399 . S
C896 C895 1.394 . S
C896 C897 1.516 . S
C897 C896 1.516 . S
C897 C898 1.502 . S
C897 C899 1.561 . S
C897 C900 1.526 . S
C898 H882 0.959 . S
C898 H883 0.959 . S
C898 H884 0.961 . S
C898 C897 1.502 . S
C899 H885 0.960 . S
C899 H886 0.961 . S
C899 H887 0.959 . S
C899 C897 1.561 . S
C900 C897 1.526 . S
C900 C901 1.396 . S
C900 C905 1.390 . S
C901 C895 1.465 . S
C901 C900 1.396 . S
C901 C902 1.399 . S
C902 H888 0.929 . S
C902 C901 1.399 . S
C902 C903 1.385 . S
C903 H889 0.931 . S
C903 C902 1.385 . S
C903 C904 1.389 . S
C904 C903 1.389 . S
C904 C905 1.387 . S
C905 H890 0.930 . S
C905 C900 1.390 . S
C905 C904 1.387 . S
H906 C918 0.930 . S
H907 C920 0.930 . S
H908 C921 0.930 . S
H909 C925 0.959 . S
H910 C925 0.959 . S
H911 C925 0.961 . S
H912 C926 0.960 . S
H913 C926 0.961 . S
H914 C926 0.959 . S
H915 C929 0.929 . S
H916 C930 0.931 . S
H917 C932 0.930 . S
C918 H906 0.930 . S
C918 C919 1.399 . S
C918 C923 1.399 . S
C919 C918 1.399 . S
C919 C920 1.376 . S
C920 H907 0.930 . S
C920 C919 1.376 . S
C920 C921 1.388 . S
C921 H908 0.930 . S
C921 C920 1.388 . S
C921 C922 1.390 . S
C922 C921 1.390 . S
C922 C923 1.394 . S
C922 C928 1.465 . S
C923 C918 1.399 . S
C923 C922 1.394 . S
C923 C924 1.516 . S
C924 C923 1.516 . S
C924 C925 1.502 . S
C924 C926 1.561 . S
C924 C927 1.526 . S
C925 H909 0.959 . S
C925 H910 0.959 . S
C925 H911 0.961 . S
C925 C924 1.502 . S
C926 H912 0.960 . S
C926 H913 0.961 . S
C926 H914 0.959 . S
C926 C924 1.561 . S
C927 C924 1.526 . S
C927 C928 1.396 . S
C927 C932 1.390 . S
C928 C922 1.465 . S
C928 C927 1.396 . S
C928 C929 1.399 . S
C929 H915 0.929 . S
C929 C928 1.399 . S
C929 C930 1.385 . S
C930 H916 0.931 . S
C930 C929 1.385 . S
C930 C931 1.389 . S
C931 C930 1.389 . S
C931 C932 1.387 . S
C932 H917 0.930 . S
C932 C927 1.390 . S
C932 C931 1.387 . S
H933 C945 0.930 . S
H934 C947 0.930 . S
H935 C948 0.930 . S
H936 C952 0.959 . S
H937 C952 0.959 . S
H938 C952 0.961 . S
H939 C953 0.960 . S
H940 C953 0.961 . S
H941 C953 0.959 . S
H942 C956 0.929 . S
H943 C957 0.931 . S
H944 C959 0.930 . S
C945 H933 0.930 . S
C945 C946 1.399 . S
C945 C950 1.399 . S
C946 C945 1.399 . S
C946 C947 1.376 . S
C947 H934 0.930 . S
C947 C946 1.376 . S
C947 C948 1.388 . S
C948 H935 0.930 . S
C948 C947 1.388 . S
C948 C949 1.390 . S
C949 C948 1.390 . S
C949 C950 1.394 . S
C949 C955 1.465 . S
C950 C945 1.399 . S
C950 C949 1.394 . S
C950 C951 1.516 . S
C951 C950 1.516 . S
C951 C952 1.502 . S
C951 C953 1.561 . S
C951 C954 1.526 . S
C952 H936 0.959 . S
C952 H937 0.959 . S
C952 H938 0.961 . S
C952 C951 1.502 . S
C953 H939 0.960 . S
C953 H940 0.961 . S
C953 H941 0.959 . S
C953 C951 1.561 . S
C954 C951 1.526 . S
C954 C955 1.396 . S
C954 C959 1.390 . S
C955 C949 1.465 . S
C955 C954 1.396 . S
C955 C956 1.399 . S
C956 H942 0.929 . S
C956 C955 1.399 . S
C956 C957 1.385 . S
C957 H943 0.931 . S
C957 C956 1.385 . S
C957 C958 1.389 . S
C958 C957 1.389 . S
C958 C959 1.387 . S
C959 H944 0.930 . S
C959 C954 1.390 . S
C959 C958 1.387 . S
H960 C972 0.930 . S
H961 C974 0.930 . S
H962 C975 0.930 . S
H963 C979 0.959 . S
H964 C979 0.959 . S
H965 C979 0.961 1_455 S
H966 C980 0.960 . S
H967 C980 0.961 1_655 S
H968 C980 0.959 . S
H969 C983 0.929 . S
H970 C984 0.931 . S
H971 C986 0.930 . S
C972 H960 0.930 . S
C972 C973 1.399 . S
C972 C977 1.399 . S
C973 C972 1.399 . S
C973 C974 1.376 . S
C974 H961 0.930 . S
C974 C973 1.376 . S
C974 C975 1.388 . S
C975 H962 0.930 . S
C975 C974 1.388 . S
C975 C976 1.390 . S
C976 C975 1.390 . S
C976 C977 1.394 . S
C976 C982 1.465 1_445 S
C977 C972 1.399 . S
C977 C976 1.394 . S
C977 C978 1.514 1_455 S
C978 C977 1.514 1_655 S
C978 C979 1.508 . S
C978 C980 1.555 1_645 S
C978 C981 1.528 1_545 S
C979 H963 0.959 . S
C979 H964 0.959 . S
C979 H965 0.961 1_655 S
C979 C978 1.508 . S
C980 H966 0.960 . S
C980 H967 0.961 1_455 S
C980 H968 0.959 . S
C980 C978 1.555 1_465 S
C981 C978 1.528 1_565 S
C981 C982 1.396 . S
C981 C986 1.390 . S
C982 C976 1.465 1_665 S
C982 C981 1.396 . S
C982 C983 1.399 . S
C983 H969 0.929 . S
C983 C982 1.399 . S
C983 C984 1.385 . S
C984 H970 0.931 . S
C984 C983 1.385 . S
C984 C985 1.389 . S
C985 C984 1.389 . S
C985 C986 1.387 . S
C986 H971 0.930 . S
C986 C981 1.390 . S
C986 C985 1.387 . S
H987 C999 0.930 . S
H988 C1001 0.930 . S
H989 C1002 0.930 . S
H990 C1006 0.959 . S
H991 C1006 0.959 . S
H992 C1006 0.961 . S
H993 C1007 0.960 1_565 S
H994 C1007 0.961 . S
H995 C1007 0.959 . S
H996 C1010 0.929 1_455 S
H997 C1011 0.931 . S
H998 C1013 0.930 . S
C999 H987 0.930 . S
C999 C1000 1.399 . S
C999 C1004 1.399 . S
C1000 C999 1.399 . S
C1000 C1001 1.376 . S
C1001 H988 0.930 . S
C1001 C1000 1.376 . S
C1001 C1002 1.388 . S
C1002 H989 0.930 . S
C1002 C1001 1.388 . S
C1002 C1003 1.390 . S
C1003 C1002 1.390 . S
C1003 C1004 1.394 . S
C1003 C1009 1.465 1_465 S
C1004 C999 1.399 . S
C1004 C1003 1.394 . S
C1004 C1005 1.516 1_455 S
C1005 C1004 1.516 1_655 S
C1005 C1006 1.502 . S
C1005 C1007 1.561 1_665 S
C1005 C1008 1.526 1_565 S
C1006 H990 0.959 . S
C1006 H991 0.959 . S
C1006 H992 0.961 . S
C1006 C1005 1.502 . S
C1007 H993 0.960 1_545 S
C1007 H994 0.961 . S
C1007 H995 0.959 . S
C1007 C1005 1.561 1_445 S
C1008 C1005 1.526 1_545 S
C1008 C1009 1.396 . S
C1008 C1013 1.390 . S
C1009 C1003 1.465 1_645 S
C1009 C1008 1.396 . S
C1009 C1010 1.399 . S
C1010 H996 0.929 1_655 S
C1010 C1009 1.399 . S
C1010 C1011 1.385 . S
C1011 H997 0.931 . S
C1011 C1010 1.385 . S
C1011 C1012 1.389 . S
C1012 C1011 1.389 . S
C1012 C1013 1.387 . S
C1013 H998 0.930 . S
C1013 C1008 1.390 . S
C1013 C1012 1.387 . S
H1014 C1026 0.930 1_556 S
H1015 C1028 0.930 . S
H1016 C1029 0.930 . S
H1017 C1033 0.959 . S
H1018 C1033 0.959 . S
H1019 C1033 0.961 . S
H1020 C1034 0.960 1_455 S
H1021 C1034 0.961 . S
H1022 C1034 0.959 . S
H1023 C1037 0.929 . S
H1024 C1038 0.931 . S
H1025 C1040 0.930 1_556 S
C1026 H1014 0.930 1_554 S
C1026 C1027 1.399 . S
C1026 C1031 1.399 . S
C1027 C1026 1.399 . S
C1027 C1028 1.376 . S
C1028 H1015 0.930 . S
C1028 C1027 1.376 . S
C1028 C1029 1.388 . S
C1029 H1016 0.930 . S
C1029 C1028 1.388 . S
C1029 C1030 1.390 . S
C1030 C1029 1.390 . S
C1030 C1031 1.394 . S
C1030 C1036 1.465 1_455 S
C1031 C1026 1.399 . S
C1031 C1030 1.394 . S
C1031 C1032 1.516 1_554 S
C1032 C1031 1.516 1_556 S
C1032 C1033 1.502 . S
C1032 C1034 1.561 1_455 S
C1032 C1035 1.526 1_456 S
C1033 H1017 0.959 . S
C1033 H1018 0.959 . S
C1033 H1019 0.961 . S
C1033 C1032 1.502 . S
C1034 H1020 0.960 1_655 S
C1034 H1021 0.961 . S
C1034 H1022 0.959 . S
C1034 C1032 1.561 1_655 S
C1035 C1032 1.526 1_654 S
C1035 C1036 1.396 . S
C1035 C1040 1.390 . S
C1036 C1030 1.465 1_655 S
C1036 C1035 1.396 . S
C1036 C1037 1.399 . S
C1037 H1023 0.929 . S
C1037 C1036 1.399 . S
C1037 C1038 1.385 . S
C1038 H1024 0.931 . S
C1038 C1037 1.385 . S
C1038 C1039 1.389 . S
C1039 C1038 1.389 . S
C1039 C1040 1.387 . S
C1040 H1025 0.930 1_554 S
C1040 C1035 1.390 . S
C1040 C1039 1.387 . S
H1041 C1053 0.930 1_554 S
H1042 C1055 0.930 . S
H1043 C1056 0.930 . S
H1044 C1060 0.959 . S
H1045 C1060 0.959 . S
H1046 C1060 0.961 . S
H1047 C1061 0.960 . S
H1048 C1061 0.961 1_545 S
H1049 C1061 0.959 . S
H1050 C1064 0.929 . S
H1051 C1065 0.931 . S
H1052 C1067 0.930 1_554 S
C1053 H1041 0.930 1_556 S
C1053 C1054 1.399 . S
C1053 C1058 1.399 . S
C1054 C1053 1.399 . S
C1054 C1055 1.376 . S
C1055 H1042 0.930 . S
C1055 C1054 1.376 . S
C1055 C1056 1.388 . S
C1056 H1043 0.930 . S
C1056 C1055 1.388 . S
C1056 C1057 1.390 . S
C1057 C1056 1.390 . S
C1057 C1058 1.394 . S
C1057 C1063 1.465 1_565 S
C1058 C1053 1.399 . S
C1058 C1057 1.394 . S
C1058 C1059 1.516 1_566 S
C1059 C1058 1.516 1_544 S
C1059 C1060 1.502 . S
C1059 C1061 1.561 1_545 S
C1059 C1062 1.526 1_554 S
C1060 H1044 0.959 . S
C1060 H1045 0.959 . S
C1060 H1046 0.961 . S
C1060 C1059 1.502 . S
C1061 H1047 0.960 . S
C1061 H1048 0.961 1_565 S
C1061 H1049 0.959 . S
C1061 C1059 1.561 1_565 S
C1062 C1059 1.526 1_556 S
C1062 C1063 1.396 . S
C1062 C1067 1.390 . S
C1063 C1057 1.465 1_545 S
C1063 C1062 1.396 . S
C1063 C1064 1.399 . S
C1064 H1050 0.929 . S
C1064 C1063 1.399 . S
C1064 C1065 1.385 . S
C1065 H1051 0.931 . S
C1065 C1064 1.385 . S
C1065 C1066 1.389 . S
C1066 C1065 1.389 . S
C1066 C1067 1.387 . S
C1067 H1052 0.930 1_556 S
C1067 C1062 1.390 . S
C1067 C1066 1.387 . S
H1068 C1080 0.930 . S
H1069 C1082 0.930 . S
H1070 C1083 0.930 . S
H1071 C1087 0.959 . S
H1072 C1087 0.959 . S
H1073 C1087 0.961 . S
H1074 C1088 0.960 . S
H1075 C1088 0.961 . S
H1076 C1088 0.959 . S
H1077 C1091 0.929 . S
H1078 C1092 0.931 . S
H1079 C1094 0.930 . S
C1080 H1068 0.930 . S
C1080 C1081 1.399 . S
C1080 C1085 1.399 . S
C1081 C1080 1.399 . S
C1081 C1082 1.376 . S
C1082 H1069 0.930 . S
C1082 C1081 1.376 . S
C1082 C1083 1.388 . S
C1083 H1070 0.930 . S
C1083 C1082 1.388 . S
C1083 C1084 1.390 . S
C1084 C1083 1.390 . S
C1084 C1085 1.394 . S
C1084 C1090 1.465 . S
C1085 C1080 1.399 . S
C1085 C1084 1.394 . S
C1085 C1086 1.516 . S
C1086 C1085 1.516 . S
C1086 C1087 1.502 . S
C1086 C1088 1.561 . S
C1086 C1089 1.526 . S
C1087 H1071 0.959 . S
C1087 H1072 0.959 . S
C1087 H1073 0.961 . S
C1087 C1086 1.502 . S
C1088 H1074 0.960 . S
C1088 H1075 0.961 . S
C1088 H1076 0.959 . S
C1088 C1086 1.561 . S
C1089 C1086 1.526 . S
C1089 C1090 1.396 . S
C1089 C1094 1.390 . S
C1090 C1084 1.465 . S
C1090 C1089 1.396 . S
C1090 C1091 1.399 . S
C1091 H1077 0.929 . S
C1091 C1090 1.399 . S
C1091 C1092 1.385 . S
C1092 H1078 0.931 . S
C1092 C1091 1.385 . S
C1092 C1093 1.389 . S
C1093 C1092 1.389 . S
C1093 C1094 1.387 . S
C1094 H1079 0.930 . S
C1094 C1089 1.390 . S
C1094 C1093 1.387 . S
H1095 C1107 0.930 . S
H1096 C1109 0.930 . S
H1097 C1110 0.930 . S
H1098 C1114 0.959 . S
H1099 C1114 0.959 . S
H1100 C1114 0.961 . S
H1101 C1115 0.960 . S
H1102 C1115 0.961 . S
H1103 C1115 0.959 . S
H1104 C1118 0.929 . S
H1105 C1119 0.931 . S
H1106 C1121 0.930 . S
C1107 H1095 0.930 . S
C1107 C1108 1.399 . S
C1107 C1112 1.399 . S
C1108 C1107 1.399 . S
C1108 C1109 1.376 . S
C1109 H1096 0.930 . S
C1109 C1108 1.376 . S
C1109 C1110 1.388 . S
C1110 H1097 0.930 . S
C1110 C1109 1.388 . S
C1110 C1111 1.390 . S
C1111 C1110 1.390 . S
C1111 C1112 1.394 . S
C1111 C1117 1.465 . S
C1112 C1107 1.399 . S
C1112 C1111 1.394 . S
C1112 C1113 1.516 . S
C1113 C1112 1.516 . S
C1113 C1114 1.502 . S
C1113 C1115 1.561 . S
C1113 C1116 1.526 . S
C1114 H1098 0.959 . S
C1114 H1099 0.959 . S
C1114 H1100 0.961 . S
C1114 C1113 1.502 . S
C1115 H1101 0.960 . S
C1115 H1102 0.961 . S
C1115 H1103 0.959 . S
C1115 C1113 1.561 . S
C1116 C1113 1.526 . S
C1116 C1117 1.396 . S
C1116 C1121 1.390 . S
C1117 C1111 1.465 . S
C1117 C1116 1.396 . S
C1117 C1118 1.399 . S
C1118 H1104 0.929 . S
C1118 C1117 1.399 . S
C1118 C1119 1.385 . S
C1119 H1105 0.931 . S
C1119 C1118 1.385 . S
C1119 C1120 1.389 . S
C1120 C1119 1.389 . S
C1120 C1121 1.387 . S
C1121 H1106 0.930 . S
C1121 C1116 1.390 . S
C1121 C1120 1.387 . S
H1122 C1134 0.930 . S
H1123 C1136 0.930 . S
H1124 C1137 0.930 1_545 S
H1125 C1141 0.959 . S
H1126 C1141 0.959 . S
H1127 C1141 0.961 . S
H1128 C1142 0.960 . S
H1129 C1142 0.961 . S
H1130 C1142 0.959 . S
H1131 C1145 0.929 . S
H1132 C1146 0.931 . S
H1133 C1148 0.930 . S
C1134 H1122 0.930 . S
C1134 C1135 1.399 . S
C1134 C1139 1.399 . S
C1135 C1134 1.399 . S
C1135 C1136 1.376 . S
C1136 H1123 0.930 . S
C1136 C1135 1.376 . S
C1136 C1137 1.388 . S
C1137 H1124 0.930 1_565 S
C1137 C1136 1.388 . S
C1137 C1138 1.390 . S
C1138 C1137 1.390 . S
C1138 C1139 1.394 . S
C1138 C1144 1.465 1_565 S
C1139 C1134 1.399 . S
C1139 C1138 1.394 . S
C1139 C1140 1.516 . S
C1140 C1139 1.516 . S
C1140 C1141 1.502 . S
C1140 C1142 1.561 1_565 S
C1140 C1143 1.526 1_565 S
C1141 H1125 0.959 . S
C1141 H1126 0.959 . S
C1141 H1127 0.961 . S
C1141 C1140 1.502 . S
C1142 H1128 0.960 . S
C1142 H1129 0.961 . S
C1142 H1130 0.959 . S
C1142 C1140 1.561 1_545 S
C1143 C1140 1.526 1_545 S
C1143 C1144 1.396 . S
C1143 C1148 1.390 . S
C1144 C1138 1.465 1_545 S
C1144 C1143 1.396 . S
C1144 C1145 1.399 . S
C1145 H1131 0.929 . S
C1145 C1144 1.399 . S
C1145 C1146 1.385 . S
C1146 H1132 0.931 . S
C1146 C1145 1.385 . S
C1146 C1147 1.389 . S
C1147 C1146 1.389 . S
C1147 C1148 1.387 . S
C1148 H1133 0.930 . S
C1148 C1143 1.390 . S
C1148 C1147 1.387 . S
H1149 C1161 0.930 . S
H1150 C1163 0.930 . S
H1151 C1164 0.930 1_455 S
H1152 C1168 0.959 . S
H1153 C1168 0.959 . S
H1154 C1168 0.961 . S
H1155 C1169 0.960 . S
H1156 C1169 0.961 . S
H1157 C1169 0.959 . S
H1158 C1172 0.929 . S
H1159 C1173 0.931 . S
H1160 C1175 0.930 . S
C1161 H1149 0.930 . S
C1161 C1162 1.399 . S
C1161 C1166 1.399 . S
C1162 C1161 1.399 . S
C1162 C1163 1.376 . S
C1163 H1150 0.930 . S
C1163 C1162 1.376 . S
C1163 C1164 1.388 . S
C1164 H1151 0.930 1_655 S
C1164 C1163 1.388 . S
C1164 C1165 1.390 . S
C1165 C1164 1.390 . S
C1165 C1166 1.394 . S
C1165 C1171 1.465 1_655 S
C1166 C1161 1.399 . S
C1166 C1165 1.394 . S
C1166 C1167 1.516 . S
C1167 C1166 1.516 . S
C1167 C1168 1.502 . S
C1167 C1169 1.561 1_655 S
C1167 C1170 1.526 1_655 S
C1168 H1152 0.959 . S
C1168 H1153 0.959 . S
C1168 H1154 0.961 . S
C1168 C1167 1.502 . S
C1169 H1155 0.960 . S
C1169 H1156 0.961 . S
C1169 H1157 0.959 . S
C1169 C1167 1.561 1_455 S
C1170 C1167 1.526 1_455 S
C1170 C1171 1.396 . S
C1170 C1175 1.390 . S
C1171 C1165 1.465 1_455 S
C1171 C1170 1.396 . S
C1171 C1172 1.399 . S
C1172 H1158 0.929 . S
C1172 C1171 1.399 . S
C1172 C1173 1.385 . S
C1173 H1159 0.931 . S
C1173 C1172 1.385 . S
C1173 C1174 1.389 . S
C1174 C1173 1.389 . S
C1174 C1175 1.387 . S
C1175 H1160 0.930 . S
C1175 C1170 1.390 . S
C1175 C1174 1.387 . S
H1176 C1188 0.930 . S
H1177 C1190 0.930 . S
H1178 C1191 0.930 . S
H1179 C1195 0.957 1_565 S
H1180 C1195 0.962 . S
H1181 C1195 0.959 1_565 S
H1182 C1196 0.960 . S
H1183 C1196 0.961 . S
H1184 C1196 0.959 . S
H1185 C1199 0.929 . S
H1186 C1200 0.931 . S
H1187 C1202 0.930 . S
C1188 H1176 0.930 . S
C1188 C1189 1.399 . S
C1188 C1193 1.399 . S
C1189 C1188 1.399 . S
C1189 C1190 1.376 . S
C1190 H1177 0.930 . S
C1190 C1189 1.376 . S
C1190 C1191 1.388 . S
C1191 H1178 0.930 . S
C1191 C1190 1.388 . S
C1191 C1192 1.390 . S
C1192 C1191 1.390 . S
C1192 C1193 1.394 . S
C1192 C1198 1.465 . S
C1193 C1188 1.399 . S
C1193 C1192 1.394 . S
C1193 C1194 1.516 . S
C1194 C1193 1.516 . S
C1194 C1195 1.501 1_565 S
C1194 C1196 1.561 1_565 S
C1194 C1197 1.526 . S
C1195 H1179 0.957 1_545 S
C1195 H1180 0.962 . S
C1195 H1181 0.959 1_545 S
C1195 C1194 1.501 1_545 S
C1196 H1182 0.960 . S
C1196 H1183 0.961 . S
C1196 H1184 0.959 . S
C1196 C1194 1.561 1_545 S
C1197 C1194 1.526 . S
C1197 C1198 1.396 . S
C1197 C1202 1.390 1_565 S
C1198 C1192 1.465 . S
C1198 C1197 1.396 . S
C1198 C1199 1.399 . S
C1199 H1185 0.929 . S
C1199 C1198 1.399 . S
C1199 C1200 1.385 . S
C1200 H1186 0.931 . S
C1200 C1199 1.385 . S
C1200 C1201 1.389 1_565 S
C1201 C1200 1.389 1_545 S
C1201 C1202 1.387 . S
C1202 H1187 0.930 . S
C1202 C1197 1.390 1_545 S
C1202 C1201 1.387 . S
H1203 C1215 0.930 . S
H1204 C1217 0.930 . S
H1205 C1218 0.930 . S
H1206 C1222 0.959 . S
H1207 C1222 0.958 1_655 S
H1208 C1222 0.961 . S
H1209 C1223 0.960 . S
H1210 C1223 0.961 . S
H1211 C1223 0.959 . S
H1212 C1226 0.929 . S
H1213 C1227 0.931 . S
H1214 C1229 0.930 . S
C1215 H1203 0.930 . S
C1215 C1216 1.399 . S
C1215 C1220 1.399 1_455 S
C1216 C1215 1.399 . S
C1216 C1217 1.376 1_455 S
C1217 H1204 0.930 . S
C1217 C1216 1.376 1_655 S
C1217 C1218 1.388 . S
C1218 H1205 0.930 . S
C1218 C1217 1.388 . S
C1218 C1219 1.390 . S
C1219 C1218 1.390 . S
C1219 C1220 1.394 . S
C1219 C1225 1.465 . S
C1220 C1215 1.399 1_655 S
C1220 C1219 1.394 . S
C1220 C1221 1.516 . S
C1221 C1220 1.516 . S
C1221 C1222 1.502 1_655 S
C1221 C1223 1.561 . S
C1221 C1224 1.526 . S
C1222 H1206 0.959 . S
C1222 H1207 0.958 1_455 S
C1222 H1208 0.961 . S
C1222 C1221 1.502 1_455 S
C1223 H1209 0.960 . S
C1223 H1210 0.961 . S
C1223 H1211 0.959 . S
C1223 C1221 1.561 . S
C1224 C1221 1.526 . S
C1224 C1225 1.396 . S
C1224 C1229 1.390 . S
C1225 C1219 1.465 . S
C1225 C1224 1.396 . S
C1225 C1226 1.399 . S
C1226 H1212 0.929 . S
C1226 C1225 1.399 . S
C1226 C1227 1.385 . S
C1227 H1213 0.931 . S
C1227 C1226 1.385 . S
C1227 C1228 1.389 . S
C1228 C1227 1.389 . S
C1228 C1229 1.387 . S
C1229 H1214 0.930 . S
C1229 C1224 1.390 . S
C1229 C1228 1.387 . S
H1230 C1242 0.930 . S
H1231 C1244 0.930 . S
H1232 C1245 0.930 . S
H1233 C1249 0.959 . S
H1234 C1249 0.959 . S
H1235 C1249 0.961 . S
H1236 C1250 0.960 . S
H1237 C1250 0.961 . S
H1238 C1250 0.959 . S
H1239 C1253 0.929 . S
H1240 C1254 0.931 . S
H1241 C1256 0.930 . S
C1242 H1230 0.930 . S
C1242 C1243 1.399 . S
C1242 C1247 1.399 . S
C1243 C1242 1.399 . S
C1243 C1244 1.376 . S
C1244 H1231 0.930 . S
C1244 C1243 1.376 . S
C1244 C1245 1.388 . S
C1245 H1232 0.930 . S
C1245 C1244 1.388 . S
C1245 C1246 1.390 . S
C1246 C1245 1.390 . S
C1246 C1247 1.394 . S
C1246 C1252 1.465 . S
C1247 C1242 1.399 . S
C1247 C1246 1.394 . S
C1247 C1248 1.516 . S
C1248 C1247 1.516 . S
C1248 C1249 1.502 1_545 S
C1248 C1250 1.561 . S
C1248 C1251 1.526 . S
C1249 H1233 0.959 . S
C1249 H1234 0.959 . S
C1249 H1235 0.961 . S
C1249 C1248 1.502 1_565 S
C1250 H1236 0.960 . S
C1250 H1237 0.961 . S
C1250 H1238 0.959 . S
C1250 C1248 1.561 . S
C1251 C1248 1.526 . S
C1251 C1252 1.396 . S
C1251 C1256 1.390 1_545 S
C1252 C1246 1.465 . S
C1252 C1251 1.396 . S
C1252 C1253 1.399 . S
C1253 H1239 0.929 . S
C1253 C1252 1.399 . S
C1253 C1254 1.385 . S
C1254 H1240 0.931 . S
C1254 C1253 1.385 . S
C1254 C1255 1.389 1_545 S
C1255 C1254 1.389 1_565 S
C1255 C1256 1.387 . S
C1256 H1241 0.930 . S
C1256 C1251 1.390 1_565 S
C1256 C1255 1.387 . S
H1257 C1269 0.930 . S
H1258 C1271 0.930 . S
H1259 C1272 0.930 . S
H1260 C1276 0.959 . S
H1261 C1276 0.959 . S
H1262 C1276 0.961 . S
H1263 C1277 0.958 . S
H1264 C1277 0.961 . S
H1265 C1277 0.959 . S
H1266 C1280 0.929 . S
H1267 C1281 0.931 . S
H1268 C1283 0.930 . S
C1269 H1257 0.930 . S
C1269 C1270 1.399 . S
C1269 C1274 1.399 1_655 S
C1270 C1269 1.399 . S
C1270 C1271 1.376 1_655 S
C1271 H1258 0.930 . S
C1271 C1270 1.376 1_455 S
C1271 C1272 1.388 . S
C1272 H1259 0.930 . S
C1272 C1271 1.388 . S
C1272 C1273 1.390 . S
C1273 C1272 1.390 . S
C1273 C1274 1.394 . S
C1273 C1279 1.465 . S
C1274 C1269 1.399 1_455 S
C1274 C1273 1.394 . S
C1274 C1275 1.516 . S
C1275 C1274 1.516 . S
C1275 C1276 1.502 1_455 S
C1275 C1277 1.561 . S
C1275 C1278 1.526 . S
C1276 H1260 0.959 . S
C1276 H1261 0.959 . S
C1276 H1262 0.961 . S
C1276 C1275 1.502 1_655 S
C1277 H1263 0.958 . S
C1277 H1264 0.961 . S
C1277 H1265 0.959 . S
C1277 C1275 1.561 . S
C1278 C1275 1.526 . S
C1278 C1279 1.396 . S
C1278 C1283 1.390 . S
C1279 C1273 1.465 . S
C1279 C1278 1.396 . S
C1279 C1280 1.399 . S
C1280 H1266 0.929 . S
C1280 C1279 1.399 . S
C1280 C1281 1.385 . S
C1281 H1267 0.931 . S
C1281 C1280 1.385 . S
C1281 C1282 1.389 . S
C1282 C1281 1.389 . S
C1282 C1283 1.387 . S
C1283 H1268 0.930 . S
C1283 C1278 1.390 . S
C1283 C1282 1.387 . S
H1284 C1296 0.930 . S
H1285 C1298 0.930 . S
H1286 C1299 0.930 . S
H1287 C1303 0.959 . S
H1288 C1303 0.959 . S
H1289 C1303 0.961 . S
H1290 C1304 0.960 . S
H1291 C1304 0.961 . S
H1292 C1304 0.959 . S
H1293 C1307 0.929 . S
H1294 C1308 0.931 . S
H1295 C1310 0.930 . S
C1296 H1284 0.930 . S
C1296 C1297 1.399 . S
C1296 C1301 1.399 . S
C1297 C1296 1.399 . S
C1297 C1298 1.376 . S
C1298 H1285 0.930 . S
C1298 C1297 1.376 . S
C1298 C1299 1.388 . S
C1299 H1286 0.930 . S
C1299 C1298 1.388 . S
C1299 C1300 1.390 . S
C1300 C1299 1.390 . S
C1300 C1301 1.394 . S
C1300 C1306 1.465 . S
C1301 C1296 1.399 . S
C1301 C1300 1.394 . S
C1301 C1302 1.516 . S
C1302 C1301 1.516 . S
C1302 C1303 1.502 . S
C1302 C1304 1.561 . S
C1302 C1305 1.526 . S
C1303 H1287 0.959 . S
C1303 H1288 0.959 . S
C1303 H1289 0.961 . S
C1303 C1302 1.502 . S
C1304 H1290 0.960 . S
C1304 H1291 0.961 . S
C1304 H1292 0.959 . S
C1304 C1302 1.561 . S
C1305 C1302 1.526 . S
C1305 C1306 1.396 . S
C1305 C1310 1.390 . S
C1306 C1300 1.465 . S
C1306 C1305 1.396 . S
C1306 C1307 1.399 . S
C1307 H1293 0.929 . S
C1307 C1306 1.399 . S
C1307 C1308 1.385 . S
C1308 H1294 0.931 . S
C1308 C1307 1.385 . S
C1308 C1309 1.389 . S
C1309 C1308 1.389 . S
C1309 C1310 1.387 . S
C1310 H1295 0.930 . S
C1310 C1305 1.390 . S
C1310 C1309 1.387 . S
H1311 C1323 0.930 . S
H1312 C1325 0.930 . S
H1313 C1326 0.930 . S
H1314 C1330 0.959 . S
H1315 C1330 0.959 . S
H1316 C1330 0.961 . S
H1317 C1331 0.960 . S
H1318 C1331 0.961 . S
H1319 C1331 0.959 . S
H1320 C1334 0.929 . S
H1321 C1335 0.931 . S
H1322 C1337 0.930 . S
C1323 H1311 0.930 . S
C1323 C1324 1.399 . S
C1323 C1328 1.399 . S
C1324 C1323 1.399 . S
C1324 C1325 1.376 . S
C1325 H1312 0.930 . S
C1325 C1324 1.376 . S
C1325 C1326 1.388 . S
C1326 H1313 0.930 . S
C1326 C1325 1.388 . S
C1326 C1327 1.390 . S
C1327 C1326 1.390 . S
C1327 C1328 1.394 . S
C1327 C1333 1.465 . S
C1328 C1323 1.399 . S
C1328 C1327 1.394 . S
C1328 C1329 1.516 . S
C1329 C1328 1.516 . S
C1329 C1330 1.502 . S
C1329 C1331 1.561 . S
C1329 C1332 1.526 . S
C1330 H1314 0.959 . S
C1330 H1315 0.959 . S
C1330 H1316 0.961 . S
C1330 C1329 1.502 . S
C1331 H1317 0.960 . S
C1331 H1318 0.961 . S
C1331 H1319 0.959 . S
C1331 C1329 1.561 . S
C1332 C1329 1.526 . S
C1332 C1333 1.396 . S
C1332 C1337 1.390 . S
C1333 C1327 1.465 . S
C1333 C1332 1.396 . S
C1333 C1334 1.399 . S
C1334 H1320 0.929 . S
C1334 C1333 1.399 . S
C1334 C1335 1.385 . S
C1335 H1321 0.931 . S
C1335 C1334 1.385 . S
C1335 C1336 1.389 . S
C1336 C1335 1.389 . S
C1336 C1337 1.387 . S
C1337 H1322 0.930 . S
C1337 C1332 1.390 . S
C1337 C1336 1.387 . S
H1338 C1350 0.930 . S
H1339 C1352 0.930 . S
H1340 C1353 0.930 . S
H1341 C1357 0.959 . S
H1342 C1357 0.959 . S
H1343 C1357 0.961 . S
H1344 C1358 0.960 . S
H1345 C1358 0.961 . S
H1346 C1358 0.959 . S
H1347 C1361 0.929 . S
H1348 C1362 0.931 . S
H1349 C1364 0.930 . S
C1350 H1338 0.930 . S
C1350 C1351 1.399 . S
C1350 C1355 1.399 . S
C1351 C1350 1.399 . S
C1351 C1352 1.376 . S
C1352 H1339 0.930 . S
C1352 C1351 1.376 . S
C1352 C1353 1.388 . S
C1353 H1340 0.930 . S
C1353 C1352 1.388 . S
C1353 C1354 1.390 . S
C1354 C1353 1.390 . S
C1354 C1355 1.394 . S
C1354 C1360 1.465 . S
C1355 C1350 1.399 . S
C1355 C1354 1.394 . S
C1355 C1356 1.516 . S
C1356 C1355 1.516 . S
C1356 C1357 1.502 . S
C1356 C1358 1.561 . S
C1356 C1359 1.526 . S
C1357 H1341 0.959 . S
C1357 H1342 0.959 . S
C1357 H1343 0.961 . S
C1357 C1356 1.502 . S
C1358 H1344 0.960 . S
C1358 H1345 0.961 . S
C1358 H1346 0.959 . S
C1358 C1356 1.561 . S
C1359 C1356 1.526 . S
C1359 C1360 1.396 . S
C1359 C1364 1.390 . S
C1360 C1354 1.465 . S
C1360 C1359 1.396 . S
C1360 C1361 1.399 . S
C1361 H1347 0.929 . S
C1361 C1360 1.399 . S
C1361 C1362 1.385 . S
C1362 H1348 0.931 . S
C1362 C1361 1.385 . S
C1362 C1363 1.389 . S
C1363 C1362 1.389 . S
C1363 C1364 1.387 . S
C1364 H1349 0.930 . S
C1364 C1359 1.390 . S
C1364 C1363 1.387 . S
H1365 C1377 0.930 . S
H1366 C1379 0.930 . S
H1367 C1380 0.930 . S
H1368 C1384 0.959 . S
H1369 C1384 0.959 . S
H1370 C1384 0.961 . S
H1371 C1385 0.960 . S
H1372 C1385 0.961 . S
H1373 C1385 0.959 . S
H1374 C1388 0.929 . S
H1375 C1389 0.931 . S
H1376 C1391 0.930 . S
C1377 H1365 0.930 . S
C1377 C1378 1.399 . S
C1377 C1382 1.399 . S
C1378 C1377 1.399 . S
C1378 C1379 1.376 . S
C1379 H1366 0.930 . S
C1379 C1378 1.376 . S
C1379 C1380 1.388 . S
C1380 H1367 0.930 . S
C1380 C1379 1.388 . S
C1380 C1381 1.390 . S
C1381 C1380 1.390 . S
C1381 C1382 1.394 . S
C1381 C1387 1.465 . S
C1382 C1377 1.399 . S
C1382 C1381 1.394 . S
C1382 C1383 1.516 . S
C1383 C1382 1.516 . S
C1383 C1384 1.502 . S
C1383 C1385 1.561 . S
C1383 C1386 1.526 . S
C1384 H1368 0.959 . S
C1384 H1369 0.959 . S
C1384 H1370 0.961 . S
C1384 C1383 1.502 . S
C1385 H1371 0.960 . S
C1385 H1372 0.961 . S
C1385 H1373 0.959 . S
C1385 C1383 1.561 . S
C1386 C1383 1.526 . S
C1386 C1387 1.396 . S
C1386 C1391 1.390 . S
C1387 C1381 1.465 . S
C1387 C1386 1.396 . S
C1387 C1388 1.399 . S
C1388 H1374 0.929 . S
C1388 C1387 1.399 . S
C1388 C1389 1.385 . S
C1389 H1375 0.931 . S
C1389 C1388 1.385 . S
C1389 C1390 1.389 . S
C1390 C1389 1.389 . S
C1390 C1391 1.387 . S
C1391 H1376 0.930 . S
C1391 C1386 1.390 . S
C1391 C1390 1.387 . S
H1392 C1404 0.930 . S
H1393 C1406 0.930 . S
H1394 C1407 0.930 . S
H1395 C1411 0.959 . S
H1396 C1411 0.959 . S
H1397 C1411 0.961 . S
H1398 C1412 0.960 . S
H1399 C1412 0.961 . S
H1400 C1412 0.959 . S
H1401 C1415 0.929 . S
H1402 C1416 0.931 . S
H1403 C1418 0.930 . S
C1404 H1392 0.930 . S
C1404 C1405 1.399 . S
C1404 C1409 1.399 . S
C1405 C1404 1.399 . S
C1405 C1406 1.376 . S
C1406 H1393 0.930 . S
C1406 C1405 1.376 . S
C1406 C1407 1.388 . S
C1407 H1394 0.930 . S
C1407 C1406 1.388 . S
C1407 C1408 1.390 . S
C1408 C1407 1.390 . S
C1408 C1409 1.394 . S
C1408 C1414 1.465 1_556 S
C1409 C1404 1.399 . S
C1409 C1408 1.394 . S
C1409 C1410 1.516 . S
C1410 C1409 1.516 . S
C1410 C1411 1.502 . S
C1410 C1412 1.561 . S
C1410 C1413 1.526 1_556 S
C1411 H1395 0.959 . S
C1411 H1396 0.959 . S
C1411 H1397 0.961 . S
C1411 C1410 1.502 . S
C1412 H1398 0.960 . S
C1412 H1399 0.961 . S
C1412 H1400 0.959 . S
C1412 C1410 1.561 . S
C1413 C1410 1.526 1_554 S
C1413 C1414 1.396 . S
C1413 C1418 1.390 . S
C1414 C1408 1.465 1_554 S
C1414 C1413 1.396 . S
C1414 C1415 1.399 . S
C1415 H1401 0.929 . S
C1415 C1414 1.399 . S
C1415 C1416 1.385 . S
C1416 H1402 0.931 . S
C1416 C1415 1.385 . S
C1416 C1417 1.389 . S
C1417 C1416 1.389 . S
C1417 C1418 1.387 . S
C1418 H1403 0.930 . S
C1418 C1413 1.390 . S
C1418 C1417 1.387 . S
H1419 C1431 0.930 . S
H1420 C1433 0.930 . S
H1421 C1434 0.930 . S
H1422 C1438 0.959 . S
H1423 C1438 0.959 . S
H1424 C1438 0.961 . S
H1425 C1439 0.960 1_556 S
H1426 C1439 0.961 . S
H1427 C1439 0.959 1_556 S
H1428 C1442 0.929 . S
H1429 C1443 0.931 . S
H1430 C1445 0.930 . S
C1431 H1419 0.930 . S
C1431 C1432 1.399 . S
C1431 C1436 1.399 . S
C1432 C1431 1.399 . S
C1432 C1433 1.376 . S
C1433 H1420 0.930 . S
C1433 C1432 1.376 . S
C1433 C1434 1.388 . S
C1434 H1421 0.930 . S
C1434 C1433 1.388 . S
C1434 C1435 1.390 . S
C1435 C1434 1.390 . S
C1435 C1436 1.394 . S
C1435 C1441 1.465 1_556 S
C1436 C1431 1.399 . S
C1436 C1435 1.394 . S
C1436 C1437 1.516 1_556 S
C1437 C1436 1.516 1_554 S
C1437 C1438 1.502 . S
C1437 C1439 1.561 . S
C1437 C1440 1.526 . S
C1438 H1422 0.959 . S
C1438 H1423 0.959 . S
C1438 H1424 0.961 . S
C1438 C1437 1.502 . S
C1439 H1425 0.960 1_554 S
C1439 H1426 0.961 . S
C1439 H1427 0.959 1_554 S
C1439 C1437 1.561 . S
C1440 C1437 1.526 . S
C1440 C1441 1.396 . S
C1440 C1445 1.390 . S
C1441 C1435 1.465 1_554 S
C1441 C1440 1.396 . S
C1441 C1442 1.399 . S
C1442 H1428 0.929 . S
C1442 C1441 1.399 . S
C1442 C1443 1.385 . S
C1443 H1429 0.931 . S
C1443 C1442 1.385 . S
C1443 C1444 1.389 . S
C1444 C1443 1.389 . S
C1444 C1445 1.387 . S
C1445 H1430 0.930 . S
C1445 C1440 1.390 . S
C1445 C1444 1.387 . S
H1446 C1458 0.930 . S
H1447 C1460 0.930 . S
H1448 C1461 0.930 . S
H1449 C1465 0.959 . S
H1450 C1465 0.959 . S
H1451 C1465 0.961 . S
H1452 C1466 0.960 . S
H1453 C1466 0.961 . S
H1454 C1466 0.959 . S
H1455 C1469 0.929 . S
H1456 C1470 0.931 . S
H1457 C1472 0.930 . S
C1458 H1446 0.930 . S
C1458 C1459 1.399 . S
C1458 C1463 1.399 . S
C1459 C1458 1.399 . S
C1459 C1460 1.376 . S
C1460 H1447 0.930 . S
C1460 C1459 1.376 . S
C1460 C1461 1.388 . S
C1461 H1448 0.930 . S
C1461 C1460 1.388 . S
C1461 C1462 1.390 . S
C1462 C1461 1.390 . S
C1462 C1463 1.394 . S
C1462 C1468 1.465 1_556 S
C1463 C1458 1.399 . S
C1463 C1462 1.394 . S
C1463 C1464 1.516 . S
C1464 C1463 1.516 . S
C1464 C1465 1.502 . S
C1464 C1466 1.561 . S
C1464 C1467 1.526 1_556 S
C1465 H1449 0.959 . S
C1465 H1450 0.959 . S
C1465 H1451 0.961 . S
C1465 C1464 1.502 . S
C1466 H1452 0.960 . S
C1466 H1453 0.961 . S
C1466 H1454 0.959 . S
C1466 C1464 1.561 . S
C1467 C1464 1.526 1_554 S
C1467 C1468 1.396 . S
C1467 C1472 1.390 . S
C1468 C1462 1.465 1_554 S
C1468 C1467 1.396 . S
C1468 C1469 1.399 . S
C1469 H1455 0.929 . S
C1469 C1468 1.399 . S
C1469 C1470 1.385 . S
C1470 H1456 0.931 . S
C1470 C1469 1.385 . S
C1470 C1471 1.389 . S
C1471 C1470 1.389 . S
C1471 C1472 1.387 . S
C1472 H1457 0.930 . S
C1472 C1467 1.390 . S
C1472 C1471 1.387 . S
H1473 C1485 0.930 . S
H1474 C1487 0.930 . S
H1475 C1488 0.930 . S
H1476 C1492 0.959 . S
H1477 C1492 0.959 . S
H1478 C1492 0.961 . S
H1479 C1493 0.960 . S
H1480 C1493 0.961 1_556 S
H1481 C1493 0.959 1_556 S
H1482 C1496 0.929 . S
H1483 C1497 0.931 . S
H1484 C1499 0.930 . S
C1485 H1473 0.930 . S
C1485 C1486 1.399 . S
C1485 C1490 1.399 . S
C1486 C1485 1.399 . S
C1486 C1487 1.376 . S
C1487 H1474 0.930 . S
C1487 C1486 1.376 . S
C1487 C1488 1.388 . S
C1488 H1475 0.930 . S
C1488 C1487 1.388 . S
C1488 C1489 1.390 . S
C1489 C1488 1.390 . S
C1489 C1490 1.394 . S
C1489 C1495 1.465 1_554 S
C1490 C1485 1.399 . S
C1490 C1489 1.394 . S
C1490 C1491 1.516 . S
C1491 C1490 1.516 . S
C1491 C1492 1.502 . S
C1491 C1493 1.561 . S
C1491 C1494 1.526 1_554 S
C1492 H1476 0.959 . S
C1492 H1477 0.959 . S
C1492 H1478 0.961 . S
C1492 C1491 1.502 . S
C1493 H1479 0.960 . S
C1493 H1480 0.961 1_554 S
C1493 H1481 0.959 1_554 S
C1493 C1491 1.561 . S
C1494 C1491 1.526 1_556 S
C1494 C1495 1.396 . S
C1494 C1499 1.390 . S
C1495 C1489 1.465 1_556 S
C1495 C1494 1.396 . S
C1495 C1496 1.399 . S
C1496 H1482 0.929 . S
C1496 C1495 1.399 . S
C1496 C1497 1.385 . S
C1497 H1483 0.931 . S
C1497 C1496 1.385 . S
C1497 C1498 1.389 . S
C1498 C1497 1.389 . S
C1498 C1499 1.387 . S
C1499 H1484 0.930 . S
C1499 C1494 1.390 . S
C1499 C1498 1.387 . S
H1500 C1512 0.930 . S
H1501 C1514 0.930 . S
H1502 C1515 0.930 . S
H1503 C1519 0.959 1_565 S
H1504 C1519 0.959 . S
H1505 C1519 0.961 . S
H1506 C1520 0.960 . S
H1507 C1520 0.961 . S
H1508 C1520 0.959 . S
H1509 C1523 0.929 . S
H1510 C1524 0.931 1_565 S
H1511 C1526 0.930 1_565 S
C1512 H1500 0.930 . S
C1512 C1513 1.399 . S
C1512 C1517 1.399 . S
C1513 C1512 1.399 . S
C1513 C1514 1.376 . S
C1514 H1501 0.930 . S
C1514 C1513 1.376 . S
C1514 C1515 1.388 . S
C1515 H1502 0.930 . S
C1515 C1514 1.388 . S
C1515 C1516 1.390 . S
C1516 C1515 1.390 . S
C1516 C1517 1.394 . S
C1516 C1522 1.465 . S
C1517 C1512 1.399 . S
C1517 C1516 1.394 . S
C1517 C1518 1.516 . S
C1518 C1517 1.516 . S
C1518 C1519 1.502 . S
C1518 C1520 1.561 . S
C1518 C1521 1.526 . S
C1519 H1503 0.959 1_545 S
C1519 H1504 0.959 . S
C1519 H1505 0.961 . S
C1519 C1518 1.502 . S
C1520 H1506 0.960 . S
C1520 H1507 0.961 . S
C1520 H1508 0.959 . S
C1520 C1518 1.561 . S
C1521 C1518 1.526 . S
C1521 C1522 1.396 . S
C1521 C1526 1.390 . S
C1522 C1516 1.465 . S
C1522 C1521 1.396 . S
C1522 C1523 1.399 . S
C1523 H1509 0.929 . S
C1523 C1522 1.399 . S
C1523 C1524 1.385 . S
C1524 H1510 0.931 1_545 S
C1524 C1523 1.385 . S
C1524 C1525 1.389 1_545 S
C1525 C1524 1.389 1_565 S
C1525 C1526 1.387 1_565 S
C1526 H1511 0.930 1_545 S
C1526 C1521 1.390 . S
C1526 C1525 1.387 1_545 S
H1527 C1539 0.952 . S
H1528 C1541 0.930 . S
H1529 C1542 0.930 . S
H1530 C1546 0.949 1_655 S
H1531 C1546 0.966 . S
H1532 C1546 0.949 1_655 S
H1533 C1547 0.960 . S
H1534 C1547 0.961 . S
H1535 C1547 0.959 . S
H1536 C1550 0.929 . S
H1537 C1551 0.931 . S
H1538 C1553 0.930 . S
C1539 H1527 0.952 . S
C1539 C1540 1.405 . S
C1539 C1544 1.373 1_655 S
C1540 C1539 1.405 . S
C1540 C1541 1.376 1_655 S
C1541 H1528 0.930 . S
C1541 C1540 1.376 1_455 S
C1541 C1542 1.388 . S
C1542 H1529 0.930 . S
C1542 C1541 1.388 . S
C1542 C1543 1.390 . S
C1543 C1542 1.390 . S
C1543 C1544 1.394 . S
C1543 C1549 1.465 . S
C1544 C1539 1.373 1_455 S
C1544 C1543 1.394 . S
C1544 C1545 1.516 . S
C1545 C1544 1.516 . S
C1545 C1546 1.518 . S
C1545 C1547 1.561 . S
C1545 C1548 1.526 . S
C1546 H1530 0.949 1_455 S
C1546 H1531 0.966 . S
C1546 H1532 0.949 1_455 S
C1546 C1545 1.518 . S
C1547 H1533 0.960 . S
C1547 H1534 0.961 . S
C1547 H1535 0.959 . S
C1547 C1545 1.561 . S
C1548 C1545 1.526 . S
C1548 C1549 1.396 . S
C1548 C1553 1.390 . S
C1549 C1543 1.465 . S
C1549 C1548 1.396 . S
C1549 C1550 1.399 . S
C1550 H1536 0.929 . S
C1550 C1549 1.399 . S
C1550 C1551 1.385 . S
C1551 H1537 0.931 . S
C1551 C1550 1.385 . S
C1551 C1552 1.389 . S
C1552 C1551 1.389 . S
C1552 C1553 1.387 . S
C1553 H1538 0.930 . S
C1553 C1548 1.390 . S
C1553 C1552 1.387 . S
H1554 C1566 0.920 1_545 S
H1555 C1568 0.930 . S
H1556 C1569 0.930 . S
H1557 C1573 0.959 1_545 S
H1558 C1573 0.959 . S
H1559 C1573 0.961 1_545 S
H1560 C1574 0.960 . S
H1561 C1574 0.961 . S
H1562 C1574 0.959 . S
H1563 C1577 0.929 . S
H1564 C1578 0.931 . S
H1565 C1580 0.930 . S
C1566 H1554 0.920 1_565 S
C1566 C1567 1.394 1_565 S
C1566 C1571 1.415 . S
C1567 C1566 1.394 1_545 S
C1567 C1568 1.376 1_545 S
C1568 H1555 0.930 . S
C1568 C1567 1.376 1_565 S
C1568 C1569 1.388 . S
C1569 H1556 0.930 . S
C1569 C1568 1.388 . S
C1569 C1570 1.390 . S
C1570 C1569 1.390 . S
C1570 C1571 1.394 . S
C1570 C1576 1.465 . S
C1571 C1566 1.415 . S
C1571 C1570 1.394 . S
C1571 C1572 1.516 . S
C1572 C1571 1.516 . S
C1572 C1573 1.502 . S
C1572 C1574 1.561 . S
C1572 C1575 1.526 . S
C1573 H1557 0.959 1_565 S
C1573 H1558 0.959 . S
C1573 H1559 0.961 1_565 S
C1573 C1572 1.502 . S
C1574 H1560 0.960 . S
C1574 H1561 0.961 . S
C1574 H1562 0.959 . S
C1574 C1572 1.561 . S
C1575 C1572 1.526 . S
C1575 C1576 1.396 . S
C1575 C1580 1.390 . S
C1576 C1570 1.465 . S
C1576 C1575 1.396 . S
C1576 C1577 1.399 . S
C1577 H1563 0.929 . S
C1577 C1576 1.399 . S
C1577 C1578 1.385 . S
C1578 H1564 0.931 . S
C1578 C1577 1.385 . S
C1578 C1579 1.389 . S
C1579 C1578 1.389 . S
C1579 C1580 1.387 . S
C1580 H1565 0.930 . S
C1580 C1575 1.390 . S
C1580 C1579 1.387 . S
H1581 C1593 0.930 . S
H1582 C1595 0.930 . S
H1583 C1596 0.930 . S
H1584 C1600 0.959 . S
H1585 C1600 0.959 . S
H1586 C1600 0.961 . S
H1587 C1601 0.960 . S
H1588 C1601 0.961 . S
H1589 C1601 0.959 . S
H1590 C1604 0.929 . S
H1591 C1605 0.931 . S
H1592 C1607 0.930 . S
C1593 H1581 0.930 . S
C1593 C1594 1.399 1_655 S
C1593 C1598 1.399 . S
C1594 C1593 1.399 1_455 S
C1594 C1595 1.376 . S
C1595 H1582 0.930 . S
C1595 C1594 1.376 . S
C1595 C1596 1.388 . S
C1596 H1583 0.930 . S
C1596 C1595 1.388 . S
C1596 C1597 1.390 1_455 S
C1597 C1596 1.390 1_655 S
C1597 C1598 1.394 . S
C1597 C1603 1.465 . S
C1598 C1593 1.399 . S
C1598 C1597 1.394 . S
C1598 C1599 1.516 . S
C1599 C1598 1.516 . S
C1599 C1600 1.502 . S
C1599 C1601 1.561 . S
C1599 C1602 1.526 . S
C1600 H1584 0.959 . S
C1600 H1585 0.959 . S
C1600 H1586 0.961 . S
C1600 C1599 1.502 . S
C1601 H1587 0.960 . S
C1601 H1588 0.961 . S
C1601 H1589 0.959 . S
C1601 C1599 1.561 . S
C1602 C1599 1.526 . S
C1602 C1603 1.396 . S
C1602 C1607 1.390 . S
C1603 C1597 1.465 . S
C1603 C1602 1.396 . S
C1603 C1604 1.399 . S
C1604 H1590 0.929 . S
C1604 C1603 1.399 . S
C1604 C1605 1.385 . S
C1605 H1591 0.931 . S
C1605 C1604 1.385 . S
C1605 C1606 1.389 . S
C1606 C1605 1.389 . S
C1606 C1607 1.387 . S
C1607 H1592 0.930 . S
C1607 C1602 1.390 . S
C1607 C1606 1.387 . S
C541 N145 2.174 . S
C553 N13 2.148 . S
C568 N46 2.178 . S
C580 N178 2.168 . S
C595 N79 2.136 . S
C607 N211 2.159 . S
C622 N112 2.177 . S
C634 N244 2.167 . S
C649 N277 2.136 . S
C661 N409 2.159 . S
C676 N442 2.177 . S
C688 N310 2.167 . S
C703 N475 2.178 . S
C715 N343 2.158 . S
C730 N376 2.179 . S
C742 N508 2.174 . S
C757 C18 1.293 . S
C769 C480 1.357 . S
C784 C51 1.365 . S
C796 C513 1.313 . S
C811 C84 1.382 . S
C823 C414 1.321 . S
C838 C447 1.390 . S
C850 C117 1.286 . S
C865 C348 1.386 . S
C877 C150 1.313 . S
C892 C183 1.310 . S
C904 C381 1.367 . S
C919 C216 1.357 . S
C931 C282 1.353 . S
C946 C249 1.295 . S
C958 C315 1.380 . S
C973 C7 1.459 . S
C985 C73 1.440 . S
C1000 C40 1.444 . S
C1012 C106 1.455 . S
C1027 C139 1.523 . S
C1039 C205 1.550 . S
C1054 C172 1.545 . S
C1066 C238 1.534 . S
C1081 C337 1.541 . S
C1093 C271 1.549 . S
C1108 C370 1.552 . S
C1120 C304 1.547 . S
C1135 C403 1.465 . S
C1147 C469 1.440 . S
C1162 C436 1.548 . S
C1174 C502 1.538 . S
C1189 C54 0.564 . S
C1201 N2 0.554 . S
C1216 N35 0.660 . S
C1228 C87 0.333 . S
C1243 C120 0.371 . S
C1255 N68 0.656 . S
C1270 N101 0.646 . S
C1282 C21 0.376 . S
C1297 C516 0.325 . S
C1309 N134 0.585 . S
C1324 N167 0.659 . S
C1336 C417 0.339 . S
C1351 N200 0.371 . S
C1363 C450 0.546 . S
C1378 N233 0.658 . S
C1390 C483 0.346 . S
C1405 N266 0.373 . S
C1417 C318 0.535 . S
C1432 C351 0.391 . S
C1444 N299 0.578 . S
C1459 N332 0.374 . S
C1471 C384 0.567 . S
C1486 N365 0.373 . S
C1498 C285 0.583 . S
C1513 C252 0.326 . S
C1525 N398 0.634 . S
C1540 N431 0.660 . S
C1552 C153 0.326 . S
C1567 N464 0.529 . S
C1579 C186 0.575 . S
C1594 N497 0.372 . S
C1606 C219 0.585 . S
