# Generated by pormake.
# Topology zfi, (5)-cn, num edge types: 1
# Building blocks:
#     Node 0, Type 0, BuildingBlock: XOMCOT_clean_sbu_0, # of connection points: 5
#     Node 1, Type 0, BuildingBlock: XOMCOT_clean_sbu_0, # of connection points: 5
#     Node 2, Type 0, BuildingBlock: XOMCOT_clean_sbu_0, # of connection points: 5
#     Node 3, Type 0, BuildingBlock: XOMCOT_clean_sbu_0, # of connection points: 5
#     Node 4, Type 0, BuildingBlock: XOMCOT_clean_sbu_0, # of connection points: 5
#     Node 5, Type 0, BuildingBlock: XOMCOT_clean_sbu_0, # of connection points: 5
#     Node 6, Type 0, BuildingBlock: XOMCOT_clean_sbu_0, # of connection points: 5
#     Node 7, Type 0, BuildingBlock: XOMCOT_clean_sbu_0, # of connection points: 5
#     Node 8, Type 0, BuildingBlock: XOMCOT_clean_sbu_0, # of connection points: 5
#     Node 9, Type 0, BuildingBlock: XOMCOT_clean_sbu_0, # of connection points: 5
#     Node 10, Type 0, BuildingBlock: XOMCOT_clean_sbu_0, # of connection points: 5
#     Node 11, Type 0, BuildingBlock: XOMCOT_clean_sbu_0, # of connection points: 5
#     Node 12, Type 0, BuildingBlock: XOMCOT_clean_sbu_0, # of connection points: 5
#     Node 13, Type 0, BuildingBlock: XOMCOT_clean_sbu_0, # of connection points: 5
#     Node 14, Type 0, BuildingBlock: XOMCOT_clean_sbu_0, # of connection points: 5
#     Node 15, Type 0, BuildingBlock: XOMCOT_clean_sbu_0, # of connection points: 5
#     Edge 16, Type (0, 0), BuildingBlock: OJICUG_clean_linker_0, # of connection points: 2
#     Edge 17, Type (0, 0), BuildingBlock: OJICUG_clean_linker_0, # of connection points: 2
#     Edge 18, Type (0, 0), BuildingBlock: OJICUG_clean_linker_0, # of connection points: 2
#     Edge 19, Type (0, 0), BuildingBlock: OJICUG_clean_linker_0, # of connection points: 2
#     Edge 20, Type (0, 0), BuildingBlock: OJICUG_clean_linker_0, # of connection points: 2
#     Edge 21, Type (0, 0), BuildingBlock: OJICUG_clean_linker_0, # of connection points: 2
#     Edge 22, Type (0, 0), BuildingBlock: OJICUG_clean_linker_0, # of connection points: 2
#     Edge 23, Type (0, 0), BuildingBlock: OJICUG_clean_linker_0, # of connection points: 2
#     Edge 24, Type (0, 0), BuildingBlock: OJICUG_clean_linker_0, # of connection points: 2
#     Edge 25, Type (0, 0), BuildingBlock: OJICUG_clean_linker_0, # of connection points: 2
#     Edge 26, Type (0, 0), BuildingBlock: OJICUG_clean_linker_0, # of connection points: 2
#     Edge 27, Type (0, 0), BuildingBlock: OJICUG_clean_linker_0, # of connection points: 2
#     Edge 28, Type (0, 0), BuildingBlock: OJICUG_clean_linker_0, # of connection points: 2
#     Edge 29, Type (0, 0), BuildingBlock: OJICUG_clean_linker_0, # of connection points: 2
#     Edge 30, Type (0, 0), BuildingBlock: OJICUG_clean_linker_0, # of connection points: 2
#     Edge 31, Type (0, 0), BuildingBlock: OJICUG_clean_linker_0, # of connection points: 2
#     Edge 32, Type (0, 0), BuildingBlock: OJICUG_clean_linker_0, # of connection points: 2
#     Edge 33, Type (0, 0), BuildingBlock: OJICUG_clean_linker_0, # of connection points: 2
#     Edge 34, Type (0, 0), BuildingBlock: OJICUG_clean_linker_0, # of connection points: 2
#     Edge 35, Type (0, 0), BuildingBlock: OJICUG_clean_linker_0, # of connection points: 2
#     Edge 36, Type (0, 0), BuildingBlock: OJICUG_clean_linker_0, # of connection points: 2
#     Edge 37, Type (0, 0), BuildingBlock: OJICUG_clean_linker_0, # of connection points: 2
#     Edge 38, Type (0, 0), BuildingBlock: OJICUG_clean_linker_0, # of connection points: 2
#     Edge 39, Type (0, 0), BuildingBlock: OJICUG_clean_linker_0, # of connection points: 2
#     Edge 40, Type (0, 0), BuildingBlock: OJICUG_clean_linker_0, # of connection points: 2
#     Edge 41, Type (0, 0), BuildingBlock: OJICUG_clean_linker_0, # of connection points: 2
#     Edge 42, Type (0, 0), BuildingBlock: OJICUG_clean_linker_0, # of connection points: 2
#     Edge 43, Type (0, 0), BuildingBlock: OJICUG_clean_linker_0, # of connection points: 2
#     Edge 44, Type (0, 0), BuildingBlock: OJICUG_clean_linker_0, # of connection points: 2
#     Edge 45, Type (0, 0), BuildingBlock: OJICUG_clean_linker_0, # of connection points: 2
#     Edge 46, Type (0, 0), BuildingBlock: OJICUG_clean_linker_0, # of connection points: 2
#     Edge 47, Type (0, 0), BuildingBlock: OJICUG_clean_linker_0, # of connection points: 2
#     Edge 48, Type (0, 0), BuildingBlock: OJICUG_clean_linker_0, # of connection points: 2
#     Edge 49, Type (0, 0), BuildingBlock: OJICUG_clean_linker_0, # of connection points: 2
#     Edge 50, Type (0, 0), BuildingBlock: OJICUG_clean_linker_0, # of connection points: 2
#     Edge 51, Type (0, 0), BuildingBlock: OJICUG_clean_linker_0, # of connection points: 2
#     Edge 52, Type (0, 0), BuildingBlock: OJICUG_clean_linker_0, # of connection points: 2
#     Edge 53, Type (0, 0), BuildingBlock: OJICUG_clean_linker_0, # of connection points: 2
#     Edge 54, Type (0, 0), BuildingBlock: OJICUG_clean_linker_0, # of connection points: 2
#     Edge 55, Type (0, 0), BuildingBlock: OJICUG_clean_linker_0, # of connection points: 2
# Relax obj value: 0.099
# Max RMSD: 0.124
# Mean RMSD: 0.124
data_MOF--net-zfi--node1-XOMCOT_clean_sbu_0--edge1-OJICUG_clean_linker_0
_symmetry_space_group_name_H-M    P1
_symmetry_Int_Tables_number       1
_symmetry_cell_setting            triclinic
loop_
_symmetry_equiv_pos_as_xyz
'x, y, z'
_cell_length_a     29.500912
_cell_length_b     29.507284
_cell_length_c     35.116893
_cell_angle_alpha  90.006659
_cell_angle_beta   90.001557
_cell_angle_gamma 89.992894
loop_
_atom_site_label
_atom_site_type_symbol
_atom_site_fract_x
_atom_site_fract_y
_atom_site_fract_z
_atom_type_partial_charge
Co0 Co 0.6546 0.08613 0.12396 0.0
C1 C 0.69427 0.17942 0.12069 0.0
C2 C 0.65076 0.16687 0.07303 0.0
C3 C 0.67251 0.20763 0.06761 0.0
N4 N 0.66542 0.14815 0.10581 0.0
N5 N 0.70082 0.21506 0.09715 0.0
H6 H 0.71356 0.17432 0.14652 0.0
H7 H 0.62746 0.15159 0.05322 0.0
C8 C 0.609 0.06377 0.04681 0.0
O9 O 0.6469 0.06564 0.02725 0.0
N10 N 0.64387 1.02493 0.14253 0.0
C11 C 0.67291 1.00005 0.16352 0.0
C12 C 0.66051 0.95513 0.16115 0.0
C13 C 0.61354 0.99489 0.12873 0.0
N14 N 0.62361 0.95174 0.1385 0.0
C15 C 0.74749 0.08436 0.10296 0.0
C16 C 0.74822 0.99681 0.07565 0.0
C17 C 0.78923 1.01697 0.08675 0.0
C18 C 0.78857 0.06227 0.09813 0.0
C19 C 0.7075 1.02093 0.07979 0.0
N20 N 0.70717 0.06334 0.09571 0.0
H21 H 0.74889 0.11612 0.11743 0.0
H22 H 0.67618 1.00342 0.07395 0.0
H23 H 0.7034 1.01296 0.17673 0.0
H24 H 0.58693 1.00394 0.10925 0.0
O25 O 0.68566 0.0995 0.17101 0.0
O26 O 0.61199 0.10939 0.16075 0.0
O27 O 0.60851 0.07439 0.0821 0.0
C28 C 0.6462 0.11143 0.18411 0.0
H29 H 0.6694 0.22896 0.04267 0.0
H30 H 0.67912 0.92718 0.17345 0.0
H31 H 0.74724 0.96183 0.06633 0.0
H32 H 0.81912 0.07917 0.10772 0.0
Co33 Co 0.4669 0.65458 0.12415 0.0
C34 C 0.37357 0.69423 0.12079 0.0
C35 C 0.3861 0.6505 0.07328 0.0
C36 C 0.34529 0.67217 0.06783 0.0
N37 N 0.40487 0.66536 0.10597 0.0
N38 N 0.33788 0.70063 0.09728 0.0
H39 H 0.37868 0.71361 0.14658 0.0
H40 H 0.40136 0.62709 0.05354 0.0
C41 C 0.48929 0.60897 0.04701 0.0
O42 O 0.48741 0.64685 0.02744 0.0
N43 N 0.5281 0.64389 0.14274 0.0
C44 C 0.55302 0.67298 0.16365 0.0
C45 C 0.59795 0.66058 0.16125 0.0
C46 C 0.55814 0.61351 0.12899 0.0
N47 N 0.60132 0.62362 0.13867 0.0
C48 C 0.46863 0.74746 0.10316 0.0
C49 C 0.55621 0.7482 0.07587 0.0
C50 C 0.53602 0.7892 0.08697 0.0
C51 C 0.4907 0.78854 0.09833 0.0
C52 C 0.53209 0.70749 0.08 0.0
N53 N 0.48967 0.70715 0.09591 0.0
H54 H 0.43686 0.74886 0.11761 0.0
H55 H 0.54962 0.67617 0.07416 0.0
H56 H 0.54012 0.70351 0.17679 0.0
H57 H 0.54904 0.58684 0.10959 0.0
O58 O 0.45348 0.68564 0.1712 0.0
O59 O 0.44365 0.61198 0.16092 0.0
O60 O 0.47869 0.60851 0.0823 0.0
C61 C 0.44156 0.64618 0.18428 0.0
H62 H 0.32389 0.66886 0.04294 0.0
H63 H 0.62593 0.67925 0.17346 0.0
H64 H 0.5912 0.74724 0.06658 0.0
H65 H 0.47379 0.81907 0.10792 0.0
Co66 Co 0.89835 0.46665 0.12389 0.0
C67 C 0.85862 0.37338 0.12057 0.0
C68 C 0.90221 0.38588 0.07296 0.0
C69 C 0.88049 0.3451 0.06755 0.0
N70 N 0.88747 0.40465 0.1057 0.0
N71 N 0.85212 0.33769 0.09707 0.0
H72 H 0.83932 0.3785 0.14639 0.0
H73 H 0.92556 0.40114 0.05318 0.0
C74 C 0.94392 0.48902 0.04674 0.0
O75 O 0.906 0.48721 0.02721 0.0
N76 N 0.90915 0.52782 0.1425 0.0
C77 C 0.88015 0.55273 0.1635 0.0
C78 C 0.89258 0.59764 0.16113 0.0
C79 C 0.93951 0.55784 0.12871 0.0
N80 N 0.92948 0.601 0.13847 0.0
C81 C 0.80545 0.46849 0.10289 0.0
C82 C 0.80477 0.55613 0.07579 0.0
C83 C 0.76375 0.53597 0.08689 0.0
C84 C 0.76438 0.49063 0.09814 0.0
C85 C 0.84546 0.53195 0.07983 0.0
N86 N 0.84579 0.4895 0.09567 0.0
H87 H 0.80403 0.43669 0.11728 0.0
H88 H 0.8768 0.54945 0.07399 0.0
H89 H 0.84964 0.53985 0.1767 0.0
H90 H 0.96611 0.54875 0.10923 0.0
O91 O 0.8673 0.45327 0.17094 0.0
O92 O 0.94095 0.44332 0.16065 0.0
O93 O 0.94443 0.47837 0.08202 0.0
C94 C 0.90675 0.44128 0.18401 0.0
H95 H 0.88373 0.3237 0.04266 0.0
H96 H 0.87399 0.62562 0.17341 0.0
H97 H 0.80575 0.59113 0.06656 0.0
H98 H 0.73383 0.47372 0.10771 0.0
Co99 Co 0.08615 0.8981 0.12356 0.0
C100 C 0.1795 0.8585 0.12037 0.0
C101 C 0.16689 0.90178 0.07259 0.0
C102 C 0.20769 0.88005 0.06723 0.0
N103 N 0.14819 0.88724 0.10541 0.0
N104 N 0.21516 0.85188 0.09686 0.0
H105 H 0.17439 0.83929 0.14625 0.0
H106 H 0.15157 0.92496 0.0527 0.0
C107 C 0.06374 0.94367 0.04641 0.0
O108 O 0.06545 0.90576 0.02688 0.0
N109 N 1.02495 0.90887 0.14213 0.0
C110 C 1.00006 0.8799 0.16317 0.0
C111 C 0.95514 0.89236 0.16084 0.0
C112 C 0.99492 0.93922 0.12834 0.0
N113 N 0.95176 0.92922 0.13817 0.0
C114 C 0.08445 0.80522 0.10253 0.0
C115 C 0.99676 0.80441 0.07551 0.0
C116 C 1.01699 0.76344 0.08661 0.0
C117 C 0.06236 0.76413 0.09782 0.0
C118 C 1.02088 0.84513 0.07951 0.0
N119 N 0.06336 0.84552 0.09533 0.0
H120 H 0.11629 0.80385 0.11687 0.0
H121 H 1.00333 0.87644 0.07368 0.0
H122 H 1.01296 0.84942 0.1764 0.0
H123 H 1.00397 0.96579 0.10883 0.0
O124 O 0.09951 0.86706 0.17061 0.0
O125 O 0.10942 0.9407 0.16034 0.0
O126 O 0.07444 0.94417 0.08168 0.0
C127 C 0.11146 0.9065 0.1837 0.0
H128 H 0.22903 0.8831 0.04229 0.0
H129 H 0.92717 0.87381 0.17318 0.0
H130 H 0.96173 0.80535 0.0663 0.0
H131 H 0.07933 0.73362 0.10738 0.0
Co132 Co 0.15458 0.96658 0.40198 0.0
C133 C 0.19425 0.87328 0.40536 0.0
C134 C 0.15058 0.88584 0.45291 0.0
C135 C 0.1723 0.84507 0.45838 0.0
N136 N 0.16537 0.90457 0.42018 0.0
N137 N 0.20072 0.83763 0.4289 0.0
H138 H 0.21361 0.87837 0.37956 0.0
H139 H 0.1272 0.90112 0.47266 0.0
C140 C 0.10895 0.98899 0.47911 0.0
O141 O 0.14683 0.98711 0.49869 0.0
N142 N 0.14387 0.02776 0.38338 0.0
C143 C 0.17296 0.05265 0.36246 0.0
C144 C 0.16059 0.09758 0.36486 0.0
C145 C 0.11352 0.05781 0.39714 0.0
N146 N 0.12364 0.10097 0.38745 0.0
C147 C 0.24747 0.96834 0.42298 0.0
C148 C 0.24819 0.05589 0.45028 0.0
C149 C 0.28921 0.03573 0.43918 0.0
C150 C 0.28855 0.99042 0.42781 0.0
C151 C 0.20748 0.03178 0.44615 0.0
N152 N 0.20715 0.98936 0.43023 0.0
H153 H 0.24888 0.93658 0.40852 0.0
H154 H 0.17615 0.0493 0.45198 0.0
H155 H 0.20349 0.03974 0.3493 0.0
H156 H 0.08685 0.04873 0.41655 0.0
O157 O 0.18565 0.95315 0.35495 0.0
O158 O 0.11197 0.94331 0.3652 0.0
O159 O 0.10848 0.97837 0.44383 0.0
C160 C 0.14619 0.94123 0.34185 0.0
H161 H 0.16906 0.82372 0.48329 0.0
H162 H 0.17926 0.12553 0.35264 0.0
H163 H 0.24722 0.09087 0.45959 0.0
H164 H 0.3191 0.97352 0.41823 0.0
Co165 Co 0.58616 0.15447 0.4024 0.0
C166 C 0.6795 0.19407 0.40565 0.0
C167 C 0.66689 0.1507 0.45338 0.0
C168 C 0.70767 0.17244 0.45878 0.0
N169 N 0.64819 0.16529 0.42057 0.0
N170 N 0.71514 0.20066 0.42919 0.0
H171 H 0.67441 0.21332 0.3798 0.0
H172 H 0.65157 0.12749 0.47323 0.0
C173 C 0.56374 0.1089 0.47954 0.0
O174 O 0.56552 0.14681 0.49908 0.0
N175 N 0.52496 0.14374 0.38383 0.0
C176 C 0.50007 0.17274 0.36281 0.0
C177 C 0.45515 0.1603 0.36514 0.0
C178 C 0.49492 0.11339 0.3976 0.0
N179 N 0.45176 0.12342 0.38779 0.0
C180 C 0.58445 0.24734 0.42344 0.0
C181 C 0.49681 0.24815 0.45057 0.0
C182 C 0.51703 0.28913 0.43949 0.0
C183 C 0.56238 0.28843 0.42822 0.0
C184 C 0.52092 0.20742 0.44649 0.0
N185 N 0.56338 0.20705 0.43065 0.0
H186 H 0.61626 0.24872 0.40905 0.0
H187 H 0.50336 0.17612 0.45232 0.0
H188 H 0.51297 0.20322 0.3496 0.0
H189 H 0.50397 0.0868 0.41709 0.0
O190 O 0.59953 0.18552 0.35536 0.0
O191 O 0.60943 0.11187 0.36562 0.0
O192 O 0.57442 0.1084 0.44427 0.0
C193 C 0.61148 0.14607 0.34227 0.0
H194 H 0.72899 0.16938 0.48374 0.0
H195 H 0.42718 0.17888 0.35281 0.0
H196 H 0.4618 0.24721 0.45982 0.0
H197 H 0.57933 0.31895 0.41866 0.0
Co198 Co 0.3983 0.58601 0.4025 0.0
C199 C 0.3586 0.6793 0.40575 0.0
C200 C 0.40201 0.66674 0.45346 0.0
C201 C 0.38027 0.70753 0.45884 0.0
N202 N 0.3874 0.64801 0.42068 0.0
N203 N 0.35202 0.71496 0.42925 0.0
H204 H 0.33937 0.67418 0.37989 0.0
H205 H 0.42527 0.65146 0.47332 0.0
C206 C 0.44383 0.56362 0.47967 0.0
O207 O 0.4059 0.56541 0.49919 0.0
N208 N 0.40911 0.52483 0.3839 0.0
C209 C 0.38014 0.49995 0.36285 0.0
C210 C 0.39259 0.45503 0.36518 0.0
C211 C 0.43945 0.4948 0.39771 0.0
N212 N 0.42945 0.45165 0.38788 0.0
C213 C 0.30539 0.58421 0.42345 0.0
C214 C 0.30466 0.49658 0.45056 0.0
C215 C 0.26366 0.51676 0.43944 0.0
C216 C 0.26431 0.5621 0.42818 0.0
C217 C 0.34537 0.52073 0.44653 0.0
N218 N 0.34571 0.56318 0.43069 0.0
H219 H 0.30399 0.61602 0.40908 0.0
H220 H 0.37669 0.50321 0.45238 0.0
H221 H 0.34966 0.51284 0.34961 0.0
H222 H 0.46601 0.50385 0.41724 0.0
O223 O 0.36728 0.59938 0.35544 0.0
O224 O 0.44093 0.60932 0.36576 0.0
O225 O 0.44435 0.57428 0.44439 0.0
C226 C 0.40674 0.61136 0.34238 0.0
H227 H 0.38338 0.72889 0.48377 0.0
H228 H 0.37404 0.42708 0.35283 0.0
H229 H 0.30563 0.46157 0.45979 0.0
H230 H 0.23377 0.57902 0.4186 0.0
Co231 Co 0.96684 0.39804 0.40226 0.0
C232 C 0.87354 0.35835 0.4056 0.0
C233 C 0.88607 0.40198 0.45318 0.0
C234 C 0.84527 0.3803 0.4586 0.0
N235 N 0.90483 0.3872 0.42046 0.0
N236 N 0.83785 0.3519 0.42911 0.0
H237 H 0.87865 0.33902 0.37979 0.0
H238 H 0.90134 0.42535 0.47295 0.0
C239 C 0.98926 0.44363 0.4794 0.0
O240 O 0.98747 0.40574 0.49896 0.0
N241 N 0.02803 0.40879 0.38365 0.0
C242 C 0.05294 0.37976 0.36268 0.0
C243 C 0.09787 0.3922 0.36505 0.0
C244 C 0.05805 0.43917 0.39742 0.0
N245 N 0.10122 0.42912 0.38767 0.0
C246 C 0.96865 0.30516 0.42327 0.0
C247 C 0.0563 0.30443 0.45036 0.0
C248 C 0.03612 0.26344 0.43928 0.0
C249 C 0.99076 0.26409 0.42803 0.0
C250 C 0.03214 0.34514 0.44633 0.0
N251 N 0.98968 0.34547 0.43049 0.0
H252 H 0.93683 0.30375 0.40889 0.0
H253 H 0.04967 0.37646 0.45216 0.0
H254 H 0.04006 0.34924 0.34951 0.0
H255 H 0.04896 0.4658 0.41686 0.0
O256 O 0.95344 0.36699 0.35522 0.0
O257 O 0.94353 0.44063 0.3655 0.0
O258 O 0.9786 0.44411 0.44413 0.0
C259 C 0.94148 0.40643 0.34214 0.0
H260 H 0.82387 0.38358 0.48349 0.0
H261 H 0.12584 0.37359 0.35279 0.0
H262 H 0.09132 0.30541 0.45958 0.0
H263 H 0.97384 0.23355 0.41847 0.0
Co264 Co 0.39819 0.96681 0.90234 0.0
C265 C 0.35834 0.8736 0.90575 0.0
C266 C 0.40197 0.88611 0.95333 0.0
C267 C 0.38025 0.84533 0.95875 0.0
N268 N 0.38722 0.90486 0.9206 0.0
N269 N 0.35186 0.83792 0.92925 0.0
H270 H 0.33901 0.87873 0.87993 0.0
H271 H 0.42536 0.90135 0.97309 0.0
C272 C 0.44382 0.98923 0.97944 0.0
O273 O 0.4059 0.98748 0.99896 0.0
N274 N 0.40909 0.02793 0.88364 0.0
C275 C 0.38013 0.05283 0.86259 0.0
C276 C 0.39265 0.09773 0.86488 0.0
C277 C 0.4395 0.05793 0.89738 0.0
N278 N 0.42954 0.10108 0.88754 0.0
C279 C 0.30533 0.96884 0.9235 0.0
C280 C 0.30485 0.0566 0.95033 0.0
C281 C 0.26379 0.03646 0.93937 0.0
C282 C 0.26431 0.99105 0.92827 0.0
C283 C 0.3455 0.03233 0.94632 0.0
N284 N 0.34571 0.98982 0.93059 0.0
H285 H 0.30383 0.93696 0.90923 0.0
H286 H 0.37687 0.0498 0.95209 0.0
H287 H 0.34961 0.03997 0.8494 0.0
H288 H 0.46607 0.04886 0.9169 0.0
O289 O 0.36705 0.95341 0.85533 0.0
O290 O 0.4407 0.94334 0.86557 0.0
O291 O 0.44432 0.97853 0.94417 0.0
C292 C 0.40647 0.94134 0.84224 0.0
H293 H 0.38352 0.82393 0.98363 0.0
H294 H 0.3741 0.1257 0.85255 0.0
H295 H 0.30592 0.09166 0.95943 0.0
H296 H 0.23369 0.97417 0.91883 0.0
Co297 Co 0.58632 0.39818 0.90258 0.0
C298 C 0.67965 0.35856 0.90585 0.0
C299 C 0.66696 0.40177 0.95366 0.0
C300 C 0.70773 0.38001 0.95906 0.0
N301 N 0.64832 0.3873 0.92079 0.0
N302 N 0.71525 0.35188 0.92941 0.0
H303 H 0.67459 0.33939 0.87995 0.0
H304 H 0.6516 0.42493 0.97356 0.0
C305 C 0.56378 0.44373 0.97971 0.0
O306 O 0.56544 0.40581 0.99922 0.0
N307 N 0.52515 0.40899 0.88394 0.0
C308 C 0.50028 0.38004 0.86286 0.0
C309 C 0.45536 0.39252 0.86514 0.0
C310 C 0.4951 0.43934 0.89771 0.0
N311 N 0.45196 0.42937 0.88783 0.0
C312 C 0.58457 0.3053 0.92356 0.0
C313 C 0.49684 0.30449 0.95049 0.0
C314 C 0.51709 0.26352 0.93941 0.0
C315 C 0.56248 0.26421 0.92824 0.0
C316 C 0.52097 0.34522 0.94652 0.0
N317 N 0.56347 0.3456 0.93076 0.0
H318 H 0.61643 0.30393 0.90925 0.0
H319 H 0.5034 0.37652 0.95234 0.0
H320 H 0.51319 0.34957 0.84962 0.0
H321 H 0.50413 0.46589 0.91725 0.0
O322 O 0.59973 0.36715 0.85553 0.0
O323 O 0.60966 0.44079 0.86584 0.0
O324 O 0.57456 0.44424 0.94446 0.0
C325 C 0.61171 0.4066 0.84247 0.0
H326 H 0.72902 0.38301 0.98404 0.0
H327 H 0.4274 0.37399 0.85275 0.0
H328 H 0.4618 0.30543 0.95966 0.0
H329 H 0.57946 0.2337 0.91869 0.0
Co330 Co 0.15465 0.58609 0.90224 0.0
C331 C 0.19422 0.67943 0.90558 0.0
C332 C 0.15077 0.66678 0.95324 0.0
C333 C 0.17247 0.70756 0.95869 0.0
N334 N 0.16543 0.6481 0.92045 0.0
N335 N 0.20074 0.71506 0.92913 0.0
H336 H 0.21351 0.67437 0.87973 0.0
H337 H 0.12751 0.65144 0.97306 0.0
C338 C 0.10908 0.5636 0.97937 0.0
O339 O 0.14699 0.56543 0.99892 0.0
N340 N 0.14396 0.52491 0.88363 0.0
C341 C 0.17301 0.50003 0.86265 0.0
C342 C 0.1606 0.4551 0.86498 0.0
C343 C 0.1136 0.49486 0.89737 0.0
N344 N 0.12367 0.45171 0.88759 0.0
C345 C 0.24755 0.58439 0.92325 0.0
C346 C 0.24838 0.49678 0.9504 0.0
C347 C 0.28936 0.51699 0.93931 0.0
C348 C 0.28865 0.56233 0.92802 0.0
C349 C 0.20763 0.52087 0.94632 0.0
N350 N 0.20725 0.56332 0.93047 0.0
H351 H 0.24891 0.61619 0.90886 0.0
H352 H 0.17633 0.50331 0.95214 0.0
H353 H 0.20352 0.51294 0.84947 0.0
H354 H 0.08696 0.50392 0.91682 0.0
O355 O 0.18571 0.59951 0.85521 0.0
O356 O 0.11203 0.60935 0.86547 0.0
O357 O 0.10857 0.57429 0.9441 0.0
C358 C 0.14625 0.61143 0.84212 0.0
H359 H 0.16934 0.72887 0.98364 0.0
H360 H 0.17922 0.42715 0.85269 0.0
H361 H 0.24744 0.46178 0.95965 0.0
H362 H 0.31917 0.57928 0.91845 0.0
Co363 Co 0.96689 0.15458 0.90192 0.0
C364 C 0.87357 0.19417 0.90538 0.0
C365 C 0.88616 0.15045 0.95288 0.0
C366 C 0.84537 0.17213 0.95838 0.0
N367 N 0.90488 0.1653 0.92016 0.0
N368 N 0.83791 0.20058 0.92894 0.0
H369 H 0.87863 0.21355 0.8796 0.0
H370 H 0.90146 0.12704 0.9726 0.0
C371 C 0.98938 0.10893 0.97903 0.0
O372 O 0.98743 0.14679 0.99863 0.0
N373 N 0.02808 0.14398 0.88327 0.0
C374 C 0.05296 0.17319 0.86247 0.0
C375 C 0.09792 0.1609 0.86491 0.0
C376 C 0.05816 0.11362 0.89698 0.0
N377 N 0.10134 0.12387 0.8874 0.0
C378 C 0.96861 0.24746 0.92294 0.0
C379 C 0.0562 0.24821 0.9502 0.0
C380 C 0.03602 0.2892 0.93909 0.0
C381 C 0.99069 0.28853 0.92775 0.0
C382 C 0.03208 0.2075 0.94609 0.0
N383 N 0.98965 0.20715 0.93019 0.0
H384 H 0.93684 0.24885 0.90849 0.0
H385 H 0.04961 0.17618 0.95192 0.0
H386 H 0.04002 0.20376 0.84941 0.0
H387 H 0.04905 0.08683 0.91626 0.0
O388 O 0.9534 0.18565 0.85491 0.0
O389 O 0.94364 0.11198 0.86514 0.0
O390 O 0.97879 0.10848 0.94374 0.0
C391 C 0.9415 0.14619 0.84181 0.0
H392 H 0.82402 0.16883 0.98329 0.0
H393 H 0.12586 0.17972 0.85282 0.0
H394 H 0.09119 0.24724 0.95948 0.0
H395 H 0.97377 0.31907 0.91816 0.0
Co396 Co 0.89818 0.08605 0.62358 0.0
C397 C 0.85856 0.17937 0.62034 0.0
C398 C 0.90182 0.1667 0.57255 0.0
C399 C 0.8801 0.20749 0.56717 0.0
N400 N 0.8873 0.14804 0.60538 0.0
N401 N 0.85193 0.215 0.5968 0.0
H402 H 0.83937 0.1743 0.64623 0.0
H403 H 0.925 0.15136 0.55266 0.0
C404 C 0.94371 0.06352 0.54644 0.0
O405 O 0.90578 0.0652 0.52693 0.0
N406 N 0.90898 1.02488 0.6422 0.0
C407 C 0.88002 1.00001 0.66327 0.0
C408 C 0.89248 0.9551 0.66096 0.0
C409 C 0.93934 0.99484 0.62842 0.0
N410 N 0.92935 0.9517 0.63827 0.0
C411 C 0.80528 0.08431 0.60259 0.0
C412 C 0.80446 0.99658 0.57568 0.0
C413 C 0.76349 1.01683 0.58678 0.0
C414 C 0.76418 0.06221 0.59792 0.0
C415 C 0.84519 1.02072 0.57963 0.0
N416 N 0.84558 0.06321 0.59539 0.0
H417 H 0.80391 0.11617 0.61689 0.0
H418 H 0.8765 1.00315 0.5738 0.0
H419 H 0.84954 1.01291 0.6765 0.0
H420 H 0.9659 1.00388 0.60889 0.0
O421 O 0.86715 0.09945 0.67064 0.0
O422 O 0.94081 0.10937 0.66032 0.0
O423 O 0.94423 0.07429 0.5817 0.0
C424 C 0.90662 0.11142 0.6837 0.0
H425 H 0.88316 0.22881 0.54222 0.0
H426 H 0.87394 0.92715 0.67332 0.0
H427 H 0.8054 0.96155 0.56652 0.0
H428 H 0.73366 0.07919 0.60748 0.0
Co429 Co 0.46671 0.89818 0.62402 0.0
C430 C 0.37344 0.85844 0.62059 0.0
C431 C 0.38603 0.90201 0.57299 0.0
C432 C 0.34525 0.88029 0.56753 0.0
N433 N 0.40474 0.88729 0.60575 0.0
N434 N 0.3378 0.85194 0.59704 0.0
H435 H 0.37853 0.83914 0.64642 0.0
H436 H 0.40132 0.92536 0.55322 0.0
C437 C 0.48922 0.94374 0.54691 0.0
O438 O 0.48746 0.90583 0.52737 0.0
N439 N 0.52785 0.909 0.64271 0.0
C440 C 0.55276 0.88 0.66371 0.0
C441 C 0.59768 0.89245 0.66138 0.0
C442 C 0.55787 0.93939 0.62897 0.0
N443 N 0.60104 0.92936 0.63875 0.0
C444 C 0.46862 0.80531 0.603 0.0
C445 C 0.55633 0.80464 0.57603 0.0
C446 C 0.53615 0.76363 0.58707 0.0
C447 C 0.49078 0.76425 0.59826 0.0
C448 C 0.53214 0.84533 0.58004 0.0
N449 N 0.48964 0.84564 0.59582 0.0
H450 H 0.43678 0.80388 0.61733 0.0
H451 H 0.54965 0.87666 0.57424 0.0
H452 H 0.53988 0.84947 0.67687 0.0
H453 H 0.54879 0.966 0.60951 0.0
O454 O 0.45326 0.86712 0.67104 0.0
O455 O 0.4433 0.94076 0.66077 0.0
O456 O 0.4785 0.94425 0.58217 0.0
C457 C 0.44124 0.90655 0.68412 0.0
H458 H 0.3239 0.88352 0.54261 0.0
H459 H 0.62566 0.87386 0.67366 0.0
H460 H 0.59137 0.80564 0.56685 0.0
H461 H 0.47385 0.7337 0.60779 0.0
Co462 Co 0.65466 0.46676 0.62421 0.0
C463 C 0.69433 0.37346 0.6208 0.0
C464 C 0.65056 0.38598 0.57332 0.0
C465 C 0.67224 0.34519 0.56784 0.0
N466 N 0.66543 0.40475 0.60601 0.0
N467 N 0.70072 0.33778 0.59728 0.0
H468 H 0.71373 0.37857 0.64658 0.0
H469 H 0.62712 0.40124 0.55359 0.0
C470 C 0.60901 0.48913 0.54709 0.0
O471 O 0.64689 0.48717 0.52752 0.0
N472 N 0.64399 0.52795 0.64283 0.0
C473 C 0.6731 0.55284 0.66374 0.0
C474 C 0.66072 0.59777 0.66136 0.0
C475 C 0.61362 0.558 0.62909 0.0
N476 N 0.62375 0.60116 0.6388 0.0
C477 C 0.74754 0.46852 0.60312 0.0
C478 C 0.74821 0.55609 0.57588 0.0
C479 C 0.78924 0.53593 0.58695 0.0
C480 C 0.78861 0.49061 0.59828 0.0
C481 C 0.70751 0.53196 0.58002 0.0
N482 N 0.7072 0.48954 0.59592 0.0
H483 H 0.74896 0.43675 0.61756 0.0
H484 H 0.67617 0.54947 0.57421 0.0
H485 H 0.70364 0.53992 0.67687 0.0
H486 H 0.58693 0.54892 0.6097 0.0
O487 O 0.68578 0.45334 0.67122 0.0
O488 O 0.6121 0.44351 0.66101 0.0
O489 O 0.60854 0.47857 0.58239 0.0
C490 C 0.64634 0.44142 0.68434 0.0
H491 H 0.66893 0.3238 0.54296 0.0
H492 H 0.67941 0.62571 0.67358 0.0
H493 H 0.74722 0.59108 0.56661 0.0
H494 H 0.81917 0.4737 0.60783 0.0
Co495 Co 0.08617 0.65452 0.62385 0.0
C496 C 0.17949 0.69412 0.62053 0.0
C497 C 0.16686 0.6507 0.57284 0.0
C498 C 0.20763 0.67244 0.5674 0.0
N499 N 0.14818 0.66532 0.60564 0.0
N500 N 0.21511 0.70069 0.59697 0.0
H501 H 0.17441 0.71338 0.64638 0.0
H502 H 0.15153 0.62745 0.553 0.0
C503 C 0.06369 0.60889 0.54673 0.0
O504 O 0.06547 0.64677 0.52717 0.0
N505 N 1.02498 0.6438 0.64246 0.0
C506 C 1.0001 0.67285 0.66345 0.0
C507 C 0.95517 0.66045 0.6611 0.0
C508 C 0.99493 0.61345 0.62871 0.0
N509 N 0.95177 0.62353 0.63848 0.0
C510 C 0.08442 0.74738 0.60282 0.0
C511 C 0.99678 0.74816 0.57568 0.0
C512 C 1.01699 0.78915 0.58676 0.0
C513 C 0.06233 0.78847 0.59805 0.0
C514 C 1.0209 0.70744 0.57976 0.0
N515 N 0.06336 0.70708 0.59561 0.0
H516 H 0.11623 0.74877 0.61722 0.0
H517 H 1.00335 0.67613 0.57394 0.0
H518 H 1.01301 0.70336 0.67662 0.0
H519 H 1.00399 0.58682 0.60925 0.0
O520 O 0.09958 0.68559 0.67088 0.0
O521 O 0.10946 0.61193 0.66062 0.0
O522 O 0.07438 0.60842 0.582 0.0
C523 C 0.11152 0.64614 0.68397 0.0
H524 H 0.22894 0.66934 0.54244 0.0
H525 H 0.92721 0.67907 0.67339 0.0
H526 H 0.96177 0.74721 0.56643 0.0
H527 H 0.07928 0.81899 0.60761 0.0
C528 C 0.62419 0.86825 0.12797 0.0
C529 C 0.60357 0.91092 0.12281 0.0
H530 H 0.61945 0.79643 0.12015 0.0
C531 C 0.56335 0.91301 0.10117 0.0
H532 H 0.65549 0.86477 0.14365 0.0
C533 C 0.54356 0.87373 0.0866 0.0
C534 C 0.56283 0.83105 0.0937 0.0
H535 H 0.54598 0.94466 0.09616 0.0
H536 H 0.51191 0.87661 0.07112 0.0
C537 C 0.60402 0.82884 0.11368 0.0
C538 C 0.72422 0.60389 0.11382 0.0
C539 C 0.72194 0.56281 0.0937 0.0
H540 H 0.68837 0.65528 0.14396 0.0
C541 C 0.67922 0.54364 0.08655 0.0
H542 H 0.75666 0.61923 0.12033 0.0
C543 C 0.63997 0.56344 0.10118 0.0
C544 C 0.64211 0.60356 0.12293 0.0
H545 H 0.6763 0.51207 0.07097 0.0
H546 H 0.60829 0.54615 0.09609 0.0
C547 C 0.68483 0.62407 0.12817 0.0
C548 C 1.00945 0.6789 0.08638 0.0
C549 C 0.99021 0.7216 0.09346 0.0
H550 H 1.00703 0.60799 0.09601 0.0
C551 C 0.94909 0.72386 0.11354 0.0
H552 H 0.04105 0.67599 0.07084 0.0
C553 C 0.92893 0.68448 0.1279 0.0
C554 C 0.94952 0.64179 0.12273 0.0
H555 H 0.93368 0.75629 0.12 0.0
H556 H 0.89768 0.688 0.14364 0.0
C557 C 0.98968 0.63965 0.10103 0.0
C558 C 0.86826 0.92871 0.12763 0.0
C559 C 0.91095 0.94931 0.1225 0.0
H560 H 0.79643 0.9335 0.11982 0.0
C561 C 0.91305 0.98957 0.10093 0.0
H562 H 0.86478 0.89738 0.14326 0.0
C563 C 0.87378 1.0094 0.08638 0.0
C564 C 0.83108 0.99014 0.09345 0.0
H565 H 0.94472 1.00693 0.09595 0.0
H566 H 0.87666 0.04107 0.07095 0.0
C567 C 0.82885 0.94893 0.11338 0.0
C568 C 0.04375 0.17892 0.43962 0.0
C569 C 0.06294 0.22162 0.43246 0.0
H570 H 0.0462 0.108 0.43008 0.0
C571 C 0.10401 0.22386 0.41232 0.0
H572 H 1.01218 0.17602 0.45521 0.0
C573 C 0.12416 0.18447 0.39796 0.0
C574 C 0.10362 0.14178 0.4032 0.0
H575 H 0.11937 0.25629 0.40579 0.0
H576 H 0.15536 0.18799 0.38215 0.0
C577 C 0.06351 0.13966 0.42498 0.0
C578 C 0.32884 0.10374 0.41253 0.0
C579 C 0.33106 0.06254 0.43249 0.0
H580 H 0.36477 0.15526 0.38263 0.0
C581 C 0.37376 0.04328 0.43958 0.0
H582 H 0.29641 0.11916 0.40607 0.0
C583 C 0.41304 0.06311 0.42504 0.0
C584 C 0.41094 0.10334 0.40345 0.0
H585 H 0.37664 1.01162 0.45503 0.0
H586 H 0.4447 0.04574 0.43004 0.0
C587 C 0.36825 0.12395 0.39829 0.0
C588 C 0.44907 0.32877 0.41272 0.0
C589 C 0.49024 0.33099 0.43272 0.0
H590 H 0.39759 0.36469 0.38273 0.0
C591 C 0.50951 0.37367 0.4398 0.0
H592 H 0.43364 0.29635 0.40626 0.0
C593 C 0.48972 0.41294 0.42521 0.0
C594 C 0.4495 0.41084 0.40357 0.0
H595 H 0.54115 0.37656 0.45529 0.0
H596 H 0.50709 0.44459 0.4302 0.0
C597 C 0.42889 0.36817 0.39842 0.0
C598 C 0.18473 0.42863 0.39821 0.0
C599 C 0.14202 0.44919 0.40339 0.0
H600 H 0.25655 0.43344 0.40608 0.0
C601 C 0.13987 0.48935 0.42509 0.0
H602 H 0.18826 0.39738 0.38248 0.0
C603 C 0.17912 0.50915 0.43972 0.0
C604 C 0.22183 0.48994 0.43262 0.0
H605 H 0.10819 0.50668 0.43012 0.0
H606 H 0.17619 0.54075 0.45525 0.0
C607 C 0.22411 0.44882 0.41256 0.0
C608 C 0.42903 0.18457 0.89809 0.0
C609 C 0.44961 0.14187 0.90325 0.0
H610 H 0.43378 0.25637 0.906 0.0
C611 C 0.48979 0.13974 0.92493 0.0
H612 H 0.39776 0.18808 0.88236 0.0
C613 C 0.50956 0.17898 0.93959 0.0
C614 C 0.49031 0.22168 0.93252 0.0
H615 H 0.50714 0.10807 0.92994 0.0
H616 H 0.54116 0.17606 0.95513 0.0
C617 C 0.44919 0.22394 0.91245 0.0
C618 C 0.36845 0.42882 0.89833 0.0
C619 C 0.41113 0.44945 0.90347 0.0
H620 H 0.29662 0.43356 0.90616 0.0
C621 C 0.41321 0.48971 0.92505 0.0
H622 H 0.36499 0.39749 0.8827 0.0
C623 C 0.37392 0.50951 0.93961 0.0
C624 C 0.33124 0.49022 0.93255 0.0
H625 H 0.44487 0.50709 0.93003 0.0
H626 H 0.3768 0.54117 0.95506 0.0
C627 C 0.32904 0.44901 0.9126 0.0
C628 C 0.104 0.32881 0.91235 0.0
C629 C 0.06283 0.33104 0.93235 0.0
H630 H 0.15549 0.36472 0.88239 0.0
C631 C 0.04357 0.37373 0.93946 0.0
H632 H 0.11942 0.29639 0.90588 0.0
C633 C 0.06338 0.413 0.92489 0.0
C634 C 0.1036 0.4109 0.90326 0.0
H635 H 1.01193 0.37662 0.95494 0.0
H636 H 0.04602 0.44465 0.92992 0.0
C637 C 0.1242 0.36821 0.89808 0.0
C638 C 0.17931 0.04439 0.94001 0.0
C639 C 0.22203 0.06333 0.9325 0.0
H640 H 0.10835 0.047 0.9308 0.0
C641 C 0.22433 0.10411 0.91196 0.0
H642 H 0.1764 1.01304 0.95589 0.0
C643 C 0.18493 0.1242 0.89756 0.0
C644 C 0.14217 0.10391 0.90318 0.0
H645 H 0.25679 0.11923 0.90516 0.0
H646 H 0.1885 0.15513 0.8814 0.0
C647 C 0.14003 0.06412 0.92536 0.0
C648 C 0.94901 0.8288 0.6135 0.0
C649 C 0.99019 0.83101 0.59351 0.0
H650 H 0.89751 0.86473 0.64345 0.0
C651 C 1.00946 0.87369 0.58642 0.0
H652 H 0.93358 0.79639 0.61996 0.0
C653 C 0.98965 0.91297 0.60099 0.0
C654 C 0.94942 0.91088 0.62261 0.0
H655 H 0.0411 0.87657 0.57094 0.0
H656 H 1.00701 0.94462 0.59598 0.0
C657 C 0.92881 0.86821 0.62777 0.0
C658 C 0.67894 1.00927 0.58658 0.0
C659 C 0.72165 0.99006 0.59369 0.0
H660 H 0.60802 1.00684 0.59621 0.0
C661 C 0.72393 0.949 0.61383 0.0
H662 H 0.67601 0.04082 0.571 0.0
C663 C 0.68455 0.92886 0.62822 0.0
C664 C 0.64184 0.94941 0.62302 0.0
H665 H 0.75637 0.93362 0.62031 0.0
H666 H 0.68808 0.89765 0.64401 0.0
C667 C 0.63969 0.98952 0.60126 0.0
C668 C 0.62419 0.68468 0.62841 0.0
C669 C 0.6037 0.64197 0.62309 0.0
H670 H 0.61935 0.75651 0.62066 0.0
C671 C 0.56362 0.63986 0.60127 0.0
H672 H 0.65537 0.68821 0.64426 0.0
C673 C 0.54384 0.67912 0.58666 0.0
C674 C 0.56299 0.72182 0.59389 0.0
H675 H 0.54634 0.60819 0.59611 0.0
H676 H 0.5123 0.67622 0.57104 0.0
C677 C 0.60403 0.72408 0.61408 0.0
C678 C 0.86825 0.62406 0.62802 0.0
C679 C 0.91095 0.60349 0.62279 0.0
H680 H 0.79641 0.61927 0.62024 0.0
C681 C 0.91305 0.56332 0.6011 0.0
H682 H 0.86476 0.65531 0.64375 0.0
C683 C 0.87377 0.54353 0.58652 0.0
C684 C 0.83107 0.56275 0.59368 0.0
H685 H 0.94471 0.54599 0.59603 0.0
H686 H 0.87666 0.51192 0.571 0.0
C687 C 0.82884 0.60388 0.61373 0.0
C688 C 0.75751 0.26184 0.13265 0.0
C689 C 0.73827 0.24688 0.09812 0.0
H690 H 0.80905 0.30252 0.15955 0.0
C691 C 0.75797 0.26158 0.06394 0.0
H692 H 0.7433 0.25105 0.15957 0.0
C693 C 0.7955 0.2904 0.06392 0.0
C694 C 0.81478 0.30574 0.09808 0.0
H695 H 0.74475 0.24998 0.037 0.0
H696 H 0.80901 0.30152 0.03694 0.0
C697 C 0.79516 0.2913 0.13263 0.0
C698 C 0.2913 0.75762 0.13265 0.0
C699 C 0.30595 0.738 0.09817 0.0
H700 H 0.25086 0.80946 0.15943 0.0
C701 C 0.29086 0.7573 0.06395 0.0
H702 H 0.30237 0.74372 0.15962 0.0
C703 C 0.26202 0.79481 0.06384 0.0
C704 C 0.24706 0.81449 0.09795 0.0
H705 H 0.30218 0.74379 0.03702 0.0
H706 H 0.2506 0.80802 0.03684 0.0
C707 C 0.26183 0.79526 0.13255 0.0
C708 C 0.29527 0.76152 0.3936 0.0
C709 C 0.31464 0.74688 0.42818 0.0
H710 H 0.24362 0.80194 0.36655 0.0
C711 C 0.29509 0.76198 0.46231 0.0
H712 H 0.30937 0.75045 0.3667 0.0
C713 C 0.25756 0.7908 0.46222 0.0
C714 C 0.23813 0.80575 0.428 0.0
H715 H 0.30841 0.75067 0.4893 0.0
H716 H 0.24415 0.80223 0.48915 0.0
C717 C 0.25762 0.79098 0.39351 0.0
C718 C 0.79144 0.29488 0.39361 0.0
C719 C 0.80588 0.31456 0.42813 0.0
H720 H 0.75118 0.24298 0.36672 0.0
C721 C 0.79053 0.29536 0.46232 0.0
H722 H 0.80268 0.30871 0.36667 0.0
C723 C 0.76169 0.25785 0.46234 0.0
C724 C 0.74699 0.23808 0.42818 0.0
H725 H 0.80165 0.30892 0.48928 0.0
H726 H 0.75007 0.24469 0.48929 0.0
C727 C 0.76196 0.25725 0.39363 0.0
C728 C 0.25786 0.76162 0.96235 0.0
C729 C 0.23813 0.74694 0.92817 0.0
H730 H 0.30887 0.80159 0.98936 0.0
C731 C 0.25731 0.76199 0.89365 0.0
H732 H 0.24469 0.74995 0.98929 0.0
C733 C 0.29491 0.79151 0.89368 0.0
C734 C 0.31455 0.80592 0.92822 0.0
H735 H 0.24308 0.75121 0.86672 0.0
H736 H 0.30875 0.80279 0.86676 0.0
C737 C 0.29534 0.7905 0.96238 0.0
C738 C 0.7621 0.29479 0.96243 0.0
C739 C 0.74714 0.31449 0.92832 0.0
H740 H 0.80225 0.24375 0.98922 0.0
C741 C 0.76189 0.29524 0.89372 0.0
H742 H 0.7507 0.30801 0.98943 0.0
C743 C 0.79134 0.25759 0.8936 0.0
C744 C 0.80599 0.23796 0.92807 0.0
H745 H 0.75093 0.30945 0.86684 0.0
H746 H 0.80239 0.24369 0.86663 0.0
C747 C 0.79092 0.25726 0.9623 0.0
C748 C 0.79529 0.26164 0.63251 0.0
C749 C 0.81458 0.24694 0.59791 0.0
H750 H 0.74372 0.30214 0.6596 0.0
C751 C 0.79497 0.26201 0.5638 0.0
H752 H 0.80944 0.2506 0.65939 0.0
C753 C 0.75746 0.29087 0.56392 0.0
C754 C 0.73811 0.30587 0.59816 0.0
H755 H 0.80822 0.25067 0.53679 0.0
H756 H 0.744 0.30227 0.53701 0.0
C757 C 0.75767 0.29113 0.63263 0.0
C758 C 0.29065 0.79526 0.56383 0.0
C759 C 0.30586 0.81459 0.59801 0.0
H760 H 0.25031 0.7445 0.53685 0.0
C761 C 0.29131 0.79501 0.63254 0.0
H762 H 0.30187 0.80874 0.53687 0.0
C763 C 0.26184 0.75738 0.63252 0.0
C764 C 0.24698 0.7381 0.59797 0.0
H765 H 0.30244 0.80894 0.65947 0.0
H766 H 0.25096 0.7432 0.65943 0.0
C767 C 0.26182 0.75774 0.56381 0.0
C768 C 0.5664 0.02855 0.99176 0.0
C769 C 0.56646 0.0459 0.02905 0.0
H770 H 0.52843 0.99661 0.94722 0.0
C771 C 0.52583 0.04358 0.05015 0.0
H772 H 0.59694 0.02935 0.97466 0.0
C773 C 0.48642 1.02445 0.03449 0.0
C774 C 0.48636 1.0071 0.9972 0.0
H775 H 0.5244 0.05638 0.07903 0.0
H776 H 0.45588 1.02365 0.05158 0.0
C777 C 0.52699 1.00942 0.9761 0.0
C778 C 0.52455 0.56634 0.99199 0.0
C779 C 0.50717 0.56643 0.02927 0.0
H780 H 0.55649 0.52832 0.94748 0.0
C781 C 0.50944 0.5258 0.05038 0.0
H782 H 0.52378 0.59687 0.97489 0.0
C783 C 0.52855 0.48638 0.03474 0.0
C784 C 0.54593 0.48629 0.99746 0.0
H785 H 0.49662 0.52439 0.07925 0.0
H786 H 0.52932 0.45585 0.05183 0.0
C787 C 0.54367 0.52691 0.97635 0.0
C788 C 0.02709 0.50922 0.05007 0.0
C789 C 0.98645 0.50689 0.02897 0.0
H790 H 0.09704 0.52917 0.05151 0.0
C791 C 0.98651 0.52424 0.99168 0.0
H792 H 0.02853 0.49642 0.07895 0.0
C793 C 1.02591 0.54338 0.97602 0.0
C794 C 0.06655 0.54571 0.99713 0.0
H795 H 0.95596 0.52343 0.97459 0.0
H796 H 1.02447 0.55618 0.94715 0.0
C797 C 0.06649 0.52836 0.03442 0.0
C798 C 1.02451 0.06628 0.0341 0.0
C799 C 1.00725 0.06639 0.99678 0.0
H800 H 0.05631 0.02825 0.07867 0.0
C801 C 1.00962 1.02578 0.97565 0.0
H802 H 1.02366 0.09679 0.05122 0.0
C803 C 0.02869 0.98635 0.99131 0.0
C804 C 0.04594 0.98624 0.02864 0.0
H805 H 0.99689 1.02438 0.94674 0.0
H806 H 0.02953 0.95583 0.9742 0.0
C807 C 0.04358 0.02685 0.04977 0.0
C808 C 0.02691 0.04338 0.54979 0.0
C809 C 0.98627 0.04566 0.52868 0.0
H810 H 0.09687 1.02347 0.55124 0.0
C811 C 0.98634 0.02829 0.4914 0.0
H812 H 0.02833 0.05621 0.57866 0.0
C813 C 1.02577 1.00917 0.47575 0.0
C814 C 0.0664 1.00688 0.49686 0.0
H815 H 0.9558 0.02907 0.4743 0.0
H816 H 1.02435 0.99635 0.44688 0.0
C817 C 0.06633 1.02425 0.53414 0.0
C818 C 0.54359 1.02573 0.47621 0.0
C819 C 0.54588 0.06637 0.4973 0.0
H820 H 0.52369 0.95579 0.47478 0.0
C821 C 0.5285 0.06631 0.53459 0.0
H822 H 0.55641 1.02429 0.44733 0.0
C823 C 0.50938 0.02691 0.55024 0.0
C824 C 0.50709 0.98627 0.52914 0.0
H825 H 0.52928 0.09685 0.55168 0.0
H826 H 0.49655 0.02835 0.57911 0.0
C827 C 0.52447 0.98633 0.49186 0.0
C828 C 0.527 0.5434 0.47634 0.0
C829 C 0.48637 0.54578 0.49745 0.0
H830 H 0.59694 0.52342 0.47491 0.0
C831 C 0.48644 0.52852 0.53477 0.0
H832 H 0.52842 0.55614 0.44745 0.0
C833 C 0.52585 0.50941 0.55045 0.0
C834 C 0.56648 0.50701 0.52933 0.0
H835 H 0.45591 0.52938 0.55187 0.0
H836 H 0.52443 0.49667 0.57934 0.0
C837 C 0.5664 0.52428 0.49201 0.0
C838 C 0.04354 0.52572 0.5501 0.0
C839 C 0.04584 0.56633 0.52898 0.0
H840 H 1.02365 0.45577 0.55156 0.0
C841 C 0.0285 0.56623 0.49169 0.0
H842 H 0.05633 0.52432 0.57899 0.0
C843 C 1.00941 0.5268 0.47604 0.0
C844 C 1.00711 0.48619 0.49716 0.0
H845 H 0.02929 0.59675 0.47458 0.0
H846 H 0.99661 0.5282 0.44716 0.0
C847 C 1.02444 0.48629 0.53446 0.0
C848 C 0.59999 0.16446 0.27384 0.0
C849 C 0.62323 0.13986 0.30196 0.0
H850 H 0.58841 0.17386 0.21401 0.0
C851 C 0.65565 0.10762 0.29108 0.0
H852 H 0.57454 0.18926 0.28166 0.0
C853 C 0.66456 0.0999 0.25254 0.0
C854 C 0.63997 0.12316 0.22442 0.0
H855 H 0.67391 0.08829 0.31237 0.0
H856 H 0.68936 0.07446 0.24471 0.0
C857 C 0.60773 0.15558 0.23529 0.0
C858 C 0.38842 0.59992 0.27393 0.0
C859 C 0.41299 0.62314 0.30209 0.0
H860 H 0.37911 0.58838 0.21409 0.0
C861 C 0.44523 0.65558 0.29126 0.0
H862 H 0.36362 0.57447 0.28172 0.0
C863 C 0.45299 0.66451 0.25273 0.0
C864 C 0.42978 0.63994 0.22458 0.0
H865 H 0.46453 0.67382 0.31257 0.0
H866 H 0.47844 0.68932 0.24494 0.0
C867 C 0.39735 0.60769 0.2354 0.0
C868 C 0.88838 0.4527 0.25246 0.0
C869 C 0.91297 0.42949 0.22431 0.0
H870 H 0.87902 0.46423 0.3123 0.0
C871 C 0.94522 0.39705 0.23515 0.0
H872 H 0.86357 0.47815 0.24466 0.0
C873 C 0.95295 0.38811 0.27369 0.0
C874 C 0.92971 0.41268 0.30184 0.0
H875 H 0.96454 0.37881 0.21385 0.0
H876 H 0.9784 0.36331 0.28149 0.0
C877 C 0.89728 0.44493 0.291 0.0
C878 C 0.1077 0.89706 0.29068 0.0
C879 C 0.13996 0.92947 0.30154 0.0
H880 H 0.0745 0.86338 0.24432 0.0
C881 C 0.16456 0.95269 0.27341 0.0
H882 H 0.08837 0.87882 0.31197 0.0
C883 C 0.15566 0.94496 0.23487 0.0
C884 C 0.12321 0.91273 0.22401 0.0
H885 H 0.18938 0.97812 0.28123 0.0
H886 H 0.17392 0.96426 0.21358 0.0
C887 C 0.09996 0.88816 0.25214 0.0
C888 C 0.44482 0.89702 0.79109 0.0
C889 C 0.41265 0.92953 0.80194 0.0
H890 H 0.47798 0.86326 0.74476 0.0
C891 C 0.38812 0.95282 0.7738 0.0
H892 H 0.46409 0.87872 0.81239 0.0
C893 C 0.39704 0.94507 0.73526 0.0
C894 C 0.42942 0.91276 0.72441 0.0
H895 H 0.36337 0.97832 0.7816 0.0
H896 H 0.37885 0.96443 0.71396 0.0
C897 C 0.45258 0.88811 0.75256 0.0
C898 C 0.60792 0.3972 0.73549 0.0
C899 C 0.64015 0.42963 0.72464 0.0
H900 H 0.57477 0.36347 0.78184 0.0
C901 C 0.66476 0.45285 0.75277 0.0
H902 H 0.58859 0.37896 0.7142 0.0
C903 C 0.65588 0.44509 0.79131 0.0
C904 C 0.62346 0.41284 0.80216 0.0
H905 H 0.68956 0.4783 0.74496 0.0
H906 H 0.67415 0.46439 0.81261 0.0
C907 C 0.60021 0.38827 0.77403 0.0
C908 C 0.15573 0.6077 0.73514 0.0
C909 C 0.12328 0.63992 0.72428 0.0
H910 H 0.18945 0.57453 0.7815 0.0
C911 C 0.10002 0.6645 0.75241 0.0
H912 H 0.174 0.58839 0.71385 0.0
C913 C 0.10776 0.6556 0.79095 0.0
C914 C 0.14002 0.62319 0.80181 0.0
H915 H 0.07457 0.68929 0.7446 0.0
H916 H 0.08843 0.67385 0.81224 0.0
C917 C 0.16463 0.59997 0.77368 0.0
C918 C 0.89728 0.1077 0.79068 0.0
C919 C 0.92969 0.13997 0.80151 0.0
H920 H 0.86356 0.07448 0.74435 0.0
C921 C 0.95286 0.16458 0.77336 0.0
H922 H 0.87907 0.08837 0.81199 0.0
C923 C 0.94509 0.15567 0.73482 0.0
C924 C 0.91287 0.1232 0.724 0.0
H925 H 0.97829 0.18941 0.78116 0.0
H926 H 0.96436 0.17394 0.71352 0.0
C927 C 0.88834 0.09995 0.75215 0.0
loop_
_geom_bond_atom_site_label_1
_geom_bond_atom_site_label_2
_geom_bond_distance
_geom_bond_site_symmetry_2
_ccdc_geom_bond_type
Co0 N4 2.148 . S
Co0 N10 2.128 1_545 S
Co0 N20 2.194 . S
Co0 O25 2.351 . S
Co0 O26 2.155 . S
Co0 O27 2.096 . S
C1 N4 1.301 . S
C1 N5 1.328 . S
C1 H6 0.930 . S
C2 C3 1.333 . S
C2 N4 1.317 . S
C2 H7 0.930 . S
C3 C2 1.333 . S
C3 N5 1.350 . S
C3 H29 0.931 . S
N4 Co0 2.148 . S
N4 C1 1.301 . S
N4 C2 1.317 . S
N5 C1 1.328 . S
N5 C3 1.350 . S
H6 C1 0.930 . S
H7 C2 0.930 . S
C8 O9 1.224 . S
C8 O27 1.247 . S
O9 C8 1.224 . S
N10 Co0 2.128 1_565 S
N10 C11 1.355 . S
N10 C13 1.311 . S
C11 N10 1.355 . S
C11 C12 1.363 . S
C11 H23 0.929 . S
C12 C11 1.363 . S
C12 N14 1.375 . S
C12 H30 0.931 . S
C13 N10 1.311 . S
C13 N14 1.347 . S
C13 H24 0.929 . S
N14 C12 1.375 . S
N14 C13 1.347 . S
C15 C18 1.365 . S
C15 N20 1.328 . S
C15 H21 0.929 . S
C16 C17 1.362 . S
C16 C19 1.378 1_565 S
C16 H31 0.929 . S
C17 C16 1.362 . S
C17 C18 1.366 1_565 S
C18 C15 1.365 . S
C18 C17 1.366 1_545 S
C18 H32 0.930 . S
C19 C16 1.378 1_545 S
C19 N20 1.315 . S
C19 H22 0.930 . S
N20 Co0 2.194 . S
N20 C15 1.328 . S
N20 C19 1.315 . S
H21 C15 0.929 . S
H22 C19 0.930 . S
H23 C11 0.929 . S
H24 C13 0.929 . S
O25 Co0 2.351 . S
O25 C28 1.244 . S
O26 Co0 2.155 . S
O26 C28 1.240 . S
O27 Co0 2.096 . S
O27 C8 1.247 . S
C28 O25 1.244 . S
C28 O26 1.240 . S
H29 C3 0.931 . S
H30 C12 0.931 . S
H31 C16 0.929 . S
H32 C18 0.930 . S
Co33 N37 2.148 . S
Co33 N43 2.128 . S
Co33 N53 2.194 . S
Co33 O58 2.351 . S
Co33 O59 2.155 . S
Co33 O60 2.096 . S
C34 N37 1.301 . S
C34 N38 1.328 . S
C34 H39 0.930 . S
C35 C36 1.333 . S
C35 N37 1.317 . S
C35 H40 0.930 . S
C36 C35 1.333 . S
C36 N38 1.350 . S
C36 H62 0.931 . S
N37 Co33 2.148 . S
N37 C34 1.301 . S
N37 C35 1.317 . S
N38 C34 1.328 . S
N38 C36 1.350 . S
H39 C34 0.930 . S
H40 C35 0.930 . S
C41 O42 1.224 . S
C41 O60 1.247 . S
O42 C41 1.224 . S
N43 Co33 2.128 . S
N43 C44 1.355 . S
N43 C46 1.311 . S
C44 N43 1.355 . S
C44 C45 1.363 . S
C44 H56 0.929 . S
C45 C44 1.363 . S
C45 N47 1.375 . S
C45 H63 0.931 . S
C46 N43 1.311 . S
C46 N47 1.347 . S
C46 H57 0.929 . S
N47 C45 1.375 . S
N47 C46 1.347 . S
C48 C51 1.365 . S
C48 N53 1.328 . S
C48 H54 0.929 . S
C49 C50 1.362 . S
C49 C52 1.378 . S
C49 H64 0.929 . S
C50 C49 1.362 . S
C50 C51 1.366 . S
C51 C48 1.365 . S
C51 C50 1.366 . S
C51 H65 0.930 . S
C52 C49 1.378 . S
C52 N53 1.315 . S
C52 H55 0.930 . S
N53 Co33 2.194 . S
N53 C48 1.328 . S
N53 C52 1.315 . S
H54 C48 0.929 . S
H55 C52 0.930 . S
H56 C44 0.929 . S
H57 C46 0.929 . S
O58 Co33 2.351 . S
O58 C61 1.244 . S
O59 Co33 2.155 . S
O59 C61 1.240 . S
O60 Co33 2.096 . S
O60 C41 1.247 . S
C61 O58 1.244 . S
C61 O59 1.240 . S
H62 C36 0.931 . S
H63 C45 0.931 . S
H64 C49 0.929 . S
H65 C51 0.930 . S
Co66 N70 2.148 . S
Co66 N76 2.128 . S
Co66 N86 2.194 . S
Co66 O91 2.351 . S
Co66 O92 2.155 . S
Co66 O93 2.096 . S
C67 N70 1.301 . S
C67 N71 1.328 . S
C67 H72 0.930 . S
C68 C69 1.333 . S
C68 N70 1.317 . S
C68 H73 0.930 . S
C69 C68 1.333 . S
C69 N71 1.350 . S
C69 H95 0.931 . S
N70 Co66 2.148 . S
N70 C67 1.301 . S
N70 C68 1.317 . S
N71 C67 1.328 . S
N71 C69 1.350 . S
H72 C67 0.930 . S
H73 C68 0.930 . S
C74 O75 1.224 . S
C74 O93 1.247 . S
O75 C74 1.224 . S
N76 Co66 2.128 . S
N76 C77 1.355 . S
N76 C79 1.311 . S
C77 N76 1.355 . S
C77 C78 1.363 . S
C77 H89 0.929 . S
C78 C77 1.363 . S
C78 N80 1.375 . S
C78 H96 0.931 . S
C79 N76 1.311 . S
C79 N80 1.347 . S
C79 H90 0.929 . S
N80 C78 1.375 . S
N80 C79 1.347 . S
C81 C84 1.365 . S
C81 N86 1.328 . S
C81 H87 0.929 . S
C82 C83 1.362 . S
C82 C85 1.378 . S
C82 H97 0.929 . S
C83 C82 1.362 . S
C83 C84 1.366 . S
C84 C81 1.365 . S
C84 C83 1.366 . S
C84 H98 0.930 . S
C85 C82 1.378 . S
C85 N86 1.315 . S
C85 H88 0.930 . S
N86 Co66 2.194 . S
N86 C81 1.328 . S
N86 C85 1.315 . S
H87 C81 0.929 . S
H88 C85 0.930 . S
H89 C77 0.929 . S
H90 C79 0.929 . S
O91 Co66 2.351 . S
O91 C94 1.244 . S
O92 Co66 2.155 . S
O92 C94 1.240 . S
O93 Co66 2.096 . S
O93 C74 1.247 . S
C94 O91 1.244 . S
C94 O92 1.240 . S
H95 C69 0.931 . S
H96 C78 0.931 . S
H97 C82 0.929 . S
H98 C84 0.930 . S
Co99 N103 2.148 . S
Co99 N109 2.128 1_455 S
Co99 N119 2.194 . S
Co99 O124 2.351 . S
Co99 O125 2.155 . S
Co99 O126 2.096 . S
C100 N103 1.301 . S
C100 N104 1.328 . S
C100 H105 0.930 . S
C101 C102 1.333 . S
C101 N103 1.317 . S
C101 H106 0.930 . S
C102 C101 1.333 . S
C102 N104 1.350 . S
C102 H128 0.931 . S
N103 Co99 2.148 . S
N103 C100 1.301 . S
N103 C101 1.317 . S
N104 C100 1.328 . S
N104 C102 1.350 . S
H105 C100 0.930 . S
H106 C101 0.930 . S
C107 O108 1.224 . S
C107 O126 1.247 . S
O108 C107 1.224 . S
N109 Co99 2.128 1_655 S
N109 C110 1.355 . S
N109 C112 1.311 . S
C110 N109 1.355 . S
C110 C111 1.363 . S
C110 H122 0.929 . S
C111 C110 1.363 . S
C111 N113 1.375 . S
C111 H129 0.931 . S
C112 N109 1.311 . S
C112 N113 1.347 . S
C112 H123 0.929 . S
N113 C111 1.375 . S
N113 C112 1.347 . S
C114 C117 1.365 . S
C114 N119 1.328 . S
C114 H120 0.929 . S
C115 C116 1.362 . S
C115 C118 1.378 1_655 S
C115 H130 0.929 . S
C116 C115 1.362 . S
C116 C117 1.366 1_655 S
C117 C114 1.365 . S
C117 C116 1.366 1_455 S
C117 H131 0.930 . S
C118 C115 1.378 1_455 S
C118 N119 1.315 . S
C118 H121 0.930 . S
N119 Co99 2.194 . S
N119 C114 1.328 . S
N119 C118 1.315 . S
H120 C114 0.929 . S
H121 C118 0.930 . S
H122 C110 0.929 . S
H123 C112 0.929 . S
O124 Co99 2.351 . S
O124 C127 1.244 . S
O125 Co99 2.155 . S
O125 C127 1.240 . S
O126 Co99 2.096 . S
O126 C107 1.247 . S
C127 O124 1.244 . S
C127 O125 1.240 . S
H128 C102 0.931 . S
H129 C111 0.931 . S
H130 C115 0.929 . S
H131 C117 0.930 . S
Co132 N136 2.148 . S
Co132 N142 2.128 1_565 S
Co132 N152 2.194 . S
Co132 O157 2.351 . S
Co132 O158 2.155 . S
Co132 O159 2.096 . S
C133 N136 1.301 . S
C133 N137 1.328 . S
C133 H138 0.930 . S
C134 C135 1.333 . S
C134 N136 1.317 . S
C134 H139 0.930 . S
C135 C134 1.333 . S
C135 N137 1.350 . S
C135 H161 0.931 . S
N136 Co132 2.148 . S
N136 C133 1.301 . S
N136 C134 1.317 . S
N137 C133 1.328 . S
N137 C135 1.350 . S
H138 C133 0.930 . S
H139 C134 0.930 . S
C140 O141 1.224 . S
C140 O159 1.247 . S
O141 C140 1.224 . S
N142 Co132 2.128 1_545 S
N142 C143 1.355 . S
N142 C145 1.311 . S
C143 N142 1.355 . S
C143 C144 1.363 . S
C143 H155 0.929 . S
C144 C143 1.363 . S
C144 N146 1.375 . S
C144 H162 0.931 . S
C145 N142 1.311 . S
C145 N146 1.347 . S
C145 H156 0.929 . S
N146 C144 1.375 . S
N146 C145 1.347 . S
C147 C150 1.365 . S
C147 N152 1.328 . S
C147 H153 0.929 . S
C148 C149 1.362 . S
C148 C151 1.378 1_545 S
C148 H163 0.929 . S
C149 C148 1.362 . S
C149 C150 1.366 1_545 S
C150 C147 1.365 . S
C150 C149 1.366 1_565 S
C150 H164 0.930 . S
C151 C148 1.378 1_565 S
C151 N152 1.315 . S
C151 H154 0.930 . S
N152 Co132 2.194 . S
N152 C147 1.328 . S
N152 C151 1.315 . S
H153 C147 0.929 . S
H154 C151 0.930 . S
H155 C143 0.929 . S
H156 C145 0.929 . S
O157 Co132 2.351 . S
O157 C160 1.244 . S
O158 Co132 2.155 . S
O158 C160 1.240 . S
O159 Co132 2.096 . S
O159 C140 1.247 . S
C160 O157 1.244 . S
C160 O158 1.240 . S
H161 C135 0.931 . S
H162 C144 0.931 . S
H163 C148 0.929 . S
H164 C150 0.930 . S
Co165 N169 2.148 . S
Co165 N175 2.128 . S
Co165 N185 2.194 . S
Co165 O190 2.351 . S
Co165 O191 2.155 . S
Co165 O192 2.096 . S
C166 N169 1.301 . S
C166 N170 1.328 . S
C166 H171 0.930 . S
C167 C168 1.333 . S
C167 N169 1.317 . S
C167 H172 0.930 . S
C168 C167 1.333 . S
C168 N170 1.350 . S
C168 H194 0.931 . S
N169 Co165 2.148 . S
N169 C166 1.301 . S
N169 C167 1.317 . S
N170 C166 1.328 . S
N170 C168 1.350 . S
H171 C166 0.930 . S
H172 C167 0.930 . S
C173 O174 1.224 . S
C173 O192 1.247 . S
O174 C173 1.224 . S
N175 Co165 2.128 . S
N175 C176 1.355 . S
N175 C178 1.311 . S
C176 N175 1.355 . S
C176 C177 1.363 . S
C176 H188 0.929 . S
C177 C176 1.363 . S
C177 N179 1.375 . S
C177 H195 0.931 . S
C178 N175 1.311 . S
C178 N179 1.347 . S
C178 H189 0.929 . S
N179 C177 1.375 . S
N179 C178 1.347 . S
C180 C183 1.365 . S
C180 N185 1.328 . S
C180 H186 0.929 . S
C181 C182 1.362 . S
C181 C184 1.378 . S
C181 H196 0.929 . S
C182 C181 1.362 . S
C182 C183 1.366 . S
C183 C180 1.365 . S
C183 C182 1.366 . S
C183 H197 0.930 . S
C184 C181 1.378 . S
C184 N185 1.315 . S
C184 H187 0.930 . S
N185 Co165 2.194 . S
N185 C180 1.328 . S
N185 C184 1.315 . S
H186 C180 0.929 . S
H187 C184 0.930 . S
H188 C176 0.929 . S
H189 C178 0.929 . S
O190 Co165 2.351 . S
O190 C193 1.244 . S
O191 Co165 2.155 . S
O191 C193 1.240 . S
O192 Co165 2.096 . S
O192 C173 1.247 . S
C193 O190 1.244 . S
C193 O191 1.240 . S
H194 C168 0.931 . S
H195 C177 0.931 . S
H196 C181 0.929 . S
H197 C183 0.930 . S
Co198 N202 2.148 . S
Co198 N208 2.128 . S
Co198 N218 2.194 . S
Co198 O223 2.351 . S
Co198 O224 2.155 . S
Co198 O225 2.096 . S
C199 N202 1.301 . S
C199 N203 1.328 . S
C199 H204 0.930 . S
C200 C201 1.333 . S
C200 N202 1.317 . S
C200 H205 0.930 . S
C201 C200 1.333 . S
C201 N203 1.350 . S
C201 H227 0.931 . S
N202 Co198 2.148 . S
N202 C199 1.301 . S
N202 C200 1.317 . S
N203 C199 1.328 . S
N203 C201 1.350 . S
H204 C199 0.930 . S
H205 C200 0.930 . S
C206 O207 1.224 . S
C206 O225 1.247 . S
O207 C206 1.224 . S
N208 Co198 2.128 . S
N208 C209 1.355 . S
N208 C211 1.311 . S
C209 N208 1.355 . S
C209 C210 1.363 . S
C209 H221 0.929 . S
C210 C209 1.363 . S
C210 N212 1.375 . S
C210 H228 0.931 . S
C211 N208 1.311 . S
C211 N212 1.347 . S
C211 H222 0.929 . S
N212 C210 1.375 . S
N212 C211 1.347 . S
C213 C216 1.365 . S
C213 N218 1.328 . S
C213 H219 0.929 . S
C214 C215 1.362 . S
C214 C217 1.378 . S
C214 H229 0.929 . S
C215 C214 1.362 . S
C215 C216 1.366 . S
C216 C213 1.365 . S
C216 C215 1.366 . S
C216 H230 0.930 . S
C217 C214 1.378 . S
C217 N218 1.315 . S
C217 H220 0.930 . S
N218 Co198 2.194 . S
N218 C213 1.328 . S
N218 C217 1.315 . S
H219 C213 0.929 . S
H220 C217 0.930 . S
H221 C209 0.929 . S
H222 C211 0.929 . S
O223 Co198 2.351 . S
O223 C226 1.244 . S
O224 Co198 2.155 . S
O224 C226 1.240 . S
O225 Co198 2.096 . S
O225 C206 1.247 . S
C226 O223 1.244 . S
C226 O224 1.240 . S
H227 C201 0.931 . S
H228 C210 0.931 . S
H229 C214 0.929 . S
H230 C216 0.930 . S
Co231 N235 2.148 . S
Co231 N241 2.128 1_655 S
Co231 N251 2.194 . S
Co231 O256 2.351 . S
Co231 O257 2.155 . S
Co231 O258 2.096 . S
C232 N235 1.301 . S
C232 N236 1.328 . S
C232 H237 0.930 . S
C233 C234 1.333 . S
C233 N235 1.317 . S
C233 H238 0.930 . S
C234 C233 1.333 . S
C234 N236 1.350 . S
C234 H260 0.931 . S
N235 Co231 2.148 . S
N235 C232 1.301 . S
N235 C233 1.317 . S
N236 C232 1.328 . S
N236 C234 1.350 . S
H237 C232 0.930 . S
H238 C233 0.930 . S
C239 O240 1.224 . S
C239 O258 1.247 . S
O240 C239 1.224 . S
N241 Co231 2.128 1_455 S
N241 C242 1.355 . S
N241 C244 1.311 . S
C242 N241 1.355 . S
C242 C243 1.363 . S
C242 H254 0.929 . S
C243 C242 1.363 . S
C243 N245 1.375 . S
C243 H261 0.931 . S
C244 N241 1.311 . S
C244 N245 1.347 . S
C244 H255 0.929 . S
N245 C243 1.375 . S
N245 C244 1.347 . S
C246 C249 1.365 . S
C246 N251 1.328 . S
C246 H252 0.929 . S
C247 C248 1.362 . S
C247 C250 1.378 1_455 S
C247 H262 0.929 . S
C248 C247 1.362 . S
C248 C249 1.366 1_455 S
C249 C246 1.365 . S
C249 C248 1.366 1_655 S
C249 H263 0.930 . S
C250 C247 1.378 1_655 S
C250 N251 1.315 . S
C250 H253 0.930 . S
N251 Co231 2.194 . S
N251 C246 1.328 . S
N251 C250 1.315 . S
H252 C246 0.929 . S
H253 C250 0.930 . S
H254 C242 0.929 . S
H255 C244 0.929 . S
O256 Co231 2.351 . S
O256 C259 1.244 . S
O257 Co231 2.155 . S
O257 C259 1.240 . S
O258 Co231 2.096 . S
O258 C239 1.247 . S
C259 O256 1.244 . S
C259 O257 1.240 . S
H260 C234 0.931 . S
H261 C243 0.931 . S
H262 C247 0.929 . S
H263 C249 0.930 . S
Co264 N268 2.148 . S
Co264 N274 2.128 1_565 S
Co264 N284 2.194 . S
Co264 O289 2.351 . S
Co264 O290 2.155 . S
Co264 O291 2.096 . S
C265 N268 1.301 . S
C265 N269 1.328 . S
C265 H270 0.930 . S
C266 C267 1.333 . S
C266 N268 1.317 . S
C266 H271 0.930 . S
C267 C266 1.333 . S
C267 N269 1.350 . S
C267 H293 0.931 . S
N268 Co264 2.148 . S
N268 C265 1.301 . S
N268 C266 1.317 . S
N269 C265 1.328 . S
N269 C267 1.350 . S
H270 C265 0.930 . S
H271 C266 0.930 . S
C272 O273 1.224 . S
C272 O291 1.247 . S
O273 C272 1.224 . S
N274 Co264 2.128 1_545 S
N274 C275 1.355 . S
N274 C277 1.311 . S
C275 N274 1.355 . S
C275 C276 1.363 . S
C275 H287 0.929 . S
C276 C275 1.363 . S
C276 N278 1.375 . S
C276 H294 0.931 . S
C277 N274 1.311 . S
C277 N278 1.347 . S
C277 H288 0.929 . S
N278 C276 1.375 . S
N278 C277 1.347 . S
C279 C282 1.365 . S
C279 N284 1.328 . S
C279 H285 0.929 . S
C280 C281 1.362 . S
C280 C283 1.378 1_545 S
C280 H295 0.929 . S
C281 C280 1.362 . S
C281 C282 1.366 1_545 S
C282 C279 1.365 . S
C282 C281 1.366 1_565 S
C282 H296 0.930 . S
C283 C280 1.378 1_565 S
C283 N284 1.315 . S
C283 H286 0.930 . S
N284 Co264 2.194 . S
N284 C279 1.328 . S
N284 C283 1.315 . S
H285 C279 0.929 . S
H286 C283 0.930 . S
H287 C275 0.929 . S
H288 C277 0.929 . S
O289 Co264 2.351 . S
O289 C292 1.244 . S
O290 Co264 2.155 . S
O290 C292 1.240 . S
O291 Co264 2.096 . S
O291 C272 1.247 . S
C292 O289 1.244 . S
C292 O290 1.240 . S
H293 C267 0.931 . S
H294 C276 0.931 . S
H295 C280 0.929 . S
H296 C282 0.930 . S
Co297 N301 2.148 . S
Co297 N307 2.128 . S
Co297 N317 2.194 . S
Co297 O322 2.351 . S
Co297 O323 2.155 . S
Co297 O324 2.096 . S
C298 N301 1.301 . S
C298 N302 1.328 . S
C298 H303 0.930 . S
C299 C300 1.333 . S
C299 N301 1.317 . S
C299 H304 0.930 . S
C300 C299 1.333 . S
C300 N302 1.350 . S
C300 H326 0.931 . S
N301 Co297 2.148 . S
N301 C298 1.301 . S
N301 C299 1.317 . S
N302 C298 1.328 . S
N302 C300 1.350 . S
H303 C298 0.930 . S
H304 C299 0.930 . S
C305 O306 1.224 . S
C305 O324 1.247 . S
O306 C305 1.224 . S
N307 Co297 2.128 . S
N307 C308 1.355 . S
N307 C310 1.311 . S
C308 N307 1.355 . S
C308 C309 1.363 . S
C308 H320 0.929 . S
C309 C308 1.363 . S
C309 N311 1.375 . S
C309 H327 0.931 . S
C310 N307 1.311 . S
C310 N311 1.347 . S
C310 H321 0.929 . S
N311 C309 1.375 . S
N311 C310 1.347 . S
C312 C315 1.365 . S
C312 N317 1.328 . S
C312 H318 0.929 . S
C313 C314 1.362 . S
C313 C316 1.378 . S
C313 H328 0.929 . S
C314 C313 1.362 . S
C314 C315 1.366 . S
C315 C312 1.365 . S
C315 C314 1.366 . S
C315 H329 0.930 . S
C316 C313 1.378 . S
C316 N317 1.315 . S
C316 H319 0.930 . S
N317 Co297 2.194 . S
N317 C312 1.328 . S
N317 C316 1.315 . S
H318 C312 0.929 . S
H319 C316 0.930 . S
H320 C308 0.929 . S
H321 C310 0.929 . S
O322 Co297 2.351 . S
O322 C325 1.244 . S
O323 Co297 2.155 . S
O323 C325 1.240 . S
O324 Co297 2.096 . S
O324 C305 1.247 . S
C325 O322 1.244 . S
C325 O323 1.240 . S
H326 C300 0.931 . S
H327 C309 0.931 . S
H328 C313 0.929 . S
H329 C315 0.930 . S
Co330 N334 2.148 . S
Co330 N340 2.128 . S
Co330 N350 2.194 . S
Co330 O355 2.351 . S
Co330 O356 2.155 . S
Co330 O357 2.096 . S
C331 N334 1.301 . S
C331 N335 1.328 . S
C331 H336 0.930 . S
C332 C333 1.333 . S
C332 N334 1.317 . S
C332 H337 0.930 . S
C333 C332 1.333 . S
C333 N335 1.350 . S
C333 H359 0.931 . S
N334 Co330 2.148 . S
N334 C331 1.301 . S
N334 C332 1.317 . S
N335 C331 1.328 . S
N335 C333 1.350 . S
H336 C331 0.930 . S
H337 C332 0.930 . S
C338 O339 1.224 . S
C338 O357 1.247 . S
O339 C338 1.224 . S
N340 Co330 2.128 . S
N340 C341 1.355 . S
N340 C343 1.311 . S
C341 N340 1.355 . S
C341 C342 1.363 . S
C341 H353 0.929 . S
C342 C341 1.363 . S
C342 N344 1.375 . S
C342 H360 0.931 . S
C343 N340 1.311 . S
C343 N344 1.347 . S
C343 H354 0.929 . S
N344 C342 1.375 . S
N344 C343 1.347 . S
C345 C348 1.365 . S
C345 N350 1.328 . S
C345 H351 0.929 . S
C346 C347 1.362 . S
C346 C349 1.378 . S
C346 H361 0.929 . S
C347 C346 1.362 . S
C347 C348 1.366 . S
C348 C345 1.365 . S
C348 C347 1.366 . S
C348 H362 0.930 . S
C349 C346 1.378 . S
C349 N350 1.315 . S
C349 H352 0.930 . S
N350 Co330 2.194 . S
N350 C345 1.328 . S
N350 C349 1.315 . S
H351 C345 0.929 . S
H352 C349 0.930 . S
H353 C341 0.929 . S
H354 C343 0.929 . S
O355 Co330 2.351 . S
O355 C358 1.244 . S
O356 Co330 2.155 . S
O356 C358 1.240 . S
O357 Co330 2.096 . S
O357 C338 1.247 . S
C358 O355 1.244 . S
C358 O356 1.240 . S
H359 C333 0.931 . S
H360 C342 0.931 . S
H361 C346 0.929 . S
H362 C348 0.930 . S
Co363 N367 2.148 . S
Co363 N373 2.128 1_655 S
Co363 N383 2.194 . S
Co363 O388 2.351 . S
Co363 O389 2.155 . S
Co363 O390 2.096 . S
C364 N367 1.301 . S
C364 N368 1.328 . S
C364 H369 0.930 . S
C365 C366 1.333 . S
C365 N367 1.317 . S
C365 H370 0.930 . S
C366 C365 1.333 . S
C366 N368 1.350 . S
C366 H392 0.931 . S
N367 Co363 2.148 . S
N367 C364 1.301 . S
N367 C365 1.317 . S
N368 C364 1.328 . S
N368 C366 1.350 . S
H369 C364 0.930 . S
H370 C365 0.930 . S
C371 O372 1.224 . S
C371 O390 1.247 . S
O372 C371 1.224 . S
N373 Co363 2.128 1_455 S
N373 C374 1.355 . S
N373 C376 1.311 . S
C374 N373 1.355 . S
C374 C375 1.363 . S
C374 H386 0.929 . S
C375 C374 1.363 . S
C375 N377 1.375 . S
C375 H393 0.931 . S
C376 N373 1.311 . S
C376 N377 1.347 . S
C376 H387 0.929 . S
N377 C375 1.375 . S
N377 C376 1.347 . S
C378 C381 1.365 . S
C378 N383 1.328 . S
C378 H384 0.929 . S
C379 C380 1.362 . S
C379 C382 1.378 1_455 S
C379 H394 0.929 . S
C380 C379 1.362 . S
C380 C381 1.366 1_455 S
C381 C378 1.365 . S
C381 C380 1.366 1_655 S
C381 H395 0.930 . S
C382 C379 1.378 1_655 S
C382 N383 1.315 . S
C382 H385 0.930 . S
N383 Co363 2.194 . S
N383 C378 1.328 . S
N383 C382 1.315 . S
H384 C378 0.929 . S
H385 C382 0.930 . S
H386 C374 0.929 . S
H387 C376 0.929 . S
O388 Co363 2.351 . S
O388 C391 1.244 . S
O389 Co363 2.155 . S
O389 C391 1.240 . S
O390 Co363 2.096 . S
O390 C371 1.247 . S
C391 O388 1.244 . S
C391 O389 1.240 . S
H392 C366 0.931 . S
H393 C375 0.931 . S
H394 C379 0.929 . S
H395 C381 0.930 . S
Co396 N400 2.148 . S
Co396 N406 2.128 1_545 S
Co396 N416 2.194 . S
Co396 O421 2.351 . S
Co396 O422 2.155 . S
Co396 O423 2.096 . S
C397 N400 1.301 . S
C397 N401 1.328 . S
C397 H402 0.930 . S
C398 C399 1.333 . S
C398 N400 1.317 . S
C398 H403 0.930 . S
C399 C398 1.333 . S
C399 N401 1.350 . S
C399 H425 0.931 . S
N400 Co396 2.148 . S
N400 C397 1.301 . S
N400 C398 1.317 . S
N401 C397 1.328 . S
N401 C399 1.350 . S
H402 C397 0.930 . S
H403 C398 0.930 . S
C404 O405 1.224 . S
C404 O423 1.247 . S
O405 C404 1.224 . S
N406 Co396 2.128 1_565 S
N406 C407 1.355 . S
N406 C409 1.311 . S
C407 N406 1.355 . S
C407 C408 1.363 . S
C407 H419 0.929 . S
C408 C407 1.363 . S
C408 N410 1.375 . S
C408 H426 0.931 . S
C409 N406 1.311 . S
C409 N410 1.347 . S
C409 H420 0.929 . S
N410 C408 1.375 . S
N410 C409 1.347 . S
C411 C414 1.365 . S
C411 N416 1.328 . S
C411 H417 0.929 . S
C412 C413 1.362 . S
C412 C415 1.378 1_565 S
C412 H427 0.929 . S
C413 C412 1.362 . S
C413 C414 1.366 1_565 S
C414 C411 1.365 . S
C414 C413 1.366 1_545 S
C414 H428 0.930 . S
C415 C412 1.378 1_545 S
C415 N416 1.315 . S
C415 H418 0.930 . S
N416 Co396 2.194 . S
N416 C411 1.328 . S
N416 C415 1.315 . S
H417 C411 0.929 . S
H418 C415 0.930 . S
H419 C407 0.929 . S
H420 C409 0.929 . S
O421 Co396 2.351 . S
O421 C424 1.244 . S
O422 Co396 2.155 . S
O422 C424 1.240 . S
O423 Co396 2.096 . S
O423 C404 1.247 . S
C424 O421 1.244 . S
C424 O422 1.240 . S
H425 C399 0.931 . S
H426 C408 0.931 . S
H427 C412 0.929 . S
H428 C414 0.930 . S
Co429 N433 2.148 . S
Co429 N439 2.128 . S
Co429 N449 2.194 . S
Co429 O454 2.351 . S
Co429 O455 2.155 . S
Co429 O456 2.096 . S
C430 N433 1.301 . S
C430 N434 1.328 . S
C430 H435 0.930 . S
C431 C432 1.333 . S
C431 N433 1.317 . S
C431 H436 0.930 . S
C432 C431 1.333 . S
C432 N434 1.350 . S
C432 H458 0.931 . S
N433 Co429 2.148 . S
N433 C430 1.301 . S
N433 C431 1.317 . S
N434 C430 1.328 . S
N434 C432 1.350 . S
H435 C430 0.930 . S
H436 C431 0.930 . S
C437 O438 1.224 . S
C437 O456 1.247 . S
O438 C437 1.224 . S
N439 Co429 2.128 . S
N439 C440 1.355 . S
N439 C442 1.311 . S
C440 N439 1.355 . S
C440 C441 1.363 . S
C440 H452 0.929 . S
C441 C440 1.363 . S
C441 N443 1.375 . S
C441 H459 0.931 . S
C442 N439 1.311 . S
C442 N443 1.347 . S
C442 H453 0.929 . S
N443 C441 1.375 . S
N443 C442 1.347 . S
C444 C447 1.365 . S
C444 N449 1.328 . S
C444 H450 0.929 . S
C445 C446 1.362 . S
C445 C448 1.378 . S
C445 H460 0.929 . S
C446 C445 1.362 . S
C446 C447 1.366 . S
C447 C444 1.365 . S
C447 C446 1.366 . S
C447 H461 0.930 . S
C448 C445 1.378 . S
C448 N449 1.315 . S
C448 H451 0.930 . S
N449 Co429 2.194 . S
N449 C444 1.328 . S
N449 C448 1.315 . S
H450 C444 0.929 . S
H451 C448 0.930 . S
H452 C440 0.929 . S
H453 C442 0.929 . S
O454 Co429 2.351 . S
O454 C457 1.244 . S
O455 Co429 2.155 . S
O455 C457 1.240 . S
O456 Co429 2.096 . S
O456 C437 1.247 . S
C457 O454 1.244 . S
C457 O455 1.240 . S
H458 C432 0.931 . S
H459 C441 0.931 . S
H460 C445 0.929 . S
H461 C447 0.930 . S
Co462 N466 2.148 . S
Co462 N472 2.128 . S
Co462 N482 2.194 . S
Co462 O487 2.351 . S
Co462 O488 2.155 . S
Co462 O489 2.096 . S
C463 N466 1.301 . S
C463 N467 1.328 . S
C463 H468 0.930 . S
C464 C465 1.333 . S
C464 N466 1.317 . S
C464 H469 0.930 . S
C465 C464 1.333 . S
C465 N467 1.350 . S
C465 H491 0.931 . S
N466 Co462 2.148 . S
N466 C463 1.301 . S
N466 C464 1.317 . S
N467 C463 1.328 . S
N467 C465 1.350 . S
H468 C463 0.930 . S
H469 C464 0.930 . S
C470 O471 1.224 . S
C470 O489 1.247 . S
O471 C470 1.224 . S
N472 Co462 2.128 . S
N472 C473 1.355 . S
N472 C475 1.311 . S
C473 N472 1.355 . S
C473 C474 1.363 . S
C473 H485 0.929 . S
C474 C473 1.363 . S
C474 N476 1.375 . S
C474 H492 0.931 . S
C475 N472 1.311 . S
C475 N476 1.347 . S
C475 H486 0.929 . S
N476 C474 1.375 . S
N476 C475 1.347 . S
C477 C480 1.365 . S
C477 N482 1.328 . S
C477 H483 0.929 . S
C478 C479 1.362 . S
C478 C481 1.378 . S
C478 H493 0.929 . S
C479 C478 1.362 . S
C479 C480 1.366 . S
C480 C477 1.365 . S
C480 C479 1.366 . S
C480 H494 0.930 . S
C481 C478 1.378 . S
C481 N482 1.315 . S
C481 H484 0.930 . S
N482 Co462 2.194 . S
N482 C477 1.328 . S
N482 C481 1.315 . S
H483 C477 0.929 . S
H484 C481 0.930 . S
H485 C473 0.929 . S
H486 C475 0.929 . S
O487 Co462 2.351 . S
O487 C490 1.244 . S
O488 Co462 2.155 . S
O488 C490 1.240 . S
O489 Co462 2.096 . S
O489 C470 1.247 . S
C490 O487 1.244 . S
C490 O488 1.240 . S
H491 C465 0.931 . S
H492 C474 0.931 . S
H493 C478 0.929 . S
H494 C480 0.930 . S
Co495 N499 2.148 . S
Co495 N505 2.128 1_455 S
Co495 N515 2.194 . S
Co495 O520 2.351 . S
Co495 O521 2.155 . S
Co495 O522 2.096 . S
C496 N499 1.301 . S
C496 N500 1.328 . S
C496 H501 0.930 . S
C497 C498 1.333 . S
C497 N499 1.317 . S
C497 H502 0.930 . S
C498 C497 1.333 . S
C498 N500 1.350 . S
C498 H524 0.931 . S
N499 Co495 2.148 . S
N499 C496 1.301 . S
N499 C497 1.317 . S
N500 C496 1.328 . S
N500 C498 1.350 . S
H501 C496 0.930 . S
H502 C497 0.930 . S
C503 O504 1.224 . S
C503 O522 1.247 . S
O504 C503 1.224 . S
N505 Co495 2.128 1_655 S
N505 C506 1.355 . S
N505 C508 1.311 . S
C506 N505 1.355 . S
C506 C507 1.363 . S
C506 H518 0.929 . S
C507 C506 1.363 . S
C507 N509 1.375 . S
C507 H525 0.931 . S
C508 N505 1.311 . S
C508 N509 1.347 . S
C508 H519 0.929 . S
N509 C507 1.375 . S
N509 C508 1.347 . S
C510 C513 1.365 . S
C510 N515 1.328 . S
C510 H516 0.929 . S
C511 C512 1.362 . S
C511 C514 1.378 1_655 S
C511 H526 0.929 . S
C512 C511 1.362 . S
C512 C513 1.366 1_655 S
C513 C510 1.365 . S
C513 C512 1.366 1_455 S
C513 H527 0.930 . S
C514 C511 1.378 1_455 S
C514 N515 1.315 . S
C514 H517 0.930 . S
N515 Co495 2.194 . S
N515 C510 1.328 . S
N515 C514 1.315 . S
H516 C510 0.929 . S
H517 C514 0.930 . S
H518 C506 0.929 . S
H519 C508 0.929 . S
O520 Co495 2.351 . S
O520 C523 1.244 . S
O521 Co495 2.155 . S
O521 C523 1.240 . S
O522 Co495 2.096 . S
O522 C503 1.247 . S
C523 O520 1.244 . S
C523 O521 1.240 . S
H524 C498 0.931 . S
H525 C507 0.931 . S
H526 C511 0.929 . S
H527 C513 0.930 . S
C528 C529 1.387 . S
C528 H532 0.950 . S
C528 C537 1.390 . S
C529 C528 1.387 . S
C529 C531 1.387 . S
H530 C537 0.950 . S
C531 C529 1.387 . S
C531 C533 1.390 . S
C531 H535 0.950 . S
H532 C528 0.950 . S
C533 C531 1.390 . S
C533 C534 1.387 . S
C533 H536 0.950 . S
C534 C533 1.387 . S
C534 C537 1.387 . S
H535 C531 0.950 . S
H536 C533 0.950 . S
C537 C528 1.390 . S
C537 H530 0.950 . S
C537 C534 1.387 . S
C538 C539 1.387 . S
C538 H542 0.950 . S
C538 C547 1.390 . S
C539 C538 1.387 . S
C539 C541 1.387 . S
H540 C547 0.950 . S
C541 C539 1.387 . S
C541 C543 1.390 . S
C541 H545 0.950 . S
H542 C538 0.950 . S
C543 C541 1.390 . S
C543 C544 1.387 . S
C543 H546 0.950 . S
C544 C543 1.387 . S
C544 C547 1.387 . S
H545 C541 0.950 . S
H546 C543 0.950 . S
C547 C538 1.390 . S
C547 H540 0.950 . S
C547 C544 1.387 . S
C548 C549 1.387 . S
C548 H552 0.950 . S
C548 C557 1.390 . S
C549 C548 1.387 . S
C549 C551 1.387 . S
H550 C557 0.950 . S
C551 C549 1.387 . S
C551 C553 1.390 . S
C551 H555 0.950 . S
H552 C548 0.950 . S
C553 C551 1.390 . S
C553 C554 1.387 . S
C553 H556 0.950 . S
C554 C553 1.387 . S
C554 C557 1.387 . S
H555 C551 0.950 . S
H556 C553 0.950 . S
C557 C548 1.390 . S
C557 H550 0.950 . S
C557 C554 1.387 . S
C558 C559 1.387 . S
C558 H562 0.950 . S
C558 C567 1.390 . S
C559 C558 1.387 . S
C559 C561 1.387 . S
H560 C567 0.950 . S
C561 C559 1.387 . S
C561 C563 1.390 . S
C561 H565 0.950 . S
H562 C558 0.950 . S
C563 C561 1.390 . S
C563 C564 1.387 . S
C563 H566 0.950 1_565 S
C564 C563 1.387 . S
C564 C567 1.387 . S
H565 C561 0.950 . S
H566 C563 0.950 1_545 S
C567 C558 1.390 . S
C567 H560 0.950 . S
C567 C564 1.387 . S
C568 C569 1.387 . S
C568 H572 0.950 . S
C568 C577 1.390 . S
C569 C568 1.387 . S
C569 C571 1.387 . S
H570 C577 0.950 . S
C571 C569 1.387 . S
C571 C573 1.390 . S
C571 H575 0.950 . S
H572 C568 0.950 . S
C573 C571 1.390 . S
C573 C574 1.387 . S
C573 H576 0.950 . S
C574 C573 1.387 . S
C574 C577 1.387 . S
H575 C571 0.950 . S
H576 C573 0.950 . S
C577 C568 1.390 . S
C577 H570 0.950 . S
C577 C574 1.387 . S
C578 C579 1.387 . S
C578 H582 0.950 . S
C578 C587 1.390 . S
C579 C578 1.387 . S
C579 C581 1.387 . S
H580 C587 0.950 . S
C581 C579 1.387 . S
C581 C583 1.390 . S
C581 H585 0.950 1_545 S
H582 C578 0.950 . S
C583 C581 1.390 . S
C583 C584 1.387 . S
C583 H586 0.950 . S
C584 C583 1.387 . S
C584 C587 1.387 . S
H585 C581 0.950 1_565 S
H586 C583 0.950 . S
C587 C578 1.390 . S
C587 H580 0.950 . S
C587 C584 1.387 . S
C588 C589 1.387 . S
C588 H592 0.950 . S
C588 C597 1.390 . S
C589 C588 1.387 . S
C589 C591 1.387 . S
H590 C597 0.950 . S
C591 C589 1.387 . S
C591 C593 1.390 . S
C591 H595 0.950 . S
H592 C588 0.950 . S
C593 C591 1.390 . S
C593 C594 1.387 . S
C593 H596 0.950 . S
C594 C593 1.387 . S
C594 C597 1.387 . S
H595 C591 0.950 . S
H596 C593 0.950 . S
C597 C588 1.390 . S
C597 H590 0.950 . S
C597 C594 1.387 . S
C598 C599 1.387 . S
C598 H602 0.950 . S
C598 C607 1.390 . S
C599 C598 1.387 . S
C599 C601 1.387 . S
H600 C607 0.950 . S
C601 C599 1.387 . S
C601 C603 1.390 . S
C601 H605 0.950 . S
H602 C598 0.950 . S
C603 C601 1.390 . S
C603 C604 1.387 . S
C603 H606 0.950 . S
C604 C603 1.387 . S
C604 C607 1.387 . S
H605 C601 0.950 . S
H606 C603 0.950 . S
C607 C598 1.390 . S
C607 H600 0.950 . S
C607 C604 1.387 . S
C608 C609 1.387 . S
C608 H612 0.950 . S
C608 C617 1.390 . S
C609 C608 1.387 . S
C609 C611 1.387 . S
H610 C617 0.950 . S
C611 C609 1.387 . S
C611 C613 1.390 . S
C611 H615 0.950 . S
H612 C608 0.950 . S
C613 C611 1.390 . S
C613 C614 1.387 . S
C613 H616 0.950 . S
C614 C613 1.387 . S
C614 C617 1.387 . S
H615 C611 0.950 . S
H616 C613 0.950 . S
C617 C608 1.390 . S
C617 H610 0.950 . S
C617 C614 1.387 . S
C618 C619 1.387 . S
C618 H622 0.950 . S
C618 C627 1.390 . S
C619 C618 1.387 . S
C619 C621 1.387 . S
H620 C627 0.950 . S
C621 C619 1.387 . S
C621 C623 1.390 . S
C621 H625 0.950 . S
H622 C618 0.950 . S
C623 C621 1.390 . S
C623 C624 1.387 . S
C623 H626 0.950 . S
C624 C623 1.387 . S
C624 C627 1.387 . S
H625 C621 0.950 . S
H626 C623 0.950 . S
C627 C618 1.390 . S
C627 H620 0.950 . S
C627 C624 1.387 . S
C628 C629 1.387 . S
C628 H632 0.950 . S
C628 C637 1.390 . S
C629 C628 1.387 . S
C629 C631 1.387 . S
H630 C637 0.950 . S
C631 C629 1.387 . S
C631 C633 1.390 . S
C631 H635 0.950 . S
H632 C628 0.950 . S
C633 C631 1.390 . S
C633 C634 1.387 . S
C633 H636 0.950 . S
C634 C633 1.387 . S
C634 C637 1.387 . S
H635 C631 0.950 . S
H636 C633 0.950 . S
C637 C628 1.390 . S
C637 H630 0.950 . S
C637 C634 1.387 . S
C638 C639 1.387 . S
C638 H642 0.950 . S
C638 C647 1.390 . S
C639 C638 1.387 . S
C639 C641 1.387 . S
H640 C647 0.950 . S
C641 C639 1.387 . S
C641 C643 1.390 . S
C641 H645 0.950 . S
H642 C638 0.950 . S
C643 C641 1.390 . S
C643 C644 1.387 . S
C643 H646 0.950 . S
C644 C643 1.387 . S
C644 C647 1.387 . S
H645 C641 0.950 . S
H646 C643 0.950 . S
C647 C638 1.390 . S
C647 H640 0.950 . S
C647 C644 1.387 . S
C648 C649 1.387 . S
C648 H652 0.950 . S
C648 C657 1.390 . S
C649 C648 1.387 . S
C649 C651 1.387 . S
H650 C657 0.950 . S
C651 C649 1.387 . S
C651 C653 1.390 . S
C651 H655 0.950 . S
H652 C648 0.950 . S
C653 C651 1.390 . S
C653 C654 1.387 . S
C653 H656 0.950 . S
C654 C653 1.387 . S
C654 C657 1.387 . S
H655 C651 0.950 . S
H656 C653 0.950 . S
C657 C648 1.390 . S
C657 H650 0.950 . S
C657 C654 1.387 . S
C658 C659 1.387 . S
C658 H662 0.950 . S
C658 C667 1.390 . S
C659 C658 1.387 . S
C659 C661 1.387 . S
H660 C667 0.950 . S
C661 C659 1.387 . S
C661 C663 1.390 . S
C661 H665 0.950 . S
H662 C658 0.950 . S
C663 C661 1.390 . S
C663 C664 1.387 . S
C663 H666 0.950 . S
C664 C663 1.387 . S
C664 C667 1.387 . S
H665 C661 0.950 . S
H666 C663 0.950 . S
C667 C658 1.390 . S
C667 H660 0.950 . S
C667 C664 1.387 . S
C668 C669 1.387 . S
C668 H672 0.950 . S
C668 C677 1.390 . S
C669 C668 1.387 . S
C669 C671 1.387 . S
H670 C677 0.950 . S
C671 C669 1.387 . S
C671 C673 1.390 . S
C671 H675 0.950 . S
H672 C668 0.950 . S
C673 C671 1.390 . S
C673 C674 1.387 . S
C673 H676 0.950 . S
C674 C673 1.387 . S
C674 C677 1.387 . S
H675 C671 0.950 . S
H676 C673 0.950 . S
C677 C668 1.390 . S
C677 H670 0.950 . S
C677 C674 1.387 . S
C678 C679 1.387 . S
C678 H682 0.950 . S
C678 C687 1.390 . S
C679 C678 1.387 . S
C679 C681 1.387 . S
H680 C687 0.950 . S
C681 C679 1.387 . S
C681 C683 1.390 . S
C681 H685 0.950 . S
H682 C678 0.950 . S
C683 C681 1.390 . S
C683 C684 1.387 . S
C683 H686 0.950 . S
C684 C683 1.387 . S
C684 C687 1.387 . S
H685 C681 0.950 . S
H686 C683 0.950 . S
C687 C678 1.390 . S
C687 H680 0.950 . S
C687 C684 1.387 . S
C688 C689 1.387 . S
C688 H692 0.950 . S
C688 C697 1.390 . S
C689 C688 1.387 . S
C689 C691 1.387 . S
H690 C697 0.950 . S
C691 C689 1.387 . S
C691 C693 1.390 . S
C691 H695 0.950 . S
H692 C688 0.950 . S
C693 C691 1.390 . S
C693 C694 1.387 . S
C693 H696 0.950 . S
C694 C693 1.387 . S
C694 C697 1.387 . S
H695 C691 0.950 . S
H696 C693 0.950 . S
C697 C688 1.390 . S
C697 H690 0.950 . S
C697 C694 1.387 . S
C698 C699 1.387 . S
C698 H702 0.950 . S
C698 C707 1.390 . S
C699 C698 1.387 . S
C699 C701 1.387 . S
H700 C707 0.950 . S
C701 C699 1.387 . S
C701 C703 1.390 . S
C701 H705 0.950 . S
H702 C698 0.950 . S
C703 C701 1.390 . S
C703 C704 1.387 . S
C703 H706 0.950 . S
C704 C703 1.387 . S
C704 C707 1.387 . S
H705 C701 0.950 . S
H706 C703 0.950 . S
C707 C698 1.390 . S
C707 H700 0.950 . S
C707 C704 1.387 . S
C708 C709 1.387 . S
C708 H712 0.950 . S
C708 C717 1.390 . S
C709 C708 1.387 . S
C709 C711 1.387 . S
H710 C717 0.950 . S
C711 C709 1.387 . S
C711 C713 1.390 . S
C711 H715 0.950 . S
H712 C708 0.950 . S
C713 C711 1.390 . S
C713 C714 1.387 . S
C713 H716 0.950 . S
C714 C713 1.387 . S
C714 C717 1.387 . S
H715 C711 0.950 . S
H716 C713 0.950 . S
C717 C708 1.390 . S
C717 H710 0.950 . S
C717 C714 1.387 . S
C718 C719 1.387 . S
C718 H722 0.950 . S
C718 C727 1.390 . S
C719 C718 1.387 . S
C719 C721 1.387 . S
H720 C727 0.950 . S
C721 C719 1.387 . S
C721 C723 1.390 . S
C721 H725 0.950 . S
H722 C718 0.950 . S
C723 C721 1.390 . S
C723 C724 1.387 . S
C723 H726 0.950 . S
C724 C723 1.387 . S
C724 C727 1.387 . S
H725 C721 0.950 . S
H726 C723 0.950 . S
C727 C718 1.390 . S
C727 H720 0.950 . S
C727 C724 1.387 . S
C728 C729 1.387 . S
C728 H732 0.950 . S
C728 C737 1.390 . S
C729 C728 1.387 . S
C729 C731 1.387 . S
H730 C737 0.950 . S
C731 C729 1.387 . S
C731 C733 1.390 . S
C731 H735 0.950 . S
H732 C728 0.950 . S
C733 C731 1.390 . S
C733 C734 1.387 . S
C733 H736 0.950 . S
C734 C733 1.387 . S
C734 C737 1.387 . S
H735 C731 0.950 . S
H736 C733 0.950 . S
C737 C728 1.390 . S
C737 H730 0.950 . S
C737 C734 1.387 . S
C738 C739 1.387 . S
C738 H742 0.950 . S
C738 C747 1.390 . S
C739 C738 1.387 . S
C739 C741 1.387 . S
H740 C747 0.950 . S
C741 C739 1.387 . S
C741 C743 1.390 . S
C741 H745 0.950 . S
H742 C738 0.950 . S
C743 C741 1.390 . S
C743 C744 1.387 . S
C743 H746 0.950 . S
C744 C743 1.387 . S
C744 C747 1.387 . S
H745 C741 0.950 . S
H746 C743 0.950 . S
C747 C738 1.390 . S
C747 H740 0.950 . S
C747 C744 1.387 . S
C748 C749 1.387 . S
C748 H752 0.950 . S
C748 C757 1.390 . S
C749 C748 1.387 . S
C749 C751 1.387 . S
H750 C757 0.950 . S
C751 C749 1.387 . S
C751 C753 1.390 . S
C751 H755 0.950 . S
H752 C748 0.950 . S
C753 C751 1.390 . S
C753 C754 1.387 . S
C753 H756 0.950 . S
C754 C753 1.387 . S
C754 C757 1.387 . S
H755 C751 0.950 . S
H756 C753 0.950 . S
C757 C748 1.390 . S
C757 H750 0.950 . S
C757 C754 1.387 . S
C758 C759 1.387 . S
C758 H762 0.950 . S
C758 C767 1.390 . S
C759 C758 1.387 . S
C759 C761 1.387 . S
H760 C767 0.950 . S
C761 C759 1.387 . S
C761 C763 1.390 . S
C761 H765 0.950 . S
H762 C758 0.950 . S
C763 C761 1.390 . S
C763 C764 1.387 . S
C763 H766 0.950 . S
C764 C763 1.387 . S
C764 C767 1.387 . S
H765 C761 0.950 . S
H766 C763 0.950 . S
C767 C758 1.390 . S
C767 H760 0.950 . S
C767 C764 1.387 . S
C768 C769 1.387 1_556 S
C768 H772 0.950 . S
C768 C777 1.390 . S
C769 C768 1.387 1_554 S
C769 C771 1.387 1_545 S
H770 C777 0.950 . S
C771 C769 1.387 1_565 S
C771 C773 1.390 . S
C771 H775 0.950 . S
H772 C768 0.950 . S
C773 C771 1.390 . S
C773 C774 1.387 1_554 S
C773 H776 0.950 . S
C774 C773 1.387 1_556 S
C774 C777 1.387 1_565 S
H775 C771 0.950 . S
H776 C773 0.950 . S
C777 C768 1.390 . S
C777 H770 0.950 . S
C777 C774 1.387 1_545 S
C778 C779 1.387 1_556 S
C778 H782 0.950 . S
C778 C787 1.390 . S
C779 C778 1.387 1_554 S
C779 C781 1.387 . S
H780 C787 0.950 . S
C781 C779 1.387 . S
C781 C783 1.390 . S
C781 H785 0.950 . S
H782 C778 0.950 . S
C783 C781 1.390 . S
C783 C784 1.387 1_554 S
C783 H786 0.950 . S
C784 C783 1.387 1_556 S
C784 C787 1.387 . S
H785 C781 0.950 . S
H786 C783 0.950 . S
C787 C778 1.390 . S
C787 H780 0.950 . S
C787 C784 1.387 . S
C788 C789 1.387 . S
C788 H792 0.950 . S
C788 C797 1.390 1_655 S
C789 C788 1.387 . S
C789 C791 1.387 1_554 S
H790 C797 0.950 . S
C791 C789 1.387 1_556 S
C791 C793 1.390 1_655 S
C791 H795 0.950 . S
H792 C788 0.950 . S
C793 C791 1.390 1_455 S
C793 C794 1.387 . S
C793 H796 0.950 . S
C794 C793 1.387 . S
C794 C797 1.387 1_556 S
H795 C791 0.950 . S
H796 C793 0.950 . S
C797 C788 1.390 1_455 S
C797 H790 0.950 . S
C797 C794 1.387 1_554 S
C798 C799 1.387 1_554 S
C798 H802 0.950 . S
C798 C807 1.390 1_545 S
C799 C798 1.387 1_556 S
C799 C801 1.387 1_655 S
H800 C807 0.950 . S
C801 C799 1.387 1_455 S
C801 C803 1.390 1_545 S
C801 H805 0.950 . S
H802 C798 0.950 . S
C803 C801 1.390 1_565 S
C803 C804 1.387 1_556 S
C803 H806 0.950 . S
C804 C803 1.387 1_554 S
C804 C807 1.387 1_455 S
H805 C801 0.950 . S
H806 C803 0.950 . S
C807 C798 1.390 1_565 S
C807 H800 0.950 . S
C807 C804 1.387 1_655 S
C808 C809 1.387 1_565 S
C808 H812 0.950 . S
C808 C817 1.390 1_655 S
C809 C808 1.387 1_545 S
C809 C811 1.387 . S
H810 C817 0.950 . S
C811 C809 1.387 . S
C811 C813 1.390 1_655 S
C811 H815 0.950 . S
H812 C808 0.950 . S
C813 C811 1.390 1_455 S
C813 C814 1.387 1_545 S
C813 H816 0.950 . S
C814 C813 1.387 1_565 S
C814 C817 1.387 . S
H815 C811 0.950 . S
H816 C813 0.950 . S
C817 C808 1.390 1_455 S
C817 H810 0.950 . S
C817 C814 1.387 . S
C818 C819 1.387 . S
C818 H822 0.950 . S
C818 C827 1.390 1_545 S
C819 C818 1.387 . S
C819 C821 1.387 . S
H820 C827 0.950 . S
C821 C819 1.387 . S
C821 C823 1.390 1_545 S
C821 H825 0.950 . S
H822 C818 0.950 . S
C823 C821 1.390 1_565 S
C823 C824 1.387 . S
C823 H826 0.950 . S
C824 C823 1.387 . S
C824 C827 1.387 . S
H825 C821 0.950 . S
H826 C823 0.950 . S
C827 C818 1.390 1_565 S
C827 H820 0.950 . S
C827 C824 1.387 . S
C828 C829 1.387 . S
C828 H832 0.950 . S
C828 C837 1.390 . S
C829 C828 1.387 . S
C829 C831 1.387 . S
H830 C837 0.950 . S
C831 C829 1.387 . S
C831 C833 1.390 . S
C831 H835 0.950 . S
H832 C828 0.950 . S
C833 C831 1.390 . S
C833 C834 1.387 . S
C833 H836 0.950 . S
C834 C833 1.387 . S
C834 C837 1.387 . S
H835 C831 0.950 . S
H836 C833 0.950 . S
C837 C828 1.390 . S
C837 H830 0.950 . S
C837 C834 1.387 . S
C838 C839 1.387 . S
C838 H842 0.950 . S
C838 C847 1.390 . S
C839 C838 1.387 . S
C839 C841 1.387 1_455 S
H840 C847 0.950 . S
C841 C839 1.387 1_655 S
C841 C843 1.390 . S
C841 H845 0.950 . S
H842 C838 0.950 . S
C843 C841 1.390 . S
C843 C844 1.387 . S
C843 H846 0.950 . S
C844 C843 1.387 . S
C844 C847 1.387 1_655 S
H845 C841 0.950 . S
H846 C843 0.950 . S
C847 C838 1.390 . S
C847 H840 0.950 . S
C847 C844 1.387 1_455 S
C848 C849 1.387 . S
C848 H852 0.950 . S
C848 C857 1.390 . S
C849 C848 1.387 . S
C849 C851 1.387 . S
H850 C857 0.950 . S
C851 C849 1.387 . S
C851 C853 1.390 . S
C851 H855 0.950 . S
H852 C848 0.950 . S
C853 C851 1.390 . S
C853 C854 1.387 . S
C853 H856 0.950 . S
C854 C853 1.387 . S
C854 C857 1.387 . S
H855 C851 0.950 . S
H856 C853 0.950 . S
C857 C848 1.390 . S
C857 H850 0.950 . S
C857 C854 1.387 . S
C858 C859 1.387 . S
C858 H862 0.950 . S
C858 C867 1.390 . S
C859 C858 1.387 . S
C859 C861 1.387 . S
H860 C867 0.950 . S
C861 C859 1.387 . S
C861 C863 1.390 . S
C861 H865 0.950 . S
H862 C858 0.950 . S
C863 C861 1.390 . S
C863 C864 1.387 . S
C863 H866 0.950 . S
C864 C863 1.387 . S
C864 C867 1.387 . S
H865 C861 0.950 . S
H866 C863 0.950 . S
C867 C858 1.390 . S
C867 H860 0.950 . S
C867 C864 1.387 . S
C868 C869 1.387 . S
C868 H872 0.950 . S
C868 C877 1.390 . S
C869 C868 1.387 . S
C869 C871 1.387 . S
H870 C877 0.950 . S
C871 C869 1.387 . S
C871 C873 1.390 . S
C871 H875 0.950 . S
H872 C868 0.950 . S
C873 C871 1.390 . S
C873 C874 1.387 . S
C873 H876 0.950 . S
C874 C873 1.387 . S
C874 C877 1.387 . S
H875 C871 0.950 . S
H876 C873 0.950 . S
C877 C868 1.390 . S
C877 H870 0.950 . S
C877 C874 1.387 . S
C878 C879 1.387 . S
C878 H882 0.950 . S
C878 C887 1.390 . S
C879 C878 1.387 . S
C879 C881 1.387 . S
H880 C887 0.950 . S
C881 C879 1.387 . S
C881 C883 1.390 . S
C881 H885 0.950 . S
H882 C878 0.950 . S
C883 C881 1.390 . S
C883 C884 1.387 . S
C883 H886 0.950 . S
C884 C883 1.387 . S
C884 C887 1.387 . S
H885 C881 0.950 . S
H886 C883 0.950 . S
C887 C878 1.390 . S
C887 H880 0.950 . S
C887 C884 1.387 . S
C888 C889 1.387 . S
C888 H892 0.950 . S
C888 C897 1.390 . S
C889 C888 1.387 . S
C889 C891 1.387 . S
H890 C897 0.950 . S
C891 C889 1.387 . S
C891 C893 1.390 . S
C891 H895 0.950 . S
H892 C888 0.950 . S
C893 C891 1.390 . S
C893 C894 1.387 . S
C893 H896 0.950 . S
C894 C893 1.387 . S
C894 C897 1.387 . S
H895 C891 0.950 . S
H896 C893 0.950 . S
C897 C888 1.390 . S
C897 H890 0.950 . S
C897 C894 1.387 . S
C898 C899 1.387 . S
C898 H902 0.950 . S
C898 C907 1.390 . S
C899 C898 1.387 . S
C899 C901 1.387 . S
H900 C907 0.950 . S
C901 C899 1.387 . S
C901 C903 1.390 . S
C901 H905 0.950 . S
H902 C898 0.950 . S
C903 C901 1.390 . S
C903 C904 1.387 . S
C903 H906 0.950 . S
C904 C903 1.387 . S
C904 C907 1.387 . S
H905 C901 0.950 . S
H906 C903 0.950 . S
C907 C898 1.390 . S
C907 H900 0.950 . S
C907 C904 1.387 . S
C908 C909 1.387 . S
C908 H912 0.950 . S
C908 C917 1.390 . S
C909 C908 1.387 . S
C909 C911 1.387 . S
H910 C917 0.950 . S
C911 C909 1.387 . S
C911 C913 1.390 . S
C911 H915 0.950 . S
H912 C908 0.950 . S
C913 C911 1.390 . S
C913 C914 1.387 . S
C913 H916 0.950 . S
C914 C913 1.387 . S
C914 C917 1.387 . S
H915 C911 0.950 . S
H916 C913 0.950 . S
C917 C908 1.390 . S
C917 H910 0.950 . S
C917 C914 1.387 . S
C918 C919 1.387 . S
C918 H922 0.950 . S
C918 C927 1.390 . S
C919 C918 1.387 . S
C919 C921 1.387 . S
H920 C927 0.950 . S
C921 C919 1.387 . S
C921 C923 1.390 . S
C921 H925 0.950 . S
H922 C918 0.950 . S
C923 C921 1.390 . S
C923 C924 1.387 . S
C923 H926 0.950 . S
C924 C923 1.387 . S
C924 C927 1.387 . S
H925 C921 0.950 . S
H926 C923 0.950 . S
C927 C918 1.390 . S
C927 H920 0.950 . S
C927 C924 1.387 . S
C529 N14 1.074 . S
C534 C50 1.058 . S
C539 C83 1.058 . S
C544 N47 1.075 . S
C549 C116 1.059 . S
C554 N80 1.075 . S
C559 N113 1.075 . S
C564 C17 1.059 . S
C569 C248 1.059 . S
C574 N146 1.075 . S
C579 C149 1.059 . S
C584 N179 1.075 . S
C589 C182 1.058 . S
C594 N212 1.074 . S
C599 N245 1.075 . S
C604 C215 1.058 . S
C609 N278 1.075 . S
C614 C314 1.060 . S
C619 N311 1.075 . S
C624 C347 1.059 . S
C629 C380 1.060 . S
C634 N344 1.075 . S
C639 C281 1.060 . S
C644 N377 1.074 . S
C649 C512 1.060 . S
C654 N410 1.075 . S
C659 C413 1.059 . S
C664 N443 1.074 . S
C669 N476 1.075 . S
C674 C446 1.061 . S
C679 N509 1.074 . S
C684 C479 1.060 . S
C689 N5 1.872 . S
C694 N71 1.872 . S
C699 N38 1.872 . S
C704 N104 1.872 . S
C709 N203 1.872 . S
C714 N137 1.872 . S
C719 N236 1.872 . S
C724 N170 1.872 . S
C729 N335 1.872 . S
C734 N269 1.872 . S
C739 N302 1.872 . S
C744 N368 1.872 . S
C749 N401 1.872 . S
C754 N467 1.872 . S
C759 N434 1.872 . S
C764 N500 1.872 . S
C769 C8 1.844 . S
C774 C272 1.844 . S
C779 C41 1.845 . S
C784 C305 1.845 . S
C789 C74 1.845 . S
C794 C338 1.845 . S
C799 C371 1.844 . S
C804 C107 1.844 . S
C809 C404 1.844 . S
C814 C140 1.844 . S
C819 C173 1.844 . S
C824 C437 1.844 . S
C829 C206 1.844 . S
C834 C470 1.844 . S
C839 C503 1.845 . S
C844 C239 1.845 . S
C849 C193 1.585 . S
C854 C28 1.585 . S
C859 C226 1.585 . S
C864 C61 1.585 . S
C869 C94 1.585 . S
C874 C259 1.585 . S
C879 C160 1.585 . S
C884 C127 1.585 . S
C889 C292 1.585 . S
C894 C457 1.585 . S
C899 C490 1.585 . S
C904 C325 1.585 . S
C909 C523 1.585 . S
C914 C358 1.585 . S
C919 C391 1.585 . S
C924 C424 1.585 . S
