# Generated by pormake.
# Topology tzs, (4)-cn, num edge types: 1
# Building blocks:
#     Node 0, Type 0, BuildingBlock: CEKHIL_clean_sbu_0, # of connection points: 4
#     Node 1, Type 0, BuildingBlock: CEKHIL_clean_sbu_0, # of connection points: 4
#     Node 2, Type 0, BuildingBlock: CEKHIL_clean_sbu_0, # of connection points: 4
#     Node 3, Type 0, BuildingBlock: CEKHIL_clean_sbu_0, # of connection points: 4
#     Node 4, Type 0, BuildingBlock: CEKHIL_clean_sbu_0, # of connection points: 4
#     Node 5, Type 0, BuildingBlock: CEKHIL_clean_sbu_0, # of connection points: 4
#     Node 6, Type 0, BuildingBlock: CEKHIL_clean_sbu_0, # of connection points: 4
#     Node 7, Type 0, BuildingBlock: CEKHIL_clean_sbu_0, # of connection points: 4
#     Node 8, Type 0, BuildingBlock: CEKHIL_clean_sbu_0, # of connection points: 4
#     Node 9, Type 0, BuildingBlock: CEKHIL_clean_sbu_0, # of connection points: 4
#     Node 10, Type 0, BuildingBlock: CEKHIL_clean_sbu_0, # of connection points: 4
#     Node 11, Type 0, BuildingBlock: CEKHIL_clean_sbu_0, # of connection points: 4
#     Node 12, Type 0, BuildingBlock: CEKHIL_clean_sbu_0, # of connection points: 4
#     Node 13, Type 0, BuildingBlock: CEKHIL_clean_sbu_0, # of connection points: 4
#     Node 14, Type 0, BuildingBlock: CEKHIL_clean_sbu_0, # of connection points: 4
#     Node 15, Type 0, BuildingBlock: CEKHIL_clean_sbu_0, # of connection points: 4
#     Edge 16, Type (0, 0), BuildingBlock: KIFKEQ_clean_linker_1, # of connection points: 2
#     Edge 17, Type (0, 0), BuildingBlock: KIFKEQ_clean_linker_1, # of connection points: 2
#     Edge 18, Type (0, 0), BuildingBlock: KIFKEQ_clean_linker_1, # of connection points: 2
#     Edge 19, Type (0, 0), BuildingBlock: KIFKEQ_clean_linker_1, # of connection points: 2
#     Edge 20, Type (0, 0), BuildingBlock: KIFKEQ_clean_linker_1, # of connection points: 2
#     Edge 21, Type (0, 0), BuildingBlock: KIFKEQ_clean_linker_1, # of connection points: 2
#     Edge 22, Type (0, 0), BuildingBlock: KIFKEQ_clean_linker_1, # of connection points: 2
#     Edge 23, Type (0, 0), BuildingBlock: KIFKEQ_clean_linker_1, # of connection points: 2
#     Edge 24, Type (0, 0), BuildingBlock: KIFKEQ_clean_linker_1, # of connection points: 2
#     Edge 25, Type (0, 0), BuildingBlock: KIFKEQ_clean_linker_1, # of connection points: 2
#     Edge 26, Type (0, 0), BuildingBlock: KIFKEQ_clean_linker_1, # of connection points: 2
#     Edge 27, Type (0, 0), BuildingBlock: KIFKEQ_clean_linker_1, # of connection points: 2
#     Edge 28, Type (0, 0), BuildingBlock: KIFKEQ_clean_linker_1, # of connection points: 2
#     Edge 29, Type (0, 0), BuildingBlock: KIFKEQ_clean_linker_1, # of connection points: 2
#     Edge 30, Type (0, 0), BuildingBlock: KIFKEQ_clean_linker_1, # of connection points: 2
#     Edge 31, Type (0, 0), BuildingBlock: KIFKEQ_clean_linker_1, # of connection points: 2
#     Edge 32, Type (0, 0), BuildingBlock: KIFKEQ_clean_linker_1, # of connection points: 2
#     Edge 33, Type (0, 0), BuildingBlock: KIFKEQ_clean_linker_1, # of connection points: 2
#     Edge 34, Type (0, 0), BuildingBlock: KIFKEQ_clean_linker_1, # of connection points: 2
#     Edge 35, Type (0, 0), BuildingBlock: KIFKEQ_clean_linker_1, # of connection points: 2
#     Edge 36, Type (0, 0), BuildingBlock: KIFKEQ_clean_linker_1, # of connection points: 2
#     Edge 37, Type (0, 0), BuildingBlock: KIFKEQ_clean_linker_1, # of connection points: 2
#     Edge 38, Type (0, 0), BuildingBlock: KIFKEQ_clean_linker_1, # of connection points: 2
#     Edge 39, Type (0, 0), BuildingBlock: KIFKEQ_clean_linker_1, # of connection points: 2
#     Edge 40, Type (0, 0), BuildingBlock: KIFKEQ_clean_linker_1, # of connection points: 2
#     Edge 41, Type (0, 0), BuildingBlock: KIFKEQ_clean_linker_1, # of connection points: 2
#     Edge 42, Type (0, 0), BuildingBlock: KIFKEQ_clean_linker_1, # of connection points: 2
#     Edge 43, Type (0, 0), BuildingBlock: KIFKEQ_clean_linker_1, # of connection points: 2
#     Edge 44, Type (0, 0), BuildingBlock: KIFKEQ_clean_linker_1, # of connection points: 2
#     Edge 45, Type (0, 0), BuildingBlock: KIFKEQ_clean_linker_1, # of connection points: 2
#     Edge 46, Type (0, 0), BuildingBlock: KIFKEQ_clean_linker_1, # of connection points: 2
#     Edge 47, Type (0, 0), BuildingBlock: KIFKEQ_clean_linker_1, # of connection points: 2
# Relax obj value: 0.124
# Max RMSD: 0.119
# Mean RMSD: 0.119
data_MOF--net-tzs--node1-CEKHIL_clean_sbu_0--edge1-KIFKEQ_clean_linker_1
_symmetry_space_group_name_H-M    P1
_symmetry_Int_Tables_number       1
_symmetry_cell_setting            triclinic
loop_
_symmetry_equiv_pos_as_xyz
'x, y, z'
_cell_length_a     48.79638
_cell_length_b     48.786583
_cell_length_c     39.713226
_cell_angle_alpha  89.951099
_cell_angle_beta   89.987584
_cell_angle_gamma 90.014305
loop_
_atom_site_label
_atom_site_type_symbol
_atom_site_fract_x
_atom_site_fract_y
_atom_site_fract_z
_atom_type_partial_charge
Co0 Co 0.14877 0.35031 0.19771 0.0
O1 O 0.15863 0.31185 0.19889 0.0
O2 O 0.18498 0.34564 0.21685 0.0
C3 C 0.10569 0.34501 0.2178 0.0
O4 O 0.14568 0.39216 0.20311 0.0
Co5 Co 0.10081 0.37326 0.1543 0.0
O6 O 0.10391 0.40506 0.18518 0.0
C7 C 0.1512 0.35254 0.12203 0.0
C8 C 0.18161 0.31945 0.21254 0.0
C9 C 0.12601 0.40979 0.20124 0.0
O10 O 0.16417 0.35314 0.15032 0.0
O11 O 0.12557 0.35748 0.11912 0.0
O12 O 0.12634 0.34561 0.23853 0.0
O13 O 0.11197 0.34558 0.18635 0.0
Co14 Co 0.65928 0.14812 0.19661 0.0
O15 O 0.69777 0.15784 0.19792 0.0
O16 O 0.66407 0.18415 0.21619 0.0
C17 C 0.66436 0.10486 0.21617 0.0
O18 O 0.61743 0.14516 0.20199 0.0
Co19 Co 0.6361 0.10064 0.15266 0.0
O20 O 0.60433 0.10357 0.18366 0.0
C21 C 0.65698 0.15126 0.12097 0.0
C22 C 0.69024 0.18074 0.21184 0.0
C23 C 0.59972 0.12557 0.19996 0.0
O24 O 0.65655 0.16396 0.14944 0.0
O25 O 0.65186 0.12568 0.11772 0.0
O26 O 0.66385 0.12534 0.23715 0.0
O27 O 0.66384 0.11139 0.18479 0.0
Co28 Co 0.86261 0.65991 0.19531 0.0
O29 O 0.85282 0.69817 0.19961 0.0
O30 O 0.82582 0.66354 0.21346 0.0
C31 C 0.90524 0.66443 0.21696 0.0
O32 O 0.86584 0.61792 0.19722 0.0
Co33 Co 0.91183 0.63997 0.15174 0.0
O34 O 0.90831 0.60663 0.18021 0.0
C35 C 0.86177 0.66176 0.11956 0.0
C36 C 0.8295 0.6899 0.21162 0.0
C37 C 0.88588 0.60075 0.19502 0.0
O38 O 0.84822 0.65963 0.14735 0.0
O39 O 0.88753 0.65732 0.11713 0.0
O40 O 0.8843 0.66211 0.2371 0.0
O41 O 0.89946 0.66563 0.18544 0.0
Co42 Co 0.34904 0.86364 0.19669 0.0
O43 O 0.31076 0.85376 0.20029 0.0
O44 O 0.34528 0.82598 0.21193 0.0
C45 C 0.3441 0.905 0.22162 0.0
O46 O 0.3911 0.86653 0.19902 0.0
Co47 Co 0.36988 0.91523 0.1583 0.0
O48 O 0.4025 0.91016 0.18751 0.0
C49 C 0.34671 0.86777 0.12127 0.0
C50 C 0.31894 0.82987 0.21062 0.0
C51 C 0.40818 0.88673 0.19985 0.0
O52 O 0.34906 0.85217 0.14745 0.0
O53 O 0.35181 0.89351 0.12182 0.0
O54 O 0.34677 0.88314 0.24019 0.0
O55 O 0.34337 0.90086 0.18973 0.0
Co56 Co 0.1474 0.65829 0.30696 0.0
O57 O 0.15696 0.69661 0.30265 0.0
O58 O 0.18404 0.66219 0.28842 0.0
C59 C 0.10462 0.66271 0.28569 0.0
O60 O 0.14439 0.61628 0.30497 0.0
Co61 Co 0.09854 0.6379 0.35087 0.0
O62 O 0.10212 0.60464 0.32237 0.0
C63 C 0.14865 0.65991 0.38272 0.0
C64 C 0.18022 0.68852 0.29029 0.0
C65 C 0.12449 0.59895 0.30734 0.0
O66 O 0.16207 0.65796 0.35482 0.0
O67 O 0.12292 0.65528 0.38533 0.0
O68 O 0.12546 0.66052 0.26537 0.0
O69 O 0.11058 0.66379 0.31718 0.0
Co70 Co 0.35203 0.14744 0.30973 0.0
O71 O 0.31362 0.15709 0.30693 0.0
O72 O 0.34767 0.18332 0.28942 0.0
C73 C 0.34719 0.10404 0.29072 0.0
O74 O 0.39396 0.14439 0.306 0.0
Co75 Co 0.37388 0.10006 0.35503 0.0
O76 O 0.40646 0.10288 0.32524 0.0
C77 C 0.35245 0.1511 0.38526 0.0
C78 C 0.3214 0.17989 0.29298 0.0
C79 C 0.41156 0.12479 0.30888 0.0
O80 O 0.35366 0.16365 0.3567 0.0
O81 O 0.35732 0.12551 0.38896 0.0
O82 O 0.34859 0.12429 0.26942 0.0
O83 O 0.34694 0.11088 0.32197 0.0
Co84 Co 0.86264 0.35198 0.30536 0.0
O85 O 0.85283 0.31349 0.30452 0.0
O86 O 0.82663 0.34711 0.28575 0.0
C87 C 0.90588 0.34655 0.28593 0.0
O88 O 0.86571 0.3938 0.29948 0.0
Co89 Co 0.91013 0.37536 0.34912 0.0
O90 O 0.90726 0.40696 0.31783 0.0
C91 C 0.85931 0.35518 0.381 0.0
C92 C 0.82999 0.32095 0.29042 0.0
C93 C 0.88529 0.41153 0.30144 0.0
O94 O 0.84673 0.35511 0.35243 0.0
O95 O 0.88486 0.36037 0.38432 0.0
O96 O 0.8854 0.34701 0.26493 0.0
O97 O 0.89936 0.34738 0.31731 0.0
Co98 Co 0.65761 0.86203 0.30505 0.0
O99 O 0.69606 0.85263 0.30204 0.0
O100 O 0.66204 0.82552 0.28645 0.0
C101 C 0.66196 0.905 0.28423 0.0
O102 O 0.61558 0.86492 0.30153 0.0
Co103 Co 0.63622 0.91009 0.34945 0.0
O104 O 0.60318 0.90647 0.32069 0.0
C105 C 0.65843 0.86007 0.38079 0.0
C106 C 0.6883 0.82937 0.28935 0.0
C107 C 0.59794 0.88451 0.30456 0.0
O108 O 0.65637 0.84694 0.35272 0.0
O109 O 0.65386 0.88576 0.38375 0.0
O110 O 0.66086 0.88421 0.26374 0.0
O111 O 0.66247 0.8989 0.31573 0.0
Co112 Co 0.852 0.64763 0.80497 0.0
O113 O 0.81348 0.65687 0.80201 0.0
O114 O 0.8474 0.68406 0.7862 0.0
C115 C 0.84785 0.60458 0.78443 0.0
O116 O 0.89401 0.645 0.80139 0.0
Co117 Co 0.87392 0.59973 0.84935 0.0
O118 O 0.9066 0.60328 0.81988 0.0
C119 C 0.85203 0.64988 0.88078 0.0
C120 C 0.82116 0.68013 0.78919 0.0
C121 C 0.91167 0.62541 0.80398 0.0
O122 O 0.85334 0.66287 0.85251 0.0
O123 O 0.85695 0.62426 0.8839 0.0
O124 O 0.84881 0.62533 0.76381 0.0
O125 O 0.84737 0.61076 0.8159 0.0
Co126 Co 0.364 0.85209 0.80779 0.0
O127 O 0.35531 0.81327 0.80588 0.0
O128 O 0.32761 0.84664 0.78984 0.0
C129 C 0.4068 0.84911 0.78627 0.0
O130 O 0.36525 0.89398 0.80287 0.0
Co131 Co 0.41141 0.87683 0.85023 0.0
O132 O 0.40264 0.91191 0.82754 0.0
C133 C 0.36418 0.85033 0.88293 0.0
C134 C 0.33178 0.82051 0.79326 0.0
C135 C 0.38121 0.91436 0.80948 0.0
O136 O 0.34977 0.8534 0.85591 0.0
O137 O 0.38985 0.85555 0.88412 0.0
O138 O 0.38572 0.84896 0.76617 0.0
O139 O 0.4012 0.84891 0.81791 0.0
Co140 Co 0.15874 0.36312 0.8079 0.0
O141 O 0.19756 0.35478 0.80597 0.0
O142 O 0.16453 0.32733 0.78832 0.0
C143 C 0.16208 0.40645 0.78828 0.0
O144 O 0.11693 0.36439 0.80283 0.0
Co145 Co 0.1339 0.40936 0.85211 0.0
O146 O 0.09911 0.40154 0.82812 0.0
C147 C 0.15868 0.36049 0.88325 0.0
C148 C 0.19061 0.33162 0.79222 0.0
C149 C 0.09664 0.38043 0.8095 0.0
O150 O 0.1571 0.34731 0.85517 0.0
O151 O 0.15321 0.38601 0.88611 0.0
O152 O 0.16185 0.38595 0.7673 0.0
O153 O 0.16209 0.40001 0.8197 0.0
Co154 Co 0.64855 0.15822 0.80674 0.0
O155 O 0.65704 0.1969 0.80339 0.0
O156 O 0.68502 0.1634 0.78841 0.0
C157 C 0.60571 0.16127 0.78546 0.0
O158 O 0.64669 0.11613 0.8035 0.0
Co159 Co 0.60081 0.13601 0.8511 0.0
O160 O 0.60638 0.102 0.82472 0.0
C161 C 0.64988 0.15996 0.88244 0.0
C162 C 0.68053 0.18958 0.79091 0.0
C163 C 0.62824 0.09748 0.80804 0.0
O164 O 0.66333 0.15763 0.8546 0.0
O165 O 0.62424 0.15505 0.8851 0.0
O166 O 0.62666 0.16065 0.76518 0.0
O167 O 0.61153 0.1622 0.81702 0.0
Co168 Co 0.85132 0.36199 0.6951 0.0
O169 O 0.81243 0.35388 0.69759 0.0
O170 O 0.84553 0.32572 0.71344 0.0
C171 C 0.84883 0.40504 0.71584 0.0
O172 O 0.89321 0.36295 0.69971 0.0
Co173 Co 0.8761 0.40867 0.65126 0.0
O174 O 0.91094 0.4004 0.67482 0.0
C175 C 0.85035 0.3607 0.61966 0.0
C176 C 0.81945 0.33031 0.71024 0.0
C177 C 0.91348 0.37909 0.69312 0.0
O178 O 0.85245 0.34703 0.64737 0.0
O179 O 0.85584 0.38624 0.61728 0.0
O180 O 0.84855 0.38417 0.73632 0.0
O181 O 0.84844 0.39911 0.68429 0.0
Co182 Co 0.64893 0.85171 0.69479 0.0
O183 O 0.65774 0.81311 0.69844 0.0
O184 O 0.68534 0.84692 0.71344 0.0
C185 C 0.60589 0.84848 0.71563 0.0
O186 O 0.64681 0.89376 0.69773 0.0
Co187 Co 0.60138 0.87342 0.6498 0.0
O188 O 0.60712 0.90801 0.67498 0.0
C189 C 0.65086 0.84977 0.61913 0.0
C190 C 0.68113 0.82069 0.71095 0.0
C191 C 0.62875 0.91257 0.69209 0.0
O192 O 0.66405 0.85228 0.64711 0.0
O193 O 0.62519 0.8544 0.61615 0.0
O194 O 0.62671 0.84931 0.73612 0.0
O195 O 0.61197 0.84743 0.68415 0.0
Co196 Co 0.16087 0.64841 0.69796 0.0
O197 O 0.19923 0.65817 0.70045 0.0
O198 O 0.16516 0.68492 0.71658 0.0
C199 C 0.1659 0.60576 0.7193 0.0
O200 O 0.11894 0.64523 0.70159 0.0
Co201 Co 0.13965 0.5994 0.65502 0.0
O202 O 0.10701 0.60291 0.68463 0.0
C203 C 0.16043 0.64968 0.62217 0.0
C204 C 0.19145 0.68131 0.71342 0.0
C205 C 0.10159 0.62531 0.69973 0.0
O206 O 0.15926 0.66307 0.65015 0.0
O207 O 0.1558 0.62394 0.61975 0.0
O208 O 0.16417 0.62667 0.73952 0.0
O209 O 0.16629 0.61154 0.68771 0.0
Co210 Co 0.36286 0.16075 0.69789 0.0
O211 O 0.35433 0.19955 0.69979 0.0
O212 O 0.32715 0.16636 0.71772 0.0
C213 C 0.40628 0.16386 0.71716 0.0
O214 O 0.36436 0.11891 0.70295 0.0
Co215 Co 0.40881 0.1362 0.65278 0.0
O216 O 0.40115 0.1013 0.67661 0.0
C217 C 0.35972 0.16106 0.62263 0.0
C218 C 0.33125 0.19246 0.71369 0.0
C219 C 0.38032 0.09867 0.69569 0.0
O220 O 0.34676 0.15899 0.65082 0.0
O221 O 0.38526 0.1559 0.61938 0.0
O222 O 0.38586 0.1641 0.73827 0.0
O223 O 0.39969 0.16398 0.68578 0.0
H224 H 0.2655 0.17757 0.29704 0.0
H225 H 0.33158 0.22927 0.26238 0.0
H226 H 0.23226 0.21131 0.27746 0.0
H227 H 0.29829 0.26287 0.24218 0.0
H228 H 0.17951 0.26354 0.2074 0.0
H229 H 0.21346 0.2302 0.22626 0.0
H230 H 0.26504 0.29608 0.26179 0.0
H231 H 0.23127 0.32944 0.24233 0.0
C232 C 0.27295 0.19612 0.28517 0.0
C233 C 0.30123 0.20069 0.28131 0.0
C234 C 0.25385 0.21543 0.2737 0.0
C235 C 0.2625 0.23986 0.25808 0.0
C236 C 0.29084 0.24447 0.25441 0.0
C237 C 0.30995 0.22513 0.26585 0.0
C238 C 0.19814 0.27093 0.21913 0.0
C239 C 0.20263 0.29919 0.22335 0.0
C240 C 0.21756 0.25178 0.23017 0.0
C241 C 0.24203 0.26036 0.24572 0.0
C242 C 0.24662 0.28868 0.24961 0.0
C243 C 0.22716 0.30784 0.2386 0.0
H244 H 0.83222 0.26507 0.29595 0.0
H245 H 0.78051 0.33069 0.26011 0.0
H246 H 0.79842 0.23156 0.27714 0.0
H247 H 0.74687 0.29718 0.24074 0.0
H248 H 0.74616 0.1784 0.20711 0.0
H249 H 0.77953 0.21232 0.226 0.0
H250 H 0.71369 0.26412 0.26107 0.0
H251 H 0.68031 0.23038 0.24162 0.0
C252 C 0.81364 0.27236 0.28402 0.0
C253 C 0.8091 0.30059 0.27956 0.0
C254 C 0.79431 0.25312 0.273 0.0
C255 C 0.76988 0.26158 0.25727 0.0
C256 C 0.76527 0.28987 0.25307 0.0
C257 C 0.78464 0.30912 0.26404 0.0
C258 C 0.73879 0.19706 0.21876 0.0
C259 C 0.71054 0.20165 0.22282 0.0
C260 C 0.75796 0.21646 0.22983 0.0
C261 C 0.74939 0.241 0.24521 0.0
C262 C 0.72108 0.24564 0.24902 0.0
C263 C 0.70191 0.22621 0.238 0.0
H264 H 0.83804 0.74062 0.23779 0.0
H265 H 0.7737 0.68389 0.21195 0.0
H266 H 0.80431 0.7732 0.25801 0.0
H267 H 0.7394 0.71732 0.22938 0.0
H268 H 0.68243 0.7736 0.2875 0.0
H269 H 0.71625 0.73962 0.27035 0.0
H270 H 0.77283 0.80503 0.24563 0.0
H271 H 0.73976 0.8384 0.26558 0.0
C272 C 0.81652 0.73533 0.23597 0.0
C273 C 0.80851 0.70973 0.22328 0.0
C274 C 0.79698 0.75419 0.24729 0.0
C275 C 0.76868 0.74842 0.24523 0.0
C276 C 0.76079 0.72266 0.2322 0.0
C277 C 0.78047 0.70344 0.22185 0.0
C278 C 0.70222 0.78055 0.27855 0.0
C279 C 0.70853 0.80862 0.2781 0.0
C280 C 0.72167 0.76106 0.26835 0.0
C281 C 0.74772 0.76917 0.25645 0.0
C282 C 0.75357 0.79751 0.25545 0.0
C283 C 0.73444 0.81685 0.26662 0.0
H284 H 0.32488 0.77399 0.20966 0.0
H285 H 0.26824 0.83802 0.23693 0.0
H286 H 0.29161 0.73946 0.22718 0.0
H287 H 0.23586 0.80407 0.25708 0.0
H288 H 0.17096 0.73959 0.26552 0.0
H289 H 0.20407 0.7725 0.24451 0.0
H290 H 0.26978 0.71627 0.26895 0.0
H291 H 0.23602 0.68254 0.28732 0.0
C292 C 0.30537 0.78064 0.21979 0.0
C293 C 0.29906 0.80867 0.22166 0.0
C294 C 0.28626 0.76084 0.23019 0.0
C295 C 0.26061 0.76859 0.24366 0.0
C296 C 0.25479 0.79686 0.24602 0.0
C297 C 0.27353 0.81653 0.23471 0.0
C298 C 0.19251 0.73429 0.26629 0.0
C299 C 0.20089 0.70852 0.27814 0.0
C300 C 0.2117 0.75333 0.2545 0.0
C301 C 0.24004 0.74756 0.25518 0.0
C302 C 0.24832 0.72161 0.26727 0.0
C303 C 0.22896 0.70223 0.27815 0.0
H304 H 0.67185 0.76955 0.73593 0.0
H305 H 0.73687 0.82604 0.71183 0.0
H306 H 0.70517 0.73651 0.75627 0.0
H307 H 0.77072 0.79225 0.7293 0.0
H308 H 0.82691 0.73586 0.78779 0.0
H309 H 0.79322 0.76987 0.77047 0.0
H310 H 0.7368 0.70457 0.74488 0.0
H311 H 0.76976 0.67111 0.76507 0.0
C312 C 0.69342 0.77468 0.7345 0.0
C313 C 0.70175 0.80037 0.72233 0.0
C314 C 0.71273 0.75557 0.7459 0.0
C315 C 0.74109 0.76122 0.74446 0.0
C316 C 0.74928 0.78701 0.73176 0.0
C317 C 0.72985 0.80644 0.72135 0.0
C318 C 0.80718 0.72893 0.77861 0.0
C319 C 0.8009 0.70087 0.77796 0.0
C320 C 0.7878 0.74844 0.76829 0.0
C321 C 0.76186 0.74038 0.75601 0.0
C322 C 0.75599 0.71205 0.75492 0.0
C323 C 0.77505 0.69266 0.76624 0.0
H324 H 0.18156 0.73071 0.74406 0.0
H325 H 0.24729 0.67891 0.70881 0.0
H326 H 0.21508 0.76401 0.76435 0.0
H327 H 0.28075 0.71238 0.72835 0.0
H328 H 0.33438 0.76445 0.7976 0.0
H329 H 0.30028 0.73111 0.77894 0.0
H330 H 0.24807 0.79714 0.74516 0.0
H331 H 0.28185 0.83038 0.7645 0.0
C332 C 0.20315 0.7265 0.74043 0.0
C333 C 0.2117 0.70212 0.72481 0.0
C334 C 0.22241 0.74567 0.75194 0.0
C335 C 0.25073 0.74095 0.74812 0.0
C336 C 0.25919 0.71658 0.73228 0.0
C337 C 0.23995 0.69744 0.7208 0.0
C338 C 0.31558 0.77184 0.7863 0.0
C339 C 0.31088 0.8001 0.78257 0.0
C340 C 0.29606 0.75271 0.77537 0.0
C341 C 0.27135 0.76134 0.7604 0.0
C342 C 0.26663 0.78966 0.75694 0.0
C343 C 0.28612 0.80876 0.76788 0.0
H344 H 0.18163 0.28213 0.76193 0.0
H345 H 0.24655 0.33505 0.79696 0.0
H346 H 0.2155 0.24902 0.74248 0.0
H347 H 0.28052 0.30165 0.77811 0.0
H348 H 0.2819 0.183 0.74408 0.0
H349 H 0.24842 0.2165 0.76342 0.0
H350 H 0.30029 0.2821 0.72755 0.0
H351 H 0.3341 0.24848 0.70878 0.0
C352 C 0.20314 0.28664 0.76566 0.0
C353 C 0.21135 0.31126 0.78104 0.0
C354 C 0.22261 0.26756 0.75465 0.0
C355 C 0.25083 0.27257 0.75872 0.0
C356 C 0.25901 0.29722 0.77414 0.0
C357 C 0.23952 0.31632 0.78518 0.0
C358 C 0.28618 0.20456 0.74027 0.0
C359 C 0.31071 0.21303 0.72485 0.0
C360 C 0.26687 0.22382 0.75122 0.0
C361 C 0.27154 0.25209 0.74705 0.0
C362 C 0.29611 0.26054 0.73158 0.0
C363 C 0.31544 0.24125 0.72061 0.0
H364 H 0.67049 0.24064 0.76613 0.0
H365 H 0.7363 0.18487 0.7894 0.0
H366 H 0.70329 0.27394 0.745 0.0
H367 H 0.76961 0.21889 0.77112 0.0
H368 H 0.82461 0.2747 0.71092 0.0
H369 H 0.79107 0.24084 0.72883 0.0
H370 H 0.73503 0.30626 0.75512 0.0
H371 H 0.76793 0.33968 0.73432 0.0
C372 C 0.69212 0.23573 0.76721 0.0
C373 C 0.70083 0.21015 0.77934 0.0
C374 C 0.71112 0.25498 0.75533 0.0
C375 C 0.73953 0.24956 0.7562 0.0
C376 C 0.7481 0.22393 0.76901 0.0
C377 C 0.72899 0.20436 0.7799 0.0
C378 C 0.80498 0.28171 0.72032 0.0
C379 C 0.79884 0.3098 0.72109 0.0
C380 C 0.78571 0.26227 0.73103 0.0
C381 C 0.75999 0.27041 0.74386 0.0
C382 C 0.75411 0.29875 0.74479 0.0
C383 C 0.77311 0.31811 0.73308 0.0
H384 H 0.12869 0.32509 0.92107 0.0
H385 H 0.20619 0.36722 0.91672 0.0
H386 H 0.13555 0.31637 0.98099 0.0
H387 H 0.21379 0.35784 0.97641 0.0
H388 H 0.18334 0.38549 0.08366 0.0
H389 H 0.19259 0.37913 0.02382 0.0
H390 H 0.15827 0.29751 0.02905 0.0
H391 H 0.14839 0.30453 0.08877 0.0
C392 C 0.14785 0.33116 0.93264 0.0
C393 C 0.16701 0.34657 0.91442 0.0
C394 C 0.15185 0.32629 0.96706 0.0
C395 C 0.1751 0.3368 0.9838 0.0
C396 C 0.19545 0.34991 0.96456 0.0
C397 C 0.1913 0.35496 0.93028 0.0
C398 C 0.17898 0.3658 0.07226 0.0
C399 C 0.16549 0.34539 0.09069 0.0
C400 C 0.18417 0.36208 0.03789 0.0
C401 C 0.17584 0.33787 0.02136 0.0
C402 C 0.16455 0.31655 0.04076 0.0
C403 C 0.15923 0.32038 0.07504 0.0
H404 H 0.68569 0.13025 0.92005 0.0
H405 H 0.64259 0.20723 0.91621 0.0
H406 H 0.69421 0.13692 0.98004 0.0
H407 H 0.6518 0.21466 0.97594 0.0
H408 H 0.62389 0.18317 0.08261 0.0
H409 H 0.6305 0.19286 0.02292 0.0
H410 H 0.71249 0.15957 0.02851 0.0
H411 H 0.70525 0.14925 0.08811 0.0
C412 C 0.67935 0.14928 0.93174 0.0
C413 C 0.66369 0.16831 0.91367 0.0
C414 C 0.68411 0.15317 0.9662 0.0
C415 C 0.67327 0.17618 0.98309 0.0
C416 C 0.65997 0.19648 0.96397 0.0
C417 C 0.65501 0.19243 0.92968 0.0
C418 C 0.64371 0.17914 0.07133 0.0
C419 C 0.66417 0.16582 0.08982 0.0
C420 C 0.64757 0.18459 0.03704 0.0
C421 C 0.67198 0.17668 0.02064 0.0
C422 C 0.69332 0.16553 0.04012 0.0
C423 C 0.68935 0.15997 0.07433 0.0
H424 H 0.88422 0.68392 0.91746 0.0
H425 H 0.80462 0.64579 0.91528 0.0
H426 H 0.87837 0.69403 0.97711 0.0
H427 H 0.79794 0.65679 0.97473 0.0
H428 H 0.82644 0.63067 0.08312 0.0
H429 H 0.81712 0.63617 0.02318 0.0
H430 H 0.85794 0.71487 0.0245 0.0
H431 H 0.86816 0.70848 0.08417 0.0
C432 C 0.86488 0.67902 0.92946 0.0
C433 C 0.84478 0.66434 0.91194 0.0
C434 C 0.86143 0.68473 0.96374 0.0
C435 C 0.83777 0.67586 0.98107 0.0
C436 C 0.81662 0.66343 0.96247 0.0
C437 C 0.82024 0.65747 0.92833 0.0
C438 C 0.83232 0.6496 0.0708 0.0
C439 C 0.84783 0.66921 0.08808 0.0
C440 C 0.82707 0.65284 0.03636 0.0
C441 C 0.8372 0.67583 0.01867 0.0
C442 C 0.85037 0.69666 0.03702 0.0
C443 C 0.8559 0.69322 0.07129 0.0
H444 H 0.31969 0.89473 0.07205 0.0
H445 H 0.35446 0.81564 0.09555 0.0
H446 H 0.31488 0.88171 0.01382 0.0
H447 H 0.34864 0.80185 0.03658 0.0
H448 H 0.3876 0.81878 0.93061 0.0
H449 H 0.37423 0.81478 0.98894 0.0
H450 H 0.29852 0.85729 0.96703 0.0
H451 H 0.31278 0.86219 0.9081 0.0
C452 C 0.32571 0.87417 0.06485 0.0
C453 C 0.33826 0.85649 0.08821 0.0
C454 C 0.32254 0.8665 0.03131 0.0
C455 C 0.33177 0.84084 0.02006 0.0
C456 C 0.34183 0.82204 0.04418 0.0
C457 C 0.34505 0.82981 0.07802 0.0
C458 C 0.36776 0.82673 0.93804 0.0
C459 C 0.35157 0.84149 0.91504 0.0
C460 C 0.35989 0.82414 0.97161 0.0
C461 C 0.33553 0.83624 0.98315 0.0
C462 C 0.31778 0.8483 0.95922 0.0
C463 C 0.32577 0.85094 0.92538 0.0
H464 H 0.20734 0.64521 0.58676 0.0
H465 H 0.12769 0.68319 0.58538 0.0
H466 H 0.21329 0.65559 0.52701 0.0
H467 H 0.13279 0.69269 0.52543 0.0
H468 H 0.14225 0.70666 0.41792 0.0
H469 H 0.15271 0.71326 0.47748 0.0
H470 H 0.1937 0.63467 0.47906 0.0
H471 H 0.18413 0.62896 0.41921 0.0
C472 C 0.19154 0.65671 0.57379 0.0
C473 C 0.16721 0.66374 0.59053 0.0
C474 C 0.19473 0.66232 0.53948 0.0
C475 C 0.17337 0.67455 0.52106 0.0
C476 C 0.14989 0.68354 0.53867 0.0
C477 C 0.14688 0.67818 0.57311 0.0
C478 C 0.15459 0.69147 0.43082 0.0
C479 C 0.16266 0.66745 0.41412 0.0
C480 C 0.16025 0.69502 0.46504 0.0
C481 C 0.17358 0.6743 0.48344 0.0
C482 C 0.18364 0.65127 0.46584 0.0
C483 C 0.17825 0.64792 0.43144 0.0
H484 H 0.3658 0.20863 0.58901 0.0
H485 H 0.32411 0.13086 0.58553 0.0
H486 H 0.35608 0.21597 0.52936 0.0
H487 H 0.31512 0.13742 0.52567 0.0
H488 H 0.30412 0.14844 0.41789 0.0
H489 H 0.29644 0.15939 0.47719 0.0
H490 H 0.37764 0.19467 0.48239 0.0
H491 H 0.38462 0.18444 0.42293 0.0
C492 C 0.35354 0.19364 0.57565 0.0
C493 C 0.34543 0.16932 0.59171 0.0
C494 C 0.3483 0.19763 0.54141 0.0
C495 C 0.33531 0.17709 0.52241 0.0
C496 C 0.32496 0.15386 0.5394 0.0
C497 C 0.33 0.15003 0.5738 0.0
C498 C 0.31972 0.15972 0.43149 0.0
C499 C 0.34482 0.16593 0.416 0.0
C500 C 0.31551 0.16566 0.46553 0.0
C501 C 0.33655 0.17749 0.48486 0.0
C502 C 0.36079 0.18584 0.46838 0.0
C503 C 0.36488 0.18006 0.43423 0.0
H504 H 0.82921 0.38933 0.42002 0.0
H505 H 0.85925 0.30652 0.41323 0.0
H506 H 0.81919 0.38253 0.47959 0.0
H507 H 0.84868 0.29915 0.47277 0.0
H508 H 0.80349 0.36985 0.58576 0.0
H509 H 0.79598 0.3614 0.52588 0.0
H510 H 0.87207 0.31615 0.52177 0.0
H511 H 0.87884 0.32397 0.58192 0.0
C512 C 0.83233 0.36923 0.43099 0.0
C513 C 0.8446 0.34834 0.41215 0.0
C514 C 0.82668 0.36524 0.4652 0.0
C515 C 0.8334 0.3403 0.48122 0.0
C516 C 0.84359 0.31869 0.46143 0.0
C517 C 0.8493 0.32276 0.42726 0.0
C518 C 0.81787 0.35698 0.57225 0.0
C519 C 0.84161 0.34733 0.5883 0.0
C520 C 0.81379 0.35245 0.53788 0.0
C521 C 0.83366 0.33859 0.51874 0.0
C522 C 0.85618 0.32673 0.53564 0.0
C523 C 0.8601 0.33109 0.57018 0.0
H524 H 0.64541 0.80236 0.58497 0.0
H525 H 0.68576 0.88086 0.58209 0.0
H526 H 0.65531 0.79555 0.52529 0.0
H527 H 0.69476 0.87491 0.52218 0.0
H528 H 0.70617 0.86495 0.41435 0.0
H529 H 0.71377 0.85425 0.47371 0.0
H530 H 0.63401 0.8157 0.47792 0.0
H531 H 0.62725 0.82552 0.4183 0.0
C532 C 0.65737 0.81767 0.57172 0.0
C533 C 0.66511 0.84199 0.58799 0.0
C534 C 0.6627 0.81399 0.53743 0.0
C535 C 0.67533 0.83488 0.51856 0.0
C536 C 0.68522 0.85819 0.53575 0.0
C537 C 0.68017 0.86167 0.57019 0.0
C538 C 0.6909 0.85305 0.42776 0.0
C539 C 0.66626 0.84576 0.4119 0.0
C540 C 0.69505 0.84726 0.46187 0.0
C541 C 0.67434 0.83457 0.48096 0.0
C542 C 0.65062 0.82523 0.46414 0.0
C543 C 0.64665 0.83078 0.42989 0.0
H544 H 0.17031 0.56621 0.30027 0.0
H545 H 0.08394 0.56989 0.2778 0.0
H546 H 0.17237 0.51988 0.27653 0.0
H547 H 0.0861 0.52501 0.25215 0.0
H548 H 0.0865 0.43525 0.23695 0.0
H549 H 0.08795 0.47973 0.26391 0.0
H550 H 0.17167 0.49044 0.23038 0.0
H551 H 0.17053 0.44447 0.20546 0.0
C552 C 0.15185 0.55721 0.28991 0.0
C553 C 0.12687 0.5715 0.29143 0.0
C554 C 0.15301 0.53067 0.27608 0.0
C555 C 0.12929 0.51808 0.26278 0.0
C556 C 0.10465 0.53316 0.26321 0.0
C557 C 0.1034 0.55919 0.27771 0.0
C558 C 0.10528 0.44706 0.23553 0.0
C559 C 0.1283 0.4365 0.21885 0.0
C560 C 0.10609 0.47285 0.25071 0.0
C561 C 0.12971 0.48943 0.24878 0.0
C562 C 0.1531 0.47847 0.23271 0.0
C563 C 0.15247 0.45214 0.21823 0.0
H564 H 0.56526 0.17019 0.20464 0.0
H565 H 0.57415 0.08594 0.23545 0.0
H566 H 0.51943 0.17145 0.22992 0.0
H567 H 0.52983 0.08749 0.26283 0.0
H568 H 0.4399 0.08402 0.27879 0.0
H569 H 0.48447 0.08592 0.25218 0.0
H570 H 0.49032 0.17225 0.27613 0.0
H571 H 0.44428 0.17044 0.30071 0.0
C572 C 0.55754 0.15211 0.21733 0.0
C573 C 0.57305 0.12785 0.21767 0.0
C574 C 0.53129 0.15279 0.23202 0.0
C575 C 0.52028 0.12939 0.24807 0.0
C576 C 0.53672 0.10565 0.24967 0.0
C577 C 0.56242 0.10478 0.23425 0.0
C578 C 0.4507 0.10344 0.27832 0.0
C579 C 0.43869 0.12701 0.29215 0.0
C580 C 0.47655 0.10454 0.26329 0.0
C581 C 0.49176 0.12912 0.2625 0.0
C582 C 0.47944 0.15293 0.27591 0.0
C583 C 0.45306 0.15193 0.29022 0.0
H584 H 0.84053 0.56718 0.20062 0.0
H585 H 0.92626 0.57251 0.22607 0.0
H586 H 0.83877 0.52081 0.2244 0.0
H587 H 0.92434 0.5276 0.2518 0.0
H588 H 0.92523 0.43782 0.26723 0.0
H589 H 0.92362 0.4823 0.24021 0.0
H590 H 0.83891 0.49135 0.27053 0.0
H591 H 0.84029 0.4454 0.29552 0.0
C592 C 0.8589 0.55853 0.21166 0.0
C593 C 0.88364 0.57328 0.21097 0.0
C594 C 0.85792 0.53197 0.22551 0.0
C595 C 0.88154 0.51984 0.23967 0.0
C596 C 0.9059 0.53539 0.24008 0.0
C597 C 0.90701 0.56143 0.22554 0.0
C598 C 0.9062 0.44927 0.26794 0.0
C599 C 0.88297 0.43823 0.28375 0.0
C600 C 0.90529 0.47506 0.25272 0.0
C601 C 0.88132 0.49118 0.25373 0.0
C602 C 0.85776 0.47975 0.26892 0.0
C603 C 0.85851 0.45342 0.28344 0.0
H604 H 0.56778 0.92614 0.27919 0.0
H605 H 0.56643 0.83837 0.2922 0.0
H606 H 0.52288 0.92468 0.25364 0.0
H607 H 0.52008 0.83685 0.26824 0.0
H608 H 0.44412 0.84299 0.19741 0.0
H609 H 0.49032 0.84075 0.22179 0.0
H610 H 0.47775 0.92053 0.2667 0.0
H611 H 0.43302 0.92328 0.24053 0.0
C612 C 0.55763 0.90646 0.277 0.0
C613 C 0.5706 0.88242 0.28816 0.0
C614 C 0.53159 0.9056 0.26253 0.0
C615 C 0.51713 0.88073 0.25947 0.0
C616 C 0.53039 0.85644 0.26998 0.0
C617 C 0.55695 0.85727 0.28389 0.0
C618 C 0.45144 0.85995 0.21252 0.0
C619 C 0.4352 0.88352 0.21658 0.0
C620 C 0.47789 0.85867 0.22668 0.0
C621 C 0.48837 0.88072 0.24579 0.0
C622 C 0.47122 0.90355 0.25112 0.0
C623 C 0.44531 0.90509 0.23634 0.0
H624 H 0.83882 0.58316 0.72147 0.0
H625 H 0.85974 0.56037 0.82333 0.0
H626 H 0.83888 0.5348 0.70545 0.0
H627 H 0.86151 0.51262 0.80721 0.0
H628 H 0.83558 0.42649 0.77753 0.0
H629 H 0.83493 0.47483 0.79351 0.0
H630 H 0.86622 0.49671 0.69515 0.0
H631 H 0.86526 0.44888 0.67888 0.0
C632 C 0.84382 0.56786 0.74028 0.0
C633 C 0.84925 0.57561 0.7736 0.0
C634 C 0.84402 0.54011 0.73115 0.0
C635 C 0.85014 0.51955 0.75505 0.0
C636 C 0.85607 0.52759 0.78822 0.0
C637 C 0.85536 0.55515 0.79741 0.0
C638 C 0.8424 0.44171 0.7595 0.0
C639 C 0.8504 0.43389 0.727 0.0
C640 C 0.84216 0.46945 0.76861 0.0
C641 C 0.85043 0.48992 0.74558 0.0
C642 C 0.85907 0.4818 0.71335 0.0
C643 C 0.85881 0.45422 0.70411 0.0
H644 H 0.56162 0.861 0.67715 0.0
H645 H 0.58469 0.8391 0.77859 0.0
H646 H 0.51387 0.86259 0.6936 0.0
H647 H 0.53643 0.83906 0.79492 0.0
H648 H 0.45094 0.8653 0.8227 0.0
H649 H 0.49857 0.86649 0.8058 0.0
H650 H 0.476 0.83589 0.70742 0.0
H651 H 0.42777 0.8363 0.72408 0.0
C652 C 0.55646 0.85638 0.70304 0.0
C653 C 0.57698 0.85003 0.72665 0.0
C654 C 0.52892 0.857 0.71242 0.0
C655 C 0.52101 0.85078 0.74557 0.0
C656 C 0.54164 0.84444 0.76926 0.0
C657 C 0.56935 0.84431 0.75995 0.0
C658 C 0.45606 0.85904 0.79733 0.0
C659 C 0.43555 0.85075 0.77466 0.0
C660 C 0.48354 0.85943 0.78773 0.0
C661 C 0.49143 0.85102 0.75532 0.0
C662 C 0.4708 0.84291 0.73247 0.0
C663 C 0.44312 0.84301 0.74197 0.0
H664 H 0.17246 0.45071 0.82739 0.0
H665 H 0.15081 0.42786 0.72581 0.0
H666 H 0.17297 0.49868 0.8113 0.0
H667 H 0.15 0.47625 0.7098 0.0
H668 H 0.1809 0.56129 0.68319 0.0
H669 H 0.17926 0.51344 0.69966 0.0
H670 H 0.14617 0.53678 0.79654 0.0
H671 H 0.14909 0.58508 0.78029 0.0
C672 C 0.16751 0.45601 0.8016 0.0
C673 C 0.16171 0.43551 0.77778 0.0
C674 C 0.16757 0.48361 0.79243 0.0
C675 C 0.16147 0.49154 0.75924 0.0
C676 C 0.15528 0.47096 0.73547 0.0
C677 C 0.15559 0.44321 0.7446 0.0
C678 C 0.17335 0.55621 0.70808 0.0
C679 C 0.16522 0.57691 0.73054 0.0
C680 C 0.17215 0.52869 0.71743 0.0
C681 C 0.16239 0.52104 0.74937 0.0
C682 C 0.15418 0.54185 0.77189 0.0
C683 C 0.15576 0.56954 0.76263 0.0
H684 H 0.4499 0.14979 0.67831 0.0
H685 H 0.4283 0.17455 0.77922 0.0
H686 H 0.49784 0.14772 0.69414 0.0
H687 H 0.47667 0.17405 0.79483 0.0
H688 H 0.56151 0.14648 0.82273 0.0
H689 H 0.51381 0.14576 0.80621 0.0
H690 H 0.53641 0.17401 0.70671 0.0
H691 H 0.5847 0.1731 0.72304 0.0
C692 C 0.45544 0.15495 0.70392 0.0
C693 C 0.4353 0.16223 0.7276 0.0
C694 C 0.48306 0.15403 0.71293 0.0
C695 C 0.49138 0.16083 0.74575 0.0
C696 C 0.47112 0.16818 0.76946 0.0
C697 C 0.44336 0.16863 0.76055 0.0
C698 C 0.55639 0.15231 0.79721 0.0
C699 C 0.5769 0.15982 0.77414 0.0
C700 C 0.52887 0.15219 0.78781 0.0
C701 C 0.52098 0.16012 0.75521 0.0
C702 C 0.54162 0.1674 0.73194 0.0
C703 C 0.56933 0.16701 0.74124 0.0
H704 H 0.67332 0.07549 0.77514 0.0
H705 H 0.59021 0.0566 0.80496 0.0
H706 H 0.67624 0.0309 0.74646 0.0
H707 H 0.59322 0.01281 0.77648 0.0
H708 H 0.59384 0.95611 0.68691 0.0
H709 H 0.59652 1.00023 0.71477 0.0
H710 H 0.67382 0.97744 0.75938 0.0
H711 H 0.67123 0.9326 0.73136 0.0
C712 C 0.65578 0.06188 0.77583 0.0
C713 C 0.63149 0.06985 0.79234 0.0
C714 C 0.65752 0.03632 0.7595 0.0
C715 C 0.63485 0.01846 0.75891 0.0
C716 C 0.61091 0.02623 0.77604 0.0
C717 C 0.60928 0.05141 0.79258 0.0
C718 C 0.61161 0.96034 0.7024 0.0
C719 C 0.63222 0.94047 0.707 0.0
C720 C 0.61305 0.98572 0.7185 0.0
C721 C 0.63521 0.99224 0.7396 0.0
C722 C 0.6565 0.973 0.74323 0.0
C723 C 0.65495 0.9473 0.72724 0.0
H724 H 0.93959 0.58503 0.77269 0.0
H725 H 0.94491 0.67093 0.79724 0.0
H726 H 0.98446 0.5868 0.74686 0.0
H727 H 0.99125 0.67255 0.77336 0.0
H728 H 0.06743 0.67027 0.70361 0.0
H729 H 0.02109 0.67191 0.72745 0.0
H730 H 0.02965 0.58752 0.75939 0.0
H731 H 0.07455 0.58563 0.73357 0.0
C732 C 0.95063 0.60431 0.77291 0.0
C733 C 0.93883 0.62775 0.78732 0.0
C734 C 0.97665 0.60532 0.75835 0.0
C735 C 0.99223 0.62966 0.75859 0.0
C736 C 0.98007 0.65341 0.77241 0.0
C737 C 0.95353 0.65252 0.7863 0.0
C738 C 0.0592 0.65216 0.71574 0.0
C739 C 0.0744 0.6277 0.71626 0.0
C740 C 0.03265 0.65307 0.7296 0.0
C741 C 0.021 0.62968 0.74496 0.0
C742 C 0.03707 0.6057 0.74671 0.0
C743 C 0.0631 0.60463 0.73216 0.0
H744 H 0.39546 0.04844 0.67159 0.0
H745 H 0.35413 0.08713 0.75515 0.0
H746 H 0.39106 1.00394 0.69941 0.0
H747 H 0.35031 0.04251 0.78331 0.0
H748 H 0.3938 0.96487 0.83476 0.0
H749 H 0.38903 0.00937 0.80692 0.0
H750 H 0.35234 0.96988 0.72086 0.0
H751 H 0.35645 0.92531 0.74908 0.0
C752 C 0.38521 0.04742 0.69575 0.0
C753 C 0.37518 0.07137 0.71116 0.0
C754 C 0.38258 0.0219 0.71159 0.0
C755 C 0.37038 0.01977 0.74353 0.0
C756 C 0.35986 0.04359 0.75871 0.0
C757 C 0.36194 0.06908 0.74252 0.0
C758 C 0.3843 0.96572 0.81013 0.0
C759 C 0.37549 0.94155 0.79413 0.0
C760 C 0.38148 0.99121 0.79426 0.0
C761 C 0.37037 0.99307 0.76171 0.0
C762 C 0.36102 0.96902 0.74594 0.0
C763 C 0.36324 0.94356 0.76217 0.0
H764 H 0.04599 0.39483 0.83308 0.0
H765 H 0.08601 0.35449 0.74975 0.0
H766 H 1.00179 0.38993 0.80463 0.0
H767 H 0.04176 0.35024 0.72096 0.0
H768 H 0.96401 0.39298 0.66883 0.0
H769 H 0.00825 0.38889 0.69734 0.0
H770 H 0.9686 0.35046 0.78222 0.0
H771 H 0.92429 0.35389 0.75334 0.0
C772 C 0.04532 0.38469 0.80883 0.0
C773 C 0.06954 0.37505 0.79369 0.0
C774 C 0.01999 0.38179 0.79263 0.0
C775 C 0.01835 0.36973 0.76058 0.0
C776 C 0.04245 0.35965 0.74564 0.0
C777 C 0.06773 0.36197 0.7622 0.0
C778 C 0.96477 0.38325 0.69334 0.0
C779 C 0.94062 0.37375 0.7088 0.0
C780 C 0.99012 0.38082 0.70959 0.0
C781 C 0.99185 0.36942 0.74201 0.0
C782 C 0.96783 0.35939 0.75725 0.0
C783 C 0.94252 0.36122 0.74064 0.0
H784 H 0.33995 0.05996 0.33153 0.0
H785 H 0.35602 0.08201 0.22805 0.0
H786 H 0.33971 0.01173 0.31638 0.0
H787 H 0.35674 0.03347 0.21291 0.0
H788 H 0.32374 0.94916 0.18977 0.0
H789 H 0.32544 0.99675 0.20682 0.0
H790 H 0.36679 0.97338 0.29874 0.0
H791 H 0.36418 0.92503 0.28181 0.0
C792 C 0.34367 0.05447 0.3055 0.0
C793 C 0.34779 0.07482 0.28087 0.0
C794 C 0.34376 0.02673 0.29689 0.0
C795 C 0.34811 0.01859 0.26343 0.0
C796 C 0.3528 0.03899 0.23887 0.0
C797 C 0.3525 0.06682 0.24748 0.0
C798 C 0.33311 0.95411 0.21374 0.0
C799 C 0.34387 0.93339 0.23448 0.0
C800 C 0.33433 0.9815 0.22336 0.0
C801 C 0.34664 0.98908 0.2539 0.0
C802 C 0.35701 0.96827 0.2751 0.0
C803 C 0.35552 0.9406 0.26552 0.0
H804 H 0.92743 0.33386 0.22413 0.0
H805 H 0.95009 0.35979 0.32421 0.0
H806 H 0.97577 0.33251 0.20834 0.0
H807 H 0.99796 0.36019 0.30816 0.0
H808 H 0.08428 0.33382 0.28027 0.0
H809 H 0.03594 0.33329 0.29637 0.0
H810 H 0.0137 0.35905 0.19576 0.0
H811 H 0.06143 0.35781 0.17946 0.0
C812 C 0.94272 0.33964 0.24257 0.0
C813 C 0.93494 0.34693 0.27534 0.0
C814 C 0.97048 0.33904 0.23356 0.0
C815 C 0.99104 0.34624 0.25696 0.0
C816 C 0.98299 0.35391 0.2896 0.0
C817 C 0.95537 0.35399 0.29873 0.0
C818 C 0.06897 0.33934 0.26172 0.0
C819 C 0.07669 0.34584 0.22865 0.0
C820 C 0.04122 0.33921 0.27092 0.0
C821 C 0.02065 0.34607 0.24736 0.0
C822 C 0.02867 0.35301 0.21446 0.0
C823 C 0.05623 0.35261 0.20517 0.0
H824 H 0.64856 0.94932 0.32208 0.0
H825 H 0.67384 0.92623 0.22189 0.0
H826 H 0.6482 0.99709 0.30581 0.0
H827 H 0.67527 0.97457 0.20583 0.0
H828 H 0.65117 0.06091 0.17745 0.0
H829 H 0.64945 0.01307 0.19342 0.0
H830 H 0.67561 0.03458 0.29408 0.0
H831 H 0.67553 0.08298 0.27833 0.0
C832 C 0.6542 0.95448 0.29651 0.0
C833 C 0.66113 0.93395 0.2732 0.0
C834 C 0.65432 0.98206 0.28724 0.0
C835 C 0.66195 0.99001 0.25455 0.0
C836 C 0.66884 0.96936 0.23112 0.0
C837 C 0.66817 0.9416 0.24028 0.0
C838 C 0.65635 0.05551 0.2031 0.0
C839 C 0.66333 0.07579 0.22672 0.0
C840 C 0.65567 0.02789 0.21219 0.0
C841 C 0.66253 0.01965 0.24504 0.0
C842 C 0.66969 0.04003 0.26868 0.0
C843 C 0.66982 0.06782 0.25969 0.0
H844 H 0.08342 0.64876 0.22378 0.0
H845 H 0.06029 0.67535 0.32349 0.0
H846 H 0.03499 0.64717 0.20778 0.0
H847 H 0.01239 0.67483 0.30741 0.0
H848 H 0.92616 0.64901 0.27853 0.0
H849 H 0.97455 0.6465 0.29457 0.0
H850 H 0.99761 0.67638 0.196 0.0
H851 H 0.94973 0.67782 0.17985 0.0
C852 C 0.06802 0.65446 0.24213 0.0
C853 C 0.07565 0.6622 0.27481 0.0
C854 C 0.04026 0.65365 0.23303 0.0
C855 C 0.01964 0.66083 0.25634 0.0
C856 C 0.0275 0.66861 0.28897 0.0
C857 C 0.05508 0.66915 0.2981 0.0
C858 C 0.94165 0.65503 0.26044 0.0
C859 C 0.93416 0.66363 0.22802 0.0
C860 C 0.96938 0.65368 0.26956 0.0
C861 C 0.99013 0.66118 0.24653 0.0
C862 C 0.9824 0.66989 0.21419 0.0
C863 C 0.95484 0.67096 0.20504 0.0
loop_
_geom_bond_atom_site_label_1
_geom_bond_atom_site_label_2
_geom_bond_distance
_geom_bond_site_symmetry_2
_ccdc_geom_bond_type
Co0 O1 2.216 . S
Co0 O2 2.091 . S
Co0 O4 2.004 . S
Co0 O10 2.021 . S
Co0 O12 2.137 . S
Co0 O13 2.244 . S
O1 Co0 2.216 . S
O1 C8 1.247 . S
O2 Co0 2.091 . S
O2 C8 1.261 . S
C3 O12 1.247 . S
C3 O13 1.272 . S
O4 Co0 2.004 . S
O4 C9 1.259 . S
Co5 O6 2.061 . S
Co5 O11 2.052 . S
Co5 O13 2.135 . S
O6 Co5 2.061 . S
O6 C9 1.235 . S
C7 O10 1.238 . S
C7 O11 1.241 . S
C8 O1 1.247 . S
C8 O2 1.261 . S
C9 O4 1.259 . S
C9 O6 1.235 . S
O10 Co0 2.021 . S
O10 C7 1.238 . S
O11 Co5 2.052 . S
O11 C7 1.241 . S
O12 Co0 2.137 . S
O12 C3 1.247 . S
O13 Co0 2.244 . S
O13 C3 1.272 . S
O13 Co5 2.135 . S
Co14 O15 2.216 . S
Co14 O16 2.091 . S
Co14 O18 2.004 . S
Co14 O24 2.021 . S
Co14 O26 2.137 . S
Co14 O27 2.244 . S
O15 Co14 2.216 . S
O15 C22 1.247 . S
O16 Co14 2.091 . S
O16 C22 1.261 . S
C17 O26 1.247 . S
C17 O27 1.272 . S
O18 Co14 2.004 . S
O18 C23 1.259 . S
Co19 O20 2.061 . S
Co19 O25 2.052 . S
Co19 O27 2.135 . S
O20 Co19 2.061 . S
O20 C23 1.235 . S
C21 O24 1.238 . S
C21 O25 1.241 . S
C22 O15 1.247 . S
C22 O16 1.261 . S
C23 O18 1.259 . S
C23 O20 1.235 . S
O24 Co14 2.021 . S
O24 C21 1.238 . S
O25 Co19 2.052 . S
O25 C21 1.241 . S
O26 Co14 2.137 . S
O26 C17 1.247 . S
O27 Co14 2.244 . S
O27 C17 1.272 . S
O27 Co19 2.135 . S
Co28 O29 2.216 . S
Co28 O30 2.091 . S
Co28 O32 2.004 . S
Co28 O38 2.021 . S
Co28 O40 2.137 . S
Co28 O41 2.244 . S
O29 Co28 2.216 . S
O29 C36 1.247 . S
O30 Co28 2.091 . S
O30 C36 1.261 . S
C31 O40 1.247 . S
C31 O41 1.272 . S
O32 Co28 2.004 . S
O32 C37 1.259 . S
Co33 O34 2.061 . S
Co33 O39 2.052 . S
Co33 O41 2.135 . S
O34 Co33 2.061 . S
O34 C37 1.235 . S
C35 O38 1.238 . S
C35 O39 1.241 . S
C36 O29 1.247 . S
C36 O30 1.261 . S
C37 O32 1.259 . S
C37 O34 1.235 . S
O38 Co28 2.021 . S
O38 C35 1.238 . S
O39 Co33 2.052 . S
O39 C35 1.241 . S
O40 Co28 2.137 . S
O40 C31 1.247 . S
O41 Co28 2.244 . S
O41 C31 1.272 . S
O41 Co33 2.135 . S
Co42 O43 2.216 . S
Co42 O44 2.091 . S
Co42 O46 2.004 . S
Co42 O52 2.021 . S
Co42 O54 2.137 . S
Co42 O55 2.244 . S
O43 Co42 2.216 . S
O43 C50 1.247 . S
O44 Co42 2.091 . S
O44 C50 1.261 . S
C45 O54 1.247 . S
C45 O55 1.272 . S
O46 Co42 2.004 . S
O46 C51 1.259 . S
Co47 O48 2.061 . S
Co47 O53 2.052 . S
Co47 O55 2.135 . S
O48 Co47 2.061 . S
O48 C51 1.235 . S
C49 O52 1.238 . S
C49 O53 1.241 . S
C50 O43 1.247 . S
C50 O44 1.261 . S
C51 O46 1.259 . S
C51 O48 1.235 . S
O52 Co42 2.021 . S
O52 C49 1.238 . S
O53 Co47 2.052 . S
O53 C49 1.241 . S
O54 Co42 2.137 . S
O54 C45 1.247 . S
O55 Co42 2.244 . S
O55 C45 1.272 . S
O55 Co47 2.135 . S
Co56 O57 2.216 . S
Co56 O58 2.091 . S
Co56 O60 2.004 . S
Co56 O66 2.021 . S
Co56 O68 2.137 . S
Co56 O69 2.244 . S
O57 Co56 2.216 . S
O57 C64 1.247 . S
O58 Co56 2.091 . S
O58 C64 1.261 . S
C59 O68 1.247 . S
C59 O69 1.272 . S
O60 Co56 2.004 . S
O60 C65 1.259 . S
Co61 O62 2.061 . S
Co61 O67 2.052 . S
Co61 O69 2.135 . S
O62 Co61 2.061 . S
O62 C65 1.235 . S
C63 O66 1.238 . S
C63 O67 1.241 . S
C64 O57 1.247 . S
C64 O58 1.261 . S
C65 O60 1.259 . S
C65 O62 1.235 . S
O66 Co56 2.021 . S
O66 C63 1.238 . S
O67 Co61 2.052 . S
O67 C63 1.241 . S
O68 Co56 2.137 . S
O68 C59 1.247 . S
O69 Co56 2.244 . S
O69 C59 1.272 . S
O69 Co61 2.135 . S
Co70 O71 2.216 . S
Co70 O72 2.091 . S
Co70 O74 2.004 . S
Co70 O80 2.021 . S
Co70 O82 2.137 . S
Co70 O83 2.244 . S
O71 Co70 2.216 . S
O71 C78 1.247 . S
O72 Co70 2.091 . S
O72 C78 1.261 . S
C73 O82 1.247 . S
C73 O83 1.272 . S
O74 Co70 2.004 . S
O74 C79 1.259 . S
Co75 O76 2.061 . S
Co75 O81 2.052 . S
Co75 O83 2.135 . S
O76 Co75 2.061 . S
O76 C79 1.235 . S
C77 O80 1.238 . S
C77 O81 1.241 . S
C78 O71 1.247 . S
C78 O72 1.261 . S
C79 O74 1.259 . S
C79 O76 1.235 . S
O80 Co70 2.021 . S
O80 C77 1.238 . S
O81 Co75 2.052 . S
O81 C77 1.241 . S
O82 Co70 2.137 . S
O82 C73 1.247 . S
O83 Co70 2.244 . S
O83 C73 1.272 . S
O83 Co75 2.135 . S
Co84 O85 2.216 . S
Co84 O86 2.091 . S
Co84 O88 2.004 . S
Co84 O94 2.021 . S
Co84 O96 2.137 . S
Co84 O97 2.244 . S
O85 Co84 2.216 . S
O85 C92 1.247 . S
O86 Co84 2.091 . S
O86 C92 1.261 . S
C87 O96 1.247 . S
C87 O97 1.272 . S
O88 Co84 2.004 . S
O88 C93 1.259 . S
Co89 O90 2.061 . S
Co89 O95 2.052 . S
Co89 O97 2.135 . S
O90 Co89 2.061 . S
O90 C93 1.235 . S
C91 O94 1.238 . S
C91 O95 1.241 . S
C92 O85 1.247 . S
C92 O86 1.261 . S
C93 O88 1.259 . S
C93 O90 1.235 . S
O94 Co84 2.021 . S
O94 C91 1.238 . S
O95 Co89 2.052 . S
O95 C91 1.241 . S
O96 Co84 2.137 . S
O96 C87 1.247 . S
O97 Co84 2.244 . S
O97 C87 1.272 . S
O97 Co89 2.135 . S
Co98 O99 2.216 . S
Co98 O100 2.091 . S
Co98 O102 2.004 . S
Co98 O108 2.021 . S
Co98 O110 2.137 . S
Co98 O111 2.244 . S
O99 Co98 2.216 . S
O99 C106 1.247 . S
O100 Co98 2.091 . S
O100 C106 1.261 . S
C101 O110 1.247 . S
C101 O111 1.272 . S
O102 Co98 2.004 . S
O102 C107 1.259 . S
Co103 O104 2.061 . S
Co103 O109 2.052 . S
Co103 O111 2.135 . S
O104 Co103 2.061 . S
O104 C107 1.235 . S
C105 O108 1.238 . S
C105 O109 1.241 . S
C106 O99 1.247 . S
C106 O100 1.261 . S
C107 O102 1.259 . S
C107 O104 1.235 . S
O108 Co98 2.021 . S
O108 C105 1.238 . S
O109 Co103 2.052 . S
O109 C105 1.241 . S
O110 Co98 2.137 . S
O110 C101 1.247 . S
O111 Co98 2.244 . S
O111 C101 1.272 . S
O111 Co103 2.135 . S
Co112 O113 2.216 . S
Co112 O114 2.091 . S
Co112 O116 2.004 . S
Co112 O122 2.021 . S
Co112 O124 2.137 . S
Co112 O125 2.244 . S
O113 Co112 2.216 . S
O113 C120 1.247 . S
O114 Co112 2.091 . S
O114 C120 1.261 . S
C115 O124 1.247 . S
C115 O125 1.272 . S
O116 Co112 2.004 . S
O116 C121 1.259 . S
Co117 O118 2.061 . S
Co117 O123 2.052 . S
Co117 O125 2.135 . S
O118 Co117 2.061 . S
O118 C121 1.235 . S
C119 O122 1.238 . S
C119 O123 1.241 . S
C120 O113 1.247 . S
C120 O114 1.261 . S
C121 O116 1.259 . S
C121 O118 1.235 . S
O122 Co112 2.021 . S
O122 C119 1.238 . S
O123 Co117 2.052 . S
O123 C119 1.241 . S
O124 Co112 2.137 . S
O124 C115 1.247 . S
O125 Co112 2.244 . S
O125 C115 1.272 . S
O125 Co117 2.135 . S
Co126 O127 2.216 . S
Co126 O128 2.091 . S
Co126 O130 2.004 . S
Co126 O136 2.021 . S
Co126 O138 2.137 . S
Co126 O139 2.244 . S
O127 Co126 2.216 . S
O127 C134 1.247 . S
O128 Co126 2.091 . S
O128 C134 1.261 . S
C129 O138 1.247 . S
C129 O139 1.272 . S
O130 Co126 2.004 . S
O130 C135 1.259 . S
Co131 O132 2.061 . S
Co131 O137 2.052 . S
Co131 O139 2.135 . S
O132 Co131 2.061 . S
O132 C135 1.235 . S
C133 O136 1.238 . S
C133 O137 1.241 . S
C134 O127 1.247 . S
C134 O128 1.261 . S
C135 O130 1.259 . S
C135 O132 1.235 . S
O136 Co126 2.021 . S
O136 C133 1.238 . S
O137 Co131 2.052 . S
O137 C133 1.241 . S
O138 Co126 2.137 . S
O138 C129 1.247 . S
O139 Co126 2.244 . S
O139 C129 1.272 . S
O139 Co131 2.135 . S
Co140 O141 2.216 . S
Co140 O142 2.091 . S
Co140 O144 2.004 . S
Co140 O150 2.021 . S
Co140 O152 2.137 . S
Co140 O153 2.244 . S
O141 Co140 2.216 . S
O141 C148 1.247 . S
O142 Co140 2.091 . S
O142 C148 1.261 . S
C143 O152 1.247 . S
C143 O153 1.272 . S
O144 Co140 2.004 . S
O144 C149 1.259 . S
Co145 O146 2.061 . S
Co145 O151 2.052 . S
Co145 O153 2.135 . S
O146 Co145 2.061 . S
O146 C149 1.235 . S
C147 O150 1.238 . S
C147 O151 1.241 . S
C148 O141 1.247 . S
C148 O142 1.261 . S
C149 O144 1.259 . S
C149 O146 1.235 . S
O150 Co140 2.021 . S
O150 C147 1.238 . S
O151 Co145 2.052 . S
O151 C147 1.241 . S
O152 Co140 2.137 . S
O152 C143 1.247 . S
O153 Co140 2.244 . S
O153 C143 1.272 . S
O153 Co145 2.135 . S
Co154 O155 2.216 . S
Co154 O156 2.091 . S
Co154 O158 2.004 . S
Co154 O164 2.021 . S
Co154 O166 2.137 . S
Co154 O167 2.244 . S
O155 Co154 2.216 . S
O155 C162 1.247 . S
O156 Co154 2.091 . S
O156 C162 1.261 . S
C157 O166 1.247 . S
C157 O167 1.272 . S
O158 Co154 2.004 . S
O158 C163 1.259 . S
Co159 O160 2.061 . S
Co159 O165 2.052 . S
Co159 O167 2.135 . S
O160 Co159 2.061 . S
O160 C163 1.235 . S
C161 O164 1.238 . S
C161 O165 1.241 . S
C162 O155 1.247 . S
C162 O156 1.261 . S
C163 O158 1.259 . S
C163 O160 1.235 . S
O164 Co154 2.021 . S
O164 C161 1.238 . S
O165 Co159 2.052 . S
O165 C161 1.241 . S
O166 Co154 2.137 . S
O166 C157 1.247 . S
O167 Co154 2.244 . S
O167 C157 1.272 . S
O167 Co159 2.135 . S
Co168 O169 2.216 . S
Co168 O170 2.091 . S
Co168 O172 2.004 . S
Co168 O178 2.021 . S
Co168 O180 2.137 . S
Co168 O181 2.244 . S
O169 Co168 2.216 . S
O169 C176 1.247 . S
O170 Co168 2.091 . S
O170 C176 1.261 . S
C171 O180 1.247 . S
C171 O181 1.272 . S
O172 Co168 2.004 . S
O172 C177 1.259 . S
Co173 O174 2.061 . S
Co173 O179 2.052 . S
Co173 O181 2.135 . S
O174 Co173 2.061 . S
O174 C177 1.235 . S
C175 O178 1.238 . S
C175 O179 1.241 . S
C176 O169 1.247 . S
C176 O170 1.261 . S
C177 O172 1.259 . S
C177 O174 1.235 . S
O178 Co168 2.021 . S
O178 C175 1.238 . S
O179 Co173 2.052 . S
O179 C175 1.241 . S
O180 Co168 2.137 . S
O180 C171 1.247 . S
O181 Co168 2.244 . S
O181 C171 1.272 . S
O181 Co173 2.135 . S
Co182 O183 2.216 . S
Co182 O184 2.091 . S
Co182 O186 2.004 . S
Co182 O192 2.021 . S
Co182 O194 2.137 . S
Co182 O195 2.244 . S
O183 Co182 2.216 . S
O183 C190 1.247 . S
O184 Co182 2.091 . S
O184 C190 1.261 . S
C185 O194 1.247 . S
C185 O195 1.272 . S
O186 Co182 2.004 . S
O186 C191 1.259 . S
Co187 O188 2.061 . S
Co187 O193 2.052 . S
Co187 O195 2.135 . S
O188 Co187 2.061 . S
O188 C191 1.235 . S
C189 O192 1.238 . S
C189 O193 1.241 . S
C190 O183 1.247 . S
C190 O184 1.261 . S
C191 O186 1.259 . S
C191 O188 1.235 . S
O192 Co182 2.021 . S
O192 C189 1.238 . S
O193 Co187 2.052 . S
O193 C189 1.241 . S
O194 Co182 2.137 . S
O194 C185 1.247 . S
O195 Co182 2.244 . S
O195 C185 1.272 . S
O195 Co187 2.135 . S
Co196 O197 2.216 . S
Co196 O198 2.091 . S
Co196 O200 2.004 . S
Co196 O206 2.021 . S
Co196 O208 2.137 . S
Co196 O209 2.244 . S
O197 Co196 2.216 . S
O197 C204 1.247 . S
O198 Co196 2.091 . S
O198 C204 1.261 . S
C199 O208 1.247 . S
C199 O209 1.272 . S
O200 Co196 2.004 . S
O200 C205 1.259 . S
Co201 O202 2.061 . S
Co201 O207 2.052 . S
Co201 O209 2.135 . S
O202 Co201 2.061 . S
O202 C205 1.235 . S
C203 O206 1.238 . S
C203 O207 1.241 . S
C204 O197 1.247 . S
C204 O198 1.261 . S
C205 O200 1.259 . S
C205 O202 1.235 . S
O206 Co196 2.021 . S
O206 C203 1.238 . S
O207 Co201 2.052 . S
O207 C203 1.241 . S
O208 Co196 2.137 . S
O208 C199 1.247 . S
O209 Co196 2.244 . S
O209 C199 1.272 . S
O209 Co201 2.135 . S
Co210 O211 2.216 . S
Co210 O212 2.091 . S
Co210 O214 2.004 . S
Co210 O220 2.021 . S
Co210 O222 2.137 . S
Co210 O223 2.244 . S
O211 Co210 2.216 . S
O211 C218 1.247 . S
O212 Co210 2.091 . S
O212 C218 1.261 . S
C213 O222 1.247 . S
C213 O223 1.272 . S
O214 Co210 2.004 . S
O214 C219 1.259 . S
Co215 O216 2.061 . S
Co215 O221 2.052 . S
Co215 O223 2.135 . S
O216 Co215 2.061 . S
O216 C219 1.235 . S
C217 O220 1.238 . S
C217 O221 1.241 . S
C218 O211 1.247 . S
C218 O212 1.261 . S
C219 O214 1.259 . S
C219 O216 1.235 . S
O220 Co210 2.021 . S
O220 C217 1.238 . S
O221 Co215 2.052 . S
O221 C217 1.241 . S
O222 Co210 2.137 . S
O222 C213 1.247 . S
O223 Co210 2.244 . S
O223 C213 1.272 . S
O223 Co215 2.135 . S
H224 C232 0.950 . S
H225 C237 0.950 . S
H226 C234 0.950 . S
H227 C236 0.950 . S
H228 C238 0.950 . S
H229 C240 0.950 . S
H230 C242 0.950 . S
H231 C243 0.950 . S
C232 H224 0.950 . S
C232 C233 1.386 . S
C232 C234 1.391 . S
C233 C232 1.386 . S
C233 C237 1.393 . S
C234 H226 0.950 . S
C234 C232 1.391 . S
C234 C235 1.400 . S
C235 C234 1.400 . S
C235 C236 1.398 . S
C235 C241 1.491 . S
C236 H227 0.950 . S
C236 C235 1.398 . S
C236 C237 1.391 . S
C237 H225 0.950 . S
C237 C233 1.393 . S
C237 C236 1.391 . S
C238 H228 0.950 . S
C238 C239 1.386 . S
C238 C240 1.391 . S
C239 C238 1.386 . S
C239 C243 1.393 . S
C240 H229 0.950 . S
C240 C238 1.391 . S
C240 C241 1.400 . S
C241 C235 1.491 . S
C241 C240 1.400 . S
C241 C242 1.398 . S
C242 H230 0.950 . S
C242 C241 1.398 . S
C242 C243 1.391 . S
C243 H231 0.950 . S
C243 C239 1.393 . S
C243 C242 1.391 . S
H244 C252 0.950 . S
H245 C257 0.950 . S
H246 C254 0.950 . S
H247 C256 0.950 . S
H248 C258 0.950 . S
H249 C260 0.950 . S
H250 C262 0.950 . S
H251 C263 0.950 . S
C252 H244 0.950 . S
C252 C253 1.386 . S
C252 C254 1.391 . S
C253 C252 1.386 . S
C253 C257 1.393 . S
C254 H246 0.950 . S
C254 C252 1.391 . S
C254 C255 1.400 . S
C255 C254 1.400 . S
C255 C256 1.398 . S
C255 C261 1.491 . S
C256 H247 0.950 . S
C256 C255 1.398 . S
C256 C257 1.391 . S
C257 H245 0.950 . S
C257 C253 1.393 . S
C257 C256 1.391 . S
C258 H248 0.950 . S
C258 C259 1.386 . S
C258 C260 1.391 . S
C259 C258 1.386 . S
C259 C263 1.393 . S
C260 H249 0.950 . S
C260 C258 1.391 . S
C260 C261 1.400 . S
C261 C255 1.491 . S
C261 C260 1.400 . S
C261 C262 1.398 . S
C262 H250 0.950 . S
C262 C261 1.398 . S
C262 C263 1.391 . S
C263 H251 0.950 . S
C263 C259 1.393 . S
C263 C262 1.391 . S
H264 C272 0.950 . S
H265 C277 0.950 . S
H266 C274 0.950 . S
H267 C276 0.950 . S
H268 C278 0.950 . S
H269 C280 0.950 . S
H270 C282 0.950 . S
H271 C283 0.950 . S
C272 H264 0.950 . S
C272 C273 1.386 . S
C272 C274 1.391 . S
C273 C272 1.386 . S
C273 C277 1.393 . S
C274 H266 0.950 . S
C274 C272 1.391 . S
C274 C275 1.400 . S
C275 C274 1.400 . S
C275 C276 1.398 . S
C275 C281 1.491 . S
C276 H267 0.950 . S
C276 C275 1.398 . S
C276 C277 1.391 . S
C277 H265 0.950 . S
C277 C273 1.393 . S
C277 C276 1.391 . S
C278 H268 0.950 . S
C278 C279 1.386 . S
C278 C280 1.391 . S
C279 C278 1.386 . S
C279 C283 1.393 . S
C280 H269 0.950 . S
C280 C278 1.391 . S
C280 C281 1.400 . S
C281 C275 1.491 . S
C281 C280 1.400 . S
C281 C282 1.398 . S
C282 H270 0.950 . S
C282 C281 1.398 . S
C282 C283 1.391 . S
C283 H271 0.950 . S
C283 C279 1.393 . S
C283 C282 1.391 . S
H284 C292 0.950 . S
H285 C297 0.950 . S
H286 C294 0.950 . S
H287 C296 0.950 . S
H288 C298 0.950 . S
H289 C300 0.950 . S
H290 C302 0.950 . S
H291 C303 0.950 . S
C292 H284 0.950 . S
C292 C293 1.386 . S
C292 C294 1.391 . S
C293 C292 1.386 . S
C293 C297 1.393 . S
C294 H286 0.950 . S
C294 C292 1.391 . S
C294 C295 1.400 . S
C295 C294 1.400 . S
C295 C296 1.398 . S
C295 C301 1.491 . S
C296 H287 0.950 . S
C296 C295 1.398 . S
C296 C297 1.391 . S
C297 H285 0.950 . S
C297 C293 1.393 . S
C297 C296 1.391 . S
C298 H288 0.950 . S
C298 C299 1.386 . S
C298 C300 1.391 . S
C299 C298 1.386 . S
C299 C303 1.393 . S
C300 H289 0.950 . S
C300 C298 1.391 . S
C300 C301 1.400 . S
C301 C295 1.491 . S
C301 C300 1.400 . S
C301 C302 1.398 . S
C302 H290 0.950 . S
C302 C301 1.398 . S
C302 C303 1.391 . S
C303 H291 0.950 . S
C303 C299 1.393 . S
C303 C302 1.391 . S
H304 C312 0.950 . S
H305 C317 0.950 . S
H306 C314 0.950 . S
H307 C316 0.950 . S
H308 C318 0.950 . S
H309 C320 0.950 . S
H310 C322 0.950 . S
H311 C323 0.950 . S
C312 H304 0.950 . S
C312 C313 1.386 . S
C312 C314 1.391 . S
C313 C312 1.386 . S
C313 C317 1.393 . S
C314 H306 0.950 . S
C314 C312 1.391 . S
C314 C315 1.400 . S
C315 C314 1.400 . S
C315 C316 1.398 . S
C315 C321 1.491 . S
C316 H307 0.950 . S
C316 C315 1.398 . S
C316 C317 1.391 . S
C317 H305 0.950 . S
C317 C313 1.393 . S
C317 C316 1.391 . S
C318 H308 0.950 . S
C318 C319 1.386 . S
C318 C320 1.391 . S
C319 C318 1.386 . S
C319 C323 1.393 . S
C320 H309 0.950 . S
C320 C318 1.391 . S
C320 C321 1.400 . S
C321 C315 1.491 . S
C321 C320 1.400 . S
C321 C322 1.398 . S
C322 H310 0.950 . S
C322 C321 1.398 . S
C322 C323 1.391 . S
C323 H311 0.950 . S
C323 C319 1.393 . S
C323 C322 1.391 . S
H324 C332 0.950 . S
H325 C337 0.950 . S
H326 C334 0.950 . S
H327 C336 0.950 . S
H328 C338 0.950 . S
H329 C340 0.950 . S
H330 C342 0.950 . S
H331 C343 0.950 . S
C332 H324 0.950 . S
C332 C333 1.386 . S
C332 C334 1.391 . S
C333 C332 1.386 . S
C333 C337 1.393 . S
C334 H326 0.950 . S
C334 C332 1.391 . S
C334 C335 1.400 . S
C335 C334 1.400 . S
C335 C336 1.398 . S
C335 C341 1.491 . S
C336 H327 0.950 . S
C336 C335 1.398 . S
C336 C337 1.391 . S
C337 H325 0.950 . S
C337 C333 1.393 . S
C337 C336 1.391 . S
C338 H328 0.950 . S
C338 C339 1.386 . S
C338 C340 1.391 . S
C339 C338 1.386 . S
C339 C343 1.393 . S
C340 H329 0.950 . S
C340 C338 1.391 . S
C340 C341 1.400 . S
C341 C335 1.491 . S
C341 C340 1.400 . S
C341 C342 1.398 . S
C342 H330 0.950 . S
C342 C341 1.398 . S
C342 C343 1.391 . S
C343 H331 0.950 . S
C343 C339 1.393 . S
C343 C342 1.391 . S
H344 C352 0.950 . S
H345 C357 0.950 . S
H346 C354 0.950 . S
H347 C356 0.950 . S
H348 C358 0.950 . S
H349 C360 0.950 . S
H350 C362 0.950 . S
H351 C363 0.950 . S
C352 H344 0.950 . S
C352 C353 1.386 . S
C352 C354 1.391 . S
C353 C352 1.386 . S
C353 C357 1.393 . S
C354 H346 0.950 . S
C354 C352 1.391 . S
C354 C355 1.400 . S
C355 C354 1.400 . S
C355 C356 1.398 . S
C355 C361 1.491 . S
C356 H347 0.950 . S
C356 C355 1.398 . S
C356 C357 1.391 . S
C357 H345 0.950 . S
C357 C353 1.393 . S
C357 C356 1.391 . S
C358 H348 0.950 . S
C358 C359 1.386 . S
C358 C360 1.391 . S
C359 C358 1.386 . S
C359 C363 1.393 . S
C360 H349 0.950 . S
C360 C358 1.391 . S
C360 C361 1.400 . S
C361 C355 1.491 . S
C361 C360 1.400 . S
C361 C362 1.398 . S
C362 H350 0.950 . S
C362 C361 1.398 . S
C362 C363 1.391 . S
C363 H351 0.950 . S
C363 C359 1.393 . S
C363 C362 1.391 . S
H364 C372 0.950 . S
H365 C377 0.950 . S
H366 C374 0.950 . S
H367 C376 0.950 . S
H368 C378 0.950 . S
H369 C380 0.950 . S
H370 C382 0.950 . S
H371 C383 0.950 . S
C372 H364 0.950 . S
C372 C373 1.386 . S
C372 C374 1.391 . S
C373 C372 1.386 . S
C373 C377 1.393 . S
C374 H366 0.950 . S
C374 C372 1.391 . S
C374 C375 1.400 . S
C375 C374 1.400 . S
C375 C376 1.398 . S
C375 C381 1.491 . S
C376 H367 0.950 . S
C376 C375 1.398 . S
C376 C377 1.391 . S
C377 H365 0.950 . S
C377 C373 1.393 . S
C377 C376 1.391 . S
C378 H368 0.950 . S
C378 C379 1.386 . S
C378 C380 1.391 . S
C379 C378 1.386 . S
C379 C383 1.393 . S
C380 H369 0.950 . S
C380 C378 1.391 . S
C380 C381 1.400 . S
C381 C375 1.491 . S
C381 C380 1.400 . S
C381 C382 1.398 . S
C382 H370 0.950 . S
C382 C381 1.398 . S
C382 C383 1.391 . S
C383 H371 0.950 . S
C383 C379 1.393 . S
C383 C382 1.391 . S
H384 C392 0.950 . S
H385 C397 0.950 . S
H386 C394 0.950 . S
H387 C396 0.950 . S
H388 C398 0.950 . S
H389 C400 0.950 . S
H390 C402 0.950 . S
H391 C403 0.950 . S
C392 H384 0.950 . S
C392 C393 1.386 . S
C392 C394 1.391 . S
C393 C392 1.386 . S
C393 C397 1.393 . S
C394 H386 0.950 . S
C394 C392 1.391 . S
C394 C395 1.400 . S
C395 C394 1.400 . S
C395 C396 1.398 . S
C395 C401 1.491 1_556 S
C396 H387 0.950 . S
C396 C395 1.398 . S
C396 C397 1.391 . S
C397 H385 0.950 . S
C397 C393 1.393 . S
C397 C396 1.391 . S
C398 H388 0.950 . S
C398 C399 1.386 . S
C398 C400 1.391 . S
C399 C398 1.386 . S
C399 C403 1.393 . S
C400 H389 0.950 . S
C400 C398 1.391 . S
C400 C401 1.400 . S
C401 C395 1.491 1_554 S
C401 C400 1.400 . S
C401 C402 1.398 . S
C402 H390 0.950 . S
C402 C401 1.398 . S
C402 C403 1.391 . S
C403 H391 0.950 . S
C403 C399 1.393 . S
C403 C402 1.391 . S
H404 C412 0.950 . S
H405 C417 0.950 . S
H406 C414 0.950 . S
H407 C416 0.950 . S
H408 C418 0.950 . S
H409 C420 0.950 . S
H410 C422 0.950 . S
H411 C423 0.950 . S
C412 H404 0.950 . S
C412 C413 1.386 . S
C412 C414 1.391 . S
C413 C412 1.386 . S
C413 C417 1.393 . S
C414 H406 0.950 . S
C414 C412 1.391 . S
C414 C415 1.400 . S
C415 C414 1.400 . S
C415 C416 1.398 . S
C415 C421 1.491 1_556 S
C416 H407 0.950 . S
C416 C415 1.398 . S
C416 C417 1.391 . S
C417 H405 0.950 . S
C417 C413 1.393 . S
C417 C416 1.391 . S
C418 H408 0.950 . S
C418 C419 1.386 . S
C418 C420 1.391 . S
C419 C418 1.386 . S
C419 C423 1.393 . S
C420 H409 0.950 . S
C420 C418 1.391 . S
C420 C421 1.400 . S
C421 C415 1.491 1_554 S
C421 C420 1.400 . S
C421 C422 1.398 . S
C422 H410 0.950 . S
C422 C421 1.398 . S
C422 C423 1.391 . S
C423 H411 0.950 . S
C423 C419 1.393 . S
C423 C422 1.391 . S
H424 C432 0.950 . S
H425 C437 0.950 . S
H426 C434 0.950 . S
H427 C436 0.950 . S
H428 C438 0.950 . S
H429 C440 0.950 . S
H430 C442 0.950 . S
H431 C443 0.950 . S
C432 H424 0.950 . S
C432 C433 1.386 . S
C432 C434 1.391 . S
C433 C432 1.386 . S
C433 C437 1.393 . S
C434 H426 0.950 . S
C434 C432 1.391 . S
C434 C435 1.400 . S
C435 C434 1.400 . S
C435 C436 1.398 . S
C435 C441 1.491 1_556 S
C436 H427 0.950 . S
C436 C435 1.398 . S
C436 C437 1.391 . S
C437 H425 0.950 . S
C437 C433 1.393 . S
C437 C436 1.391 . S
C438 H428 0.950 . S
C438 C439 1.386 . S
C438 C440 1.391 . S
C439 C438 1.386 . S
C439 C443 1.393 . S
C440 H429 0.950 . S
C440 C438 1.391 . S
C440 C441 1.400 . S
C441 C435 1.491 1_554 S
C441 C440 1.400 . S
C441 C442 1.398 . S
C442 H430 0.950 . S
C442 C441 1.398 . S
C442 C443 1.391 . S
C443 H431 0.950 . S
C443 C439 1.393 . S
C443 C442 1.391 . S
H444 C452 0.950 . S
H445 C457 0.950 . S
H446 C454 0.950 . S
H447 C456 0.950 . S
H448 C458 0.950 . S
H449 C460 0.950 . S
H450 C462 0.950 . S
H451 C463 0.950 . S
C452 H444 0.950 . S
C452 C453 1.386 . S
C452 C454 1.391 . S
C453 C452 1.386 . S
C453 C457 1.393 . S
C454 H446 0.950 . S
C454 C452 1.391 . S
C454 C455 1.400 . S
C455 C454 1.400 . S
C455 C456 1.398 . S
C455 C461 1.491 1_554 S
C456 H447 0.950 . S
C456 C455 1.398 . S
C456 C457 1.391 . S
C457 H445 0.950 . S
C457 C453 1.393 . S
C457 C456 1.391 . S
C458 H448 0.950 . S
C458 C459 1.386 . S
C458 C460 1.391 . S
C459 C458 1.386 . S
C459 C463 1.393 . S
C460 H449 0.950 . S
C460 C458 1.391 . S
C460 C461 1.400 . S
C461 C455 1.491 1_556 S
C461 C460 1.400 . S
C461 C462 1.398 . S
C462 H450 0.950 . S
C462 C461 1.398 . S
C462 C463 1.391 . S
C463 H451 0.950 . S
C463 C459 1.393 . S
C463 C462 1.391 . S
H464 C472 0.950 . S
H465 C477 0.950 . S
H466 C474 0.950 . S
H467 C476 0.950 . S
H468 C478 0.950 . S
H469 C480 0.950 . S
H470 C482 0.950 . S
H471 C483 0.950 . S
C472 H464 0.950 . S
C472 C473 1.386 . S
C472 C474 1.391 . S
C473 C472 1.386 . S
C473 C477 1.393 . S
C474 H466 0.950 . S
C474 C472 1.391 . S
C474 C475 1.400 . S
C475 C474 1.400 . S
C475 C476 1.398 . S
C475 C481 1.491 . S
C476 H467 0.950 . S
C476 C475 1.398 . S
C476 C477 1.391 . S
C477 H465 0.950 . S
C477 C473 1.393 . S
C477 C476 1.391 . S
C478 H468 0.950 . S
C478 C479 1.386 . S
C478 C480 1.391 . S
C479 C478 1.386 . S
C479 C483 1.393 . S
C480 H469 0.950 . S
C480 C478 1.391 . S
C480 C481 1.400 . S
C481 C475 1.491 . S
C481 C480 1.400 . S
C481 C482 1.398 . S
C482 H470 0.950 . S
C482 C481 1.398 . S
C482 C483 1.391 . S
C483 H471 0.950 . S
C483 C479 1.393 . S
C483 C482 1.391 . S
H484 C492 0.950 . S
H485 C497 0.950 . S
H486 C494 0.950 . S
H487 C496 0.950 . S
H488 C498 0.950 . S
H489 C500 0.950 . S
H490 C502 0.950 . S
H491 C503 0.950 . S
C492 H484 0.950 . S
C492 C493 1.386 . S
C492 C494 1.391 . S
C493 C492 1.386 . S
C493 C497 1.393 . S
C494 H486 0.950 . S
C494 C492 1.391 . S
C494 C495 1.400 . S
C495 C494 1.400 . S
C495 C496 1.398 . S
C495 C501 1.491 . S
C496 H487 0.950 . S
C496 C495 1.398 . S
C496 C497 1.391 . S
C497 H485 0.950 . S
C497 C493 1.393 . S
C497 C496 1.391 . S
C498 H488 0.950 . S
C498 C499 1.386 . S
C498 C500 1.391 . S
C499 C498 1.386 . S
C499 C503 1.393 . S
C500 H489 0.950 . S
C500 C498 1.391 . S
C500 C501 1.400 . S
C501 C495 1.491 . S
C501 C500 1.400 . S
C501 C502 1.398 . S
C502 H490 0.950 . S
C502 C501 1.398 . S
C502 C503 1.391 . S
C503 H491 0.950 . S
C503 C499 1.393 . S
C503 C502 1.391 . S
H504 C512 0.950 . S
H505 C517 0.950 . S
H506 C514 0.950 . S
H507 C516 0.950 . S
H508 C518 0.950 . S
H509 C520 0.950 . S
H510 C522 0.950 . S
H511 C523 0.950 . S
C512 H504 0.950 . S
C512 C513 1.386 . S
C512 C514 1.391 . S
C513 C512 1.386 . S
C513 C517 1.393 . S
C514 H506 0.950 . S
C514 C512 1.391 . S
C514 C515 1.400 . S
C515 C514 1.400 . S
C515 C516 1.398 . S
C515 C521 1.491 . S
C516 H507 0.950 . S
C516 C515 1.398 . S
C516 C517 1.391 . S
C517 H505 0.950 . S
C517 C513 1.393 . S
C517 C516 1.391 . S
C518 H508 0.950 . S
C518 C519 1.386 . S
C518 C520 1.391 . S
C519 C518 1.386 . S
C519 C523 1.393 . S
C520 H509 0.950 . S
C520 C518 1.391 . S
C520 C521 1.400 . S
C521 C515 1.491 . S
C521 C520 1.400 . S
C521 C522 1.398 . S
C522 H510 0.950 . S
C522 C521 1.398 . S
C522 C523 1.391 . S
C523 H511 0.950 . S
C523 C519 1.393 . S
C523 C522 1.391 . S
H524 C532 0.950 . S
H525 C537 0.950 . S
H526 C534 0.950 . S
H527 C536 0.950 . S
H528 C538 0.950 . S
H529 C540 0.950 . S
H530 C542 0.950 . S
H531 C543 0.950 . S
C532 H524 0.950 . S
C532 C533 1.386 . S
C532 C534 1.391 . S
C533 C532 1.386 . S
C533 C537 1.393 . S
C534 H526 0.950 . S
C534 C532 1.391 . S
C534 C535 1.400 . S
C535 C534 1.400 . S
C535 C536 1.398 . S
C535 C541 1.491 . S
C536 H527 0.950 . S
C536 C535 1.398 . S
C536 C537 1.391 . S
C537 H525 0.950 . S
C537 C533 1.393 . S
C537 C536 1.391 . S
C538 H528 0.950 . S
C538 C539 1.386 . S
C538 C540 1.391 . S
C539 C538 1.386 . S
C539 C543 1.393 . S
C540 H529 0.950 . S
C540 C538 1.391 . S
C540 C541 1.400 . S
C541 C535 1.491 . S
C541 C540 1.400 . S
C541 C542 1.398 . S
C542 H530 0.950 . S
C542 C541 1.398 . S
C542 C543 1.391 . S
C543 H531 0.950 . S
C543 C539 1.393 . S
C543 C542 1.391 . S
H544 C552 0.950 . S
H545 C557 0.950 . S
H546 C554 0.950 . S
H547 C556 0.950 . S
H548 C558 0.950 . S
H549 C560 0.950 . S
H550 C562 0.950 . S
H551 C563 0.950 . S
C552 H544 0.950 . S
C552 C553 1.386 . S
C552 C554 1.391 . S
C553 C552 1.386 . S
C553 C557 1.393 . S
C554 H546 0.950 . S
C554 C552 1.391 . S
C554 C555 1.400 . S
C555 C554 1.400 . S
C555 C556 1.398 . S
C555 C561 1.491 . S
C556 H547 0.950 . S
C556 C555 1.398 . S
C556 C557 1.391 . S
C557 H545 0.950 . S
C557 C553 1.393 . S
C557 C556 1.391 . S
C558 H548 0.950 . S
C558 C559 1.386 . S
C558 C560 1.391 . S
C559 C558 1.386 . S
C559 C563 1.393 . S
C560 H549 0.950 . S
C560 C558 1.391 . S
C560 C561 1.400 . S
C561 C555 1.491 . S
C561 C560 1.400 . S
C561 C562 1.398 . S
C562 H550 0.950 . S
C562 C561 1.398 . S
C562 C563 1.391 . S
C563 H551 0.950 . S
C563 C559 1.393 . S
C563 C562 1.391 . S
H564 C572 0.950 . S
H565 C577 0.950 . S
H566 C574 0.950 . S
H567 C576 0.950 . S
H568 C578 0.950 . S
H569 C580 0.950 . S
H570 C582 0.950 . S
H571 C583 0.950 . S
C572 H564 0.950 . S
C572 C573 1.386 . S
C572 C574 1.391 . S
C573 C572 1.386 . S
C573 C577 1.393 . S
C574 H566 0.950 . S
C574 C572 1.391 . S
C574 C575 1.400 . S
C575 C574 1.400 . S
C575 C576 1.398 . S
C575 C581 1.491 . S
C576 H567 0.950 . S
C576 C575 1.398 . S
C576 C577 1.391 . S
C577 H565 0.950 . S
C577 C573 1.393 . S
C577 C576 1.391 . S
C578 H568 0.950 . S
C578 C579 1.386 . S
C578 C580 1.391 . S
C579 C578 1.386 . S
C579 C583 1.393 . S
C580 H569 0.950 . S
C580 C578 1.391 . S
C580 C581 1.400 . S
C581 C575 1.491 . S
C581 C580 1.400 . S
C581 C582 1.398 . S
C582 H570 0.950 . S
C582 C581 1.398 . S
C582 C583 1.391 . S
C583 H571 0.950 . S
C583 C579 1.393 . S
C583 C582 1.391 . S
H584 C592 0.950 . S
H585 C597 0.950 . S
H586 C594 0.950 . S
H587 C596 0.950 . S
H588 C598 0.950 . S
H589 C600 0.950 . S
H590 C602 0.950 . S
H591 C603 0.950 . S
C592 H584 0.950 . S
C592 C593 1.386 . S
C592 C594 1.391 . S
C593 C592 1.386 . S
C593 C597 1.393 . S
C594 H586 0.950 . S
C594 C592 1.391 . S
C594 C595 1.400 . S
C595 C594 1.400 . S
C595 C596 1.398 . S
C595 C601 1.491 . S
C596 H587 0.950 . S
C596 C595 1.398 . S
C596 C597 1.391 . S
C597 H585 0.950 . S
C597 C593 1.393 . S
C597 C596 1.391 . S
C598 H588 0.950 . S
C598 C599 1.386 . S
C598 C600 1.391 . S
C599 C598 1.386 . S
C599 C603 1.393 . S
C600 H589 0.950 . S
C600 C598 1.391 . S
C600 C601 1.400 . S
C601 C595 1.491 . S
C601 C600 1.400 . S
C601 C602 1.398 . S
C602 H590 0.950 . S
C602 C601 1.398 . S
C602 C603 1.391 . S
C603 H591 0.950 . S
C603 C599 1.393 . S
C603 C602 1.391 . S
H604 C612 0.950 . S
H605 C617 0.950 . S
H606 C614 0.950 . S
H607 C616 0.950 . S
H608 C618 0.950 . S
H609 C620 0.950 . S
H610 C622 0.950 . S
H611 C623 0.950 . S
C612 H604 0.950 . S
C612 C613 1.386 . S
C612 C614 1.391 . S
C613 C612 1.386 . S
C613 C617 1.393 . S
C614 H606 0.950 . S
C614 C612 1.391 . S
C614 C615 1.400 . S
C615 C614 1.400 . S
C615 C616 1.398 . S
C615 C621 1.491 . S
C616 H607 0.950 . S
C616 C615 1.398 . S
C616 C617 1.391 . S
C617 H605 0.950 . S
C617 C613 1.393 . S
C617 C616 1.391 . S
C618 H608 0.950 . S
C618 C619 1.386 . S
C618 C620 1.391 . S
C619 C618 1.386 . S
C619 C623 1.393 . S
C620 H609 0.950 . S
C620 C618 1.391 . S
C620 C621 1.400 . S
C621 C615 1.491 . S
C621 C620 1.400 . S
C621 C622 1.398 . S
C622 H610 0.950 . S
C622 C621 1.398 . S
C622 C623 1.391 . S
C623 H611 0.950 . S
C623 C619 1.393 . S
C623 C622 1.391 . S
H624 C632 0.950 . S
H625 C637 0.950 . S
H626 C634 0.950 . S
H627 C636 0.950 . S
H628 C638 0.950 . S
H629 C640 0.950 . S
H630 C642 0.950 . S
H631 C643 0.950 . S
C632 H624 0.950 . S
C632 C633 1.386 . S
C632 C634 1.391 . S
C633 C632 1.386 . S
C633 C637 1.393 . S
C634 H626 0.950 . S
C634 C632 1.391 . S
C634 C635 1.400 . S
C635 C634 1.400 . S
C635 C636 1.398 . S
C635 C641 1.491 . S
C636 H627 0.950 . S
C636 C635 1.398 . S
C636 C637 1.391 . S
C637 H625 0.950 . S
C637 C633 1.393 . S
C637 C636 1.391 . S
C638 H628 0.950 . S
C638 C639 1.386 . S
C638 C640 1.391 . S
C639 C638 1.386 . S
C639 C643 1.393 . S
C640 H629 0.950 . S
C640 C638 1.391 . S
C640 C641 1.400 . S
C641 C635 1.491 . S
C641 C640 1.400 . S
C641 C642 1.398 . S
C642 H630 0.950 . S
C642 C641 1.398 . S
C642 C643 1.391 . S
C643 H631 0.950 . S
C643 C639 1.393 . S
C643 C642 1.391 . S
H644 C652 0.950 . S
H645 C657 0.950 . S
H646 C654 0.950 . S
H647 C656 0.950 . S
H648 C658 0.950 . S
H649 C660 0.950 . S
H650 C662 0.950 . S
H651 C663 0.950 . S
C652 H644 0.950 . S
C652 C653 1.386 . S
C652 C654 1.391 . S
C653 C652 1.386 . S
C653 C657 1.393 . S
C654 H646 0.950 . S
C654 C652 1.391 . S
C654 C655 1.400 . S
C655 C654 1.400 . S
C655 C656 1.398 . S
C655 C661 1.491 . S
C656 H647 0.950 . S
C656 C655 1.398 . S
C656 C657 1.391 . S
C657 H645 0.950 . S
C657 C653 1.393 . S
C657 C656 1.391 . S
C658 H648 0.950 . S
C658 C659 1.386 . S
C658 C660 1.391 . S
C659 C658 1.386 . S
C659 C663 1.393 . S
C660 H649 0.950 . S
C660 C658 1.391 . S
C660 C661 1.400 . S
C661 C655 1.491 . S
C661 C660 1.400 . S
C661 C662 1.398 . S
C662 H650 0.950 . S
C662 C661 1.398 . S
C662 C663 1.391 . S
C663 H651 0.950 . S
C663 C659 1.393 . S
C663 C662 1.391 . S
H664 C672 0.950 . S
H665 C677 0.950 . S
H666 C674 0.950 . S
H667 C676 0.950 . S
H668 C678 0.950 . S
H669 C680 0.950 . S
H670 C682 0.950 . S
H671 C683 0.950 . S
C672 H664 0.950 . S
C672 C673 1.386 . S
C672 C674 1.391 . S
C673 C672 1.386 . S
C673 C677 1.393 . S
C674 H666 0.950 . S
C674 C672 1.391 . S
C674 C675 1.400 . S
C675 C674 1.400 . S
C675 C676 1.398 . S
C675 C681 1.491 . S
C676 H667 0.950 . S
C676 C675 1.398 . S
C676 C677 1.391 . S
C677 H665 0.950 . S
C677 C673 1.393 . S
C677 C676 1.391 . S
C678 H668 0.950 . S
C678 C679 1.386 . S
C678 C680 1.391 . S
C679 C678 1.386 . S
C679 C683 1.393 . S
C680 H669 0.950 . S
C680 C678 1.391 . S
C680 C681 1.400 . S
C681 C675 1.491 . S
C681 C680 1.400 . S
C681 C682 1.398 . S
C682 H670 0.950 . S
C682 C681 1.398 . S
C682 C683 1.391 . S
C683 H671 0.950 . S
C683 C679 1.393 . S
C683 C682 1.391 . S
H684 C692 0.950 . S
H685 C697 0.950 . S
H686 C694 0.950 . S
H687 C696 0.950 . S
H688 C698 0.950 . S
H689 C700 0.950 . S
H690 C702 0.950 . S
H691 C703 0.950 . S
C692 H684 0.950 . S
C692 C693 1.386 . S
C692 C694 1.391 . S
C693 C692 1.386 . S
C693 C697 1.393 . S
C694 H686 0.950 . S
C694 C692 1.391 . S
C694 C695 1.400 . S
C695 C694 1.400 . S
C695 C696 1.398 . S
C695 C701 1.491 . S
C696 H687 0.950 . S
C696 C695 1.398 . S
C696 C697 1.391 . S
C697 H685 0.950 . S
C697 C693 1.393 . S
C697 C696 1.391 . S
C698 H688 0.950 . S
C698 C699 1.386 . S
C698 C700 1.391 . S
C699 C698 1.386 . S
C699 C703 1.393 . S
C700 H689 0.950 . S
C700 C698 1.391 . S
C700 C701 1.400 . S
C701 C695 1.491 . S
C701 C700 1.400 . S
C701 C702 1.398 . S
C702 H690 0.950 . S
C702 C701 1.398 . S
C702 C703 1.391 . S
C703 H691 0.950 . S
C703 C699 1.393 . S
C703 C702 1.391 . S
H704 C712 0.950 . S
H705 C717 0.950 . S
H706 C714 0.950 . S
H707 C716 0.950 . S
H708 C718 0.950 . S
H709 C720 0.950 . S
H710 C722 0.950 . S
H711 C723 0.950 . S
C712 H704 0.950 . S
C712 C713 1.386 . S
C712 C714 1.391 . S
C713 C712 1.386 . S
C713 C717 1.393 . S
C714 H706 0.950 . S
C714 C712 1.391 . S
C714 C715 1.400 . S
C715 C714 1.400 . S
C715 C716 1.398 . S
C715 C721 1.491 1_545 S
C716 H707 0.950 . S
C716 C715 1.398 . S
C716 C717 1.391 . S
C717 H705 0.950 . S
C717 C713 1.393 . S
C717 C716 1.391 . S
C718 H708 0.950 . S
C718 C719 1.386 . S
C718 C720 1.391 . S
C719 C718 1.386 . S
C719 C723 1.393 . S
C720 H709 0.950 . S
C720 C718 1.391 . S
C720 C721 1.400 . S
C721 C715 1.491 1_565 S
C721 C720 1.400 . S
C721 C722 1.398 . S
C722 H710 0.950 . S
C722 C721 1.398 . S
C722 C723 1.391 . S
C723 H711 0.950 . S
C723 C719 1.393 . S
C723 C722 1.391 . S
H724 C732 0.950 . S
H725 C737 0.950 . S
H726 C734 0.950 . S
H727 C736 0.950 . S
H728 C738 0.950 . S
H729 C740 0.950 . S
H730 C742 0.950 . S
H731 C743 0.950 . S
C732 H724 0.950 . S
C732 C733 1.386 . S
C732 C734 1.391 . S
C733 C732 1.386 . S
C733 C737 1.393 . S
C734 H726 0.950 . S
C734 C732 1.391 . S
C734 C735 1.400 . S
C735 C734 1.400 . S
C735 C736 1.398 . S
C735 C741 1.491 1_655 S
C736 H727 0.950 . S
C736 C735 1.398 . S
C736 C737 1.391 . S
C737 H725 0.950 . S
C737 C733 1.393 . S
C737 C736 1.391 . S
C738 H728 0.950 . S
C738 C739 1.386 . S
C738 C740 1.391 . S
C739 C738 1.386 . S
C739 C743 1.393 . S
C740 H729 0.950 . S
C740 C738 1.391 . S
C740 C741 1.400 . S
C741 C735 1.491 1_455 S
C741 C740 1.400 . S
C741 C742 1.398 . S
C742 H730 0.950 . S
C742 C741 1.398 . S
C742 C743 1.391 . S
C743 H731 0.950 . S
C743 C739 1.393 . S
C743 C742 1.391 . S
H744 C752 0.950 . S
H745 C757 0.950 . S
H746 C754 0.950 . S
H747 C756 0.950 . S
H748 C758 0.950 . S
H749 C760 0.950 . S
H750 C762 0.950 . S
H751 C763 0.950 . S
C752 H744 0.950 . S
C752 C753 1.386 . S
C752 C754 1.391 . S
C753 C752 1.386 . S
C753 C757 1.393 . S
C754 H746 0.950 . S
C754 C752 1.391 . S
C754 C755 1.400 . S
C755 C754 1.400 . S
C755 C756 1.398 . S
C755 C761 1.491 1_545 S
C756 H747 0.950 . S
C756 C755 1.398 . S
C756 C757 1.391 . S
C757 H745 0.950 . S
C757 C753 1.393 . S
C757 C756 1.391 . S
C758 H748 0.950 . S
C758 C759 1.386 . S
C758 C760 1.391 . S
C759 C758 1.386 . S
C759 C763 1.393 . S
C760 H749 0.950 . S
C760 C758 1.391 . S
C760 C761 1.400 . S
C761 C755 1.491 1_565 S
C761 C760 1.400 . S
C761 C762 1.398 . S
C762 H750 0.950 . S
C762 C761 1.398 . S
C762 C763 1.391 . S
C763 H751 0.950 . S
C763 C759 1.393 . S
C763 C762 1.391 . S
H764 C772 0.950 . S
H765 C777 0.950 . S
H766 C774 0.950 . S
H767 C776 0.950 . S
H768 C778 0.950 . S
H769 C780 0.950 . S
H770 C782 0.950 . S
H771 C783 0.950 . S
C772 H764 0.950 . S
C772 C773 1.386 . S
C772 C774 1.391 . S
C773 C772 1.386 . S
C773 C777 1.393 . S
C774 H766 0.950 . S
C774 C772 1.391 . S
C774 C775 1.400 . S
C775 C774 1.400 . S
C775 C776 1.398 . S
C775 C781 1.491 1_455 S
C776 H767 0.950 . S
C776 C775 1.398 . S
C776 C777 1.391 . S
C777 H765 0.950 . S
C777 C773 1.393 . S
C777 C776 1.391 . S
C778 H768 0.950 . S
C778 C779 1.386 . S
C778 C780 1.391 . S
C779 C778 1.386 . S
C779 C783 1.393 . S
C780 H769 0.950 . S
C780 C778 1.391 . S
C780 C781 1.400 . S
C781 C775 1.491 1_655 S
C781 C780 1.400 . S
C781 C782 1.398 . S
C782 H770 0.950 . S
C782 C781 1.398 . S
C782 C783 1.391 . S
C783 H771 0.950 . S
C783 C779 1.393 . S
C783 C782 1.391 . S
H784 C792 0.950 . S
H785 C797 0.950 . S
H786 C794 0.950 . S
H787 C796 0.950 . S
H788 C798 0.950 . S
H789 C800 0.950 . S
H790 C802 0.950 . S
H791 C803 0.950 . S
C792 H784 0.950 . S
C792 C793 1.386 . S
C792 C794 1.391 . S
C793 C792 1.386 . S
C793 C797 1.393 . S
C794 H786 0.950 . S
C794 C792 1.391 . S
C794 C795 1.400 . S
C795 C794 1.400 . S
C795 C796 1.398 . S
C795 C801 1.491 1_545 S
C796 H787 0.950 . S
C796 C795 1.398 . S
C796 C797 1.391 . S
C797 H785 0.950 . S
C797 C793 1.393 . S
C797 C796 1.391 . S
C798 H788 0.950 . S
C798 C799 1.386 . S
C798 C800 1.391 . S
C799 C798 1.386 . S
C799 C803 1.393 . S
C800 H789 0.950 . S
C800 C798 1.391 . S
C800 C801 1.400 . S
C801 C795 1.491 1_565 S
C801 C800 1.400 . S
C801 C802 1.398 . S
C802 H790 0.950 . S
C802 C801 1.398 . S
C802 C803 1.391 . S
C803 H791 0.950 . S
C803 C799 1.393 . S
C803 C802 1.391 . S
H804 C812 0.950 . S
H805 C817 0.950 . S
H806 C814 0.950 . S
H807 C816 0.950 . S
H808 C818 0.950 . S
H809 C820 0.950 . S
H810 C822 0.950 . S
H811 C823 0.950 . S
C812 H804 0.950 . S
C812 C813 1.386 . S
C812 C814 1.391 . S
C813 C812 1.386 . S
C813 C817 1.393 . S
C814 H806 0.950 . S
C814 C812 1.391 . S
C814 C815 1.400 . S
C815 C814 1.400 . S
C815 C816 1.398 . S
C815 C821 1.491 1_655 S
C816 H807 0.950 . S
C816 C815 1.398 . S
C816 C817 1.391 . S
C817 H805 0.950 . S
C817 C813 1.393 . S
C817 C816 1.391 . S
C818 H808 0.950 . S
C818 C819 1.386 . S
C818 C820 1.391 . S
C819 C818 1.386 . S
C819 C823 1.393 . S
C820 H809 0.950 . S
C820 C818 1.391 . S
C820 C821 1.400 . S
C821 C815 1.491 1_455 S
C821 C820 1.400 . S
C821 C822 1.398 . S
C822 H810 0.950 . S
C822 C821 1.398 . S
C822 C823 1.391 . S
C823 H811 0.950 . S
C823 C819 1.393 . S
C823 C822 1.391 . S
H824 C832 0.950 . S
H825 C837 0.950 . S
H826 C834 0.950 . S
H827 C836 0.950 . S
H828 C838 0.950 . S
H829 C840 0.950 . S
H830 C842 0.950 . S
H831 C843 0.950 . S
C832 H824 0.950 . S
C832 C833 1.386 . S
C832 C834 1.391 . S
C833 C832 1.386 . S
C833 C837 1.393 . S
C834 H826 0.950 . S
C834 C832 1.391 . S
C834 C835 1.400 . S
C835 C834 1.400 . S
C835 C836 1.398 . S
C835 C841 1.491 1_565 S
C836 H827 0.950 . S
C836 C835 1.398 . S
C836 C837 1.391 . S
C837 H825 0.950 . S
C837 C833 1.393 . S
C837 C836 1.391 . S
C838 H828 0.950 . S
C838 C839 1.386 . S
C838 C840 1.391 . S
C839 C838 1.386 . S
C839 C843 1.393 . S
C840 H829 0.950 . S
C840 C838 1.391 . S
C840 C841 1.400 . S
C841 C835 1.491 1_545 S
C841 C840 1.400 . S
C841 C842 1.398 . S
C842 H830 0.950 . S
C842 C841 1.398 . S
C842 C843 1.391 . S
C843 H831 0.950 . S
C843 C839 1.393 . S
C843 C842 1.391 . S
H844 C852 0.950 . S
H845 C857 0.950 . S
H846 C854 0.950 . S
H847 C856 0.950 . S
H848 C858 0.950 . S
H849 C860 0.950 . S
H850 C862 0.950 . S
H851 C863 0.950 . S
C852 H844 0.950 . S
C852 C853 1.386 . S
C852 C854 1.391 . S
C853 C852 1.386 . S
C853 C857 1.393 . S
C854 H846 0.950 . S
C854 C852 1.391 . S
C854 C855 1.400 . S
C855 C854 1.400 . S
C855 C856 1.398 . S
C855 C861 1.491 1_455 S
C856 H847 0.950 . S
C856 C855 1.398 . S
C856 C857 1.391 . S
C857 H845 0.950 . S
C857 C853 1.393 . S
C857 C856 1.391 . S
C858 H848 0.950 . S
C858 C859 1.386 . S
C858 C860 1.391 . S
C859 C858 1.386 . S
C859 C863 1.393 . S
C860 H849 0.950 . S
C860 C858 1.391 . S
C860 C861 1.400 . S
C861 C855 1.491 1_655 S
C861 C860 1.400 . S
C861 C862 1.398 . S
C862 H850 0.950 . S
C862 C861 1.398 . S
C862 C863 1.391 . S
C863 H851 0.950 . S
C863 C859 1.393 . S
C863 C862 1.391 . S
C233 C78 1.422 . S
C239 C8 1.430 . S
C253 C92 1.420 . S
C259 C22 1.428 . S
C273 C36 1.432 . S
C279 C106 1.426 . S
C293 C50 1.420 . S
C299 C64 1.427 . S
C313 C190 1.428 . S
C319 C120 1.432 . S
C333 C204 1.421 . S
C339 C134 1.421 . S
C353 C148 1.431 . S
C359 C218 1.422 . S
C373 C162 1.431 . S
C379 C176 1.430 . S
C393 C147 1.503 . S
C399 C7 1.480 . S
C413 C161 1.503 . S
C419 C21 1.480 . S
C433 C119 1.503 . S
C439 C35 1.481 . S
C453 C49 1.488 . S
C459 C133 1.500 . S
C473 C203 1.479 . S
C479 C63 1.499 . S
C493 C217 1.478 . S
C499 C77 1.502 . S
C513 C91 1.491 . S
C519 C175 1.497 . S
C533 C189 1.480 . S
C539 C105 1.497 . S
C553 C65 1.886 . S
C559 C9 1.884 . S
C573 C23 1.884 . S
C579 C79 1.885 . S
C593 C37 1.882 . S
C599 C93 1.887 . S
C613 C107 1.882 . S
C619 C51 1.886 . S
C633 C115 0.945 . S
C639 C171 0.959 . S
C653 C185 0.959 . S
C659 C129 0.946 . S
C673 C143 0.958 . S
C679 C199 0.943 . S
C693 C213 0.957 . S
C699 C157 0.951 . S
C713 C163 1.880 . S
C719 C191 1.889 . S
C733 C121 1.883 . S
C739 C205 1.886 . S
C753 C219 1.882 . S
C759 C135 1.886 . S
C773 C149 1.879 . S
C779 C177 1.890 . S
C793 C73 0.952 . S
C799 C45 0.945 . S
C813 C87 0.946 . S
C819 C3 0.959 . S
C833 C101 0.958 . S
C839 C17 0.950 . S
C853 C59 0.943 . S
C859 C31 0.958 . S
