# Generated by pormake.
# Topology unn, (4)-cn, num edge types: 1
# Building blocks:
#     Node 0, Type 0, BuildingBlock: MUDLON_clean_sbu_0, # of connection points: 4
#     Node 1, Type 0, BuildingBlock: MUDLON_clean_sbu_0, # of connection points: 4
#     Node 2, Type 0, BuildingBlock: MUDLON_clean_sbu_0, # of connection points: 4
#     Node 3, Type 0, BuildingBlock: MUDLON_clean_sbu_0, # of connection points: 4
#     Node 4, Type 0, BuildingBlock: MUDLON_clean_sbu_0, # of connection points: 4
#     Node 5, Type 0, BuildingBlock: MUDLON_clean_sbu_0, # of connection points: 4
#     Node 6, Type 0, BuildingBlock: MUDLON_clean_sbu_0, # of connection points: 4
#     Node 7, Type 0, BuildingBlock: MUDLON_clean_sbu_0, # of connection points: 4
#     Node 8, Type 0, BuildingBlock: MUDLON_clean_sbu_0, # of connection points: 4
#     Node 9, Type 0, BuildingBlock: MUDLON_clean_sbu_0, # of connection points: 4
#     Node 10, Type 0, BuildingBlock: MUDLON_clean_sbu_0, # of connection points: 4
#     Node 11, Type 0, BuildingBlock: MUDLON_clean_sbu_0, # of connection points: 4
#     Node 12, Type 0, BuildingBlock: MUDLON_clean_sbu_0, # of connection points: 4
#     Node 13, Type 0, BuildingBlock: MUDLON_clean_sbu_0, # of connection points: 4
#     Node 14, Type 0, BuildingBlock: MUDLON_clean_sbu_0, # of connection points: 4
#     Node 15, Type 0, BuildingBlock: MUDLON_clean_sbu_0, # of connection points: 4
#     Node 16, Type 0, BuildingBlock: MUDLON_clean_sbu_0, # of connection points: 4
#     Node 17, Type 0, BuildingBlock: MUDLON_clean_sbu_0, # of connection points: 4
#     Edge 18, Type (0, 0), BuildingBlock: KIFKEQ_clean_linker_1, # of connection points: 2
#     Edge 19, Type (0, 0), BuildingBlock: KIFKEQ_clean_linker_1, # of connection points: 2
#     Edge 20, Type (0, 0), BuildingBlock: KIFKEQ_clean_linker_1, # of connection points: 2
#     Edge 21, Type (0, 0), BuildingBlock: KIFKEQ_clean_linker_1, # of connection points: 2
#     Edge 22, Type (0, 0), BuildingBlock: KIFKEQ_clean_linker_1, # of connection points: 2
#     Edge 23, Type (0, 0), BuildingBlock: KIFKEQ_clean_linker_1, # of connection points: 2
#     Edge 24, Type (0, 0), BuildingBlock: KIFKEQ_clean_linker_1, # of connection points: 2
#     Edge 25, Type (0, 0), BuildingBlock: KIFKEQ_clean_linker_1, # of connection points: 2
#     Edge 26, Type (0, 0), BuildingBlock: KIFKEQ_clean_linker_1, # of connection points: 2
#     Edge 27, Type (0, 0), BuildingBlock: KIFKEQ_clean_linker_1, # of connection points: 2
#     Edge 28, Type (0, 0), BuildingBlock: KIFKEQ_clean_linker_1, # of connection points: 2
#     Edge 29, Type (0, 0), BuildingBlock: KIFKEQ_clean_linker_1, # of connection points: 2
#     Edge 30, Type (0, 0), BuildingBlock: KIFKEQ_clean_linker_1, # of connection points: 2
#     Edge 31, Type (0, 0), BuildingBlock: KIFKEQ_clean_linker_1, # of connection points: 2
#     Edge 32, Type (0, 0), BuildingBlock: KIFKEQ_clean_linker_1, # of connection points: 2
#     Edge 33, Type (0, 0), BuildingBlock: KIFKEQ_clean_linker_1, # of connection points: 2
#     Edge 34, Type (0, 0), BuildingBlock: KIFKEQ_clean_linker_1, # of connection points: 2
#     Edge 35, Type (0, 0), BuildingBlock: KIFKEQ_clean_linker_1, # of connection points: 2
#     Edge 36, Type (0, 0), BuildingBlock: KIFKEQ_clean_linker_1, # of connection points: 2
#     Edge 37, Type (0, 0), BuildingBlock: KIFKEQ_clean_linker_1, # of connection points: 2
#     Edge 38, Type (0, 0), BuildingBlock: KIFKEQ_clean_linker_1, # of connection points: 2
#     Edge 39, Type (0, 0), BuildingBlock: KIFKEQ_clean_linker_1, # of connection points: 2
#     Edge 40, Type (0, 0), BuildingBlock: KIFKEQ_clean_linker_1, # of connection points: 2
#     Edge 41, Type (0, 0), BuildingBlock: KIFKEQ_clean_linker_1, # of connection points: 2
#     Edge 42, Type (0, 0), BuildingBlock: KIFKEQ_clean_linker_1, # of connection points: 2
#     Edge 43, Type (0, 0), BuildingBlock: KIFKEQ_clean_linker_1, # of connection points: 2
#     Edge 44, Type (0, 0), BuildingBlock: KIFKEQ_clean_linker_1, # of connection points: 2
#     Edge 45, Type (0, 0), BuildingBlock: KIFKEQ_clean_linker_1, # of connection points: 2
#     Edge 46, Type (0, 0), BuildingBlock: KIFKEQ_clean_linker_1, # of connection points: 2
#     Edge 47, Type (0, 0), BuildingBlock: KIFKEQ_clean_linker_1, # of connection points: 2
#     Edge 48, Type (0, 0), BuildingBlock: KIFKEQ_clean_linker_1, # of connection points: 2
#     Edge 49, Type (0, 0), BuildingBlock: KIFKEQ_clean_linker_1, # of connection points: 2
#     Edge 50, Type (0, 0), BuildingBlock: KIFKEQ_clean_linker_1, # of connection points: 2
#     Edge 51, Type (0, 0), BuildingBlock: KIFKEQ_clean_linker_1, # of connection points: 2
#     Edge 52, Type (0, 0), BuildingBlock: KIFKEQ_clean_linker_1, # of connection points: 2
#     Edge 53, Type (0, 0), BuildingBlock: KIFKEQ_clean_linker_1, # of connection points: 2
# Relax obj value: 0.098
# Max RMSD: 0.215
# Mean RMSD: 0.212
data_MOF--net-unn--node1-MUDLON_clean_sbu_0--edge1-KIFKEQ_clean_linker_1
_symmetry_space_group_name_H-M    P1
_symmetry_Int_Tables_number       1
_symmetry_cell_setting            triclinic
loop_
_symmetry_equiv_pos_as_xyz
'x, y, z'
_cell_length_a     48.393572
_cell_length_b     48.310355
_cell_length_c     42.418867
_cell_angle_alpha  90.756741
_cell_angle_beta   89.514942
_cell_angle_gamma 120.48675
loop_
_atom_site_label
_atom_site_type_symbol
_atom_site_fract_x
_atom_site_fract_y
_atom_site_fract_z
_atom_type_partial_charge
Mg0 Mg 0.1021 0.77791 0.24378 0.0
C1 C 0.1267 0.74604 0.19812 0.0
O2 O 0.15475 0.77131 0.20458 0.0
C3 C 0.08853 0.78045 0.31158 0.0
O4 O 0.10726 0.81098 0.30495 0.0
C5 C 0.03944 0.77385 0.22891 0.0
O6 O 1.03461 0.76395 0.25819 0.0
O7 O 0.0676 0.7857 0.21741 0.0
O8 O 0.10212 0.74161 0.2134 0.0
O9 O 0.15169 0.81621 0.25381 0.0
C10 C 0.16692 0.80655 0.27054 0.0
O11 O 0.15237 0.77599 0.27793 0.0
O12 O 0.08184 0.75957 0.28988 0.0
Mg13 Mg 0.29855 0.33827 0.24636 0.0
C14 C 0.3198 0.35409 0.31494 0.0
O15 O 0.29865 0.36346 0.31578 0.0
C16 C 0.30676 0.36075 0.18321 0.0
O17 O 0.27709 0.33675 0.18561 0.0
C18 C 0.26175 0.37155 0.25988 0.0
O19 O 0.28879 0.39458 0.24811 0.0
O20 O 0.25725 0.34312 0.26048 0.0
O21 O 0.32612 0.34527 0.28881 0.0
O22 O 0.29457 0.29456 0.22499 0.0
C23 C 0.32271 0.29871 0.22171 0.0
O24 O 0.34702 0.32549 0.23279 0.0
O25 O 0.32368 0.37075 0.2081 0.0
Mg26 Mg 0.75287 0.9789 0.2447 0.0
C27 C 0.76114 1.01728 0.30272 0.0
O28 O 0.79039 0.03177 0.29119 0.0
C29 C 0.73629 0.96638 0.17973 0.0
O30 O 0.76314 0.96621 0.18341 0.0
C31 C 0.75188 0.92904 0.2879 0.0
O32 O 0.76178 0.95363 0.30734 0.0
O33 O 0.74931 0.93332 0.2587 0.0
O34 O 0.73868 0.99468 0.28682 0.0
O35 O 0.79658 1.02109 0.22608 0.0
C36 C 0.79021 0.04266 0.21804 0.0
O37 O 0.76114 0.03732 0.2236 0.0
O38 O 0.72213 0.96865 0.20418 0.0
Mg39 Mg 0.10212 0.32843 0.74602 0.0
C40 C 0.03732 0.28689 0.72195 0.0
O41 O 0.03703 0.3105 0.7374 0.0
C42 C 0.16936 0.36501 0.76501 0.0
O43 O 0.15839 0.38489 0.76721 0.0
C44 C 0.10848 0.35481 0.68512 0.0
O45 O 0.11021 0.32865 0.68175 0.0
O46 O 0.10702 0.36438 0.71284 0.0
O47 O 0.06301 0.28553 0.72239 0.0
O48 O 0.08543 0.33151 0.7929 0.0
C49 C 0.06693 0.30499 0.8064 0.0
O50 O 0.05738 0.27801 0.79073 0.0
O51 O 0.15049 0.33663 0.75453 0.0
Mg52 Mg 0.75068 0.79021 0.74677 0.0
C53 C 0.71308 0.82255 0.76044 0.0
O54 O 0.69104 0.79389 0.75053 0.0
C55 C 0.8098 0.7848 0.73661 0.0
O56 O 0.80287 0.77501 0.76587 0.0
C57 C 0.75607 0.78373 0.81511 0.0
O58 O 0.76827 0.81482 0.81208 0.0
O59 O 0.74518 0.76575 0.79078 0.0
O60 O 0.74239 0.82984 0.75947 0.0
O61 O 0.7162 0.76014 0.7115 0.0
C62 C 0.71683 0.77536 0.68705 0.0
O63 O 0.73477 0.80684 0.68723 0.0
O64 O 0.79466 0.79693 0.7238 0.0
Mg65 Mg 0.3039 0.9806 0.74575 0.0
C66 C 0.33295 0.95609 0.6983 0.0
O67 O 0.30614 0.92908 0.70378 0.0
C68 C 0.30915 1.01573 0.80549 0.0
O69 O 0.28699 1.01825 0.79028 0.0
C70 C 0.32193 0.04385 0.72234 0.0
O71 O 0.34554 0.04748 0.74032 0.0
O72 O 0.29699 1.01594 0.71993 0.0
O73 O 0.34 0.98051 0.71547 0.0
O74 O 0.26591 0.93032 0.75438 0.0
C75 C 0.24909 0.92352 0.77945 0.0
O76 O 0.25132 0.94721 0.79692 0.0
O77 O 0.322 1.00131 0.7921 0.0
Mg78 Mg 0.76863 0.11665 0.57793 0.0
C79 C 0.74762 0.06198 0.53261 0.0
O80 O 0.72011 0.05426 0.54602 0.0
C81 C 0.76929 0.0952 0.64433 0.0
O82 O 0.7995 0.10639 0.63695 0.0
C83 C 0.70262 0.10453 0.5638 0.0
O84 O 0.69763 0.088 0.5897 0.0
O85 O 0.73151 0.12284 0.55473 0.0
O86 O 0.77323 0.08533 0.54396 0.0
O87 O 0.81671 0.15799 0.58826 0.0
C88 C 0.84013 0.15287 0.58689 0.0
O89 O 0.83481 0.12521 0.57537 0.0
O90 O 0.75028 0.09461 0.62347 0.0
Mg91 Mg 0.97052 0.67953 0.58441 0.0
C92 C 0.91739 0.67887 0.62339 0.0
O93 O 0.92651 0.66384 0.64249 0.0
C94 C 0.99575 0.64164 0.55661 0.0
O95 O 1.02024 0.66872 0.56693 0.0
C96 C 0.99129 0.66295 0.64366 0.0
O97 O 0.97523 0.6346 0.62993 0.0
O98 O 0.99509 0.68749 0.62909 0.0
O99 O 0.92911 0.68518 0.59562 0.0
O100 O 0.99802 0.71492 0.54909 0.0
C101 C 0.98225 0.70887 0.52359 0.0
O102 O 0.95208 0.68567 0.52348 0.0
O103 O 0.96757 0.63687 0.56152 0.0
Mg104 Mg 0.41603 0.31239 0.57908 0.0
C105 C 0.38845 0.30062 0.5183 0.0
O106 O 0.41215 0.29473 0.5172 0.0
C107 C 0.43759 0.33522 0.64219 0.0
O108 O 0.45802 0.32759 0.63022 0.0
C109 C 0.45278 0.37392 0.54956 0.0
O110 O 0.4258 0.37089 0.5602 0.0
O111 O 0.45857 0.35145 0.55542 0.0
O112 O 0.38014 0.30619 0.54508 0.0
O113 O 0.40769 0.26431 0.59054 0.0
C114 C 0.38338 0.24999 0.60875 0.0
O115 O 0.36762 0.26474 0.61601 0.0
O116 O 0.41483 0.33211 0.62486 0.0
Mg117 Mg 0.7746 0.66264 0.07487 0.0
C118 C 0.78853 0.695 0.01561 0.0
O119 O 0.7969 0.67314 0.01236 0.0
C120 C 0.74054 0.63915 0.13581 0.0
O121 O 0.73809 0.61285 0.12359 0.0
C122 C 0.71003 0.61883 0.05245 0.0
O123 O 0.7086 0.64084 0.06971 0.0
O124 O 0.73683 0.61975 0.05025 0.0
O125 O 0.77919 0.69881 0.04256 0.0
O126 O 0.82372 0.67287 0.08464 0.0
C127 C 0.82985 0.66402 0.11055 0.0
O128 O 0.80579 0.64423 0.12846 0.0
O129 O 0.75455 0.66496 0.12006 0.0
Mg130 Mg 0.42061 0.12463 0.07893 0.0
C131 C 0.3843 0.15505 0.10069 0.0
O132 O 0.36341 0.12409 0.09908 0.0
C133 C 0.45873 0.10086 0.05022 0.0
O134 O 0.43239 0.07647 0.06163 0.0
C135 C 0.4204 0.11399 0.14885 0.0
O136 O 0.42387 0.14277 0.14951 0.0
O137 O 0.41727 0.09989 0.12244 0.0
O138 O 0.41309 0.16472 0.0919 0.0
O139 O 0.38384 0.09511 0.04508 0.0
C140 C 0.38167 0.11066 0.02224 0.0
O141 O 0.3985 0.1422 0.02327 0.0
O142 O 0.46302 0.12903 0.05448 0.0
Mg143 Mg 0.97417 0.31629 0.08083 0.0
C144 C 0.99753 0.28687 0.03266 0.0
O145 O 0.96817 0.26268 0.03632 0.0
C146 C 0.9897 0.36026 0.13705 0.0
O147 O 0.97699 0.37245 0.11862 0.0
C148 C 0.9985 0.3765 0.04804 0.0
O149 O 1.02294 0.37601 0.06071 0.0
O150 O 0.97042 0.35257 0.05301 0.0
O151 O 1.00785 0.31089 0.05127 0.0
O152 O 0.93394 0.26814 0.09246 0.0
C153 C 0.94313 0.2527 0.10952 0.0
O154 O 0.97379 0.2665 0.11631 0.0
O155 O 0.99318 0.33736 0.1268 0.0
Mg156 Mg 0.43816 0.45257 0.90883 0.0
C157 C 0.46421 0.42859 0.85988 0.0
O158 O 0.4854 0.45947 0.86067 0.0
C159 C 0.40434 0.40837 0.9659 0.0
O160 O 0.40314 0.38518 0.94834 0.0
C161 C 0.37703 0.4283 0.8788 0.0
O162 O 0.37751 0.40464 0.89319 0.0
O163 O 0.40182 0.45636 0.88118 0.0
O164 O 0.44224 0.41718 0.88066 0.0
O165 O 0.48733 0.4911 0.92041 0.0
C166 C 0.49988 0.48024 0.93935 0.0
O167 O 0.48291 0.44983 0.94719 0.0
O168 O 0.41676 0.43651 0.95489 0.0
Mg169 Mg 0.63398 1.0023 0.91154 0.0
C170 C 0.6807 1.00351 0.96159 0.0
O171 O 0.69764 1.00368 0.93719 0.0
C172 C 0.68678 0.02954 0.8649 0.0
O173 O 0.6869 1.00386 0.87435 0.0
C174 C 0.60675 0.04118 0.936 0.0
O175 O 0.6378 0.05951 0.94036 0.0
O176 O 0.59643 1.01395 0.92241 0.0
O177 O 0.65493 1.00384 0.95726 0.0
O178 O 0.62226 0.95731 0.88642 0.0
C179 C 0.63094 0.93855 0.89767 0.0
O180 O 0.63873 0.94146 0.92759 0.0
O181 O 0.66799 0.0372 0.87843 0.0
Mg182 Mg 0.08991 0.64666 0.90984 0.0
C183 C 0.11205 0.66846 0.97473 0.0
O184 O 0.13625 0.66711 0.96213 0.0
C185 C 0.05475 0.66857 0.86977 0.0
O186 O 0.07602 0.6958 0.88305 0.0
C187 C 0.0543 0.5801 0.93077 0.0
O188 O 1.03545 0.59198 0.93556 0.0
O189 O 0.08139 0.59797 0.9175 0.0
O190 O 0.08803 0.66207 0.95764 0.0
O191 O 0.13272 0.68485 0.88531 0.0
C192 C 0.14473 0.71344 0.89617 0.0
O193 O 0.13445 0.71768 0.92352 0.0
O194 O 0.05216 0.64258 0.87952 0.0
Mg195 Mg 0.43745 0.99508 0.41219 0.0
C196 C 0.37433 0.95671 0.38477 0.0
O197 O 0.37718 0.98382 0.39508 0.0
C198 C 0.50682 0.03029 0.42618 0.0
O199 O 0.50075 0.0527 0.41757 0.0
C200 C 0.44649 1.01997 0.34974 0.0
O201 O 0.44725 0.9932 0.34764 0.0
O202 O 0.44471 0.03033 0.37697 0.0
O203 O 0.39756 0.9519 0.38974 0.0
O204 O 0.41995 1.0006 0.45773 0.0
C205 C 0.40055 0.97452 0.47145 0.0
O206 O 0.39073 0.94717 0.4564 0.0
O207 O 0.4843 1.00101 0.42412 0.0
Mg208 Mg 0.08486 0.45983 0.41424 0.0
C209 C 0.05042 0.49138 0.43809 0.0
O210 O 1.02989 0.46035 0.43945 0.0
C211 C 0.12002 0.43407 0.38293 0.0
O212 O 0.09287 0.41016 0.39355 0.0
C213 C 0.0876 0.45174 0.48416 0.0
O214 O 0.09404 0.48161 0.4839 0.0
O215 O 0.08191 0.43617 0.45829 0.0
O216 O 0.07818 0.50059 0.4265 0.0
O217 O 0.0474 0.42885 0.38157 0.0
C218 C 0.03854 0.44147 0.36085 0.0
O219 O 0.04795 0.47213 0.36329 0.0
O220 O 0.12636 0.46269 0.38915 0.0
Mg221 Mg 0.63426 0.64597 0.41166 0.0
C222 C 0.64514 0.63261 0.34907 0.0
O223 O 0.61794 0.63253 0.34955 0.0
C224 C 0.64218 0.67398 0.4728 0.0
O225 O 0.61666 0.67236 0.46019 0.0
C226 C 0.66465 0.71077 0.38933 0.0
O227 O 0.68654 0.70516 0.40061 0.0
O228 O 0.63534 0.6883 0.39104 0.0
O229 O 0.65956 0.63611 0.37504 0.0
O230 O 0.59134 0.6002 0.42432 0.0
C231 C 0.59675 0.57704 0.4268 0.0
O232 O 0.62519 0.58208 0.41866 0.0
O233 O 0.65761 0.66384 0.4567 0.0
H234 H 0.07384 0.71769 0.16087 0.0
H235 H 0.17014 0.73465 0.16806 0.0
H236 H 0.06973 0.69714 0.10775 0.0
H237 H 0.16534 0.71155 0.11554 0.0
H238 H 0.16447 0.70977 0.00871 0.0
H239 H 0.16685 0.72474 0.06392 0.0
H240 H 0.06451 0.65924 0.07219 0.0
H241 H 0.06217 0.64651 0.01616 0.0
C242 C 0.0938 0.71598 0.1514 0.0
C243 C 0.1224 0.7279 0.16853 0.0
C244 C 0.09142 0.70402 0.1208 0.0
C245 C 0.11733 0.70289 0.1068 0.0
C246 C 0.14521 0.71293 0.12493 0.0
C247 C 0.14789 0.72577 0.15525 0.0
C248 C 0.14252 0.69877 0.02242 0.0
C249 C 0.11311 0.67727 0.00824 0.0
C250 C 0.14386 0.70699 0.05427 0.0
C251 C 0.1159 0.69315 0.07299 0.0
C252 C 0.08651 0.67105 0.05866 0.0
C253 C 0.08508 0.66357 0.02653 0.0
H254 H 0.366 0.35029 0.9939 0.0
H255 H 0.41303 0.45265 0.0112 0.0
H256 H 0.34297 0.34064 0.04693 0.0
H257 H 0.38998 0.44291 0.06406 0.0
H258 H 0.36865 0.40668 0.1683 0.0
H259 H 0.39324 0.41887 0.1158 0.0
H260 H 0.30214 0.35029 0.07451 0.0
H261 H 0.27758 0.33817 0.12652 0.0
C262 C 0.37151 0.37069 0.00902 0.0
C263 C 0.39118 0.4022 -0.0017 0.0
C264 C 0.35821 0.36518 0.03929 0.0
C265 C 0.3646 0.39107 0.05951 0.0
C266 C 0.38481 0.42254 0.04904 0.0
C267 C 0.39782 0.42805 0.01869 0.0
C268 C 0.35382 0.39455 0.14797 0.0
C269 C 0.32121 0.37139 0.15162 0.0
C270 C 0.36789 0.40149 0.11796 0.0
C271 C 0.34964 0.38517 0.09118 0.0
C272 C 0.31688 0.36279 0.09479 0.0
C273 C 0.3028 0.35608 0.12462 0.0
H274 H 0.67854 0.95855 0.16073 0.0
H275 H 0.77224 0.98209 0.12654 0.0
H276 H 0.66425 0.9665 0.10781 0.0
H277 H 0.7589 0.99173 0.07464 0.0
H278 H 0.71822 0.97887 0.9774 0.0
H279 H 0.72926 0.96723 0.02976 0.0
H280 H 0.67387 1.00627 0.07067 0.0
H281 H 0.66141 1.01624 0.01791 0.0
C282 C 0.69602 0.9654 0.14193 0.0
C283 C 0.72636 0.96939 0.14773 0.0
C284 C 0.68801 0.97028 0.11167 0.0
C285 C 0.71039 0.97976 0.08677 0.0
C286 C 0.7407 0.98371 0.09285 0.0
C287 C 0.74845 0.97831 0.12279 0.0
C288 C 0.70857 0.98514 -0.00241 0.0
C289 C 0.68912 0.99863 0.99358 0.0
C290 C 0.71495 0.97854 0.02771 0.0
C291 C 0.70259 0.9859 0.05465 0.0
C292 C 0.68335 0.99973 0.05055 0.0
C293 C 0.67647 1.00578 0.02033 0.0
H294 H 0.69671 0.02697 0.49353 0.0
H295 H 0.79952 0.06943 0.49926 0.0
H296 H 0.6984 1.01538 0.43783 0.0
H297 H 0.8011 0.0567 0.44375 0.0
H298 H 0.79999 0.06955 0.33877 0.0
H299 H 0.79558 0.0771 0.39498 0.0
H300 H 0.7075 0.98525 0.39843 0.0
H301 H 0.71142 0.97829 0.34178 0.0
C302 C 0.7196 0.03308 0.4831 0.0
C303 C 0.74805 0.04939 0.50076 0.0
C304 C 0.72056 0.02641 0.45109 0.0
C305 C 0.74995 0.03561 0.4361 0.0
C306 C 0.77814 0.05009 0.45431 0.0
C307 C 0.77722 0.05707 0.48624 0.0
C308 C 0.77948 0.05114 0.35147 0.0
C309 C 0.75606 0.02336 0.33588 0.0
C310 C 0.77714 0.05526 0.38379 0.0
C311 C 0.7515 0.0315 0.40142 0.0
C312 C 0.7275 1.00411 0.3856 0.0
C313 C 0.72969 1.00014 0.35311 0.0
H314 H 0.95463 0.69869 0.4658 0.0
H315 H 0.04612 0.75167 0.51306 0.0
H316 H 0.9812 0.71706 0.41512 0.0
H317 H 0.07279 0.76998 0.46198 0.0
H318 H 0.10218 0.81872 0.36389 0.0
H319 H 0.07694 0.80367 0.41575 0.0
H320 H 1.01763 0.70575 0.38311 0.0
H321 H 0.04262 0.72075 0.33117 0.0
C322 C 0.9804 0.71451 0.46543 0.0
C323 C 0.99829 0.72357 0.49348 0.0
C324 C 0.99563 0.72482 0.43633 0.0
C325 C 1.02909 0.74455 0.43457 0.0
C326 C 0.04693 0.7548 0.46265 0.0
C327 C 1.03167 0.74433 0.49187 0.0
C328 C 0.08381 0.79394 0.36779 0.0
C329 C 0.07429 0.77093 0.34338 0.0
C330 C 0.06949 0.78534 0.39754 0.0
C331 C 0.04519 0.75362 0.4034 0.0
C332 C 0.03599 0.73051 0.37913 0.0
C333 C 0.05045 0.73905 0.34945 0.0
H334 H 0.33665 0.30863 0.50948 0.0
H335 H 0.4147 0.30776 0.46017 0.0
H336 H 0.32029 0.32212 0.4603 0.0
H337 H 0.39971 0.3228 0.412 0.0
H338 H 0.34747 0.31772 0.32304 0.0
H339 H 0.36187 0.30333 0.37217 0.0
H340 H 0.33463 0.36383 0.42348 0.0
H341 H 0.31854 0.3769 0.37405 0.0
C342 C 0.35023 0.31125 0.48817 0.0
C343 C 0.37671 0.30677 0.48866 0.0
C344 C 0.34113 0.31935 0.46006 0.0
C345 C 0.35863 0.32355 0.43202 0.0
C346 C 0.38513 0.31908 0.43279 0.0
C347 C 0.39384 0.31052 0.46059 0.0
C348 C 0.34483 0.32823 0.34475 0.0
C349 C 0.33196 0.34855 0.34463 0.0
C350 C 0.35318 0.32002 0.37304 0.0
C351 C 0.34949 0.3324 0.40197 0.0
C352 C 0.33727 0.35335 0.40177 0.0
C353 C 0.3284 0.36116 0.37341 0.0
H354 H 0.10091 0.34878 0.85277 0.0
H355 H 1.01402 0.25833 0.83581 0.0
H356 H 0.089 0.34412 0.90908 0.0
H357 H 1.00084 0.25444 0.89155 0.0
H358 H 0.99292 0.23885 0.99455 0.0
H359 H 1.01285 0.24381 0.94076 0.0
H360 H 0.05704 0.34716 0.948 0.0
H361 H 0.03894 0.34206 0.00224 0.0
C362 C 0.07894 0.3282 0.86109 0.0
C363 C 0.05837 0.30392 0.84 0.0
C364 C 0.07203 0.32548 0.89339 0.0
C365 C 0.04403 0.29872 0.90521 0.0
C366 C 1.02312 0.27492 0.88372 0.0
C367 C 1.03041 0.27731 0.85161 0.0
C368 C 1.0076 0.26261 0.98479 0.0
C369 C 1.01437 0.29001 0.00256 0.0
C370 C 1.01866 0.26552 0.95377 0.0
C371 C 0.03602 0.29589 0.93953 0.0
C372 C 0.04407 0.32337 0.95801 0.0
C373 C 1.03365 0.32047 0.98925 0.0
H374 H 0.76473 0.73574 0.01185 0.0
H375 H 0.80555 0.69007 0.95547 0.0
H376 H 0.75503 0.75716 0.96394 0.0
H377 H 0.79614 0.71163 0.90797 0.0
H378 H 0.74099 0.72228 0.82799 0.0
H379 H 0.74881 0.70211 0.87752 0.0
H380 H 0.78428 0.79555 0.92075 0.0
H381 H 0.77608 0.81567 0.87139 0.0
C382 C 0.77199 0.73061 0.98933 0.0
C383 C 0.78577 0.71109 0.98744 0.0
C384 C 0.76642 0.74285 0.96193 0.0
C385 C 0.77442 0.73567 0.9322 0.0
C386 C 0.78908 0.71699 0.93049 0.0
C387 C 0.79473 0.70488 0.95777 0.0
C388 C 0.75014 0.73844 0.84813 0.0
C389 C 0.75809 0.77061 0.84571 0.0
C390 C 0.75485 0.72696 0.87642 0.0
C391 C 0.76748 0.74738 0.90289 0.0
C392 C 0.77438 0.77923 0.90079 0.0
C393 C 0.7698 0.79076 0.87247 0.0
H394 H 0.35889 0.04782 0.00525 0.0
H395 H 0.36822 0.1364 0.97214 0.0
H396 H 0.33888 0.02312 0.95348 0.0
H397 H 0.34864 0.11188 0.92053 0.0
H398 H 0.28772 0.04978 0.83887 0.0
H399 H 0.30104 0.07005 0.89278 0.0
H400 H 0.36318 0.03048 0.89999 0.0
H401 H 0.34956 1.00977 0.84605 0.0
C402 C 0.35619 0.06185 0.98711 0.0
C403 C 0.36523 0.0941 0.99273 0.0
C404 C 0.34505 0.0478 0.9574 0.0
C405 C 0.34246 0.06565 0.93288 0.0
C406 C 0.35015 0.09743 0.93899 0.0
C407 C 0.36148 0.11151 0.96855 0.0
C408 C 0.3042 0.04534 0.85192 0.0
C409 C 0.3177 0.02828 0.83811 0.0
C410 C 0.31186 0.05702 0.8828 0.0
C411 C 0.33311 0.05183 0.90063 0.0
C412 C 0.34639 0.0345 0.88696 0.0
C413 C 0.33883 0.0229 0.85598 0.0
H414 H 0.37042 1.01197 0.66682 0.0
H415 H 0.33234 0.9096 0.66062 0.0
H416 H 0.38806 1.01762 0.61231 0.0
H417 H 0.35157 0.91535 0.60649 0.0
H418 H 0.34852 0.92756 0.50167 0.0
H419 H 0.33597 0.92418 0.55753 0.0
H420 H 0.42184 1.01627 0.57331 0.0
H421 H 0.43337 1.02023 0.51687 0.0
C422 C 0.36672 0.99077 0.65409 0.0
C423 C 0.34973 0.96026 0.66792 0.0
C424 C 0.37688 0.99401 0.62273 0.0
C425 C 0.37074 0.96687 0.60462 0.0
C426 C 0.35581 0.93668 0.61931 0.0
C427 C 0.34514 0.93337 0.6505 0.0
C428 C 0.36454 0.94721 0.51706 0.0
C429 C 0.39185 0.97418 0.50494 0.0
C430 C 0.3576 0.94511 0.54922 0.0
C431 C 0.37816 0.96968 0.57023 0.0
C432 C 0.40528 0.99698 0.55792 0.0
C433 C 0.41192 0.99931 0.52556 0.0
H434 H 0.1261 0.41791 0.67634 0.0
H435 H 0.0806 0.32486 0.63054 0.0
H436 H 0.12081 0.4418 0.62784 0.0
H437 H 0.0735 0.34789 0.58312 0.0
H438 H 0.09682 0.40114 0.49174 0.0
H439 H 0.10231 0.3791 0.54083 0.0
H440 H 0.0859 0.44686 0.59335 0.0
H441 H 0.08227 0.47006 0.54395 0.0
C442 C 0.11468 0.4026 0.65599 0.0
C443 C 0.10425 0.36973 0.65693 0.0
C444 C 0.11142 0.41615 0.62827 0.0
C445 C 0.09705 0.39687 0.60127 0.0
C446 C 0.08562 0.36375 0.60293 0.0
C447 C 0.08951 0.35045 0.63024 0.0
C448 C 0.09424 0.4112 0.51379 0.0
C449 C 0.08903 0.43722 0.51404 0.0
C450 C 0.09722 0.39848 0.54203 0.0
C451 C 0.09435 0.411 0.57126 0.0
C452 C 0.08878 0.43689 0.5714 0.0
C453 C 0.08641 0.45003 0.54309 0.0
H454 H 0.68697 0.67239 0.51092 0.0
H455 H 0.61949 0.70591 0.50737 0.0
H456 H 0.70253 0.69502 0.5643 0.0
H457 H 0.63501 0.7283 0.56028 0.0
H458 H 0.70436 0.79975 0.63533 0.0
H459 H 0.68545 0.77383 0.58404 0.0
H460 H 0.67734 0.68673 0.6198 0.0
H461 H 0.69626 0.71268 0.67141 0.0
C462 C 0.6755 0.68454 0.52149 0.0
C463 C 0.65211 0.68747 0.50492 0.0
C464 C 0.6842 0.69724 0.55206 0.0
C465 C 0.66994 0.71338 0.56633 0.0
C466 C 0.64654 0.71618 0.54975 0.0
C467 C 0.63763 0.70326 0.51946 0.0
C468 C 0.69818 0.77495 0.6324 0.0
C469 C 0.70173 0.75823 0.65738 0.0
C470 C 0.68732 0.76012 0.60305 0.0
C471 C 0.68012 0.72836 0.59796 0.0
C472 C 0.68305 0.71135 0.62307 0.0
C473 C 0.69354 0.72609 0.65263 0.0
H474 H 0.51008 0.44273 0.81528 0.0
H475 H 0.41224 0.37248 0.83925 0.0
H476 H 0.50308 0.41758 0.76353 0.0
H477 H 0.40531 0.3472 0.78734 0.0
H478 H 0.39621 0.34622 0.67741 0.0
H479 H 0.40284 0.36489 0.73224 0.0
H480 H 0.49326 0.36752 0.73659 0.0
H481 H 0.48687 0.34917 0.68201 0.0
C482 C 0.48728 0.42151 0.80973 0.0
C483 C 0.46171 0.40966 0.83129 0.0
C484 C 0.48328 0.40709 0.78009 0.0
C485 C 0.45354 0.38064 0.7713 0.0
C486 C 0.42836 0.36784 0.79337 0.0
C487 C 0.43247 0.38209 0.82319 0.0
C488 C 0.41746 0.35077 0.6901 0.0
C489 C 0.44108 0.3464 0.67531 0.0
C490 C 0.42112 0.36116 0.72155 0.0
C491 C 0.44856 0.3676 0.73868 0.0
C492 C 0.472 0.36298 0.72392 0.0
C493 C 0.46826 0.35241 0.69264 0.0
H494 H 0.80464 0.09634 0.69463 0.0
H495 H 0.70966 0.0754 0.66881 0.0
H496 H 0.78786 0.08522 0.74953 0.0
H497 H 0.69275 0.06373 0.72375 0.0
H498 H 0.67975 0.07222 0.82866 0.0
H499 H 0.70151 0.09043 0.77579 0.0
H500 H 0.75261 0.03883 0.78133 0.0
H501 H 0.73148 1.0212 0.83403 0.0
C502 C 0.78011 0.08914 0.70061 0.0
C503 C 0.75845 0.08663 0.67731 0.0
C504 C 0.77051 0.08278 0.73209 0.0
C505 C 0.73904 0.07377 0.74101 0.0
C506 C 0.71733 0.07116 0.7177 0.0
C507 C 0.72692 0.07749 0.68618 0.0
C508 C 0.69616 0.06535 0.81881 0.0
C509 C 0.70375 0.04513 0.83544 0.0
C510 C 0.70833 0.07548 0.78843 0.0
C511 C 0.72847 0.06575 0.77426 0.0
C512 C 0.73733 0.04692 0.79161 0.0
C513 C 0.7251 0.03672 0.82183 0.0
H514 H 0.07169 0.72009 0.83217 0.0
H515 H 1.00625 0.61774 0.83784 0.0
H516 H 0.05585 0.71942 0.77793 0.0
H517 H 0.98918 0.61723 0.78382 0.0
H518 H 0.99808 0.61913 0.67716 0.0
H519 H 1.01055 0.62116 0.73285 0.0
H520 H 1.01663 0.71338 0.74172 0.0
H521 H 1.00553 0.71186 0.68558 0.0
C522 C 0.05322 0.69755 0.82212 0.0
C523 C 0.04039 0.66889 0.83925 0.0
C524 C 0.04407 0.69717 0.79091 0.0
C525 C 1.02154 0.66819 0.7762 0.0
C526 C 1.00725 0.63986 0.79406 0.0
C527 C 1.01673 0.64017 0.82516 0.0
C528 C 1.00232 0.63993 0.69098 0.0
C529 C 1.00098 0.66539 0.67698 0.0
C530 C 1.0091 0.64095 0.72304 0.0
C531 C 1.01425 0.66726 0.74202 0.0
C532 C 1.01316 0.69288 0.72785 0.0
C533 C 1.0068 0.69204 0.69564 0.0
H534 H 0.69635 0.62405 0.33754 0.0
H535 H 0.62717 0.64118 0.29137 0.0
H536 H 0.72115 0.6261 0.28619 0.0
H537 H 0.65206 0.64357 0.2407 0.0
H538 H 0.72913 0.68387 0.16325 0.0
H539 H 0.70741 0.68225 0.2159 0.0
H540 H 0.70279 0.59218 0.23343 0.0
H541 H 0.72419 0.59351 0.18071 0.0
C542 C 0.68644 0.62816 0.31652 0.0
C543 C 0.65981 0.63238 0.31848 0.0
C544 C 0.70056 0.62929 0.28723 0.0
C545 C 0.6886 0.63526 0.25965 0.0
C546 C 0.66196 0.63934 0.26168 0.0
C547 C 0.64759 0.6377 0.29071 0.0
C548 C 0.72358 0.66379 0.17837 0.0
C549 C 0.72813 0.63872 0.16781 0.0
C550 C 0.71113 0.66284 0.20842 0.0
C551 C 0.70348 0.63708 0.2286 0.0
C552 C 0.70873 0.6124 0.21836 0.0
C553 C 0.72072 0.61308 0.18813 0.0
H554 H 0.43624 0.06771 0.15532 0.0
H555 H 0.4109 0.12824 0.20892 0.0
H556 H 0.44411 0.04662 0.20396 0.0
H557 H 0.41693 0.10585 0.25777 0.0
H558 H 0.45987 0.08183 0.34109 0.0
H559 H 0.45392 0.10494 0.29244 0.0
H560 H 0.41727 1.01287 0.24543 0.0
H561 H 0.42501 0.99073 0.29312 0.0
C562 C 0.43179 0.07607 0.17755 0.0
C563 C 0.42287 0.09953 0.17834 0.0
C564 C 0.43618 0.0639 0.20553 0.0
C565 C 0.43107 0.07439 0.235 0.0
C566 C 0.42168 0.09759 0.23565 0.0
C567 C 0.4179 0.11021 0.20763 0.0
C568 C 0.45079 0.06676 0.32019 0.0
C569 C 0.44329 0.03465 0.32076 0.0
C570 C 0.4471 0.07985 0.29236 0.0
C571 C 0.43524 0.06086 0.26477 0.0
C572 C 0.42729 0.02857 0.26578 0.0
C573 C 0.43158 1.01577 0.29327 0.0
H574 H 1.00302 0.45199 0.31835 0.0
H575 H 0.0455 0.39358 0.33475 0.0
H576 H 0.98866 0.42998 0.26505 0.0
H577 H 1.03323 0.37314 0.28105 0.0
H578 H 0.99009 0.32589 0.18736 0.0
H579 H 0.99685 0.34183 0.24274 0.0
H580 H 1.013 0.43525 0.21667 0.0
H581 H 1.00412 0.41831 0.16165 0.0
C582 C 1.00902 0.43421 0.31058 0.0
C583 C 1.02527 0.42445 0.33068 0.0
C584 C 1.00122 0.42189 0.27987 0.0
C585 C 1.01028 0.40015 0.2683 0.0
C586 C 1.02544 0.38948 0.28901 0.0
C587 C 1.03255 0.40124 0.31992 0.0
C588 C 0.99524 0.34987 0.19357 0.0
C589 C 0.99664 0.3709 0.17026 0.0
C590 C 0.99918 0.3591 0.22536 0.0
C591 C 1.00532 0.38985 0.23448 0.0
C592 C 1.00743 0.41107 0.21086 0.0
C593 C 1.00276 0.40156 0.17919 0.0
H594 H 0.32212 0.9622 0.3735 0.0
H595 H 0.36012 0.89976 0.3547 0.0
H596 H 0.27444 0.92674 0.34348 0.0
H597 H 0.31206 0.86412 0.3238 0.0
H598 H 0.20446 0.79101 0.30481 0.0
H599 H 0.25537 0.82678 0.33029 0.0
H600 H 0.25479 0.90855 0.2911 0.0
H601 H 0.20313 0.87254 0.26605 0.0
C602 C 0.32042 0.9409 0.36284 0.0
C603 C 0.34509 0.93386 0.36668 0.0
C604 C 0.29303 0.92064 0.34526 0.0
C605 C 0.28933 0.89261 0.33085 0.0
C606 C 0.31394 0.8854 0.33472 0.0
C607 C 0.34154 0.90582 0.3524 0.0
C608 C 0.21521 0.81662 0.30137 0.0
C609 C 0.19946 0.82886 0.2835 0.0
C610 C 0.24466 0.83717 0.31588 0.0
C611 C 0.2593 0.87065 0.313 0.0
C612 C 0.24403 0.88291 0.29429 0.0
C613 C 0.21448 0.86227 0.27972 0.0
H614 H 0.26149 0.42783 0.25606 0.0
H615 H 0.21186 0.3349 0.3002 0.0
H616 H 0.22786 0.44376 0.28469 0.0
H617 H 0.17885 0.35113 0.32972 0.0
H618 H 0.10403 0.3767 0.35594 0.0
H619 H 0.13704 0.36196 0.32525 0.0
H620 H 0.21744 0.45868 0.33521 0.0
H621 H 0.18356 0.47383 0.36542 0.0
C622 C 0.24332 0.41071 0.27186 0.0
C623 C 0.2393 0.37995 0.27564 0.0
C624 C 0.22419 0.42003 0.28858 0.0
C625 C 0.20056 0.39892 0.30977 0.0
C626 C 0.19638 0.36799 0.3133 0.0
C627 C 0.21537 0.3586 0.29637 0.0
C628 C 0.12877 0.39498 0.35169 0.0
C629 C 0.14115 0.42649 0.36344 0.0
C630 C 0.14786 0.38638 0.33414 0.0
C631 C 0.18018 0.40888 0.3279 0.0
C632 C 0.19259 0.44065 0.33925 0.0
C633 C 0.17324 0.44939 0.35671 0.0
H634 H 0.75995 0.91419 0.34748 0.0
H635 H 0.71561 0.86983 0.25866 0.0
H636 H 0.73679 0.86162 0.37135 0.0
H637 H 0.6925 0.81662 0.28276 0.0
H638 H 0.63097 0.72906 0.35026 0.0
H639 H 0.65174 0.78125 0.32418 0.0
H640 H 0.74375 0.81536 0.36818 0.0
H641 H 0.72328 0.76427 0.39409 0.0
C642 C 0.74551 0.89318 0.33287 0.0
C643 C 0.73992 0.89638 0.30101 0.0
C644 C 0.73219 0.86291 0.34663 0.0
C645 C 0.71273 0.83476 0.32904 0.0
C646 C 0.70711 0.8378 0.29709 0.0
C647 C 0.72069 0.86828 0.28317 0.0
C648 C 0.6555 0.74787 0.3545 0.0
C649 C 0.67534 0.74242 0.37442 0.0
C650 C 0.66752 0.77764 0.33934 0.0
C651 C 0.69945 0.80261 0.34413 0.0
C652 C 0.71897 0.79698 0.3642 0.0
C653 C 0.70716 0.76746 0.37902 0.0
H654 H 0.85022 0.06021 0.19397 0.0
H655 H 0.78305 0.09358 0.20481 0.0
H656 H 0.8866 0.10929 0.16522 0.0
H657 H 0.81929 0.14242 0.17708 0.0
H658 H 0.87738 0.21566 0.10238 0.0
H659 H 0.84101 0.16389 0.12672 0.0
H660 H 0.92149 0.16579 0.17222 0.0
H661 H 0.95761 0.21667 0.14737 0.0
C662 C 0.84331 0.07805 0.19047 0.0
C663 C 0.81367 0.07283 0.20177 0.0
C664 C 0.86417 0.10626 0.174 0.0
C665 C 0.8559 0.12994 0.16851 0.0
C666 C 0.82633 0.12462 0.18011 0.0
C667 C 0.80559 0.09657 0.19638 0.0
C668 C 0.88728 0.20488 0.11739 0.0
C669 C 0.92045 0.22052 0.12292 0.0
C670 C 0.86642 0.17524 0.13155 0.0
C671 C 0.87818 0.1605 0.15168 0.0
C672 C 0.91144 0.17597 0.15663 0.0
C673 C 0.93221 0.20544 0.14247 0.0
H674 H 0.88526 0.71579 0.08705 0.0
H675 H 0.84969 0.64841 0.1638 0.0
H676 H 0.93751 0.74588 0.1134 0.0
H677 H 0.90142 0.67808 0.18969 0.0
H678 H 0.97888 0.75583 0.24788 0.0
H679 H 0.93016 0.73046 0.21655 0.0
H680 H 0.98598 0.74361 0.13229 0.0
H681 H 1.03526 0.7695 0.16388 0.0
C682 C 0.88868 0.70707 0.10921 0.0
C683 C 0.86308 0.67978 0.12339 0.0
C684 C 0.91862 0.72436 0.12433 0.0
C685 C 0.92349 0.71482 0.15401 0.0
C686 C 0.89833 0.68665 0.16728 0.0
C687 C 0.86864 0.66943 0.15223 0.0
C688 C 0.98096 0.75385 0.22261 0.0
C689 C 1.01106 0.76452 0.2085 0.0
C690 C 0.95292 0.739 0.20464 0.0
C691 C 0.95403 0.73426 0.17197 0.0
C692 C 0.98425 0.74678 0.15741 0.0
C693 C 1.01251 0.76173 0.17551 0.0
H694 H 0.3781 0.2974 0.22197 0.0
H695 H 0.28324 0.24875 0.18139 0.0
H696 H 0.39217 0.26371 0.1912 0.0
H697 H 0.29768 0.21517 0.1496 0.0
H698 H 0.32528 0.13915 0.12359 0.0
H699 H 0.30943 0.17291 0.15189 0.0
H700 H 0.40467 0.25465 0.13935 0.0
H701 H 0.42089 0.22038 0.11174 0.0
C702 C 0.36015 0.27946 0.20638 0.0
C703 C 0.32946 0.27583 0.20421 0.0
C704 C 0.36841 0.26028 0.1884 0.0
C705 C 0.34634 0.23688 0.16743 0.0
C706 C 0.31533 0.23278 0.16561 0.0
C707 C 0.30697 0.252 0.18385 0.0
C708 C 0.34291 0.16438 0.12665 0.0
C709 C 0.37451 0.17695 0.11548 0.0
C710 C 0.33366 0.18386 0.1428 0.0
C711 C 0.35569 0.2166 0.14823 0.0
C712 C 0.38711 0.22942 0.13621 0.0
C713 C 0.39642 0.20984 0.12011 0.0
H714 H 0.85993 0.21132 0.616 0.0
H715 H 0.89043 0.14309 0.5954 0.0
H716 H 0.90838 0.24339 0.64717 0.0
H717 H 0.93797 0.17422 0.62748 0.0
H718 H 1.03445 0.25134 0.66934 0.0
H719 H 0.98853 0.22091 0.63423 0.0
H720 H 0.93017 0.24239 0.69599 0.0
H721 H 0.9761 0.27347 0.73002 0.0
C722 C 0.87702 0.20323 0.61796 0.0
C723 C 0.8711 0.17453 0.60318 0.0
C724 C 0.90473 0.22144 0.63617 0.0
C725 C 0.92716 0.21131 0.64038 0.0
C726 C 0.92163 0.18312 0.62471 0.0
C727 C 0.89412 0.1651 0.60632 0.0
C728 C 1.01167 0.24916 0.67551 0.0
C729 C 1.00897 0.26483 0.70248 0.0
C730 C 0.98527 0.23176 0.65536 0.0
C731 C 0.95547 0.22939 0.66187 0.0
C732 C 0.95276 0.24429 0.6895 0.0
C733 C 0.97911 0.26186 0.70933 0.0
H734 H 0.8843 0.66468 0.67879 0.0
H735 H 0.90847 0.72595 0.59773 0.0
H736 H 0.85984 0.6925 0.70391 0.0
H737 H 0.88455 0.75457 0.62337 0.0
H738 H 0.8114 0.77844 0.67201 0.0
H739 H 0.83606 0.75262 0.64243 0.0
H740 H 0.87726 0.74314 0.72867 0.0
H741 H 0.85206 0.768 0.75808 0.0
C742 C 0.88422 0.684 0.66618 0.0
C743 C 0.89854 0.69311 0.63626 0.0
C744 C 0.87047 0.70027 0.68079 0.0
C745 C 0.87078 0.72639 0.66608 0.0
C746 C 0.88382 0.73463 0.63548 0.0
C747 C 0.89751 0.71816 0.62073 0.0
C748 C 0.82624 0.77139 0.68452 0.0
C749 C 0.82956 0.77513 0.7175 0.0
C750 C 0.84033 0.75647 0.66755 0.0
C751 C 0.85813 0.74505 0.68317 0.0
C752 C 0.86294 0.75064 0.71587 0.0
C753 C 0.84876 0.76529 0.73276 0.0
H754 H 0.35056 0.10502 0.74375 0.0
H755 H 0.30446 0.04688 0.6613 0.0
H756 H 0.36445 0.15349 0.71436 0.0
H757 H 0.31925 0.09599 0.63135 0.0
H758 H 0.39655 0.20262 0.58993 0.0
H759 H 0.37831 0.15059 0.61565 0.0
H760 H 0.3296 0.17477 0.68673 0.0
H761 H 0.34697 0.22579 0.66119 0.0
C762 C 0.34309 0.10262 0.71936 0.0
C763 C 0.32607 0.07215 0.70494 0.0
C764 C 0.35117 0.13038 0.70251 0.0
C765 C 0.34315 0.12854 0.67052 0.0
C766 C 0.32592 0.09808 0.65595 0.0
C767 C 0.3171 0.07003 0.67315 0.0
C768 C 0.38187 0.19669 0.61097 0.0
C769 C 0.37329 0.21842 0.62348 0.0
C770 C 0.37123 0.16686 0.62551 0.0
C771 C 0.35245 0.15864 0.65313 0.0
C772 C 0.34401 0.18042 0.6655 0.0
C773 C 0.35402 0.2097 0.65077 0.0
H774 H 0.2495 0.86945 0.75778 0.0
H775 H 0.20882 0.90202 0.83001 0.0
H776 H 0.22626 0.81719 0.78386 0.0
H777 H 0.18563 0.85026 0.85557 0.0
H778 H 0.18331 0.7747 0.91654 0.0
H779 H 0.20792 0.8235 0.88563 0.0
H780 H 0.17495 0.76695 0.79994 0.0
H781 H 0.15036 0.71757 0.83121 0.0
C782 C 0.23519 0.86534 0.77886 0.0
C783 C 0.23132 0.89015 0.79191 0.0
C784 C 0.22191 0.83538 0.79382 0.0
C785 C 0.20463 0.82969 0.82222 0.0
C786 C 0.1995 0.85401 0.83423 0.0
C787 C 0.21263 0.88372 0.81936 0.0
C788 C 0.18169 0.77253 0.89108 0.0
C789 C 0.16472 0.74216 0.87642 0.0
C790 C 0.19558 0.80059 0.87332 0.0
C791 C 0.19281 0.79927 0.84028 0.0
C792 C 0.17749 0.76887 0.82533 0.0
C793 C 0.16353 0.74056 0.84325 0.0
H794 H 0.19996 0.33005 0.76884 0.0
H795 H 0.21293 0.42373 0.78925 0.0
H796 H 0.25189 0.34677 0.79304 0.0
H797 H 0.26403 0.44004 0.81412 0.0
H798 H 0.36692 0.46818 0.84001 0.0
H799 H 0.31889 0.45364 0.80871 0.0
H800 H 0.27371 0.35704 0.84467 0.0
H801 H 0.32126 0.37117 0.87491 0.0
C802 C 0.21391 0.35422 0.77831 0.0
C803 C 0.20204 0.37538 0.77723 0.0
C804 C 0.24364 0.36382 0.79242 0.0
C805 C 0.26223 0.39478 0.80592 0.0
C806 C 0.25075 0.4162 0.80379 0.0
C807 C 0.22117 0.40666 0.78965 0.0
C808 C 0.3467 0.44388 0.84114 0.0
C809 C 0.34811 0.42094 0.86003 0.0
C810 C 0.3191 0.43549 0.82324 0.0
C811 C 0.29232 0.40397 0.82383 0.0
C812 C 0.29393 0.38127 0.84287 0.0
C813 C 0.3213 0.38958 0.86058 0.0
H814 H 0.65612 0.82061 0.75427 0.0
H815 H 0.74629 0.87092 0.80387 0.0
H816 H 0.63561 0.84884 0.786 0.0
H817 H 0.72563 0.89914 0.83581 0.0
H818 H 0.66175 0.90638 0.91311 0.0
H819 H 0.68295 0.88143 0.87783 0.0
H820 H 0.6431 0.90359 0.79804 0.0
H821 H 0.62195 0.92898 0.83344 0.0
C822 C 0.67176 0.83808 0.77165 0.0
C823 C 0.70286 0.84346 0.77654 0.0
C824 C 0.65998 0.85431 0.78979 0.0
C825 C 0.67882 0.87601 0.81367 0.0
C826 C 0.71035 0.88225 0.81786 0.0
C827 C 0.72233 0.86634 0.79935 0.0
C828 C 0.65713 0.90571 0.88809 0.0
C829 C 0.63995 0.91966 0.87622 0.0
C830 C 0.66967 0.8917 0.86781 0.0
C831 C 0.66511 0.89086 0.83506 0.0
C832 C 0.64705 0.90384 0.82317 0.0
C833 C 0.6348 0.91828 0.84347 0.0
H834 H 0.51685 0.39909 0.53398 0.0
H835 H 0.43646 0.41299 0.52011 0.0
H836 H 0.55091 0.4477 0.50354 0.0
H837 H 0.46963 0.46022 0.48899 0.0
H838 H 0.54403 0.56303 0.46332 0.0
H839 H 0.51017 0.51393 0.49259 0.0
H840 H 0.56305 0.47152 0.45327 0.0
H841 H 0.5975 0.52099 0.4251 0.0
C842 C 0.50639 0.4123 0.52422 0.0
C843 C 0.47402 0.40227 0.52983 0.0
C844 C 0.52583 0.44013 0.50659 0.0
C845 C 0.51324 0.45835 0.49387 0.0
C846 C 0.48061 0.4476 0.49896 0.0
C847 C 0.46143 0.4202 0.51675 0.0
C848 C 0.54816 0.54309 0.46067 0.0
C849 C 0.57349 0.54603 0.44181 0.0
C850 C 0.5287 0.51478 0.47746 0.0
C851 C 0.53378 0.48847 0.47557 0.0
C852 C 0.55867 0.49128 0.456 0.0
C853 C 0.57828 0.51965 0.4395 0.0
H854 H 0.63908 0.06518 0.5767 0.0
H855 H 0.70316 0.12445 0.50298 0.0
H856 H 0.59375 0.04646 0.54119 0.0
H857 H 0.65746 0.10543 0.46717 0.0
H858 H 0.5609 0.08947 0.42674 0.0
H859 H 0.60883 0.10814 0.45869 0.0
H860 H 0.57106 1.01222 0.49432 0.0
H861 H 0.5227 0.99353 0.46249 0.0
C862 C 0.64355 0.07445 0.55294 0.0
C863 C 0.67491 0.09645 0.54281 0.0
C864 C 0.61747 0.06337 0.53242 0.0
C865 C 0.62188 0.07402 0.50112 0.0
C866 C 0.65313 0.09674 0.49114 0.0
C867 C 0.67935 0.10776 0.51171 0.0
C868 C 0.56292 0.07219 0.44107 0.0
C869 C 0.53778 0.03998 0.44213 0.0
C870 C 0.59056 0.08294 0.45934 0.0
C871 C 0.59377 0.06183 0.47939 0.0
C872 C 0.56918 0.02929 0.47954 0.0
C873 C 0.54156 1.01846 0.46104 0.0
H874 H 0.99409 0.47671 0.46691 0.0
H875 H 0.08652 0.55755 0.44234 0.0
H876 H 0.98013 0.51238 0.49424 0.0
H877 H 0.07208 0.59368 0.46899 0.0
H878 H 0.0526 0.64339 0.55095 0.0
H879 H 0.06497 0.60813 0.52071 0.0
H880 H 0.96632 0.5529 0.49022 0.0
H881 H 0.95368 0.58807 0.52155 0.0
C882 C 1.01138 0.50222 0.46696 0.0
C883 C 0.04159 0.51418 0.45249 0.0
C884 C 1.0032 0.52279 0.48255 0.0
C885 C 1.02491 0.55605 0.48408 0.0
C886 C 0.05486 0.56816 0.46885 0.0
C887 C 0.06313 0.54748 0.45332 0.0
C888 C 1.0334 0.6237 0.53788 0.0
C889 C 1.00206 0.61861 0.53879 0.0
C890 C 0.04064 0.60357 0.52018 0.0
C891 C 1.01683 0.57771 0.50259 0.0
C892 C 0.98531 0.57238 0.50365 0.0
C893 C 0.978 0.59256 0.52159 0.0
H894 H 0.55065 0.53878 0.91973 0.0
H895 H 0.52183 0.46753 0.99251 0.0
H896 H 0.60341 0.57072 0.94542 0.0
H897 H 0.57362 0.49937 0.01798 0.0
H898 H 0.64918 0.59032 0.07392 0.0
H899 H 0.59968 0.55705 0.04466 0.0
H900 H 0.6546 0.56236 0.96196 0.0
H901 H 0.70469 0.59537 0.99179 0.0
C902 C 0.5555 0.52997 0.9411 0.0
C903 C 0.53196 0.50063 0.95406 0.0
C904 C 0.58572 0.54807 0.95563 0.0
C905 C 0.5926 0.53742 0.98365 0.0
C906 C 0.56903 0.50817 0.99644 0.0
C907 C 0.53931 0.48995 0.98175 0.0
C908 C 0.65076 0.58395 0.04965 0.0
C909 C 0.68078 0.59507 0.03527 0.0
C910 C 0.62241 0.56503 0.03287 0.0
C911 C 0.62327 0.5573 0.00099 0.0
C912 C 0.65328 0.56817 0.98647 0.0
C913 C 0.68186 0.58662 0.00361 0.0
H914 H 0.62297 0.09746 0.96672 0.0
H915 H 0.54065 1.00872 0.93518 0.0
H916 H 0.58782 0.11325 0.99227 0.0
H917 H 0.50528 0.02494 0.96014 0.0
H918 H 0.45494 0.04318 0.0421 0.0
H919 H 0.48988 0.03034 0.01234 0.0
H920 H 0.54883 0.12995 0.98646 0.0
H921 H 0.51371 0.1431 0.01722 0.0
C922 C 0.5973 0.08141 0.96487 0.0
C923 C 0.5847 0.0516 0.94904 0.0
C924 C 0.57708 0.09065 0.97941 0.0
C925 C 0.5436 0.07037 0.97858 0.0
C926 C 0.53095 0.041 0.96183 0.0
C927 C 0.55122 0.03172 0.94729 0.0
C928 C 0.47531 0.06253 0.03012 0.0
C929 C 0.48141 0.09428 0.03217 0.0
C930 C 0.49528 0.05501 0.01269 0.0
C931 C 0.52211 0.07893 0.99656 0.0
C932 C 0.52849 0.11086 -0.0013 0.0
C933 C 0.50835 0.11844 0.01629 0.0
H934 H 0.99835 0.53868 0.96047 0.0
H935 H 0.08817 0.54817 0.93025 0.0
H936 H 0.98378 0.48848 0.98613 0.0
H937 H 0.07308 0.49703 0.95526 0.0
H938 H 0.05599 0.43062 0.03812 0.0
H939 H 0.06811 0.47707 0.00703 0.0
H940 H 0.96822 0.43312 0.98144 0.0
H941 H 0.95583 0.38638 0.01365 0.0
C942 C 1.01489 0.52984 0.95887 0.0
C943 C 0.04465 0.54776 0.94343 0.0
C944 C 1.00634 0.50075 0.97348 0.0
C945 C 1.02722 0.48854 0.97308 0.0
C946 C 0.05655 0.50589 0.95662 0.0
C947 C 0.06517 0.53515 0.94203 0.0
C948 C 0.03644 0.43064 0.02589 0.0
C949 C 1.00482 0.40462 0.02857 0.0
C950 C 0.04355 0.45735 0.00768 0.0
C951 C 1.0193 0.45901 0.99134 0.0
C952 C 0.98756 0.43291 0.99386 0.0
C953 C 0.9804 0.40603 0.01228 0.0
loop_
_geom_bond_atom_site_label_1
_geom_bond_atom_site_label_2
_geom_bond_distance
_geom_bond_site_symmetry_2
_ccdc_geom_bond_type
Mg0 O7 2.141 1_455 S
Mg0 O8 2.048 . S
Mg0 O9 2.048 . S
Mg0 O12 2.141 1_455 S
C1 O2 1.313 . S
C1 O8 1.195 . S
O2 C1 1.313 . S
C3 O4 1.245 . S
C3 O12 1.289 . S
O4 C3 1.245 . S
C5 O6 1.245 . S
C5 O7 1.289 . S
O6 C5 1.245 . S
O7 Mg0 2.141 1_655 S
O7 C5 1.289 . S
O8 Mg0 2.048 . S
O8 C1 1.195 . S
O9 Mg0 2.048 . S
O9 C10 1.195 . S
C10 O9 1.195 . S
C10 O11 1.313 . S
O11 C10 1.313 . S
O12 Mg0 2.141 1_655 S
O12 C3 1.289 . S
Mg13 O20 2.141 . S
Mg13 O21 2.048 . S
Mg13 O22 2.048 . S
Mg13 O25 2.141 . S
C14 O15 1.313 . S
C14 O21 1.195 . S
O15 C14 1.313 . S
C16 O17 1.245 . S
C16 O25 1.289 . S
O17 C16 1.245 . S
C18 O19 1.245 . S
C18 O20 1.289 . S
O19 C18 1.245 . S
O20 Mg13 2.141 . S
O20 C18 1.289 . S
O21 Mg13 2.048 . S
O21 C14 1.195 . S
O22 Mg13 2.048 . S
O22 C23 1.195 . S
C23 O22 1.195 . S
C23 O24 1.313 . S
O24 C23 1.313 . S
O25 Mg13 2.141 . S
O25 C16 1.289 . S
Mg26 O33 2.141 1_545 S
Mg26 O34 2.048 . S
Mg26 O35 2.048 . S
Mg26 O38 2.141 1_545 S
C27 O28 1.313 . S
C27 O34 1.195 . S
O28 C27 1.313 . S
C29 O30 1.245 . S
C29 O38 1.289 . S
O30 C29 1.245 . S
C31 O32 1.245 . S
C31 O33 1.289 . S
O32 C31 1.245 . S
O33 Mg26 2.141 1_565 S
O33 C31 1.289 . S
O34 Mg26 2.048 . S
O34 C27 1.195 . S
O35 Mg26 2.048 . S
O35 C36 1.195 . S
C36 O35 1.195 . S
C36 O37 1.313 . S
O37 C36 1.313 . S
O38 Mg26 2.141 1_565 S
O38 C29 1.289 . S
Mg39 O46 2.141 . S
Mg39 O47 2.048 1_455 S
Mg39 O48 2.049 1_455 S
Mg39 O51 2.141 . S
C40 O41 1.313 . S
C40 O47 1.195 . S
O41 C40 1.313 . S
C42 O43 1.245 . S
C42 O51 1.289 . S
O43 C42 1.245 . S
C44 O45 1.245 . S
C44 O46 1.289 . S
O45 C44 1.245 . S
O46 Mg39 2.141 . S
O46 C44 1.289 . S
O47 Mg39 2.048 1_655 S
O47 C40 1.195 . S
O48 Mg39 2.049 1_655 S
O48 C49 1.192 . S
C49 O48 1.192 . S
C49 O50 1.313 . S
O50 C49 1.313 . S
O51 Mg39 2.141 . S
O51 C42 1.289 . S
Mg52 O59 2.141 . S
Mg52 O60 2.048 . S
Mg52 O61 2.048 . S
Mg52 O64 2.141 . S
C53 O54 1.313 . S
C53 O60 1.195 . S
O54 C53 1.313 . S
C55 O56 1.245 . S
C55 O64 1.289 . S
O56 C55 1.245 . S
C57 O58 1.245 . S
C57 O59 1.289 . S
O58 C57 1.245 . S
O59 Mg52 2.141 . S
O59 C57 1.289 . S
O60 Mg52 2.048 . S
O60 C53 1.195 . S
O61 Mg52 2.048 . S
O61 C62 1.195 . S
C62 O61 1.195 . S
C62 O63 1.313 . S
O63 C62 1.313 . S
O64 Mg52 2.141 . S
O64 C55 1.289 . S
Mg65 O72 2.141 . S
Mg65 O73 2.048 1_545 S
Mg65 O74 2.048 1_545 S
Mg65 O77 2.141 . S
C66 O67 1.313 . S
C66 O73 1.195 . S
O67 C66 1.313 . S
C68 O69 1.245 . S
C68 O77 1.289 . S
O69 C68 1.245 . S
C70 O71 1.245 . S
C70 O72 1.289 . S
O71 C70 1.245 . S
O72 Mg65 2.141 . S
O72 C70 1.289 . S
O73 Mg65 2.048 1_565 S
O73 C66 1.195 . S
O74 Mg65 2.048 1_565 S
O74 C75 1.195 . S
C75 O74 1.195 . S
C75 O76 1.313 . S
O76 C75 1.313 . S
O77 Mg65 2.141 . S
O77 C68 1.289 . S
Mg78 O85 2.141 . S
Mg78 O86 2.048 . S
Mg78 O87 2.048 . S
Mg78 O90 2.141 . S
C79 O80 1.313 . S
C79 O86 1.195 . S
O80 C79 1.313 . S
C81 O82 1.245 . S
C81 O90 1.289 . S
O82 C81 1.245 . S
C83 O84 1.245 . S
C83 O85 1.289 . S
O84 C83 1.245 . S
O85 Mg78 2.141 . S
O85 C83 1.289 . S
O86 Mg78 2.048 . S
O86 C79 1.195 . S
O87 Mg78 2.048 . S
O87 C88 1.195 . S
C88 O87 1.195 . S
C88 O89 1.313 . S
O89 C88 1.313 . S
O90 Mg78 2.141 . S
O90 C81 1.289 . S
Mg91 O98 2.141 . S
Mg91 O99 2.048 . S
Mg91 O100 2.048 . S
Mg91 O103 2.141 . S
C92 O93 1.313 . S
C92 O99 1.195 . S
O93 C92 1.313 . S
C94 O95 1.245 . S
C94 O103 1.289 . S
O95 C94 1.245 . S
C96 O97 1.245 . S
C96 O98 1.289 . S
O97 C96 1.245 . S
O98 Mg91 2.141 . S
O98 C96 1.289 . S
O99 Mg91 2.048 . S
O99 C92 1.195 . S
O100 Mg91 2.048 . S
O100 C101 1.195 . S
C101 O100 1.195 . S
C101 O102 1.313 . S
O102 C101 1.313 . S
O103 Mg91 2.141 . S
O103 C94 1.289 . S
Mg104 O111 2.141 . S
Mg104 O112 2.048 . S
Mg104 O113 2.048 . S
Mg104 O116 2.141 . S
C105 O106 1.313 . S
C105 O112 1.195 . S
O106 C105 1.313 . S
C107 O108 1.245 . S
C107 O116 1.289 . S
O108 C107 1.245 . S
C109 O110 1.245 . S
C109 O111 1.289 . S
O110 C109 1.245 . S
O111 Mg104 2.141 . S
O111 C109 1.289 . S
O112 Mg104 2.048 . S
O112 C105 1.195 . S
O113 Mg104 2.048 . S
O113 C114 1.195 . S
C114 O113 1.195 . S
C114 O115 1.313 . S
O115 C114 1.313 . S
O116 Mg104 2.141 . S
O116 C107 1.289 . S
Mg117 O124 2.141 . S
Mg117 O125 2.048 . S
Mg117 O126 2.048 . S
Mg117 O129 2.141 . S
C118 O119 1.313 . S
C118 O125 1.195 . S
O119 C118 1.313 . S
C120 O121 1.245 . S
C120 O129 1.289 . S
O121 C120 1.245 . S
C122 O123 1.245 . S
C122 O124 1.289 . S
O123 C122 1.245 . S
O124 Mg117 2.141 . S
O124 C122 1.289 . S
O125 Mg117 2.048 . S
O125 C118 1.195 . S
O126 Mg117 2.048 . S
O126 C127 1.195 . S
C127 O126 1.195 . S
C127 O128 1.313 . S
O128 C127 1.313 . S
O129 Mg117 2.141 . S
O129 C120 1.289 . S
Mg130 O137 2.141 . S
Mg130 O138 2.048 . S
Mg130 O139 2.048 . S
Mg130 O142 2.141 . S
C131 O132 1.313 . S
C131 O138 1.195 . S
O132 C131 1.313 . S
C133 O134 1.245 . S
C133 O142 1.289 . S
O134 C133 1.245 . S
C135 O136 1.245 . S
C135 O137 1.289 . S
O136 C135 1.245 . S
O137 Mg130 2.141 . S
O137 C135 1.289 . S
O138 Mg130 2.048 . S
O138 C131 1.195 . S
O139 Mg130 2.048 . S
O139 C140 1.195 . S
C140 O139 1.195 . S
C140 O141 1.313 . S
O141 C140 1.313 . S
O142 Mg130 2.141 . S
O142 C133 1.289 . S
Mg143 O150 2.141 . S
Mg143 O151 2.048 . S
Mg143 O152 2.048 . S
Mg143 O155 2.141 . S
C144 O145 1.313 . S
C144 O151 1.195 . S
O145 C144 1.313 . S
C146 O147 1.245 . S
C146 O155 1.289 . S
O147 C146 1.245 . S
C148 O149 1.245 . S
C148 O150 1.289 . S
O149 C148 1.245 . S
O150 Mg143 2.141 . S
O150 C148 1.289 . S
O151 Mg143 2.048 . S
O151 C144 1.195 . S
O152 Mg143 2.048 . S
O152 C153 1.195 . S
C153 O152 1.195 . S
C153 O154 1.313 . S
O154 C153 1.313 . S
O155 Mg143 2.141 . S
O155 C146 1.289 . S
Mg156 O163 2.141 . S
Mg156 O164 2.048 . S
Mg156 O165 2.048 . S
Mg156 O168 2.141 . S
C157 O158 1.313 . S
C157 O164 1.195 . S
O158 C157 1.313 . S
C159 O160 1.245 . S
C159 O168 1.289 . S
O160 C159 1.245 . S
C161 O162 1.245 . S
C161 O163 1.289 . S
O162 C161 1.245 . S
O163 Mg156 2.141 . S
O163 C161 1.289 . S
O164 Mg156 2.048 . S
O164 C157 1.195 . S
O165 Mg156 2.048 . S
O165 C166 1.195 . S
C166 O165 1.195 . S
C166 O167 1.313 . S
O167 C166 1.313 . S
O168 Mg156 2.141 . S
O168 C159 1.289 . S
Mg169 O176 2.141 . S
Mg169 O177 2.048 . S
Mg169 O178 2.048 . S
Mg169 O181 2.141 . S
C170 O171 1.313 . S
C170 O177 1.195 . S
O171 C170 1.313 . S
C172 O173 1.245 . S
C172 O181 1.289 . S
O173 C172 1.245 . S
C174 O175 1.245 . S
C174 O176 1.289 . S
O175 C174 1.245 . S
O176 Mg169 2.141 . S
O176 C174 1.289 . S
O177 Mg169 2.048 . S
O177 C170 1.195 . S
O178 Mg169 2.048 . S
O178 C179 1.195 . S
C179 O178 1.195 . S
C179 O180 1.313 . S
O180 C179 1.313 . S
O181 Mg169 2.141 . S
O181 C172 1.289 . S
Mg182 O189 2.141 . S
Mg182 O190 2.048 . S
Mg182 O191 2.048 . S
Mg182 O194 2.141 . S
C183 O184 1.313 . S
C183 O190 1.195 . S
O184 C183 1.313 . S
C185 O186 1.245 . S
C185 O194 1.289 . S
O186 C185 1.245 . S
C187 O188 1.245 . S
C187 O189 1.289 . S
O188 C187 1.245 . S
O189 Mg182 2.141 . S
O189 C187 1.289 . S
O190 Mg182 2.048 . S
O190 C183 1.195 . S
O191 Mg182 2.048 . S
O191 C192 1.195 . S
C192 O191 1.195 . S
C192 O193 1.313 . S
O193 C192 1.313 . S
O194 Mg182 2.141 . S
O194 C185 1.289 . S
Mg195 O202 2.141 . S
Mg195 O203 2.048 . S
Mg195 O204 2.048 . S
Mg195 O207 2.141 . S
C196 O197 1.313 . S
C196 O203 1.195 . S
O197 C196 1.313 . S
C198 O199 1.245 . S
C198 O207 1.289 . S
O199 C198 1.245 . S
C200 O201 1.245 . S
C200 O202 1.289 . S
O201 C200 1.245 . S
O202 Mg195 2.141 . S
O202 C200 1.289 . S
O203 Mg195 2.048 . S
O203 C196 1.195 . S
O204 Mg195 2.048 . S
O204 C205 1.195 . S
C205 O204 1.195 . S
C205 O206 1.313 . S
O206 C205 1.313 . S
O207 Mg195 2.141 . S
O207 C198 1.289 . S
Mg208 O215 2.141 . S
Mg208 O216 2.048 . S
Mg208 O217 2.048 . S
Mg208 O220 2.141 . S
C209 O210 1.313 . S
C209 O216 1.195 . S
O210 C209 1.313 . S
C211 O212 1.245 . S
C211 O220 1.289 . S
O212 C211 1.245 . S
C213 O214 1.245 . S
C213 O215 1.289 . S
O214 C213 1.245 . S
O215 Mg208 2.141 . S
O215 C213 1.289 . S
O216 Mg208 2.048 . S
O216 C209 1.195 . S
O217 Mg208 2.048 . S
O217 C218 1.195 . S
C218 O217 1.195 . S
C218 O219 1.313 . S
O219 C218 1.313 . S
O220 Mg208 2.141 . S
O220 C211 1.289 . S
Mg221 O228 2.141 . S
Mg221 O229 2.048 . S
Mg221 O230 2.048 . S
Mg221 O233 2.141 . S
C222 O223 1.313 . S
C222 O229 1.195 . S
O223 C222 1.313 . S
C224 O225 1.245 . S
C224 O233 1.289 . S
O225 C224 1.245 . S
C226 O227 1.245 . S
C226 O228 1.289 . S
O227 C226 1.245 . S
O228 Mg221 2.141 . S
O228 C226 1.289 . S
O229 Mg221 2.048 . S
O229 C222 1.195 . S
O230 Mg221 2.048 . S
O230 C231 1.195 . S
C231 O230 1.195 . S
C231 O232 1.313 . S
O232 C231 1.313 . S
O233 Mg221 2.141 . S
O233 C224 1.289 . S
H234 C242 0.950 . S
H235 C247 0.950 . S
H236 C244 0.950 . S
H237 C246 0.950 . S
H238 C248 0.950 . S
H239 C250 0.950 . S
H240 C252 0.950 . S
H241 C253 0.950 . S
C242 H234 0.950 . S
C242 C243 1.386 . S
C242 C244 1.391 . S
C243 C242 1.386 . S
C243 C247 1.393 . S
C244 H236 0.950 . S
C244 C242 1.391 . S
C244 C245 1.400 . S
C245 C244 1.400 . S
C245 C246 1.398 . S
C245 C251 1.491 . S
C246 H237 0.950 . S
C246 C245 1.398 . S
C246 C247 1.391 . S
C247 H235 0.950 . S
C247 C243 1.393 . S
C247 C246 1.391 . S
C248 H238 0.950 . S
C248 C249 1.386 . S
C248 C250 1.391 . S
C249 C248 1.386 . S
C249 C253 1.393 . S
C250 H239 0.950 . S
C250 C248 1.391 . S
C250 C251 1.400 . S
C251 C245 1.491 . S
C251 C250 1.400 . S
C251 C252 1.398 . S
C252 H240 0.950 . S
C252 C251 1.398 . S
C252 C253 1.391 . S
C253 H241 0.950 . S
C253 C249 1.393 . S
C253 C252 1.391 . S
H254 C262 0.950 . S
H255 C267 0.950 . S
H256 C264 0.950 . S
H257 C266 0.950 . S
H258 C268 0.950 . S
H259 C270 0.950 . S
H260 C272 0.950 . S
H261 C273 0.950 . S
C262 H254 0.950 . S
C262 C263 1.386 . S
C262 C264 1.391 . S
C263 C262 1.386 . S
C263 C267 1.393 . S
C264 H256 0.950 . S
C264 C262 1.391 . S
C264 C265 1.400 . S
C265 C264 1.400 . S
C265 C266 1.398 . S
C265 C271 1.491 . S
C266 H257 0.950 . S
C266 C265 1.398 . S
C266 C267 1.391 . S
C267 H255 0.950 . S
C267 C263 1.393 . S
C267 C266 1.391 . S
C268 H258 0.950 . S
C268 C269 1.386 . S
C268 C270 1.391 . S
C269 C268 1.386 . S
C269 C273 1.393 . S
C270 H259 0.950 . S
C270 C268 1.391 . S
C270 C271 1.400 . S
C271 C265 1.491 . S
C271 C270 1.400 . S
C271 C272 1.398 . S
C272 H260 0.950 . S
C272 C271 1.398 . S
C272 C273 1.391 . S
C273 H261 0.950 . S
C273 C269 1.393 . S
C273 C272 1.391 . S
H274 C282 0.950 . S
H275 C287 0.950 . S
H276 C284 0.950 . S
H277 C286 0.950 . S
H278 C288 0.950 1_556 S
H279 C290 0.950 . S
H280 C292 0.950 . S
H281 C293 0.950 . S
C282 H274 0.950 . S
C282 C283 1.386 . S
C282 C284 1.391 . S
C283 C282 1.386 . S
C283 C287 1.393 . S
C284 H276 0.950 . S
C284 C282 1.391 . S
C284 C285 1.400 . S
C285 C284 1.400 . S
C285 C286 1.398 . S
C285 C291 1.491 . S
C286 H277 0.950 . S
C286 C285 1.398 . S
C286 C287 1.391 . S
C287 H275 0.950 . S
C287 C283 1.393 . S
C287 C286 1.391 . S
C288 H278 0.950 1_554 S
C288 C289 1.386 . S
C288 C290 1.391 . S
C289 C288 1.386 . S
C289 C293 1.393 . S
C290 H279 0.950 . S
C290 C288 1.391 . S
C290 C291 1.400 . S
C291 C285 1.491 . S
C291 C290 1.400 . S
C291 C292 1.398 . S
C292 H280 0.950 . S
C292 C291 1.398 . S
C292 C293 1.391 . S
C293 H281 0.950 . S
C293 C289 1.393 . S
C293 C292 1.391 . S
H294 C302 0.950 . S
H295 C307 0.950 . S
H296 C304 0.950 . S
H297 C306 0.950 . S
H298 C308 0.950 . S
H299 C310 0.950 . S
H300 C312 0.950 . S
H301 C313 0.950 . S
C302 H294 0.950 . S
C302 C303 1.386 . S
C302 C304 1.391 . S
C303 C302 1.386 . S
C303 C307 1.393 . S
C304 H296 0.950 . S
C304 C302 1.391 . S
C304 C305 1.400 . S
C305 C304 1.400 . S
C305 C306 1.398 . S
C305 C311 1.491 . S
C306 H297 0.950 . S
C306 C305 1.398 . S
C306 C307 1.391 . S
C307 H295 0.950 . S
C307 C303 1.393 . S
C307 C306 1.391 . S
C308 H298 0.950 . S
C308 C309 1.386 . S
C308 C310 1.391 . S
C309 C308 1.386 . S
C309 C313 1.393 . S
C310 H299 0.950 . S
C310 C308 1.391 . S
C310 C311 1.400 . S
C311 C305 1.491 . S
C311 C310 1.400 . S
C311 C312 1.398 . S
C312 H300 0.950 . S
C312 C311 1.398 . S
C312 C313 1.391 . S
C313 H301 0.950 . S
C313 C309 1.393 . S
C313 C312 1.391 . S
H314 C322 0.950 . S
H315 C327 0.950 . S
H316 C324 0.950 . S
H317 C326 0.950 . S
H318 C328 0.950 . S
H319 C330 0.950 . S
H320 C332 0.950 . S
H321 C333 0.950 . S
C322 H314 0.950 . S
C322 C323 1.386 . S
C322 C324 1.391 . S
C323 C322 1.386 . S
C323 C327 1.393 . S
C324 H316 0.950 . S
C324 C322 1.391 . S
C324 C325 1.400 . S
C325 C324 1.400 . S
C325 C326 1.398 . S
C325 C331 1.491 . S
C326 H317 0.950 . S
C326 C325 1.398 . S
C326 C327 1.391 . S
C327 H315 0.950 . S
C327 C323 1.393 . S
C327 C326 1.391 . S
C328 H318 0.950 . S
C328 C329 1.386 . S
C328 C330 1.391 . S
C329 C328 1.386 . S
C329 C333 1.393 . S
C330 H319 0.950 . S
C330 C328 1.391 . S
C330 C331 1.400 . S
C331 C325 1.491 . S
C331 C330 1.400 . S
C331 C332 1.398 . S
C332 H320 0.950 . S
C332 C331 1.398 . S
C332 C333 1.391 . S
C333 H321 0.950 . S
C333 C329 1.393 . S
C333 C332 1.391 . S
H334 C342 0.950 . S
H335 C347 0.950 . S
H336 C344 0.950 . S
H337 C346 0.950 . S
H338 C348 0.950 . S
H339 C350 0.950 . S
H340 C352 0.950 . S
H341 C353 0.950 . S
C342 H334 0.950 . S
C342 C343 1.386 . S
C342 C344 1.391 . S
C343 C342 1.386 . S
C343 C347 1.393 . S
C344 H336 0.950 . S
C344 C342 1.391 . S
C344 C345 1.400 . S
C345 C344 1.400 . S
C345 C346 1.398 . S
C345 C351 1.491 . S
C346 H337 0.950 . S
C346 C345 1.398 . S
C346 C347 1.391 . S
C347 H335 0.950 . S
C347 C343 1.393 . S
C347 C346 1.391 . S
C348 H338 0.950 . S
C348 C349 1.386 . S
C348 C350 1.391 . S
C349 C348 1.386 . S
C349 C353 1.393 . S
C350 H339 0.950 . S
C350 C348 1.391 . S
C350 C351 1.400 . S
C351 C345 1.491 . S
C351 C350 1.400 . S
C351 C352 1.398 . S
C352 H340 0.950 . S
C352 C351 1.398 . S
C352 C353 1.391 . S
C353 H341 0.950 . S
C353 C349 1.393 . S
C353 C352 1.391 . S
H354 C362 0.950 1_455 S
H355 C367 0.950 . S
H356 C364 0.950 . S
H357 C366 0.950 . S
H358 C368 0.950 . S
H359 C370 0.950 . S
H360 C372 0.950 . S
H361 C373 0.950 . S
C362 H354 0.950 1_655 S
C362 C363 1.386 . S
C362 C364 1.391 . S
C363 C362 1.386 . S
C363 C367 1.393 . S
C364 H356 0.950 . S
C364 C362 1.391 . S
C364 C365 1.400 . S
C365 C364 1.400 . S
C365 C366 1.398 . S
C365 C371 1.491 . S
C366 H357 0.950 . S
C366 C365 1.398 . S
C366 C367 1.391 . S
C367 H355 0.950 . S
C367 C363 1.393 . S
C367 C366 1.391 . S
C368 H358 0.950 . S
C368 C369 1.386 . S
C368 C370 1.391 . S
C369 C368 1.386 . S
C369 C373 1.393 . S
C370 H359 0.950 . S
C370 C368 1.391 . S
C370 C371 1.400 . S
C371 C365 1.491 . S
C371 C370 1.400 . S
C371 C372 1.398 . S
C372 H360 0.950 . S
C372 C371 1.398 . S
C372 C373 1.391 . S
C373 H361 0.950 . S
C373 C369 1.393 . S
C373 C372 1.391 . S
H374 C382 0.950 . S
H375 C387 0.950 . S
H376 C384 0.950 . S
H377 C386 0.950 . S
H378 C388 0.950 . S
H379 C390 0.950 . S
H380 C392 0.950 . S
H381 C393 0.950 . S
C382 H374 0.950 . S
C382 C383 1.386 . S
C382 C384 1.391 . S
C383 C382 1.386 . S
C383 C387 1.393 . S
C384 H376 0.950 . S
C384 C382 1.391 . S
C384 C385 1.400 . S
C385 C384 1.400 . S
C385 C386 1.398 . S
C385 C391 1.491 . S
C386 H377 0.950 . S
C386 C385 1.398 . S
C386 C387 1.391 . S
C387 H375 0.950 . S
C387 C383 1.393 . S
C387 C386 1.391 . S
C388 H378 0.950 . S
C388 C389 1.386 . S
C388 C390 1.391 . S
C389 C388 1.386 . S
C389 C393 1.393 . S
C390 H379 0.950 . S
C390 C388 1.391 . S
C390 C391 1.400 . S
C391 C385 1.491 . S
C391 C390 1.400 . S
C391 C392 1.398 . S
C392 H380 0.950 . S
C392 C391 1.398 . S
C392 C393 1.391 . S
C393 H381 0.950 . S
C393 C389 1.393 . S
C393 C392 1.391 . S
H394 C402 0.950 . S
H395 C407 0.950 1_554 S
H396 C404 0.950 . S
H397 C406 0.950 . S
H398 C408 0.950 . S
H399 C410 0.950 . S
H400 C412 0.950 . S
H401 C413 0.950 . S
C402 H394 0.950 . S
C402 C403 1.386 . S
C402 C404 1.391 . S
C403 C402 1.386 . S
C403 C407 1.393 . S
C404 H396 0.950 . S
C404 C402 1.391 . S
C404 C405 1.400 . S
C405 C404 1.400 . S
C405 C406 1.398 . S
C405 C411 1.491 . S
C406 H397 0.950 . S
C406 C405 1.398 . S
C406 C407 1.391 . S
C407 H395 0.950 1_556 S
C407 C403 1.393 . S
C407 C406 1.391 . S
C408 H398 0.950 . S
C408 C409 1.386 . S
C408 C410 1.391 . S
C409 C408 1.386 . S
C409 C413 1.393 . S
C410 H399 0.950 . S
C410 C408 1.391 . S
C410 C411 1.400 . S
C411 C405 1.491 . S
C411 C410 1.400 . S
C411 C412 1.398 . S
C412 H400 0.950 . S
C412 C411 1.398 . S
C412 C413 1.391 . S
C413 H401 0.950 . S
C413 C409 1.393 . S
C413 C412 1.391 . S
H414 C422 0.950 . S
H415 C427 0.950 . S
H416 C424 0.950 . S
H417 C426 0.950 . S
H418 C428 0.950 . S
H419 C430 0.950 . S
H420 C432 0.950 . S
H421 C433 0.950 . S
C422 H414 0.950 . S
C422 C423 1.386 . S
C422 C424 1.391 . S
C423 C422 1.386 . S
C423 C427 1.393 . S
C424 H416 0.950 . S
C424 C422 1.391 . S
C424 C425 1.400 . S
C425 C424 1.400 . S
C425 C426 1.398 . S
C425 C431 1.491 . S
C426 H417 0.950 . S
C426 C425 1.398 . S
C426 C427 1.391 . S
C427 H415 0.950 . S
C427 C423 1.393 . S
C427 C426 1.391 . S
C428 H418 0.950 . S
C428 C429 1.386 . S
C428 C430 1.391 . S
C429 C428 1.386 . S
C429 C433 1.393 . S
C430 H419 0.950 . S
C430 C428 1.391 . S
C430 C431 1.400 . S
C431 C425 1.491 . S
C431 C430 1.400 . S
C431 C432 1.398 . S
C432 H420 0.950 . S
C432 C431 1.398 . S
C432 C433 1.391 . S
C433 H421 0.950 . S
C433 C429 1.393 . S
C433 C432 1.391 . S
H434 C442 0.950 . S
H435 C447 0.950 . S
H436 C444 0.950 . S
H437 C446 0.950 . S
H438 C448 0.950 . S
H439 C450 0.950 . S
H440 C452 0.950 . S
H441 C453 0.950 . S
C442 H434 0.950 . S
C442 C443 1.386 . S
C442 C444 1.391 . S
C443 C442 1.386 . S
C443 C447 1.393 . S
C444 H436 0.950 . S
C444 C442 1.391 . S
C444 C445 1.400 . S
C445 C444 1.400 . S
C445 C446 1.398 . S
C445 C451 1.491 . S
C446 H437 0.950 . S
C446 C445 1.398 . S
C446 C447 1.391 . S
C447 H435 0.950 . S
C447 C443 1.393 . S
C447 C446 1.391 . S
C448 H438 0.950 . S
C448 C449 1.386 . S
C448 C450 1.391 . S
C449 C448 1.386 . S
C449 C453 1.393 . S
C450 H439 0.950 . S
C450 C448 1.391 . S
C450 C451 1.400 . S
C451 C445 1.491 . S
C451 C450 1.400 . S
C451 C452 1.398 . S
C452 H440 0.950 . S
C452 C451 1.398 . S
C452 C453 1.391 . S
C453 H441 0.950 . S
C453 C449 1.393 . S
C453 C452 1.391 . S
H454 C462 0.950 . S
H455 C467 0.950 . S
H456 C464 0.950 . S
H457 C466 0.950 . S
H458 C468 0.950 . S
H459 C470 0.950 . S
H460 C472 0.950 . S
H461 C473 0.950 . S
C462 H454 0.950 . S
C462 C463 1.386 . S
C462 C464 1.391 . S
C463 C462 1.386 . S
C463 C467 1.393 . S
C464 H456 0.950 . S
C464 C462 1.391 . S
C464 C465 1.400 . S
C465 C464 1.400 . S
C465 C466 1.398 . S
C465 C471 1.491 . S
C466 H457 0.950 . S
C466 C465 1.398 . S
C466 C467 1.391 . S
C467 H455 0.950 . S
C467 C463 1.393 . S
C467 C466 1.391 . S
C468 H458 0.950 . S
C468 C469 1.386 . S
C468 C470 1.391 . S
C469 C468 1.386 . S
C469 C473 1.393 . S
C470 H459 0.950 . S
C470 C468 1.391 . S
C470 C471 1.400 . S
C471 C465 1.491 . S
C471 C470 1.400 . S
C471 C472 1.398 . S
C472 H460 0.950 . S
C472 C471 1.398 . S
C472 C473 1.391 . S
C473 H461 0.950 . S
C473 C469 1.393 . S
C473 C472 1.391 . S
H474 C482 0.950 . S
H475 C487 0.950 . S
H476 C484 0.950 . S
H477 C486 0.950 . S
H478 C488 0.950 . S
H479 C490 0.950 . S
H480 C492 0.950 . S
H481 C493 0.950 . S
C482 H474 0.950 . S
C482 C483 1.386 . S
C482 C484 1.391 . S
C483 C482 1.386 . S
C483 C487 1.393 . S
C484 H476 0.950 . S
C484 C482 1.391 . S
C484 C485 1.400 . S
C485 C484 1.400 . S
C485 C486 1.398 . S
C485 C491 1.491 . S
C486 H477 0.950 . S
C486 C485 1.398 . S
C486 C487 1.391 . S
C487 H475 0.950 . S
C487 C483 1.393 . S
C487 C486 1.391 . S
C488 H478 0.950 . S
C488 C489 1.386 . S
C488 C490 1.391 . S
C489 C488 1.386 . S
C489 C493 1.393 . S
C490 H479 0.950 . S
C490 C488 1.391 . S
C490 C491 1.400 . S
C491 C485 1.491 . S
C491 C490 1.400 . S
C491 C492 1.398 . S
C492 H480 0.950 . S
C492 C491 1.398 . S
C492 C493 1.391 . S
C493 H481 0.950 . S
C493 C489 1.393 . S
C493 C492 1.391 . S
H494 C502 0.950 . S
H495 C507 0.950 . S
H496 C504 0.950 . S
H497 C506 0.950 . S
H498 C508 0.950 . S
H499 C510 0.950 1_545 S
H500 C512 0.950 . S
H501 C513 0.950 . S
C502 H494 0.950 . S
C502 C503 1.386 . S
C502 C504 1.391 . S
C503 C502 1.386 . S
C503 C507 1.393 . S
C504 H496 0.950 . S
C504 C502 1.391 . S
C504 C505 1.400 . S
C505 C504 1.400 . S
C505 C506 1.398 . S
C505 C511 1.491 1_545 S
C506 H497 0.950 . S
C506 C505 1.398 . S
C506 C507 1.391 . S
C507 H495 0.950 . S
C507 C503 1.393 . S
C507 C506 1.391 . S
C508 H498 0.950 . S
C508 C509 1.386 . S
C508 C510 1.391 . S
C509 C508 1.386 . S
C509 C513 1.393 . S
C510 H499 0.950 1_565 S
C510 C508 1.391 . S
C510 C511 1.400 . S
C511 C505 1.491 1_565 S
C511 C510 1.400 . S
C511 C512 1.398 . S
C512 H500 0.950 . S
C512 C511 1.398 . S
C512 C513 1.391 . S
C513 H501 0.950 . S
C513 C509 1.393 . S
C513 C512 1.391 . S
H514 C522 0.950 . S
H515 C527 0.950 . S
H516 C524 0.950 . S
H517 C526 0.950 . S
H518 C528 0.950 . S
H519 C530 0.954 . S
H520 C532 0.950 . S
H521 C533 0.950 . S
C522 H514 0.950 . S
C522 C523 1.386 . S
C522 C524 1.391 . S
C523 C522 1.386 . S
C523 C527 1.393 . S
C524 H516 0.950 . S
C524 C522 1.391 . S
C524 C525 1.400 . S
C525 C524 1.400 . S
C525 C526 1.398 . S
C525 C531 1.491 . S
C526 H517 0.950 . S
C526 C525 1.398 . S
C526 C527 1.391 . S
C527 H515 0.950 . S
C527 C523 1.393 . S
C527 C526 1.391 . S
C528 H518 0.950 . S
C528 C529 1.386 . S
C528 C530 1.388 1_655 S
C529 C528 1.386 . S
C529 C533 1.393 . S
C530 H519 0.954 . S
C530 C528 1.388 1_455 S
C530 C531 1.399 . S
C531 C525 1.491 . S
C531 C530 1.399 . S
C531 C532 1.398 1_455 S
C532 H520 0.950 . S
C532 C531 1.398 1_655 S
C532 C533 1.391 . S
C533 H521 0.950 . S
C533 C529 1.393 . S
C533 C532 1.391 . S
H534 C542 0.950 . S
H535 C547 0.950 . S
H536 C544 0.950 . S
H537 C546 0.950 . S
H538 C548 0.950 . S
H539 C550 0.950 . S
H540 C552 0.950 . S
H541 C553 0.950 . S
C542 H534 0.950 . S
C542 C543 1.386 . S
C542 C544 1.391 . S
C543 C542 1.386 . S
C543 C547 1.393 . S
C544 H536 0.950 . S
C544 C542 1.391 . S
C544 C545 1.400 . S
C545 C544 1.400 . S
C545 C546 1.398 . S
C545 C551 1.491 . S
C546 H537 0.950 . S
C546 C545 1.398 . S
C546 C547 1.391 . S
C547 H535 0.950 . S
C547 C543 1.393 . S
C547 C546 1.391 . S
C548 H538 0.950 . S
C548 C549 1.386 . S
C548 C550 1.391 . S
C549 C548 1.386 . S
C549 C553 1.393 . S
C550 H539 0.950 . S
C550 C548 1.391 . S
C550 C551 1.400 . S
C551 C545 1.491 . S
C551 C550 1.400 . S
C551 C552 1.398 . S
C552 H540 0.950 . S
C552 C551 1.398 . S
C552 C553 1.391 . S
C553 H541 0.950 . S
C553 C549 1.393 . S
C553 C552 1.391 . S
H554 C562 0.950 . S
H555 C567 0.950 . S
H556 C564 0.950 1_565 S
H557 C566 0.950 . S
H558 C568 0.950 . S
H559 C570 0.950 . S
H560 C572 0.950 . S
H561 C573 0.950 . S
C562 H554 0.950 . S
C562 C563 1.386 . S
C562 C564 1.391 . S
C563 C562 1.386 . S
C563 C567 1.393 . S
C564 H556 0.950 1_545 S
C564 C562 1.391 . S
C564 C565 1.400 . S
C565 C564 1.400 . S
C565 C566 1.398 . S
C565 C571 1.491 1_545 S
C566 H557 0.950 . S
C566 C565 1.398 . S
C566 C567 1.391 . S
C567 H555 0.950 . S
C567 C563 1.393 . S
C567 C566 1.391 . S
C568 H558 0.950 . S
C568 C569 1.386 . S
C568 C570 1.391 1_565 S
C569 C568 1.386 . S
C569 C573 1.393 . S
C570 H559 0.950 . S
C570 C568 1.391 1_545 S
C570 C571 1.400 1_545 S
C571 C565 1.491 1_565 S
C571 C570 1.400 1_565 S
C571 C572 1.398 . S
C572 H560 0.950 . S
C572 C571 1.398 . S
C572 C573 1.391 . S
C573 H561 0.950 . S
C573 C569 1.393 . S
C573 C572 1.391 . S
H574 C582 0.950 . S
H575 C587 0.950 . S
H576 C584 0.950 . S
H577 C586 0.950 . S
H578 C588 0.950 . S
H579 C590 0.950 . S
H580 C592 0.950 . S
H581 C593 0.950 . S
C582 H574 0.950 . S
C582 C583 1.386 . S
C582 C584 1.391 . S
C583 C582 1.386 . S
C583 C587 1.393 . S
C584 H576 0.950 . S
C584 C582 1.391 . S
C584 C585 1.400 . S
C585 C584 1.400 . S
C585 C586 1.398 . S
C585 C591 1.491 . S
C586 H577 0.950 . S
C586 C585 1.398 . S
C586 C587 1.391 . S
C587 H575 0.950 . S
C587 C583 1.393 . S
C587 C586 1.391 . S
C588 H578 0.950 . S
C588 C589 1.386 . S
C588 C590 1.391 1_655 S
C589 C588 1.386 . S
C589 C593 1.393 . S
C590 H579 0.950 . S
C590 C588 1.391 1_455 S
C590 C591 1.400 . S
C591 C585 1.491 . S
C591 C590 1.400 . S
C591 C592 1.398 1_455 S
C592 H580 0.950 . S
C592 C591 1.398 1_655 S
C592 C593 1.391 . S
C593 H581 0.950 . S
C593 C589 1.393 . S
C593 C592 1.391 . S
H594 C602 0.950 . S
H595 C607 0.950 . S
H596 C604 0.950 . S
H597 C606 0.950 . S
H598 C608 0.950 . S
H599 C610 0.950 . S
H600 C612 0.950 . S
H601 C613 0.950 . S
C602 H594 0.950 . S
C602 C603 1.386 . S
C602 C604 1.391 . S
C603 C602 1.386 . S
C603 C607 1.393 . S
C604 H596 0.950 . S
C604 C602 1.391 . S
C604 C605 1.400 . S
C605 C604 1.400 . S
C605 C606 1.398 . S
C605 C611 1.491 . S
C606 H597 0.950 . S
C606 C605 1.398 . S
C606 C607 1.391 . S
C607 H595 0.950 . S
C607 C603 1.393 . S
C607 C606 1.391 . S
C608 H598 0.950 . S
C608 C609 1.386 . S
C608 C610 1.391 . S
C609 C608 1.386 . S
C609 C613 1.393 . S
C610 H599 0.950 . S
C610 C608 1.391 . S
C610 C611 1.400 . S
C611 C605 1.491 . S
C611 C610 1.400 . S
C611 C612 1.398 . S
C612 H600 0.950 . S
C612 C611 1.398 . S
C612 C613 1.391 . S
C613 H601 0.950 . S
C613 C609 1.393 . S
C613 C612 1.391 . S
H614 C622 0.950 . S
H615 C627 0.950 . S
H616 C624 0.950 . S
H617 C626 0.950 . S
H618 C628 0.950 . S
H619 C630 0.950 . S
H620 C632 0.950 . S
H621 C633 0.950 . S
C622 H614 0.950 . S
C622 C623 1.386 . S
C622 C624 1.391 . S
C623 C622 1.386 . S
C623 C627 1.393 . S
C624 H616 0.950 . S
C624 C622 1.391 . S
C624 C625 1.400 . S
C625 C624 1.400 . S
C625 C626 1.398 . S
C625 C631 1.491 . S
C626 H617 0.950 . S
C626 C625 1.398 . S
C626 C627 1.391 . S
C627 H615 0.950 . S
C627 C623 1.393 . S
C627 C626 1.391 . S
C628 H618 0.950 . S
C628 C629 1.386 . S
C628 C630 1.391 . S
C629 C628 1.386 . S
C629 C633 1.393 . S
C630 H619 0.950 . S
C630 C628 1.391 . S
C630 C631 1.400 . S
C631 C625 1.491 . S
C631 C630 1.400 . S
C631 C632 1.398 . S
C632 H620 0.950 . S
C632 C631 1.398 . S
C632 C633 1.391 . S
C633 H621 0.950 . S
C633 C629 1.393 . S
C633 C632 1.391 . S
H634 C642 0.950 . S
H635 C647 0.950 . S
H636 C644 0.950 . S
H637 C646 0.950 . S
H638 C648 0.950 . S
H639 C650 0.950 . S
H640 C652 0.950 . S
H641 C653 0.950 . S
C642 H634 0.950 . S
C642 C643 1.386 . S
C642 C644 1.391 . S
C643 C642 1.386 . S
C643 C647 1.393 . S
C644 H636 0.950 . S
C644 C642 1.391 . S
C644 C645 1.400 . S
C645 C644 1.400 . S
C645 C646 1.398 . S
C645 C651 1.491 . S
C646 H637 0.950 . S
C646 C645 1.398 . S
C646 C647 1.391 . S
C647 H635 0.950 . S
C647 C643 1.393 . S
C647 C646 1.391 . S
C648 H638 0.950 . S
C648 C649 1.386 . S
C648 C650 1.391 . S
C649 C648 1.386 . S
C649 C653 1.393 . S
C650 H639 0.950 . S
C650 C648 1.391 . S
C650 C651 1.400 . S
C651 C645 1.491 . S
C651 C650 1.400 . S
C651 C652 1.398 . S
C652 H640 0.950 . S
C652 C651 1.398 . S
C652 C653 1.391 . S
C653 H641 0.950 . S
C653 C649 1.393 . S
C653 C652 1.391 . S
H654 C662 0.950 . S
H655 C667 0.950 . S
H656 C664 0.950 . S
H657 C666 0.950 . S
H658 C668 0.950 . S
H659 C670 0.950 . S
H660 C672 0.950 . S
H661 C673 0.950 . S
C662 H654 0.950 . S
C662 C663 1.386 . S
C662 C664 1.391 . S
C663 C662 1.386 . S
C663 C667 1.393 . S
C664 H656 0.950 . S
C664 C662 1.391 . S
C664 C665 1.400 . S
C665 C664 1.400 . S
C665 C666 1.398 . S
C665 C671 1.491 . S
C666 H657 0.950 . S
C666 C665 1.398 . S
C666 C667 1.391 . S
C667 H655 0.950 . S
C667 C663 1.393 . S
C667 C666 1.391 . S
C668 H658 0.950 . S
C668 C669 1.386 . S
C668 C670 1.391 . S
C669 C668 1.386 . S
C669 C673 1.393 . S
C670 H659 0.950 . S
C670 C668 1.391 . S
C670 C671 1.400 . S
C671 C665 1.491 . S
C671 C670 1.400 . S
C671 C672 1.398 . S
C672 H660 0.950 . S
C672 C671 1.398 . S
C672 C673 1.391 . S
C673 H661 0.950 . S
C673 C669 1.393 . S
C673 C672 1.391 . S
H674 C682 0.950 . S
H675 C687 0.950 . S
H676 C684 0.950 . S
H677 C686 0.950 . S
H678 C688 0.950 . S
H679 C690 0.950 . S
H680 C692 0.950 . S
H681 C693 0.950 . S
C682 H674 0.950 . S
C682 C683 1.386 . S
C682 C684 1.391 . S
C683 C682 1.386 . S
C683 C687 1.393 . S
C684 H676 0.950 . S
C684 C682 1.391 . S
C684 C685 1.400 . S
C685 C684 1.400 . S
C685 C686 1.398 . S
C685 C691 1.491 . S
C686 H677 0.950 . S
C686 C685 1.398 . S
C686 C687 1.391 . S
C687 H675 0.950 . S
C687 C683 1.393 . S
C687 C686 1.391 . S
C688 H678 0.950 . S
C688 C689 1.386 . S
C688 C690 1.391 . S
C689 C688 1.386 . S
C689 C693 1.393 . S
C690 H679 0.950 . S
C690 C688 1.391 . S
C690 C691 1.400 . S
C691 C685 1.491 . S
C691 C690 1.400 . S
C691 C692 1.398 . S
C692 H680 0.950 . S
C692 C691 1.398 . S
C692 C693 1.391 . S
C693 H681 0.950 . S
C693 C689 1.393 . S
C693 C692 1.391 . S
H694 C702 0.950 . S
H695 C707 0.950 . S
H696 C704 0.950 . S
H697 C706 0.950 . S
H698 C708 0.950 . S
H699 C710 0.950 . S
H700 C712 0.950 . S
H701 C713 0.950 . S
C702 H694 0.950 . S
C702 C703 1.386 . S
C702 C704 1.391 . S
C703 C702 1.386 . S
C703 C707 1.393 . S
C704 H696 0.950 . S
C704 C702 1.391 . S
C704 C705 1.400 . S
C705 C704 1.400 . S
C705 C706 1.398 . S
C705 C711 1.491 . S
C706 H697 0.950 . S
C706 C705 1.398 . S
C706 C707 1.391 . S
C707 H695 0.950 . S
C707 C703 1.393 . S
C707 C706 1.391 . S
C708 H698 0.950 . S
C708 C709 1.386 . S
C708 C710 1.391 . S
C709 C708 1.386 . S
C709 C713 1.393 . S
C710 H699 0.950 . S
C710 C708 1.391 . S
C710 C711 1.400 . S
C711 C705 1.491 . S
C711 C710 1.400 . S
C711 C712 1.398 . S
C712 H700 0.950 . S
C712 C711 1.398 . S
C712 C713 1.391 . S
C713 H701 0.950 . S
C713 C709 1.393 . S
C713 C712 1.391 . S
H714 C722 0.950 . S
H715 C727 0.950 . S
H716 C724 0.950 . S
H717 C726 0.950 . S
H718 C728 0.950 . S
H719 C730 0.950 . S
H720 C732 0.950 . S
H721 C733 0.950 . S
C722 H714 0.950 . S
C722 C723 1.386 . S
C722 C724 1.391 . S
C723 C722 1.386 . S
C723 C727 1.393 . S
C724 H716 0.950 . S
C724 C722 1.391 . S
C724 C725 1.400 . S
C725 C724 1.400 . S
C725 C726 1.398 . S
C725 C731 1.491 . S
C726 H717 0.950 . S
C726 C725 1.398 . S
C726 C727 1.391 . S
C727 H715 0.950 . S
C727 C723 1.393 . S
C727 C726 1.391 . S
C728 H718 0.950 . S
C728 C729 1.386 . S
C728 C730 1.391 . S
C729 C728 1.386 . S
C729 C733 1.393 . S
C730 H719 0.950 . S
C730 C728 1.391 . S
C730 C731 1.400 . S
C731 C725 1.491 . S
C731 C730 1.400 . S
C731 C732 1.398 . S
C732 H720 0.950 . S
C732 C731 1.398 . S
C732 C733 1.391 . S
C733 H721 0.950 . S
C733 C729 1.393 . S
C733 C732 1.391 . S
H734 C742 0.950 . S
H735 C747 0.950 . S
H736 C744 0.950 . S
H737 C746 0.950 . S
H738 C748 0.950 . S
H739 C750 0.950 . S
H740 C752 0.950 . S
H741 C753 0.950 . S
C742 H734 0.950 . S
C742 C743 1.386 . S
C742 C744 1.391 . S
C743 C742 1.386 . S
C743 C747 1.393 . S
C744 H736 0.950 . S
C744 C742 1.391 . S
C744 C745 1.400 . S
C745 C744 1.400 . S
C745 C746 1.398 . S
C745 C751 1.491 . S
C746 H737 0.950 . S
C746 C745 1.398 . S
C746 C747 1.391 . S
C747 H735 0.950 . S
C747 C743 1.393 . S
C747 C746 1.391 . S
C748 H738 0.950 . S
C748 C749 1.386 . S
C748 C750 1.391 . S
C749 C748 1.386 . S
C749 C753 1.393 . S
C750 H739 0.950 . S
C750 C748 1.391 . S
C750 C751 1.400 . S
C751 C745 1.491 . S
C751 C750 1.400 . S
C751 C752 1.398 . S
C752 H740 0.950 . S
C752 C751 1.398 . S
C752 C753 1.391 . S
C753 H741 0.950 . S
C753 C749 1.393 . S
C753 C752 1.391 . S
H754 C762 0.950 . S
H755 C767 0.950 . S
H756 C764 0.950 . S
H757 C766 0.950 . S
H758 C768 0.950 . S
H759 C770 0.950 . S
H760 C772 0.950 . S
H761 C773 0.950 . S
C762 H754 0.950 . S
C762 C763 1.386 . S
C762 C764 1.391 . S
C763 C762 1.386 . S
C763 C767 1.393 . S
C764 H756 0.950 . S
C764 C762 1.391 . S
C764 C765 1.400 . S
C765 C764 1.400 . S
C765 C766 1.398 . S
C765 C771 1.491 . S
C766 H757 0.950 . S
C766 C765 1.398 . S
C766 C767 1.391 . S
C767 H755 0.950 . S
C767 C763 1.393 . S
C767 C766 1.391 . S
C768 H758 0.950 . S
C768 C769 1.386 . S
C768 C770 1.391 . S
C769 C768 1.386 . S
C769 C773 1.393 . S
C770 H759 0.950 . S
C770 C768 1.391 . S
C770 C771 1.400 . S
C771 C765 1.491 . S
C771 C770 1.400 . S
C771 C772 1.398 . S
C772 H760 0.950 . S
C772 C771 1.398 . S
C772 C773 1.391 . S
C773 H761 0.950 . S
C773 C769 1.393 . S
C773 C772 1.391 . S
H774 C782 0.950 . S
H775 C787 0.950 . S
H776 C784 0.950 . S
H777 C786 0.950 . S
H778 C788 0.950 . S
H779 C790 0.950 . S
H780 C792 0.950 . S
H781 C793 0.950 . S
C782 H774 0.950 . S
C782 C783 1.386 . S
C782 C784 1.391 . S
C783 C782 1.386 . S
C783 C787 1.393 . S
C784 H776 0.950 . S
C784 C782 1.391 . S
C784 C785 1.400 . S
C785 C784 1.400 . S
C785 C786 1.398 . S
C785 C791 1.491 . S
C786 H777 0.950 . S
C786 C785 1.398 . S
C786 C787 1.391 . S
C787 H775 0.950 . S
C787 C783 1.393 . S
C787 C786 1.391 . S
C788 H778 0.950 . S
C788 C789 1.386 . S
C788 C790 1.391 . S
C789 C788 1.386 . S
C789 C793 1.393 . S
C790 H779 0.950 . S
C790 C788 1.391 . S
C790 C791 1.400 . S
C791 C785 1.491 . S
C791 C790 1.400 . S
C791 C792 1.398 . S
C792 H780 0.950 . S
C792 C791 1.398 . S
C792 C793 1.391 . S
C793 H781 0.950 . S
C793 C789 1.393 . S
C793 C792 1.391 . S
H794 C802 0.950 . S
H795 C807 0.950 . S
H796 C804 0.950 . S
H797 C806 0.950 . S
H798 C808 0.950 . S
H799 C810 0.950 . S
H800 C812 0.950 . S
H801 C813 0.950 . S
C802 H794 0.950 . S
C802 C803 1.386 . S
C802 C804 1.391 . S
C803 C802 1.386 . S
C803 C807 1.393 . S
C804 H796 0.950 . S
C804 C802 1.391 . S
C804 C805 1.400 . S
C805 C804 1.400 . S
C805 C806 1.398 . S
C805 C811 1.491 . S
C806 H797 0.950 . S
C806 C805 1.398 . S
C806 C807 1.391 . S
C807 H795 0.950 . S
C807 C803 1.393 . S
C807 C806 1.391 . S
C808 H798 0.950 . S
C808 C809 1.386 . S
C808 C810 1.391 . S
C809 C808 1.386 . S
C809 C813 1.393 . S
C810 H799 0.950 . S
C810 C808 1.391 . S
C810 C811 1.400 . S
C811 C805 1.491 . S
C811 C810 1.400 . S
C811 C812 1.398 . S
C812 H800 0.950 . S
C812 C811 1.398 . S
C812 C813 1.391 . S
C813 H801 0.950 . S
C813 C809 1.393 . S
C813 C812 1.391 . S
H814 C822 0.950 . S
H815 C827 0.950 . S
H816 C824 0.950 . S
H817 C826 0.950 . S
H818 C828 0.950 . S
H819 C830 0.950 . S
H820 C832 0.950 . S
H821 C833 0.950 . S
C822 H814 0.950 . S
C822 C823 1.386 . S
C822 C824 1.391 . S
C823 C822 1.386 . S
C823 C827 1.393 . S
C824 H816 0.950 . S
C824 C822 1.391 . S
C824 C825 1.400 . S
C825 C824 1.400 . S
C825 C826 1.398 . S
C825 C831 1.491 . S
C826 H817 0.950 . S
C826 C825 1.398 . S
C826 C827 1.391 . S
C827 H815 0.950 . S
C827 C823 1.393 . S
C827 C826 1.391 . S
C828 H818 0.950 . S
C828 C829 1.386 . S
C828 C830 1.391 . S
C829 C828 1.386 . S
C829 C833 1.393 . S
C830 H819 0.950 . S
C830 C828 1.391 . S
C830 C831 1.400 . S
C831 C825 1.491 . S
C831 C830 1.400 . S
C831 C832 1.398 . S
C832 H820 0.950 . S
C832 C831 1.398 . S
C832 C833 1.391 . S
C833 H821 0.950 . S
C833 C829 1.393 . S
C833 C832 1.391 . S
H834 C842 0.950 . S
H835 C847 0.950 . S
H836 C844 0.950 . S
H837 C846 0.950 . S
H838 C848 0.950 . S
H839 C850 0.950 . S
H840 C852 0.950 . S
H841 C853 0.950 . S
C842 H834 0.950 . S
C842 C843 1.386 . S
C842 C844 1.391 . S
C843 C842 1.386 . S
C843 C847 1.393 . S
C844 H836 0.950 . S
C844 C842 1.391 . S
C844 C845 1.400 . S
C845 C844 1.400 . S
C845 C846 1.398 . S
C845 C851 1.491 . S
C846 H837 0.950 . S
C846 C845 1.398 . S
C846 C847 1.391 . S
C847 H835 0.950 . S
C847 C843 1.393 . S
C847 C846 1.391 . S
C848 H838 0.950 . S
C848 C849 1.386 . S
C848 C850 1.391 . S
C849 C848 1.386 . S
C849 C853 1.393 . S
C850 H839 0.950 . S
C850 C848 1.391 . S
C850 C851 1.400 . S
C851 C845 1.491 . S
C851 C850 1.400 . S
C851 C852 1.398 . S
C852 H840 0.950 . S
C852 C851 1.398 . S
C852 C853 1.391 . S
C853 H841 0.950 . S
C853 C849 1.393 . S
C853 C852 1.391 . S
H854 C862 0.950 . S
H855 C867 0.950 . S
H856 C864 0.950 1_565 S
H857 C866 0.950 . S
H858 C868 0.934 1_545 S
H859 C870 0.950 . S
H860 C872 0.950 . S
H861 C873 0.950 . S
C862 H854 0.950 . S
C862 C863 1.386 . S
C862 C864 1.391 . S
C863 C862 1.386 . S
C863 C867 1.393 . S
C864 H856 0.950 1_545 S
C864 C862 1.391 . S
C864 C865 1.400 . S
C865 C864 1.400 . S
C865 C866 1.398 . S
C865 C871 1.491 . S
C866 H857 0.950 . S
C866 C865 1.398 . S
C866 C867 1.391 . S
C867 H855 0.950 . S
C867 C863 1.393 . S
C867 C866 1.391 . S
C868 H858 0.934 1_565 S
C868 C869 1.402 . S
C868 C870 1.390 1_565 S
C869 C868 1.402 . S
C869 C873 1.393 . S
C870 H859 0.950 . S
C870 C868 1.390 1_545 S
C870 C871 1.400 . S
C871 C865 1.491 . S
C871 C870 1.400 . S
C871 C872 1.398 1_545 S
C872 H860 0.950 . S
C872 C871 1.398 1_565 S
C872 C873 1.391 . S
C873 H861 0.950 . S
C873 C869 1.393 . S
C873 C872 1.391 . S
H874 C882 0.950 . S
H875 C887 0.950 . S
H876 C884 0.950 . S
H877 C886 0.950 . S
H878 C888 0.950 . S
H879 C890 0.961 . S
H880 C892 0.950 . S
H881 C893 0.950 . S
C882 H874 0.950 . S
C882 C883 1.386 . S
C882 C884 1.391 . S
C883 C882 1.386 . S
C883 C887 1.393 . S
C884 H876 0.950 . S
C884 C882 1.391 . S
C884 C885 1.400 . S
C885 C884 1.400 . S
C885 C886 1.398 . S
C885 C891 1.491 . S
C886 H877 0.950 . S
C886 C885 1.398 . S
C886 C887 1.391 . S
C887 H875 0.950 . S
C887 C883 1.393 . S
C887 C886 1.391 . S
C888 H878 0.950 . S
C888 C889 1.386 . S
C888 C890 1.391 . S
C889 C888 1.386 . S
C889 C893 1.393 . S
C890 H879 0.961 . S
C890 C888 1.391 . S
C890 C891 1.400 1_655 S
C891 C885 1.491 . S
C891 C890 1.400 1_455 S
C891 C892 1.398 . S
C892 H880 0.950 . S
C892 C891 1.398 . S
C892 C893 1.391 1_455 S
C893 H881 0.950 . S
C893 C889 1.393 . S
C893 C892 1.391 1_655 S
H894 C902 0.950 . S
H895 C907 0.950 . S
H896 C904 0.950 . S
H897 C906 0.950 1_554 S
H898 C908 0.950 . S
H899 C910 0.950 . S
H900 C912 0.930 1_556 S
H901 C913 0.950 . S
C902 H894 0.950 . S
C902 C903 1.386 . S
C902 C904 1.391 . S
C903 C902 1.386 . S
C903 C907 1.393 . S
C904 H896 0.950 . S
C904 C902 1.391 . S
C904 C905 1.400 . S
C905 C904 1.400 . S
C905 C906 1.398 . S
C905 C911 1.491 1_556 S
C906 H897 0.950 1_556 S
C906 C905 1.398 . S
C906 C907 1.391 . S
C907 H895 0.950 . S
C907 C903 1.393 . S
C907 C906 1.391 . S
C908 H898 0.950 . S
C908 C909 1.386 . S
C908 C910 1.391 . S
C909 C908 1.386 . S
C909 C913 1.393 . S
C910 H899 0.950 . S
C910 C908 1.391 . S
C910 C911 1.400 . S
C911 C905 1.491 1_554 S
C911 C910 1.400 . S
C911 C912 1.404 . S
C912 H900 0.930 1_554 S
C912 C911 1.404 . S
C912 C913 1.405 . S
C913 H901 0.950 . S
C913 C909 1.393 . S
C913 C912 1.405 . S
H914 C922 0.950 1_554 S
H915 C927 0.950 . S
H916 C924 0.950 . S
H917 C926 0.926 1_545 S
H918 C928 0.950 1_556 S
H919 C930 0.950 . S
H920 C932 0.950 . S
H921 C933 0.950 . S
C922 H914 0.950 1_556 S
C922 C923 1.386 . S
C922 C924 1.391 1_556 S
C923 C922 1.386 . S
C923 C927 1.393 . S
C924 H916 0.950 . S
C924 C922 1.391 1_554 S
C924 C925 1.400 1_564 S
C925 C924 1.400 1_546 S
C925 C926 1.396 1_545 S
C925 C931 1.491 1_556 S
C926 H917 0.926 1_565 S
C926 C925 1.396 1_565 S
C926 C927 1.417 . S
C927 H915 0.950 . S
C927 C923 1.393 . S
C927 C926 1.417 . S
C928 H918 0.950 1_554 S
C928 C929 1.386 . S
C928 C930 1.391 1_554 S
C929 C928 1.386 . S
C929 C933 1.393 . S
C930 H919 0.950 . S
C930 C928 1.391 1_556 S
C930 C931 1.400 1_556 S
C931 C925 1.491 1_554 S
C931 C930 1.400 1_554 S
C931 C932 1.398 . S
C932 H920 0.950 . S
C932 C931 1.398 . S
C932 C933 1.391 . S
C933 H921 0.950 . S
C933 C929 1.393 . S
C933 C932 1.391 . S
H934 C942 0.950 . S
H935 C947 0.950 1_554 S
H936 C944 0.950 . S
H937 C946 0.950 . S
H938 C948 0.950 . S
H939 C950 0.950 1_455 S
H940 C952 0.950 1_455 S
H941 C953 0.950 1_556 S
C942 H934 0.950 . S
C942 C943 1.386 . S
C942 C944 1.391 . S
C943 C942 1.386 . S
C943 C947 1.393 . S
C944 H936 0.950 . S
C944 C942 1.391 . S
C944 C945 1.400 . S
C945 C944 1.400 . S
C945 C946 1.398 1_556 S
C945 C951 1.491 1_556 S
C946 H937 0.950 . S
C946 C945 1.398 1_554 S
C946 C947 1.391 1_554 S
C947 H935 0.950 1_556 S
C947 C943 1.393 . S
C947 C946 1.391 1_556 S
C948 H938 0.950 . S
C948 C949 1.386 . S
C948 C950 1.391 . S
C949 C948 1.386 . S
C949 C953 1.393 . S
C950 H939 0.950 1_655 S
C950 C948 1.391 . S
C950 C951 1.400 1_655 S
C951 C945 1.491 1_554 S
C951 C950 1.400 1_455 S
C951 C952 1.398 1_454 S
C952 H940 0.950 1_655 S
C952 C951 1.398 1_656 S
C952 C953 1.391 1_556 S
C953 H941 0.950 1_554 S
C953 C949 1.393 . S
C953 C952 1.391 1_554 S
C243 C1 1.978 . S
C249 C183 1.973 1_554 S
C263 C159 1.851 1_554 S
C269 C16 1.855 . S
C283 C29 1.896 . S
C289 C170 1.927 1_554 S
C303 C79 1.970 . S
C309 C27 1.978 . S
C323 C101 2.026 . S
C329 C3 1.901 . S
C343 C105 1.973 . S
C349 C14 1.962 . S
C363 C49 1.961 . S
C369 C144 2.069 1_556 S
C383 C118 2.032 1_556 S
C389 C57 1.903 . S
C403 C140 1.917 1_556 S
C409 C68 2.046 . S
C423 C66 2.070 . S
C429 C205 1.955 . S
C443 C44 1.850 . S
C449 C213 1.837 . S
C463 C224 2.035 . S
C469 C62 1.902 . S
C483 C157 1.900 . S
C489 C107 1.890 . S
C503 C81 1.856 . S
C509 C172 1.859 . S
C523 C185 1.850 . S
C529 C96 1.984 . S
C543 C222 1.996 . S
C549 C120 2.007 . S
C563 C135 1.844 . S
C569 C200 1.828 . S
C583 C218 1.915 . S
C589 C146 2.023 . S
C603 C196 1.668 . S
C609 C10 1.667 . S
C623 C18 1.596 . S
C629 C211 1.596 . S
C643 C31 1.579 . S
C649 C226 1.598 . S
C663 C36 1.656 . S
C669 C153 1.660 . S
C683 C127 1.648 . S
C689 C5 1.627 . S
C703 C23 1.658 . S
C709 C131 1.659 . S
C723 C88 1.651 . S
C729 C40 1.652 . S
C743 C92 1.650 . S
C749 C55 1.626 . S
C763 C70 1.649 . S
C769 C114 1.633 . S
C783 C75 1.677 . S
C789 C192 1.667 . S
C803 C42 1.582 . S
C809 C161 1.583 . S
C823 C53 1.673 . S
C829 C179 1.674 . S
C843 C109 1.609 . S
C849 C231 1.638 . S
C863 C83 1.607 . S
C869 C198 1.606 . S
C883 C209 1.623 . S
C889 C94 1.639 . S
C903 C166 1.627 . S
C909 C122 1.629 . S
C923 C174 1.598 . S
C929 C133 1.599 . S
C943 C187 1.607 . S
C949 C148 1.614 . S
