# Generated by pormake.
# Topology hbo, (4)-cn, num edge types: 1
# Building blocks:
#     Node 0, Type 0, BuildingBlock: KUFVIS_clean_sbu_0, # of connection points: 4
#     Node 1, Type 0, BuildingBlock: KUFVIS_clean_sbu_0, # of connection points: 4
#     Node 2, Type 0, BuildingBlock: KUFVIS_clean_sbu_0, # of connection points: 4
#     Node 3, Type 0, BuildingBlock: KUFVIS_clean_sbu_0, # of connection points: 4
#     Node 4, Type 0, BuildingBlock: KUFVIS_clean_sbu_0, # of connection points: 4
#     Node 5, Type 0, BuildingBlock: KUFVIS_clean_sbu_0, # of connection points: 4
#     Node 6, Type 0, BuildingBlock: KUFVIS_clean_sbu_0, # of connection points: 4
#     Node 7, Type 0, BuildingBlock: KUFVIS_clean_sbu_0, # of connection points: 4
#     Node 8, Type 0, BuildingBlock: KUFVIS_clean_sbu_0, # of connection points: 4
#     Node 9, Type 0, BuildingBlock: KUFVIS_clean_sbu_0, # of connection points: 4
#     Node 10, Type 0, BuildingBlock: KUFVIS_clean_sbu_0, # of connection points: 4
#     Node 11, Type 0, BuildingBlock: KUFVIS_clean_sbu_0, # of connection points: 4
#     Node 12, Type 0, BuildingBlock: KUFVIS_clean_sbu_0, # of connection points: 4
#     Node 13, Type 0, BuildingBlock: KUFVIS_clean_sbu_0, # of connection points: 4
#     Node 14, Type 0, BuildingBlock: KUFVIS_clean_sbu_0, # of connection points: 4
#     Node 15, Type 0, BuildingBlock: KUFVIS_clean_sbu_0, # of connection points: 4
#     Node 16, Type 0, BuildingBlock: KUFVIS_clean_sbu_0, # of connection points: 4
#     Node 17, Type 0, BuildingBlock: KUFVIS_clean_sbu_0, # of connection points: 4
#     Node 18, Type 0, BuildingBlock: KUFVIS_clean_sbu_0, # of connection points: 4
#     Node 19, Type 0, BuildingBlock: KUFVIS_clean_sbu_0, # of connection points: 4
#     Node 20, Type 0, BuildingBlock: KUFVIS_clean_sbu_0, # of connection points: 4
#     Node 21, Type 0, BuildingBlock: KUFVIS_clean_sbu_0, # of connection points: 4
#     Node 22, Type 0, BuildingBlock: KUFVIS_clean_sbu_0, # of connection points: 4
#     Node 23, Type 0, BuildingBlock: KUFVIS_clean_sbu_0, # of connection points: 4
#     Edge 24, Type (0, 0), BuildingBlock: CIFDUS_clean_linker_0, # of connection points: 2
#     Edge 25, Type (0, 0), BuildingBlock: CIFDUS_clean_linker_0, # of connection points: 2
#     Edge 26, Type (0, 0), BuildingBlock: CIFDUS_clean_linker_0, # of connection points: 2
#     Edge 27, Type (0, 0), BuildingBlock: CIFDUS_clean_linker_0, # of connection points: 2
#     Edge 28, Type (0, 0), BuildingBlock: CIFDUS_clean_linker_0, # of connection points: 2
#     Edge 29, Type (0, 0), BuildingBlock: CIFDUS_clean_linker_0, # of connection points: 2
#     Edge 30, Type (0, 0), BuildingBlock: CIFDUS_clean_linker_0, # of connection points: 2
#     Edge 31, Type (0, 0), BuildingBlock: CIFDUS_clean_linker_0, # of connection points: 2
#     Edge 32, Type (0, 0), BuildingBlock: CIFDUS_clean_linker_0, # of connection points: 2
#     Edge 33, Type (0, 0), BuildingBlock: CIFDUS_clean_linker_0, # of connection points: 2
#     Edge 34, Type (0, 0), BuildingBlock: CIFDUS_clean_linker_0, # of connection points: 2
#     Edge 35, Type (0, 0), BuildingBlock: CIFDUS_clean_linker_0, # of connection points: 2
#     Edge 36, Type (0, 0), BuildingBlock: CIFDUS_clean_linker_0, # of connection points: 2
#     Edge 37, Type (0, 0), BuildingBlock: CIFDUS_clean_linker_0, # of connection points: 2
#     Edge 38, Type (0, 0), BuildingBlock: CIFDUS_clean_linker_0, # of connection points: 2
#     Edge 39, Type (0, 0), BuildingBlock: CIFDUS_clean_linker_0, # of connection points: 2
#     Edge 40, Type (0, 0), BuildingBlock: CIFDUS_clean_linker_0, # of connection points: 2
#     Edge 41, Type (0, 0), BuildingBlock: CIFDUS_clean_linker_0, # of connection points: 2
#     Edge 42, Type (0, 0), BuildingBlock: CIFDUS_clean_linker_0, # of connection points: 2
#     Edge 43, Type (0, 0), BuildingBlock: CIFDUS_clean_linker_0, # of connection points: 2
#     Edge 44, Type (0, 0), BuildingBlock: CIFDUS_clean_linker_0, # of connection points: 2
#     Edge 45, Type (0, 0), BuildingBlock: CIFDUS_clean_linker_0, # of connection points: 2
#     Edge 46, Type (0, 0), BuildingBlock: CIFDUS_clean_linker_0, # of connection points: 2
#     Edge 47, Type (0, 0), BuildingBlock: CIFDUS_clean_linker_0, # of connection points: 2
#     Edge 48, Type (0, 0), BuildingBlock: CIFDUS_clean_linker_0, # of connection points: 2
#     Edge 49, Type (0, 0), BuildingBlock: CIFDUS_clean_linker_0, # of connection points: 2
#     Edge 50, Type (0, 0), BuildingBlock: CIFDUS_clean_linker_0, # of connection points: 2
#     Edge 51, Type (0, 0), BuildingBlock: CIFDUS_clean_linker_0, # of connection points: 2
#     Edge 52, Type (0, 0), BuildingBlock: CIFDUS_clean_linker_0, # of connection points: 2
#     Edge 53, Type (0, 0), BuildingBlock: CIFDUS_clean_linker_0, # of connection points: 2
#     Edge 54, Type (0, 0), BuildingBlock: CIFDUS_clean_linker_0, # of connection points: 2
#     Edge 55, Type (0, 0), BuildingBlock: CIFDUS_clean_linker_0, # of connection points: 2
#     Edge 56, Type (0, 0), BuildingBlock: CIFDUS_clean_linker_0, # of connection points: 2
#     Edge 57, Type (0, 0), BuildingBlock: CIFDUS_clean_linker_0, # of connection points: 2
#     Edge 58, Type (0, 0), BuildingBlock: CIFDUS_clean_linker_0, # of connection points: 2
#     Edge 59, Type (0, 0), BuildingBlock: CIFDUS_clean_linker_0, # of connection points: 2
#     Edge 60, Type (0, 0), BuildingBlock: CIFDUS_clean_linker_0, # of connection points: 2
#     Edge 61, Type (0, 0), BuildingBlock: CIFDUS_clean_linker_0, # of connection points: 2
#     Edge 62, Type (0, 0), BuildingBlock: CIFDUS_clean_linker_0, # of connection points: 2
#     Edge 63, Type (0, 0), BuildingBlock: CIFDUS_clean_linker_0, # of connection points: 2
#     Edge 64, Type (0, 0), BuildingBlock: CIFDUS_clean_linker_0, # of connection points: 2
#     Edge 65, Type (0, 0), BuildingBlock: CIFDUS_clean_linker_0, # of connection points: 2
#     Edge 66, Type (0, 0), BuildingBlock: CIFDUS_clean_linker_0, # of connection points: 2
#     Edge 67, Type (0, 0), BuildingBlock: CIFDUS_clean_linker_0, # of connection points: 2
#     Edge 68, Type (0, 0), BuildingBlock: CIFDUS_clean_linker_0, # of connection points: 2
#     Edge 69, Type (0, 0), BuildingBlock: CIFDUS_clean_linker_0, # of connection points: 2
#     Edge 70, Type (0, 0), BuildingBlock: CIFDUS_clean_linker_0, # of connection points: 2
#     Edge 71, Type (0, 0), BuildingBlock: CIFDUS_clean_linker_0, # of connection points: 2
# Relax obj value: 0.252
# Max RMSD: 0.307
# Mean RMSD: 0.266
data_MOF--net-hbo--node1-KUFVIS_clean_sbu_0--edge1-CIFDUS_clean_linker_0
_symmetry_space_group_name_H-M    P1
_symmetry_Int_Tables_number       1
_symmetry_cell_setting            triclinic
loop_
_symmetry_equiv_pos_as_xyz
'x, y, z'
_cell_length_a     45.028964
_cell_length_b     46.05035
_cell_length_c     46.201776
_cell_angle_alpha  91.419792
_cell_angle_beta   90.015367
_cell_angle_gamma 95.822665
loop_
_atom_site_label
_atom_site_type_symbol
_atom_site_fract_x
_atom_site_fract_y
_atom_site_fract_z
_atom_type_partial_charge
Mn0 Mn 0.12094 0.3317 0.22646 0.0
Mn1 Mn 0.11433 0.34723 0.15586 0.0
C2 C 0.16158 0.33157 0.19639 0.0
C3 C 0.11611 0.29567 0.26156 0.0
C4 C 0.11835 0.3932 0.20449 0.0
O5 O 0.07632 0.32976 0.22017 0.0
O6 O 0.07407 0.33556 0.17189 0.0
C7 C 0.09426 0.28801 0.13279 0.0
N8 N 0.11416 0.31232 0.13266 0.0
C9 C 0.14275 0.29179 0.09471 0.0
C10 C 0.12244 0.2666 0.09429 0.0
C11 C 0.09812 0.26469 0.11345 0.0
C12 C 0.13762 0.31441 0.11431 0.0
H13 H 0.07564 0.28646 0.14761 0.0
C14 C 0.06176 0.33154 0.19669 0.0
O15 O 0.11609 0.32315 0.26883 0.0
O16 O 0.1182 0.28939 0.23426 0.0
N17 N 0.15157 0.3591 0.13759 0.0
C18 C 0.17008 0.38409 0.14207 0.0
C19 C 0.19611 0.38895 0.12541 0.0
C20 C 0.20271 0.36817 0.10421 0.0
C21 C 0.18312 0.34278 0.09976 0.0
C22 C 0.15738 0.33926 0.11684 0.0
H23 H 0.16513 0.40008 0.15839 0.0
O24 O 0.16522 0.33325 0.22424 0.0
O25 O 0.13419 0.32897 0.18709 0.0
O26 O 0.12295 0.37666 0.22557 0.0
O27 O 0.11474 0.38413 0.17822 0.0
C28 C 0.18843 0.32054 0.07949 0.0
C29 C 0.16826 0.29507 0.07696 0.0
H30 H 0.12547 0.24847 0.07957 0.0
H31 H 0.08245 0.24524 0.11337 0.0
H32 H 0.21112 0.40859 0.12898 0.0
H33 H 0.22297 0.37185 0.09162 0.0
H34 H 0.20819 0.3226 0.06604 0.0
H35 H 0.17283 0.27792 0.06163 0.0
Mn36 Mn 0.16803 0.61568 0.71186 0.0
Mn37 Mn 0.14705 0.60577 0.78094 0.0
C38 C 0.20428 0.61611 0.74721 0.0
C39 C 0.1752 0.65113 0.67707 0.0
C40 C 0.14581 0.55702 0.73478 0.0
O41 O 0.12391 0.62015 0.71126 0.0
O42 O 0.11474 0.62163 0.75909 0.0
C43 C 0.14233 0.66664 0.80112 0.0
N44 N 0.15365 0.64059 0.80432 0.0
C45 C 0.17756 0.65708 0.84917 0.0
C46 C 0.16584 0.68397 0.84657 0.0
C47 C 0.14833 0.68884 0.82233 0.0
C48 C 0.17081 0.63578 0.82737 0.0
H49 H 0.12888 0.67044 0.78252 0.0
C50 C 0.10725 0.62473 0.73271 0.0
O51 O 0.1706 0.62371 0.66904 0.0
O52 O 0.17648 0.6571 0.70447 0.0
N53 N 0.17652 0.59096 0.80475 0.0
C54 C 0.1883 0.56489 0.80256 0.0
C55 C 0.2076 0.5572 0.82432 0.0
C56 C 0.21434 0.57624 0.84817 0.0
C57 C 0.20222 0.60309 0.84979 0.0
C58 C 0.18306 0.60953 0.82752 0.0
H59 H 0.18282 0.55 0.78449 0.0
O60 O 0.21088 0.61265 0.72009 0.0
O61 O 0.17667 0.62019 0.75268 0.0
O62 O 0.15888 0.57117 0.71411 0.0
O63 O 0.13963 0.56869 0.75914 0.0
C64 C 0.20845 0.62379 0.87254 0.0
C65 C 0.19627 0.65082 0.87214 0.0
H66 H 0.17053 0.70119 0.86282 0.0
H67 H 0.13944 0.70964 0.82002 0.0
H68 H 0.21702 0.5365 0.82287 0.0
H69 H 0.22881 0.56997 0.86511 0.0
H70 H 0.22275 0.61932 0.89035 0.0
H71 H 0.20176 0.66679 0.88943 0.0
Mn72 Mn 0.86235 0.67106 0.2598 0.0
Mn73 Mn 0.88753 0.65704 0.3259 0.0
C74 C 0.86685 0.70767 0.29462 0.0
C75 C 0.82162 0.66882 0.2286 0.0
C76 C 0.92786 0.66608 0.27341 0.0
O77 O 0.8595 0.62738 0.26044 0.0
O78 O 0.87299 0.61888 0.30611 0.0
C79 C 0.83008 0.63492 0.35234 0.0
N80 N 0.85474 0.65467 0.35227 0.0
C81 C 0.83683 0.68088 0.39333 0.0
C82 C 0.81137 0.66068 0.394 0.0
C83 C 0.80799 0.6376 0.37341 0.0
C84 C 0.85828 0.67689 0.37204 0.0
H85 H 0.82722 0.61738 0.33632 0.0
C86 C 0.86392 0.61012 0.2807 0.0
O87 O 0.84867 0.66969 0.21853 0.0
O88 O 0.81851 0.66958 0.25645 0.0
N89 N 0.90187 0.69186 0.34716 0.0
C90 C 0.92679 0.71046 0.34239 0.0
C91 C 0.93302 0.73521 0.36059 0.0
C92 C 0.91358 0.74058 0.38343 0.0
C93 C 0.88814 0.72104 0.38799 0.0
C94 C 0.88329 0.69653 0.3694 0.0
H95 H 0.94164 0.70659 0.32468 0.0
O96 O 0.86548 0.71385 0.26742 0.0
O97 O 0.8649 0.67999 0.30041 0.0
O98 O 0.90772 0.67213 0.25567 0.0
O99 O 0.92259 0.6599 0.29991 0.0
C100 C 0.86706 0.72527 0.40983 0.0
C101 C 0.84142 0.70521 0.41249 0.0
H102 H 0.79412 0.66285 0.41002 0.0
H103 H 0.7883 0.62204 0.37366 0.0
H104 H 0.95265 0.75024 0.35688 0.0
H105 H 0.91827 0.75988 0.3972 0.0
H106 H 0.87015 0.74408 0.42446 0.0
H107 H 0.82517 0.70891 0.42911 0.0
Mn108 Mn 0.83571 0.36187 0.73324 0.0
Mn109 Mn 0.86293 0.37255 0.66598 0.0
C110 C 0.82717 0.32564 0.69885 0.0
C111 C 0.79844 0.36594 0.76693 0.0
C112 C 0.9 0.35496 0.71593 0.0
O113 O 0.84739 0.40485 0.73339 0.0
O114 O 0.86487 0.41081 0.68805 0.0
C115 C 0.81536 0.40615 0.64403 0.0
N116 N 0.83139 0.38267 0.6417 0.0
C117 C 0.80402 0.36463 0.59911 0.0
C118 C 0.78738 0.38875 0.60092 0.0
C119 C 0.79305 0.40957 0.6235 0.0
C120 C 0.82611 0.36249 0.62007 0.0
H121 H 0.81952 0.42212 0.66145 0.0
C122 C 0.85906 0.42065 0.71344 0.0
O123 O 0.82563 0.36324 0.77507 0.0
O124 O 0.79349 0.36785 0.73943 0.0
N125 N 0.86245 0.33797 0.64204 0.0
C126 C 0.87963 0.31538 0.64407 0.0
C127 C 0.87616 0.29229 0.62354 0.0
C128 C 0.85529 0.29279 0.601 0.0
C129 C 0.83814 0.31644 0.59914 0.0
C130 C 0.84271 0.33894 0.62013 0.0
H131 H 0.89557 0.31479 0.66144 0.0
O132 O 0.82461 0.32011 0.72615 0.0
O133 O 0.83335 0.35299 0.6921 0.0
O134 O 0.87955 0.35468 0.73502 0.0
O135 O 0.89627 0.36133 0.68948 0.0
C136 C 0.8163 0.31832 0.57762 0.0
C137 C 0.79924 0.34239 0.57761 0.0
H138 H 0.77004 0.39137 0.58522 0.0
H139 H 0.7802 0.42816 0.62513 0.0
H140 H 0.8895 0.27413 0.62515 0.0
H141 H 0.85253 0.27486 0.58529 0.0
H142 H 0.81221 0.30122 0.56116 0.0
H143 H 0.78231 0.34345 0.56112 0.0
Mn144 Mn 0.21776 0.14823 0.35663 0.0
Mn145 Mn 0.28831 0.13124 0.36643 0.0
C146 C 0.2524 0.15431 0.31997 0.0
C147 C 0.18359 0.18332 0.35818 0.0
C148 C 0.23703 0.08607 0.35117 0.0
O149 O 0.21914 0.14431 0.40037 0.0
O150 O 0.2659 0.13153 0.403 0.0
C151 C 0.30933 0.18532 0.39951 0.0
N152 N 0.31254 0.16642 0.37685 0.0
C153 C 0.35729 0.19465 0.36122 0.0
C154 C 0.35457 0.21435 0.38449 0.0
C155 C 0.33043 0.2097 0.40366 0.0
C156 C 0.33554 0.1708 0.35817 0.0
H157 H 0.2908 0.18181 0.41428 0.0
C158 C 0.24095 0.13603 0.41452 0.0
O159 O 0.17448 0.15559 0.35684 0.0
O160 O 0.21204 0.19028 0.36046 0.0
N161 N 0.31333 0.12977 0.33317 0.0
C162 C 0.31227 0.10909 0.31149 0.0
C163 C 0.3347 0.11062 0.29037 0.0
C164 C 0.35823 0.13308 0.29204 0.0
C165 C 0.3591 0.15387 0.31476 0.0
C166 C 0.33623 0.1511 0.33531 0.0
H167 H 0.29425 0.09179 0.31015 0.0
O168 O 0.22413 0.15254 0.31436 0.0
O169 O 0.25997 0.15358 0.34708 0.0
O170 O 0.21623 0.10318 0.35189 0.0
O171 O 0.26464 0.09466 0.35527 0.0
C172 C 0.38152 0.17744 0.31763 0.0
C173 C 0.38054 0.1979 0.34078 0.0
H174 H 0.3708 0.23318 0.38776 0.0
H175 H 0.32811 0.22485 0.4216 0.0
H176 H 0.33382 0.09445 0.27293 0.0
H177 H 0.37556 0.13415 0.27585 0.0
H178 H 0.39943 0.18022 0.30198 0.0
H179 H 0.39772 0.2161 0.3426 0.0
Mn180 Mn 0.37676 0.73443 0.83434 0.0
Mn181 Mn 0.37691 0.66575 0.85855 0.0
C182 C 0.33281 0.70411 0.83594 0.0
C183 C 0.38112 0.76602 0.79538 0.0
C184 C 0.38134 0.7197 0.89798 0.0
O185 O 0.42059 0.72793 0.83315 0.0
O186 O 0.4174 0.68092 0.84637 0.0
C187 C 0.3916 0.63455 0.80449 0.0
N188 N 0.3732 0.63746 0.82753 0.0
C189 C 0.3429 0.59314 0.81406 0.0
C190 C 0.36156 0.5896 0.79019 0.0
C191 C 0.38592 0.61047 0.78532 0.0
C192 C 0.34965 0.61758 0.83237 0.0
H193 H 0.4105 0.65042 0.80086 0.0
C194 C 0.43223 0.70439 0.83805 0.0
O195 O 0.38483 0.77594 0.82187 0.0
O196 O 0.37599 0.73803 0.79166 0.0
N197 N 0.33891 0.64823 0.87095 0.0
C198 C 0.32188 0.65617 0.89359 0.0
C199 C 0.29603 0.63819 0.90082 0.0
C200 C 0.28817 0.61217 0.88486 0.0
C201 C 0.30584 0.60466 0.86141 0.0
C202 C 0.33142 0.62334 0.85534 0.0
H203 H 0.32816 0.67594 0.90615 0.0
O204 O 0.33258 0.73223 0.83538 0.0
O205 O 0.35894 0.69439 0.83531 0.0
O206 O 0.37878 0.73887 0.87886 0.0
O207 O 0.38094 0.69244 0.8923 0.0
C208 C 0.29907 0.57945 0.84375 0.0
C209 C 0.31752 0.57375 0.82003 0.0
H210 H 0.3572 0.57111 0.77531 0.0
H211 H 0.40036 0.60794 0.7669 0.0
H212 H 0.28238 0.64417 0.91885 0.0
H213 H 0.26863 0.59806 0.89091 0.0
H214 H 0.27959 0.56443 0.84802 0.0
H215 H 0.31177 0.55459 0.80631 0.0
Mn216 Mn 0.7411 0.86086 0.35439 0.0
Mn217 Mn 0.67141 0.88177 0.35724 0.0
C218 C 0.7127 0.85975 0.31281 0.0
C219 C 0.77172 0.8233 0.35926 0.0
C220 C 0.72784 0.92421 0.35904 0.0
O221 O 0.73157 0.86089 0.39707 0.0
O222 O 0.68337 0.87022 0.39647 0.0
C223 C 0.6364 0.82602 0.37124 0.0
N224 N 0.64174 0.84917 0.35355 0.0
C225 C 0.6005 0.83144 0.3226 0.0
C226 C 0.59444 0.8075 0.3406 0.0
C227 C 0.61249 0.80477 0.365 0.0
C228 C 0.62434 0.85217 0.33015 0.0
H229 H 0.65031 0.8238 0.38995 0.0
C230 C 0.7068 0.86374 0.40965 0.0
O231 O 0.78262 0.85051 0.36165 0.0
O232 O 0.74332 0.81818 0.35448 0.0
N233 N 0.65715 0.89316 0.32059 0.0
C234 C 0.66793 0.9158 0.30387 0.0
C235 C 0.65356 0.92054 0.27768 0.0
C236 C 0.6282 0.90207 0.26903 0.0
C237 C 0.61747 0.87896 0.28664 0.0
C238 C 0.63259 0.87543 0.31261 0.0
H239 H 0.68751 0.92996 0.31033 0.0
O240 O 0.74151 0.86011 0.31131 0.0
O241 O 0.70132 0.85957 0.3387 0.0
O242 O 0.74697 0.90577 0.35553 0.0
O243 O 0.69979 0.91692 0.36071 0.0
C244 C 0.59294 0.85877 0.27899 0.0
C245 C 0.58442 0.83506 0.29698 0.0
H246 H 0.57623 0.79087 0.33568 0.0
H247 H 0.60806 0.78625 0.37889 0.0
H248 H 0.66207 0.93832 0.26413 0.0
H249 H 0.61734 0.90562 0.24869 0.0
H250 H 0.58084 0.86094 0.25901 0.0
H251 H 0.56588 0.81937 0.29059 0.0
Mn252 Mn 0.62874 0.25605 0.862 0.0
Mn253 Mn 0.63313 0.32584 0.8867 0.0
C254 C 0.67353 0.28502 0.86072 0.0
C255 C 0.61881 0.22295 0.82355 0.0
C256 C 0.62827 0.27321 0.92553 0.0
O257 O 0.58546 0.26475 0.86439 0.0
O258 O 0.59138 0.31313 0.87506 0.0
C259 C 0.61979 0.35631 0.83332 0.0
N260 N 0.63859 0.35254 0.85571 0.0
C261 C 0.67432 0.39095 0.8392 0.0
C262 C 0.65526 0.39538 0.81606 0.0
C263 C 0.62792 0.37794 0.81308 0.0
C264 C 0.6649 0.36927 0.85885 0.0
H265 H 0.5988 0.34288 0.83092 0.0
C266 C 0.57516 0.28941 0.86833 0.0
O267 O 0.61746 0.21435 0.85014 0.0
O268 O 0.6252 0.25061 0.81947 0.0
N269 N 0.67278 0.34046 0.89826 0.0
C270 C 0.68958 0.3318 0.92038 0.0
C271 C 0.71827 0.34602 0.92541 0.0
C272 C 0.72933 0.36901 0.90772 0.0
C273 C 0.71158 0.37762 0.88516 0.0
C274 C 0.68308 0.3628 0.88133 0.0
H275 H 0.68124 0.31406 0.93395 0.0
O276 O 0.67314 0.25681 0.85927 0.0
O277 O 0.64775 0.29518 0.86245 0.0
O278 O 0.63065 0.25345 0.90611 0.0
O279 O 0.62794 0.30026 0.92022 0.0
C280 C 0.72131 0.39987 0.86594 0.0
C281 C 0.70267 0.40659 0.84302 0.0
H282 H 0.66159 0.41182 0.80022 0.0
H283 H 0.61319 0.38109 0.79517 0.0
H284 H 0.73187 0.33919 0.94279 0.0
H285 H 0.75159 0.37973 0.91149 0.0
H286 H 0.74328 0.41167 0.86832 0.0
H287 H 0.7106 0.42341 0.82809 0.0
Mn288 Mn 0.26844 0.84826 0.63921 0.0
Mn289 Mn 0.19674 0.85495 0.62192 0.0
C290 C 0.23491 0.80711 0.63401 0.0
C291 C 0.30365 0.84764 0.67626 0.0
C292 C 0.24803 0.86215 0.579 0.0
O293 O 0.26444 0.89136 0.64628 0.0
O294 O 0.2149 0.89232 0.63964 0.0
C295 C 0.17066 0.86167 0.68015 0.0
N296 N 0.171 0.84702 0.65421 0.0
C297 C 0.12898 0.81367 0.66775 0.0
C298 C 0.12806 0.82849 0.69457 0.0
C299 C 0.14901 0.85258 0.70079 0.0
C300 C 0.15079 0.82397 0.64788 0.0
H301 H 0.18681 0.88012 0.68502 0.0
C302 C 0.24088 0.90463 0.64646 0.0
O303 O 0.31203 0.85299 0.64981 0.0
O304 O 0.2753 0.84322 0.68102 0.0
N305 N 0.1768 0.82011 0.60467 0.0
C306 C 0.18251 0.80668 0.57895 0.0
C307 C 0.16461 0.78125 0.57014 0.0
C308 C 0.141 0.76997 0.58778 0.0
C309 C 0.13551 0.78424 0.61411 0.0
C310 C 0.15395 0.80963 0.62166 0.0
H311 H 0.20073 0.81519 0.56539 0.0
O312 O 0.26338 0.80504 0.63271 0.0
O313 O 0.22707 0.83318 0.63893 0.0
O314 O 0.26888 0.85474 0.59521 0.0
O315 O 0.22113 0.8633 0.58734 0.0
C316 C 0.11296 0.77385 0.63351 0.0
C317 C 0.10967 0.78857 0.66029 0.0
H318 H 0.11161 0.82136 0.71067 0.0
H319 H 0.14854 0.86404 0.7215 0.0
H320 H 0.16907 0.77029 0.54984 0.0
H321 H 0.12743 0.75019 0.58104 0.0
H322 H 0.09836 0.75426 0.62826 0.0
H323 H 0.09259 0.78008 0.67522 0.0
Mn324 Mn 0.65805 0.7538 0.13317 0.0
Mn325 Mn 0.6382 0.8179 0.10984 0.0
C326 C 0.66259 0.79349 0.16393 0.0
C327 C 0.69516 0.72237 0.13582 0.0
C328 C 0.59352 0.7689 0.13044 0.0
O329 O 0.65353 0.74694 0.09061 0.0
O330 O 0.64337 0.79104 0.07566 0.0
C331 C 0.69445 0.83825 0.08018 0.0
N332 N 0.67339 0.84262 0.10055 0.0
C333 C 0.6992 0.88897 0.11519 0.0
C334 C 0.72103 0.88509 0.09419 0.0
C335 C 0.71866 0.85959 0.07665 0.0
C336 C 0.67544 0.86707 0.11753 0.0
H337 H 0.69281 0.81859 0.0668 0.0
C338 C 0.64798 0.76428 0.07089 0.0
O339 O 0.66718 0.71265 0.13875 0.0
O340 O 0.70119 0.74979 0.13062 0.0
N341 N 0.63257 0.84604 0.14004 0.0
C342 C 0.61063 0.84564 0.1604 0.0
C343 C 0.61045 0.86906 0.18044 0.0
C344 C 0.63259 0.89277 0.17914 0.0
C345 C 0.65472 0.89287 0.15779 0.0
C346 C 0.65371 0.86897 0.13833 0.0
H347 H 0.59371 0.82737 0.16165 0.0
O348 O 0.66276 0.76731 0.17355 0.0
O349 O 0.66146 0.79596 0.13585 0.0
O350 O 0.61225 0.75095 0.13706 0.0
O351 O 0.60105 0.79396 0.11981 0.0
C352 C 0.67818 0.91539 0.15552 0.0
C353 C 0.70039 0.91344 0.13423 0.0
H354 H 0.73985 0.90141 0.09153 0.0
H355 H 0.73551 0.85636 0.06052 0.0
H356 H 0.59338 0.86876 0.19695 0.0
H357 H 0.63252 0.91069 0.19477 0.0
H358 H 0.67957 0.93411 0.1703 0.0
H359 H 0.71851 0.93073 0.13293 0.0
Mn360 Mn 0.71029 0.13659 0.65612 0.0
Mn361 Mn 0.77759 0.12698 0.62685 0.0
C362 C 0.74722 0.17502 0.65488 0.0
C363 C 0.67917 0.135 0.69632 0.0
C364 C 0.72276 0.13546 0.59134 0.0
O365 O 0.70925 0.09263 0.65349 0.0
O366 O 0.75514 0.08885 0.63537 0.0
C367 C 0.80485 0.10264 0.67803 0.0
N368 N 0.80574 0.12302 0.6571 0.0
C369 C 0.85317 0.14565 0.67437 0.0
C370 C 0.85287 0.12478 0.69598 0.0
C371 C 0.82857 0.10322 0.69785 0.0
C372 C 0.829 0.14386 0.65511 0.0
H373 H 0.78618 0.08609 0.6796 0.0
C374 C 0.72993 0.07762 0.64483 0.0
O375 O 0.66821 0.13444 0.67026 0.0
O376 O 0.70786 0.13552 0.69886 0.0
N377 N 0.8022 0.1619 0.61765 0.0
C378 C 0.79833 0.18134 0.59656 0.0
C379 C 0.82016 0.20488 0.59247 0.0
C380 C 0.84597 0.20792 0.6098 0.0
C381 C 0.8497 0.18742 0.63108 0.0
C382 C 0.82724 0.16433 0.63406 0.0
H383 H 0.77867 0.17898 0.58308 0.0
O384 O 0.7195 0.17967 0.65817 0.0
O385 O 0.75285 0.14786 0.6534 0.0
O386 O 0.70446 0.13783 0.61213 0.0
O387 O 0.75023 0.13154 0.59451 0.0
C388 C 0.8745 0.18934 0.64987 0.0
C389 C 0.87622 0.16849 0.67152 0.0
H390 H 0.87104 0.12524 0.71141 0.0
H391 H 0.82811 0.08712 0.71455 0.0
H392 H 0.81714 0.22062 0.57599 0.0
H393 H 0.86276 0.22608 0.60662 0.0
H394 H 0.89218 0.207 0.64812 0.0
H395 H 0.89521 0.17043 0.68609 0.0
Mn396 Mn 0.32949 0.22713 0.13531 0.0
Mn397 Mn 0.3615 0.16408 0.13136 0.0
C398 C 0.32525 0.19638 0.17333 0.0
C399 C 0.28906 0.25286 0.12636 0.0
C400 C 0.39552 0.22248 0.14679 0.0
O401 O 0.33949 0.22366 0.09343 0.0
O402 O 0.36037 0.18116 0.09208 0.0
C403 C 0.31381 0.12988 0.09725 0.0
N404 N 0.3313 0.13326 0.12139 0.0
C405 C 0.30857 0.08822 0.14051 0.0
C406 C 0.29046 0.08413 0.11575 0.0
C407 C 0.29304 0.1051 0.09407 0.0
C408 C 0.32883 0.11334 0.14247 0.0
H409 H 0.31566 0.14599 0.08059 0.0
C410 C 0.35215 0.20387 0.08023 0.0
O411 O 0.31566 0.26632 0.13003 0.0
O412 O 0.28645 0.22457 0.12651 0.0
N413 N 0.36442 0.14473 0.1672 0.0
C414 C 0.38331 0.15214 0.18982 0.0
C415 C 0.38394 0.13328 0.21311 0.0
C416 C 0.36501 0.10708 0.21305 0.0
C417 C 0.34576 0.0999 0.18953 0.0
C418 C 0.34665 0.11925 0.16658 0.0
H419 H 0.3979 0.17222 0.19001 0.0
O420 O 0.32071 0.2236 0.17667 0.0
O421 O 0.33083 0.1873 0.14708 0.0
O422 O 0.37365 0.23787 0.14454 0.0
O423 O 0.39342 0.19479 0.1425 0.0
C424 C 0.32581 0.07427 0.18788 0.0
C425 C 0.30712 0.06851 0.16345 0.0
H426 H 0.27439 0.06508 0.11324 0.0
H427 H 0.27904 0.10218 0.07496 0.0
H428 H 0.39926 0.13883 0.23089 0.0
H429 H 0.36567 0.09252 0.23101 0.0
H430 H 0.32455 0.05894 0.20535 0.0
H431 H 0.29169 0.04886 0.16254 0.0
Mn432 Mn 0.87984 0.65656 0.72073 0.0
Mn433 Mn 0.89335 0.63426 0.78817 0.0
C434 C 0.84303 0.65494 0.75556 0.0
C435 C 0.87956 0.69286 0.68688 0.0
C436 C 0.88395 0.59335 0.73558 0.0
O437 O 0.9251 0.65915 0.72249 0.0
O438 O 0.93116 0.64953 0.76982 0.0
C439 C 0.91445 0.69088 0.81673 0.0
N440 N 0.89531 0.66602 0.81575 0.0
C441 C 0.8712 0.68009 0.85966 0.0
C442 C 0.89095 0.70566 0.86136 0.0
C443 C 0.91259 0.71112 0.83973 0.0
C444 C 0.87431 0.66059 0.83637 0.0
H445 H 0.93088 0.69529 0.79999 0.0
C446 C 0.94126 0.65734 0.74498 0.0
O447 O 0.87984 0.66565 0.67899 0.0
O448 O 0.88095 0.69912 0.71445 0.0
N449 N 0.85811 0.61938 0.80828 0.0
C450 C 0.8391 0.59509 0.80201 0.0
C451 C 0.81511 0.58737 0.82062 0.0
C452 C 0.81106 0.60458 0.84555 0.0
C453 C 0.83097 0.62938 0.85164 0.0
C454 C 0.8546 0.63587 0.83241 0.0
H455 H 0.84207 0.58182 0.78285 0.0
O456 O 0.83593 0.65471 0.72832 0.0
O457 O 0.87123 0.65638 0.76154 0.0
O458 O 0.87762 0.61231 0.71767 0.0
O459 O 0.8912 0.59957 0.76191 0.0
C460 C 0.82787 0.64829 0.87565 0.0
C461 C 0.84798 0.67363 0.87966 0.0
H462 H 0.88941 0.72146 0.87892 0.0
H463 H 0.92771 0.73095 0.84073 0.0
H464 H 0.79972 0.56827 0.81575 0.0
H465 H 0.79246 0.59869 0.85971 0.0
H466 H 0.80978 0.64385 0.89086 0.0
H467 H 0.84502 0.6883 0.89788 0.0
Mn468 Mn 0.84271 0.37202 0.26434 0.0
Mn469 Mn 0.8498 0.40169 0.19858 0.0
C470 C 0.80054 0.37506 0.23665 0.0
C471 C 0.84385 0.33001 0.29094 0.0
C472 C 0.85325 0.43712 0.25545 0.0
O473 O 0.88669 0.37294 0.25622 0.0
O474 O 0.88825 0.38696 0.20986 0.0
C475 C 0.8593 0.34984 0.16185 0.0
N476 N 0.84382 0.37317 0.16785 0.0
C477 C 0.81359 0.36343 0.12508 0.0
C478 C 0.82948 0.33953 0.11823 0.0
C479 C 0.85233 0.33262 0.13679 0.0
C480 C 0.82171 0.37995 0.15021 0.0
H481 H 0.87678 0.34438 0.17611 0.0
C482 C 0.90034 0.37745 0.23241 0.0
O483 O 0.84803 0.35567 0.30359 0.0
O484 O 0.83927 0.32904 0.26329 0.0
N485 N 0.81409 0.41603 0.1848 0.0
C486 C 0.79845 0.43723 0.19652 0.0
C487 C 0.77351 0.44547 0.18173 0.0
C488 C 0.76493 0.43185 0.15507 0.0
C489 C 0.78104 0.40971 0.14367 0.0
C490 C 0.8058 0.40255 0.1593 0.0
H491 H 0.8048 0.4476 0.21709 0.0
O492 O 0.79867 0.37157 0.26439 0.0
O493 O 0.82729 0.37595 0.2257 0.0
O494 O 0.8473 0.41621 0.27282 0.0
O495 O 0.85586 0.43329 0.22812 0.0
C496 C 0.77314 0.39406 0.11774 0.0
C497 C 0.78939 0.37093 0.10846 0.0
H498 H 0.82399 0.32603 0.09906 0.0
H499 H 0.86449 0.31403 0.13181 0.0
H500 H 0.76094 0.4623 0.19084 0.0
H501 H 0.74576 0.43838 0.14372 0.0
H502 H 0.75433 0.39928 0.10498 0.0
H503 H 0.78265 0.35861 0.08886 0.0
Mn504 Mn 0.11935 0.33048 0.76235 0.0
Mn505 Mn 0.10521 0.35154 0.83069 0.0
C506 C 0.1551 0.32772 0.7971 0.0
C507 C 0.11402 0.29522 0.72562 0.0
C508 C 0.1183 0.39325 0.78126 0.0
O509 O 0.07511 0.33291 0.76355 0.0
O510 O 0.06624 0.339 0.81125 0.0
C511 C 0.08038 0.29602 0.85621 0.0
N512 N 0.10141 0.31945 0.85627 0.0
C513 C 0.12539 0.30261 0.89836 0.0
C514 C 0.10388 0.27837 0.89885 0.0
C515 C 0.0813 0.27505 0.87767 0.0
C516 C 0.12311 0.32297 0.87666 0.0
H517 H 0.06309 0.29338 0.83987 0.0
C518 C 0.05745 0.3347 0.7849 0.0
O519 O 0.11802 0.32281 0.71999 0.0
O520 O 0.11294 0.28812 0.75267 0.0
N521 N 0.1412 0.36412 0.85142 0.0
C522 C 0.16163 0.38733 0.84635 0.0
C523 C 0.18645 0.393 0.86476 0.0
C524 C 0.18995 0.37482 0.8882 0.0
C525 C 0.16868 0.35102 0.89297 0.0
C526 C 0.14424 0.34661 0.87405 0.0
H527 H 0.15911 0.40133 0.82831 0.0
O528 O 0.16223 0.3276 0.76984 0.0
O529 O 0.12692 0.32847 0.80307 0.0
O530 O 0.12642 0.37475 0.76282 0.0
O531 O 0.1089 0.38651 0.80653 0.0
C532 C 0.17111 0.33112 0.91532 0.0
C533 C 0.14946 0.30694 0.91803 0.0
H534 H 0.10468 0.26199 0.91519 0.0
H535 H 0.06472 0.25632 0.87783 0.0
H536 H 0.20289 0.4113 0.86087 0.0
H537 H 0.20913 0.37928 0.90229 0.0
H538 H 0.1898 0.33393 0.93024 0.0
H539 H 0.15183 0.29154 0.93501 0.0
Mn540 Mn 0.15918 0.62604 0.24881 0.0
Mn541 Mn 0.12706 0.61183 0.184 0.0
C542 C 0.18995 0.62664 0.20825 0.0
C543 C 0.17133 0.66264 0.28362 0.0
C544 C 0.13583 0.56531 0.22847 0.0
O545 O 0.11535 0.62927 0.25632 0.0
O546 O 0.0977 0.62761 0.2109 0.0
C547 C 0.11923 0.67243 0.16799 0.0
N548 N 0.12993 0.64638 0.1617 0.0
C549 C 0.14994 0.66384 0.11634 0.0
C550 C 0.13892 0.69078 0.12221 0.0
C551 C 0.12361 0.69512 0.1482 0.0
C552 C 0.1451 0.64213 0.13699 0.0
H553 H 0.10752 0.67586 0.18798 0.0
C554 C 0.09459 0.6317 0.23817 0.0
O555 O 0.16849 0.63535 0.29088 0.0
O556 O 0.16773 0.66806 0.25664 0.0
N557 N 0.15191 0.5965 0.15501 0.0
C558 C 0.16093 0.56916 0.15255 0.0
C559 C 0.17602 0.56103 0.12748 0.0
C560 C 0.18138 0.58093 0.10505 0.0
C561 C 0.17131 0.60871 0.10777 0.0
C562 C 0.15604 0.61545 0.1331 0.0
H563 H 0.15654 0.55359 0.16949 0.0
O564 O 0.20034 0.62382 0.2341 0.0
O565 O 0.1613 0.62882 0.2072 0.0
O566 O 0.15138 0.58158 0.24681 0.0
O567 O 0.12434 0.57499 0.20567 0.0
C568 C 0.17614 0.6301 0.08653 0.0
C569 C 0.16564 0.65772 0.0909 0.0
H570 H 0.14219 0.70831 0.10696 0.0
H571 H 0.11517 0.7159 0.15295 0.0
H572 H 0.18349 0.53947 0.12545 0.0
H573 H 0.19326 0.57468 0.08587 0.0
H574 H 0.18812 0.62562 0.06685 0.0
H575 H 0.16972 0.67407 0.07453 0.0
Mn576 Mn 0.75898 0.8475 0.63608 0.0
Mn577 Mn 0.68473 0.85207 0.63131 0.0
C578 C 0.72905 0.83914 0.67579 0.0
C579 C 0.79985 0.82093 0.63205 0.0
C580 C 0.73032 0.9048 0.63695 0.0
O581 O 0.75194 0.84653 0.59288 0.0
O582 O 0.70213 0.84843 0.592 0.0
C583 C 0.66731 0.79218 0.60833 0.0
N584 N 0.66471 0.81344 0.62892 0.0
C585 C 0.62884 0.78219 0.65539 0.0
C586 C 0.63098 0.76002 0.63436 0.0
C587 C 0.65033 0.76504 0.61075 0.0
C588 C 0.64618 0.80884 0.65174 0.0
H589 H 0.6823 0.79588 0.59026 0.0
C590 C 0.7273 0.84689 0.57938 0.0
O591 O 0.80307 0.84924 0.63122 0.0
O592 O 0.77293 0.80816 0.63405 0.0
N593 N 0.66492 0.85544 0.66771 0.0
C594 C 0.66652 0.87859 0.6868 0.0
C595 C 0.64909 0.87684 0.71201 0.0
C596 C 0.63005 0.85142 0.71723 0.0
C597 C 0.62843 0.82806 0.69705 0.0
C598 C 0.64611 0.83118 0.67217 0.0
H599 H 0.68122 0.89812 0.68297 0.0
O600 O 0.75752 0.84601 0.67899 0.0
O601 O 0.71898 0.83664 0.64938 0.0
O602 O 0.75324 0.89073 0.63788 0.0
O603 O 0.70362 0.89261 0.63448 0.0
C604 C 0.61042 0.8016 0.70092 0.0
C605 C 0.61064 0.77867 0.68012 0.0
H606 H 0.61807 0.73899 0.63625 0.0
H607 H 0.65223 0.74798 0.59452 0.0
H608 H 0.65045 0.89496 0.72748 0.0
H609 H 0.61689 0.85002 0.73686 0.0
H610 H 0.59663 0.7985 0.72002 0.0
H611 H 0.59703 0.75828 0.68355 0.0
Mn612 Mn 0.63014 0.25127 0.15273 0.0
Mn613 Mn 0.61195 0.31995 0.14594 0.0
C614 C 0.6674 0.28912 0.15338 0.0
C615 C 0.63511 0.21306 0.1834 0.0
C616 C 0.61351 0.27635 0.09558 0.0
O617 O 0.5859 0.24767 0.15929 0.0
O618 O 0.57615 0.29466 0.1591 0.0
C619 C 0.6005 0.33527 0.20722 0.0
N620 N 0.61542 0.34108 0.18206 0.0
C621 C 0.64115 0.38511 0.20271 0.0
C622 C 0.62591 0.3797 0.2288 0.0
C623 C 0.60557 0.35463 0.23108 0.0
C624 C 0.63503 0.36514 0.17961 0.0
H625 H 0.58486 0.316 0.20902 0.0
C626 C 0.56829 0.2674 0.16241 0.0
O627 O 0.63104 0.20809 0.15578 0.0
O628 O 0.63635 0.23985 0.19286 0.0
N629 N 0.64431 0.34682 0.13347 0.0
C630 C 0.65911 0.34733 0.10774 0.0
C631 C 0.68123 0.3703 0.1024 0.0
C632 C 0.68774 0.39254 0.12348 0.0
C633 C 0.67237 0.39144 0.14987 0.0
C634 C 0.65038 0.36815 0.15386 0.0
H635 H 0.65406 0.33034 0.09143 0.0
O636 O 0.67325 0.26249 0.14807 0.0
O637 O 0.63963 0.29275 0.15923 0.0
O638 O 0.62356 0.25562 0.1092 0.0
O639 O 0.60799 0.30048 0.10761 0.0
C640 C 0.67835 0.41224 0.17255 0.0
C641 C 0.66275 0.40907 0.19895 0.0
H642 H 0.62992 0.39446 0.24733 0.0
H643 H 0.59385 0.35022 0.2512 0.0
H644 H 0.69314 0.37094 0.08205 0.0
H645 H 0.70459 0.41034 0.11917 0.0
H646 H 0.6952 0.43052 0.17009 0.0
H647 H 0.66795 0.4249 0.21642 0.0
Mn648 Mn 0.20173 0.13278 0.64517 0.0
Mn649 Mn 0.27373 0.12711 0.62763 0.0
C650 C 0.23932 0.14617 0.67808 0.0
C651 C 0.16126 0.15994 0.64742 0.0
C652 C 0.2306 0.0755 0.64429 0.0
O653 O 0.19954 0.12877 0.60144 0.0
O654 O 0.24847 0.12634 0.59247 0.0
C655 C 0.28546 0.18394 0.59901 0.0
N656 N 0.29242 0.16524 0.61977 0.0
C657 C 0.33236 0.19959 0.63787 0.0
C658 C 0.32574 0.21913 0.61655 0.0
C659 C 0.30216 0.21128 0.59708 0.0
C660 C 0.31499 0.17262 0.63869 0.0
H661 H 0.26724 0.17808 0.5841 0.0
C662 C 0.22135 0.12682 0.5842 0.0
O663 O 0.15747 0.13164 0.64876 0.0
O664 O 0.18818 0.172 0.64356 0.0
N665 N 0.30079 0.12794 0.65969 0.0
C666 C 0.30407 0.10676 0.67919 0.0
C667 C 0.32664 0.11125 0.70029 0.0
C668 C 0.34574 0.13734 0.70099 0.0
C669 C 0.3423 0.15858 0.68035 0.0
C670 C 0.31964 0.15273 0.65962 0.0
H671 H 0.28938 0.08673 0.67887 0.0
O672 O 0.21218 0.13978 0.68688 0.0
O673 O 0.24364 0.14488 0.65038 0.0
O674 O 0.20789 0.08959 0.64826 0.0
O675 O 0.25612 0.08735 0.63637 0.0
C676 C 0.36026 0.18545 0.67974 0.0
C677 C 0.35523 0.20598 0.65856 0.0
H678 H 0.33849 0.24029 0.61506 0.0
H679 H 0.29682 0.2263 0.58066 0.0
H680 H 0.32917 0.09474 0.71612 0.0
H681 H 0.36287 0.14089 0.71752 0.0
H682 H 0.37783 0.19066 0.6956 0.0
H683 H 0.369 0.22668 0.65848 0.0
Mn684 Mn 0.35332 0.76867 0.1259 0.0
Mn685 Mn 0.36937 0.69994 0.11453 0.0
C686 C 0.3153 0.73081 0.13018 0.0
C687 C 0.35257 0.80715 0.15926 0.0
C688 C 0.36413 0.74352 0.06653 0.0
O689 O 0.39865 0.77171 0.12696 0.0
O690 O 0.40616 0.7242 0.12771 0.0
C691 C 0.38195 0.68505 0.17495 0.0
N692 N 0.36625 0.67926 0.14991 0.0
C693 C 0.33839 0.63731 0.17022 0.0
C694 C 0.35437 0.64269 0.19618 0.0
C695 C 0.37617 0.66674 0.19858 0.0
C696 C 0.34489 0.65651 0.14754 0.0
H697 H 0.39869 0.70354 0.17685 0.0
C698 C 0.41563 0.75136 0.12951 0.0
O699 O 0.35323 0.81197 0.13164 0.0
O700 O 0.35268 0.78043 0.16717 0.0
N701 N 0.33616 0.6736 0.10164 0.0
C702 C 0.32303 0.67126 0.07498 0.0
C703 C 0.30144 0.64776 0.06862 0.0
C704 C 0.29383 0.62673 0.08959 0.0
C705 C 0.3079 0.62938 0.11675 0.0
C706 C 0.32949 0.65308 0.12172 0.0
H707 H 0.32916 0.68703 0.05857 0.0
O708 O 0.30938 0.75744 0.12642 0.0
O709 O 0.34363 0.72755 0.13134 0.0
O710 O 0.35393 0.76362 0.08191 0.0
O711 O 0.37213 0.71996 0.07694 0.0
C712 C 0.30123 0.60954 0.13913 0.0
C713 C 0.31625 0.61367 0.16596 0.0
H714 H 0.35007 0.62854 0.21442 0.0
H715 H 0.38851 0.6711 0.21858 0.0
H716 H 0.29078 0.64579 0.04757 0.0
H717 H 0.27704 0.60873 0.08466 0.0
H718 H 0.28439 0.59119 0.13604 0.0
H719 H 0.31073 0.59844 0.1831 0.0
Mn720 Mn 0.72619 0.1574 0.36309 0.0
Mn721 Mn 0.79516 0.14834 0.38764 0.0
C722 C 0.76216 0.19632 0.36484 0.0
C723 C 0.69217 0.15439 0.32518 0.0
C724 C 0.74279 0.15672 0.42697 0.0
O725 O 0.72619 0.11388 0.3633 0.0
O726 O 0.77269 0.10924 0.37906 0.0
C727 C 0.81827 0.12415 0.33312 0.0
N728 N 0.8205 0.14486 0.3548 0.0
C729 C 0.86376 0.17027 0.33282 0.0
C730 C 0.86206 0.14908 0.31039 0.0
C731 C 0.8392 0.12594 0.31055 0.0
C732 C 0.84241 0.16722 0.35485 0.0
H733 H 0.80058 0.10647 0.33298 0.0
C734 C 0.74678 0.09843 0.3703 0.0
O735 O 0.68325 0.15377 0.35193 0.0
O736 O 0.7207 0.1562 0.3206 0.0
N737 N 0.81982 0.1838 0.39655 0.0
C738 C 0.81808 0.20269 0.41952 0.0
C739 C 0.83905 0.22734 0.4223 0.0
C740 C 0.8618 0.23213 0.40166 0.0
C741 C 0.8636 0.212 0.37862 0.0
C742 C 0.84222 0.18769 0.37711 0.0
H743 H 0.80068 0.19911 0.43543 0.0
O744 O 0.73415 0.20042 0.36312 0.0
O745 O 0.76849 0.16928 0.36405 0.0
O746 O 0.72336 0.15848 0.4072 0.0
O747 O 0.77016 0.15294 0.42232 0.0
C748 C 0.88547 0.21535 0.35682 0.0
C749 C 0.88553 0.19452 0.33392 0.0
H750 H 0.87804 0.15048 0.29284 0.0
H751 H 0.83764 0.10959 0.29323 0.0
H752 H 0.8376 0.24269 0.44024 0.0
H753 H 0.87775 0.25133 0.40371 0.0
H754 H 0.90218 0.23402 0.35732 0.0
H755 H 0.90228 0.19749 0.31714 0.0
Mn756 Mn 0.33546 0.24129 0.85312 0.0
Mn757 Mn 0.35066 0.3058 0.8886 0.0
C758 C 0.29862 0.27206 0.85912 0.0
C759 C 0.3326 0.21245 0.81147 0.0
C760 C 0.34288 0.24745 0.91799 0.0
O761 O 0.38063 0.24721 0.85304 0.0
O762 O 0.38837 0.29258 0.87313 0.0
C763 C 0.37133 0.34419 0.84066 0.0
N764 N 0.35201 0.33767 0.86278 0.0
C765 C 0.32668 0.38029 0.85441 0.0
C766 C 0.34639 0.38752 0.8316 0.0
C767 C 0.36879 0.36938 0.8247 0.0
C768 C 0.33053 0.35511 0.86979 0.0
H769 H 0.3885 0.33023 0.83524 0.0
C770 C 0.39772 0.26976 0.86114 0.0
O771 O 0.33496 0.20121 0.83674 0.0
O772 O 0.33387 0.24071 0.81033 0.0
N773 N 0.31561 0.32054 0.90412 0.0
C774 C 0.29694 0.30911 0.92507 0.0
C775 C 0.27257 0.32393 0.93374 0.0
C776 C 0.26766 0.35031 0.92082 0.0
C777 C 0.28705 0.36154 0.89914 0.0
C778 C 0.31116 0.34596 0.89161 0.0
H779 H 0.30056 0.28879 0.93501 0.0
O780 O 0.29182 0.24427 0.85444 0.0
O781 O 0.32696 0.28099 0.86023 0.0
O782 O 0.33553 0.23192 0.89562 0.0
O783 O 0.34964 0.27501 0.91763 0.0
C784 C 0.28309 0.38726 0.88433 0.0
C785 C 0.30289 0.39663 0.86199 0.0
H786 H 0.34433 0.40678 0.81904 0.0
H787 H 0.384 0.37476 0.80705 0.0
H788 H 0.25757 0.31505 0.95034 0.0
H789 H 0.24887 0.36165 0.92766 0.0
H790 H 0.26464 0.39978 0.88967 0.0
H791 H 0.29934 0.41619 0.85046 0.0
Mn792 Mn 0.26776 0.85765 0.34568 0.0
Mn793 Mn 0.19798 0.86104 0.37056 0.0
C794 C 0.23486 0.81601 0.34551 0.0
C795 C 0.30072 0.86294 0.30701 0.0
C796 C 0.25273 0.86199 0.40936 0.0
O797 O 0.26291 0.90089 0.34719 0.0
O798 O 0.2141 0.90075 0.35818 0.0
C799 C 0.16691 0.87464 0.31687 0.0
N800 N 0.16971 0.85673 0.33951 0.0
C801 C 0.12819 0.82363 0.3226 0.0
C802 C 0.12473 0.84184 0.29921 0.0
C803 C 0.14419 0.86744 0.29633 0.0
C804 C 0.15098 0.83214 0.34261 0.0
H805 H 0.18196 0.89423 0.31445 0.0
C806 C 0.23938 0.91385 0.35081 0.0
O807 O 0.3104 0.86477 0.33358 0.0
O808 O 0.2721 0.85874 0.30311 0.0
N809 N 0.18004 0.82384 0.38266 0.0
C810 C 0.18791 0.8075 0.40508 0.0
C811 C 0.17155 0.7805 0.41014 0.0
C812 C 0.14729 0.7706 0.39215 0.0
C813 C 0.13955 0.78783 0.36927 0.0
C814 C 0.1565 0.81468 0.36543 0.0
H815 H 0.20667 0.81488 0.41886 0.0
O816 O 0.26338 0.81418 0.34395 0.0
O817 O 0.2266 0.84228 0.34649 0.0
O818 O 0.27168 0.85725 0.38977 0.0
O819 O 0.22534 0.86507 0.40419 0.0
C820 C 0.11616 0.77909 0.34969 0.0
C821 C 0.11045 0.79699 0.3264 0.0
H822 H 0.10744 0.83619 0.28315 0.0
H823 H 0.14178 0.8815 0.27824 0.0
H824 H 0.17774 0.76727 0.42777 0.0
H825 H 0.13493 0.74961 0.39593 0.0
H826 H 0.1027 0.75842 0.35209 0.0
H827 H 0.09269 0.78982 0.31125 0.0
Mn828 Mn 0.66356 0.71545 0.84146 0.0
Mn829 Mn 0.65596 0.65175 0.87588 0.0
C830 C 0.70334 0.68834 0.84423 0.0
C831 C 0.66007 0.74128 0.79962 0.0
C832 C 0.66134 0.71116 0.90668 0.0
O833 O 0.61923 0.7061 0.84388 0.0
O834 O 0.61577 0.66157 0.86363 0.0
C835 C 0.63407 0.61104 0.82819 0.0
N836 N 0.6548 0.61943 0.84902 0.0
C837 C 0.68242 0.57866 0.83729 0.0
C838 C 0.6613 0.56951 0.81578 0.0
C839 C 0.63706 0.58581 0.81119 0.0
C840 C 0.67817 0.60387 0.85369 0.0
H841 H 0.61542 0.62353 0.82457 0.0
C842 C 0.60416 0.68303 0.8524 0.0
O843 O 0.6594 0.75416 0.82493 0.0
O844 O 0.66172 0.71333 0.79879 0.0
N845 N 0.69343 0.64001 0.88816 0.0
C846 C 0.71294 0.65301 0.90824 0.0
C847 C 0.73899 0.64003 0.9147 0.0
C848 C 0.74461 0.61381 0.90055 0.0
C849 C 0.72432 0.60096 0.87979 0.0
C850 C 0.6987 0.61483 0.87434 0.0
H851 H 0.70868 0.67313 0.91921 0.0
O852 O 0.70737 0.71626 0.84014 0.0
O853 O 0.67579 0.67716 0.84692 0.0
O854 O 0.66538 0.7265 0.88429 0.0
O855 O 0.65724 0.6833 0.90573 0.0
C856 C 0.72866 0.57513 0.86405 0.0
C857 C 0.70779 0.56405 0.84274 0.0
H858 H 0.66361 0.55015 0.80251 0.0
H859 H 0.62073 0.57895 0.79456 0.0
H860 H 0.75466 0.65018 0.93059 0.0
H861 H 0.76468 0.60385 0.90569 0.0
H862 H 0.74812 0.56374 0.86794 0.0
H863 H 0.71162 0.54443 0.83048 0.0
H864 H 0.09825 0.52541 0.19932 0.0
H865 H 0.16618 0.53296 0.26576 0.0
H866 H 0.16504 0.47969 0.26643 0.0
H867 H 0.14795 0.43095 0.24441 0.0
H868 H 0.08148 0.42548 0.1766 0.0
H869 H 0.07887 0.47784 0.18031 0.0
C870 C 0.11268 0.51553 0.21419 0.0
C871 C 0.1325 0.53324 0.23219 0.0
C872 C 0.11236 0.48512 0.21405 0.0
C873 C 0.15071 0.51988 0.25157 0.0
C874 C 0.15019 0.48939 0.25187 0.0
C875 C 0.13267 0.44128 0.23081 0.0
C876 C 0.11528 0.42446 0.20998 0.0
C877 C 0.1316 0.47178 0.23266 0.0
C878 C 0.09551 0.43805 0.19245 0.0
C879 C 0.09391 0.46799 0.19458 0.0
H880 H 0.97516 0.64158 0.7 0.0
H881 H 0.97983 0.68277 0.78502 0.0
H882 H 0.0333 0.67918 0.78707 0.0
H883 H 0.07637 0.65732 0.76834 0.0
H884 H 0.07248 0.61418 0.68427 0.0
H885 H 0.02095 0.62561 0.67806 0.0
C886 C 0.98815 0.65055 0.71851 0.0
C887 C 0.97376 0.66206 0.74247 0.0
C888 C 0.01874 0.64743 0.72 0.0
C889 C 0.99056 0.67353 0.76648 0.0
C890 C 0.02105 0.67134 0.76775 0.0
C891 C 0.06436 0.65065 0.74853 0.0
C892 C 0.07776 0.63435 0.72713 0.0
C893 C 0.03499 0.65708 0.74526 0.0
C894 C 0.06232 0.62647 0.70122 0.0
C895 C 0.03293 0.63297 0.69768 0.0
H896 H 0.84783 0.48453 0.22404 0.0
H897 H 0.86343 0.45878 0.31146 0.0
H898 H 0.86768 0.51032 0.3277 0.0
H899 H 0.86787 0.56307 0.31614 0.0
H900 H 0.84978 0.58564 0.22789 0.0
H901 H 0.8453 0.53482 0.21321 0.0
C902 C 0.85216 0.48994 0.24673 0.0
C903 C 0.85557 0.46778 0.26643 0.0
C904 C 0.85403 0.51916 0.25583 0.0
C905 C 0.86081 0.47544 0.29579 0.0
C906 C 0.86323 0.50489 0.30505 0.0
C907 C 0.86282 0.55681 0.29377 0.0
C908 C 0.85943 0.57844 0.27325 0.0
C909 C 0.86 0.52703 0.28516 0.0
C910 C 0.85265 0.56979 0.24433 0.0
C911 C 0.85011 0.54059 0.23574 0.0
H912 H 0.03196 0.32661 0.73205 0.0
H913 H 0.01076 0.34184 0.82203 0.0
H914 H 0.95916 0.34764 0.80859 0.0
H915 H 0.92159 0.35253 0.77077 0.0
H916 H 0.94496 0.3402 0.68085 0.0
H917 H -0.00543 0.32937 0.69501 0.0
C918 C 0.01614 0.33097 0.74892 0.0
C919 C 0.02537 0.33413 0.77801 0.0
C920 C 0.98702 0.33516 0.74101 0.0
C921 C 0.00431 0.33944 0.79945 0.0
C922 C 0.97486 0.34291 0.79176 0.0
C923 C 0.93747 0.34727 0.75428 0.0
C924 C 0.92963 0.34739 0.72479 0.0
C925 C 0.96621 0.34152 0.76252 0.0
C926 C 0.95047 0.34055 0.70369 0.0
C927 C 0.97883 0.33426 0.71174 0.0
H928 H 0.1513 0.42174 0.73895 0.0
H929 H 0.08394 0.43302 0.80376 0.0
H930 H 0.08276 0.48358 0.79042 0.0
H931 H 0.10327 0.52519 0.76368 0.0
H932 H 0.17435 0.51711 0.70236 0.0
H933 H 0.17066 0.46422 0.70992 0.0
C934 C 0.13632 0.4353 0.75002 0.0
C935 C 0.11804 0.42379 0.7726 0.0
C936 C 0.13612 0.46469 0.7426 0.0
C937 C 0.09864 0.4415 0.78671 0.0
C938 C 0.09774 0.47034 0.77894 0.0
C939 C 0.11779 0.51185 0.75164 0.0
C940 C 0.13933 0.52501 0.7328 0.0
C941 C 0.11673 0.48221 0.75736 0.0
C942 C 0.15753 0.50742 0.71694 0.0
C943 C 0.1557 0.4773 0.72159 0.0
H944 H 0.97736 0.65742 0.30458 0.0
H945 H 0.94753 0.66971 0.21727 0.0
H946 H -0.00335 0.66092 0.19875 0.0
H947 H 0.04723 0.64705 0.20707 0.0
H948 H 0.07655 0.63457 0.29454 0.0
H949 H 0.02841 0.64606 0.31309 0.0
C950 C 0.98156 0.65839 0.28149 0.0
C951 C 0.95857 0.66401 0.26239 0.0
C952 C 0.00974 0.65301 0.27092 0.0
C953 C 0.96469 0.66542 0.23255 0.0
C954 C 0.99278 0.66024 0.22189 0.0
C955 C 0.04313 0.64684 0.23019 0.0
C956 C 0.06549 0.63963 0.24929 0.0
C957 C 0.01532 0.65353 0.24083 0.0
C958 C 0.05981 0.63988 0.27924 0.0
C959 C 0.03223 0.64646 0.28993 0.0
H960 H 0.88623 0.54617 0.76896 0.0
H961 H 0.87598 0.5708 0.68021 0.0
H962 H 0.86909 0.51936 0.66496 0.0
H963 H 0.86356 0.46712 0.67737 0.0
H964 H 0.87218 0.44387 0.76676 0.0
H965 H 0.88226 0.49501 0.78105 0.0
C966 C 0.88274 0.54041 0.74621 0.0
C967 C 0.88153 0.56236 0.72583 0.0
C968 C 0.87836 0.51094 0.73766 0.0
C969 C 0.87686 0.55435 0.69645 0.0
C970 C 0.87293 0.52492 0.68767 0.0
C971 C 0.86791 0.47333 0.69989 0.0
C972 C 0.86687 0.45178 0.72096 0.0
C973 C 0.87327 0.503 0.70816 0.0
C974 C 0.87244 0.46007 0.75013 0.0
C975 C 0.8783 0.48932 0.75837 0.0
H976 H 0.93016 0.36324 0.18377 0.0
H977 H 0.93897 0.37176 0.27676 0.0
H978 H 0.98842 0.3547 0.27407 0.0
H979 H 0.02962 0.33915 0.24541 0.0
H980 H 0.02122 0.33059 0.15235 0.0
H981 H 0.9706 0.34497 0.15518 0.0
C982 C 0.94296 0.36153 0.20343 0.0
C983 C 0.93102 0.36902 0.23038 0.0
C984 C 0.97118 0.35122 0.20181 0.0
C985 C 0.94772 0.36626 0.2557 0.0
C986 C 0.97592 0.35637 0.25423 0.0
C987 C 0.0166 0.33984 0.22573 0.0
C988 C 0.02934 0.33395 0.19871 0.0
C989 C 0.98786 0.34882 0.22741 0.0
C990 C 0.01204 0.3351 0.17347 0.0
C991 C 0.98317 0.34357 0.17502 0.0
H992 H 0.25352 0.102 0.54382 0.0
H993 H 0.17764 0.15128 0.55433 0.0
H994 H 0.17542 0.15732 0.50171 0.0
H995 H 0.19875 0.15237 0.4532 0.0
H996 H 0.27587 0.10383 0.44543 0.0
H997 H 0.27396 0.09404 0.49649 0.0
C998 C 0.2363 0.11388 0.5346 0.0
C999 C 0.21608 0.12651 0.55278 0.0
C1000 C 0.23566 0.11777 0.50483 0.0
C1001 C 0.19349 0.14134 0.54061 0.0
C1002 C 0.1924 0.145 0.51061 0.0
C1003 C 0.21495 0.13954 0.46273 0.0
C1004 C 0.23775 0.12945 0.44553 0.0
C1005 C 0.21395 0.13397 0.49255 0.0
C1006 C 0.25845 0.11253 0.45814 0.0
C1007 C 0.25734 0.10668 0.48739 0.0
H1008 H 0.35019 0.75598 0.93148 0.0
H1009 H 0.42284 0.70178 0.93294 0.0
H1010 H 0.4255 0.70642 0.9855 0.0
H1011 H 0.40359 0.72083 0.03103 0.0
H1012 H 0.33042 0.77438 0.03123 0.0
H1013 H 0.33158 0.77528 0.97818 0.0
C1014 C 0.36703 0.74592 0.94339 0.0
C1015 C 0.38619 0.72845 0.92857 0.0
C1016 C 0.36799 0.74811 0.97387 0.0
C1017 C 0.40777 0.71519 0.94407 0.0
C1018 C 0.40923 0.71771 0.97409 0.0
C1019 C 0.38801 0.73288 0.01948 0.0
C1020 C 0.36665 0.74707 0.03491 0.0
C1021 C 0.3888 0.73323 0.98922 0.0
C1022 C 0.34701 0.76313 0.01974 0.0
C1023 C 0.34762 0.76359 0.98943 0.0
H1024 H 0.75165 0.85177 0.44544 0.0
H1025 H 0.65817 0.86581 0.44493 0.0
H1026 H 0.65606 0.86023 0.49724 0.0
H1027 H 0.68107 0.85332 0.54309 0.0
H1028 H 0.77477 0.84019 0.54367 0.0
H1029 H 0.77625 0.84327 0.49109 0.0
C1030 C 0.73074 0.85355 0.45667 0.0
C1031 C 0.70518 0.85944 0.44122 0.0
C1032 C 0.72968 0.85049 0.48672 0.0
C1033 C 0.67828 0.8615 0.45624 0.0
C1034 C 0.67701 0.85828 0.48616 0.0
C1035 C 0.70182 0.85093 0.53178 0.0
C1036 C 0.72781 0.84672 0.5474 0.0
C1037 C 0.70264 0.85305 0.50162 0.0
C1038 C 0.75445 0.84363 0.53227 0.0
C1039 C 0.75535 0.8454 0.50219 0.0
H1040 H 0.64003 0.24146 0.05644 0.0
H1041 H 0.57616 0.30522 0.06382 0.0
H1042 H 0.5732 0.30745 0.0115 0.0
H1043 H 0.59251 0.29569 0.96415 0.0
H1044 H 0.65649 0.23262 0.95485 0.0
H1045 H 0.65538 0.22531 0.00742 0.0
C1046 C 0.6251 0.2554 0.04652 0.0
C1047 C 0.60878 0.27355 0.064 0.0
C1048 C 0.62372 0.2569 0.01617 0.0
C1049 C 0.58941 0.29145 0.05088 0.0
C1050 C 0.58764 0.29275 0.02095 0.0
C1051 C 0.60601 0.28013 0.97363 0.0
C1052 C 0.62491 0.26507 0.956 0.0
C1053 C 0.60537 0.27632 0.0035 0.0
C1054 C 0.64184 0.2445 0.96823 0.0
C1055 C 0.64131 0.24048 -0.00178 0.0
H1056 H 0.23566 0.89812 0.45103 0.0
H1057 H 0.29017 0.82763 0.43603 0.0
H1058 H 0.2975 0.8237 0.48842 0.0
H1059 H 0.28215 0.83621 0.53864 0.0
H1060 H 0.22685 0.90658 0.5519 0.0
H1061 H 0.22652 0.91507 0.50017 0.0
C1062 C 0.24956 0.88223 0.45926 0.0
C1063 C 0.26201 0.86294 0.43996 0.0
C1064 C 0.2534 0.88002 0.48913 0.0
C1065 C 0.28035 0.8427 0.45066 0.0
C1066 C 0.28437 0.84035 0.48057 0.0
C1067 C 0.27078 0.85385 0.53015 0.0
C1068 C 0.2542 0.87049 0.54887 0.0
C1069 C 0.27016 0.8583 0.50008 0.0
C1070 C 0.23941 0.89325 0.53774 0.0
C1071 C 0.23914 0.8981 0.50819 0.0
H1072 H 0.66285 0.79145 0.02005 0.0
H1073 H 0.62934 0.70866 0.05559 0.0
H1074 H 0.63066 0.68515 0.00808 0.0
H1075 H 0.64295 0.68727 0.95718 0.0
H1076 H 0.67677 0.76921 0.92016 0.0
H1077 H 0.67386 0.79378 0.96749 0.0
C1078 C 0.65554 0.76838 0.01719 0.0
C1079 C 0.64626 0.75178 0.04125 0.0
C1080 C 0.65672 0.75473 0.98969 0.0
C1081 C 0.63694 0.72184 0.03741 0.0
C1082 C 0.63768 0.70833 0.01027 0.0
C1083 C 0.64983 0.71049 0.95936 0.0
C1084 C 0.66026 0.72627 0.9352 0.0
C1085 C 0.64796 0.72443 0.9864 0.0
C1086 C 0.66872 0.75646 0.93846 0.0
C1087 C 0.66701 0.77056 0.9655 0.0
H1088 H 0.73302 0.18279 0.55937 0.0
H1089 H 0.69243 0.09404 0.55695 0.0
H1090 H 0.6911 0.0942 0.50384 0.0
H1091 H 0.71005 0.11691 0.4586 0.0
H1092 H 0.75527 0.20396 0.46204 0.0
H1093 H 0.74672 0.20736 0.51425 0.0
C1094 C 0.7232 0.16383 0.54709 0.0
C1095 C 0.71282 0.13848 0.5616 0.0
C1096 C 0.7241 0.16366 0.51684 0.0
C1097 C 0.70012 0.11388 0.5459 0.0
C1098 C 0.69978 0.11387 0.51564 0.0
C1099 C 0.71739 0.13673 0.47087 0.0
C1100 C 0.73354 0.16003 0.45704 0.0
C1101 C 0.713 0.13817 0.50092 0.0
C1102 C 0.74318 0.1857 0.47269 0.0
C1103 C 0.7382 0.18766 0.5024 0.0
H1104 H 0.32587 0.17719 0.03282 0.0
H1105 H 0.39377 0.24441 0.06143 0.0
H1106 H 0.39828 0.26324 0.01247 0.0
H1107 H 0.37858 0.26405 0.96337 0.0
H1108 H 0.30993 0.19757 0.93427 0.0
H1109 H 0.30988 0.17484 0.98158 0.0
C1110 C 0.34225 0.19533 0.0279 0.0
C1111 C 0.35969 0.2094 0.05015 0.0
C1112 C 0.34403 0.20651 -6e-05 0.0
C1113 C 0.38046 0.23325 0.04418 0.0
C1114 C 0.38279 0.24415 0.01639 0.0
C1115 C 0.36368 0.24454 0.9674 0.0
C1116 C 0.34391 0.23278 0.94575 0.0
C1117 C 0.36392 0.2316 0.99441 0.0
C1118 C 0.32519 0.20711 0.95085 0.0
C1119 C 0.32516 0.19411 0.97782 0.0
H1120 H 0.52 0.29732 0.15366 0.0
H1121 H 0.54564 0.21515 0.18334 0.0
H1122 H 0.49362 0.19493 0.18366 0.0
H1123 H 0.44213 0.19848 0.16976 0.0
H1124 H 0.4156 0.27995 0.13947 0.0
H1125 H 0.46681 0.30264 0.14539 0.0
C1126 C 0.51414 0.2752 0.16076 0.0
C1127 C 0.53667 0.25759 0.16788 0.0
C1128 C 0.48415 0.26346 0.16043 0.0
C1129 C 0.52873 0.22901 0.17721 0.0
C1130 C 0.49901 0.21738 0.17739 0.0
C1131 C 0.4474 0.2213 0.16476 0.0
C1132 C 0.42526 0.23737 0.15377 0.0
C1133 C 0.47673 0.23406 0.16802 0.0
C1134 C 0.43236 0.26706 0.14783 0.0
C1135 C 0.46163 0.28002 0.15112 0.0
H1136 H 0.57197 0.72529 0.83312 0.0
H1137 H 0.56288 0.63702 0.8642 0.0
H1138 H 0.5087 0.63542 0.8603 0.0
H1139 H 0.46446 0.65973 0.85037 0.0
H1140 H 0.4734 0.74855 0.82081 0.0
H1141 H 0.52765 0.749 0.82148 0.0
C1142 C 0.55825 0.70559 0.83897 0.0
C1143 C 0.57148 0.68138 0.84918 0.0
C1144 C 0.52725 0.70489 0.83691 0.0
C1145 C 0.55328 0.65605 0.85651 0.0
C1146 C 0.52233 0.65509 0.85423 0.0
C1147 C 0.47815 0.67921 0.84387 0.0
C1148 C 0.46485 0.70418 0.83578 0.0
C1149 C 0.50915 0.67951 0.8448 0.0
C1150 C 0.48304 0.72909 0.82728 0.0
C1151 C 0.51404 0.72939 0.82772 0.0
H1152 H 0.6924 0.96791 0.36013 0.0
H1153 H 0.78526 0.95209 0.36234 0.0
H1154 H 0.79973 0.00491 0.36649 0.0
H1155 H 0.78538 0.05573 0.36958 0.0
H1156 H 0.69169 0.06898 0.36699 0.0
H1157 H 0.67834 0.01679 0.36308 0.0
C1158 C 0.71591 0.97575 0.3616 0.0
C1159 C 0.73769 0.95592 0.36105 0.0
C1160 C 0.72394 0.00577 0.36396 0.0
C1161 C 0.76799 0.96683 0.36272 0.0
C1162 C 0.77626 -0.00298 0.36514 0.0
C1163 C 0.76208 0.04713 0.36827 0.0
C1164 C 0.73963 0.06637 0.3685 0.0
C1165 C 0.75435 0.01673 0.36585 0.0
C1166 C 0.70952 0.05485 0.36663 0.0
C1167 C 0.70177 0.02493 0.36445 0.0
H1168 H 0.44064 0.31487 0.86965 0.0
H1169 H 0.42808 0.22329 0.84509 0.0
H1170 H 0.48205 0.2216 0.8439 0.0
H1171 H 0.5326 0.24542 0.85264 0.0
H1172 H 0.54452 0.33696 0.8777 0.0
H1173 H 0.49087 0.33917 0.87585 0.0
C1174 C 0.44961 0.29451 0.86391 0.0
C1175 C 0.43028 0.2692 0.85779 0.0
C1176 C 0.48056 0.29359 0.86352 0.0
C1177 C 0.44241 0.24313 0.85002 0.0
C1178 C 0.47328 0.24209 0.84942 0.0
C1179 C 0.52351 0.2659 0.8576 0.0
C1180 C 0.54265 0.29087 0.86559 0.0
C1181 C 0.49254 0.26708 0.85661 0.0
C1182 C 0.53041 0.31728 0.87167 0.0
C1183 C 0.49968 0.31863 0.87063 0.0
H1184 H 0.19635 0.95143 0.35928 0.0
H1185 H 0.28765 0.94815 0.33126 0.0
H1186 H 0.29319 0.00063 0.32572 0.0
H1187 H 0.27403 0.04745 0.3322 0.0
H1188 H 0.18376 0.05285 0.36152 0.0
H1189 H 0.17571 -0.00066 0.36247 0.0
C1190 C 0.21741 0.96217 0.35183 0.0
C1191 C 0.24167 0.94574 0.34614 0.0
C1192 C 0.22064 0.99267 0.3488 0.0
C1193 C 0.26868 0.96009 0.33621 0.0
C1194 C 0.27191 0.99018 0.33291 0.0
C1195 C 0.25241 0.03707 0.33852 0.0
C1196 C 0.22964 0.05417 0.34707 0.0
C1197 C 0.24827 0.00666 0.33965 0.0
C1198 C 0.20166 0.0402 0.35479 0.0
C1199 C 0.19717 0.00962 0.35558 0.0
H1200 H 0.54971 0.80505 0.13171 0.0
H1201 H 0.56441 0.71425 0.13839 0.0
H1202 H 0.51041 0.70094 0.1406 0.0
H1203 H 0.45918 0.71496 0.13725 0.0
H1204 H 0.44545 0.8061 0.13032 0.0
H1205 H 0.49915 0.81932 0.13183 0.0
C1206 C 0.54124 0.7823 0.13381 0.0
C1207 C 0.56115 0.76064 0.13455 0.0
C1208 C 0.51035 0.77486 0.13492 0.0
C1209 C 0.54963 0.73136 0.1377 0.0
C1210 C 0.51875 0.72374 0.13886 0.0
C1211 C 0.46787 0.73776 0.13627 0.0
C1212 C 0.44816 0.75944 0.13332 0.0
C1213 C 0.4989 0.74528 0.13696 0.0
C1214 C 0.45995 0.78888 0.1324 0.0
C1215 C 0.49072 0.7965 0.13321 0.0
H1216 H 0.68841 0.94278 0.64556 0.0
H1217 H 0.78302 0.93916 0.63235 0.0
H1218 H 0.79103 0.99221 0.63433 0.0
H1219 H 0.77137 0.03936 0.63886 0.0
H1220 H 0.67698 0.04369 0.65237 0.0
H1221 H 0.6688 0.9904 0.6514 0.0
C1222 C 0.71078 0.95357 0.64308 0.0
C1223 C 0.73503 0.93697 0.63868 0.0
C1224 C 0.71532 0.98413 0.64432 0.0
C1225 C 0.76392 0.95134 0.63579 0.0
C1226 C 0.76856 0.9817 0.63687 0.0
C1227 C 0.74895 0.02873 0.64156 0.0
C1228 C 0.7248 0.04549 0.64546 0.0
C1229 C 0.74442 -0.00175 0.64098 0.0
C1230 C 0.69598 0.0313 0.64932 0.0
C1231 C 0.69127 0.00084 0.64869 0.0
H1232 H 0.27489 0.0402 0.65011 0.0
H1233 H 0.17886 0.0392 0.64859 0.0
H1234 H 0.17364 0.98616 0.65232 0.0
H1235 H 0.19631 0.94007 0.65204 0.0
H1236 H 0.2924 0.94121 0.65309 0.0
H1237 H 0.29749 0.99441 0.65419 0.0
C1238 C 0.25277 0.02846 0.65075 0.0
C1239 C 0.22731 0.04365 0.64866 0.0
C1240 C 0.24992 -0.00197 0.65289 0.0
C1241 C 0.19886 0.02807 0.64998 0.0
C1242 C 0.19583 -0.00227 0.65209 0.0
C1243 C 0.21841 0.95189 0.65282 0.0
C1244 C 0.24392 0.93657 0.65202 0.0
C1245 C 0.22122 0.98247 0.65299 0.0
C1246 C 0.27234 0.95235 0.6535 0.0
C1247 C 0.2753 0.98281 0.65397 0.0
H1248 H 0.14151 0.29957 0.31525 0.0
H1249 H 0.09384 0.23904 0.25482 0.0
H1250 H 0.10524 0.19803 0.28392 0.0
H1251 H 0.13648 0.17913 0.32129 0.0
H1252 H 0.18873 0.23946 0.37854 0.0
H1253 H 0.16744 0.28053 0.35671 0.0
C1254 C 0.13286 0.27746 0.30902 0.0
C1255 C 0.11699 0.2723 0.28289 0.0
C1256 C 0.14066 0.25381 0.32525 0.0
C1257 C 0.10626 0.24352 0.2748 0.0
C1258 C 0.11286 0.22003 0.29138 0.0
C1259 C 0.14229 0.20119 0.32969 0.0
C1260 C 0.16408 0.20628 0.3515 0.0
C1261 C 0.13116 0.22482 0.31594 0.0
C1262 C 0.17192 0.23502 0.36179 0.0
C1263 C 0.15995 0.25854 0.34913 0.0
H1264 H 0.32783 0.65683 0.80045 0.0
H1265 H 0.27624 0.7137 0.85029 0.0
H1266 H 0.23057 0.69084 0.82725 0.0
H1267 H 0.20772 0.65889 0.78804 0.0
H1268 H 0.25723 0.59339 0.74853 0.0
H1269 H 0.30253 0.61508 0.77301 0.0
C1270 C 0.30653 0.66231 0.8085 0.0
C1271 C 0.30531 0.68574 0.82822 0.0
C1272 C 0.28037 0.64767 0.79694 0.0
C1273 C 0.27756 0.6951 0.83569 0.0
C1274 C 0.2515 0.68204 0.82258 0.0
C1275 C 0.22751 0.64747 0.78707 0.0
C1276 C 0.22868 0.62361 0.76786 0.0
C1277 C 0.25279 0.65863 0.8028 0.0
C1278 C 0.2557 0.61132 0.76392 0.0
C1279 C 0.28154 0.62368 0.77788 0.0
H1280 H 0.82102 0.70461 0.33176 0.0
H1281 H 0.89568 0.76197 0.30226 0.0
H1282 H 0.87495 0.80387 0.32544 0.0
H1283 H 0.83069 0.82474 0.34544 0.0
H1284 H 0.75461 0.76685 0.37151 0.0
H1285 H 0.78112 0.72455 0.35943 0.0
C1286 C 0.83342 0.72608 0.33169 0.0
C1287 C 0.86003 0.73029 0.31589 0.0
C1288 C 0.82077 0.75005 0.34407 0.0
C1289 C 0.87534 0.75833 0.31475 0.0
C1290 C 0.86335 0.78226 0.32777 0.0
C1291 C 0.82033 0.80288 0.34926 0.0
C1292 C 0.79059 0.79887 0.35884 0.0
C1293 C 0.83532 0.77856 0.34122 0.0
C1294 C 0.77734 0.77044 0.3637 0.0
C1295 C 0.79244 0.74624 0.35672 0.0
H1296 H 0.79827 0.3423 0.82022 0.0
H1297 H 0.74161 0.37795 0.75763 0.0
H1298 H 0.69742 0.35696 0.78289 0.0
H1299 H 0.67537 0.32243 0.81781 0.0
H1300 H 0.73072 0.28609 0.88064 0.0
H1301 H 0.77536 0.31294 0.85985 0.0
C1302 C 0.77625 0.34627 0.8127 0.0
C1303 C 0.77311 0.36123 0.78689 0.0
C1304 C 0.75089 0.33348 0.82693 0.0
C1305 C 0.74452 0.36622 0.7773 0.0
C1306 C 0.71926 0.35402 0.79156 0.0
C1307 C 0.69714 0.32121 0.82752 0.0
C1308 C 0.7 0.30318 0.85107 0.0
C1309 C 0.72226 0.33665 0.81559 0.0
C1310 C 0.72827 0.30039 0.86272 0.0
C1311 C 0.75362 0.31574 0.8509 0.0
H1312 H 0.23269 0.75467 0.60514 0.0
H1313 H 0.19541 0.79983 0.67709 0.0
H1314 H 0.16557 0.75536 0.69055 0.0
H1315 H 0.15692 0.70305 0.68726 0.0
H1316 H 0.20283 0.65455 0.6235 0.0
H1317 H 0.2217 0.70051 0.60053 0.0
C1318 C 0.21741 0.75466 0.62328 0.0
C1319 C 0.2147 0.78075 0.63914 0.0
C1320 C 0.20213 0.72828 0.63234 0.0
C1321 C 0.19617 0.78045 0.66347 0.0
C1322 C 0.17954 0.75491 0.67147 0.0
C1323 C 0.1706 0.70248 0.66793 0.0
C1324 C 0.17898 0.67573 0.65728 0.0
C1325 C 0.18312 0.72865 0.65665 0.0
C1326 C 0.19615 0.67503 0.63201 0.0
C1327 C 0.20726 0.70129 0.61923 0.0
H1328 H 0.69567 0.68138 0.1765 0.0
H1329 H 0.75011 0.72604 0.11144 0.0
H1330 H 0.79487 0.70866 0.13205 0.0
H1331 H 0.81915 0.6886 0.17377 0.0
H1332 H 0.76471 0.64867 0.24164 0.0
H1333 H 0.71951 0.656 0.21483 0.0
C1334 C 0.71721 0.68636 0.16627 0.0
C1335 C 0.71974 0.70491 0.14261 0.0
C1336 C 0.743 0.67766 0.17921 0.0
C1337 C 0.74777 0.71174 0.12975 0.0
C1338 C 0.77338 0.70202 0.14167 0.0
C1339 C 0.79739 0.6809 0.18228 0.0
C1340 C 0.79517 0.66851 0.20974 0.0
C1341 C 0.77142 0.68619 0.16724 0.0
C1342 C 0.7669 0.65868 0.22067 0.0
C1343 C 0.74104 0.66285 0.20536 0.0
H1344 H 0.74841 0.22818 0.63168 0.0
H1345 H 0.79518 0.17722 0.69008 0.0
H1346 H 0.8308 0.21946 0.70159 0.0
H1347 H 0.84322 0.27203 0.70121 0.0
H1348 H 0.78769 0.3252 0.65396 0.0
H1349 H 0.76175 0.28147 0.63062 0.0
C1350 C 0.76689 0.22639 0.64638 0.0
C1351 C 0.77037 0.19948 0.65892 0.0
C1352 C 0.78576 0.25133 0.65459 0.0
C1353 C 0.79331 0.1974 0.679 0.0
C1354 C 0.81335 0.22162 0.68586 0.0
C1355 C 0.82606 0.27394 0.68505 0.0
C1356 C 0.81803 0.30163 0.67837 0.0
C1357 C 0.80923 0.24882 0.67442 0.0
C1358 C 0.79516 0.30411 0.65827 0.0
C1359 C 0.77988 0.27908 0.64553 0.0
H1360 H 0.16376 0.28563 0.16035 0.0
H1361 H 0.21605 0.36249 0.194 0.0
H1362 H 0.26056 0.34743 0.16955 0.0
H1363 H 0.28527 0.30878 0.1446 0.0
H1364 H 0.2324 0.23139 0.11212 0.0
H1365 H 0.18692 0.25107 0.12864 0.0
C1366 C 0.18469 0.29957 0.16132 0.0
C1367 C 0.18677 0.32541 0.1781 0.0
C1368 C 0.20992 0.29068 0.1474 0.0
C1369 C 0.21414 0.34271 0.18064 0.0
C1370 C 0.23944 0.33412 0.1667 0.0
C1371 C 0.26372 0.29667 0.1403 0.0
C1372 C 0.26216 0.26848 0.12773 0.0
C1373 C 0.23775 0.30767 0.15074 0.0
C1374 C 0.23413 0.25301 0.12217 0.0
C1375 C 0.20816 0.2641 0.13183 0.0
H1376 H 0.34182 0.2079 0.2278 0.0
H1377 H 0.28925 0.14517 0.17336 0.0
H1378 H 0.26532 0.12279 0.21602 0.0
H1379 H 0.25272 0.12748 0.26773 0.0
H1380 H 0.2974 0.19775 0.31958 0.0
H1381 H 0.33046 0.21172 0.27919 0.0
C1382 C 0.3258 0.18871 0.2255 0.0
C1383 C 0.31802 0.17739 0.19777 0.0
C1384 C 0.31003 0.17815 0.24969 0.0
C1385 C 0.29662 0.1532 0.19465 0.0
C1386 C 0.28239 0.14098 0.21898 0.0
C1387 C 0.27011 0.1455 0.27013 0.0
C1388 C 0.2737 0.16095 0.29665 0.0
C1389 C 0.28791 0.1542 0.24642 0.0
C1390 C 0.2953 0.18494 0.29956 0.0
C1391 C 0.31396 0.19301 0.27647 0.0
H1392 H 0.35656 0.81733 0.79506 0.0
H1393 H 0.39817 0.75652 0.73991 0.0
H1394 H 0.38281 0.78122 0.69696 0.0
H1395 H 0.34983 0.81433 0.67521 0.0
H1396 H 0.30265 0.87042 0.73067 0.0
H1397 H 0.3281 0.85404 0.77316 0.0
C1398 C 0.36308 0.81017 0.77365 0.0
C1399 C 0.37849 0.78524 0.77058 0.0
C1400 C 0.35275 0.82351 0.74902 0.0
C1401 C 0.3863 0.77571 0.74273 0.0
C1402 C 0.37737 0.78973 0.71818 0.0
C1403 C 0.34604 0.82366 0.69652 0.0
C1404 C 0.32469 0.84368 0.69993 0.0
C1405 C 0.35948 0.81285 0.72101 0.0
C1406 C 0.31921 0.8551 0.72765 0.0
C1407 C 0.33358 0.84558 0.75194 0.0
H1408 H 0.72289 0.87818 0.25814 0.0
H1409 H 0.66585 0.81882 0.30915 0.0
H1410 H 0.6378 0.8011 0.26619 0.0
H1411 H 0.6351 0.79632 0.21406 0.0
H1412 H 0.70391 0.84138 0.16261 0.0
H1413 H 0.72115 0.87194 0.20473 0.0
C1414 C 0.70381 0.86191 0.25969 0.0
C1415 C 0.69471 0.8514 0.28692 0.0
C1416 C 0.68998 0.84947 0.23443 0.0
C1417 C 0.67141 0.82896 0.28871 0.0
C1418 C 0.65583 0.81838 0.26406 0.0
C1419 C 0.65328 0.81353 0.21198 0.0
C1420 C 0.66742 0.81762 0.18519 0.0
C1421 C 0.66545 0.82792 0.2368 0.0
C1422 C 0.69168 0.83905 0.18272 0.0
C1423 C 0.702 0.8559 0.20699 0.0
H1424 H 0.63331 0.1682 0.70073 0.0
H1425 H 0.68592 0.11369 0.7499 0.0
H1426 H 0.66565 0.13212 0.79508 0.0
H1427 H 0.64107 0.17072 0.8203 0.0
H1428 H 0.59476 0.2302 0.77075 0.0
H1429 H 0.60377 0.20277 0.72617 0.0
C1430 C 0.63945 0.15965 0.72132 0.0
C1431 C 0.66098 0.13969 0.72215 0.0
C1432 C 0.62912 0.1717 0.7472 0.0
C1433 C 0.66932 0.12911 0.74889 0.0
C1434 C 0.6579 0.13979 0.77469 0.0
C1435 C 0.63212 0.17698 0.79983 0.0
C1436 C 0.61734 0.20233 0.79863 0.0
C1437 C 0.63895 0.16214 0.77414 0.0
C1438 C 0.60626 0.21071 0.77203 0.0
C1439 C 0.61156 0.19514 0.74656 0.0
H1440 H 0.8063 0.76728 0.60972 0.0
H1441 H 0.84969 0.83638 0.66396 0.0
H1442 H 0.88305 0.80276 0.68319 0.0
H1443 H 0.8921 0.7517 0.69158 0.0
H1444 H 0.84962 0.683 0.63609 0.0
H1445 H 0.8242 0.71855 0.60977 0.0
C1446 C 0.8238 0.77511 0.62498 0.0
C1447 C 0.82538 0.80394 0.63583 0.0
C1448 C 0.84273 0.75567 0.63598 0.0
C1449 C 0.84818 0.81417 0.65536 0.0
C1450 C 0.86702 0.7949 0.66657 0.0
C1451 C 0.878 0.74471 0.67314 0.0
C1452 C 0.87214 0.71482 0.66616 0.0
C1453 C 0.86338 0.76527 0.65814 0.0
C1454 C 0.85428 0.70593 0.64198 0.0
C1455 C 0.83953 0.72621 0.62705 0.0
H1456 H 0.67249 0.32896 0.19752 0.0
H1457 H 0.7203 0.2947 0.12586 0.0
H1458 H 0.76698 0.31933 0.14496 0.0
H1459 H 0.79374 0.34389 0.18658 0.0
H1460 H 0.74529 0.38889 0.25087 0.0
H1461 H 0.69813 0.36706 0.22987 0.0
C1462 C 0.69251 0.32908 0.18459 0.0
C1463 C 0.69269 0.31106 0.1597 0.0
C1464 C 0.7189 0.34489 0.19455 0.0
C1465 C 0.71958 0.30899 0.14479 0.0
C1466 C 0.74626 0.32302 0.15569 0.0
C1467 C 0.77309 0.3513 0.19431 0.0
C1468 C 0.77312 0.36911 0.21932 0.0
C1469 C 0.74622 0.34038 0.181 0.0
C1470 C 0.74579 0.3757 0.23117 0.0
C1471 C 0.71886 0.36322 0.21922 0.0
H1472 H 0.09482 0.2376 0.72871 0.0
H1473 H 0.13339 0.30273 0.67036 0.0
H1474 H 0.14512 0.26456 0.63598 0.0
H1475 H 0.15443 0.21346 0.62822 0.0
H1476 H 0.11716 0.14823 0.68688 0.0
H1477 H 0.09384 0.18548 0.71489 0.0
C1478 C 0.10514 0.24338 0.70815 0.0
C1479 C 0.11409 0.27279 0.70239 0.0
C1480 C 0.11209 0.22131 0.68861 0.0
C1481 C 0.12674 0.28017 0.67544 0.0
C1482 C 0.13353 0.25836 0.6558 0.0
C1483 C 0.14018 0.20731 0.64647 0.0
C1484 C 0.13794 0.17847 0.65595 0.0
C1485 C 0.12777 0.22893 0.66292 0.0
C1486 C 0.1192 0.17042 0.6793 0.0
C1487 C 0.10626 0.19179 0.69556 0.0
H1488 H 0.22177 0.67736 0.21962 0.0
H1489 H 0.2103 0.60885 0.15493 0.0
H1490 H 0.24262 0.63792 0.12165 0.0
H1491 H 0.27722 0.68298 0.1129 0.0
H1492 H 0.30255 0.74051 0.18554 0.0
H1493 H 0.26294 0.71576 0.21467 0.0
C1494 C 0.22635 0.66882 0.19815 0.0
C1495 C 0.21084 0.64249 0.18812 0.0
C1496 C 0.2487 0.68344 0.18135 0.0
C1497 C 0.21862 0.63073 0.16132 0.0
C1498 C 0.23835 0.64686 0.14294 0.0
C1499 C 0.27506 0.68905 0.13546 0.0
C1500 C 0.29355 0.71267 0.14744 0.0
C1501 C 0.25383 0.67322 0.15288 0.0
C1502 C 0.28902 0.72182 0.17617 0.0
C1503 C 0.26634 0.7078 0.19277 0.0
H1504 H 0.82295 0.32161 0.34549 0.0
H1505 H 0.85712 0.27707 0.2714 0.0
H1506 H 0.83888 0.22991 0.29106 0.0
H1507 H 0.80411 0.20261 0.32368 0.0
H1508 H 0.7672 0.24686 0.39628 0.0
H1509 H 0.79528 0.29293 0.38291 0.0
C1510 C 0.82726 0.30152 0.33423 0.0
C1511 C 0.84088 0.30266 0.30692 0.0
C1512 C 0.81558 0.27451 0.34508 0.0
C1513 C 0.84628 0.27658 0.29234 0.0
C1514 C 0.8357 0.24965 0.30345 0.0
C1515 C 0.80331 0.22212 0.33719 0.0
C1516 C 0.78433 0.22149 0.36119 0.0
C1517 C 0.81892 0.24848 0.32896 0.0
C1518 C 0.78219 0.24703 0.37793 0.0
C1519 C 0.79812 0.27329 0.37023 0.0
H1520 H 0.21207 0.35051 0.8007 0.0
H1521 H 0.14824 0.28602 0.83759 0.0
H1522 H 0.18741 0.26801 0.8668 0.0
H1523 H 0.2409 0.26508 0.875 0.0
H1524 H 0.30468 0.32018 0.82648 0.0
H1525 H 0.26531 0.34802 0.80935 0.0
C1526 C 0.2068 0.33305 0.8158 0.0
C1527 C 0.17727 0.32053 0.81829 0.0
C1528 C 0.2298 0.32117 0.83039 0.0
C1529 C 0.17061 0.29706 0.83675 0.0
C1530 C 0.1931 0.28641 0.85297 0.0
C1531 C 0.24609 0.28375 0.86136 0.0
C1532 C 0.27579 0.29182 0.85342 0.0
C1533 C 0.22293 0.29761 0.84914 0.0
C1534 C 0.28229 0.31503 0.83459 0.0
C1535 C 0.25963 0.33044 0.82417 0.0
H1536 H 0.23299 0.76118 0.36616 0.0
H1537 H 0.19396 0.81339 0.30306 0.0
H1538 H 0.16596 0.77 0.28198 0.0
H1539 H 0.15847 0.71733 0.27697 0.0
H1540 H 0.20112 0.66332 0.33588 0.0
H1541 H 0.2215 0.70715 0.36361 0.0
C1542 C 0.21773 0.7629 0.34826 0.0
C1543 C 0.21451 0.79041 0.33679 0.0
C1544 C 0.20277 0.73755 0.33536 0.0
C1545 C 0.19561 0.79256 0.31301 0.0
C1546 C 0.17998 0.76772 0.3007 0.0
C1547 C 0.17193 0.71506 0.29612 0.0
C1548 C 0.17883 0.68731 0.30413 0.0
C1549 C 0.18418 0.74012 0.3111 0.0
C1550 C 0.19569 0.68457 0.32928 0.0
C1551 C 0.20749 0.70961 0.34494 0.0
H1552 H 0.78816 0.62636 0.76282 0.0
H1553 H 0.84838 0.69819 0.79581 0.0
H1554 H 0.81214 0.70949 0.83261 0.0
H1555 H 0.76178 0.70214 0.85192 0.0
H1556 H 0.69761 0.63899 0.8103 0.0
H1557 H 0.737 0.61919 0.78229 0.0
C1558 C 0.79326 0.64419 0.77839 0.0
C1559 C 0.82108 0.66074 0.77767 0.0
C1560 C 0.7718 0.65132 0.79862 0.0
C1561 C 0.82737 0.68453 0.79696 0.0
C1562 C 0.80668 0.69105 0.81786 0.0
C1563 C 0.7567 0.68342 0.83736 0.0
C1564 C 0.72713 0.671 0.83431 0.0
C1565 C 0.77872 0.67478 0.81867 0.0
C1566 C 0.72047 0.64749 0.81465 0.0
C1567 C 0.74289 0.63689 0.79779 0.0
H1568 H 0.69765 0.7869 0.67798 0.0
H1569 H 0.72411 0.8649 0.72872 0.0
H1570 H 0.70006 0.84269 0.77159 0.0
H1571 H 0.67643 0.79915 0.7952 0.0
H1572 H 0.6522 0.72042 0.74434 0.0
H1573 H 0.66924 0.74527 0.70042 0.0
C1574 C 0.6973 0.79923 0.69828 0.0
C1575 C 0.71168 0.8276 0.70035 0.0
C1576 C 0.68384 0.78621 0.72262 0.0
C1577 C 0.71255 0.84313 0.72685 0.0
C1578 C 0.69885 0.83047 0.75121 0.0
C1579 C 0.67418 0.78769 0.7744 0.0
C1580 C 0.66346 0.75798 0.77295 0.0
C1581 C 0.68499 0.80178 0.74945 0.0
C1582 C 0.6607 0.74327 0.74594 0.0
C1583 C 0.67062 0.75736 0.72089 0.0
H1584 H 0.70056 0.14042 0.26872 0.0
H1585 H 0.63755 0.17464 0.32752 0.0
H1586 H 0.60996 0.19145 0.28671 0.0
H1587 H 0.61035 0.20512 0.23565 0.0
H1588 H 0.67308 0.17115 0.17664 0.0
H1589 H 0.69395 0.14486 0.21609 0.0
C1590 C 0.68032 0.15087 0.27249 0.0
C1591 C 0.67143 0.15697 0.30098 0.0
C1592 C 0.66478 0.1607 0.24894 0.0
C1593 C 0.64492 0.16996 0.30573 0.0
C1594 C 0.62927 0.17974 0.28243 0.0
C1595 C 0.6279 0.19109 0.23134 0.0
C1596 C 0.64055 0.19019 0.20364 0.0
C1597 C 0.63992 0.17653 0.25413 0.0
C1598 C 0.66307 0.17196 0.19792 0.0
C1599 C 0.67517 0.15725 0.22052 0.0
H1600 H 0.25964 0.12477 0.72707 0.0
H1601 H 0.26707 0.20045 0.67363 0.0
H1602 H 0.30105 0.22697 0.70881 0.0
H1603 H 0.32463 0.22972 0.75667 0.0
H1604 H 0.31778 0.15357 0.80988 0.0
H1605 H 0.28879 0.12555 0.77221 0.0
C1606 C 0.26912 0.14694 0.72315 0.0
C1607 C 0.26151 0.16072 0.69796 0.0
C1608 C 0.28888 0.16175 0.74317 0.0
C1609 C 0.27329 0.18949 0.69288 0.0
C1610 C 0.2926 0.20458 0.71291 0.0
C1611 C 0.31736 0.20682 0.75977 0.0
C1612 C 0.3228 0.19389 0.78618 0.0
C1613 C 0.30017 0.19104 0.73834 0.0
C1614 C 0.31364 0.1641 0.78978 0.0
C1615 C 0.29677 0.14813 0.76841 0.0
H1616 H 0.29063 0.87835 0.25203 0.0
H1617 H 0.35559 0.84317 0.30617 0.0
H1618 H 0.38175 0.82711 0.26323 0.0
H1619 H 0.37947 0.81426 0.21121 0.0
H1620 H 0.31484 0.84953 0.15691 0.0
H1621 H 0.29552 0.87507 0.19891 0.0
C1622 C 0.31103 0.86793 0.25434 0.0
C1623 C 0.3209 0.86135 0.28208 0.0
C1624 C 0.32575 0.85857 0.22958 0.0
C1625 C 0.34755 0.84831 0.28498 0.0
C1626 C 0.36235 0.83892 0.26045 0.0
C1627 C 0.36187 0.82843 0.20851 0.0
C1628 C 0.34825 0.82986 0.1813 0.0
C1629 C 0.35072 0.84262 0.23275 0.0
C1630 C 0.32565 0.84829 0.17773 0.0
C1631 C 0.3144 0.86258 0.20179 0.0
loop_
_geom_bond_atom_site_label_1
_geom_bond_atom_site_label_2
_geom_bond_distance
_geom_bond_site_symmetry_2
_ccdc_geom_bond_type
Mn0 O5 2.095 . S
Mn0 O15 2.162 . S
Mn0 O16 2.297 . S
Mn0 O24 2.385 . S
Mn0 O25 2.209 . S
Mn0 O26 2.094 . S
Mn1 O6 2.121 . S
Mn1 N8 2.257 . S
Mn1 N17 2.282 . S
Mn1 O25 2.215 . S
Mn1 O27 2.117 . S
C2 O24 1.234 . S
C2 O25 1.283 . S
C3 O15 1.281 . S
C3 O16 1.236 . S
C4 O26 1.240 . S
C4 O27 1.264 . S
O5 Mn0 2.095 . S
O5 C14 1.250 . S
O6 Mn1 2.121 . S
O6 C14 1.258 . S
C7 N8 1.326 . S
C7 C11 1.460 . S
C7 H13 0.929 . S
N8 Mn1 2.257 . S
N8 C7 1.326 . S
N8 C12 1.362 . S
C9 C10 1.258 . S
C9 C12 1.431 . S
C9 C29 1.449 . S
C10 C9 1.258 . S
C10 C11 1.477 . S
C10 H30 0.931 . S
C11 C7 1.460 . S
C11 C10 1.477 . S
C11 H31 0.930 . S
C12 N8 1.362 . S
C12 C9 1.431 . S
C12 C22 1.476 . S
H13 C7 0.929 . S
C14 O5 1.250 . S
C14 O6 1.258 . S
O15 Mn0 2.162 . S
O15 C3 1.281 . S
O16 Mn0 2.297 . S
O16 C3 1.236 . S
N17 Mn1 2.282 . S
N17 C18 1.328 . S
N17 C22 1.318 . S
C18 N17 1.328 . S
C18 C19 1.457 . S
C18 H23 0.929 . S
C19 C18 1.457 . S
C19 C20 1.291 . S
C19 H32 0.931 . S
C20 C19 1.291 . S
C20 C21 1.373 . S
C20 H33 0.929 . S
C21 C20 1.373 . S
C21 C22 1.396 . S
C21 C28 1.403 . S
C22 C12 1.476 . S
C22 N17 1.318 . S
C22 C21 1.396 . S
H23 C18 0.929 . S
O24 Mn0 2.385 . S
O24 C2 1.234 . S
O25 Mn0 2.209 . S
O25 Mn1 2.215 . S
O25 C2 1.283 . S
O26 Mn0 2.094 . S
O26 C4 1.240 . S
O27 Mn1 2.117 . S
O27 C4 1.264 . S
C28 C21 1.403 . S
C28 C29 1.399 . S
C28 H34 0.929 . S
C29 C9 1.449 . S
C29 C28 1.399 . S
C29 H35 0.930 . S
H30 C10 0.931 . S
H31 C11 0.930 . S
H32 C19 0.931 . S
H33 C20 0.929 . S
H34 C28 0.929 . S
H35 C29 0.930 . S
Mn36 O41 2.095 . S
Mn36 O51 2.162 . S
Mn36 O52 2.297 . S
Mn36 O60 2.385 . S
Mn36 O61 2.209 . S
Mn36 O62 2.094 . S
Mn37 O42 2.121 . S
Mn37 N44 2.257 . S
Mn37 N53 2.282 . S
Mn37 O61 2.215 . S
Mn37 O63 2.117 . S
C38 O60 1.234 . S
C38 O61 1.283 . S
C39 O51 1.281 . S
C39 O52 1.236 . S
C40 O62 1.240 . S
C40 O63 1.264 . S
O41 Mn36 2.095 . S
O41 C50 1.250 . S
O42 Mn37 2.121 . S
O42 C50 1.258 . S
C43 N44 1.326 . S
C43 C47 1.460 . S
C43 H49 0.929 . S
N44 Mn37 2.257 . S
N44 C43 1.326 . S
N44 C48 1.362 . S
C45 C46 1.258 . S
C45 C48 1.431 . S
C45 C65 1.449 . S
C46 C45 1.258 . S
C46 C47 1.477 . S
C46 H66 0.931 . S
C47 C43 1.460 . S
C47 C46 1.477 . S
C47 H67 0.930 . S
C48 N44 1.362 . S
C48 C45 1.431 . S
C48 C58 1.476 . S
H49 C43 0.929 . S
C50 O41 1.250 . S
C50 O42 1.258 . S
O51 Mn36 2.162 . S
O51 C39 1.281 . S
O52 Mn36 2.297 . S
O52 C39 1.236 . S
N53 Mn37 2.282 . S
N53 C54 1.328 . S
N53 C58 1.318 . S
C54 N53 1.328 . S
C54 C55 1.457 . S
C54 H59 0.929 . S
C55 C54 1.457 . S
C55 C56 1.291 . S
C55 H68 0.931 . S
C56 C55 1.291 . S
C56 C57 1.373 . S
C56 H69 0.929 . S
C57 C56 1.373 . S
C57 C58 1.396 . S
C57 C64 1.403 . S
C58 C48 1.476 . S
C58 N53 1.318 . S
C58 C57 1.396 . S
H59 C54 0.929 . S
O60 Mn36 2.385 . S
O60 C38 1.234 . S
O61 Mn36 2.209 . S
O61 Mn37 2.215 . S
O61 C38 1.283 . S
O62 Mn36 2.094 . S
O62 C40 1.240 . S
O63 Mn37 2.117 . S
O63 C40 1.264 . S
C64 C57 1.403 . S
C64 C65 1.399 . S
C64 H70 0.929 . S
C65 C45 1.449 . S
C65 C64 1.399 . S
C65 H71 0.930 . S
H66 C46 0.931 . S
H67 C47 0.930 . S
H68 C55 0.931 . S
H69 C56 0.929 . S
H70 C64 0.929 . S
H71 C65 0.930 . S
Mn72 O77 2.095 . S
Mn72 O87 2.162 . S
Mn72 O88 2.297 . S
Mn72 O96 2.385 . S
Mn72 O97 2.209 . S
Mn72 O98 2.094 . S
Mn73 O78 2.121 . S
Mn73 N80 2.257 . S
Mn73 N89 2.282 . S
Mn73 O97 2.215 . S
Mn73 O99 2.117 . S
C74 O96 1.234 . S
C74 O97 1.283 . S
C75 O87 1.281 . S
C75 O88 1.236 . S
C76 O98 1.240 . S
C76 O99 1.264 . S
O77 Mn72 2.095 . S
O77 C86 1.250 . S
O78 Mn73 2.121 . S
O78 C86 1.258 . S
C79 N80 1.326 . S
C79 C83 1.460 . S
C79 H85 0.929 . S
N80 Mn73 2.257 . S
N80 C79 1.326 . S
N80 C84 1.362 . S
C81 C82 1.258 . S
C81 C84 1.431 . S
C81 C101 1.449 . S
C82 C81 1.258 . S
C82 C83 1.477 . S
C82 H102 0.931 . S
C83 C79 1.460 . S
C83 C82 1.477 . S
C83 H103 0.930 . S
C84 N80 1.362 . S
C84 C81 1.431 . S
C84 C94 1.476 . S
H85 C79 0.929 . S
C86 O77 1.250 . S
C86 O78 1.258 . S
O87 Mn72 2.162 . S
O87 C75 1.281 . S
O88 Mn72 2.297 . S
O88 C75 1.236 . S
N89 Mn73 2.282 . S
N89 C90 1.328 . S
N89 C94 1.318 . S
C90 N89 1.328 . S
C90 C91 1.457 . S
C90 H95 0.929 . S
C91 C90 1.457 . S
C91 C92 1.291 . S
C91 H104 0.931 . S
C92 C91 1.291 . S
C92 C93 1.373 . S
C92 H105 0.929 . S
C93 C92 1.373 . S
C93 C94 1.396 . S
C93 C100 1.403 . S
C94 C84 1.476 . S
C94 N89 1.318 . S
C94 C93 1.396 . S
H95 C90 0.929 . S
O96 Mn72 2.385 . S
O96 C74 1.234 . S
O97 Mn72 2.209 . S
O97 Mn73 2.215 . S
O97 C74 1.283 . S
O98 Mn72 2.094 . S
O98 C76 1.240 . S
O99 Mn73 2.117 . S
O99 C76 1.264 . S
C100 C93 1.403 . S
C100 C101 1.399 . S
C100 H106 0.929 . S
C101 C81 1.449 . S
C101 C100 1.399 . S
C101 H107 0.930 . S
H102 C82 0.931 . S
H103 C83 0.930 . S
H104 C91 0.931 . S
H105 C92 0.929 . S
H106 C100 0.929 . S
H107 C101 0.930 . S
Mn108 O113 2.095 . S
Mn108 O123 2.162 . S
Mn108 O124 2.297 . S
Mn108 O132 2.385 . S
Mn108 O133 2.209 . S
Mn108 O134 2.094 . S
Mn109 O114 2.121 . S
Mn109 N116 2.257 . S
Mn109 N125 2.282 . S
Mn109 O133 2.215 . S
Mn109 O135 2.117 . S
C110 O132 1.234 . S
C110 O133 1.283 . S
C111 O123 1.281 . S
C111 O124 1.236 . S
C112 O134 1.240 . S
C112 O135 1.264 . S
O113 Mn108 2.095 . S
O113 C122 1.250 . S
O114 Mn109 2.121 . S
O114 C122 1.258 . S
C115 N116 1.326 . S
C115 C119 1.460 . S
C115 H121 0.929 . S
N116 Mn109 2.257 . S
N116 C115 1.326 . S
N116 C120 1.362 . S
C117 C118 1.258 . S
C117 C120 1.431 . S
C117 C137 1.449 . S
C118 C117 1.258 . S
C118 C119 1.477 . S
C118 H138 0.931 . S
C119 C115 1.460 . S
C119 C118 1.477 . S
C119 H139 0.930 . S
C120 N116 1.362 . S
C120 C117 1.431 . S
C120 C130 1.476 . S
H121 C115 0.929 . S
C122 O113 1.250 . S
C122 O114 1.258 . S
O123 Mn108 2.162 . S
O123 C111 1.281 . S
O124 Mn108 2.297 . S
O124 C111 1.236 . S
N125 Mn109 2.282 . S
N125 C126 1.328 . S
N125 C130 1.318 . S
C126 N125 1.328 . S
C126 C127 1.457 . S
C126 H131 0.929 . S
C127 C126 1.457 . S
C127 C128 1.291 . S
C127 H140 0.931 . S
C128 C127 1.291 . S
C128 C129 1.373 . S
C128 H141 0.929 . S
C129 C128 1.373 . S
C129 C130 1.396 . S
C129 C136 1.403 . S
C130 C120 1.476 . S
C130 N125 1.318 . S
C130 C129 1.396 . S
H131 C126 0.929 . S
O132 Mn108 2.385 . S
O132 C110 1.234 . S
O133 Mn108 2.209 . S
O133 Mn109 2.215 . S
O133 C110 1.283 . S
O134 Mn108 2.094 . S
O134 C112 1.240 . S
O135 Mn109 2.117 . S
O135 C112 1.264 . S
C136 C129 1.403 . S
C136 C137 1.399 . S
C136 H142 0.929 . S
C137 C117 1.449 . S
C137 C136 1.399 . S
C137 H143 0.930 . S
H138 C118 0.931 . S
H139 C119 0.930 . S
H140 C127 0.931 . S
H141 C128 0.929 . S
H142 C136 0.929 . S
H143 C137 0.930 . S
Mn144 O149 2.095 . S
Mn144 O159 2.162 . S
Mn144 O160 2.297 . S
Mn144 O168 2.385 . S
Mn144 O169 2.209 . S
Mn144 O170 2.094 . S
Mn145 O150 2.121 . S
Mn145 N152 2.257 . S
Mn145 N161 2.282 . S
Mn145 O169 2.215 . S
Mn145 O171 2.117 . S
C146 O168 1.234 . S
C146 O169 1.283 . S
C147 O159 1.281 . S
C147 O160 1.236 . S
C148 O170 1.240 . S
C148 O171 1.264 . S
O149 Mn144 2.095 . S
O149 C158 1.250 . S
O150 Mn145 2.121 . S
O150 C158 1.258 . S
C151 N152 1.326 . S
C151 C155 1.460 . S
C151 H157 0.929 . S
N152 Mn145 2.257 . S
N152 C151 1.326 . S
N152 C156 1.362 . S
C153 C154 1.258 . S
C153 C156 1.431 . S
C153 C173 1.449 . S
C154 C153 1.258 . S
C154 C155 1.477 . S
C154 H174 0.931 . S
C155 C151 1.460 . S
C155 C154 1.477 . S
C155 H175 0.930 . S
C156 N152 1.362 . S
C156 C153 1.431 . S
C156 C166 1.476 . S
H157 C151 0.929 . S
C158 O149 1.250 . S
C158 O150 1.258 . S
O159 Mn144 2.162 . S
O159 C147 1.281 . S
O160 Mn144 2.297 . S
O160 C147 1.236 . S
N161 Mn145 2.282 . S
N161 C162 1.328 . S
N161 C166 1.318 . S
C162 N161 1.328 . S
C162 C163 1.457 . S
C162 H167 0.929 . S
C163 C162 1.457 . S
C163 C164 1.291 . S
C163 H176 0.931 . S
C164 C163 1.291 . S
C164 C165 1.373 . S
C164 H177 0.929 . S
C165 C164 1.373 . S
C165 C166 1.396 . S
C165 C172 1.403 . S
C166 C156 1.476 . S
C166 N161 1.318 . S
C166 C165 1.396 . S
H167 C162 0.929 . S
O168 Mn144 2.385 . S
O168 C146 1.234 . S
O169 Mn144 2.209 . S
O169 Mn145 2.215 . S
O169 C146 1.283 . S
O170 Mn144 2.094 . S
O170 C148 1.240 . S
O171 Mn145 2.117 . S
O171 C148 1.264 . S
C172 C165 1.403 . S
C172 C173 1.399 . S
C172 H178 0.929 . S
C173 C153 1.449 . S
C173 C172 1.399 . S
C173 H179 0.930 . S
H174 C154 0.931 . S
H175 C155 0.930 . S
H176 C163 0.931 . S
H177 C164 0.929 . S
H178 C172 0.929 . S
H179 C173 0.930 . S
Mn180 O185 2.095 . S
Mn180 O195 2.162 . S
Mn180 O196 2.297 . S
Mn180 O204 2.385 . S
Mn180 O205 2.209 . S
Mn180 O206 2.094 . S
Mn181 O186 2.121 . S
Mn181 N188 2.257 . S
Mn181 N197 2.282 . S
Mn181 O205 2.215 . S
Mn181 O207 2.117 . S
C182 O204 1.234 . S
C182 O205 1.283 . S
C183 O195 1.281 . S
C183 O196 1.236 . S
C184 O206 1.240 . S
C184 O207 1.264 . S
O185 Mn180 2.095 . S
O185 C194 1.250 . S
O186 Mn181 2.121 . S
O186 C194 1.258 . S
C187 N188 1.326 . S
C187 C191 1.460 . S
C187 H193 0.929 . S
N188 Mn181 2.257 . S
N188 C187 1.326 . S
N188 C192 1.362 . S
C189 C190 1.258 . S
C189 C192 1.431 . S
C189 C209 1.449 . S
C190 C189 1.258 . S
C190 C191 1.477 . S
C190 H210 0.931 . S
C191 C187 1.460 . S
C191 C190 1.477 . S
C191 H211 0.930 . S
C192 N188 1.362 . S
C192 C189 1.431 . S
C192 C202 1.476 . S
H193 C187 0.929 . S
C194 O185 1.250 . S
C194 O186 1.258 . S
O195 Mn180 2.162 . S
O195 C183 1.281 . S
O196 Mn180 2.297 . S
O196 C183 1.236 . S
N197 Mn181 2.282 . S
N197 C198 1.328 . S
N197 C202 1.318 . S
C198 N197 1.328 . S
C198 C199 1.457 . S
C198 H203 0.929 . S
C199 C198 1.457 . S
C199 C200 1.291 . S
C199 H212 0.931 . S
C200 C199 1.291 . S
C200 C201 1.373 . S
C200 H213 0.929 . S
C201 C200 1.373 . S
C201 C202 1.396 . S
C201 C208 1.403 . S
C202 C192 1.476 . S
C202 N197 1.318 . S
C202 C201 1.396 . S
H203 C198 0.929 . S
O204 Mn180 2.385 . S
O204 C182 1.234 . S
O205 Mn180 2.209 . S
O205 Mn181 2.215 . S
O205 C182 1.283 . S
O206 Mn180 2.094 . S
O206 C184 1.240 . S
O207 Mn181 2.117 . S
O207 C184 1.264 . S
C208 C201 1.403 . S
C208 C209 1.399 . S
C208 H214 0.929 . S
C209 C189 1.449 . S
C209 C208 1.399 . S
C209 H215 0.930 . S
H210 C190 0.931 . S
H211 C191 0.930 . S
H212 C199 0.931 . S
H213 C200 0.929 . S
H214 C208 0.929 . S
H215 C209 0.930 . S
Mn216 O221 2.095 . S
Mn216 O231 2.162 . S
Mn216 O232 2.297 . S
Mn216 O240 2.385 . S
Mn216 O241 2.209 . S
Mn216 O242 2.094 . S
Mn217 O222 2.121 . S
Mn217 N224 2.257 . S
Mn217 N233 2.282 . S
Mn217 O241 2.215 . S
Mn217 O243 2.117 . S
C218 O240 1.234 . S
C218 O241 1.283 . S
C219 O231 1.281 . S
C219 O232 1.236 . S
C220 O242 1.240 . S
C220 O243 1.264 . S
O221 Mn216 2.095 . S
O221 C230 1.250 . S
O222 Mn217 2.121 . S
O222 C230 1.258 . S
C223 N224 1.326 . S
C223 C227 1.460 . S
C223 H229 0.929 . S
N224 Mn217 2.257 . S
N224 C223 1.326 . S
N224 C228 1.362 . S
C225 C226 1.258 . S
C225 C228 1.431 . S
C225 C245 1.449 . S
C226 C225 1.258 . S
C226 C227 1.477 . S
C226 H246 0.931 . S
C227 C223 1.460 . S
C227 C226 1.477 . S
C227 H247 0.930 . S
C228 N224 1.362 . S
C228 C225 1.431 . S
C228 C238 1.476 . S
H229 C223 0.929 . S
C230 O221 1.250 . S
C230 O222 1.258 . S
O231 Mn216 2.162 . S
O231 C219 1.281 . S
O232 Mn216 2.297 . S
O232 C219 1.236 . S
N233 Mn217 2.282 . S
N233 C234 1.328 . S
N233 C238 1.318 . S
C234 N233 1.328 . S
C234 C235 1.457 . S
C234 H239 0.929 . S
C235 C234 1.457 . S
C235 C236 1.291 . S
C235 H248 0.931 . S
C236 C235 1.291 . S
C236 C237 1.373 . S
C236 H249 0.929 . S
C237 C236 1.373 . S
C237 C238 1.396 . S
C237 C244 1.403 . S
C238 C228 1.476 . S
C238 N233 1.318 . S
C238 C237 1.396 . S
H239 C234 0.929 . S
O240 Mn216 2.385 . S
O240 C218 1.234 . S
O241 Mn216 2.209 . S
O241 Mn217 2.215 . S
O241 C218 1.283 . S
O242 Mn216 2.094 . S
O242 C220 1.240 . S
O243 Mn217 2.117 . S
O243 C220 1.264 . S
C244 C237 1.403 . S
C244 C245 1.399 . S
C244 H250 0.929 . S
C245 C225 1.449 . S
C245 C244 1.399 . S
C245 H251 0.930 . S
H246 C226 0.931 . S
H247 C227 0.930 . S
H248 C235 0.931 . S
H249 C236 0.929 . S
H250 C244 0.929 . S
H251 C245 0.930 . S
Mn252 O257 2.095 . S
Mn252 O267 2.162 . S
Mn252 O268 2.297 . S
Mn252 O276 2.385 . S
Mn252 O277 2.209 . S
Mn252 O278 2.094 . S
Mn253 O258 2.121 . S
Mn253 N260 2.257 . S
Mn253 N269 2.282 . S
Mn253 O277 2.215 . S
Mn253 O279 2.117 . S
C254 O276 1.234 . S
C254 O277 1.283 . S
C255 O267 1.281 . S
C255 O268 1.236 . S
C256 O278 1.240 . S
C256 O279 1.264 . S
O257 Mn252 2.095 . S
O257 C266 1.250 . S
O258 Mn253 2.121 . S
O258 C266 1.258 . S
C259 N260 1.326 . S
C259 C263 1.460 . S
C259 H265 0.929 . S
N260 Mn253 2.257 . S
N260 C259 1.326 . S
N260 C264 1.362 . S
C261 C262 1.258 . S
C261 C264 1.431 . S
C261 C281 1.449 . S
C262 C261 1.258 . S
C262 C263 1.477 . S
C262 H282 0.931 . S
C263 C259 1.460 . S
C263 C262 1.477 . S
C263 H283 0.930 . S
C264 N260 1.362 . S
C264 C261 1.431 . S
C264 C274 1.476 . S
H265 C259 0.929 . S
C266 O257 1.250 . S
C266 O258 1.258 . S
O267 Mn252 2.162 . S
O267 C255 1.281 . S
O268 Mn252 2.297 . S
O268 C255 1.236 . S
N269 Mn253 2.282 . S
N269 C270 1.328 . S
N269 C274 1.318 . S
C270 N269 1.328 . S
C270 C271 1.457 . S
C270 H275 0.929 . S
C271 C270 1.457 . S
C271 C272 1.291 . S
C271 H284 0.931 . S
C272 C271 1.291 . S
C272 C273 1.373 . S
C272 H285 0.929 . S
C273 C272 1.373 . S
C273 C274 1.396 . S
C273 C280 1.403 . S
C274 C264 1.476 . S
C274 N269 1.318 . S
C274 C273 1.396 . S
H275 C270 0.929 . S
O276 Mn252 2.385 . S
O276 C254 1.234 . S
O277 Mn252 2.209 . S
O277 Mn253 2.215 . S
O277 C254 1.283 . S
O278 Mn252 2.094 . S
O278 C256 1.240 . S
O279 Mn253 2.117 . S
O279 C256 1.264 . S
C280 C273 1.403 . S
C280 C281 1.399 . S
C280 H286 0.929 . S
C281 C261 1.449 . S
C281 C280 1.399 . S
C281 H287 0.930 . S
H282 C262 0.931 . S
H283 C263 0.930 . S
H284 C271 0.931 . S
H285 C272 0.929 . S
H286 C280 0.929 . S
H287 C281 0.930 . S
Mn288 O293 2.095 . S
Mn288 O303 2.162 . S
Mn288 O304 2.297 . S
Mn288 O312 2.385 . S
Mn288 O313 2.209 . S
Mn288 O314 2.094 . S
Mn289 O294 2.121 . S
Mn289 N296 2.257 . S
Mn289 N305 2.282 . S
Mn289 O313 2.215 . S
Mn289 O315 2.117 . S
C290 O312 1.234 . S
C290 O313 1.283 . S
C291 O303 1.281 . S
C291 O304 1.236 . S
C292 O314 1.240 . S
C292 O315 1.264 . S
O293 Mn288 2.095 . S
O293 C302 1.250 . S
O294 Mn289 2.121 . S
O294 C302 1.258 . S
C295 N296 1.326 . S
C295 C299 1.460 . S
C295 H301 0.929 . S
N296 Mn289 2.257 . S
N296 C295 1.326 . S
N296 C300 1.362 . S
C297 C298 1.258 . S
C297 C300 1.431 . S
C297 C317 1.449 . S
C298 C297 1.258 . S
C298 C299 1.477 . S
C298 H318 0.931 . S
C299 C295 1.460 . S
C299 C298 1.477 . S
C299 H319 0.930 . S
C300 N296 1.362 . S
C300 C297 1.431 . S
C300 C310 1.476 . S
H301 C295 0.929 . S
C302 O293 1.250 . S
C302 O294 1.258 . S
O303 Mn288 2.162 . S
O303 C291 1.281 . S
O304 Mn288 2.297 . S
O304 C291 1.236 . S
N305 Mn289 2.282 . S
N305 C306 1.328 . S
N305 C310 1.318 . S
C306 N305 1.328 . S
C306 C307 1.457 . S
C306 H311 0.929 . S
C307 C306 1.457 . S
C307 C308 1.291 . S
C307 H320 0.931 . S
C308 C307 1.291 . S
C308 C309 1.373 . S
C308 H321 0.929 . S
C309 C308 1.373 . S
C309 C310 1.396 . S
C309 C316 1.403 . S
C310 C300 1.476 . S
C310 N305 1.318 . S
C310 C309 1.396 . S
H311 C306 0.929 . S
O312 Mn288 2.385 . S
O312 C290 1.234 . S
O313 Mn288 2.209 . S
O313 Mn289 2.215 . S
O313 C290 1.283 . S
O314 Mn288 2.094 . S
O314 C292 1.240 . S
O315 Mn289 2.117 . S
O315 C292 1.264 . S
C316 C309 1.403 . S
C316 C317 1.399 . S
C316 H322 0.929 . S
C317 C297 1.449 . S
C317 C316 1.399 . S
C317 H323 0.930 . S
H318 C298 0.931 . S
H319 C299 0.930 . S
H320 C307 0.931 . S
H321 C308 0.929 . S
H322 C316 0.929 . S
H323 C317 0.930 . S
Mn324 O329 2.095 . S
Mn324 O339 2.162 . S
Mn324 O340 2.297 . S
Mn324 O348 2.385 . S
Mn324 O349 2.209 . S
Mn324 O350 2.094 . S
Mn325 O330 2.121 . S
Mn325 N332 2.257 . S
Mn325 N341 2.282 . S
Mn325 O349 2.215 . S
Mn325 O351 2.117 . S
C326 O348 1.234 . S
C326 O349 1.283 . S
C327 O339 1.281 . S
C327 O340 1.236 . S
C328 O350 1.240 . S
C328 O351 1.264 . S
O329 Mn324 2.095 . S
O329 C338 1.250 . S
O330 Mn325 2.121 . S
O330 C338 1.258 . S
C331 N332 1.326 . S
C331 C335 1.460 . S
C331 H337 0.929 . S
N332 Mn325 2.257 . S
N332 C331 1.326 . S
N332 C336 1.362 . S
C333 C334 1.258 . S
C333 C336 1.431 . S
C333 C353 1.449 . S
C334 C333 1.258 . S
C334 C335 1.477 . S
C334 H354 0.931 . S
C335 C331 1.460 . S
C335 C334 1.477 . S
C335 H355 0.930 . S
C336 N332 1.362 . S
C336 C333 1.431 . S
C336 C346 1.476 . S
H337 C331 0.929 . S
C338 O329 1.250 . S
C338 O330 1.258 . S
O339 Mn324 2.162 . S
O339 C327 1.281 . S
O340 Mn324 2.297 . S
O340 C327 1.236 . S
N341 Mn325 2.282 . S
N341 C342 1.328 . S
N341 C346 1.318 . S
C342 N341 1.328 . S
C342 C343 1.457 . S
C342 H347 0.929 . S
C343 C342 1.457 . S
C343 C344 1.291 . S
C343 H356 0.931 . S
C344 C343 1.291 . S
C344 C345 1.373 . S
C344 H357 0.929 . S
C345 C344 1.373 . S
C345 C346 1.396 . S
C345 C352 1.403 . S
C346 C336 1.476 . S
C346 N341 1.318 . S
C346 C345 1.396 . S
H347 C342 0.929 . S
O348 Mn324 2.385 . S
O348 C326 1.234 . S
O349 Mn324 2.209 . S
O349 Mn325 2.215 . S
O349 C326 1.283 . S
O350 Mn324 2.094 . S
O350 C328 1.240 . S
O351 Mn325 2.117 . S
O351 C328 1.264 . S
C352 C345 1.403 . S
C352 C353 1.399 . S
C352 H358 0.929 . S
C353 C333 1.449 . S
C353 C352 1.399 . S
C353 H359 0.930 . S
H354 C334 0.931 . S
H355 C335 0.930 . S
H356 C343 0.931 . S
H357 C344 0.929 . S
H358 C352 0.929 . S
H359 C353 0.930 . S
Mn360 O365 2.095 . S
Mn360 O375 2.162 . S
Mn360 O376 2.297 . S
Mn360 O384 2.385 . S
Mn360 O385 2.209 . S
Mn360 O386 2.094 . S
Mn361 O366 2.121 . S
Mn361 N368 2.257 . S
Mn361 N377 2.282 . S
Mn361 O385 2.215 . S
Mn361 O387 2.117 . S
C362 O384 1.234 . S
C362 O385 1.283 . S
C363 O375 1.281 . S
C363 O376 1.236 . S
C364 O386 1.240 . S
C364 O387 1.264 . S
O365 Mn360 2.095 . S
O365 C374 1.250 . S
O366 Mn361 2.121 . S
O366 C374 1.258 . S
C367 N368 1.326 . S
C367 C371 1.460 . S
C367 H373 0.929 . S
N368 Mn361 2.257 . S
N368 C367 1.326 . S
N368 C372 1.362 . S
C369 C370 1.258 . S
C369 C372 1.431 . S
C369 C389 1.449 . S
C370 C369 1.258 . S
C370 C371 1.477 . S
C370 H390 0.931 . S
C371 C367 1.460 . S
C371 C370 1.477 . S
C371 H391 0.930 . S
C372 N368 1.362 . S
C372 C369 1.431 . S
C372 C382 1.476 . S
H373 C367 0.929 . S
C374 O365 1.250 . S
C374 O366 1.258 . S
O375 Mn360 2.162 . S
O375 C363 1.281 . S
O376 Mn360 2.297 . S
O376 C363 1.236 . S
N377 Mn361 2.282 . S
N377 C378 1.328 . S
N377 C382 1.318 . S
C378 N377 1.328 . S
C378 C379 1.457 . S
C378 H383 0.929 . S
C379 C378 1.457 . S
C379 C380 1.291 . S
C379 H392 0.931 . S
C380 C379 1.291 . S
C380 C381 1.373 . S
C380 H393 0.929 . S
C381 C380 1.373 . S
C381 C382 1.396 . S
C381 C388 1.403 . S
C382 C372 1.476 . S
C382 N377 1.318 . S
C382 C381 1.396 . S
H383 C378 0.929 . S
O384 Mn360 2.385 . S
O384 C362 1.234 . S
O385 Mn360 2.209 . S
O385 Mn361 2.215 . S
O385 C362 1.283 . S
O386 Mn360 2.094 . S
O386 C364 1.240 . S
O387 Mn361 2.117 . S
O387 C364 1.264 . S
C388 C381 1.403 . S
C388 C389 1.399 . S
C388 H394 0.929 . S
C389 C369 1.449 . S
C389 C388 1.399 . S
C389 H395 0.930 . S
H390 C370 0.931 . S
H391 C371 0.930 . S
H392 C379 0.931 . S
H393 C380 0.929 . S
H394 C388 0.929 . S
H395 C389 0.930 . S
Mn396 O401 2.095 . S
Mn396 O411 2.162 . S
Mn396 O412 2.297 . S
Mn396 O420 2.385 . S
Mn396 O421 2.209 . S
Mn396 O422 2.094 . S
Mn397 O402 2.121 . S
Mn397 N404 2.257 . S
Mn397 N413 2.282 . S
Mn397 O421 2.215 . S
Mn397 O423 2.117 . S
C398 O420 1.234 . S
C398 O421 1.283 . S
C399 O411 1.281 . S
C399 O412 1.236 . S
C400 O422 1.240 . S
C400 O423 1.264 . S
O401 Mn396 2.095 . S
O401 C410 1.250 . S
O402 Mn397 2.121 . S
O402 C410 1.258 . S
C403 N404 1.326 . S
C403 C407 1.460 . S
C403 H409 0.929 . S
N404 Mn397 2.257 . S
N404 C403 1.326 . S
N404 C408 1.362 . S
C405 C406 1.258 . S
C405 C408 1.431 . S
C405 C425 1.449 . S
C406 C405 1.258 . S
C406 C407 1.477 . S
C406 H426 0.931 . S
C407 C403 1.460 . S
C407 C406 1.477 . S
C407 H427 0.930 . S
C408 N404 1.362 . S
C408 C405 1.431 . S
C408 C418 1.476 . S
H409 C403 0.929 . S
C410 O401 1.250 . S
C410 O402 1.258 . S
O411 Mn396 2.162 . S
O411 C399 1.281 . S
O412 Mn396 2.297 . S
O412 C399 1.236 . S
N413 Mn397 2.282 . S
N413 C414 1.328 . S
N413 C418 1.318 . S
C414 N413 1.328 . S
C414 C415 1.457 . S
C414 H419 0.929 . S
C415 C414 1.457 . S
C415 C416 1.291 . S
C415 H428 0.931 . S
C416 C415 1.291 . S
C416 C417 1.373 . S
C416 H429 0.929 . S
C417 C416 1.373 . S
C417 C418 1.396 . S
C417 C424 1.403 . S
C418 C408 1.476 . S
C418 N413 1.318 . S
C418 C417 1.396 . S
H419 C414 0.929 . S
O420 Mn396 2.385 . S
O420 C398 1.234 . S
O421 Mn396 2.209 . S
O421 Mn397 2.215 . S
O421 C398 1.283 . S
O422 Mn396 2.094 . S
O422 C400 1.240 . S
O423 Mn397 2.117 . S
O423 C400 1.264 . S
C424 C417 1.403 . S
C424 C425 1.399 . S
C424 H430 0.929 . S
C425 C405 1.449 . S
C425 C424 1.399 . S
C425 H431 0.930 . S
H426 C406 0.931 . S
H427 C407 0.930 . S
H428 C415 0.931 . S
H429 C416 0.929 . S
H430 C424 0.929 . S
H431 C425 0.930 . S
Mn432 O437 2.095 . S
Mn432 O447 2.162 . S
Mn432 O448 2.297 . S
Mn432 O456 2.385 . S
Mn432 O457 2.209 . S
Mn432 O458 2.094 . S
Mn433 O438 2.121 . S
Mn433 N440 2.257 . S
Mn433 N449 2.282 . S
Mn433 O457 2.215 . S
Mn433 O459 2.117 . S
C434 O456 1.234 . S
C434 O457 1.283 . S
C435 O447 1.281 . S
C435 O448 1.236 . S
C436 O458 1.240 . S
C436 O459 1.264 . S
O437 Mn432 2.095 . S
O437 C446 1.250 . S
O438 Mn433 2.121 . S
O438 C446 1.258 . S
C439 N440 1.326 . S
C439 C443 1.460 . S
C439 H445 0.929 . S
N440 Mn433 2.257 . S
N440 C439 1.326 . S
N440 C444 1.362 . S
C441 C442 1.258 . S
C441 C444 1.431 . S
C441 C461 1.449 . S
C442 C441 1.258 . S
C442 C443 1.477 . S
C442 H462 0.931 . S
C443 C439 1.460 . S
C443 C442 1.477 . S
C443 H463 0.930 . S
C444 N440 1.362 . S
C444 C441 1.431 . S
C444 C454 1.476 . S
H445 C439 0.929 . S
C446 O437 1.250 . S
C446 O438 1.258 . S
O447 Mn432 2.162 . S
O447 C435 1.281 . S
O448 Mn432 2.297 . S
O448 C435 1.236 . S
N449 Mn433 2.282 . S
N449 C450 1.328 . S
N449 C454 1.318 . S
C450 N449 1.328 . S
C450 C451 1.457 . S
C450 H455 0.929 . S
C451 C450 1.457 . S
C451 C452 1.291 . S
C451 H464 0.931 . S
C452 C451 1.291 . S
C452 C453 1.373 . S
C452 H465 0.929 . S
C453 C452 1.373 . S
C453 C454 1.396 . S
C453 C460 1.403 . S
C454 C444 1.476 . S
C454 N449 1.318 . S
C454 C453 1.396 . S
H455 C450 0.929 . S
O456 Mn432 2.385 . S
O456 C434 1.234 . S
O457 Mn432 2.209 . S
O457 Mn433 2.215 . S
O457 C434 1.283 . S
O458 Mn432 2.094 . S
O458 C436 1.240 . S
O459 Mn433 2.117 . S
O459 C436 1.264 . S
C460 C453 1.403 . S
C460 C461 1.399 . S
C460 H466 0.929 . S
C461 C441 1.449 . S
C461 C460 1.399 . S
C461 H467 0.930 . S
H462 C442 0.931 . S
H463 C443 0.930 . S
H464 C451 0.931 . S
H465 C452 0.929 . S
H466 C460 0.929 . S
H467 C461 0.930 . S
Mn468 O473 2.095 . S
Mn468 O483 2.162 . S
Mn468 O484 2.297 . S
Mn468 O492 2.385 . S
Mn468 O493 2.209 . S
Mn468 O494 2.094 . S
Mn469 O474 2.121 . S
Mn469 N476 2.257 . S
Mn469 N485 2.282 . S
Mn469 O493 2.215 . S
Mn469 O495 2.117 . S
C470 O492 1.234 . S
C470 O493 1.283 . S
C471 O483 1.281 . S
C471 O484 1.236 . S
C472 O494 1.240 . S
C472 O495 1.264 . S
O473 Mn468 2.095 . S
O473 C482 1.250 . S
O474 Mn469 2.121 . S
O474 C482 1.258 . S
C475 N476 1.326 . S
C475 C479 1.460 . S
C475 H481 0.929 . S
N476 Mn469 2.257 . S
N476 C475 1.326 . S
N476 C480 1.362 . S
C477 C478 1.258 . S
C477 C480 1.431 . S
C477 C497 1.449 . S
C478 C477 1.258 . S
C478 C479 1.477 . S
C478 H498 0.931 . S
C479 C475 1.460 . S
C479 C478 1.477 . S
C479 H499 0.930 . S
C480 N476 1.362 . S
C480 C477 1.431 . S
C480 C490 1.476 . S
H481 C475 0.929 . S
C482 O473 1.250 . S
C482 O474 1.258 . S
O483 Mn468 2.162 . S
O483 C471 1.281 . S
O484 Mn468 2.297 . S
O484 C471 1.236 . S
N485 Mn469 2.282 . S
N485 C486 1.328 . S
N485 C490 1.318 . S
C486 N485 1.328 . S
C486 C487 1.457 . S
C486 H491 0.929 . S
C487 C486 1.457 . S
C487 C488 1.291 . S
C487 H500 0.931 . S
C488 C487 1.291 . S
C488 C489 1.373 . S
C488 H501 0.929 . S
C489 C488 1.373 . S
C489 C490 1.396 . S
C489 C496 1.403 . S
C490 C480 1.476 . S
C490 N485 1.318 . S
C490 C489 1.396 . S
H491 C486 0.929 . S
O492 Mn468 2.385 . S
O492 C470 1.234 . S
O493 Mn468 2.209 . S
O493 Mn469 2.215 . S
O493 C470 1.283 . S
O494 Mn468 2.094 . S
O494 C472 1.240 . S
O495 Mn469 2.117 . S
O495 C472 1.264 . S
C496 C489 1.403 . S
C496 C497 1.399 . S
C496 H502 0.929 . S
C497 C477 1.449 . S
C497 C496 1.399 . S
C497 H503 0.930 . S
H498 C478 0.931 . S
H499 C479 0.930 . S
H500 C487 0.931 . S
H501 C488 0.929 . S
H502 C496 0.929 . S
H503 C497 0.930 . S
Mn504 O509 2.095 . S
Mn504 O519 2.162 . S
Mn504 O520 2.297 . S
Mn504 O528 2.385 . S
Mn504 O529 2.209 . S
Mn504 O530 2.094 . S
Mn505 O510 2.121 . S
Mn505 N512 2.257 . S
Mn505 N521 2.282 . S
Mn505 O529 2.215 . S
Mn505 O531 2.117 . S
C506 O528 1.234 . S
C506 O529 1.283 . S
C507 O519 1.281 . S
C507 O520 1.236 . S
C508 O530 1.240 . S
C508 O531 1.264 . S
O509 Mn504 2.095 . S
O509 C518 1.250 . S
O510 Mn505 2.121 . S
O510 C518 1.258 . S
C511 N512 1.326 . S
C511 C515 1.460 . S
C511 H517 0.929 . S
N512 Mn505 2.257 . S
N512 C511 1.326 . S
N512 C516 1.362 . S
C513 C514 1.258 . S
C513 C516 1.431 . S
C513 C533 1.449 . S
C514 C513 1.258 . S
C514 C515 1.477 . S
C514 H534 0.931 . S
C515 C511 1.460 . S
C515 C514 1.477 . S
C515 H535 0.930 . S
C516 N512 1.362 . S
C516 C513 1.431 . S
C516 C526 1.476 . S
H517 C511 0.929 . S
C518 O509 1.250 . S
C518 O510 1.258 . S
O519 Mn504 2.162 . S
O519 C507 1.281 . S
O520 Mn504 2.297 . S
O520 C507 1.236 . S
N521 Mn505 2.282 . S
N521 C522 1.328 . S
N521 C526 1.318 . S
C522 N521 1.328 . S
C522 C523 1.457 . S
C522 H527 0.929 . S
C523 C522 1.457 . S
C523 C524 1.291 . S
C523 H536 0.931 . S
C524 C523 1.291 . S
C524 C525 1.373 . S
C524 H537 0.929 . S
C525 C524 1.373 . S
C525 C526 1.396 . S
C525 C532 1.403 . S
C526 C516 1.476 . S
C526 N521 1.318 . S
C526 C525 1.396 . S
H527 C522 0.929 . S
O528 Mn504 2.385 . S
O528 C506 1.234 . S
O529 Mn504 2.209 . S
O529 Mn505 2.215 . S
O529 C506 1.283 . S
O530 Mn504 2.094 . S
O530 C508 1.240 . S
O531 Mn505 2.117 . S
O531 C508 1.264 . S
C532 C525 1.403 . S
C532 C533 1.399 . S
C532 H538 0.929 . S
C533 C513 1.449 . S
C533 C532 1.399 . S
C533 H539 0.930 . S
H534 C514 0.931 . S
H535 C515 0.930 . S
H536 C523 0.931 . S
H537 C524 0.929 . S
H538 C532 0.929 . S
H539 C533 0.930 . S
Mn540 O545 2.095 . S
Mn540 O555 2.162 . S
Mn540 O556 2.297 . S
Mn540 O564 2.385 . S
Mn540 O565 2.209 . S
Mn540 O566 2.094 . S
Mn541 O546 2.121 . S
Mn541 N548 2.257 . S
Mn541 N557 2.282 . S
Mn541 O565 2.215 . S
Mn541 O567 2.117 . S
C542 O564 1.234 . S
C542 O565 1.283 . S
C543 O555 1.281 . S
C543 O556 1.236 . S
C544 O566 1.240 . S
C544 O567 1.264 . S
O545 Mn540 2.095 . S
O545 C554 1.250 . S
O546 Mn541 2.121 . S
O546 C554 1.258 . S
C547 N548 1.326 . S
C547 C551 1.460 . S
C547 H553 0.929 . S
N548 Mn541 2.257 . S
N548 C547 1.326 . S
N548 C552 1.362 . S
C549 C550 1.258 . S
C549 C552 1.431 . S
C549 C569 1.449 . S
C550 C549 1.258 . S
C550 C551 1.477 . S
C550 H570 0.931 . S
C551 C547 1.460 . S
C551 C550 1.477 . S
C551 H571 0.930 . S
C552 N548 1.362 . S
C552 C549 1.431 . S
C552 C562 1.476 . S
H553 C547 0.929 . S
C554 O545 1.250 . S
C554 O546 1.258 . S
O555 Mn540 2.162 . S
O555 C543 1.281 . S
O556 Mn540 2.297 . S
O556 C543 1.236 . S
N557 Mn541 2.282 . S
N557 C558 1.328 . S
N557 C562 1.318 . S
C558 N557 1.328 . S
C558 C559 1.457 . S
C558 H563 0.929 . S
C559 C558 1.457 . S
C559 C560 1.291 . S
C559 H572 0.931 . S
C560 C559 1.291 . S
C560 C561 1.373 . S
C560 H573 0.929 . S
C561 C560 1.373 . S
C561 C562 1.396 . S
C561 C568 1.403 . S
C562 C552 1.476 . S
C562 N557 1.318 . S
C562 C561 1.396 . S
H563 C558 0.929 . S
O564 Mn540 2.385 . S
O564 C542 1.234 . S
O565 Mn540 2.209 . S
O565 Mn541 2.215 . S
O565 C542 1.283 . S
O566 Mn540 2.094 . S
O566 C544 1.240 . S
O567 Mn541 2.117 . S
O567 C544 1.264 . S
C568 C561 1.403 . S
C568 C569 1.399 . S
C568 H574 0.929 . S
C569 C549 1.449 . S
C569 C568 1.399 . S
C569 H575 0.930 . S
H570 C550 0.931 . S
H571 C551 0.930 . S
H572 C559 0.931 . S
H573 C560 0.929 . S
H574 C568 0.929 . S
H575 C569 0.930 . S
Mn576 O581 2.095 . S
Mn576 O591 2.162 . S
Mn576 O592 2.297 . S
Mn576 O600 2.385 . S
Mn576 O601 2.209 . S
Mn576 O602 2.094 . S
Mn577 O582 2.121 . S
Mn577 N584 2.257 . S
Mn577 N593 2.282 . S
Mn577 O601 2.215 . S
Mn577 O603 2.117 . S
C578 O600 1.234 . S
C578 O601 1.283 . S
C579 O591 1.281 . S
C579 O592 1.236 . S
C580 O602 1.240 . S
C580 O603 1.264 . S
O581 Mn576 2.095 . S
O581 C590 1.250 . S
O582 Mn577 2.121 . S
O582 C590 1.258 . S
C583 N584 1.326 . S
C583 C587 1.460 . S
C583 H589 0.929 . S
N584 Mn577 2.257 . S
N584 C583 1.326 . S
N584 C588 1.362 . S
C585 C586 1.258 . S
C585 C588 1.431 . S
C585 C605 1.449 . S
C586 C585 1.258 . S
C586 C587 1.477 . S
C586 H606 0.931 . S
C587 C583 1.460 . S
C587 C586 1.477 . S
C587 H607 0.930 . S
C588 N584 1.362 . S
C588 C585 1.431 . S
C588 C598 1.476 . S
H589 C583 0.929 . S
C590 O581 1.250 . S
C590 O582 1.258 . S
O591 Mn576 2.162 . S
O591 C579 1.281 . S
O592 Mn576 2.297 . S
O592 C579 1.236 . S
N593 Mn577 2.282 . S
N593 C594 1.328 . S
N593 C598 1.318 . S
C594 N593 1.328 . S
C594 C595 1.457 . S
C594 H599 0.929 . S
C595 C594 1.457 . S
C595 C596 1.291 . S
C595 H608 0.931 . S
C596 C595 1.291 . S
C596 C597 1.373 . S
C596 H609 0.929 . S
C597 C596 1.373 . S
C597 C598 1.396 . S
C597 C604 1.403 . S
C598 C588 1.476 . S
C598 N593 1.318 . S
C598 C597 1.396 . S
H599 C594 0.929 . S
O600 Mn576 2.385 . S
O600 C578 1.234 . S
O601 Mn576 2.209 . S
O601 Mn577 2.215 . S
O601 C578 1.283 . S
O602 Mn576 2.094 . S
O602 C580 1.240 . S
O603 Mn577 2.117 . S
O603 C580 1.264 . S
C604 C597 1.403 . S
C604 C605 1.399 . S
C604 H610 0.929 . S
C605 C585 1.449 . S
C605 C604 1.399 . S
C605 H611 0.930 . S
H606 C586 0.931 . S
H607 C587 0.930 . S
H608 C595 0.931 . S
H609 C596 0.929 . S
H610 C604 0.929 . S
H611 C605 0.930 . S
Mn612 O617 2.095 . S
Mn612 O627 2.162 . S
Mn612 O628 2.297 . S
Mn612 O636 2.385 . S
Mn612 O637 2.209 . S
Mn612 O638 2.094 . S
Mn613 O618 2.121 . S
Mn613 N620 2.257 . S
Mn613 N629 2.282 . S
Mn613 O637 2.215 . S
Mn613 O639 2.117 . S
C614 O636 1.234 . S
C614 O637 1.283 . S
C615 O627 1.281 . S
C615 O628 1.236 . S
C616 O638 1.240 . S
C616 O639 1.264 . S
O617 Mn612 2.095 . S
O617 C626 1.250 . S
O618 Mn613 2.121 . S
O618 C626 1.258 . S
C619 N620 1.326 . S
C619 C623 1.460 . S
C619 H625 0.929 . S
N620 Mn613 2.257 . S
N620 C619 1.326 . S
N620 C624 1.362 . S
C621 C622 1.258 . S
C621 C624 1.431 . S
C621 C641 1.449 . S
C622 C621 1.258 . S
C622 C623 1.477 . S
C622 H642 0.931 . S
C623 C619 1.460 . S
C623 C622 1.477 . S
C623 H643 0.930 . S
C624 N620 1.362 . S
C624 C621 1.431 . S
C624 C634 1.476 . S
H625 C619 0.929 . S
C626 O617 1.250 . S
C626 O618 1.258 . S
O627 Mn612 2.162 . S
O627 C615 1.281 . S
O628 Mn612 2.297 . S
O628 C615 1.236 . S
N629 Mn613 2.282 . S
N629 C630 1.328 . S
N629 C634 1.318 . S
C630 N629 1.328 . S
C630 C631 1.457 . S
C630 H635 0.929 . S
C631 C630 1.457 . S
C631 C632 1.291 . S
C631 H644 0.931 . S
C632 C631 1.291 . S
C632 C633 1.373 . S
C632 H645 0.929 . S
C633 C632 1.373 . S
C633 C634 1.396 . S
C633 C640 1.403 . S
C634 C624 1.476 . S
C634 N629 1.318 . S
C634 C633 1.396 . S
H635 C630 0.929 . S
O636 Mn612 2.385 . S
O636 C614 1.234 . S
O637 Mn612 2.209 . S
O637 Mn613 2.215 . S
O637 C614 1.283 . S
O638 Mn612 2.094 . S
O638 C616 1.240 . S
O639 Mn613 2.117 . S
O639 C616 1.264 . S
C640 C633 1.403 . S
C640 C641 1.399 . S
C640 H646 0.929 . S
C641 C621 1.449 . S
C641 C640 1.399 . S
C641 H647 0.930 . S
H642 C622 0.931 . S
H643 C623 0.930 . S
H644 C631 0.931 . S
H645 C632 0.929 . S
H646 C640 0.929 . S
H647 C641 0.930 . S
Mn648 O653 2.095 . S
Mn648 O663 2.162 . S
Mn648 O664 2.297 . S
Mn648 O672 2.385 . S
Mn648 O673 2.209 . S
Mn648 O674 2.094 . S
Mn649 O654 2.121 . S
Mn649 N656 2.257 . S
Mn649 N665 2.282 . S
Mn649 O673 2.215 . S
Mn649 O675 2.117 . S
C650 O672 1.234 . S
C650 O673 1.283 . S
C651 O663 1.281 . S
C651 O664 1.236 . S
C652 O674 1.240 . S
C652 O675 1.264 . S
O653 Mn648 2.095 . S
O653 C662 1.250 . S
O654 Mn649 2.121 . S
O654 C662 1.258 . S
C655 N656 1.326 . S
C655 C659 1.460 . S
C655 H661 0.929 . S
N656 Mn649 2.257 . S
N656 C655 1.326 . S
N656 C660 1.362 . S
C657 C658 1.258 . S
C657 C660 1.431 . S
C657 C677 1.449 . S
C658 C657 1.258 . S
C658 C659 1.477 . S
C658 H678 0.931 . S
C659 C655 1.460 . S
C659 C658 1.477 . S
C659 H679 0.930 . S
C660 N656 1.362 . S
C660 C657 1.431 . S
C660 C670 1.476 . S
H661 C655 0.929 . S
C662 O653 1.250 . S
C662 O654 1.258 . S
O663 Mn648 2.162 . S
O663 C651 1.281 . S
O664 Mn648 2.297 . S
O664 C651 1.236 . S
N665 Mn649 2.282 . S
N665 C666 1.328 . S
N665 C670 1.318 . S
C666 N665 1.328 . S
C666 C667 1.457 . S
C666 H671 0.929 . S
C667 C666 1.457 . S
C667 C668 1.291 . S
C667 H680 0.931 . S
C668 C667 1.291 . S
C668 C669 1.373 . S
C668 H681 0.929 . S
C669 C668 1.373 . S
C669 C670 1.396 . S
C669 C676 1.403 . S
C670 C660 1.476 . S
C670 N665 1.318 . S
C670 C669 1.396 . S
H671 C666 0.929 . S
O672 Mn648 2.385 . S
O672 C650 1.234 . S
O673 Mn648 2.209 . S
O673 Mn649 2.215 . S
O673 C650 1.283 . S
O674 Mn648 2.094 . S
O674 C652 1.240 . S
O675 Mn649 2.117 . S
O675 C652 1.264 . S
C676 C669 1.403 . S
C676 C677 1.399 . S
C676 H682 0.929 . S
C677 C657 1.449 . S
C677 C676 1.399 . S
C677 H683 0.930 . S
H678 C658 0.931 . S
H679 C659 0.930 . S
H680 C667 0.931 . S
H681 C668 0.929 . S
H682 C676 0.929 . S
H683 C677 0.930 . S
Mn684 O689 2.095 . S
Mn684 O699 2.162 . S
Mn684 O700 2.297 . S
Mn684 O708 2.385 . S
Mn684 O709 2.209 . S
Mn684 O710 2.094 . S
Mn685 O690 2.121 . S
Mn685 N692 2.257 . S
Mn685 N701 2.282 . S
Mn685 O709 2.215 . S
Mn685 O711 2.117 . S
C686 O708 1.234 . S
C686 O709 1.283 . S
C687 O699 1.281 . S
C687 O700 1.236 . S
C688 O710 1.240 . S
C688 O711 1.264 . S
O689 Mn684 2.095 . S
O689 C698 1.250 . S
O690 Mn685 2.121 . S
O690 C698 1.258 . S
C691 N692 1.326 . S
C691 C695 1.460 . S
C691 H697 0.929 . S
N692 Mn685 2.257 . S
N692 C691 1.326 . S
N692 C696 1.362 . S
C693 C694 1.258 . S
C693 C696 1.431 . S
C693 C713 1.449 . S
C694 C693 1.258 . S
C694 C695 1.477 . S
C694 H714 0.931 . S
C695 C691 1.460 . S
C695 C694 1.477 . S
C695 H715 0.930 . S
C696 N692 1.362 . S
C696 C693 1.431 . S
C696 C706 1.476 . S
H697 C691 0.929 . S
C698 O689 1.250 . S
C698 O690 1.258 . S
O699 Mn684 2.162 . S
O699 C687 1.281 . S
O700 Mn684 2.297 . S
O700 C687 1.236 . S
N701 Mn685 2.282 . S
N701 C702 1.328 . S
N701 C706 1.318 . S
C702 N701 1.328 . S
C702 C703 1.457 . S
C702 H707 0.929 . S
C703 C702 1.457 . S
C703 C704 1.291 . S
C703 H716 0.931 . S
C704 C703 1.291 . S
C704 C705 1.373 . S
C704 H717 0.929 . S
C705 C704 1.373 . S
C705 C706 1.396 . S
C705 C712 1.403 . S
C706 C696 1.476 . S
C706 N701 1.318 . S
C706 C705 1.396 . S
H707 C702 0.929 . S
O708 Mn684 2.385 . S
O708 C686 1.234 . S
O709 Mn684 2.209 . S
O709 Mn685 2.215 . S
O709 C686 1.283 . S
O710 Mn684 2.094 . S
O710 C688 1.240 . S
O711 Mn685 2.117 . S
O711 C688 1.264 . S
C712 C705 1.403 . S
C712 C713 1.399 . S
C712 H718 0.929 . S
C713 C693 1.449 . S
C713 C712 1.399 . S
C713 H719 0.930 . S
H714 C694 0.931 . S
H715 C695 0.930 . S
H716 C703 0.931 . S
H717 C704 0.929 . S
H718 C712 0.929 . S
H719 C713 0.930 . S
Mn720 O725 2.095 . S
Mn720 O735 2.162 . S
Mn720 O736 2.297 . S
Mn720 O744 2.385 . S
Mn720 O745 2.209 . S
Mn720 O746 2.094 . S
Mn721 O726 2.121 . S
Mn721 N728 2.257 . S
Mn721 N737 2.282 . S
Mn721 O745 2.215 . S
Mn721 O747 2.117 . S
C722 O744 1.234 . S
C722 O745 1.283 . S
C723 O735 1.281 . S
C723 O736 1.236 . S
C724 O746 1.240 . S
C724 O747 1.264 . S
O725 Mn720 2.095 . S
O725 C734 1.250 . S
O726 Mn721 2.121 . S
O726 C734 1.258 . S
C727 N728 1.326 . S
C727 C731 1.460 . S
C727 H733 0.929 . S
N728 Mn721 2.257 . S
N728 C727 1.326 . S
N728 C732 1.362 . S
C729 C730 1.258 . S
C729 C732 1.431 . S
C729 C749 1.449 . S
C730 C729 1.258 . S
C730 C731 1.477 . S
C730 H750 0.931 . S
C731 C727 1.460 . S
C731 C730 1.477 . S
C731 H751 0.930 . S
C732 N728 1.362 . S
C732 C729 1.431 . S
C732 C742 1.476 . S
H733 C727 0.929 . S
C734 O725 1.250 . S
C734 O726 1.258 . S
O735 Mn720 2.162 . S
O735 C723 1.281 . S
O736 Mn720 2.297 . S
O736 C723 1.236 . S
N737 Mn721 2.282 . S
N737 C738 1.328 . S
N737 C742 1.318 . S
C738 N737 1.328 . S
C738 C739 1.457 . S
C738 H743 0.929 . S
C739 C738 1.457 . S
C739 C740 1.291 . S
C739 H752 0.931 . S
C740 C739 1.291 . S
C740 C741 1.373 . S
C740 H753 0.929 . S
C741 C740 1.373 . S
C741 C742 1.396 . S
C741 C748 1.403 . S
C742 C732 1.476 . S
C742 N737 1.318 . S
C742 C741 1.396 . S
H743 C738 0.929 . S
O744 Mn720 2.385 . S
O744 C722 1.234 . S
O745 Mn720 2.209 . S
O745 Mn721 2.215 . S
O745 C722 1.283 . S
O746 Mn720 2.094 . S
O746 C724 1.240 . S
O747 Mn721 2.117 . S
O747 C724 1.264 . S
C748 C741 1.403 . S
C748 C749 1.399 . S
C748 H754 0.929 . S
C749 C729 1.449 . S
C749 C748 1.399 . S
C749 H755 0.930 . S
H750 C730 0.931 . S
H751 C731 0.930 . S
H752 C739 0.931 . S
H753 C740 0.929 . S
H754 C748 0.929 . S
H755 C749 0.930 . S
Mn756 O761 2.095 . S
Mn756 O771 2.162 . S
Mn756 O772 2.297 . S
Mn756 O780 2.385 . S
Mn756 O781 2.209 . S
Mn756 O782 2.094 . S
Mn757 O762 2.121 . S
Mn757 N764 2.257 . S
Mn757 N773 2.282 . S
Mn757 O781 2.215 . S
Mn757 O783 2.117 . S
C758 O780 1.234 . S
C758 O781 1.283 . S
C759 O771 1.281 . S
C759 O772 1.236 . S
C760 O782 1.240 . S
C760 O783 1.264 . S
O761 Mn756 2.095 . S
O761 C770 1.250 . S
O762 Mn757 2.121 . S
O762 C770 1.258 . S
C763 N764 1.326 . S
C763 C767 1.460 . S
C763 H769 0.929 . S
N764 Mn757 2.257 . S
N764 C763 1.326 . S
N764 C768 1.362 . S
C765 C766 1.258 . S
C765 C768 1.431 . S
C765 C785 1.449 . S
C766 C765 1.258 . S
C766 C767 1.477 . S
C766 H786 0.931 . S
C767 C763 1.460 . S
C767 C766 1.477 . S
C767 H787 0.930 . S
C768 N764 1.362 . S
C768 C765 1.431 . S
C768 C778 1.476 . S
H769 C763 0.929 . S
C770 O761 1.250 . S
C770 O762 1.258 . S
O771 Mn756 2.162 . S
O771 C759 1.281 . S
O772 Mn756 2.297 . S
O772 C759 1.236 . S
N773 Mn757 2.282 . S
N773 C774 1.328 . S
N773 C778 1.318 . S
C774 N773 1.328 . S
C774 C775 1.457 . S
C774 H779 0.929 . S
C775 C774 1.457 . S
C775 C776 1.291 . S
C775 H788 0.931 . S
C776 C775 1.291 . S
C776 C777 1.373 . S
C776 H789 0.929 . S
C777 C776 1.373 . S
C777 C778 1.396 . S
C777 C784 1.403 . S
C778 C768 1.476 . S
C778 N773 1.318 . S
C778 C777 1.396 . S
H779 C774 0.929 . S
O780 Mn756 2.385 . S
O780 C758 1.234 . S
O781 Mn756 2.209 . S
O781 Mn757 2.215 . S
O781 C758 1.283 . S
O782 Mn756 2.094 . S
O782 C760 1.240 . S
O783 Mn757 2.117 . S
O783 C760 1.264 . S
C784 C777 1.403 . S
C784 C785 1.399 . S
C784 H790 0.929 . S
C785 C765 1.449 . S
C785 C784 1.399 . S
C785 H791 0.930 . S
H786 C766 0.931 . S
H787 C767 0.930 . S
H788 C775 0.931 . S
H789 C776 0.929 . S
H790 C784 0.929 . S
H791 C785 0.930 . S
Mn792 O797 2.095 . S
Mn792 O807 2.162 . S
Mn792 O808 2.297 . S
Mn792 O816 2.385 . S
Mn792 O817 2.209 . S
Mn792 O818 2.094 . S
Mn793 O798 2.121 . S
Mn793 N800 2.257 . S
Mn793 N809 2.282 . S
Mn793 O817 2.215 . S
Mn793 O819 2.117 . S
C794 O816 1.234 . S
C794 O817 1.283 . S
C795 O807 1.281 . S
C795 O808 1.236 . S
C796 O818 1.240 . S
C796 O819 1.264 . S
O797 Mn792 2.095 . S
O797 C806 1.250 . S
O798 Mn793 2.121 . S
O798 C806 1.258 . S
C799 N800 1.326 . S
C799 C803 1.460 . S
C799 H805 0.929 . S
N800 Mn793 2.257 . S
N800 C799 1.326 . S
N800 C804 1.362 . S
C801 C802 1.258 . S
C801 C804 1.431 . S
C801 C821 1.449 . S
C802 C801 1.258 . S
C802 C803 1.477 . S
C802 H822 0.931 . S
C803 C799 1.460 . S
C803 C802 1.477 . S
C803 H823 0.930 . S
C804 N800 1.362 . S
C804 C801 1.431 . S
C804 C814 1.476 . S
H805 C799 0.929 . S
C806 O797 1.250 . S
C806 O798 1.258 . S
O807 Mn792 2.162 . S
O807 C795 1.281 . S
O808 Mn792 2.297 . S
O808 C795 1.236 . S
N809 Mn793 2.282 . S
N809 C810 1.328 . S
N809 C814 1.318 . S
C810 N809 1.328 . S
C810 C811 1.457 . S
C810 H815 0.929 . S
C811 C810 1.457 . S
C811 C812 1.291 . S
C811 H824 0.931 . S
C812 C811 1.291 . S
C812 C813 1.373 . S
C812 H825 0.929 . S
C813 C812 1.373 . S
C813 C814 1.396 . S
C813 C820 1.403 . S
C814 C804 1.476 . S
C814 N809 1.318 . S
C814 C813 1.396 . S
H815 C810 0.929 . S
O816 Mn792 2.385 . S
O816 C794 1.234 . S
O817 Mn792 2.209 . S
O817 Mn793 2.215 . S
O817 C794 1.283 . S
O818 Mn792 2.094 . S
O818 C796 1.240 . S
O819 Mn793 2.117 . S
O819 C796 1.264 . S
C820 C813 1.403 . S
C820 C821 1.399 . S
C820 H826 0.929 . S
C821 C801 1.449 . S
C821 C820 1.399 . S
C821 H827 0.930 . S
H822 C802 0.931 . S
H823 C803 0.930 . S
H824 C811 0.931 . S
H825 C812 0.929 . S
H826 C820 0.929 . S
H827 C821 0.930 . S
Mn828 O833 2.095 . S
Mn828 O843 2.162 . S
Mn828 O844 2.297 . S
Mn828 O852 2.385 . S
Mn828 O853 2.209 . S
Mn828 O854 2.094 . S
Mn829 O834 2.121 . S
Mn829 N836 2.257 . S
Mn829 N845 2.282 . S
Mn829 O853 2.215 . S
Mn829 O855 2.117 . S
C830 O852 1.234 . S
C830 O853 1.283 . S
C831 O843 1.281 . S
C831 O844 1.236 . S
C832 O854 1.240 . S
C832 O855 1.264 . S
O833 Mn828 2.095 . S
O833 C842 1.250 . S
O834 Mn829 2.121 . S
O834 C842 1.258 . S
C835 N836 1.326 . S
C835 C839 1.460 . S
C835 H841 0.929 . S
N836 Mn829 2.257 . S
N836 C835 1.326 . S
N836 C840 1.362 . S
C837 C838 1.258 . S
C837 C840 1.431 . S
C837 C857 1.449 . S
C838 C837 1.258 . S
C838 C839 1.477 . S
C838 H858 0.931 . S
C839 C835 1.460 . S
C839 C838 1.477 . S
C839 H859 0.930 . S
C840 N836 1.362 . S
C840 C837 1.431 . S
C840 C850 1.476 . S
H841 C835 0.929 . S
C842 O833 1.250 . S
C842 O834 1.258 . S
O843 Mn828 2.162 . S
O843 C831 1.281 . S
O844 Mn828 2.297 . S
O844 C831 1.236 . S
N845 Mn829 2.282 . S
N845 C846 1.328 . S
N845 C850 1.318 . S
C846 N845 1.328 . S
C846 C847 1.457 . S
C846 H851 0.929 . S
C847 C846 1.457 . S
C847 C848 1.291 . S
C847 H860 0.931 . S
C848 C847 1.291 . S
C848 C849 1.373 . S
C848 H861 0.929 . S
C849 C848 1.373 . S
C849 C850 1.396 . S
C849 C856 1.403 . S
C850 C840 1.476 . S
C850 N845 1.318 . S
C850 C849 1.396 . S
H851 C846 0.929 . S
O852 Mn828 2.385 . S
O852 C830 1.234 . S
O853 Mn828 2.209 . S
O853 Mn829 2.215 . S
O853 C830 1.283 . S
O854 Mn828 2.094 . S
O854 C832 1.240 . S
O855 Mn829 2.117 . S
O855 C832 1.264 . S
C856 C849 1.403 . S
C856 C857 1.399 . S
C856 H862 0.929 . S
C857 C837 1.449 . S
C857 C856 1.399 . S
C857 H863 0.930 . S
H858 C838 0.931 . S
H859 C839 0.930 . S
H860 C847 0.931 . S
H861 C848 0.929 . S
H862 C856 0.929 . S
H863 C857 0.930 . S
H864 C870 0.930 . S
H865 C873 0.930 . S
H866 C874 0.930 . S
H867 C875 0.930 . S
H868 C878 0.930 . S
H869 C879 0.930 . S
C870 H864 0.930 . S
C870 C871 1.355 . S
C870 C872 1.415 . S
C871 C870 1.355 . S
C871 C873 1.419 . S
C872 C870 1.415 . S
C872 C877 1.425 . S
C872 C879 1.409 . S
C873 H865 0.930 . S
C873 C871 1.419 . S
C873 C874 1.362 . S
C874 H866 0.930 . S
C874 C873 1.362 . S
C874 C877 1.409 . S
C875 H867 0.930 . S
C875 C876 1.355 . S
C875 C877 1.415 . S
C876 C875 1.355 . S
C876 C878 1.419 . S
C877 C872 1.425 . S
C877 C874 1.409 . S
C877 C875 1.415 . S
C878 H868 0.930 . S
C878 C876 1.419 . S
C878 C879 1.362 . S
C879 H869 0.930 . S
C879 C872 1.409 . S
C879 C878 1.362 . S
H880 C886 0.930 . S
H881 C889 0.930 . S
H882 C890 0.930 1_455 S
H883 C891 0.930 . S
H884 C894 0.930 . S
H885 C895 0.930 . S
C886 H880 0.930 . S
C886 C887 1.355 . S
C886 C888 1.415 1_655 S
C887 C886 1.355 . S
C887 C889 1.419 . S
C888 C886 1.415 1_455 S
C888 C893 1.425 . S
C888 C895 1.409 . S
C889 H881 0.930 . S
C889 C887 1.419 . S
C889 C890 1.362 . S
C890 H882 0.930 1_655 S
C890 C889 1.362 . S
C890 C893 1.409 1_655 S
C891 H883 0.930 . S
C891 C892 1.355 . S
C891 C893 1.415 . S
C892 C891 1.355 . S
C892 C894 1.419 . S
C893 C888 1.425 . S
C893 C890 1.409 1_455 S
C893 C891 1.415 . S
C894 H884 0.930 . S
C894 C892 1.419 . S
C894 C895 1.362 . S
C895 H885 0.930 . S
C895 C888 1.409 . S
C895 C894 1.362 . S
H896 C902 0.930 . S
H897 C905 0.930 . S
H898 C906 0.930 . S
H899 C907 0.930 . S
H900 C910 0.930 . S
H901 C911 0.930 . S
C902 H896 0.930 . S
C902 C903 1.355 . S
C902 C904 1.415 . S
C903 C902 1.355 . S
C903 C905 1.419 . S
C904 C902 1.415 . S
C904 C909 1.425 . S
C904 C911 1.409 . S
C905 H897 0.930 . S
C905 C903 1.419 . S
C905 C906 1.362 . S
C906 H898 0.930 . S
C906 C905 1.362 . S
C906 C909 1.409 . S
C907 H899 0.930 . S
C907 C908 1.355 . S
C907 C909 1.415 . S
C908 C907 1.355 . S
C908 C910 1.419 . S
C909 C904 1.425 . S
C909 C906 1.409 . S
C909 C907 1.415 . S
C910 H900 0.930 . S
C910 C908 1.419 . S
C910 C911 1.362 . S
C911 H901 0.930 . S
C911 C904 1.409 . S
C911 C910 1.362 . S
H912 C918 0.930 . S
H913 C921 0.930 . S
H914 C922 0.930 . S
H915 C923 0.930 . S
H916 C926 0.930 . S
H917 C927 0.930 . S
C918 H912 0.930 . S
C918 C919 1.355 . S
C918 C920 1.416 . S
C919 C918 1.355 . S
C919 C921 1.419 . S
C920 C918 1.416 . S
C920 C925 1.425 1_455 S
C920 C927 1.408 1_455 S
C921 H913 0.930 . S
C921 C919 1.419 . S
C921 C922 1.362 . S
C922 H914 0.930 . S
C922 C921 1.362 . S
C922 C925 1.409 1_455 S
C923 H915 0.930 . S
C923 C924 1.355 . S
C923 C925 1.415 . S
C924 C923 1.355 . S
C924 C926 1.419 . S
C925 C920 1.425 1_655 S
C925 C922 1.409 1_655 S
C925 C923 1.415 . S
C926 H916 0.930 . S
C926 C924 1.419 . S
C926 C927 1.362 . S
C927 H917 0.930 . S
C927 C920 1.408 1_655 S
C927 C926 1.362 . S
H928 C934 0.930 . S
H929 C937 0.930 . S
H930 C938 0.930 . S
H931 C939 0.930 . S
H932 C942 0.930 . S
H933 C943 0.930 . S
C934 H928 0.930 . S
C934 C935 1.355 . S
C934 C936 1.415 . S
C935 C934 1.355 . S
C935 C937 1.419 . S
C936 C934 1.415 . S
C936 C941 1.425 . S
C936 C943 1.409 . S
C937 H929 0.930 . S
C937 C935 1.419 . S
C937 C938 1.362 . S
C938 H930 0.930 . S
C938 C937 1.362 . S
C938 C941 1.409 . S
C939 H931 0.930 . S
C939 C940 1.355 . S
C939 C941 1.415 . S
C940 C939 1.355 . S
C940 C942 1.419 . S
C941 C936 1.425 . S
C941 C938 1.409 . S
C941 C939 1.415 . S
C942 H932 0.930 . S
C942 C940 1.419 . S
C942 C943 1.362 . S
C943 H933 0.930 . S
C943 C936 1.409 . S
C943 C942 1.362 . S
H944 C950 0.930 . S
H945 C953 0.930 . S
H946 C954 0.930 . S
H947 C955 0.930 . S
H948 C958 0.930 . S
H949 C959 0.930 . S
C950 H944 0.930 . S
C950 C951 1.355 . S
C950 C952 1.415 1_655 S
C951 C950 1.355 . S
C951 C953 1.419 . S
C952 C950 1.415 1_455 S
C952 C957 1.425 . S
C952 C959 1.409 . S
C953 H945 0.930 . S
C953 C951 1.419 . S
C953 C954 1.362 1_655 S
C954 H946 0.930 . S
C954 C953 1.362 1_455 S
C954 C957 1.409 . S
C955 H947 0.930 . S
C955 C956 1.355 . S
C955 C957 1.415 . S
C956 C955 1.355 . S
C956 C958 1.419 . S
C957 C952 1.425 . S
C957 C954 1.409 . S
C957 C955 1.415 . S
C958 H948 0.930 . S
C958 C956 1.419 . S
C958 C959 1.362 . S
C959 H949 0.930 . S
C959 C952 1.409 . S
C959 C958 1.362 . S
H960 C966 0.930 . S
H961 C969 0.930 . S
H962 C970 0.930 . S
H963 C971 0.930 . S
H964 C974 0.930 . S
H965 C975 0.930 . S
C966 H960 0.930 . S
C966 C967 1.355 . S
C966 C968 1.415 . S
C967 C966 1.355 . S
C967 C969 1.419 . S
C968 C966 1.415 . S
C968 C973 1.425 . S
C968 C975 1.409 . S
C969 H961 0.930 . S
C969 C967 1.419 . S
C969 C970 1.362 . S
C970 H962 0.930 . S
C970 C969 1.362 . S
C970 C973 1.409 . S
C971 H963 0.930 . S
C971 C972 1.355 . S
C971 C973 1.415 . S
C972 C971 1.355 . S
C972 C974 1.419 . S
C973 C968 1.425 . S
C973 C970 1.409 . S
C973 C971 1.415 . S
C974 H964 0.930 . S
C974 C972 1.419 . S
C974 C975 1.362 . S
C975 H965 0.930 . S
C975 C968 1.409 . S
C975 C974 1.362 . S
H976 C982 0.930 . S
H977 C985 0.930 . S
H978 C986 0.930 . S
H979 C987 0.930 . S
H980 C990 0.930 . S
H981 C991 0.939 . S
C982 H976 0.930 . S
C982 C983 1.355 . S
C982 C984 1.415 . S
C983 C982 1.355 . S
C983 C985 1.419 . S
C984 C982 1.415 . S
C984 C989 1.425 . S
C984 C991 1.409 1_655 S
C985 H977 0.930 . S
C985 C983 1.419 . S
C985 C986 1.362 . S
C986 H978 0.930 . S
C986 C985 1.362 . S
C986 C989 1.409 . S
C987 H979 0.930 . S
C987 C988 1.355 . S
C987 C989 1.415 1_455 S
C988 C987 1.355 . S
C988 C990 1.419 . S
C989 C984 1.425 . S
C989 C986 1.409 . S
C989 C987 1.415 1_655 S
C990 H980 0.930 . S
C990 C988 1.419 . S
C990 C991 1.362 . S
C991 H981 0.939 . S
C991 C984 1.409 1_455 S
C991 C990 1.362 . S
H992 C998 0.930 . S
H993 C1001 0.930 . S
H994 C1002 0.930 . S
H995 C1003 0.930 . S
H996 C1006 0.930 . S
H997 C1007 0.930 . S
C998 H992 0.930 . S
C998 C999 1.355 . S
C998 C1000 1.415 . S
C999 C998 1.355 . S
C999 C1001 1.419 . S
C1000 C998 1.415 . S
C1000 C1005 1.425 . S
C1000 C1007 1.409 . S
C1001 H993 0.930 . S
C1001 C999 1.419 . S
C1001 C1002 1.362 . S
C1002 H994 0.930 . S
C1002 C1001 1.362 . S
C1002 C1005 1.409 . S
C1003 H995 0.930 . S
C1003 C1004 1.355 . S
C1003 C1005 1.415 . S
C1004 C1003 1.355 . S
C1004 C1006 1.419 . S
C1005 C1000 1.425 . S
C1005 C1002 1.409 . S
C1005 C1003 1.415 . S
C1006 H996 0.930 . S
C1006 C1004 1.419 . S
C1006 C1007 1.362 . S
C1007 H997 0.930 . S
C1007 C1000 1.409 . S
C1007 C1006 1.362 . S
H1008 C1014 0.930 . S
H1009 C1017 0.930 . S
H1010 C1018 0.930 . S
H1011 C1019 0.930 . S
H1012 C1022 0.930 . S
H1013 C1023 0.923 1_556 S
C1014 H1008 0.930 . S
C1014 C1015 1.355 . S
C1014 C1016 1.415 . S
C1015 C1014 1.355 . S
C1015 C1017 1.419 . S
C1016 C1014 1.415 . S
C1016 C1021 1.441 . S
C1016 C1023 1.409 1_556 S
C1017 H1009 0.930 . S
C1017 C1015 1.419 . S
C1017 C1018 1.362 . S
C1018 H1010 0.930 . S
C1018 C1017 1.362 . S
C1018 C1021 1.435 . S
C1019 H1011 0.930 . S
C1019 C1020 1.355 . S
C1019 C1021 1.375 1_554 S
C1020 C1019 1.355 . S
C1020 C1022 1.419 . S
C1021 C1016 1.441 . S
C1021 C1018 1.435 . S
C1021 C1019 1.375 1_556 S
C1022 H1012 0.930 . S
C1022 C1020 1.419 . S
C1022 C1023 1.362 . S
C1023 H1013 0.923 1_554 S
C1023 C1016 1.409 1_554 S
C1023 C1022 1.362 . S
H1024 C1030 0.930 . S
H1025 C1033 0.930 . S
H1026 C1034 0.930 . S
H1027 C1035 0.930 . S
H1028 C1038 0.930 . S
H1029 C1039 0.930 . S
C1030 H1024 0.930 . S
C1030 C1031 1.355 . S
C1030 C1032 1.415 . S
C1031 C1030 1.355 . S
C1031 C1033 1.419 . S
C1032 C1030 1.415 . S
C1032 C1037 1.425 . S
C1032 C1039 1.409 . S
C1033 H1025 0.930 . S
C1033 C1031 1.419 . S
C1033 C1034 1.362 . S
C1034 H1026 0.930 . S
C1034 C1033 1.362 . S
C1034 C1037 1.409 . S
C1035 H1027 0.930 . S
C1035 C1036 1.355 . S
C1035 C1037 1.415 . S
C1036 C1035 1.355 . S
C1036 C1038 1.419 . S
C1037 C1032 1.425 . S
C1037 C1034 1.409 . S
C1037 C1035 1.415 . S
C1038 H1028 0.930 . S
C1038 C1036 1.419 . S
C1038 C1039 1.362 . S
C1039 H1029 0.930 . S
C1039 C1032 1.409 . S
C1039 C1038 1.362 . S
H1040 C1046 0.930 . S
H1041 C1049 0.930 . S
H1042 C1050 0.930 . S
H1043 C1051 0.930 . S
H1044 C1054 0.930 . S
H1045 C1055 0.930 . S
C1046 H1040 0.930 . S
C1046 C1047 1.355 . S
C1046 C1048 1.415 . S
C1047 C1046 1.355 . S
C1047 C1049 1.419 . S
C1048 C1046 1.415 . S
C1048 C1053 1.432 . S
C1048 C1055 1.409 1_554 S
C1049 H1041 0.930 . S
C1049 C1047 1.419 . S
C1049 C1050 1.362 . S
C1050 H1042 0.930 . S
C1050 C1049 1.362 . S
C1050 C1053 1.424 . S
C1051 H1043 0.930 . S
C1051 C1052 1.355 . S
C1051 C1053 1.393 1_556 S
C1052 C1051 1.355 . S
C1052 C1054 1.419 . S
C1053 C1048 1.432 . S
C1053 C1050 1.424 . S
C1053 C1051 1.393 1_554 S
C1054 H1044 0.930 . S
C1054 C1052 1.419 . S
C1054 C1055 1.362 . S
C1055 H1045 0.930 . S
C1055 C1048 1.409 1_556 S
C1055 C1054 1.362 . S
H1056 C1062 0.930 . S
H1057 C1065 0.930 . S
H1058 C1066 0.930 . S
H1059 C1067 0.930 . S
H1060 C1070 0.930 . S
H1061 C1071 0.930 . S
C1062 H1056 0.930 . S
C1062 C1063 1.355 . S
C1062 C1064 1.415 . S
C1063 C1062 1.355 . S
C1063 C1065 1.419 . S
C1064 C1062 1.415 . S
C1064 C1069 1.425 . S
C1064 C1071 1.409 . S
C1065 H1057 0.930 . S
C1065 C1063 1.419 . S
C1065 C1066 1.362 . S
C1066 H1058 0.930 . S
C1066 C1065 1.362 . S
C1066 C1069 1.409 . S
C1067 H1059 0.930 . S
C1067 C1068 1.355 . S
C1067 C1069 1.415 . S
C1068 C1067 1.355 . S
C1068 C1070 1.419 . S
C1069 C1064 1.425 . S
C1069 C1066 1.409 . S
C1069 C1067 1.415 . S
C1070 H1060 0.930 . S
C1070 C1068 1.419 . S
C1070 C1071 1.362 . S
C1071 H1061 0.930 . S
C1071 C1064 1.409 . S
C1071 C1070 1.362 . S
H1072 C1078 0.930 . S
H1073 C1081 0.930 . S
H1074 C1082 0.930 . S
H1075 C1083 0.930 . S
H1076 C1086 0.930 . S
H1077 C1087 0.930 . S
C1078 H1072 0.930 . S
C1078 C1079 1.355 . S
C1078 C1080 1.415 . S
C1079 C1078 1.355 . S
C1079 C1081 1.419 . S
C1080 C1078 1.415 . S
C1080 C1085 1.425 1_554 S
C1080 C1087 1.409 1_554 S
C1081 H1073 0.930 . S
C1081 C1079 1.419 . S
C1081 C1082 1.362 . S
C1082 H1074 0.930 . S
C1082 C1081 1.362 . S
C1082 C1085 1.409 1_554 S
C1083 H1075 0.930 . S
C1083 C1084 1.355 . S
C1083 C1085 1.415 . S
C1084 C1083 1.355 . S
C1084 C1086 1.419 . S
C1085 C1080 1.425 1_556 S
C1085 C1082 1.409 1_556 S
C1085 C1083 1.415 . S
C1086 H1076 0.930 . S
C1086 C1084 1.419 . S
C1086 C1087 1.362 . S
C1087 H1077 0.930 . S
C1087 C1080 1.409 1_556 S
C1087 C1086 1.362 . S
H1088 C1094 0.930 . S
H1089 C1097 0.930 . S
H1090 C1098 0.930 . S
H1091 C1099 0.930 . S
H1092 C1102 0.930 . S
H1093 C1103 0.930 . S
C1094 H1088 0.930 . S
C1094 C1095 1.355 . S
C1094 C1096 1.415 . S
C1095 C1094 1.355 . S
C1095 C1097 1.419 . S
C1096 C1094 1.415 . S
C1096 C1101 1.425 . S
C1096 C1103 1.409 . S
C1097 H1089 0.930 . S
C1097 C1095 1.419 . S
C1097 C1098 1.362 . S
C1098 H1090 0.930 . S
C1098 C1097 1.362 . S
C1098 C1101 1.409 . S
C1099 H1091 0.930 . S
C1099 C1100 1.355 . S
C1099 C1101 1.415 . S
C1100 C1099 1.355 . S
C1100 C1102 1.419 . S
C1101 C1096 1.425 . S
C1101 C1098 1.409 . S
C1101 C1099 1.415 . S
C1102 H1092 0.930 . S
C1102 C1100 1.419 . S
C1102 C1103 1.362 . S
C1103 H1093 0.930 . S
C1103 C1096 1.409 . S
C1103 C1102 1.362 . S
H1104 C1110 0.930 . S
H1105 C1113 0.930 . S
H1106 C1114 0.930 . S
H1107 C1115 0.930 . S
H1108 C1118 0.930 . S
H1109 C1119 0.919 1_554 S
C1110 H1104 0.930 . S
C1110 C1111 1.355 . S
C1110 C1112 1.415 . S
C1111 C1110 1.355 . S
C1111 C1113 1.419 . S
C1112 C1110 1.415 . S
C1112 C1117 1.425 . S
C1112 C1119 1.409 1_554 S
C1113 H1105 0.930 . S
C1113 C1111 1.419 . S
C1113 C1114 1.362 . S
C1114 H1106 0.930 . S
C1114 C1113 1.362 . S
C1114 C1117 1.409 . S
C1115 H1107 0.930 . S
C1115 C1116 1.355 . S
C1115 C1117 1.415 1_556 S
C1116 C1115 1.355 . S
C1116 C1118 1.419 . S
C1117 C1112 1.425 . S
C1117 C1114 1.409 . S
C1117 C1115 1.415 1_554 S
C1118 H1108 0.930 . S
C1118 C1116 1.419 . S
C1118 C1119 1.362 . S
C1119 H1109 0.919 1_556 S
C1119 C1112 1.409 1_556 S
C1119 C1118 1.362 . S
H1120 C1126 0.930 . S
H1121 C1129 0.930 . S
H1122 C1130 0.930 . S
H1123 C1131 0.930 . S
H1124 C1134 0.930 . S
H1125 C1135 0.930 . S
C1126 H1120 0.930 . S
C1126 C1127 1.355 . S
C1126 C1128 1.415 . S
C1127 C1126 1.355 . S
C1127 C1129 1.419 . S
C1128 C1126 1.415 . S
C1128 C1133 1.425 . S
C1128 C1135 1.409 . S
C1129 H1121 0.930 . S
C1129 C1127 1.419 . S
C1129 C1130 1.362 . S
C1130 H1122 0.930 . S
C1130 C1129 1.362 . S
C1130 C1133 1.409 . S
C1131 H1123 0.930 . S
C1131 C1132 1.355 . S
C1131 C1133 1.415 . S
C1132 C1131 1.355 . S
C1132 C1134 1.419 . S
C1133 C1128 1.425 . S
C1133 C1130 1.409 . S
C1133 C1131 1.415 . S
C1134 H1124 0.930 . S
C1134 C1132 1.419 . S
C1134 C1135 1.362 . S
C1135 H1125 0.930 . S
C1135 C1128 1.409 . S
C1135 C1134 1.362 . S
H1136 C1142 0.930 . S
H1137 C1145 0.930 . S
H1138 C1146 0.930 . S
H1139 C1147 0.930 . S
H1140 C1150 0.930 . S
H1141 C1151 0.930 . S
C1142 H1136 0.930 . S
C1142 C1143 1.355 . S
C1142 C1144 1.415 . S
C1143 C1142 1.355 . S
C1143 C1145 1.419 . S
C1144 C1142 1.415 . S
C1144 C1149 1.425 . S
C1144 C1151 1.409 . S
C1145 H1137 0.930 . S
C1145 C1143 1.419 . S
C1145 C1146 1.362 . S
C1146 H1138 0.930 . S
C1146 C1145 1.362 . S
C1146 C1149 1.409 . S
C1147 H1139 0.930 . S
C1147 C1148 1.355 . S
C1147 C1149 1.415 . S
C1148 C1147 1.355 . S
C1148 C1150 1.419 . S
C1149 C1144 1.425 . S
C1149 C1146 1.409 . S
C1149 C1147 1.415 . S
C1150 H1140 0.930 . S
C1150 C1148 1.419 . S
C1150 C1151 1.362 . S
C1151 H1141 0.930 . S
C1151 C1144 1.409 . S
C1151 C1150 1.362 . S
H1152 C1158 0.930 . S
H1153 C1161 0.930 . S
H1154 C1162 0.930 . S
H1155 C1163 0.930 . S
H1156 C1166 0.930 . S
H1157 C1167 0.930 . S
C1158 H1152 0.930 . S
C1158 C1159 1.355 . S
C1158 C1160 1.415 . S
C1159 C1158 1.355 . S
C1159 C1161 1.419 . S
C1160 C1158 1.415 . S
C1160 C1165 1.428 . S
C1160 C1167 1.409 1_565 S
C1161 H1153 0.930 . S
C1161 C1159 1.419 . S
C1161 C1162 1.362 . S
C1162 H1154 0.930 . S
C1162 C1161 1.362 . S
C1162 C1165 1.419 . S
C1163 H1155 0.930 . S
C1163 C1164 1.355 . S
C1163 C1165 1.402 1_545 S
C1164 C1163 1.355 . S
C1164 C1166 1.419 . S
C1165 C1160 1.428 . S
C1165 C1162 1.419 . S
C1165 C1163 1.402 1_565 S
C1166 H1156 0.930 . S
C1166 C1164 1.419 . S
C1166 C1167 1.362 . S
C1167 H1157 0.930 . S
C1167 C1160 1.409 1_545 S
C1167 C1166 1.362 . S
H1168 C1174 0.930 . S
H1169 C1177 0.930 . S
H1170 C1178 0.930 . S
H1171 C1179 0.930 . S
H1172 C1182 0.930 . S
H1173 C1183 0.930 . S
C1174 H1168 0.930 . S
C1174 C1175 1.355 . S
C1174 C1176 1.415 . S
C1175 C1174 1.355 . S
C1175 C1177 1.419 . S
C1176 C1174 1.415 . S
C1176 C1181 1.425 . S
C1176 C1183 1.409 . S
C1177 H1169 0.930 . S
C1177 C1175 1.419 . S
C1177 C1178 1.362 . S
C1178 H1170 0.930 . S
C1178 C1177 1.362 . S
C1178 C1181 1.409 . S
C1179 H1171 0.930 . S
C1179 C1180 1.355 . S
C1179 C1181 1.415 . S
C1180 C1179 1.355 . S
C1180 C1182 1.419 . S
C1181 C1176 1.425 . S
C1181 C1178 1.409 . S
C1181 C1179 1.415 . S
C1182 H1172 0.930 . S
C1182 C1180 1.419 . S
C1182 C1183 1.362 . S
C1183 H1173 0.930 . S
C1183 C1176 1.409 . S
C1183 C1182 1.362 . S
H1184 C1190 0.930 . S
H1185 C1193 0.930 . S
H1186 C1194 0.930 . S
H1187 C1195 0.930 . S
H1188 C1198 0.930 . S
H1189 C1199 0.930 . S
C1190 H1184 0.930 . S
C1190 C1191 1.355 . S
C1190 C1192 1.415 1_565 S
C1191 C1190 1.355 . S
C1191 C1193 1.419 . S
C1192 C1190 1.415 1_545 S
C1192 C1197 1.425 . S
C1192 C1199 1.409 . S
C1193 H1185 0.930 . S
C1193 C1191 1.419 . S
C1193 C1194 1.362 . S
C1194 H1186 0.930 . S
C1194 C1193 1.362 . S
C1194 C1197 1.409 1_565 S
C1195 H1187 0.930 . S
C1195 C1196 1.355 . S
C1195 C1197 1.415 . S
C1196 C1195 1.355 . S
C1196 C1198 1.419 . S
C1197 C1192 1.425 . S
C1197 C1194 1.409 1_545 S
C1197 C1195 1.415 . S
C1198 H1188 0.930 . S
C1198 C1196 1.419 . S
C1198 C1199 1.362 . S
C1199 H1189 0.930 . S
C1199 C1192 1.409 . S
C1199 C1198 1.362 . S
H1200 C1206 0.930 . S
H1201 C1209 0.930 . S
H1202 C1210 0.930 . S
H1203 C1211 0.930 . S
H1204 C1214 0.930 . S
H1205 C1215 0.930 . S
C1206 H1200 0.930 . S
C1206 C1207 1.355 . S
C1206 C1208 1.415 . S
C1207 C1206 1.355 . S
C1207 C1209 1.419 . S
C1208 C1206 1.415 . S
C1208 C1213 1.425 . S
C1208 C1215 1.409 . S
C1209 H1201 0.930 . S
C1209 C1207 1.419 . S
C1209 C1210 1.362 . S
C1210 H1202 0.930 . S
C1210 C1209 1.362 . S
C1210 C1213 1.409 . S
C1211 H1203 0.930 . S
C1211 C1212 1.355 . S
C1211 C1213 1.415 . S
C1212 C1211 1.355 . S
C1212 C1214 1.419 . S
C1213 C1208 1.425 . S
C1213 C1210 1.409 . S
C1213 C1211 1.415 . S
C1214 H1204 0.930 . S
C1214 C1212 1.419 . S
C1214 C1215 1.362 . S
C1215 H1205 0.930 . S
C1215 C1208 1.409 . S
C1215 C1214 1.362 . S
H1216 C1222 0.930 . S
H1217 C1225 0.930 . S
H1218 C1226 0.930 . S
H1219 C1227 0.930 . S
H1220 C1230 0.930 . S
H1221 C1231 0.930 . S
C1222 H1216 0.930 . S
C1222 C1223 1.355 . S
C1222 C1224 1.437 . S
C1223 C1222 1.355 . S
C1223 C1225 1.419 . S
C1224 C1222 1.437 . S
C1224 C1229 1.419 1_565 S
C1224 C1231 1.393 1_565 S
C1225 H1217 0.930 . S
C1225 C1223 1.419 . S
C1225 C1226 1.362 . S
C1226 H1218 0.930 . S
C1226 C1225 1.362 . S
C1226 C1229 1.409 1_565 S
C1227 H1219 0.930 . S
C1227 C1228 1.355 . S
C1227 C1229 1.415 . S
C1228 C1227 1.355 . S
C1228 C1230 1.419 . S
C1229 C1224 1.419 1_545 S
C1229 C1226 1.409 1_545 S
C1229 C1227 1.415 . S
C1230 H1220 0.930 . S
C1230 C1228 1.419 . S
C1230 C1231 1.362 . S
C1231 H1221 0.930 . S
C1231 C1224 1.393 1_545 S
C1231 C1230 1.362 . S
H1232 C1238 0.930 . S
H1233 C1241 0.930 . S
H1234 C1242 0.930 1_565 S
H1235 C1243 0.930 . S
H1236 C1246 0.930 . S
H1237 C1247 0.930 1_545 S
C1238 H1232 0.930 . S
C1238 C1239 1.355 . S
C1238 C1240 1.415 . S
C1239 C1238 1.355 . S
C1239 C1241 1.419 . S
C1240 C1238 1.415 . S
C1240 C1245 1.425 1_545 S
C1240 C1247 1.409 1_545 S
C1241 H1233 0.930 . S
C1241 C1239 1.419 . S
C1241 C1242 1.362 . S
C1242 H1234 0.930 1_545 S
C1242 C1241 1.362 . S
C1242 C1245 1.409 1_545 S
C1243 H1235 0.930 . S
C1243 C1244 1.355 . S
C1243 C1245 1.415 . S
C1244 C1243 1.355 . S
C1244 C1246 1.419 . S
C1245 C1240 1.425 1_565 S
C1245 C1242 1.409 1_565 S
C1245 C1243 1.415 . S
C1246 H1236 0.930 . S
C1246 C1244 1.419 . S
C1246 C1247 1.362 . S
C1247 H1237 0.930 1_565 S
C1247 C1240 1.409 1_565 S
C1247 C1246 1.362 . S
H1248 C1254 0.930 . S
H1249 C1257 0.930 . S
H1250 C1258 0.930 . S
H1251 C1259 0.930 . S
H1252 C1262 0.930 . S
H1253 C1263 0.930 . S
C1254 H1248 0.930 . S
C1254 C1255 1.355 . S
C1254 C1256 1.415 . S
C1255 C1254 1.355 . S
C1255 C1257 1.419 . S
C1256 C1254 1.415 . S
C1256 C1261 1.425 . S
C1256 C1263 1.409 . S
C1257 H1249 0.930 . S
C1257 C1255 1.419 . S
C1257 C1258 1.362 . S
C1258 H1250 0.930 . S
C1258 C1257 1.362 . S
C1258 C1261 1.409 . S
C1259 H1251 0.930 . S
C1259 C1260 1.355 . S
C1259 C1261 1.415 . S
C1260 C1259 1.355 . S
C1260 C1262 1.419 . S
C1261 C1256 1.425 . S
C1261 C1258 1.409 . S
C1261 C1259 1.415 . S
C1262 H1252 0.930 . S
C1262 C1260 1.419 . S
C1262 C1263 1.362 . S
C1263 H1253 0.930 . S
C1263 C1256 1.409 . S
C1263 C1262 1.362 . S
H1264 C1270 0.930 . S
H1265 C1273 0.930 . S
H1266 C1274 0.930 . S
H1267 C1275 0.930 . S
H1268 C1278 0.930 . S
H1269 C1279 0.930 . S
C1270 H1264 0.930 . S
C1270 C1271 1.355 . S
C1270 C1272 1.415 . S
C1271 C1270 1.355 . S
C1271 C1273 1.419 . S
C1272 C1270 1.415 . S
C1272 C1277 1.425 . S
C1272 C1279 1.409 . S
C1273 H1265 0.930 . S
C1273 C1271 1.419 . S
C1273 C1274 1.362 . S
C1274 H1266 0.930 . S
C1274 C1273 1.362 . S
C1274 C1277 1.409 . S
C1275 H1267 0.930 . S
C1275 C1276 1.355 . S
C1275 C1277 1.415 . S
C1276 C1275 1.355 . S
C1276 C1278 1.419 . S
C1277 C1272 1.425 . S
C1277 C1274 1.409 . S
C1277 C1275 1.415 . S
C1278 H1268 0.930 . S
C1278 C1276 1.419 . S
C1278 C1279 1.362 . S
C1279 H1269 0.930 . S
C1279 C1272 1.409 . S
C1279 C1278 1.362 . S
H1280 C1286 0.930 . S
H1281 C1289 0.930 . S
H1282 C1290 0.930 . S
H1283 C1291 0.930 . S
H1284 C1294 0.930 . S
H1285 C1295 0.930 . S
C1286 H1280 0.930 . S
C1286 C1287 1.355 . S
C1286 C1288 1.415 . S
C1287 C1286 1.355 . S
C1287 C1289 1.419 . S
C1288 C1286 1.415 . S
C1288 C1293 1.425 . S
C1288 C1295 1.409 . S
C1289 H1281 0.930 . S
C1289 C1287 1.419 . S
C1289 C1290 1.362 . S
C1290 H1282 0.930 . S
C1290 C1289 1.362 . S
C1290 C1293 1.409 . S
C1291 H1283 0.930 . S
C1291 C1292 1.355 . S
C1291 C1293 1.415 . S
C1292 C1291 1.355 . S
C1292 C1294 1.419 . S
C1293 C1288 1.425 . S
C1293 C1290 1.409 . S
C1293 C1291 1.415 . S
C1294 H1284 0.930 . S
C1294 C1292 1.419 . S
C1294 C1295 1.362 . S
C1295 H1285 0.930 . S
C1295 C1288 1.409 . S
C1295 C1294 1.362 . S
H1296 C1302 0.930 . S
H1297 C1305 0.930 . S
H1298 C1306 0.930 . S
H1299 C1307 0.930 . S
H1300 C1310 0.930 . S
H1301 C1311 0.930 . S
C1302 H1296 0.930 . S
C1302 C1303 1.355 . S
C1302 C1304 1.415 . S
C1303 C1302 1.355 . S
C1303 C1305 1.419 . S
C1304 C1302 1.415 . S
C1304 C1309 1.425 . S
C1304 C1311 1.409 . S
C1305 H1297 0.930 . S
C1305 C1303 1.419 . S
C1305 C1306 1.362 . S
C1306 H1298 0.930 . S
C1306 C1305 1.362 . S
C1306 C1309 1.409 . S
C1307 H1299 0.930 . S
C1307 C1308 1.355 . S
C1307 C1309 1.415 . S
C1308 C1307 1.355 . S
C1308 C1310 1.419 . S
C1309 C1304 1.425 . S
C1309 C1306 1.409 . S
C1309 C1307 1.415 . S
C1310 H1300 0.930 . S
C1310 C1308 1.419 . S
C1310 C1311 1.362 . S
C1311 H1301 0.930 . S
C1311 C1304 1.409 . S
C1311 C1310 1.362 . S
H1312 C1318 0.930 . S
H1313 C1321 0.930 . S
H1314 C1322 0.930 . S
H1315 C1323 0.930 . S
H1316 C1326 0.930 . S
H1317 C1327 0.930 . S
C1318 H1312 0.930 . S
C1318 C1319 1.355 . S
C1318 C1320 1.415 . S
C1319 C1318 1.355 . S
C1319 C1321 1.419 . S
C1320 C1318 1.415 . S
C1320 C1325 1.425 . S
C1320 C1327 1.409 . S
C1321 H1313 0.930 . S
C1321 C1319 1.419 . S
C1321 C1322 1.362 . S
C1322 H1314 0.930 . S
C1322 C1321 1.362 . S
C1322 C1325 1.409 . S
C1323 H1315 0.930 . S
C1323 C1324 1.355 . S
C1323 C1325 1.415 . S
C1324 C1323 1.355 . S
C1324 C1326 1.419 . S
C1325 C1320 1.425 . S
C1325 C1322 1.409 . S
C1325 C1323 1.415 . S
C1326 H1316 0.930 . S
C1326 C1324 1.419 . S
C1326 C1327 1.362 . S
C1327 H1317 0.930 . S
C1327 C1320 1.409 . S
C1327 C1326 1.362 . S
H1328 C1334 0.930 . S
H1329 C1337 0.930 . S
H1330 C1338 0.930 . S
H1331 C1339 0.930 . S
H1332 C1342 0.930 . S
H1333 C1343 0.930 . S
C1334 H1328 0.930 . S
C1334 C1335 1.355 . S
C1334 C1336 1.415 . S
C1335 C1334 1.355 . S
C1335 C1337 1.419 . S
C1336 C1334 1.415 . S
C1336 C1341 1.425 . S
C1336 C1343 1.409 . S
C1337 H1329 0.930 . S
C1337 C1335 1.419 . S
C1337 C1338 1.362 . S
C1338 H1330 0.930 . S
C1338 C1337 1.362 . S
C1338 C1341 1.409 . S
C1339 H1331 0.930 . S
C1339 C1340 1.355 . S
C1339 C1341 1.415 . S
C1340 C1339 1.355 . S
C1340 C1342 1.419 . S
C1341 C1336 1.425 . S
C1341 C1338 1.409 . S
C1341 C1339 1.415 . S
C1342 H1332 0.930 . S
C1342 C1340 1.419 . S
C1342 C1343 1.362 . S
C1343 H1333 0.930 . S
C1343 C1336 1.409 . S
C1343 C1342 1.362 . S
H1344 C1350 0.930 . S
H1345 C1353 0.930 . S
H1346 C1354 0.930 . S
H1347 C1355 0.930 . S
H1348 C1358 0.930 . S
H1349 C1359 0.930 . S
C1350 H1344 0.930 . S
C1350 C1351 1.355 . S
C1350 C1352 1.415 . S
C1351 C1350 1.355 . S
C1351 C1353 1.419 . S
C1352 C1350 1.415 . S
C1352 C1357 1.425 . S
C1352 C1359 1.409 . S
C1353 H1345 0.930 . S
C1353 C1351 1.419 . S
C1353 C1354 1.362 . S
C1354 H1346 0.930 . S
C1354 C1353 1.362 . S
C1354 C1357 1.409 . S
C1355 H1347 0.930 . S
C1355 C1356 1.355 . S
C1355 C1357 1.415 . S
C1356 C1355 1.355 . S
C1356 C1358 1.419 . S
C1357 C1352 1.425 . S
C1357 C1354 1.409 . S
C1357 C1355 1.415 . S
C1358 H1348 0.930 . S
C1358 C1356 1.419 . S
C1358 C1359 1.362 . S
C1359 H1349 0.930 . S
C1359 C1352 1.409 . S
C1359 C1358 1.362 . S
H1360 C1366 0.930 . S
H1361 C1369 0.930 . S
H1362 C1370 0.930 . S
H1363 C1371 0.930 . S
H1364 C1374 0.930 . S
H1365 C1375 0.930 . S
C1366 H1360 0.930 . S
C1366 C1367 1.355 . S
C1366 C1368 1.415 . S
C1367 C1366 1.355 . S
C1367 C1369 1.419 . S
C1368 C1366 1.415 . S
C1368 C1373 1.425 . S
C1368 C1375 1.409 . S
C1369 H1361 0.930 . S
C1369 C1367 1.419 . S
C1369 C1370 1.362 . S
C1370 H1362 0.930 . S
C1370 C1369 1.362 . S
C1370 C1373 1.409 . S
C1371 H1363 0.930 . S
C1371 C1372 1.355 . S
C1371 C1373 1.415 . S
C1372 C1371 1.355 . S
C1372 C1374 1.419 . S
C1373 C1368 1.425 . S
C1373 C1370 1.409 . S
C1373 C1371 1.415 . S
C1374 H1364 0.930 . S
C1374 C1372 1.419 . S
C1374 C1375 1.362 . S
C1375 H1365 0.930 . S
C1375 C1368 1.409 . S
C1375 C1374 1.362 . S
H1376 C1382 0.930 . S
H1377 C1385 0.930 . S
H1378 C1386 0.930 . S
H1379 C1387 0.930 . S
H1380 C1390 0.930 . S
H1381 C1391 0.930 . S
C1382 H1376 0.930 . S
C1382 C1383 1.355 . S
C1382 C1384 1.415 . S
C1383 C1382 1.355 . S
C1383 C1385 1.419 . S
C1384 C1382 1.415 . S
C1384 C1389 1.425 . S
C1384 C1391 1.409 . S
C1385 H1377 0.930 . S
C1385 C1383 1.419 . S
C1385 C1386 1.362 . S
C1386 H1378 0.930 . S
C1386 C1385 1.362 . S
C1386 C1389 1.409 . S
C1387 H1379 0.930 . S
C1387 C1388 1.355 . S
C1387 C1389 1.415 . S
C1388 C1387 1.355 . S
C1388 C1390 1.419 . S
C1389 C1384 1.425 . S
C1389 C1386 1.409 . S
C1389 C1387 1.415 . S
C1390 H1380 0.930 . S
C1390 C1388 1.419 . S
C1390 C1391 1.362 . S
C1391 H1381 0.930 . S
C1391 C1384 1.409 . S
C1391 C1390 1.362 . S
H1392 C1398 0.930 . S
H1393 C1401 0.930 . S
H1394 C1402 0.930 . S
H1395 C1403 0.930 . S
H1396 C1406 0.930 . S
H1397 C1407 0.930 . S
C1398 H1392 0.930 . S
C1398 C1399 1.355 . S
C1398 C1400 1.415 . S
C1399 C1398 1.355 . S
C1399 C1401 1.419 . S
C1400 C1398 1.415 . S
C1400 C1405 1.425 . S
C1400 C1407 1.409 . S
C1401 H1393 0.930 . S
C1401 C1399 1.419 . S
C1401 C1402 1.362 . S
C1402 H1394 0.930 . S
C1402 C1401 1.362 . S
C1402 C1405 1.409 . S
C1403 H1395 0.930 . S
C1403 C1404 1.355 . S
C1403 C1405 1.415 . S
C1404 C1403 1.355 . S
C1404 C1406 1.419 . S
C1405 C1400 1.425 . S
C1405 C1402 1.409 . S
C1405 C1403 1.415 . S
C1406 H1396 0.930 . S
C1406 C1404 1.419 . S
C1406 C1407 1.362 . S
C1407 H1397 0.930 . S
C1407 C1400 1.409 . S
C1407 C1406 1.362 . S
H1408 C1414 0.930 . S
H1409 C1417 0.930 . S
H1410 C1418 0.930 . S
H1411 C1419 0.930 . S
H1412 C1422 0.930 . S
H1413 C1423 0.930 . S
C1414 H1408 0.930 . S
C1414 C1415 1.355 . S
C1414 C1416 1.415 . S
C1415 C1414 1.355 . S
C1415 C1417 1.419 . S
C1416 C1414 1.415 . S
C1416 C1421 1.425 . S
C1416 C1423 1.409 . S
C1417 H1409 0.930 . S
C1417 C1415 1.419 . S
C1417 C1418 1.362 . S
C1418 H1410 0.930 . S
C1418 C1417 1.362 . S
C1418 C1421 1.409 . S
C1419 H1411 0.930 . S
C1419 C1420 1.355 . S
C1419 C1421 1.415 . S
C1420 C1419 1.355 . S
C1420 C1422 1.419 . S
C1421 C1416 1.425 . S
C1421 C1418 1.409 . S
C1421 C1419 1.415 . S
C1422 H1412 0.930 . S
C1422 C1420 1.419 . S
C1422 C1423 1.362 . S
C1423 H1413 0.930 . S
C1423 C1416 1.409 . S
C1423 C1422 1.362 . S
H1424 C1430 0.930 . S
H1425 C1433 0.930 . S
H1426 C1434 0.930 . S
H1427 C1435 0.930 . S
H1428 C1438 0.930 . S
H1429 C1439 0.930 . S
C1430 H1424 0.930 . S
C1430 C1431 1.355 . S
C1430 C1432 1.415 . S
C1431 C1430 1.355 . S
C1431 C1433 1.419 . S
C1432 C1430 1.415 . S
C1432 C1437 1.425 . S
C1432 C1439 1.409 . S
C1433 H1425 0.930 . S
C1433 C1431 1.419 . S
C1433 C1434 1.362 . S
C1434 H1426 0.930 . S
C1434 C1433 1.362 . S
C1434 C1437 1.409 . S
C1435 H1427 0.930 . S
C1435 C1436 1.355 . S
C1435 C1437 1.415 . S
C1436 C1435 1.355 . S
C1436 C1438 1.419 . S
C1437 C1432 1.425 . S
C1437 C1434 1.409 . S
C1437 C1435 1.415 . S
C1438 H1428 0.930 . S
C1438 C1436 1.419 . S
C1438 C1439 1.362 . S
C1439 H1429 0.930 . S
C1439 C1432 1.409 . S
C1439 C1438 1.362 . S
H1440 C1446 0.930 . S
H1441 C1449 0.930 . S
H1442 C1450 0.930 . S
H1443 C1451 0.930 . S
H1444 C1454 0.930 . S
H1445 C1455 0.930 . S
C1446 H1440 0.930 . S
C1446 C1447 1.355 . S
C1446 C1448 1.415 . S
C1447 C1446 1.355 . S
C1447 C1449 1.419 . S
C1448 C1446 1.415 . S
C1448 C1453 1.425 . S
C1448 C1455 1.409 . S
C1449 H1441 0.930 . S
C1449 C1447 1.419 . S
C1449 C1450 1.362 . S
C1450 H1442 0.930 . S
C1450 C1449 1.362 . S
C1450 C1453 1.409 . S
C1451 H1443 0.930 . S
C1451 C1452 1.355 . S
C1451 C1453 1.415 . S
C1452 C1451 1.355 . S
C1452 C1454 1.419 . S
C1453 C1448 1.425 . S
C1453 C1450 1.409 . S
C1453 C1451 1.415 . S
C1454 H1444 0.930 . S
C1454 C1452 1.419 . S
C1454 C1455 1.362 . S
C1455 H1445 0.930 . S
C1455 C1448 1.409 . S
C1455 C1454 1.362 . S
H1456 C1462 0.930 . S
H1457 C1465 0.930 . S
H1458 C1466 0.930 . S
H1459 C1467 0.930 . S
H1460 C1470 0.930 . S
H1461 C1471 0.930 . S
C1462 H1456 0.930 . S
C1462 C1463 1.355 . S
C1462 C1464 1.415 . S
C1463 C1462 1.355 . S
C1463 C1465 1.419 . S
C1464 C1462 1.415 . S
C1464 C1469 1.425 . S
C1464 C1471 1.409 . S
C1465 H1457 0.930 . S
C1465 C1463 1.419 . S
C1465 C1466 1.362 . S
C1466 H1458 0.930 . S
C1466 C1465 1.362 . S
C1466 C1469 1.409 . S
C1467 H1459 0.930 . S
C1467 C1468 1.355 . S
C1467 C1469 1.415 . S
C1468 C1467 1.355 . S
C1468 C1470 1.419 . S
C1469 C1464 1.425 . S
C1469 C1466 1.409 . S
C1469 C1467 1.415 . S
C1470 H1460 0.930 . S
C1470 C1468 1.419 . S
C1470 C1471 1.362 . S
C1471 H1461 0.930 . S
C1471 C1464 1.409 . S
C1471 C1470 1.362 . S
H1472 C1478 0.930 . S
H1473 C1481 0.930 . S
H1474 C1482 0.930 . S
H1475 C1483 0.930 . S
H1476 C1486 0.930 . S
H1477 C1487 0.930 . S
C1478 H1472 0.930 . S
C1478 C1479 1.355 . S
C1478 C1480 1.415 . S
C1479 C1478 1.355 . S
C1479 C1481 1.419 . S
C1480 C1478 1.415 . S
C1480 C1485 1.425 . S
C1480 C1487 1.409 . S
C1481 H1473 0.930 . S
C1481 C1479 1.419 . S
C1481 C1482 1.362 . S
C1482 H1474 0.930 . S
C1482 C1481 1.362 . S
C1482 C1485 1.409 . S
C1483 H1475 0.930 . S
C1483 C1484 1.355 . S
C1483 C1485 1.415 . S
C1484 C1483 1.355 . S
C1484 C1486 1.419 . S
C1485 C1480 1.425 . S
C1485 C1482 1.409 . S
C1485 C1483 1.415 . S
C1486 H1476 0.930 . S
C1486 C1484 1.419 . S
C1486 C1487 1.362 . S
C1487 H1477 0.930 . S
C1487 C1480 1.409 . S
C1487 C1486 1.362 . S
H1488 C1494 0.930 . S
H1489 C1497 0.930 . S
H1490 C1498 0.930 . S
H1491 C1499 0.930 . S
H1492 C1502 0.930 . S
H1493 C1503 0.930 . S
C1494 H1488 0.930 . S
C1494 C1495 1.355 . S
C1494 C1496 1.415 . S
C1495 C1494 1.355 . S
C1495 C1497 1.419 . S
C1496 C1494 1.415 . S
C1496 C1501 1.425 . S
C1496 C1503 1.409 . S
C1497 H1489 0.930 . S
C1497 C1495 1.419 . S
C1497 C1498 1.362 . S
C1498 H1490 0.930 . S
C1498 C1497 1.362 . S
C1498 C1501 1.409 . S
C1499 H1491 0.930 . S
C1499 C1500 1.355 . S
C1499 C1501 1.415 . S
C1500 C1499 1.355 . S
C1500 C1502 1.419 . S
C1501 C1496 1.425 . S
C1501 C1498 1.409 . S
C1501 C1499 1.415 . S
C1502 H1492 0.930 . S
C1502 C1500 1.419 . S
C1502 C1503 1.362 . S
C1503 H1493 0.930 . S
C1503 C1496 1.409 . S
C1503 C1502 1.362 . S
H1504 C1510 0.930 . S
H1505 C1513 0.930 . S
H1506 C1514 0.930 . S
H1507 C1515 0.930 . S
H1508 C1518 0.930 . S
H1509 C1519 0.930 . S
C1510 H1504 0.930 . S
C1510 C1511 1.355 . S
C1510 C1512 1.415 . S
C1511 C1510 1.355 . S
C1511 C1513 1.419 . S
C1512 C1510 1.415 . S
C1512 C1517 1.425 . S
C1512 C1519 1.409 . S
C1513 H1505 0.930 . S
C1513 C1511 1.419 . S
C1513 C1514 1.362 . S
C1514 H1506 0.930 . S
C1514 C1513 1.362 . S
C1514 C1517 1.409 . S
C1515 H1507 0.930 . S
C1515 C1516 1.355 . S
C1515 C1517 1.415 . S
C1516 C1515 1.355 . S
C1516 C1518 1.419 . S
C1517 C1512 1.425 . S
C1517 C1514 1.409 . S
C1517 C1515 1.415 . S
C1518 H1508 0.930 . S
C1518 C1516 1.419 . S
C1518 C1519 1.362 . S
C1519 H1509 0.930 . S
C1519 C1512 1.409 . S
C1519 C1518 1.362 . S
H1520 C1526 0.930 . S
H1521 C1529 0.930 . S
H1522 C1530 0.930 . S
H1523 C1531 0.930 . S
H1524 C1534 0.930 . S
H1525 C1535 0.930 . S
C1526 H1520 0.930 . S
C1526 C1527 1.355 . S
C1526 C1528 1.415 . S
C1527 C1526 1.355 . S
C1527 C1529 1.419 . S
C1528 C1526 1.415 . S
C1528 C1533 1.425 . S
C1528 C1535 1.409 . S
C1529 H1521 0.930 . S
C1529 C1527 1.419 . S
C1529 C1530 1.362 . S
C1530 H1522 0.930 . S
C1530 C1529 1.362 . S
C1530 C1533 1.409 . S
C1531 H1523 0.930 . S
C1531 C1532 1.355 . S
C1531 C1533 1.415 . S
C1532 C1531 1.355 . S
C1532 C1534 1.419 . S
C1533 C1528 1.425 . S
C1533 C1530 1.409 . S
C1533 C1531 1.415 . S
C1534 H1524 0.930 . S
C1534 C1532 1.419 . S
C1534 C1535 1.362 . S
C1535 H1525 0.930 . S
C1535 C1528 1.409 . S
C1535 C1534 1.362 . S
H1536 C1542 0.930 . S
H1537 C1545 0.930 . S
H1538 C1546 0.930 . S
H1539 C1547 0.930 . S
H1540 C1550 0.930 . S
H1541 C1551 0.930 . S
C1542 H1536 0.930 . S
C1542 C1543 1.355 . S
C1542 C1544 1.415 . S
C1543 C1542 1.355 . S
C1543 C1545 1.419 . S
C1544 C1542 1.415 . S
C1544 C1549 1.425 . S
C1544 C1551 1.409 . S
C1545 H1537 0.930 . S
C1545 C1543 1.419 . S
C1545 C1546 1.362 . S
C1546 H1538 0.930 . S
C1546 C1545 1.362 . S
C1546 C1549 1.409 . S
C1547 H1539 0.930 . S
C1547 C1548 1.355 . S
C1547 C1549 1.415 . S
C1548 C1547 1.355 . S
C1548 C1550 1.419 . S
C1549 C1544 1.425 . S
C1549 C1546 1.409 . S
C1549 C1547 1.415 . S
C1550 H1540 0.930 . S
C1550 C1548 1.419 . S
C1550 C1551 1.362 . S
C1551 H1541 0.930 . S
C1551 C1544 1.409 . S
C1551 C1550 1.362 . S
H1552 C1558 0.930 . S
H1553 C1561 0.930 . S
H1554 C1562 0.930 . S
H1555 C1563 0.930 . S
H1556 C1566 0.930 . S
H1557 C1567 0.930 . S
C1558 H1552 0.930 . S
C1558 C1559 1.355 . S
C1558 C1560 1.415 . S
C1559 C1558 1.355 . S
C1559 C1561 1.419 . S
C1560 C1558 1.415 . S
C1560 C1565 1.425 . S
C1560 C1567 1.409 . S
C1561 H1553 0.930 . S
C1561 C1559 1.419 . S
C1561 C1562 1.362 . S
C1562 H1554 0.930 . S
C1562 C1561 1.362 . S
C1562 C1565 1.409 . S
C1563 H1555 0.930 . S
C1563 C1564 1.355 . S
C1563 C1565 1.415 . S
C1564 C1563 1.355 . S
C1564 C1566 1.419 . S
C1565 C1560 1.425 . S
C1565 C1562 1.409 . S
C1565 C1563 1.415 . S
C1566 H1556 0.930 . S
C1566 C1564 1.419 . S
C1566 C1567 1.362 . S
C1567 H1557 0.930 . S
C1567 C1560 1.409 . S
C1567 C1566 1.362 . S
H1568 C1574 0.930 . S
H1569 C1577 0.930 . S
H1570 C1578 0.930 . S
H1571 C1579 0.930 . S
H1572 C1582 0.930 . S
H1573 C1583 0.930 . S
C1574 H1568 0.930 . S
C1574 C1575 1.355 . S
C1574 C1576 1.415 . S
C1575 C1574 1.355 . S
C1575 C1577 1.419 . S
C1576 C1574 1.415 . S
C1576 C1581 1.425 . S
C1576 C1583 1.409 . S
C1577 H1569 0.930 . S
C1577 C1575 1.419 . S
C1577 C1578 1.362 . S
C1578 H1570 0.930 . S
C1578 C1577 1.362 . S
C1578 C1581 1.409 . S
C1579 H1571 0.930 . S
C1579 C1580 1.355 . S
C1579 C1581 1.415 . S
C1580 C1579 1.355 . S
C1580 C1582 1.419 . S
C1581 C1576 1.425 . S
C1581 C1578 1.409 . S
C1581 C1579 1.415 . S
C1582 H1572 0.930 . S
C1582 C1580 1.419 . S
C1582 C1583 1.362 . S
C1583 H1573 0.930 . S
C1583 C1576 1.409 . S
C1583 C1582 1.362 . S
H1584 C1590 0.930 . S
H1585 C1593 0.930 . S
H1586 C1594 0.930 . S
H1587 C1595 0.930 . S
H1588 C1598 0.930 . S
H1589 C1599 0.930 . S
C1590 H1584 0.930 . S
C1590 C1591 1.355 . S
C1590 C1592 1.415 . S
C1591 C1590 1.355 . S
C1591 C1593 1.419 . S
C1592 C1590 1.415 . S
C1592 C1597 1.425 . S
C1592 C1599 1.409 . S
C1593 H1585 0.930 . S
C1593 C1591 1.419 . S
C1593 C1594 1.362 . S
C1594 H1586 0.930 . S
C1594 C1593 1.362 . S
C1594 C1597 1.409 . S
C1595 H1587 0.930 . S
C1595 C1596 1.355 . S
C1595 C1597 1.415 . S
C1596 C1595 1.355 . S
C1596 C1598 1.419 . S
C1597 C1592 1.425 . S
C1597 C1594 1.409 . S
C1597 C1595 1.415 . S
C1598 H1588 0.930 . S
C1598 C1596 1.419 . S
C1598 C1599 1.362 . S
C1599 H1589 0.930 . S
C1599 C1592 1.409 . S
C1599 C1598 1.362 . S
H1600 C1606 0.930 . S
H1601 C1609 0.930 . S
H1602 C1610 0.930 . S
H1603 C1611 0.930 . S
H1604 C1614 0.930 . S
H1605 C1615 0.930 . S
C1606 H1600 0.930 . S
C1606 C1607 1.355 . S
C1606 C1608 1.415 . S
C1607 C1606 1.355 . S
C1607 C1609 1.419 . S
C1608 C1606 1.415 . S
C1608 C1613 1.425 . S
C1608 C1615 1.409 . S
C1609 H1601 0.930 . S
C1609 C1607 1.419 . S
C1609 C1610 1.362 . S
C1610 H1602 0.930 . S
C1610 C1609 1.362 . S
C1610 C1613 1.409 . S
C1611 H1603 0.930 . S
C1611 C1612 1.355 . S
C1611 C1613 1.415 . S
C1612 C1611 1.355 . S
C1612 C1614 1.419 . S
C1613 C1608 1.425 . S
C1613 C1610 1.409 . S
C1613 C1611 1.415 . S
C1614 H1604 0.930 . S
C1614 C1612 1.419 . S
C1614 C1615 1.362 . S
C1615 H1605 0.930 . S
C1615 C1608 1.409 . S
C1615 C1614 1.362 . S
H1616 C1622 0.930 . S
H1617 C1625 0.930 . S
H1618 C1626 0.930 . S
H1619 C1627 0.930 . S
H1620 C1630 0.930 . S
H1621 C1631 0.930 . S
C1622 H1616 0.930 . S
C1622 C1623 1.355 . S
C1622 C1624 1.415 . S
C1623 C1622 1.355 . S
C1623 C1625 1.419 . S
C1624 C1622 1.415 . S
C1624 C1629 1.425 . S
C1624 C1631 1.409 . S
C1625 H1617 0.930 . S
C1625 C1623 1.419 . S
C1625 C1626 1.362 . S
C1626 H1618 0.930 . S
C1626 C1625 1.362 . S
C1626 C1629 1.409 . S
C1627 H1619 0.930 . S
C1627 C1628 1.355 . S
C1627 C1629 1.415 . S
C1628 C1627 1.355 . S
C1628 C1630 1.419 . S
C1629 C1624 1.425 . S
C1629 C1626 1.409 . S
C1629 C1627 1.415 . S
C1630 H1620 0.930 . S
C1630 C1628 1.419 . S
C1630 C1631 1.362 . S
C1631 H1621 0.930 . S
C1631 C1624 1.409 . S
C1631 C1630 1.362 . S
C871 C544 1.277 . S
C876 C4 1.242 . S
C887 C446 1.370 . S
C892 C50 1.415 . S
C903 C472 1.365 . S
C908 C86 1.355 . S
C919 C518 1.246 . S
C924 C112 1.312 . S
C935 C508 1.272 . S
C940 C40 1.293 . S
C951 C76 1.223 . S
C956 C554 1.189 . S
C967 C436 1.374 . S
C972 C122 1.373 . S
C983 C482 1.310 . S
C988 C14 1.230 . S
C999 C662 1.455 . S
C1004 C158 1.406 . S
C1015 C184 1.180 . S
C1020 C688 1.172 . S
C1031 C230 1.457 . S
C1036 C590 1.425 . S
C1047 C616 1.161 . S
C1052 C256 1.207 . S
C1063 C796 1.113 . S
C1068 C292 1.145 . S
C1079 C338 1.372 . S
C1084 C832 1.440 . S
C1095 C364 1.184 . S
C1100 C724 1.129 . S
C1111 C410 1.471 . S
C1116 C760 1.488 . S
C1127 C626 1.289 . S
C1132 C400 1.274 . S
C1143 C842 1.374 . S
C1148 C194 1.371 . S
C1159 C220 1.334 . S
C1164 C734 1.287 . S
C1175 C770 1.320 . S
C1180 C266 1.259 . S
C1191 C806 1.198 . S
C1196 C148 1.209 . S
C1207 C328 1.251 . S
C1212 C698 1.214 . S
C1223 C580 1.317 . S
C1228 C374 1.317 . S
C1239 C652 1.265 . S
C1244 C302 1.273 . S
C1255 C3 0.988 . S
C1260 C147 0.943 . S
C1271 C182 0.958 . S
C1276 C38 1.027 . S
C1287 C74 1.049 . S
C1292 C219 1.018 . S
C1303 C111 0.922 . S
C1308 C254 0.895 . S
C1319 C290 0.976 . S
C1324 C39 1.012 . S
C1335 C327 0.813 . S
C1340 C75 0.834 . S
C1351 C362 1.054 . S
C1356 C110 1.057 . S
C1367 C2 0.852 . S
C1372 C399 0.930 . S
C1383 C398 1.105 . S
C1388 C146 1.148 . S
C1399 C183 0.854 . S
C1404 C291 0.796 . S
C1415 C218 1.128 . S
C1420 C326 1.167 . S
C1431 C363 0.843 . S
C1436 C255 0.905 . S
C1447 C579 0.991 . S
C1452 C435 1.049 . S
C1463 C614 1.003 . S
C1468 C470 0.954 . S
C1479 C507 0.996 . S
C1484 C651 1.014 . S
C1495 C542 0.985 . S
C1500 C686 0.906 . S
C1511 C471 0.983 . S
C1516 C722 0.920 . S
C1527 C506 1.042 . S
C1532 C758 1.065 . S
C1543 C794 0.938 . S
C1548 C543 0.917 . S
C1559 C434 1.134 . S
C1564 C830 1.115 . S
C1575 C578 1.048 . S
C1580 C831 1.042 . S
C1591 C723 0.872 . S
C1596 C615 0.837 . S
C1607 C650 1.067 . S
C1612 C759 1.116 . S
C1623 C795 0.852 . S
C1628 C687 0.861 . S
