# Generated by pormake.
# Topology tzs, (4)-cn, num edge types: 1
# Building blocks:
#     Node 0, Type 0, BuildingBlock: ICAMEG_clean_sbu_1, # of connection points: 4
#     Node 1, Type 0, BuildingBlock: ICAMEG_clean_sbu_1, # of connection points: 4
#     Node 2, Type 0, BuildingBlock: ICAMEG_clean_sbu_1, # of connection points: 4
#     Node 3, Type 0, BuildingBlock: ICAMEG_clean_sbu_1, # of connection points: 4
#     Node 4, Type 0, BuildingBlock: ICAMEG_clean_sbu_1, # of connection points: 4
#     Node 5, Type 0, BuildingBlock: ICAMEG_clean_sbu_1, # of connection points: 4
#     Node 6, Type 0, BuildingBlock: ICAMEG_clean_sbu_1, # of connection points: 4
#     Node 7, Type 0, BuildingBlock: ICAMEG_clean_sbu_1, # of connection points: 4
#     Node 8, Type 0, BuildingBlock: ICAMEG_clean_sbu_1, # of connection points: 4
#     Node 9, Type 0, BuildingBlock: ICAMEG_clean_sbu_1, # of connection points: 4
#     Node 10, Type 0, BuildingBlock: ICAMEG_clean_sbu_1, # of connection points: 4
#     Node 11, Type 0, BuildingBlock: ICAMEG_clean_sbu_1, # of connection points: 4
#     Node 12, Type 0, BuildingBlock: ICAMEG_clean_sbu_1, # of connection points: 4
#     Node 13, Type 0, BuildingBlock: ICAMEG_clean_sbu_1, # of connection points: 4
#     Node 14, Type 0, BuildingBlock: ICAMEG_clean_sbu_1, # of connection points: 4
#     Node 15, Type 0, BuildingBlock: ICAMEG_clean_sbu_1, # of connection points: 4
#     Edge 16, Type (0, 0), BuildingBlock: XIVTED_clean_linker_0, # of connection points: 2
#     Edge 17, Type (0, 0), BuildingBlock: XIVTED_clean_linker_0, # of connection points: 2
#     Edge 18, Type (0, 0), BuildingBlock: XIVTED_clean_linker_0, # of connection points: 2
#     Edge 19, Type (0, 0), BuildingBlock: XIVTED_clean_linker_0, # of connection points: 2
#     Edge 20, Type (0, 0), BuildingBlock: XIVTED_clean_linker_0, # of connection points: 2
#     Edge 21, Type (0, 0), BuildingBlock: XIVTED_clean_linker_0, # of connection points: 2
#     Edge 22, Type (0, 0), BuildingBlock: XIVTED_clean_linker_0, # of connection points: 2
#     Edge 23, Type (0, 0), BuildingBlock: XIVTED_clean_linker_0, # of connection points: 2
#     Edge 24, Type (0, 0), BuildingBlock: XIVTED_clean_linker_0, # of connection points: 2
#     Edge 25, Type (0, 0), BuildingBlock: XIVTED_clean_linker_0, # of connection points: 2
#     Edge 26, Type (0, 0), BuildingBlock: XIVTED_clean_linker_0, # of connection points: 2
#     Edge 27, Type (0, 0), BuildingBlock: XIVTED_clean_linker_0, # of connection points: 2
#     Edge 28, Type (0, 0), BuildingBlock: XIVTED_clean_linker_0, # of connection points: 2
#     Edge 29, Type (0, 0), BuildingBlock: XIVTED_clean_linker_0, # of connection points: 2
#     Edge 30, Type (0, 0), BuildingBlock: XIVTED_clean_linker_0, # of connection points: 2
#     Edge 31, Type (0, 0), BuildingBlock: XIVTED_clean_linker_0, # of connection points: 2
#     Edge 32, Type (0, 0), BuildingBlock: XIVTED_clean_linker_0, # of connection points: 2
#     Edge 33, Type (0, 0), BuildingBlock: XIVTED_clean_linker_0, # of connection points: 2
#     Edge 34, Type (0, 0), BuildingBlock: XIVTED_clean_linker_0, # of connection points: 2
#     Edge 35, Type (0, 0), BuildingBlock: XIVTED_clean_linker_0, # of connection points: 2
#     Edge 36, Type (0, 0), BuildingBlock: XIVTED_clean_linker_0, # of connection points: 2
#     Edge 37, Type (0, 0), BuildingBlock: XIVTED_clean_linker_0, # of connection points: 2
#     Edge 38, Type (0, 0), BuildingBlock: XIVTED_clean_linker_0, # of connection points: 2
#     Edge 39, Type (0, 0), BuildingBlock: XIVTED_clean_linker_0, # of connection points: 2
#     Edge 40, Type (0, 0), BuildingBlock: XIVTED_clean_linker_0, # of connection points: 2
#     Edge 41, Type (0, 0), BuildingBlock: XIVTED_clean_linker_0, # of connection points: 2
#     Edge 42, Type (0, 0), BuildingBlock: XIVTED_clean_linker_0, # of connection points: 2
#     Edge 43, Type (0, 0), BuildingBlock: XIVTED_clean_linker_0, # of connection points: 2
#     Edge 44, Type (0, 0), BuildingBlock: XIVTED_clean_linker_0, # of connection points: 2
#     Edge 45, Type (0, 0), BuildingBlock: XIVTED_clean_linker_0, # of connection points: 2
#     Edge 46, Type (0, 0), BuildingBlock: XIVTED_clean_linker_0, # of connection points: 2
#     Edge 47, Type (0, 0), BuildingBlock: XIVTED_clean_linker_0, # of connection points: 2
# Relax obj value: 0.144
# Max RMSD: 0.172
# Mean RMSD: 0.172
data_MOF--net-tzs--node1-ICAMEG_clean_sbu_1--edge1-XIVTED_clean_linker_0
_symmetry_space_group_name_H-M    P1
_symmetry_Int_Tables_number       1
_symmetry_cell_setting            triclinic
loop_
_symmetry_equiv_pos_as_xyz
'x, y, z'
_cell_length_a     50.061275
_cell_length_b     50.064094
_cell_length_c     44.64422
_cell_angle_alpha  89.959741
_cell_angle_beta   89.974694
_cell_angle_gamma 89.996636
loop_
_atom_site_label
_atom_site_type_symbol
_atom_site_fract_x
_atom_site_fract_y
_atom_site_fract_z
_atom_type_partial_charge
Co0 Co 0.13987 0.37948 0.17107 0.0
Co1 Co 0.15405 0.33738 0.2297 0.0
O2 O 0.15801 0.34758 0.18722 0.0
C3 C 0.14164 0.34074 0.11826 0.0
O4 O 0.15362 0.32197 0.13379 0.0
C5 C 0.21361 0.33276 0.22385 0.0
O6 O 0.21497 0.35545 0.20919 0.0
O7 O 0.16763 0.373 0.24236 0.0
O8 O 0.14556 0.39891 0.20954 0.0
H9 H 0.12672 0.35206 0.3368 0.0
H10 H 0.18891 0.35569 0.1427 0.0
O11 O 0.13383 0.36222 0.13087 0.0
H12 H 0.20912 0.45118 0.15571 0.0
H13 H 0.11616 0.4481 0.09266 0.0
H14 H 0.09992 0.41716 0.19596 0.0
H15 H 0.16589 0.43297 0.17213 0.0
H16 H 0.14013 0.40896 0.11262 0.0
O17 O 0.19118 0.32277 0.23115 0.0
H18 H 0.1314 0.36386 0.28343 0.0
H19 H 0.16912 0.2895 0.26598 0.0
H20 H 0.07578 0.45659 0.17697 0.0
H21 H 0.23211 0.3731 0.1257 0.0
H22 H 0.08382 0.4723 0.12496 0.0
H23 H 0.24259 0.42123 0.1321 0.0
O24 O 0.10448 0.36577 0.18564 0.0
H25 H 0.15621 0.25286 0.16931 0.0
H26 H 0.10672 0.30382 0.24581 0.0
H27 H 0.0894 0.26022 0.22907 0.0
H28 H 0.11423 0.23439 0.1906 0.0
H29 H 0.1727 0.29669 0.18654 0.0
H30 H 0.165 0.27695 0.31918 0.0
H31 H 0.1436 0.30831 0.355 0.0
O32 O 0.11669 0.35122 0.23094 0.0
C33 C 0.1598 0.39569 0.2329 0.0
C34 C 0.13605 0.33821 0.32141 0.0
C35 C 0.15754 0.29606 0.31153 0.0
N36 N 0.15041 0.32739 0.27155 0.0
C37 C 0.13874 0.34478 0.29115 0.0
C38 C 0.15985 0.30331 0.28142 0.0
C39 C 0.14553 0.31366 0.33161 0.0
C40 C 0.19279 0.3767 0.14498 0.0
N41 N 0.17422 0.39334 0.15745 0.0
C42 C 0.21755 0.38645 0.13556 0.0
C43 C 0.22345 0.41342 0.13924 0.0
C44 C 0.20468 0.43023 0.15244 0.0
C45 C 0.18015 0.41976 0.1616 0.0
C46 C 0.11249 0.44145 0.11536 0.0
C47 C 0.10365 0.42392 0.17335 0.0
C48 C 0.1259 0.4192 0.12676 0.0
N49 N 0.12149 0.41076 0.15549 0.0
C50 C 0.08986 0.44624 0.16269 0.0
C51 C 0.09436 0.45503 0.1335 0.0
C52 C 0.09886 0.3586 0.21239 0.0
C53 C 0.14521 0.26391 0.1861 0.0
C54 C 0.11755 0.29281 0.2289 0.0
C55 C 0.10769 0.26807 0.2196 0.0
C56 C 0.12165 0.25358 0.19803 0.0
N57 N 0.14068 0.30281 0.21709 0.0
C58 C 0.15448 0.28871 0.19596 0.0
Co59 Co 0.61788 0.13854 0.16663 0.0
Co60 Co 0.66629 0.15233 0.21824 0.0
O61 O 0.65189 0.15576 0.17743 0.0
C62 C 0.6508 0.13827 0.10913 0.0
O63 O 0.67213 0.1474 0.12277 0.0
C64 C 0.67292 0.21186 0.21293 0.0
O65 O 0.64729 0.21479 0.20758 0.0
O66 O 0.63295 0.16816 0.23487 0.0
O67 O 0.60347 0.14466 0.20774 0.0
H68 H 0.6613 0.12941 0.32773 0.0
H69 H 0.63933 0.18612 0.13371 0.0
O70 O 0.62991 0.13224 0.12406 0.0
H71 H 0.54755 0.21044 0.16263 0.0
H72 H 0.53913 0.11748 0.10027 0.0
H73 H 0.58279 0.09926 0.19714 0.0
H74 H 0.566 0.16651 0.17626 0.0
H75 H 0.58105 0.14028 0.11383 0.0
O76 O 0.68304 0.18862 0.21554 0.0
H77 H 0.64429 0.13316 0.27609 0.0
H78 H 0.71853 0.16511 0.24723 0.0
H79 H 0.54071 0.07629 0.18462 0.0
H80 H 0.62159 0.23005 0.11943 0.0
H81 H 0.5186 0.08531 0.13586 0.0
H82 H 0.57534 0.24255 0.13385 0.0
O83 O 0.6324 0.10297 0.17949 0.0
H84 H 0.74414 0.14792 0.14742 0.0
H85 H 0.69866 0.10359 0.2319 0.0
H86 H 0.73925 0.0833 0.21047 0.0
H87 H 0.76233 0.10553 0.16796 0.0
H88 H 0.70331 0.16739 0.16937 0.0
H89 H 0.73627 0.16199 0.29861 0.0
H90 H 0.70761 0.14392 0.33929 0.0
O91 O 0.65069 0.11575 0.22287 0.0
C92 C 0.60933 0.16009 0.2294 0.0
C93 C 0.67399 0.13732 0.31021 0.0
C94 C 0.71605 0.15563 0.29387 0.0
N95 N 0.68037 0.14936 0.25863 0.0
C96 C 0.66447 0.13947 0.28091 0.0
C97 C 0.70585 0.15746 0.26483 0.0
C98 C 0.69997 0.14547 0.31668 0.0
C99 C 0.61906 0.191 0.13963 0.0
N100 N 0.60354 0.17323 0.15505 0.0
C101 C 0.60917 0.21611 0.13167 0.0
C102 C 0.58325 0.22315 0.13982 0.0
C103 C 0.56764 0.20513 0.15593 0.0
C104 C 0.57821 0.18022 0.16351 0.0
C105 C 0.54861 0.11333 0.12156 0.0
C106 C 0.5733 0.10335 0.17589 0.0
C107 C 0.57246 0.12605 0.12928 0.0
N108 N 0.58448 0.12104 0.15621 0.0
C109 C 0.54947 0.09025 0.16892 0.0
C110 C 0.53708 0.09531 0.14155 0.0
C111 C 0.64145 0.09769 0.20563 0.0
C112 C 0.73426 0.13804 0.16593 0.0
C113 C 0.70842 0.11327 0.21323 0.0
C114 C 0.73149 0.10175 0.20128 0.0
C115 C 0.74444 0.11424 0.17745 0.0
N116 N 0.69855 0.13661 0.20179 0.0
C117 C 0.71117 0.14899 0.17847 0.0
Co118 Co 0.85867 0.62458 0.17216 0.0
Co119 Co 0.84322 0.66579 0.23063 0.0
O120 O 0.83946 0.65593 0.18809 0.0
C121 C 0.85442 0.66259 0.11872 0.0
O122 O 0.84208 0.68117 0.13418 0.0
C123 C 0.78358 0.67036 0.22471 0.0
O124 O 0.78214 0.64785 0.20973 0.0
O125 O 0.8298 0.62991 0.24262 0.0
O126 O 0.85459 0.60537 0.2111 0.0
H127 H 0.87031 0.64984 0.33755 0.0
H128 H 0.80836 0.64574 0.14402 0.0
O129 O 0.86324 0.6416 0.13156 0.0
H130 H 0.79218 0.54984 0.16029 0.0
H131 H 0.88381 0.556 0.09438 0.0
H132 H 0.90076 0.589 0.19666 0.0
H133 H 0.83489 0.57012 0.17523 0.0
H134 H 0.85848 0.59425 0.11436 0.0
O135 O 0.80602 0.68017 0.23219 0.0
H136 H 0.86579 0.63869 0.28401 0.0
H137 H 0.82775 0.71311 0.26761 0.0
H138 H 0.92631 0.55049 0.17765 0.0
H139 H 0.76564 0.62622 0.1284 0.0
H140 H 0.91794 0.53376 0.12614 0.0
H141 H 0.7572 0.57788 0.13647 0.0
O142 O 0.89357 0.63999 0.18592 0.0
H143 H 0.84075 0.75075 0.17092 0.0
H144 H 0.89 0.69979 0.24763 0.0
H145 H 0.907 0.7437 0.23145 0.0
H146 H 0.88228 0.76954 0.19287 0.0
H147 H 0.82458 0.70661 0.18762 0.0
H148 H 0.83168 0.72497 0.321 0.0
H149 H 0.85318 0.69326 0.35637 0.0
O150 O 0.88076 0.65232 0.23178 0.0
C151 C 0.83913 0.60766 0.23358 0.0
C152 C 0.86095 0.66385 0.32235 0.0
C153 C 0.83926 0.70601 0.31307 0.0
N154 N 0.84666 0.67526 0.27263 0.0
C155 C 0.85836 0.65766 0.29199 0.0
C156 C 0.83706 0.69915 0.28285 0.0
C157 C 0.85133 0.68821 0.3329 0.0
C158 C 0.80535 0.62464 0.14699 0.0
N159 N 0.82475 0.60905 0.15957 0.0
C160 C 0.78087 0.6137 0.13836 0.0
C161 C 0.77611 0.5866 0.14297 0.0
C162 C 0.79572 0.57087 0.15629 0.0
C163 C 0.81995 0.5825 0.16462 0.0
C164 C 0.88766 0.56312 0.11685 0.0
C165 C 0.8969 0.5818 0.17426 0.0
C166 C 0.87347 0.58488 0.12825 0.0
N167 N 0.87812 0.59392 0.15668 0.0
C168 C 0.91148 0.56 0.1636 0.0
C169 C 0.90679 0.55064 0.13469 0.0
C170 C 0.89894 0.64645 0.21294 0.0
C171 C 0.85169 0.73969 0.18775 0.0
C172 C 0.87923 0.7108 0.23068 0.0
C173 C 0.8889 0.73572 0.22169 0.0
C174 C 0.87501 0.75021 0.20006 0.0
N175 N 0.85634 0.70063 0.21851 0.0
C176 C 0.84261 0.71472 0.19731 0.0
Co177 Co 0.37882 0.86683 0.17282 0.0
Co178 Co 0.33235 0.85311 0.22683 0.0
O179 O 0.34518 0.8498 0.18531 0.0
C180 C 0.344 0.86746 0.11682 0.0
O181 O 0.32373 0.85621 0.13057 0.0
C182 C 0.32507 0.7937 0.22089 0.0
O183 O 0.35039 0.79073 0.21394 0.0
O184 O 0.36616 0.83697 0.24177 0.0
O185 O 0.39494 0.85984 0.21292 0.0
H186 H 0.34142 0.87531 0.33613 0.0
H187 H 0.35549 0.81917 0.14133 0.0
O188 O 0.36491 0.87413 0.13129 0.0
H189 H 0.44885 0.79513 0.16299 0.0
H190 H 0.45397 0.88924 0.10181 0.0
H191 H 0.41595 0.90482 0.2022 0.0
H192 H 0.43108 0.83881 0.17842 0.0
H193 H 0.41258 0.86649 0.1174 0.0
O194 O 0.31526 0.81695 0.22465 0.0
H195 H 0.35651 0.87184 0.28371 0.0
H196 H 0.28115 0.84036 0.25815 0.0
H197 H 0.45756 0.92771 0.18763 0.0
H198 H 0.37251 0.77551 0.12532 0.0
H199 H 0.47684 0.92 0.1371 0.0
H200 H 0.41957 0.76313 0.13606 0.0
O201 O 0.36524 0.9023 0.18691 0.0
H202 H 0.25218 0.85867 0.15951 0.0
H203 H 0.30077 0.9019 0.2424 0.0
H204 H 0.25961 0.92263 0.22297 0.0
H205 H 0.23497 0.90095 0.18127 0.0
H206 H 0.2936 0.83873 0.17947 0.0
H207 H 0.26531 0.84321 0.31034 0.0
H208 H 0.29551 0.86089 0.34975 0.0
O209 O 0.34835 0.88957 0.23102 0.0
C210 C 0.38967 0.84456 0.23495 0.0
C211 C 0.32807 0.86757 0.31917 0.0
C212 C 0.28537 0.84953 0.3047 0.0
N213 N 0.31976 0.85589 0.26786 0.0
C214 C 0.3365 0.86558 0.28943 0.0
C215 C 0.29449 0.84785 0.27519 0.0
C216 C 0.30232 0.85947 0.3268 0.0
C217 C 0.37609 0.81443 0.14556 0.0
N218 N 0.39242 0.8322 0.15985 0.0
C219 C 0.38559 0.78943 0.13667 0.0
C220 C 0.41197 0.78246 0.14276 0.0
C221 C 0.4284 0.80041 0.15782 0.0
C222 C 0.4182 0.82522 0.16639 0.0
C223 C 0.44576 0.89277 0.12389 0.0
C224 C 0.42425 0.90124 0.18022 0.0
C225 C 0.42224 0.88004 0.13281 0.0
N226 N 0.41183 0.88425 0.16074 0.0
C227 C 0.44781 0.91432 0.17207 0.0
C228 C 0.4586 0.91 0.14371 0.0
C229 C 0.35714 0.90758 0.2134 0.0
C230 C 0.26274 0.86831 0.17769 0.0
C231 C 0.29031 0.89245 0.22408 0.0
C232 C 0.26693 0.90423 0.21327 0.0
C233 C 0.2531 0.89204 0.18989 0.0
N234 N 0.29963 0.86915 0.21199 0.0
C235 C 0.28617 0.85709 0.1891 0.0
Co236 Co 0.11681 0.60959 0.34823 0.0
Co237 Co 0.14305 0.641 0.2879 0.0
O238 O 0.14146 0.63613 0.33148 0.0
C239 C 0.12504 0.65028 0.39789 0.0
O240 O 0.14106 0.66501 0.38148 0.0
C241 C 0.20127 0.64454 0.27581 0.0
O242 O 0.19861 0.62404 0.25769 0.0
O243 O 0.15381 0.60271 0.28416 0.0
O244 O 0.12038 0.58667 0.31179 0.0
H245 H 0.1272 0.61336 0.18122 0.0
H246 H 0.16906 0.62483 0.37703 0.0
O247 O 0.11243 0.63067 0.38637 0.0
H248 H 0.16811 0.52656 0.37608 0.0
H249 H 0.07466 0.55362 0.42949 0.0
H250 H 0.07139 0.57895 0.32282 0.0
H251 H 0.13045 0.55189 0.35518 0.0
H252 H 0.10744 0.58529 0.40867 0.0
O253 O 0.1815 0.65207 0.2918 0.0
H254 H 0.12484 0.60888 0.23619 0.0
H255 H 0.16588 0.68253 0.24674 0.0
H256 H 0.03845 0.54694 0.34267 0.0
H257 H 0.20675 0.60032 0.39866 0.0
H258 H 0.03993 0.53407 0.39639 0.0
H259 H 0.20659 0.55073 0.39834 0.0
O260 O 0.08658 0.62918 0.32901 0.0
H261 H 0.14732 0.7321 0.33475 0.0
H262 H 0.10251 0.67656 0.2587 0.0
H263 H 0.08855 0.72337 0.26544 0.0
H264 H 0.11109 0.75154 0.30361 0.0
H265 H 0.16047 0.68508 0.32749 0.0
H266 H 0.16875 0.68776 0.19193 0.0
H267 H 0.14931 0.65302 0.15876 0.0
O268 O 0.10424 0.63109 0.283 0.0
C269 C 0.14 0.58319 0.29404 0.0
C270 C 0.13575 0.62863 0.19544 0.0
C271 C 0.15906 0.67039 0.20144 0.0
N272 N 0.1452 0.64538 0.24468 0.0
C273 C 0.13448 0.6262 0.22658 0.0
C274 C 0.15738 0.6673 0.23247 0.0
C275 C 0.14815 0.65089 0.18285 0.0
C276 C 0.1682 0.6034 0.37743 0.0
N277 N 0.14673 0.59004 0.36585 0.0
C278 C 0.18991 0.58953 0.38946 0.0
C279 C 0.18986 0.56172 0.38919 0.0
C280 C 0.16828 0.54817 0.37676 0.0
C281 C 0.1469 0.5627 0.36502 0.0
C282 C 0.07379 0.55907 0.40605 0.0
C283 C 0.07227 0.57341 0.34619 0.0
C284 C 0.09222 0.57714 0.39414 0.0
N285 N 0.0914 0.584 0.36449 0.0
C286 C 0.05351 0.55529 0.35732 0.0
C287 C 0.05433 0.5481 0.38746 0.0
C288 C 0.08414 0.63206 0.30066 0.0
C289 C 0.13737 0.72005 0.31802 0.0
C290 C 0.1123 0.68859 0.27553 0.0
C291 C 0.10436 0.71514 0.27916 0.0
C292 C 0.11703 0.73093 0.30056 0.0
N293 N 0.13234 0.67806 0.29268 0.0
C294 C 0.14477 0.69342 0.31377 0.0
Co295 Co 0.39244 0.12825 0.34612 0.0
Co296 Co 0.36624 0.15192 0.28124 0.0
O297 O 0.36735 0.15246 0.32545 0.0
C298 C 0.34826 0.13843 0.39188 0.0
O299 O 0.33456 0.15381 0.37367 0.0
C300 C 0.35326 0.20944 0.29795 0.0
O301 O 0.35841 0.20536 0.32638 0.0
O302 O 0.40467 0.16217 0.28082 0.0
O303 O 0.41808 0.12989 0.31169 0.0
H304 H 0.40254 0.12822 0.17974 0.0
H305 H 0.37579 0.18064 0.3736 0.0
O306 O 0.3687 0.12569 0.38249 0.0
H307 H 0.47401 0.18055 0.37673 0.0
H308 H 0.44266 0.09015 0.43427 0.0
H309 H 0.42394 0.08121 0.32633 0.0
H310 H 0.44969 0.14229 0.3557 0.0
H311 H 0.4128 0.12202 0.4088 0.0
O312 O 0.35616 0.19075 0.27892 0.0
H313 H 0.40184 0.12885 0.23497 0.0
H314 H 0.33048 0.17478 0.23401 0.0
H315 H 0.45417 0.04912 0.35086 0.0
H316 H 0.39922 0.21898 0.39528 0.0
H317 H 0.4637 0.05344 0.40523 0.0
H318 H 0.44879 0.21927 0.39696 0.0
O319 O 0.37387 0.09722 0.3272 0.0
H320 H 0.27149 0.15778 0.31842 0.0
H321 H 0.33283 0.11137 0.24949 0.0
H322 H 0.28551 0.098 0.25136 0.0
H323 H 0.25442 0.12135 0.28591 0.0
H324 H 0.31898 0.1703 0.31608 0.0
H325 H 0.33057 0.17485 0.1788 0.0
H326 H 0.36672 0.15134 0.15128 0.0
O327 O 0.37564 0.11283 0.28038 0.0
C328 C 0.42316 0.14862 0.29321 0.0
C329 C 0.38664 0.13847 0.19147 0.0
C330 C 0.34627 0.16467 0.19094 0.0
N331 N 0.36605 0.15166 0.23774 0.0
C332 C 0.38611 0.13885 0.22275 0.0
C333 C 0.34637 0.16462 0.22223 0.0
C334 C 0.36655 0.15147 0.17552 0.0
C335 C 0.39719 0.18013 0.3746 0.0
N336 N 0.41109 0.15872 0.36378 0.0
C337 C 0.41046 0.20214 0.38677 0.0
C338 C 0.43825 0.20233 0.38765 0.0
C339 C 0.4524 0.18063 0.37632 0.0
C340 C 0.43843 0.15897 0.36438 0.0
C341 C 0.43864 0.08803 0.41057 0.0
C342 C 0.428 0.08331 0.34997 0.0
C343 C 0.42161 0.10593 0.39605 0.0
N344 N 0.41655 0.10351 0.36606 0.0
C345 C 0.44513 0.06504 0.36375 0.0
C346 C 0.45046 0.06746 0.39426 0.0
C347 C 0.37284 0.09358 0.29889 0.0
C348 C 0.2848 0.14756 0.30314 0.0
C349 C 0.31949 0.12165 0.26462 0.0
C350 C 0.29268 0.11399 0.26555 0.0
C351 C 0.27525 0.12709 0.28493 0.0
N352 N 0.32871 0.14191 0.28238 0.0
C353 C 0.31175 0.15467 0.30161 0.0
Co354 Co 0.88 0.39191 0.34773 0.0
Co355 Co 0.85496 0.36137 0.28634 0.0
O356 O 0.85537 0.36593 0.32996 0.0
C357 C 0.86998 0.35051 0.39644 0.0
O358 O 0.8552 0.33568 0.37878 0.0
C359 C 0.79702 0.35908 0.27223 0.0
O360 O 0.80054 0.37961 0.25432 0.0
O361 O 0.84511 0.39992 0.28239 0.0
O362 O 0.87813 0.41497 0.31125 0.0
H363 H 0.87465 0.38909 0.18044 0.0
H364 H 0.8273 0.37733 0.37564 0.0
O365 O 0.88261 0.37065 0.38604 0.0
H366 H 0.82863 0.47562 0.37258 0.0
H367 H 0.9198 0.44762 0.43055 0.0
H368 H 0.92703 0.42152 0.32439 0.0
H369 H 0.86665 0.44979 0.35319 0.0
H370 H 0.88731 0.41644 0.40831 0.0
O371 O 0.81621 0.35109 0.28881 0.0
H372 H 0.87541 0.39331 0.23547 0.0
H373 H 0.83248 0.32054 0.24418 0.0
H374 H 0.95972 0.453 0.34564 0.0
H375 H 0.78921 0.40237 0.39576 0.0
H376 H 0.95626 0.46626 0.3991 0.0
H377 H 0.78958 0.45194 0.39435 0.0
O378 O 0.91049 0.37188 0.32957 0.0
H379 H 0.84732 0.27006 0.33233 0.0
H380 H 0.89569 0.32516 0.25853 0.0
H381 H 0.90849 0.27804 0.2655 0.0
H382 H 0.88417 0.2501 0.30254 0.0
H383 H 0.83535 0.31737 0.32488 0.0
H384 H 0.83119 0.31558 0.18927 0.0
H385 H 0.8524 0.35001 0.15699 0.0
O386 O 0.89408 0.37048 0.28295 0.0
C387 C 0.85922 0.41902 0.29274 0.0
C388 C 0.86533 0.37396 0.19426 0.0
C389 C 0.84094 0.3327 0.19921 0.0
N390 N 0.85399 0.35724 0.24305 0.0
C391 C 0.86569 0.37626 0.22544 0.0
C392 C 0.84173 0.33564 0.2303 0.0
C393 C 0.85284 0.35203 0.18112 0.0
C394 C 0.82816 0.39879 0.37554 0.0
N395 N 0.84988 0.4119 0.36418 0.0
C396 C 0.80627 0.41293 0.38673 0.0
C397 C 0.80645 0.44074 0.38585 0.0
C398 C 0.82835 0.45402 0.37369 0.0
C399 C 0.8499 0.43922 0.3628 0.0
C400 C 0.92155 0.44196 0.40723 0.0
C401 C 0.92531 0.42718 0.34765 0.0
C402 C 0.90331 0.42416 0.39455 0.0
N403 N 0.90526 0.41704 0.36506 0.0
C404 C 0.94392 0.44502 0.35957 0.0
C405 C 0.94198 0.45243 0.38957 0.0
C406 C 0.91369 0.36926 0.30127 0.0
C407 C 0.85805 0.28201 0.31609 0.0
C408 C 0.88513 0.31323 0.27487 0.0
C409 C 0.8924 0.28651 0.27863 0.0
C410 C 0.87874 0.27084 0.29939 0.0
N411 N 0.86475 0.32405 0.29128 0.0
C412 C 0.85133 0.30881 0.31174 0.0
Co413 Co 0.60805 0.87958 0.34417 0.0
Co414 Co 0.63408 0.8544 0.27989 0.0
O415 O 0.63305 0.85482 0.32414 0.0
C416 C 0.65194 0.87004 0.3904 0.0
O417 O 0.66536 0.85378 0.37292 0.0
C418 C 0.64695 0.79711 0.29799 0.0
O419 O 0.64211 0.80168 0.32639 0.0
O420 O 0.59565 0.84419 0.27994 0.0
O421 O 0.58237 0.8772 0.30986 0.0
H422 H 0.59758 0.8759 0.17786 0.0
H423 H 0.62441 0.82741 0.37261 0.0
O424 O 0.63184 0.88294 0.38042 0.0
H425 H 0.52625 0.82857 0.37683 0.0
H426 H 0.55844 0.92017 0.43135 0.0
H427 H 0.57646 0.92608 0.32296 0.0
H428 H 0.55078 0.86625 0.35476 0.0
H429 H 0.58812 0.88759 0.4068 0.0
O430 O 0.64405 0.81552 0.2786 0.0
H431 H 0.59839 0.87645 0.23309 0.0
H432 H 0.66975 0.83052 0.23322 0.0
H433 H 0.5464 0.95886 0.34658 0.0
H434 H 0.60079 0.78965 0.39531 0.0
H435 H 0.53722 0.95606 0.40117 0.0
H436 H 0.55124 0.78989 0.39755 0.0
O437 O 0.62667 0.91013 0.32423 0.0
H438 H 0.72887 0.84909 0.3169 0.0
H439 H 0.66751 0.89421 0.2469 0.0
H440 H 0.71488 0.90746 0.24822 0.0
H441 H 0.74598 0.88476 0.2833 0.0
H442 H 0.68134 0.83667 0.31509 0.0
H443 H 0.66955 0.82926 0.17802 0.0
H444 H 0.63335 0.85217 0.14995 0.0
O445 O 0.62474 0.89347 0.27791 0.0
C446 C 0.57721 0.85799 0.29208 0.0
C447 C 0.61351 0.8659 0.18984 0.0
C448 C 0.65388 0.8397 0.18993 0.0
N449 N 0.63418 0.85372 0.2364 0.0
C450 C 0.6141 0.8662 0.22111 0.0
C451 C 0.65383 0.84043 0.2212 0.0
C452 C 0.63357 0.85257 0.17419 0.0
C453 C 0.60304 0.82818 0.37386 0.0
N454 N 0.58928 0.84959 0.36279 0.0
C455 C 0.58966 0.80649 0.38661 0.0
C456 C 0.56187 0.8066 0.38781 0.0
C457 C 0.54786 0.82827 0.37621 0.0
C458 C 0.56194 0.84961 0.36369 0.0
C459 C 0.5623 0.92162 0.40755 0.0
C460 C 0.57253 0.92463 0.3467 0.0
C461 C 0.57922 0.90331 0.39353 0.0
N462 N 0.58407 0.90488 0.36341 0.0
C463 C 0.5555 0.9433 0.35997 0.0
C464 C 0.55038 0.94173 0.3906 0.0
C465 C 0.62755 0.91314 0.29581 0.0
C466 C 0.71556 0.85902 0.30139 0.0
C467 C 0.68087 0.88421 0.26227 0.0
C468 C 0.7077 0.89181 0.26288 0.0
C469 C 0.72514 0.87906 0.28257 0.0
N470 N 0.67163 0.86435 0.28063 0.0
C471 C 0.68859 0.85196 0.30015 0.0
Co472 Co 0.88051 0.62894 0.84988 0.0
Co473 Co 0.85568 0.65449 0.78515 0.0
O474 O 0.85695 0.65479 0.82937 0.0
C475 C 0.83734 0.64176 0.89601 0.0
O476 O 0.82472 0.65836 0.87815 0.0
C477 C 0.84588 0.71271 0.80185 0.0
O478 O 0.84967 0.70831 0.8305 0.0
O479 O 0.89476 0.66206 0.78456 0.0
O480 O 0.906 0.62894 0.81538 0.0
H481 H 0.88992 0.62844 0.68347 0.0
H482 H 0.86736 0.68241 0.87717 0.0
O483 O 0.8568 0.62776 0.88634 0.0
H484 H 0.96536 0.67589 0.88016 0.0
H485 H 0.9284 0.58756 0.93782 0.0
H486 H 0.9091 0.58011 0.82986 0.0
H487 H 0.93855 0.63924 0.85933 0.0
H488 H 0.90048 0.62124 0.91253 0.0
O489 O 0.84839 0.6939 0.7829 0.0
H490 H 0.88939 0.62899 0.7387 0.0
H491 H 0.82155 0.67998 0.73808 0.0
H492 H 0.93736 0.54619 0.85422 0.0
H493 H 0.89327 0.7192 0.89863 0.0
H494 H 0.94718 0.54976 0.9086 0.0
H495 H 0.94276 0.71625 0.90025 0.0
O496 O 0.86009 0.59912 0.83094 0.0
H497 H 0.76165 0.66641 0.82297 0.0
H498 H 0.81942 0.61672 0.75307 0.0
H499 H 0.77131 0.60663 0.75495 0.0
H500 H 0.742 0.63166 0.78998 0.0
H501 H 0.80986 0.67561 0.82062 0.0
H502 H 0.82154 0.68019 0.68287 0.0
H503 H 0.85582 0.65417 0.65518 0.0
O504 O 0.8623 0.61489 0.78419 0.0
C505 C 0.9123 0.64722 0.79684 0.0
C506 C 0.87484 0.63979 0.69528 0.0
C507 C 0.83649 0.66887 0.69494 0.0
N508 N 0.85537 0.65434 0.74164 0.0
C509 C 0.8744 0.64014 0.72656 0.0
C510 C 0.83665 0.66873 0.72623 0.0
C511 C 0.85572 0.65426 0.67942 0.0
C512 C 0.88867 0.68048 0.87817 0.0
N513 N 0.90112 0.65815 0.86748 0.0
C514 C 0.90337 0.70162 0.89021 0.0
C515 C 0.93112 0.69999 0.89105 0.0
C516 C 0.94379 0.67737 0.87981 0.0
C517 C 0.92842 0.65662 0.86801 0.0
C518 C 0.92424 0.58576 0.91411 0.0
C519 C 0.9133 0.58189 0.85351 0.0
C520 C 0.90831 0.6047 0.89968 0.0
N521 N 0.90309 0.60269 0.86969 0.0
C522 C 0.92931 0.56258 0.86719 0.0
C523 C 0.93479 0.56458 0.8977 0.0
C524 C 0.85877 0.59569 0.80261 0.0
C525 C 0.77418 0.65548 0.80747 0.0
C526 C 0.80687 0.62772 0.76842 0.0
C527 C 0.7796 0.62192 0.76935 0.0
C528 C 0.76317 0.63596 0.78899 0.0
N529 N 0.81753 0.64709 0.7864 0.0
C530 C 0.80154 0.66074 0.80591 0.0
Co531 Co 0.37573 0.8898 0.84216 0.0
Co532 Co 0.3545 0.84981 0.78511 0.0
O533 O 0.35386 0.85998 0.82754 0.0
C534 C 0.37112 0.85123 0.89456 0.0
O535 O 0.35853 0.83343 0.87827 0.0
C536 C 0.29715 0.84461 0.77055 0.0
O537 O 0.30107 0.86295 0.74995 0.0
O538 O 0.34293 0.88653 0.77434 0.0
O539 O 0.37136 0.90931 0.80345 0.0
H540 H 0.37514 0.86394 0.67607 0.0
H541 H 0.32559 0.87215 0.87339 0.0
O542 O 0.38063 0.87231 0.88252 0.0
H543 H 0.31517 0.96895 0.85766 0.0
H544 H 0.4091 0.95621 0.91834 0.0
H545 H 0.41913 0.92234 0.81526 0.0
H546 H 0.35566 0.94581 0.84026 0.0
H547 H 0.38034 0.91983 0.89989 0.0
O548 O 0.31614 0.83821 0.78828 0.0
H549 H 0.37458 0.87557 0.72974 0.0
H550 H 0.33467 0.80289 0.74999 0.0
H551 H 0.44811 0.95893 0.83274 0.0
H552 H 0.28507 0.89455 0.89146 0.0
H553 H 0.44321 0.97612 0.88463 0.0
H554 H 0.27956 0.94335 0.8837 0.0
O555 O 0.40847 0.87187 0.82621 0.0
H556 H 0.34967 0.76459 0.84438 0.0
H557 H 0.39831 0.81319 0.76524 0.0
H558 H 0.41335 0.76822 0.78006 0.0
H559 H 0.38891 0.74354 0.81983 0.0
H560 H 0.33549 0.80976 0.82911 0.0
H561 H 0.33473 0.79052 0.69654 0.0
H562 H 0.35511 0.82114 0.65916 0.0
O563 O 0.3929 0.86086 0.78083 0.0
C564 C 0.35433 0.90804 0.78236 0.0
C565 C 0.36623 0.85042 0.69215 0.0
C566 C 0.34356 0.80921 0.70363 0.0
N567 N 0.35468 0.83992 0.743 0.0
C568 C 0.36586 0.85689 0.72257 0.0
C569 C 0.34359 0.81632 0.73387 0.0
C570 C 0.35498 0.8264 0.68267 0.0
C571 C 0.32384 0.89341 0.87044 0.0
N572 N 0.34363 0.90767 0.85667 0.0
C573 C 0.3006 0.906 0.88051 0.0
C574 C 0.29749 0.93336 0.87608 0.0
C575 C 0.31746 0.94773 0.86152 0.0
C576 C 0.34042 0.93447 0.8518 0.0
C577 C 0.41144 0.94889 0.89568 0.0
C578 C 0.41679 0.92973 0.83784 0.0
C579 C 0.39529 0.92818 0.88514 0.0
N580 N 0.39801 0.91892 0.85648 0.0
C581 C 0.4333 0.95045 0.84763 0.0
C582 C 0.43055 0.96006 0.87675 0.0
C583 C 0.41222 0.86557 0.79875 0.0
C584 C 0.36048 0.77513 0.82701 0.0
C585 C 0.38771 0.80273 0.78277 0.0
C586 C 0.39625 0.77719 0.79096 0.0
C587 C 0.38251 0.76335 0.81325 0.0
N588 N 0.36606 0.81416 0.79637 0.0
C589 C 0.35251 0.8007 0.81823 0.0
Co590 Co 0.11521 0.35982 0.84198 0.0
Co591 Co 0.15666 0.347 0.78258 0.0
O592 O 0.14729 0.34256 0.82522 0.0
C593 C 0.15451 0.35833 0.89431 0.0
O594 O 0.17329 0.34665 0.87851 0.0
C595 C 0.16327 0.28769 0.78799 0.0
O596 O 0.1407 0.28546 0.80275 0.0
O597 O 0.12132 0.33227 0.77061 0.0
O598 O 0.09547 0.35403 0.80372 0.0
H599 H 0.13946 0.37368 0.67572 0.0
H600 H 0.14033 0.31098 0.86945 0.0
O601 O 0.13282 0.36592 0.88198 0.0
H602 H 0.04512 0.28897 0.8575 0.0
H603 H 0.0471 0.38143 0.92168 0.0
H604 H 0.07629 0.39906 0.81803 0.0
H605 H 0.06227 0.3327 0.84134 0.0
H606 H 0.08652 0.35851 0.90088 0.0
O607 O 0.1725 0.31046 0.7808 0.0
H608 H 0.12859 0.3686 0.72928 0.0
H609 H 0.2045 0.33361 0.74544 0.0
H610 H 0.03656 0.42215 0.83785 0.0
H611 H 0.12398 0.2673 0.88621 0.0
H612 H 0.02173 0.41341 0.89004 0.0
H613 H 0.076 0.25591 0.88034 0.0
O614 O 0.12801 0.39556 0.8275 0.0
H615 H 0.24213 0.34778 0.84136 0.0
H616 H 0.18824 0.39551 0.76595 0.0
H617 H 0.23144 0.41437 0.78191 0.0
H618 H 0.25874 0.39043 0.81983 0.0
H619 H 0.19866 0.32974 0.82491 0.0
H620 H 0.21613 0.33813 0.69203 0.0
H621 H 0.18353 0.35837 0.65676 0.0
O622 O 0.14146 0.38383 0.78163 0.0
C623 C 0.09862 0.33978 0.78038 0.0
C624 C 0.15386 0.36488 0.69087 0.0
C625 C 0.19688 0.34492 0.70002 0.0
N626 N 0.1659 0.35099 0.74055 0.0
C627 C 0.14782 0.36199 0.72124 0.0
C628 C 0.19015 0.34238 0.73025 0.0
C629 C 0.17858 0.35628 0.68024 0.0
C630 C 0.11937 0.30672 0.86744 0.0
N631 N 0.10222 0.32507 0.85543 0.0
C632 C 0.11023 0.28168 0.87671 0.0
C633 C 0.08334 0.27526 0.87333 0.0
C634 C 0.06602 0.2938 0.86056 0.0
C635 C 0.07588 0.31863 0.85155 0.0
C636 C 0.05337 0.38541 0.8989 0.0
C637 C 0.06992 0.39504 0.84072 0.0
C638 C 0.07577 0.37259 0.88703 0.0
N639 N 0.08373 0.37738 0.8582 0.0
C640 C 0.04742 0.40822 0.85184 0.0
C641 C 0.03913 0.40334 0.88113 0.0
C642 C 0.1341 0.4014 0.80048 0.0
C643 C 0.23043 0.35839 0.8248 0.0
C644 C 0.1999 0.38506 0.78261 0.0
C645 C 0.22441 0.39579 0.79148 0.0
C646 C 0.23972 0.38233 0.81274 0.0
N647 N 0.19094 0.36155 0.79455 0.0
C648 C 0.20584 0.34825 0.81538 0.0
Co649 Co 0.63895 0.12545 0.83994 0.0
Co650 Co 0.6572 0.14672 0.7706 0.0
O651 O 0.65983 0.14983 0.81445 0.0
C652 C 0.61743 0.15857 0.88876 0.0
O653 O 0.59347 0.15209 0.8792 0.0
C654 C 0.71599 0.1566 0.7813 0.0
O655 O 0.71504 0.14492 0.80759 0.0
O656 O 0.66889 0.10871 0.77337 0.0
O657 O 0.64043 0.09641 0.80932 0.0
H658 H 0.63038 0.10105 0.67504 0.0
H659 H 0.68718 0.15113 0.8654 0.0
O660 O 0.63761 0.15348 0.87227 0.0
H661 H 0.70398 0.05434 0.87329 0.0
H662 H 0.61417 0.07794 0.93599 0.0
H663 H 0.592 0.09069 0.82935 0.0
H664 H 0.66183 0.07107 0.85196 0.0
H665 H 0.6411 0.10802 0.90447 0.0
O666 O 0.69517 0.15837 0.76513 0.0
H667 H 0.63359 0.10645 0.72981 0.0
H668 H 0.67603 0.17924 0.71846 0.0
H669 H 0.56459 0.06035 0.8601 0.0
H670 H 0.72938 0.13523 0.88756 0.0
H671 H 0.57556 0.05385 0.91386 0.0
H672 H 0.73808 0.08651 0.89148 0.0
O673 O 0.60536 0.13938 0.821 0.0
H674 H 0.66232 0.24419 0.79656 0.0
H675 H 0.61345 0.176 0.73881 0.0
H676 H 0.59855 0.2229 0.73691 0.0
H677 H 0.62313 0.2574 0.76584 0.0
H678 H 0.67634 0.19697 0.79809 0.0
H679 H 0.67346 0.1745 0.66358 0.0
H680 H 0.6504 0.13524 0.64152 0.0
O681 O 0.61878 0.1357 0.77339 0.0
C682 C 0.65695 0.09073 0.78857 0.0
C683 C 0.64043 0.11828 0.68438 0.0
C684 C 0.66464 0.15948 0.67795 0.0
N685 N 0.65485 0.14319 0.72737 0.0
C686 C 0.64227 0.12147 0.71539 0.0
C687 C 0.66609 0.16201 0.70906 0.0
C688 C 0.65168 0.13745 0.66559 0.0
C689 C 0.69067 0.12989 0.8673 0.0
N690 N 0.67201 0.11209 0.85729 0.0
C691 C 0.71467 0.12101 0.87976 0.0
C692 C 0.71956 0.09368 0.8819 0.0
C693 C 0.70046 0.07562 0.87165 0.0
C694 C 0.67669 0.08524 0.85936 0.0
C695 C 0.60914 0.08064 0.91261 0.0
C696 C 0.59688 0.08808 0.85273 0.0
C697 C 0.62431 0.09769 0.89461 0.0
N698 N 0.61802 0.10139 0.86506 0.0
C699 C 0.58131 0.07081 0.87003 0.0
C700 C 0.58749 0.06714 0.90018 0.0
C701 C 0.6004 0.13875 0.7929 0.0
C702 C 0.65148 0.22935 0.78381 0.0
C703 C 0.62415 0.19085 0.75161 0.0
C704 C 0.61567 0.2174 0.75037 0.0
C705 C 0.62947 0.23675 0.76659 0.0
N706 N 0.64581 0.18375 0.76848 0.0
C707 C 0.65938 0.2026 0.78453 0.0
Co708 Co 0.88288 0.37732 0.6681 0.0
Co709 Co 0.85236 0.35182 0.72976 0.0
O710 O 0.85694 0.35207 0.68581 0.0
C711 C 0.84259 0.36723 0.618 0.0
O712 O 0.8281 0.35076 0.63414 0.0
C713 C 0.84349 0.29381 0.71142 0.0
O714 O 0.85054 0.29815 0.68355 0.0
O715 O 0.89093 0.34276 0.73376 0.0
O716 O 0.90572 0.37583 0.70485 0.0
H717 H 0.87975 0.37518 0.83477 0.0
H718 H 0.86974 0.32502 0.63824 0.0
O719 O 0.86198 0.38001 0.62971 0.0
H720 H 0.96782 0.32752 0.64448 0.0
H721 H 0.93843 0.41826 0.58571 0.0
H722 H 0.91172 0.42467 0.69177 0.0
H723 H 0.941 0.36491 0.66362 0.0
H724 H 0.90759 0.38525 0.60764 0.0
O725 O 0.8437 0.31266 0.73052 0.0
H726 H 0.88338 0.37535 0.77967 0.0
H727 H 0.81386 0.32706 0.77295 0.0
H728 H 0.94284 0.4579 0.67079 0.0
H729 H 0.89571 0.28753 0.61835 0.0
H730 H 0.9564 0.45485 0.61738 0.0
H731 H 0.94522 0.28845 0.62141 0.0
O732 O 0.86223 0.40758 0.68572 0.0
H733 H 0.76126 0.34285 0.68336 0.0
H734 H 0.81505 0.39072 0.75861 0.0
H735 H 0.76758 0.40233 0.7522 0.0
H736 H 0.74028 0.37824 0.71443 0.0
H737 H 0.80885 0.33208 0.6903 0.0
H738 H 0.80965 0.32617 0.82796 0.0
H739 H 0.84268 0.35046 0.85926 0.0
O740 O 0.86022 0.39117 0.73219 0.0
C741 C 0.90991 0.35689 0.72329 0.0
C742 C 0.8652 0.36458 0.82136 0.0
C743 C 0.82587 0.33705 0.81755 0.0
N744 N 0.84877 0.3514 0.77307 0.0
C745 C 0.86711 0.36465 0.79015 0.0
C746 C 0.82841 0.33757 0.7864 0.0
C747 C 0.8444 0.35069 0.8351 0.0
C748 C 0.89112 0.32605 0.6393 0.0
N749 N 0.9036 0.34763 0.65172 0.0
C750 C 0.90582 0.30453 0.62813 0.0
C751 C 0.93358 0.30502 0.62991 0.0
C752 C 0.94625 0.32691 0.64283 0.0
C753 C 0.93089 0.34807 0.65368 0.0
C754 C 0.93265 0.41982 0.60901 0.0
C755 C 0.91754 0.42312 0.66853 0.0
C756 C 0.91507 0.40126 0.62153 0.0
N757 N 0.90778 0.40298 0.65101 0.0
C758 C 0.93517 0.44203 0.65677 0.0
C759 C 0.94275 0.44033 0.62679 0.0
C760 C 0.85887 0.41071 0.71386 0.0
C761 C 0.7729 0.3534 0.7 0.0
C762 C 0.80337 0.38015 0.74208 0.0
C763 C 0.77646 0.38681 0.73859 0.0
C764 C 0.76115 0.37328 0.7174 0.0
N765 N 0.81473 0.36048 0.72507 0.0
C766 C 0.79988 0.34729 0.70412 0.0
Co767 Co 0.63793 0.88569 0.66732 0.0
Co768 Co 0.65212 0.84343 0.72541 0.0
O769 O 0.65588 0.85347 0.68289 0.0
C770 C 0.63974 0.84778 0.61366 0.0
O771 O 0.65149 0.82863 0.62883 0.0
C772 C 0.71151 0.83743 0.72014 0.0
O773 O 0.71357 0.86063 0.70661 0.0
O774 O 0.66711 0.87858 0.73752 0.0
O775 O 0.6437 0.9047 0.70619 0.0
H776 H 0.6274 0.8596 0.83302 0.0
H777 H 0.68697 0.86201 0.6389 0.0
O778 O 0.63189 0.86901 0.62677 0.0
H779 H 0.70736 0.95739 0.65265 0.0
H780 H 0.6146 0.95554 0.59013 0.0
H781 H 0.59801 0.92312 0.69279 0.0
H782 H 0.66411 0.93915 0.66898 0.0
H783 H 0.63845 0.91608 0.60947 0.0
O784 O 0.68875 0.82754 0.72626 0.0
H785 H 0.63177 0.87109 0.77954 0.0
H786 H 0.6656 0.79499 0.76154 0.0
H787 H 0.57399 0.96286 0.67444 0.0
H788 H 0.73022 0.87945 0.62208 0.0
H789 H 0.58219 0.97931 0.62275 0.0
H790 H 0.74077 0.92752 0.62882 0.0
O791 O 0.60256 0.8718 0.68175 0.0
H792 H 0.65039 0.75889 0.66507 0.0
H793 H 0.60391 0.81152 0.74252 0.0
H794 H 0.58482 0.76855 0.72614 0.0
H795 H 0.60814 0.74188 0.68719 0.0
H796 H 0.66867 0.80212 0.68196 0.0
H797 H 0.66176 0.78272 0.81485 0.0
H798 H 0.64245 0.81511 0.851 0.0
O799 O 0.61524 0.85855 0.72735 0.0
C800 C 0.65902 0.90135 0.72865 0.0
C801 C 0.63578 0.84528 0.81748 0.0
C802 C 0.65507 0.80214 0.80728 0.0
N803 N 0.64875 0.8337 0.76736 0.0
C804 C 0.63827 0.85167 0.78715 0.0
C805 C 0.65721 0.80922 0.77711 0.0
C806 C 0.64424 0.82033 0.82756 0.0
C807 C 0.69089 0.883 0.64136 0.0
N808 N 0.67234 0.8996 0.65392 0.0
C809 C 0.71568 0.89276 0.63203 0.0
C810 C 0.72162 0.91971 0.63589 0.0
C811 C 0.70288 0.93647 0.64921 0.0
C812 C 0.67832 0.92599 0.6583 0.0
C813 C 0.61083 0.94855 0.61269 0.0
C814 C 0.60179 0.93019 0.67031 0.0
C815 C 0.62417 0.92611 0.62372 0.0
N816 N 0.61965 0.91724 0.65227 0.0
C817 C 0.58808 0.95269 0.66002 0.0
C818 C 0.59267 0.9619 0.63101 0.0
C819 C 0.59719 0.86537 0.7088 0.0
C820 C 0.64005 0.77031 0.68207 0.0
C821 C 0.61409 0.80013 0.72541 0.0
C822 C 0.60323 0.77576 0.71631 0.0
C823 C 0.61633 0.76079 0.69447 0.0
N824 N 0.63738 0.80932 0.71315 0.0
C825 C 0.65033 0.79476 0.69175 0.0
Co826 Co 0.11303 0.62918 0.67477 0.0
Co827 Co 0.15787 0.64159 0.73049 0.0
O828 O 0.14657 0.64553 0.68852 0.0
C829 C 0.14928 0.62911 0.61989 0.0
O830 O 0.16951 0.63918 0.63476 0.0
C831 C 0.16686 0.7003 0.723 0.0
O832 O 0.14263 0.70318 0.71223 0.0
O833 O 0.12408 0.65871 0.74393 0.0
O834 O 0.09602 0.63559 0.7146 0.0
H835 H 0.14427 0.61932 0.83923 0.0
H836 H 0.13751 0.67687 0.64447 0.0
O837 O 0.1278 0.62258 0.63344 0.0
H838 H 0.04426 0.70214 0.66508 0.0
H839 H 0.03905 0.60936 0.60141 0.0
H840 H 0.07491 0.5909 0.70218 0.0
H841 H 0.06109 0.6579 0.67993 0.0
H842 H 0.08037 0.63125 0.61864 0.0
O843 O 0.17585 0.67721 0.7294 0.0
H844 H 0.1311 0.62356 0.78624 0.0
H845 H 0.20834 0.65249 0.764 0.0
H846 H 0.03336 0.56885 0.68596 0.0
H847 H 0.12143 0.72105 0.62897 0.0
H848 H 0.01516 0.578 0.63523 0.0
H849 H 0.07444 0.73406 0.63921 0.0
O850 O 0.12599 0.59335 0.68858 0.0
H851 H 0.24011 0.63413 0.66659 0.0
H852 H 0.18749 0.59181 0.74706 0.0
H853 H 0.22866 0.57001 0.7292 0.0
H854 H 0.25534 0.59122 0.68873 0.0
H855 H 0.19864 0.65514 0.68496 0.0
H856 H 0.22229 0.64881 0.8168 0.0
H857 H 0.19017 0.63202 0.85483 0.0
O858 O 0.14072 0.60561 0.73379 0.0
C859 C 0.10071 0.65129 0.7364 0.0
C860 C 0.15846 0.62664 0.82288 0.0
C861 C 0.20223 0.64322 0.81029 0.0
N862 N 0.16892 0.63823 0.77201 0.0
C863 C 0.15112 0.62907 0.79282 0.0
C864 C 0.19418 0.64536 0.78044 0.0
C865 C 0.1842 0.63379 0.83161 0.0
C866 C 0.11692 0.68189 0.64844 0.0
N867 N 0.10012 0.66419 0.66218 0.0
C868 C 0.10796 0.70718 0.63985 0.0
C869 C 0.08163 0.7145 0.64567 0.0
C870 C 0.06469 0.6966 0.66013 0.0
C871 C 0.07436 0.67149 0.6684 0.0
C872 C 0.04679 0.60519 0.62356 0.0
C873 C 0.0671 0.59509 0.68011 0.0
C874 C 0.07028 0.61742 0.6334 0.0
N875 N 0.0801 0.61238 0.66142 0.0
C876 C 0.04357 0.58249 0.67103 0.0
C877 C 0.03339 0.58762 0.64256 0.0
C878 C 0.13276 0.5878 0.71549 0.0
C879 C 0.22867 0.62469 0.68424 0.0
C880 C 0.19884 0.60107 0.72927 0.0
C881 C 0.22222 0.58868 0.71934 0.0
C882 C 0.23719 0.6006 0.69665 0.0
N883 N 0.19062 0.6247 0.71697 0.0
C884 C 0.2052 0.63651 0.69475 0.0
Co885 Co 0.37944 0.12385 0.66333 0.0
Co886 Co 0.35602 0.15457 0.72596 0.0
O887 O 0.35456 0.1495 0.68212 0.0
C888 C 0.3668 0.16373 0.61329 0.0
O889 O 0.35078 0.17818 0.63001 0.0
C890 C 0.29709 0.16127 0.71065 0.0
O891 O 0.30055 0.15444 0.68256 0.0
O892 O 0.34832 0.11584 0.73122 0.0
O893 O 0.38009 0.10139 0.7003 0.0
H894 H 0.38473 0.12938 0.83004 0.0
H895 H 0.32599 0.13591 0.63551 0.0
O896 O 0.3801 0.14446 0.62459 0.0
H897 H 0.32967 0.03802 0.64448 0.0
H898 H 0.41714 0.06804 0.57935 0.0
H899 H 0.42826 0.09581 0.68453 0.0
H900 H 0.36743 0.06559 0.66125 0.0
H901 H 0.38481 0.09864 0.60285 0.0
O902 O 0.31671 0.16195 0.72873 0.0
H903 H 0.38271 0.12502 0.77507 0.0
H904 H 0.3319 0.19283 0.76977 0.0
H905 H 0.46088 0.06498 0.66196 0.0
H906 H 0.28809 0.10915 0.618 0.0
H907 H 0.45546 0.05088 0.60898 0.0
H908 H 0.28963 0.05974 0.62245 0.0
O909 O 0.41017 0.14497 0.6791 0.0
H910 H 0.34211 0.24484 0.67893 0.0
H911 H 0.39514 0.19328 0.75185 0.0
H912 H 0.40498 0.24101 0.74415 0.0
H913 H 0.37829 0.26718 0.70756 0.0
H914 H 0.33314 0.19704 0.68711 0.0
H915 H 0.33317 0.19775 0.82469 0.0
H916 H 0.35984 0.16595 0.85521 0.0
O917 O 0.39562 0.14782 0.72632 0.0
C918 C 0.36256 0.09713 0.72037 0.0
C919 C 0.37311 0.14341 0.81698 0.0
C920 C 0.34415 0.18175 0.81398 0.0
N921 N 0.35737 0.15875 0.76918 0.0
C922 C 0.37193 0.14107 0.78584 0.0
C923 C 0.34345 0.17882 0.78288 0.0
C924 C 0.35911 0.16392 0.83109 0.0
C925 C 0.32726 0.11456 0.63711 0.0
N926 N 0.34938 0.10255 0.64893 0.0
C927 C 0.30552 0.09942 0.62732 0.0
C928 C 0.30635 0.07171 0.62988 0.0
C929 C 0.3288 0.05953 0.64222 0.0
C930 C 0.35016 0.07533 0.65171 0.0
C931 C 0.41975 0.07406 0.60244 0.0
C932 C 0.42569 0.08979 0.66148 0.0
C933 C 0.40157 0.09152 0.61585 0.0
N934 N 0.40463 0.09914 0.64507 0.0
C935 C 0.44426 0.07231 0.64881 0.0
C936 C 0.44123 0.06443 0.61908 0.0
C937 C 0.41445 0.14852 0.70704 0.0
C938 C 0.3538 0.23369 0.69505 0.0
C939 C 0.38345 0.20447 0.73583 0.0
C940 C 0.3891 0.23153 0.7316 0.0
C941 C 0.37412 0.2462 0.71108 0.0
N942 N 0.36333 0.19236 0.7202 0.0
C943 C 0.34871 0.2066 0.69988 0.0
H944 H 0.34936 0.22967 0.24121 0.0
H945 H 0.21936 0.31049 0.27856 0.0
H946 H 0.32359 0.24408 0.33201 0.0
H947 H 0.26277 0.32556 0.19686 0.0
H948 H 0.25747 0.28571 0.298 0.0
H949 H 0.31883 0.2646 0.22385 0.0
C950 C 0.33764 0.24053 0.25757 0.0
C951 C 0.33889 0.2338 0.28812 0.0
C952 C 0.25888 0.29464 0.27595 0.0
C953 C 0.30357 0.27342 0.26827 0.0
C954 C 0.23704 0.30862 0.26473 0.0
C955 C 0.23785 0.31982 0.23593 0.0
C956 C 0.28163 0.2912 0.25803 0.0
C957 C 0.26139 0.31715 0.21915 0.0
C958 C 0.32025 0.26048 0.24762 0.0
C959 C 0.3233 0.24857 0.30829 0.0
N960 N 0.28226 0.30266 0.23025 0.0
N961 N 0.30593 0.26734 0.29794 0.0
H962 H 0.75341 0.36575 0.2351 0.0
H963 H 0.72442 0.21123 0.23263 0.0
H964 H 0.7888 0.30996 0.29733 0.0
H965 H 0.66075 0.26587 0.21004 0.0
H966 H 0.75131 0.24859 0.24937 0.0
H967 H 0.721 0.33115 0.22055 0.0
C968 C 0.75411 0.34648 0.2461 0.0
C969 C 0.7741 0.34075 0.26731 0.0
C970 C 0.73144 0.25246 0.2408 0.0
C971 C 0.73762 0.30113 0.2502 0.0
C972 C 0.71603 0.2311 0.23102 0.0
C973 C 0.69004 0.23525 0.22013 0.0
C974 C 0.7212 0.27847 0.23929 0.0
C975 C 0.68061 0.2617 0.2184 0.0
C976 C 0.73566 0.32678 0.2377 0.0
C977 C 0.77398 0.31538 0.28076 0.0
N978 N 0.69626 0.28241 0.22781 0.0
N979 N 0.75639 0.29646 0.27163 0.0
H980 H 0.77747 0.69114 0.28004 0.0
H981 H 0.65025 0.77633 0.24149 0.0
H982 H 0.73499 0.67933 0.19712 0.0
H983 H 0.67584 0.76198 0.33237 0.0
H984 H 0.67974 0.74044 0.22445 0.0
H985 H 0.73989 0.71678 0.29938 0.0
C986 C 0.76007 0.69386 0.26594 0.0
C987 C 0.7594 0.68337 0.23682 0.0
C988 C 0.67852 0.7448 0.24816 0.0
C989 C 0.71626 0.71302 0.25878 0.0
C990 C 0.66173 0.76531 0.25795 0.0
C991 C 0.66075 0.77234 0.28842 0.0
C992 C 0.69486 0.73153 0.26891 0.0
C993 C 0.67596 0.7573 0.3087 0.0
C994 C 0.73853 0.70836 0.27709 0.0
C995 C 0.73624 0.68716 0.21968 0.0
N996 N 0.69275 0.73794 0.29852 0.0
N997 N 0.7157 0.70214 0.23073 0.0
H998 H 0.27462 0.79413 0.24384 0.0
H999 H 0.24554 0.63912 0.23942 0.0
H1000 H 0.33638 0.73973 0.21487 0.0
H1001 H 0.20845 0.6933 0.30214 0.0
H1002 H 0.27778 0.67431 0.22632 0.0
H1003 H 0.24775 0.75644 0.25971 0.0
C1004 C 0.2826 0.77425 0.24067 0.0
C1005 C 0.30802 0.77025 0.22813 0.0
C1006 C 0.26279 0.67823 0.24325 0.0
C1007 C 0.2769 0.72661 0.24637 0.0
C1008 C 0.24443 0.65817 0.25084 0.0
C1009 C 0.22403 0.66326 0.27176 0.0
C1010 C 0.26038 0.70361 0.25632 0.0
C1011 C 0.22361 0.68838 0.28576 0.0
C1012 C 0.26721 0.75267 0.24997 0.0
C1013 C 0.31696 0.7438 0.2245 0.0
N1014 N 0.2412 0.70765 0.27746 0.0
N1015 N 0.30134 0.7229 0.23347 0.0
H1016 H 0.7152 0.81608 0.77547 0.0
H1017 H 0.84545 0.7333 0.74515 0.0
H1018 H 0.7614 0.82909 0.69528 0.0
H1019 H 0.8158 0.74819 0.83434 0.0
H1020 H 0.81635 0.76871 0.72605 0.0
H1021 H 0.75231 0.79122 0.79704 0.0
C1022 C 0.73327 0.81369 0.7624 0.0
C1023 C 0.73514 0.8243 0.73339 0.0
C1024 C 0.81663 0.76462 0.74987 0.0
C1025 C 0.77784 0.79567 0.75799 0.0
C1026 C 0.83322 0.74441 0.76083 0.0
C1027 C 0.8329 0.73763 0.7914 0.0
C1028 C 0.79919 0.77779 0.76952 0.0
C1029 C 0.81672 0.75271 0.81065 0.0
C1030 C 0.75456 0.79969 0.77486 0.0
C1031 C 0.75919 0.82109 0.71768 0.0
N1032 N 0.80013 0.77173 0.7993 0.0
N1033 N 0.77952 0.8066 0.72999 0.0
H1034 H 0.16078 0.75305 0.70567 0.0
H1035 H 0.28568 0.8005 0.80439 0.0
H1036 H 0.21067 0.70114 0.75893 0.0
H1037 H 0.2548 0.84813 0.73152 0.0
H1038 H 0.25123 0.76728 0.79471 0.0
H1039 H 0.18921 0.79104 0.72043 0.0
C1040 C 0.17761 0.74962 0.72042 0.0
C1041 C 0.18345 0.7238 0.73084 0.0
C1042 C 0.25181 0.78513 0.78099 0.0
C1043 C 0.21551 0.76699 0.74819 0.0
C1044 C 0.27141 0.80423 0.78664 0.0
C1045 C 0.27341 0.82703 0.7685 0.0
C1046 C 0.23397 0.78876 0.75705 0.0
C1047 C 0.25416 0.83073 0.74591 0.0
C1048 C 0.19375 0.77126 0.72884 0.0
C1049 C 0.20545 0.72053 0.75002 0.0
N1050 N 0.23537 0.81165 0.74061 0.0
N1051 N 0.22055 0.7418 0.75808 0.0
H1052 H 0.18117 0.28199 0.73143 0.0
H1053 H 0.27849 0.16399 0.76797 0.0
H1054 H 0.1764 0.2402 0.8157 0.0
H1055 H 0.2578 0.18533 0.67726 0.0
H1056 H 0.24052 0.19009 0.78613 0.0
H1057 H 0.20842 0.24593 0.71115 0.0
C1058 C 0.18571 0.26499 0.74558 0.0
C1059 C 0.17678 0.26409 0.77534 0.0
C1060 C 0.24394 0.18863 0.76223 0.0
C1061 C 0.20834 0.22284 0.75238 0.0
C1062 C 0.26564 0.17379 0.75182 0.0
C1063 C 0.27145 0.17269 0.72104 0.0
C1064 C 0.22824 0.20296 0.74177 0.0
C1065 C 0.25408 0.18565 0.70115 0.0
C1066 C 0.20115 0.24434 0.73393 0.0
C1067 C 0.18296 0.24156 0.79264 0.0
N1068 N 0.23355 0.20068 0.7119 0.0
N1069 N 0.19886 0.22197 0.78107 0.0
H1070 H 0.75798 0.17568 0.81485 0.0
H1071 H 0.82173 0.25472 0.67564 0.0
H1072 H 0.72921 0.16984 0.724 0.0
H1073 H 0.83674 0.27464 0.76816 0.0
H1074 H 0.79521 0.21628 0.69228 0.0
H1075 H 0.79426 0.20474 0.7972 0.0
C1076 C 0.75958 0.1801 0.79116 0.0
C1077 C 0.74037 0.17061 0.77094 0.0
C1078 C 0.80462 0.22889 0.70891 0.0
C1079 C 0.78167 0.20378 0.75062 0.0
C1080 C 0.81988 0.25074 0.69941 0.0
C1081 C 0.8312 0.26811 0.72052 0.0
C1082 C 0.80083 0.22429 0.73972 0.0
C1083 C 0.82808 0.26198 0.75107 0.0
C1084 C 0.78018 0.19679 0.78111 0.0
C1085 C 0.74337 0.17703 0.74046 0.0
N1086 N 0.81304 0.24074 0.75974 0.0
N1087 N 0.76346 0.19332 0.73128 0.0
H1088 H 0.12376 0.38714 0.93306 0.0
H1089 H 0.17171 0.30901 0.08059 0.0
H1090 H 0.18618 0.32771 0.93151 0.0
H1091 H 0.11299 0.37212 0.0799 0.0
H1092 H 0.17647 0.31387 0.02608 0.0
H1093 H 0.11992 0.38143 0.98704 0.0
C1094 C 0.13694 0.37309 0.94413 0.0
C1095 C 0.15535 0.3579 0.9276 0.0
C1096 C 0.16244 0.32652 0.03789 0.0
C1097 C 0.15071 0.35087 0.98982 0.0
C1098 C 0.1595 0.32356 0.06898 0.0
C1099 C 0.14192 0.34018 0.08495 0.0
C1100 C 0.14764 0.34618 0.02266 0.0
C1101 C 0.12687 0.35891 0.06866 0.0
C1102 C 0.13462 0.36972 0.97504 0.0
C1103 C 0.17184 0.34 0.94332 0.0
N1104 N 0.13015 0.36143 0.03858 0.0
N1105 N 0.16901 0.33683 0.97352 0.0
H1106 H 0.58071 0.15448 0.93405 0.0
H1107 H 0.68648 0.15966 0.06839 0.0
H1108 H 0.66467 0.16852 0.91845 0.0
H1109 H 0.60917 0.12178 0.07397 0.0
H1110 H 0.67858 0.16793 0.01484 0.0
H1111 H 0.58991 0.14962 0.98738 0.0
C1112 C 0.60103 0.15714 0.94183 0.0
C1113 C 0.62194 0.16182 0.92152 0.0
C1114 C 0.66344 0.15773 0.02787 0.0
C1115 C 0.63269 0.15579 0.98289 0.0
C1116 C 0.668 0.15283 0.0584 0.0
C1117 C 0.64839 0.14017 0.07594 0.0
C1118 C 0.639 0.1502 0.01489 0.0
C1119 C 0.62477 0.1319 0.06164 0.0
C1120 C 0.60631 0.15402 0.97234 0.0
C1121 C 0.64789 0.16488 0.9332 0.0
N1122 N 0.62068 0.13726 0.03216 0.0
N1123 N 0.65256 0.16165 0.96306 0.0
H1124 H 0.81382 0.68202 0.92917 0.0
H1125 H 0.88169 0.62999 0.08049 0.0
H1126 H 0.85538 0.60694 0.93843 0.0
H1127 H 0.82432 0.69436 0.0808 0.0
H1128 H 0.87478 0.62454 0.02699 0.0
H1129 H 0.81798 0.68885 0.98353 0.0
C1130 C 0.8233 0.66672 0.94263 0.0
C1131 C 0.8344 0.64392 0.92908 0.0
C1132 C 0.8637 0.63994 0.03863 0.0
C1133 C 0.83985 0.652 0.99106 0.0
C1134 C 0.86777 0.6432 0.06928 0.0
C1135 C 0.85342 0.66255 0.0854 0.0
C1136 C 0.8452 0.6562 0.02358 0.0
C1137 C 0.83587 0.67921 0.06935 0.0
C1138 C 0.8259 0.67078 0.97362 0.0
C1139 C 0.84673 0.62495 0.94771 0.0
N1140 N 0.83215 0.67558 0.03932 0.0
N1141 N 0.84933 0.62955 0.97753 0.0
H1142 H 0.37881 0.89523 0.08149 0.0
H1143 H 0.33817 0.82013 0.92958 0.0
H1144 H 0.31384 0.83876 0.07645 0.0
H1145 H 0.39841 0.8816 0.93526 0.0
H1146 H 0.33017 0.8248 0.98352 0.0
H1147 H 0.38629 0.88988 0.02791 0.0
C1148 C 0.36586 0.88192 0.06904 0.0
C1149 C 0.34563 0.86743 0.0836 0.0
C1150 C 0.34525 0.83713 0.97296 0.0
C1151 C 0.35444 0.86083 0.02194 0.0
C1152 C 0.35004 0.83429 0.9422 0.0
C1153 C 0.36898 0.85052 0.92775 0.0
C1154 C 0.35957 0.85629 0.98944 0.0
C1155 C 0.38352 0.86872 0.9453 0.0
C1156 C 0.37025 0.87876 0.03839 0.0
C1157 C 0.32954 0.85048 0.06618 0.0
N1158 N 0.37844 0.87115 0.97508 0.0
N1159 N 0.33441 0.8475 0.03632 0.0
H1160 H 0.1831 0.6562 0.58164 0.0
H1161 H 0.0907 0.62795 0.43831 0.0
H1162 H 0.11284 0.60624 0.58226 0.0
H1163 H 0.16342 0.67402 0.43324 0.0
H1164 H 0.09772 0.62225 0.4919 0.0
H1165 H 0.17661 0.66374 0.52778 0.0
C1166 C 0.16657 0.64649 0.57044 0.0
C1167 C 0.14846 0.63061 0.58664 0.0
C1168 C 0.1121 0.63379 0.4792 0.0
C1169 C 0.14061 0.63961 0.52513 0.0
C1170 C 0.10799 0.63722 0.44854 0.0
C1171 C 0.12653 0.65143 0.43111 0.0
C1172 C 0.13499 0.64457 0.4928 0.0
C1173 C 0.14851 0.66303 0.44577 0.0
C1174 C 0.16273 0.65101 0.53973 0.0
C1175 C 0.12725 0.61877 0.57087 0.0
N1176 N 0.15225 0.65917 0.47572 0.0
N1177 N 0.12387 0.62362 0.54118 0.0
H1178 H 0.40053 0.1407 0.57297 0.0
H1179 H 0.32086 0.17688 0.42413 0.0
H1180 H 0.32865 0.18815 0.5776 0.0
H1181 H 0.36986 0.10662 0.43517 0.0
H1182 H 0.32494 0.18559 0.47822 0.0
H1183 H 0.39309 0.13424 0.51968 0.0
C1184 C 0.38329 0.15007 0.56274 0.0
C1185 C 0.36503 0.16475 0.58004 0.0
C1186 C 0.3345 0.16814 0.46872 0.0
C1187 C 0.35629 0.15723 0.51852 0.0
C1188 C 0.332 0.16299 0.43791 0.0
C1189 C 0.34526 0.14109 0.42491 0.0
C1190 C 0.35065 0.15146 0.48643 0.0
C1191 C 0.35959 0.12395 0.44396 0.0
C1192 C 0.37896 0.14619 0.53225 0.0
C1193 C 0.34327 0.17668 0.5652 0.0
N1194 N 0.36218 0.1297 0.47352 0.0
N1195 N 0.3394 0.17256 0.53526 0.0
H1196 H 0.83363 0.32092 0.4292 0.0
H1197 H 0.86496 0.40245 0.57878 0.0
H1198 H 0.8989 0.37651 0.43938 0.0
H1199 H 0.81912 0.32947 0.58123 0.0
H1200 H 0.87184 0.3963 0.52531 0.0
H1201 H 0.82425 0.3251 0.48307 0.0
C1202 C 0.84626 0.33365 0.44274 0.0
C1203 C 0.86697 0.34859 0.42954 0.0
C1204 C 0.86013 0.38166 0.53743 0.0
C1205 C 0.85581 0.35398 0.49091 0.0
C1206 C 0.85599 0.38527 0.56801 0.0
C1207 C 0.84163 0.36632 0.58473 0.0
C1208 C 0.84973 0.359 0.52308 0.0
C1209 C 0.83028 0.34462 0.56928 0.0
C1210 C 0.84073 0.33618 0.47344 0.0
C1211 C 0.88251 0.36488 0.4483 0.0
N1212 N 0.83471 0.34144 0.53931 0.0
N1213 N 0.87643 0.36734 0.47781 0.0
H1214 H 0.66782 0.81475 0.57525 0.0
H1215 H 0.63306 0.90515 0.43204 0.0
H1216 H 0.61376 0.88191 0.57582 0.0
H1217 H 0.67649 0.83101 0.42443 0.0
H1218 H 0.62985 0.89841 0.48591 0.0
H1219 H 0.67347 0.82057 0.52091 0.0
C1220 C 0.65684 0.83045 0.56397 0.0
C1221 C 0.64037 0.84794 0.5803 0.0
C1222 C 0.64028 0.88364 0.47259 0.0
C1223 C 0.64725 0.85506 0.51827 0.0
C1224 C 0.6423 0.8876 0.44175 0.0
C1225 C 0.65497 0.86858 0.42352 0.0
C1226 C 0.65099 0.86045 0.48564 0.0
C1227 C 0.66665 0.84629 0.43757 0.0
C1228 C 0.66028 0.8339 0.53299 0.0
C1229 C 0.62686 0.86806 0.5644 0.0
N1230 N 0.66421 0.84272 0.46777 0.0
N1231 N 0.63074 0.87113 0.53448 0.0
H1232 H 0.18433 0.56344 0.26434 0.0
H1233 H 0.13301 0.41267 0.28185 0.0
H1234 H 0.10949 0.53921 0.30421 0.0
H1235 H 0.19652 0.43419 0.22142 0.0
H1236 H 0.13146 0.45876 0.29969 0.0
H1237 H 0.1946 0.51607 0.2548 0.0
C1238 C 0.17004 0.54828 0.27089 0.0
C1239 C 0.14605 0.55537 0.28513 0.0
C1240 C 0.14615 0.45336 0.28294 0.0
C1241 C 0.15794 0.50148 0.27512 0.0
C1242 C 0.14732 0.42695 0.27321 0.0
C1243 C 0.16503 0.4198 0.2504 0.0
C1244 C 0.16255 0.47273 0.26938 0.0
C1245 C 0.18263 0.43915 0.23914 0.0
C1246 C 0.17601 0.52131 0.26571 0.0
C1247 C 0.12832 0.53486 0.29334 0.0
N1248 N 0.18075 0.46493 0.24846 0.0
N1249 N 0.13469 0.50898 0.28835 0.0
H1250 H 0.59275 0.13146 0.27702 0.0
H1251 H 0.44523 0.19096 0.2622 0.0
H1252 H 0.57473 0.2015 0.22483 0.0
H1253 H 0.46602 0.11796 0.30827 0.0
H1254 H 0.493 0.19936 0.25366 0.0
H1255 H 0.54734 0.13201 0.29695 0.0
C1256 C 0.57947 0.14764 0.27081 0.0
C1257 C 0.58734 0.16661 0.2496 0.0
C1258 C 0.48699 0.18161 0.26578 0.0
C1259 C 0.53497 0.16653 0.27068 0.0
C1260 C 0.45975 0.17668 0.27039 0.0
C1261 C 0.45154 0.15369 0.28587 0.0
C1262 C 0.50602 0.16342 0.27679 0.0
C1263 C 0.47127 0.13599 0.29625 0.0
C1264 C 0.55339 0.1477 0.28169 0.0
C1265 C 0.56925 0.18668 0.24138 0.0
N1266 N 0.49746 0.14124 0.29152 0.0
N1267 N 0.54365 0.18587 0.25153 0.0
H1268 H 0.79952 0.57119 0.22648 0.0
H1269 H 0.8928 0.46098 0.30018 0.0
H1270 H 0.87082 0.58795 0.27695 0.0
H1271 H 0.81481 0.44118 0.26532 0.0
H1272 H 0.88377 0.50773 0.29157 0.0
H1273 H 0.80218 0.5242 0.24224 0.0
C1274 C 0.81508 0.5651 0.24189 0.0
C1275 C 0.83476 0.5833 0.25093 0.0
C1276 C 0.86851 0.49331 0.28578 0.0
C1277 C 0.83858 0.52985 0.26795 0.0
C1278 C 0.87373 0.46644 0.29049 0.0
C1279 C 0.85448 0.44701 0.28356 0.0
C1280 C 0.8439 0.50115 0.27368 0.0
C1281 C 0.83026 0.45548 0.27084 0.0
C1282 C 0.81679 0.53831 0.25056 0.0
C1283 C 0.85499 0.57454 0.27009 0.0
N1284 N 0.82562 0.48203 0.26627 0.0
N1285 N 0.85655 0.54836 0.2777 0.0
H1286 H 0.55508 0.81465 0.26299 0.0
H1287 H 0.40695 0.87164 0.28337 0.0
H1288 H 0.53434 0.88877 0.30671 0.0
H1289 H 0.42499 0.80418 0.22716 0.0
H1290 H 0.45294 0.87137 0.30158 0.0
H1291 H 0.50723 0.80548 0.25605 0.0
C1292 C 0.54055 0.82901 0.27099 0.0
C1293 C 0.54879 0.85253 0.2854 0.0
C1294 C 0.44677 0.85617 0.28579 0.0
C1295 C 0.49428 0.84189 0.27822 0.0
C1296 C 0.42038 0.85603 0.2759 0.0
C1297 C 0.41234 0.83776 0.25406 0.0
C1298 C 0.46526 0.83823 0.2732 0.0
C1299 C 0.43062 0.81846 0.24421 0.0
C1300 C 0.51329 0.82365 0.26729 0.0
C1301 C 0.52907 0.87032 0.29555 0.0
N1302 N 0.45647 0.81945 0.25346 0.0
N1303 N 0.50285 0.86461 0.2918 0.0
H1304 H 0.85557 0.58186 0.74346 0.0
H1305 H 0.85238 0.42435 0.77282 0.0
H1306 H 0.85613 0.54699 0.83198 0.0
H1307 H 0.85959 0.45954 0.68482 0.0
H1308 H 0.85044 0.46886 0.79455 0.0
H1309 H 0.8537 0.53739 0.72185 0.0
C1310 C 0.85514 0.56488 0.7585 0.0
C1311 C 0.85604 0.56837 0.78977 0.0
C1312 C 0.85235 0.4669 0.77049 0.0
C1313 C 0.854 0.51692 0.76473 0.0
C1314 C 0.85342 0.4414 0.75793 0.0
C1315 C 0.8562 0.43801 0.72677 0.0
C1316 C 0.85404 0.48942 0.75191 0.0
C1317 C 0.85741 0.46106 0.70888 0.0
C1318 C 0.85413 0.53939 0.74599 0.0
C1319 C 0.85543 0.54538 0.80782 0.0
N1320 N 0.85639 0.48574 0.72171 0.0
N1321 N 0.85453 0.52066 0.79503 0.0
H1322 H 0.54926 0.86948 0.67778 0.0
H1323 H 0.46031 0.87307 0.82781 0.0
H1324 H 0.58156 0.8645 0.76728 0.0
H1325 H 0.42697 0.85868 0.74008 0.0
H1326 H 0.50494 0.8742 0.80531 0.0
H1327 H 0.504 0.87002 0.69948 0.0
C1328 C 0.54691 0.8686 0.70188 0.0
C1329 C 0.56937 0.86675 0.7206 0.0
C1330 C 0.48782 0.87074 0.79101 0.0
C1331 C 0.51777 0.86753 0.74558 0.0
C1332 C 0.46231 0.87005 0.80389 0.0
C1333 C 0.43973 0.86561 0.78597 0.0
C1334 C 0.49085 0.86722 0.7599 0.0
C1335 C 0.4437 0.86204 0.75495 0.0
C1336 C 0.5211 0.86883 0.71426 0.0
C1337 C 0.56501 0.8657 0.75177 0.0
N1338 N 0.46867 0.86299 0.74295 0.0
N1339 N 0.53988 0.86614 0.76317 0.0
H1340 H 0.12671 0.44844 0.83224 0.0
H1341 H 0.12485 0.54061 0.68445 0.0
H1342 H 0.13579 0.41806 0.7423 0.0
H1343 H 0.13525 0.57169 0.7739 0.0
H1344 H 0.12307 0.49531 0.70555 0.0
H1345 H 0.12419 0.49391 0.81149 0.0
C1346 C 0.1281 0.45124 0.80824 0.0
C1347 C 0.13171 0.42929 0.78913 0.0
C1348 C 0.12569 0.51213 0.72051 0.0
C1349 C 0.1286 0.48115 0.76519 0.0
C1350 C 0.12665 0.53798 0.70844 0.0
C1351 C 0.13046 0.56007 0.72728 0.0
C1352 C 0.12826 0.50834 0.75166 0.0
C1353 C 0.13257 0.55535 0.75833 0.0
C1354 C 0.12669 0.47719 0.79638 0.0
C1355 C 0.13326 0.43423 0.75809 0.0
N1356 N 0.13146 0.53012 0.76947 0.0
N1357 N 0.13169 0.4595 0.74718 0.0
H1358 H 0.46191 0.14246 0.67622 0.0
H1359 H 0.55348 0.14822 0.82423 0.0
H1360 H 0.43059 0.15715 0.76485 0.0
H1361 H 0.58352 0.13345 0.73504 0.0
H1362 H 0.50829 0.15235 0.80319 0.0
H1363 H 0.50695 0.14068 0.69749 0.0
C1364 C 0.46446 0.14558 0.70006 0.0
C1365 C 0.44229 0.1499 0.71867 0.0
C1366 C 0.52486 0.14823 0.7883 0.0
C1367 C 0.49389 0.14762 0.74333 0.0
C1368 C 0.55065 0.1458 0.80034 0.0
C1369 C 0.57249 0.14054 0.7815 0.0
C1370 C 0.52088 0.14537 0.75722 0.0
C1371 C 0.56748 0.13762 0.75062 0.0
C1372 C 0.4902 0.14443 0.71226 0.0
C1373 C 0.44697 0.15368 0.74951 0.0
N1374 N 0.54236 0.14009 0.73955 0.0
N1375 N 0.47215 0.15235 0.76083 0.0
H1376 H 0.69234 0.06737 0.74882 0.0
H1377 H 0.63269 0.92149 0.77642 0.0
H1378 H 0.63072 0.04845 0.81325 0.0
H1379 H 0.69896 0.93644 0.71726 0.0
H1380 H 0.63563 0.96748 0.79443 0.0
H1381 H 0.69793 0.01936 0.73927 0.0
C1382 C 0.68005 0.05322 0.76095 0.0
C1383 C 0.66096 0.06206 0.78174 0.0
C1384 C 0.64993 0.96067 0.77792 0.0
C1385 C 0.66741 0.00729 0.77122 0.0
C1386 C 0.64845 0.93431 0.76802 0.0
C1387 C 0.66576 0.92536 0.74564 0.0
C1388 C 0.66849 0.97826 0.76478 0.0
C1389 C 0.68533 0.94282 0.73466 0.0
C1390 C 0.68336 0.02584 0.75565 0.0
C1391 C 0.64569 0.04276 0.79696 0.0
N1392 N 0.68597 0.96864 0.74402 0.0
N1393 N 0.64919 0.01644 0.79131 0.0
H1394 H 0.95249 0.61314 0.81145 0.0
H1395 H 0.06799 0.69402 0.72961 0.0
H1396 H 0.9377 0.68795 0.7661 0.0
H1397 H 0.07999 0.62278 0.78195 0.0
H1398 H 0.0215 0.69591 0.74706 0.0
H1399 H 0.99986 0.61901 0.80363 0.0
C1400 C 0.95918 0.63086 0.7997 0.0
C1401 C 0.94095 0.65012 0.78943 0.0
C1402 C 0.03451 0.68032 0.75543 0.0
C1403 C 0.99579 0.65695 0.78028 0.0
C1404 C 0.06105 0.67944 0.74578 0.0
C1405 C 0.07767 0.6584 0.75476 0.0
C1406 C 0.0247 0.65978 0.77385 0.0
C1407 C 0.06782 0.63957 0.77504 0.0
C1408 C 0.9864 0.63426 0.79539 0.0
C1409 C 0.95101 0.67253 0.77424 0.0
N1410 N 0.04186 0.64052 0.78364 0.0
N1411 N 0.97784 0.67531 0.77001 0.0
H1412 H 0.32027 0.07426 0.75071 0.0
H1413 H 0.38574 0.92861 0.73931 0.0
H1414 H 0.39757 0.05639 0.71264 0.0
H1415 H 0.31422 0.94379 0.79012 0.0
H1416 H 0.38567 0.975 0.72242 0.0
H1417 H 0.31429 0.02638 0.76143 0.0
C1418 C 0.33605 0.06038 0.74495 0.0
C1419 C 0.35941 0.06932 0.73074 0.0
C1420 C 0.36966 0.96819 0.73685 0.0
C1421 C 0.35248 0.01487 0.74215 0.0
C1422 C 0.36954 0.94165 0.74604 0.0
C1423 C 0.34977 0.93261 0.76563 0.0
C1424 C 0.35016 0.98586 0.7479 0.0
C1425 C 0.32954 0.95022 0.77457 0.0
C1426 C 0.33252 0.0331 0.75076 0.0
C1427 C 0.37913 0.05047 0.72346 0.0
N1428 N 0.33039 0.97625 0.76591 0.0
N1429 N 0.37515 0.02424 0.72913 0.0
H1430 H 0.08031 0.36779 0.733 0.0
H1431 H 0.93111 0.31267 0.75161 0.0
H1432 H 0.0612 0.30182 0.79111 0.0
H1433 H 0.95276 0.38922 0.71407 0.0
H1434 H 0.9788 0.30338 0.76004 0.0
H1435 H 0.03386 0.36913 0.71642 0.0
C1436 C 0.06649 0.35288 0.74131 0.0
C1437 C 0.07444 0.33448 0.76309 0.0
C1438 C 0.97294 0.32216 0.74994 0.0
C1439 C 0.0211 0.33674 0.74567 0.0
C1440 C 0.94579 0.32758 0.74542 0.0
C1441 C 0.93791 0.35173 0.73208 0.0
C1442 C 0.99217 0.34096 0.74081 0.0
C1443 C 0.9578 0.37025 0.72426 0.0
C1444 C 0.03988 0.35394 0.73234 0.0
C1445 C 0.05565 0.31617 0.77407 0.0
N1446 N 0.98391 0.36441 0.72859 0.0
N1447 N 0.02965 0.31794 0.76553 0.0
H1448 H 0.3764 0.07852 0.24007 0.0
H1449 H 0.34545 0.92438 0.27022 0.0
H1450 H 0.36421 0.04579 0.32855 0.0
H1451 H 0.37355 0.95403 0.18497 0.0
H1452 H 0.34949 0.96904 0.29101 0.0
H1453 H 0.37278 0.03381 0.21908 0.0
C1454 C 0.37294 0.06197 0.25521 0.0
C1455 C 0.37058 0.06611 0.2863 0.0
C1456 C 0.35479 0.96585 0.26777 0.0
C1457 C 0.36633 0.01448 0.26201 0.0
C1458 C 0.35243 0.94026 0.25572 0.0
C1459 C 0.35914 0.93523 0.2256 0.0
C1460 C 0.36376 0.98691 0.24969 0.0
C1461 C 0.36809 0.95685 0.20822 0.0
C1462 C 0.37094 0.03635 0.24308 0.0
C1463 C 0.36615 0.04367 0.30452 0.0
N1464 N 0.37007 0.98173 0.22049 0.0
N1465 N 0.36408 0.01887 0.2921 0.0
H1466 H 0.96178 0.36435 0.33093 0.0
H1467 H 0.05214 0.37209 0.18235 0.0
H1468 H 0.92824 0.3697 0.24202 0.0
H1469 H 0.08161 0.34812 0.26924 0.0
H1470 H 0.00685 0.37457 0.20369 0.0
H1471 H 0.00642 0.36177 0.30867 0.0
C1472 C 0.96374 0.36493 0.30677 0.0
C1473 C 0.94109 0.36716 0.28843 0.0
C1474 C 0.02333 0.36871 0.21796 0.0
C1475 C 0.99229 0.36444 0.26269 0.0
C1476 C 0.04917 0.36729 0.20577 0.0
C1477 C 0.07089 0.35984 0.22387 0.0
C1478 C 0.01922 0.36291 0.2485 0.0
C1479 C 0.0657 0.35395 0.2542 0.0
C1480 C 0.98926 0.36345 0.29403 0.0
C1481 C 0.94502 0.36792 0.25717 0.0
N1482 N 0.04058 0.35571 0.26547 0.0
N1483 N 0.97005 0.36665 0.24534 0.0
H1484 H 0.62299 0.92694 0.23664 0.0
H1485 H 0.65537 0.08133 0.26192 0.0
H1486 H 0.63661 0.96156 0.32388 0.0
H1487 H 0.62376 0.05093 0.17864 0.0
H1488 H 0.65176 0.03705 0.28366 0.0
H1489 H 0.62618 0.97124 0.21431 0.0
C1490 C 0.62669 0.94382 0.25122 0.0
C1491 C 0.62957 0.94033 0.28237 0.0
C1492 C 0.64558 0.03998 0.26064 0.0
C1493 C 0.63335 0.99145 0.25653 0.0
C1494 C 0.64771 0.06536 0.24802 0.0
C1495 C 0.63987 0.0701 0.21818 0.0
C1496 C 0.63573 0.01878 0.24343 0.0
C1497 C 0.6301 0.04833 0.20163 0.0
C1498 C 0.62843 0.96919 0.23832 0.0
C1499 C 0.63427 0.96316 0.29984 0.0
N1500 N 0.62838 0.02362 0.21445 0.0
N1501 N 0.63611 0.98768 0.28668 0.0
H1502 H 0.07093 0.63173 0.24098 0.0
H1503 H 0.91577 0.65788 0.26963 0.0
H1504 H 0.03552 0.63799 0.32891 0.0
H1505 H 0.94601 0.63268 0.18352 0.0
H1506 H 0.96034 0.65453 0.29025 0.0
H1507 H 0.02653 0.63553 0.21869 0.0
C1508 C 0.05386 0.63395 0.25569 0.0
C1509 C 0.05711 0.63456 0.28702 0.0
C1510 C 0.95735 0.64972 0.26684 0.0
C1511 C 0.00604 0.63904 0.26134 0.0
C1512 C 0.93176 0.6517 0.25486 0.0
C1513 C 0.92685 0.64551 0.22459 0.0
C1514 C 0.97862 0.64164 0.2486 0.0
C1515 C 0.94874 0.6377 0.2069 0.0
C1516 C 0.02847 0.63604 0.24284 0.0
C1517 C 0.03411 0.63742 0.30472 0.0
N1518 N 0.97369 0.63601 0.21916 0.0
N1519 N 0.00964 0.63964 0.29164 0.0
loop_
_geom_bond_atom_site_label_1
_geom_bond_atom_site_label_2
_geom_bond_distance
_geom_bond_site_symmetry_2
_ccdc_geom_bond_type
Co0 O2 2.143 . S
Co0 O8 2.074 . S
Co0 O11 2.093 . S
Co0 O24 2.097 . S
Co0 N41 2.151 . S
Co0 N49 2.214 . S
Co1 O2 2.160 . S
Co1 O7 2.058 . S
Co1 O17 2.057 . S
Co1 O32 2.037 . S
Co1 N36 2.145 . S
Co1 N57 2.257 . S
O2 Co0 2.143 . S
O2 Co1 2.160 . S
C3 O4 1.278 . S
C3 O11 1.224 . S
O4 C3 1.278 . S
C5 O6 1.245 . S
C5 O17 1.232 . S
O6 C5 1.245 . S
O7 Co1 2.058 . S
O7 C33 1.269 . S
O8 Co0 2.074 . S
O8 C33 1.257 . S
H9 C34 0.930 . S
H10 C40 0.930 . S
O11 Co0 2.093 . S
O11 C3 1.224 . S
H12 C44 0.929 . S
H13 C46 0.930 . S
H14 C47 0.930 . S
H15 C45 0.929 . S
H16 C48 0.928 . S
O17 Co1 2.057 . S
O17 C5 1.232 . S
H18 C37 0.929 . S
H19 C38 0.929 . S
H20 C50 0.931 . S
H21 C42 0.929 . S
H22 C51 0.930 . S
H23 C43 0.931 . S
O24 Co0 2.097 . S
O24 C52 1.214 . S
H25 C53 0.929 . S
H26 C54 0.929 . S
H27 C55 0.930 . S
H28 C56 0.929 . S
H29 C58 0.930 . S
H30 C35 0.930 . S
H31 C39 0.930 . S
O32 Co1 2.037 . S
O32 C52 1.234 . S
C33 O7 1.269 . S
C33 O8 1.257 . S
C34 H9 0.930 . S
C34 C37 1.388 . S
C34 C39 1.418 . S
C35 H30 0.930 . S
C35 C38 1.404 . S
C35 C39 1.353 . S
N36 Co1 2.145 . S
N36 C37 1.397 . S
N36 C38 1.334 . S
C37 H18 0.929 . S
C37 C34 1.388 . S
C37 N36 1.397 . S
C38 H19 0.929 . S
C38 C35 1.404 . S
C38 N36 1.334 . S
C39 H31 0.930 . S
C39 C34 1.418 . S
C39 C35 1.353 . S
C40 H10 0.930 . S
C40 N41 1.330 . S
C40 C42 1.446 . S
N41 Co0 2.151 . S
N41 C40 1.330 . S
N41 C45 1.418 . S
C42 H21 0.929 . S
C42 C40 1.446 . S
C42 C43 1.332 . S
C43 H23 0.931 . S
C43 C42 1.332 . S
C43 C44 1.267 . S
C44 H12 0.929 . S
C44 C43 1.267 . S
C44 C45 1.251 . S
C45 H15 0.929 . S
C45 N41 1.418 . S
C45 C44 1.251 . S
C46 H13 0.930 . S
C46 C48 1.406 . S
C46 C51 1.261 . S
C47 H14 0.930 . S
C47 N49 1.325 . S
C47 C50 1.357 . S
C48 H16 0.928 . S
C48 C46 1.406 . S
C48 N49 1.261 . S
N49 Co0 2.214 . S
N49 C47 1.325 . S
N49 C48 1.261 . S
C50 H20 0.931 . S
C50 C47 1.357 . S
C50 C51 1.312 . S
C51 H22 0.930 . S
C51 C46 1.261 . S
C51 C50 1.312 . S
C52 O24 1.214 . S
C52 O32 1.234 . S
C53 H25 0.929 . S
C53 C56 1.391 . S
C53 C58 1.391 . S
C54 H26 0.929 . S
C54 C55 1.390 . S
C54 N57 1.391 . S
C55 H27 0.930 . S
C55 C54 1.390 . S
C55 C56 1.392 . S
C56 H28 0.929 . S
C56 C53 1.391 . S
C56 C55 1.392 . S
N57 Co1 2.257 . S
N57 C54 1.391 . S
N57 C58 1.388 . S
C58 H29 0.930 . S
C58 C53 1.391 . S
C58 N57 1.388 . S
Co59 O61 2.143 . S
Co59 O67 2.074 . S
Co59 O70 2.093 . S
Co59 O83 2.097 . S
Co59 N100 2.151 . S
Co59 N108 2.214 . S
Co60 O61 2.160 . S
Co60 O66 2.058 . S
Co60 O76 2.057 . S
Co60 O91 2.037 . S
Co60 N95 2.145 . S
Co60 N116 2.257 . S
O61 Co59 2.143 . S
O61 Co60 2.160 . S
C62 O63 1.278 . S
C62 O70 1.224 . S
O63 C62 1.278 . S
C64 O65 1.245 . S
C64 O76 1.232 . S
O65 C64 1.245 . S
O66 Co60 2.058 . S
O66 C92 1.269 . S
O67 Co59 2.074 . S
O67 C92 1.257 . S
H68 C93 0.930 . S
H69 C99 0.930 . S
O70 Co59 2.093 . S
O70 C62 1.224 . S
H71 C103 0.929 . S
H72 C105 0.930 . S
H73 C106 0.930 . S
H74 C104 0.929 . S
H75 C107 0.928 . S
O76 Co60 2.057 . S
O76 C64 1.232 . S
H77 C96 0.929 . S
H78 C97 0.929 . S
H79 C109 0.931 . S
H80 C101 0.929 . S
H81 C110 0.930 . S
H82 C102 0.931 . S
O83 Co59 2.097 . S
O83 C111 1.214 . S
H84 C112 0.929 . S
H85 C113 0.929 . S
H86 C114 0.930 . S
H87 C115 0.929 . S
H88 C117 0.930 . S
H89 C94 0.930 . S
H90 C98 0.930 . S
O91 Co60 2.037 . S
O91 C111 1.234 . S
C92 O66 1.269 . S
C92 O67 1.257 . S
C93 H68 0.930 . S
C93 C96 1.388 . S
C93 C98 1.418 . S
C94 H89 0.930 . S
C94 C97 1.404 . S
C94 C98 1.353 . S
N95 Co60 2.145 . S
N95 C96 1.397 . S
N95 C97 1.334 . S
C96 H77 0.929 . S
C96 C93 1.388 . S
C96 N95 1.397 . S
C97 H78 0.929 . S
C97 C94 1.404 . S
C97 N95 1.334 . S
C98 H90 0.930 . S
C98 C93 1.418 . S
C98 C94 1.353 . S
C99 H69 0.930 . S
C99 N100 1.330 . S
C99 C101 1.446 . S
N100 Co59 2.151 . S
N100 C99 1.330 . S
N100 C104 1.418 . S
C101 H80 0.929 . S
C101 C99 1.446 . S
C101 C102 1.332 . S
C102 H82 0.931 . S
C102 C101 1.332 . S
C102 C103 1.267 . S
C103 H71 0.929 . S
C103 C102 1.267 . S
C103 C104 1.251 . S
C104 H74 0.929 . S
C104 N100 1.418 . S
C104 C103 1.251 . S
C105 H72 0.930 . S
C105 C107 1.406 . S
C105 C110 1.261 . S
C106 H73 0.930 . S
C106 N108 1.325 . S
C106 C109 1.357 . S
C107 H75 0.928 . S
C107 C105 1.406 . S
C107 N108 1.261 . S
N108 Co59 2.214 . S
N108 C106 1.325 . S
N108 C107 1.261 . S
C109 H79 0.931 . S
C109 C106 1.357 . S
C109 C110 1.312 . S
C110 H81 0.930 . S
C110 C105 1.261 . S
C110 C109 1.312 . S
C111 O83 1.214 . S
C111 O91 1.234 . S
C112 H84 0.929 . S
C112 C115 1.391 . S
C112 C117 1.391 . S
C113 H85 0.929 . S
C113 C114 1.390 . S
C113 N116 1.391 . S
C114 H86 0.930 . S
C114 C113 1.390 . S
C114 C115 1.392 . S
C115 H87 0.929 . S
C115 C112 1.391 . S
C115 C114 1.392 . S
N116 Co60 2.257 . S
N116 C113 1.391 . S
N116 C117 1.388 . S
C117 H88 0.930 . S
C117 C112 1.391 . S
C117 N116 1.388 . S
Co118 O120 2.143 . S
Co118 O126 2.074 . S
Co118 O129 2.093 . S
Co118 O142 2.097 . S
Co118 N159 2.151 . S
Co118 N167 2.214 . S
Co119 O120 2.160 . S
Co119 O125 2.058 . S
Co119 O135 2.057 . S
Co119 O150 2.037 . S
Co119 N154 2.145 . S
Co119 N175 2.257 . S
O120 Co118 2.143 . S
O120 Co119 2.160 . S
C121 O122 1.278 . S
C121 O129 1.224 . S
O122 C121 1.278 . S
C123 O124 1.245 . S
C123 O135 1.232 . S
O124 C123 1.245 . S
O125 Co119 2.058 . S
O125 C151 1.269 . S
O126 Co118 2.074 . S
O126 C151 1.257 . S
H127 C152 0.930 . S
H128 C158 0.930 . S
O129 Co118 2.093 . S
O129 C121 1.224 . S
H130 C162 0.929 . S
H131 C164 0.930 . S
H132 C165 0.930 . S
H133 C163 0.929 . S
H134 C166 0.928 . S
O135 Co119 2.057 . S
O135 C123 1.232 . S
H136 C155 0.929 . S
H137 C156 0.929 . S
H138 C168 0.931 . S
H139 C160 0.929 . S
H140 C169 0.930 . S
H141 C161 0.931 . S
O142 Co118 2.097 . S
O142 C170 1.214 . S
H143 C171 0.929 . S
H144 C172 0.929 . S
H145 C173 0.930 . S
H146 C174 0.929 . S
H147 C176 0.930 . S
H148 C153 0.930 . S
H149 C157 0.930 . S
O150 Co119 2.037 . S
O150 C170 1.234 . S
C151 O125 1.269 . S
C151 O126 1.257 . S
C152 H127 0.930 . S
C152 C155 1.388 . S
C152 C157 1.418 . S
C153 H148 0.930 . S
C153 C156 1.404 . S
C153 C157 1.353 . S
N154 Co119 2.145 . S
N154 C155 1.397 . S
N154 C156 1.334 . S
C155 H136 0.929 . S
C155 C152 1.388 . S
C155 N154 1.397 . S
C156 H137 0.929 . S
C156 C153 1.404 . S
C156 N154 1.334 . S
C157 H149 0.930 . S
C157 C152 1.418 . S
C157 C153 1.353 . S
C158 H128 0.930 . S
C158 N159 1.330 . S
C158 C160 1.446 . S
N159 Co118 2.151 . S
N159 C158 1.330 . S
N159 C163 1.418 . S
C160 H139 0.929 . S
C160 C158 1.446 . S
C160 C161 1.332 . S
C161 H141 0.931 . S
C161 C160 1.332 . S
C161 C162 1.267 . S
C162 H130 0.929 . S
C162 C161 1.267 . S
C162 C163 1.251 . S
C163 H133 0.929 . S
C163 N159 1.418 . S
C163 C162 1.251 . S
C164 H131 0.930 . S
C164 C166 1.406 . S
C164 C169 1.261 . S
C165 H132 0.930 . S
C165 N167 1.325 . S
C165 C168 1.357 . S
C166 H134 0.928 . S
C166 C164 1.406 . S
C166 N167 1.261 . S
N167 Co118 2.214 . S
N167 C165 1.325 . S
N167 C166 1.261 . S
C168 H138 0.931 . S
C168 C165 1.357 . S
C168 C169 1.312 . S
C169 H140 0.930 . S
C169 C164 1.261 . S
C169 C168 1.312 . S
C170 O142 1.214 . S
C170 O150 1.234 . S
C171 H143 0.929 . S
C171 C174 1.391 . S
C171 C176 1.391 . S
C172 H144 0.929 . S
C172 C173 1.390 . S
C172 N175 1.391 . S
C173 H145 0.930 . S
C173 C172 1.390 . S
C173 C174 1.392 . S
C174 H146 0.929 . S
C174 C171 1.391 . S
C174 C173 1.392 . S
N175 Co119 2.257 . S
N175 C172 1.391 . S
N175 C176 1.388 . S
C176 H147 0.930 . S
C176 C171 1.391 . S
C176 N175 1.388 . S
Co177 O179 2.143 . S
Co177 O185 2.074 . S
Co177 O188 2.093 . S
Co177 O201 2.097 . S
Co177 N218 2.151 . S
Co177 N226 2.214 . S
Co178 O179 2.160 . S
Co178 O184 2.058 . S
Co178 O194 2.057 . S
Co178 O209 2.037 . S
Co178 N213 2.145 . S
Co178 N234 2.257 . S
O179 Co177 2.143 . S
O179 Co178 2.160 . S
C180 O181 1.278 . S
C180 O188 1.224 . S
O181 C180 1.278 . S
C182 O183 1.245 . S
C182 O194 1.232 . S
O183 C182 1.245 . S
O184 Co178 2.058 . S
O184 C210 1.269 . S
O185 Co177 2.074 . S
O185 C210 1.257 . S
H186 C211 0.930 . S
H187 C217 0.930 . S
O188 Co177 2.093 . S
O188 C180 1.224 . S
H189 C221 0.929 . S
H190 C223 0.930 . S
H191 C224 0.930 . S
H192 C222 0.929 . S
H193 C225 0.928 . S
O194 Co178 2.057 . S
O194 C182 1.232 . S
H195 C214 0.929 . S
H196 C215 0.929 . S
H197 C227 0.931 . S
H198 C219 0.929 . S
H199 C228 0.930 . S
H200 C220 0.931 . S
O201 Co177 2.097 . S
O201 C229 1.214 . S
H202 C230 0.929 . S
H203 C231 0.929 . S
H204 C232 0.930 . S
H205 C233 0.929 . S
H206 C235 0.930 . S
H207 C212 0.930 . S
H208 C216 0.930 . S
O209 Co178 2.037 . S
O209 C229 1.234 . S
C210 O184 1.269 . S
C210 O185 1.257 . S
C211 H186 0.930 . S
C211 C214 1.388 . S
C211 C216 1.418 . S
C212 H207 0.930 . S
C212 C215 1.404 . S
C212 C216 1.353 . S
N213 Co178 2.145 . S
N213 C214 1.397 . S
N213 C215 1.334 . S
C214 H195 0.929 . S
C214 C211 1.388 . S
C214 N213 1.397 . S
C215 H196 0.929 . S
C215 C212 1.404 . S
C215 N213 1.334 . S
C216 H208 0.930 . S
C216 C211 1.418 . S
C216 C212 1.353 . S
C217 H187 0.930 . S
C217 N218 1.330 . S
C217 C219 1.446 . S
N218 Co177 2.151 . S
N218 C217 1.330 . S
N218 C222 1.418 . S
C219 H198 0.929 . S
C219 C217 1.446 . S
C219 C220 1.332 . S
C220 H200 0.931 . S
C220 C219 1.332 . S
C220 C221 1.267 . S
C221 H189 0.929 . S
C221 C220 1.267 . S
C221 C222 1.251 . S
C222 H192 0.929 . S
C222 N218 1.418 . S
C222 C221 1.251 . S
C223 H190 0.930 . S
C223 C225 1.406 . S
C223 C228 1.261 . S
C224 H191 0.930 . S
C224 N226 1.325 . S
C224 C227 1.357 . S
C225 H193 0.928 . S
C225 C223 1.406 . S
C225 N226 1.261 . S
N226 Co177 2.214 . S
N226 C224 1.325 . S
N226 C225 1.261 . S
C227 H197 0.931 . S
C227 C224 1.357 . S
C227 C228 1.312 . S
C228 H199 0.930 . S
C228 C223 1.261 . S
C228 C227 1.312 . S
C229 O201 1.214 . S
C229 O209 1.234 . S
C230 H202 0.929 . S
C230 C233 1.391 . S
C230 C235 1.391 . S
C231 H203 0.929 . S
C231 C232 1.390 . S
C231 N234 1.391 . S
C232 H204 0.930 . S
C232 C231 1.390 . S
C232 C233 1.392 . S
C233 H205 0.929 . S
C233 C230 1.391 . S
C233 C232 1.392 . S
N234 Co178 2.257 . S
N234 C231 1.391 . S
N234 C235 1.388 . S
C235 H206 0.930 . S
C235 C230 1.391 . S
C235 N234 1.388 . S
Co236 O238 2.143 . S
Co236 O244 2.074 . S
Co236 O247 2.093 . S
Co236 O260 2.097 . S
Co236 N277 2.151 . S
Co236 N285 2.214 . S
Co237 O238 2.160 . S
Co237 O243 2.058 . S
Co237 O253 2.057 . S
Co237 O268 2.037 . S
Co237 N272 2.145 . S
Co237 N293 2.257 . S
O238 Co236 2.143 . S
O238 Co237 2.160 . S
C239 O240 1.278 . S
C239 O247 1.224 . S
O240 C239 1.278 . S
C241 O242 1.245 . S
C241 O253 1.232 . S
O242 C241 1.245 . S
O243 Co237 2.058 . S
O243 C269 1.269 . S
O244 Co236 2.074 . S
O244 C269 1.257 . S
H245 C270 0.930 . S
H246 C276 0.930 . S
O247 Co236 2.093 . S
O247 C239 1.224 . S
H248 C280 0.929 . S
H249 C282 0.930 . S
H250 C283 0.930 . S
H251 C281 0.929 . S
H252 C284 0.928 . S
O253 Co237 2.057 . S
O253 C241 1.232 . S
H254 C273 0.929 . S
H255 C274 0.929 . S
H256 C286 0.931 . S
H257 C278 0.929 . S
H258 C287 0.930 . S
H259 C279 0.931 . S
O260 Co236 2.097 . S
O260 C288 1.214 . S
H261 C289 0.929 . S
H262 C290 0.929 . S
H263 C291 0.930 . S
H264 C292 0.929 . S
H265 C294 0.930 . S
H266 C271 0.930 . S
H267 C275 0.930 . S
O268 Co237 2.037 . S
O268 C288 1.234 . S
C269 O243 1.269 . S
C269 O244 1.257 . S
C270 H245 0.930 . S
C270 C273 1.388 . S
C270 C275 1.418 . S
C271 H266 0.930 . S
C271 C274 1.404 . S
C271 C275 1.353 . S
N272 Co237 2.145 . S
N272 C273 1.397 . S
N272 C274 1.334 . S
C273 H254 0.929 . S
C273 C270 1.388 . S
C273 N272 1.397 . S
C274 H255 0.929 . S
C274 C271 1.404 . S
C274 N272 1.334 . S
C275 H267 0.930 . S
C275 C270 1.418 . S
C275 C271 1.353 . S
C276 H246 0.930 . S
C276 N277 1.330 . S
C276 C278 1.446 . S
N277 Co236 2.151 . S
N277 C276 1.330 . S
N277 C281 1.418 . S
C278 H257 0.929 . S
C278 C276 1.446 . S
C278 C279 1.332 . S
C279 H259 0.931 . S
C279 C278 1.332 . S
C279 C280 1.267 . S
C280 H248 0.929 . S
C280 C279 1.267 . S
C280 C281 1.251 . S
C281 H251 0.929 . S
C281 N277 1.418 . S
C281 C280 1.251 . S
C282 H249 0.930 . S
C282 C284 1.406 . S
C282 C287 1.261 . S
C283 H250 0.930 . S
C283 N285 1.325 . S
C283 C286 1.357 . S
C284 H252 0.928 . S
C284 C282 1.406 . S
C284 N285 1.261 . S
N285 Co236 2.214 . S
N285 C283 1.325 . S
N285 C284 1.261 . S
C286 H256 0.931 . S
C286 C283 1.357 . S
C286 C287 1.312 . S
C287 H258 0.930 . S
C287 C282 1.261 . S
C287 C286 1.312 . S
C288 O260 1.214 . S
C288 O268 1.234 . S
C289 H261 0.929 . S
C289 C292 1.391 . S
C289 C294 1.391 . S
C290 H262 0.929 . S
C290 C291 1.390 . S
C290 N293 1.391 . S
C291 H263 0.930 . S
C291 C290 1.390 . S
C291 C292 1.392 . S
C292 H264 0.929 . S
C292 C289 1.391 . S
C292 C291 1.392 . S
N293 Co237 2.257 . S
N293 C290 1.391 . S
N293 C294 1.388 . S
C294 H265 0.930 . S
C294 C289 1.391 . S
C294 N293 1.388 . S
Co295 O297 2.143 . S
Co295 O303 2.074 . S
Co295 O306 2.093 . S
Co295 O319 2.097 . S
Co295 N336 2.151 . S
Co295 N344 2.214 . S
Co296 O297 2.160 . S
Co296 O302 2.058 . S
Co296 O312 2.057 . S
Co296 O327 2.037 . S
Co296 N331 2.145 . S
Co296 N352 2.257 . S
O297 Co295 2.143 . S
O297 Co296 2.160 . S
C298 O299 1.278 . S
C298 O306 1.224 . S
O299 C298 1.278 . S
C300 O301 1.245 . S
C300 O312 1.232 . S
O301 C300 1.245 . S
O302 Co296 2.058 . S
O302 C328 1.269 . S
O303 Co295 2.074 . S
O303 C328 1.257 . S
H304 C329 0.930 . S
H305 C335 0.930 . S
O306 Co295 2.093 . S
O306 C298 1.224 . S
H307 C339 0.929 . S
H308 C341 0.930 . S
H309 C342 0.930 . S
H310 C340 0.929 . S
H311 C343 0.928 . S
O312 Co296 2.057 . S
O312 C300 1.232 . S
H313 C332 0.929 . S
H314 C333 0.929 . S
H315 C345 0.931 . S
H316 C337 0.929 . S
H317 C346 0.930 . S
H318 C338 0.931 . S
O319 Co295 2.097 . S
O319 C347 1.214 . S
H320 C348 0.929 . S
H321 C349 0.929 . S
H322 C350 0.930 . S
H323 C351 0.929 . S
H324 C353 0.930 . S
H325 C330 0.930 . S
H326 C334 0.930 . S
O327 Co296 2.037 . S
O327 C347 1.234 . S
C328 O302 1.269 . S
C328 O303 1.257 . S
C329 H304 0.930 . S
C329 C332 1.388 . S
C329 C334 1.418 . S
C330 H325 0.930 . S
C330 C333 1.404 . S
C330 C334 1.353 . S
N331 Co296 2.145 . S
N331 C332 1.397 . S
N331 C333 1.334 . S
C332 H313 0.929 . S
C332 C329 1.388 . S
C332 N331 1.397 . S
C333 H314 0.929 . S
C333 C330 1.404 . S
C333 N331 1.334 . S
C334 H326 0.930 . S
C334 C329 1.418 . S
C334 C330 1.353 . S
C335 H305 0.930 . S
C335 N336 1.330 . S
C335 C337 1.446 . S
N336 Co295 2.151 . S
N336 C335 1.330 . S
N336 C340 1.418 . S
C337 H316 0.929 . S
C337 C335 1.446 . S
C337 C338 1.332 . S
C338 H318 0.931 . S
C338 C337 1.332 . S
C338 C339 1.267 . S
C339 H307 0.929 . S
C339 C338 1.267 . S
C339 C340 1.251 . S
C340 H310 0.929 . S
C340 N336 1.418 . S
C340 C339 1.251 . S
C341 H308 0.930 . S
C341 C343 1.406 . S
C341 C346 1.261 . S
C342 H309 0.930 . S
C342 N344 1.325 . S
C342 C345 1.357 . S
C343 H311 0.928 . S
C343 C341 1.406 . S
C343 N344 1.261 . S
N344 Co295 2.214 . S
N344 C342 1.325 . S
N344 C343 1.261 . S
C345 H315 0.931 . S
C345 C342 1.357 . S
C345 C346 1.312 . S
C346 H317 0.930 . S
C346 C341 1.261 . S
C346 C345 1.312 . S
C347 O319 1.214 . S
C347 O327 1.234 . S
C348 H320 0.929 . S
C348 C351 1.391 . S
C348 C353 1.391 . S
C349 H321 0.929 . S
C349 C350 1.390 . S
C349 N352 1.391 . S
C350 H322 0.930 . S
C350 C349 1.390 . S
C350 C351 1.392 . S
C351 H323 0.929 . S
C351 C348 1.391 . S
C351 C350 1.392 . S
N352 Co296 2.257 . S
N352 C349 1.391 . S
N352 C353 1.388 . S
C353 H324 0.930 . S
C353 C348 1.391 . S
C353 N352 1.388 . S
Co354 O356 2.143 . S
Co354 O362 2.074 . S
Co354 O365 2.093 . S
Co354 O378 2.097 . S
Co354 N395 2.151 . S
Co354 N403 2.214 . S
Co355 O356 2.160 . S
Co355 O361 2.058 . S
Co355 O371 2.057 . S
Co355 O386 2.037 . S
Co355 N390 2.145 . S
Co355 N411 2.257 . S
O356 Co354 2.143 . S
O356 Co355 2.160 . S
C357 O358 1.278 . S
C357 O365 1.224 . S
O358 C357 1.278 . S
C359 O360 1.245 . S
C359 O371 1.232 . S
O360 C359 1.245 . S
O361 Co355 2.058 . S
O361 C387 1.269 . S
O362 Co354 2.074 . S
O362 C387 1.257 . S
H363 C388 0.930 . S
H364 C394 0.930 . S
O365 Co354 2.093 . S
O365 C357 1.224 . S
H366 C398 0.929 . S
H367 C400 0.930 . S
H368 C401 0.930 . S
H369 C399 0.929 . S
H370 C402 0.928 . S
O371 Co355 2.057 . S
O371 C359 1.232 . S
H372 C391 0.929 . S
H373 C392 0.929 . S
H374 C404 0.931 . S
H375 C396 0.929 . S
H376 C405 0.930 . S
H377 C397 0.931 . S
O378 Co354 2.097 . S
O378 C406 1.214 . S
H379 C407 0.929 . S
H380 C408 0.929 . S
H381 C409 0.930 . S
H382 C410 0.929 . S
H383 C412 0.930 . S
H384 C389 0.930 . S
H385 C393 0.930 . S
O386 Co355 2.037 . S
O386 C406 1.234 . S
C387 O361 1.269 . S
C387 O362 1.257 . S
C388 H363 0.930 . S
C388 C391 1.388 . S
C388 C393 1.418 . S
C389 H384 0.930 . S
C389 C392 1.404 . S
C389 C393 1.353 . S
N390 Co355 2.145 . S
N390 C391 1.397 . S
N390 C392 1.334 . S
C391 H372 0.929 . S
C391 C388 1.388 . S
C391 N390 1.397 . S
C392 H373 0.929 . S
C392 C389 1.404 . S
C392 N390 1.334 . S
C393 H385 0.930 . S
C393 C388 1.418 . S
C393 C389 1.353 . S
C394 H364 0.930 . S
C394 N395 1.330 . S
C394 C396 1.446 . S
N395 Co354 2.151 . S
N395 C394 1.330 . S
N395 C399 1.418 . S
C396 H375 0.929 . S
C396 C394 1.446 . S
C396 C397 1.332 . S
C397 H377 0.931 . S
C397 C396 1.332 . S
C397 C398 1.267 . S
C398 H366 0.929 . S
C398 C397 1.267 . S
C398 C399 1.251 . S
C399 H369 0.929 . S
C399 N395 1.418 . S
C399 C398 1.251 . S
C400 H367 0.930 . S
C400 C402 1.406 . S
C400 C405 1.261 . S
C401 H368 0.930 . S
C401 N403 1.325 . S
C401 C404 1.357 . S
C402 H370 0.928 . S
C402 C400 1.406 . S
C402 N403 1.261 . S
N403 Co354 2.214 . S
N403 C401 1.325 . S
N403 C402 1.261 . S
C404 H374 0.931 . S
C404 C401 1.357 . S
C404 C405 1.312 . S
C405 H376 0.930 . S
C405 C400 1.261 . S
C405 C404 1.312 . S
C406 O378 1.214 . S
C406 O386 1.234 . S
C407 H379 0.929 . S
C407 C410 1.391 . S
C407 C412 1.391 . S
C408 H380 0.929 . S
C408 C409 1.390 . S
C408 N411 1.391 . S
C409 H381 0.930 . S
C409 C408 1.390 . S
C409 C410 1.392 . S
C410 H382 0.929 . S
C410 C407 1.391 . S
C410 C409 1.392 . S
N411 Co355 2.257 . S
N411 C408 1.391 . S
N411 C412 1.388 . S
C412 H383 0.930 . S
C412 C407 1.391 . S
C412 N411 1.388 . S
Co413 O415 2.143 . S
Co413 O421 2.074 . S
Co413 O424 2.093 . S
Co413 O437 2.097 . S
Co413 N454 2.151 . S
Co413 N462 2.214 . S
Co414 O415 2.160 . S
Co414 O420 2.058 . S
Co414 O430 2.057 . S
Co414 O445 2.037 . S
Co414 N449 2.145 . S
Co414 N470 2.257 . S
O415 Co413 2.143 . S
O415 Co414 2.160 . S
C416 O417 1.278 . S
C416 O424 1.224 . S
O417 C416 1.278 . S
C418 O419 1.245 . S
C418 O430 1.232 . S
O419 C418 1.245 . S
O420 Co414 2.058 . S
O420 C446 1.269 . S
O421 Co413 2.074 . S
O421 C446 1.257 . S
H422 C447 0.930 . S
H423 C453 0.930 . S
O424 Co413 2.093 . S
O424 C416 1.224 . S
H425 C457 0.929 . S
H426 C459 0.930 . S
H427 C460 0.930 . S
H428 C458 0.929 . S
H429 C461 0.928 . S
O430 Co414 2.057 . S
O430 C418 1.232 . S
H431 C450 0.929 . S
H432 C451 0.929 . S
H433 C463 0.931 . S
H434 C455 0.929 . S
H435 C464 0.930 . S
H436 C456 0.931 . S
O437 Co413 2.097 . S
O437 C465 1.214 . S
H438 C466 0.929 . S
H439 C467 0.929 . S
H440 C468 0.930 . S
H441 C469 0.929 . S
H442 C471 0.930 . S
H443 C448 0.930 . S
H444 C452 0.930 . S
O445 Co414 2.037 . S
O445 C465 1.234 . S
C446 O420 1.269 . S
C446 O421 1.257 . S
C447 H422 0.930 . S
C447 C450 1.388 . S
C447 C452 1.418 . S
C448 H443 0.930 . S
C448 C451 1.404 . S
C448 C452 1.353 . S
N449 Co414 2.145 . S
N449 C450 1.397 . S
N449 C451 1.334 . S
C450 H431 0.929 . S
C450 C447 1.388 . S
C450 N449 1.397 . S
C451 H432 0.929 . S
C451 C448 1.404 . S
C451 N449 1.334 . S
C452 H444 0.930 . S
C452 C447 1.418 . S
C452 C448 1.353 . S
C453 H423 0.930 . S
C453 N454 1.330 . S
C453 C455 1.446 . S
N454 Co413 2.151 . S
N454 C453 1.330 . S
N454 C458 1.418 . S
C455 H434 0.929 . S
C455 C453 1.446 . S
C455 C456 1.332 . S
C456 H436 0.931 . S
C456 C455 1.332 . S
C456 C457 1.267 . S
C457 H425 0.929 . S
C457 C456 1.267 . S
C457 C458 1.251 . S
C458 H428 0.929 . S
C458 N454 1.418 . S
C458 C457 1.251 . S
C459 H426 0.930 . S
C459 C461 1.406 . S
C459 C464 1.261 . S
C460 H427 0.930 . S
C460 N462 1.325 . S
C460 C463 1.357 . S
C461 H429 0.928 . S
C461 C459 1.406 . S
C461 N462 1.261 . S
N462 Co413 2.214 . S
N462 C460 1.325 . S
N462 C461 1.261 . S
C463 H433 0.931 . S
C463 C460 1.357 . S
C463 C464 1.312 . S
C464 H435 0.930 . S
C464 C459 1.261 . S
C464 C463 1.312 . S
C465 O437 1.214 . S
C465 O445 1.234 . S
C466 H438 0.929 . S
C466 C469 1.391 . S
C466 C471 1.391 . S
C467 H439 0.929 . S
C467 C468 1.390 . S
C467 N470 1.391 . S
C468 H440 0.930 . S
C468 C467 1.390 . S
C468 C469 1.392 . S
C469 H441 0.929 . S
C469 C466 1.391 . S
C469 C468 1.392 . S
N470 Co414 2.257 . S
N470 C467 1.391 . S
N470 C471 1.388 . S
C471 H442 0.930 . S
C471 C466 1.391 . S
C471 N470 1.388 . S
Co472 O474 2.143 . S
Co472 O480 2.074 . S
Co472 O483 2.093 . S
Co472 O496 2.097 . S
Co472 N513 2.151 . S
Co472 N521 2.214 . S
Co473 O474 2.160 . S
Co473 O479 2.058 . S
Co473 O489 2.057 . S
Co473 O504 2.037 . S
Co473 N508 2.145 . S
Co473 N529 2.257 . S
O474 Co472 2.143 . S
O474 Co473 2.160 . S
C475 O476 1.278 . S
C475 O483 1.224 . S
O476 C475 1.278 . S
C477 O478 1.245 . S
C477 O489 1.232 . S
O478 C477 1.245 . S
O479 Co473 2.058 . S
O479 C505 1.269 . S
O480 Co472 2.074 . S
O480 C505 1.257 . S
H481 C506 0.930 . S
H482 C512 0.930 . S
O483 Co472 2.093 . S
O483 C475 1.224 . S
H484 C516 0.929 . S
H485 C518 0.930 . S
H486 C519 0.930 . S
H487 C517 0.929 . S
H488 C520 0.928 . S
O489 Co473 2.057 . S
O489 C477 1.232 . S
H490 C509 0.929 . S
H491 C510 0.929 . S
H492 C522 0.931 . S
H493 C514 0.929 . S
H494 C523 0.896 1_455 S
H495 C515 0.931 . S
O496 Co472 2.097 . S
O496 C524 1.214 . S
H497 C525 0.929 . S
H498 C526 0.929 . S
H499 C527 0.930 . S
H500 C528 0.929 . S
H501 C530 0.930 . S
H502 C507 0.930 . S
H503 C511 0.930 . S
O504 Co473 2.037 . S
O504 C524 1.234 . S
C505 O479 1.269 . S
C505 O480 1.257 . S
C506 H481 0.930 . S
C506 C509 1.388 . S
C506 C511 1.418 . S
C507 H502 0.930 . S
C507 C510 1.404 . S
C507 C511 1.353 . S
N508 Co473 2.145 . S
N508 C509 1.397 . S
N508 C510 1.334 . S
C509 H490 0.929 . S
C509 C506 1.388 . S
C509 N508 1.397 . S
C510 H491 0.929 . S
C510 C507 1.404 . S
C510 N508 1.334 . S
C511 H503 0.930 . S
C511 C506 1.418 . S
C511 C507 1.353 . S
C512 H482 0.930 . S
C512 N513 1.330 . S
C512 C514 1.446 . S
N513 Co472 2.151 . S
N513 C512 1.330 . S
N513 C517 1.418 . S
C514 H493 0.929 . S
C514 C512 1.446 . S
C514 C515 1.332 . S
C515 H495 0.931 . S
C515 C514 1.332 . S
C515 C516 1.267 . S
C516 H484 0.929 . S
C516 C515 1.267 . S
C516 C517 1.251 . S
C517 H487 0.929 . S
C517 N513 1.418 . S
C517 C516 1.251 . S
C518 H485 0.930 . S
C518 C520 1.406 . S
C518 C523 1.261 . S
C519 H486 0.930 . S
C519 N521 1.325 . S
C519 C522 1.357 . S
C520 H488 0.928 . S
C520 C518 1.406 . S
C520 N521 1.261 . S
N521 Co472 2.214 . S
N521 C519 1.325 . S
N521 C520 1.261 . S
C522 H492 0.931 . S
C522 C519 1.357 . S
C522 C523 1.312 . S
C523 H494 0.896 1_655 S
C523 C518 1.261 . S
C523 C522 1.312 . S
C524 O496 1.214 . S
C524 O504 1.234 . S
C525 H497 0.929 . S
C525 C528 1.391 . S
C525 C530 1.391 . S
C526 H498 0.929 . S
C526 C527 1.390 . S
C526 N529 1.391 . S
C527 H499 0.930 . S
C527 C526 1.390 . S
C527 C528 1.392 . S
C528 H500 0.929 . S
C528 C525 1.391 . S
C528 C527 1.392 . S
N529 Co473 2.257 . S
N529 C526 1.391 . S
N529 C530 1.388 . S
C530 H501 0.930 . S
C530 C525 1.391 . S
C530 N529 1.388 . S
Co531 O533 2.143 . S
Co531 O539 2.074 . S
Co531 O542 2.093 . S
Co531 O555 2.097 . S
Co531 N572 2.151 . S
Co531 N580 2.214 . S
Co532 O533 2.160 . S
Co532 O538 2.058 . S
Co532 O548 2.057 . S
Co532 O563 2.037 . S
Co532 N567 2.145 . S
Co532 N588 2.257 . S
O533 Co531 2.143 . S
O533 Co532 2.160 . S
C534 O535 1.278 . S
C534 O542 1.224 . S
O535 C534 1.278 . S
C536 O537 1.245 . S
C536 O548 1.232 . S
O537 C536 1.245 . S
O538 Co532 2.058 . S
O538 C564 1.269 . S
O539 Co531 2.074 . S
O539 C564 1.257 . S
H540 C565 0.930 . S
H541 C571 0.930 . S
O542 Co531 2.093 . S
O542 C534 1.224 . S
H543 C575 0.929 . S
H544 C577 0.930 . S
H545 C578 0.930 . S
H546 C576 0.929 . S
H547 C579 0.928 . S
O548 Co532 2.057 . S
O548 C536 1.232 . S
H549 C568 0.929 . S
H550 C569 0.929 . S
H551 C581 0.931 . S
H552 C573 0.929 . S
H553 C582 0.896 1_545 S
H554 C574 0.931 . S
O555 Co531 2.097 . S
O555 C583 1.214 . S
H556 C584 0.929 . S
H557 C585 0.929 . S
H558 C586 0.930 . S
H559 C587 0.929 . S
H560 C589 0.930 . S
H561 C566 0.930 . S
H562 C570 0.930 . S
O563 Co532 2.037 . S
O563 C583 1.234 . S
C564 O538 1.269 . S
C564 O539 1.257 . S
C565 H540 0.930 . S
C565 C568 1.388 . S
C565 C570 1.418 . S
C566 H561 0.930 . S
C566 C569 1.404 . S
C566 C570 1.353 . S
N567 Co532 2.145 . S
N567 C568 1.397 . S
N567 C569 1.334 . S
C568 H549 0.929 . S
C568 C565 1.388 . S
C568 N567 1.397 . S
C569 H550 0.929 . S
C569 C566 1.404 . S
C569 N567 1.334 . S
C570 H562 0.930 . S
C570 C565 1.418 . S
C570 C566 1.353 . S
C571 H541 0.930 . S
C571 N572 1.330 . S
C571 C573 1.446 . S
N572 Co531 2.151 . S
N572 C571 1.330 . S
N572 C576 1.418 . S
C573 H552 0.929 . S
C573 C571 1.446 . S
C573 C574 1.332 . S
C574 H554 0.931 . S
C574 C573 1.332 . S
C574 C575 1.267 . S
C575 H543 0.929 . S
C575 C574 1.267 . S
C575 C576 1.251 . S
C576 H546 0.929 . S
C576 N572 1.418 . S
C576 C575 1.251 . S
C577 H544 0.930 . S
C577 C579 1.406 . S
C577 C582 1.261 . S
C578 H545 0.930 . S
C578 N580 1.325 . S
C578 C581 1.357 . S
C579 H547 0.928 . S
C579 C577 1.406 . S
C579 N580 1.261 . S
N580 Co531 2.214 . S
N580 C578 1.325 . S
N580 C579 1.261 . S
C581 H551 0.931 . S
C581 C578 1.357 . S
C581 C582 1.312 . S
C582 H553 0.896 1_565 S
C582 C577 1.261 . S
C582 C581 1.312 . S
C583 O555 1.214 . S
C583 O563 1.234 . S
C584 H556 0.929 . S
C584 C587 1.391 . S
C584 C589 1.391 . S
C585 H557 0.929 . S
C585 C586 1.390 . S
C585 N588 1.391 . S
C586 H558 0.930 . S
C586 C585 1.390 . S
C586 C587 1.392 . S
C587 H559 0.929 . S
C587 C584 1.391 . S
C587 C586 1.392 . S
N588 Co532 2.257 . S
N588 C585 1.391 . S
N588 C589 1.388 . S
C589 H560 0.930 . S
C589 C584 1.391 . S
C589 N588 1.388 . S
Co590 O592 2.143 . S
Co590 O598 2.074 . S
Co590 O601 2.093 . S
Co590 O614 2.097 . S
Co590 N631 2.151 . S
Co590 N639 2.214 . S
Co591 O592 2.160 . S
Co591 O597 2.058 . S
Co591 O607 2.057 . S
Co591 O622 2.037 . S
Co591 N626 2.145 . S
Co591 N647 2.257 . S
O592 Co590 2.143 . S
O592 Co591 2.160 . S
C593 O594 1.278 . S
C593 O601 1.224 . S
O594 C593 1.278 . S
C595 O596 1.245 . S
C595 O607 1.232 . S
O596 C595 1.245 . S
O597 Co591 2.058 . S
O597 C623 1.269 . S
O598 Co590 2.074 . S
O598 C623 1.257 . S
H599 C624 0.930 . S
H600 C630 0.930 . S
O601 Co590 2.093 . S
O601 C593 1.224 . S
H602 C634 0.929 . S
H603 C636 0.930 . S
H604 C637 0.930 . S
H605 C635 0.929 . S
H606 C638 0.928 . S
O607 Co591 2.057 . S
O607 C595 1.232 . S
H608 C627 0.929 . S
H609 C628 0.929 . S
H610 C640 0.931 . S
H611 C632 0.929 . S
H612 C641 0.896 1_655 S
H613 C633 0.931 . S
O614 Co590 2.097 . S
O614 C642 1.214 . S
H615 C643 0.929 . S
H616 C644 0.929 . S
H617 C645 0.930 . S
H618 C646 0.929 . S
H619 C648 0.930 . S
H620 C625 0.930 . S
H621 C629 0.930 . S
O622 Co591 2.037 . S
O622 C642 1.234 . S
C623 O597 1.269 . S
C623 O598 1.257 . S
C624 H599 0.930 . S
C624 C627 1.388 . S
C624 C629 1.418 . S
C625 H620 0.930 . S
C625 C628 1.404 . S
C625 C629 1.353 . S
N626 Co591 2.145 . S
N626 C627 1.397 . S
N626 C628 1.334 . S
C627 H608 0.929 . S
C627 C624 1.388 . S
C627 N626 1.397 . S
C628 H609 0.929 . S
C628 C625 1.404 . S
C628 N626 1.334 . S
C629 H621 0.930 . S
C629 C624 1.418 . S
C629 C625 1.353 . S
C630 H600 0.930 . S
C630 N631 1.330 . S
C630 C632 1.446 . S
N631 Co590 2.151 . S
N631 C630 1.330 . S
N631 C635 1.418 . S
C632 H611 0.929 . S
C632 C630 1.446 . S
C632 C633 1.332 . S
C633 H613 0.931 . S
C633 C632 1.332 . S
C633 C634 1.267 . S
C634 H602 0.929 . S
C634 C633 1.267 . S
C634 C635 1.251 . S
C635 H605 0.929 . S
C635 N631 1.418 . S
C635 C634 1.251 . S
C636 H603 0.930 . S
C636 C638 1.406 . S
C636 C641 1.261 . S
C637 H604 0.930 . S
C637 N639 1.325 . S
C637 C640 1.357 . S
C638 H606 0.928 . S
C638 C636 1.406 . S
C638 N639 1.261 . S
N639 Co590 2.214 . S
N639 C637 1.325 . S
N639 C638 1.261 . S
C640 H610 0.931 . S
C640 C637 1.357 . S
C640 C641 1.312 . S
C641 H612 0.896 1_455 S
C641 C636 1.261 . S
C641 C640 1.312 . S
C642 O614 1.214 . S
C642 O622 1.234 . S
C643 H615 0.929 . S
C643 C646 1.391 . S
C643 C648 1.391 . S
C644 H616 0.929 . S
C644 C645 1.390 . S
C644 N647 1.391 . S
C645 H617 0.930 . S
C645 C644 1.390 . S
C645 C646 1.392 . S
C646 H618 0.929 . S
C646 C643 1.391 . S
C646 C645 1.392 . S
N647 Co591 2.257 . S
N647 C644 1.391 . S
N647 C648 1.388 . S
C648 H619 0.930 . S
C648 C643 1.391 . S
C648 N647 1.388 . S
Co649 O651 2.143 . S
Co649 O657 2.074 . S
Co649 O660 2.093 . S
Co649 O673 2.097 . S
Co649 N690 2.151 . S
Co649 N698 2.214 . S
Co650 O651 2.160 . S
Co650 O656 2.058 . S
Co650 O666 2.057 . S
Co650 O681 2.037 . S
Co650 N685 2.145 . S
Co650 N706 2.257 . S
O651 Co649 2.143 . S
O651 Co650 2.160 . S
C652 O653 1.278 . S
C652 O660 1.224 . S
O653 C652 1.278 . S
C654 O655 1.245 . S
C654 O666 1.232 . S
O655 C654 1.245 . S
O656 Co650 2.058 . S
O656 C682 1.269 . S
O657 Co649 2.074 . S
O657 C682 1.257 . S
H658 C683 0.930 . S
H659 C689 0.930 . S
O660 Co649 2.093 . S
O660 C652 1.224 . S
H661 C693 0.929 . S
H662 C695 0.930 . S
H663 C696 0.930 . S
H664 C694 0.929 . S
H665 C697 0.928 . S
O666 Co650 2.057 . S
O666 C654 1.232 . S
H667 C686 0.929 . S
H668 C687 0.929 . S
H669 C699 0.931 . S
H670 C691 0.929 . S
H671 C700 0.896 1_565 S
H672 C692 0.931 . S
O673 Co649 2.097 . S
O673 C701 1.214 . S
H674 C702 0.929 . S
H675 C703 0.929 . S
H676 C704 0.930 . S
H677 C705 0.929 . S
H678 C707 0.930 . S
H679 C684 0.930 . S
H680 C688 0.930 . S
O681 Co650 2.037 . S
O681 C701 1.234 . S
C682 O656 1.269 . S
C682 O657 1.257 . S
C683 H658 0.930 . S
C683 C686 1.388 . S
C683 C688 1.418 . S
C684 H679 0.930 . S
C684 C687 1.404 . S
C684 C688 1.353 . S
N685 Co650 2.145 . S
N685 C686 1.397 . S
N685 C687 1.334 . S
C686 H667 0.929 . S
C686 C683 1.388 . S
C686 N685 1.397 . S
C687 H668 0.929 . S
C687 C684 1.404 . S
C687 N685 1.334 . S
C688 H680 0.930 . S
C688 C683 1.418 . S
C688 C684 1.353 . S
C689 H659 0.930 . S
C689 N690 1.330 . S
C689 C691 1.446 . S
N690 Co649 2.151 . S
N690 C689 1.330 . S
N690 C694 1.418 . S
C691 H670 0.929 . S
C691 C689 1.446 . S
C691 C692 1.332 . S
C692 H672 0.931 . S
C692 C691 1.332 . S
C692 C693 1.267 . S
C693 H661 0.929 . S
C693 C692 1.267 . S
C693 C694 1.251 . S
C694 H664 0.929 . S
C694 N690 1.418 . S
C694 C693 1.251 . S
C695 H662 0.930 . S
C695 C697 1.406 . S
C695 C700 1.261 . S
C696 H663 0.930 . S
C696 N698 1.325 . S
C696 C699 1.357 . S
C697 H665 0.928 . S
C697 C695 1.406 . S
C697 N698 1.261 . S
N698 Co649 2.214 . S
N698 C696 1.325 . S
N698 C697 1.261 . S
C699 H669 0.931 . S
C699 C696 1.357 . S
C699 C700 1.312 . S
C700 H671 0.896 1_545 S
C700 C695 1.261 . S
C700 C699 1.312 . S
C701 O673 1.214 . S
C701 O681 1.234 . S
C702 H674 0.929 . S
C702 C705 1.391 . S
C702 C707 1.391 . S
C703 H675 0.929 . S
C703 C704 1.390 . S
C703 N706 1.391 . S
C704 H676 0.930 . S
C704 C703 1.390 . S
C704 C705 1.392 . S
C705 H677 0.929 . S
C705 C702 1.391 . S
C705 C704 1.392 . S
N706 Co650 2.257 . S
N706 C703 1.391 . S
N706 C707 1.388 . S
C707 H678 0.930 . S
C707 C702 1.391 . S
C707 N706 1.388 . S
Co708 O710 2.143 . S
Co708 O716 2.074 . S
Co708 O719 2.093 . S
Co708 O732 2.097 . S
Co708 N749 2.151 . S
Co708 N757 2.214 . S
Co709 O710 2.160 . S
Co709 O715 2.058 . S
Co709 O725 2.057 . S
Co709 O740 2.037 . S
Co709 N744 2.145 . S
Co709 N765 2.257 . S
O710 Co708 2.143 . S
O710 Co709 2.160 . S
C711 O712 1.278 . S
C711 O719 1.224 . S
O712 C711 1.278 . S
C713 O714 1.245 . S
C713 O725 1.232 . S
O714 C713 1.245 . S
O715 Co709 2.058 . S
O715 C741 1.269 . S
O716 Co708 2.074 . S
O716 C741 1.257 . S
H717 C742 0.930 . S
H718 C748 0.930 . S
O719 Co708 2.093 . S
O719 C711 1.224 . S
H720 C752 0.929 . S
H721 C754 0.930 . S
H722 C755 0.930 . S
H723 C753 0.929 . S
H724 C756 0.928 . S
O725 Co709 2.057 . S
O725 C713 1.232 . S
H726 C745 0.929 . S
H727 C746 0.929 . S
H728 C758 0.931 . S
H729 C750 0.929 . S
H730 C759 0.896 1_455 S
H731 C751 0.931 . S
O732 Co708 2.097 . S
O732 C760 1.214 . S
H733 C761 0.929 . S
H734 C762 0.929 . S
H735 C763 0.930 . S
H736 C764 0.929 . S
H737 C766 0.930 . S
H738 C743 0.930 . S
H739 C747 0.930 . S
O740 Co709 2.037 . S
O740 C760 1.234 . S
C741 O715 1.269 . S
C741 O716 1.257 . S
C742 H717 0.930 . S
C742 C745 1.388 . S
C742 C747 1.418 . S
C743 H738 0.930 . S
C743 C746 1.404 . S
C743 C747 1.353 . S
N744 Co709 2.145 . S
N744 C745 1.397 . S
N744 C746 1.334 . S
C745 H726 0.929 . S
C745 C742 1.388 . S
C745 N744 1.397 . S
C746 H727 0.929 . S
C746 C743 1.404 . S
C746 N744 1.334 . S
C747 H739 0.930 . S
C747 C742 1.418 . S
C747 C743 1.353 . S
C748 H718 0.930 . S
C748 N749 1.330 . S
C748 C750 1.446 . S
N749 Co708 2.151 . S
N749 C748 1.330 . S
N749 C753 1.418 . S
C750 H729 0.929 . S
C750 C748 1.446 . S
C750 C751 1.332 . S
C751 H731 0.931 . S
C751 C750 1.332 . S
C751 C752 1.267 . S
C752 H720 0.929 . S
C752 C751 1.267 . S
C752 C753 1.251 . S
C753 H723 0.929 . S
C753 N749 1.418 . S
C753 C752 1.251 . S
C754 H721 0.930 . S
C754 C756 1.406 . S
C754 C759 1.261 . S
C755 H722 0.930 . S
C755 N757 1.325 . S
C755 C758 1.357 . S
C756 H724 0.928 . S
C756 C754 1.406 . S
C756 N757 1.261 . S
N757 Co708 2.214 . S
N757 C755 1.325 . S
N757 C756 1.261 . S
C758 H728 0.931 . S
C758 C755 1.357 . S
C758 C759 1.312 . S
C759 H730 0.896 1_655 S
C759 C754 1.261 . S
C759 C758 1.312 . S
C760 O732 1.214 . S
C760 O740 1.234 . S
C761 H733 0.929 . S
C761 C764 1.391 . S
C761 C766 1.391 . S
C762 H734 0.929 . S
C762 C763 1.390 . S
C762 N765 1.391 . S
C763 H735 0.930 . S
C763 C762 1.390 . S
C763 C764 1.392 . S
C764 H736 0.929 . S
C764 C761 1.391 . S
C764 C763 1.392 . S
N765 Co709 2.257 . S
N765 C762 1.391 . S
N765 C766 1.388 . S
C766 H737 0.930 . S
C766 C761 1.391 . S
C766 N765 1.388 . S
Co767 O769 2.143 . S
Co767 O775 2.074 . S
Co767 O778 2.093 . S
Co767 O791 2.097 . S
Co767 N808 2.151 . S
Co767 N816 2.214 . S
Co768 O769 2.160 . S
Co768 O774 2.058 . S
Co768 O784 2.057 . S
Co768 O799 2.037 . S
Co768 N803 2.145 . S
Co768 N824 2.257 . S
O769 Co767 2.143 . S
O769 Co768 2.160 . S
C770 O771 1.278 . S
C770 O778 1.224 . S
O771 C770 1.278 . S
C772 O773 1.245 . S
C772 O784 1.232 . S
O773 C772 1.245 . S
O774 Co768 2.058 . S
O774 C800 1.269 . S
O775 Co767 2.074 . S
O775 C800 1.257 . S
H776 C801 0.930 . S
H777 C807 0.930 . S
O778 Co767 2.093 . S
O778 C770 1.224 . S
H779 C811 0.929 . S
H780 C813 0.930 . S
H781 C814 0.930 . S
H782 C812 0.929 . S
H783 C815 0.928 . S
O784 Co768 2.057 . S
O784 C772 1.232 . S
H785 C804 0.929 . S
H786 C805 0.929 . S
H787 C817 0.931 . S
H788 C809 0.929 . S
H789 C818 0.896 1_545 S
H790 C810 0.931 . S
O791 Co767 2.097 . S
O791 C819 1.214 . S
H792 C820 0.929 . S
H793 C821 0.929 . S
H794 C822 0.930 . S
H795 C823 0.929 . S
H796 C825 0.930 . S
H797 C802 0.930 . S
H798 C806 0.930 . S
O799 Co768 2.037 . S
O799 C819 1.234 . S
C800 O774 1.269 . S
C800 O775 1.257 . S
C801 H776 0.930 . S
C801 C804 1.388 . S
C801 C806 1.418 . S
C802 H797 0.930 . S
C802 C805 1.404 . S
C802 C806 1.353 . S
N803 Co768 2.145 . S
N803 C804 1.397 . S
N803 C805 1.334 . S
C804 H785 0.929 . S
C804 C801 1.388 . S
C804 N803 1.397 . S
C805 H786 0.929 . S
C805 C802 1.404 . S
C805 N803 1.334 . S
C806 H798 0.930 . S
C806 C801 1.418 . S
C806 C802 1.353 . S
C807 H777 0.930 . S
C807 N808 1.330 . S
C807 C809 1.446 . S
N808 Co767 2.151 . S
N808 C807 1.330 . S
N808 C812 1.418 . S
C809 H788 0.929 . S
C809 C807 1.446 . S
C809 C810 1.332 . S
C810 H790 0.931 . S
C810 C809 1.332 . S
C810 C811 1.267 . S
C811 H779 0.929 . S
C811 C810 1.267 . S
C811 C812 1.251 . S
C812 H782 0.929 . S
C812 N808 1.418 . S
C812 C811 1.251 . S
C813 H780 0.930 . S
C813 C815 1.406 . S
C813 C818 1.261 . S
C814 H781 0.930 . S
C814 N816 1.325 . S
C814 C817 1.357 . S
C815 H783 0.928 . S
C815 C813 1.406 . S
C815 N816 1.261 . S
N816 Co767 2.214 . S
N816 C814 1.325 . S
N816 C815 1.261 . S
C817 H787 0.931 . S
C817 C814 1.357 . S
C817 C818 1.312 . S
C818 H789 0.896 1_565 S
C818 C813 1.261 . S
C818 C817 1.312 . S
C819 O791 1.214 . S
C819 O799 1.234 . S
C820 H792 0.929 . S
C820 C823 1.391 . S
C820 C825 1.391 . S
C821 H793 0.929 . S
C821 C822 1.390 . S
C821 N824 1.391 . S
C822 H794 0.930 . S
C822 C821 1.390 . S
C822 C823 1.392 . S
C823 H795 0.929 . S
C823 C820 1.391 . S
C823 C822 1.392 . S
N824 Co768 2.257 . S
N824 C821 1.391 . S
N824 C825 1.388 . S
C825 H796 0.930 . S
C825 C820 1.391 . S
C825 N824 1.388 . S
Co826 O828 2.143 . S
Co826 O834 2.074 . S
Co826 O837 2.093 . S
Co826 O850 2.097 . S
Co826 N867 2.151 . S
Co826 N875 2.214 . S
Co827 O828 2.160 . S
Co827 O833 2.058 . S
Co827 O843 2.057 . S
Co827 O858 2.037 . S
Co827 N862 2.145 . S
Co827 N883 2.257 . S
O828 Co826 2.143 . S
O828 Co827 2.160 . S
C829 O830 1.278 . S
C829 O837 1.224 . S
O830 C829 1.278 . S
C831 O832 1.245 . S
C831 O843 1.232 . S
O832 C831 1.245 . S
O833 Co827 2.058 . S
O833 C859 1.269 . S
O834 Co826 2.074 . S
O834 C859 1.257 . S
H835 C860 0.930 . S
H836 C866 0.930 . S
O837 Co826 2.093 . S
O837 C829 1.224 . S
H838 C870 0.929 . S
H839 C872 0.930 . S
H840 C873 0.930 . S
H841 C871 0.929 . S
H842 C874 0.928 . S
O843 Co827 2.057 . S
O843 C831 1.232 . S
H844 C863 0.929 . S
H845 C864 0.929 . S
H846 C876 0.931 . S
H847 C868 0.929 . S
H848 C877 0.896 1_655 S
H849 C869 0.931 . S
O850 Co826 2.097 . S
O850 C878 1.214 . S
H851 C879 0.929 . S
H852 C880 0.929 . S
H853 C881 0.930 . S
H854 C882 0.929 . S
H855 C884 0.930 . S
H856 C861 0.930 . S
H857 C865 0.930 . S
O858 Co827 2.037 . S
O858 C878 1.234 . S
C859 O833 1.269 . S
C859 O834 1.257 . S
C860 H835 0.930 . S
C860 C863 1.388 . S
C860 C865 1.418 . S
C861 H856 0.930 . S
C861 C864 1.404 . S
C861 C865 1.353 . S
N862 Co827 2.145 . S
N862 C863 1.397 . S
N862 C864 1.334 . S
C863 H844 0.929 . S
C863 C860 1.388 . S
C863 N862 1.397 . S
C864 H845 0.929 . S
C864 C861 1.404 . S
C864 N862 1.334 . S
C865 H857 0.930 . S
C865 C860 1.418 . S
C865 C861 1.353 . S
C866 H836 0.930 . S
C866 N867 1.330 . S
C866 C868 1.446 . S
N867 Co826 2.151 . S
N867 C866 1.330 . S
N867 C871 1.418 . S
C868 H847 0.929 . S
C868 C866 1.446 . S
C868 C869 1.332 . S
C869 H849 0.931 . S
C869 C868 1.332 . S
C869 C870 1.267 . S
C870 H838 0.929 . S
C870 C869 1.267 . S
C870 C871 1.251 . S
C871 H841 0.929 . S
C871 N867 1.418 . S
C871 C870 1.251 . S
C872 H839 0.930 . S
C872 C874 1.406 . S
C872 C877 1.261 . S
C873 H840 0.930 . S
C873 N875 1.325 . S
C873 C876 1.357 . S
C874 H842 0.928 . S
C874 C872 1.406 . S
C874 N875 1.261 . S
N875 Co826 2.214 . S
N875 C873 1.325 . S
N875 C874 1.261 . S
C876 H846 0.931 . S
C876 C873 1.357 . S
C876 C877 1.312 . S
C877 H848 0.896 1_455 S
C877 C872 1.261 . S
C877 C876 1.312 . S
C878 O850 1.214 . S
C878 O858 1.234 . S
C879 H851 0.929 . S
C879 C882 1.391 . S
C879 C884 1.391 . S
C880 H852 0.929 . S
C880 C881 1.390 . S
C880 N883 1.391 . S
C881 H853 0.930 . S
C881 C880 1.390 . S
C881 C882 1.392 . S
C882 H854 0.929 . S
C882 C879 1.391 . S
C882 C881 1.392 . S
N883 Co827 2.257 . S
N883 C880 1.391 . S
N883 C884 1.388 . S
C884 H855 0.930 . S
C884 C879 1.391 . S
C884 N883 1.388 . S
Co885 O887 2.143 . S
Co885 O893 2.074 . S
Co885 O896 2.093 . S
Co885 O909 2.097 . S
Co885 N926 2.151 . S
Co885 N934 2.214 . S
Co886 O887 2.160 . S
Co886 O892 2.058 . S
Co886 O902 2.057 . S
Co886 O917 2.037 . S
Co886 N921 2.145 . S
Co886 N942 2.257 . S
O887 Co885 2.143 . S
O887 Co886 2.160 . S
C888 O889 1.278 . S
C888 O896 1.224 . S
O889 C888 1.278 . S
C890 O891 1.245 . S
C890 O902 1.232 . S
O891 C890 1.245 . S
O892 Co886 2.058 . S
O892 C918 1.269 . S
O893 Co885 2.074 . S
O893 C918 1.257 . S
H894 C919 0.930 . S
H895 C925 0.930 . S
O896 Co885 2.093 . S
O896 C888 1.224 . S
H897 C929 0.929 . S
H898 C931 0.930 . S
H899 C932 0.930 . S
H900 C930 0.929 . S
H901 C933 0.928 . S
O902 Co886 2.057 . S
O902 C890 1.232 . S
H903 C922 0.929 . S
H904 C923 0.929 . S
H905 C935 0.931 . S
H906 C927 0.929 . S
H907 C936 0.896 1_565 S
H908 C928 0.931 . S
O909 Co885 2.097 . S
O909 C937 1.214 . S
H910 C938 0.929 . S
H911 C939 0.929 . S
H912 C940 0.930 . S
H913 C941 0.929 . S
H914 C943 0.930 . S
H915 C920 0.930 . S
H916 C924 0.930 . S
O917 Co886 2.037 . S
O917 C937 1.234 . S
C918 O892 1.269 . S
C918 O893 1.257 . S
C919 H894 0.930 . S
C919 C922 1.388 . S
C919 C924 1.418 . S
C920 H915 0.930 . S
C920 C923 1.404 . S
C920 C924 1.353 . S
N921 Co886 2.145 . S
N921 C922 1.397 . S
N921 C923 1.334 . S
C922 H903 0.929 . S
C922 C919 1.388 . S
C922 N921 1.397 . S
C923 H904 0.929 . S
C923 C920 1.404 . S
C923 N921 1.334 . S
C924 H916 0.930 . S
C924 C919 1.418 . S
C924 C920 1.353 . S
C925 H895 0.930 . S
C925 N926 1.330 . S
C925 C927 1.446 . S
N926 Co885 2.151 . S
N926 C925 1.330 . S
N926 C930 1.418 . S
C927 H906 0.929 . S
C927 C925 1.446 . S
C927 C928 1.332 . S
C928 H908 0.931 . S
C928 C927 1.332 . S
C928 C929 1.267 . S
C929 H897 0.929 . S
C929 C928 1.267 . S
C929 C930 1.251 . S
C930 H900 0.929 . S
C930 N926 1.418 . S
C930 C929 1.251 . S
C931 H898 0.930 . S
C931 C933 1.406 . S
C931 C936 1.261 . S
C932 H899 0.930 . S
C932 N934 1.325 . S
C932 C935 1.357 . S
C933 H901 0.928 . S
C933 C931 1.406 . S
C933 N934 1.261 . S
N934 Co885 2.214 . S
N934 C932 1.325 . S
N934 C933 1.261 . S
C935 H905 0.931 . S
C935 C932 1.357 . S
C935 C936 1.312 . S
C936 H907 0.896 1_545 S
C936 C931 1.261 . S
C936 C935 1.312 . S
C937 O909 1.214 . S
C937 O917 1.234 . S
C938 H910 0.929 . S
C938 C941 1.391 . S
C938 C943 1.391 . S
C939 H911 0.929 . S
C939 C940 1.390 . S
C939 N942 1.391 . S
C940 H912 0.930 . S
C940 C939 1.390 . S
C940 C941 1.392 . S
C941 H913 0.929 . S
C941 C938 1.391 . S
C941 C940 1.392 . S
N942 Co886 2.257 . S
N942 C939 1.391 . S
N942 C943 1.388 . S
C943 H914 0.930 . S
C943 C938 1.391 . S
C943 N942 1.388 . S
H944 C950 0.930 . S
H945 C954 0.930 . S
H946 C959 0.929 . S
H947 C957 0.929 . S
H948 C952 0.929 . S
H949 C958 0.929 . S
C950 H944 0.930 . S
C950 C951 1.367 . S
C950 C958 1.378 . S
C951 C950 1.367 . S
C951 C959 1.433 . S
C952 H948 0.929 . S
C952 C954 1.378 . S
C952 C956 1.350 . S
C953 C956 1.463 . S
C953 C958 1.350 . S
C953 N961 1.427 . S
C954 H945 0.930 . S
C954 C952 1.378 . S
C954 C955 1.367 . S
C955 C954 1.367 . S
C955 C957 1.433 . S
C956 C952 1.350 . S
C956 C953 1.463 . S
C956 N960 1.427 . S
C957 H947 0.929 . S
C957 C955 1.433 . S
C957 N960 1.384 . S
C958 H949 0.929 . S
C958 C950 1.378 . S
C958 C953 1.350 . S
C959 H946 0.929 . S
C959 C951 1.433 . S
C959 N961 1.384 . S
N960 C956 1.427 . S
N960 C957 1.384 . S
N961 C953 1.427 . S
N961 C959 1.384 . S
H962 C968 0.930 . S
H963 C972 0.930 . S
H964 C977 0.929 . S
H965 C975 0.929 . S
H966 C970 0.929 . S
H967 C976 0.929 . S
C968 H962 0.930 . S
C968 C969 1.367 . S
C968 C976 1.378 . S
C969 C968 1.367 . S
C969 C977 1.433 . S
C970 H966 0.929 . S
C970 C972 1.378 . S
C970 C974 1.350 . S
C971 C974 1.463 . S
C971 C976 1.350 . S
C971 N979 1.427 . S
C972 H963 0.930 . S
C972 C970 1.378 . S
C972 C973 1.367 . S
C973 C972 1.367 . S
C973 C975 1.433 . S
C974 C970 1.350 . S
C974 C971 1.463 . S
C974 N978 1.427 . S
C975 H965 0.929 . S
C975 C973 1.433 . S
C975 N978 1.384 . S
C976 H967 0.929 . S
C976 C968 1.378 . S
C976 C971 1.350 . S
C977 H964 0.929 . S
C977 C969 1.433 . S
C977 N979 1.384 . S
N978 C974 1.427 . S
N978 C975 1.384 . S
N979 C971 1.427 . S
N979 C977 1.384 . S
H980 C986 0.930 . S
H981 C990 0.930 . S
H982 C995 0.929 . S
H983 C993 0.929 . S
H984 C988 0.929 . S
H985 C994 0.929 . S
C986 H980 0.930 . S
C986 C987 1.367 . S
C986 C994 1.378 . S
C987 C986 1.367 . S
C987 C995 1.433 . S
C988 H984 0.929 . S
C988 C990 1.378 . S
C988 C992 1.350 . S
C989 C992 1.463 . S
C989 C994 1.350 . S
C989 N997 1.427 . S
C990 H981 0.930 . S
C990 C988 1.378 . S
C990 C991 1.367 . S
C991 C990 1.367 . S
C991 C993 1.433 . S
C992 C988 1.350 . S
C992 C989 1.463 . S
C992 N996 1.427 . S
C993 H983 0.929 . S
C993 C991 1.433 . S
C993 N996 1.384 . S
C994 H985 0.929 . S
C994 C986 1.378 . S
C994 C989 1.350 . S
C995 H982 0.929 . S
C995 C987 1.433 . S
C995 N997 1.384 . S
N996 C992 1.427 . S
N996 C993 1.384 . S
N997 C989 1.427 . S
N997 C995 1.384 . S
H998 C1004 0.930 . S
H999 C1008 0.930 . S
H1000 C1013 0.929 . S
H1001 C1011 0.929 . S
H1002 C1006 0.929 . S
H1003 C1012 0.929 . S
C1004 H998 0.930 . S
C1004 C1005 1.367 . S
C1004 C1012 1.378 . S
C1005 C1004 1.367 . S
C1005 C1013 1.433 . S
C1006 H1002 0.929 . S
C1006 C1008 1.378 . S
C1006 C1010 1.350 . S
C1007 C1010 1.463 . S
C1007 C1012 1.350 . S
C1007 N1015 1.427 . S
C1008 H999 0.930 . S
C1008 C1006 1.378 . S
C1008 C1009 1.367 . S
C1009 C1008 1.367 . S
C1009 C1011 1.433 . S
C1010 C1006 1.350 . S
C1010 C1007 1.463 . S
C1010 N1014 1.427 . S
C1011 H1001 0.929 . S
C1011 C1009 1.433 . S
C1011 N1014 1.384 . S
C1012 H1003 0.929 . S
C1012 C1004 1.378 . S
C1012 C1007 1.350 . S
C1013 H1000 0.929 . S
C1013 C1005 1.433 . S
C1013 N1015 1.384 . S
N1014 C1010 1.427 . S
N1014 C1011 1.384 . S
N1015 C1007 1.427 . S
N1015 C1013 1.384 . S
H1016 C1022 0.930 . S
H1017 C1026 0.930 . S
H1018 C1031 0.929 . S
H1019 C1029 0.929 . S
H1020 C1024 0.929 . S
H1021 C1030 0.929 . S
C1022 H1016 0.930 . S
C1022 C1023 1.367 . S
C1022 C1030 1.378 . S
C1023 C1022 1.367 . S
C1023 C1031 1.433 . S
C1024 H1020 0.929 . S
C1024 C1026 1.378 . S
C1024 C1028 1.350 . S
C1025 C1028 1.463 . S
C1025 C1030 1.350 . S
C1025 N1033 1.427 . S
C1026 H1017 0.930 . S
C1026 C1024 1.378 . S
C1026 C1027 1.367 . S
C1027 C1026 1.367 . S
C1027 C1029 1.433 . S
C1028 C1024 1.350 . S
C1028 C1025 1.463 . S
C1028 N1032 1.427 . S
C1029 H1019 0.929 . S
C1029 C1027 1.433 . S
C1029 N1032 1.384 . S
C1030 H1021 0.929 . S
C1030 C1022 1.378 . S
C1030 C1025 1.350 . S
C1031 H1018 0.929 . S
C1031 C1023 1.433 . S
C1031 N1033 1.384 . S
N1032 C1028 1.427 . S
N1032 C1029 1.384 . S
N1033 C1025 1.427 . S
N1033 C1031 1.384 . S
H1034 C1040 0.930 . S
H1035 C1044 0.930 . S
H1036 C1049 0.929 . S
H1037 C1047 0.929 . S
H1038 C1042 0.929 . S
H1039 C1048 0.929 . S
C1040 H1034 0.930 . S
C1040 C1041 1.367 . S
C1040 C1048 1.378 . S
C1041 C1040 1.367 . S
C1041 C1049 1.433 . S
C1042 H1038 0.929 . S
C1042 C1044 1.378 . S
C1042 C1046 1.350 . S
C1043 C1046 1.463 . S
C1043 C1048 1.350 . S
C1043 N1051 1.427 . S
C1044 H1035 0.930 . S
C1044 C1042 1.378 . S
C1044 C1045 1.367 . S
C1045 C1044 1.367 . S
C1045 C1047 1.433 . S
C1046 C1042 1.350 . S
C1046 C1043 1.463 . S
C1046 N1050 1.427 . S
C1047 H1037 0.929 . S
C1047 C1045 1.433 . S
C1047 N1050 1.384 . S
C1048 H1039 0.929 . S
C1048 C1040 1.378 . S
C1048 C1043 1.350 . S
C1049 H1036 0.929 . S
C1049 C1041 1.433 . S
C1049 N1051 1.384 . S
N1050 C1046 1.427 . S
N1050 C1047 1.384 . S
N1051 C1043 1.427 . S
N1051 C1049 1.384 . S
H1052 C1058 0.930 . S
H1053 C1062 0.930 . S
H1054 C1067 0.929 . S
H1055 C1065 0.929 . S
H1056 C1060 0.929 . S
H1057 C1066 0.929 . S
C1058 H1052 0.930 . S
C1058 C1059 1.367 . S
C1058 C1066 1.378 . S
C1059 C1058 1.367 . S
C1059 C1067 1.433 . S
C1060 H1056 0.929 . S
C1060 C1062 1.378 . S
C1060 C1064 1.350 . S
C1061 C1064 1.463 . S
C1061 C1066 1.350 . S
C1061 N1069 1.427 . S
C1062 H1053 0.930 . S
C1062 C1060 1.378 . S
C1062 C1063 1.367 . S
C1063 C1062 1.367 . S
C1063 C1065 1.433 . S
C1064 C1060 1.350 . S
C1064 C1061 1.463 . S
C1064 N1068 1.427 . S
C1065 H1055 0.929 . S
C1065 C1063 1.433 . S
C1065 N1068 1.384 . S
C1066 H1057 0.929 . S
C1066 C1058 1.378 . S
C1066 C1061 1.350 . S
C1067 H1054 0.929 . S
C1067 C1059 1.433 . S
C1067 N1069 1.384 . S
N1068 C1064 1.427 . S
N1068 C1065 1.384 . S
N1069 C1061 1.427 . S
N1069 C1067 1.384 . S
H1070 C1076 0.930 . S
H1071 C1080 0.930 . S
H1072 C1085 0.929 . S
H1073 C1083 0.929 . S
H1074 C1078 0.929 . S
H1075 C1084 0.929 . S
C1076 H1070 0.930 . S
C1076 C1077 1.367 . S
C1076 C1084 1.378 . S
C1077 C1076 1.367 . S
C1077 C1085 1.433 . S
C1078 H1074 0.929 . S
C1078 C1080 1.378 . S
C1078 C1082 1.350 . S
C1079 C1082 1.463 . S
C1079 C1084 1.350 . S
C1079 N1087 1.427 . S
C1080 H1071 0.930 . S
C1080 C1078 1.378 . S
C1080 C1081 1.367 . S
C1081 C1080 1.367 . S
C1081 C1083 1.433 . S
C1082 C1078 1.350 . S
C1082 C1079 1.463 . S
C1082 N1086 1.427 . S
C1083 H1073 0.929 . S
C1083 C1081 1.433 . S
C1083 N1086 1.384 . S
C1084 H1075 0.929 . S
C1084 C1076 1.378 . S
C1084 C1079 1.350 . S
C1085 H1072 0.929 . S
C1085 C1077 1.433 . S
C1085 N1087 1.384 . S
N1086 C1082 1.427 . S
N1086 C1083 1.384 . S
N1087 C1079 1.427 . S
N1087 C1085 1.384 . S
H1088 C1094 0.930 . S
H1089 C1098 0.930 . S
H1090 C1103 0.929 . S
H1091 C1101 0.929 . S
H1092 C1096 0.929 . S
H1093 C1102 0.929 . S
C1094 H1088 0.930 . S
C1094 C1095 1.367 . S
C1094 C1102 1.378 . S
C1095 C1094 1.367 . S
C1095 C1103 1.433 . S
C1096 H1092 0.929 . S
C1096 C1098 1.378 . S
C1096 C1100 1.350 . S
C1097 C1100 1.463 1_556 S
C1097 C1102 1.350 . S
C1097 N1105 1.427 . S
C1098 H1089 0.930 . S
C1098 C1096 1.378 . S
C1098 C1099 1.367 . S
C1099 C1098 1.367 . S
C1099 C1101 1.433 . S
C1100 C1096 1.350 . S
C1100 C1097 1.463 1_554 S
C1100 N1104 1.427 . S
C1101 H1091 0.929 . S
C1101 C1099 1.433 . S
C1101 N1104 1.384 . S
C1102 H1093 0.929 . S
C1102 C1094 1.378 . S
C1102 C1097 1.350 . S
C1103 H1090 0.929 . S
C1103 C1095 1.433 . S
C1103 N1105 1.384 . S
N1104 C1100 1.427 . S
N1104 C1101 1.384 . S
N1105 C1097 1.427 . S
N1105 C1103 1.384 . S
H1106 C1112 0.930 . S
H1107 C1116 0.930 . S
H1108 C1121 0.929 . S
H1109 C1119 0.929 . S
H1110 C1114 0.929 . S
H1111 C1120 0.929 . S
C1112 H1106 0.930 . S
C1112 C1113 1.367 . S
C1112 C1120 1.378 . S
C1113 C1112 1.367 . S
C1113 C1121 1.433 . S
C1114 H1110 0.929 . S
C1114 C1116 1.378 . S
C1114 C1118 1.350 . S
C1115 C1118 1.463 1_556 S
C1115 C1120 1.350 . S
C1115 N1123 1.427 . S
C1116 H1107 0.930 . S
C1116 C1114 1.378 . S
C1116 C1117 1.367 . S
C1117 C1116 1.367 . S
C1117 C1119 1.433 . S
C1118 C1114 1.350 . S
C1118 C1115 1.463 1_554 S
C1118 N1122 1.427 . S
C1119 H1109 0.929 . S
C1119 C1117 1.433 . S
C1119 N1122 1.384 . S
C1120 H1111 0.929 . S
C1120 C1112 1.378 . S
C1120 C1115 1.350 . S
C1121 H1108 0.929 . S
C1121 C1113 1.433 . S
C1121 N1123 1.384 . S
N1122 C1118 1.427 . S
N1122 C1119 1.384 . S
N1123 C1115 1.427 . S
N1123 C1121 1.384 . S
H1124 C1130 0.930 . S
H1125 C1134 0.930 . S
H1126 C1139 0.929 . S
H1127 C1137 0.929 . S
H1128 C1132 0.929 . S
H1129 C1138 0.929 . S
C1130 H1124 0.930 . S
C1130 C1131 1.367 . S
C1130 C1138 1.378 . S
C1131 C1130 1.367 . S
C1131 C1139 1.433 . S
C1132 H1128 0.929 . S
C1132 C1134 1.378 . S
C1132 C1136 1.350 . S
C1133 C1136 1.463 1_556 S
C1133 C1138 1.350 . S
C1133 N1141 1.427 . S
C1134 H1125 0.930 . S
C1134 C1132 1.378 . S
C1134 C1135 1.367 . S
C1135 C1134 1.367 . S
C1135 C1137 1.433 . S
C1136 C1132 1.350 . S
C1136 C1133 1.463 1_554 S
C1136 N1140 1.427 . S
C1137 H1127 0.929 . S
C1137 C1135 1.433 . S
C1137 N1140 1.384 . S
C1138 H1129 0.929 . S
C1138 C1130 1.378 . S
C1138 C1133 1.350 . S
C1139 H1126 0.929 . S
C1139 C1131 1.433 . S
C1139 N1141 1.384 . S
N1140 C1136 1.427 . S
N1140 C1137 1.384 . S
N1141 C1133 1.427 . S
N1141 C1139 1.384 . S
H1142 C1148 0.930 . S
H1143 C1152 0.930 . S
H1144 C1157 0.929 . S
H1145 C1155 0.929 . S
H1146 C1150 0.929 . S
H1147 C1156 0.929 . S
C1148 H1142 0.930 . S
C1148 C1149 1.367 . S
C1148 C1156 1.378 . S
C1149 C1148 1.367 . S
C1149 C1157 1.433 . S
C1150 H1146 0.929 . S
C1150 C1152 1.378 . S
C1150 C1154 1.350 . S
C1151 C1154 1.463 1_554 S
C1151 C1156 1.350 . S
C1151 N1159 1.427 . S
C1152 H1143 0.930 . S
C1152 C1150 1.378 . S
C1152 C1153 1.367 . S
C1153 C1152 1.367 . S
C1153 C1155 1.433 . S
C1154 C1150 1.350 . S
C1154 C1151 1.463 1_556 S
C1154 N1158 1.427 . S
C1155 H1145 0.929 . S
C1155 C1153 1.433 . S
C1155 N1158 1.384 . S
C1156 H1147 0.929 . S
C1156 C1148 1.378 . S
C1156 C1151 1.350 . S
C1157 H1144 0.929 . S
C1157 C1149 1.433 . S
C1157 N1159 1.384 . S
N1158 C1154 1.427 . S
N1158 C1155 1.384 . S
N1159 C1151 1.427 . S
N1159 C1157 1.384 . S
H1160 C1166 0.930 . S
H1161 C1170 0.930 . S
H1162 C1175 0.929 . S
H1163 C1173 0.929 . S
H1164 C1168 0.929 . S
H1165 C1174 0.929 . S
C1166 H1160 0.930 . S
C1166 C1167 1.367 . S
C1166 C1174 1.378 . S
C1167 C1166 1.367 . S
C1167 C1175 1.433 . S
C1168 H1164 0.929 . S
C1168 C1170 1.378 . S
C1168 C1172 1.350 . S
C1169 C1172 1.463 . S
C1169 C1174 1.350 . S
C1169 N1177 1.427 . S
C1170 H1161 0.930 . S
C1170 C1168 1.378 . S
C1170 C1171 1.367 . S
C1171 C1170 1.367 . S
C1171 C1173 1.433 . S
C1172 C1168 1.350 . S
C1172 C1169 1.463 . S
C1172 N1176 1.427 . S
C1173 H1163 0.929 . S
C1173 C1171 1.433 . S
C1173 N1176 1.384 . S
C1174 H1165 0.929 . S
C1174 C1166 1.378 . S
C1174 C1169 1.350 . S
C1175 H1162 0.929 . S
C1175 C1167 1.433 . S
C1175 N1177 1.384 . S
N1176 C1172 1.427 . S
N1176 C1173 1.384 . S
N1177 C1169 1.427 . S
N1177 C1175 1.384 . S
H1178 C1184 0.930 . S
H1179 C1188 0.930 . S
H1180 C1193 0.929 . S
H1181 C1191 0.929 . S
H1182 C1186 0.929 . S
H1183 C1192 0.929 . S
C1184 H1178 0.930 . S
C1184 C1185 1.367 . S
C1184 C1192 1.378 . S
C1185 C1184 1.367 . S
C1185 C1193 1.433 . S
C1186 H1182 0.929 . S
C1186 C1188 1.378 . S
C1186 C1190 1.350 . S
C1187 C1190 1.463 . S
C1187 C1192 1.350 . S
C1187 N1195 1.427 . S
C1188 H1179 0.930 . S
C1188 C1186 1.378 . S
C1188 C1189 1.367 . S
C1189 C1188 1.367 . S
C1189 C1191 1.433 . S
C1190 C1186 1.350 . S
C1190 C1187 1.463 . S
C1190 N1194 1.427 . S
C1191 H1181 0.929 . S
C1191 C1189 1.433 . S
C1191 N1194 1.384 . S
C1192 H1183 0.929 . S
C1192 C1184 1.378 . S
C1192 C1187 1.350 . S
C1193 H1180 0.929 . S
C1193 C1185 1.433 . S
C1193 N1195 1.384 . S
N1194 C1190 1.427 . S
N1194 C1191 1.384 . S
N1195 C1187 1.427 . S
N1195 C1193 1.384 . S
H1196 C1202 0.930 . S
H1197 C1206 0.930 . S
H1198 C1211 0.929 . S
H1199 C1209 0.929 . S
H1200 C1204 0.929 . S
H1201 C1210 0.929 . S
C1202 H1196 0.930 . S
C1202 C1203 1.367 . S
C1202 C1210 1.378 . S
C1203 C1202 1.367 . S
C1203 C1211 1.433 . S
C1204 H1200 0.929 . S
C1204 C1206 1.378 . S
C1204 C1208 1.350 . S
C1205 C1208 1.463 . S
C1205 C1210 1.350 . S
C1205 N1213 1.427 . S
C1206 H1197 0.930 . S
C1206 C1204 1.378 . S
C1206 C1207 1.367 . S
C1207 C1206 1.367 . S
C1207 C1209 1.433 . S
C1208 C1204 1.350 . S
C1208 C1205 1.463 . S
C1208 N1212 1.427 . S
C1209 H1199 0.929 . S
C1209 C1207 1.433 . S
C1209 N1212 1.384 . S
C1210 H1201 0.929 . S
C1210 C1202 1.378 . S
C1210 C1205 1.350 . S
C1211 H1198 0.929 . S
C1211 C1203 1.433 . S
C1211 N1213 1.384 . S
N1212 C1208 1.427 . S
N1212 C1209 1.384 . S
N1213 C1205 1.427 . S
N1213 C1211 1.384 . S
H1214 C1220 0.930 . S
H1215 C1224 0.930 . S
H1216 C1229 0.929 . S
H1217 C1227 0.929 . S
H1218 C1222 0.929 . S
H1219 C1228 0.929 . S
C1220 H1214 0.930 . S
C1220 C1221 1.367 . S
C1220 C1228 1.378 . S
C1221 C1220 1.367 . S
C1221 C1229 1.433 . S
C1222 H1218 0.929 . S
C1222 C1224 1.378 . S
C1222 C1226 1.350 . S
C1223 C1226 1.463 . S
C1223 C1228 1.350 . S
C1223 N1231 1.427 . S
C1224 H1215 0.930 . S
C1224 C1222 1.378 . S
C1224 C1225 1.367 . S
C1225 C1224 1.367 . S
C1225 C1227 1.433 . S
C1226 C1222 1.350 . S
C1226 C1223 1.463 . S
C1226 N1230 1.427 . S
C1227 H1217 0.929 . S
C1227 C1225 1.433 . S
C1227 N1230 1.384 . S
C1228 H1219 0.929 . S
C1228 C1220 1.378 . S
C1228 C1223 1.350 . S
C1229 H1216 0.929 . S
C1229 C1221 1.433 . S
C1229 N1231 1.384 . S
N1230 C1226 1.427 . S
N1230 C1227 1.384 . S
N1231 C1223 1.427 . S
N1231 C1229 1.384 . S
H1232 C1238 0.930 . S
H1233 C1242 0.930 . S
H1234 C1247 0.929 . S
H1235 C1245 0.929 . S
H1236 C1240 0.929 . S
H1237 C1246 0.929 . S
C1238 H1232 0.930 . S
C1238 C1239 1.367 . S
C1238 C1246 1.378 . S
C1239 C1238 1.367 . S
C1239 C1247 1.433 . S
C1240 H1236 0.929 . S
C1240 C1242 1.378 . S
C1240 C1244 1.350 . S
C1241 C1244 1.463 . S
C1241 C1246 1.350 . S
C1241 N1249 1.427 . S
C1242 H1233 0.930 . S
C1242 C1240 1.378 . S
C1242 C1243 1.367 . S
C1243 C1242 1.367 . S
C1243 C1245 1.433 . S
C1244 C1240 1.350 . S
C1244 C1241 1.463 . S
C1244 N1248 1.427 . S
C1245 H1235 0.929 . S
C1245 C1243 1.433 . S
C1245 N1248 1.384 . S
C1246 H1237 0.929 . S
C1246 C1238 1.378 . S
C1246 C1241 1.350 . S
C1247 H1234 0.929 . S
C1247 C1239 1.433 . S
C1247 N1249 1.384 . S
N1248 C1244 1.427 . S
N1248 C1245 1.384 . S
N1249 C1241 1.427 . S
N1249 C1247 1.384 . S
H1250 C1256 0.930 . S
H1251 C1260 0.930 . S
H1252 C1265 0.929 . S
H1253 C1263 0.929 . S
H1254 C1258 0.929 . S
H1255 C1264 0.929 . S
C1256 H1250 0.930 . S
C1256 C1257 1.367 . S
C1256 C1264 1.378 . S
C1257 C1256 1.367 . S
C1257 C1265 1.433 . S
C1258 H1254 0.929 . S
C1258 C1260 1.378 . S
C1258 C1262 1.350 . S
C1259 C1262 1.463 . S
C1259 C1264 1.350 . S
C1259 N1267 1.427 . S
C1260 H1251 0.930 . S
C1260 C1258 1.378 . S
C1260 C1261 1.367 . S
C1261 C1260 1.367 . S
C1261 C1263 1.433 . S
C1262 C1258 1.350 . S
C1262 C1259 1.463 . S
C1262 N1266 1.427 . S
C1263 H1253 0.929 . S
C1263 C1261 1.433 . S
C1263 N1266 1.384 . S
C1264 H1255 0.929 . S
C1264 C1256 1.378 . S
C1264 C1259 1.350 . S
C1265 H1252 0.929 . S
C1265 C1257 1.433 . S
C1265 N1267 1.384 . S
N1266 C1262 1.427 . S
N1266 C1263 1.384 . S
N1267 C1259 1.427 . S
N1267 C1265 1.384 . S
H1268 C1274 0.930 . S
H1269 C1278 0.930 . S
H1270 C1283 0.929 . S
H1271 C1281 0.929 . S
H1272 C1276 0.929 . S
H1273 C1282 0.929 . S
C1274 H1268 0.930 . S
C1274 C1275 1.367 . S
C1274 C1282 1.378 . S
C1275 C1274 1.367 . S
C1275 C1283 1.433 . S
C1276 H1272 0.929 . S
C1276 C1278 1.378 . S
C1276 C1280 1.350 . S
C1277 C1280 1.463 . S
C1277 C1282 1.350 . S
C1277 N1285 1.427 . S
C1278 H1269 0.930 . S
C1278 C1276 1.378 . S
C1278 C1279 1.367 . S
C1279 C1278 1.367 . S
C1279 C1281 1.433 . S
C1280 C1276 1.350 . S
C1280 C1277 1.463 . S
C1280 N1284 1.427 . S
C1281 H1271 0.929 . S
C1281 C1279 1.433 . S
C1281 N1284 1.384 . S
C1282 H1273 0.929 . S
C1282 C1274 1.378 . S
C1282 C1277 1.350 . S
C1283 H1270 0.929 . S
C1283 C1275 1.433 . S
C1283 N1285 1.384 . S
N1284 C1280 1.427 . S
N1284 C1281 1.384 . S
N1285 C1277 1.427 . S
N1285 C1283 1.384 . S
H1286 C1292 0.930 . S
H1287 C1296 0.930 . S
H1288 C1301 0.929 . S
H1289 C1299 0.929 . S
H1290 C1294 0.929 . S
H1291 C1300 0.929 . S
C1292 H1286 0.930 . S
C1292 C1293 1.367 . S
C1292 C1300 1.378 . S
C1293 C1292 1.367 . S
C1293 C1301 1.433 . S
C1294 H1290 0.929 . S
C1294 C1296 1.378 . S
C1294 C1298 1.350 . S
C1295 C1298 1.463 . S
C1295 C1300 1.350 . S
C1295 N1303 1.427 . S
C1296 H1287 0.930 . S
C1296 C1294 1.378 . S
C1296 C1297 1.367 . S
C1297 C1296 1.367 . S
C1297 C1299 1.433 . S
C1298 C1294 1.350 . S
C1298 C1295 1.463 . S
C1298 N1302 1.427 . S
C1299 H1289 0.929 . S
C1299 C1297 1.433 . S
C1299 N1302 1.384 . S
C1300 H1291 0.929 . S
C1300 C1292 1.378 . S
C1300 C1295 1.350 . S
C1301 H1288 0.929 . S
C1301 C1293 1.433 . S
C1301 N1303 1.384 . S
N1302 C1298 1.427 . S
N1302 C1299 1.384 . S
N1303 C1295 1.427 . S
N1303 C1301 1.384 . S
H1304 C1310 0.930 . S
H1305 C1314 0.930 . S
H1306 C1319 0.929 . S
H1307 C1317 0.929 . S
H1308 C1312 0.929 . S
H1309 C1318 0.929 . S
C1310 H1304 0.930 . S
C1310 C1311 1.367 . S
C1310 C1318 1.378 . S
C1311 C1310 1.367 . S
C1311 C1319 1.433 . S
C1312 H1308 0.929 . S
C1312 C1314 1.378 . S
C1312 C1316 1.350 . S
C1313 C1316 1.463 . S
C1313 C1318 1.350 . S
C1313 N1321 1.427 . S
C1314 H1305 0.930 . S
C1314 C1312 1.378 . S
C1314 C1315 1.367 . S
C1315 C1314 1.367 . S
C1315 C1317 1.433 . S
C1316 C1312 1.350 . S
C1316 C1313 1.463 . S
C1316 N1320 1.427 . S
C1317 H1307 0.929 . S
C1317 C1315 1.433 . S
C1317 N1320 1.384 . S
C1318 H1309 0.929 . S
C1318 C1310 1.378 . S
C1318 C1313 1.350 . S
C1319 H1306 0.929 . S
C1319 C1311 1.433 . S
C1319 N1321 1.384 . S
N1320 C1316 1.427 . S
N1320 C1317 1.384 . S
N1321 C1313 1.427 . S
N1321 C1319 1.384 . S
H1322 C1328 0.930 . S
H1323 C1332 0.930 . S
H1324 C1337 0.929 . S
H1325 C1335 0.929 . S
H1326 C1330 0.929 . S
H1327 C1336 0.929 . S
C1328 H1322 0.930 . S
C1328 C1329 1.367 . S
C1328 C1336 1.378 . S
C1329 C1328 1.367 . S
C1329 C1337 1.433 . S
C1330 H1326 0.929 . S
C1330 C1332 1.378 . S
C1330 C1334 1.350 . S
C1331 C1334 1.463 . S
C1331 C1336 1.350 . S
C1331 N1339 1.427 . S
C1332 H1323 0.930 . S
C1332 C1330 1.378 . S
C1332 C1333 1.367 . S
C1333 C1332 1.367 . S
C1333 C1335 1.433 . S
C1334 C1330 1.350 . S
C1334 C1331 1.463 . S
C1334 N1338 1.427 . S
C1335 H1325 0.929 . S
C1335 C1333 1.433 . S
C1335 N1338 1.384 . S
C1336 H1327 0.929 . S
C1336 C1328 1.378 . S
C1336 C1331 1.350 . S
C1337 H1324 0.929 . S
C1337 C1329 1.433 . S
C1337 N1339 1.384 . S
N1338 C1334 1.427 . S
N1338 C1335 1.384 . S
N1339 C1331 1.427 . S
N1339 C1337 1.384 . S
H1340 C1346 0.930 . S
H1341 C1350 0.930 . S
H1342 C1355 0.929 . S
H1343 C1353 0.929 . S
H1344 C1348 0.929 . S
H1345 C1354 0.929 . S
C1346 H1340 0.930 . S
C1346 C1347 1.367 . S
C1346 C1354 1.378 . S
C1347 C1346 1.367 . S
C1347 C1355 1.433 . S
C1348 H1344 0.929 . S
C1348 C1350 1.378 . S
C1348 C1352 1.350 . S
C1349 C1352 1.463 . S
C1349 C1354 1.350 . S
C1349 N1357 1.427 . S
C1350 H1341 0.930 . S
C1350 C1348 1.378 . S
C1350 C1351 1.367 . S
C1351 C1350 1.367 . S
C1351 C1353 1.433 . S
C1352 C1348 1.350 . S
C1352 C1349 1.463 . S
C1352 N1356 1.427 . S
C1353 H1343 0.929 . S
C1353 C1351 1.433 . S
C1353 N1356 1.384 . S
C1354 H1345 0.929 . S
C1354 C1346 1.378 . S
C1354 C1349 1.350 . S
C1355 H1342 0.929 . S
C1355 C1347 1.433 . S
C1355 N1357 1.384 . S
N1356 C1352 1.427 . S
N1356 C1353 1.384 . S
N1357 C1349 1.427 . S
N1357 C1355 1.384 . S
H1358 C1364 0.930 . S
H1359 C1368 0.930 . S
H1360 C1373 0.929 . S
H1361 C1371 0.929 . S
H1362 C1366 0.929 . S
H1363 C1372 0.929 . S
C1364 H1358 0.930 . S
C1364 C1365 1.367 . S
C1364 C1372 1.378 . S
C1365 C1364 1.367 . S
C1365 C1373 1.433 . S
C1366 H1362 0.929 . S
C1366 C1368 1.378 . S
C1366 C1370 1.350 . S
C1367 C1370 1.463 . S
C1367 C1372 1.350 . S
C1367 N1375 1.427 . S
C1368 H1359 0.930 . S
C1368 C1366 1.378 . S
C1368 C1369 1.367 . S
C1369 C1368 1.367 . S
C1369 C1371 1.433 . S
C1370 C1366 1.350 . S
C1370 C1367 1.463 . S
C1370 N1374 1.427 . S
C1371 H1361 0.929 . S
C1371 C1369 1.433 . S
C1371 N1374 1.384 . S
C1372 H1363 0.929 . S
C1372 C1364 1.378 . S
C1372 C1367 1.350 . S
C1373 H1360 0.929 . S
C1373 C1365 1.433 . S
C1373 N1375 1.384 . S
N1374 C1370 1.427 . S
N1374 C1371 1.384 . S
N1375 C1367 1.427 . S
N1375 C1373 1.384 . S
H1376 C1382 0.930 . S
H1377 C1386 0.930 . S
H1378 C1391 0.929 . S
H1379 C1389 0.929 . S
H1380 C1384 0.929 . S
H1381 C1390 0.929 . S
C1382 H1376 0.930 . S
C1382 C1383 1.367 . S
C1382 C1390 1.378 . S
C1383 C1382 1.367 . S
C1383 C1391 1.433 . S
C1384 H1380 0.929 . S
C1384 C1386 1.378 . S
C1384 C1388 1.350 . S
C1385 C1388 1.463 1_545 S
C1385 C1390 1.350 . S
C1385 N1393 1.427 . S
C1386 H1377 0.930 . S
C1386 C1384 1.378 . S
C1386 C1387 1.367 . S
C1387 C1386 1.367 . S
C1387 C1389 1.433 . S
C1388 C1384 1.350 . S
C1388 C1385 1.463 1_565 S
C1388 N1392 1.427 . S
C1389 H1379 0.929 . S
C1389 C1387 1.433 . S
C1389 N1392 1.384 . S
C1390 H1381 0.929 . S
C1390 C1382 1.378 . S
C1390 C1385 1.350 . S
C1391 H1378 0.929 . S
C1391 C1383 1.433 . S
C1391 N1393 1.384 . S
N1392 C1388 1.427 . S
N1392 C1389 1.384 . S
N1393 C1385 1.427 . S
N1393 C1391 1.384 . S
H1394 C1400 0.930 . S
H1395 C1404 0.930 . S
H1396 C1409 0.929 . S
H1397 C1407 0.929 . S
H1398 C1402 0.929 . S
H1399 C1408 0.929 . S
C1400 H1394 0.930 . S
C1400 C1401 1.367 . S
C1400 C1408 1.378 . S
C1401 C1400 1.367 . S
C1401 C1409 1.433 . S
C1402 H1398 0.929 . S
C1402 C1404 1.378 . S
C1402 C1406 1.350 . S
C1403 C1406 1.463 1_655 S
C1403 C1408 1.350 . S
C1403 N1411 1.427 . S
C1404 H1395 0.930 . S
C1404 C1402 1.378 . S
C1404 C1405 1.367 . S
C1405 C1404 1.367 . S
C1405 C1407 1.433 . S
C1406 C1402 1.350 . S
C1406 C1403 1.463 1_455 S
C1406 N1410 1.427 . S
C1407 H1397 0.929 . S
C1407 C1405 1.433 . S
C1407 N1410 1.384 . S
C1408 H1399 0.929 . S
C1408 C1400 1.378 . S
C1408 C1403 1.350 . S
C1409 H1396 0.929 . S
C1409 C1401 1.433 . S
C1409 N1411 1.384 . S
N1410 C1406 1.427 . S
N1410 C1407 1.384 . S
N1411 C1403 1.427 . S
N1411 C1409 1.384 . S
H1412 C1418 0.930 . S
H1413 C1422 0.930 . S
H1414 C1427 0.929 . S
H1415 C1425 0.929 . S
H1416 C1420 0.929 . S
H1417 C1426 0.929 . S
C1418 H1412 0.930 . S
C1418 C1419 1.367 . S
C1418 C1426 1.378 . S
C1419 C1418 1.367 . S
C1419 C1427 1.433 . S
C1420 H1416 0.929 . S
C1420 C1422 1.378 . S
C1420 C1424 1.350 . S
C1421 C1424 1.463 1_545 S
C1421 C1426 1.350 . S
C1421 N1429 1.427 . S
C1422 H1413 0.930 . S
C1422 C1420 1.378 . S
C1422 C1423 1.367 . S
C1423 C1422 1.367 . S
C1423 C1425 1.433 . S
C1424 C1420 1.350 . S
C1424 C1421 1.463 1_565 S
C1424 N1428 1.427 . S
C1425 H1415 0.929 . S
C1425 C1423 1.433 . S
C1425 N1428 1.384 . S
C1426 H1417 0.929 . S
C1426 C1418 1.378 . S
C1426 C1421 1.350 . S
C1427 H1414 0.929 . S
C1427 C1419 1.433 . S
C1427 N1429 1.384 . S
N1428 C1424 1.427 . S
N1428 C1425 1.384 . S
N1429 C1421 1.427 . S
N1429 C1427 1.384 . S
H1430 C1436 0.930 . S
H1431 C1440 0.930 . S
H1432 C1445 0.929 . S
H1433 C1443 0.929 . S
H1434 C1438 0.929 . S
H1435 C1444 0.929 . S
C1436 H1430 0.930 . S
C1436 C1437 1.367 . S
C1436 C1444 1.378 . S
C1437 C1436 1.367 . S
C1437 C1445 1.433 . S
C1438 H1434 0.929 . S
C1438 C1440 1.378 . S
C1438 C1442 1.350 . S
C1439 C1442 1.463 1_455 S
C1439 C1444 1.350 . S
C1439 N1447 1.427 . S
C1440 H1431 0.930 . S
C1440 C1438 1.378 . S
C1440 C1441 1.367 . S
C1441 C1440 1.367 . S
C1441 C1443 1.433 . S
C1442 C1438 1.350 . S
C1442 C1439 1.463 1_655 S
C1442 N1446 1.427 . S
C1443 H1433 0.929 . S
C1443 C1441 1.433 . S
C1443 N1446 1.384 . S
C1444 H1435 0.929 . S
C1444 C1436 1.378 . S
C1444 C1439 1.350 . S
C1445 H1432 0.929 . S
C1445 C1437 1.433 . S
C1445 N1447 1.384 . S
N1446 C1442 1.427 . S
N1446 C1443 1.384 . S
N1447 C1439 1.427 . S
N1447 C1445 1.384 . S
H1448 C1454 0.930 . S
H1449 C1458 0.930 . S
H1450 C1463 0.929 . S
H1451 C1461 0.929 . S
H1452 C1456 0.929 . S
H1453 C1462 0.929 . S
C1454 H1448 0.930 . S
C1454 C1455 1.367 . S
C1454 C1462 1.378 . S
C1455 C1454 1.367 . S
C1455 C1463 1.433 . S
C1456 H1452 0.929 . S
C1456 C1458 1.378 . S
C1456 C1460 1.350 . S
C1457 C1460 1.463 1_545 S
C1457 C1462 1.350 . S
C1457 N1465 1.427 . S
C1458 H1449 0.930 . S
C1458 C1456 1.378 . S
C1458 C1459 1.367 . S
C1459 C1458 1.367 . S
C1459 C1461 1.433 . S
C1460 C1456 1.350 . S
C1460 C1457 1.463 1_565 S
C1460 N1464 1.427 . S
C1461 H1451 0.929 . S
C1461 C1459 1.433 . S
C1461 N1464 1.384 . S
C1462 H1453 0.929 . S
C1462 C1454 1.378 . S
C1462 C1457 1.350 . S
C1463 H1450 0.929 . S
C1463 C1455 1.433 . S
C1463 N1465 1.384 . S
N1464 C1460 1.427 . S
N1464 C1461 1.384 . S
N1465 C1457 1.427 . S
N1465 C1463 1.384 . S
H1466 C1472 0.930 . S
H1467 C1476 0.930 . S
H1468 C1481 0.929 . S
H1469 C1479 0.929 . S
H1470 C1474 0.929 1_655 S
H1471 C1480 0.929 1_455 S
C1472 H1466 0.930 . S
C1472 C1473 1.367 . S
C1472 C1480 1.378 . S
C1473 C1472 1.367 . S
C1473 C1481 1.433 . S
C1474 H1470 0.929 1_455 S
C1474 C1476 1.378 . S
C1474 C1478 1.350 . S
C1475 C1478 1.463 1_655 S
C1475 C1480 1.350 . S
C1475 N1483 1.427 . S
C1476 H1467 0.930 . S
C1476 C1474 1.378 . S
C1476 C1477 1.367 . S
C1477 C1476 1.367 . S
C1477 C1479 1.433 . S
C1478 C1474 1.350 . S
C1478 C1475 1.463 1_455 S
C1478 N1482 1.427 . S
C1479 H1469 0.929 . S
C1479 C1477 1.433 . S
C1479 N1482 1.384 . S
C1480 H1471 0.929 1_655 S
C1480 C1472 1.378 . S
C1480 C1475 1.350 . S
C1481 H1468 0.929 . S
C1481 C1473 1.433 . S
C1481 N1483 1.384 . S
N1482 C1478 1.427 . S
N1482 C1479 1.384 . S
N1483 C1475 1.427 . S
N1483 C1481 1.384 . S
H1484 C1490 0.930 . S
H1485 C1494 0.930 . S
H1486 C1499 0.929 . S
H1487 C1497 0.929 . S
H1488 C1492 0.929 . S
H1489 C1498 0.929 . S
C1490 H1484 0.930 . S
C1490 C1491 1.367 . S
C1490 C1498 1.378 . S
C1491 C1490 1.367 . S
C1491 C1499 1.433 . S
C1492 H1488 0.929 . S
C1492 C1494 1.378 . S
C1492 C1496 1.350 . S
C1493 C1496 1.463 1_565 S
C1493 C1498 1.350 . S
C1493 N1501 1.427 . S
C1494 H1485 0.930 . S
C1494 C1492 1.378 . S
C1494 C1495 1.367 . S
C1495 C1494 1.367 . S
C1495 C1497 1.433 . S
C1496 C1492 1.350 . S
C1496 C1493 1.463 1_545 S
C1496 N1500 1.427 . S
C1497 H1487 0.929 . S
C1497 C1495 1.433 . S
C1497 N1500 1.384 . S
C1498 H1489 0.929 . S
C1498 C1490 1.378 . S
C1498 C1493 1.350 . S
C1499 H1486 0.929 . S
C1499 C1491 1.433 . S
C1499 N1501 1.384 . S
N1500 C1496 1.427 . S
N1500 C1497 1.384 . S
N1501 C1493 1.427 . S
N1501 C1499 1.384 . S
H1502 C1508 0.930 . S
H1503 C1512 0.930 . S
H1504 C1517 0.929 . S
H1505 C1515 0.929 . S
H1506 C1510 0.929 . S
H1507 C1516 0.929 . S
C1508 H1502 0.930 . S
C1508 C1509 1.367 . S
C1508 C1516 1.378 . S
C1509 C1508 1.367 . S
C1509 C1517 1.433 . S
C1510 H1506 0.929 . S
C1510 C1512 1.378 . S
C1510 C1514 1.350 . S
C1511 C1514 1.463 1_455 S
C1511 C1516 1.350 . S
C1511 N1519 1.427 . S
C1512 H1503 0.930 . S
C1512 C1510 1.378 . S
C1512 C1513 1.367 . S
C1513 C1512 1.367 . S
C1513 C1515 1.433 . S
C1514 C1510 1.350 . S
C1514 C1511 1.463 1_655 S
C1514 N1518 1.427 . S
C1515 H1505 0.929 . S
C1515 C1513 1.433 . S
C1515 N1518 1.384 . S
C1516 H1507 0.929 . S
C1516 C1508 1.378 . S
C1516 C1511 1.350 . S
C1517 H1504 0.929 . S
C1517 C1509 1.433 . S
C1517 N1519 1.384 . S
N1518 C1514 1.427 . S
N1518 C1515 1.384 . S
N1519 C1511 1.427 . S
N1519 C1517 1.384 . S
C951 C300 1.655 . S
C955 C5 1.654 . S
C969 C359 1.655 . S
C973 C64 1.654 . S
C987 C123 1.654 . S
C991 C418 1.655 . S
C1005 C182 1.654 . S
C1009 C241 1.657 . S
C1023 C772 1.654 . S
C1027 C477 1.655 . S
C1041 C831 1.659 . S
C1045 C536 1.656 . S
C1059 C595 1.655 . S
C1063 C890 1.654 . S
C1077 C654 1.659 . S
C1081 C713 1.659 . S
C1095 C593 1.558 . S
C1099 C3 1.564 . S
C1113 C652 1.562 . S
C1117 C62 1.561 . S
C1131 C475 1.564 . S
C1135 C121 1.557 . S
C1149 C180 1.557 . S
C1153 C534 1.565 . S
C1167 C829 1.564 . S
C1171 C239 1.559 . S
C1185 C888 1.560 . S
C1189 C298 1.563 . S
C1203 C357 1.564 . S
C1207 C711 1.559 . S
C1221 C770 1.563 . S
C1225 C416 1.557 . S
C1239 C269 0.725 . S
C1243 C33 0.719 . S
C1257 C92 0.715 . S
C1261 C328 0.725 . S
C1275 C151 0.725 . S
C1279 C387 0.718 . S
C1293 C446 0.720 . S
C1297 C210 0.709 . S
C1311 C524 2.278 . S
C1315 C760 2.276 . S
C1329 C819 2.279 . S
C1333 C583 2.278 . S
C1347 C642 2.278 . S
C1351 C878 2.279 . S
C1365 C937 2.279 . S
C1369 C701 2.279 . S
C1383 C682 0.725 . S
C1387 C800 0.722 . S
C1401 C505 0.712 . S
C1405 C859 0.723 . S
C1419 C918 0.725 . S
C1423 C564 0.720 . S
C1437 C623 0.716 . S
C1441 C741 0.725 . S
C1455 C347 2.276 . S
C1459 C229 2.275 . S
C1473 C406 2.279 . S
C1477 C52 2.279 . S
C1491 C465 2.275 . S
C1495 C111 2.276 . S
C1509 C288 2.275 . S
C1513 C170 2.276 . S
