# Generated by pormake.
# Topology snz, (6)-cn, num edge types: 1
# Building blocks:
#     Node 0, Type 0, BuildingBlock: MIFKUJ_clean_sbu_0, # of connection points: 6
#     Node 1, Type 0, BuildingBlock: MIFKUJ_clean_sbu_0, # of connection points: 6
#     Node 2, Type 0, BuildingBlock: MIFKUJ_clean_sbu_0, # of connection points: 6
#     Node 3, Type 0, BuildingBlock: MIFKUJ_clean_sbu_0, # of connection points: 6
#     Node 4, Type 0, BuildingBlock: MIFKUJ_clean_sbu_0, # of connection points: 6
#     Node 5, Type 0, BuildingBlock: MIFKUJ_clean_sbu_0, # of connection points: 6
#     Node 6, Type 0, BuildingBlock: MIFKUJ_clean_sbu_0, # of connection points: 6
#     Node 7, Type 0, BuildingBlock: MIFKUJ_clean_sbu_0, # of connection points: 6
#     Node 8, Type 0, BuildingBlock: MIFKUJ_clean_sbu_0, # of connection points: 6
#     Edge 9, Type (0, 0), BuildingBlock: EZIPEK_clean_linker_0, # of connection points: 2
#     Edge 10, Type (0, 0), BuildingBlock: EZIPEK_clean_linker_0, # of connection points: 2
#     Edge 11, Type (0, 0), BuildingBlock: EZIPEK_clean_linker_0, # of connection points: 2
#     Edge 12, Type (0, 0), BuildingBlock: EZIPEK_clean_linker_0, # of connection points: 2
#     Edge 13, Type (0, 0), BuildingBlock: EZIPEK_clean_linker_0, # of connection points: 2
#     Edge 14, Type (0, 0), BuildingBlock: EZIPEK_clean_linker_0, # of connection points: 2
#     Edge 15, Type (0, 0), BuildingBlock: EZIPEK_clean_linker_0, # of connection points: 2
#     Edge 16, Type (0, 0), BuildingBlock: EZIPEK_clean_linker_0, # of connection points: 2
#     Edge 17, Type (0, 0), BuildingBlock: EZIPEK_clean_linker_0, # of connection points: 2
#     Edge 18, Type (0, 0), BuildingBlock: EZIPEK_clean_linker_0, # of connection points: 2
#     Edge 19, Type (0, 0), BuildingBlock: EZIPEK_clean_linker_0, # of connection points: 2
#     Edge 20, Type (0, 0), BuildingBlock: EZIPEK_clean_linker_0, # of connection points: 2
#     Edge 21, Type (0, 0), BuildingBlock: EZIPEK_clean_linker_0, # of connection points: 2
#     Edge 22, Type (0, 0), BuildingBlock: EZIPEK_clean_linker_0, # of connection points: 2
#     Edge 23, Type (0, 0), BuildingBlock: EZIPEK_clean_linker_0, # of connection points: 2
#     Edge 24, Type (0, 0), BuildingBlock: EZIPEK_clean_linker_0, # of connection points: 2
#     Edge 25, Type (0, 0), BuildingBlock: EZIPEK_clean_linker_0, # of connection points: 2
#     Edge 26, Type (0, 0), BuildingBlock: EZIPEK_clean_linker_0, # of connection points: 2
#     Edge 27, Type (0, 0), BuildingBlock: EZIPEK_clean_linker_0, # of connection points: 2
#     Edge 28, Type (0, 0), BuildingBlock: EZIPEK_clean_linker_0, # of connection points: 2
#     Edge 29, Type (0, 0), BuildingBlock: EZIPEK_clean_linker_0, # of connection points: 2
#     Edge 30, Type (0, 0), BuildingBlock: EZIPEK_clean_linker_0, # of connection points: 2
#     Edge 31, Type (0, 0), BuildingBlock: EZIPEK_clean_linker_0, # of connection points: 2
#     Edge 32, Type (0, 0), BuildingBlock: EZIPEK_clean_linker_0, # of connection points: 2
#     Edge 33, Type (0, 0), BuildingBlock: EZIPEK_clean_linker_0, # of connection points: 2
#     Edge 34, Type (0, 0), BuildingBlock: EZIPEK_clean_linker_0, # of connection points: 2
#     Edge 35, Type (0, 0), BuildingBlock: EZIPEK_clean_linker_0, # of connection points: 2
# Relax obj value: 0.147
# Max RMSD: 0.183
# Mean RMSD: 0.120
data_MOF--net-snz--node1-MIFKUJ_clean_sbu_0--edge1-EZIPEK_clean_linker_0
_symmetry_space_group_name_H-M    P1
_symmetry_Int_Tables_number       1
_symmetry_cell_setting            triclinic
loop_
_symmetry_equiv_pos_as_xyz
'x, y, z'
_cell_length_a     44.906796
_cell_length_b     41.578947
_cell_length_c     10.826598
_cell_angle_alpha  93.74784
_cell_angle_beta   93.94158
_cell_angle_gamma 120.37588
loop_
_atom_site_label
_atom_site_type_symbol
_atom_site_fract_x
_atom_site_fract_y
_atom_site_fract_z
_atom_type_partial_charge
Zn0 Zn 0.03853 0.49221 0.02799 0.0
Zn1 Zn 0.08795 0.45426 0.02827 0.0
C2 C 0.09034 0.57063 0.02516 0.0
O3 O 0.06634 0.56902 0.94451 0.0
C4 C 0.05631 0.37375 0.02946 0.0
O5 O 0.08323 0.38373 0.11172 0.0
O6 O 0.0047 0.51109 1.01171 0.0
O7 O 0.03404 0.46526 0.85506 0.0
O8 O 0.08838 0.47908 0.86744 0.0
C9 C 0.98069 0.50075 0.92237 0.0
O10 O 0.97544 0.47377 0.83747 0.0
O11 O 0.08542 0.54086 0.06914 0.0
C12 C 0.15262 0.4629 0.14837 0.0
O13 O 0.14566 0.47789 0.24434 0.0
O14 O 0.1326 0.45321 0.04678 0.0
O15 O 0.08251 0.47146 0.20535 0.0
O16 O 0.03057 0.4654 0.18559 0.0
O17 O 0.05156 0.39876 0.98574 0.0
C18 C 0.06052 0.47159 0.80136 0.0
C19 C 0.05605 0.46781 0.25408 0.0
Zn20 Zn 0.53182 0.44553 0.06768 0.0
Zn21 Zn 0.62164 0.49044 0.09711 0.0
C22 C 0.51213 0.36682 0.08415 0.0
O23 O 0.51004 0.37318 0.20266 0.0
C24 C 0.65668 0.56621 0.19351 0.0
O25 O 0.6732 0.55266 0.25585 0.0
O26 O 0.48297 0.43618 0.07653 0.0
O27 O 0.55448 0.46169 0.2509 0.0
O28 O 0.60793 0.47135 0.26853 0.0
C29 C 0.47458 0.44833 0.171 0.0
O30 O 0.49865 0.4712 0.26126 0.0
O31 O 0.52188 0.39322 1.01547 0.0
C32 C 0.6794 0.51583 0.97167 0.0
O33 O 0.66009 0.52713 0.91505 0.0
O34 O 0.66878 0.49773 0.06541 0.0
O35 O 0.59405 0.46091 0.9279 0.0
O36 O 0.55242 0.47404 0.91554 0.0
O37 O 0.63023 0.54376 0.1161 0.0
C38 C 0.58137 0.46713 0.31845 0.0
C39 C 0.57392 0.46799 0.86221 0.0
Zn40 Zn 0.65251 0.0318 0.04402 0.0
Zn41 Zn 0.56591 0.98573 1.00685 0.0
C42 C 0.67784 0.98977 0.15402 0.0
O43 O 0.69998 0.02425 0.20426 0.0
C44 C 0.53596 0.0254 0.92416 0.0
O45 O 0.51882 0.99271 0.85527 0.0
O46 O 0.7032 0.07104 0.03371 0.0
O47 O 0.63189 0.02912 0.86496 0.0
O48 O 0.57981 0.97805 0.83544 0.0
C49 C 0.7181 0.05962 0.96167 0.0
O50 O 0.69969 0.02554 0.90235 0.0
O51 O 0.65286 0.98419 0.07492 0.0
C52 C 0.50487 0.95359 0.11207 0.0
O53 O 0.5251 0.98623 0.17896 0.0
O54 O 0.51676 0.94422 0.02198 0.0
O55 O 0.58946 0.98569 0.17569 0.0
O56 O 0.63541 0.04261 0.20603 0.0
O57 O 0.56176 0.03206 1.00061 0.0
C58 C 0.60576 0.00413 0.7914 0.0
C59 C 0.61207 0.01386 0.2504 0.0
Zn60 Zn 0.76339 0.86002 0.40333 0.0
Zn61 Zn 0.79465 0.79877 0.39799 0.0
C62 C 0.8208 0.93909 0.42948 0.0
O63 O 0.80384 0.94242 0.33243 0.0
C64 C 0.74543 0.7249 0.29221 0.0
O65 O 0.77124 0.7337 0.22522 0.0
O66 O 0.72919 0.87852 0.38144 0.0
O67 O 0.76366 0.83983 0.22475 0.0
O68 O 0.80066 0.81956 0.22705 0.0
C69 C 0.72616 0.89052 0.27868 0.0
O70 O 0.74288 0.88787 0.18743 0.0
O71 O 0.81006 0.907 0.46669 0.0
C72 C 0.82634 0.76383 0.5208 0.0
O73 O 0.80107 0.75713 0.5886 0.0
O74 O 0.83007 0.78262 0.42882 0.0
O75 O 0.80063 0.82856 0.56749 0.0
O76 O 0.75173 0.82908 0.55364 0.0
O77 O 0.74786 0.7498 0.37408 0.0
C78 C 0.78152 0.82923 0.16713 0.0
C79 C 0.77617 0.82871 0.62003 0.0
Zn80 Zn 0.21443 0.79865 0.32982 0.0
Zn81 Zn 0.31405 0.8906 0.37309 0.0
C82 C 0.18063 0.72577 0.20342 0.0
O83 O 0.17131 0.74354 0.12848 0.0
C84 C 0.33624 0.96996 0.3347 0.0
O85 O 0.32128 0.95794 0.21941 0.0
O86 O 0.16762 0.79323 0.35119 0.0
O87 O 0.24108 0.82273 0.50505 0.0
O88 O 0.29482 0.87139 0.5384 0.0
C89 C 0.15553 0.77655 0.44633 0.0
O90 O 0.17449 0.76746 0.51684 0.0
O91 O 0.20189 0.7441 0.30075 0.0
C92 C 0.37104 0.90182 0.26023 0.0
O93 O 0.35741 0.91698 0.19095 0.0
O94 O 0.35595 0.88577 0.35223 0.0
O95 O 0.28622 0.87041 0.19674 0.0
O96 O 0.23256 0.82095 0.16582 0.0
O97 O 0.33497 0.9469 0.40856 0.0
C98 C 0.26747 0.84669 0.57993 0.0
C99 C 0.25907 0.84693 0.12361 0.0
Zn100 Zn 0.26125 0.32189 0.31176 0.0
Zn101 Zn 0.17697 0.28229 0.2832 0.0
C102 C 0.28286 0.26621 0.28216 0.0
O103 O 0.3015 0.28722 0.19999 0.0
C104 C 0.17362 0.34515 0.21334 0.0
O105 O 0.14639 0.3178 0.14289 0.0
O106 O 0.31263 0.36288 0.32066 0.0
O107 O 0.23946 0.31844 0.13084 0.0
O108 O 0.18746 0.2675 0.11285 0.0
C109 C 0.32786 0.36964 0.22228 0.0
O110 O 0.30953 0.35311 0.11371 0.0
O111 O 0.26278 0.27458 0.33416 0.0
C112 C 0.10914 0.26624 0.35129 0.0
O113 O 0.12637 0.30208 0.39264 0.0
O114 O 0.12434 0.25208 0.29296 0.0
O115 O 0.19648 0.2741 0.44768 0.0
O116 O 0.24335 0.33028 0.47625 0.0
O117 O 0.19206 0.33737 0.28552 0.0
C118 C 0.21264 0.29238 0.06189 0.0
C119 C 0.22033 0.30161 0.52173 0.0
Zn120 Zn 0.42234 0.13643 0.80664 0.0
Zn121 Zn 0.42402 0.20203 0.51911 0.0
C122 C 0.45186 0.09161 0.87604 0.0
O123 O 0.42335 0.07289 0.92849 0.0
C124 C 0.37722 0.22937 0.47048 0.0
O125 O 0.40577 0.26241 0.48065 0.0
O126 O 0.3781 0.10255 0.88179 0.0
O127 O 0.44508 0.18977 0.88574 0.0
O128 O 0.44005 0.21138 0.70853 0.0
C129 C 0.37167 0.10928 0.99021 0.0
O130 O 0.34239 0.08503 0.02995 0.0
O131 O 0.45686 0.1194 0.8198 0.0
C132 C 0.46575 0.24371 0.32116 0.0
O133 O 0.49085 0.27376 0.2821 0.0
O134 O 0.46154 0.24387 0.43611 0.0
O135 O 0.40981 0.15021 0.43793 0.0
O136 O 0.41469 0.14097 0.6295 0.0
O137 O 0.37898 0.2007 0.49016 0.0
C138 C 0.44992 0.21704 0.82552 0.0
C139 C 0.40524 0.1275 0.5165 0.0
Zn140 Zn 0.9138 0.1617 0.6624 0.0
Zn141 Zn 0.93349 0.13933 0.88986 0.0
C142 C 0.97228 0.17816 0.51434 0.0
O143 O 0.95817 0.14168 0.49469 0.0
C144 C 0.86058 0.11145 0.92246 0.0
O145 O 0.86745 0.09336 1.00373 0.0
O146 O 0.86706 0.15758 0.62016 0.0
O147 O 0.90228 0.10624 0.64819 0.0
O148 O 0.93265 0.09672 0.79421 0.0
C149 C 0.85464 0.15279 0.50794 0.0
O150 O 0.82468 0.15048 0.47973 0.0
O151 O 0.95508 0.19096 0.56469 0.0
C152 C 0.93458 0.16048 0.12261 0.0
O153 O 0.93008 0.18194 0.05036 0.0
O154 O 0.93861 0.13496 0.07106 0.0
O155 O 0.97388 0.19158 0.87249 0.0
O156 O 0.93344 0.20238 0.80629 0.0
O157 O 0.88429 0.13301 0.8588 0.0
C158 C 0.91178 0.08502 0.695 0.0
C159 C 0.96417 0.21496 0.85574 0.0
Zn160 Zn 0.87862 0.61109 0.7157 0.0
Zn161 Zn 0.95357 0.67397 0.68601 0.0
C162 C 0.80556 0.57831 0.74828 0.0
O163 O 0.81118 0.61127 0.72332 0.0
C164 C 0.02078 0.70324 0.60798 0.0
O165 O 0.00671 0.66746 0.56905 0.0
O166 O 0.89834 0.63282 0.88646 0.0
O167 O 0.9069 0.58694 0.67641 0.0
O168 O 0.95337 0.63425 0.78364 0.0
C169 C 0.88729 0.64708 0.96411 0.0
O170 O 0.86112 0.65122 0.92771 0.0
O171 O 0.82933 0.57047 0.73866 0.0
C172 C 0.93076 0.62594 0.43603 0.0
O173 O 0.94238 0.60399 0.46782 0.0
O174 O 0.9338 0.65209 0.51238 0.0
O175 O 0.92667 0.69923 0.73186 0.0
O176 O 0.87882 0.65238 0.62434 0.0
O177 O 0.00348 0.71405 0.66856 0.0
C178 C 0.93668 0.59988 0.73849 0.0
C179 C 0.89741 0.68699 0.66718 0.0
C180 C 0.06393 0.44369 0.58907 0.0
C181 C 0.05876 0.47014 0.66061 0.0
C182 C 0.05317 0.49592 0.46604 0.0
C183 C 0.05594 0.46792 0.39385 0.0
N184 N 0.05834 0.41128 0.38556 0.0
N185 N 0.04324 0.51795 0.66298 0.0
C186 C 0.06002 0.44089 0.45537 0.0
C187 C 0.05159 0.49498 0.59752 0.0
N188 N 0.07229 0.42082 0.64869 0.0
N189 N 0.05416 0.52495 0.41023 0.0
H190 H 0.04398 0.5202 0.75941 0.0
H191 H 0.03321 0.53287 0.62103 0.0
H192 H 0.05587 0.52705 0.31538 0.0
H193 H 0.05658 0.54872 0.45916 0.0
H194 H 0.08097 0.40463 0.60442 0.0
H195 H 0.07236 0.41937 0.74442 0.0
H196 H 0.05726 0.3883 0.42274 0.0
H197 H 0.05486 0.40791 0.28845 0.0
C198 C 0.58036 0.49918 0.66148 0.0
C199 C 0.57512 0.46764 0.72212 0.0
C200 C 0.57894 0.43816 0.52118 0.0
C201 C 0.58089 0.4681 0.45858 0.0
N202 N 0.57816 0.52467 0.46773 0.0
N203 N 0.56289 0.40384 0.70207 0.0
C204 C 0.57986 0.49775 0.52845 0.0
C205 C 0.57289 0.43635 0.64985 0.0
N206 N 0.58779 0.53149 0.73144 0.0
N207 N 0.5825 0.41106 0.45747 0.0
H208 H 0.55677 0.40068 0.79333 0.0
H209 H 0.55713 0.37878 0.65174 0.0
H210 H 0.58487 0.41006 0.36237 0.0
H211 H 0.58559 0.39108 0.50048 0.0
H212 H 0.59587 0.55678 0.69469 0.0
H213 H 0.5892 0.53413 0.8284 0.0
H214 H 0.57291 0.54417 0.51039 0.0
H215 H 0.57984 0.52617 0.37248 0.0
C216 C 0.60373 0.97605 0.57189 0.0
C217 C 0.60616 0.00601 0.65212 0.0
C218 C 0.61021 0.04015 0.46821 0.0
C219 C 0.61102 0.01182 0.38974 0.0
N220 N 0.61194 0.95409 0.37087 0.0
N221 N 0.61405 0.06808 0.67732 0.0
C222 C 0.60829 0.97994 0.44266 0.0
C223 C 0.61033 0.03856 0.60031 0.0
N224 N 0.59742 0.94378 0.61934 0.0
N225 N 0.60676 0.0673 0.41565 0.0
H226 H 0.6104 0.0668 0.77132 0.0
H227 H 0.62225 0.0945 0.64938 0.0
H228 H 0.60541 0.06892 0.31997 0.0
H229 H 0.60183 0.08614 0.4649 0.0
H230 H 0.59013 0.91887 0.56443 0.0
H231 H 0.59751 0.94095 0.71422 0.0
H232 H 0.61425 0.93262 0.40563 0.0
H233 H 0.61633 0.95604 0.27784 0.0
C234 C 0.74845 0.80168 0.81526 0.0
C235 C 0.77702 0.82945 0.76056 0.0
C236 C 0.80973 0.85507 0.97184 0.0
C237 C 0.78019 0.82904 0.02687 0.0
N238 N 0.719 0.78225 0.99986 0.0
N239 N 0.83219 0.88758 0.79111 0.0
C240 C 0.74881 0.80393 0.94814 0.0
C241 C 0.80702 0.8574 0.84019 0.0
N242 N 0.72165 0.77174 0.74079 0.0
N243 N 0.84045 0.87803 0.04547 0.0
H244 H 0.83069 0.89112 0.69691 0.0
H245 H 0.85276 0.91098 0.84507 0.0
H246 H 0.843 0.8792 0.14236 0.0
H247 H 0.86394 0.89423 1.01005 0.0
H248 H 0.7021 0.7484 0.7755 0.0
H249 H 0.72065 0.76837 0.64404 0.0
H250 H 0.69458 0.767 0.94809 0.0
H251 H 0.71823 0.78131 0.09562 0.0
C252 C 0.26031 0.81537 0.78021 0.0
C253 C 0.26547 0.84692 0.71964 0.0
C254 C 0.26313 0.87709 0.92205 0.0
C255 C 0.26042 0.8467 0.98373 0.0
N256 N 0.2629 0.79006 0.97413 0.0
N257 N 0.27445 0.90947 0.73607 0.0
C258 C 0.2605 0.81658 0.91314 0.0
C259 C 0.26785 0.87833 0.79191 0.0
N260 N 0.25533 0.78401 0.71079 0.0
N261 N 0.25955 0.90404 0.98691 0.0
H262 H 0.27504 0.91056 0.64033 0.0
H263 H 0.28112 0.93503 0.78506 0.0
H264 H 0.25585 0.90382 0.081 0.0
H265 H 0.25745 0.9249 0.94626 0.0
H266 H 0.24659 0.75834 0.74557 0.0
H267 H 0.25791 0.78284 0.61591 0.0
H268 H 0.26738 0.77002 0.93109 0.0
H269 H 0.26349 0.78995 0.07054 0.0
C270 C 0.24581 0.30051 0.73911 0.0
C271 C 0.2191 0.30065 0.66116 0.0
C272 C 0.18536 0.29042 0.84177 0.0
C273 C 0.21246 0.29103 0.92078 0.0
N274 N 0.26269 0.28446 0.9328 0.0
N275 N 0.16764 0.30482 0.64585 0.0
C276 C 0.24129 0.29314 0.86613 0.0
C277 C 0.18983 0.29765 0.71458 0.0
N278 N 0.27601 0.30827 0.69285 0.0
N279 N 0.15477 0.28181 0.88633 0.0
H280 H 0.17184 0.31288 0.55671 0.0
H281 H 0.14777 0.30724 0.68095 0.0
H282 H 0.15005 0.27604 0.97709 0.0
H283 H 0.13265 0.27665 0.83047 0.0
H284 H 0.29816 0.31326 0.74815 0.0
H285 H 0.27995 0.31255 0.60017 0.0
H286 H 0.28222 0.28166 0.89637 0.0
H287 H 0.25796 0.27543 0.02064 0.0
C288 C 0.41561 0.20927 0.15264 0.0
C289 C 0.4427 0.2102 0.23142 0.0
C290 C 0.4226 0.14497 0.15481 0.0
C291 C 0.39646 0.14429 0.07161 0.0
N292 N 0.36823 0.17515 0.98405 0.0
N293 N 0.47686 0.18267 0.29018 0.0
C294 C 0.39308 0.1764 0.06817 0.0
C295 C 0.44785 0.17925 0.22629 0.0
N296 N 0.41136 0.23968 0.16034 0.0
N297 N 0.42203 0.11234 0.17077 0.0
H298 H 0.49558 0.20724 0.34526 0.0
H299 H 0.48386 0.16237 0.28123 0.0
H300 H 0.40238 0.08628 0.12691 0.0
H301 H 0.43915 0.11044 0.23522 0.0
H302 H 0.39123 0.24078 0.11138 0.0
H303 H 0.4277 0.2642 0.22008 0.0
H304 H 0.36417 0.19733 0.97357 0.0
H305 H 0.35159 0.15158 0.92091 0.0
C306 C 0.87593 0.12202 0.36525 0.0
C307 C 0.8766 0.15499 0.41217 0.0
C308 C 0.9255 0.19342 0.30001 0.0
C309 C 0.92389 0.16015 0.24838 0.0
N310 N 0.90775 0.09616 0.27072 0.0
N311 N 0.90506 0.22253 0.4454 0.0
C312 C 0.90218 0.12531 0.29272 0.0
C313 C 0.90229 0.1909 0.38571 0.0
N314 N 0.85003 0.08767 0.38926 0.0
N315 N 0.94856 0.22721 0.26262 0.0
H316 H 0.88744 0.22179 0.50478 0.0
H317 H 0.92574 0.24956 0.44177 0.0
H318 H 0.96909 0.23072 0.21385 0.0
H319 H 0.94744 0.25151 0.27875 0.0
H320 H 0.84614 0.06234 0.34761 0.0
H321 H 0.83057 0.08443 0.44351 0.0
H322 H 0.89354 0.07043 0.30485 0.0
H323 H 0.92993 0.09953 0.23452 0.0
C324 C 0.94119 0.63958 0.22019 0.0
C325 C 0.91719 0.62447 0.30795 0.0
C326 C 0.87577 0.63507 0.18519 0.0
C327 C 0.89971 0.64991 0.09647 0.0
N328 N 0.95895 0.67832 0.0514 0.0
N329 N 0.8599 0.60432 0.36828 0.0
C330 C 0.9337 0.65591 0.12133 0.0
C331 C 0.88411 0.62098 0.28839 0.0
N332 N 0.97079 0.63776 0.22992 0.0
N333 N 0.84543 0.63535 0.17511 0.0
H334 H 0.86342 0.59193 0.44448 0.0
H335 H 0.86342 0.59193 0.44448 0.0
H336 H 0.83997 0.65021 0.1129 0.0
H337 H 0.82726 0.62392 0.23847 0.0
H338 H 0.98748 0.64491 0.16116 0.0
H339 H 0.97712 0.62585 0.3012 0.0
H340 H 0.98495 0.68614 0.0695 0.0
H341 H 0.95427 0.69222 0.98257 0.0
C342 C 0.18372 0.4075 0.30861 0.0
C343 C 0.18236 0.38427 0.20363 0.0
C344 C 0.18029 0.42743 0.06418 0.0
C345 C 0.17525 0.44631 0.16721 0.0
N346 N 0.19432 0.46893 0.38488 0.0
N347 N 0.19191 0.37872 0.98942 0.0
C348 C 0.18423 0.44118 0.28918 0.0
C349 C 0.1849 0.39658 0.08346 0.0
N350 N 0.1823 0.39659 0.42538 0.0
N351 N 0.18068 0.43927 0.94932 0.0
H352 H 0.19732 0.35758 1.00477 0.0
H353 H 0.19484 0.38619 0.89936 0.0
H354 H 0.18183 0.46461 0.93792 0.0
H355 H 0.1807 0.42499 0.86686 0.0
H356 H 0.1788 0.4104 0.50179 0.0
H357 H 0.18268 0.37263 0.44509 0.0
H358 H 0.20337 0.46768 0.47463 0.0
H359 H 0.19829 0.49526 0.36942 0.0
C360 C 0.67983 0.63024 0.11735 0.0
C361 C 0.66992 0.60726 0.21602 0.0
C362 C 0.70356 0.66311 0.36962 0.0
C363 C 0.71467 0.68597 0.27087 0.0
N364 N 0.70451 0.69295 0.05574 0.0
N365 N 0.66243 0.60289 0.43339 0.0
C366 C 0.69978 0.66996 0.14632 0.0
C367 C 0.67849 0.6242 0.34131 0.0
N368 N 0.67224 0.61444 0.99627 0.0
N369 N 0.71852 0.6776 0.48947 0.0
H370 H 0.64385 0.57438 0.41498 0.0
H371 H 0.66479 0.61411 0.52489 0.0
H372 H 0.73642 0.70585 0.51637 0.0
H373 H 0.71483 0.66108 0.56176 0.0
H374 H 0.68322 0.62965 0.92255 0.0
H375 H 0.65624 0.58584 0.9691 0.0
H376 H 0.69152 0.68338 0.96571 0.0
H377 H 0.71881 0.7221 0.07457 0.0
C378 C 0.46573 0.92815 0.27613 0.0
C379 C 0.46943 0.92909 0.14706 0.0
C380 C 0.40609 0.89621 0.10154 0.0
C381 C 0.40368 0.90442 0.22839 0.0
N382 N 0.43269 0.93172 0.43742 0.0
N383 N 0.442 0.91478 0.93381 0.0
C384 C 0.43373 0.92066 0.31693 0.0
C385 C 0.4393 0.91261 0.05826 0.0
N386 N 0.49296 0.93468 0.35966 0.0
N387 N 0.37655 0.87284 0.02253 0.0
H388 H 0.46542 0.92608 0.89606 0.0
H389 H 0.42086 0.9075 0.86818 0.0
H390 H 0.35191 0.85978 0.05274 0.0
H391 H 0.37685 0.86329 0.93146 0.0
H392 H 0.49087 0.9316 0.45399 0.0
H393 H 0.51638 0.93894 0.33172 0.0
H394 H 0.45498 0.94778 0.50065 0.0
H395 H 0.41015 0.92778 0.47195 0.0
C396 C 0.50914 0.05282 0.79224 0.0
C397 C 0.52318 0.05202 0.91278 0.0
C398 C 0.49873 0.0883 1.00129 0.0
C399 C 0.47854 0.08094 0.88562 0.0
N400 N 0.46128 0.05197 0.67289 0.0
N401 N 0.52972 0.0685 0.13692 0.0
C402 C 0.48312 0.06246 0.78088 0.0
C403 C 0.51815 0.07021 0.01894 0.0
N404 N 0.52077 0.04441 0.68867 0.0
N405 N 0.49961 0.11286 0.09377 0.0
H406 H 0.54523 0.05722 0.15719 0.0
H407 H 0.52218 0.07666 0.21628 0.0
H408 H 0.48604 0.12694 0.08234 0.0
H409 H 0.51648 0.12215 0.17619 0.0
H410 H 0.51325 0.04735 0.59884 0.0
H411 H 0.54088 0.03866 0.69442 0.0
H412 H 0.46134 0.03494 0.59797 0.0
H413 H 0.44086 0.05713 0.66345 0.0
C414 C 0.02203 0.27512 0.86741 0.0
C415 C 0.98749 0.25587 0.90068 0.0
C416 C 0.99826 0.31467 0.01679 0.0
C417 C 0.03253 0.33344 0.98387 0.0
N418 N 0.07914 0.33158 0.89215 0.0
N419 N 0.94087 0.25953 0.99059 0.0
C420 C 0.045 0.31362 0.91353 0.0
C421 C 0.97506 0.27623 0.9706 0.0
N422 N 0.03202 0.25751 0.78292 0.0
N423 N 0.98856 0.33303 0.09955 0.0
H424 H 0.92278 0.23115 0.96963 0.0
H425 H 0.92939 0.27439 0.02215 0.0
H426 H 0.00445 0.36132 0.13371 0.0
H427 H 0.96605 0.31977 0.14303 0.0
H428 H 0.05503 0.27103 0.7425 0.0
H429 H 0.01601 0.22988 0.74292 0.0
H430 H 0.09141 0.31778 0.85881 0.0
H431 H 0.09612 0.36038 0.91453 0.0
C432 C 0.77485 0.55112 0.93366 0.0
C433 C 0.77339 0.55298 0.80301 0.0
C434 C 0.70985 0.51676 0.78654 0.0
C435 C 0.71154 0.52271 0.91826 0.0
N436 N 0.74665 0.54807 0.11872 0.0
N437 N 0.73939 0.53744 0.6031 0.0
C438 C 0.74423 0.53984 0.99284 0.0
C439 C 0.7408 0.53548 0.72866 0.0
N440 N 0.80544 0.56046 1.0016 0.0
N441 N 0.67865 0.49255 0.71722 0.0
H442 H 0.76156 0.54908 0.55684 0.0
H443 H 0.71646 0.52928 0.54631 0.0
H444 H 0.65581 0.47699 0.75767 0.0
H445 H 0.67609 0.48481 0.6219 0.0
H446 H 0.80709 0.55567 0.09442 0.0
H447 H 0.8285 0.56937 0.96224 0.0
H448 H 0.77025 0.56446 0.17489 0.0
H449 H 0.72524 0.54111 0.16652 0.0
C450 C 0.97928 0.5881 0.86531 0.0
C451 C 0.94943 0.57408 0.77592 0.0
C452 C 0.93552 0.5098 0.8046 0.0
C453 C 0.96481 0.52431 0.89586 0.0
N454 N 0.00258 0.57641 0.05236 0.0
N455 N 0.90825 0.52134 0.62668 0.0
C456 C 0.98312 0.56317 0.93851 0.0
C457 C 0.92971 0.53473 0.73654 0.0
N458 N 0.0059 0.62449 0.87281 0.0
N459 N 0.91202 0.47212 0.78852 0.0
H460 H 0.90756 0.53876 0.56324 0.0
H461 H 0.89546 0.49332 0.5887 0.0
H462 H 0.91425 0.45377 0.84452 0.0
H463 H 0.8883 0.45998 0.73248 0.0
H464 H 0.02899 0.63492 0.93166 0.0
H465 H 0.0077 0.6421 0.80586 0.0
H466 H 0.01473 0.60451 0.0894 0.0
H467 H 0.00154 0.55871 0.11783 0.0
C468 C 0.51407 0.30823 0.03092 0.0
C469 C 0.49583 0.32777 0.02411 0.0
C470 C 0.4464 0.27342 0.8976 0.0
C471 C 0.46587 0.2552 0.89383 0.0
N472 N 0.51928 0.25588 0.94705 0.0
N473 N 0.44566 0.33065 0.94626 0.0
C474 C 0.49992 0.27261 0.95892 0.0
C475 C 0.46229 0.31081 0.95615 0.0
N476 N 0.54475 0.32365 0.10709 0.0
N477 N 0.41203 0.25427 0.85119 0.0
H478 H 0.45487 0.3569 0.99592 0.0
H479 H 0.42364 0.32203 0.88354 0.0
H480 H 0.39933 0.22707 0.80535 0.0
H481 H 0.39521 0.26392 0.86863 0.0
H482 H 0.55757 0.30931 0.12738 0.0
H483 H 0.5562 0.35011 0.15802 0.0
H484 H 0.54544 0.26868 0.9812 0.0
H485 H 0.51002 0.23009 0.89413 0.0
C486 C 0.8173 0.12035 0.02711 0.0
C487 C 0.82628 0.10879 0.91714 0.0
C488 C 0.76586 0.07968 0.82475 0.0
C489 C 0.75571 0.08272 0.94484 0.0
N490 N 0.77364 0.10487 0.16605 0.0
N491 N 0.8088 0.07647 0.70887 0.0
C492 C 0.78188 0.10338 0.04751 0.0
C493 C 0.80058 0.08866 0.81417 0.0
N494 N 0.84278 0.14798 0.11175 0.0
N495 N 0.74242 0.06877 0.72083 0.0
H496 H 0.83409 0.08314 0.69751 0.0
H497 H 0.79019 0.05792 0.63652 0.0
H498 H 0.71739 0.06406 0.72496 0.0
H499 H 0.74906 0.06868 0.6305 0.0
H500 H 0.83761 0.16014 0.18828 0.0
H501 H 0.86873 0.16184 0.09559 0.0
H502 H 0.79221 0.11529 0.24403 0.0
H503 H 0.74848 0.09337 0.18918 0.0
C504 C 0.69638 0.96149 0.31793 0.0
C505 C 0.68285 0.95884 0.19235 0.0
C506 C 0.68556 0.90194 0.14613 0.0
C507 C 0.7065 0.91018 0.26116 0.0
N508 N 0.73597 0.95234 0.45168 0.0
N509 N 0.66937 0.92808 0.9804 0.0
C510 C 0.71269 0.94084 0.34695 0.0
C511 C 0.67813 0.92913 0.10462 0.0
N512 N 0.69359 0.98354 0.41022 0.0
N513 N 0.67291 0.86815 0.07608 0.0
H514 H 0.66569 0.94828 0.9422 0.0
H515 H 0.66936 0.90903 0.91284 0.0
H516 H 0.67724 0.84731 0.10568 0.0
H517 H 0.65505 0.85942 0.9965 0.0
H518 H 0.70029 0.98363 0.50443 0.0
H519 H 0.6809 0.99832 0.39459 0.0
H520 H 0.74421 0.97731 0.50824 0.0
H521 H 0.74962 0.93922 0.47644 0.0
C522 C 0.17019 0.66844 0.07039 0.0
C523 C 0.16354 0.68431 0.17755 0.0
C524 C 0.11132 0.62385 0.19409 0.0
C525 C 0.11786 0.60797 0.08676 0.0
N526 N 0.15627 0.6121 0.9365 0.0
N527 N 0.13308 0.67529 0.3589 0.0
C528 C 0.14835 0.62934 0.02957 0.0
C529 C 0.13598 0.66128 0.24565 0.0
N530 N 0.19685 0.6911 1.00597 0.0
N531 N 0.08046 0.60398 0.24209 0.0
H532 H 0.15045 0.70262 0.39884 0.0
H533 H 0.11561 0.65894 0.41866 0.0
H534 H 0.06172 0.57646 0.20731 0.0
H535 H 0.07213 0.61554 0.30993 0.0
H536 H 0.2008 0.68266 0.91906 0.0
H537 H 0.21451 0.71919 0.03835 0.0
H538 H 0.17952 0.62511 0.89727 0.0
H539 H 0.14051 0.58357 0.90489 0.0
C540 C 0.41678 0.44432 0.14506 0.0
C541 C 0.43755 0.43022 0.19248 0.0
C542 C 0.38812 0.3819 0.28579 0.0
C543 C 0.36631 0.39351 0.22725 0.0
N544 N 0.35916 0.43548 0.10168 0.0
N545 N 0.44353 0.38453 0.30042 0.0
C546 C 0.38054 0.42477 0.15737 0.0
C547 C 0.42343 0.39891 0.26173 0.0
N548 N 0.43198 0.47689 0.09067 0.0
N549 N 0.37524 0.35467 0.36442 0.0
H550 H 0.46985 0.39713 0.28961 0.0
H551 H 0.43387 0.35889 0.3361 0.0
H552 H 0.3494 0.34027 0.38155 0.0
H553 H 0.39063 0.34805 0.42085 0.0
H554 H 0.41939 0.49109 0.06527 0.0
H555 H 0.45827 0.49131 0.07799 0.0
H556 H 0.36651 0.45462 0.0364 0.0
H557 H 0.33329 0.42419 0.118 0.0
C558 C 0.87943 0.73455 0.72106 0.0
C559 C 0.8859 0.71326 0.63052 0.0
C560 C 0.85648 0.72825 0.4648 0.0
C561 C 0.85011 0.74982 0.55468 0.0
N562 N 0.86492 0.78276 0.76188 0.0
N563 N 0.89239 0.70239 0.41569 0.0
C564 C 0.8645 0.75582 0.68105 0.0
C565 C 0.8781 0.71405 0.50213 0.0
N566 N 0.88634 0.73353 0.84509 0.0
N567 N 0.84034 0.71915 0.34554 0.0
H568 H 0.89076 0.70632 0.32194 0.0
H569 H 0.90954 0.69333 0.44063 0.0
H570 H 0.82346 0.72783 0.31379 0.0
H571 H 0.84129 0.70004 0.28109 0.0
H572 H 0.87784 0.74434 0.91478 0.0
H573 H 0.89897 0.72008 0.87843 0.0
H574 H 0.87784 0.79082 0.85206 0.0
H575 H 0.85558 0.79996 0.73449 0.0
C576 C 0.4083 0.07066 0.44749 0.0
C577 C 0.38805 0.08688 0.4761 0.0
C578 C 0.33417 0.02669 0.41186 0.0
C579 C 0.35422 0.01045 0.38052 0.0
N580 N 0.40966 0.01553 0.36434 0.0
N581 N 0.33256 0.08311 0.46887 0.0
C582 C 0.3912 0.03208 0.39725 0.0
C583 C 0.35121 0.06564 0.45388 0.0
N584 N 0.4438 0.09265 0.46563 0.0
N585 N 0.29882 0.00446 0.40607 0.0
H586 H 0.34383 0.11121 0.50491 0.0
H587 H 0.30619 0.07062 0.43827 0.0
H588 H 0.28527 0.97594 0.37327 0.0
H589 H 0.28295 0.01343 0.44162 0.0
H590 H 0.46085 0.0838 0.44339 0.0
H591 H 0.45679 0.12071 0.5039 0.0
H592 H 0.4366 0.02895 0.37284 0.0
H593 H 0.39783 0.98759 0.32591 0.0
C594 C 0.03374 0.19163 0.50374 0.0
C595 C 0.00901 0.20343 0.48644 0.0
C596 C 0.04913 0.25361 0.37106 0.0
C597 C 0.07391 0.24235 0.38908 0.0
N598 N 0.09362 0.20726 0.50339 0.0
N599 N 0.00362 0.25799 0.46009 0.0
C600 C 0.06724 0.21293 0.46303 0.0
C601 C 0.01957 0.23804 0.437 0.0
N602 N 0.02616 0.16134 0.56611 0.0
N603 N 0.05346 0.27897 0.28943 0.0
H604 H 0.98396 0.25038 0.51695 0.0
H605 H 0.01302 0.28495 0.43471 0.0
H606 H 0.07437 0.2904 0.23684 0.0
H607 H 0.0344 0.28545 0.26471 0.0
H608 H 0.03983 0.14726 0.56192 0.0
H609 H 0.00633 0.15046 0.62336 0.0
H610 H 0.09152 0.18921 0.56895 0.0
H611 H 0.11891 0.22308 0.481 0.0
C612 C 0.32771 0.23861 0.51179 0.0
C613 C 0.3434 0.22546 0.42964 0.0
C614 C 0.30443 0.22154 0.25315 0.0
C615 C 0.29231 0.2397 0.33304 0.0
N616 N 0.27714 0.2435 0.54066 0.0
N617 N 0.33582 0.18841 0.23655 0.0
C618 C 0.29893 0.24121 0.4637 0.0
C619 C 0.32808 0.21143 0.3047 0.0
N620 N 0.34052 0.249 0.63484 0.0
N621 N 0.29419 0.21527 0.12798 0.0
H622 H 0.35265 0.18013 0.2731 0.0
H623 H 0.32283 0.17451 0.14902 0.0
H624 H 0.27478 0.21983 0.0902 0.0
H625 H 0.3054 0.20657 0.06259 0.0
H626 H 0.33257 0.26277 0.69623 0.0
H627 H 0.36019 0.24508 0.67346 0.0
H628 H 0.27964 0.24206 0.63624 0.0
H629 H 0.2538 0.24121 0.50653 0.0
C630 C 0.87889 0.99907 0.45953 0.0
C631 C 0.84796 0.9736 0.50866 0.0
C632 C 0.86535 0.01786 0.69806 0.0
C633 C 0.89394 0.04485 0.6425 0.0
N634 N 0.93453 0.05791 0.49382 0.0
N635 N 0.8099 0.95969 0.67026 0.0
C636 C 0.90262 0.03452 0.52949 0.0
C637 C 0.841 0.9829 0.62791 0.0
N638 N 0.88502 0.98958 0.34468 0.0
N639 N 0.86201 0.02537 0.81939 0.0
H640 H 0.79115 0.93366 0.62364 0.0
H641 H 0.80125 0.96732 0.74739 0.0
H642 H 0.88008 0.05017 0.87419 0.0
H643 H 0.84385 0.00565 0.87013 0.0
H644 H 0.90481 0.00812 0.29637 0.0
H645 H 0.86928 0.96305 0.29486 0.0
H646 H 0.94394 0.05195 0.41582 0.0
H647 H 0.95316 0.08205 0.55084 0.0
C648 C 0.08449 0.75302 0.65198 0.0
C649 C 0.05443 0.73037 0.56579 0.0
C650 C 0.09024 0.74353 0.39399 0.0
C651 C 0.1205 0.76618 0.47991 0.0
N652 N 0.14541 0.8019 0.68222 0.0
N653 N 0.02796 0.71607 0.35344 0.0
C654 C 0.11721 0.77408 0.60633 0.0
C655 C 0.05713 0.72963 0.43619 0.0
N656 N 0.08218 0.75288 0.7771 0.0
N657 N 0.09272 0.73276 0.275 0.0
H658 H 0.00347 0.70681 0.38231 0.0
H659 H 0.02878 0.71812 0.25818 0.0
H660 H 0.11626 0.74142 0.23965 0.0
H661 H 0.07124 0.71259 0.21441 0.0
H662 H 0.10384 0.76537 0.84414 0.0
H663 H 0.05862 0.73812 0.81378 0.0
H664 H 0.14403 0.81108 0.77233 0.0
H665 H 0.16945 0.81844 0.6502 0.0
loop_
_geom_bond_atom_site_label_1
_geom_bond_atom_site_label_2
_geom_bond_distance
_geom_bond_site_symmetry_2
_ccdc_geom_bond_type
Zn0 O6 1.969 1_455 S
Zn0 O7 1.965 1_554 S
Zn0 O11 2.024 . S
Zn0 O16 1.969 . S
Zn1 O8 1.969 1_554 S
Zn1 O14 1.969 . S
Zn1 O15 1.965 . S
Zn1 O17 2.024 1_455 S
C2 O3 1.229 . S
C2 O11 1.058 . S
O3 C2 1.229 . S
C4 O5 1.229 1_655 S
C4 O17 1.058 1_556 S
O5 C4 1.229 1_455 S
O6 Zn0 1.969 1_655 S
O6 C9 1.267 1_554 S
O7 Zn0 1.965 1_556 S
O7 C18 1.260 . S
O8 Zn1 1.969 1_556 S
O8 C18 1.258 . S
C9 O6 1.267 1_556 S
C9 O10 1.228 1_655 S
O10 C9 1.228 1_455 S
O11 Zn0 2.024 . S
O11 C2 1.058 . S
C12 O13 1.228 . S
C12 O14 1.267 . S
O13 C12 1.228 . S
O14 Zn1 1.969 . S
O14 C12 1.267 . S
O15 Zn1 1.965 . S
O15 C19 1.260 . S
O16 Zn0 1.969 . S
O16 C19 1.258 . S
O17 Zn1 2.024 1_655 S
O17 C4 1.058 1_554 S
C18 O7 1.260 . S
C18 O8 1.258 . S
C19 O15 1.260 . S
C19 O16 1.258 . S
Zn20 O26 1.969 . S
Zn20 O27 1.965 . S
Zn20 O31 2.024 . S
Zn20 O36 1.969 1_554 S
Zn21 O28 1.969 . S
Zn21 O34 1.969 . S
Zn21 O35 1.965 1_554 S
Zn21 O37 2.024 . S
C22 O23 1.229 1_554 S
C22 O31 1.058 . S
O23 C22 1.229 1_556 S
C24 O25 1.229 . S
C24 O37 1.058 . S
O25 C24 1.229 . S
O26 Zn20 1.969 . S
O26 C29 1.267 . S
O27 Zn20 1.965 . S
O27 C38 1.260 . S
O28 Zn21 1.969 . S
O28 C38 1.258 . S
C29 O26 1.267 . S
C29 O30 1.228 . S
O30 C29 1.228 . S
O31 Zn20 2.024 . S
O31 C22 1.058 . S
C32 O33 1.228 1_554 S
C32 O34 1.267 . S
O33 C32 1.228 1_556 S
O34 Zn21 1.969 . S
O34 C32 1.267 . S
O35 Zn21 1.965 1_556 S
O35 C39 1.260 . S
O36 Zn20 1.969 1_556 S
O36 C39 1.258 . S
O37 Zn21 2.024 . S
O37 C24 1.058 . S
C38 O27 1.260 . S
C38 O28 1.258 . S
C39 O35 1.260 . S
C39 O36 1.258 . S
Zn40 O46 1.969 . S
Zn40 O47 1.965 . S
Zn40 O51 2.024 1_545 S
Zn40 O56 1.969 . S
Zn41 O48 1.969 1_554 S
Zn41 O54 1.969 1_545 S
Zn41 O55 1.965 . S
Zn41 O57 2.024 . S
C42 O43 1.229 1_565 S
C42 O51 1.058 . S
O43 C42 1.229 1_545 S
C44 O45 1.229 . S
C44 O57 1.058 . S
O45 C44 1.229 . S
O46 Zn40 1.969 . S
O46 C49 1.267 . S
O47 Zn40 1.965 . S
O47 C58 1.260 1_554 S
O48 Zn41 1.969 1_556 S
O48 C58 1.258 . S
C49 O46 1.267 . S
C49 O50 1.228 . S
O50 C49 1.228 . S
O51 Zn40 2.024 1_565 S
O51 C42 1.058 . S
C52 O53 1.228 1_565 S
C52 O54 1.267 . S
O53 C52 1.228 1_545 S
O54 Zn41 1.969 1_565 S
O54 C52 1.267 . S
O55 Zn41 1.965 . S
O55 C59 1.260 . S
O56 Zn40 1.969 . S
O56 C59 1.258 . S
O57 Zn41 2.024 . S
O57 C44 1.058 . S
C58 O47 1.260 1_556 S
C58 O48 1.258 . S
C59 O55 1.260 . S
C59 O56 1.258 . S
Zn60 O66 1.969 . S
Zn60 O67 1.965 . S
Zn60 O71 2.024 . S
Zn60 O76 1.969 . S
Zn61 O68 1.969 . S
Zn61 O74 1.969 . S
Zn61 O75 1.965 . S
Zn61 O77 2.024 . S
C62 O63 1.229 . S
C62 O71 1.058 . S
O63 C62 1.229 . S
C64 O65 1.229 . S
C64 O77 1.058 . S
O65 C64 1.229 . S
O66 Zn60 1.969 . S
O66 C69 1.267 . S
O67 Zn60 1.965 . S
O67 C78 1.260 . S
O68 Zn61 1.969 . S
O68 C78 1.258 . S
C69 O66 1.267 . S
C69 O70 1.228 . S
O70 C69 1.228 . S
O71 Zn60 2.024 . S
O71 C62 1.058 . S
C72 O73 1.228 . S
C72 O74 1.267 . S
O73 C72 1.228 . S
O74 Zn61 1.969 . S
O74 C72 1.267 . S
O75 Zn61 1.965 . S
O75 C79 1.260 . S
O76 Zn60 1.969 . S
O76 C79 1.258 . S
O77 Zn61 2.024 . S
O77 C64 1.058 . S
C78 O67 1.260 . S
C78 O68 1.258 . S
C79 O75 1.260 . S
C79 O76 1.258 . S
Zn80 O86 1.969 . S
Zn80 O87 1.965 . S
Zn80 O91 2.024 . S
Zn80 O96 1.969 . S
Zn81 O88 1.969 . S
Zn81 O94 1.969 . S
Zn81 O95 1.965 . S
Zn81 O97 2.024 . S
C82 O83 1.229 . S
C82 O91 1.058 . S
O83 C82 1.229 . S
C84 O85 1.229 . S
C84 O97 1.058 . S
O85 C84 1.229 . S
O86 Zn80 1.969 . S
O86 C89 1.267 . S
O87 Zn80 1.965 . S
O87 C98 1.260 . S
O88 Zn81 1.969 . S
O88 C98 1.258 . S
C89 O86 1.267 . S
C89 O90 1.228 . S
O90 C89 1.228 . S
O91 Zn80 2.024 . S
O91 C82 1.058 . S
C92 O93 1.228 . S
C92 O94 1.267 . S
O93 C92 1.228 . S
O94 Zn81 1.969 . S
O94 C92 1.267 . S
O95 Zn81 1.965 . S
O95 C99 1.260 . S
O96 Zn80 1.969 . S
O96 C99 1.258 . S
O97 Zn81 2.024 . S
O97 C84 1.058 . S
C98 O87 1.260 . S
C98 O88 1.258 . S
C99 O95 1.260 . S
C99 O96 1.258 . S
Zn100 O106 1.969 . S
Zn100 O107 1.965 . S
Zn100 O111 2.024 . S
Zn100 O116 1.969 . S
Zn101 O108 1.969 . S
Zn101 O114 1.969 . S
Zn101 O115 1.965 . S
Zn101 O117 2.024 . S
C102 O103 1.229 . S
C102 O111 1.058 . S
O103 C102 1.229 . S
C104 O105 1.229 . S
C104 O117 1.058 . S
O105 C104 1.229 . S
O106 Zn100 1.969 . S
O106 C109 1.267 . S
O107 Zn100 1.965 . S
O107 C118 1.260 . S
O108 Zn101 1.969 . S
O108 C118 1.258 . S
C109 O106 1.267 . S
C109 O110 1.228 . S
O110 C109 1.228 . S
O111 Zn100 2.024 . S
O111 C102 1.058 . S
C112 O113 1.228 . S
C112 O114 1.267 . S
O113 C112 1.228 . S
O114 Zn101 1.969 . S
O114 C112 1.267 . S
O115 Zn101 1.965 . S
O115 C119 1.260 . S
O116 Zn100 1.969 . S
O116 C119 1.258 . S
O117 Zn101 2.024 . S
O117 C104 1.058 . S
C118 O107 1.260 . S
C118 O108 1.258 . S
C119 O115 1.260 . S
C119 O116 1.258 . S
Zn120 O126 1.969 . S
Zn120 O127 1.965 . S
Zn120 O131 2.024 . S
Zn120 O136 1.969 . S
Zn121 O128 1.969 . S
Zn121 O134 1.969 . S
Zn121 O135 1.965 . S
Zn121 O137 2.024 . S
C122 O123 1.229 . S
C122 O131 1.058 . S
O123 C122 1.229 . S
C124 O125 1.229 . S
C124 O137 1.058 . S
O125 C124 1.229 . S
O126 Zn120 1.969 . S
O126 C129 1.267 1_556 S
O127 Zn120 1.965 . S
O127 C138 1.260 . S
O128 Zn121 1.969 . S
O128 C138 1.258 . S
C129 O126 1.267 1_554 S
C129 O130 1.228 . S
O130 C129 1.228 . S
O131 Zn120 2.024 . S
O131 C122 1.058 . S
C132 O133 1.228 . S
C132 O134 1.267 . S
O133 C132 1.228 . S
O134 Zn121 1.969 . S
O134 C132 1.267 . S
O135 Zn121 1.965 . S
O135 C139 1.260 . S
O136 Zn120 1.969 . S
O136 C139 1.258 . S
O137 Zn121 2.024 . S
O137 C124 1.058 . S
C138 O127 1.260 . S
C138 O128 1.258 . S
C139 O135 1.260 . S
C139 O136 1.258 . S
Zn140 O146 1.969 . S
Zn140 O147 1.965 . S
Zn140 O151 2.024 . S
Zn140 O156 1.969 . S
Zn141 O148 1.969 . S
Zn141 O154 1.969 . S
Zn141 O155 1.965 . S
Zn141 O157 2.024 . S
C142 O143 1.229 . S
C142 O151 1.058 1_455 S
O143 C142 1.229 . S
C144 O145 1.229 . S
C144 O157 1.058 . S
O145 C144 1.229 . S
O146 Zn140 1.969 . S
O146 C149 1.267 . S
O147 Zn140 1.965 . S
O147 C158 1.260 . S
O148 Zn141 1.969 . S
O148 C158 1.258 . S
C149 O146 1.267 . S
C149 O150 1.228 . S
O150 C149 1.228 . S
O151 Zn140 2.024 . S
O151 C142 1.058 1_655 S
C152 O153 1.228 . S
C152 O154 1.267 1_554 S
O153 C152 1.228 . S
O154 Zn141 1.969 . S
O154 C152 1.267 1_556 S
O155 Zn141 1.965 . S
O155 C159 1.260 . S
O156 Zn140 1.969 . S
O156 C159 1.258 . S
O157 Zn141 2.024 . S
O157 C144 1.058 . S
C158 O147 1.260 . S
C158 O148 1.258 . S
C159 O155 1.260 . S
C159 O156 1.258 . S
Zn160 O166 1.969 . S
Zn160 O167 1.965 . S
Zn160 O171 2.024 . S
Zn160 O176 1.969 . S
Zn161 O168 1.969 . S
Zn161 O174 1.969 . S
Zn161 O175 1.965 . S
Zn161 O177 2.024 . S
C162 O163 1.229 . S
C162 O171 1.058 . S
O163 C162 1.229 . S
C164 O165 1.229 . S
C164 O177 1.058 1_455 S
O165 C164 1.229 . S
O166 Zn160 1.969 . S
O166 C169 1.267 1_556 S
O167 Zn160 1.965 . S
O167 C178 1.260 . S
O168 Zn161 1.969 . S
O168 C178 1.258 . S
C169 O166 1.267 1_554 S
C169 O170 1.228 . S
O170 C169 1.228 . S
O171 Zn160 2.024 . S
O171 C162 1.058 . S
C172 O173 1.228 . S
C172 O174 1.267 . S
O173 C172 1.228 . S
O174 Zn161 1.969 . S
O174 C172 1.267 . S
O175 Zn161 1.965 . S
O175 C179 1.260 . S
O176 Zn160 1.969 . S
O176 C179 1.258 . S
O177 Zn161 2.024 . S
O177 C164 1.058 1_655 S
C178 O167 1.260 . S
C178 O168 1.258 . S
C179 O175 1.260 . S
C179 O176 1.258 . S
C180 C181 1.363 . S
C180 C186 1.379 . S
C180 N188 1.356 . S
C181 C180 1.363 . S
C181 C187 1.363 . S
C182 C183 1.363 . S
C182 C187 1.379 . S
C182 N189 1.356 . S
C183 C182 1.363 . S
C183 C186 1.363 . S
N184 C186 1.356 . S
N184 H196 0.984 . S
N184 H197 0.985 . S
N185 C187 1.356 . S
N185 H190 0.984 . S
N185 H191 0.985 . S
C186 C180 1.379 . S
C186 C183 1.363 . S
C186 N184 1.356 . S
C187 C181 1.363 . S
C187 C182 1.379 . S
C187 N185 1.356 . S
N188 C180 1.356 . S
N188 H194 0.984 . S
N188 H195 0.984 . S
N189 C182 1.356 . S
N189 H192 0.984 . S
N189 H193 0.985 . S
H190 N185 0.984 . S
H191 N185 0.985 . S
H192 N189 0.984 . S
H193 N189 0.985 . S
H194 N188 0.984 . S
H195 N188 0.984 . S
H196 N184 0.984 . S
H197 N184 0.985 . S
C198 C199 1.363 . S
C198 C204 1.379 . S
C198 N206 1.356 . S
C199 C198 1.363 . S
C199 C205 1.363 . S
C200 C201 1.363 . S
C200 C205 1.379 . S
C200 N207 1.356 . S
C201 C200 1.363 . S
C201 C204 1.363 . S
N202 C204 1.356 . S
N202 H214 0.984 . S
N202 H215 0.985 . S
N203 C205 1.356 . S
N203 H208 0.984 . S
N203 H209 0.985 . S
C204 C198 1.379 . S
C204 C201 1.363 . S
C204 N202 1.356 . S
C205 C199 1.363 . S
C205 C200 1.379 . S
C205 N203 1.356 . S
N206 C198 1.356 . S
N206 H212 0.984 . S
N206 H213 0.984 . S
N207 C200 1.356 . S
N207 H210 0.984 . S
N207 H211 0.985 . S
H208 N203 0.984 . S
H209 N203 0.985 . S
H210 N207 0.984 . S
H211 N207 0.985 . S
H212 N206 0.984 . S
H213 N206 0.984 . S
H214 N202 0.984 . S
H215 N202 0.985 . S
C216 C217 1.363 1_565 S
C216 C222 1.379 1_565 S
C216 N224 1.356 . S
C217 C216 1.363 1_545 S
C217 C223 1.363 . S
C218 C219 1.363 . S
C218 C223 1.379 . S
C218 N225 1.356 . S
C219 C218 1.363 . S
C219 C222 1.363 . S
N220 C222 1.356 1_565 S
N220 H232 0.984 . S
N220 H233 0.999 . S
N221 C223 1.356 . S
N221 H226 0.984 . S
N221 H227 0.985 . S
C222 C216 1.379 1_545 S
C222 C219 1.363 . S
C222 N220 1.356 1_545 S
C223 C217 1.363 . S
C223 C218 1.379 . S
C223 N221 1.356 . S
N224 C216 1.356 . S
N224 H230 0.984 . S
N224 H231 0.984 . S
N225 C218 1.356 . S
N225 H228 0.984 . S
N225 H229 0.985 . S
H226 N221 0.984 . S
H227 N221 0.985 . S
H228 N225 0.984 . S
H229 N225 0.985 . S
H230 N224 0.984 . S
H231 N224 0.984 . S
H232 N220 0.984 . S
H233 N220 0.999 . S
C234 C235 1.363 . S
C234 C240 1.379 . S
C234 N242 1.356 . S
C235 C234 1.363 . S
C235 C241 1.363 . S
C236 C237 1.363 . S
C236 C241 1.379 . S
C236 N243 1.356 1_556 S
C237 C236 1.363 . S
C237 C240 1.363 . S
N238 C240 1.356 . S
N238 H250 0.984 . S
N238 H251 0.985 1_556 S
N239 C241 1.356 . S
N239 H244 0.984 . S
N239 H245 0.985 . S
C240 C234 1.379 . S
C240 C237 1.363 . S
C240 N238 1.356 . S
C241 C235 1.363 . S
C241 C236 1.379 . S
C241 N239 1.356 . S
N242 C234 1.356 . S
N242 H248 0.984 . S
N242 H249 0.984 . S
N243 C236 1.356 1_554 S
N243 H246 0.984 . S
N243 H247 0.985 1_554 S
H244 N239 0.984 . S
H245 N239 0.985 . S
H246 N243 0.984 . S
H247 N243 0.985 1_556 S
H248 N242 0.984 . S
H249 N242 0.984 . S
H250 N238 0.984 . S
H251 N238 0.985 1_554 S
C252 C253 1.363 . S
C252 C258 1.379 . S
C252 N260 1.356 . S
C253 C252 1.363 . S
C253 C259 1.363 . S
C254 C255 1.363 . S
C254 C259 1.379 . S
C254 N261 1.356 . S
C255 C254 1.363 . S
C255 C258 1.363 . S
N256 C258 1.356 . S
N256 H268 0.984 . S
N256 H269 0.985 . S
N257 C259 1.356 . S
N257 H262 0.984 . S
N257 H263 0.985 . S
C258 C252 1.379 . S
C258 C255 1.363 . S
C258 N256 1.356 . S
C259 C253 1.363 . S
C259 C254 1.379 . S
C259 N257 1.356 . S
N260 C252 1.356 . S
N260 H266 0.984 . S
N260 H267 0.984 . S
N261 C254 1.356 . S
N261 H264 0.984 1_556 S
N261 H265 0.985 . S
H262 N257 0.984 . S
H263 N257 0.985 . S
H264 N261 0.984 1_554 S
H265 N261 0.985 . S
H266 N260 0.984 . S
H267 N260 0.984 . S
H268 N256 0.984 . S
H269 N256 0.985 . S
C270 C271 1.363 . S
C270 C276 1.379 . S
C270 N278 1.356 . S
C271 C270 1.363 . S
C271 C277 1.363 . S
C272 C273 1.363 . S
C272 C277 1.379 . S
C272 N279 1.356 . S
C273 C272 1.363 . S
C273 C276 1.363 . S
N274 C276 1.356 . S
N274 H286 0.984 . S
N274 H287 0.985 . S
N275 C277 1.356 . S
N275 H280 0.984 . S
N275 H281 0.985 . S
C276 C270 1.379 . S
C276 C273 1.363 . S
C276 N274 1.356 . S
C277 C271 1.363 . S
C277 C272 1.379 . S
C277 N275 1.356 . S
N278 C270 1.356 . S
N278 H284 0.984 . S
N278 H285 0.984 . S
N279 C272 1.356 . S
N279 H282 0.984 . S
N279 H283 0.985 . S
H280 N275 0.984 . S
H281 N275 0.985 . S
H282 N279 0.984 . S
H283 N279 0.985 . S
H284 N278 0.984 . S
H285 N278 0.984 . S
H286 N274 0.984 . S
H287 N274 0.985 . S
C288 C289 1.363 . S
C288 C294 1.379 . S
C288 N296 1.356 . S
C289 C288 1.363 . S
C289 C295 1.363 . S
C290 C291 1.363 . S
C290 C295 1.379 . S
C290 N297 1.356 . S
C291 C290 1.363 . S
C291 C294 1.363 . S
N292 C294 1.356 . S
N292 H304 0.984 . S
N292 H305 0.985 1_554 S
N293 C295 1.356 . S
N293 H298 0.984 . S
N293 H299 0.985 . S
C294 C288 1.379 . S
C294 C291 1.363 . S
C294 N292 1.356 . S
C295 C289 1.363 . S
C295 C290 1.379 . S
C295 N293 1.356 . S
N296 C288 1.356 . S
N296 H302 0.984 . S
N296 H303 0.984 . S
N297 C290 1.356 . S
N297 H300 0.984 1_554 S
N297 H301 0.985 . S
H298 N293 0.984 . S
H299 N293 0.985 . S
H300 N297 0.984 1_556 S
H301 N297 0.985 . S
H302 N296 0.984 . S
H303 N296 0.984 . S
H304 N292 0.984 . S
H305 N292 0.985 1_556 S
C306 C307 1.363 . S
C306 C312 1.379 . S
C306 N314 1.356 . S
C307 C306 1.363 . S
C307 C313 1.363 . S
C308 C309 1.363 . S
C308 C313 1.379 . S
C308 N315 1.356 . S
C309 C308 1.363 . S
C309 C312 1.363 . S
N310 C312 1.356 1_556 S
N310 H322 0.984 . S
N310 H323 0.985 . S
N311 C313 1.356 . S
N311 H316 0.984 . S
N311 H317 0.985 . S
C312 C306 1.379 . S
C312 C309 1.363 . S
C312 N310 1.356 1_554 S
C313 C307 1.363 . S
C313 C308 1.379 . S
C313 N311 1.356 . S
N314 C306 1.356 . S
N314 H320 0.984 . S
N314 H321 0.984 . S
N315 C308 1.356 . S
N315 H318 0.984 . S
N315 H319 0.985 1_655 S
H316 N311 0.984 . S
H317 N311 0.985 . S
H318 N315 0.984 . S
H319 N315 0.985 1_455 S
H320 N314 0.984 . S
H321 N314 0.984 . S
H322 N310 0.984 . S
H323 N310 0.985 . S
C324 C325 1.363 . S
C324 C330 1.379 . S
C324 N332 1.356 . S
C325 C324 1.363 . S
C325 C331 1.363 . S
C326 C327 1.363 . S
C326 C331 1.379 . S
C326 N333 1.356 . S
C327 C326 1.363 . S
C327 C330 1.363 . S
N328 C330 1.356 1_556 S
N328 H340 0.984 . S
N328 H341 0.985 . S
N329 C331 1.356 . S
N329 H334 0.984 . S
N329 H335 0.985 . S
C330 C324 1.379 . S
C330 C327 1.363 . S
C330 N328 1.356 1_554 S
C331 C325 1.363 . S
C331 C326 1.379 . S
C331 N329 1.356 . S
N332 C324 1.356 . S
N332 H338 0.984 . S
N332 H339 0.984 . S
N333 C326 1.356 . S
N333 H336 0.984 . S
N333 H337 0.985 . S
H334 N329 0.984 . S
H335 N329 0.985 . S
H336 N333 0.984 . S
H337 N333 0.985 . S
H338 N332 0.984 . S
H339 N332 0.984 . S
H340 N328 0.984 . S
H341 N328 0.985 . S
C342 C343 1.363 . S
C342 C348 1.379 . S
C342 N350 1.356 . S
C343 C342 1.363 . S
C343 C349 1.363 . S
C344 C345 1.363 . S
C344 C349 1.379 . S
C344 N351 1.356 1_554 S
C345 C344 1.363 . S
C345 C348 1.363 . S
N346 C348 1.356 . S
N346 H358 0.984 . S
N346 H359 0.985 . S
N347 C349 1.356 1_556 S
N347 H352 0.984 1_556 S
N347 H353 0.985 . S
C348 C342 1.379 . S
C348 C345 1.363 . S
C348 N346 1.356 . S
C349 C343 1.363 . S
C349 C344 1.379 . S
C349 N347 1.356 1_554 S
N350 C342 1.356 . S
N350 H356 0.984 . S
N350 H357 0.984 . S
N351 C344 1.356 1_556 S
N351 H354 0.984 . S
N351 H355 0.985 . S
H352 N347 0.984 1_554 S
H353 N347 0.985 . S
H354 N351 0.984 . S
H355 N351 0.985 . S
H356 N350 0.984 . S
H357 N350 0.984 . S
H358 N346 0.984 . S
H359 N346 0.985 . S
C360 C361 1.363 . S
C360 C366 1.379 . S
C360 N368 1.356 . S
C361 C360 1.363 . S
C361 C367 1.363 . S
C362 C363 1.363 . S
C362 C367 1.379 . S
C362 N369 1.356 . S
C363 C362 1.363 . S
C363 C366 1.363 . S
N364 C366 1.356 . S
N364 H376 0.984 . S
N364 H377 0.985 . S
N365 C367 1.356 . S
N365 H370 0.984 . S
N365 H371 0.985 . S
C366 C360 1.379 . S
C366 C363 1.363 . S
C366 N364 1.356 . S
C367 C361 1.363 . S
C367 C362 1.379 . S
C367 N365 1.356 . S
N368 C360 1.356 . S
N368 H374 0.984 1_554 S
N368 H375 0.984 . S
N369 C362 1.356 . S
N369 H372 0.984 . S
N369 H373 0.985 . S
H370 N365 0.984 . S
H371 N365 0.985 . S
H372 N369 0.984 . S
H373 N369 0.985 . S
H374 N368 0.984 1_556 S
H375 N368 0.984 . S
H376 N364 0.984 . S
H377 N364 0.985 . S
C378 C379 1.363 . S
C378 C384 1.379 . S
C378 N386 1.356 . S
C379 C378 1.363 . S
C379 C385 1.363 . S
C380 C381 1.363 . S
C380 C385 1.379 . S
C380 N387 1.356 . S
C381 C380 1.363 . S
C381 C384 1.363 . S
N382 C384 1.356 . S
N382 H394 0.984 . S
N382 H395 0.985 . S
N383 C385 1.356 . S
N383 H388 0.984 . S
N383 H389 0.985 1_554 S
C384 C378 1.379 . S
C384 C381 1.363 . S
C384 N382 1.356 . S
C385 C379 1.363 . S
C385 C380 1.379 . S
C385 N383 1.356 . S
N386 C378 1.356 . S
N386 H392 0.984 . S
N386 H393 0.984 . S
N387 C380 1.356 . S
N387 H390 0.984 . S
N387 H391 0.985 1_554 S
H388 N383 0.984 . S
H389 N383 0.985 1_556 S
H390 N387 0.984 . S
H391 N387 0.985 1_556 S
H392 N386 0.984 . S
H393 N386 0.984 . S
H394 N382 0.984 . S
H395 N382 0.985 . S
C396 C397 1.363 1_556 S
C396 C402 1.379 . S
C396 N404 1.356 . S
C397 C396 1.363 1_554 S
C397 C403 1.363 . S
C398 C399 1.363 1_554 S
C398 C403 1.379 . S
C398 N405 1.356 . S
C399 C398 1.363 1_556 S
C399 C402 1.363 . S
N400 C402 1.356 . S
N400 H412 0.984 . S
N400 H413 0.985 . S
N401 C403 1.356 . S
N401 H406 0.984 . S
N401 H407 0.985 . S
C402 C396 1.379 . S
C402 C399 1.363 . S
C402 N400 1.356 . S
C403 C397 1.363 . S
C403 C398 1.379 . S
C403 N401 1.356 . S
N404 C396 1.356 . S
N404 H410 0.984 . S
N404 H411 0.984 1_556 S
N405 C398 1.356 . S
N405 H408 0.984 1_554 S
N405 H409 0.985 . S
H406 N401 0.984 . S
H407 N401 0.985 . S
H408 N405 0.984 1_556 S
H409 N405 0.985 . S
H410 N404 0.984 . S
H411 N404 0.984 1_554 S
H412 N400 0.984 . S
H413 N400 0.985 . S
C414 C415 1.363 . S
C414 C420 1.379 . S
C414 N422 1.356 . S
C415 C414 1.363 . S
C415 C421 1.363 . S
C416 C417 1.363 . S
C416 C421 1.379 . S
C416 N423 1.356 1_556 S
C417 C416 1.363 . S
C417 C420 1.363 . S
N418 C420 1.356 1_455 S
N418 H430 0.984 . S
N418 H431 0.985 . S
N419 C421 1.356 . S
N419 H424 0.984 . S
N419 H425 0.985 . S
C420 C414 1.379 . S
C420 C417 1.363 . S
C420 N418 1.356 1_655 S
C421 C415 1.363 . S
C421 C416 1.379 . S
C421 N419 1.356 . S
N422 C414 1.356 . S
N422 H428 0.984 1_655 S
N422 H429 0.984 . S
N423 C416 1.356 1_554 S
N423 H426 0.984 . S
N423 H427 0.985 . S
H424 N419 0.984 . S
H425 N419 0.985 . S
H426 N423 0.984 . S
H427 N423 0.985 . S
H428 N422 0.984 1_455 S
H429 N422 0.984 . S
H430 N418 0.984 . S
H431 N418 0.985 . S
C432 C433 1.363 . S
C432 C438 1.379 1_556 S
C432 N440 1.356 . S
C433 C432 1.363 . S
C433 C439 1.363 . S
C434 C435 1.363 . S
C434 C439 1.379 . S
C434 N441 1.356 . S
C435 C434 1.363 . S
C435 C438 1.363 1_556 S
N436 C438 1.356 . S
N436 H448 0.984 . S
N436 H449 0.985 . S
N437 C439 1.356 . S
N437 H442 0.984 . S
N437 H443 0.985 . S
C438 C432 1.379 1_554 S
C438 C435 1.363 1_554 S
C438 N436 1.356 . S
C439 C433 1.363 . S
C439 C434 1.379 . S
C439 N437 1.356 . S
N440 C432 1.356 . S
N440 H446 0.984 1_556 S
N440 H447 0.984 . S
N441 C434 1.356 . S
N441 H444 0.984 . S
N441 H445 0.985 . S
H442 N437 0.984 . S
H443 N437 0.985 . S
H444 N441 0.984 . S
H445 N441 0.985 . S
H446 N440 0.984 1_554 S
H447 N440 0.984 . S
H448 N436 0.984 . S
H449 N436 0.985 . S
C450 C451 1.363 . S
C450 C456 1.379 . S
C450 N458 1.356 . S
C451 C450 1.363 . S
C451 C457 1.363 . S
C452 C453 1.363 . S
C452 C457 1.379 . S
C452 N459 1.356 . S
C453 C452 1.363 . S
C453 C456 1.363 . S
N454 C456 1.356 1_454 S
N454 H466 0.984 . S
N454 H467 0.985 . S
N455 C457 1.356 . S
N455 H460 0.984 . S
N455 H461 0.985 . S
C456 C450 1.379 . S
C456 C453 1.363 . S
C456 N454 1.356 1_656 S
C457 C451 1.363 . S
C457 C452 1.379 . S
C457 N455 1.356 . S
N458 C450 1.356 . S
N458 H464 0.984 1_655 S
N458 H465 0.984 . S
N459 C452 1.356 . S
N459 H462 0.984 . S
N459 H463 0.985 . S
H460 N455 0.984 . S
H461 N455 0.985 . S
H462 N459 0.984 . S
H463 N459 0.985 . S
H464 N458 0.984 1_455 S
H465 N458 0.984 . S
H466 N454 0.984 . S
H467 N454 0.985 . S
C468 C469 1.363 . S
C468 C474 1.379 . S
C468 N476 1.356 1_556 S
C469 C468 1.363 . S
C469 C475 1.363 . S
C470 C471 1.363 . S
C470 C475 1.379 . S
C470 N477 1.356 . S
C471 C470 1.363 . S
C471 C474 1.363 . S
N472 C474 1.356 . S
N472 H484 0.984 . S
N472 H485 0.985 . S
N473 C475 1.356 . S
N473 H478 0.984 . S
N473 H479 0.985 . S
C474 C468 1.379 . S
C474 C471 1.363 . S
C474 N472 1.356 . S
C475 C469 1.363 . S
C475 C470 1.379 . S
C475 N473 1.356 . S
N476 C468 1.356 1_554 S
N476 H482 0.984 . S
N476 H483 0.984 . S
N477 C470 1.356 . S
N477 H480 0.984 . S
N477 H481 0.985 . S
H478 N473 0.984 . S
H479 N473 0.985 . S
H480 N477 0.984 . S
H481 N477 0.985 . S
H482 N476 0.984 . S
H483 N476 0.984 . S
H484 N472 0.984 . S
H485 N472 0.985 . S
C486 C487 1.363 . S
C486 C492 1.379 1_556 S
C486 N494 1.356 . S
C487 C486 1.363 . S
C487 C493 1.363 . S
C488 C489 1.363 1_556 S
C488 C493 1.379 . S
C488 N495 1.356 . S
C489 C488 1.363 1_554 S
C489 C492 1.363 . S
N490 C492 1.356 . S
N490 H502 0.984 . S
N490 H503 0.985 . S
N491 C493 1.356 . S
N491 H496 0.984 . S
N491 H497 0.985 . S
C492 C486 1.379 1_554 S
C492 C489 1.363 . S
C492 N490 1.356 . S
C493 C487 1.363 . S
C493 C488 1.379 . S
C493 N491 1.356 . S
N494 C486 1.356 . S
N494 H500 0.984 1_556 S
N494 H501 0.984 . S
N495 C488 1.356 . S
N495 H498 0.984 1_556 S
N495 H499 0.985 . S
H496 N491 0.984 . S
H497 N491 0.985 . S
H498 N495 0.984 1_554 S
H499 N495 0.985 . S
H500 N494 0.984 1_554 S
H501 N494 0.984 . S
H502 N490 0.984 . S
H503 N490 0.985 . S
C504 C505 1.363 . S
C504 C510 1.379 . S
C504 N512 1.356 . S
C505 C504 1.363 . S
C505 C511 1.363 . S
C506 C507 1.363 . S
C506 C511 1.379 . S
C506 N513 1.356 . S
C507 C506 1.363 . S
C507 C510 1.363 . S
N508 C510 1.356 . S
N508 H520 0.984 . S
N508 H521 0.985 . S
N509 C511 1.356 . S
N509 H514 0.984 . S
N509 H515 0.985 1_554 S
C510 C504 1.379 . S
C510 C507 1.363 . S
C510 N508 1.356 . S
C511 C505 1.363 . S
C511 C506 1.379 . S
C511 N509 1.356 . S
N512 C504 1.356 . S
N512 H518 0.984 1_565 S
N512 H519 0.984 1_565 S
N513 C506 1.356 . S
N513 H516 0.984 . S
N513 H517 0.985 . S
H514 N509 0.984 . S
H515 N509 0.985 1_556 S
H516 N513 0.984 . S
H517 N513 0.985 . S
H518 N512 0.984 1_545 S
H519 N512 0.984 1_545 S
H520 N508 0.984 . S
H521 N508 0.985 . S
C522 C523 1.363 . S
C522 C528 1.379 . S
C522 N530 1.356 . S
C523 C522 1.363 . S
C523 C529 1.363 . S
C524 C525 1.363 . S
C524 C529 1.379 . S
C524 N531 1.356 . S
C525 C524 1.363 . S
C525 C528 1.363 . S
N526 C528 1.356 . S
N526 H538 0.984 1_554 S
N526 H539 0.985 . S
N527 C529 1.356 . S
N527 H532 0.984 . S
N527 H533 0.985 . S
C528 C522 1.379 . S
C528 C525 1.363 . S
C528 N526 1.356 . S
C529 C523 1.363 . S
C529 C524 1.379 . S
C529 N527 1.356 . S
N530 C522 1.356 . S
N530 H536 0.984 . S
N530 H537 0.984 . S
N531 C524 1.356 . S
N531 H534 0.984 . S
N531 H535 0.985 . S
H532 N527 0.984 . S
H533 N527 0.985 . S
H534 N531 0.984 . S
H535 N531 0.985 . S
H536 N530 0.984 . S
H537 N530 0.984 . S
H538 N526 0.984 1_556 S
H539 N526 0.985 . S
C540 C541 1.363 . S
C540 C546 1.379 . S
C540 N548 1.356 . S
C541 C540 1.363 . S
C541 C547 1.363 . S
C542 C543 1.363 . S
C542 C547 1.379 . S
C542 N549 1.356 . S
C543 C542 1.363 . S
C543 C546 1.363 . S
N544 C546 1.356 . S
N544 H556 0.984 1_554 S
N544 H557 0.985 . S
N545 C547 1.356 . S
N545 H550 0.984 . S
N545 H551 0.985 . S
C546 C540 1.379 . S
C546 C543 1.363 . S
C546 N544 1.356 . S
C547 C541 1.363 . S
C547 C542 1.379 . S
C547 N545 1.356 . S
N548 C540 1.356 . S
N548 H554 0.984 1_554 S
N548 H555 0.984 . S
N549 C542 1.356 . S
N549 H552 0.984 . S
N549 H553 0.985 . S
H550 N545 0.984 . S
H551 N545 0.985 . S
H552 N549 0.984 . S
H553 N549 0.985 . S
H554 N548 0.984 1_556 S
H555 N548 0.984 . S
H556 N544 0.984 1_556 S
H557 N544 0.985 . S
C558 C559 1.363 . S
C558 C564 1.379 . S
C558 N566 1.356 . S
C559 C558 1.363 . S
C559 C565 1.363 . S
C560 C561 1.363 . S
C560 C565 1.379 . S
C560 N567 1.356 . S
C561 C560 1.363 . S
C561 C564 1.363 . S
N562 C564 1.356 . S
N562 H574 0.984 . S
N562 H575 0.985 . S
N563 C565 1.356 . S
N563 H568 0.984 . S
N563 H569 0.985 . S
C564 C558 1.379 . S
C564 C561 1.363 . S
C564 N562 1.356 . S
C565 C559 1.363 . S
C565 C560 1.379 . S
C565 N563 1.356 . S
N566 C558 1.356 . S
N566 H572 0.984 . S
N566 H573 0.984 . S
N567 C560 1.356 . S
N567 H570 0.984 . S
N567 H571 0.985 . S
H568 N563 0.984 . S
H569 N563 0.985 . S
H570 N567 0.984 . S
H571 N567 0.985 . S
H572 N566 0.984 . S
H573 N566 0.984 . S
H574 N562 0.984 . S
H575 N562 0.985 . S
C576 C577 1.363 . S
C576 C582 1.379 1_545 S
C576 N584 1.356 . S
C577 C576 1.363 . S
C577 C583 1.363 . S
C578 C579 1.363 1_545 S
C578 C583 1.379 . S
C578 N585 1.356 . S
C579 C578 1.363 1_565 S
C579 C582 1.363 . S
N580 C582 1.356 . S
N580 H592 0.984 . S
N580 H593 0.985 . S
N581 C583 1.356 . S
N581 H586 0.984 . S
N581 H587 0.985 . S
C582 C576 1.379 1_565 S
C582 C579 1.363 . S
C582 N580 1.356 . S
C583 C577 1.363 . S
C583 C578 1.379 . S
C583 N581 1.356 . S
N584 C576 1.356 . S
N584 H590 0.984 . S
N584 H591 0.984 . S
N585 C578 1.356 . S
N585 H588 0.984 1_545 S
N585 H589 0.985 . S
H586 N581 0.984 . S
H587 N581 0.985 . S
H588 N585 0.984 1_565 S
H589 N585 0.985 . S
H590 N584 0.984 . S
H591 N584 0.984 . S
H592 N580 0.984 . S
H593 N580 0.985 . S
C594 C595 1.363 . S
C594 C600 1.379 . S
C594 N602 1.356 . S
C595 C594 1.363 . S
C595 C601 1.363 . S
C596 C597 1.363 . S
C596 C601 1.379 . S
C596 N603 1.356 . S
C597 C596 1.363 . S
C597 C600 1.363 . S
N598 C600 1.356 . S
N598 H610 0.984 . S
N598 H611 0.985 . S
N599 C601 1.356 . S
N599 H604 0.984 . S
N599 H605 0.985 . S
C600 C594 1.379 . S
C600 C597 1.363 . S
C600 N598 1.356 . S
C601 C595 1.363 . S
C601 C596 1.379 . S
C601 N599 1.356 . S
N602 C594 1.356 . S
N602 H608 0.984 . S
N602 H609 0.984 . S
N603 C596 1.356 . S
N603 H606 0.984 . S
N603 H607 0.985 . S
H604 N599 0.984 . S
H605 N599 0.985 . S
H606 N603 0.984 . S
H607 N603 0.985 . S
H608 N602 0.984 . S
H609 N602 0.984 . S
H610 N598 0.984 . S
H611 N598 0.985 . S
C612 C613 1.363 . S
C612 C618 1.379 . S
C612 N620 1.356 . S
C613 C612 1.363 . S
C613 C619 1.363 . S
C614 C615 1.363 . S
C614 C619 1.379 . S
C614 N621 1.356 . S
C615 C614 1.363 . S
C615 C618 1.363 . S
N616 C618 1.356 . S
N616 H628 0.984 . S
N616 H629 0.985 . S
N617 C619 1.356 . S
N617 H622 0.984 . S
N617 H623 0.985 . S
C618 C612 1.379 . S
C618 C615 1.363 . S
C618 N616 1.356 . S
C619 C613 1.363 . S
C619 C614 1.379 . S
C619 N617 1.356 . S
N620 C612 1.356 . S
N620 H626 0.984 . S
N620 H627 0.984 . S
N621 C614 1.356 . S
N621 H624 0.984 . S
N621 H625 0.985 . S
H622 N617 0.984 . S
H623 N617 0.985 . S
H624 N621 0.984 . S
H625 N621 0.985 . S
H626 N620 0.984 . S
H627 N620 0.984 . S
H628 N616 0.984 . S
H629 N616 0.985 . S
C630 C631 1.363 1_545 S
C630 C636 1.379 . S
C630 N638 1.356 . S
C631 C630 1.363 1_565 S
C631 C637 1.363 . S
C632 C633 1.363 . S
C632 C637 1.379 1_545 S
C632 N639 1.356 . S
C633 C632 1.363 . S
C633 C636 1.363 . S
N634 C636 1.356 . S
N634 H646 0.984 . S
N634 H647 0.985 . S
N635 C637 1.356 . S
N635 H640 0.984 . S
N635 H641 0.985 . S
C636 C630 1.379 . S
C636 C633 1.363 . S
C636 N634 1.356 . S
C637 C631 1.363 . S
C637 C632 1.379 1_565 S
C637 N635 1.356 . S
N638 C630 1.356 . S
N638 H644 0.984 . S
N638 H645 0.984 1_545 S
N639 C632 1.356 . S
N639 H642 0.984 . S
N639 H643 0.985 . S
H640 N635 0.984 . S
H641 N635 0.985 . S
H642 N639 0.984 . S
H643 N639 0.985 . S
H644 N638 0.984 . S
H645 N638 0.984 1_565 S
H646 N634 0.984 . S
H647 N634 0.985 . S
C648 C649 1.363 . S
C648 C654 1.379 . S
C648 N656 1.356 . S
C649 C648 1.363 . S
C649 C655 1.363 . S
C650 C651 1.363 . S
C650 C655 1.379 . S
C650 N657 1.356 . S
C651 C650 1.363 . S
C651 C654 1.363 . S
N652 C654 1.356 . S
N652 H664 0.984 . S
N652 H665 0.985 . S
N653 C655 1.356 . S
N653 H658 0.984 1_455 S
N653 H659 0.985 . S
C654 C648 1.379 . S
C654 C651 1.363 . S
C654 N652 1.356 . S
C655 C649 1.363 . S
C655 C650 1.379 . S
C655 N653 1.356 . S
N656 C648 1.356 . S
N656 H662 0.984 . S
N656 H663 0.984 . S
N657 C650 1.356 . S
N657 H660 0.984 . S
N657 H661 0.985 . S
H658 N653 0.984 1_655 S
H659 N653 0.985 . S
H660 N657 0.984 . S
H661 N657 0.985 . S
H662 N656 0.984 . S
H663 N656 0.984 . S
H664 N652 0.984 . S
H665 N652 0.985 . S
C181 C18 2.144 . S
C183 C19 2.144 . S
C199 C39 2.158 . S
C201 C38 2.158 . S
C217 C58 2.167 . S
C219 C59 2.167 . S
C235 C79 2.144 . S
C237 C78 2.144 1_556 S
C253 C98 2.158 . S
C255 C99 2.158 1_556 S
C271 C119 2.167 . S
C273 C118 2.167 1_556 S
C289 C132 0.618 . S
C291 C129 0.618 . S
C307 C149 0.824 . S
C309 C152 0.824 . S
C325 C172 0.847 . S
C327 C169 0.847 . S
C343 C104 1.457 . S
C345 C12 1.534 . S
C361 C24 1.434 . S
C363 C64 1.478 . S
C379 C52 1.529 . S
C381 C92 1.562 . S
C397 C44 1.273 . S
C399 C122 1.335 . S
C415 C159 1.498 . S
C417 C4 1.338 . S
C433 C162 1.390 . S
C435 C32 1.412 1_556 S
C451 C178 1.568 . S
C453 C9 1.473 . S
C469 C22 1.318 1_556 S
C471 C138 1.474 . S
C487 C144 1.393 . S
C489 C49 1.414 . S
C505 C42 1.457 . S
C507 C69 1.534 . S
C523 C82 1.434 . S
C525 C2 1.478 . S
C541 C29 1.562 . S
C543 C109 1.529 . S
C559 C179 1.569 . S
C561 C72 1.473 . S
C577 C139 1.474 . S
C579 C84 1.318 . S
C595 C142 1.393 . S
C597 C112 1.414 . S
C613 C124 1.335 . S
C615 C102 1.274 . S
C631 C62 1.338 . S
C633 C158 1.498 . S
C649 C164 1.390 . S
C651 C89 1.412 . S
