# Generated by pormake.
# Topology xfz, (5)-cn, num edge types: 1
# Building blocks:
#     Node 0, Type 0, BuildingBlock: XOMCOT_clean_sbu_0, # of connection points: 5
#     Node 1, Type 0, BuildingBlock: XOMCOT_clean_sbu_0, # of connection points: 5
#     Node 2, Type 0, BuildingBlock: XOMCOT_clean_sbu_0, # of connection points: 5
#     Node 3, Type 0, BuildingBlock: XOMCOT_clean_sbu_0, # of connection points: 5
#     Node 4, Type 0, BuildingBlock: XOMCOT_clean_sbu_0, # of connection points: 5
#     Node 5, Type 0, BuildingBlock: XOMCOT_clean_sbu_0, # of connection points: 5
#     Node 6, Type 0, BuildingBlock: XOMCOT_clean_sbu_0, # of connection points: 5
#     Node 7, Type 0, BuildingBlock: XOMCOT_clean_sbu_0, # of connection points: 5
#     Node 8, Type 0, BuildingBlock: XOMCOT_clean_sbu_0, # of connection points: 5
#     Node 9, Type 0, BuildingBlock: XOMCOT_clean_sbu_0, # of connection points: 5
#     Node 10, Type 0, BuildingBlock: XOMCOT_clean_sbu_0, # of connection points: 5
#     Node 11, Type 0, BuildingBlock: XOMCOT_clean_sbu_0, # of connection points: 5
#     Node 12, Type 0, BuildingBlock: XOMCOT_clean_sbu_0, # of connection points: 5
#     Node 13, Type 0, BuildingBlock: XOMCOT_clean_sbu_0, # of connection points: 5
#     Node 14, Type 0, BuildingBlock: XOMCOT_clean_sbu_0, # of connection points: 5
#     Node 15, Type 0, BuildingBlock: XOMCOT_clean_sbu_0, # of connection points: 5
#     Edge 16, Type (0, 0), BuildingBlock: MIFKUJ_clean_linker_0, # of connection points: 2
#     Edge 17, Type (0, 0), BuildingBlock: MIFKUJ_clean_linker_0, # of connection points: 2
#     Edge 18, Type (0, 0), BuildingBlock: MIFKUJ_clean_linker_0, # of connection points: 2
#     Edge 19, Type (0, 0), BuildingBlock: MIFKUJ_clean_linker_0, # of connection points: 2
#     Edge 20, Type (0, 0), BuildingBlock: MIFKUJ_clean_linker_0, # of connection points: 2
#     Edge 21, Type (0, 0), BuildingBlock: MIFKUJ_clean_linker_0, # of connection points: 2
#     Edge 22, Type (0, 0), BuildingBlock: MIFKUJ_clean_linker_0, # of connection points: 2
#     Edge 23, Type (0, 0), BuildingBlock: MIFKUJ_clean_linker_0, # of connection points: 2
#     Edge 24, Type (0, 0), BuildingBlock: MIFKUJ_clean_linker_0, # of connection points: 2
#     Edge 25, Type (0, 0), BuildingBlock: MIFKUJ_clean_linker_0, # of connection points: 2
#     Edge 26, Type (0, 0), BuildingBlock: MIFKUJ_clean_linker_0, # of connection points: 2
#     Edge 27, Type (0, 0), BuildingBlock: MIFKUJ_clean_linker_0, # of connection points: 2
#     Edge 28, Type (0, 0), BuildingBlock: MIFKUJ_clean_linker_0, # of connection points: 2
#     Edge 29, Type (0, 0), BuildingBlock: MIFKUJ_clean_linker_0, # of connection points: 2
#     Edge 30, Type (0, 0), BuildingBlock: MIFKUJ_clean_linker_0, # of connection points: 2
#     Edge 31, Type (0, 0), BuildingBlock: MIFKUJ_clean_linker_0, # of connection points: 2
#     Edge 32, Type (0, 0), BuildingBlock: MIFKUJ_clean_linker_0, # of connection points: 2
#     Edge 33, Type (0, 0), BuildingBlock: MIFKUJ_clean_linker_0, # of connection points: 2
#     Edge 34, Type (0, 0), BuildingBlock: MIFKUJ_clean_linker_0, # of connection points: 2
#     Edge 35, Type (0, 0), BuildingBlock: MIFKUJ_clean_linker_0, # of connection points: 2
#     Edge 36, Type (0, 0), BuildingBlock: MIFKUJ_clean_linker_0, # of connection points: 2
#     Edge 37, Type (0, 0), BuildingBlock: MIFKUJ_clean_linker_0, # of connection points: 2
#     Edge 38, Type (0, 0), BuildingBlock: MIFKUJ_clean_linker_0, # of connection points: 2
#     Edge 39, Type (0, 0), BuildingBlock: MIFKUJ_clean_linker_0, # of connection points: 2
#     Edge 40, Type (0, 0), BuildingBlock: MIFKUJ_clean_linker_0, # of connection points: 2
#     Edge 41, Type (0, 0), BuildingBlock: MIFKUJ_clean_linker_0, # of connection points: 2
#     Edge 42, Type (0, 0), BuildingBlock: MIFKUJ_clean_linker_0, # of connection points: 2
#     Edge 43, Type (0, 0), BuildingBlock: MIFKUJ_clean_linker_0, # of connection points: 2
#     Edge 44, Type (0, 0), BuildingBlock: MIFKUJ_clean_linker_0, # of connection points: 2
#     Edge 45, Type (0, 0), BuildingBlock: MIFKUJ_clean_linker_0, # of connection points: 2
#     Edge 46, Type (0, 0), BuildingBlock: MIFKUJ_clean_linker_0, # of connection points: 2
#     Edge 47, Type (0, 0), BuildingBlock: MIFKUJ_clean_linker_0, # of connection points: 2
#     Edge 48, Type (0, 0), BuildingBlock: MIFKUJ_clean_linker_0, # of connection points: 2
#     Edge 49, Type (0, 0), BuildingBlock: MIFKUJ_clean_linker_0, # of connection points: 2
#     Edge 50, Type (0, 0), BuildingBlock: MIFKUJ_clean_linker_0, # of connection points: 2
#     Edge 51, Type (0, 0), BuildingBlock: MIFKUJ_clean_linker_0, # of connection points: 2
#     Edge 52, Type (0, 0), BuildingBlock: MIFKUJ_clean_linker_0, # of connection points: 2
#     Edge 53, Type (0, 0), BuildingBlock: MIFKUJ_clean_linker_0, # of connection points: 2
#     Edge 54, Type (0, 0), BuildingBlock: MIFKUJ_clean_linker_0, # of connection points: 2
#     Edge 55, Type (0, 0), BuildingBlock: MIFKUJ_clean_linker_0, # of connection points: 2
# Relax obj value: 0.394
# Max RMSD: 0.309
# Mean RMSD: 0.309
data_MOF--net-xfz--node1-XOMCOT_clean_sbu_0--edge1-MIFKUJ_clean_linker_0
_symmetry_space_group_name_H-M    P1
_symmetry_Int_Tables_number       1
_symmetry_cell_setting            triclinic
loop_
_symmetry_equiv_pos_as_xyz
'x, y, z'
_cell_length_a     53.133587
_cell_length_b     53.137453
_cell_length_c     73.882741
_cell_angle_alpha  90.016613
_cell_angle_beta   89.994607
_cell_angle_gamma 90.077834
loop_
_atom_site_label
_atom_site_type_symbol
_atom_site_fract_x
_atom_site_fract_y
_atom_site_fract_z
_atom_type_partial_charge
Co0 Co 0.11883 0.43208 0.36946 0.0
C1 C 0.14497 0.45526 0.39994 0.0
C2 C 0.13837 0.4825 0.37908 0.0
C3 C 0.14722 0.49479 0.3943 0.0
N4 N 0.13694 0.45772 0.38273 0.0
N5 N 0.15096 0.47761 0.4075 0.0
H6 H 0.14481 0.43755 0.40716 0.0
H7 H 0.13165 0.49124 0.36678 0.0
C8 C 0.13271 0.43832 0.33061 0.0
O9 O 0.13694 0.41396 0.33006 0.0
N10 N 0.09982 0.40656 0.35636 0.0
C11 C 0.09857 0.38143 0.35886 0.0
C12 C 0.08329 0.37115 0.34572 0.0
C13 C 0.08442 0.41119 0.3422 0.0
N14 N 0.07464 0.38989 0.33513 0.0
C15 C 0.15056 0.39142 0.38041 0.0
C16 C 0.19202 0.40488 0.36002 0.0
C17 C 0.19255 0.38217 0.36969 0.0
C18 C 0.17179 0.37609 0.38058 0.0
C19 C 0.17052 0.41991 0.36057 0.0
N20 N 0.14937 0.412 0.36944 0.0
H21 H 0.13506 0.38666 0.38918 0.0
H22 H 0.17094 0.43784 0.35373 0.0
H23 H 0.10795 0.37091 0.3693 0.0
H24 H 0.08088 0.42987 0.33696 0.0
O25 O 0.10429 0.42076 0.39208 0.0
O26 O 0.08799 0.44972 0.37389 0.0
O27 O 0.12726 0.44894 0.34566 0.0
C28 C 0.08676 0.43726 0.38901 0.0
H29 H 0.14885 0.51496 0.39597 0.0
H30 H 0.07951 0.35131 0.34382 0.0
H31 H 0.20781 0.41087 0.35182 0.0
H32 H 0.17186 0.35964 0.38922 0.0
Co33 Co 0.43768 0.88287 0.6301 0.0
C34 C 0.45761 0.84947 0.60142 0.0
C35 C 0.48688 0.86372 0.61838 0.0
C36 C 0.4977 0.85166 0.60387 0.0
N37 N 0.46164 0.86197 0.61707 0.0
N38 N 0.47924 0.84279 0.59303 0.0
H39 H 0.43934 0.84757 0.59539 0.0
H40 H 0.49679 0.8749 0.62833 0.0
C41 C 0.47091 0.86322 0.66037 0.0
O42 O 0.47278 0.84089 0.65286 0.0
N43 N 0.41451 0.90426 0.64296 0.0
C44 C 0.38924 0.90388 0.64221 0.0
C45 C 0.38004 0.91891 0.6559 0.0
C46 C 0.42037 0.91977 0.65677 0.0
N47 N 0.39966 0.92877 0.6652 0.0
C48 C 0.40434 0.84147 0.62357 0.0
C49 C 0.3991 0.8264 0.65916 0.0
C50 C 0.38727 0.81241 0.64551 0.0
C51 C 0.38969 0.82046 0.62756 0.0
C52 C 0.41378 0.84728 0.65452 0.0
N53 N 0.41733 0.85382 0.6368 0.0
H54 H 0.40445 0.84824 0.60986 0.0
H55 H 0.42167 0.85847 0.6653 0.0
H56 H 0.37829 0.89234 0.63306 0.0
H57 H 0.43951 0.9235 0.66091 0.0
O58 O 0.4216 0.89179 0.60737 0.0
O59 O 0.45392 0.91184 0.61992 0.0
O60 O 0.45824 0.88071 0.65289 0.0
C61 C 0.43828 0.90968 0.60646 0.0
H62 H 0.51762 0.85151 0.60088 0.0
H63 H 0.36037 0.92105 0.65932 0.0
H64 H 0.39702 0.8213 0.67327 0.0
H65 H 0.37973 0.81102 0.61671 0.0
Co66 Co 0.88638 0.56142 0.37112 0.0
C67 C 0.85692 0.54008 0.40118 0.0
C68 C 0.86375 0.51228 0.38092 0.0
C69 C 0.85414 0.5005 0.39611 0.0
N70 N 0.86516 0.53731 0.384 0.0
N71 N 0.85022 0.5181 0.40891 0.0
H72 H 0.85835 0.55732 0.40872 0.0
H73 H 0.87151 0.50283 0.36923 0.0
C74 C 0.85976 0.535 0.3405 0.0
O75 O 0.8384 0.53646 0.34941 0.0
N76 N 0.9079 0.58515 0.35884 0.0
C77 C 0.91122 0.60946 0.36337 0.0
C78 C 0.92566 0.62085 0.35025 0.0
C79 C 0.92047 0.58196 0.34316 0.0
N80 N 0.93137 0.60358 0.33748 0.0
C81 C 0.84695 0.59494 0.38219 0.0
C82 C 0.83054 0.60707 0.3478 0.0
C83 C 0.81702 0.61569 0.3628 0.0
C84 C 0.82577 0.61003 0.38016 0.0
C85 C 0.85144 0.59162 0.35048 0.0
N86 N 0.85839 0.5844 0.36753 0.0
H87 H 0.8544 0.59231 0.39555 0.0
H88 H 0.86202 0.58554 0.3388 0.0
H89 H 0.90282 0.61849 0.37501 0.0
H90 H 0.92125 0.56431 0.33594 0.0
O91 O 0.89899 0.57354 0.39423 0.0
O92 O 0.91492 0.54193 0.37821 0.0
O93 O 0.87993 0.54395 0.34734 0.0
C94 C 0.91527 0.55534 0.39293 0.0
H95 H 0.85259 0.48039 0.39816 0.0
H96 H 0.9305 0.64062 0.34976 0.0
H97 H 0.82481 0.6119 0.33416 0.0
H98 H 0.81656 0.6176 0.39206 0.0
Co99 Co 0.5507 0.1226 0.63273 0.0
C100 C 0.52803 0.15521 0.60493 0.0
C101 C 0.50068 0.14304 0.62429 0.0
C102 C 0.48831 0.15442 0.61009 0.0
N103 N 0.52569 0.14379 0.62115 0.0
N104 N 0.50561 0.16193 0.59787 0.0
H105 H 0.54531 0.15592 0.59734 0.0
H106 H 0.4919 0.13307 0.63539 0.0
C107 C 0.52601 0.15027 0.66376 0.0
O108 O 0.52436 0.1709 0.65403 0.0
N109 N 0.57521 0.10096 0.64399 0.0
C110 C 0.59814 0.09472 0.63765 0.0
C111 C 0.60966 0.07915 0.65008 0.0
C112 C 0.573 0.08916 0.66004 0.0
N113 N 0.59383 0.07589 0.66416 0.0
C114 C 0.58732 0.15647 0.61804 0.0
C115 C 0.59927 0.1808 0.64995 0.0
C116 C 0.61075 0.18856 0.63385 0.0
C117 C 0.60501 0.17583 0.61782 0.0
C118 C 0.58199 0.16098 0.64961 0.0
N119 N 0.57504 0.15003 0.63361 0.0
H120 H 0.58392 0.1464 0.60562 0.0
H121 H 0.57488 0.1542 0.66235 0.0
H122 H 0.60603 0.1013 0.62501 0.0
H123 H 0.55646 0.09003 0.66851 0.0
O124 O 0.55872 0.10869 0.60915 0.0
O125 O 0.52972 0.09395 0.62805 0.0
O126 O 0.53659 0.13063 0.65736 0.0
C127 C 0.54091 0.09254 0.61244 0.0
H128 H 0.46812 0.15555 0.60838 0.0
H129 H 0.62848 0.07147 0.64913 0.0
H130 H 0.60413 0.18953 0.66274 0.0
H131 H 0.61403 0.18089 0.60518 0.0
Co132 Co 0.13137 0.56619 0.63614 0.0
C133 C 0.15812 0.54166 0.60582 0.0
C134 C 0.14871 0.51525 0.62657 0.0
C135 C 0.15659 0.50214 0.61151 0.0
N136 N 0.14995 0.54019 0.62315 0.0
N137 N 0.16231 0.51883 0.59841 0.0
H138 H 0.1577 0.55866 0.59786 0.0
H139 H 0.14019 0.50694 0.63843 0.0
C140 C 0.15474 0.537 0.66686 0.0
O141 O 0.17645 0.53676 0.65835 0.0
N142 N 0.11223 0.59171 0.64865 0.0
C143 C 0.11083 0.61631 0.64441 0.0
C144 C 0.09647 0.62831 0.65733 0.0
C145 C 0.09869 0.58899 0.66395 0.0
N146 N 0.08901 0.6111 0.66965 0.0
C147 C 0.17455 0.59585 0.62589 0.0
C148 C 0.18845 0.60879 0.66073 0.0
C149 C 0.20245 0.61831 0.6462 0.0
C150 C 0.19521 0.61169 0.62857 0.0
C151 C 0.16786 0.59318 0.65744 0.0
N152 N 0.16159 0.58613 0.64021 0.0
H153 H 0.16836 0.59245 0.61226 0.0
H154 H 0.15651 0.58741 0.66882 0.0
H155 H 0.12015 0.625 0.63298 0.0
H156 H 0.096 0.57122 0.67079 0.0
O157 O 0.12045 0.57992 0.61307 0.0
O158 O 0.10074 0.55016 0.62886 0.0
O159 O 0.13565 0.54773 0.65976 0.0
C160 C 0.10183 0.56406 0.61443 0.0
H161 H 0.15625 0.4819 0.6099 0.0
H162 H 0.09259 0.64828 0.65796 0.0
H163 H 0.1931 0.6136 0.67458 0.0
H164 H 0.20477 0.61945 0.61689 0.0
Co165 Co 0.55766 0.86014 0.36636 0.0
C166 C 0.53694 0.83122 0.39648 0.0
C167 C 0.51059 0.8331 0.37453 0.0
C168 C 0.49858 0.82315 0.38947 0.0
N169 N 0.53458 0.83828 0.37905 0.0
N170 N 0.51515 0.82226 0.40332 0.0
H171 H 0.55359 0.835 0.40447 0.0
H172 H 0.50189 0.8381 0.3618 0.0
C173 C 0.55679 0.84213 0.32826 0.0
O174 O 0.58149 0.84095 0.32905 0.0
N175 N 0.5803 0.88318 0.35369 0.0
C176 C 0.6024 0.89302 0.35928 0.0
C177 C 0.61151 0.90893 0.34612 0.0
C178 C 0.57563 0.89474 0.33773 0.0
N179 N 0.59475 0.90986 0.33243 0.0
C180 C 0.6047 0.83644 0.37597 0.0
C181 C 0.59332 0.7904 0.36056 0.0
C182 C 0.6173 0.7943 0.36782 0.0
C183 C 0.62279 0.81744 0.37599 0.0
C184 C 0.576 0.81003 0.36063 0.0
N185 N 0.5824 0.83327 0.36713 0.0
H186 H 0.60843 0.85334 0.38349 0.0
H187 H 0.55743 0.80659 0.35521 0.0
H188 H 0.61113 0.88998 0.37223 0.0
H189 H 0.55828 0.89246 0.33028 0.0
O190 O 0.56525 0.87675 0.38904 0.0
O191 O 0.53458 0.88729 0.36995 0.0
O192 O 0.54415 0.84818 0.34233 0.0
C193 C 0.54588 0.89082 0.38535 0.0
H194 H 0.4788 0.81842 0.39034 0.0
H195 H 0.62922 0.91894 0.34673 0.0
H196 H 0.58815 0.77252 0.35456 0.0
H197 H 0.64071 0.82063 0.3826 0.0
Co198 Co 0.86767 0.43727 0.63572 0.0
C199 C 0.84054 0.4618 0.6065 0.0
C200 C 0.84818 0.48811 0.62785 0.0
C201 C 0.83871 0.50107 0.61314 0.0
N202 N 0.84938 0.46354 0.62353 0.0
N203 N 0.83403 0.48441 0.59972 0.0
H204 H 0.84126 0.44465 0.59861 0.0
H205 H 0.85542 0.49624 0.64022 0.0
C206 C 0.85066 0.43944 0.67461 0.0
O207 O 0.8486 0.41479 0.67493 0.0
N208 N 0.88657 0.4106 0.64756 0.0
C209 C 0.88952 0.38664 0.64189 0.0
C210 C 0.90444 0.37397 0.65399 0.0
C211 C 0.90078 0.41238 0.6627 0.0
N212 N 0.91137 0.39009 0.66714 0.0
C213 C 0.83852 0.39761 0.61965 0.0
C214 C 0.79584 0.40435 0.6404 0.0
C215 C 0.7967 0.38405 0.62828 0.0
C216 C 0.81812 0.38138 0.61735 0.0
C217 C 0.81652 0.42037 0.642 0.0
N218 N 0.83829 0.41569 0.63277 0.0
H219 H 0.85449 0.39567 0.61075 0.0
H220 H 0.81472 0.43662 0.65061 0.0
H221 H 0.88206 0.37868 0.62963 0.0
H222 H 0.90283 0.42948 0.67053 0.0
O223 O 0.88548 0.43032 0.61323 0.0
O224 O 0.89754 0.45725 0.63448 0.0
O225 O 0.85621 0.45078 0.65988 0.0
C226 C 0.90139 0.44742 0.61864 0.0
H227 H 0.83684 0.52129 0.61203 0.0
H228 H 0.91011 0.35446 0.65302 0.0
H229 H 0.77953 0.40774 0.64883 0.0
H230 H 0.81916 0.36695 0.60703 0.0
Co231 Co 0.44184 0.12747 0.36945 0.0
C232 C 0.45974 0.16076 0.39843 0.0
C233 C 0.48985 0.14989 0.38092 0.0
C234 C 0.49996 0.16069 0.39627 0.0
N235 N 0.46452 0.15001 0.38224 0.0
N236 N 0.48093 0.16712 0.40742 0.0
H237 H 0.44133 0.1615 0.40444 0.0
H238 H 0.50033 0.14016 0.37051 0.0
C239 C 0.46998 0.15409 0.33958 0.0
O240 O 0.46853 0.17554 0.34838 0.0
N241 N 0.41915 0.10463 0.35723 0.0
C242 C 0.3963 0.09774 0.36337 0.0
C243 C 0.38496 0.08263 0.35066 0.0
C244 C 0.42147 0.0936 0.34084 0.0
N245 N 0.4007 0.08013 0.33644 0.0
C246 C 0.40285 0.16136 0.38013 0.0
C247 C 0.39496 0.18308 0.34663 0.0
C248 C 0.38136 0.19178 0.36156 0.0
C249 C 0.38502 0.18034 0.37838 0.0
C250 C 0.41232 0.16362 0.34893 0.0
N251 N 0.41728 0.15412 0.36576 0.0
H252 H 0.40459 0.1522 0.39306 0.0
H253 H 0.42118 0.15598 0.33703 0.0
H254 H 0.38819 0.10368 0.37609 0.0
H255 H 0.43761 0.09597 0.33208 0.0
O256 O 0.43034 0.1145 0.3926 0.0
O257 O 0.46271 0.09991 0.37676 0.0
O258 O 0.45956 0.1343 0.34591 0.0
C259 C 0.44903 0.09884 0.39132 0.0
H260 H 0.51974 0.16118 0.39976 0.0
H261 H 0.36646 0.07423 0.35181 0.0
H262 H 0.39176 0.19081 0.33326 0.0
H263 H 0.37428 0.18614 0.39013 0.0
Co264 Co 0.62934 0.9487 0.86927 0.0
C265 C 0.66219 0.96116 0.89972 0.0
C266 C 0.66377 0.99004 0.87947 0.0
C267 C 0.67701 0.99803 0.8945 0.0
N268 N 0.65446 0.96696 0.88288 0.0
N269 N 0.67579 0.97988 0.90729 0.0
H270 H 0.65611 0.94441 0.90681 0.0
H271 H 0.65992 0.00093 0.86743 0.0
C272 C 0.64885 0.95279 0.83131 0.0
O273 O 0.64901 0.92808 0.83062 0.0
N274 N 0.603 0.93088 0.85585 0.0
C275 C 0.58709 0.913 0.86214 0.0
C276 C 0.57048 0.9063 0.84864 0.0
C277 C 0.59456 0.93578 0.83894 0.0
N278 N 0.57552 0.9205 0.83403 0.0
C279 C 0.64544 0.89691 0.87256 0.0
C280 C 0.69435 0.90555 0.86137 0.0
C281 C 0.68684 0.88086 0.86526 0.0
C282 C 0.66212 0.87671 0.87122 0.0
C283 C 0.67707 0.92512 0.86282 0.0
N284 N 0.65261 0.92056 0.86757 0.0
H285 H 0.62695 0.89345 0.87788 0.0
H286 H 0.68328 0.94402 0.85977 0.0
H287 H 0.58703 0.9055 0.87573 0.0
H288 H 0.6013 0.95079 0.83041 0.0
O289 O 0.61277 0.94013 0.89179 0.0
O290 O 0.60533 0.97432 0.87531 0.0
O291 O 0.64234 0.96397 0.84594 0.0
C292 C 0.60073 0.96128 0.88986 0.0
H293 H 0.68568 0.01632 0.89617 0.0
H294 H 0.55616 0.89183 0.84939 0.0
H295 H 0.7135 0.90982 0.85738 0.0
H296 H 0.65561 0.858 0.8747 0.0
Co297 Co 0.92489 0.3781 0.13188 0.0
C298 C 0.95054 0.35591 0.1008 0.0
C299 C 0.9766 0.36209 0.12251 0.0
C300 C 0.98987 0.35486 0.10728 0.0
N301 N 0.95195 0.36277 0.11833 0.0
N302 N 0.97343 0.35146 0.09356 0.0
H303 H 0.93313 0.35566 0.09321 0.0
H304 H 0.98456 0.36814 0.13527 0.0
C305 C 0.93323 0.3631 0.17054 0.0
O306 O 0.90949 0.35624 0.17145 0.0
N307 N 0.89787 0.39435 0.14525 0.0
C308 C 0.87294 0.39515 0.14177 0.0
C309 C 0.86137 0.40985 0.15465 0.0
C310 C 0.90112 0.40954 0.15971 0.0
N311 N 0.87913 0.4188 0.16597 0.0
C312 C 0.88632 0.34336 0.12112 0.0
C313 C 0.90441 0.30224 0.13987 0.0
C314 C 0.88115 0.30022 0.13099 0.0
C315 C 0.87253 0.32102 0.12109 0.0
C316 C 0.9175 0.32508 0.13959 0.0
N317 N 0.90743 0.34585 0.13145 0.0
H318 H 0.87998 0.35866 0.11271 0.0
H319 H 0.93577 0.32597 0.14595 0.0
H320 H 0.86347 0.38648 0.13052 0.0
H321 H 0.91929 0.41338 0.16572 0.0
O322 O 0.91234 0.39256 0.10947 0.0
O323 O 0.9398 0.41053 0.12808 0.0
O324 O 0.94263 0.37053 0.15551 0.0
C325 C 0.92719 0.41143 0.11302 0.0
H326 H 0.01016 0.35413 0.10606 0.0
H327 H 0.84146 0.41397 0.15541 0.0
H328 H 0.91252 0.28631 0.14689 0.0
H329 H 0.85502 0.32034 0.11361 0.0
Co330 Co 0.3775 0.06418 0.8728 0.0
C331 C 0.35269 0.03913 0.90351 0.0
C332 C 0.36417 0.01208 0.88383 0.0
C333 C 0.35633 -0.00047 0.89919 0.0
N334 N 0.36152 0.03706 0.88642 0.0
N335 N 0.34945 0.01668 0.91172 0.0
H336 H 0.35108 0.05679 0.91047 0.0
H337 H 0.3733 0.00348 0.87232 0.0
C338 C 0.3606 0.03062 0.84218 0.0
O339 O 0.33773 0.0296 0.84891 0.0
N340 N 0.39381 0.09105 0.85974 0.0
C341 C 0.39156 0.11583 0.86316 0.0
C342 C 0.40329 0.129 0.8495 0.0
C343 C 0.40702 0.08938 0.84421 0.0
N344 N 0.41286 0.11232 0.83756 0.0
C345 C 0.32951 0.08705 0.88027 0.0
C346 C 0.31727 0.0972 0.84465 0.0
C347 C 0.30048 0.10409 0.85836 0.0
C348 C 0.30682 0.09894 0.87635 0.0
C349 C 0.33962 0.08496 0.84917 0.0
N350 N 0.34519 0.07926 0.86678 0.0
H351 H 0.33485 0.08531 0.8942 0.0
H352 H 0.35277 0.08066 0.83846 0.0
H353 H 0.38124 0.12377 0.87441 0.0
H354 H 0.41118 0.07183 0.83744 0.0
O355 O 0.38474 0.08135 0.89548 0.0
O356 O 0.40939 0.05334 0.88183 0.0
O357 O 0.37778 0.04321 0.85014 0.0
C358 C 0.40541 0.0682 0.89548 0.0
H359 H 0.35761 0.97946 0.90138 0.0
H360 H 0.40424 0.14927 0.84829 0.0
H361 H 0.3133 0.10152 0.83061 0.0
H362 H 0.29488 0.10512 0.88738 0.0
Co363 Co 0.06059 0.62093 0.13027 0.0
C364 C 0.04367 0.6549 0.10122 0.0
C365 C 0.01812 0.656 0.12351 0.0
C366 C 0.00764 0.66903 0.10923 0.0
N367 N 0.04103 0.64742 0.1186 0.0
N368 N 0.02376 0.66817 0.09515 0.0
H369 H 0.05836 0.64818 0.09239 0.0
H370 H 0.00847 0.65123 0.13591 0.0
C371 C 0.04173 0.64889 0.16344 0.0
O372 O 0.04951 0.67066 0.15711 0.0
N373 N 0.0797 0.59425 0.14148 0.0
C374 C 0.10175 0.58503 0.13548 0.0
C375 C 0.11073 0.56808 0.14797 0.0
C376 C 0.07544 0.58274 0.15748 0.0
N377 N 0.09426 0.56677 0.16186 0.0
C378 C 0.1 0.65516 0.12004 0.0
C379 C 0.11827 0.66354 0.15455 0.0
C380 C 0.12857 0.67713 0.14007 0.0
C381 C 0.1196 0.67227 0.12258 0.0
C382 C 0.09864 0.64658 0.15138 0.0
N383 N 0.0888 0.64361 0.13442 0.0
H384 H 0.09417 0.651 0.10645 0.0
H385 H 0.0912 0.636 0.16266 0.0
H386 H 0.11107 0.59083 0.12315 0.0
H387 H 0.05952 0.58678 0.16611 0.0
O388 O 0.06963 0.6076 0.10662 0.0
O389 O 0.03568 0.59726 0.12254 0.0
O390 O 0.04495 0.62872 0.15439 0.0
C391 C 0.04874 0.59483 0.10778 0.0
H392 H 0.98889 0.67695 0.1089 0.0
H393 H 0.12828 0.55786 0.147 0.0
H394 H 0.12494 0.66633 0.16826 0.0
H395 H 0.12781 0.68143 0.11089 0.0
Co396 Co 0.61353 0.06383 0.13094 0.0
C397 C 0.63851 0.0368 0.1009 0.0
C398 C 0.63428 0.01255 0.12373 0.0
C399 C 0.6447 -0.00107 0.1097 0.0
N400 N 0.63109 0.03664 0.11839 0.0
N401 N 0.64743 0.01435 0.09534 0.0
H402 H 0.63565 0.05246 0.09186 0.0
H403 H 0.62829 0.0048 0.13653 0.0
C404 C 0.63655 0.03724 0.16329 0.0
O405 O 0.65935 0.03954 0.1566 0.0
N406 N 0.59557 0.0906 0.1431 0.0
C407 C 0.59121 0.11394 0.13668 0.0
C408 C 0.57886 0.12765 0.14979 0.0
C409 C 0.58599 0.09043 0.16001 0.0
N410 N 0.57583 0.11285 0.16443 0.0
C411 C 0.65778 0.08985 0.11881 0.0
C412 C 0.67254 0.10802 0.1522 0.0
C413 C 0.68685 0.11434 0.13688 0.0
C414 C 0.67921 0.10486 0.12005 0.0
C415 C 0.6513 0.09261 0.15035 0.0
N416 N 0.64454 0.08307 0.13385 0.0
H417 H 0.65143 0.08459 0.10557 0.0
H418 H 0.64002 0.08877 0.16219 0.0
H419 H 0.5971 0.12073 0.12355 0.0
H420 H 0.58654 0.07441 0.16903 0.0
O421 O 0.60254 0.07688 0.10768 0.0
O422 O 0.58207 0.04868 0.12435 0.0
O423 O 0.61753 0.04591 0.15481 0.0
C424 C 0.58324 0.06199 0.10961 0.0
H425 H 0.64918 0.97908 0.10995 0.0
H426 H 0.57333 0.14721 0.14889 0.0
H427 H 0.6772 0.1155 0.16541 0.0
H428 H 0.68947 0.10923 0.10779 0.0
Co429 Co 0.06358 0.36665 0.86713 0.0
C430 C 0.03934 0.338 0.89611 0.0
C431 C 0.0133 0.34599 0.87471 0.0
C432 C 4e-05 0.33727 0.88949 0.0
N433 N 0.03792 0.34667 0.87898 0.0
N434 N 0.01646 0.33261 0.90304 0.0
H435 H 0.05645 0.33853 0.90406 0.0
H436 H 0.00526 0.35363 0.86244 0.0
C437 C 0.05604 0.35095 0.82825 0.0
O438 O 0.07983 0.34432 0.82739 0.0
N439 N 0.0892 0.388 0.85573 0.0
C440 C 0.10873 0.39939 0.86424 0.0
C441 C 0.12086 0.41525 0.8524 0.0
C442 C 0.08936 0.39811 0.83891 0.0
N443 N 0.10875 0.41415 0.83647 0.0
C444 C 0.10901 0.33739 0.87041 0.0
C445 C 0.08842 0.29303 0.8575 0.0
C446 C 0.11405 0.29382 0.86178 0.0
C447 C 0.12429 0.31623 0.86855 0.0
C448 C 0.0739 0.3147 0.85938 0.0
N449 N 0.08445 0.33681 0.86509 0.0
H450 H 0.11697 0.35408 0.87633 0.0
H451 H 0.05419 0.31386 0.85581 0.0
H452 H 0.11371 0.39699 0.87831 0.0
H453 H 0.07503 0.39511 0.8288 0.0
O454 O 0.07439 0.37853 0.89069 0.0
O455 O 0.04494 0.39617 0.87341 0.0
O456 O 0.047 0.36001 0.84292 0.0
C457 C 0.05734 0.39586 0.88859 0.0
H458 H 0.97975 0.33638 0.89062 0.0
H459 H 0.13728 0.42668 0.85522 0.0
H460 H 0.07977 0.27599 0.85238 0.0
H461 H 0.14385 0.31728 0.87261 0.0
Co462 Co 0.37871 0.93315 0.13388 0.0
C463 C 0.34341 0.95419 0.10732 0.0
C464 C 0.34959 0.97987 0.12912 0.0
C465 C 0.33737 0.99244 0.11536 0.0
N466 N 0.3532 0.95567 0.12416 0.0
N467 N 0.33373 0.97622 0.10158 0.0
H468 H 0.34666 0.9386 0.0983 0.0
H469 H 0.35774 0.98863 0.14095 0.0
C470 C 0.35395 0.9531 0.16798 0.0
O471 O 0.33142 0.94974 0.16105 0.0
N472 N 0.40452 0.91117 0.1431 0.0
C473 C 0.41265 0.88956 0.13556 0.0
C474 C 0.43031 0.87889 0.14686 0.0
C475 C 0.41722 0.9134 0.15877 0.0
N476 N 0.43294 0.89388 0.16145 0.0
C477 C 0.34287 0.89563 0.12287 0.0
C478 C 0.3327 0.8773 0.15711 0.0
C479 C 0.31935 0.86753 0.14233 0.0
C480 C 0.32502 0.87659 0.12499 0.0
C481 C 0.35039 0.89639 0.15436 0.0
N482 N 0.35432 0.90627 0.13751 0.0
H483 H 0.34788 0.90125 0.10938 0.0
H484 H 0.36108 0.90301 0.16584 0.0
H485 H 0.40572 0.88175 0.12299 0.0
H486 H 0.4149 0.92876 0.16818 0.0
O487 O 0.38982 0.92567 0.10935 0.0
O488 O 0.4037 0.95699 0.1266 0.0
O489 O 0.37354 0.94703 0.159 0.0
C490 C 0.40415 0.94544 0.1111 0.0
H491 H 0.33355 0.01243 0.11495 0.0
H492 H 0.43964 0.86099 0.14491 0.0
H493 H 0.32936 0.87047 0.17071 0.0
H494 H 0.31609 0.86871 0.11309 0.0
Co495 Co 0.93569 0.62317 0.86992 0.0
C496 C 0.95924 0.654 0.89839 0.0
C497 C 0.98536 0.64589 0.87721 0.0
C498 C 0.99841 0.65589 0.89167 0.0
N499 N 0.96061 0.64497 0.88131 0.0
N500 N 0.98188 0.66079 0.90505 0.0
H501 H 0.94284 0.65228 0.90685 0.0
H502 H 0.99378 0.63753 0.86533 0.0
C503 C 0.95962 0.64924 0.83796 0.0
O504 O 0.95877 0.67082 0.84663 0.0
N505 N 0.9111 0.60102 0.85912 0.0
C506 C 0.88788 0.59627 0.86556 0.0
C507 C 0.87543 0.58105 0.85344 0.0
C508 C 0.91255 0.5886 0.84325 0.0
N509 N 0.8909 0.57632 0.83933 0.0
C510 C 0.90124 0.66102 0.88228 0.0
C511 C 0.88436 0.67534 0.84845 0.0
C512 C 0.87417 0.68699 0.8638 0.0
C513 C 0.88283 0.67956 0.88088 0.0
C514 C 0.90285 0.65693 0.85047 0.0
N515 N 0.91181 0.65062 0.86722 0.0
H516 H 0.90604 0.65433 0.89554 0.0
H517 H 0.90917 0.64709 0.83854 0.0
H518 H 0.88036 0.60381 0.87804 0.0
H519 H 0.92886 0.58916 0.83455 0.0
O520 O 0.92617 0.61099 0.89375 0.0
O521 O 0.95618 0.59488 0.87624 0.0
O522 O 0.95088 0.62929 0.84528 0.0
C523 C 0.94407 0.5946 0.89151 0.0
H524 H 0.01865 0.65755 0.89271 0.0
H525 H 0.85638 0.57417 0.85494 0.0
H526 H 0.87749 0.67974 0.83502 0.0
H527 H 0.87525 0.68774 0.89315 0.0
H528 H 0.92715 0.50801 0.40175 0.0
H529 H 0.95677 0.49381 0.42429 0.0
H530 H 0.96876 0.57056 0.44168 0.0
H531 H 0.93826 0.58494 0.41872 0.0
H532 H 0.01134 0.55078 0.43278 0.0
H533 H 0.95708 0.52564 0.47562 0.0
H534 H 0.91912 0.51141 0.49148 0.0
H535 H 0.9279 0.43738 0.46913 0.0
H536 H 0.96552 0.4513 0.45254 0.0
H537 H 0.09289 0.43461 0.42569 0.0
H538 H 0.06849 0.4584 0.44829 0.0
H539 H 0.01666 0.48114 0.40646 0.0
H540 H 0.04114 0.45827 0.38397 0.0
H541 H 0.00739 0.46305 0.45547 0.0
H542 H 0.03377 0.54355 0.40477 0.0
H543 H 0.07179 0.55791 0.38875 0.0
H544 H 0.11832 0.52321 0.42909 0.0
H545 H 0.08065 0.5088 0.4455 0.0
C546 C 0.93574 0.52186 0.41058 0.0
C547 C 0.93105 0.54757 0.40824 0.0
C548 C 0.95233 0.51369 0.42381 0.0
C549 C 0.96489 0.53105 0.43498 0.0
C550 C 0.95908 0.5568 0.4334 0.0
C551 C 0.94192 0.565 0.42022 0.0
C552 C 0.98774 0.52219 0.4446 0.0
C553 C 0.01072 0.53198 0.43845 0.0
C554 C 0.9875 0.49847 0.45335 0.0
C555 C 0.96455 0.48954 0.46298 0.0
C556 C 0.95094 0.50632 0.47399 0.0
C557 C 0.9294 0.49827 0.48314 0.0
C558 C 0.9212 0.4734 0.48151 0.0
C559 C 0.9344 0.45659 0.47052 0.0
C560 C 0.95593 0.46457 0.46125 0.0
C561 C 0.07584 0.44411 0.42151 0.0
C562 C 0.06895 0.44498 0.40312 0.0
C563 C 0.06202 0.45764 0.4344 0.0
C564 C 0.04111 0.47171 0.4289 0.0
C565 C 0.03296 0.47051 0.41086 0.0
C566 C 0.04687 0.45743 0.39804 0.0
C567 C 0.02893 0.49037 0.44074 0.0
C568 C 0.00832 0.48247 0.45106 0.0
C569 C 0.03152 0.51609 0.43624 0.0
C570 C 0.05427 0.52529 0.42652 0.0
C571 C 0.05208 0.53922 0.41039 0.0
C572 C 0.07361 0.54724 0.40116 0.0
C573 C 0.09747 0.54145 0.40789 0.0
C574 C 0.09985 0.52752 0.42381 0.0
C575 C 0.07841 0.51942 0.43309 0.0
H576 H 0.11411 0.54778 0.40076 0.0
H577 H 0.90459 0.46714 0.48871 0.0
H578 H 0.53323 0.10257 0.57666 0.0
H579 H 0.5069 0.07754 0.55585 0.0
H580 H 0.50021 0.01977 0.59659 0.0
H581 H 0.5256 0.04481 0.61738 0.0
H582 H 0.50558 0.01964 0.54399 0.0
H583 H 0.44043 0.02366 0.6074 0.0
H584 H 0.42916 0.05514 0.6305 0.0
H585 H 0.44557 0.11477 0.59313 0.0
H586 H 0.45654 0.08367 0.56966 0.0
H587 H 0.48122 0.92367 0.59027 0.0
H588 H 0.48697 0.95779 0.569 0.0
H589 H 0.40638 0.9677 0.56572 0.0
H590 H 0.40071 0.93274 0.58721 0.0
H591 H 0.42572 0.00813 0.57779 0.0
H592 H 0.44154 0.97605 0.52203 0.0
H593 H 0.45253 0.94604 0.49786 0.0
H594 H 0.52929 0.94539 0.51596 0.0
H595 H 0.51888 0.97567 0.54011 0.0
C596 C 0.52682 0.08409 0.58082 0.0
C597 C 0.53126 0.07544 0.59853 0.0
C598 C 0.51181 0.06993 0.56897 0.0
C599 C 0.50152 0.04703 0.57482 0.0
C600 C 0.50793 0.03751 0.59193 0.0
C601 C 0.52241 0.05175 0.60378 0.0
C602 C 0.48127 0.0341 0.56481 0.0
C603 C 0.48771 0.01742 0.55089 0.0
C604 C 0.45718 0.03254 0.57287 0.0
C605 C 0.44913 0.05127 0.58668 0.0
C606 C 0.44124 0.04346 0.60398 0.0
C607 C 0.43504 0.06126 0.61718 0.0
C608 C 0.43664 0.08694 0.61328 0.0
C609 C 0.44435 0.09488 0.59613 0.0
C610 C 0.45055 0.07717 0.58287 0.0
C611 C 0.46471 0.93261 0.58455 0.0
C612 C 0.44061 0.92619 0.59063 0.0
C613 C 0.46792 0.9519 0.57206 0.0
C614 C 0.44709 0.96553 0.5656 0.0
C615 C 0.42273 0.95743 0.57038 0.0
C616 C 0.4195 0.93763 0.58273 0.0
C617 C 0.45175 0.99147 0.55887 0.0
C618 C 0.4425 0.01107 0.56972 0.0
C619 C 0.4725 0.99631 0.54737 0.0
C620 C 0.47939 0.97821 0.53289 0.0
C621 C 0.46079 0.96957 0.52084 0.0
C622 C 0.46695 0.95265 0.50706 0.0
C623 C 0.49157 0.94382 0.50539 0.0
C624 C 0.51022 0.9523 0.51726 0.0
C625 C 0.50424 0.96953 0.53092 0.0
H626 H 0.49608 0.93019 0.49503 0.0
H627 H 0.43195 0.10068 0.62355 0.0
H628 H 0.92551 0.42462 0.58993 0.0
H629 H 0.96041 0.44248 0.57195 0.0
H630 H 0.95562 0.51129 0.60279 0.0
H631 H 0.92166 0.49366 0.62071 0.0
H632 H 0.96331 0.51958 0.56542 0.0
H633 H 0.99612 0.46671 0.61635 0.0
H634 H 0.001 0.42541 0.63124 0.0
H635 H 0.03055 0.39425 0.58199 0.0
H636 H 0.02562 0.43538 0.56681 0.0
H637 H 0.0533 0.5783 0.61331 0.0
H638 H 0.02061 0.55839 0.59511 0.0
H639 H 0.07727 0.5171 0.56561 0.0
H640 H 0.1101 0.53752 0.5838 0.0
H641 H 0.04673 0.48649 0.58357 0.0
H642 H 0.03307 0.54898 0.54085 0.0
H643 H 0.02904 0.59131 0.52758 0.0
H644 H 0.96379 0.60538 0.5603 0.0
H645 H 0.9676 0.56335 0.57402 0.0
C646 C 0.93192 0.44359 0.59269 0.0
C647 C 0.92131 0.45762 0.6069 0.0
C648 C 0.95168 0.45377 0.58241 0.0
C649 C 0.96047 0.47824 0.58603 0.0
C650 C 0.94898 0.49249 0.59966 0.0
C651 C 0.92978 0.48224 0.61006 0.0
C652 C 0.98335 0.48868 0.57746 0.0
C653 C 0.98169 0.51224 0.56894 0.0
C654 C 0.00729 0.47852 0.58133 0.0
C655 C 0.01025 0.45392 0.59042 0.0
C656 C 0.00352 0.45098 0.6087 0.0
C657 C 0.00631 0.42764 0.61718 0.0
C658 C 0.01601 0.40719 0.60755 0.0
C659 C 0.02299 0.41008 0.58942 0.0
C660 C 0.0202 0.43339 0.58087 0.0
C661 C 0.05876 0.56606 0.60226 0.0
C662 C 0.084 0.55957 0.59973 0.0
C663 C 0.04012 0.55469 0.59179 0.0
C664 C 0.04646 0.53627 0.57889 0.0
C665 C 0.07197 0.53141 0.57532 0.0
C666 C 0.09068 0.54312 0.58566 0.0
C667 C 0.0266 0.5185 0.57292 0.0
C668 C 0.02873 0.49342 0.57875 0.0
C669 C 0.00314 0.52734 0.56653 0.0
C670 C 0.00061 0.55285 0.55845 0.0
C671 C 0.01792 0.56113 0.54531 0.0
C672 C 0.01567 0.58509 0.53769 0.0
C673 C 0.99615 0.60101 0.54308 0.0
C674 C 0.97885 0.59299 0.5561 0.0
C675 C 0.98102 0.56904 0.56377 0.0
H676 H 0.99444 0.61956 0.53716 0.0
H677 H 0.01817 0.38914 0.61414 0.0
H678 H 0.56552 0.93303 0.40073 0.0
H679 H 0.54227 0.96391 0.41881 0.0
H680 H 0.47744 0.91471 0.41913 0.0
H681 H 0.50038 0.88456 0.40032 0.0
H682 H 0.46531 0.95634 0.40519 0.0
H683 H 0.50632 0.93521 0.45886 0.0
H684 H 0.54089 0.92385 0.47947 0.0
H685 H 0.57393 0.99691 0.47232 0.0
H686 H 0.54013 0.00849 0.45115 0.0
H687 H 0.41618 0.07482 0.41395 0.0
H688 H 0.42551 0.03679 0.43162 0.0
H689 H 0.50423 0.04445 0.41832 0.0
H690 H 0.49498 0.08195 0.40064 0.0
H691 H 0.4955 0.01707 0.45134 0.0
H692 H 0.4692 0.0197 0.38594 0.0
H693 H 0.43793 0.0329 0.36311 0.0
H694 H 0.37967 0.99467 0.39262 0.0
H695 H 0.41062 0.98162 0.41577 0.0
C696 C 0.54655 0.92869 0.40513 0.0
C697 C 0.53441 0.90693 0.39903 0.0
C698 C 0.53333 0.94612 0.41563 0.0
C699 C 0.50805 0.94161 0.42041 0.0
C700 C 0.49685 0.91863 0.41559 0.0
C701 C 0.50986 0.90154 0.4048 0.0
C702 C 0.49212 0.96275 0.42671 0.0
C703 C 0.47133 0.969 0.41588 0.0
C704 C 0.49996 0.97949 0.44054 0.0
C705 C 0.52051 0.97275 0.45335 0.0
C706 C 0.52106 0.94882 0.46151 0.0
C707 C 0.54058 0.94231 0.47329 0.0
C708 C 0.55956 0.95967 0.47724 0.0
C709 C 0.55916 0.98351 0.4693 0.0
C710 C 0.5398 0.99006 0.45739 0.0
C711 C 0.43555 0.06884 0.41545 0.0
C712 C 0.45482 0.08058 0.40555 0.0
C713 C 0.44088 0.04733 0.42566 0.0
C714 C 0.4655 0.03768 0.42604 0.0
C715 C 0.48513 0.05158 0.41822 0.0
C716 C 0.47978 0.07274 0.40786 0.0
C717 C 0.47008 0.01067 0.42919 0.0
C718 C 0.48871 0.00341 0.44159 0.0
C719 C 0.46053 0.99286 0.41674 0.0
C720 C 0.44209 -0.00015 0.40258 0.0
C721 C 0.4497 0.01413 0.38752 0.0
C722 C 0.43206 0.02163 0.37456 0.0
C723 C 0.40682 0.01465 0.37643 0.0
C724 C 0.39921 0.0001 0.39122 0.0
C725 C 0.41678 0.99266 0.40427 0.0
H726 H 0.39318 0.0205 0.3664 0.0
H727 H 0.57457 0.95463 0.48644 0.0
H728 H 0.58804 0.00974 0.89601 0.0
H729 H 0.55619 0.02564 0.91661 0.0
H730 H 0.54213 0.95023 0.93591 0.0
H731 H 0.57453 0.93416 0.91516 0.0
H732 H 0.50098 0.9704 0.92349 0.0
H733 H 0.5545 0.99686 0.96946 0.0
H734 H 0.59216 0.01358 0.98484 0.0
H735 H 0.5821 0.08478 0.95839 0.0
H736 H 0.54409 0.06869 0.94311 0.0
H737 H 0.39617 0.04598 0.9277 0.0
H738 H 0.42883 0.02716 0.94674 0.0
H739 H 0.48563 0.067 0.91634 0.0
H740 H 0.45308 0.0852 0.89713 0.0
H741 H 0.5011 0.0545 0.95266 0.0
H742 H 0.45929 0.01661 0.89829 0.0
H743 H 0.42286 0.99799 0.88246 0.0
H744 H 0.41293 0.9451 0.92584 0.0
H745 H 0.44941 0.96346 0.94185 0.0
C746 C 0.57849 0.99659 0.90487 0.0
C747 C 0.58333 0.97071 0.90379 0.0
C748 C 0.56059 0.00574 0.91693 0.0
C749 C 0.54697 0.9892 0.92808 0.0
C750 C 0.55262 0.96337 0.92761 0.0
C751 C 0.57094 0.95421 0.91568 0.0
C752 C 0.52363 0.99858 0.93674 0.0
C753 C 0.50089 0.98821 0.93069 0.0
C754 C 0.52333 0.02165 0.94629 0.0
C755 C 0.5464 0.03154 0.95515 0.0
C756 C 0.56036 0.01606 0.96687 0.0
C757 C 0.58174 0.02545 0.9756 0.0
C758 C 0.58962 0.05016 0.9725 0.0
C759 C 0.57597 0.06563 0.96079 0.0
C760 C 0.55438 0.05645 0.9522 0.0
C761 C 0.41551 0.05187 0.92586 0.0
C762 C 0.42231 0.06698 0.91105 0.0
C763 C 0.43415 0.04106 0.93671 0.0
C764 C 0.45963 0.04544 0.93277 0.0
C765 C 0.46607 0.06346 0.91965 0.0
C766 C 0.4475 0.07388 0.90866 0.0
C767 C 0.47919 0.02711 0.93808 0.0
C768 C 0.50105 0.03587 0.94667 0.0
C769 C 0.47872 0.00234 0.93098 0.0
C770 C 0.45653 0.99182 0.9215 0.0
C771 C 0.4491 0.00124 0.90455 0.0
C772 C 0.42855 0.99066 0.8955 0.0
C773 C 0.41554 0.97043 0.90317 0.0
C774 C 0.42296 0.96083 0.91994 0.0
C775 C 0.44353 0.97133 0.92902 0.0
H776 H 0.39986 0.96203 0.89603 0.0
H777 H 0.60625 0.05733 0.97921 0.0
H778 H 0.92761 0.40744 0.07609 0.0
H779 H 0.94996 0.43604 0.0553 0.0
H780 H 0.96211 0.48789 0.09938 0.0
H781 H 0.9407 0.45931 0.12007 0.0
H782 H 0.95056 0.49846 0.04969 0.0
H783 H 0.02646 0.47718 0.10436 0.0
H784 H 0.04114 0.44094 0.12224 0.0
H785 H 0.01341 0.39037 0.08153 0.0
H786 H 0.99802 0.42614 0.06368 0.0
H787 H 0.00021 0.58662 0.09945 0.0
H788 H 0.98331 0.55516 0.07909 0.0
H789 H 0.05859 0.53568 0.06204 0.0
H790 H 0.07569 0.56777 0.08273 0.0
H791 H 0.03693 0.49671 0.07511 0.0
H792 H 0.01401 0.54851 0.02992 0.0
H793 H 0.0005 0.5855 0.0126 0.0
H794 H 0.92515 0.57668 0.03248 0.0
H795 H 0.93825 0.54024 0.05061 0.0
C796 C 0.9343 0.42538 0.0811 0.0
C797 C 0.93288 0.43112 0.09967 0.0
C798 C 0.94697 0.44166 0.06923 0.0
C799 C 0.95785 0.46384 0.07593 0.0
C800 C 0.95387 0.47075 0.09403 0.0
C801 C 0.9417 0.45443 0.10585 0.0
C802 C 0.97717 0.47792 0.06576 0.0
C803 C 0.96965 0.49812 0.05484 0.0
C804 C 0.00249 0.4762 0.07149 0.0
C805 C 0.01146 0.45447 0.08243 0.0
C806 C 0.02363 0.45834 0.09913 0.0
C807 C 0.03187 0.43783 0.10938 0.0
C808 C 0.02819 0.41333 0.10305 0.0
C809 C 0.01611 0.4093 0.08652 0.0
C810 C 0.00758 0.42971 0.07633 0.0
C811 C 0.01315 0.57608 0.09103 0.0
C812 C 0.03922 0.5791 0.09291 0.0
C813 C 0.00346 0.55834 0.07909 0.0
C814 C 0.01962 0.54302 0.06885 0.0
C815 C 0.04574 0.54739 0.06968 0.0
C816 C 0.05549 0.56557 0.08155 0.0
C817 C 0.00921 0.51925 0.06138 0.0
C818 C 0.01841 0.49689 0.06894 0.0
C819 C 0.98567 0.519 0.05235 0.0
C820 C 0.97721 0.54124 0.04162 0.0
C821 C 0.99457 0.55449 0.03079 0.0
C822 C 0.98696 0.57543 0.02077 0.0
C823 C 0.96194 0.58335 0.0213 0.0
C824 C 0.94451 0.57042 0.03198 0.0
C825 C 0.95204 0.54954 0.04215 0.0
H826 H 0.9561 0.59955 0.01349 0.0
H827 H 0.03469 0.39748 0.11096 0.0
H828 H 0.41501 0.99416 0.10577 0.0
H829 H 0.44357 0.01218 0.08383 0.0
H830 H 0.45553 0.93878 0.06023 0.0
H831 H 0.42632 0.92043 0.08262 0.0
H832 H 0.49877 0.95952 0.06953 0.0
H833 H 0.43759 0.98669 0.0308 0.0
H834 H 0.396 0.00085 0.02032 0.0
H835 H 0.40641 0.07158 0.04736 0.0
H836 H 0.44793 0.0578 0.0583 0.0
H837 H 0.59154 0.05692 0.07331 0.0
H838 H 0.56168 0.03896 0.05131 0.0
H839 H 0.50346 0.04016 0.09199 0.0
H840 H 0.53318 0.05732 0.11392 0.0
H841 H 0.48984 0.0479 0.04895 0.0
H842 H 0.52757 0.97841 0.09831 0.0
H843 H 0.56839 0.96453 0.11078 0.0
H844 H 0.60314 0.97545 0.05887 0.0
H845 H 0.56252 0.98936 0.04616 0.0
C846 C 0.42333 0.98187 0.09571 0.0
C847 C 0.4189 0.95589 0.09604 0.0
C848 C 0.43936 0.99227 0.0829 0.0
C849 C 0.45148 0.97694 0.0701 0.0
C850 C 0.44613 0.951 0.06981 0.0
C851 C 0.42961 0.94055 0.08261 0.0
C852 C 0.47299 0.98789 0.06 0.0
C853 C 0.49694 0.97833 0.06397 0.0
C854 C 0.47087 0.0121 0.05214 0.0
C855 C 0.44614 0.0212 0.04527 0.0
C856 C 0.43107 0.00528 0.03453 0.0
C857 C 0.40744 0.01323 0.02852 0.0
C858 C 0.39856 0.0371 0.03314 0.0
C859 C 0.41336 0.05312 0.04373 0.0
C860 C 0.43704 0.04528 0.04978 0.0
C861 C 0.57207 0.05429 0.07724 0.0
C862 C 0.56452 0.05825 0.09525 0.0
C863 C 0.55507 0.04411 0.06467 0.0
C864 C 0.5304 0.03831 0.07005 0.0
C865 C 0.52235 0.0448 0.08753 0.0
C866 C 0.53934 0.05439 0.10009 0.0
C867 C 0.51473 0.02002 0.06004 0.0
C868 C 0.49186 0.02827 0.05265 0.0
C869 C 0.51798 0.9942 0.06393 0.0
C870 C 0.54208 0.98473 0.07129 0.0
C871 C 0.5439 0.97759 0.08955 0.0
C872 C 0.56701 0.96985 0.09667 0.0
C873 C 0.58835 0.96908 0.08563 0.0
C874 C 0.58663 0.97605 0.06743 0.0
C875 C 0.56358 0.98385 0.06025 0.0
H876 H 0.60618 0.96306 0.09118 0.0
H877 H 0.3802 0.04316 0.02853 0.0
H878 H 0.93022 0.5466 0.89797 0.0
H879 H 0.95471 0.51601 0.91525 0.0
H880 H 0.00439 0.57512 0.93318 0.0
H881 H 0.97962 0.60581 0.91614 0.0
H882 H 0.02046 0.53511 0.90644 0.0
H883 H 0.01343 0.50757 0.97919 0.0
H884 H 0.98801 0.51309 0.00672 0.0
H885 H 0.92117 0.5198 0.97451 0.0
H886 H 0.94586 0.51264 0.94692 0.0
H887 H 0.08906 0.42458 0.90906 0.0
H888 H 0.07651 0.46087 0.9277 0.0
H889 H 0.99839 0.44196 0.9192 0.0
H890 H 0.01083 0.40637 0.9004 0.0
H891 H 0.00906 0.46942 0.95342 0.0
H892 H 0.02312 0.47248 0.88554 0.0
H893 H 0.05217 0.4647 0.86005 0.0
H894 H 0.10865 0.51012 0.88588 0.0
H895 H 0.07996 0.51783 0.91163 0.0
C896 C 0.94537 0.55321 0.90658 0.0
C897 C 0.95283 0.57842 0.90615 0.0
C898 C 0.95923 0.53582 0.91659 0.0
C899 C 0.98062 0.54346 0.92637 0.0
C900 C 0.98715 0.56904 0.92671 0.0
C901 C 0.97316 0.58648 0.9168 0.0
C902 C -0.00016 0.52428 0.93037 0.0
C903 C 0.01855 0.52126 0.91715 0.0
C904 C 0.99755 0.50634 0.94445 0.0
C905 C 0.98179 0.51059 0.96078 0.0
C906 C 0.9933 0.51031 0.97793 0.0
C907 C 0.97898 0.51361 0.99361 0.0
C908 C 0.95305 0.51737 0.99237 0.0
C909 C 0.94134 0.51734 0.97544 0.0
C910 C 0.95556 0.51369 0.95971 0.0
C911 C 0.06929 0.42777 0.9118 0.0
C912 C 0.05079 0.41339 0.90307 0.0
C913 C 0.06216 0.44825 0.92256 0.0
C914 C 0.03653 0.45409 0.92472 0.0
C915 C 0.01823 0.43767 0.9178 0.0
C916 C 0.02532 0.41764 0.90683 0.0
C917 C 0.02846 0.47995 0.92898 0.0
C918 C 0.01188 0.48413 0.94345 0.0
C919 C 0.03275 0.49927 0.91623 0.0
C920 C 0.04953 0.49563 0.90046 0.0
C921 C 0.04173 0.48082 0.88572 0.0
C922 C 0.05813 0.47637 0.87127 0.0
C923 C 0.08225 0.4869 0.87135 0.0
C924 C 0.08997 0.50197 0.88585 0.0
C925 C 0.07367 0.50638 0.90037 0.0
H926 H 0.09495 0.48339 0.86018 0.0
H927 H 0.942 0.51999 0.00453 0.0
H928 H 0.24295 0.39369 0.3659 0.0
H929 H 0.27808 0.36417 0.36296 0.0
H930 H 0.2267 0.30177 0.36817 0.0
H931 H 0.19139 0.33077 0.37003 0.0
H932 H 0.27252 0.30311 0.39227 0.0
H933 H 0.244 0.31082 0.32954 0.0
H934 H 0.23458 0.33526 0.302 0.0
H935 H 0.31077 0.36222 0.30049 0.0
H936 H 0.32054 0.33821 0.32821 0.0
H937 H 0.33222 0.19126 0.37138 0.0
H938 H 0.30293 0.22667 0.3714 0.0
H939 H 0.36048 0.27448 0.3485 0.0
H940 H 0.3896 0.23863 0.34785 0.0
H941 H 0.31649 0.28583 0.3343 0.0
H942 H 0.34764 0.27597 0.39397 0.0
H943 H 0.35904 0.25361 0.42203 0.0
H944 H 0.28148 0.23436 0.43079 0.0
H945 H 0.26965 0.25626 0.40263 0.0
C946 C 0.23902 0.3737 0.36616 0.0
C947 C 0.21426 0.36467 0.36831 0.0
C948 C 0.25915 0.35692 0.3646 0.0
C949 C 0.25482 0.33094 0.36541 0.0
C950 C 0.2303 0.32184 0.36765 0.0
C951 C 0.21018 0.3385 0.36887 0.0
C952 C 0.27575 0.31292 0.36412 0.0
C953 C 0.28212 0.29918 0.37961 0.0
C954 C 0.28877 0.30869 0.34775 0.0
C955 C 0.2829 0.32301 0.33107 0.0
C956 C 0.25867 0.32218 0.32345 0.0
C957 C 0.25328 0.3359 0.30778 0.0
C958 C 0.27204 0.35036 0.29954 0.0
C959 C 0.29625 0.35106 0.30692 0.0
C960 C 0.30172 0.3374 0.3226 0.0
C961 C 0.33847 0.20929 0.36619 0.0
C962 C 0.3631 0.21243 0.35977 0.0
C963 C 0.32184 0.22951 0.36629 0.0
C964 C 0.32977 0.25337 0.36042 0.0
C965 C 0.35406 0.25627 0.35322 0.0
C966 C 0.37062 0.23586 0.35284 0.0
C967 C 0.3128 0.27526 0.36236 0.0
C968 C 0.30723 0.28987 0.34705 0.0
C969 C 0.30082 0.28068 0.37905 0.0
C970 C 0.30779 0.26763 0.39611 0.0
C971 C 0.33303 0.26683 0.40182 0.0
C972 C 0.33957 0.25425 0.41775 0.0
C973 C 0.321 0.24254 0.42817 0.0
C974 C 0.29585 0.24343 0.4227 0.0
C975 C 0.28921 0.25596 0.40676 0.0
H976 H 0.3261 0.2328 0.4405 0.0
H977 H 0.26784 0.36096 0.2874 0.0
H978 H 0.20491 0.65637 0.67116 0.0
H979 H 0.23863 0.68698 0.67538 0.0
H980 H 0.28072 0.65249 0.63206 0.0
H981 H 0.24754 0.62097 0.62829 0.0
H982 H 0.31134 0.66598 0.65948 0.0
H983 H 0.24534 0.70482 0.62464 0.0
H984 H 0.20184 0.71839 0.61836 0.0
H985 H 0.20229 0.76397 0.66637 0.0
H986 H 0.2457 0.75038 0.67306 0.0
H987 H 0.38653 0.7672 0.62816 0.0
H988 H 0.35733 0.7323 0.63295 0.0
H989 H 0.32307 0.77251 0.67729 0.0
H990 H 0.35202 0.80779 0.67233 0.0
H991 H 0.2887 0.75608 0.65291 0.0
H992 H 0.35742 0.72037 0.68553 0.0
H993 H 0.40128 0.70711 0.69065 0.0
H994 H 0.3964 0.65607 0.64572 0.0
H995 H 0.3526 0.66928 0.64015 0.0
C996 C 0.22155 0.65492 0.66276 0.0
C997 C 0.22347 0.63624 0.64932 0.0
C998 C 0.2407 0.67261 0.66508 0.0
C999 C 0.262 0.67222 0.65386 0.0
C1000 C 0.26439 0.65316 0.64083 0.0
C1001 C 0.24529 0.63535 0.63856 0.0
C1002 C 0.28122 0.69237 0.65511 0.0
C1003 C 0.30646 0.68567 0.65792 0.0
C1004 C 0.27471 0.7181 0.6535 0.0
C1005 C 0.24865 0.72636 0.64946 0.0
C1006 C 0.23609 0.71758 0.63393 0.0
C1007 C 0.21147 0.7253 0.63029 0.0
C1008 C 0.19928 0.74197 0.64199 0.0
C1009 C 0.21173 0.75101 0.65734 0.0
C1010 C 0.23635 0.74332 0.66106 0.0
C1011 C 0.3729 0.76851 0.63903 0.0
C1012 C 0.37143 0.79025 0.64981 0.0
C1013 C 0.3564 0.74847 0.64186 0.0
C1014 C 0.33816 0.74975 0.65556 0.0
C1015 C 0.3371 0.77113 0.6667 0.0
C1016 C 0.35372 0.79118 0.66392 0.0
C1017 C 0.3189 0.72972 0.65712 0.0
C1018 C 0.2936 0.73643 0.65476 0.0
C1019 C 0.32542 0.70404 0.65901 0.0
C1020 C 0.35175 0.69597 0.66235 0.0
C1021 C 0.36575 0.70646 0.67665 0.0
C1022 C 0.3906 0.69893 0.67965 0.0
C1023 C 0.40164 0.6808 0.6685 0.0
C1024 C 0.38783 0.67012 0.65434 0.0
C1025 C 0.36297 0.6776 0.65128 0.0
H1026 H 0.42088 0.67499 0.67084 0.0
H1027 H 0.18022 0.74793 0.63915 0.0
H1028 H 0.61221 0.7448 0.3769 0.0
H1029 H 0.64411 0.71165 0.37435 0.0
H1030 H 0.69722 0.76576 0.35338 0.0
H1031 H 0.66547 0.799 0.35601 0.0
H1032 H 0.69356 0.71835 0.33351 0.0
H1033 H 0.70358 0.7511 0.39459 0.0
H1034 H 0.68813 0.76228 0.42502 0.0
H1035 H 0.66544 0.68569 0.43396 0.0
H1036 H 0.68045 0.67413 0.40345 0.0
H1037 H 0.81177 0.65879 0.34326 0.0
H1038 H 0.77491 0.68633 0.3422 0.0
H1039 H 0.73396 0.6341 0.376 0.0
H1040 H 0.77118 0.60714 0.37765 0.0
H1041 H 0.72829 0.67818 0.38872 0.0
H1042 H 0.72007 0.64324 0.32984 0.0
H1043 H 0.73318 0.63016 0.29925 0.0
H1044 H 0.74908 0.70703 0.28542 0.0
H1045 H 0.7364 0.72056 0.31603 0.0
C1046 C 0.63069 0.74954 0.37173 0.0
C1047 C 0.63653 0.77438 0.36673 0.0
C1048 C 0.64882 0.73068 0.37029 0.0
C1049 C 0.67289 0.73639 0.36367 0.0
C1050 C 0.67867 0.76109 0.35847 0.0
C1051 C 0.66067 0.78002 0.36013 0.0
C1052 C 0.69235 0.71674 0.3626 0.0
C1053 C 0.70139 0.70963 0.34553 0.0
C1054 C 0.70172 0.70489 0.3783 0.0
C1055 C 0.69287 0.71182 0.39668 0.0
C1056 C 0.69509 0.73669 0.40298 0.0
C1057 C 0.68646 0.74309 0.42026 0.0
C1058 C 0.67574 0.72472 0.4314 0.0
C1059 C 0.67371 0.6999 0.4253 0.0
C1060 C 0.68229 0.69342 0.40803 0.0
C1061 C 0.79474 0.65312 0.35022 0.0
C1062 C 0.79418 0.63103 0.36058 0.0
C1063 C 0.77366 0.66875 0.34955 0.0
C1064 C 0.75156 0.66216 0.35889 0.0
C1065 C 0.75081 0.6396 0.36875 0.0
C1066 C 0.772 0.62423 0.36968 0.0
C1067 C 0.72994 0.67971 0.35954 0.0
C1068 C 0.72041 0.68654 0.37658 0.0
C1069 C 0.71982 0.69091 0.34375 0.0
C1070 C 0.72748 0.68289 0.32531 0.0
C1071 C 0.72656 0.65734 0.32033 0.0
C1072 C 0.73387 0.64985 0.30298 0.0
C1073 C 0.74201 0.66775 0.29042 0.0
C1074 C 0.74279 0.69319 0.29518 0.0
C1075 C 0.73551 0.70078 0.31252 0.0
H1076 H 0.74766 0.66191 0.27698 0.0
H1077 H 0.66907 0.72971 0.44476 0.0
H1078 H 0.79989 0.33331 0.62228 0.0
H1079 H 0.76581 0.30257 0.62193 0.0
H1080 H 0.71208 0.36131 0.63288 0.0
H1081 H 0.74584 0.39261 0.63228 0.0
H1082 H 0.71082 0.31623 0.65668 0.0
H1083 H 0.70929 0.34075 0.59402 0.0
H1084 H 0.72814 0.34923 0.56414 0.0
H1085 H 0.75291 0.27249 0.56063 0.0
H1086 H 0.73452 0.26365 0.59064 0.0
H1087 H 0.60443 0.23573 0.64744 0.0
H1088 H 0.63407 0.27101 0.64588 0.0
H1089 H 0.68808 0.22325 0.61893 0.0
H1090 H 0.65804 0.18835 0.61982 0.0
H1091 H 0.68708 0.26587 0.60275 0.0
H1092 H 0.69262 0.24089 0.66507 0.0
H1093 H 0.67674 0.23099 0.69561 0.0
H1094 H 0.64798 0.30612 0.70081 0.0
H1095 H 0.66341 0.31638 0.67018 0.0
C1096 C 0.78081 0.33991 0.62419 0.0
C1097 C 0.77571 0.36554 0.6273 0.0
C1098 C 0.76139 0.32224 0.62414 0.0
C1099 C 0.73655 0.32977 0.62739 0.0
C1100 C 0.73123 0.35523 0.63043 0.0
C1101 C 0.7506 0.37303 0.63019 0.0
C1102 C 0.71634 0.31077 0.6281 0.0
C1103 C 0.70521 0.30546 0.64487 0.0
C1104 C 0.70977 0.29638 0.61275 0.0
C1105 C 0.72072 0.30161 0.59465 0.0
C1106 C 0.71895 0.32574 0.58695 0.0
C1107 C 0.72951 0.3306 0.56998 0.0
C1108 C 0.74177 0.31143 0.56051 0.0
C1109 C 0.74343 0.28734 0.56799 0.0
C1110 C 0.73291 0.28238 0.58497 0.0
C1111 C 0.62272 0.23283 0.64131 0.0
C1112 C 0.62907 0.20944 0.63377 0.0
C1113 C 0.63966 0.25292 0.64046 0.0
C1114 C 0.66345 0.24972 0.63247 0.0
C1115 C 0.66982 0.22622 0.62509 0.0
C1116 C 0.65272 0.20629 0.62564 0.0
C1117 C 0.68161 0.2709 0.63146 0.0
C1118 C 0.69242 0.27667 0.61461 0.0
C1119 C 0.68822 0.28543 0.64683 0.0
C1120 C 0.67892 0.27931 0.66525 0.0
C1121 C 0.68273 0.25524 0.67266 0.0
C1122 C 0.67385 0.24957 0.69 0.0
C1123 C 0.66129 0.26789 0.70012 0.0
C1124 C 0.65767 0.29194 0.69294 0.0
C1125 C 0.66649 0.29769 0.6756 0.0
H1126 H 0.65443 0.26347 0.71355 0.0
H1127 H 0.74993 0.31523 0.54737 0.0
H1128 H 0.87024 0.72477 0.83874 0.0
H1129 H 0.8372 0.75662 0.83644 0.0
H1130 H 0.79991 0.72463 0.88296 0.0
H1131 H 0.83215 0.69211 0.88484 0.0
H1132 H 0.76657 0.7367 0.85769 0.0
H1133 H 0.83713 0.7774 0.88645 0.0
H1134 H 0.88125 0.79138 0.88914 0.0
H1135 H 0.87388 0.83441 0.84025 0.0
H1136 H 0.82978 0.8204 0.83714 0.0
H1137 H 0.693 0.84022 0.88766 0.0
H1138 H 0.72357 0.80614 0.88468 0.0
H1139 H 0.75245 0.83995 0.83583 0.0
H1140 H 0.72159 0.87382 0.83846 0.0
H1141 H 0.78979 0.82713 0.85986 0.0
H1142 H 0.71775 0.78846 0.83261 0.0
H1143 H 0.67345 0.77484 0.83073 0.0
H1144 H 0.68339 0.72831 0.87769 0.0
H1145 H 0.72768 0.74194 0.88001 0.0
C1146 C 0.85483 0.72434 0.84834 0.0
C1147 C 0.85396 0.70607 0.86209 0.0
C1148 C 0.8361 0.74267 0.8471 0.0
C1149 C 0.81632 0.7432 0.8597 0.0
C1150 C 0.81508 0.72464 0.87315 0.0
C1151 C 0.83369 0.70624 0.87434 0.0
C1152 C 0.79711 0.76334 0.85916 0.0
C1153 C 0.77162 0.75647 0.85833 0.0
C1154 C 0.80377 0.78913 0.85958 0.0
C1155 C 0.83025 0.79762 0.86146 0.0
C1156 C 0.84498 0.78968 0.8762 0.0
C1157 C 0.86997 0.79764 0.87781 0.0
C1158 C 0.88038 0.81371 0.86485 0.0
C1159 C 0.8658 0.82192 0.85026 0.0
C1160 C 0.84081 0.81399 0.84857 0.0
C1161 C 0.70557 0.84021 0.87612 0.0
C1162 C 0.70488 0.85976 0.86331 0.0
C1163 C 0.72307 0.82077 0.87447 0.0
C1164 C 0.74013 0.82051 0.85998 0.0
C1165 C 0.73945 0.83989 0.84713 0.0
C1166 C 0.7219 0.85927 0.84872 0.0
C1167 C 0.75928 0.80046 0.8586 0.0
C1168 C 0.78476 0.80736 0.85907 0.0
C1169 C 0.75259 0.77471 0.85797 0.0
C1170 C 0.72598 0.7664 0.85657 0.0
C1171 C 0.71044 0.77548 0.84262 0.0
C1172 C 0.68534 0.76773 0.84146 0.0
C1173 C 0.6756 0.75077 0.8541 0.0
C1174 C 0.69096 0.74147 0.86791 0.0
C1175 C 0.71607 0.74919 0.86915 0.0
H1176 H 0.65616 0.74479 0.85318 0.0
H1177 H 0.89973 0.81985 0.86612 0.0
H1178 H 0.70126 0.15084 0.11286 0.0
H1179 H 0.73848 0.17754 0.11402 0.0
H1180 H 0.75936 0.14485 0.16523 0.0
H1181 H 0.72248 0.11708 0.16389 0.0
H1182 H 0.76148 0.19936 0.16342 0.0
H1183 H 0.79186 0.12709 0.13155 0.0
H1184 H 0.79039 0.09381 0.10831 0.0
H1185 H 0.79203 0.14974 0.06639 0.0
H1186 H 0.7931 0.18339 0.08939 0.0
H1187 H 0.87504 0.26918 0.16034 0.0
H1188 H 0.84676 0.23314 0.1632 0.0
H1189 H 0.82282 0.24329 0.10788 0.0
H1190 H 0.85214 0.27827 0.10456 0.0
H1191 H 0.82581 0.1954 0.11479 0.0
H1192 H 0.78908 0.26703 0.1451 0.0
H1193 H 0.78785 0.30175 0.16725 0.0
H1194 H 0.79553 0.24884 0.21081 0.0
H1195 H 0.79713 0.21382 0.18888 0.0
C1196 C 0.7139 0.14892 0.12426 0.0
C1197 C 0.709 0.13146 0.13816 0.0
C1198 C 0.73511 0.16435 0.12494 0.0
C1199 C 0.75178 0.16291 0.13959 0.0
C1200 C 0.7467 0.14612 0.15378 0.0
C1201 C 0.72556 0.13039 0.15302 0.0
C1202 C 0.77435 0.17925 0.13991 0.0
C1203 C 0.77589 0.1982 0.15305 0.0
C1204 C 0.79274 0.17798 0.1261 0.0
C1205 C 0.79239 0.15778 0.11221 0.0
C1206 C 0.79172 0.13231 0.11738 0.0
C1207 C 0.79099 0.11337 0.10425 0.0
C1208 C 0.79107 0.11966 0.08589 0.0
C1209 C 0.79196 0.1449 0.08062 0.0
C1210 C 0.79266 0.16391 0.0937 0.0
C1211 C 0.8642 0.26341 0.14864 0.0
C1212 C 0.86567 0.2769 0.13227 0.0
C1213 C 0.84779 0.24296 0.15037 0.0
C1214 C 0.83222 0.23584 0.13589 0.0
C1215 C 0.83448 0.24853 0.11931 0.0
C1216 C 0.85108 0.26877 0.11749 0.0
C1217 C 0.81272 0.21599 0.13809 0.0
C1218 C 0.81171 0.19635 0.12539 0.0
C1219 C 0.79459 0.21685 0.15216 0.0
C1220 C 0.79353 0.23786 0.16535 0.0
C1221 C 0.79069 0.26283 0.1594 0.0
C1222 C 0.7899 0.28255 0.17191 0.0
C1223 C 0.79169 0.27751 0.19042 0.0
C1224 C 0.7942 0.25272 0.19647 0.0
C1225 C 0.79505 0.23293 0.18401 0.0
H1226 H 0.79107 0.2928 0.20009 0.0
H1227 H 0.79049 0.10497 0.07574 0.0
H1228 H 0.16004 0.29175 0.84565 0.0
H1229 H 0.18711 0.25488 0.84194 0.0
H1230 H 0.13132 0.20858 0.8683 0.0
H1231 H 0.10414 0.24548 0.8721 0.0
H1232 H 0.18005 0.20338 0.88228 0.0
H1233 H 0.1387 0.20172 0.82474 0.0
H1234 H 0.12351 0.21954 0.79594 0.0
H1235 H 0.19952 0.23595 0.78008 0.0
H1236 H 0.21516 0.21857 0.80891 0.0
H1237 H 0.25285 0.09488 0.87024 0.0
H1238 H 0.21622 0.1225 0.86729 0.0
H1239 H 0.26026 0.17417 0.83516 0.0
H1240 H 0.29665 0.14622 0.83764 0.0
H1241 H 0.21313 0.17322 0.82331 0.0
H1242 H 0.25427 0.18138 0.88113 0.0
H1243 H 0.27128 0.16605 0.91015 0.0
H1244 H 0.19771 0.14054 0.92582 0.0
H1245 H 0.18034 0.1554 0.89674 0.0
C1246 C 0.15357 0.2737 0.85064 0.0
C1247 C 0.13008 0.27141 0.8592 0.0
C1248 C 0.16891 0.25266 0.84837 0.0
C1249 C 0.16104 0.22904 0.8547 0.0
C1250 C 0.13758 0.22667 0.86323 0.0
C1251 C 0.1221 0.24768 0.86534 0.0
C1252 C 0.17806 0.20719 0.85331 0.0
C1253 C 0.18688 0.19637 0.86939 0.0
C1254 C 0.18741 0.19866 0.83647 0.0
C1255 C 0.17808 0.209 0.81906 0.0
C1256 C 0.15217 0.20931 0.81518 0.0
C1257 C 0.14348 0.2193 0.79883 0.0
C1258 C 0.16054 0.22892 0.7862 0.0
C1259 C 0.18633 0.22851 0.78988 0.0
C1260 C 0.19512 0.21856 0.80621 0.0
C1261 C 0.25449 0.11193 0.86228 0.0
C1262 C 0.27752 0.11862 0.8543 0.0
C1263 C 0.23363 0.12768 0.86062 0.0
C1264 C 0.23571 0.15064 0.85134 0.0
C1265 C 0.25827 0.15656 0.84241 0.0
C1266 C 0.27903 0.14062 0.84384 0.0
C1267 C 0.2153 0.16953 0.85231 0.0
C1268 C 0.20595 0.17989 0.83619 0.0
C1269 C 0.20571 0.17798 0.86914 0.0
C1270 C 0.21607 0.16923 0.88668 0.0
C1271 C 0.24176 0.17235 0.89071 0.0
C1272 C 0.25146 0.16376 0.90717 0.0
C1273 C 0.2356 0.15226 0.9198 0.0
C1274 C 0.20998 0.1494 0.91601 0.0
C1275 C 0.2002 0.1579 0.89954 0.0
H1276 H 0.24314 0.14563 0.93254 0.0
H1277 H 0.15377 0.23665 0.77356 0.0
H1278 H 0.32088 0.82612 0.16451 0.0
H1279 H 0.28869 0.79342 0.16793 0.0
H1280 H 0.24185 0.83153 0.12894 0.0
H1281 H 0.27354 0.86456 0.12583 0.0
H1282 H 0.21474 0.81544 0.15766 0.0
H1283 H 0.27705 0.78092 0.1169 0.0
H1284 H 0.3198 0.7679 0.10793 0.0
H1285 H 0.32263 0.71641 0.15267 0.0
H1286 H 0.27999 0.7294 0.16205 0.0
H1287 H 0.13221 0.72334 0.12429 0.0
H1288 H 0.16505 0.7549 0.12849 0.0
H1289 H 0.20221 0.70671 0.16709 0.0
H1290 H 0.16965 0.67457 0.16255 0.0
H1291 H 0.23517 0.72664 0.14302 0.0
H1292 H 0.17058 0.75782 0.18168 0.0
H1293 H 0.1276 0.7706 0.19019 0.0
H1294 H 0.12875 0.82823 0.14948 0.0
H1295 H 0.17162 0.81557 0.14053 0.0
C1296 C 0.30359 0.82767 0.15683 0.0
C1297 C 0.29981 0.84785 0.14482 0.0
C1298 C 0.28532 0.80888 0.1587 0.0
C1299 C 0.26299 0.80994 0.14856 0.0
C1300 C 0.25896 0.83033 0.13687 0.0
C1301 C 0.27719 0.84906 0.13498 0.0
C1302 C 0.24393 0.78962 0.14974 0.0
C1303 C 0.21915 0.79604 0.15436 0.0
C1304 C 0.24989 0.7642 0.14595 0.0
C1305 C 0.27547 0.75635 0.1403 0.0
C1306 C 0.28688 0.76698 0.12491 0.0
C1307 C 0.31107 0.75958 0.11974 0.0
C1308 C 0.32396 0.7414 0.12976 0.0
C1309 C 0.31265 0.73053 0.14495 0.0
C1310 C 0.28847 0.73789 0.15019 0.0
C1311 C 0.14745 0.71936 0.1336 0.0
C1312 C 0.14837 0.69642 0.14305 0.0
C1313 C 0.16606 0.73754 0.13613 0.0
C1314 C 0.18589 0.73329 0.14828 0.0
C1315 C 0.18697 0.7104 0.15773 0.0
C1316 C 0.16828 0.69216 0.15521 0.0
C1317 C 0.20584 0.75256 0.15056 0.0
C1318 C 0.2308 0.74595 0.1466 0.0
C1319 C 0.20004 0.77782 0.15495 0.0
C1320 C 0.17428 0.78561 0.16035 0.0
C1321 C 0.16161 0.7731 0.17445 0.0
C1322 C 0.13727 0.78035 0.17937 0.0
C1323 C 0.12543 0.80019 0.17036 0.0
C1324 C 0.13794 0.81286 0.15644 0.0
C1325 C 0.16227 0.80568 0.15145 0.0
H1326 H 0.10658 0.80576 0.17419 0.0
H1327 H 0.34269 0.73569 0.12573 0.0
H1328 H 0.14199 0.42144 0.29634 0.0
H1329 H 0.13495 0.44369 0.2679 0.0
H1330 H 0.11035 0.50923 0.29746 0.0
H1331 H 0.11782 0.48726 0.32602 0.0
H1332 H 0.09304 0.46187 0.2534 0.0
H1333 H 0.12498 0.56177 0.27342 0.0
H1334 H 0.15454 0.58252 0.29445 0.0
H1335 H 0.20193 0.51712 0.29378 0.0
H1336 H 0.17282 0.49613 0.27259 0.0
H1337 H 0.05757 0.55072 0.18482 0.0
H1338 H 0.06338 0.52906 0.21377 0.0
H1339 H 0.14379 0.53 0.20577 0.0
H1340 H 0.13823 0.55221 0.17724 0.0
H1341 H 0.13231 0.54429 0.23923 0.0
H1342 H 0.1093 0.4768 0.19915 0.0
H1343 H 0.08265 0.45408 0.17724 0.0
H1344 H 0.02255 0.45123 0.216 0.0
H1345 H 0.04872 0.47428 0.23812 0.0
C1346 C 0.13539 0.4407 0.29683 0.0
C1347 C 0.13065 0.45262 0.31348 0.0
C1348 C 0.13118 0.45333 0.28053 0.0
C1349 C 0.1222 0.47815 0.28052 0.0
C1350 C 0.1176 0.49019 0.29712 0.0
C1351 C 0.12192 0.4776 0.31345 0.0
C1352 C 0.11754 0.49129 0.2631 0.0
C1353 C 0.10156 0.47993 0.25032 0.0
C1354 C 0.12877 0.51477 0.25901 0.0
C1355 C 0.14658 0.52731 0.27157 0.0
C1356 C 0.14176 0.55187 0.27772 0.0
C1357 C 0.15843 0.56366 0.28967 0.0
C1358 C 0.18006 0.55112 0.29549 0.0
C1359 C 0.18512 0.52678 0.28932 0.0
C1360 C 0.16853 0.51492 0.27735 0.0
C1361 C 0.07649 0.54641 0.18926 0.0
C1362 C 0.09742 0.55316 0.17862 0.0
C1363 C 0.07976 0.53385 0.20575 0.0
C1364 C 0.10402 0.52777 0.21189 0.0
C1365 C 0.12489 0.53448 0.2013 0.0
C1366 C 0.12165 0.54697 0.18486 0.0
C1367 C 0.10793 0.51482 0.22947 0.0
C1368 C 0.12364 0.5263 0.24234 0.0
C1369 C 0.09676 0.49127 0.2335 0.0
C1370 C 0.08088 0.47758 0.22021 0.0
C1371 C 0.09031 0.47157 0.20295 0.0
C1372 C 0.07531 0.45858 0.19052 0.0
C1373 C 0.0509 0.45129 0.19522 0.0
C1374 C 0.04145 0.45694 0.2124 0.0
C1375 C 0.05636 0.46997 0.22488 0.0
H1376 H 0.03932 0.4412 0.18559 0.0
H1377 H 0.19293 0.56027 0.30475 0.0
H1378 H 0.51504 0.8452 0.67443 0.0
H1379 H 0.53421 0.85658 0.70353 0.0
H1380 H 0.47012 0.9035 0.71584 0.0
H1381 H 0.45152 0.89278 0.6867 0.0
H1382 H 0.50908 0.9274 0.72517 0.0
H1383 H 0.4807 0.84305 0.73538 0.0
H1384 H 0.47672 0.79752 0.72954 0.0
H1385 H 0.55654 0.78865 0.73597 0.0
H1386 H 0.56102 0.8342 0.74164 0.0
H1387 H 0.52675 0.91258 0.82524 0.0
H1388 H 0.50972 0.90553 0.79464 0.0
H1389 H 0.58425 0.91343 0.77228 0.0
H1390 H 0.60107 0.92161 0.80261 0.0
H1391 H 0.54136 0.86336 0.76806 0.0
H1392 H 0.5665 0.95191 0.75906 0.0
H1393 H 0.56517 0.99681 0.76727 0.0
H1394 H 0.48511 0.99741 0.75954 0.0
H1395 H 0.48591 0.95221 0.75203 0.0
C1396 C 0.50505 0.85776 0.68347 0.0
C1397 C 0.48192 0.86824 0.67833 0.0
C1398 C 0.51595 0.86424 0.7001 0.0
C1399 C 0.50351 0.88073 0.71204 0.0
C1400 C 0.48019 0.89085 0.70692 0.0
C1401 C 0.46957 0.88473 0.69024 0.0
C1402 C 0.51473 0.88773 0.7298 0.0
C1403 C 0.51609 0.91334 0.73452 0.0
C1404 C 0.52386 0.86946 0.74212 0.0
C1405 C 0.52121 0.84207 0.73876 0.0
C1406 C 0.49741 0.83141 0.73543 0.0
C1407 C 0.49507 0.8056 0.73217 0.0
C1408 C 0.51637 0.79021 0.73233 0.0
C1409 C 0.54006 0.8006 0.73582 0.0
C1410 C 0.54251 0.82641 0.73907 0.0
C1411 C 0.53932 0.91321 0.81371 0.0
C1412 C 0.56512 0.91783 0.81618 0.0
C1413 C 0.52963 0.90928 0.79632 0.0
C1414 C 0.5457 0.90947 0.78125 0.0
C1415 C 0.57149 0.91384 0.78372 0.0
C1416 C 0.58105 0.91848 0.801 0.0
C1417 C 0.5359 0.90287 0.76316 0.0
C1418 C 0.53464 0.87733 0.75851 0.0
C1419 C 0.52645 0.92117 0.75108 0.0
C1420 C 0.52616 0.94838 0.75562 0.0
C1421 C 0.54853 0.96136 0.75966 0.0
C1422 C 0.5479 0.98695 0.76407 0.0
C1423 C 0.52506 -8e-05 0.76406 0.0
C1424 C 0.50279 0.98732 0.75966 0.0
C1425 C 0.50332 0.96169 0.75543 0.0
H1426 H 0.52464 0.01977 0.76734 0.0
H1427 H 0.51452 0.77023 0.7298 0.0
H1428 H 0.82154 0.51197 0.32172 0.0
H1429 H 0.82336 0.49416 0.29116 0.0
H1430 H 0.90148 0.51552 0.287 0.0
H1431 H 0.89988 0.5333 0.31738 0.0
H1432 H 0.87581 0.52706 0.25633 0.0
H1433 H 0.88652 0.45548 0.29503 0.0
H1434 H 0.87574 0.42645 0.3199 0.0
H1435 H 0.80565 0.40866 0.29392 0.0
H1436 H 0.81588 0.43786 0.269 0.0
H1437 H 0.91239 0.45091 0.18157 0.0
H1438 H 0.90716 0.47351 0.20993 0.0
H1439 H 0.83193 0.44361 0.21522 0.0
H1440 H 0.83733 0.42049 0.18696 0.0
H1441 H 0.85511 0.43732 0.24533 0.0
H1442 H 0.84634 0.50856 0.20534 0.0
H1443 H 0.8592 0.5368 0.1805 0.0
H1444 H 0.92754 0.55461 0.20878 0.0
H1445 H 0.91521 0.52628 0.23371 0.0
C1446 C 0.83911 0.51287 0.31431 0.0
C1447 C 0.86057 0.52403 0.32205 0.0
C1448 C 0.84013 0.50264 0.29686 0.0
C1449 C 0.8626 0.5034 0.28684 0.0
C1450 C 0.88393 0.51478 0.29446 0.0
C1451 C 0.88298 0.52486 0.31189 0.0
C1452 C 0.86405 0.49214 0.26848 0.0
C1453 C 0.87144 0.50739 0.2539 0.0
C1454 C 0.85805 0.46659 0.2653 0.0
C1455 C 0.85182 0.44907 0.28028 0.0
C1456 C 0.8687 0.44555 0.29471 0.0
C1457 C 0.86272 0.42903 0.3088 0.0
C1458 C 0.83999 0.41578 0.30852 0.0
C1459 C 0.82323 0.41897 0.29413 0.0
C1460 C 0.82911 0.43549 0.28002 0.0
C1461 C 0.89474 0.44913 0.18876 0.0
C1462 C 0.87535 0.43375 0.18202 0.0
C1463 C 0.89165 0.46226 0.20498 0.0
C1464 C 0.86912 0.4603 0.21486 0.0
C1465 C 0.84952 0.44542 0.20791 0.0
C1466 C 0.85256 0.43234 0.19165 0.0
C1467 C 0.86653 0.47228 0.23298 0.0
C1468 C 0.8591 0.4571 0.24761 0.0
C1469 C 0.87264 0.49786 0.23618 0.0
C1470 C 0.87991 0.51518 0.22133 0.0
C1471 C 0.86416 0.51842 0.20622 0.0
C1472 C 0.87135 0.53445 0.19213 0.0
C1473 C 0.89419 0.54744 0.19304 0.0
C1474 C 0.90985 0.54453 0.20809 0.0
C1475 C 0.90275 0.52853 0.22222 0.0
H1476 H 0.89975 0.5598 0.1821 0.0
H1477 H 0.83539 0.40299 0.31943 0.0
H1478 H 0.44642 0.08325 0.81954 0.0
H1479 H 0.46579 0.09215 0.79022 0.0
H1480 H 0.42575 0.16259 0.78744 0.0
H1481 H 0.40584 0.15355 0.81655 0.0
H1482 H 0.42401 0.13624 0.75535 0.0
H1483 H 0.48677 0.16255 0.79845 0.0
H1484 H 0.51497 0.15724 0.82467 0.0
H1485 H 0.5523 0.09608 0.79783 0.0
H1486 H 0.52407 0.1008 0.77154 0.0
H1487 H 0.49406 0.18381 0.68024 0.0
H1488 H 0.47514 0.18014 0.71042 0.0
H1489 H 0.5155 0.11082 0.71921 0.0
H1490 H 0.53463 0.11453 0.68946 0.0
H1491 H 0.5169 0.13934 0.74873 0.0
H1492 H 0.45407 0.11028 0.70697 0.0
H1493 H 0.42563 0.11305 0.68067 0.0
H1494 H 0.38825 0.17638 0.70472 0.0
H1495 H 0.41674 0.17421 0.73106 0.0
C1496 C 0.44164 0.10057 0.81266 0.0
C1497 C 0.42473 0.11777 0.82046 0.0
C1498 C 0.45285 0.10571 0.79597 0.0
C1499 C 0.44742 0.12817 0.78678 0.0
C1500 C 0.43029 0.14522 0.79438 0.0
C1501 C 0.41914 0.14013 0.8111 0.0
C1502 C 0.45958 0.13385 0.76921 0.0
C1503 C 0.44431 0.13736 0.75393 0.0
C1504 C 0.48607 0.13466 0.76734 0.0
C1505 C 0.50316 0.1319 0.78309 0.0
C1506 C 0.50087 0.14785 0.79819 0.0
C1507 C 0.51688 0.14497 0.81306 0.0
C1508 C 0.53538 0.1263 0.81294 0.0
C1509 C 0.53794 0.11052 0.79792 0.0
C1510 C 0.52196 0.11331 0.78302 0.0
C1511 C 0.49906 0.16793 0.68868 0.0
C1512 C 0.51569 0.14935 0.68236 0.0
C1513 C 0.48813 0.16578 0.70587 0.0
C1514 C 0.49369 0.14503 0.71697 0.0
C1515 C 0.51088 0.12694 0.71087 0.0
C1516 C 0.52171 0.12904 0.69377 0.0
C1517 C 0.48135 0.14167 0.73481 0.0
C1518 C 0.49659 0.13851 0.75015 0.0
C1519 C 0.45485 0.1409 0.7367 0.0
C1520 C 0.43775 0.14229 0.72087 0.0
C1521 C 0.43994 0.12495 0.70657 0.0
C1522 C 0.42379 0.12638 0.69167 0.0
C1523 C 0.4052 0.14493 0.691 0.0
C1524 C 0.4027 0.16206 0.70524 0.0
C1525 C 0.41884 0.16074 0.72016 0.0
H1526 H 0.3927 0.146 0.67946 0.0
H1527 H 0.54775 0.1241 0.82446 0.0
H1528 H 0.11447 0.53992 0.68964 0.0
H1529 H 0.10935 0.52062 0.71921 0.0
H1530 H 0.18329 0.4877 0.71486 0.0
H1531 H 0.18887 0.50768 0.68522 0.0
H1532 H 0.10692 0.47365 0.72827 0.0
H1533 H 0.20789 0.48015 0.75764 0.0
H1534 H 0.24512 0.50784 0.7557 0.0
H1535 H 0.19781 0.57027 0.74158 0.0
H1536 H 0.16029 0.54306 0.74368 0.0
H1537 H 0.11108 0.39384 0.80328 0.0
H1538 H 0.12304 0.41507 0.77517 0.0
H1539 H 0.1328 0.48471 0.80449 0.0
H1540 H 0.12243 0.46284 0.83285 0.0
H1541 H 0.16728 0.48187 0.7792 0.0
H1542 H 0.07633 0.4725 0.77914 0.0
H1543 H 0.03816 0.44662 0.7835 0.0
H1544 H 0.06282 0.39632 0.74156 0.0
H1545 H 0.10065 0.42213 0.73676 0.0
C1546 C 0.12977 0.52872 0.69493 0.0
C1547 C 0.1521 0.52536 0.685 0.0
C1548 C 0.12676 0.51761 0.71188 0.0
C1549 C 0.14594 0.50277 0.71934 0.0
C1550 C 0.16835 0.49937 0.70951 0.0
C1551 C 0.17147 0.5107 0.69253 0.0
C1552 C 0.14189 0.49028 0.7371 0.0
C1553 C 0.12016 0.47555 0.73937 0.0
C1554 C 0.15892 0.49288 0.75174 0.0
C1555 C 0.18133 0.50948 0.75062 0.0
C1556 C 0.20544 0.49981 0.75418 0.0
C1557 C 0.22659 0.51542 0.75304 0.0
C1558 C 0.22384 0.54077 0.74845 0.0
C1559 C 0.19992 0.5506 0.74505 0.0
C1560 C 0.17872 0.53508 0.74619 0.0
C1561 C 0.11582 0.41367 0.80363 0.0
C1562 C 0.11555 0.42687 0.82005 0.0
C1563 C 0.12261 0.42582 0.78762 0.0
C1564 C 0.1282 0.4517 0.7876 0.0
C1565 C 0.1285 0.46479 0.80413 0.0
C1566 C 0.12244 0.45239 0.82027 0.0
C1567 C 0.13244 0.46524 0.77023 0.0
C1568 C 0.15412 0.48009 0.76805 0.0
C1569 C 0.11505 0.46342 0.75578 0.0
C1570 C 0.09124 0.44919 0.7576 0.0
C1571 C 0.07337 0.45605 0.77073 0.0
C1572 C 0.05179 0.4414 0.77328 0.0
C1573 C 0.04795 0.41985 0.7628 0.0
C1574 C 0.06558 0.41307 0.74961 0.0
C1575 C 0.087 0.42782 0.74686 0.0
H1576 H 0.03135 0.40844 0.76493 0.0
H1577 H 0.24023 0.55282 0.74757 0.0
H1578 H 0.50697 0.8498 0.32105 0.0
H1579 H 0.48755 0.85576 0.29149 0.0
H1580 H 0.55854 0.84012 0.26548 0.0
H1581 H 0.57832 0.83464 0.29507 0.0
H1582 H 0.5382 0.88173 0.25212 0.0
H1583 H 0.50936 0.79799 0.26346 0.0
H1584 H 0.48975 0.76363 0.28092 0.0
H1585 H 0.4199 0.80413 0.28226 0.0
H1586 H 0.43918 0.8389 0.26501 0.0
H1587 H 0.47894 0.87247 0.16351 0.0
H1588 H 0.50224 0.86212 0.19131 0.0
H1589 H 0.44164 0.89244 0.22341 0.0
H1590 H 0.41862 0.90318 0.19578 0.0
H1591 H 0.45867 0.84124 0.23225 0.0
H1592 H 0.48839 0.92539 0.22154 0.0
H1593 H 0.50823 0.95966 0.20418 0.0
H1594 H 0.57732 0.91799 0.20178 0.0
H1595 H 0.55765 0.88309 0.2187 0.0
C1596 C 0.51839 0.84718 0.30906 0.0
C1597 C 0.5442 0.84175 0.31043 0.0
C1598 C 0.50723 0.85056 0.29214 0.0
C1599 C 0.52157 0.84823 0.27627 0.0
C1600 C 0.54715 0.84201 0.27757 0.0
C1601 C 0.55837 0.83873 0.29449 0.0
C1602 C 0.51011 0.85374 0.25843 0.0
C1603 C 0.52109 0.8725 0.24759 0.0
C1604 C 0.48749 0.84209 0.25274 0.0
C1605 C 0.47579 0.82115 0.26305 0.0
C1606 C 0.48987 0.79966 0.26759 0.0
C1607 C 0.4788 0.78009 0.27743 0.0
C1608 C 0.45361 0.78172 0.28273 0.0
C1609 C 0.43942 0.8029 0.27815 0.0
C1610 C 0.45039 0.82253 0.26832 0.0
C1611 C 0.47076 0.877 0.17653 0.0
C1612 C 0.44709 0.88866 0.17757 0.0
C1613 C 0.48405 0.8712 0.19232 0.0
C1614 C 0.47358 0.87659 0.20931 0.0
C1615 C 0.44998 0.88823 0.21037 0.0
C1616 C 0.43696 0.89447 0.19462 0.0
C1617 C 0.4867 0.86922 0.22608 0.0
C1618 C 0.47598 0.85017 0.2367 0.0
C1619 C 0.5096 0.88052 0.23149 0.0
C1620 C 0.52135 0.90136 0.22109 0.0
C1621 C 0.50766 0.92329 0.21703 0.0
C1622 C 0.5189 0.94287 0.2073 0.0
C1623 C 0.54396 0.94091 0.20176 0.0
C1624 C 0.55786 0.91941 0.20599 0.0
C1625 C 0.54665 0.8997 0.21562 0.0
H1626 H 0.55262 0.95613 0.19427 0.0
H1627 H 0.44508 0.76655 0.29035 0.0
H1628 H 0.85913 0.48979 0.67912 0.0
H1629 H 0.86244 0.51293 0.7075 0.0
H1630 H 0.842 0.44598 0.73711 0.0
H1631 H 0.83936 0.42241 0.70872 0.0
H1632 H 0.83367 0.52575 0.73456 0.0
H1633 H 0.87455 0.44244 0.77516 0.0
H1634 H 0.8993 0.40386 0.76984 0.0
H1635 H 0.93281 0.43766 0.72282 0.0
H1636 H 0.90827 0.47619 0.72784 0.0
H1637 H 0.84442 0.56449 0.82621 0.0
H1638 H 0.83468 0.54112 0.79875 0.0
H1639 H 0.91394 0.53391 0.78728 0.0
H1640 H 0.92394 0.55615 0.81519 0.0
H1641 H 0.89188 0.49134 0.78085 0.0
H1642 H 0.87596 0.57698 0.76489 0.0
H1643 H 0.85712 0.61916 0.76785 0.0
H1644 H 0.78323 0.58733 0.76205 0.0
H1645 H 0.80163 0.54488 0.75929 0.0
C1646 C 0.85505 0.47998 0.69164 0.0
C1647 C 0.84924 0.45413 0.69164 0.0
C1648 C 0.85687 0.49331 0.70788 0.0
C1649 C 0.85286 0.48115 0.72449 0.0
C1650 C 0.84567 0.45567 0.72448 0.0
C1651 C 0.84404 0.44224 0.70823 0.0
C1652 C 0.85778 0.49475 0.74174 0.0
C1653 C 0.84624 0.51815 0.74475 0.0
C1654 C 0.87467 0.48523 0.75486 0.0
C1655 C 0.8894 0.46202 0.75177 0.0
C1656 C 0.88722 0.44155 0.76369 0.0
C1657 C 0.9012 0.41967 0.76071 0.0
C1658 C 0.91759 0.4182 0.74595 0.0
C1659 C 0.92003 0.43862 0.73416 0.0
C1660 C 0.90604 0.46047 0.73704 0.0
C1661 C 0.85987 0.55771 0.81804 0.0
C1662 C 0.88504 0.56234 0.82306 0.0
C1663 C 0.85421 0.54457 0.80217 0.0
C1664 C 0.87355 0.53602 0.7908 0.0
C1665 C 0.89867 0.54037 0.79581 0.0
C1666 C 0.90436 0.55335 0.81174 0.0
C1667 C 0.86769 0.52232 0.77376 0.0
C1668 C 0.87903 0.49886 0.7708 0.0
C1669 C 0.85129 0.53225 0.76044 0.0
C1670 C 0.84016 0.55773 0.76208 0.0
C1671 C 0.85568 0.57895 0.76439 0.0
C1672 C 0.84509 0.60291 0.76601 0.0
C1673 C 0.81899 0.60592 0.76519 0.0
C1674 C 0.80344 0.58497 0.76271 0.0
C1675 C 0.81394 0.56096 0.7611 0.0
H1676 H 0.81082 0.62449 0.76644 0.0
H1677 H 0.92842 0.4013 0.74369 0.0
H1678 H 0.48576 0.19302 0.31785 0.0
H1679 H 0.5041 0.18988 0.28744 0.0
H1680 H 0.50126 0.10889 0.29089 0.0
H1681 H 0.48257 0.11181 0.32089 0.0
H1682 H 0.54698 0.16775 0.2739 0.0
H1683 H 0.48583 0.08449 0.25159 0.0
H1684 H 0.44496 0.06559 0.2594 0.0
H1685 H 0.41615 0.13839 0.27384 0.0
H1686 H 0.45699 0.15774 0.26608 0.0
H1687 H 0.59353 0.10008 0.19737 0.0
H1688 H 0.57595 0.11221 0.2268 0.0
H1689 H 0.517 0.15342 0.19983 0.0
H1690 H 0.53498 0.14181 0.17033 0.0
H1691 H 0.5 0.11962 0.2272 0.0
H1692 H 0.56025 0.18617 0.2191 0.0
H1693 H 0.60225 0.2038 0.21266 0.0
H1694 H 0.63262 0.16504 0.25872 0.0
H1695 H 0.59085 0.14688 0.26528 0.0
C1696 C 0.48913 0.17457 0.31213 0.0
C1697 C 0.48239 0.15269 0.32168 0.0
C1698 C 0.49966 0.1728 0.29479 0.0
C1699 C 0.50362 0.14916 0.28679 0.0
C1700 C 0.49786 0.12734 0.29663 0.0
C1701 C 0.48718 0.12907 0.31381 0.0
C1702 C 0.51309 0.14707 0.26796 0.0
C1703 C 0.53666 0.15738 0.26365 0.0
C1704 C 0.49953 0.13367 0.25455 0.0
C1705 C 0.47447 0.12252 0.2583 0.0
C1706 C 0.47069 0.0965 0.25626 0.0
C1707 C 0.44753 0.0857 0.26073 0.0
C1708 C 0.42789 0.10078 0.2671 0.0
C1709 C 0.43137 0.12672 0.26893 0.0
C1710 C 0.45454 0.13761 0.26452 0.0
C1711 C 0.57684 0.11173 0.19777 0.0
C1712 C 0.5655 0.11997 0.18165 0.0
C1713 C 0.56693 0.11877 0.21453 0.0
C1714 C 0.54523 0.13372 0.21544 0.0
C1715 C 0.53379 0.14189 0.19937 0.0
C1716 C 0.54405 0.13534 0.18259 0.0
C1717 C 0.53404 0.14 0.23322 0.0
C1718 C 0.51017 0.13032 0.23736 0.0
C1719 C 0.54735 0.15397 0.24643 0.0
C1720 C 0.57245 0.16502 0.2426 0.0
C1721 C 0.57592 0.18125 0.22777 0.0
C1722 C 0.59968 0.19137 0.22412 0.0
C1723 C 0.6201 0.18551 0.23525 0.0
C1724 C 0.61679 0.16956 0.2501 0.0
C1725 C 0.59306 0.15937 0.25381 0.0
H1726 H 0.63849 0.19336 0.23239 0.0
H1727 H 0.40998 0.09242 0.27064 0.0
H1728 H 0.61881 0.03197 0.66812 0.0
H1729 H 0.62848 0.01041 0.69674 0.0
H1730 H 0.59049 0.06912 0.72631 0.0
H1731 H 0.58031 0.09035 0.69777 0.0
H1732 H 0.64203 0.05681 0.73785 0.0
H1733 H 0.56211 0.02021 0.72554 0.0
H1734 H 0.52862 0.9972 0.7095 0.0
H1735 H 0.57472 0.93096 0.70808 0.0
H1736 H 0.60879 0.95375 0.72379 0.0
H1737 H 0.63772 0.0026 0.82607 0.0
H1738 H 0.63047 0.02371 0.79722 0.0
H1739 H 0.65291 0.95655 0.76868 0.0
H1740 H 0.6597 0.9351 0.79747 0.0
H1741 H 0.60949 0.97313 0.75624 0.0
H1742 H 0.68966 0.01073 0.76892 0.0
H1743 H 0.72108 0.03356 0.78722 0.0
H1744 H 0.67247 0.09797 0.78945 0.0
H1745 H 0.6406 0.07541 0.77136 0.0
C1746 C 0.61244 0.04012 0.68075 0.0
C1747 C 0.59882 0.06275 0.68079 0.0
C1748 C 0.61784 0.02778 0.69702 0.0
C1749 C 0.61012 0.03819 0.71357 0.0
C1750 C 0.59651 0.06079 0.71364 0.0
C1751 C 0.59063 0.07281 0.69737 0.0
C1752 C 0.61734 0.02616 0.73086 0.0
C1753 C 0.63473 0.03862 0.742 0.0
C1754 C 0.60813 0.00223 0.73599 0.0
C1755 C 0.5883 0.98891 0.7255 0.0
C1756 C 0.56542 0.00095 0.7214 0.0
C1757 C 0.54623 0.98787 0.71248 0.0
C1758 C 0.54963 0.9627 0.70763 0.0
C1759 C 0.5722 0.95052 0.71172 0.0
C1760 C 0.59147 0.96352 0.72063 0.0
C1761 C 0.64166 0.99247 0.81367 0.0
C1762 C 0.64923 0.96711 0.8141 0.0
C1763 C 0.63751 0.0046 0.79715 0.0
C1764 C 0.6412 0.99175 0.78075 0.0
C1765 C 0.64986 0.96681 0.78116 0.0
C1766 C 0.65388 0.95463 0.79765 0.0
C1767 C 0.63434 0.00366 0.76325 0.0
C1768 C 0.61698 0.99121 0.75204 0.0
C1769 C 0.64347 0.02764 0.75809 0.0
C1770 C 0.66265 0.04129 0.76891 0.0
C1771 C 0.68559 0.0297 0.77343 0.0
C1772 C 0.7035 0.0426 0.78374 0.0
C1773 C 0.69875 0.06718 0.78953 0.0
C1774 C 0.67611 0.07893 0.78497 0.0
C1775 C 0.65813 0.0661 0.77467 0.0
H1776 H 0.71264 0.07714 0.79752 0.0
H1777 H 0.53471 0.95258 0.70079 0.0
H1778 H 0.04172 0.35266 0.32661 0.0
H1779 H 0.0183 0.34775 0.29834 0.0
H1780 H 0.05129 0.41637 0.27801 0.0
H1781 H 0.07487 0.4213 0.30615 0.0
H1782 H 0.00159 0.41495 0.27188 0.0
H1783 H 0.07117 0.35927 0.26285 0.0
H1784 H 0.1 0.32453 0.27045 0.0
H1785 H 0.0381 0.27249 0.27026 0.0
H1786 H 0.00882 0.30701 0.26291 0.0
H1787 H 0.97232 0.39509 0.17745 0.0
H1788 H 0.99523 0.40048 0.20601 0.0
H1789 H 0.95103 0.34126 0.23017 0.0
H1790 H 0.92747 0.33629 0.20181 0.0
H1791 H 0.00625 0.33777 0.23428 0.0
H1792 H 0.93683 0.39347 0.2433 0.0
H1793 H 0.90722 0.42879 0.24011 0.0
H1794 H 0.96867 0.48129 0.24179 0.0
H1795 H 0.99872 0.44625 0.24483 0.0
C1796 C 0.04411 0.36663 0.31609 0.0
C1797 C 0.06013 0.38741 0.31871 0.0
C1798 C 0.03074 0.36377 0.29991 0.0
C1799 C 0.03325 0.38154 0.28596 0.0
C1800 C 0.04903 0.40243 0.28859 0.0
C1801 C 0.06238 0.40531 0.30476 0.0
C1802 C 0.01896 0.37869 0.2688 0.0
C1803 C 0.00296 0.39829 0.26345 0.0
C1804 C 0.0202 0.35659 0.25813 0.0
C1805 C 0.03776 0.33577 0.2625 0.0
C1806 C 0.06367 0.34045 0.26458 0.0
C1807 C 0.0801 0.3208 0.26881 0.0
C1808 C 0.07088 0.29633 0.27089 0.0
C1809 C 0.04521 0.29146 0.26868 0.0
C1810 C 0.02869 0.31106 0.26446 0.0
C1811 C 0.96757 0.38312 0.18881 0.0
C1812 C 0.94821 0.36513 0.18737 0.0
C1813 C 0.98052 0.38638 0.20515 0.0
C1814 C 0.97468 0.37138 0.2202 0.0
C1815 C 0.95571 0.35308 0.2187 0.0
C1816 C 0.94234 0.35023 0.20251 0.0
C1817 C 0.98902 0.37418 0.2373 0.0
C1818 C 0.00504 0.35454 0.24261 0.0
C1819 C 0.98786 0.39632 0.24791 0.0
C1820 C 0.97011 0.41715 0.24395 0.0
C1821 C 0.94412 0.41248 0.24252 0.0
C1822 C 0.92721 0.4325 0.24092 0.0
C1823 C 0.93606 0.45728 0.24083 0.0
C1824 C 0.96185 0.46208 0.2419 0.0
C1825 C 0.97882 0.44215 0.24352 0.0
H1826 H 0.92296 0.47279 0.2401 0.0
H1827 H 0.08363 0.28113 0.27416 0.0
H1828 H 0.43822 0.93763 0.68906 0.0
H1829 H 0.43533 0.95723 0.71863 0.0
H1830 H 0.35622 0.97077 0.71021 0.0
H1831 H 0.35898 0.95208 0.68021 0.0
H1832 H 0.3788 0.01033 0.72681 0.0
H1833 H 0.37983 0.91848 0.7335 0.0
H1834 H 0.39973 0.87694 0.72944 0.0
H1835 H 0.46392 0.90147 0.76008 0.0
H1836 H 0.44436 0.94318 0.7643 0.0
H1837 H 0.3279 0.0187 0.81488 0.0
H1838 H 0.33853 0.00316 0.78456 0.0
H1839 H 0.41705 0.00092 0.79921 0.0
H1840 H 0.40666 0.0169 0.82939 0.0
H1841 H 0.39994 0.95743 0.78003 0.0
H1842 H 0.40391 0.04554 0.77454 0.0
H1843 H 0.3907 0.08971 0.77808 0.0
H1844 H 0.32533 0.0755 0.74543 0.0
H1845 H 0.33803 0.0311 0.74187 0.0
C1846 C 0.42018 0.94496 0.6932 0.0
C1847 C 0.39868 0.94259 0.68211 0.0
C1848 C 0.41859 0.95611 0.7103 0.0
C1849 C 0.39544 0.96493 0.71683 0.0
C1850 C 0.37425 0.96383 0.70553 0.0
C1851 C 0.37584 0.95285 0.68837 0.0
C1852 C 0.39287 0.97436 0.73567 0.0
C1853 C 0.38314 0.99863 0.73843 0.0
C1854 C 0.3997 0.95957 0.75088 0.0
C1855 C 0.41081 0.93408 0.74897 0.0
C1856 C 0.39821 0.91504 0.73932 0.0
C1857 C 0.40941 0.89145 0.73702 0.0
C1858 C 0.43308 0.88659 0.74447 0.0
C1859 C 0.44556 0.90525 0.75433 0.0
C1860 C 0.43443 0.92886 0.75668 0.0
C1861 C 0.34738 0.01463 0.8117 0.0
C1862 C 0.36644 0.01903 0.82448 0.0
C1863 C 0.35344 0.00589 0.79438 0.0
C1864 C 0.37859 0.00105 0.78967 0.0
C1865 C 0.39755 0.00456 0.8026 0.0
C1866 C 0.39157 0.01373 0.8198 0.0
C1867 C 0.38503 0.99293 0.77105 0.0
C1868 C 0.39559 0.96905 0.76838 0.0
C1869 C 0.37971 0.00831 0.75593 0.0
C1870 C 0.37175 0.03491 0.75812 0.0
C1871 C 0.38656 0.05175 0.76828 0.0
C1872 C 0.37922 0.07686 0.77025 0.0
C1873 C 0.35714 0.08539 0.76203 0.0
C1874 C 0.3424 0.06884 0.75181 0.0
C1875 C 0.34968 0.04371 0.74979 0.0
H1876 H 0.35148 0.10483 0.76355 0.0
H1877 H 0.44173 0.86835 0.74262 0.0
H1878 H 0.01358 0.60996 0.1761 0.0
H1879 H 0.99473 0.6052 0.20596 0.0
H1880 H 0.02318 0.67811 0.22149 0.0
H1881 H 0.04214 0.68319 0.19133 0.0
H1882 H 0.03279 0.63864 0.24695 0.0
H1883 H 0.96373 0.67323 0.21364 0.0
H1884 H 0.93357 0.67643 0.18841 0.0
H1885 H 0.90516 0.60272 0.20063 0.0
H1886 H 0.93556 0.59878 0.22569 0.0
H1887 H 0.96434 0.6412 0.32978 0.0
H1888 H 0.98325 0.65074 0.30049 0.0
H1889 H 0.94706 0.58553 0.27734 0.0
H1890 H 0.92715 0.57651 0.30634 0.0
H1891 H 0.94134 0.62422 0.25582 0.0
H1892 H 0.01114 0.58701 0.28664 0.0
H1893 H 0.042 0.58111 0.3112 0.0
H1894 H 0.06937 0.65637 0.30324 0.0
H1895 H 0.03844 0.66283 0.27877 0.0
C1896 C 0.01577 0.62511 0.18579 0.0
C1897 C 0.02936 0.647 0.18134 0.0
C1898 C 0.00489 0.62236 0.20284 0.0
C1899 C 0.00744 0.64135 0.21587 0.0
C1900 C 0.02097 0.66328 0.21155 0.0
C1901 C 0.03166 0.6662 0.19433 0.0
C1902 C 0.99645 0.63771 0.23412 0.0
C1903 C 0.01274 0.63597 0.249 0.0
C1904 C 0.97039 0.63338 0.23659 0.0
C1905 C 0.95215 0.63562 0.22145 0.0
C1906 C 0.95127 0.65757 0.21083 0.0
C1907 C 0.9341 0.65952 0.19656 0.0
C1908 C 0.91754 0.63973 0.19287 0.0
C1909 C 0.91809 0.61796 0.20346 0.0
C1910 C 0.93528 0.61587 0.2177 0.0
C1911 C 0.9603 0.6289 0.31847 0.0
C1912 C 0.94411 0.6081 0.32051 0.0
C1913 C 0.97137 0.63425 0.30175 0.0
C1914 C 0.96677 0.61874 0.28672 0.0
C1915 C 0.95093 0.59776 0.28874 0.0
C1916 C 0.93973 0.59247 0.30544 0.0
C1917 C 0.9777 0.62488 0.26873 0.0
C1918 C 0.96138 0.62706 0.25386 0.0
C1919 C 0.00378 0.62925 0.26622 0.0
C1920 C 0.02228 0.62549 0.28102 0.0
C1921 C 0.02358 0.60238 0.29024 0.0
C1922 C 0.04112 0.59892 0.30412 0.0
C1923 C 0.05759 0.61838 0.30881 0.0
C1924 C 0.05658 0.64133 0.29961 0.0
C1925 C 0.03906 0.64489 0.28573 0.0
H1926 H 0.07117 0.61565 0.31955 0.0
H1927 H 0.90423 0.6413 0.18184 0.0
H1928 H 0.5956 0.00932 0.17235 0.0
H1929 H 0.5878 0.98667 0.20051 0.0
H1930 H 0.65928 0.01232 0.22137 0.0
H1931 H 0.66781 0.03371 0.19261 0.0
H1932 H 0.65376 0.96735 0.23117 0.0
H1933 H 0.59755 0.03808 0.23271 0.0
H1934 H 0.56367 0.06607 0.22215 0.0
H1935 H 0.51116 0.00469 0.22376 0.0
H1936 H 0.54479 0.97621 0.23417 0.0
H1937 H 0.62754 0.94777 0.32439 0.0
H1938 H 0.63381 0.96795 0.29515 0.0
H1939 H 0.57404 0.92324 0.27227 0.0
H1940 H 0.56813 0.9021 0.30127 0.0
H1941 H 0.57249 0.97637 0.26357 0.0
H1942 H 0.62942 0.90625 0.26222 0.0
H1943 H 0.66322 0.87915 0.27411 0.0
H1944 H 0.71434 0.94181 0.2737 0.0
H1945 H 0.6807 0.96939 0.26206 0.0
C1946 C 0.60966 0.01009 0.18296 0.0
C1947 C 0.63226 0.02339 0.18036 0.0
C1948 C 0.6051 0.99727 0.19913 0.0
C1949 C 0.6226 0.99823 0.21337 0.0
C1950 C 0.64537 0.0113 0.21068 0.0
C1951 C 0.65026 0.02357 0.19426 0.0
C1952 C 0.61738 0.98532 0.23093 0.0
C1953 C 0.63609 0.96972 0.23832 0.0
C1954 C 0.59405 0.98771 0.24018 0.0
C1955 C 0.57382 0.00489 0.23393 0.0
C1956 C 0.57884 0.03048 0.23065 0.0
C1957 C 0.55966 0.04646 0.22474 0.0
C1958 C 0.5353 0.03718 0.22221 0.0
C1959 C 0.53005 0.01186 0.22566 0.0
C1960 C 0.54917 0.99578 0.23156 0.0
C1961 C 0.61577 0.94196 0.31321 0.0
C1962 C 0.59736 0.92309 0.31539 0.0
C1963 C 0.61936 0.95366 0.29648 0.0
C1964 C 0.60451 0.94697 0.28155 0.0
C1965 C 0.58567 0.9287 0.28366 0.0
C1966 C 0.58225 0.91673 0.30036 0.0
C1967 C 0.60894 0.95894 0.26369 0.0
C1968 C 0.5901 0.9742 0.2563 0.0
C1969 C 0.63217 0.95651 0.25454 0.0
C1970 C 0.65247 0.93994 0.26144 0.0
C1971 C 0.6478 0.9143 0.26482 0.0
C1972 C 0.66695 0.89885 0.27148 0.0
C1973 C 0.6909 0.90877 0.2747 0.0
C1974 C 0.69577 0.93416 0.27122 0.0
C1975 C 0.67668 0.94971 0.26458 0.0
H1976 H 0.7057 0.89677 0.27986 0.0
H1977 H 0.52049 0.04962 0.21765 0.0
H1978 H 0.01065 0.37398 0.82296 0.0
H1979 H 0.98656 0.37678 0.79495 0.0
H1980 H 0.04199 0.33116 0.7677 0.0
H1981 H 0.06672 0.32904 0.79559 0.0
H1982 H 0.03009 0.36764 0.7468 0.0
H1983 H 0.98213 0.30785 0.77999 0.0
H1984 H 0.95904 0.29043 0.8061 0.0
H1985 H 0.90625 0.35143 0.80342 0.0
H1986 H 0.92926 0.3694 0.77745 0.0
H1987 H 0.91307 0.3455 0.68471 0.0
H1988 H 0.93843 0.33494 0.71121 0.0
H1989 H 0.96804 0.41055 0.71216 0.0
H1990 H 0.94294 0.4211 0.68544 0.0
H1991 H 0.9381 0.3523 0.74466 0.0
H1992 H 0.02187 0.4135 0.72623 0.0
H1993 H 0.04521 0.42805 0.69929 0.0
H1994 H 0.02548 0.36 0.67124 0.0
H1995 H 0.00252 0.3449 0.69822 0.0
C1996 C 0.01764 0.36433 0.81106 0.0
C1997 C 0.04058 0.35117 0.81155 0.0
C1998 C 0.00375 0.36585 0.79504 0.0
C1999 C 0.01218 0.35382 0.77923 0.0
C2000 C 0.03502 0.34055 0.77971 0.0
C2001 C 0.0491 0.33927 0.79569 0.0
C2002 C 0.9976 0.35595 0.76208 0.0
C2003 C 0.00998 0.36446 0.74644 0.0
C2004 C 0.97143 0.3509 0.76127 0.0
C2005 C 0.9575 0.34006 0.77684 0.0
C2006 C 0.96569 0.31763 0.78504 0.0
C2007 C 0.95261 0.30765 0.79981 0.0
C2008 C 0.93122 0.31983 0.80644 0.0
C2009 C 0.92283 0.34201 0.79828 0.0
C2010 C 0.93585 0.35209 0.78352 0.0
C2011 C 0.92519 0.35981 0.69045 0.0
C2012 C 0.92615 0.38411 0.68291 0.0
C2013 C 0.93953 0.35379 0.70568 0.0
C2014 C 0.95533 0.37186 0.71359 0.0
C2015 C 0.95627 0.39617 0.70612 0.0
C2016 C 0.94175 0.40228 0.69097 0.0
C2017 C 0.97046 0.36543 0.72984 0.0
C2018 C 0.95821 0.35579 0.74518 0.0
C2019 C 0.99675 0.36929 0.73039 0.0
C2020 C 0.01085 0.37798 0.71428 0.0
C2021 C 0.02293 0.4015 0.71442 0.0
C2022 C 0.03596 0.40989 0.69912 0.0
C2023 C 0.03689 0.39492 0.68357 0.0
C2024 C 0.0248 0.37154 0.6833 0.0
C2025 C 0.01181 0.36306 0.6986 0.0
H2026 H 0.04692 0.40147 0.67172 0.0
H2027 H 0.92112 0.31207 0.81787 0.0
H2028 H 0.3176 0.97187 0.19087 0.0
H2029 H 0.32416 0.99326 0.21996 0.0
H2030 H 0.40418 0.98154 0.21517 0.0
H2031 H 0.39796 0.96094 0.18619 0.0
H2032 H 0.34505 0.97879 0.25212 0.0
H2033 H 0.4358 0.0324 0.2319 0.0
H2034 H 0.45604 0.05018 0.20473 0.0
H2035 H 0.38386 0.05777 0.17916 0.0
H2036 H 0.36314 0.04046 0.20631 0.0
H2037 H 0.43463 0.05932 0.31336 0.0
H2038 H 0.4255 0.03658 0.28528 0.0
H2039 H 0.34605 0.04868 0.29343 0.0
H2040 H 0.35499 0.07126 0.32141 0.0
H2041 H 0.40294 0.05191 0.25471 0.0
H2042 H 0.31289 0.99871 0.27622 0.0
H2043 H 0.29375 0.98096 0.30385 0.0
H2044 H 0.36705 0.97175 0.32739 0.0
H2045 H 0.38664 0.98907 0.29981 0.0
C2046 C 0.33657 0.9738 0.19605 0.0
C2047 C 0.35724 0.96476 0.18609 0.0
C2048 C 0.34028 0.98597 0.21269 0.0
C2049 C 0.3647 0.98937 0.2196 0.0
C2050 C 0.38521 0.9796 0.20996 0.0
C2051 C 0.38156 0.96763 0.19337 0.0
C2052 C 0.36904 0.00346 0.23669 0.0
C2053 C 0.35748 0.99498 0.25266 0.0
C2054 C 0.38574 0.02424 0.23749 0.0
C2055 C 0.39794 0.03484 0.22108 0.0
C2056 C 0.42423 0.03794 0.22051 0.0
C2057 C 0.43579 0.04794 0.20511 0.0
C2058 C 0.42125 0.055 0.1902 0.0
C2059 C 0.39511 0.05218 0.19069 0.0
C2060 C 0.38344 0.04225 0.20608 0.0
C2061 C 0.41524 0.05719 0.30915 0.0
C2062 C 0.39555 0.06693 0.31976 0.0
C2063 C 0.41003 0.04412 0.29312 0.0
C2064 C 0.38506 0.04059 0.28737 0.0
C2065 C 0.36543 0.05065 0.29778 0.0
C2066 C 0.3706 0.06356 0.31382 0.0
C2067 C 0.37955 0.02696 0.27024 0.0
C2068 C 0.39072 0.03563 0.25423 0.0
C2069 C 0.36274 0.00627 0.26946 0.0
C2070 C 0.35119 0.99545 0.28601 0.0
C2071 C 0.32492 0.9928 0.28726 0.0
C2072 C 0.31399 0.98282 0.30292 0.0
C2073 C 0.32917 0.97531 0.31738 0.0
C2074 C 0.35531 0.97766 0.3162 0.0
C2075 C 0.36633 0.98759 0.30057 0.0
H2076 H 0.32067 0.96762 0.3295 0.0
H2077 H 0.43024 0.06272 0.17828 0.0
H2078 H 0.95743 0.60981 0.81433 0.0
H2079 H 0.97848 0.60561 0.78521 0.0
H2080 H 0.0094 0.68026 0.79097 0.0
H2081 H 0.98829 0.68466 0.82034 0.0
H2082 H 0.9756 0.63184 0.75365 0.0
H2083 H 0.06998 0.678 0.77305 0.0
H2084 H 0.09572 0.68616 0.80024 0.0
H2085 H 0.06331 0.62165 0.8264 0.0
H2086 H 0.03767 0.61292 0.79929 0.0
H2087 H 0.05367 0.64693 0.67539 0.0
H2088 H 0.03086 0.65522 0.7036 0.0
H2089 H 0.07024 0.59408 0.72943 0.0
H2090 H 0.09325 0.58588 0.70137 0.0
H2091 H 0.06879 0.63673 0.75075 0.0
H2092 H 0.01154 0.58535 0.7164 0.0
H2093 H 0.98604 0.57375 0.68978 0.0
H2094 H 0.94449 0.6427 0.6945 0.0
H2095 H 0.97001 0.65487 0.72102 0.0
C2096 C 0.96857 0.62544 0.80943 0.0
C2097 C 0.97126 0.64754 0.81976 0.0
C2098 C 0.98052 0.62303 0.7927 0.0
C2099 C 0.99565 0.64252 0.78596 0.0
C2100 C 0.99796 0.66488 0.796 0.0
C2101 C 0.98582 0.6674 0.81274 0.0
C2102 C 0.00958 0.63889 0.76874 0.0
C2103 C 0.99596 0.63312 0.75299 0.0
C2104 C 0.03617 0.64014 0.76792 0.0
C2105 C 0.0517 0.64502 0.78422 0.0
C2106 C 0.06841 0.66553 0.78459 0.0
C2107 C 0.08298 0.67025 0.79999 0.0
C2108 C 0.08108 0.65449 0.81506 0.0
C2109 C 0.06468 0.63391 0.81475 0.0
C2110 C 0.05011 0.62909 0.79938 0.0
C2111 C 0.05752 0.63534 0.6871 0.0
C2112 C 0.07518 0.61569 0.68612 0.0
C2113 C 0.0444 0.64 0.70318 0.0
C2114 C 0.04879 0.6252 0.71859 0.0
C2115 C 0.06657 0.60572 0.7177 0.0
C2116 C 0.07951 0.60091 0.7016 0.0
C2117 C 0.03479 0.62987 0.73565 0.0
C2118 C 0.04841 0.63581 0.75136 0.0
C2119 C 0.00822 0.62842 0.73649 0.0
C2120 C 0.99287 0.62114 0.72056 0.0
C2121 C 0.99712 0.59814 0.71166 0.0
C2122 C 0.98263 0.59144 0.69661 0.0
C2123 C 0.9637 0.60751 0.69042 0.0
C2124 C 0.95919 0.63029 0.69929 0.0
C2125 C 0.97364 0.63709 0.71434 0.0
H2126 H 0.9525 0.60229 0.67877 0.0
H2127 H 0.09235 0.65818 0.82697 0.0
H2128 H 0.14413 0.47938 0.57901 0.0
H2129 H 0.14712 0.47323 0.54636 0.0
H2130 H 0.19133 0.54108 0.54171 0.0
H2131 H 0.18821 0.5474 0.57449 0.0
H2132 H 0.15571 0.54076 0.51691 0.0
H2133 H 0.21801 0.48212 0.53603 0.0
H2134 H 0.23578 0.44704 0.55372 0.0
H2135 H 0.18049 0.39677 0.53152 0.0
H2136 H 0.16216 0.43162 0.51388 0.0
H2137 H 0.17745 0.51621 0.42236 0.0
H2138 H 0.18351 0.52479 0.45473 0.0
H2139 H 0.13957 0.45898 0.46792 0.0
H2140 H 0.13374 0.4503 0.43591 0.0
H2141 H 0.18044 0.46025 0.48804 0.0
H2142 H 0.11392 0.52134 0.4739 0.0
H2143 H 0.09501 0.55749 0.45786 0.0
H2144 H 0.15974 0.60267 0.47029 0.0
H2145 H 0.17868 0.56708 0.48687 0.0
C2146 C 0.15496 0.49271 0.57113 0.0
C2147 C 0.16608 0.51382 0.57939 0.0
C2148 C 0.15662 0.4892 0.55241 0.0
C2149 C 0.16969 0.50655 0.54153 0.0
C2150 C 0.18114 0.52744 0.54979 0.0
C2151 C 0.17937 0.53102 0.56851 0.0
C2152 C 0.17027 0.50347 0.5215 0.0
C2153 C 0.16158 0.52329 0.5106 0.0
C2154 C 0.17758 0.4806 0.51318 0.0
C2155 C 0.18859 0.45955 0.52373 0.0
C2156 C 0.20952 0.46363 0.53502 0.0
C2157 C 0.21972 0.44377 0.54502 0.0
C2158 C 0.20924 0.4197 0.54377 0.0
C2159 C 0.18858 0.41543 0.53248 0.0
C2160 C 0.1783 0.43522 0.52246 0.0
C2161 C 0.16912 0.50361 0.4322 0.0
C2162 C 0.1553 0.48245 0.42649 0.0
C2163 C 0.17246 0.50859 0.45069 0.0
C2164 C 0.16184 0.49262 0.46382 0.0
C2165 C 0.14809 0.47151 0.4581 0.0
C2166 C 0.14487 0.46648 0.43971 0.0
C2167 C 0.16529 0.49731 0.48354 0.0
C2168 C 0.17482 0.47779 0.49437 0.0
C2169 C 0.15884 0.52045 0.49179 0.0
C2170 C 0.14781 0.54153 0.48141 0.0
C2171 C 0.12417 0.53895 0.47309 0.0
C2172 C 0.11342 0.55934 0.46397 0.0
C2173 C 0.12629 0.58222 0.46287 0.0
C2174 C 0.14983 0.5849 0.47108 0.0
C2175 C 0.1605 0.5647 0.48045 0.0
H2176 H 0.11796 0.59793 0.45574 0.0
H2177 H 0.21716 0.40436 0.55153 0.0
H2178 H 0.54803 0.80776 0.42929 0.0
H2179 H 0.54059 0.80649 0.46185 0.0
H2180 H 0.46275 0.82607 0.45315 0.0
H2181 H 0.47037 0.82849 0.42061 0.0
H2182 H 0.48141 0.85395 0.47924 0.0
H2183 H 0.48087 0.76597 0.46614 0.0
H2184 H 0.49654 0.72599 0.45353 0.0
H2185 H 0.56257 0.73118 0.48683 0.0
H2186 H 0.54745 0.77139 0.49947 0.0
H2187 H 0.44199 0.83438 0.56792 0.0
H2188 H 0.44744 0.82433 0.5363 0.0
H2189 H 0.5276 0.81873 0.54388 0.0
H2190 H 0.52258 0.82822 0.57594 0.0
H2191 H 0.50667 0.78269 0.51871 0.0
H2192 H 0.50621 0.87262 0.53067 0.0
H2193 H 0.48638 0.90859 0.54621 0.0
H2194 H 0.41869 0.89729 0.51553 0.0
H2195 H 0.43794 0.86087 0.50009 0.0
C2196 C 0.5293 0.81171 0.43428 0.0
C2197 C 0.50984 0.81828 0.42228 0.0
C2198 C 0.525 0.81077 0.45292 0.0
C2199 C 0.50104 0.816 0.45999 0.0
C2200 C 0.48139 0.82193 0.44802 0.0
C2201 C 0.48572 0.82302 0.42936 0.0
C2202 C 0.49682 0.81638 0.47989 0.0
C2203 C 0.48665 0.8382 0.48777 0.0
C2204 C 0.50397 0.79602 0.49117 0.0
C2205 C 0.51313 0.77182 0.48363 0.0
C2206 C 0.49883 0.75869 0.47067 0.0
C2207 C 0.50759 0.73597 0.46354 0.0
C2208 C 0.53057 0.72608 0.46934 0.0
C2209 C 0.54479 0.73887 0.48233 0.0
C2210 C 0.53612 0.76162 0.4895 0.0
C2211 C 0.46088 0.83077 0.56324 0.0
C2212 C 0.48195 0.83316 0.57475 0.0
C2213 C 0.46388 0.82489 0.54497 0.0
C2214 C 0.48794 0.82134 0.5377 0.0
C2215 C 0.50885 0.82166 0.54924 0.0
C2216 C 0.5059 0.82746 0.5676 0.0
C2217 C 0.49138 0.82011 0.51783 0.0
C2218 C 0.50147 0.79832 0.51003 0.0
C2219 C 0.48398 0.84036 0.50659 0.0
C2220 C 0.47342 0.86387 0.51435 0.0
C2221 C 0.4871 0.87783 0.52722 0.0
C2222 C 0.47591 0.89817 0.53612 0.0
C2223 C 0.45116 0.90497 0.53205 0.0
C2224 C 0.43777 0.89182 0.51879 0.0
C2225 C 0.44883 0.87135 0.50994 0.0
H2226 H 0.44246 0.92061 0.53902 0.0
H2227 H 0.53732 0.70848 0.46381 0.0
H2228 H 0.82157 0.48149 0.42427 0.0
H2229 H 0.81426 0.47484 0.4568 0.0
H2230 H 0.86088 0.53923 0.46891 0.0
H2231 H 0.86902 0.5452 0.43692 0.0
H2232 H 0.8732 0.50197 0.48959 0.0
H2233 H 0.79516 0.5406 0.47174 0.0
H2234 H 0.75598 0.54455 0.45408 0.0
H2235 H 0.73077 0.47293 0.47404 0.0
H2236 H 0.76999 0.4684 0.49163 0.0
H2237 H 0.84865 0.52546 0.58064 0.0
H2238 H 0.8465 0.53074 0.54781 0.0
H2239 H 0.80723 0.45999 0.54305 0.0
H2240 H 0.80906 0.45474 0.576 0.0
H2241 H 0.78924 0.49752 0.51871 0.0
H2242 H 0.86732 0.45714 0.53452 0.0
H2243 H 0.90751 0.45095 0.55068 0.0
H2244 H 0.93233 0.52431 0.53402 0.0
H2245 H 0.89211 0.53106 0.51799 0.0
C2246 C 0.83021 0.49415 0.43393 0.0
C2247 C 0.8455 0.5141 0.42794 0.0
C2248 C 0.82585 0.4905 0.45248 0.0
C2249 C 0.8367 0.50679 0.46532 0.0
C2250 C 0.85211 0.52653 0.4593 0.0
C2251 C 0.85652 0.53011 0.4409 0.0
C2252 C 0.83321 0.50294 0.48509 0.0
C2253 C 0.85483 0.5012 0.49592 0.0
C2254 C 0.80921 0.50132 0.49337 0.0
C2255 C 0.78563 0.50403 0.48283 0.0
C2256 C 0.78136 0.52559 0.47224 0.0
C2257 C 0.75913 0.52796 0.46227 0.0
C2258 C 0.74093 0.50897 0.4629 0.0
C2259 C 0.7449 0.48761 0.47354 0.0
C2260 C 0.76712 0.48514 0.48352 0.0
C2261 C 0.83894 0.51137 0.57269 0.0
C2262 C 0.82916 0.4896 0.5809 0.0
C2263 C 0.8379 0.5143 0.55391 0.0
C2264 C 0.82699 0.49559 0.543 0.0
C2265 C 0.81578 0.47461 0.55122 0.0
C2266 C 0.81696 0.47158 0.57001 0.0
C2267 C 0.82931 0.49699 0.52303 0.0
C2268 C 0.80757 0.49816 0.51227 0.0
C2269 C 0.85319 0.49798 0.51467 0.0
C2270 C 0.87678 0.49459 0.52508 0.0
C2271 C 0.88126 0.47204 0.53448 0.0
C2272 C 0.90403 0.46842 0.54357 0.0
C2273 C 0.92246 0.48718 0.54328 0.0
C2274 C 0.91803 0.50978 0.53418 0.0
C2275 C 0.89525 0.51353 0.52511 0.0
H2276 H 0.94025 0.48413 0.54998 0.0
H2277 H 0.72373 0.51083 0.45517 0.0
H2278 H 0.51892 0.19186 0.42442 0.0
H2279 H 0.5236 0.19844 0.45713 0.0
H2280 H 0.45224 0.16181 0.46622 0.0
H2281 H 0.44757 0.15494 0.43397 0.0
H2282 H 0.45697 0.20221 0.48776 0.0
H2283 H 0.50676 0.12997 0.47116 0.0
H2284 H 0.53968 0.10725 0.45425 0.0
H2285 H 0.59582 0.15769 0.47516 0.0
H2286 H 0.56314 0.18092 0.49201 0.0
H2287 H 0.46512 0.1517 0.57661 0.0
H2288 H 0.46099 0.16049 0.54433 0.0
H2289 H 0.53279 0.19844 0.54477 0.0
H2290 H 0.53693 0.1899 0.57716 0.0
H2291 H 0.53026 0.1632 0.51839 0.0
H2292 H 0.4792 0.23172 0.53864 0.0
H2293 H 0.44525 0.25211 0.55601 0.0
H2294 H 0.3903 0.20646 0.52877 0.0
H2295 H 0.42395 0.18553 0.51141 0.0
C2296 C 0.50419 0.18536 0.4334 0.0
C2297 C 0.48285 0.17299 0.42646 0.0
C2298 C 0.50686 0.18916 0.45207 0.0
C2299 C 0.4883 0.18049 0.46412 0.0
C2300 C 0.46669 0.16885 0.45718 0.0
C2301 C 0.46402 0.16505 0.43861 0.0
C2302 C 0.49177 0.18212 0.48402 0.0
C2303 C 0.47296 0.19364 0.49448 0.0
C2304 C 0.51283 0.1713 0.49276 0.0
C2305 C 0.53248 0.15737 0.48265 0.0
C2306 C 0.5261 0.13634 0.47202 0.0
C2307 C 0.54471 0.12335 0.46247 0.0
C2308 C 0.56982 0.13107 0.46358 0.0
C2309 C 0.57636 0.15177 0.47428 0.0
C2310 C 0.5578 0.16485 0.48383 0.0
C2311 C 0.47974 0.16247 0.56999 0.0
C2312 C 0.50143 0.16998 0.57947 0.0
C2313 C 0.47738 0.16744 0.55149 0.0
C2314 C 0.49657 0.18019 0.54214 0.0
C2315 C 0.51781 0.18851 0.5517 0.0
C2316 C 0.52016 0.18357 0.57019 0.0
C2317 C 0.49531 0.18306 0.52218 0.0
C2318 C 0.51451 0.17225 0.5117 0.0
C2319 C 0.47446 0.19429 0.51346 0.0
C2320 C 0.45414 0.20693 0.52381 0.0
C2321 C 0.4599 0.22589 0.53644 0.0
C2322 C 0.4407 0.23757 0.54627 0.0
C2323 C 0.41564 0.23055 0.54352 0.0
C2324 C 0.40972 0.21187 0.5309 0.0
C2325 C 0.42885 0.20012 0.52104 0.0
H2326 H 0.4008 0.23961 0.55114 0.0
H2327 H 0.58421 0.12098 0.45618 0.0
H2328 H 0.68403 0.94154 0.9308 0.0
H2329 H 0.68623 0.94468 0.96374 0.0
H2330 H 0.68499 0.02561 0.95996 0.0
H2331 H 0.68197 0.02272 0.92707 0.0
H2332 H 0.71752 0.00597 0.98794 0.0
H2333 H 0.63324 0.99833 0.96482 0.0
H2334 H 0.59937 0.97845 0.9472 0.0
H2335 H 0.60526 0.91166 0.97964 0.0
H2336 H 0.63972 0.931 0.99722 0.0
H2337 H 0.66492 0.04698 0.07003 0.0
H2338 H 0.67589 0.03775 0.03887 0.0
H2339 H 0.66237 0.95878 0.04826 0.0
H2340 H 0.6502 0.968 0.07948 0.0
H2341 H 0.64038 0.97349 0.01787 0.0
H2342 H 0.72279 0.98257 0.04278 0.0
H2343 H 0.75657 0.00301 0.06034 0.0
H2344 H 0.75397 0.06711 0.02502 0.0
H2345 H 0.71992 0.0472 0.00739 0.0
C2346 C 0.68443 0.96004 0.93692 0.0
C2347 C 0.68223 0.98186 0.92623 0.0
C2348 C 0.68589 0.96177 0.95575 0.0
C2349 C 0.68543 0.98536 0.96425 0.0
C2350 C 0.68538 0.00722 0.95362 0.0
C2351 C 0.68368 0.00551 0.93477 0.0
C2352 C 0.68204 0.9872 0.98409 0.0
C2353 C 0.70066 -0.00102 0.99453 0.0
C2354 C 0.6602 0.9776 0.99264 0.0
C2355 C 0.63934 0.96599 0.98217 0.0
C2356 C 0.62758 0.97927 0.96805 0.0
C2357 C 0.60821 0.96811 0.95808 0.0
C2358 C 0.60019 0.94374 0.96225 0.0
C2359 C 0.61152 0.93051 0.97641 0.0
C2360 C 0.631 0.94157 0.98637 0.0
C2361 C 0.66404 0.02762 0.06555 0.0
C2362 C 0.65613 0.00832 0.07731 0.0
C2363 C 0.67074 0.02233 0.04771 0.0
C2364 C 0.67023 0.99753 0.04123 0.0
C2365 C 0.66297 0.97807 0.05299 0.0
C2366 C 0.65613 0.98337 0.07089 0.0
C2367 C 0.67589 0.99235 0.02189 0.0
C2368 C 0.65754 0.98007 0.01144 0.0
C2369 C 0.69799 0.0015 0.01337 0.0
C2370 C 0.71867 0.01344 0.02383 0.0
C2371 C 0.72931 0.00109 0.03882 0.0
C2372 C 0.74852 0.01257 0.04878 0.0
C2373 C 0.75738 0.03636 0.04382 0.0
C2374 C 0.74708 0.04868 0.02885 0.0
C2375 C 0.72785 0.03729 0.01885 0.0
H2376 H 0.77224 0.04524 0.05156 0.0
H2377 H 0.58515 0.93512 0.95456 0.0
H2378 H 0.04525 0.31001 0.92851 0.0
H2379 H 0.03889 0.31119 0.96134 0.0
H2380 H 0.96884 0.35066 0.95359 0.0
H2381 H 0.97536 0.35004 0.9209 0.0
H2382 H 0.99875 0.37422 0.97789 0.0
H2383 H 0.96967 0.2896 0.96758 0.0
H2384 H 0.97273 0.246 0.95636 0.0
H2385 H 0.03748 0.23349 0.98993 0.0
H2386 H 0.03501 0.27715 0.00117 0.0
H2387 H 0.94631 0.36889 0.06511 0.0
H2388 H 0.95607 0.36479 0.03313 0.0
H2389 H 0.02392 0.3243 0.04635 0.0
H2390 H 0.01394 0.32809 0.07871 0.0
H2391 H 0.99818 0.30111 0.01963 0.0
H2392 H 0.03026 0.38489 0.02815 0.0
H2393 H 0.03114 0.42942 0.03763 0.0
H2394 H 0.96331 0.44346 0.00774 0.0
H2395 H 0.9624 0.39911 0.99769 0.0
C2396 C 0.02835 0.31866 0.93382 0.0
C2397 C 0.01083 0.32989 0.92206 0.0
C2398 C 0.02467 0.31922 0.95257 0.0
C2399 C 0.00335 0.33099 0.95994 0.0
C2400 C 0.98543 0.34148 0.94821 0.0
C2401 C 0.98905 0.34085 0.92948 0.0
C2402 C 0.00045 0.33381 0.97984 0.0
C2403 C 0.99825 0.35819 0.98699 0.0
C2404 C 0.00082 0.31299 0.99179 0.0
C2405 C 0.0023 0.28673 0.98507 0.0
C2406 C 0.98469 0.27762 0.97245 0.0
C2407 C 0.98629 0.25288 0.96611 0.0
C2408 C 0.00533 0.23701 0.97239 0.0
C2409 C 0.02276 0.24582 0.98506 0.0
C2410 C 0.02126 0.27055 0.99143 0.0
C2411 C 0.96322 0.35894 0.06132 0.0
C2412 C 0.97922 0.34861 0.07455 0.0
C2413 C 0.96898 0.35692 0.04296 0.0
C2414 C 0.9909 0.34453 0.0373 0.0
C2415 C 0.00695 0.33408 0.05041 0.0
C2416 C 0.00126 0.33626 0.06888 0.0
C2417 C 0.99614 0.34151 0.01764 0.0
C2418 C 0.99877 0.31713 0.01054 0.0
C2419 C 0.99639 0.36233 0.00569 0.0
C2420 C 0.99613 0.38866 0.01234 0.0
C2421 C 0.01544 0.39744 0.02371 0.0
C2422 C 0.01607 0.42269 0.02904 0.0
C2423 C 0.99721 0.43922 0.02338 0.0
C2424 C 0.97785 0.43061 0.01217 0.0
C2425 C 0.97738 0.40547 0.00654 0.0
H2426 H 0.99765 0.45872 0.02764 0.0
H2427 H 0.00654 0.21786 0.96746 0.0
H2428 H 0.34074 0.02079 0.08405 0.0
H2429 H 0.33778 0.02781 0.0514 0.0
H2430 H 0.31217 0.95151 0.04395 0.0
H2431 H 0.31429 0.94454 0.07662 0.0
H2432 H 0.35646 0.96631 0.02334 0.0
H2433 H 0.27182 0.99416 0.03653 0.0
H2434 H 0.24015 0.01994 0.05235 0.0
H2435 H 0.275 0.08731 0.03224 0.0
H2436 H 0.30712 0.06193 0.0165 0.0
H2437 H 0.33742 0.97228 0.92825 0.0
H2438 H 0.33057 0.96525 0.96055 0.0
H2439 H 0.34216 0.04423 0.97092 0.0
H2440 H 0.34935 0.05154 0.93917 0.0
H2441 H 0.303 0.02721 0.99008 0.0
H2442 H 0.38855 0.0048 0.98079 0.0
H2443 H 0.42474 0.9836 0.96667 0.0
H2444 H 0.39353 0.91156 0.98064 0.0
H2445 H 0.35707 0.93245 0.9949 0.0
C2446 C 0.33372 0.00574 0.07558 0.0
C2447 C 0.32793 0.982 0.08296 0.0
C2448 C 0.3322 0.00975 0.0569 0.0
C2449 C 0.3249 0.99011 0.04532 0.0
C2450 C 0.31799 0.96682 0.05269 0.0
C2451 C 0.31925 0.96289 0.07134 0.0
C2452 C 0.32633 0.99322 0.02546 0.0
C2453 C 0.34441 0.97922 0.01598 0.0
C2454 C 0.31136 0.01087 0.01608 0.0
C2455 C 0.292 0.02614 0.02547 0.0
C2456 C 0.27286 0.01448 0.03561 0.0
C2457 C 0.2548 0.02902 0.04453 0.0
C2458 C 0.25559 0.05525 0.04333 0.0
C2459 C 0.27442 0.06699 0.03317 0.0
C2460 C 0.29254 0.05253 0.02423 0.0
C2461 C 0.33862 0.9882 0.93732 0.0
C2462 C 0.3441 0.01248 0.93074 0.0
C2463 C 0.33462 0.98413 0.95583 0.0
C2464 C 0.33596 0.00423 0.96814 0.0
C2465 C 0.34086 0.02846 0.96165 0.0
C2466 C 0.34496 0.03256 0.94326 0.0
C2467 C 0.33296 7e-05 0.98788 0.0
C2468 C 0.31476 0.01398 0.99736 0.0
C2469 C 0.34833 0.98287 0.99741 0.0
C2470 C 0.36994 0.97015 0.98866 0.0
C2471 C 0.38928 0.98442 0.98067 0.0
C2472 C 0.40988 0.97247 0.9727 0.0
C2473 C 0.41137 0.94621 0.97264 0.0
C2474 C 0.39231 0.93188 0.98065 0.0
C2475 C 0.3717 0.94378 0.98873 0.0
H2476 H 0.42734 0.93696 0.96646 0.0
H2477 H 0.24159 0.06647 0.05025 0.0
H2478 H 0.02471 0.65005 0.92378 0.0
H2479 H 0.03154 0.65524 0.95623 0.0
H2480 H 0.95727 0.68705 0.96182 0.0
H2481 H 0.95084 0.68308 0.92923 0.0
H2482 H 0.98716 0.71175 0.9825 0.0
H2483 H 0.96952 0.6234 0.97634 0.0
H2484 H 0.97314 0.57974 0.96522 0.0
H2485 H 0.05156 0.57902 0.97923 0.0
H2486 H 0.04826 0.6225 0.99077 0.0
H2487 H 0.97828 0.67407 0.07845 0.0
H2488 H 0.97103 0.67842 0.04588 0.0
H2489 H 0.05105 0.67978 0.03657 0.0
H2490 H 0.05859 0.67674 0.06906 0.0
H2491 H 0.01691 0.63881 0.01847 0.0
H2492 H 0.02982 0.72857 0.02797 0.0
H2493 H 0.02039 0.7693 0.04244 0.0
H2494 H 0.94413 0.76505 0.02344 0.0
H2495 H 0.95303 0.72407 0.00909 0.0
C2496 C 0.01001 0.65862 0.93182 0.0
C2497 C 0.98714 0.66603 0.92386 0.0
C2498 C 0.01378 0.66119 0.95047 0.0
C2499 C 0.99469 0.67099 0.9616 0.0
C2500 C 0.97223 0.67925 0.95359 0.0
C2501 C 0.96852 0.67684 0.93495 0.0
C2502 C 0.99814 0.67267 0.98156 0.0
C2503 C 0.99344 0.69569 0.99034 0.0
C2504 C 0.00632 0.65183 0.99194 0.0
C2505 C 0.00872 0.62626 0.98417 0.0
C2506 C 0.98758 0.614 0.97687 0.0
C2507 C 0.98953 0.58923 0.97063 0.0
C2508 C 0.01261 0.57669 0.97143 0.0
C2509 C 0.03373 0.58879 0.97859 0.0
C2510 C 0.0318 0.61344 0.98506 0.0
C2511 C 0.99437 0.67603 0.06959 0.0
C2512 C 0.01907 0.6746 0.07644 0.0
C2513 C 0.99015 0.67839 0.05096 0.0
C2514 C 0.01053 0.67922 0.03891 0.0
C2515 C 0.03511 0.67902 0.04571 0.0
C2516 C 0.03935 0.67709 0.06429 0.0
C2517 C 0.00636 0.67786 0.01916 0.0
C2518 C 0.01077 0.65483 0.01051 0.0
C2519 C 0.99734 0.69849 0.00905 0.0
C2520 C 0.99201 0.72311 0.01765 0.0
C2521 C 0.01097 0.73617 0.02706 0.0
C2522 C 0.00574 0.75934 0.03519 0.0
C2523 C 0.98165 0.76972 0.03392 0.0
C2524 C 0.96277 0.75697 0.02445 0.0
C2525 C 0.9679 0.73379 0.0163 0.0
H2526 H 0.97764 0.78766 0.04022 0.0
H2527 H 0.01418 0.55763 0.96644 0.0
loop_
_geom_bond_atom_site_label_1
_geom_bond_atom_site_label_2
_geom_bond_distance
_geom_bond_site_symmetry_2
_ccdc_geom_bond_type
Co0 N4 2.148 . S
Co0 N10 2.128 . S
Co0 N20 2.194 . S
Co0 O25 2.351 . S
Co0 O26 2.155 . S
Co0 O27 2.096 . S
C1 N4 1.301 . S
C1 N5 1.328 . S
C1 H6 0.930 . S
C2 C3 1.333 . S
C2 N4 1.317 . S
C2 H7 0.930 . S
C3 C2 1.333 . S
C3 N5 1.350 . S
C3 H29 0.931 . S
N4 Co0 2.148 . S
N4 C1 1.301 . S
N4 C2 1.317 . S
N5 C1 1.328 . S
N5 C3 1.350 . S
H6 C1 0.930 . S
H7 C2 0.930 . S
C8 O9 1.224 . S
C8 O27 1.247 . S
O9 C8 1.224 . S
N10 Co0 2.128 . S
N10 C11 1.355 . S
N10 C13 1.311 . S
C11 N10 1.355 . S
C11 C12 1.363 . S
C11 H23 0.929 . S
C12 C11 1.363 . S
C12 N14 1.375 . S
C12 H30 0.931 . S
C13 N10 1.311 . S
C13 N14 1.347 . S
C13 H24 0.929 . S
N14 C12 1.375 . S
N14 C13 1.347 . S
C15 C18 1.365 . S
C15 N20 1.328 . S
C15 H21 0.929 . S
C16 C17 1.362 . S
C16 C19 1.378 . S
C16 H31 0.929 . S
C17 C16 1.362 . S
C17 C18 1.366 . S
C18 C15 1.365 . S
C18 C17 1.366 . S
C18 H32 0.930 . S
C19 C16 1.378 . S
C19 N20 1.315 . S
C19 H22 0.930 . S
N20 Co0 2.194 . S
N20 C15 1.328 . S
N20 C19 1.315 . S
H21 C15 0.929 . S
H22 C19 0.930 . S
H23 C11 0.929 . S
H24 C13 0.929 . S
O25 Co0 2.351 . S
O25 C28 1.244 . S
O26 Co0 2.155 . S
O26 C28 1.240 . S
O27 Co0 2.096 . S
O27 C8 1.247 . S
C28 O25 1.244 . S
C28 O26 1.240 . S
H29 C3 0.931 . S
H30 C12 0.931 . S
H31 C16 0.929 . S
H32 C18 0.930 . S
Co33 N37 2.148 . S
Co33 N43 2.128 . S
Co33 N53 2.194 . S
Co33 O58 2.351 . S
Co33 O59 2.155 . S
Co33 O60 2.096 . S
C34 N37 1.301 . S
C34 N38 1.328 . S
C34 H39 0.930 . S
C35 C36 1.333 . S
C35 N37 1.317 . S
C35 H40 0.930 . S
C36 C35 1.333 . S
C36 N38 1.350 . S
C36 H62 0.931 . S
N37 Co33 2.148 . S
N37 C34 1.301 . S
N37 C35 1.317 . S
N38 C34 1.328 . S
N38 C36 1.350 . S
H39 C34 0.930 . S
H40 C35 0.930 . S
C41 O42 1.224 . S
C41 O60 1.247 . S
O42 C41 1.224 . S
N43 Co33 2.128 . S
N43 C44 1.355 . S
N43 C46 1.311 . S
C44 N43 1.355 . S
C44 C45 1.363 . S
C44 H56 0.929 . S
C45 C44 1.363 . S
C45 N47 1.375 . S
C45 H63 0.931 . S
C46 N43 1.311 . S
C46 N47 1.347 . S
C46 H57 0.929 . S
N47 C45 1.375 . S
N47 C46 1.347 . S
C48 C51 1.365 . S
C48 N53 1.328 . S
C48 H54 0.929 . S
C49 C50 1.362 . S
C49 C52 1.378 . S
C49 H64 0.929 . S
C50 C49 1.362 . S
C50 C51 1.366 . S
C51 C48 1.365 . S
C51 C50 1.366 . S
C51 H65 0.930 . S
C52 C49 1.378 . S
C52 N53 1.315 . S
C52 H55 0.930 . S
N53 Co33 2.194 . S
N53 C48 1.328 . S
N53 C52 1.315 . S
H54 C48 0.929 . S
H55 C52 0.930 . S
H56 C44 0.929 . S
H57 C46 0.929 . S
O58 Co33 2.351 . S
O58 C61 1.244 . S
O59 Co33 2.155 . S
O59 C61 1.240 . S
O60 Co33 2.096 . S
O60 C41 1.247 . S
C61 O58 1.244 . S
C61 O59 1.240 . S
H62 C36 0.931 . S
H63 C45 0.931 . S
H64 C49 0.929 . S
H65 C51 0.930 . S
Co66 N70 2.148 . S
Co66 N76 2.128 . S
Co66 N86 2.194 . S
Co66 O91 2.351 . S
Co66 O92 2.155 . S
Co66 O93 2.096 . S
C67 N70 1.301 . S
C67 N71 1.328 . S
C67 H72 0.930 . S
C68 C69 1.333 . S
C68 N70 1.317 . S
C68 H73 0.930 . S
C69 C68 1.333 . S
C69 N71 1.350 . S
C69 H95 0.931 . S
N70 Co66 2.148 . S
N70 C67 1.301 . S
N70 C68 1.317 . S
N71 C67 1.328 . S
N71 C69 1.350 . S
H72 C67 0.930 . S
H73 C68 0.930 . S
C74 O75 1.224 . S
C74 O93 1.247 . S
O75 C74 1.224 . S
N76 Co66 2.128 . S
N76 C77 1.355 . S
N76 C79 1.311 . S
C77 N76 1.355 . S
C77 C78 1.363 . S
C77 H89 0.929 . S
C78 C77 1.363 . S
C78 N80 1.375 . S
C78 H96 0.931 . S
C79 N76 1.311 . S
C79 N80 1.347 . S
C79 H90 0.929 . S
N80 C78 1.375 . S
N80 C79 1.347 . S
C81 C84 1.365 . S
C81 N86 1.328 . S
C81 H87 0.929 . S
C82 C83 1.362 . S
C82 C85 1.378 . S
C82 H97 0.929 . S
C83 C82 1.362 . S
C83 C84 1.366 . S
C84 C81 1.365 . S
C84 C83 1.366 . S
C84 H98 0.930 . S
C85 C82 1.378 . S
C85 N86 1.315 . S
C85 H88 0.930 . S
N86 Co66 2.194 . S
N86 C81 1.328 . S
N86 C85 1.315 . S
H87 C81 0.929 . S
H88 C85 0.930 . S
H89 C77 0.929 . S
H90 C79 0.929 . S
O91 Co66 2.351 . S
O91 C94 1.244 . S
O92 Co66 2.155 . S
O92 C94 1.240 . S
O93 Co66 2.096 . S
O93 C74 1.247 . S
C94 O91 1.244 . S
C94 O92 1.240 . S
H95 C69 0.931 . S
H96 C78 0.931 . S
H97 C82 0.929 . S
H98 C84 0.930 . S
Co99 N103 2.148 . S
Co99 N109 2.128 . S
Co99 N119 2.194 . S
Co99 O124 2.351 . S
Co99 O125 2.155 . S
Co99 O126 2.096 . S
C100 N103 1.301 . S
C100 N104 1.328 . S
C100 H105 0.930 . S
C101 C102 1.333 . S
C101 N103 1.317 . S
C101 H106 0.930 . S
C102 C101 1.333 . S
C102 N104 1.350 . S
C102 H128 0.931 . S
N103 Co99 2.148 . S
N103 C100 1.301 . S
N103 C101 1.317 . S
N104 C100 1.328 . S
N104 C102 1.350 . S
H105 C100 0.930 . S
H106 C101 0.930 . S
C107 O108 1.224 . S
C107 O126 1.247 . S
O108 C107 1.224 . S
N109 Co99 2.128 . S
N109 C110 1.355 . S
N109 C112 1.311 . S
C110 N109 1.355 . S
C110 C111 1.363 . S
C110 H122 0.929 . S
C111 C110 1.363 . S
C111 N113 1.375 . S
C111 H129 0.931 . S
C112 N109 1.311 . S
C112 N113 1.347 . S
C112 H123 0.929 . S
N113 C111 1.375 . S
N113 C112 1.347 . S
C114 C117 1.365 . S
C114 N119 1.328 . S
C114 H120 0.929 . S
C115 C116 1.362 . S
C115 C118 1.378 . S
C115 H130 0.929 . S
C116 C115 1.362 . S
C116 C117 1.366 . S
C117 C114 1.365 . S
C117 C116 1.366 . S
C117 H131 0.930 . S
C118 C115 1.378 . S
C118 N119 1.315 . S
C118 H121 0.930 . S
N119 Co99 2.194 . S
N119 C114 1.328 . S
N119 C118 1.315 . S
H120 C114 0.929 . S
H121 C118 0.930 . S
H122 C110 0.929 . S
H123 C112 0.929 . S
O124 Co99 2.351 . S
O124 C127 1.244 . S
O125 Co99 2.155 . S
O125 C127 1.240 . S
O126 Co99 2.096 . S
O126 C107 1.247 . S
C127 O124 1.244 . S
C127 O125 1.240 . S
H128 C102 0.931 . S
H129 C111 0.931 . S
H130 C115 0.929 . S
H131 C117 0.930 . S
Co132 N136 2.148 . S
Co132 N142 2.128 . S
Co132 N152 2.194 . S
Co132 O157 2.351 . S
Co132 O158 2.155 . S
Co132 O159 2.096 . S
C133 N136 1.301 . S
C133 N137 1.328 . S
C133 H138 0.930 . S
C134 C135 1.333 . S
C134 N136 1.317 . S
C134 H139 0.930 . S
C135 C134 1.333 . S
C135 N137 1.350 . S
C135 H161 0.931 . S
N136 Co132 2.148 . S
N136 C133 1.301 . S
N136 C134 1.317 . S
N137 C133 1.328 . S
N137 C135 1.350 . S
H138 C133 0.930 . S
H139 C134 0.930 . S
C140 O141 1.224 . S
C140 O159 1.247 . S
O141 C140 1.224 . S
N142 Co132 2.128 . S
N142 C143 1.355 . S
N142 C145 1.311 . S
C143 N142 1.355 . S
C143 C144 1.363 . S
C143 H155 0.929 . S
C144 C143 1.363 . S
C144 N146 1.375 . S
C144 H162 0.931 . S
C145 N142 1.311 . S
C145 N146 1.347 . S
C145 H156 0.929 . S
N146 C144 1.375 . S
N146 C145 1.347 . S
C147 C150 1.365 . S
C147 N152 1.328 . S
C147 H153 0.929 . S
C148 C149 1.362 . S
C148 C151 1.378 . S
C148 H163 0.929 . S
C149 C148 1.362 . S
C149 C150 1.366 . S
C150 C147 1.365 . S
C150 C149 1.366 . S
C150 H164 0.930 . S
C151 C148 1.378 . S
C151 N152 1.315 . S
C151 H154 0.930 . S
N152 Co132 2.194 . S
N152 C147 1.328 . S
N152 C151 1.315 . S
H153 C147 0.929 . S
H154 C151 0.930 . S
H155 C143 0.929 . S
H156 C145 0.929 . S
O157 Co132 2.351 . S
O157 C160 1.244 . S
O158 Co132 2.155 . S
O158 C160 1.240 . S
O159 Co132 2.096 . S
O159 C140 1.247 . S
C160 O157 1.244 . S
C160 O158 1.240 . S
H161 C135 0.931 . S
H162 C144 0.931 . S
H163 C148 0.929 . S
H164 C150 0.930 . S
Co165 N169 2.148 . S
Co165 N175 2.128 . S
Co165 N185 2.194 . S
Co165 O190 2.351 . S
Co165 O191 2.155 . S
Co165 O192 2.096 . S
C166 N169 1.301 . S
C166 N170 1.328 . S
C166 H171 0.930 . S
C167 C168 1.333 . S
C167 N169 1.317 . S
C167 H172 0.930 . S
C168 C167 1.333 . S
C168 N170 1.350 . S
C168 H194 0.931 . S
N169 Co165 2.148 . S
N169 C166 1.301 . S
N169 C167 1.317 . S
N170 C166 1.328 . S
N170 C168 1.350 . S
H171 C166 0.930 . S
H172 C167 0.930 . S
C173 O174 1.224 . S
C173 O192 1.247 . S
O174 C173 1.224 . S
N175 Co165 2.128 . S
N175 C176 1.355 . S
N175 C178 1.311 . S
C176 N175 1.355 . S
C176 C177 1.363 . S
C176 H188 0.929 . S
C177 C176 1.363 . S
C177 N179 1.375 . S
C177 H195 0.931 . S
C178 N175 1.311 . S
C178 N179 1.347 . S
C178 H189 0.929 . S
N179 C177 1.375 . S
N179 C178 1.347 . S
C180 C183 1.365 . S
C180 N185 1.328 . S
C180 H186 0.929 . S
C181 C182 1.362 . S
C181 C184 1.378 . S
C181 H196 0.929 . S
C182 C181 1.362 . S
C182 C183 1.366 . S
C183 C180 1.365 . S
C183 C182 1.366 . S
C183 H197 0.930 . S
C184 C181 1.378 . S
C184 N185 1.315 . S
C184 H187 0.930 . S
N185 Co165 2.194 . S
N185 C180 1.328 . S
N185 C184 1.315 . S
H186 C180 0.929 . S
H187 C184 0.930 . S
H188 C176 0.929 . S
H189 C178 0.929 . S
O190 Co165 2.351 . S
O190 C193 1.244 . S
O191 Co165 2.155 . S
O191 C193 1.240 . S
O192 Co165 2.096 . S
O192 C173 1.247 . S
C193 O190 1.244 . S
C193 O191 1.240 . S
H194 C168 0.931 . S
H195 C177 0.931 . S
H196 C181 0.929 . S
H197 C183 0.930 . S
Co198 N202 2.148 . S
Co198 N208 2.128 . S
Co198 N218 2.194 . S
Co198 O223 2.351 . S
Co198 O224 2.155 . S
Co198 O225 2.096 . S
C199 N202 1.301 . S
C199 N203 1.328 . S
C199 H204 0.930 . S
C200 C201 1.333 . S
C200 N202 1.317 . S
C200 H205 0.930 . S
C201 C200 1.333 . S
C201 N203 1.350 . S
C201 H227 0.931 . S
N202 Co198 2.148 . S
N202 C199 1.301 . S
N202 C200 1.317 . S
N203 C199 1.328 . S
N203 C201 1.350 . S
H204 C199 0.930 . S
H205 C200 0.930 . S
C206 O207 1.224 . S
C206 O225 1.247 . S
O207 C206 1.224 . S
N208 Co198 2.128 . S
N208 C209 1.355 . S
N208 C211 1.311 . S
C209 N208 1.355 . S
C209 C210 1.363 . S
C209 H221 0.929 . S
C210 C209 1.363 . S
C210 N212 1.375 . S
C210 H228 0.931 . S
C211 N208 1.311 . S
C211 N212 1.347 . S
C211 H222 0.929 . S
N212 C210 1.375 . S
N212 C211 1.347 . S
C213 C216 1.365 . S
C213 N218 1.328 . S
C213 H219 0.929 . S
C214 C215 1.362 . S
C214 C217 1.378 . S
C214 H229 0.929 . S
C215 C214 1.362 . S
C215 C216 1.366 . S
C216 C213 1.365 . S
C216 C215 1.366 . S
C216 H230 0.930 . S
C217 C214 1.378 . S
C217 N218 1.315 . S
C217 H220 0.930 . S
N218 Co198 2.194 . S
N218 C213 1.328 . S
N218 C217 1.315 . S
H219 C213 0.929 . S
H220 C217 0.930 . S
H221 C209 0.929 . S
H222 C211 0.929 . S
O223 Co198 2.351 . S
O223 C226 1.244 . S
O224 Co198 2.155 . S
O224 C226 1.240 . S
O225 Co198 2.096 . S
O225 C206 1.247 . S
C226 O223 1.244 . S
C226 O224 1.240 . S
H227 C201 0.931 . S
H228 C210 0.931 . S
H229 C214 0.929 . S
H230 C216 0.930 . S
Co231 N235 2.148 . S
Co231 N241 2.128 . S
Co231 N251 2.194 . S
Co231 O256 2.351 . S
Co231 O257 2.155 . S
Co231 O258 2.096 . S
C232 N235 1.301 . S
C232 N236 1.328 . S
C232 H237 0.930 . S
C233 C234 1.333 . S
C233 N235 1.317 . S
C233 H238 0.930 . S
C234 C233 1.333 . S
C234 N236 1.350 . S
C234 H260 0.931 . S
N235 Co231 2.148 . S
N235 C232 1.301 . S
N235 C233 1.317 . S
N236 C232 1.328 . S
N236 C234 1.350 . S
H237 C232 0.930 . S
H238 C233 0.930 . S
C239 O240 1.224 . S
C239 O258 1.247 . S
O240 C239 1.224 . S
N241 Co231 2.128 . S
N241 C242 1.355 . S
N241 C244 1.311 . S
C242 N241 1.355 . S
C242 C243 1.363 . S
C242 H254 0.929 . S
C243 C242 1.363 . S
C243 N245 1.375 . S
C243 H261 0.931 . S
C244 N241 1.311 . S
C244 N245 1.347 . S
C244 H255 0.929 . S
N245 C243 1.375 . S
N245 C244 1.347 . S
C246 C249 1.365 . S
C246 N251 1.328 . S
C246 H252 0.929 . S
C247 C248 1.362 . S
C247 C250 1.378 . S
C247 H262 0.929 . S
C248 C247 1.362 . S
C248 C249 1.366 . S
C249 C246 1.365 . S
C249 C248 1.366 . S
C249 H263 0.930 . S
C250 C247 1.378 . S
C250 N251 1.315 . S
C250 H253 0.930 . S
N251 Co231 2.194 . S
N251 C246 1.328 . S
N251 C250 1.315 . S
H252 C246 0.929 . S
H253 C250 0.930 . S
H254 C242 0.929 . S
H255 C244 0.929 . S
O256 Co231 2.351 . S
O256 C259 1.244 . S
O257 Co231 2.155 . S
O257 C259 1.240 . S
O258 Co231 2.096 . S
O258 C239 1.247 . S
C259 O256 1.244 . S
C259 O257 1.240 . S
H260 C234 0.931 . S
H261 C243 0.931 . S
H262 C247 0.929 . S
H263 C249 0.930 . S
Co264 N268 2.148 . S
Co264 N274 2.128 . S
Co264 N284 2.194 . S
Co264 O289 2.351 . S
Co264 O290 2.155 . S
Co264 O291 2.096 . S
C265 N268 1.301 . S
C265 N269 1.328 . S
C265 H270 0.930 . S
C266 C267 1.333 . S
C266 N268 1.317 . S
C266 H271 0.930 . S
C267 C266 1.333 . S
C267 N269 1.350 . S
C267 H293 0.931 1_565 S
N268 Co264 2.148 . S
N268 C265 1.301 . S
N268 C266 1.317 . S
N269 C265 1.328 . S
N269 C267 1.350 . S
H270 C265 0.930 . S
H271 C266 0.930 . S
C272 O273 1.224 . S
C272 O291 1.247 . S
O273 C272 1.224 . S
N274 Co264 2.128 . S
N274 C275 1.355 . S
N274 C277 1.311 . S
C275 N274 1.355 . S
C275 C276 1.363 . S
C275 H287 0.929 . S
C276 C275 1.363 . S
C276 N278 1.375 . S
C276 H294 0.931 . S
C277 N274 1.311 . S
C277 N278 1.347 . S
C277 H288 0.929 . S
N278 C276 1.375 . S
N278 C277 1.347 . S
C279 C282 1.365 . S
C279 N284 1.328 . S
C279 H285 0.929 . S
C280 C281 1.362 . S
C280 C283 1.378 . S
C280 H295 0.929 . S
C281 C280 1.362 . S
C281 C282 1.366 . S
C282 C279 1.365 . S
C282 C281 1.366 . S
C282 H296 0.930 . S
C283 C280 1.378 . S
C283 N284 1.315 . S
C283 H286 0.930 . S
N284 Co264 2.194 . S
N284 C279 1.328 . S
N284 C283 1.315 . S
H285 C279 0.929 . S
H286 C283 0.930 . S
H287 C275 0.929 . S
H288 C277 0.929 . S
O289 Co264 2.351 . S
O289 C292 1.244 . S
O290 Co264 2.155 . S
O290 C292 1.240 . S
O291 Co264 2.096 . S
O291 C272 1.247 . S
C292 O289 1.244 . S
C292 O290 1.240 . S
H293 C267 0.931 1_545 S
H294 C276 0.931 . S
H295 C280 0.929 . S
H296 C282 0.930 . S
Co297 N301 2.148 . S
Co297 N307 2.128 . S
Co297 N317 2.194 . S
Co297 O322 2.351 . S
Co297 O323 2.155 . S
Co297 O324 2.096 . S
C298 N301 1.301 . S
C298 N302 1.328 . S
C298 H303 0.930 . S
C299 C300 1.333 . S
C299 N301 1.317 . S
C299 H304 0.930 . S
C300 C299 1.333 . S
C300 N302 1.350 . S
C300 H326 0.931 1_655 S
N301 Co297 2.148 . S
N301 C298 1.301 . S
N301 C299 1.317 . S
N302 C298 1.328 . S
N302 C300 1.350 . S
H303 C298 0.930 . S
H304 C299 0.930 . S
C305 O306 1.224 . S
C305 O324 1.247 . S
O306 C305 1.224 . S
N307 Co297 2.128 . S
N307 C308 1.355 . S
N307 C310 1.311 . S
C308 N307 1.355 . S
C308 C309 1.363 . S
C308 H320 0.929 . S
C309 C308 1.363 . S
C309 N311 1.375 . S
C309 H327 0.931 . S
C310 N307 1.311 . S
C310 N311 1.347 . S
C310 H321 0.929 . S
N311 C309 1.375 . S
N311 C310 1.347 . S
C312 C315 1.365 . S
C312 N317 1.328 . S
C312 H318 0.929 . S
C313 C314 1.362 . S
C313 C316 1.378 . S
C313 H328 0.929 . S
C314 C313 1.362 . S
C314 C315 1.366 . S
C315 C312 1.365 . S
C315 C314 1.366 . S
C315 H329 0.930 . S
C316 C313 1.378 . S
C316 N317 1.315 . S
C316 H319 0.930 . S
N317 Co297 2.194 . S
N317 C312 1.328 . S
N317 C316 1.315 . S
H318 C312 0.929 . S
H319 C316 0.930 . S
H320 C308 0.929 . S
H321 C310 0.929 . S
O322 Co297 2.351 . S
O322 C325 1.244 . S
O323 Co297 2.155 . S
O323 C325 1.240 . S
O324 Co297 2.096 . S
O324 C305 1.247 . S
C325 O322 1.244 . S
C325 O323 1.240 . S
H326 C300 0.931 1_455 S
H327 C309 0.931 . S
H328 C313 0.929 . S
H329 C315 0.930 . S
Co330 N334 2.148 . S
Co330 N340 2.128 . S
Co330 N350 2.194 . S
Co330 O355 2.351 . S
Co330 O356 2.155 . S
Co330 O357 2.096 . S
C331 N334 1.301 . S
C331 N335 1.328 . S
C331 H336 0.930 . S
C332 C333 1.333 . S
C332 N334 1.317 . S
C332 H337 0.930 . S
C333 C332 1.333 . S
C333 N335 1.350 . S
C333 H359 0.931 1_545 S
N334 Co330 2.148 . S
N334 C331 1.301 . S
N334 C332 1.317 . S
N335 C331 1.328 . S
N335 C333 1.350 . S
H336 C331 0.930 . S
H337 C332 0.930 . S
C338 O339 1.224 . S
C338 O357 1.247 . S
O339 C338 1.224 . S
N340 Co330 2.128 . S
N340 C341 1.355 . S
N340 C343 1.311 . S
C341 N340 1.355 . S
C341 C342 1.363 . S
C341 H353 0.929 . S
C342 C341 1.363 . S
C342 N344 1.375 . S
C342 H360 0.931 . S
C343 N340 1.311 . S
C343 N344 1.347 . S
C343 H354 0.929 . S
N344 C342 1.375 . S
N344 C343 1.347 . S
C345 C348 1.365 . S
C345 N350 1.328 . S
C345 H351 0.929 . S
C346 C347 1.362 . S
C346 C349 1.378 . S
C346 H361 0.929 . S
C347 C346 1.362 . S
C347 C348 1.366 . S
C348 C345 1.365 . S
C348 C347 1.366 . S
C348 H362 0.930 . S
C349 C346 1.378 . S
C349 N350 1.315 . S
C349 H352 0.930 . S
N350 Co330 2.194 . S
N350 C345 1.328 . S
N350 C349 1.315 . S
H351 C345 0.929 . S
H352 C349 0.930 . S
H353 C341 0.929 . S
H354 C343 0.929 . S
O355 Co330 2.351 . S
O355 C358 1.244 . S
O356 Co330 2.155 . S
O356 C358 1.240 . S
O357 Co330 2.096 . S
O357 C338 1.247 . S
C358 O355 1.244 . S
C358 O356 1.240 . S
H359 C333 0.931 1_565 S
H360 C342 0.931 . S
H361 C346 0.929 . S
H362 C348 0.930 . S
Co363 N367 2.148 . S
Co363 N373 2.128 . S
Co363 N383 2.194 . S
Co363 O388 2.351 . S
Co363 O389 2.155 . S
Co363 O390 2.096 . S
C364 N367 1.301 . S
C364 N368 1.328 . S
C364 H369 0.930 . S
C365 C366 1.333 . S
C365 N367 1.317 . S
C365 H370 0.930 . S
C366 C365 1.333 . S
C366 N368 1.350 . S
C366 H392 0.931 1_455 S
N367 Co363 2.148 . S
N367 C364 1.301 . S
N367 C365 1.317 . S
N368 C364 1.328 . S
N368 C366 1.350 . S
H369 C364 0.930 . S
H370 C365 0.930 . S
C371 O372 1.224 . S
C371 O390 1.247 . S
O372 C371 1.224 . S
N373 Co363 2.128 . S
N373 C374 1.355 . S
N373 C376 1.311 . S
C374 N373 1.355 . S
C374 C375 1.363 . S
C374 H386 0.929 . S
C375 C374 1.363 . S
C375 N377 1.375 . S
C375 H393 0.931 . S
C376 N373 1.311 . S
C376 N377 1.347 . S
C376 H387 0.929 . S
N377 C375 1.375 . S
N377 C376 1.347 . S
C378 C381 1.365 . S
C378 N383 1.328 . S
C378 H384 0.929 . S
C379 C380 1.362 . S
C379 C382 1.378 . S
C379 H394 0.929 . S
C380 C379 1.362 . S
C380 C381 1.366 . S
C381 C378 1.365 . S
C381 C380 1.366 . S
C381 H395 0.930 . S
C382 C379 1.378 . S
C382 N383 1.315 . S
C382 H385 0.930 . S
N383 Co363 2.194 . S
N383 C378 1.328 . S
N383 C382 1.315 . S
H384 C378 0.929 . S
H385 C382 0.930 . S
H386 C374 0.929 . S
H387 C376 0.929 . S
O388 Co363 2.351 . S
O388 C391 1.244 . S
O389 Co363 2.155 . S
O389 C391 1.240 . S
O390 Co363 2.096 . S
O390 C371 1.247 . S
C391 O388 1.244 . S
C391 O389 1.240 . S
H392 C366 0.931 1_655 S
H393 C375 0.931 . S
H394 C379 0.929 . S
H395 C381 0.930 . S
Co396 N400 2.148 . S
Co396 N406 2.128 . S
Co396 N416 2.194 . S
Co396 O421 2.351 . S
Co396 O422 2.155 . S
Co396 O423 2.096 . S
C397 N400 1.301 . S
C397 N401 1.328 . S
C397 H402 0.930 . S
C398 C399 1.333 . S
C398 N400 1.317 . S
C398 H403 0.930 . S
C399 C398 1.333 . S
C399 N401 1.350 . S
C399 H425 0.931 1_545 S
N400 Co396 2.148 . S
N400 C397 1.301 . S
N400 C398 1.317 . S
N401 C397 1.328 . S
N401 C399 1.350 . S
H402 C397 0.930 . S
H403 C398 0.930 . S
C404 O405 1.224 . S
C404 O423 1.247 . S
O405 C404 1.224 . S
N406 Co396 2.128 . S
N406 C407 1.355 . S
N406 C409 1.311 . S
C407 N406 1.355 . S
C407 C408 1.363 . S
C407 H419 0.929 . S
C408 C407 1.363 . S
C408 N410 1.375 . S
C408 H426 0.931 . S
C409 N406 1.311 . S
C409 N410 1.347 . S
C409 H420 0.929 . S
N410 C408 1.375 . S
N410 C409 1.347 . S
C411 C414 1.365 . S
C411 N416 1.328 . S
C411 H417 0.929 . S
C412 C413 1.362 . S
C412 C415 1.378 . S
C412 H427 0.929 . S
C413 C412 1.362 . S
C413 C414 1.366 . S
C414 C411 1.365 . S
C414 C413 1.366 . S
C414 H428 0.930 . S
C415 C412 1.378 . S
C415 N416 1.315 . S
C415 H418 0.930 . S
N416 Co396 2.194 . S
N416 C411 1.328 . S
N416 C415 1.315 . S
H417 C411 0.929 . S
H418 C415 0.930 . S
H419 C407 0.929 . S
H420 C409 0.929 . S
O421 Co396 2.351 . S
O421 C424 1.244 . S
O422 Co396 2.155 . S
O422 C424 1.240 . S
O423 Co396 2.096 . S
O423 C404 1.247 . S
C424 O421 1.244 . S
C424 O422 1.240 . S
H425 C399 0.931 1_565 S
H426 C408 0.931 . S
H427 C412 0.929 . S
H428 C414 0.930 . S
Co429 N433 2.148 . S
Co429 N439 2.128 . S
Co429 N449 2.194 . S
Co429 O454 2.351 . S
Co429 O455 2.155 . S
Co429 O456 2.096 . S
C430 N433 1.301 . S
C430 N434 1.328 . S
C430 H435 0.930 . S
C431 C432 1.333 . S
C431 N433 1.317 . S
C431 H436 0.930 . S
C432 C431 1.333 . S
C432 N434 1.350 . S
C432 H458 0.931 1_455 S
N433 Co429 2.148 . S
N433 C430 1.301 . S
N433 C431 1.317 . S
N434 C430 1.328 . S
N434 C432 1.350 . S
H435 C430 0.930 . S
H436 C431 0.930 . S
C437 O438 1.224 . S
C437 O456 1.247 . S
O438 C437 1.224 . S
N439 Co429 2.128 . S
N439 C440 1.355 . S
N439 C442 1.311 . S
C440 N439 1.355 . S
C440 C441 1.363 . S
C440 H452 0.929 . S
C441 C440 1.363 . S
C441 N443 1.375 . S
C441 H459 0.931 . S
C442 N439 1.311 . S
C442 N443 1.347 . S
C442 H453 0.929 . S
N443 C441 1.375 . S
N443 C442 1.347 . S
C444 C447 1.365 . S
C444 N449 1.328 . S
C444 H450 0.929 . S
C445 C446 1.362 . S
C445 C448 1.378 . S
C445 H460 0.929 . S
C446 C445 1.362 . S
C446 C447 1.366 . S
C447 C444 1.365 . S
C447 C446 1.366 . S
C447 H461 0.930 . S
C448 C445 1.378 . S
C448 N449 1.315 . S
C448 H451 0.930 . S
N449 Co429 2.194 . S
N449 C444 1.328 . S
N449 C448 1.315 . S
H450 C444 0.929 . S
H451 C448 0.930 . S
H452 C440 0.929 . S
H453 C442 0.929 . S
O454 Co429 2.351 . S
O454 C457 1.244 . S
O455 Co429 2.155 . S
O455 C457 1.240 . S
O456 Co429 2.096 . S
O456 C437 1.247 . S
C457 O454 1.244 . S
C457 O455 1.240 . S
H458 C432 0.931 1_655 S
H459 C441 0.931 . S
H460 C445 0.929 . S
H461 C447 0.930 . S
Co462 N466 2.148 . S
Co462 N472 2.128 . S
Co462 N482 2.194 . S
Co462 O487 2.351 . S
Co462 O488 2.155 . S
Co462 O489 2.096 . S
C463 N466 1.301 . S
C463 N467 1.328 . S
C463 H468 0.930 . S
C464 C465 1.333 . S
C464 N466 1.317 . S
C464 H469 0.930 . S
C465 C464 1.333 . S
C465 N467 1.350 . S
C465 H491 0.931 1_565 S
N466 Co462 2.148 . S
N466 C463 1.301 . S
N466 C464 1.317 . S
N467 C463 1.328 . S
N467 C465 1.350 . S
H468 C463 0.930 . S
H469 C464 0.930 . S
C470 O471 1.224 . S
C470 O489 1.247 . S
O471 C470 1.224 . S
N472 Co462 2.128 . S
N472 C473 1.355 . S
N472 C475 1.311 . S
C473 N472 1.355 . S
C473 C474 1.363 . S
C473 H485 0.929 . S
C474 C473 1.363 . S
C474 N476 1.375 . S
C474 H492 0.931 . S
C475 N472 1.311 . S
C475 N476 1.347 . S
C475 H486 0.929 . S
N476 C474 1.375 . S
N476 C475 1.347 . S
C477 C480 1.365 . S
C477 N482 1.328 . S
C477 H483 0.929 . S
C478 C479 1.362 . S
C478 C481 1.378 . S
C478 H493 0.929 . S
C479 C478 1.362 . S
C479 C480 1.366 . S
C480 C477 1.365 . S
C480 C479 1.366 . S
C480 H494 0.930 . S
C481 C478 1.378 . S
C481 N482 1.315 . S
C481 H484 0.930 . S
N482 Co462 2.194 . S
N482 C477 1.328 . S
N482 C481 1.315 . S
H483 C477 0.929 . S
H484 C481 0.930 . S
H485 C473 0.929 . S
H486 C475 0.929 . S
O487 Co462 2.351 . S
O487 C490 1.244 . S
O488 Co462 2.155 . S
O488 C490 1.240 . S
O489 Co462 2.096 . S
O489 C470 1.247 . S
C490 O487 1.244 . S
C490 O488 1.240 . S
H491 C465 0.931 1_545 S
H492 C474 0.931 . S
H493 C478 0.929 . S
H494 C480 0.930 . S
Co495 N499 2.148 . S
Co495 N505 2.128 . S
Co495 N515 2.194 . S
Co495 O520 2.351 . S
Co495 O521 2.155 . S
Co495 O522 2.096 . S
C496 N499 1.301 . S
C496 N500 1.328 . S
C496 H501 0.930 . S
C497 C498 1.333 . S
C497 N499 1.317 . S
C497 H502 0.930 . S
C498 C497 1.333 . S
C498 N500 1.350 . S
C498 H524 0.931 1_655 S
N499 Co495 2.148 . S
N499 C496 1.301 . S
N499 C497 1.317 . S
N500 C496 1.328 . S
N500 C498 1.350 . S
H501 C496 0.930 . S
H502 C497 0.930 . S
C503 O504 1.224 . S
C503 O522 1.247 . S
O504 C503 1.224 . S
N505 Co495 2.128 . S
N505 C506 1.355 . S
N505 C508 1.311 . S
C506 N505 1.355 . S
C506 C507 1.363 . S
C506 H518 0.929 . S
C507 C506 1.363 . S
C507 N509 1.375 . S
C507 H525 0.931 . S
C508 N505 1.311 . S
C508 N509 1.347 . S
C508 H519 0.929 . S
N509 C507 1.375 . S
N509 C508 1.347 . S
C510 C513 1.365 . S
C510 N515 1.328 . S
C510 H516 0.929 . S
C511 C512 1.362 . S
C511 C514 1.378 . S
C511 H526 0.929 . S
C512 C511 1.362 . S
C512 C513 1.366 . S
C513 C510 1.365 . S
C513 C512 1.366 . S
C513 H527 0.930 . S
C514 C511 1.378 . S
C514 N515 1.315 . S
C514 H517 0.930 . S
N515 Co495 2.194 . S
N515 C510 1.328 . S
N515 C514 1.315 . S
H516 C510 0.929 . S
H517 C514 0.930 . S
H518 C506 0.929 . S
H519 C508 0.929 . S
O520 Co495 2.351 . S
O520 C523 1.244 . S
O521 Co495 2.155 . S
O521 C523 1.240 . S
O522 Co495 2.096 . S
O522 C503 1.247 . S
C523 O520 1.244 . S
C523 O521 1.240 . S
H524 C498 0.931 1_455 S
H525 C507 0.931 . S
H526 C511 0.929 . S
H527 C513 0.930 . S
H528 C546 0.951 . S
H529 C548 0.951 . S
H530 C550 0.950 . S
H531 C551 0.950 . S
H532 C553 0.950 . S
H533 C556 0.950 . S
H534 C557 0.950 . S
H535 C559 0.950 . S
H536 C560 0.950 . S
H537 C561 0.951 . S
H538 C563 0.951 . S
H539 C565 0.950 . S
H540 C566 0.950 . S
H541 C568 0.950 . S
H542 C571 0.950 . S
H543 C572 0.950 . S
H544 C574 0.950 . S
H545 C575 0.950 . S
C546 H528 0.951 . S
C546 C547 1.366 . S
C546 C548 1.388 . S
C547 C546 1.366 . S
C547 C551 1.385 . S
C548 H529 0.951 . S
C548 C546 1.388 . S
C548 C549 1.366 . S
C549 C548 1.366 . S
C549 C550 1.414 . S
C549 C552 1.499 . S
C550 H530 0.950 . S
C550 C549 1.414 . S
C550 C551 1.374 . S
C551 H531 0.950 . S
C551 C547 1.385 . S
C551 C550 1.374 . S
C552 C549 1.499 . S
C552 C553 1.365 1_655 S
C552 C554 1.389 . S
C553 H532 0.950 . S
C553 C552 1.365 1_455 S
C553 C569 1.384 . S
C554 C552 1.389 . S
C554 C555 1.524 . S
C554 C568 1.384 . S
C555 C554 1.524 . S
C555 C556 1.397 . S
C555 C560 1.363 . S
C556 H533 0.950 . S
C556 C555 1.397 . S
C556 C557 1.334 . S
C557 H534 0.950 . S
C557 C556 1.334 . S
C557 C558 1.287 . S
C558 C557 1.287 . S
C558 C559 1.524 . S
C558 H577 0.913 . S
C559 H535 0.950 . S
C559 C558 1.524 . S
C559 C560 1.415 . S
C560 H536 0.950 . S
C560 C555 1.363 . S
C560 C559 1.415 . S
C561 H537 0.951 . S
C561 C562 1.366 . S
C561 C563 1.388 . S
C562 C561 1.366 . S
C562 C566 1.385 . S
C563 H538 0.951 . S
C563 C561 1.388 . S
C563 C564 1.366 . S
C564 C563 1.366 . S
C564 C565 1.414 . S
C564 C567 1.499 . S
C565 H539 0.950 . S
C565 C564 1.414 . S
C565 C566 1.374 . S
C566 H540 0.950 . S
C566 C562 1.385 . S
C566 C565 1.374 . S
C567 C564 1.499 . S
C567 C568 1.365 1_455 S
C567 C569 1.389 . S
C568 H541 0.950 . S
C568 C554 1.384 . S
C568 C567 1.365 1_655 S
C569 C553 1.384 . S
C569 C567 1.389 . S
C569 C570 1.524 . S
C570 C569 1.524 . S
C570 C571 1.397 . S
C570 C575 1.363 . S
C571 H542 0.950 . S
C571 C570 1.397 . S
C571 C572 1.334 . S
C572 H543 0.950 . S
C572 C571 1.334 . S
C572 C573 1.287 . S
C573 C572 1.287 . S
C573 C574 1.524 . S
C573 H576 0.999 . S
C574 H544 0.950 . S
C574 C573 1.524 . S
C574 C575 1.415 . S
C575 H545 0.950 . S
C575 C570 1.363 . S
C575 C574 1.415 . S
H576 C573 0.999 . S
H577 C558 0.913 . S
H578 C596 0.951 . S
H579 C598 0.951 . S
H580 C600 0.950 . S
H581 C601 0.950 . S
H582 C603 0.950 . S
H583 C606 0.950 . S
H584 C607 0.950 . S
H585 C609 0.950 . S
H586 C610 0.950 . S
H587 C611 0.951 . S
H588 C613 0.951 . S
H589 C615 0.950 . S
H590 C616 0.950 . S
H591 C618 0.950 . S
H592 C621 0.950 . S
H593 C622 0.950 . S
H594 C624 0.950 . S
H595 C625 0.950 . S
C596 H578 0.951 . S
C596 C597 1.366 . S
C596 C598 1.388 . S
C597 C596 1.366 . S
C597 C601 1.385 . S
C598 H579 0.951 . S
C598 C596 1.388 . S
C598 C599 1.366 . S
C599 C598 1.366 . S
C599 C600 1.414 . S
C599 C602 1.499 . S
C600 H580 0.950 . S
C600 C599 1.414 . S
C600 C601 1.374 . S
C601 H581 0.950 . S
C601 C597 1.385 . S
C601 C600 1.374 . S
C602 C599 1.499 . S
C602 C603 1.373 . S
C602 C604 1.389 . S
C603 H582 0.950 . S
C603 C602 1.373 . S
C603 C619 1.377 1_545 S
C604 C602 1.389 . S
C604 C605 1.524 . S
C604 C618 1.377 1_545 S
C605 C604 1.524 . S
C605 C606 1.397 . S
C605 C610 1.363 . S
C606 H583 0.950 . S
C606 C605 1.397 . S
C606 C607 1.334 . S
C607 H584 0.950 . S
C607 C606 1.334 . S
C607 C608 1.287 . S
C608 C607 1.287 . S
C608 C609 1.524 . S
C608 H627 0.913 . S
C609 H585 0.950 . S
C609 C608 1.524 . S
C609 C610 1.415 . S
C610 H586 0.950 . S
C610 C605 1.363 . S
C610 C609 1.415 . S
C611 H587 0.951 . S
C611 C612 1.366 . S
C611 C613 1.388 . S
C612 C611 1.366 . S
C612 C616 1.385 . S
C613 H588 0.951 . S
C613 C611 1.388 . S
C613 C614 1.366 . S
C614 C613 1.366 . S
C614 C615 1.414 . S
C614 C617 1.499 . S
C615 H589 0.950 . S
C615 C614 1.414 . S
C615 C616 1.374 . S
C616 H590 0.950 . S
C616 C612 1.385 . S
C616 C615 1.374 . S
C617 C614 1.499 . S
C617 C618 1.373 . S
C617 C619 1.389 . S
C618 H591 0.950 . S
C618 C604 1.377 1_565 S
C618 C617 1.373 . S
C619 C603 1.377 1_565 S
C619 C617 1.389 . S
C619 C620 1.524 . S
C620 C619 1.524 . S
C620 C621 1.397 . S
C620 C625 1.363 . S
C621 H592 0.950 . S
C621 C620 1.397 . S
C621 C622 1.334 . S
C622 H593 0.950 . S
C622 C621 1.334 . S
C622 C623 1.287 . S
C623 C622 1.287 . S
C623 C624 1.524 . S
C623 H626 0.999 . S
C624 H594 0.950 . S
C624 C623 1.524 . S
C624 C625 1.415 . S
C625 H595 0.950 . S
C625 C620 1.363 . S
C625 C624 1.415 . S
H626 C623 0.999 . S
H627 C608 0.913 . S
H628 C646 0.951 . S
H629 C648 0.951 . S
H630 C650 0.950 . S
H631 C651 0.950 . S
H632 C653 0.950 . S
H633 C656 0.950 . S
H634 C657 0.950 . S
H635 C659 0.950 . S
H636 C660 0.950 . S
H637 C661 0.951 . S
H638 C663 0.951 . S
H639 C665 0.950 . S
H640 C666 0.950 . S
H641 C668 0.950 . S
H642 C671 0.950 . S
H643 C672 0.950 . S
H644 C674 0.950 . S
H645 C675 0.950 . S
C646 H628 0.951 . S
C646 C647 1.366 . S
C646 C648 1.388 . S
C647 C646 1.366 . S
C647 C651 1.385 . S
C648 H629 0.951 . S
C648 C646 1.388 . S
C648 C649 1.366 . S
C649 C648 1.366 . S
C649 C650 1.414 . S
C649 C652 1.499 . S
C650 H630 0.950 . S
C650 C649 1.414 . S
C650 C651 1.374 . S
C651 H631 0.950 . S
C651 C647 1.385 . S
C651 C650 1.374 . S
C652 C649 1.499 . S
C652 C653 1.373 . S
C652 C654 1.389 1_655 S
C653 H632 0.950 . S
C653 C652 1.373 . S
C653 C669 1.377 . S
C654 C652 1.389 1_455 S
C654 C655 1.524 . S
C654 C668 1.377 . S
C655 C654 1.524 . S
C655 C656 1.397 1_455 S
C655 C660 1.363 . S
C656 H633 0.950 . S
C656 C655 1.397 1_655 S
C656 C657 1.334 . S
C657 H634 0.950 . S
C657 C656 1.334 . S
C657 C658 1.287 1_655 S
C658 C657 1.287 1_455 S
C658 C659 1.524 . S
C658 H677 0.913 . S
C659 H635 0.950 . S
C659 C658 1.524 . S
C659 C660 1.415 . S
C660 H636 0.950 . S
C660 C655 1.363 . S
C660 C659 1.415 . S
C661 H637 0.951 . S
C661 C662 1.366 . S
C661 C663 1.388 . S
C662 C661 1.366 . S
C662 C666 1.385 . S
C663 H638 0.951 . S
C663 C661 1.388 . S
C663 C664 1.366 . S
C664 C663 1.366 . S
C664 C665 1.414 . S
C664 C667 1.499 . S
C665 H639 0.950 . S
C665 C664 1.414 . S
C665 C666 1.374 . S
C666 H640 0.950 . S
C666 C662 1.385 . S
C666 C665 1.374 . S
C667 C664 1.499 . S
C667 C668 1.373 . S
C667 C669 1.389 1_455 S
C668 H641 0.950 . S
C668 C654 1.377 . S
C668 C667 1.373 . S
C669 C653 1.377 . S
C669 C667 1.389 1_655 S
C669 C670 1.524 . S
C670 C669 1.524 . S
C670 C671 1.397 1_655 S
C670 C675 1.363 . S
C671 H642 0.950 . S
C671 C670 1.397 1_455 S
C671 C672 1.334 . S
C672 H643 0.950 . S
C672 C671 1.334 . S
C672 C673 1.287 1_455 S
C673 C672 1.287 1_655 S
C673 C674 1.524 . S
C673 H676 0.999 . S
C674 H644 0.950 . S
C674 C673 1.524 . S
C674 C675 1.415 . S
C675 H645 0.950 . S
C675 C670 1.363 . S
C675 C674 1.415 . S
H676 C673 0.999 . S
H677 C658 0.913 . S
H678 C696 0.951 . S
H679 C698 0.951 . S
H680 C700 0.950 . S
H681 C701 0.950 . S
H682 C703 0.950 . S
H683 C706 0.950 . S
H684 C707 0.950 . S
H685 C709 0.950 . S
H686 C710 0.950 . S
H687 C711 0.951 . S
H688 C713 0.951 . S
H689 C715 0.950 . S
H690 C716 0.950 . S
H691 C718 0.950 . S
H692 C721 0.950 . S
H693 C722 0.950 . S
H694 C724 0.950 . S
H695 C725 0.950 . S
C696 H678 0.951 . S
C696 C697 1.366 . S
C696 C698 1.388 . S
C697 C696 1.366 . S
C697 C701 1.385 . S
C698 H679 0.951 . S
C698 C696 1.388 . S
C698 C699 1.366 . S
C699 C698 1.366 . S
C699 C700 1.414 . S
C699 C702 1.499 . S
C700 H680 0.950 . S
C700 C699 1.414 . S
C700 C701 1.374 . S
C701 H681 0.950 . S
C701 C697 1.385 . S
C701 C700 1.374 . S
C702 C699 1.499 . S
C702 C703 1.373 . S
C702 C704 1.389 . S
C703 H682 0.950 . S
C703 C702 1.373 . S
C703 C719 1.377 1_565 S
C704 C702 1.389 . S
C704 C705 1.524 . S
C704 C718 1.377 1_565 S
C705 C704 1.524 . S
C705 C706 1.397 . S
C705 C710 1.363 1_565 S
C706 H683 0.950 . S
C706 C705 1.397 . S
C706 C707 1.334 . S
C707 H684 0.950 . S
C707 C706 1.334 . S
C707 C708 1.287 . S
C708 C707 1.287 . S
C708 C709 1.524 1_565 S
C708 H727 0.913 . S
C709 H685 0.950 . S
C709 C708 1.524 1_545 S
C709 C710 1.415 . S
C710 H686 0.950 . S
C710 C705 1.363 1_545 S
C710 C709 1.415 . S
C711 H687 0.951 . S
C711 C712 1.366 . S
C711 C713 1.388 . S
C712 C711 1.366 . S
C712 C716 1.385 . S
C713 H688 0.951 . S
C713 C711 1.388 . S
C713 C714 1.366 . S
C714 C713 1.366 . S
C714 C715 1.414 . S
C714 C717 1.499 . S
C715 H689 0.950 . S
C715 C714 1.414 . S
C715 C716 1.374 . S
C716 H690 0.950 . S
C716 C712 1.385 . S
C716 C715 1.374 . S
C717 C714 1.499 . S
C717 C718 1.373 . S
C717 C719 1.389 . S
C718 H691 0.950 . S
C718 C704 1.377 1_545 S
C718 C717 1.373 . S
C719 C703 1.377 1_545 S
C719 C717 1.389 . S
C719 C720 1.524 . S
C720 C719 1.524 . S
C720 C721 1.397 . S
C720 C725 1.363 1_545 S
C721 H692 0.950 . S
C721 C720 1.397 . S
C721 C722 1.334 . S
C722 H693 0.950 . S
C722 C721 1.334 . S
C722 C723 1.287 . S
C723 C722 1.287 . S
C723 C724 1.524 1_545 S
C723 H726 0.999 . S
C724 H694 0.950 . S
C724 C723 1.524 1_565 S
C724 C725 1.415 . S
C725 H695 0.950 . S
C725 C720 1.363 1_565 S
C725 C724 1.415 . S
H726 C723 0.999 . S
H727 C708 0.913 . S
H728 C746 0.951 . S
H729 C748 0.951 . S
H730 C750 0.950 . S
H731 C751 0.950 . S
H732 C753 0.950 . S
H733 C756 0.950 . S
H734 C757 0.950 . S
H735 C759 0.950 . S
H736 C760 0.950 . S
H737 C761 0.951 . S
H738 C763 0.951 . S
H739 C765 0.950 . S
H740 C766 0.950 . S
H741 C768 0.950 . S
H742 C771 0.950 . S
H743 C772 0.950 . S
H744 C774 0.950 . S
H745 C775 0.950 . S
C746 H728 0.951 . S
C746 C747 1.366 . S
C746 C748 1.388 . S
C747 C746 1.366 . S
C747 C751 1.385 . S
C748 H729 0.951 . S
C748 C746 1.388 . S
C748 C749 1.366 . S
C749 C748 1.366 . S
C749 C750 1.414 . S
C749 C752 1.499 . S
C750 H730 0.950 . S
C750 C749 1.414 . S
C750 C751 1.374 . S
C751 H731 0.950 . S
C751 C747 1.385 . S
C751 C750 1.374 . S
C752 C749 1.499 . S
C752 C753 1.373 . S
C752 C754 1.375 1_565 S
C753 H732 0.950 . S
C753 C752 1.373 . S
C753 C769 1.391 . S
C754 C752 1.375 1_545 S
C754 C755 1.525 . S
C754 C768 1.391 . S
C755 C754 1.525 . S
C755 C756 1.397 1_545 S
C755 C760 1.363 . S
C756 H733 0.950 . S
C756 C755 1.397 1_565 S
C756 C757 1.334 . S
C757 H734 0.950 . S
C757 C756 1.334 . S
C757 C758 1.323 . S
C758 C757 1.323 . S
C758 C759 1.486 1_565 S
C758 H777 0.916 . S
C759 H735 0.950 . S
C759 C758 1.486 1_545 S
C759 C760 1.415 . S
C760 H736 0.950 . S
C760 C755 1.363 . S
C760 C759 1.415 . S
C761 H737 0.951 . S
C761 C762 1.366 . S
C761 C763 1.388 . S
C762 C761 1.366 . S
C762 C766 1.385 . S
C763 H738 0.951 . S
C763 C761 1.388 . S
C763 C764 1.366 . S
C764 C763 1.366 . S
C764 C765 1.414 . S
C764 C767 1.499 . S
C765 H739 0.950 . S
C765 C764 1.414 . S
C765 C766 1.374 . S
C766 H740 0.950 . S
C766 C762 1.385 . S
C766 C765 1.374 . S
C767 C764 1.499 . S
C767 C768 1.373 . S
C767 C769 1.375 1_545 S
C768 H741 0.950 . S
C768 C754 1.391 . S
C768 C767 1.373 . S
C769 C753 1.391 . S
C769 C767 1.375 1_565 S
C769 C770 1.525 . S
C770 C769 1.525 . S
C770 C771 1.397 1_565 S
C770 C775 1.363 . S
C771 H742 0.950 . S
C771 C770 1.397 1_545 S
C771 C772 1.334 . S
C772 H743 0.950 . S
C772 C771 1.334 . S
C772 C773 1.323 . S
C773 C772 1.323 . S
C773 C774 1.486 1_545 S
C773 H776 0.999 . S
C774 H744 0.950 . S
C774 C773 1.486 1_565 S
C774 C775 1.415 . S
C775 H745 0.950 . S
C775 C770 1.363 . S
C775 C774 1.415 . S
H776 C773 0.999 . S
H777 C758 0.916 . S
H778 C796 0.951 . S
H779 C798 0.951 . S
H780 C800 0.950 . S
H781 C801 0.950 . S
H782 C803 0.950 . S
H783 C806 0.950 1_655 S
H784 C807 0.950 . S
H785 C809 0.950 . S
H786 C810 0.950 . S
H787 C811 0.951 . S
H788 C813 0.951 . S
H789 C815 0.950 . S
H790 C816 0.950 . S
H791 C818 0.950 . S
H792 C821 0.950 1_455 S
H793 C822 0.950 . S
H794 C824 0.950 . S
H795 C825 0.950 . S
C796 H778 0.951 . S
C796 C797 1.366 . S
C796 C798 1.388 . S
C797 C796 1.366 . S
C797 C801 1.385 . S
C798 H779 0.951 . S
C798 C796 1.388 . S
C798 C799 1.366 . S
C799 C798 1.366 . S
C799 C800 1.414 . S
C799 C802 1.499 . S
C800 H780 0.950 . S
C800 C799 1.414 . S
C800 C801 1.374 . S
C801 H781 0.950 . S
C801 C797 1.385 . S
C801 C800 1.374 . S
C802 C799 1.499 . S
C802 C803 1.373 . S
C802 C804 1.389 1_655 S
C803 H782 0.950 . S
C803 C802 1.373 . S
C803 C819 1.377 . S
C804 C802 1.389 1_455 S
C804 C805 1.524 . S
C804 C818 1.377 . S
C805 C804 1.524 . S
C805 C806 1.397 . S
C805 C810 1.363 . S
C806 H783 0.950 1_455 S
C806 C805 1.397 . S
C806 C807 1.334 . S
C807 H784 0.950 . S
C807 C806 1.334 . S
C807 C808 1.287 . S
C808 C807 1.287 . S
C808 C809 1.524 . S
C808 H827 0.913 . S
C809 H785 0.950 . S
C809 C808 1.524 . S
C809 C810 1.415 . S
C810 H786 0.950 . S
C810 C805 1.363 . S
C810 C809 1.415 . S
C811 H787 0.951 . S
C811 C812 1.366 . S
C811 C813 1.388 . S
C812 C811 1.366 . S
C812 C816 1.385 . S
C813 H788 0.951 . S
C813 C811 1.388 . S
C813 C814 1.366 . S
C814 C813 1.366 . S
C814 C815 1.414 . S
C814 C817 1.499 . S
C815 H789 0.950 . S
C815 C814 1.414 . S
C815 C816 1.374 . S
C816 H790 0.950 . S
C816 C812 1.385 . S
C816 C815 1.374 . S
C817 C814 1.499 . S
C817 C818 1.373 . S
C817 C819 1.389 1_455 S
C818 H791 0.950 . S
C818 C804 1.377 . S
C818 C817 1.373 . S
C819 C803 1.377 . S
C819 C817 1.389 1_655 S
C819 C820 1.524 . S
C820 C819 1.524 . S
C820 C821 1.397 . S
C820 C825 1.363 . S
C821 H792 0.950 1_655 S
C821 C820 1.397 . S
C821 C822 1.334 . S
C822 H793 0.950 . S
C822 C821 1.334 . S
C822 C823 1.287 . S
C823 C822 1.287 . S
C823 C824 1.524 . S
C823 H826 0.999 . S
C824 H794 0.950 . S
C824 C823 1.524 . S
C824 C825 1.415 . S
C825 H795 0.950 . S
C825 C820 1.363 . S
C825 C824 1.415 . S
H826 C823 0.999 . S
H827 C808 0.913 . S
H828 C846 0.951 . S
H829 C848 0.951 . S
H830 C850 0.950 . S
H831 C851 0.950 . S
H832 C853 0.950 . S
H833 C856 0.950 . S
H834 C857 0.950 . S
H835 C859 0.950 . S
H836 C860 0.950 . S
H837 C861 0.951 . S
H838 C863 0.951 . S
H839 C865 0.950 . S
H840 C866 0.950 . S
H841 C868 0.950 . S
H842 C871 0.950 . S
H843 C872 0.950 . S
H844 C874 0.950 . S
H845 C875 0.950 . S
C846 H828 0.951 . S
C846 C847 1.366 . S
C846 C848 1.388 . S
C847 C846 1.366 . S
C847 C851 1.385 . S
C848 H829 0.951 . S
C848 C846 1.388 . S
C848 C849 1.366 . S
C849 C848 1.366 . S
C849 C850 1.414 . S
C849 C852 1.499 . S
C850 H830 0.950 . S
C850 C849 1.414 . S
C850 C851 1.374 . S
C851 H831 0.950 . S
C851 C847 1.385 . S
C851 C850 1.374 . S
C852 C849 1.499 . S
C852 C853 1.373 . S
C852 C854 1.389 1_565 S
C853 H832 0.950 . S
C853 C852 1.373 . S
C853 C869 1.377 . S
C854 C852 1.389 1_545 S
C854 C855 1.524 . S
C854 C868 1.377 . S
C855 C854 1.524 . S
C855 C856 1.397 1_545 S
C855 C860 1.363 . S
C856 H833 0.950 . S
C856 C855 1.397 1_565 S
C856 C857 1.334 . S
C857 H834 0.950 . S
C857 C856 1.334 . S
C857 C858 1.287 1_565 S
C858 C857 1.287 1_545 S
C858 C859 1.524 . S
C858 H877 0.913 . S
C859 H835 0.950 . S
C859 C858 1.524 . S
C859 C860 1.415 . S
C860 H836 0.950 . S
C860 C855 1.363 . S
C860 C859 1.415 . S
C861 H837 0.951 . S
C861 C862 1.366 . S
C861 C863 1.388 . S
C862 C861 1.366 . S
C862 C866 1.385 . S
C863 H838 0.951 . S
C863 C861 1.388 . S
C863 C864 1.366 . S
C864 C863 1.366 . S
C864 C865 1.414 . S
C864 C867 1.499 . S
C865 H839 0.950 . S
C865 C864 1.414 . S
C865 C866 1.374 . S
C866 H840 0.950 . S
C866 C862 1.385 . S
C866 C865 1.374 . S
C867 C864 1.499 . S
C867 C868 1.373 . S
C867 C869 1.389 1_545 S
C868 H841 0.950 . S
C868 C854 1.377 . S
C868 C867 1.373 . S
C869 C853 1.377 . S
C869 C867 1.389 1_565 S
C869 C870 1.524 . S
C870 C869 1.524 . S
C870 C871 1.397 1_565 S
C870 C875 1.363 . S
C871 H842 0.950 . S
C871 C870 1.397 1_545 S
C871 C872 1.334 . S
C872 H843 0.950 . S
C872 C871 1.334 . S
C872 C873 1.287 1_545 S
C873 C872 1.287 1_565 S
C873 C874 1.524 . S
C873 H876 0.999 . S
C874 H844 0.950 . S
C874 C873 1.524 . S
C874 C875 1.415 . S
C875 H845 0.950 . S
C875 C870 1.363 . S
C875 C874 1.415 . S
H876 C873 0.999 . S
H877 C858 0.913 . S
H878 C896 0.951 . S
H879 C898 0.951 . S
H880 C900 0.950 . S
H881 C901 0.950 . S
H882 C903 0.950 . S
H883 C906 0.950 . S
H884 C907 0.950 . S
H885 C909 0.950 . S
H886 C910 0.950 . S
H887 C911 0.951 . S
H888 C913 0.951 . S
H889 C915 0.950 . S
H890 C916 0.950 . S
H891 C918 0.950 . S
H892 C921 0.950 . S
H893 C922 0.950 . S
H894 C924 0.950 . S
H895 C925 0.950 . S
C896 H878 0.951 . S
C896 C897 1.366 . S
C896 C898 1.388 . S
C897 C896 1.366 . S
C897 C901 1.385 . S
C898 H879 0.951 . S
C898 C896 1.388 . S
C898 C899 1.366 . S
C899 C898 1.366 . S
C899 C900 1.414 . S
C899 C902 1.499 . S
C900 H880 0.950 . S
C900 C899 1.414 . S
C900 C901 1.374 . S
C901 H881 0.950 . S
C901 C897 1.385 . S
C901 C900 1.374 . S
C902 C899 1.499 . S
C902 C903 1.373 1_655 S
C902 C904 1.389 . S
C903 H882 0.950 . S
C903 C902 1.373 1_455 S
C903 C919 1.377 . S
C904 C902 1.389 . S
C904 C905 1.524 . S
C904 C918 1.377 . S
C905 C904 1.524 . S
C905 C906 1.397 . S
C905 C910 1.363 . S
C906 H883 0.950 . S
C906 C905 1.397 . S
C906 C907 1.334 . S
C907 H884 0.950 . S
C907 C906 1.334 . S
C907 C908 1.287 . S
C908 C907 1.287 . S
C908 C909 1.524 . S
C908 H927 0.913 . S
C909 H885 0.950 . S
C909 C908 1.524 . S
C909 C910 1.415 . S
C910 H886 0.950 . S
C910 C905 1.363 . S
C910 C909 1.415 . S
C911 H887 0.951 . S
C911 C912 1.366 . S
C911 C913 1.388 . S
C912 C911 1.366 . S
C912 C916 1.385 . S
C913 H888 0.951 . S
C913 C911 1.388 . S
C913 C914 1.366 . S
C914 C913 1.366 . S
C914 C915 1.414 . S
C914 C917 1.499 . S
C915 H889 0.950 . S
C915 C914 1.414 . S
C915 C916 1.374 . S
C916 H890 0.950 . S
C916 C912 1.385 . S
C916 C915 1.374 . S
C917 C914 1.499 . S
C917 C918 1.373 1_455 S
C917 C919 1.389 . S
C918 H891 0.950 . S
C918 C904 1.377 . S
C918 C917 1.373 1_655 S
C919 C903 1.377 . S
C919 C917 1.389 . S
C919 C920 1.524 . S
C920 C919 1.524 . S
C920 C921 1.397 . S
C920 C925 1.363 . S
C921 H892 0.950 . S
C921 C920 1.397 . S
C921 C922 1.334 . S
C922 H893 0.950 . S
C922 C921 1.334 . S
C922 C923 1.287 . S
C923 C922 1.287 . S
C923 C924 1.524 . S
C923 H926 0.999 . S
C924 H894 0.950 . S
C924 C923 1.524 . S
C924 C925 1.415 . S
C925 H895 0.950 . S
C925 C920 1.363 . S
C925 C924 1.415 . S
H926 C923 0.999 . S
H927 C908 0.913 . S
H928 C946 0.951 . S
H929 C948 0.951 . S
H930 C950 0.950 . S
H931 C951 0.950 . S
H932 C953 0.950 . S
H933 C956 0.950 . S
H934 C957 0.950 . S
H935 C959 0.950 . S
H936 C960 0.950 . S
H937 C961 0.951 . S
H938 C963 0.951 . S
H939 C965 0.950 . S
H940 C966 0.950 . S
H941 C968 0.950 . S
H942 C971 0.950 . S
H943 C972 0.950 . S
H944 C974 0.950 . S
H945 C975 0.950 . S
C946 H928 0.951 . S
C946 C947 1.366 . S
C946 C948 1.388 . S
C947 C946 1.366 . S
C947 C951 1.385 . S
C948 H929 0.951 . S
C948 C946 1.388 . S
C948 C949 1.366 . S
C949 C948 1.366 . S
C949 C950 1.414 . S
C949 C952 1.499 . S
C950 H930 0.950 . S
C950 C949 1.414 . S
C950 C951 1.374 . S
C951 H931 0.950 . S
C951 C947 1.385 . S
C951 C950 1.374 . S
C952 C949 1.499 . S
C952 C953 1.373 . S
C952 C954 1.389 . S
C953 H932 0.950 . S
C953 C952 1.373 . S
C953 C969 1.377 . S
C954 C952 1.389 . S
C954 C955 1.524 . S
C954 C968 1.377 . S
C955 C954 1.524 . S
C955 C956 1.397 . S
C955 C960 1.363 . S
C956 H933 0.950 . S
C956 C955 1.397 . S
C956 C957 1.334 . S
C957 H934 0.950 . S
C957 C956 1.334 . S
C957 C958 1.287 . S
C958 C957 1.287 . S
C958 C959 1.524 . S
C958 H977 0.913 . S
C959 H935 0.950 . S
C959 C958 1.524 . S
C959 C960 1.415 . S
C960 H936 0.950 . S
C960 C955 1.363 . S
C960 C959 1.415 . S
C961 H937 0.951 . S
C961 C962 1.366 . S
C961 C963 1.388 . S
C962 C961 1.366 . S
C962 C966 1.385 . S
C963 H938 0.951 . S
C963 C961 1.388 . S
C963 C964 1.366 . S
C964 C963 1.366 . S
C964 C965 1.414 . S
C964 C967 1.499 . S
C965 H939 0.950 . S
C965 C964 1.414 . S
C965 C966 1.374 . S
C966 H940 0.950 . S
C966 C962 1.385 . S
C966 C965 1.374 . S
C967 C964 1.499 . S
C967 C968 1.373 . S
C967 C969 1.389 . S
C968 H941 0.950 . S
C968 C954 1.377 . S
C968 C967 1.373 . S
C969 C953 1.377 . S
C969 C967 1.389 . S
C969 C970 1.524 . S
C970 C969 1.524 . S
C970 C971 1.397 . S
C970 C975 1.363 . S
C971 H942 0.950 . S
C971 C970 1.397 . S
C971 C972 1.334 . S
C972 H943 0.950 . S
C972 C971 1.334 . S
C972 C973 1.287 . S
C973 C972 1.287 . S
C973 C974 1.524 . S
C973 H976 0.999 . S
C974 H944 0.950 . S
C974 C973 1.524 . S
C974 C975 1.415 . S
C975 H945 0.950 . S
C975 C970 1.363 . S
C975 C974 1.415 . S
H976 C973 0.999 . S
H977 C958 0.913 . S
H978 C996 0.951 . S
H979 C998 0.951 . S
H980 C1000 0.950 . S
H981 C1001 0.950 . S
H982 C1003 0.950 . S
H983 C1006 0.950 . S
H984 C1007 0.950 . S
H985 C1009 0.950 . S
H986 C1010 0.950 . S
H987 C1011 0.951 . S
H988 C1013 0.951 . S
H989 C1015 0.950 . S
H990 C1016 0.950 . S
H991 C1018 0.950 . S
H992 C1021 0.950 . S
H993 C1022 0.950 . S
H994 C1024 0.950 . S
H995 C1025 0.950 . S
C996 H978 0.951 . S
C996 C997 1.366 . S
C996 C998 1.388 . S
C997 C996 1.366 . S
C997 C1001 1.385 . S
C998 H979 0.951 . S
C998 C996 1.388 . S
C998 C999 1.366 . S
C999 C998 1.366 . S
C999 C1000 1.414 . S
C999 C1002 1.499 . S
C1000 H980 0.950 . S
C1000 C999 1.414 . S
C1000 C1001 1.374 . S
C1001 H981 0.950 . S
C1001 C997 1.385 . S
C1001 C1000 1.374 . S
C1002 C999 1.499 . S
C1002 C1003 1.373 . S
C1002 C1004 1.389 . S
C1003 H982 0.950 . S
C1003 C1002 1.373 . S
C1003 C1019 1.377 . S
C1004 C1002 1.389 . S
C1004 C1005 1.524 . S
C1004 C1018 1.377 . S
C1005 C1004 1.524 . S
C1005 C1006 1.397 . S
C1005 C1010 1.363 . S
C1006 H983 0.950 . S
C1006 C1005 1.397 . S
C1006 C1007 1.334 . S
C1007 H984 0.950 . S
C1007 C1006 1.334 . S
C1007 C1008 1.287 . S
C1008 C1007 1.287 . S
C1008 C1009 1.524 . S
C1008 H1027 0.913 . S
C1009 H985 0.950 . S
C1009 C1008 1.524 . S
C1009 C1010 1.415 . S
C1010 H986 0.950 . S
C1010 C1005 1.363 . S
C1010 C1009 1.415 . S
C1011 H987 0.951 . S
C1011 C1012 1.366 . S
C1011 C1013 1.388 . S
C1012 C1011 1.366 . S
C1012 C1016 1.385 . S
C1013 H988 0.951 . S
C1013 C1011 1.388 . S
C1013 C1014 1.366 . S
C1014 C1013 1.366 . S
C1014 C1015 1.414 . S
C1014 C1017 1.499 . S
C1015 H989 0.950 . S
C1015 C1014 1.414 . S
C1015 C1016 1.374 . S
C1016 H990 0.950 . S
C1016 C1012 1.385 . S
C1016 C1015 1.374 . S
C1017 C1014 1.499 . S
C1017 C1018 1.373 . S
C1017 C1019 1.389 . S
C1018 H991 0.950 . S
C1018 C1004 1.377 . S
C1018 C1017 1.373 . S
C1019 C1003 1.377 . S
C1019 C1017 1.389 . S
C1019 C1020 1.524 . S
C1020 C1019 1.524 . S
C1020 C1021 1.397 . S
C1020 C1025 1.363 . S
C1021 H992 0.950 . S
C1021 C1020 1.397 . S
C1021 C1022 1.334 . S
C1022 H993 0.950 . S
C1022 C1021 1.334 . S
C1022 C1023 1.287 . S
C1023 C1022 1.287 . S
C1023 C1024 1.524 . S
C1023 H1026 0.999 . S
C1024 H994 0.950 . S
C1024 C1023 1.524 . S
C1024 C1025 1.415 . S
C1025 H995 0.950 . S
C1025 C1020 1.363 . S
C1025 C1024 1.415 . S
H1026 C1023 0.999 . S
H1027 C1008 0.913 . S
H1028 C1046 0.951 . S
H1029 C1048 0.951 . S
H1030 C1050 0.950 . S
H1031 C1051 0.950 . S
H1032 C1053 0.950 . S
H1033 C1056 0.950 . S
H1034 C1057 0.950 . S
H1035 C1059 0.950 . S
H1036 C1060 0.950 . S
H1037 C1061 0.951 . S
H1038 C1063 0.951 . S
H1039 C1065 0.950 . S
H1040 C1066 0.950 . S
H1041 C1068 0.950 . S
H1042 C1071 0.950 . S
H1043 C1072 0.950 . S
H1044 C1074 0.950 . S
H1045 C1075 0.950 . S
C1046 H1028 0.951 . S
C1046 C1047 1.366 . S
C1046 C1048 1.388 . S
C1047 C1046 1.366 . S
C1047 C1051 1.385 . S
C1048 H1029 0.951 . S
C1048 C1046 1.388 . S
C1048 C1049 1.366 . S
C1049 C1048 1.366 . S
C1049 C1050 1.414 . S
C1049 C1052 1.499 . S
C1050 H1030 0.950 . S
C1050 C1049 1.414 . S
C1050 C1051 1.374 . S
C1051 H1031 0.950 . S
C1051 C1047 1.385 . S
C1051 C1050 1.374 . S
C1052 C1049 1.499 . S
C1052 C1053 1.373 . S
C1052 C1054 1.389 . S
C1053 H1032 0.950 . S
C1053 C1052 1.373 . S
C1053 C1069 1.377 . S
C1054 C1052 1.389 . S
C1054 C1055 1.524 . S
C1054 C1068 1.377 . S
C1055 C1054 1.524 . S
C1055 C1056 1.397 . S
C1055 C1060 1.363 . S
C1056 H1033 0.950 . S
C1056 C1055 1.397 . S
C1056 C1057 1.334 . S
C1057 H1034 0.950 . S
C1057 C1056 1.334 . S
C1057 C1058 1.287 . S
C1058 C1057 1.287 . S
C1058 C1059 1.524 . S
C1058 H1077 0.913 . S
C1059 H1035 0.950 . S
C1059 C1058 1.524 . S
C1059 C1060 1.415 . S
C1060 H1036 0.950 . S
C1060 C1055 1.363 . S
C1060 C1059 1.415 . S
C1061 H1037 0.951 . S
C1061 C1062 1.366 . S
C1061 C1063 1.388 . S
C1062 C1061 1.366 . S
C1062 C1066 1.385 . S
C1063 H1038 0.951 . S
C1063 C1061 1.388 . S
C1063 C1064 1.366 . S
C1064 C1063 1.366 . S
C1064 C1065 1.414 . S
C1064 C1067 1.499 . S
C1065 H1039 0.950 . S
C1065 C1064 1.414 . S
C1065 C1066 1.374 . S
C1066 H1040 0.950 . S
C1066 C1062 1.385 . S
C1066 C1065 1.374 . S
C1067 C1064 1.499 . S
C1067 C1068 1.373 . S
C1067 C1069 1.389 . S
C1068 H1041 0.950 . S
C1068 C1054 1.377 . S
C1068 C1067 1.373 . S
C1069 C1053 1.377 . S
C1069 C1067 1.389 . S
C1069 C1070 1.524 . S
C1070 C1069 1.524 . S
C1070 C1071 1.397 . S
C1070 C1075 1.363 . S
C1071 H1042 0.950 . S
C1071 C1070 1.397 . S
C1071 C1072 1.334 . S
C1072 H1043 0.950 . S
C1072 C1071 1.334 . S
C1072 C1073 1.287 . S
C1073 C1072 1.287 . S
C1073 C1074 1.524 . S
C1073 H1076 0.999 . S
C1074 H1044 0.950 . S
C1074 C1073 1.524 . S
C1074 C1075 1.415 . S
C1075 H1045 0.950 . S
C1075 C1070 1.363 . S
C1075 C1074 1.415 . S
H1076 C1073 0.999 . S
H1077 C1058 0.913 . S
H1078 C1096 0.951 . S
H1079 C1098 0.951 . S
H1080 C1100 0.950 . S
H1081 C1101 0.950 . S
H1082 C1103 0.950 . S
H1083 C1106 0.950 . S
H1084 C1107 0.950 . S
H1085 C1109 0.950 . S
H1086 C1110 0.950 . S
H1087 C1111 0.951 . S
H1088 C1113 0.951 . S
H1089 C1115 0.950 . S
H1090 C1116 0.950 . S
H1091 C1118 0.950 . S
H1092 C1121 0.950 . S
H1093 C1122 0.950 . S
H1094 C1124 0.950 . S
H1095 C1125 0.950 . S
C1096 H1078 0.951 . S
C1096 C1097 1.366 . S
C1096 C1098 1.388 . S
C1097 C1096 1.366 . S
C1097 C1101 1.385 . S
C1098 H1079 0.951 . S
C1098 C1096 1.388 . S
C1098 C1099 1.366 . S
C1099 C1098 1.366 . S
C1099 C1100 1.414 . S
C1099 C1102 1.499 . S
C1100 H1080 0.950 . S
C1100 C1099 1.414 . S
C1100 C1101 1.374 . S
C1101 H1081 0.950 . S
C1101 C1097 1.385 . S
C1101 C1100 1.374 . S
C1102 C1099 1.499 . S
C1102 C1103 1.373 . S
C1102 C1104 1.389 . S
C1103 H1082 0.950 . S
C1103 C1102 1.373 . S
C1103 C1119 1.377 . S
C1104 C1102 1.389 . S
C1104 C1105 1.524 . S
C1104 C1118 1.377 . S
C1105 C1104 1.524 . S
C1105 C1106 1.397 . S
C1105 C1110 1.363 . S
C1106 H1083 0.950 . S
C1106 C1105 1.397 . S
C1106 C1107 1.334 . S
C1107 H1084 0.950 . S
C1107 C1106 1.334 . S
C1107 C1108 1.287 . S
C1108 C1107 1.287 . S
C1108 C1109 1.524 . S
C1108 H1127 0.913 . S
C1109 H1085 0.950 . S
C1109 C1108 1.524 . S
C1109 C1110 1.415 . S
C1110 H1086 0.950 . S
C1110 C1105 1.363 . S
C1110 C1109 1.415 . S
C1111 H1087 0.951 . S
C1111 C1112 1.366 . S
C1111 C1113 1.388 . S
C1112 C1111 1.366 . S
C1112 C1116 1.385 . S
C1113 H1088 0.951 . S
C1113 C1111 1.388 . S
C1113 C1114 1.366 . S
C1114 C1113 1.366 . S
C1114 C1115 1.414 . S
C1114 C1117 1.499 . S
C1115 H1089 0.950 . S
C1115 C1114 1.414 . S
C1115 C1116 1.374 . S
C1116 H1090 0.950 . S
C1116 C1112 1.385 . S
C1116 C1115 1.374 . S
C1117 C1114 1.499 . S
C1117 C1118 1.373 . S
C1117 C1119 1.389 . S
C1118 H1091 0.950 . S
C1118 C1104 1.377 . S
C1118 C1117 1.373 . S
C1119 C1103 1.377 . S
C1119 C1117 1.389 . S
C1119 C1120 1.524 . S
C1120 C1119 1.524 . S
C1120 C1121 1.397 . S
C1120 C1125 1.363 . S
C1121 H1092 0.950 . S
C1121 C1120 1.397 . S
C1121 C1122 1.334 . S
C1122 H1093 0.950 . S
C1122 C1121 1.334 . S
C1122 C1123 1.287 . S
C1123 C1122 1.287 . S
C1123 C1124 1.524 . S
C1123 H1126 0.999 . S
C1124 H1094 0.950 . S
C1124 C1123 1.524 . S
C1124 C1125 1.415 . S
C1125 H1095 0.950 . S
C1125 C1120 1.363 . S
C1125 C1124 1.415 . S
H1126 C1123 0.999 . S
H1127 C1108 0.913 . S
H1128 C1146 0.951 . S
H1129 C1148 0.951 . S
H1130 C1150 0.950 . S
H1131 C1151 0.950 . S
H1132 C1153 0.950 . S
H1133 C1156 0.950 . S
H1134 C1157 0.950 . S
H1135 C1159 0.950 . S
H1136 C1160 0.950 . S
H1137 C1161 0.951 . S
H1138 C1163 0.951 . S
H1139 C1165 0.950 . S
H1140 C1166 0.950 . S
H1141 C1168 0.950 . S
H1142 C1171 0.950 . S
H1143 C1172 0.950 . S
H1144 C1174 0.950 . S
H1145 C1175 0.950 . S
C1146 H1128 0.951 . S
C1146 C1147 1.366 . S
C1146 C1148 1.388 . S
C1147 C1146 1.366 . S
C1147 C1151 1.385 . S
C1148 H1129 0.951 . S
C1148 C1146 1.388 . S
C1148 C1149 1.366 . S
C1149 C1148 1.366 . S
C1149 C1150 1.414 . S
C1149 C1152 1.499 . S
C1150 H1130 0.950 . S
C1150 C1149 1.414 . S
C1150 C1151 1.374 . S
C1151 H1131 0.950 . S
C1151 C1147 1.385 . S
C1151 C1150 1.374 . S
C1152 C1149 1.499 . S
C1152 C1153 1.373 . S
C1152 C1154 1.389 . S
C1153 H1132 0.950 . S
C1153 C1152 1.373 . S
C1153 C1169 1.377 . S
C1154 C1152 1.389 . S
C1154 C1155 1.524 . S
C1154 C1168 1.377 . S
C1155 C1154 1.524 . S
C1155 C1156 1.397 . S
C1155 C1160 1.363 . S
C1156 H1133 0.950 . S
C1156 C1155 1.397 . S
C1156 C1157 1.334 . S
C1157 H1134 0.950 . S
C1157 C1156 1.334 . S
C1157 C1158 1.287 . S
C1158 C1157 1.287 . S
C1158 C1159 1.524 . S
C1158 H1177 0.913 . S
C1159 H1135 0.950 . S
C1159 C1158 1.524 . S
C1159 C1160 1.415 . S
C1160 H1136 0.950 . S
C1160 C1155 1.363 . S
C1160 C1159 1.415 . S
C1161 H1137 0.951 . S
C1161 C1162 1.366 . S
C1161 C1163 1.388 . S
C1162 C1161 1.366 . S
C1162 C1166 1.385 . S
C1163 H1138 0.951 . S
C1163 C1161 1.388 . S
C1163 C1164 1.366 . S
C1164 C1163 1.366 . S
C1164 C1165 1.414 . S
C1164 C1167 1.499 . S
C1165 H1139 0.950 . S
C1165 C1164 1.414 . S
C1165 C1166 1.374 . S
C1166 H1140 0.950 . S
C1166 C1162 1.385 . S
C1166 C1165 1.374 . S
C1167 C1164 1.499 . S
C1167 C1168 1.373 . S
C1167 C1169 1.389 . S
C1168 H1141 0.950 . S
C1168 C1154 1.377 . S
C1168 C1167 1.373 . S
C1169 C1153 1.377 . S
C1169 C1167 1.389 . S
C1169 C1170 1.524 . S
C1170 C1169 1.524 . S
C1170 C1171 1.397 . S
C1170 C1175 1.363 . S
C1171 H1142 0.950 . S
C1171 C1170 1.397 . S
C1171 C1172 1.334 . S
C1172 H1143 0.950 . S
C1172 C1171 1.334 . S
C1172 C1173 1.287 . S
C1173 C1172 1.287 . S
C1173 C1174 1.524 . S
C1173 H1176 0.999 . S
C1174 H1144 0.950 . S
C1174 C1173 1.524 . S
C1174 C1175 1.415 . S
C1175 H1145 0.950 . S
C1175 C1170 1.363 . S
C1175 C1174 1.415 . S
H1176 C1173 0.999 . S
H1177 C1158 0.913 . S
H1178 C1196 0.951 . S
H1179 C1198 0.951 . S
H1180 C1200 0.950 . S
H1181 C1201 0.950 . S
H1182 C1203 0.950 . S
H1183 C1206 0.950 . S
H1184 C1207 0.950 . S
H1185 C1209 0.950 . S
H1186 C1210 0.950 . S
H1187 C1211 0.951 . S
H1188 C1213 0.951 . S
H1189 C1215 0.950 . S
H1190 C1216 0.950 . S
H1191 C1218 0.950 . S
H1192 C1221 0.950 . S
H1193 C1222 0.950 . S
H1194 C1224 0.950 . S
H1195 C1225 0.950 . S
C1196 H1178 0.951 . S
C1196 C1197 1.366 . S
C1196 C1198 1.388 . S
C1197 C1196 1.366 . S
C1197 C1201 1.385 . S
C1198 H1179 0.951 . S
C1198 C1196 1.388 . S
C1198 C1199 1.366 . S
C1199 C1198 1.366 . S
C1199 C1200 1.414 . S
C1199 C1202 1.499 . S
C1200 H1180 0.950 . S
C1200 C1199 1.414 . S
C1200 C1201 1.374 . S
C1201 H1181 0.950 . S
C1201 C1197 1.385 . S
C1201 C1200 1.374 . S
C1202 C1199 1.499 . S
C1202 C1203 1.373 . S
C1202 C1204 1.389 . S
C1203 H1182 0.950 . S
C1203 C1202 1.373 . S
C1203 C1219 1.377 . S
C1204 C1202 1.389 . S
C1204 C1205 1.524 . S
C1204 C1218 1.377 . S
C1205 C1204 1.524 . S
C1205 C1206 1.397 . S
C1205 C1210 1.363 . S
C1206 H1183 0.950 . S
C1206 C1205 1.397 . S
C1206 C1207 1.334 . S
C1207 H1184 0.950 . S
C1207 C1206 1.334 . S
C1207 C1208 1.287 . S
C1208 C1207 1.287 . S
C1208 C1209 1.524 . S
C1208 H1227 0.913 . S
C1209 H1185 0.950 . S
C1209 C1208 1.524 . S
C1209 C1210 1.415 . S
C1210 H1186 0.950 . S
C1210 C1205 1.363 . S
C1210 C1209 1.415 . S
C1211 H1187 0.951 . S
C1211 C1212 1.366 . S
C1211 C1213 1.388 . S
C1212 C1211 1.366 . S
C1212 C1216 1.385 . S
C1213 H1188 0.951 . S
C1213 C1211 1.388 . S
C1213 C1214 1.366 . S
C1214 C1213 1.366 . S
C1214 C1215 1.414 . S
C1214 C1217 1.499 . S
C1215 H1189 0.950 . S
C1215 C1214 1.414 . S
C1215 C1216 1.374 . S
C1216 H1190 0.950 . S
C1216 C1212 1.385 . S
C1216 C1215 1.374 . S
C1217 C1214 1.499 . S
C1217 C1218 1.373 . S
C1217 C1219 1.389 . S
C1218 H1191 0.950 . S
C1218 C1204 1.377 . S
C1218 C1217 1.373 . S
C1219 C1203 1.377 . S
C1219 C1217 1.389 . S
C1219 C1220 1.524 . S
C1220 C1219 1.524 . S
C1220 C1221 1.397 . S
C1220 C1225 1.363 . S
C1221 H1192 0.950 . S
C1221 C1220 1.397 . S
C1221 C1222 1.334 . S
C1222 H1193 0.950 . S
C1222 C1221 1.334 . S
C1222 C1223 1.287 . S
C1223 C1222 1.287 . S
C1223 C1224 1.524 . S
C1223 H1226 0.999 . S
C1224 H1194 0.950 . S
C1224 C1223 1.524 . S
C1224 C1225 1.415 . S
C1225 H1195 0.950 . S
C1225 C1220 1.363 . S
C1225 C1224 1.415 . S
H1226 C1223 0.999 . S
H1227 C1208 0.913 . S
H1228 C1246 0.951 . S
H1229 C1248 0.951 . S
H1230 C1250 0.950 . S
H1231 C1251 0.950 . S
H1232 C1253 0.950 . S
H1233 C1256 0.950 . S
H1234 C1257 0.950 . S
H1235 C1259 0.950 . S
H1236 C1260 0.950 . S
H1237 C1261 0.951 . S
H1238 C1263 0.951 . S
H1239 C1265 0.950 . S
H1240 C1266 0.950 . S
H1241 C1268 0.950 . S
H1242 C1271 0.950 . S
H1243 C1272 0.950 . S
H1244 C1274 0.950 . S
H1245 C1275 0.950 . S
C1246 H1228 0.951 . S
C1246 C1247 1.366 . S
C1246 C1248 1.388 . S
C1247 C1246 1.366 . S
C1247 C1251 1.385 . S
C1248 H1229 0.951 . S
C1248 C1246 1.388 . S
C1248 C1249 1.366 . S
C1249 C1248 1.366 . S
C1249 C1250 1.414 . S
C1249 C1252 1.499 . S
C1250 H1230 0.950 . S
C1250 C1249 1.414 . S
C1250 C1251 1.374 . S
C1251 H1231 0.950 . S
C1251 C1247 1.385 . S
C1251 C1250 1.374 . S
C1252 C1249 1.499 . S
C1252 C1253 1.373 . S
C1252 C1254 1.389 . S
C1253 H1232 0.950 . S
C1253 C1252 1.373 . S
C1253 C1269 1.377 . S
C1254 C1252 1.389 . S
C1254 C1255 1.524 . S
C1254 C1268 1.377 . S
C1255 C1254 1.524 . S
C1255 C1256 1.397 . S
C1255 C1260 1.363 . S
C1256 H1233 0.950 . S
C1256 C1255 1.397 . S
C1256 C1257 1.334 . S
C1257 H1234 0.950 . S
C1257 C1256 1.334 . S
C1257 C1258 1.287 . S
C1258 C1257 1.287 . S
C1258 C1259 1.524 . S
C1258 H1277 0.913 . S
C1259 H1235 0.950 . S
C1259 C1258 1.524 . S
C1259 C1260 1.415 . S
C1260 H1236 0.950 . S
C1260 C1255 1.363 . S
C1260 C1259 1.415 . S
C1261 H1237 0.951 . S
C1261 C1262 1.366 . S
C1261 C1263 1.388 . S
C1262 C1261 1.366 . S
C1262 C1266 1.385 . S
C1263 H1238 0.951 . S
C1263 C1261 1.388 . S
C1263 C1264 1.366 . S
C1264 C1263 1.366 . S
C1264 C1265 1.414 . S
C1264 C1267 1.499 . S
C1265 H1239 0.950 . S
C1265 C1264 1.414 . S
C1265 C1266 1.374 . S
C1266 H1240 0.950 . S
C1266 C1262 1.385 . S
C1266 C1265 1.374 . S
C1267 C1264 1.499 . S
C1267 C1268 1.373 . S
C1267 C1269 1.389 . S
C1268 H1241 0.950 . S
C1268 C1254 1.377 . S
C1268 C1267 1.373 . S
C1269 C1253 1.377 . S
C1269 C1267 1.389 . S
C1269 C1270 1.524 . S
C1270 C1269 1.524 . S
C1270 C1271 1.397 . S
C1270 C1275 1.363 . S
C1271 H1242 0.950 . S
C1271 C1270 1.397 . S
C1271 C1272 1.334 . S
C1272 H1243 0.950 . S
C1272 C1271 1.334 . S
C1272 C1273 1.287 . S
C1273 C1272 1.287 . S
C1273 C1274 1.524 . S
C1273 H1276 0.999 . S
C1274 H1244 0.950 . S
C1274 C1273 1.524 . S
C1274 C1275 1.415 . S
C1275 H1245 0.950 . S
C1275 C1270 1.363 . S
C1275 C1274 1.415 . S
H1276 C1273 0.999 . S
H1277 C1258 0.913 . S
H1278 C1296 0.951 . S
H1279 C1298 0.951 . S
H1280 C1300 0.950 . S
H1281 C1301 0.950 . S
H1282 C1303 0.950 . S
H1283 C1306 0.950 . S
H1284 C1307 0.950 . S
H1285 C1309 0.950 . S
H1286 C1310 0.950 . S
H1287 C1311 0.951 . S
H1288 C1313 0.951 . S
H1289 C1315 0.950 . S
H1290 C1316 0.950 . S
H1291 C1318 0.950 . S
H1292 C1321 0.950 . S
H1293 C1322 0.950 . S
H1294 C1324 0.950 . S
H1295 C1325 0.950 . S
C1296 H1278 0.951 . S
C1296 C1297 1.366 . S
C1296 C1298 1.388 . S
C1297 C1296 1.366 . S
C1297 C1301 1.385 . S
C1298 H1279 0.951 . S
C1298 C1296 1.388 . S
C1298 C1299 1.366 . S
C1299 C1298 1.366 . S
C1299 C1300 1.414 . S
C1299 C1302 1.499 . S
C1300 H1280 0.950 . S
C1300 C1299 1.414 . S
C1300 C1301 1.374 . S
C1301 H1281 0.950 . S
C1301 C1297 1.385 . S
C1301 C1300 1.374 . S
C1302 C1299 1.499 . S
C1302 C1303 1.373 . S
C1302 C1304 1.389 . S
C1303 H1282 0.950 . S
C1303 C1302 1.373 . S
C1303 C1319 1.377 . S
C1304 C1302 1.389 . S
C1304 C1305 1.524 . S
C1304 C1318 1.377 . S
C1305 C1304 1.524 . S
C1305 C1306 1.397 . S
C1305 C1310 1.363 . S
C1306 H1283 0.950 . S
C1306 C1305 1.397 . S
C1306 C1307 1.334 . S
C1307 H1284 0.950 . S
C1307 C1306 1.334 . S
C1307 C1308 1.287 . S
C1308 C1307 1.287 . S
C1308 C1309 1.524 . S
C1308 H1327 0.913 . S
C1309 H1285 0.950 . S
C1309 C1308 1.524 . S
C1309 C1310 1.415 . S
C1310 H1286 0.950 . S
C1310 C1305 1.363 . S
C1310 C1309 1.415 . S
C1311 H1287 0.951 . S
C1311 C1312 1.366 . S
C1311 C1313 1.388 . S
C1312 C1311 1.366 . S
C1312 C1316 1.385 . S
C1313 H1288 0.951 . S
C1313 C1311 1.388 . S
C1313 C1314 1.366 . S
C1314 C1313 1.366 . S
C1314 C1315 1.414 . S
C1314 C1317 1.499 . S
C1315 H1289 0.950 . S
C1315 C1314 1.414 . S
C1315 C1316 1.374 . S
C1316 H1290 0.950 . S
C1316 C1312 1.385 . S
C1316 C1315 1.374 . S
C1317 C1314 1.499 . S
C1317 C1318 1.373 . S
C1317 C1319 1.389 . S
C1318 H1291 0.950 . S
C1318 C1304 1.377 . S
C1318 C1317 1.373 . S
C1319 C1303 1.377 . S
C1319 C1317 1.389 . S
C1319 C1320 1.524 . S
C1320 C1319 1.524 . S
C1320 C1321 1.397 . S
C1320 C1325 1.363 . S
C1321 H1292 0.950 . S
C1321 C1320 1.397 . S
C1321 C1322 1.334 . S
C1322 H1293 0.950 . S
C1322 C1321 1.334 . S
C1322 C1323 1.287 . S
C1323 C1322 1.287 . S
C1323 C1324 1.524 . S
C1323 H1326 0.999 . S
C1324 H1294 0.950 . S
C1324 C1323 1.524 . S
C1324 C1325 1.415 . S
C1325 H1295 0.950 . S
C1325 C1320 1.363 . S
C1325 C1324 1.415 . S
H1326 C1323 0.999 . S
H1327 C1308 0.913 . S
H1328 C1346 0.951 . S
H1329 C1348 0.951 . S
H1330 C1350 0.950 . S
H1331 C1351 0.950 . S
H1332 C1353 0.950 . S
H1333 C1356 0.950 . S
H1334 C1357 0.950 . S
H1335 C1359 0.950 . S
H1336 C1360 0.950 . S
H1337 C1361 0.951 . S
H1338 C1363 0.951 . S
H1339 C1365 0.950 . S
H1340 C1366 0.950 . S
H1341 C1368 0.950 . S
H1342 C1371 0.950 . S
H1343 C1372 0.950 . S
H1344 C1374 0.950 . S
H1345 C1375 0.950 . S
C1346 H1328 0.951 . S
C1346 C1347 1.366 . S
C1346 C1348 1.388 . S
C1347 C1346 1.366 . S
C1347 C1351 1.385 . S
C1348 H1329 0.951 . S
C1348 C1346 1.388 . S
C1348 C1349 1.366 . S
C1349 C1348 1.366 . S
C1349 C1350 1.414 . S
C1349 C1352 1.499 . S
C1350 H1330 0.950 . S
C1350 C1349 1.414 . S
C1350 C1351 1.374 . S
C1351 H1331 0.950 . S
C1351 C1347 1.385 . S
C1351 C1350 1.374 . S
C1352 C1349 1.499 . S
C1352 C1353 1.373 . S
C1352 C1354 1.389 . S
C1353 H1332 0.950 . S
C1353 C1352 1.373 . S
C1353 C1369 1.377 . S
C1354 C1352 1.389 . S
C1354 C1355 1.524 . S
C1354 C1368 1.377 . S
C1355 C1354 1.524 . S
C1355 C1356 1.397 . S
C1355 C1360 1.363 . S
C1356 H1333 0.950 . S
C1356 C1355 1.397 . S
C1356 C1357 1.334 . S
C1357 H1334 0.950 . S
C1357 C1356 1.334 . S
C1357 C1358 1.287 . S
C1358 C1357 1.287 . S
C1358 C1359 1.524 . S
C1358 H1377 0.913 . S
C1359 H1335 0.950 . S
C1359 C1358 1.524 . S
C1359 C1360 1.415 . S
C1360 H1336 0.950 . S
C1360 C1355 1.363 . S
C1360 C1359 1.415 . S
C1361 H1337 0.951 . S
C1361 C1362 1.366 . S
C1361 C1363 1.388 . S
C1362 C1361 1.366 . S
C1362 C1366 1.385 . S
C1363 H1338 0.951 . S
C1363 C1361 1.388 . S
C1363 C1364 1.366 . S
C1364 C1363 1.366 . S
C1364 C1365 1.414 . S
C1364 C1367 1.499 . S
C1365 H1339 0.950 . S
C1365 C1364 1.414 . S
C1365 C1366 1.374 . S
C1366 H1340 0.950 . S
C1366 C1362 1.385 . S
C1366 C1365 1.374 . S
C1367 C1364 1.499 . S
C1367 C1368 1.373 . S
C1367 C1369 1.389 . S
C1368 H1341 0.950 . S
C1368 C1354 1.377 . S
C1368 C1367 1.373 . S
C1369 C1353 1.377 . S
C1369 C1367 1.389 . S
C1369 C1370 1.524 . S
C1370 C1369 1.524 . S
C1370 C1371 1.397 . S
C1370 C1375 1.363 . S
C1371 H1342 0.950 . S
C1371 C1370 1.397 . S
C1371 C1372 1.334 . S
C1372 H1343 0.950 . S
C1372 C1371 1.334 . S
C1372 C1373 1.287 . S
C1373 C1372 1.287 . S
C1373 C1374 1.524 . S
C1373 H1376 0.999 . S
C1374 H1344 0.950 . S
C1374 C1373 1.524 . S
C1374 C1375 1.415 . S
C1375 H1345 0.950 . S
C1375 C1370 1.363 . S
C1375 C1374 1.415 . S
H1376 C1373 0.999 . S
H1377 C1358 0.913 . S
H1378 C1396 0.951 . S
H1379 C1398 0.951 . S
H1380 C1400 0.950 . S
H1381 C1401 0.950 . S
H1382 C1403 0.950 . S
H1383 C1406 0.950 . S
H1384 C1407 0.950 . S
H1385 C1409 0.950 . S
H1386 C1410 0.950 . S
H1387 C1411 0.951 . S
H1388 C1413 0.951 . S
H1389 C1415 0.950 . S
H1390 C1416 0.950 . S
H1391 C1418 0.950 . S
H1392 C1421 0.950 . S
H1393 C1422 0.950 . S
H1394 C1424 0.950 . S
H1395 C1425 0.950 . S
C1396 H1378 0.951 . S
C1396 C1397 1.366 . S
C1396 C1398 1.388 . S
C1397 C1396 1.366 . S
C1397 C1401 1.385 . S
C1398 H1379 0.951 . S
C1398 C1396 1.388 . S
C1398 C1399 1.366 . S
C1399 C1398 1.366 . S
C1399 C1400 1.414 . S
C1399 C1402 1.499 . S
C1400 H1380 0.950 . S
C1400 C1399 1.414 . S
C1400 C1401 1.374 . S
C1401 H1381 0.950 . S
C1401 C1397 1.385 . S
C1401 C1400 1.374 . S
C1402 C1399 1.499 . S
C1402 C1403 1.373 . S
C1402 C1404 1.389 . S
C1403 H1382 0.950 . S
C1403 C1402 1.373 . S
C1403 C1419 1.377 . S
C1404 C1402 1.389 . S
C1404 C1405 1.524 . S
C1404 C1418 1.377 . S
C1405 C1404 1.524 . S
C1405 C1406 1.397 . S
C1405 C1410 1.363 . S
C1406 H1383 0.950 . S
C1406 C1405 1.397 . S
C1406 C1407 1.334 . S
C1407 H1384 0.950 . S
C1407 C1406 1.334 . S
C1407 C1408 1.287 . S
C1408 C1407 1.287 . S
C1408 C1409 1.524 . S
C1408 H1427 0.913 . S
C1409 H1385 0.950 . S
C1409 C1408 1.524 . S
C1409 C1410 1.415 . S
C1410 H1386 0.950 . S
C1410 C1405 1.363 . S
C1410 C1409 1.415 . S
C1411 H1387 0.951 . S
C1411 C1412 1.366 . S
C1411 C1413 1.388 . S
C1412 C1411 1.366 . S
C1412 C1416 1.385 . S
C1413 H1388 0.951 . S
C1413 C1411 1.388 . S
C1413 C1414 1.366 . S
C1414 C1413 1.366 . S
C1414 C1415 1.414 . S
C1414 C1417 1.499 . S
C1415 H1389 0.950 . S
C1415 C1414 1.414 . S
C1415 C1416 1.374 . S
C1416 H1390 0.950 . S
C1416 C1412 1.385 . S
C1416 C1415 1.374 . S
C1417 C1414 1.499 . S
C1417 C1418 1.373 . S
C1417 C1419 1.389 . S
C1418 H1391 0.950 . S
C1418 C1404 1.377 . S
C1418 C1417 1.373 . S
C1419 C1403 1.377 . S
C1419 C1417 1.389 . S
C1419 C1420 1.524 . S
C1420 C1419 1.524 . S
C1420 C1421 1.397 . S
C1420 C1425 1.363 . S
C1421 H1392 0.950 . S
C1421 C1420 1.397 . S
C1421 C1422 1.334 . S
C1422 H1393 0.950 . S
C1422 C1421 1.334 . S
C1422 C1423 1.287 . S
C1423 C1422 1.287 . S
C1423 C1424 1.524 . S
C1423 H1426 0.999 . S
C1424 H1394 0.950 . S
C1424 C1423 1.524 . S
C1424 C1425 1.415 . S
C1425 H1395 0.950 . S
C1425 C1420 1.363 . S
C1425 C1424 1.415 . S
H1426 C1423 0.999 . S
H1427 C1408 0.913 . S
H1428 C1446 0.951 . S
H1429 C1448 0.951 . S
H1430 C1450 0.950 . S
H1431 C1451 0.950 . S
H1432 C1453 0.950 . S
H1433 C1456 0.950 . S
H1434 C1457 0.950 . S
H1435 C1459 0.950 . S
H1436 C1460 0.950 . S
H1437 C1461 0.951 . S
H1438 C1463 0.951 . S
H1439 C1465 0.950 . S
H1440 C1466 0.950 . S
H1441 C1468 0.950 . S
H1442 C1471 0.950 . S
H1443 C1472 0.950 . S
H1444 C1474 0.950 . S
H1445 C1475 0.950 . S
C1446 H1428 0.951 . S
C1446 C1447 1.366 . S
C1446 C1448 1.388 . S
C1447 C1446 1.366 . S
C1447 C1451 1.385 . S
C1448 H1429 0.951 . S
C1448 C1446 1.388 . S
C1448 C1449 1.366 . S
C1449 C1448 1.366 . S
C1449 C1450 1.414 . S
C1449 C1452 1.499 . S
C1450 H1430 0.950 . S
C1450 C1449 1.414 . S
C1450 C1451 1.374 . S
C1451 H1431 0.950 . S
C1451 C1447 1.385 . S
C1451 C1450 1.374 . S
C1452 C1449 1.499 . S
C1452 C1453 1.373 . S
C1452 C1454 1.389 . S
C1453 H1432 0.950 . S
C1453 C1452 1.373 . S
C1453 C1469 1.377 . S
C1454 C1452 1.389 . S
C1454 C1455 1.524 . S
C1454 C1468 1.377 . S
C1455 C1454 1.524 . S
C1455 C1456 1.397 . S
C1455 C1460 1.363 . S
C1456 H1433 0.950 . S
C1456 C1455 1.397 . S
C1456 C1457 1.334 . S
C1457 H1434 0.950 . S
C1457 C1456 1.334 . S
C1457 C1458 1.287 . S
C1458 C1457 1.287 . S
C1458 C1459 1.524 . S
C1458 H1477 0.913 . S
C1459 H1435 0.950 . S
C1459 C1458 1.524 . S
C1459 C1460 1.415 . S
C1460 H1436 0.950 . S
C1460 C1455 1.363 . S
C1460 C1459 1.415 . S
C1461 H1437 0.951 . S
C1461 C1462 1.366 . S
C1461 C1463 1.388 . S
C1462 C1461 1.366 . S
C1462 C1466 1.385 . S
C1463 H1438 0.951 . S
C1463 C1461 1.388 . S
C1463 C1464 1.366 . S
C1464 C1463 1.366 . S
C1464 C1465 1.414 . S
C1464 C1467 1.499 . S
C1465 H1439 0.950 . S
C1465 C1464 1.414 . S
C1465 C1466 1.374 . S
C1466 H1440 0.950 . S
C1466 C1462 1.385 . S
C1466 C1465 1.374 . S
C1467 C1464 1.499 . S
C1467 C1468 1.373 . S
C1467 C1469 1.389 . S
C1468 H1441 0.950 . S
C1468 C1454 1.377 . S
C1468 C1467 1.373 . S
C1469 C1453 1.377 . S
C1469 C1467 1.389 . S
C1469 C1470 1.524 . S
C1470 C1469 1.524 . S
C1470 C1471 1.397 . S
C1470 C1475 1.363 . S
C1471 H1442 0.950 . S
C1471 C1470 1.397 . S
C1471 C1472 1.334 . S
C1472 H1443 0.950 . S
C1472 C1471 1.334 . S
C1472 C1473 1.287 . S
C1473 C1472 1.287 . S
C1473 C1474 1.524 . S
C1473 H1476 0.999 . S
C1474 H1444 0.950 . S
C1474 C1473 1.524 . S
C1474 C1475 1.415 . S
C1475 H1445 0.950 . S
C1475 C1470 1.363 . S
C1475 C1474 1.415 . S
H1476 C1473 0.999 . S
H1477 C1458 0.913 . S
H1478 C1496 0.951 . S
H1479 C1498 0.951 . S
H1480 C1500 0.950 . S
H1481 C1501 0.950 . S
H1482 C1503 0.950 . S
H1483 C1506 0.950 . S
H1484 C1507 0.950 . S
H1485 C1509 0.950 . S
H1486 C1510 0.950 . S
H1487 C1511 0.951 . S
H1488 C1513 0.951 . S
H1489 C1515 0.950 . S
H1490 C1516 0.950 . S
H1491 C1518 0.950 . S
H1492 C1521 0.950 . S
H1493 C1522 0.950 . S
H1494 C1524 0.950 . S
H1495 C1525 0.950 . S
C1496 H1478 0.951 . S
C1496 C1497 1.366 . S
C1496 C1498 1.388 . S
C1497 C1496 1.366 . S
C1497 C1501 1.385 . S
C1498 H1479 0.951 . S
C1498 C1496 1.388 . S
C1498 C1499 1.366 . S
C1499 C1498 1.366 . S
C1499 C1500 1.414 . S
C1499 C1502 1.499 . S
C1500 H1480 0.950 . S
C1500 C1499 1.414 . S
C1500 C1501 1.374 . S
C1501 H1481 0.950 . S
C1501 C1497 1.385 . S
C1501 C1500 1.374 . S
C1502 C1499 1.499 . S
C1502 C1503 1.373 . S
C1502 C1504 1.389 . S
C1503 H1482 0.950 . S
C1503 C1502 1.373 . S
C1503 C1519 1.377 . S
C1504 C1502 1.389 . S
C1504 C1505 1.524 . S
C1504 C1518 1.377 . S
C1505 C1504 1.524 . S
C1505 C1506 1.397 . S
C1505 C1510 1.363 . S
C1506 H1483 0.950 . S
C1506 C1505 1.397 . S
C1506 C1507 1.334 . S
C1507 H1484 0.950 . S
C1507 C1506 1.334 . S
C1507 C1508 1.287 . S
C1508 C1507 1.287 . S
C1508 C1509 1.524 . S
C1508 H1527 0.913 . S
C1509 H1485 0.950 . S
C1509 C1508 1.524 . S
C1509 C1510 1.415 . S
C1510 H1486 0.950 . S
C1510 C1505 1.363 . S
C1510 C1509 1.415 . S
C1511 H1487 0.951 . S
C1511 C1512 1.366 . S
C1511 C1513 1.388 . S
C1512 C1511 1.366 . S
C1512 C1516 1.385 . S
C1513 H1488 0.951 . S
C1513 C1511 1.388 . S
C1513 C1514 1.366 . S
C1514 C1513 1.366 . S
C1514 C1515 1.414 . S
C1514 C1517 1.499 . S
C1515 H1489 0.950 . S
C1515 C1514 1.414 . S
C1515 C1516 1.374 . S
C1516 H1490 0.950 . S
C1516 C1512 1.385 . S
C1516 C1515 1.374 . S
C1517 C1514 1.499 . S
C1517 C1518 1.373 . S
C1517 C1519 1.389 . S
C1518 H1491 0.950 . S
C1518 C1504 1.377 . S
C1518 C1517 1.373 . S
C1519 C1503 1.377 . S
C1519 C1517 1.389 . S
C1519 C1520 1.524 . S
C1520 C1519 1.524 . S
C1520 C1521 1.397 . S
C1520 C1525 1.363 . S
C1521 H1492 0.950 . S
C1521 C1520 1.397 . S
C1521 C1522 1.334 . S
C1522 H1493 0.950 . S
C1522 C1521 1.334 . S
C1522 C1523 1.287 . S
C1523 C1522 1.287 . S
C1523 C1524 1.524 . S
C1523 H1526 0.999 . S
C1524 H1494 0.950 . S
C1524 C1523 1.524 . S
C1524 C1525 1.415 . S
C1525 H1495 0.950 . S
C1525 C1520 1.363 . S
C1525 C1524 1.415 . S
H1526 C1523 0.999 . S
H1527 C1508 0.913 . S
H1528 C1546 0.951 . S
H1529 C1548 0.951 . S
H1530 C1550 0.950 . S
H1531 C1551 0.950 . S
H1532 C1553 0.950 . S
H1533 C1556 0.950 . S
H1534 C1557 0.950 . S
H1535 C1559 0.950 . S
H1536 C1560 0.950 . S
H1537 C1561 0.951 . S
H1538 C1563 0.951 . S
H1539 C1565 0.950 . S
H1540 C1566 0.950 . S
H1541 C1568 0.950 . S
H1542 C1571 0.950 . S
H1543 C1572 0.950 . S
H1544 C1574 0.950 . S
H1545 C1575 0.950 . S
C1546 H1528 0.951 . S
C1546 C1547 1.366 . S
C1546 C1548 1.388 . S
C1547 C1546 1.366 . S
C1547 C1551 1.385 . S
C1548 H1529 0.951 . S
C1548 C1546 1.388 . S
C1548 C1549 1.366 . S
C1549 C1548 1.366 . S
C1549 C1550 1.414 . S
C1549 C1552 1.499 . S
C1550 H1530 0.950 . S
C1550 C1549 1.414 . S
C1550 C1551 1.374 . S
C1551 H1531 0.950 . S
C1551 C1547 1.385 . S
C1551 C1550 1.374 . S
C1552 C1549 1.499 . S
C1552 C1553 1.373 . S
C1552 C1554 1.389 . S
C1553 H1532 0.950 . S
C1553 C1552 1.373 . S
C1553 C1569 1.377 . S
C1554 C1552 1.389 . S
C1554 C1555 1.524 . S
C1554 C1568 1.377 . S
C1555 C1554 1.524 . S
C1555 C1556 1.397 . S
C1555 C1560 1.363 . S
C1556 H1533 0.950 . S
C1556 C1555 1.397 . S
C1556 C1557 1.334 . S
C1557 H1534 0.950 . S
C1557 C1556 1.334 . S
C1557 C1558 1.287 . S
C1558 C1557 1.287 . S
C1558 C1559 1.524 . S
C1558 H1577 0.913 . S
C1559 H1535 0.950 . S
C1559 C1558 1.524 . S
C1559 C1560 1.415 . S
C1560 H1536 0.950 . S
C1560 C1555 1.363 . S
C1560 C1559 1.415 . S
C1561 H1537 0.951 . S
C1561 C1562 1.366 . S
C1561 C1563 1.388 . S
C1562 C1561 1.366 . S
C1562 C1566 1.385 . S
C1563 H1538 0.951 . S
C1563 C1561 1.388 . S
C1563 C1564 1.366 . S
C1564 C1563 1.366 . S
C1564 C1565 1.414 . S
C1564 C1567 1.499 . S
C1565 H1539 0.950 . S
C1565 C1564 1.414 . S
C1565 C1566 1.374 . S
C1566 H1540 0.950 . S
C1566 C1562 1.385 . S
C1566 C1565 1.374 . S
C1567 C1564 1.499 . S
C1567 C1568 1.373 . S
C1567 C1569 1.389 . S
C1568 H1541 0.950 . S
C1568 C1554 1.377 . S
C1568 C1567 1.373 . S
C1569 C1553 1.377 . S
C1569 C1567 1.389 . S
C1569 C1570 1.524 . S
C1570 C1569 1.524 . S
C1570 C1571 1.397 . S
C1570 C1575 1.363 . S
C1571 H1542 0.950 . S
C1571 C1570 1.397 . S
C1571 C1572 1.334 . S
C1572 H1543 0.950 . S
C1572 C1571 1.334 . S
C1572 C1573 1.287 . S
C1573 C1572 1.287 . S
C1573 C1574 1.524 . S
C1573 H1576 0.999 . S
C1574 H1544 0.950 . S
C1574 C1573 1.524 . S
C1574 C1575 1.415 . S
C1575 H1545 0.950 . S
C1575 C1570 1.363 . S
C1575 C1574 1.415 . S
H1576 C1573 0.999 . S
H1577 C1558 0.913 . S
H1578 C1596 0.951 . S
H1579 C1598 0.951 . S
H1580 C1600 0.950 . S
H1581 C1601 0.950 . S
H1582 C1603 0.950 . S
H1583 C1606 0.950 . S
H1584 C1607 0.950 . S
H1585 C1609 0.950 . S
H1586 C1610 0.950 . S
H1587 C1611 0.951 . S
H1588 C1613 0.951 . S
H1589 C1615 0.950 . S
H1590 C1616 0.950 . S
H1591 C1618 0.950 . S
H1592 C1621 0.950 . S
H1593 C1622 0.950 . S
H1594 C1624 0.950 . S
H1595 C1625 0.950 . S
C1596 H1578 0.951 . S
C1596 C1597 1.366 . S
C1596 C1598 1.388 . S
C1597 C1596 1.366 . S
C1597 C1601 1.385 . S
C1598 H1579 0.951 . S
C1598 C1596 1.388 . S
C1598 C1599 1.366 . S
C1599 C1598 1.366 . S
C1599 C1600 1.414 . S
C1599 C1602 1.499 . S
C1600 H1580 0.950 . S
C1600 C1599 1.414 . S
C1600 C1601 1.374 . S
C1601 H1581 0.950 . S
C1601 C1597 1.385 . S
C1601 C1600 1.374 . S
C1602 C1599 1.499 . S
C1602 C1603 1.373 . S
C1602 C1604 1.389 . S
C1603 H1582 0.950 . S
C1603 C1602 1.373 . S
C1603 C1619 1.377 . S
C1604 C1602 1.389 . S
C1604 C1605 1.524 . S
C1604 C1618 1.377 . S
C1605 C1604 1.524 . S
C1605 C1606 1.397 . S
C1605 C1610 1.363 . S
C1606 H1583 0.950 . S
C1606 C1605 1.397 . S
C1606 C1607 1.334 . S
C1607 H1584 0.950 . S
C1607 C1606 1.334 . S
C1607 C1608 1.287 . S
C1608 C1607 1.287 . S
C1608 C1609 1.524 . S
C1608 H1627 0.913 . S
C1609 H1585 0.950 . S
C1609 C1608 1.524 . S
C1609 C1610 1.415 . S
C1610 H1586 0.950 . S
C1610 C1605 1.363 . S
C1610 C1609 1.415 . S
C1611 H1587 0.951 . S
C1611 C1612 1.366 . S
C1611 C1613 1.388 . S
C1612 C1611 1.366 . S
C1612 C1616 1.385 . S
C1613 H1588 0.951 . S
C1613 C1611 1.388 . S
C1613 C1614 1.366 . S
C1614 C1613 1.366 . S
C1614 C1615 1.414 . S
C1614 C1617 1.499 . S
C1615 H1589 0.950 . S
C1615 C1614 1.414 . S
C1615 C1616 1.374 . S
C1616 H1590 0.950 . S
C1616 C1612 1.385 . S
C1616 C1615 1.374 . S
C1617 C1614 1.499 . S
C1617 C1618 1.373 . S
C1617 C1619 1.389 . S
C1618 H1591 0.950 . S
C1618 C1604 1.377 . S
C1618 C1617 1.373 . S
C1619 C1603 1.377 . S
C1619 C1617 1.389 . S
C1619 C1620 1.524 . S
C1620 C1619 1.524 . S
C1620 C1621 1.397 . S
C1620 C1625 1.363 . S
C1621 H1592 0.950 . S
C1621 C1620 1.397 . S
C1621 C1622 1.334 . S
C1622 H1593 0.950 . S
C1622 C1621 1.334 . S
C1622 C1623 1.287 . S
C1623 C1622 1.287 . S
C1623 C1624 1.524 . S
C1623 H1626 0.999 . S
C1624 H1594 0.950 . S
C1624 C1623 1.524 . S
C1624 C1625 1.415 . S
C1625 H1595 0.950 . S
C1625 C1620 1.363 . S
C1625 C1624 1.415 . S
H1626 C1623 0.999 . S
H1627 C1608 0.913 . S
H1628 C1646 0.951 . S
H1629 C1648 0.951 . S
H1630 C1650 0.950 . S
H1631 C1651 0.950 . S
H1632 C1653 0.950 . S
H1633 C1656 0.950 . S
H1634 C1657 0.950 . S
H1635 C1659 0.950 . S
H1636 C1660 0.950 . S
H1637 C1661 0.951 . S
H1638 C1663 0.951 . S
H1639 C1665 0.950 . S
H1640 C1666 0.950 . S
H1641 C1668 0.950 . S
H1642 C1671 0.950 . S
H1643 C1672 0.950 . S
H1644 C1674 0.950 . S
H1645 C1675 0.950 . S
C1646 H1628 0.951 . S
C1646 C1647 1.366 . S
C1646 C1648 1.388 . S
C1647 C1646 1.366 . S
C1647 C1651 1.385 . S
C1648 H1629 0.951 . S
C1648 C1646 1.388 . S
C1648 C1649 1.366 . S
C1649 C1648 1.366 . S
C1649 C1650 1.414 . S
C1649 C1652 1.499 . S
C1650 H1630 0.950 . S
C1650 C1649 1.414 . S
C1650 C1651 1.374 . S
C1651 H1631 0.950 . S
C1651 C1647 1.385 . S
C1651 C1650 1.374 . S
C1652 C1649 1.499 . S
C1652 C1653 1.373 . S
C1652 C1654 1.389 . S
C1653 H1632 0.950 . S
C1653 C1652 1.373 . S
C1653 C1669 1.377 . S
C1654 C1652 1.389 . S
C1654 C1655 1.524 . S
C1654 C1668 1.377 . S
C1655 C1654 1.524 . S
C1655 C1656 1.397 . S
C1655 C1660 1.363 . S
C1656 H1633 0.950 . S
C1656 C1655 1.397 . S
C1656 C1657 1.334 . S
C1657 H1634 0.950 . S
C1657 C1656 1.334 . S
C1657 C1658 1.287 . S
C1658 C1657 1.287 . S
C1658 C1659 1.524 . S
C1658 H1677 0.913 . S
C1659 H1635 0.950 . S
C1659 C1658 1.524 . S
C1659 C1660 1.415 . S
C1660 H1636 0.950 . S
C1660 C1655 1.363 . S
C1660 C1659 1.415 . S
C1661 H1637 0.951 . S
C1661 C1662 1.366 . S
C1661 C1663 1.388 . S
C1662 C1661 1.366 . S
C1662 C1666 1.385 . S
C1663 H1638 0.951 . S
C1663 C1661 1.388 . S
C1663 C1664 1.366 . S
C1664 C1663 1.366 . S
C1664 C1665 1.414 . S
C1664 C1667 1.499 . S
C1665 H1639 0.950 . S
C1665 C1664 1.414 . S
C1665 C1666 1.374 . S
C1666 H1640 0.950 . S
C1666 C1662 1.385 . S
C1666 C1665 1.374 . S
C1667 C1664 1.499 . S
C1667 C1668 1.373 . S
C1667 C1669 1.389 . S
C1668 H1641 0.950 . S
C1668 C1654 1.377 . S
C1668 C1667 1.373 . S
C1669 C1653 1.377 . S
C1669 C1667 1.389 . S
C1669 C1670 1.524 . S
C1670 C1669 1.524 . S
C1670 C1671 1.397 . S
C1670 C1675 1.363 . S
C1671 H1642 0.950 . S
C1671 C1670 1.397 . S
C1671 C1672 1.334 . S
C1672 H1643 0.950 . S
C1672 C1671 1.334 . S
C1672 C1673 1.287 . S
C1673 C1672 1.287 . S
C1673 C1674 1.524 . S
C1673 H1676 0.999 . S
C1674 H1644 0.950 . S
C1674 C1673 1.524 . S
C1674 C1675 1.415 . S
C1675 H1645 0.950 . S
C1675 C1670 1.363 . S
C1675 C1674 1.415 . S
H1676 C1673 0.999 . S
H1677 C1658 0.913 . S
H1678 C1696 0.951 . S
H1679 C1698 0.951 . S
H1680 C1700 0.950 . S
H1681 C1701 0.950 . S
H1682 C1703 0.950 . S
H1683 C1706 0.950 . S
H1684 C1707 0.950 . S
H1685 C1709 0.950 . S
H1686 C1710 0.950 . S
H1687 C1711 0.951 . S
H1688 C1713 0.951 . S
H1689 C1715 0.950 . S
H1690 C1716 0.950 . S
H1691 C1718 0.950 . S
H1692 C1721 0.950 . S
H1693 C1722 0.950 . S
H1694 C1724 0.950 . S
H1695 C1725 0.950 . S
C1696 H1678 0.951 . S
C1696 C1697 1.366 . S
C1696 C1698 1.388 . S
C1697 C1696 1.366 . S
C1697 C1701 1.385 . S
C1698 H1679 0.951 . S
C1698 C1696 1.388 . S
C1698 C1699 1.366 . S
C1699 C1698 1.366 . S
C1699 C1700 1.414 . S
C1699 C1702 1.499 . S
C1700 H1680 0.950 . S
C1700 C1699 1.414 . S
C1700 C1701 1.374 . S
C1701 H1681 0.950 . S
C1701 C1697 1.385 . S
C1701 C1700 1.374 . S
C1702 C1699 1.499 . S
C1702 C1703 1.373 . S
C1702 C1704 1.389 . S
C1703 H1682 0.950 . S
C1703 C1702 1.373 . S
C1703 C1719 1.377 . S
C1704 C1702 1.389 . S
C1704 C1705 1.524 . S
C1704 C1718 1.377 . S
C1705 C1704 1.524 . S
C1705 C1706 1.397 . S
C1705 C1710 1.363 . S
C1706 H1683 0.950 . S
C1706 C1705 1.397 . S
C1706 C1707 1.334 . S
C1707 H1684 0.950 . S
C1707 C1706 1.334 . S
C1707 C1708 1.287 . S
C1708 C1707 1.287 . S
C1708 C1709 1.524 . S
C1708 H1727 0.913 . S
C1709 H1685 0.950 . S
C1709 C1708 1.524 . S
C1709 C1710 1.415 . S
C1710 H1686 0.950 . S
C1710 C1705 1.363 . S
C1710 C1709 1.415 . S
C1711 H1687 0.951 . S
C1711 C1712 1.366 . S
C1711 C1713 1.388 . S
C1712 C1711 1.366 . S
C1712 C1716 1.385 . S
C1713 H1688 0.951 . S
C1713 C1711 1.388 . S
C1713 C1714 1.366 . S
C1714 C1713 1.366 . S
C1714 C1715 1.414 . S
C1714 C1717 1.499 . S
C1715 H1689 0.950 . S
C1715 C1714 1.414 . S
C1715 C1716 1.374 . S
C1716 H1690 0.950 . S
C1716 C1712 1.385 . S
C1716 C1715 1.374 . S
C1717 C1714 1.499 . S
C1717 C1718 1.373 . S
C1717 C1719 1.389 . S
C1718 H1691 0.950 . S
C1718 C1704 1.377 . S
C1718 C1717 1.373 . S
C1719 C1703 1.377 . S
C1719 C1717 1.389 . S
C1719 C1720 1.524 . S
C1720 C1719 1.524 . S
C1720 C1721 1.397 . S
C1720 C1725 1.363 . S
C1721 H1692 0.950 . S
C1721 C1720 1.397 . S
C1721 C1722 1.334 . S
C1722 H1693 0.950 . S
C1722 C1721 1.334 . S
C1722 C1723 1.287 . S
C1723 C1722 1.287 . S
C1723 C1724 1.524 . S
C1723 H1726 0.999 . S
C1724 H1694 0.950 . S
C1724 C1723 1.524 . S
C1724 C1725 1.415 . S
C1725 H1695 0.950 . S
C1725 C1720 1.363 . S
C1725 C1724 1.415 . S
H1726 C1723 0.999 . S
H1727 C1708 0.913 . S
H1728 C1746 0.951 . S
H1729 C1748 0.951 . S
H1730 C1750 0.950 . S
H1731 C1751 0.950 . S
H1732 C1753 0.950 . S
H1733 C1756 0.950 . S
H1734 C1757 0.950 . S
H1735 C1759 0.950 . S
H1736 C1760 0.950 . S
H1737 C1761 0.951 . S
H1738 C1763 0.951 . S
H1739 C1765 0.950 . S
H1740 C1766 0.950 . S
H1741 C1768 0.950 1_565 S
H1742 C1771 0.950 . S
H1743 C1772 0.950 . S
H1744 C1774 0.950 . S
H1745 C1775 0.950 . S
C1746 H1728 0.951 . S
C1746 C1747 1.366 . S
C1746 C1748 1.388 . S
C1747 C1746 1.366 . S
C1747 C1751 1.385 . S
C1748 H1729 0.951 . S
C1748 C1746 1.388 . S
C1748 C1749 1.366 . S
C1749 C1748 1.366 . S
C1749 C1750 1.414 . S
C1749 C1752 1.499 . S
C1750 H1730 0.950 . S
C1750 C1749 1.414 . S
C1750 C1751 1.374 . S
C1751 H1731 0.950 . S
C1751 C1747 1.385 . S
C1751 C1750 1.374 . S
C1752 C1749 1.499 . S
C1752 C1753 1.373 . S
C1752 C1754 1.389 . S
C1753 H1732 0.950 . S
C1753 C1752 1.373 . S
C1753 C1769 1.377 . S
C1754 C1752 1.389 . S
C1754 C1755 1.524 . S
C1754 C1768 1.377 . S
C1755 C1754 1.524 . S
C1755 C1756 1.397 . S
C1755 C1760 1.363 1_545 S
C1756 H1733 0.950 . S
C1756 C1755 1.397 . S
C1756 C1757 1.334 1_545 S
C1757 H1734 0.950 . S
C1757 C1756 1.334 1_565 S
C1757 C1758 1.287 . S
C1758 C1757 1.287 . S
C1758 C1759 1.524 . S
C1758 H1777 0.913 . S
C1759 H1735 0.950 . S
C1759 C1758 1.524 . S
C1759 C1760 1.415 . S
C1760 H1736 0.950 . S
C1760 C1755 1.363 1_565 S
C1760 C1759 1.415 . S
C1761 H1737 0.951 . S
C1761 C1762 1.366 . S
C1761 C1763 1.388 1_565 S
C1762 C1761 1.366 . S
C1762 C1766 1.385 . S
C1763 H1738 0.951 . S
C1763 C1761 1.388 1_545 S
C1763 C1764 1.366 . S
C1764 C1763 1.366 . S
C1764 C1765 1.414 1_545 S
C1764 C1767 1.499 . S
C1765 H1739 0.950 . S
C1765 C1764 1.414 1_565 S
C1765 C1766 1.374 . S
C1766 H1740 0.950 . S
C1766 C1762 1.385 . S
C1766 C1765 1.374 . S
C1767 C1764 1.499 . S
C1767 C1768 1.373 . S
C1767 C1769 1.389 . S
C1768 H1741 0.950 1_545 S
C1768 C1754 1.377 . S
C1768 C1767 1.373 . S
C1769 C1753 1.377 . S
C1769 C1767 1.389 . S
C1769 C1770 1.524 . S
C1770 C1769 1.524 . S
C1770 C1771 1.397 . S
C1770 C1775 1.363 . S
C1771 H1742 0.950 . S
C1771 C1770 1.397 . S
C1771 C1772 1.334 . S
C1772 H1743 0.950 . S
C1772 C1771 1.334 . S
C1772 C1773 1.287 . S
C1773 C1772 1.287 . S
C1773 C1774 1.524 . S
C1773 H1776 0.999 . S
C1774 H1744 0.950 . S
C1774 C1773 1.524 . S
C1774 C1775 1.415 . S
C1775 H1745 0.950 . S
C1775 C1770 1.363 . S
C1775 C1774 1.415 . S
H1776 C1773 0.999 . S
H1777 C1758 0.913 . S
H1778 C1796 0.951 . S
H1779 C1798 0.951 . S
H1780 C1800 0.950 . S
H1781 C1801 0.950 . S
H1782 C1803 0.950 . S
H1783 C1806 0.950 . S
H1784 C1807 0.950 . S
H1785 C1809 0.950 . S
H1786 C1810 0.950 . S
H1787 C1811 0.951 . S
H1788 C1813 0.951 . S
H1789 C1815 0.950 . S
H1790 C1816 0.950 . S
H1791 C1818 0.950 . S
H1792 C1821 0.950 . S
H1793 C1822 0.950 . S
H1794 C1824 0.950 . S
H1795 C1825 0.950 . S
C1796 H1778 0.951 . S
C1796 C1797 1.366 . S
C1796 C1798 1.388 . S
C1797 C1796 1.366 . S
C1797 C1801 1.385 . S
C1798 H1779 0.951 . S
C1798 C1796 1.388 . S
C1798 C1799 1.366 . S
C1799 C1798 1.366 . S
C1799 C1800 1.414 . S
C1799 C1802 1.499 . S
C1800 H1780 0.950 . S
C1800 C1799 1.414 . S
C1800 C1801 1.374 . S
C1801 H1781 0.950 . S
C1801 C1797 1.385 . S
C1801 C1800 1.374 . S
C1802 C1799 1.499 . S
C1802 C1803 1.373 . S
C1802 C1804 1.389 . S
C1803 H1782 0.950 . S
C1803 C1802 1.373 . S
C1803 C1819 1.377 . S
C1804 C1802 1.389 . S
C1804 C1805 1.524 . S
C1804 C1818 1.377 . S
C1805 C1804 1.524 . S
C1805 C1806 1.397 . S
C1805 C1810 1.363 . S
C1806 H1783 0.950 . S
C1806 C1805 1.397 . S
C1806 C1807 1.334 . S
C1807 H1784 0.950 . S
C1807 C1806 1.334 . S
C1807 C1808 1.287 . S
C1808 C1807 1.287 . S
C1808 C1809 1.524 . S
C1808 H1827 0.913 . S
C1809 H1785 0.950 . S
C1809 C1808 1.524 . S
C1809 C1810 1.415 . S
C1810 H1786 0.950 . S
C1810 C1805 1.363 . S
C1810 C1809 1.415 . S
C1811 H1787 0.951 . S
C1811 C1812 1.366 . S
C1811 C1813 1.388 1_655 S
C1812 C1811 1.366 . S
C1812 C1816 1.385 . S
C1813 H1788 0.951 . S
C1813 C1811 1.388 1_455 S
C1813 C1814 1.366 . S
C1814 C1813 1.366 . S
C1814 C1815 1.414 1_455 S
C1814 C1817 1.499 . S
C1815 H1789 0.950 . S
C1815 C1814 1.414 1_655 S
C1815 C1816 1.374 . S
C1816 H1790 0.950 . S
C1816 C1812 1.385 . S
C1816 C1815 1.374 . S
C1817 C1814 1.499 . S
C1817 C1818 1.373 . S
C1817 C1819 1.389 . S
C1818 H1791 0.950 . S
C1818 C1804 1.377 . S
C1818 C1817 1.373 . S
C1819 C1803 1.377 . S
C1819 C1817 1.389 . S
C1819 C1820 1.524 1_455 S
C1820 C1819 1.524 1_655 S
C1820 C1821 1.397 . S
C1820 C1825 1.363 1_655 S
C1821 H1792 0.950 . S
C1821 C1820 1.397 . S
C1821 C1822 1.334 . S
C1822 H1793 0.950 . S
C1822 C1821 1.334 . S
C1822 C1823 1.287 . S
C1823 C1822 1.287 . S
C1823 C1824 1.524 . S
C1823 H1826 0.999 . S
C1824 H1794 0.950 . S
C1824 C1823 1.524 . S
C1824 C1825 1.415 1_655 S
C1825 H1795 0.950 . S
C1825 C1820 1.363 1_455 S
C1825 C1824 1.415 1_455 S
H1826 C1823 0.999 . S
H1827 C1808 0.913 . S
H1828 C1846 0.951 . S
H1829 C1848 0.951 . S
H1830 C1850 0.950 . S
H1831 C1851 0.950 . S
H1832 C1853 0.950 . S
H1833 C1856 0.950 . S
H1834 C1857 0.950 . S
H1835 C1859 0.950 . S
H1836 C1860 0.950 . S
H1837 C1861 0.951 . S
H1838 C1863 0.951 . S
H1839 C1865 0.950 . S
H1840 C1866 0.950 . S
H1841 C1868 0.950 . S
H1842 C1871 0.950 . S
H1843 C1872 0.950 . S
H1844 C1874 0.950 . S
H1845 C1875 0.950 . S
C1846 H1828 0.951 . S
C1846 C1847 1.366 . S
C1846 C1848 1.388 . S
C1847 C1846 1.366 . S
C1847 C1851 1.385 . S
C1848 H1829 0.951 . S
C1848 C1846 1.388 . S
C1848 C1849 1.366 . S
C1849 C1848 1.366 . S
C1849 C1850 1.414 . S
C1849 C1852 1.499 . S
C1850 H1830 0.950 . S
C1850 C1849 1.414 . S
C1850 C1851 1.374 . S
C1851 H1831 0.950 . S
C1851 C1847 1.385 . S
C1851 C1850 1.374 . S
C1852 C1849 1.499 . S
C1852 C1853 1.373 . S
C1852 C1854 1.389 . S
C1853 H1832 0.950 . S
C1853 C1852 1.373 . S
C1853 C1869 1.377 . S
C1854 C1852 1.389 . S
C1854 C1855 1.524 . S
C1854 C1868 1.377 . S
C1855 C1854 1.524 . S
C1855 C1856 1.397 . S
C1855 C1860 1.363 . S
C1856 H1833 0.950 . S
C1856 C1855 1.397 . S
C1856 C1857 1.334 . S
C1857 H1834 0.950 . S
C1857 C1856 1.334 . S
C1857 C1858 1.287 . S
C1858 C1857 1.287 . S
C1858 C1859 1.524 . S
C1858 H1877 0.913 . S
C1859 H1835 0.950 . S
C1859 C1858 1.524 . S
C1859 C1860 1.415 . S
C1860 H1836 0.950 . S
C1860 C1855 1.363 . S
C1860 C1859 1.415 . S
C1861 H1837 0.951 . S
C1861 C1862 1.366 . S
C1861 C1863 1.388 . S
C1862 C1861 1.366 . S
C1862 C1866 1.385 . S
C1863 H1838 0.951 . S
C1863 C1861 1.388 . S
C1863 C1864 1.366 1_545 S
C1864 C1863 1.366 1_565 S
C1864 C1865 1.414 . S
C1864 C1867 1.499 . S
C1865 H1839 0.950 . S
C1865 C1864 1.414 . S
C1865 C1866 1.374 1_565 S
C1866 H1840 0.950 . S
C1866 C1862 1.385 . S
C1866 C1865 1.374 1_545 S
C1867 C1864 1.499 . S
C1867 C1868 1.373 . S
C1867 C1869 1.389 . S
C1868 H1841 0.950 . S
C1868 C1854 1.377 . S
C1868 C1867 1.373 . S
C1869 C1853 1.377 . S
C1869 C1867 1.389 . S
C1869 C1870 1.524 1_565 S
C1870 C1869 1.524 1_545 S
C1870 C1871 1.397 . S
C1870 C1875 1.363 . S
C1871 H1842 0.950 . S
C1871 C1870 1.397 . S
C1871 C1872 1.334 . S
C1872 H1843 0.950 . S
C1872 C1871 1.334 . S
C1872 C1873 1.287 . S
C1873 C1872 1.287 . S
C1873 C1874 1.524 . S
C1873 H1876 0.999 . S
C1874 H1844 0.950 . S
C1874 C1873 1.524 . S
C1874 C1875 1.415 . S
C1875 H1845 0.950 . S
C1875 C1870 1.363 . S
C1875 C1874 1.415 . S
H1876 C1873 0.999 . S
H1877 C1858 0.913 . S
H1878 C1896 0.951 . S
H1879 C1898 0.951 . S
H1880 C1900 0.950 . S
H1881 C1901 0.950 . S
H1882 C1903 0.950 1_455 S
H1883 C1906 0.950 . S
H1884 C1907 0.950 . S
H1885 C1909 0.950 . S
H1886 C1910 0.950 . S
H1887 C1911 0.951 . S
H1888 C1913 0.951 . S
H1889 C1915 0.950 . S
H1890 C1916 0.950 . S
H1891 C1918 0.950 . S
H1892 C1921 0.950 . S
H1893 C1922 0.950 1_655 S
H1894 C1924 0.950 . S
H1895 C1925 0.950 . S
C1896 H1878 0.951 . S
C1896 C1897 1.366 . S
C1896 C1898 1.388 1_455 S
C1897 C1896 1.366 . S
C1897 C1901 1.385 . S
C1898 H1879 0.951 . S
C1898 C1896 1.388 1_655 S
C1898 C1899 1.366 . S
C1899 C1898 1.366 . S
C1899 C1900 1.414 1_655 S
C1899 C1902 1.499 . S
C1900 H1880 0.950 . S
C1900 C1899 1.414 1_455 S
C1900 C1901 1.374 . S
C1901 H1881 0.950 . S
C1901 C1897 1.385 . S
C1901 C1900 1.374 . S
C1902 C1899 1.499 . S
C1902 C1903 1.373 . S
C1902 C1904 1.389 . S
C1903 H1882 0.950 1_655 S
C1903 C1902 1.373 . S
C1903 C1919 1.377 . S
C1904 C1902 1.389 . S
C1904 C1905 1.524 . S
C1904 C1918 1.377 . S
C1905 C1904 1.524 . S
C1905 C1906 1.397 . S
C1905 C1910 1.363 . S
C1906 H1883 0.950 . S
C1906 C1905 1.397 . S
C1906 C1907 1.334 . S
C1907 H1884 0.950 . S
C1907 C1906 1.334 . S
C1907 C1908 1.287 . S
C1908 C1907 1.287 . S
C1908 C1909 1.524 . S
C1908 H1927 0.913 . S
C1909 H1885 0.950 . S
C1909 C1908 1.524 . S
C1909 C1910 1.415 . S
C1910 H1886 0.950 . S
C1910 C1905 1.363 . S
C1910 C1909 1.415 . S
C1911 H1887 0.951 . S
C1911 C1912 1.366 . S
C1911 C1913 1.388 . S
C1912 C1911 1.366 . S
C1912 C1916 1.385 . S
C1913 H1888 0.951 . S
C1913 C1911 1.388 . S
C1913 C1914 1.366 . S
C1914 C1913 1.366 . S
C1914 C1915 1.414 . S
C1914 C1917 1.499 . S
C1915 H1889 0.950 . S
C1915 C1914 1.414 . S
C1915 C1916 1.374 . S
C1916 H1890 0.950 . S
C1916 C1912 1.385 . S
C1916 C1915 1.374 . S
C1917 C1914 1.499 . S
C1917 C1918 1.373 . S
C1917 C1919 1.389 . S
C1918 H1891 0.950 . S
C1918 C1904 1.377 . S
C1918 C1917 1.373 . S
C1919 C1903 1.377 . S
C1919 C1917 1.389 . S
C1919 C1920 1.524 . S
C1920 C1919 1.524 . S
C1920 C1921 1.397 . S
C1920 C1925 1.363 1_655 S
C1921 H1892 0.950 . S
C1921 C1920 1.397 . S
C1921 C1922 1.334 1_655 S
C1922 H1893 0.950 1_455 S
C1922 C1921 1.334 1_455 S
C1922 C1923 1.287 . S
C1923 C1922 1.287 . S
C1923 C1924 1.524 . S
C1923 H1926 0.999 . S
C1924 H1894 0.950 . S
C1924 C1923 1.524 . S
C1924 C1925 1.415 . S
C1925 H1895 0.950 . S
C1925 C1920 1.363 1_455 S
C1925 C1924 1.415 . S
H1926 C1923 0.999 . S
H1927 C1908 0.913 . S
H1928 C1946 0.951 . S
H1929 C1948 0.951 . S
H1930 C1950 0.950 . S
H1931 C1951 0.950 . S
H1932 C1953 0.950 . S
H1933 C1956 0.950 . S
H1934 C1957 0.950 . S
H1935 C1959 0.961 . S
H1936 C1960 0.950 . S
H1937 C1961 0.951 . S
H1938 C1963 0.951 . S
H1939 C1965 0.950 . S
H1940 C1966 0.950 . S
H1941 C1968 0.950 . S
H1942 C1971 0.950 . S
H1943 C1972 0.950 . S
H1944 C1974 0.950 . S
H1945 C1975 0.950 . S
C1946 H1928 0.951 . S
C1946 C1947 1.366 . S
C1946 C1948 1.388 1_545 S
C1947 C1946 1.366 . S
C1947 C1951 1.385 . S
C1948 H1929 0.951 . S
C1948 C1946 1.388 1_565 S
C1948 C1949 1.366 . S
C1949 C1948 1.366 . S
C1949 C1950 1.414 1_565 S
C1949 C1952 1.499 . S
C1950 H1930 0.950 . S
C1950 C1949 1.414 1_545 S
C1950 C1951 1.374 . S
C1951 H1931 0.950 . S
C1951 C1947 1.385 . S
C1951 C1950 1.374 . S
C1952 C1949 1.499 . S
C1952 C1953 1.373 . S
C1952 C1954 1.389 . S
C1953 H1932 0.950 . S
C1953 C1952 1.373 . S
C1953 C1969 1.377 . S
C1954 C1952 1.389 . S
C1954 C1955 1.524 . S
C1954 C1968 1.377 . S
C1955 C1954 1.524 . S
C1955 C1956 1.397 1_565 S
C1955 C1960 1.363 . S
C1956 H1933 0.950 . S
C1956 C1955 1.397 1_545 S
C1956 C1957 1.334 . S
C1957 H1934 0.950 . S
C1957 C1956 1.334 . S
C1957 C1958 1.287 . S
C1958 C1957 1.287 . S
C1958 C1959 1.494 1_545 S
C1958 H1977 0.913 . S
C1959 H1935 0.961 . S
C1959 C1958 1.494 1_565 S
C1959 C1960 1.433 . S
C1960 H1936 0.950 . S
C1960 C1955 1.363 . S
C1960 C1959 1.433 . S
C1961 H1937 0.951 . S
C1961 C1962 1.366 . S
C1961 C1963 1.388 . S
C1962 C1961 1.366 . S
C1962 C1966 1.385 . S
C1963 H1938 0.951 . S
C1963 C1961 1.388 . S
C1963 C1964 1.366 . S
C1964 C1963 1.366 . S
C1964 C1965 1.414 . S
C1964 C1967 1.499 . S
C1965 H1939 0.950 . S
C1965 C1964 1.414 . S
C1965 C1966 1.374 . S
C1966 H1940 0.950 . S
C1966 C1962 1.385 . S
C1966 C1965 1.374 . S
C1967 C1964 1.499 . S
C1967 C1968 1.373 . S
C1967 C1969 1.389 . S
C1968 H1941 0.950 . S
C1968 C1954 1.377 . S
C1968 C1967 1.373 . S
C1969 C1953 1.377 . S
C1969 C1967 1.389 . S
C1969 C1970 1.524 . S
C1970 C1969 1.524 . S
C1970 C1971 1.397 . S
C1970 C1975 1.363 . S
C1971 H1942 0.950 . S
C1971 C1970 1.397 . S
C1971 C1972 1.334 . S
C1972 H1943 0.950 . S
C1972 C1971 1.334 . S
C1972 C1973 1.287 . S
C1973 C1972 1.287 . S
C1973 C1974 1.524 . S
C1973 H1976 0.999 . S
C1974 H1944 0.950 . S
C1974 C1973 1.524 . S
C1974 C1975 1.415 . S
C1975 H1945 0.950 . S
C1975 C1970 1.363 . S
C1975 C1974 1.415 . S
H1976 C1973 0.999 . S
H1977 C1958 0.913 . S
H1978 C1996 0.951 . S
H1979 C1998 0.938 1_655 S
H1980 C2000 0.950 1_655 S
H1981 C2001 0.950 . S
H1982 C2003 0.924 1_455 S
H1983 C2006 0.950 . S
H1984 C2007 0.950 . S
H1985 C2009 0.950 . S
H1986 C2010 0.950 . S
H1987 C2011 0.951 . S
H1988 C2013 0.951 . S
H1989 C2015 0.950 . S
H1990 C2016 0.950 . S
H1991 C2018 0.950 . S
H1992 C2021 0.950 . S
H1993 C2022 0.950 1_455 S
H1994 C2024 0.950 . S
H1995 C2025 0.950 . S
C1996 H1978 0.951 . S
C1996 C1997 1.366 . S
C1996 C1998 1.414 . S
C1997 C1996 1.366 . S
C1997 C2001 1.385 . S
C1998 H1979 0.938 1_455 S
C1998 C1996 1.414 . S
C1998 C1999 1.354 1_455 S
C1999 C1998 1.354 1_655 S
C1999 C2000 1.414 1_655 S
C1999 C2002 1.499 . S
C2000 H1980 0.950 1_455 S
C2000 C1999 1.414 1_455 S
C2000 C2001 1.374 . S
C2001 H1981 0.950 . S
C2001 C1997 1.385 . S
C2001 C2000 1.374 . S
C2002 C1999 1.499 . S
C2002 C2003 1.373 . S
C2002 C2004 1.389 . S
C2003 H1982 0.924 1_655 S
C2003 C2002 1.373 . S
C2003 C2019 1.377 . S
C2004 C2002 1.389 . S
C2004 C2005 1.524 . S
C2004 C2018 1.377 . S
C2005 C2004 1.524 . S
C2005 C2006 1.397 . S
C2005 C2010 1.363 . S
C2006 H1983 0.950 . S
C2006 C2005 1.397 . S
C2006 C2007 1.334 . S
C2007 H1984 0.950 . S
C2007 C2006 1.334 . S
C2007 C2008 1.287 . S
C2008 C2007 1.287 . S
C2008 C2009 1.524 . S
C2008 H2027 0.913 . S
C2009 H1985 0.950 . S
C2009 C2008 1.524 . S
C2009 C2010 1.415 . S
C2010 H1986 0.950 . S
C2010 C2005 1.363 . S
C2010 C2009 1.415 . S
C2011 H1987 0.951 . S
C2011 C2012 1.366 . S
C2011 C2013 1.388 . S
C2012 C2011 1.366 . S
C2012 C2016 1.385 . S
C2013 H1988 0.951 . S
C2013 C2011 1.388 . S
C2013 C2014 1.366 . S
C2014 C2013 1.366 . S
C2014 C2015 1.414 . S
C2014 C2017 1.499 . S
C2015 H1989 0.950 . S
C2015 C2014 1.414 . S
C2015 C2016 1.374 . S
C2016 H1990 0.950 . S
C2016 C2012 1.385 . S
C2016 C2015 1.374 . S
C2017 C2014 1.499 . S
C2017 C2018 1.373 . S
C2017 C2019 1.389 . S
C2018 H1991 0.950 . S
C2018 C2004 1.377 . S
C2018 C2017 1.373 . S
C2019 C2003 1.377 . S
C2019 C2017 1.389 . S
C2019 C2020 1.524 . S
C2020 C2019 1.524 . S
C2020 C2021 1.397 . S
C2020 C2025 1.363 . S
C2021 H1992 0.950 . S
C2021 C2020 1.397 . S
C2021 C2022 1.335 . S
C2022 H1993 0.950 1_655 S
C2022 C2021 1.335 . S
C2022 C2023 1.286 1_655 S
C2023 C2022 1.286 1_455 S
C2023 C2024 1.524 . S
C2023 H2026 0.999 . S
C2024 H1994 0.950 . S
C2024 C2023 1.524 . S
C2024 C2025 1.415 1_455 S
C2025 H1995 0.950 . S
C2025 C2020 1.363 . S
C2025 C2024 1.415 1_655 S
H2026 C2023 0.999 . S
H2027 C2008 0.913 . S
H2028 C2046 0.962 . S
H2029 C2048 0.951 . S
H2030 C2050 0.950 . S
H2031 C2051 0.950 . S
H2032 C2053 0.950 . S
H2033 C2056 0.973 . S
H2034 C2057 0.938 1_565 S
H2035 C2059 0.950 . S
H2036 C2060 0.950 . S
H2037 C2061 0.951 . S
H2038 C2063 0.951 . S
H2039 C2065 0.950 . S
H2040 C2066 0.950 . S
H2041 C2068 0.950 . S
H2042 C2071 0.950 . S
H2043 C2072 0.950 . S
H2044 C2074 0.950 1_565 S
H2045 C2075 0.950 1_565 S
C2046 H2028 0.962 . S
C2046 C2047 1.342 1_545 S
C2046 C2048 1.401 . S
C2047 C2046 1.342 1_565 S
C2047 C2051 1.385 . S
C2048 H2029 0.951 . S
C2048 C2046 1.401 . S
C2048 C2049 1.366 . S
C2049 C2048 1.366 . S
C2049 C2050 1.414 1_545 S
C2049 C2052 1.499 . S
C2050 H2030 0.950 . S
C2050 C2049 1.414 1_565 S
C2050 C2051 1.374 . S
C2051 H2031 0.950 . S
C2051 C2047 1.385 . S
C2051 C2050 1.374 . S
C2052 C2049 1.499 . S
C2052 C2053 1.373 . S
C2052 C2054 1.389 . S
C2053 H2032 0.950 . S
C2053 C2052 1.373 . S
C2053 C2069 1.377 . S
C2054 C2052 1.389 . S
C2054 C2055 1.524 . S
C2054 C2068 1.377 . S
C2055 C2054 1.524 . S
C2055 C2056 1.397 . S
C2055 C2060 1.363 . S
C2056 H2033 0.973 . S
C2056 C2055 1.397 . S
C2056 C2057 1.334 . S
C2057 H2034 0.938 1_545 S
C2057 C2056 1.334 . S
C2057 C2058 1.287 . S
C2058 C2057 1.287 . S
C2058 C2059 1.524 . S
C2058 H2077 0.913 . S
C2059 H2035 0.950 . S
C2059 C2058 1.524 . S
C2059 C2060 1.415 . S
C2060 H2036 0.950 . S
C2060 C2055 1.363 . S
C2060 C2059 1.415 . S
C2061 H2037 0.951 . S
C2061 C2062 1.366 . S
C2061 C2063 1.388 . S
C2062 C2061 1.366 . S
C2062 C2066 1.385 . S
C2063 H2038 0.951 . S
C2063 C2061 1.388 . S
C2063 C2064 1.366 . S
C2064 C2063 1.366 . S
C2064 C2065 1.414 . S
C2064 C2067 1.499 . S
C2065 H2039 0.950 . S
C2065 C2064 1.414 . S
C2065 C2066 1.374 . S
C2066 H2040 0.950 . S
C2066 C2062 1.385 . S
C2066 C2065 1.374 . S
C2067 C2064 1.499 . S
C2067 C2068 1.373 . S
C2067 C2069 1.389 . S
C2068 H2041 0.950 . S
C2068 C2054 1.377 . S
C2068 C2067 1.373 . S
C2069 C2053 1.377 . S
C2069 C2067 1.389 . S
C2069 C2070 1.524 . S
C2070 C2069 1.524 . S
C2070 C2071 1.397 . S
C2070 C2075 1.363 . S
C2071 H2042 0.950 . S
C2071 C2070 1.397 . S
C2071 C2072 1.334 . S
C2072 H2043 0.950 . S
C2072 C2071 1.334 . S
C2072 C2073 1.287 . S
C2073 C2072 1.287 . S
C2073 C2074 1.524 . S
C2073 H2076 0.999 . S
C2074 H2044 0.950 1_545 S
C2074 C2073 1.524 . S
C2074 C2075 1.415 . S
C2075 H2045 0.950 1_545 S
C2075 C2070 1.363 . S
C2075 C2074 1.415 . S
H2076 C2073 0.999 . S
H2077 C2058 0.913 . S
H2078 C2096 0.935 1_455 S
H2079 C2098 0.951 . S
H2080 C2100 0.950 . S
H2081 C2101 0.950 . S
H2082 C2103 0.950 1_655 S
H2083 C2106 0.950 . S
H2084 C2107 0.950 . S
H2085 C2109 0.950 . S
H2086 C2110 0.950 . S
H2087 C2111 0.951 . S
H2088 C2113 0.951 . S
H2089 C2115 0.950 . S
H2090 C2116 0.950 . S
H2091 C2118 0.950 . S
H2092 C2121 0.950 . S
H2093 C2122 0.950 . S
H2094 C2124 0.950 . S
H2095 C2125 0.950 . S
C2096 H2078 0.935 1_655 S
C2096 C2097 1.409 . S
C2096 C2098 1.362 1_655 S
C2097 C2096 1.409 . S
C2097 C2101 1.385 . S
C2098 H2079 0.951 . S
C2098 C2096 1.362 1_455 S
C2098 C2099 1.366 . S
C2099 C2098 1.366 . S
C2099 C2100 1.414 1_455 S
C2099 C2102 1.499 . S
C2100 H2080 0.950 . S
C2100 C2099 1.414 1_655 S
C2100 C2101 1.374 . S
C2101 H2081 0.950 . S
C2101 C2097 1.385 . S
C2101 C2100 1.374 . S
C2102 C2099 1.499 . S
C2102 C2103 1.373 . S
C2102 C2104 1.389 . S
C2103 H2082 0.950 1_455 S
C2103 C2102 1.373 . S
C2103 C2119 1.377 . S
C2104 C2102 1.389 . S
C2104 C2105 1.524 . S
C2104 C2118 1.377 . S
C2105 C2104 1.524 . S
C2105 C2106 1.397 . S
C2105 C2110 1.363 . S
C2106 H2083 0.950 . S
C2106 C2105 1.397 . S
C2106 C2107 1.334 . S
C2107 H2084 0.950 . S
C2107 C2106 1.334 . S
C2107 C2108 1.287 . S
C2108 C2107 1.287 . S
C2108 C2109 1.524 . S
C2108 H2127 0.913 . S
C2109 H2085 0.950 . S
C2109 C2108 1.524 . S
C2109 C2110 1.415 . S
C2110 H2086 0.950 . S
C2110 C2105 1.363 . S
C2110 C2109 1.415 . S
C2111 H2087 0.951 . S
C2111 C2112 1.366 . S
C2111 C2113 1.388 . S
C2112 C2111 1.366 . S
C2112 C2116 1.385 . S
C2113 H2088 0.951 . S
C2113 C2111 1.388 . S
C2113 C2114 1.366 . S
C2114 C2113 1.366 . S
C2114 C2115 1.414 . S
C2114 C2117 1.499 . S
C2115 H2089 0.950 . S
C2115 C2114 1.414 . S
C2115 C2116 1.374 . S
C2116 H2090 0.950 . S
C2116 C2112 1.385 . S
C2116 C2115 1.374 . S
C2117 C2114 1.499 . S
C2117 C2118 1.373 . S
C2117 C2119 1.389 . S
C2118 H2091 0.950 . S
C2118 C2104 1.377 . S
C2118 C2117 1.373 . S
C2119 C2103 1.377 . S
C2119 C2117 1.389 . S
C2119 C2120 1.524 . S
C2120 C2119 1.524 . S
C2120 C2121 1.397 . S
C2120 C2125 1.363 1_455 S
C2121 H2092 0.950 . S
C2121 C2120 1.397 . S
C2121 C2122 1.334 . S
C2122 H2093 0.950 . S
C2122 C2121 1.334 . S
C2122 C2123 1.287 1_455 S
C2123 C2122 1.287 1_655 S
C2123 C2124 1.524 . S
C2123 H2126 0.999 . S
C2124 H2094 0.950 . S
C2124 C2123 1.524 . S
C2124 C2125 1.415 . S
C2125 H2095 0.950 . S
C2125 C2120 1.363 1_655 S
C2125 C2124 1.415 . S
H2126 C2123 0.999 . S
H2127 C2108 0.913 . S
H2128 C2146 0.951 . S
H2129 C2148 0.951 . S
H2130 C2150 0.950 . S
H2131 C2151 0.950 . S
H2132 C2153 0.950 . S
H2133 C2156 0.950 . S
H2134 C2157 0.950 . S
H2135 C2159 0.950 . S
H2136 C2160 0.950 . S
H2137 C2161 0.951 . S
H2138 C2163 0.951 . S
H2139 C2165 0.950 . S
H2140 C2166 0.950 . S
H2141 C2168 0.950 . S
H2142 C2171 0.950 . S
H2143 C2172 0.950 . S
H2144 C2174 0.950 . S
H2145 C2175 0.950 . S
C2146 H2128 0.951 . S
C2146 C2147 1.366 . S
C2146 C2148 1.388 . S
C2147 C2146 1.366 . S
C2147 C2151 1.385 . S
C2148 H2129 0.951 . S
C2148 C2146 1.388 . S
C2148 C2149 1.366 . S
C2149 C2148 1.366 . S
C2149 C2150 1.414 . S
C2149 C2152 1.499 . S
C2150 H2130 0.950 . S
C2150 C2149 1.414 . S
C2150 C2151 1.374 . S
C2151 H2131 0.950 . S
C2151 C2147 1.385 . S
C2151 C2150 1.374 . S
C2152 C2149 1.499 . S
C2152 C2153 1.373 . S
C2152 C2154 1.389 . S
C2153 H2132 0.950 . S
C2153 C2152 1.373 . S
C2153 C2169 1.377 . S
C2154 C2152 1.389 . S
C2154 C2155 1.524 . S
C2154 C2168 1.377 . S
C2155 C2154 1.524 . S
C2155 C2156 1.397 . S
C2155 C2160 1.363 . S
C2156 H2133 0.950 . S
C2156 C2155 1.397 . S
C2156 C2157 1.334 . S
C2157 H2134 0.950 . S
C2157 C2156 1.334 . S
C2157 C2158 1.287 . S
C2158 C2157 1.287 . S
C2158 C2159 1.524 . S
C2158 H2177 0.913 . S
C2159 H2135 0.950 . S
C2159 C2158 1.524 . S
C2159 C2160 1.415 . S
C2160 H2136 0.950 . S
C2160 C2155 1.363 . S
C2160 C2159 1.415 . S
C2161 H2137 0.951 . S
C2161 C2162 1.366 . S
C2161 C2163 1.388 . S
C2162 C2161 1.366 . S
C2162 C2166 1.385 . S
C2163 H2138 0.951 . S
C2163 C2161 1.388 . S
C2163 C2164 1.366 . S
C2164 C2163 1.366 . S
C2164 C2165 1.414 . S
C2164 C2167 1.499 . S
C2165 H2139 0.950 . S
C2165 C2164 1.414 . S
C2165 C2166 1.374 . S
C2166 H2140 0.950 . S
C2166 C2162 1.385 . S
C2166 C2165 1.374 . S
C2167 C2164 1.499 . S
C2167 C2168 1.373 . S
C2167 C2169 1.389 . S
C2168 H2141 0.950 . S
C2168 C2154 1.377 . S
C2168 C2167 1.373 . S
C2169 C2153 1.377 . S
C2169 C2167 1.389 . S
C2169 C2170 1.524 . S
C2170 C2169 1.524 . S
C2170 C2171 1.397 . S
C2170 C2175 1.363 . S
C2171 H2142 0.950 . S
C2171 C2170 1.397 . S
C2171 C2172 1.334 . S
C2172 H2143 0.950 . S
C2172 C2171 1.334 . S
C2172 C2173 1.287 . S
C2173 C2172 1.287 . S
C2173 C2174 1.524 . S
C2173 H2176 0.999 . S
C2174 H2144 0.950 . S
C2174 C2173 1.524 . S
C2174 C2175 1.415 . S
C2175 H2145 0.950 . S
C2175 C2170 1.363 . S
C2175 C2174 1.415 . S
H2176 C2173 0.999 . S
H2177 C2158 0.913 . S
H2178 C2196 0.951 . S
H2179 C2198 0.951 . S
H2180 C2200 0.950 . S
H2181 C2201 0.950 . S
H2182 C2203 0.950 . S
H2183 C2206 0.950 . S
H2184 C2207 0.950 . S
H2185 C2209 0.950 . S
H2186 C2210 0.950 . S
H2187 C2211 0.951 . S
H2188 C2213 0.951 . S
H2189 C2215 0.950 . S
H2190 C2216 0.950 . S
H2191 C2218 0.950 . S
H2192 C2221 0.950 . S
H2193 C2222 0.950 . S
H2194 C2224 0.950 . S
H2195 C2225 0.950 . S
C2196 H2178 0.951 . S
C2196 C2197 1.366 . S
C2196 C2198 1.388 . S
C2197 C2196 1.366 . S
C2197 C2201 1.385 . S
C2198 H2179 0.951 . S
C2198 C2196 1.388 . S
C2198 C2199 1.366 . S
C2199 C2198 1.366 . S
C2199 C2200 1.414 . S
C2199 C2202 1.499 . S
C2200 H2180 0.950 . S
C2200 C2199 1.414 . S
C2200 C2201 1.374 . S
C2201 H2181 0.950 . S
C2201 C2197 1.385 . S
C2201 C2200 1.374 . S
C2202 C2199 1.499 . S
C2202 C2203 1.373 . S
C2202 C2204 1.389 . S
C2203 H2182 0.950 . S
C2203 C2202 1.373 . S
C2203 C2219 1.377 . S
C2204 C2202 1.389 . S
C2204 C2205 1.524 . S
C2204 C2218 1.377 . S
C2205 C2204 1.524 . S
C2205 C2206 1.397 . S
C2205 C2210 1.363 . S
C2206 H2183 0.950 . S
C2206 C2205 1.397 . S
C2206 C2207 1.334 . S
C2207 H2184 0.950 . S
C2207 C2206 1.334 . S
C2207 C2208 1.287 . S
C2208 C2207 1.287 . S
C2208 C2209 1.524 . S
C2208 H2227 0.913 . S
C2209 H2185 0.950 . S
C2209 C2208 1.524 . S
C2209 C2210 1.415 . S
C2210 H2186 0.950 . S
C2210 C2205 1.363 . S
C2210 C2209 1.415 . S
C2211 H2187 0.951 . S
C2211 C2212 1.366 . S
C2211 C2213 1.388 . S
C2212 C2211 1.366 . S
C2212 C2216 1.385 . S
C2213 H2188 0.951 . S
C2213 C2211 1.388 . S
C2213 C2214 1.366 . S
C2214 C2213 1.366 . S
C2214 C2215 1.414 . S
C2214 C2217 1.499 . S
C2215 H2189 0.950 . S
C2215 C2214 1.414 . S
C2215 C2216 1.374 . S
C2216 H2190 0.950 . S
C2216 C2212 1.385 . S
C2216 C2215 1.374 . S
C2217 C2214 1.499 . S
C2217 C2218 1.373 . S
C2217 C2219 1.389 . S
C2218 H2191 0.950 . S
C2218 C2204 1.377 . S
C2218 C2217 1.373 . S
C2219 C2203 1.377 . S
C2219 C2217 1.389 . S
C2219 C2220 1.524 . S
C2220 C2219 1.524 . S
C2220 C2221 1.397 . S
C2220 C2225 1.363 . S
C2221 H2192 0.950 . S
C2221 C2220 1.397 . S
C2221 C2222 1.334 . S
C2222 H2193 0.950 . S
C2222 C2221 1.334 . S
C2222 C2223 1.287 . S
C2223 C2222 1.287 . S
C2223 C2224 1.524 . S
C2223 H2226 0.999 . S
C2224 H2194 0.950 . S
C2224 C2223 1.524 . S
C2224 C2225 1.415 . S
C2225 H2195 0.950 . S
C2225 C2220 1.363 . S
C2225 C2224 1.415 . S
H2226 C2223 0.999 . S
H2227 C2208 0.913 . S
H2228 C2246 0.951 . S
H2229 C2248 0.951 . S
H2230 C2250 0.950 . S
H2231 C2251 0.950 . S
H2232 C2253 0.950 . S
H2233 C2256 0.950 . S
H2234 C2257 0.950 . S
H2235 C2259 0.950 . S
H2236 C2260 0.950 . S
H2237 C2261 0.951 . S
H2238 C2263 0.951 . S
H2239 C2265 0.950 . S
H2240 C2266 0.950 . S
H2241 C2268 0.950 . S
H2242 C2271 0.950 . S
H2243 C2272 0.950 . S
H2244 C2274 0.950 . S
H2245 C2275 0.950 . S
C2246 H2228 0.951 . S
C2246 C2247 1.366 . S
C2246 C2248 1.388 . S
C2247 C2246 1.366 . S
C2247 C2251 1.385 . S
C2248 H2229 0.951 . S
C2248 C2246 1.388 . S
C2248 C2249 1.366 . S
C2249 C2248 1.366 . S
C2249 C2250 1.414 . S
C2249 C2252 1.499 . S
C2250 H2230 0.950 . S
C2250 C2249 1.414 . S
C2250 C2251 1.374 . S
C2251 H2231 0.950 . S
C2251 C2247 1.385 . S
C2251 C2250 1.374 . S
C2252 C2249 1.499 . S
C2252 C2253 1.373 . S
C2252 C2254 1.389 . S
C2253 H2232 0.950 . S
C2253 C2252 1.373 . S
C2253 C2269 1.377 . S
C2254 C2252 1.389 . S
C2254 C2255 1.524 . S
C2254 C2268 1.377 . S
C2255 C2254 1.524 . S
C2255 C2256 1.397 . S
C2255 C2260 1.363 . S
C2256 H2233 0.950 . S
C2256 C2255 1.397 . S
C2256 C2257 1.334 . S
C2257 H2234 0.950 . S
C2257 C2256 1.334 . S
C2257 C2258 1.287 . S
C2258 C2257 1.287 . S
C2258 C2259 1.524 . S
C2258 H2277 0.913 . S
C2259 H2235 0.950 . S
C2259 C2258 1.524 . S
C2259 C2260 1.415 . S
C2260 H2236 0.950 . S
C2260 C2255 1.363 . S
C2260 C2259 1.415 . S
C2261 H2237 0.951 . S
C2261 C2262 1.366 . S
C2261 C2263 1.388 . S
C2262 C2261 1.366 . S
C2262 C2266 1.385 . S
C2263 H2238 0.951 . S
C2263 C2261 1.388 . S
C2263 C2264 1.366 . S
C2264 C2263 1.366 . S
C2264 C2265 1.414 . S
C2264 C2267 1.499 . S
C2265 H2239 0.950 . S
C2265 C2264 1.414 . S
C2265 C2266 1.374 . S
C2266 H2240 0.950 . S
C2266 C2262 1.385 . S
C2266 C2265 1.374 . S
C2267 C2264 1.499 . S
C2267 C2268 1.373 . S
C2267 C2269 1.389 . S
C2268 H2241 0.950 . S
C2268 C2254 1.377 . S
C2268 C2267 1.373 . S
C2269 C2253 1.377 . S
C2269 C2267 1.389 . S
C2269 C2270 1.524 . S
C2270 C2269 1.524 . S
C2270 C2271 1.397 . S
C2270 C2275 1.363 . S
C2271 H2242 0.950 . S
C2271 C2270 1.397 . S
C2271 C2272 1.334 . S
C2272 H2243 0.950 . S
C2272 C2271 1.334 . S
C2272 C2273 1.287 . S
C2273 C2272 1.287 . S
C2273 C2274 1.524 . S
C2273 H2276 0.999 . S
C2274 H2244 0.950 . S
C2274 C2273 1.524 . S
C2274 C2275 1.415 . S
C2275 H2245 0.950 . S
C2275 C2270 1.363 . S
C2275 C2274 1.415 . S
H2276 C2273 0.999 . S
H2277 C2258 0.913 . S
H2278 C2296 0.951 . S
H2279 C2298 0.951 . S
H2280 C2300 0.950 . S
H2281 C2301 0.950 . S
H2282 C2303 0.950 . S
H2283 C2306 0.950 . S
H2284 C2307 0.950 . S
H2285 C2309 0.950 . S
H2286 C2310 0.950 . S
H2287 C2311 0.951 . S
H2288 C2313 0.951 . S
H2289 C2315 0.950 . S
H2290 C2316 0.950 . S
H2291 C2318 0.950 . S
H2292 C2321 0.950 . S
H2293 C2322 0.950 . S
H2294 C2324 0.950 . S
H2295 C2325 0.950 . S
C2296 H2278 0.951 . S
C2296 C2297 1.366 . S
C2296 C2298 1.388 . S
C2297 C2296 1.366 . S
C2297 C2301 1.385 . S
C2298 H2279 0.951 . S
C2298 C2296 1.388 . S
C2298 C2299 1.366 . S
C2299 C2298 1.366 . S
C2299 C2300 1.414 . S
C2299 C2302 1.499 . S
C2300 H2280 0.950 . S
C2300 C2299 1.414 . S
C2300 C2301 1.374 . S
C2301 H2281 0.950 . S
C2301 C2297 1.385 . S
C2301 C2300 1.374 . S
C2302 C2299 1.499 . S
C2302 C2303 1.373 . S
C2302 C2304 1.389 . S
C2303 H2282 0.950 . S
C2303 C2302 1.373 . S
C2303 C2319 1.377 . S
C2304 C2302 1.389 . S
C2304 C2305 1.524 . S
C2304 C2318 1.377 . S
C2305 C2304 1.524 . S
C2305 C2306 1.397 . S
C2305 C2310 1.363 . S
C2306 H2283 0.950 . S
C2306 C2305 1.397 . S
C2306 C2307 1.334 . S
C2307 H2284 0.950 . S
C2307 C2306 1.334 . S
C2307 C2308 1.287 . S
C2308 C2307 1.287 . S
C2308 C2309 1.524 . S
C2308 H2327 0.913 . S
C2309 H2285 0.950 . S
C2309 C2308 1.524 . S
C2309 C2310 1.415 . S
C2310 H2286 0.950 . S
C2310 C2305 1.363 . S
C2310 C2309 1.415 . S
C2311 H2287 0.951 . S
C2311 C2312 1.366 . S
C2311 C2313 1.388 . S
C2312 C2311 1.366 . S
C2312 C2316 1.385 . S
C2313 H2288 0.951 . S
C2313 C2311 1.388 . S
C2313 C2314 1.366 . S
C2314 C2313 1.366 . S
C2314 C2315 1.414 . S
C2314 C2317 1.499 . S
C2315 H2289 0.950 . S
C2315 C2314 1.414 . S
C2315 C2316 1.374 . S
C2316 H2290 0.950 . S
C2316 C2312 1.385 . S
C2316 C2315 1.374 . S
C2317 C2314 1.499 . S
C2317 C2318 1.373 . S
C2317 C2319 1.389 . S
C2318 H2291 0.950 . S
C2318 C2304 1.377 . S
C2318 C2317 1.373 . S
C2319 C2303 1.377 . S
C2319 C2317 1.389 . S
C2319 C2320 1.524 . S
C2320 C2319 1.524 . S
C2320 C2321 1.397 . S
C2320 C2325 1.363 . S
C2321 H2292 0.950 . S
C2321 C2320 1.397 . S
C2321 C2322 1.334 . S
C2322 H2293 0.950 . S
C2322 C2321 1.334 . S
C2322 C2323 1.287 . S
C2323 C2322 1.287 . S
C2323 C2324 1.524 . S
C2323 H2326 0.999 . S
C2324 H2294 0.950 . S
C2324 C2323 1.524 . S
C2324 C2325 1.415 . S
C2325 H2295 0.950 . S
C2325 C2320 1.363 . S
C2325 C2324 1.415 . S
H2326 C2323 0.999 . S
H2327 C2308 0.913 . S
H2328 C2346 0.951 . S
H2329 C2348 0.951 . S
H2330 C2350 0.950 . S
H2331 C2351 0.950 . S
H2332 C2353 0.950 . S
H2333 C2356 0.950 . S
H2334 C2357 0.950 . S
H2335 C2359 0.950 . S
H2336 C2360 0.950 1_554 S
H2337 C2361 0.951 . S
H2338 C2363 0.951 . S
H2339 C2365 0.950 . S
H2340 C2366 0.950 . S
H2341 C2368 0.950 . S
H2342 C2371 0.950 . S
H2343 C2372 0.950 . S
H2344 C2374 0.950 . S
H2345 C2375 0.950 1_556 S
C2346 H2328 0.951 . S
C2346 C2347 1.366 . S
C2346 C2348 1.388 . S
C2347 C2346 1.366 . S
C2347 C2351 1.385 1_565 S
C2348 H2329 0.951 . S
C2348 C2346 1.388 . S
C2348 C2349 1.366 . S
C2349 C2348 1.366 . S
C2349 C2350 1.414 1_565 S
C2349 C2352 1.499 . S
C2350 H2330 0.950 . S
C2350 C2349 1.414 1_545 S
C2350 C2351 1.374 . S
C2351 H2331 0.950 . S
C2351 C2347 1.385 1_545 S
C2351 C2350 1.374 . S
C2352 C2349 1.499 . S
C2352 C2353 1.373 1_565 S
C2352 C2354 1.389 . S
C2353 H2332 0.950 . S
C2353 C2352 1.373 1_545 S
C2353 C2369 1.377 1_556 S
C2354 C2352 1.389 . S
C2354 C2355 1.524 . S
C2354 C2368 1.377 1_556 S
C2355 C2354 1.524 . S
C2355 C2356 1.397 . S
C2355 C2360 1.363 . S
C2356 H2333 0.950 . S
C2356 C2355 1.397 . S
C2356 C2357 1.334 . S
C2357 H2334 0.950 . S
C2357 C2356 1.334 . S
C2357 C2358 1.287 . S
C2358 C2357 1.287 . S
C2358 C2359 1.524 . S
C2358 H2377 0.913 . S
C2359 H2335 0.950 . S
C2359 C2358 1.524 . S
C2359 C2360 1.415 . S
C2360 H2336 0.950 1_556 S
C2360 C2355 1.363 . S
C2360 C2359 1.415 . S
C2361 H2337 0.951 . S
C2361 C2362 1.366 . S
C2361 C2363 1.388 . S
C2362 C2361 1.366 . S
C2362 C2366 1.385 1_545 S
C2363 H2338 0.951 . S
C2363 C2361 1.388 . S
C2363 C2364 1.366 . S
C2364 C2363 1.366 . S
C2364 C2365 1.414 1_545 S
C2364 C2367 1.499 . S
C2365 H2339 0.950 . S
C2365 C2364 1.414 1_565 S
C2365 C2366 1.374 . S
C2366 H2340 0.950 . S
C2366 C2362 1.385 1_565 S
C2366 C2365 1.374 . S
C2367 C2364 1.499 . S
C2367 C2368 1.373 1_545 S
C2367 C2369 1.389 . S
C2368 H2341 0.950 . S
C2368 C2354 1.377 1_554 S
C2368 C2367 1.373 1_565 S
C2369 C2353 1.377 1_554 S
C2369 C2367 1.389 . S
C2369 C2370 1.524 . S
C2370 C2369 1.524 . S
C2370 C2371 1.397 . S
C2370 C2375 1.363 . S
C2371 H2342 0.950 . S
C2371 C2370 1.397 . S
C2371 C2372 1.334 . S
C2372 H2343 0.950 . S
C2372 C2371 1.334 . S
C2372 C2373 1.287 . S
C2373 C2372 1.287 . S
C2373 C2374 1.524 . S
C2373 H2376 0.999 . S
C2374 H2344 0.950 . S
C2374 C2373 1.524 . S
C2374 C2375 1.415 . S
C2375 H2345 0.950 1_554 S
C2375 C2370 1.363 . S
C2375 C2374 1.415 . S
H2376 C2373 0.999 . S
H2377 C2358 0.913 . S
H2378 C2396 0.951 . S
H2379 C2398 0.951 . S
H2380 C2400 0.950 . S
H2381 C2401 0.950 1_655 S
H2382 C2403 0.950 . S
H2383 C2406 0.950 . S
H2384 C2407 0.950 . S
H2385 C2409 0.950 . S
H2386 C2410 0.986 . S
H2387 C2411 0.951 . S
H2388 C2413 0.951 . S
H2389 C2415 0.950 . S
H2390 C2416 0.950 1_455 S
H2391 C2418 0.950 . S
H2392 C2421 0.950 . S
H2393 C2422 0.950 . S
H2394 C2424 0.950 . S
H2395 C2425 0.986 . S
C2396 H2378 0.951 . S
C2396 C2397 1.366 . S
C2396 C2398 1.388 . S
C2397 C2396 1.366 . S
C2397 C2401 1.385 . S
C2398 H2379 0.951 . S
C2398 C2396 1.388 . S
C2398 C2399 1.366 . S
C2399 C2398 1.366 . S
C2399 C2400 1.414 1_455 S
C2399 C2402 1.499 . S
C2400 H2380 0.950 . S
C2400 C2399 1.414 1_655 S
C2400 C2401 1.374 1_655 S
C2401 H2381 0.950 1_455 S
C2401 C2397 1.385 . S
C2401 C2400 1.374 1_455 S
C2402 C2399 1.499 . S
C2402 C2403 1.373 . S
C2402 C2404 1.389 . S
C2403 H2382 0.950 . S
C2403 C2402 1.373 . S
C2403 C2419 1.377 1_456 S
C2404 C2402 1.389 . S
C2404 C2405 1.524 . S
C2404 C2418 1.377 1_456 S
C2405 C2404 1.524 . S
C2405 C2406 1.397 1_455 S
C2405 C2410 1.363 . S
C2406 H2383 0.950 . S
C2406 C2405 1.397 1_655 S
C2406 C2407 1.334 . S
C2407 H2384 0.950 . S
C2407 C2406 1.334 . S
C2407 C2408 1.287 . S
C2408 C2407 1.287 . S
C2408 C2409 1.524 1_655 S
C2408 H2427 0.913 . S
C2409 H2385 0.950 . S
C2409 C2408 1.524 1_455 S
C2409 C2410 1.415 . S
C2410 H2386 0.986 . S
C2410 C2405 1.363 . S
C2410 C2409 1.415 . S
C2411 H2387 0.951 . S
C2411 C2412 1.366 . S
C2411 C2413 1.388 . S
C2412 C2411 1.366 . S
C2412 C2416 1.385 . S
C2413 H2388 0.951 . S
C2413 C2411 1.388 . S
C2413 C2414 1.366 . S
C2414 C2413 1.366 . S
C2414 C2415 1.414 1_655 S
C2414 C2417 1.499 . S
C2415 H2389 0.950 . S
C2415 C2414 1.414 1_455 S
C2415 C2416 1.374 1_455 S
C2416 H2390 0.950 1_655 S
C2416 C2412 1.385 . S
C2416 C2415 1.374 1_655 S
C2417 C2414 1.499 . S
C2417 C2418 1.373 . S
C2417 C2419 1.389 . S
C2418 H2391 0.950 . S
C2418 C2404 1.377 1_654 S
C2418 C2417 1.373 . S
C2419 C2403 1.377 1_654 S
C2419 C2417 1.389 . S
C2419 C2420 1.524 . S
C2420 C2419 1.524 . S
C2420 C2421 1.397 1_655 S
C2420 C2425 1.363 . S
C2421 H2392 0.950 . S
C2421 C2420 1.397 1_455 S
C2421 C2422 1.334 . S
C2422 H2393 0.950 . S
C2422 C2421 1.334 . S
C2422 C2423 1.287 . S
C2423 C2422 1.287 . S
C2423 C2424 1.524 1_455 S
C2423 H2426 0.999 . S
C2424 H2394 0.950 . S
C2424 C2423 1.524 1_655 S
C2424 C2425 1.415 . S
C2425 H2395 0.986 . S
C2425 C2420 1.363 . S
C2425 C2424 1.415 . S
H2426 C2423 0.999 . S
H2427 C2408 0.913 . S
H2428 C2446 0.951 . S
H2429 C2448 0.951 . S
H2430 C2450 0.950 . S
H2431 C2451 0.950 . S
H2432 C2453 0.950 . S
H2433 C2456 0.950 . S
H2434 C2457 0.950 . S
H2435 C2459 0.950 . S
H2436 C2460 0.950 . S
H2437 C2461 0.951 . S
H2438 C2463 0.951 . S
H2439 C2465 0.950 . S
H2440 C2466 0.950 . S
H2441 C2468 0.950 . S
H2442 C2471 0.950 . S
H2443 C2472 0.950 . S
H2444 C2474 0.950 . S
H2445 C2475 0.950 . S
C2446 H2428 0.951 . S
C2446 C2447 1.366 1_545 S
C2446 C2448 1.388 . S
C2447 C2446 1.366 1_565 S
C2447 C2451 1.385 . S
C2448 H2429 0.951 . S
C2448 C2446 1.388 . S
C2448 C2449 1.366 1_545 S
C2449 C2448 1.366 1_565 S
C2449 C2450 1.414 . S
C2449 C2452 1.499 . S
C2450 H2430 0.950 . S
C2450 C2449 1.414 . S
C2450 C2451 1.374 . S
C2451 H2431 0.950 . S
C2451 C2447 1.385 . S
C2451 C2450 1.374 . S
C2452 C2449 1.499 . S
C2452 C2453 1.373 . S
C2452 C2454 1.389 1_565 S
C2453 H2432 0.950 . S
C2453 C2452 1.373 . S
C2453 C2469 1.377 1_554 S
C2454 C2452 1.389 1_545 S
C2454 C2455 1.524 . S
C2454 C2468 1.377 1_554 S
C2455 C2454 1.524 . S
C2455 C2456 1.397 . S
C2455 C2460 1.363 . S
C2456 H2433 0.950 . S
C2456 C2455 1.397 . S
C2456 C2457 1.334 . S
C2457 H2434 0.950 . S
C2457 C2456 1.334 . S
C2457 C2458 1.287 . S
C2458 C2457 1.287 . S
C2458 C2459 1.524 . S
C2458 H2477 0.913 . S
C2459 H2435 0.950 . S
C2459 C2458 1.524 . S
C2459 C2460 1.415 . S
C2460 H2436 0.950 . S
C2460 C2455 1.363 . S
C2460 C2459 1.415 . S
C2461 H2437 0.951 . S
C2461 C2462 1.366 1_565 S
C2461 C2463 1.388 . S
C2462 C2461 1.366 1_545 S
C2462 C2466 1.385 . S
C2463 H2438 0.951 . S
C2463 C2461 1.388 . S
C2463 C2464 1.366 1_565 S
C2464 C2463 1.366 1_545 S
C2464 C2465 1.414 . S
C2464 C2467 1.499 . S
C2465 H2439 0.950 . S
C2465 C2464 1.414 . S
C2465 C2466 1.374 . S
C2466 H2440 0.950 . S
C2466 C2462 1.385 . S
C2466 C2465 1.374 . S
C2467 C2464 1.499 . S
C2467 C2468 1.373 . S
C2467 C2469 1.389 1_545 S
C2468 H2441 0.950 . S
C2468 C2454 1.377 1_556 S
C2468 C2467 1.373 . S
C2469 C2453 1.377 1_556 S
C2469 C2467 1.389 1_565 S
C2469 C2470 1.524 . S
C2470 C2469 1.524 . S
C2470 C2471 1.397 . S
C2470 C2475 1.363 . S
C2471 H2442 0.950 . S
C2471 C2470 1.397 . S
C2471 C2472 1.334 . S
C2472 H2443 0.950 . S
C2472 C2471 1.334 . S
C2472 C2473 1.287 . S
C2473 C2472 1.287 . S
C2473 C2474 1.524 . S
C2473 H2476 0.999 . S
C2474 H2444 0.950 . S
C2474 C2473 1.524 . S
C2474 C2475 1.415 . S
C2475 H2445 0.950 . S
C2475 C2470 1.363 . S
C2475 C2474 1.415 . S
H2476 C2473 0.999 . S
H2477 C2458 0.913 . S
H2478 C2496 0.951 . S
H2479 C2498 0.951 . S
H2480 C2500 0.950 . S
H2481 C2501 0.950 . S
H2482 C2503 0.950 . S
H2483 C2506 0.950 1_655 S
H2484 C2507 0.950 . S
H2485 C2509 0.950 . S
H2486 C2510 0.950 . S
H2487 C2511 0.951 . S
H2488 C2513 0.951 . S
H2489 C2515 0.950 . S
H2490 C2516 0.950 . S
H2491 C2518 0.950 . S
H2492 C2521 0.950 1_455 S
H2493 C2522 0.950 . S
H2494 C2524 0.950 . S
H2495 C2525 0.950 . S
C2496 H2478 0.951 . S
C2496 C2497 1.366 1_455 S
C2496 C2498 1.388 . S
C2497 C2496 1.366 1_655 S
C2497 C2501 1.385 . S
C2498 H2479 0.951 . S
C2498 C2496 1.388 . S
C2498 C2499 1.366 1_455 S
C2499 C2498 1.366 1_655 S
C2499 C2500 1.414 . S
C2499 C2502 1.499 . S
C2500 H2480 0.950 . S
C2500 C2499 1.414 . S
C2500 C2501 1.374 . S
C2501 H2481 0.950 . S
C2501 C2497 1.385 . S
C2501 C2500 1.374 . S
C2502 C2499 1.499 . S
C2502 C2503 1.373 . S
C2502 C2504 1.389 1_655 S
C2503 H2482 0.950 . S
C2503 C2502 1.373 . S
C2503 C2519 1.377 1_556 S
C2504 C2502 1.389 1_455 S
C2504 C2505 1.524 . S
C2504 C2518 1.377 1_556 S
C2505 C2504 1.524 . S
C2505 C2506 1.397 . S
C2505 C2510 1.363 . S
C2506 H2483 0.950 1_455 S
C2506 C2505 1.397 . S
C2506 C2507 1.334 . S
C2507 H2484 0.950 . S
C2507 C2506 1.334 . S
C2507 C2508 1.287 . S
C2508 C2507 1.287 . S
C2508 C2509 1.524 . S
C2508 H2527 0.913 . S
C2509 H2485 0.950 . S
C2509 C2508 1.524 . S
C2509 C2510 1.415 . S
C2510 H2486 0.950 . S
C2510 C2505 1.363 . S
C2510 C2509 1.415 . S
C2511 H2487 0.951 . S
C2511 C2512 1.366 1_655 S
C2511 C2513 1.388 . S
C2512 C2511 1.366 1_455 S
C2512 C2516 1.385 . S
C2513 H2488 0.951 . S
C2513 C2511 1.388 . S
C2513 C2514 1.366 1_655 S
C2514 C2513 1.366 1_455 S
C2514 C2515 1.414 . S
C2514 C2517 1.499 . S
C2515 H2489 0.950 . S
C2515 C2514 1.414 . S
C2515 C2516 1.374 . S
C2516 H2490 0.950 . S
C2516 C2512 1.385 . S
C2516 C2515 1.374 . S
C2517 C2514 1.499 . S
C2517 C2518 1.373 . S
C2517 C2519 1.389 1_455 S
C2518 H2491 0.950 . S
C2518 C2504 1.377 1_554 S
C2518 C2517 1.373 . S
C2519 C2503 1.377 1_554 S
C2519 C2517 1.389 1_655 S
C2519 C2520 1.524 . S
C2520 C2519 1.524 . S
C2520 C2521 1.397 . S
C2520 C2525 1.363 . S
C2521 H2492 0.950 1_655 S
C2521 C2520 1.397 . S
C2521 C2522 1.334 . S
C2522 H2493 0.950 . S
C2522 C2521 1.334 . S
C2522 C2523 1.287 . S
C2523 C2522 1.287 . S
C2523 C2524 1.524 . S
C2523 H2526 0.999 . S
C2524 H2494 0.950 . S
C2524 C2523 1.524 . S
C2524 C2525 1.415 . S
C2525 H2495 0.950 . S
C2525 C2520 1.363 . S
C2525 C2524 1.415 . S
H2526 C2523 0.999 . S
H2527 C2508 0.913 . S
C547 C94 0.577 . S
C562 C28 0.580 . S
C597 C127 0.580 . S
C612 C61 0.576 . S
C647 C226 0.579 . S
C662 C160 0.576 . S
C697 C193 0.577 . S
C712 C259 0.580 . S
C747 C292 0.577 . S
C762 C358 0.580 . S
C797 C325 0.580 . S
C812 C391 0.578 . S
C847 C490 0.577 . S
C862 C424 0.580 . S
C897 C523 0.576 . S
C912 C457 0.579 . S
C947 C17 1.203 . S
C962 C248 1.203 . S
C997 C149 1.203 . S
C1012 C50 1.203 . S
C1047 C182 1.203 . S
C1062 C83 1.203 . S
C1097 C215 1.203 . S
C1112 C116 1.203 . S
C1147 C512 1.203 . S
C1162 C281 1.203 . S
C1197 C413 1.203 . S
C1212 C314 1.203 . S
C1247 C446 1.203 . S
C1262 C347 1.203 . S
C1297 C479 1.203 . S
C1312 C380 1.203 . S
C1347 C8 0.775 . S
C1362 N377 0.777 . S
C1397 C41 0.774 . S
C1412 N278 0.776 . S
C1447 C74 0.775 . S
C1462 N311 0.777 . S
C1497 N344 0.777 . S
C1512 C107 0.776 . S
C1547 C140 0.774 . S
C1562 N443 0.776 . S
C1597 C173 0.775 . S
C1612 N476 0.777 . S
C1647 C206 0.776 . S
C1662 N509 0.775 . S
C1697 C239 0.776 . S
C1712 N410 0.775 . S
C1747 N113 0.777 . S
C1762 C272 0.775 . S
C1797 N14 0.775 . S
C1812 C305 0.776 . S
C1847 N47 0.775 . S
C1862 C338 0.776 . S
C1897 C371 0.775 . S
C1912 N80 0.777 . S
C1947 C404 0.776 . S
C1962 N179 0.776 . S
C1997 C437 0.775 . S
C2012 N212 0.777 . S
C2047 C470 0.776 . S
C2062 N245 0.776 . S
C2097 C503 0.774 . S
C2112 N146 0.776 . S
C2147 N137 1.615 . S
C2162 N5 1.615 . S
C2197 N170 1.615 . S
C2212 N38 1.615 . S
C2247 N71 1.615 . S
C2262 N203 1.615 . S
C2297 N236 1.615 . S
C2312 N104 1.615 . S
C2347 N269 1.615 . S
C2362 N401 1.615 . S
C2397 N434 1.615 . S
C2412 N302 1.615 . S
C2447 N467 1.615 . S
C2462 N335 1.615 . S
C2497 N500 1.615 . S
C2512 N368 1.615 . S
