# Generated by pormake.
# Topology ukg, (4)-cn, num edge types: 1
# Building blocks:
#     Node 0, Type 0, BuildingBlock: MUDLON_clean_sbu_0, # of connection points: 4
#     Node 1, Type 0, BuildingBlock: MUDLON_clean_sbu_0, # of connection points: 4
#     Node 2, Type 0, BuildingBlock: MUDLON_clean_sbu_0, # of connection points: 4
#     Node 3, Type 0, BuildingBlock: MUDLON_clean_sbu_0, # of connection points: 4
#     Node 4, Type 0, BuildingBlock: MUDLON_clean_sbu_0, # of connection points: 4
#     Node 5, Type 0, BuildingBlock: MUDLON_clean_sbu_0, # of connection points: 4
#     Node 6, Type 0, BuildingBlock: MUDLON_clean_sbu_0, # of connection points: 4
#     Node 7, Type 0, BuildingBlock: MUDLON_clean_sbu_0, # of connection points: 4
#     Edge 8, Type (0, 0), BuildingBlock: KIFKEQ_clean_linker_1, # of connection points: 2
#     Edge 9, Type (0, 0), BuildingBlock: KIFKEQ_clean_linker_1, # of connection points: 2
#     Edge 10, Type (0, 0), BuildingBlock: KIFKEQ_clean_linker_1, # of connection points: 2
#     Edge 11, Type (0, 0), BuildingBlock: KIFKEQ_clean_linker_1, # of connection points: 2
#     Edge 12, Type (0, 0), BuildingBlock: KIFKEQ_clean_linker_1, # of connection points: 2
#     Edge 13, Type (0, 0), BuildingBlock: KIFKEQ_clean_linker_1, # of connection points: 2
#     Edge 14, Type (0, 0), BuildingBlock: KIFKEQ_clean_linker_1, # of connection points: 2
#     Edge 15, Type (0, 0), BuildingBlock: KIFKEQ_clean_linker_1, # of connection points: 2
#     Edge 16, Type (0, 0), BuildingBlock: KIFKEQ_clean_linker_1, # of connection points: 2
#     Edge 17, Type (0, 0), BuildingBlock: KIFKEQ_clean_linker_1, # of connection points: 2
#     Edge 18, Type (0, 0), BuildingBlock: KIFKEQ_clean_linker_1, # of connection points: 2
#     Edge 19, Type (0, 0), BuildingBlock: KIFKEQ_clean_linker_1, # of connection points: 2
#     Edge 20, Type (0, 0), BuildingBlock: KIFKEQ_clean_linker_1, # of connection points: 2
#     Edge 21, Type (0, 0), BuildingBlock: KIFKEQ_clean_linker_1, # of connection points: 2
#     Edge 22, Type (0, 0), BuildingBlock: KIFKEQ_clean_linker_1, # of connection points: 2
#     Edge 23, Type (0, 0), BuildingBlock: KIFKEQ_clean_linker_1, # of connection points: 2
# Relax obj value: 0.086
# Max RMSD: 0.240
# Mean RMSD: 0.240
data_MOF--net-ukg--node1-MUDLON_clean_sbu_0--edge1-KIFKEQ_clean_linker_1
_symmetry_space_group_name_H-M    P1
_symmetry_Int_Tables_number       1
_symmetry_cell_setting            triclinic
loop_
_symmetry_equiv_pos_as_xyz
'x, y, z'
_cell_length_a     32.710669
_cell_length_b     32.860291
_cell_length_c     37.83665
_cell_angle_alpha  90.097816
_cell_angle_beta   90.191221
_cell_angle_gamma 89.818186
loop_
_atom_site_label
_atom_site_type_symbol
_atom_site_fract_x
_atom_site_fract_y
_atom_site_fract_z
_atom_type_partial_charge
Mg0 Mg 0.04393 0.68367 0.16406 0.0
C1 C 1.0041 0.66525 0.23445 0.0
O2 O 1.00553 0.70507 0.23721 0.0
C3 C 0.12408 0.71517 0.14294 0.0
O4 O 0.10051 0.7243 0.11587 0.0
C5 C 0.05089 0.61534 0.11315 0.0
O6 O 0.07597 0.60434 0.13862 0.0
O7 O 0.03228 0.64927 0.11585 0.0
O8 O 0.02011 0.64812 0.20766 0.0
O9 O 1.01436 0.74282 0.16605 0.0
C10 C 0.97576 0.7471 0.16644 0.0
O11 O 0.95259 0.71492 0.16181 0.0
O12 O 0.10871 0.69578 0.16868 0.0
Mg13 Mg 0.35339 0.53882 0.66689 0.0
C14 C 0.37182 0.49764 0.73713 0.0
O15 O 0.33188 0.49975 0.74023 0.0
C16 C 0.30631 0.61651 0.66567 0.0
O17 O 0.27944 0.59082 0.65274 0.0
C18 C 0.42746 0.53285 0.62189 0.0
O19 O 0.44278 0.54209 0.65301 0.0
O20 O 0.38885 0.52923 0.61883 0.0
O21 O 0.38882 0.51348 0.7103 0.0
O22 O 0.29449 0.50834 0.66777 0.0
C23 C 0.29109 0.46995 0.6702 0.0
O24 O 0.32416 0.44729 0.668 0.0
O25 O 0.34157 0.60335 0.6743 0.0
Mg26 Mg 0.49211 0.85531 0.16822 0.0
C27 C 0.53095 0.87338 0.23963 0.0
O28 O 0.52978 0.83354 0.24211 0.0
C29 C 0.41387 0.81971 0.14683 0.0
O30 O 0.43879 0.80926 0.12117 0.0
C31 C 0.51892 0.92435 0.12111 0.0
O32 O 0.53054 0.93854 0.15201 0.0
O33 O 0.50277 0.88919 0.11951 0.0
O34 O 0.51498 0.89056 0.2128 0.0
O35 O 0.52273 0.79669 0.17 0.0
C36 C 0.56132 0.79342 0.1726 0.0
O37 O 0.5838 0.82637 0.17021 0.0
O38 O 0.42762 0.84149 0.17196 0.0
Mg39 Mg 0.18373 0.99094 0.66454 0.0
C40 C 0.13142 0.0517 0.70157 0.0
O41 O 0.12988 0.06476 0.66883 0.0
C42 C 0.23173 0.91401 0.66394 0.0
O43 O 0.25581 0.93869 0.64645 0.0
C44 C 0.14142 0.02105 0.59516 0.0
O45 O 0.16367 0.05399 0.59901 0.0
O46 O 0.14538 0.99204 0.61714 0.0
O47 O 0.15067 0.01893 0.70824 0.0
O48 O 0.24279 0.0215 0.66257 0.0
C49 C 0.24721 0.05979 0.66536 0.0
O50 O 0.21469 0.08328 0.66442 0.0
O51 O 0.19788 0.9276 0.67557 0.0
Mg52 Mg 0.99572 0.34618 0.86559 0.0
C53 C 1.00739 0.25387 0.86428 0.0
O54 O 0.96729 0.25396 0.86262 0.0
C55 C 1.00335 0.42278 0.90793 0.0
O56 O 0.99602 0.43732 0.87619 0.0
C57 C 0.91103 0.32537 0.88477 0.0
O58 O 0.93039 0.32484 0.91526 0.0
O59 O 0.93081 0.33535 0.85725 0.0
O60 O 0.02605 0.28732 0.86919 0.0
O61 O 0.02782 0.37385 0.82142 0.0
C62 C 0.06634 0.36995 0.825 0.0
O63 O 0.0804 0.35281 0.85397 0.0
O64 O 1.00511 0.38438 0.91204 0.0
Mg65 Mg 0.68953 0.49756 0.36607 0.0
C66 C 0.76902 0.51625 0.33753 0.0
O67 O 0.75054 0.49337 0.31389 0.0
C68 C 0.61956 0.48952 0.41563 0.0
O69 O 0.60835 0.46593 0.38926 0.0
C70 C 0.73073 0.41757 0.37018 0.0
O71 O 0.75457 0.44125 0.38912 0.0
O72 O 0.69843 0.43267 0.35657 0.0
O73 O 0.75041 0.52408 0.36623 0.0
O74 O 0.65977 0.53069 0.32339 0.0
C75 C 0.6651 0.56885 0.32672 0.0
O76 O 0.68473 0.58215 0.3548 0.0
O77 O 0.65402 0.50729 0.41397 0.0
Mg78 Mg 0.54321 0.18189 0.86211 0.0
C79 C 0.52652 0.26362 0.83751 0.0
O80 O 0.55259 0.24789 0.81489 0.0
C81 C 0.53873 0.10739 0.90689 0.0
O82 O 0.54897 0.09205 0.87606 0.0
C83 C 0.62163 0.21831 0.87893 0.0
O84 O 0.59616 0.2317 0.90313 0.0
O85 O 0.60831 0.19334 0.8559 0.0
O86 O 0.51594 0.24227 0.86393 0.0
O87 O 0.51152 0.15351 0.81777 0.0
C88 C 0.47311 0.15923 0.82002 0.0
O89 O 0.45894 0.17845 0.84792 0.0
O90 O 0.53346 0.14567 0.90948 0.0
Mg91 Mg 0.84919 0.04126 0.3629 0.0
C92 C 0.76716 0.02411 0.33925 0.0
O93 O 0.78406 0.04709 0.31498 0.0
C94 C 0.91751 1.00932 0.41026 0.0
O95 O 0.9214 0.98371 0.38379 0.0
C96 C 0.80902 0.12142 0.36922 0.0
O97 O 0.78818 0.09839 0.39101 0.0
O98 O 0.8391 0.10582 0.35271 0.0
O99 O 0.78794 1.01563 0.36679 0.0
O100 O 0.87559 1.00759 0.31863 0.0
C101 C 0.86529 0.97025 0.31811 0.0
O102 O 0.84217 0.95648 0.34375 0.0
O103 O 0.8887 0.03546 0.40943 0.0
H104 H 1.01556 0.40362 0.97771 0.0
H105 H 1.00534 0.50587 0.90656 0.0
H106 H 0.02591 0.45033 0.02711 0.0
H107 H 1.01664 0.55244 0.95571 0.0
H108 H 0.99753 0.62556 0.05764 0.0
H109 H 0.98497 0.57885 1.00853 0.0
H110 H 0.07632 0.49654 0.05026 0.0
H111 H 0.08815 0.54261 0.09959 0.0
C112 C 1.01567 0.43603 0.97257 0.0
C113 C 1.00964 0.45095 0.93815 0.0
C114 C 0.02182 0.46285 1.00087 0.0
C115 C 0.0222 0.50523 0.99543 0.0
C116 C 1.01599 0.52008 0.961 0.0
C117 C 1.00976 0.49329 0.93274 0.0
C118 C 1.01495 0.59751 0.05629 0.0
C119 C 0.0438 0.58784 0.0826 0.0
C120 C 1.00789 0.57078 0.02805 0.0
C121 C 0.02955 0.5338 0.02544 0.0
C122 C 0.05857 0.52436 0.05169 0.0
C123 C 0.06557 0.551 0.07989 0.0
H124 H 0.51082 0.53212 0.62229 0.0
H125 H 0.40695 0.51966 0.55232 0.0
H126 H 0.55686 0.5216 0.57282 0.0
H127 H 0.45321 0.51025 0.5024 0.0
H128 H 0.54693 0.45166 0.42849 0.0
H129 H 0.50061 0.46221 0.47787 0.0
H130 H 0.58193 0.55346 0.52052 0.0
H131 H 0.62891 0.54202 0.47152 0.0
C132 C 0.49775 0.52739 0.59627 0.0
C133 C 0.45512 0.5267 0.59131 0.0
C134 C 0.52425 0.52162 0.56779 0.0
C135 C 0.50889 0.51519 0.53349 0.0
C136 C 0.46619 0.51458 0.5285 0.0
C137 C 0.43961 0.52019 0.55709 0.0
C138 C 0.55503 0.47393 0.44843 0.0
C139 C 0.59174 0.49592 0.44606 0.0
C140 C 0.52824 0.48022 0.47666 0.0
C141 C 0.53735 0.50878 0.50323 0.0
C142 C 0.57412 0.5308 0.50083 0.0
C143 C 0.60102 0.52438 0.47264 0.0
H144 H 0.55364 0.99956 0.1161 0.0
H145 H 0.49219 0.90784 0.05376 0.0
H146 H 0.5578 0.04327 0.0644 0.0
H147 H 0.49563 0.95206 1.00206 0.0
H148 H 0.54844 0.02485 0.90933 0.0
H149 H 0.54394 0.98041 0.96057 0.0
H150 H 0.51447 0.08398 0.02631 0.0
H151 H 0.51981 0.12867 0.97507 0.0
C152 C 0.54096 0.98869 0.09136 0.0
C153 C 0.52258 0.95014 0.08911 0.0
C154 C 0.54308 1.01396 0.06174 0.0
C155 C 0.52684 1.00136 0.02907 0.0
C156 C 0.50881 0.9626 0.02672 0.0
C157 C 0.50672 0.93727 0.05639 0.0
C158 C 0.54092 0.0382 0.93468 0.0
C159 C 0.5346 0.08039 0.93807 0.0
C160 C 0.53811 1.01262 0.96406 0.0
C161 C 0.52891 0.02855 0.99762 0.0
C162 C 0.5222 0.07073 1.00095 0.0
C163 C 0.525 0.09634 0.97153 0.0
H164 H 0.9287 0.06709 0.46184 0.0
H165 H 0.97723 0.953 0.42321 0.0
H166 H 0.98302 0.06975 0.50635 0.0
H167 H 0.03143 0.95582 0.4675 0.0
H168 H 0.09586 0.95495 0.5759 0.0
H169 H 0.04082 0.95184 0.53238 0.0
H170 H 0.05895 0.0788 0.50797 0.0
H171 H 0.11402 0.08207 0.55169 0.0
C172 C 0.95073 0.04245 0.46299 0.0
C173 C 0.94858 1.00983 0.43894 0.0
C174 C 0.98205 0.04415 0.48829 0.0
C175 C 1.01165 1.01309 0.49035 0.0
C176 C 1.00895 0.98008 0.46679 0.0
C177 C 0.97792 0.97856 0.44132 0.0
C178 C 0.08829 0.98221 0.56117 0.0
C179 C 0.10944 0.01877 0.56729 0.0
C180 C 0.05678 0.98036 0.53614 0.0
C181 C 0.0454 1.0151 0.5168 0.0
C182 C 0.06667 0.05163 0.52275 0.0
C183 C 0.09846 0.0534 0.54759 0.0
H184 H 0.17897 0.70993 0.19775 0.0
H185 H 0.16609 0.75281 0.09034 0.0
H186 H 0.24913 0.73546 0.19928 0.0
H187 H 0.23572 0.77854 0.09207 0.0
H188 H 0.37518 0.77744 0.09465 0.0
H189 H 0.30572 0.75125 0.0945 0.0
H190 H 0.28617 0.80196 0.19848 0.0
H191 H 0.35616 0.82799 0.19887 0.0
C192 C 0.1911 0.72469 0.17447 0.0
C193 C 0.16699 0.72926 0.14389 0.0
C194 C 0.23114 0.73957 0.17546 0.0
C195 C 0.24791 0.75901 0.1458 0.0
C196 C 0.22384 0.7633 0.11521 0.0
C197 C 0.18385 0.74867 0.11429 0.0
C198 C 0.35613 0.78313 0.1175 0.0
C199 C 0.37119 0.8049 0.14675 0.0
C200 C 0.31624 0.76822 0.11733 0.0
C201 C 0.29046 0.77459 0.14644 0.0
C202 C 0.30548 0.79625 0.1758 0.0
C203 C 0.34543 0.8114 0.1759 0.0
H204 H 0.23274 0.65243 0.65201 0.0
H205 H 0.35547 0.67923 0.68755 0.0
H206 H 0.21531 0.72434 0.6553 0.0
H207 H 0.33771 0.75139 0.69133 0.0
H208 H 0.30366 0.87784 0.64543 0.0
H209 H 0.32187 0.80616 0.64937 0.0
H210 H 0.20503 0.78052 0.69718 0.0
H211 H 0.18643 0.85241 0.69278 0.0
C212 C 0.25595 0.67362 0.66079 0.0
C213 C 0.29559 0.6601 0.66931 0.0
C214 C 0.24582 0.71485 0.66294 0.0
C215 C 0.27511 0.74357 0.67359 0.0
C216 C 0.31459 0.73002 0.68269 0.0
C217 C 0.32471 0.68868 0.68065 0.0
C218 C 0.28188 0.85701 0.65698 0.0
C219 C 0.24345 0.8708 0.66856 0.0
C220 C 0.29249 0.81593 0.65948 0.0
C221 C 0.26488 0.78764 0.67352 0.0
C222 C 0.22678 0.80154 0.68585 0.0
C223 C 0.2162 0.84273 0.68348 0.0
H224 H 0.65602 0.27278 0.92411 0.0
H225 H 0.68337 0.19941 0.83223 0.0
H226 H 0.72498 0.29957 0.92372 0.0
H227 H 0.75335 0.22592 0.83232 0.0
H228 H 0.86308 0.31533 0.82552 0.0
H229 H 0.7931 0.28918 0.82274 0.0
H230 H 0.79316 0.27541 0.93626 0.0
H231 H 0.8622 0.30207 0.93912 0.0
C232 C 0.67683 0.26213 0.90388 0.0
C233 C 0.66418 0.23371 0.87831 0.0
C234 C 0.71653 0.27743 0.90377 0.0
C235 C 0.74483 0.2647 0.87816 0.0
C236 C 0.73218 0.23657 0.85226 0.0
C237 C 0.69222 0.22117 0.85236 0.0
C238 C 0.84798 0.30695 0.84986 0.0
C239 C 0.86816 0.31103 0.88256 0.0
C240 C 0.80805 0.29165 0.84823 0.0
C241 C 0.78749 0.2803 0.87928 0.0
C242 C 0.8078 0.28444 0.91188 0.0
C243 C 0.84754 0.29962 0.9135 0.0
H244 H 0.68282 0.35523 0.34525 0.0
H245 H 0.80443 0.38214 0.38342 0.0
H246 H 0.70155 0.2832 0.34012 0.0
H247 H 0.82295 0.31059 0.37828 0.0
H248 H 0.85276 0.18287 0.33814 0.0
H249 H 0.83329 0.25475 0.33351 0.0
H250 H 0.71849 0.22874 0.38459 0.0
H251 H 0.73775 0.15734 0.38925 0.0
C252 C 0.71357 0.34586 0.35226 0.0
C253 C 0.74202 0.37431 0.36501 0.0
C254 C 0.72425 0.30467 0.34942 0.0
C255 C 0.76373 0.2913 0.3588 0.0
C256 C 0.79246 0.32 0.37049 0.0
C257 C 0.78168 0.36097 0.37373 0.0
C258 C 0.82327 0.19251 0.3481 0.0
C259 C 0.79696 0.16451 0.36432 0.0
C260 C 0.81218 0.23361 0.34554 0.0
C261 C 0.77436 0.24733 0.3587 0.0
C262 C 0.74762 0.21904 0.37388 0.0
C263 C 0.75887 0.17817 0.37682 0.0
H264 H 0.81611 0.50032 0.28025 0.0
H265 H 0.81285 0.57295 0.37551 0.0
H266 H 0.87827 0.53397 0.26224 0.0
H267 H 0.87645 0.60628 0.35777 0.0
H268 H 0.9484 0.6939 0.28217 0.0
H269 H 0.89661 0.65487 0.31319 0.0
H270 H 0.94934 0.54335 0.27297 0.0
H271 H 1.00026 0.58254 0.24092 0.0
C272 C 0.82905 0.5231 0.29769 0.0
C273 C 0.80929 0.5342 0.32919 0.0
C274 C 0.86509 0.54218 0.28749 0.0
C275 C 0.88256 0.57284 0.30856 0.0
C276 C 0.86359 0.58304 0.34076 0.0
C277 C 0.82731 0.56383 0.35102 0.0
C278 C 0.94944 0.66101 0.28049 0.0
C279 C 0.97801 0.64134 0.25858 0.0
C280 C 0.91981 0.63857 0.29846 0.0
C281 C 0.91834 0.59597 0.29512 0.0
C282 C 0.94896 0.57619 0.27542 0.0
C283 C 0.97831 0.59863 0.25718 0.0
H284 H 0.34355 0.43932 0.78215 0.0
H285 H 0.45472 0.49568 0.74555 0.0
H286 H 0.38359 0.38753 0.81262 0.0
H287 H 0.49491 0.44492 0.77726 0.0
H288 H 0.54387 0.31418 0.78297 0.0
H289 H 0.50836 0.37562 0.76562 0.0
H290 H 0.43085 0.36638 0.85757 0.0
H291 H 0.46593 0.30338 0.87444 0.0
C292 C 0.37659 0.44132 0.78143 0.0
C293 C 0.39599 0.4712 0.76098 0.0
C294 C 0.39961 0.41168 0.79909 0.0
C295 C 0.44255 0.41157 0.79696 0.0
C296 C 0.46189 0.44341 0.77872 0.0
C297 C 0.43888 0.4727 0.7607 0.0
C298 C 0.51955 0.32534 0.7998 0.0
C299 C 0.50751 0.30362 0.82994 0.0
C300 C 0.49935 0.36098 0.78999 0.0
C301 C 0.46666 0.37616 0.81017 0.0
C302 C 0.45558 0.3553 0.84118 0.0
C303 C 0.47581 0.31935 0.85097 0.0
H304 H 0.58877 0.84488 0.28571 0.0
H305 H 0.53276 0.95595 0.24811 0.0
H306 H 0.64066 0.88434 0.31655 0.0
H307 H 0.58366 0.99557 0.28019 0.0
H308 H 0.71583 0.04187 0.28502 0.0
H309 H 0.65341 1.00766 0.26836 0.0
H310 H 0.66248 0.93168 0.36125 0.0
H311 H 0.72651 0.96555 0.37748 0.0
C312 C 0.58682 0.87778 0.28487 0.0
C313 C 0.55706 0.8973 0.26397 0.0
C314 C 0.61653 0.90047 0.30275 0.0
C315 C 0.61686 0.94319 0.30041 0.0
C316 C 0.585 0.96269 0.28183 0.0
C317 C 0.55564 0.94001 0.2636 0.0
C318 C 0.70443 0.01818 0.30221 0.0
C319 C 0.72642 1.00617 0.33241 0.0
C320 C 0.6682 0.99875 0.29281 0.0
C321 C 0.65269 0.96683 0.31343 0.0
C322 C 0.67378 0.95586 0.34455 0.0
C323 C 0.71031 0.9754 0.35398 0.0
H324 H 0.97883 0.17667 0.85272 0.0
H325 H 0.08794 0.25013 0.84569 0.0
H326 H 1.01252 0.12303 0.81842 0.0
H327 H 0.12096 0.1968 0.81111 0.0
H328 H 0.11795 0.13295 0.69935 0.0
H329 H 0.09258 0.17698 0.74622 0.0
H330 H 0.0818 0.07355 0.81562 0.0
H331 H 0.10848 0.02897 0.76858 0.0
C332 C 1.01029 0.18095 0.84472 0.0
C333 C 0.03047 0.21793 0.85149 0.0
C334 C 0.02954 0.15019 0.82521 0.0
C335 C 0.06904 0.15616 0.81188 0.0
C336 C 0.09034 0.1917 0.82097 0.0
C337 C 0.0714 0.22215 0.84085 0.0
C338 C 0.11023 0.11944 0.72455 0.0
C339 C 0.11505 0.07748 0.73028 0.0
C340 C 0.09606 0.14474 0.75145 0.0
C341 C 0.08567 0.12862 0.78451 0.0
C342 C 0.08986 0.08659 0.79032 0.0
C343 C 0.10503 0.06123 0.7635 0.0
H344 H 0.14747 0.35325 0.82229 0.0
H345 H 0.0513 0.4151 0.76488 0.0
H346 H 0.19676 0.37448 0.7785 0.0
H347 H 0.1013 0.43635 0.72031 0.0
H348 H 0.2195 0.50978 0.68531 0.0
H349 H 0.16118 0.48308 0.71772 0.0
H350 H 0.21621 0.36346 0.71689 0.0
H351 H 0.27491 0.3902 0.68506 0.0
C352 C 0.13673 0.37126 0.80016 0.0
C353 C 0.09541 0.38265 0.79721 0.0
C354 C 0.16503 0.38307 0.77477 0.0
C355 C 0.15294 0.40678 0.7457 0.0
C356 C 0.11154 0.41811 0.74247 0.0
C357 C 0.08294 0.40592 0.76791 0.0
C358 C 0.21882 0.47759 0.69139 0.0
C359 C 0.25226 0.45226 0.68311 0.0
C360 C 0.18524 0.46227 0.70985 0.0
C361 C 0.18439 0.42131 0.72041 0.0
C362 C 0.21637 0.39537 0.70975 0.0
C363 C 0.24993 0.41066 0.69132 0.0
H364 H 0.61876 0.55462 0.26696 0.0
H365 H 0.68076 0.64983 0.3248 0.0
H366 H 0.59655 0.60478 0.22284 0.0
H367 H 0.6585 0.69933 0.28143 0.0
H368 H 0.64155 0.77771 0.18807 0.0
H369 H 0.66897 0.71933 0.22006 0.0
H370 H 0.54934 0.66411 0.22026 0.0
H371 H 0.52199 0.72207 0.18766 0.0
C372 C 0.62771 0.58611 0.27022 0.0
C373 C 0.6514 0.59822 0.29945 0.0
C374 C 0.61498 0.6148 0.24501 0.0
C375 C 0.6261 0.65598 0.24845 0.0
C376 C 0.65008 0.66778 0.27754 0.0
C377 C 0.6625 0.63935 0.30267 0.0
C378 C 0.62124 0.75276 0.19425 0.0
C379 C 0.57945 0.7549 0.18577 0.0
C380 C 0.63691 0.71939 0.21278 0.0
C381 C 0.61115 0.68744 0.22328 0.0
C382 C 0.57001 0.68815 0.21252 0.0
C383 C 0.55432 0.72153 0.19395 0.0
H384 H 0.48792 0.11039 0.76195 0.0
H385 H 0.39283 0.17889 0.8145 0.0
H386 H 0.43823 0.08867 0.71691 0.0
H387 H 0.34388 0.15722 0.77029 0.0
H388 H 0.26689 0.13954 0.67656 0.0
H389 H 0.3264 0.1657 0.70798 0.0
H390 H 0.37648 0.04418 0.71435 0.0
H391 H 0.31732 0.01799 0.68227 0.0
C392 C 0.4566 0.12094 0.7638 0.0
C393 C 0.44432 0.14622 0.79188 0.0
C394 C 0.42817 0.10848 0.7381 0.0
C395 C 0.38718 0.12154 0.73982 0.0
C396 C 0.37533 0.14723 0.76768 0.0
C397 C 0.40343 0.15932 0.79333 0.0
C398 C 0.29098 0.11848 0.68392 0.0
C399 C 0.28694 0.07657 0.67744 0.0
C400 C 0.32501 0.13346 0.70211 0.0
C401 C 0.35575 0.10689 0.71432 0.0
C402 C 0.35338 0.06546 0.7053 0.0
C403 C 0.31932 0.05045 0.687 0.0
H404 H 0.89476 0.76636 0.17348 0.0
H405 H 1.01595 0.81555 0.18862 0.0
H406 H 0.86575 0.8251 0.20392 0.0
H407 H 0.98702 0.87363 0.21987 0.0
H408 H 0.92019 0.98417 0.26434 0.0
H409 H 0.94452 0.93498 0.22029 0.0
H410 H 0.86634 0.84317 0.26558 0.0
H411 H 0.84177 0.8919 0.30861 0.0
C412 C 0.91518 0.78996 0.18283 0.0
C413 C 0.95771 0.78591 0.17907 0.0
C414 C 0.89858 0.82353 0.20047 0.0
C415 C 0.92412 0.85372 0.21492 0.0
C416 C 0.96643 0.85108 0.20898 0.0
C417 C 0.98303 0.81758 0.19118 0.0
C418 C 0.908 0.95357 0.26456 0.0
C419 C 0.87923 0.94192 0.29011 0.0
C420 C 0.92199 0.92538 0.23943 0.0
C421 C 0.90724 0.88515 0.23927 0.0
C422 C 0.87783 0.87401 0.2644 0.0
C423 C 0.86403 0.90197 0.28942 0.0
loop_
_geom_bond_atom_site_label_1
_geom_bond_atom_site_label_2
_geom_bond_distance
_geom_bond_site_symmetry_2
_ccdc_geom_bond_type
Mg0 O7 2.141 . S
Mg0 O8 2.048 1_455 S
Mg0 O9 2.048 . S
Mg0 O12 2.141 . S
C1 O2 1.313 . S
C1 O8 1.195 . S
O2 C1 1.313 . S
C3 O4 1.245 . S
C3 O12 1.289 . S
O4 C3 1.245 . S
C5 O6 1.245 . S
C5 O7 1.289 . S
O6 C5 1.245 . S
O7 Mg0 2.141 . S
O7 C5 1.289 . S
O8 Mg0 2.048 1_655 S
O8 C1 1.195 . S
O9 Mg0 2.048 . S
O9 C10 1.195 . S
C10 O9 1.195 . S
C10 O11 1.313 1_455 S
O11 C10 1.313 1_655 S
O12 Mg0 2.141 . S
O12 C3 1.289 . S
Mg13 O20 2.141 . S
Mg13 O21 2.048 . S
Mg13 O22 2.048 . S
Mg13 O25 2.141 . S
C14 O15 1.313 . S
C14 O21 1.195 . S
O15 C14 1.313 . S
C16 O17 1.245 . S
C16 O25 1.289 . S
O17 C16 1.245 . S
C18 O19 1.245 . S
C18 O20 1.289 . S
O19 C18 1.245 . S
O20 Mg13 2.141 . S
O20 C18 1.289 . S
O21 Mg13 2.048 . S
O21 C14 1.195 . S
O22 Mg13 2.048 . S
O22 C23 1.195 . S
C23 O22 1.195 . S
C23 O24 1.313 . S
O24 C23 1.313 . S
O25 Mg13 2.141 . S
O25 C16 1.289 . S
Mg26 O33 2.141 . S
Mg26 O34 2.048 . S
Mg26 O35 2.048 . S
Mg26 O38 2.141 . S
C27 O28 1.313 . S
C27 O34 1.195 . S
O28 C27 1.313 . S
C29 O30 1.245 . S
C29 O38 1.289 . S
O30 C29 1.245 . S
C31 O32 1.245 . S
C31 O33 1.289 . S
O32 C31 1.245 . S
O33 Mg26 2.141 . S
O33 C31 1.289 . S
O34 Mg26 2.048 . S
O34 C27 1.195 . S
O35 Mg26 2.048 . S
O35 C36 1.195 . S
C36 O35 1.195 . S
C36 O37 1.313 . S
O37 C36 1.313 . S
O38 Mg26 2.141 . S
O38 C29 1.289 . S
Mg39 O46 2.141 . S
Mg39 O47 2.048 1_565 S
Mg39 O48 2.048 . S
Mg39 O51 2.141 . S
C40 O41 1.313 . S
C40 O47 1.195 . S
O41 C40 1.313 . S
C42 O43 1.245 . S
C42 O51 1.289 . S
O43 C42 1.245 . S
C44 O45 1.245 . S
C44 O46 1.289 . S
O45 C44 1.245 . S
O46 Mg39 2.141 . S
O46 C44 1.289 . S
O47 Mg39 2.048 1_545 S
O47 C40 1.195 . S
O48 Mg39 2.048 . S
O48 C49 1.195 . S
C49 O48 1.195 . S
C49 O50 1.313 1_565 S
O50 C49 1.313 1_545 S
O51 Mg39 2.141 . S
O51 C42 1.289 . S
Mg52 O59 2.141 . S
Mg52 O60 2.048 . S
Mg52 O61 2.048 1_655 S
Mg52 O64 2.141 . S
C53 O54 1.313 1_655 S
C53 O60 1.195 . S
O54 C53 1.313 1_455 S
C55 O56 1.245 . S
C55 O64 1.289 . S
O56 C55 1.245 . S
C57 O58 1.245 . S
C57 O59 1.289 . S
O58 C57 1.245 . S
O59 Mg52 2.141 . S
O59 C57 1.289 . S
O60 Mg52 2.048 . S
O60 C53 1.195 . S
O61 Mg52 2.048 1_455 S
O61 C62 1.195 . S
C62 O61 1.195 . S
C62 O63 1.313 . S
O63 C62 1.313 . S
O64 Mg52 2.141 . S
O64 C55 1.289 . S
Mg65 O72 2.141 . S
Mg65 O73 2.048 . S
Mg65 O74 2.048 . S
Mg65 O77 2.141 . S
C66 O67 1.313 . S
C66 O73 1.195 . S
O67 C66 1.313 . S
C68 O69 1.245 . S
C68 O77 1.289 . S
O69 C68 1.245 . S
C70 O71 1.245 . S
C70 O72 1.289 . S
O71 C70 1.245 . S
O72 Mg65 2.141 . S
O72 C70 1.289 . S
O73 Mg65 2.048 . S
O73 C66 1.195 . S
O74 Mg65 2.048 . S
O74 C75 1.195 . S
C75 O74 1.195 . S
C75 O76 1.313 . S
O76 C75 1.313 . S
O77 Mg65 2.141 . S
O77 C68 1.289 . S
Mg78 O85 2.141 . S
Mg78 O86 2.048 . S
Mg78 O87 2.048 . S
Mg78 O90 2.141 . S
C79 O80 1.313 . S
C79 O86 1.195 . S
O80 C79 1.313 . S
C81 O82 1.245 . S
C81 O90 1.289 . S
O82 C81 1.245 . S
C83 O84 1.245 . S
C83 O85 1.289 . S
O84 C83 1.245 . S
O85 Mg78 2.141 . S
O85 C83 1.289 . S
O86 Mg78 2.048 . S
O86 C79 1.195 . S
O87 Mg78 2.048 . S
O87 C88 1.195 . S
C88 O87 1.195 . S
C88 O89 1.313 . S
O89 C88 1.313 . S
O90 Mg78 2.141 . S
O90 C81 1.289 . S
Mg91 O98 2.141 . S
Mg91 O99 2.048 . S
Mg91 O100 2.048 1_545 S
Mg91 O103 2.141 . S
C92 O93 1.313 1_545 S
C92 O99 1.195 . S
O93 C92 1.313 1_565 S
C94 O95 1.245 . S
C94 O103 1.289 . S
O95 C94 1.245 . S
C96 O97 1.245 . S
C96 O98 1.289 . S
O97 C96 1.245 . S
O98 Mg91 2.141 . S
O98 C96 1.289 . S
O99 Mg91 2.048 . S
O99 C92 1.195 . S
O100 Mg91 2.048 1_565 S
O100 C101 1.195 . S
C101 O100 1.195 . S
C101 O102 1.313 . S
O102 C101 1.313 . S
O103 Mg91 2.141 . S
O103 C94 1.289 . S
H104 C112 0.950 . S
H105 C117 0.950 . S
H106 C114 0.950 . S
H107 C116 0.950 . S
H108 C118 0.950 . S
H109 C120 0.950 . S
H110 C122 0.950 . S
H111 C123 0.950 . S
C112 H104 0.950 . S
C112 C113 1.386 . S
C112 C114 1.391 . S
C113 C112 1.386 . S
C113 C117 1.393 1_655 S
C114 H106 0.950 . S
C114 C112 1.391 . S
C114 C115 1.400 . S
C115 C114 1.400 . S
C115 C116 1.398 1_655 S
C115 C121 1.491 1_656 S
C116 H107 0.950 . S
C116 C115 1.398 1_455 S
C116 C117 1.391 . S
C117 H105 0.950 . S
C117 C113 1.393 1_455 S
C117 C116 1.391 . S
C118 H108 0.950 . S
C118 C119 1.386 . S
C118 C120 1.391 . S
C119 C118 1.386 . S
C119 C123 1.393 1_455 S
C120 H109 0.950 . S
C120 C118 1.391 . S
C120 C121 1.400 . S
C121 C115 1.491 1_454 S
C121 C120 1.400 . S
C121 C122 1.398 1_455 S
C122 H110 0.950 . S
C122 C121 1.398 1_655 S
C122 C123 1.391 . S
C123 H111 0.950 . S
C123 C119 1.393 1_655 S
C123 C122 1.391 . S
H124 C132 0.950 . S
H125 C137 0.950 . S
H126 C134 0.950 . S
H127 C136 0.950 . S
H128 C138 0.950 . S
H129 C140 0.950 . S
H130 C142 0.950 . S
H131 C143 0.950 . S
C132 H124 0.950 . S
C132 C133 1.386 . S
C132 C134 1.391 . S
C133 C132 1.386 . S
C133 C137 1.393 . S
C134 H126 0.950 . S
C134 C132 1.391 . S
C134 C135 1.400 . S
C135 C134 1.400 . S
C135 C136 1.398 . S
C135 C141 1.491 . S
C136 H127 0.950 . S
C136 C135 1.398 . S
C136 C137 1.391 . S
C137 H125 0.950 . S
C137 C133 1.393 . S
C137 C136 1.391 . S
C138 H128 0.950 . S
C138 C139 1.386 . S
C138 C140 1.391 . S
C139 C138 1.386 . S
C139 C143 1.393 . S
C140 H129 0.950 . S
C140 C138 1.391 . S
C140 C141 1.400 . S
C141 C135 1.491 . S
C141 C140 1.400 . S
C141 C142 1.398 . S
C142 H130 0.950 . S
C142 C141 1.398 . S
C142 C143 1.391 . S
C143 H131 0.950 . S
C143 C139 1.393 . S
C143 C142 1.391 . S
H144 C152 0.950 . S
H145 C157 0.950 1_545 S
H146 C154 0.950 1_556 S
H147 C156 0.950 . S
H148 C158 0.950 . S
H149 C160 0.950 1_554 S
H150 C162 0.950 . S
H151 C163 0.950 1_565 S
C152 H144 0.950 . S
C152 C153 1.386 . S
C152 C154 1.391 . S
C153 C152 1.386 . S
C153 C157 1.393 . S
C154 H146 0.950 1_554 S
C154 C152 1.391 . S
C154 C155 1.400 . S
C155 C154 1.400 . S
C155 C156 1.398 1_565 S
C155 C161 1.491 1_564 S
C156 H147 0.950 . S
C156 C155 1.398 1_545 S
C156 C157 1.391 1_545 S
C157 H145 0.950 1_565 S
C157 C153 1.393 . S
C157 C156 1.391 1_565 S
C158 H148 0.950 . S
C158 C159 1.386 . S
C158 C160 1.391 . S
C159 C158 1.386 . S
C159 C163 1.393 . S
C160 H149 0.950 1_556 S
C160 C158 1.391 . S
C160 C161 1.400 . S
C161 C155 1.491 1_546 S
C161 C160 1.400 . S
C161 C162 1.398 1_545 S
C162 H150 0.950 . S
C162 C161 1.398 1_565 S
C162 C163 1.391 1_565 S
C163 H151 0.950 1_545 S
C163 C159 1.393 . S
C163 C162 1.391 1_545 S
H164 C172 0.936 1_455 S
H165 C177 0.950 . S
H166 C174 0.950 . S
H167 C176 0.950 . S
H168 C178 0.936 1_655 S
H169 C180 0.950 . S
H170 C182 0.950 . S
H171 C183 0.950 . S
C172 H164 0.936 1_655 S
C172 C173 1.386 . S
C172 C174 1.391 1_655 S
C173 C172 1.386 . S
C173 C177 1.393 . S
C174 H166 0.950 . S
C174 C172 1.391 1_455 S
C174 C175 1.400 1_455 S
C175 C174 1.400 1_655 S
C175 C176 1.398 . S
C175 C181 1.491 1_645 S
C176 H167 0.950 . S
C176 C175 1.398 . S
C176 C177 1.391 . S
C177 H165 0.950 . S
C177 C173 1.393 . S
C177 C176 1.391 . S
C178 H168 0.936 1_455 S
C178 C179 1.386 . S
C178 C180 1.391 1_455 S
C179 C178 1.386 . S
C179 C183 1.393 . S
C180 H169 0.950 . S
C180 C178 1.391 1_655 S
C180 C181 1.400 1_655 S
C181 C175 1.491 1_465 S
C181 C180 1.400 1_455 S
C181 C182 1.398 . S
C182 H170 0.950 . S
C182 C181 1.398 . S
C182 C183 1.391 . S
C183 H171 0.950 . S
C183 C179 1.393 . S
C183 C182 1.391 . S
H184 C192 0.950 . S
H185 C197 0.950 . S
H186 C194 0.950 . S
H187 C196 0.950 . S
H188 C198 0.950 . S
H189 C200 0.950 . S
H190 C202 0.950 . S
H191 C203 0.950 . S
C192 H184 0.950 . S
C192 C193 1.386 . S
C192 C194 1.391 . S
C193 C192 1.386 . S
C193 C197 1.393 . S
C194 H186 0.950 . S
C194 C192 1.391 . S
C194 C195 1.400 . S
C195 C194 1.400 . S
C195 C196 1.398 . S
C195 C201 1.491 . S
C196 H187 0.950 . S
C196 C195 1.398 . S
C196 C197 1.391 . S
C197 H185 0.950 . S
C197 C193 1.393 . S
C197 C196 1.391 . S
C198 H188 0.950 . S
C198 C199 1.386 . S
C198 C200 1.391 . S
C199 C198 1.386 . S
C199 C203 1.393 . S
C200 H189 0.950 . S
C200 C198 1.391 . S
C200 C201 1.400 . S
C201 C195 1.491 . S
C201 C200 1.400 . S
C201 C202 1.398 . S
C202 H190 0.950 . S
C202 C201 1.398 . S
C202 C203 1.391 . S
C203 H191 0.950 . S
C203 C199 1.393 . S
C203 C202 1.391 . S
H204 C212 0.950 . S
H205 C217 0.950 . S
H206 C214 0.950 . S
H207 C216 0.950 . S
H208 C218 0.950 . S
H209 C220 0.950 . S
H210 C222 0.950 . S
H211 C223 0.950 . S
C212 H204 0.950 . S
C212 C213 1.386 . S
C212 C214 1.391 . S
C213 C212 1.386 . S
C213 C217 1.393 . S
C214 H206 0.950 . S
C214 C212 1.391 . S
C214 C215 1.400 . S
C215 C214 1.400 . S
C215 C216 1.398 . S
C215 C221 1.491 . S
C216 H207 0.950 . S
C216 C215 1.398 . S
C216 C217 1.391 . S
C217 H205 0.950 . S
C217 C213 1.393 . S
C217 C216 1.391 . S
C218 H208 0.950 . S
C218 C219 1.386 . S
C218 C220 1.391 . S
C219 C218 1.386 . S
C219 C223 1.393 . S
C220 H209 0.950 . S
C220 C218 1.391 . S
C220 C221 1.400 . S
C221 C215 1.491 . S
C221 C220 1.400 . S
C221 C222 1.398 . S
C222 H210 0.950 . S
C222 C221 1.398 . S
C222 C223 1.391 . S
C223 H211 0.950 . S
C223 C219 1.393 . S
C223 C222 1.391 . S
H224 C232 0.950 . S
H225 C237 0.950 . S
H226 C234 0.950 . S
H227 C236 0.950 . S
H228 C238 0.950 . S
H229 C240 0.950 . S
H230 C242 0.950 . S
H231 C243 0.950 . S
C232 H224 0.950 . S
C232 C233 1.386 . S
C232 C234 1.391 . S
C233 C232 1.386 . S
C233 C237 1.393 . S
C234 H226 0.950 . S
C234 C232 1.391 . S
C234 C235 1.400 . S
C235 C234 1.400 . S
C235 C236 1.398 . S
C235 C241 1.491 . S
C236 H227 0.950 . S
C236 C235 1.398 . S
C236 C237 1.391 . S
C237 H225 0.950 . S
C237 C233 1.393 . S
C237 C236 1.391 . S
C238 H228 0.950 . S
C238 C239 1.386 . S
C238 C240 1.391 . S
C239 C238 1.386 . S
C239 C243 1.393 . S
C240 H229 0.950 . S
C240 C238 1.391 . S
C240 C241 1.400 . S
C241 C235 1.491 . S
C241 C240 1.400 . S
C241 C242 1.398 . S
C242 H230 0.950 . S
C242 C241 1.398 . S
C242 C243 1.391 . S
C243 H231 0.950 . S
C243 C239 1.393 . S
C243 C242 1.391 . S
H244 C252 0.950 . S
H245 C257 0.950 . S
H246 C254 0.950 . S
H247 C256 0.950 . S
H248 C258 0.950 . S
H249 C260 0.950 . S
H250 C262 0.950 . S
H251 C263 0.950 . S
C252 H244 0.950 . S
C252 C253 1.386 . S
C252 C254 1.391 . S
C253 C252 1.386 . S
C253 C257 1.393 . S
C254 H246 0.950 . S
C254 C252 1.391 . S
C254 C255 1.400 . S
C255 C254 1.400 . S
C255 C256 1.398 . S
C255 C261 1.491 . S
C256 H247 0.950 . S
C256 C255 1.398 . S
C256 C257 1.391 . S
C257 H245 0.950 . S
C257 C253 1.393 . S
C257 C256 1.391 . S
C258 H248 0.950 . S
C258 C259 1.386 . S
C258 C260 1.391 . S
C259 C258 1.386 . S
C259 C263 1.393 . S
C260 H249 0.950 . S
C260 C258 1.391 . S
C260 C261 1.400 . S
C261 C255 1.491 . S
C261 C260 1.400 . S
C261 C262 1.398 . S
C262 H250 0.950 . S
C262 C261 1.398 . S
C262 C263 1.391 . S
C263 H251 0.950 . S
C263 C259 1.393 . S
C263 C262 1.391 . S
H264 C272 0.950 . S
H265 C277 0.950 . S
H266 C274 0.950 . S
H267 C276 0.950 . S
H268 C278 0.950 . S
H269 C280 0.950 . S
H270 C282 0.950 . S
H271 C283 0.950 . S
C272 H264 0.950 . S
C272 C273 1.386 . S
C272 C274 1.391 . S
C273 C272 1.386 . S
C273 C277 1.393 . S
C274 H266 0.950 . S
C274 C272 1.391 . S
C274 C275 1.400 . S
C275 C274 1.400 . S
C275 C276 1.398 . S
C275 C281 1.491 . S
C276 H267 0.950 . S
C276 C275 1.398 . S
C276 C277 1.391 . S
C277 H265 0.950 . S
C277 C273 1.393 . S
C277 C276 1.391 . S
C278 H268 0.950 . S
C278 C279 1.386 . S
C278 C280 1.391 . S
C279 C278 1.386 . S
C279 C283 1.393 . S
C280 H269 0.950 . S
C280 C278 1.391 . S
C280 C281 1.400 . S
C281 C275 1.491 . S
C281 C280 1.400 . S
C281 C282 1.398 . S
C282 H270 0.950 . S
C282 C281 1.398 . S
C282 C283 1.391 . S
C283 H271 0.950 . S
C283 C279 1.393 . S
C283 C282 1.391 . S
H284 C292 0.950 . S
H285 C297 0.950 . S
H286 C294 0.950 . S
H287 C296 0.950 . S
H288 C298 0.950 . S
H289 C300 0.950 . S
H290 C302 0.950 . S
H291 C303 0.950 . S
C292 H284 0.950 . S
C292 C293 1.386 . S
C292 C294 1.391 . S
C293 C292 1.386 . S
C293 C297 1.393 . S
C294 H286 0.950 . S
C294 C292 1.391 . S
C294 C295 1.400 . S
C295 C294 1.400 . S
C295 C296 1.398 . S
C295 C301 1.491 . S
C296 H287 0.950 . S
C296 C295 1.398 . S
C296 C297 1.391 . S
C297 H285 0.950 . S
C297 C293 1.393 . S
C297 C296 1.391 . S
C298 H288 0.950 . S
C298 C299 1.386 . S
C298 C300 1.391 . S
C299 C298 1.386 . S
C299 C303 1.393 . S
C300 H289 0.950 . S
C300 C298 1.391 . S
C300 C301 1.400 . S
C301 C295 1.491 . S
C301 C300 1.400 . S
C301 C302 1.398 . S
C302 H290 0.950 . S
C302 C301 1.398 . S
C302 C303 1.391 . S
C303 H291 0.950 . S
C303 C299 1.393 . S
C303 C302 1.391 . S
H304 C312 0.950 . S
H305 C317 0.950 . S
H306 C314 0.950 . S
H307 C316 0.950 . S
H308 C318 0.950 1_545 S
H309 C320 0.950 . S
H310 C322 0.950 . S
H311 C323 0.950 . S
C312 H304 0.950 . S
C312 C313 1.386 . S
C312 C314 1.391 . S
C313 C312 1.386 . S
C313 C317 1.393 . S
C314 H306 0.950 . S
C314 C312 1.391 . S
C314 C315 1.400 . S
C315 C314 1.400 . S
C315 C316 1.398 . S
C315 C321 1.491 . S
C316 H307 0.950 . S
C316 C315 1.398 . S
C316 C317 1.391 . S
C317 H305 0.950 . S
C317 C313 1.393 . S
C317 C316 1.391 . S
C318 H308 0.950 1_565 S
C318 C319 1.386 . S
C318 C320 1.391 . S
C319 C318 1.386 . S
C319 C323 1.393 . S
C320 H309 0.950 . S
C320 C318 1.391 . S
C320 C321 1.400 . S
C321 C315 1.491 . S
C321 C320 1.400 . S
C321 C322 1.398 . S
C322 H310 0.950 . S
C322 C321 1.398 . S
C322 C323 1.391 . S
C323 H311 0.950 . S
C323 C319 1.393 . S
C323 C322 1.391 . S
H324 C332 0.950 . S
H325 C337 0.950 . S
H326 C334 0.950 . S
H327 C336 0.950 . S
H328 C338 0.950 . S
H329 C340 0.950 . S
H330 C342 0.950 . S
H331 C343 0.950 . S
C332 H324 0.950 . S
C332 C333 1.386 . S
C332 C334 1.391 . S
C333 C332 1.386 . S
C333 C337 1.393 . S
C334 H326 0.950 . S
C334 C332 1.391 . S
C334 C335 1.400 . S
C335 C334 1.400 . S
C335 C336 1.398 . S
C335 C341 1.491 . S
C336 H327 0.950 . S
C336 C335 1.398 . S
C336 C337 1.391 . S
C337 H325 0.950 . S
C337 C333 1.393 . S
C337 C336 1.391 . S
C338 H328 0.950 . S
C338 C339 1.386 . S
C338 C340 1.391 . S
C339 C338 1.386 . S
C339 C343 1.393 . S
C340 H329 0.950 . S
C340 C338 1.391 . S
C340 C341 1.400 . S
C341 C335 1.491 . S
C341 C340 1.400 . S
C341 C342 1.398 . S
C342 H330 0.950 . S
C342 C341 1.398 . S
C342 C343 1.391 . S
C343 H331 0.950 . S
C343 C339 1.393 . S
C343 C342 1.391 . S
H344 C352 0.950 . S
H345 C357 0.950 . S
H346 C354 0.950 . S
H347 C356 0.950 . S
H348 C358 0.950 . S
H349 C360 0.950 . S
H350 C362 0.950 . S
H351 C363 0.950 . S
C352 H344 0.950 . S
C352 C353 1.386 . S
C352 C354 1.391 . S
C353 C352 1.386 . S
C353 C357 1.393 . S
C354 H346 0.950 . S
C354 C352 1.391 . S
C354 C355 1.400 . S
C355 C354 1.400 . S
C355 C356 1.398 . S
C355 C361 1.491 . S
C356 H347 0.950 . S
C356 C355 1.398 . S
C356 C357 1.391 . S
C357 H345 0.950 . S
C357 C353 1.393 . S
C357 C356 1.391 . S
C358 H348 0.950 . S
C358 C359 1.386 . S
C358 C360 1.391 . S
C359 C358 1.386 . S
C359 C363 1.393 . S
C360 H349 0.950 . S
C360 C358 1.391 . S
C360 C361 1.400 . S
C361 C355 1.491 . S
C361 C360 1.400 . S
C361 C362 1.398 . S
C362 H350 0.950 . S
C362 C361 1.398 . S
C362 C363 1.391 . S
C363 H351 0.950 . S
C363 C359 1.393 . S
C363 C362 1.391 . S
H364 C372 0.950 . S
H365 C377 0.950 . S
H366 C374 0.950 . S
H367 C376 0.950 . S
H368 C378 0.950 . S
H369 C380 0.950 . S
H370 C382 0.950 . S
H371 C383 0.950 . S
C372 H364 0.950 . S
C372 C373 1.386 . S
C372 C374 1.391 . S
C373 C372 1.386 . S
C373 C377 1.393 . S
C374 H366 0.950 . S
C374 C372 1.391 . S
C374 C375 1.400 . S
C375 C374 1.400 . S
C375 C376 1.398 . S
C375 C381 1.491 . S
C376 H367 0.950 . S
C376 C375 1.398 . S
C376 C377 1.391 . S
C377 H365 0.950 . S
C377 C373 1.393 . S
C377 C376 1.391 . S
C378 H368 0.950 . S
C378 C379 1.386 . S
C378 C380 1.391 . S
C379 C378 1.386 . S
C379 C383 1.393 . S
C380 H369 0.950 . S
C380 C378 1.391 . S
C380 C381 1.400 . S
C381 C375 1.491 . S
C381 C380 1.400 . S
C381 C382 1.398 . S
C382 H370 0.950 . S
C382 C381 1.398 . S
C382 C383 1.391 . S
C383 H371 0.950 . S
C383 C379 1.393 . S
C383 C382 1.391 . S
H384 C392 0.950 . S
H385 C397 0.950 . S
H386 C394 0.950 . S
H387 C396 0.950 . S
H388 C398 0.950 . S
H389 C400 0.950 . S
H390 C402 0.950 1_565 S
H391 C403 0.950 . S
C392 H384 0.950 . S
C392 C393 1.386 . S
C392 C394 1.391 . S
C393 C392 1.386 . S
C393 C397 1.393 . S
C394 H386 0.950 . S
C394 C392 1.391 . S
C394 C395 1.400 . S
C395 C394 1.400 . S
C395 C396 1.398 . S
C395 C401 1.491 . S
C396 H387 0.950 . S
C396 C395 1.398 . S
C396 C397 1.391 . S
C397 H385 0.950 . S
C397 C393 1.393 . S
C397 C396 1.391 . S
C398 H388 0.950 . S
C398 C399 1.386 . S
C398 C400 1.391 . S
C399 C398 1.386 . S
C399 C403 1.393 1_545 S
C400 H389 0.950 . S
C400 C398 1.391 . S
C400 C401 1.400 . S
C401 C395 1.491 . S
C401 C400 1.400 . S
C401 C402 1.398 . S
C402 H390 0.950 1_545 S
C402 C401 1.398 . S
C402 C403 1.391 1_545 S
C403 H391 0.950 . S
C403 C399 1.393 1_565 S
C403 C402 1.391 1_565 S
H404 C412 0.950 . S
H405 C417 0.950 . S
H406 C414 0.950 . S
H407 C416 0.950 1_455 S
H408 C418 0.950 . S
H409 C420 0.950 . S
H410 C422 0.950 . S
H411 C423 0.950 . S
C412 H404 0.950 . S
C412 C413 1.386 . S
C412 C414 1.391 . S
C413 C412 1.386 . S
C413 C417 1.393 1_655 S
C414 H406 0.950 . S
C414 C412 1.391 . S
C414 C415 1.400 . S
C415 C414 1.400 . S
C415 C416 1.398 . S
C415 C421 1.491 . S
C416 H407 0.950 1_655 S
C416 C415 1.398 . S
C416 C417 1.391 1_655 S
C417 H405 0.950 . S
C417 C413 1.393 1_455 S
C417 C416 1.391 1_455 S
C418 H408 0.950 . S
C418 C419 1.386 . S
C418 C420 1.391 . S
C419 C418 1.386 . S
C419 C423 1.393 . S
C420 H409 0.950 . S
C420 C418 1.391 . S
C420 C421 1.400 . S
C421 C415 1.491 . S
C421 C420 1.400 . S
C421 C422 1.398 . S
C422 H410 0.950 . S
C422 C421 1.398 . S
C422 C423 1.391 . S
C423 H411 0.950 . S
C423 C419 1.393 . S
C423 C422 1.391 . S
C113 C55 1.805 . S
C119 C5 1.805 . S
C133 C18 1.828 . S
C139 C68 1.828 . S
C153 C31 1.824 . S
C159 C81 1.824 . S
C173 C94 1.821 . S
C179 C44 1.821 . S
C193 C3 1.941 . S
C199 C29 1.942 . S
C213 C16 1.941 . S
C219 C42 1.942 . S
C233 C83 1.941 . S
C239 C57 1.942 . S
C253 C70 1.941 . S
C259 C96 1.942 . S
C273 C66 1.458 . S
C279 C1 1.493 . S
C293 C14 1.499 . S
C299 C79 1.434 . S
C313 C27 1.498 . S
C319 C92 1.435 1_565 S
C333 C53 1.458 1_455 S
C339 C40 1.494 . S
C353 C62 1.493 . S
C359 C23 1.453 . S
C373 C75 1.499 . S
C379 C36 1.441 . S
C393 C88 1.499 . S
C399 C49 1.438 1_545 S
C413 C10 1.458 1_655 S
C419 C101 1.493 . S
