# Generated by pormake.
# Topology une, (4)-cn, num edge types: 1
# Building blocks:
#     Node 0, Type 0, BuildingBlock: UXUYUI_clean_sbu_0, # of connection points: 4
#     Node 1, Type 0, BuildingBlock: UXUYUI_clean_sbu_0, # of connection points: 4
#     Node 2, Type 0, BuildingBlock: UXUYUI_clean_sbu_0, # of connection points: 4
#     Node 3, Type 0, BuildingBlock: UXUYUI_clean_sbu_0, # of connection points: 4
#     Node 4, Type 0, BuildingBlock: UXUYUI_clean_sbu_0, # of connection points: 4
#     Node 5, Type 0, BuildingBlock: UXUYUI_clean_sbu_0, # of connection points: 4
#     Node 6, Type 0, BuildingBlock: UXUYUI_clean_sbu_0, # of connection points: 4
#     Node 7, Type 0, BuildingBlock: UXUYUI_clean_sbu_0, # of connection points: 4
#     Node 8, Type 0, BuildingBlock: UXUYUI_clean_sbu_0, # of connection points: 4
#     Node 9, Type 0, BuildingBlock: UXUYUI_clean_sbu_0, # of connection points: 4
#     Node 10, Type 0, BuildingBlock: UXUYUI_clean_sbu_0, # of connection points: 4
#     Node 11, Type 0, BuildingBlock: UXUYUI_clean_sbu_0, # of connection points: 4
#     Node 12, Type 0, BuildingBlock: UXUYUI_clean_sbu_0, # of connection points: 4
#     Node 13, Type 0, BuildingBlock: UXUYUI_clean_sbu_0, # of connection points: 4
#     Node 14, Type 0, BuildingBlock: UXUYUI_clean_sbu_0, # of connection points: 4
#     Node 15, Type 0, BuildingBlock: UXUYUI_clean_sbu_0, # of connection points: 4
#     Node 16, Type 0, BuildingBlock: UXUYUI_clean_sbu_0, # of connection points: 4
#     Node 17, Type 0, BuildingBlock: UXUYUI_clean_sbu_0, # of connection points: 4
#     Edge 18, Type (0, 0), BuildingBlock: CIFDUS_clean_linker_0, # of connection points: 2
#     Edge 19, Type (0, 0), BuildingBlock: CIFDUS_clean_linker_0, # of connection points: 2
#     Edge 20, Type (0, 0), BuildingBlock: CIFDUS_clean_linker_0, # of connection points: 2
#     Edge 21, Type (0, 0), BuildingBlock: CIFDUS_clean_linker_0, # of connection points: 2
#     Edge 22, Type (0, 0), BuildingBlock: CIFDUS_clean_linker_0, # of connection points: 2
#     Edge 23, Type (0, 0), BuildingBlock: CIFDUS_clean_linker_0, # of connection points: 2
#     Edge 24, Type (0, 0), BuildingBlock: CIFDUS_clean_linker_0, # of connection points: 2
#     Edge 25, Type (0, 0), BuildingBlock: CIFDUS_clean_linker_0, # of connection points: 2
#     Edge 26, Type (0, 0), BuildingBlock: CIFDUS_clean_linker_0, # of connection points: 2
#     Edge 27, Type (0, 0), BuildingBlock: CIFDUS_clean_linker_0, # of connection points: 2
#     Edge 28, Type (0, 0), BuildingBlock: CIFDUS_clean_linker_0, # of connection points: 2
#     Edge 29, Type (0, 0), BuildingBlock: CIFDUS_clean_linker_0, # of connection points: 2
#     Edge 30, Type (0, 0), BuildingBlock: CIFDUS_clean_linker_0, # of connection points: 2
#     Edge 31, Type (0, 0), BuildingBlock: CIFDUS_clean_linker_0, # of connection points: 2
#     Edge 32, Type (0, 0), BuildingBlock: CIFDUS_clean_linker_0, # of connection points: 2
#     Edge 33, Type (0, 0), BuildingBlock: CIFDUS_clean_linker_0, # of connection points: 2
#     Edge 34, Type (0, 0), BuildingBlock: CIFDUS_clean_linker_0, # of connection points: 2
#     Edge 35, Type (0, 0), BuildingBlock: CIFDUS_clean_linker_0, # of connection points: 2
#     Edge 36, Type (0, 0), BuildingBlock: CIFDUS_clean_linker_0, # of connection points: 2
#     Edge 37, Type (0, 0), BuildingBlock: CIFDUS_clean_linker_0, # of connection points: 2
#     Edge 38, Type (0, 0), BuildingBlock: CIFDUS_clean_linker_0, # of connection points: 2
#     Edge 39, Type (0, 0), BuildingBlock: CIFDUS_clean_linker_0, # of connection points: 2
#     Edge 40, Type (0, 0), BuildingBlock: CIFDUS_clean_linker_0, # of connection points: 2
#     Edge 41, Type (0, 0), BuildingBlock: CIFDUS_clean_linker_0, # of connection points: 2
#     Edge 42, Type (0, 0), BuildingBlock: CIFDUS_clean_linker_0, # of connection points: 2
#     Edge 43, Type (0, 0), BuildingBlock: CIFDUS_clean_linker_0, # of connection points: 2
#     Edge 44, Type (0, 0), BuildingBlock: CIFDUS_clean_linker_0, # of connection points: 2
#     Edge 45, Type (0, 0), BuildingBlock: CIFDUS_clean_linker_0, # of connection points: 2
#     Edge 46, Type (0, 0), BuildingBlock: CIFDUS_clean_linker_0, # of connection points: 2
#     Edge 47, Type (0, 0), BuildingBlock: CIFDUS_clean_linker_0, # of connection points: 2
#     Edge 48, Type (0, 0), BuildingBlock: CIFDUS_clean_linker_0, # of connection points: 2
#     Edge 49, Type (0, 0), BuildingBlock: CIFDUS_clean_linker_0, # of connection points: 2
#     Edge 50, Type (0, 0), BuildingBlock: CIFDUS_clean_linker_0, # of connection points: 2
#     Edge 51, Type (0, 0), BuildingBlock: CIFDUS_clean_linker_0, # of connection points: 2
#     Edge 52, Type (0, 0), BuildingBlock: CIFDUS_clean_linker_0, # of connection points: 2
#     Edge 53, Type (0, 0), BuildingBlock: CIFDUS_clean_linker_0, # of connection points: 2
# Relax obj value: 0.347
# Max RMSD: 0.226
# Mean RMSD: 0.222
data_MOF--net-une--node1-UXUYUI_clean_sbu_0--edge1-CIFDUS_clean_linker_0
_symmetry_space_group_name_H-M    P1
_symmetry_Int_Tables_number       1
_symmetry_cell_setting            triclinic
loop_
_symmetry_equiv_pos_as_xyz
'x, y, z'
_cell_length_a     50.679105
_cell_length_b     50.63657
_cell_length_c     72.326189
_cell_angle_alpha  89.941998
_cell_angle_beta   89.91795
_cell_angle_gamma 120.02807
loop_
_atom_site_label
_atom_site_type_symbol
_atom_site_fract_x
_atom_site_fract_y
_atom_site_fract_z
_atom_type_partial_charge
Li0 Li 0.35855 0.07306 0.04283 0.0
Li1 Li 0.35462 0.06891 0.07731 0.0
Li2 Li 0.38139 0.04703 0.05899 0.0
Li3 Li 0.32684 0.02466 0.05825 0.0
C4 C 0.40465 0.12178 0.06327 0.0
N5 N 0.42836 0.18376 0.068 0.0
C6 C 0.38526 0.13401 0.06383 0.0
C7 C 0.43607 0.1411 0.06514 0.0
C8 C 0.3977 0.16539 0.06624 0.0
C9 C 0.44762 0.17237 0.06749 0.0
C10 C 0.29211 0.05051 0.05716 0.0
C11 C 0.24057 0.01773 0.06787 0.0
N12 N 0.22996 0.02659 0.05326 0.0
C13 C 0.28067 0.05963 0.04243 0.0
C14 C 0.27188 0.02973 0.07016 0.0
C15 C 0.2492 0.04717 0.04064 0.0
C16 C 0.33898 0.08047 0.0083 0.0
N17 N 0.36144 0.09546 0.02094 0.0
C18 C 0.38398 0.14031 0.00215 0.0
C19 C 0.38446 0.12441 0.01778 0.0
C20 C 0.35987 0.12609 0.98948 0.0
C21 C 0.33765 0.09543 0.99243 0.0
H22 H 0.32156 0.05707 0.01084 0.0
H23 H 0.40297 0.13551 0.02746 0.0
C24 C 0.37931 0.11071 0.108 0.0
N25 N 0.35362 0.09083 0.09871 0.0
C26 C 0.37814 0.12992 0.12151 0.0
C27 C 0.324 0.10676 0.11621 0.0
C28 C 0.3263 0.08845 0.1027 0.0
C29 C 0.35019 0.12824 0.1256 0.0
H30 H 0.40089 0.11253 0.10441 0.0
H31 H 0.30635 0.07305 0.09497 0.0
C32 C 0.37005 0.03407 0.02179 0.0
N33 N 0.40254 0.03458 0.99096 0.0
C34 C 0.35846 0.00863 0.01022 0.0
C35 C 0.39814 0.05981 0.01767 0.0
C36 C 0.37523 0.00933 0.99468 0.0
C37 C 0.41423 0.0596 0.00203 0.0
C38 C 0.3372 0.00564 0.09249 0.0
C39 C 0.33998 0.97956 0.0917 0.0
C40 C 0.31907 0.00808 0.1062 0.0
C41 C 0.32414 0.95609 0.10449 0.0
C42 C 0.30361 0.98412 0.11874 0.0
N43 N 0.30642 0.95883 0.11762 0.0
C44 C 0.44215 0.05921 0.05305 0.0
C45 C 0.40248 0.00779 0.05039 0.0
C46 C 0.46257 0.05226 0.04431 0.0
N47 N 0.41258 0.03716 0.05543 0.0
C48 C 0.42202 -0.00013 0.04159 0.0
C49 C 0.45226 0.02245 0.03783 0.0
H50 H 0.44928 0.08257 0.0566 0.0
H51 H 0.37853 0.9911 0.05164 0.0
C52 C 0.28075 0.9869 0.03572 0.0
N53 N 0.28986 0.98748 0.05344 0.0
C54 C 0.25372 0.96242 0.02934 0.0
C55 C 0.2458 0.93892 0.05948 0.0
C56 C 0.27301 0.96418 0.06538 0.0
C57 C 0.23585 0.93803 0.04127 0.0
H58 H 0.29448 0.00578 0.02657 0.0
H59 H 0.2802 0.96518 0.07949 0.0
O60 O 0.39305 0.09103 0.06135 0.0
O61 O 0.32292 0.06219 0.05895 0.0
O62 O 0.35431 0.03328 0.03737 0.0
O63 O 0.35296 0.02907 0.0803 0.0
H64 H 0.3609 0.11953 0.06242 0.0
H65 H 0.45138 0.13202 0.06484 0.0
H66 H 0.38298 0.17514 0.06671 0.0
H67 H 0.47189 0.18758 0.06896 0.0
H68 H 0.2247 0.00131 0.07769 0.0
H69 H 0.29589 0.07643 0.03259 0.0
H70 H 0.28024 0.02248 0.08171 0.0
H71 H 0.24008 0.05396 0.02924 0.0
H72 H 0.40162 0.16391 0.00047 0.0
H73 H 0.31903 0.08336 0.98282 0.0
H74 H 0.39887 0.14616 0.1285 0.0
H75 H 0.3021 0.10502 0.11871 0.0
H76 H 0.33683 0.98846 0.01329 0.0
H77 H 0.40762 0.0796 0.02658 0.0
H78 H 0.36657 0.98977 0.98562 0.0
H79 H 0.43608 0.07929 0.99874 0.0
H80 H 0.35418 0.97743 0.08133 0.0
H81 H 0.31691 0.0282 0.10716 0.0
H82 H 0.32598 0.93572 0.10399 0.0
H83 H 0.28939 0.98565 0.12936 0.0
H84 H 0.48575 0.07032 0.04184 0.0
H85 H 0.41284 0.97679 0.03655 0.0
H86 H 0.24709 0.96238 0.0151 0.0
H87 H 0.2325 0.92053 0.06909 0.0
Li88 Li 0.95218 0.33625 0.06214 0.0
Li89 Li 0.97973 0.30943 0.06692 0.0
Li90 Li 0.93181 0.28594 0.04795 0.0
Li91 Li 0.93108 0.29021 0.0811 0.0
C92 C 0.97651 0.34033 0.02788 0.0
N93 N 0.98757 0.37758 0.9975 0.0
C94 C 0.00644 0.36078 0.02244 0.0
C95 C 0.9522 0.33869 0.01783 0.0
C96 C 0.01155 0.37943 0.00704 0.0
C97 C 0.95827 0.35776 0.00252 0.0
C98 C 0.99242 0.34248 0.09771 0.0
C99 C 0.02617 0.33631 0.11846 0.0
N100 N 0.04208 0.367 0.12114 0.0
C101 C 0.00888 0.37391 0.10084 0.0
C102 C 0.00091 0.32348 0.10675 0.0
C103 C 0.03399 0.38589 0.11267 0.0
C104 C 0.93904 0.38199 0.04876 0.0
N105 N 0.96037 0.37632 0.05616 0.0
C106 C 0.00034 0.42586 0.04736 0.0
C107 C 0.99045 0.39772 0.05587 0.0
C108 C 0.97907 0.43208 0.03894 0.0
C109 C 0.94794 0.40997 0.04012 0.0
H110 H 0.91538 0.36424 0.04853 0.0
H111 H 0.00702 0.39204 0.06102 0.0
C112 C 0.02432 0.29213 0.06336 0.0
N113 N 0.01976 0.31599 0.06649 0.0
C114 C 0.05308 0.29747 0.05802 0.0
C115 C 0.07208 0.35169 0.06052 0.0
C116 C 0.04298 0.34532 0.06569 0.0
C117 C 0.07707 0.32763 0.05578 0.0
H118 H 0.00518 0.26909 0.06367 0.0
H119 H 0.03844 0.36381 0.06779 0.0
C120 C 0.89072 0.31055 0.07078 0.0
N121 N 0.85402 0.32933 0.08781 0.0
C122 C 0.89961 0.32639 0.08754 0.0
C123 C 0.86313 0.30429 0.06272 0.0
C124 C 0.88074 0.33567 0.09592 0.0
C125 C 0.84491 0.31398 0.07153 0.0
C126 C 0.9316 0.2384 0.07416 0.0
C127 C 0.90382 0.21569 0.06702 0.0
C128 C 0.94441 0.23187 0.08935 0.0
C129 C 0.88897 0.187 0.07546 0.0
C130 C 0.92883 0.20292 0.09743 0.0
N131 N 0.90164 0.18129 0.09039 0.0
C132 C 0.92794 0.25168 0.01652 0.0
C133 C 0.88323 0.25366 0.02353 0.0
C134 C 0.91317 0.23156 0.00195 0.0
N135 N 0.91264 0.26184 0.02706 0.0
C136 C 0.86762 0.2337 0.0091 0.0
C137 C 0.88245 0.22197 0.99828 0.0
H138 H 0.95135 0.25861 0.01977 0.0
H139 H 0.87165 0.26191 0.03231 0.0
C140 C 0.91762 0.27197 0.11919 0.0
N141 N 0.90644 0.26753 0.10169 0.0
C142 C 0.90027 0.25187 0.13335 0.0
C143 C 0.8602 0.22339 0.11123 0.0
C144 C 0.87799 0.24438 0.09763 0.0
C145 C 0.87151 0.22681 0.12927 0.0
H146 H 0.94029 0.29055 0.12206 0.0
H147 H 0.86965 0.24151 0.0836 0.0
O148 O 0.97107 0.32278 0.04335 0.0
O149 O 0.9679 0.33038 0.08604 0.0
O150 O 0.90873 0.30119 0.06218 0.0
O151 O 0.94613 0.26686 0.06634 0.0
H152 H 0.0255 0.36243 0.03013 0.0
H153 H 0.9289 0.32332 0.02203 0.0
H154 H 0.03459 0.39547 0.00271 0.0
H155 H 0.93969 0.35693 0.99471 0.0
H156 H 0.03312 0.32186 0.12542 0.0
H157 H 0.00222 0.38891 0.09431 0.0
H158 H 0.98828 0.29912 0.10459 0.0
H159 H 0.04701 0.41019 0.11516 0.0
H160 H 0.02458 0.44181 0.04645 0.0
H161 H 0.93073 0.41386 0.03393 0.0
H162 H 0.0558 0.27827 0.05427 0.0
H163 H 0.09002 0.37524 0.05914 0.0
H164 H 0.92073 0.33146 0.09411 0.0
H165 H 0.85588 0.29217 0.04973 0.0
H166 H 0.88734 0.3479 0.10889 0.0
H167 H 0.82354 0.30931 0.06541 0.0
H168 H 0.89353 0.22028 0.05528 0.0
H169 H 0.96612 0.24894 0.09487 0.0
H170 H 0.86731 0.16933 0.07019 0.0
H171 H 0.93836 0.19765 0.10928 0.0
H172 H 0.92544 0.22316 0.99388 0.0
H173 H 0.8438 0.22646 0.00699 0.0
H174 H 0.90964 0.25519 0.14716 0.0
H175 H 0.83797 0.20451 0.10766 0.0
Li176 Li 0.69092 0.67579 0.06392 0.0
Li177 Li 0.70722 0.64515 0.07868 0.0
Li178 Li 0.71343 0.65207 0.04517 0.0
Li179 Li 0.66067 0.6212 0.05912 0.0
C180 C 0.75633 0.70933 0.07098 0.0
N181 N 0.80441 0.76355 0.0838 0.0
C182 C 0.75953 0.71582 0.08991 0.0
C183 C 0.77771 0.73047 0.0586 0.0
C184 C 0.78397 0.74332 0.09612 0.0
C185 C 0.80179 0.75775 0.06534 0.0
C186 C 0.65391 0.65678 0.09216 0.0
C187 C 0.61032 0.66288 0.09767 0.0
N188 N 0.62697 0.68562 0.10989 0.0
C189 C 0.67048 0.67993 0.10494 0.0
C190 C 0.6235 0.64794 0.08862 0.0
C191 C 0.6565 0.69434 0.11369 0.0
C192 C 0.65913 0.7064 0.05736 0.0
N193 N 0.68592 0.71088 0.06443 0.0
C194 C 0.70545 0.76463 0.06588 0.0
C195 C 0.7085 0.73919 0.06931 0.0
C196 C 0.67879 0.76078 0.05754 0.0
C197 C 0.65497 0.73116 0.05388 0.0
H198 H 0.64161 0.68368 0.05348 0.0
H199 H 0.72946 0.74246 0.07506 0.0
C200 C 0.75786 0.6495 0.0961 0.0
N201 N 0.72853 0.64202 0.09941 0.0
C202 C 0.77718 0.65284 0.1107 0.0
C203 C 0.7354 0.63951 0.13189 0.0
C204 C 0.71685 0.63654 0.11681 0.0
C205 C 0.76624 0.64841 0.12895 0.0
H206 H 0.76666 0.65437 0.08211 0.0
H207 H 0.69351 0.631 0.11903 0.0
C208 C 0.6796 0.67235 0.02546 0.0
N209 N 0.68689 0.70983 0.99578 0.0
C210 C 0.65681 0.66299 0.01207 0.0
C211 C 0.70613 0.70071 0.02372 0.0
C212 C 0.66092 0.68227 0.99716 0.0
C213 C 0.70937 0.71936 0.00864 0.0
C214 C 0.70478 0.59479 0.06695 0.0
C215 C 0.7318 0.59623 0.06119 0.0
C216 C 0.68794 0.57541 0.08148 0.0
C217 C 0.74168 0.57832 0.0702 0.0
C218 C 0.69861 0.55788 0.09014 0.0
N219 N 0.72503 0.5597 0.08438 0.0
C220 C 0.76816 0.6689 0.02699 0.0
C221 C 0.72433 0.64259 0.00809 0.0
C222 C 0.78698 0.67099 0.01234 0.0
N223 N 0.73754 0.65502 0.02458 0.0
C224 C 0.74231 0.64388 0.99307 0.0
C225 C 0.77406 0.65827 0.99514 0.0
H226 H 0.77788 0.67786 0.04041 0.0
H227 H 0.69982 0.6314 0.00669 0.0
C228 C 0.6028 0.59758 0.04464 0.0
N229 N 0.62169 0.58892 0.05241 0.0
C230 C 0.57647 0.57634 0.03548 0.0
C231 C 0.5888 0.53728 0.04316 0.0
C232 C 0.61506 0.5594 0.05212 0.0
C233 C 0.56952 0.54582 0.03423 0.0
H234 H 0.60913 0.6214 0.04466 0.0
H235 H 0.63088 0.55328 0.058 0.0
O236 O 0.73279 0.68234 0.06456 0.0
O237 O 0.66739 0.64285 0.08315 0.0
O238 O 0.67577 0.65386 0.04024 0.0
O239 O 0.69513 0.61269 0.05861 0.0
H240 H 0.7433 0.69996 0.09974 0.0
H241 H 0.77573 0.72595 0.0439 0.0
H242 H 0.78665 0.74859 0.11072 0.0
H243 H 0.81843 0.7743 0.05589 0.0
H244 H 0.58686 0.65642 0.09497 0.0
H245 H 0.6939 0.68681 0.108 0.0
H246 H 0.61024 0.62985 0.07894 0.0
H247 H 0.66913 0.71245 0.12351 0.0
H248 H 0.72423 0.78719 0.06896 0.0
H249 H 0.63421 0.72732 0.04724 0.0
H250 H 0.80083 0.66027 0.10772 0.0
H251 H 0.72589 0.63552 0.14571 0.0
H252 H 0.63617 0.64106 0.01316 0.0
H253 H 0.7239 0.70834 0.03397 0.0
H254 H 0.64347 0.67533 0.9867 0.0
H255 H 0.72973 0.74143 0.00718 0.0
H256 H 0.74511 0.61119 0.04999 0.0
H257 H 0.66709 0.57425 0.08617 0.0
H258 H 0.76262 0.57928 0.06596 0.0
H259 H 0.68593 0.54292 0.10148 0.0
H260 H 0.81132 0.68167 0.0146 0.0
H261 H 0.73156 0.63374 0.98002 0.0
H262 H 0.56271 0.58418 0.02856 0.0
H263 H 0.58419 0.51398 0.04272 0.0
Li264 Li 0.61929 0.95736 0.94491 0.0
Li265 Li 0.67094 0.99076 0.937 0.0
Li266 Li 0.64391 0.94328 0.91931 0.0
Li267 Li 0.65856 0.9442 0.95254 0.0
C268 C 0.64164 0.00496 0.91282 0.0
N269 N 0.65789 0.06147 0.89801 0.0
C270 C 0.62982 0.02237 0.92027 0.0
C271 C 0.66172 0.01633 0.89782 0.0
C272 C 0.63828 0.05085 0.91258 0.0
C273 C 0.66969 0.04495 0.89054 0.0
C274 C 0.66587 0.00206 0.97336 0.0
C275 C 0.70716 0.03816 0.99248 0.0
N276 N 0.69126 0.05267 0.99608 0.0
C277 C 0.6498 0.01716 0.9774 0.0
C278 C 0.69465 0.01244 0.98111 0.0
C279 C 0.66307 0.04275 0.98887 0.0
C280 C 0.58054 0.94652 0.9741 0.0
N281 N 0.58352 0.95404 0.95587 0.0
C282 C 0.54291 0.96502 0.95798 0.0
C283 C 0.56464 0.9622 0.94751 0.0
C284 C 0.54041 0.95881 0.97707 0.0
C285 C 0.55894 0.94856 0.98498 0.0
H286 H 0.59614 0.94046 0.9804 0.0
H287 H 0.56733 0.96783 0.93295 0.0
C288 C 0.73047 0.03905 0.92937 0.0
N289 N 0.70247 0.03266 0.93541 0.0
C290 C 0.75544 0.06842 0.93123 0.0
C291 C 0.7218 0.08467 0.94398 0.0
C292 C 0.69755 0.05503 0.94188 0.0
C293 C 0.75141 0.09139 0.93928 0.0
H294 H 0.73372 0.02108 0.92383 0.0
H295 H 0.67509 0.04965 0.94633 0.0
C296 C 0.58955 0.89695 0.94443 0.0
N297 N 0.52938 0.85636 0.95293 0.0
C298 C 0.58192 0.88205 0.96153 0.0
C299 C 0.56668 0.89116 0.93162 0.0
C300 C 0.55133 0.86161 0.96557 0.0
C301 C 0.53636 0.87057 0.93619 0.0
C302 C 0.70836 0.95648 0.93253 0.0
C303 C 0.70965 0.9343 0.92168 0.0
C304 C 0.73091 0.97231 0.94577 0.0
C305 C 0.7333 0.92811 0.92442 0.0
C306 C 0.75417 0.96543 0.94811 0.0
N307 N 0.75487 0.94365 0.93748 0.0
C308 C 0.66185 0.93728 0.88341 0.0
C309 C 0.6258 0.89085 0.89765 0.0
C310 C 0.66739 0.92143 0.86959 0.0
N311 N 0.64184 0.92186 0.89728 0.0
C312 C 0.63073 0.87407 0.88413 0.0
C313 C 0.65257 0.8894 0.87021 0.0
H314 H 0.67526 0.96185 0.88383 0.0
H315 H 0.61087 0.87915 0.90919 0.0
C316 C 0.67083 0.92988 0.9882 0.0
N317 N 0.66942 0.92338 0.96987 0.0
C318 C 0.67759 0.91346 0.00102 0.0
C319 C 0.68159 0.88436 0.97575 0.0
C320 C 0.67406 0.90078 0.96352 0.0
C321 C 0.68329 0.8906 0.99472 0.0
H322 H 0.6662 0.94742 0.99289 0.0
H323 H 0.67149 0.89525 0.94897 0.0
O324 O 0.63374 0.97707 0.92023 0.0
O325 O 0.6533 0.97701 0.9621 0.0
O326 O 0.61924 0.91759 0.9404 0.0
O327 O 0.68519 0.96268 0.9302 0.0
H328 H 0.61485 0.01437 0.93214 0.0
H329 H 0.67133 0.00339 0.89198 0.0
H330 H 0.62944 0.06462 0.9183 0.0
H331 H 0.68532 0.05406 0.87899 0.0
H332 H 0.72951 0.04656 0.99846 0.0
H333 H 0.62757 0.00959 0.97147 0.0
H334 H 0.70719 0.00078 0.97838 0.0
H335 H 0.65101 0.05481 0.99197 0.0
H336 H 0.52878 0.97269 0.95136 0.0
H337 H 0.55797 0.94383 0.99965 0.0
H338 H 0.77784 0.07279 0.92712 0.0
H339 H 0.7176 0.10156 0.95037 0.0
H340 H 0.59942 0.88643 0.9716 0.0
H341 H 0.57231 0.90268 0.91836 0.0
H342 H 0.54503 0.84999 0.97877 0.0
H343 H 0.51838 0.86594 0.92645 0.0
H344 H 0.69241 0.9217 0.91141 0.0
H345 H 0.73044 0.98971 0.95415 0.0
H346 H 0.73446 0.91088 0.9162 0.0
H347 H 0.77168 0.97744 0.95836 0.0
H348 H 0.68419 0.93419 0.85903 0.0
H349 H 0.61908 0.84946 0.88531 0.0
H350 H 0.67841 0.91852 0.01562 0.0
H351 H 0.68521 0.86637 0.97052 0.0
Li352 Li 0.05612 0.70231 0.91469 0.0
Li353 Li 0.05658 0.71376 0.94729 0.0
Li354 Li 0.03667 0.65963 0.93994 0.0
Li355 Li 0.00884 0.68561 0.93213 0.0
C356 C 0.10673 0.71135 0.94311 0.0
N357 N 0.1623 0.74533 0.96047 0.0
C358 C 0.12873 0.73926 0.93562 0.0
C359 C 0.11305 0.70062 0.95935 0.0
C360 C 0.15668 0.75612 0.94462 0.0
C361 C 0.14126 0.71817 0.96795 0.0
C362 C 0.04387 0.75478 0.93046 0.0
C363 C 0.02971 0.78537 0.94896 0.0
N364 N 0.04953 0.81052 0.93916 0.0
C365 C 0.06398 0.78092 0.92049 0.0
C366 C 0.02651 0.757 0.94475 0.0
C367 C 0.06657 0.80889 0.92513 0.0
C368 C 0.06688 0.73521 0.88212 0.0
N369 N 0.07712 0.71946 0.89216 0.0
C370 C 0.12177 0.73873 0.87327 0.0
C371 C 0.10361 0.72025 0.8878 0.0
C372 C 0.11256 0.75661 0.86331 0.0
C373 C 0.08431 0.75402 0.86759 0.0
H374 H 0.0459 0.73441 0.88605 0.0
H375 H 0.11143 0.70784 0.89621 0.0
C376 C 0.07704 0.73491 0.98362 0.0
N377 N 0.07964 0.74346 0.96557 0.0
C378 C 0.09458 0.75623 0.99713 0.0
C379 C 0.11714 0.79452 0.97313 0.0
C380 C 0.09952 0.77248 0.96014 0.0
C381 C 0.11472 0.78651 0.99189 0.0
H382 H 0.06164 0.71145 0.98748 0.0
H383 H 0.10233 0.77839 0.94566 0.0
C384 C 0.99119 0.64436 0.90643 0.0
N385 N 0.93501 0.61358 0.8894 0.0
C386 C 0.96939 0.6153 0.91257 0.0
C387 C 0.98454 0.65771 0.89158 0.0
C388 C 0.94109 0.60011 0.90378 0.0
C389 C 0.95596 0.6418 0.88318 0.0
C390 C 0.99779 0.66827 0.96972 0.0
C391 C 0.97778 0.63705 0.97228 0.0
C392 C 0.99498 0.68926 0.98087 0.0
C393 C 0.95482 0.6274 0.98562 0.0
C394 C 0.97171 0.67871 0.99407 0.0
N395 N 0.95226 0.64826 0.99613 0.0
C396 C 0.03646 0.62373 0.96844 0.0
C397 C 0.02435 0.59725 0.93993 0.0
C398 C 0.02954 0.59723 0.9781 0.0
N399 N 0.0331 0.62316 0.94979 0.0
C400 C 0.01756 0.57013 0.94906 0.0
C401 C 0.01946 0.5697 0.9685 0.0
H402 H 0.04299 0.64457 0.97595 0.0
H403 H 0.02167 0.59738 0.9251 0.0
C404 C 0.96517 0.70318 0.92346 0.0
N405 N 0.96864 0.68018 0.93048 0.0
C406 C 0.93791 0.70323 0.92612 0.0
C407 C 0.91708 0.6541 0.94107 0.0
C408 C 0.9447 0.65503 0.93807 0.0
C409 C 0.91397 0.67916 0.9359 0.0
H410 H 0.98407 0.72232 0.91668 0.0
H411 H 0.94742 0.63629 0.94266 0.0
O412 O 0.07892 0.69492 0.93478 0.0
O413 O 0.04121 0.7272 0.9262 0.0
O414 O 0.01878 0.65984 0.91508 0.0
O415 O 0.02069 0.67815 0.95686 0.0
H416 H 0.12406 0.74815 0.92321 0.0
H417 H 0.09629 0.6791 0.96534 0.0
H418 H 0.17382 0.77787 0.93906 0.0
H419 H 0.1464 0.71023 0.98059 0.0
H420 H 0.01639 0.78737 0.95999 0.0
H421 H 0.0778 0.77973 0.90948 0.0
H422 H 0.01052 0.73697 0.95237 0.0
H423 H 0.08218 0.82932 0.91762 0.0
H424 H 0.14346 0.74018 0.87049 0.0
H425 H 0.07614 0.76703 0.86009 0.0
H426 H 0.09235 0.7492 0.01146 0.0
H427 H 0.13309 0.81746 0.9685 0.0
H428 H 0.97411 0.60478 0.92415 0.0
H429 H 0.00116 0.68023 0.88673 0.0
H430 H 0.92392 0.57769 0.90844 0.0
H431 H 0.95041 0.65191 0.87173 0.0
H432 H 0.97949 0.62042 0.96376 0.0
H433 H 0.01076 0.71344 0.97954 0.0
H434 H 0.93899 0.60333 0.98758 0.0
H435 H 0.96922 0.69473 0.00273 0.0
H436 H 0.03078 0.59819 0.99304 0.0
H437 H 0.01037 0.54965 0.94099 0.0
H438 H 0.93616 0.72261 0.92142 0.0
H439 H 0.89925 0.63494 0.94856 0.0
Li440 Li 0.28024 0.33785 0.95367 0.0
Li441 Li 0.30508 0.31911 0.93402 0.0
Li442 Li 0.33268 0.37154 0.94394 0.0
Li443 Li 0.28818 0.35174 0.92083 0.0
C444 C 0.31028 0.31256 0.97225 0.0
N445 N 0.29803 0.26682 0.99752 0.0
C446 C 0.2837 0.2842 0.97071 0.0
C447 C 0.3306 0.31767 0.98668 0.0
C448 C 0.27793 0.26136 0.98359 0.0
C449 C 0.32399 0.29426 0.99932 0.0
C450 C 0.23979 0.28678 0.92405 0.0
C451 C 0.21437 0.25782 0.89678 0.0
N452 N 0.19157 0.23665 0.90758 0.0
C453 C 0.216 0.26483 0.93486 0.0
C454 C 0.23891 0.28333 0.90484 0.0
C455 C 0.19189 0.2396 0.92628 0.0
C456 C 0.22415 0.32489 0.96752 0.0
N457 N 0.25186 0.32978 0.97297 0.0
C458 C 0.23835 0.32821 0.00478 0.0
C459 C 0.25929 0.33129 0.99116 0.0
C460 C 0.20996 0.32417 0.99948 0.0
C461 C 0.20277 0.32213 0.98062 0.0
H462 H 0.21911 0.32416 0.95294 0.0
H463 H 0.28177 0.33592 0.9951 0.0
C464 C 0.33719 0.28888 0.93857 0.0
N465 N 0.31132 0.28523 0.9306 0.0
C466 C 0.34167 0.26409 0.94067 0.0
C467 C 0.29378 0.23249 0.92512 0.0
C468 C 0.29021 0.25799 0.92333 0.0
C469 C 0.31924 0.23516 0.93453 0.0
H470 H 0.35344 0.31072 0.94441 0.0
H471 H 0.26984 0.25548 0.91704 0.0
C472 C 0.2881 0.39311 0.95509 0.0
N473 N 0.26637 0.41761 0.98101 0.0
C474 C 0.26348 0.39719 0.95083 0.0
C475 C 0.30185 0.40173 0.97246 0.0
C476 C 0.25278 0.40955 0.96415 0.0
C477 C 0.29049 0.41403 0.98539 0.0
C478 C 0.34525 0.34537 0.90786 0.0
C479 C 0.37497 0.3533 0.91278 0.0
C480 C 0.33139 0.32618 0.89275 0.0
C481 C 0.39018 0.34145 0.90266 0.0
C482 C 0.34735 0.31479 0.88299 0.0
N483 N 0.37616 0.32256 0.88812 0.0
C484 C 0.3886 0.39421 0.96101 0.0
C485 C 0.37712 0.43288 0.95332 0.0
C486 C 0.41422 0.41495 0.97093 0.0
N487 N 0.37043 0.40334 0.95276 0.0
C488 C 0.40265 0.45449 0.96309 0.0
C489 C 0.42123 0.44546 0.97241 0.0
H490 H 0.3824 0.37045 0.96053 0.0
H491 H 0.36194 0.43936 0.94687 0.0
C492 C 0.23935 0.35097 0.90378 0.0
N493 N 0.26862 0.35823 0.9005 0.0
C494 C 0.22083 0.3501 0.8893 0.0
C495 C 0.26321 0.36507 0.86831 0.0
C496 C 0.28097 0.36559 0.88326 0.0
C497 C 0.2325 0.35662 0.87121 0.0
H498 H 0.23002 0.3446 0.91758 0.0
H499 H 0.30415 0.37065 0.88103 0.0
O500 O 0.31675 0.33518 0.95962 0.0
O501 O 0.26327 0.3119 0.93225 0.0
O502 O 0.2982 0.37998 0.94252 0.0
O503 O 0.32977 0.35621 0.91786 0.0
H504 H 0.26781 0.27976 0.95962 0.0
H505 H 0.35126 0.3395 0.98811 0.0
H506 H 0.2575 0.23928 0.9825 0.0
H507 H 0.33952 0.29791 0.01055 0.0
H508 H 0.21344 0.25485 0.88194 0.0
H509 H 0.21612 0.26725 0.94972 0.0
H510 H 0.25698 0.30006 0.89623 0.0
H511 H 0.17338 0.2224 0.93448 0.0
H512 H 0.24469 0.33017 0.01922 0.0
H513 H 0.18098 0.31887 0.97606 0.0
H514 H 0.36142 0.2672 0.94828 0.0
H515 H 0.2761 0.21065 0.92001 0.0
H516 H 0.2526 0.39066 0.93745 0.0
H517 H 0.32069 0.39838 0.97606 0.0
H518 H 0.23362 0.41265 0.96109 0.0
H519 H 0.30073 0.42056 0.99894 0.0
H520 H 0.38607 0.36825 0.92438 0.0
H521 H 0.30853 0.32003 0.88866 0.0
H522 H 0.41311 0.34723 0.9064 0.0
H523 H 0.33683 0.29975 0.87134 0.0
H524 H 0.42751 0.40678 0.97808 0.0
H525 H 0.40737 0.47783 0.96368 0.0
H526 H 0.19744 0.34383 0.89219 0.0
H527 H 0.27299 0.36997 0.85455 0.0
Li528 Li 0.03601 0.40874 0.38198 0.0
Li529 Li 0.02988 0.4 0.41561 0.0
Li530 Li 0.06328 0.38698 0.39651 0.0
Li531 Li 0.00892 0.35663 0.39415 0.0
C532 C 0.08151 0.4577 0.39635 0.0
N533 N 0.10688 0.51774 0.38509 0.0
C534 C 0.0757 0.47793 0.40628 0.0
C535 C 0.10041 0.46808 0.38078 0.0
C536 C 0.08871 0.50818 0.40035 0.0
C537 C 0.11295 0.49849 0.37528 0.0
C538 C 0.96839 0.37458 0.39097 0.0
C539 C 0.91455 0.34328 0.39723 0.0
N540 N 0.90862 0.34339 0.37891 0.0
C541 C 0.9617 0.37438 0.37219 0.0
C542 C 0.94458 0.35892 0.4036 0.0
C543 C 0.93137 0.3585 0.36638 0.0
C544 C 0.03888 0.43238 0.34546 0.0
N545 N 0.03413 0.4346 0.36376 0.0
C546 C 0.01747 0.47017 0.35754 0.0
C547 C 0.02387 0.45314 0.36996 0.0
C548 C 0.02139 0.46783 0.33852 0.0
C549 C 0.03285 0.44915 0.33249 0.0
H550 H 0.04602 0.41665 0.34084 0.0
H551 H 0.01961 0.45382 0.38456 0.0
C552 C 0.04423 0.42891 0.45145 0.0
N553 N 0.0239 0.41795 0.43729 0.0
C554 C 0.04028 0.44502 0.46591 0.0
C555 C 0.99425 0.43741 0.45113 0.0
C556 C 0.99927 0.4219 0.43692 0.0
C557 C 0.01506 0.44955 0.46577 0.0
H558 H 0.06391 0.4259 0.45122 0.0
H559 H 0.98393 0.41377 0.42528 0.0
C560 C 0.05401 0.36436 0.36239 0.0
N561 N 0.08658 0.3459 0.34047 0.0
C562 C 0.04578 0.33356 0.36164 0.0
C563 C 0.07879 0.38571 0.35193 0.0
C564 C 0.06249 0.3247 0.35046 0.0
C565 C 0.09499 0.37595 0.34097 0.0
C566 C 0.01736 0.34125 0.43014 0.0
C567 C 0.02434 0.31869 0.43494 0.0
C568 C 0.99366 0.34242 0.4393 0.0
C569 C 0.00733 0.29755 0.44871 0.0
C570 C 0.97722 0.32092 0.45302 0.0
N571 N 0.98432 0.29909 0.45739 0.0
C572 C 0.1256 0.40496 0.38808 0.0
C573 C 0.09218 0.35312 0.39572 0.0
C574 C 0.1471 0.39784 0.38115 0.0
N575 N 0.09833 0.38241 0.39452 0.0
C576 C 0.11278 0.34496 0.38883 0.0
C577 C 0.14023 0.36724 0.38073 0.0
H578 H 0.1298 0.42804 0.38709 0.0
H579 H 0.06993 0.33555 0.40029 0.0
C580 C 0.97118 0.31465 0.36912 0.0
N581 N 0.97592 0.31731 0.38768 0.0
C582 C 0.94917 0.2873 0.36147 0.0
C583 C 0.9358 0.26582 0.39222 0.0
C584 C 0.95853 0.29373 0.39933 0.0
C585 C 0.93145 0.26237 0.37302 0.0
H586 H 0.98487 0.33383 0.36016 0.0
H587 H 0.96231 0.29628 0.41404 0.0
O588 O 0.06852 0.42783 0.40172 0.0
O589 O 0.99806 0.38935 0.39688 0.0
O590 O 0.03824 0.37359 0.37354 0.0
O591 O 0.03395 0.36225 0.41676 0.0
H592 H 0.06112 0.47036 0.41834 0.0
H593 H 0.10501 0.45274 0.37286 0.0
H594 H 0.08429 0.52404 0.40786 0.0
H595 H 0.12743 0.50676 0.36317 0.0
H596 H 0.89596 0.33101 0.40686 0.0
H597 H 0.97967 0.38577 0.36212 0.0
H598 H 0.94913 0.35865 0.41816 0.0
H599 H 0.92594 0.35803 0.35188 0.0
H600 H 0.00896 0.48456 0.36274 0.0
H601 H 0.03581 0.44651 0.3179 0.0
H602 H 0.05685 0.45405 0.47697 0.0
H603 H 0.97486 0.44089 0.4503 0.0
H604 H 0.02711 0.31672 0.3699 0.0
H605 H 0.08582 0.40966 0.35251 0.0
H606 H 0.05648 0.30099 0.34986 0.0
H607 H 0.11438 0.3923 0.33296 0.0
H608 H 0.04272 0.31749 0.42815 0.0
H609 H 0.98775 0.35946 0.43574 0.0
H610 H 0.01247 0.27995 0.45252 0.0
H611 H 0.95875 0.32153 0.46014 0.0
H612 H 0.16819 0.41591 0.3754 0.0
H613 H 0.10601 0.32102 0.38857 0.0
H614 H 0.94603 0.28564 0.34661 0.0
H615 H 0.92233 0.24699 0.40152 0.0
Li616 Li 0.63128 0.66605 0.39304 0.0
Li617 Li 0.651 0.63066 0.40147 0.0
Li618 Li 0.60474 0.6125 0.38356 0.0
Li619 Li 0.60428 0.62151 0.41551 0.0
C620 C 0.65188 0.63916 0.35983 0.0
N621 N 0.66219 0.62576 0.32446 0.0
C622 C 0.65772 0.61528 0.35687 0.0
C623 C 0.6512 0.65617 0.3448 0.0
C624 C 0.6629 0.60888 0.33889 0.0
C625 C 0.65649 0.64905 0.32702 0.0
C626 C 0.67333 0.67477 0.42623 0.0
C627 C 0.7116 0.67513 0.44619 0.0
N628 N 0.73037 0.70519 0.44231 0.0
C629 C 0.69289 0.70573 0.42257 0.0
C630 C 0.68264 0.65938 0.43826 0.0
C631 C 0.72167 0.72068 0.43079 0.0
C632 C 0.62751 0.72024 0.38557 0.0
N633 N 0.64461 0.70646 0.38452 0.0
C634 C 0.68108 0.74639 0.36517 0.0
C635 C 0.67143 0.71947 0.3751 0.0
C636 C 0.66289 0.76009 0.36481 0.0
C637 C 0.63621 0.74718 0.37568 0.0
H638 H 0.60636 0.70953 0.39328 0.0
H639 H 0.68476 0.70819 0.37468 0.0
C640 C 0.68717 0.60249 0.40214 0.0
N641 N 0.68804 0.62974 0.40134 0.0
C642 C 0.71261 0.60043 0.39696 0.0
C643 C 0.73973 0.6547 0.39096 0.0
C644 C 0.71378 0.65572 0.39627 0.0
C645 C 0.73892 0.62656 0.39057 0.0
H646 H 0.66606 0.58192 0.40527 0.0
H647 H 0.71342 0.67681 0.39499 0.0
C648 C 0.5616 0.62635 0.38417 0.0
N649 N 0.51162 0.60764 0.36131 0.0
C650 C 0.53745 0.59624 0.38484 0.0
C651 C 0.56024 0.6469 0.37182 0.0
C652 C 0.51243 0.58722 0.37318 0.0
C653 C 0.53479 0.63703 0.36041 0.0
C654 C 0.59989 0.56772 0.41589 0.0
C655 C 0.56903 0.54576 0.41427 0.0
C656 C 0.61685 0.56568 0.4305 0.0
C657 C 0.55561 0.52236 0.42736 0.0
C658 C 0.60263 0.54187 0.44327 0.0
N659 N 0.57255 0.52091 0.44147 0.0
C660 C 0.57787 0.55782 0.36355 0.0
C661 C 0.57789 0.59859 0.34744 0.0
C662 C 0.56267 0.53798 0.34902 0.0
N663 N 0.58447 0.58728 0.36273 0.0
C664 C 0.56262 0.57951 0.33255 0.0
C665 C 0.55452 0.54866 0.33334 0.0
H666 H 0.58431 0.54964 0.37554 0.0
H667 H 0.58438 0.6224 0.34683 0.0
C668 C 0.54935 0.59251 0.43634 0.0
N669 N 0.58017 0.60617 0.43771 0.0
C670 C 0.53068 0.57355 0.45048 0.0
C671 C 0.57576 0.58547 0.46805 0.0
C672 C 0.59357 0.60415 0.45351 0.0
C673 C 0.54385 0.56885 0.46633 0.0
H674 H 0.53917 0.59478 0.42382 0.0
H675 H 0.61811 0.61527 0.45433 0.0
O676 O 0.64625 0.64544 0.37732 0.0
O677 O 0.64517 0.65969 0.41816 0.0
O678 O 0.58642 0.63564 0.39547 0.0
O679 O 0.61328 0.59126 0.40341 0.0
H680 H 0.65775 0.6015 0.36828 0.0
H681 H 0.64622 0.67441 0.34679 0.0
H682 H 0.66734 0.5904 0.33639 0.0
H683 H 0.65594 0.66197 0.31525 0.0
H684 H 0.71919 0.66342 0.45539 0.0
H685 H 0.68594 0.71811 0.41351 0.0
H686 H 0.66786 0.63545 0.44123 0.0
H687 H 0.73708 0.74461 0.42801 0.0
H688 H 0.70222 0.75591 0.35745 0.0
H689 H 0.62142 0.75689 0.37583 0.0
H690 H 0.71104 0.5783 0.39686 0.0
H691 H 0.75929 0.67528 0.38578 0.0
H692 H 0.53825 0.57977 0.39395 0.0
H693 H 0.57877 0.67008 0.37077 0.0
H694 H 0.49375 0.56393 0.37349 0.0
H695 H 0.53355 0.6527 0.35075 0.0
H696 H 0.55544 0.54686 0.40313 0.0
H697 H 0.64059 0.58262 0.43222 0.0
H698 H 0.53171 0.50539 0.42632 0.0
H699 H 0.61545 0.54021 0.45471 0.0
H700 H 0.55664 0.5143 0.35032 0.0
H701 H 0.55716 0.58876 0.3206 0.0
H702 H 0.50623 0.56129 0.44847 0.0
H703 H 0.58693 0.58312 0.48018 0.0
Li704 Li 0.35297 0.00237 0.40257 0.0
Li705 Li 0.37291 0.97331 0.41498 0.0
Li706 Li 0.38226 0.98756 0.3823 0.0
Li707 Li 0.32808 0.94966 0.39376 0.0
C708 C 0.41763 0.04006 0.41221 0.0
N709 N 0.46142 0.09319 0.42882 0.0
C710 C 0.41806 0.04318 0.43142 0.0
C711 C 0.43959 0.06396 0.40145 0.0
C712 C 0.44036 0.0702 0.43955 0.0
C713 C 0.46148 0.09065 0.4101 0.0
C714 C 0.31327 0.97281 0.42998 0.0
C715 C 0.26384 0.96361 0.43979 0.0
N716 N 0.27754 0.98763 0.4516 0.0
C717 C 0.32683 0.99709 0.44243 0.0
C718 C 0.2815 0.95566 0.42882 0.0
C719 C 0.30839 0.00435 0.45315 0.0
C720 C 0.31303 0.02477 0.40179 0.0
N721 N 0.34274 0.03375 0.40511 0.0
C722 C 0.35658 0.08612 0.4024 0.0
C723 C 0.36425 0.06378 0.40622 0.0
C724 C 0.32655 0.07734 0.39735 0.0
C725 C 0.30432 0.0463 0.39802 0.0
H726 H 0.29652 0.00079 0.40048 0.0
H727 H 0.38777 0.07055 0.40854 0.0
C728 C 0.42412 0.9774 0.43089 0.0
N729 N 0.39477 0.96904 0.43492 0.0
C730 C 0.44402 0.97969 0.44486 0.0
C731 C 0.40303 0.96433 0.46697 0.0
C732 C 0.38375 0.96212 0.45247 0.0
C733 C 0.43381 0.97384 0.46327 0.0
H734 H 0.43235 0.98342 0.41685 0.0
H735 H 0.36046 0.95619 0.45529 0.0
C736 C 0.34267 0.00759 0.36619 0.0
N737 N 0.34176 0.05331 0.34577 0.0
C738 C 0.31548 0.00284 0.35827 0.0
C739 C 0.36944 0.03548 0.36353 0.0
C740 C 0.31549 0.02626 0.34803 0.0
C741 C 0.36851 0.05833 0.35321 0.0
C742 C 0.37407 0.92619 0.39978 0.0
C743 C 0.4016 0.92844 0.39436 0.0
C744 C 0.35548 0.90411 0.4127 0.0
C745 C 0.41022 0.90862 0.40212 0.0
C746 C 0.36492 0.88473 0.42014 0.0
N747 N 0.39187 0.88738 0.41475 0.0
C748 C 0.44033 0.01073 0.36801 0.0
C749 C 0.40178 0.99103 0.34505 0.0
C750 C 0.46279 0.01816 0.35466 0.0
N751 N 0.41061 0.99757 0.36299 0.0
C752 C 0.42355 0.99772 0.3312 0.0
C753 C 0.45448 0.01149 0.33601 0.0
H754 H 0.44649 0.01503 0.38245 0.0
H755 H 0.37787 0.98032 0.34155 0.0
C756 C 0.269 0.92402 0.38105 0.0
N757 N 0.29087 0.91688 0.38502 0.0
C758 C 0.24332 0.90394 0.37094 0.0
C759 C 0.26222 0.86858 0.37012 0.0
C760 C 0.28783 0.88962 0.38008 0.0
C761 C 0.23992 0.87601 0.36492 0.0
H762 H 0.2723 0.94607 0.38498 0.0
H763 H 0.30586 0.88476 0.38312 0.0
O764 O 0.39617 0.01372 0.40389 0.0
O765 O 0.33086 0.96536 0.41927 0.0
O766 O 0.34297 0.98553 0.37702 0.0
O767 O 0.36554 0.94578 0.39266 0.0
H768 H 0.40156 0.02494 0.44002 0.0
H769 H 0.43964 0.06204 0.38656 0.0
H770 H 0.44095 0.07287 0.45441 0.0
H771 H 0.47853 0.10934 0.40193 0.0
H772 H 0.23924 0.95064 0.43894 0.0
H773 H 0.35129 0.01043 0.44365 0.0
H774 H 0.27058 0.93636 0.41959 0.0
H775 H 0.31862 0.02329 0.4627 0.0
H776 H 0.37451 0.10977 0.40184 0.0
H777 H 0.28086 0.03859 0.39435 0.0
H778 H 0.46736 0.9866 0.4413 0.0
H779 H 0.39427 0.95993 0.48097 0.0
H780 H 0.29453 0.98143 0.3601 0.0
H781 H 0.39063 0.03965 0.36966 0.0
H782 H 0.29457 0.02298 0.34195 0.0
H783 H 0.38902 0.08012 0.35121 0.0
H784 H 0.41623 0.94547 0.38438 0.0
H785 H 0.33415 0.90221 0.41706 0.0
H786 H 0.43154 0.91017 0.39813 0.0
H787 H 0.35086 0.86763 0.43023 0.0
H788 H 0.48634 0.02817 0.35895 0.0
H789 H 0.41634 0.99217 0.31696 0.0
H790 H 0.22718 0.91106 0.36709 0.0
H791 H 0.2604 0.84716 0.36609 0.0
Li792 Li 0.35133 0.31065 0.27448 0.0
Li793 Li 0.29816 0.29453 0.27956 0.0
Li794 Li 0.31668 0.2609 0.28605 0.0
Li795 Li 0.31415 0.27196 0.25407 0.0
C796 C 0.33839 0.3263 0.30796 0.0
N797 N 0.35747 0.37952 0.32768 0.0
C798 C 0.34118 0.35223 0.2992 0.0
C799 C 0.34537 0.32748 0.32673 0.0
C800 C 0.35084 0.37889 0.30942 0.0
C801 C 0.35495 0.35459 0.33647 0.0
C802 C 0.30737 0.32225 0.24474 0.0
C803 C 0.26292 0.30649 0.2257 0.0
N804 N 0.27415 0.3359 0.22018 0.0
C805 C 0.31846 0.3523 0.23889 0.0
C806 C 0.27935 0.29913 0.23813 0.0
C807 C 0.30132 0.35874 0.22647 0.0
C808 C 0.40114 0.36707 0.26268 0.0
N809 N 0.39124 0.3449 0.27584 0.0
C810 C 0.43623 0.37419 0.29364 0.0
C811 C 0.40814 0.34799 0.2911 0.0
C812 C 0.44663 0.39784 0.28062 0.0
C813 C 0.42893 0.39414 0.2649 0.0
H814 H 0.38695 0.36419 0.25084 0.0
H815 H 0.39924 0.3308 0.30178 0.0
C816 C 0.26621 0.30062 0.30824 0.0
N817 N 0.27077 0.30658 0.28983 0.0
C818 C 0.25005 0.31094 0.31863 0.0
C819 C 0.24112 0.33141 0.29072 0.0
C820 C 0.25845 0.32151 0.28091 0.0
C821 C 0.23708 0.32666 0.30999 0.0
H822 H 0.27605 0.28857 0.31505 0.0
H823 H 0.26231 0.32618 0.2663 0.0
C824 C 0.37313 0.27001 0.27279 0.0
N825 N 0.42293 0.26597 0.28449 0.0
C826 C 0.39077 0.26482 0.26002 0.0
C827 C 0.38072 0.27287 0.29154 0.0
C828 C 0.41589 0.26294 0.26619 0.0
C829 C 0.406 0.27084 0.29718 0.0
C830 C 0.26008 0.22258 0.27773 0.0
C831 C 0.25973 0.19765 0.2692 0.0
C832 C 0.2411 0.21784 0.29291 0.0
C833 C 0.24054 0.16834 0.27612 0.0
C834 C 0.22226 0.18817 0.29942 0.0
N835 N 0.22238 0.16425 0.29098 0.0
C836 C 0.30352 0.23028 0.32034 0.0
C837 C 0.31537 0.20655 0.29599 0.0
C838 C 0.29957 0.2073 0.33263 0.0
N839 N 0.31133 0.22944 0.30246 0.0
C840 C 0.31152 0.18308 0.30774 0.0
C841 C 0.30359 0.18332 0.32633 0.0
H842 H 0.30036 0.2488 0.32501 0.0
H843 H 0.32162 0.20659 0.28168 0.0
C844 C 0.33755 0.26365 0.22185 0.0
N845 N 0.31037 0.2553 0.23004 0.0
C846 C 0.33923 0.24699 0.20701 0.0
C847 C 0.28439 0.21538 0.20801 0.0
C848 C 0.28386 0.23233 0.22314 0.0
C849 C 0.31252 0.22169 0.20026 0.0
H850 H 0.35824 0.28195 0.22773 0.0
H851 H 0.26253 0.22592 0.23004 0.0
O852 O 0.32928 0.29988 0.29829 0.0
O853 O 0.32406 0.31577 0.25687 0.0
O854 O 0.34818 0.27145 0.26692 0.0
O855 O 0.27924 0.25152 0.27144 0.0
H856 H 0.33598 0.35186 0.28469 0.0
H857 H 0.34344 0.30764 0.33368 0.0
H858 H 0.3531 0.39911 0.30282 0.0
H859 H 0.36042 0.35582 0.35101 0.0
H860 H 0.24119 0.28884 0.2205 0.0
H861 H 0.34006 0.37048 0.24393 0.0
H862 H 0.27016 0.27582 0.24263 0.0
H863 H 0.30962 0.38191 0.22184 0.0
H864 H 0.44889 0.37668 0.30621 0.0
H865 H 0.43617 0.4122 0.25474 0.0
H866 H 0.24859 0.30719 0.33341 0.0
H867 H 0.23118 0.34277 0.2832 0.0
H868 H 0.3851 0.26215 0.24548 0.0
H869 H 0.36737 0.27676 0.30169 0.0
H870 H 0.42974 0.25899 0.25643 0.0
H871 H 0.41215 0.27313 0.31164 0.0
H872 H 0.27458 0.20094 0.2576 0.0
H873 H 0.24106 0.23685 0.29966 0.0
H874 H 0.24023 0.14887 0.26975 0.0
H875 H 0.20757 0.18418 0.31122 0.0
H876 H 0.29328 0.20817 0.34684 0.0
H877 H 0.3153 0.16526 0.30241 0.0
H878 H 0.36152 0.25277 0.20182 0.0
H879 H 0.26307 0.19668 0.20304 0.0
Li880 Li 0.72258 0.03523 0.24987 0.0
Li881 Li 0.72583 0.04974 0.28214 0.0
Li882 Li 0.70714 0.99529 0.27676 0.0
Li883 Li 0.67715 0.01897 0.26918 0.0
C884 C 0.77738 0.04902 0.2755 0.0
N885 N 0.8362 0.08615 0.28803 0.0
C886 C 0.79813 0.07408 0.26498 0.0
C887 C 0.78666 0.04273 0.29232 0.0
C888 C 0.82775 0.09258 0.27155 0.0
C889 C 0.81645 0.06183 0.29845 0.0
C890 C 0.71514 0.08995 0.26482 0.0
C891 C 0.70812 0.12668 0.28215 0.0
N892 N 0.73071 0.14961 0.27214 0.0
C893 C 0.73821 0.11391 0.25464 0.0
C894 C 0.69989 0.0964 0.27863 0.0
C895 C 0.74577 0.14389 0.25857 0.0
C896 C 0.72927 0.06614 0.21713 0.0
N897 N 0.74006 0.04986 0.22606 0.0
C898 C 0.78071 0.06611 0.20414 0.0
C899 C 0.76466 0.04865 0.21957 0.0
C900 C 0.77138 0.08504 0.19563 0.0
C901 C 0.74481 0.08421 0.20192 0.0
H902 H 0.70973 0.06677 0.22262 0.0
H903 H 0.77292 0.03571 0.22703 0.0
C904 C 0.74562 0.07516 0.31781 0.0
N905 N 0.75031 0.08112 0.29938 0.0
C906 C 0.76513 0.09661 0.33069 0.0
C907 C 0.79376 0.12985 0.30533 0.0
C908 C 0.77367 0.10795 0.29303 0.0
C909 C 0.78988 0.12411 0.32441 0.0
H910 H 0.72732 0.05337 0.32253 0.0
H911 H 0.77749 0.11195 0.27838 0.0
C912 C 0.65904 0.97614 0.24369 0.0
N913 N 0.60342 0.94379 0.22616 0.0
C914 C 0.6384 0.94625 0.24913 0.0
C915 C 0.6515 0.98952 0.22927 0.0
C916 C 0.61037 0.93028 0.2401 0.0
C917 C 0.62323 0.97281 0.2206 0.0
C918 C 0.66785 0.00425 0.30579 0.0
C919 C 0.64983 0.97307 0.30956 0.0
C920 C 0.66151 0.02495 0.31468 0.0
C921 C 0.62539 0.9631 0.32187 0.0
C922 C 0.63683 0.01407 0.32687 0.0
N923 N 0.61941 0.98363 0.33017 0.0
C924 C 0.71416 0.9653 0.30608 0.0
C925 C 0.69486 0.93287 0.28 0.0
C926 C 0.70968 0.94099 0.31726 0.0
N927 N 0.70627 0.96081 0.28793 0.0
C928 C 0.68983 0.9077 0.29076 0.0
C929 C 0.69655 0.91152 0.3098 0.0
H930 H 0.72245 0.98759 0.31213 0.0
H931 H 0.68844 0.92984 0.26557 0.0
C932 C 0.63097 0.03396 0.26318 0.0
N933 N 0.63608 0.01123 0.26868 0.0
C934 C 0.60239 0.03117 0.26575 0.0
C935 C 0.58405 0.98042 0.27786 0.0
C936 C 0.61298 0.98425 0.27508 0.0
C937 C 0.57883 0.00455 0.27386 0.0
H938 H 0.64938 0.05477 0.25747 0.0
H939 H 0.61728 0.96613 0.27885 0.0
O940 O 0.7481 0.03096 0.26944 0.0
O941 O 0.70736 0.06036 0.26119 0.0
O942 O 0.68643 0.99232 0.25251 0.0
O943 O 0.69187 0.01448 0.29373 0.0
H944 H 0.79128 0.07967 0.2521 0.0
H945 H 0.771 0.02348 0.30064 0.0
H946 H 0.84394 0.11219 0.26362 0.0
H947 H 0.82384 0.05733 0.31151 0.0
H948 H 0.69651 0.13194 0.29283 0.0
H949 H 0.7507 0.10956 0.24411 0.0
H950 H 0.68178 0.07821 0.28649 0.0
H951 H 0.76374 0.16263 0.25089 0.0
H952 H 0.80119 0.06629 0.19964 0.0
H953 H 0.73685 0.09833 0.19559 0.0
H954 H 0.76161 0.09131 0.34531 0.0
H955 H 0.81248 0.1509 0.29996 0.0
H956 H 0.64375 0.93565 0.26039 0.0
H957 H 0.66719 0.01266 0.22494 0.0
H958 H 0.59409 0.90719 0.24424 0.0
H959 H 0.61702 0.98294 0.20948 0.0
H960 H 0.65416 0.95662 0.30274 0.0
H961 H 0.67559 0.04918 0.31231 0.0
H962 H 0.61108 0.93901 0.32475 0.0
H963 H 0.63159 0.02985 0.33376 0.0
H964 H 0.71568 0.94515 0.33175 0.0
H965 H 0.6795 0.88535 0.28445 0.0
H966 H 0.5991 0.05009 0.26214 0.0
H967 H 0.56658 0.95951 0.28417 0.0
Li968 Li 0.9505 0.66958 0.28362 0.0
Li969 Li 0.97878 0.65398 0.26349 0.0
Li970 Li 0.00268 0.70659 0.27397 0.0
Li971 Li 0.95759 0.68331 0.25148 0.0
C972 C 0.98543 0.64683 0.30063 0.0
N973 N 0.97978 0.59914 0.3222 0.0
C974 C 0.95804 0.61896 0.3009 0.0
C975 C 0.00985 0.65045 0.31145 0.0
C976 C 0.95567 0.59514 0.31186 0.0
C977 C 0.00656 0.62608 0.32224 0.0
C978 C 0.91404 0.6227 0.24985 0.0
C979 C 0.90156 0.5983 0.21997 0.0
N980 N 0.87141 0.5862 0.22381 0.0
C981 C 0.8829 0.60959 0.25362 0.0
C982 C 0.92339 0.61662 0.233 0.0
C983 C 0.86172 0.59136 0.24025 0.0
C984 C 0.89441 0.65474 0.29922 0.0
N985 N 0.92278 0.66036 0.30364 0.0
C986 C 0.91144 0.6579 0.33592 0.0
C987 C 0.93168 0.66208 0.32156 0.0
C988 C 0.88187 0.65172 0.33169 0.0
C989 C 0.87339 0.65003 0.31308 0.0
H990 H 0.88854 0.6551 0.28491 0.0
H991 H 0.95471 0.66756 0.32471 0.0
C992 C 0.01814 0.63082 0.26458 0.0
N993 N 0.98893 0.62289 0.26049 0.0
C994 C 0.0257 0.6084 0.26828 0.0
C995 C 0.97328 0.57002 0.26256 0.0
C996 C 0.96673 0.5932 0.25894 0.0
C997 C 0.00279 0.57761 0.26809 0.0
H998 H 0.03494 0.65449 0.26675 0.0
H999 H 0.94342 0.58738 0.25656 0.0
C1000 C 0.95503 0.72366 0.28553 0.0
N1001 N 0.93197 0.74664 0.3116 0.0
C1002 C 0.92997 0.72702 0.28129 0.0
C1003 C 0.96853 0.73223 0.30298 0.0
C1004 C 0.91861 0.73863 0.29467 0.0
C1005 C 0.95649 0.74373 0.31598 0.0
C1006 C 0.01994 0.6877 0.23649 0.0
C1007 C 0.05065 0.70032 0.24122 0.0
C1008 C 0.00959 0.67194 0.21979 0.0
C1009 C 0.07015 0.69592 0.2296 0.0
C1010 C 0.02978 0.66804 0.20851 0.0
N1011 N 0.05939 0.67994 0.21363 0.0
C1012 C 0.0597 0.73102 0.28944 0.0
C1013 C 0.04437 0.76796 0.286 0.0
C1014 C 0.08536 0.75145 0.29941 0.0
N1015 N 0.03968 0.73938 0.28317 0.0
C1016 C 0.06977 0.78919 0.29607 0.0
C1017 C 0.09037 0.78079 0.30318 0.0
H1018 H 0.05511 0.708 0.28721 0.0
H1019 H 0.02777 0.77383 0.28114 0.0
C1020 C 0.90675 0.67961 0.23489 0.0
N1021 N 0.93617 0.68773 0.23126 0.0
C1022 C 0.88689 0.67587 0.22052 0.0
C1023 C 0.92842 0.69064 0.19892 0.0
C1024 C 0.94752 0.69402 0.21377 0.0
C1025 C 0.89744 0.68069 0.20218 0.0
H1026 H 0.89825 0.67426 0.24892 0.0
H1027 H 0.97103 0.70052 0.21126 0.0
O1028 O 0.9888 0.66996 0.28922 0.0
O1029 O 0.93522 0.6416 0.26249 0.0
O1030 O 0.96592 0.71144 0.27284 0.0
O1031 O 0.00054 0.69185 0.24777 0.0
H1032 H 0.9389 0.61555 0.29257 0.0
H1033 H 0.03122 0.67178 0.31146 0.0
H1034 H 0.9347 0.57341 0.31208 0.0
H1035 H 0.02533 0.62855 0.33062 0.0
H1036 H 0.90858 0.59361 0.20683 0.0
H1037 H 0.87506 0.61337 0.2667 0.0
H1038 H 0.94724 0.6257 0.23014 0.0
H1039 H 0.83757 0.58129 0.24294 0.0
H1040 H 0.91883 0.65962 0.35013 0.0
H1041 H 0.85105 0.64614 0.30928 0.0
H1042 H 0.04854 0.61524 0.27293 0.0
H1043 H 0.95497 0.5465 0.26236 0.0
H1044 H 0.91933 0.72061 0.26784 0.0
H1045 H 0.9877 0.72941 0.30657 0.0
H1046 H 0.89914 0.74121 0.29161 0.0
H1047 H 0.96652 0.75018 0.32959 0.0
H1048 H 0.0594 0.71334 0.25375 0.0
H1049 H 0.98636 0.66313 0.21536 0.0
H1050 H 0.09388 0.70532 0.23325 0.0
H1051 H 0.02196 0.65572 0.19562 0.0
H1052 H 0.10031 0.7438 0.30484 0.0
H1053 H 0.07289 0.81165 0.2986 0.0
H1054 H 0.86317 0.66776 0.22372 0.0
H1055 H 0.93762 0.69506 0.18501 0.0
Li1056 Li 0.67645 0.73298 0.71682 0.0
Li1057 Li 0.68564 0.73076 0.74935 0.0
Li1058 Li 0.70628 0.71103 0.72612 0.0
Li1059 Li 0.65165 0.68218 0.73237 0.0
C1060 C 0.73019 0.78318 0.7233 0.0
N1061 N 0.75693 0.842 0.70951 0.0
C1062 C 0.71682 0.80113 0.7265 0.0
C1063 C 0.75721 0.79522 0.71306 0.0
C1064 C 0.73066 0.83078 0.71943 0.0
C1065 C 0.77036 0.82499 0.70622 0.0
C1066 C 0.62752 0.72163 0.74858 0.0
C1067 C 0.58944 0.70266 0.77269 0.0
N1068 N 0.59151 0.73046 0.77369 0.0
C1069 C 0.62893 0.74987 0.74966 0.0
C1070 C 0.60739 0.69771 0.76004 0.0
C1071 C 0.61069 0.75394 0.76252 0.0
C1072 C 0.63771 0.7466 0.69728 0.0
N1073 N 0.66732 0.7537 0.69806 0.0
C1074 C 0.68053 0.79032 0.67384 0.0
C1075 C 0.68843 0.77423 0.68617 0.0
C1076 C 0.65031 0.78446 0.67325 0.0
C1077 C 0.62861 0.76153 0.68484 0.0
H1078 H 0.62115 0.7295 0.70651 0.0
H1079 H 0.71162 0.77883 0.68653 0.0
C1080 C 0.70515 0.78127 0.77373 0.0
N1081 N 0.68826 0.7504 0.77243 0.0
C1082 C 0.70012 0.79648 0.78818 0.0
C1083 C 0.6628 0.74766 0.80083 0.0
C1084 C 0.66855 0.73342 0.78609 0.0
C1085 C 0.67773 0.77969 0.80157 0.0
H1086 H 0.72131 0.79428 0.76302 0.0
H1087 H 0.65569 0.70885 0.78485 0.0
C1088 C 0.67969 0.69591 0.68997 0.0
N1089 N 0.69385 0.69912 0.65284 0.0
C1090 C 0.65892 0.6742 0.67769 0.0
C1091 C 0.70766 0.71923 0.68338 0.0
C1092 C 0.6665 0.67622 0.65896 0.0
C1093 C 0.7144 0.72047 0.66456 0.0
C1094 C 0.70413 0.68111 0.7557 0.0
C1095 C 0.69809 0.65173 0.75133 0.0
C1096 C 0.73082 0.70104 0.76513 0.0
C1097 C 0.71905 0.64278 0.75644 0.0
C1098 C 0.7512 0.69122 0.76999 0.0
N1099 N 0.74495 0.66255 0.76557 0.0
C1100 C 0.76794 0.72486 0.71884 0.0
C1101 C 0.72805 0.67656 0.70916 0.0
C1102 C 0.78936 0.72025 0.70931 0.0
N1103 N 0.73785 0.70352 0.71805 0.0
C1104 C 0.74861 0.67088 0.69965 0.0
C1105 C 0.7796 0.69325 0.69918 0.0
H1106 H 0.77516 0.74589 0.72627 0.0
H1107 H 0.70396 0.66004 0.70872 0.0
C1108 C 0.59709 0.64135 0.71768 0.0
N1109 N 0.6159 0.64397 0.73175 0.0
C1110 C 0.57118 0.61349 0.71406 0.0
C1111 C 0.58372 0.59167 0.74004 0.0
C1112 C 0.60962 0.62015 0.74313 0.0
C1113 C 0.56438 0.58799 0.72511 0.0
H1114 H 0.60292 0.6608 0.70887 0.0
H1115 H 0.62505 0.62305 0.75428 0.0
O1116 O 0.71696 0.75406 0.73016 0.0
O1117 O 0.64581 0.71744 0.73642 0.0
O1118 O 0.67262 0.69418 0.70836 0.0
O1119 O 0.68436 0.69061 0.75037 0.0
H1120 H 0.6958 0.79213 0.73421 0.0
H1121 H 0.76782 0.78172 0.71023 0.0
H1122 H 0.72045 0.84482 0.72177 0.0
H1123 H 0.79121 0.83452 0.69823 0.0
H1124 H 0.57399 0.68445 0.78177 0.0
H1125 H 0.64397 0.76848 0.74069 0.0
H1126 H 0.606 0.67571 0.75942 0.0
H1127 H 0.61175 0.77576 0.76362 0.0
H1128 H 0.69827 0.80787 0.66537 0.0
H1129 H 0.60486 0.7554 0.68454 0.0
H1130 H 0.7123 0.82117 0.78816 0.0
H1131 H 0.64592 0.73376 0.81109 0.0
H1132 H 0.63719 0.65595 0.68259 0.0
H1133 H 0.72398 0.73622 0.69269 0.0
H1134 H 0.65064 0.65957 0.64929 0.0
H1135 H 0.73597 0.73841 0.65928 0.0
H1136 H 0.67767 0.63616 0.74385 0.0
H1137 H 0.73584 0.72392 0.76849 0.0
H1138 H 0.71479 0.62017 0.75306 0.0
H1139 H 0.77203 0.70642 0.77724 0.0
H1140 H 0.81314 0.73787 0.7095 0.0
H1141 H 0.74007 0.64986 0.69192 0.0
H1142 H 0.55745 0.61171 0.70216 0.0
H1143 H 0.57921 0.57267 0.74896 0.0
Li1144 Li 0.31771 0.97149 0.72642 0.0
Li1145 Li 0.28901 0.99657 0.72005 0.0
Li1146 Li 0.26798 0.95349 0.74264 0.0
Li1147 Li 0.26851 0.94602 0.70903 0.0
C1148 C 0.31952 0.99639 0.7615 0.0
N1149 N 0.34452 7e-05 0.79598 0.0
C1150 C 0.32785 0.02186 0.77267 0.0
C1151 C 0.32399 0.97284 0.76784 0.0
C1152 C 0.34044 0.02329 0.79007 0.0
C1153 C 0.33664 0.97511 0.78532 0.0
C1154 C 0.32192 0.00536 0.68987 0.0
C1155 C 0.32021 0.03467 0.66403 0.0
N1156 N 0.3501 0.05554 0.66674 0.0
C1157 C 0.3527 0.02699 0.69228 0.0
C1158 C 0.3056 0.00909 0.67552 0.0
C1159 C 0.36651 0.05222 0.68048 0.0
C1160 C 0.36324 0.95576 0.72044 0.0
N1161 N 0.3577 0.97703 0.72804 0.0
C1162 C 0.41095 0.01044 0.73318 0.0
C1163 C 0.38074 0.00373 0.73478 0.0
C1164 C 0.41732 0.98929 0.72474 0.0
C1165 C 0.39298 0.96128 0.71883 0.0
H1166 H 0.34483 0.93522 0.71466 0.0
H1167 H 0.3758 0.02056 0.74042 0.0
C1168 C 0.27576 0.03933 0.7028 0.0
N1169 N 0.29571 0.03614 0.71382 0.0
C1170 C 0.28396 0.06764 0.69492 0.0
C1171 C 0.33228 0.0892 0.7108 0.0
C1172 C 0.32322 0.06045 0.71829 0.0
C1173 C 0.31286 0.09288 0.69855 0.0
H1174 H 0.25412 0.01964 0.69938 0.0
H1175 H 0.33882 0.05712 0.72683 0.0
C1176 C 0.28439 0.90389 0.72968 0.0
N1177 N 0.28717 0.85074 0.7305 0.0
C1178 C 0.28706 0.89091 0.71323 0.0
C1179 C 0.28311 0.88976 0.74654 0.0
C1180 C 0.28845 0.86407 0.71393 0.0
C1181 C 0.28456 0.86293 0.74667 0.0
C1182 C 0.21802 0.94808 0.71509 0.0
C1183 C 0.19265 0.92751 0.72544 0.0
C1184 C 0.21438 0.95302 0.69648 0.0
C1185 C 0.1642 0.91168 0.71688 0.0
C1186 C 0.18557 0.9367 0.68841 0.0
N1187 N 0.16128 0.91651 0.69869 0.0
C1188 C 0.24743 0.94358 0.78115 0.0
C1189 C 0.22564 0.90181 0.76043 0.0
C1190 C 0.23051 0.92444 0.79584 0.0
N1191 N 0.24483 0.93188 0.76389 0.0
C1192 C 0.20843 0.88199 0.77459 0.0
C1193 C 0.21093 0.89308 0.79265 0.0
H1194 H 0.26291 0.96757 0.78359 0.0
H1195 H 0.22395 0.89315 0.74657 0.0
C1196 C 0.25162 0.91985 0.67263 0.0
N1197 N 0.24579 0.91576 0.69109 0.0
C1198 C 0.23429 0.89613 0.66032 0.0
C1199 C 0.20589 0.86457 0.68635 0.0
C1200 C 0.2234 0.88889 0.69806 0.0
C1201 C 0.21134 0.868 0.66724 0.0
H1202 H 0.26985 0.94133 0.6675 0.0
H1203 H 0.21939 0.88635 0.71281 0.0
O1204 O 0.30698 0.99467 0.7445 0.0
O1205 O 0.30779 0.98093 0.70164 0.0
O1206 O 0.28227 0.92983 0.72925 0.0
O1207 O 0.24618 0.96344 0.72318 0.0
H1208 H 0.32456 0.0403 0.76794 0.0
H1209 H 0.31794 0.95313 0.75934 0.0
H1210 H 0.34695 0.04285 0.79888 0.0
H1211 H 0.34021 0.95704 0.79039 0.0
H1212 H 0.30774 0.038 0.65302 0.0
H1213 H 0.36573 0.02454 0.70326 0.0
H1214 H 0.28178 0.99272 0.67345 0.0
H1215 H 0.39025 0.06923 0.68229 0.0
H1216 H 0.42919 0.03239 0.73778 0.0
H1217 H 0.39698 0.94468 0.71187 0.0
H1218 H 0.26813 0.0696 0.68577 0.0
H1219 H 0.35484 0.10797 0.71385 0.0
H1220 H 0.28853 0.90168 0.70005 0.0
H1221 H 0.28095 0.89932 0.75944 0.0
H1222 H 0.29062 0.85386 0.7013 0.0
H1223 H 0.28357 0.85178 0.75962 0.0
H1224 H 0.19482 0.92392 0.73995 0.0
H1225 H 0.23369 0.96878 0.68823 0.0
H1226 H 0.14441 0.89559 0.72472 0.0
H1227 H 0.18254 0.94002 0.67396 0.0
H1228 H 0.23321 0.93393 0.80958 0.0
H1229 H 0.1932 0.85818 0.77138 0.0
H1230 H 0.23915 0.89947 0.64564 0.0
H1231 H 0.18812 0.84332 0.69216 0.0
Li1232 Li 0.04473 0.31489 0.745 0.0
Li1233 Li 0.02431 0.34296 0.73118 0.0
Li1234 Li 0.99836 0.28889 0.72514 0.0
Li1235 Li 0.05181 0.3251 0.71153 0.0
C1236 C 0.99115 0.31675 0.76349 0.0
N1237 N 0.96603 0.33322 0.79203 0.0
C1238 C 0.00922 0.34329 0.77359 0.0
C1239 C 0.96033 0.29845 0.76798 0.0
C1240 C 0.9961 0.35128 0.78794 0.0
C1241 C 0.94804 0.30719 0.78244 0.0
C1242 C 0.08996 0.38228 0.73744 0.0
C1243 C 0.13054 0.43296 0.72985 0.0
N1244 N 0.13588 0.43935 0.74818 0.0
C1245 C 0.09606 0.38932 0.7562 0.0
C1246 C 0.10755 0.40422 0.72415 0.0
C1247 C 0.11928 0.4183 0.76134 0.0
C1248 C 0.09645 0.3214 0.76215 0.0
N1249 N 0.06666 0.31208 0.76545 0.0
C1250 C 0.07267 0.30507 0.79752 0.0
C1251 C 0.05439 0.30368 0.78264 0.0
C1252 C 0.10379 0.31526 0.79459 0.0
C1253 C 0.11546 0.32301 0.77653 0.0
H1254 H 0.1056 0.32824 0.74833 0.0
H1255 H 0.03067 0.29666 0.78488 0.0
C1256 C 0.98451 0.36621 0.7356 0.0
N1257 N 0.01429 0.37467 0.73291 0.0
C1258 C 0.97437 0.38679 0.7322 0.0
C1259 C 0.02592 0.4248 0.72411 0.0
C1260 C 0.03508 0.40361 0.72784 0.0
C1261 C 0.99498 0.41616 0.72558 0.0
H1262 H 0.96813 0.3428 0.73896 0.0
H1263 H 0.05826 0.40963 0.72509 0.0
C1264 C 0.04486 0.26618 0.732 0.0
N1265 N 0.06417 0.22997 0.74896 0.0
C1266 C 0.07324 0.2696 0.72754 0.0
C1267 C 0.02618 0.24426 0.74496 0.0
C1268 C 0.08262 0.25109 0.7363 0.0
C1269 C 0.0364 0.2262 0.75343 0.0
C1270 C 0.00709 0.34197 0.69623 0.0
C1271 C 0.97754 0.33694 0.69397 0.0
C1272 C 0.03167 0.36773 0.68827 0.0
C1273 C 0.97311 0.35807 0.68401 0.0
C1274 C 0.02629 0.38828 0.67838 0.0
N1275 N 0.99738 0.3831 0.67651 0.0
C1276 C 0.93591 0.25978 0.7198 0.0
C1277 C 0.95824 0.23076 0.70985 0.0
C1278 C 0.90844 0.23948 0.7113 0.0
N1279 N 0.9602 0.25543 0.71858 0.0
C1280 C 0.93108 0.20973 0.7012 0.0
C1281 C 0.90597 0.21446 0.70139 0.0
H1282 H 0.93849 0.2801 0.72639 0.0
H1283 H 0.97818 0.22828 0.70878 0.0
C1284 C 0.10819 0.34918 0.69373 0.0
N1285 N 0.07763 0.33194 0.69114 0.0
C1286 C 0.12812 0.35501 0.67901 0.0
C1287 C 0.08481 0.324 0.6594 0.0
C1288 C 0.06561 0.31932 0.67445 0.0
C1289 C 0.11641 0.34225 0.66165 0.0
H1290 H 0.11706 0.35817 0.70729 0.0
H1291 H 0.04116 0.30547 0.67291 0.0
O1292 O 0.00343 0.30858 0.74928 0.0
O1293 O 0.06771 0.35381 0.73204 0.0
O1294 O 0.03561 0.28459 0.72395 0.0
O1295 O 0.0121 0.32227 0.70658 0.0
H1296 H 0.03298 0.35781 0.7702 0.0
H1297 H 0.94606 0.27767 0.76042 0.0
H1298 H 0.0098 0.37188 0.79578 0.0
H1299 H 0.92421 0.29327 0.78604 0.0
H1300 H 0.14413 0.45019 0.7197 0.0
H1301 H 0.08333 0.37255 0.76673 0.0
H1302 H 0.10318 0.39928 0.70956 0.0
H1303 H 0.1242 0.42401 0.77581 0.0
H1304 H 0.06277 0.29916 0.81123 0.0
H1305 H 0.13912 0.33049 0.77355 0.0
H1306 H 0.95034 0.37918 0.73367 0.0
H1307 H 0.04259 0.44688 0.71865 0.0
H1308 H 0.08795 0.28657 0.71755 0.0
H1309 H 0.00418 0.24147 0.74857 0.0
H1310 H 0.10459 0.25356 0.73307 0.0
H1311 H 0.02228 0.20924 0.76357 0.0
H1312 H 0.95827 0.31719 0.70005 0.0
H1313 H 0.0547 0.37209 0.68999 0.0
H1314 H 0.9504 0.35464 0.68232 0.0
H1315 H 0.04512 0.40845 0.6723 0.0
H1316 H 0.88999 0.24442 0.71158 0.0
H1317 H 0.9301 0.19058 0.69393 0.0
H1318 H 0.15247 0.36871 0.68123 0.0
H1319 H 0.07519 0.31362 0.64618 0.0
Li1320 Li 0.94575 0.62263 0.60613 0.0
Li1321 Li 0.99911 0.64504 0.59879 0.0
Li1322 Li 0.96716 0.5977 0.58615 0.0
Li1323 Li 0.97639 0.59888 0.61897 0.0
C1324 C 0.97486 0.66171 0.57152 0.0
N1325 N 0.99552 0.71571 0.55222 0.0
C1326 C 0.96073 0.67914 0.57385 0.0
C1327 C 0.999 0.67138 0.559 0.0
C1328 C 0.97162 0.70646 0.56407 0.0
C1329 C 0.00928 0.69885 0.54948 0.0
C1330 C 0.00333 0.66094 0.6345 0.0
C1331 C 0.05431 0.68287 0.64677 0.0
N1332 N 0.05152 0.70597 0.65427 0.0
C1333 C 0.0009 0.68476 0.64249 0.0
C1334 C 0.03019 0.65985 0.63681 0.0
C1335 C 0.02553 0.70733 0.65239 0.0
C1336 C 0.88541 0.60689 0.61741 0.0
N1337 N 0.91423 0.63011 0.61426 0.0
C1338 C 0.90364 0.66499 0.6304 0.0
C1339 C 0.92328 0.65892 0.62005 0.0
C1340 C 0.87412 0.6412 0.63468 0.0
C1341 C 0.86478 0.61205 0.62739 0.0
H1342 H 0.87877 0.58404 0.61304 0.0
H1343 H 0.94636 0.67692 0.61742 0.0
C1344 C 0.06246 0.68644 0.59567 0.0
N1345 N 0.03467 0.68431 0.59661 0.0
C1346 C 0.08883 0.71438 0.5987 0.0
C1347 C 0.0576 0.73771 0.60248 0.0
C1348 C 0.03183 0.70931 0.59942 0.0
C1349 C 0.08644 0.74019 0.60286 0.0
H1350 H 0.06409 0.66612 0.594 0.0
H1351 H 0.00943 0.70678 0.60074 0.0
C1352 C 0.91054 0.55558 0.59926 0.0
N1353 N 0.85876 0.50772 0.58399 0.0
C1354 C 0.89771 0.52643 0.60701 0.0
C1355 C 0.897 0.56044 0.58378 0.0
C1356 C 0.87153 0.50252 0.59908 0.0
C1357 C 0.87084 0.53593 0.57626 0.0
C1358 C 0.02007 0.59866 0.58775 0.0
C1359 C 0.03385 0.61303 0.5711 0.0
C1360 C 0.01986 0.57193 0.59286 0.0
C1361 C 0.04631 0.59992 0.55958 0.0
C1362 C 0.03256 0.55951 0.58097 0.0
N1363 N 0.04534 0.5736 0.56469 0.0
C1364 C 0.96941 0.58181 0.54843 0.0
C1365 C 0.95318 0.54163 0.57026 0.0
C1366 C 0.97135 0.56347 0.53465 0.0
N1367 N 0.96109 0.57083 0.56592 0.0
C1368 C 0.95405 0.52234 0.55684 0.0
C1369 C 0.96399 0.5335 0.53893 0.0
H1370 H 0.97622 0.60529 0.54544 0.0
H1371 H 0.94791 0.53384 0.58441 0.0
C1372 C 0.98602 0.58877 0.65671 0.0
N1373 N 0.97847 0.57665 0.63945 0.0
C1374 C 0.98756 0.57152 0.67132 0.0
C1375 C 0.97227 0.52933 0.65022 0.0
C1376 C 0.97096 0.54734 0.63609 0.0
C1377 C 0.98091 0.54144 0.66811 0.0
H1378 H 0.99075 0.61174 0.65923 0.0
H1379 H 0.96412 0.53802 0.62235 0.0
O1380 O 0.96447 0.63492 0.58106 0.0
O1381 O 0.98006 0.63928 0.62399 0.0
O1382 O 0.93647 0.57919 0.60662 0.0
O1383 O 0.00691 0.6107 0.59897 0.0
H1384 H 0.94143 0.6716 0.58303 0.0
H1385 H 0.00985 0.65798 0.55672 0.0
H1386 H 0.96101 0.72026 0.56585 0.0
H1387 H 0.02816 0.70673 0.5399 0.0
H1388 H 0.0753 0.68246 0.64847 0.0
H1389 H 0.98032 0.68594 0.6411 0.0
H1390 H 0.03255 0.64163 0.63071 0.0
H1391 H 0.02399 0.72597 0.65856 0.0
H1392 H 0.91222 0.68777 0.63579 0.0
H1393 H 0.84209 0.59307 0.62989 0.0
H1394 H 0.1107 0.71541 0.59888 0.0
H1395 H 0.05472 0.75691 0.60598 0.0
H1396 H 0.90789 0.52232 0.61901 0.0
H1397 H 0.90668 0.58289 0.57762 0.0
H1398 H 0.86137 0.47982 0.6049 0.0
H1399 H 0.86015 0.53933 0.56426 0.0
H1400 H 0.0347 0.63393 0.56702 0.0
H1401 H 0.00998 0.5608 0.60582 0.0
H1402 H 0.05668 0.61064 0.54656 0.0
H1403 H 0.03226 0.53867 0.5847 0.0
H1404 H 0.97918 0.57277 0.52094 0.0
H1405 H 0.94864 0.49947 0.56066 0.0
H1406 H 0.99376 0.58155 0.68496 0.0
H1407 H 0.96722 0.50637 0.64703 0.0
Li1408 Li 0.39025 0.38231 0.61994 0.0
Li1409 Li 0.3937 0.37074 0.58573 0.0
Li1410 Li 0.34459 0.35593 0.60077 0.0
Li1411 Li 0.37026 0.33011 0.6085 0.0
C1412 C 0.37096 0.41425 0.58693 0.0
N1413 N 0.35181 0.44686 0.56565 0.0
C1414 C 0.35618 0.40248 0.57012 0.0
C1415 C 0.37552 0.4424 0.59308 0.0
C1416 C 0.34681 0.41936 0.55951 0.0
C1417 C 0.3658 0.4586 0.58208 0.0
C1418 C 0.42838 0.34926 0.61146 0.0
C1419 C 0.45233 0.32106 0.60109 0.0
N1420 N 0.45628 0.31558 0.619 0.0
C1421 C 0.43284 0.34355 0.62976 0.0
C1422 C 0.43827 0.33807 0.59698 0.0
C1423 C 0.44692 0.32638 0.63329 0.0
C1424 C 0.4092 0.40132 0.65675 0.0
N1425 N 0.41007 0.41065 0.63901 0.0
C1426 C 0.4389 0.46285 0.64791 0.0
C1427 C 0.42483 0.44064 0.63434 0.0
C1428 C 0.43826 0.45399 0.66636 0.0
C1429 C 0.42352 0.42283 0.67077 0.0
H1430 H 0.3973 0.37721 0.65998 0.0
H1431 H 0.42577 0.44726 0.62004 0.0
C1432 C 0.40805 0.38984 0.54786 0.0
N1433 N 0.41947 0.3906 0.56499 0.0
C1434 C 0.42673 0.4101 0.53413 0.0
C1435 C 0.46902 0.42974 0.55546 0.0
C1436 C 0.44942 0.40956 0.56887 0.0
C1437 C 0.45748 0.43079 0.53801 0.0
H1438 H 0.38418 0.37451 0.54508 0.0
H1439 H 0.45777 0.41003 0.58269 0.0
C1440 C 0.32553 0.33865 0.63499 0.0
N1441 N 0.27139 0.3248 0.65221 0.0
C1442 C 0.29935 0.31041 0.63199 0.0
C1443 C 0.3243 0.35967 0.64695 0.0
C1444 C 0.27216 0.3039 0.64075 0.0
C1445 C 0.29668 0.35226 0.65549 0.0
C1446 C 0.34801 0.30489 0.57563 0.0
C1447 C 0.32139 0.2781 0.58055 0.0
C1448 C 0.36791 0.30383 0.56264 0.0
C1449 C 0.31526 0.25053 0.5725 0.0
C1450 C 0.36093 0.27582 0.55488 0.0
N1451 N 0.33499 0.24997 0.55995 0.0
C1452 C 0.28196 0.32931 0.59002 0.0
C1453 C 0.30283 0.3749 0.60752 0.0
C1454 C 0.25263 0.32503 0.59214 0.0
N1455 N 0.30607 0.35341 0.59824 0.0
C1456 C 0.27408 0.37143 0.61011 0.0
C1457 C 0.24828 0.34568 0.60291 0.0
H1458 H 0.28524 0.31255 0.58272 0.0
H1459 H 0.32235 0.39358 0.61415 0.0
C1460 C 0.35473 0.28557 0.63548 0.0
N1461 N 0.36482 0.29169 0.6177 0.0
C1462 C 0.34892 0.25852 0.64402 0.0
C1463 C 0.36514 0.24455 0.61614 0.0
C1464 C 0.37069 0.27208 0.60809 0.0
C1465 C 0.35388 0.23741 0.63434 0.0
H1466 H 0.3511 0.30169 0.64318 0.0
H1467 H 0.3797 0.27769 0.59421 0.0
O1468 O 0.37975 0.3977 0.59764 0.0
O1469 O 0.41386 0.36524 0.60771 0.0
O1470 O 0.35215 0.34575 0.62613 0.0
O1471 O 0.35425 0.33215 0.58315 0.0
H1472 H 0.35139 0.38021 0.56551 0.0
H1473 H 0.38617 0.45159 0.60626 0.0
H1474 H 0.33535 0.41048 0.54647 0.0
H1475 H 0.36925 0.48044 0.58664 0.0
H1476 H 0.45997 0.31211 0.59004 0.0
H1477 H 0.42515 0.35198 0.64109 0.0
H1478 H 0.43485 0.34225 0.58275 0.0
H1479 H 0.45034 0.32157 0.64738 0.0
H1480 H 0.45065 0.48672 0.64398 0.0
H1481 H 0.42282 0.4153 0.68488 0.0
H1482 H 0.41711 0.41009 0.52076 0.0
H1483 H 0.49255 0.44548 0.55901 0.0
H1484 H 0.29996 0.29389 0.62279 0.0
H1485 H 0.34432 0.38166 0.64937 0.0
H1486 H 0.25164 0.28229 0.63839 0.0
H1487 H 0.29532 0.36841 0.66466 0.0
H1488 H 0.30577 0.27855 0.59058 0.0
H1489 H 0.38855 0.3244 0.55865 0.0
H1490 H 0.29484 0.22958 0.57626 0.0
H1491 H 0.37616 0.27462 0.54486 0.0
H1492 H 0.2335 0.30509 0.58611 0.0
H1493 H 0.27206 0.38767 0.61885 0.0
H1494 H 0.34004 0.25401 0.658 0.0
H1495 H 0.36981 0.22918 0.60826 0.0
Li1496 Li 0.64285 0.00073 0.60431 0.0
Li1497 Li 0.62828 0.03291 0.62046 0.0
Li1498 Li 0.62929 0.0333 0.5869 0.0
Li1499 Li 0.67831 0.05557 0.60635 0.0
C1500 C 0.58008 0.97474 0.61229 0.0
N1501 N 0.53329 0.92554 0.6305 0.0
C1502 C 0.58517 0.96573 0.62957 0.0
C1503 C 0.55117 0.95877 0.60429 0.0
C1504 C 0.56124 0.9408 0.63855 0.0
C1505 C 0.52782 0.93394 0.61371 0.0
C1506 C 0.67323 0.02687 0.64335 0.0
C1507 C 0.7026 0.05602 0.66963 0.0
N1508 N 0.69729 0.02979 0.67807 0.0
C1509 C 0.66813 0.0002 0.65228 0.0
C1510 C 0.69062 0.05501 0.6521 0.0
C1511 C 0.68043 0.00215 0.66984 0.0
C1512 C 0.66994 0.96546 0.60929 0.0
N1513 N 0.64291 0.96329 0.60477 0.0
C1514 C 0.61792 0.90891 0.60536 0.0
C1515 C 0.61736 0.93579 0.60207 0.0
C1516 C 0.64522 0.91059 0.61092 0.0
C1517 C 0.67169 0.9392 0.61231 0.0
H1518 H 0.68985 0.98768 0.61131 0.0
H1519 H 0.59631 0.93466 0.59805 0.0
C1520 C 0.58002 0.03703 0.63455 0.0
N1521 N 0.60439 0.03486 0.64026 0.0
C1522 C 0.56035 0.03854 0.64739 0.0
C1523 C 0.59022 0.03398 0.67191 0.0
C1524 C 0.60977 0.03319 0.65854 0.0
C1525 C 0.56532 0.03692 0.66631 0.0
H1526 H 0.57581 0.03742 0.61993 0.0
H1527 H 0.62885 0.0308 0.6628 0.0
C1528 C 0.67002 0.0095 0.57233 0.0
N1529 N 0.67643 0.96801 0.55082 0.0
C1530 C 0.69841 0.01142 0.57074 0.0
C1531 C 0.64492 0.98662 0.56291 0.0
C1532 C 0.70117 0.99019 0.55982 0.0
C1533 C 0.64862 0.96583 0.55212 0.0
C1534 C 0.63882 0.08856 0.61135 0.0
C1535 C 0.61801 0.09423 0.60203 0.0
C1536 C 0.6501 0.10214 0.62853 0.0
C1537 C 0.60838 0.11294 0.61023 0.0
C1538 C 0.63987 0.12067 0.63629 0.0
N1539 N 0.61937 0.12562 0.62706 0.0
C1540 C 0.57841 0.02704 0.56952 0.0
C1541 C 0.6186 0.03876 0.54836 0.0
C1542 C 0.55859 0.02311 0.5551 0.0
N1543 N 0.60761 0.03438 0.56593 0.0
C1544 C 0.5995 0.03511 0.53344 0.0
C1545 C 0.56888 0.02664 0.53675 0.0
H1546 H 0.57033 0.02355 0.58366 0.0
H1547 H 0.64182 0.04408 0.54592 0.0
C1548 C 0.73915 0.07373 0.61264 0.0
N1549 N 0.71974 0.0847 0.61048 0.0
C1550 C 0.76772 0.09189 0.62065 0.0
C1551 C 0.756 0.13252 0.62361 0.0
C1552 C 0.72788 0.11378 0.6152 0.0
C1553 C 0.77587 0.12123 0.62685 0.0
H1554 H 0.73156 0.05016 0.60939 0.0
H1555 H 0.71172 0.12164 0.61368 0.0
O1556 O 0.60308 0.99922 0.60326 0.0
O1557 O 0.66171 0.02533 0.62602 0.0
O1558 O 0.66658 0.02951 0.58335 0.0
O1559 O 0.64807 0.06983 0.60366 0.0
H1560 H 0.60731 0.97787 0.63599 0.0
H1561 H 0.54684 0.96544 0.59092 0.0
H1562 H 0.56488 0.9336 0.65192 0.0
H1563 H 0.50534 0.92134 0.60767 0.0
H1564 H 0.71612 0.07767 0.67653 0.0
H1565 H 0.65476 0.97819 0.64575 0.0
H1566 H 0.6948 0.07587 0.64549 0.0
H1567 H 0.67662 0.98169 0.6769 0.0
H1568 H 0.59711 0.8871 0.60416 0.0
H1569 H 0.69303 0.94127 0.61679 0.0
H1570 H 0.54095 0.0401 0.64255 0.0
H1571 H 0.59446 0.03234 0.68642 0.0
H1572 H 0.71805 0.02902 0.57793 0.0
H1573 H 0.62273 0.98468 0.56414 0.0
H1574 H 0.72298 0.99131 0.55851 0.0
H1575 H 0.62937 0.94788 0.54485 0.0
H1576 H 0.60932 0.08422 0.58863 0.0
H1577 H 0.66619 0.09803 0.63594 0.0
H1578 H 0.59214 0.11737 0.60322 0.0
H1579 H 0.64817 0.13106 0.64966 0.0
H1580 H 0.53534 0.01706 0.55829 0.0
H1581 H 0.60825 0.03781 0.51948 0.0
H1582 H 0.78234 0.08236 0.62316 0.0
H1583 H 0.76164 0.15507 0.62825 0.0
H1584 H 0.45699 0.97101 0.03745 0.0
H1585 H 0.49048 0.05795 0.01022 0.0
H1586 H 0.5197 0.0455 0.98869 0.0
H1587 H 0.53552 0.00977 0.97735 0.0
H1588 H 0.50153 0.92256 0.00419 0.0
H1589 H 0.47221 0.93498 0.02583 0.0
C1590 C 0.4706 0.98721 0.02678 0.0
C1591 C 0.47165 0.01548 0.0256 0.0
C1592 C 0.48698 0.9797 0.01421 0.0
C1593 C 0.48971 0.0363 0.01176 0.0
C1594 C 0.50617 0.02905 0.99927 0.0
C1595 C 0.52131 0.99331 0.98776 0.0
C1596 C 0.52051 0.96521 0.98909 0.0
C1597 C 0.50485 0.00077 0.00029 0.0
C1598 C 0.50253 0.94436 0.00291 0.0
C1599 C 0.48582 0.95147 0.0153 0.0
H1600 H 0.95727 0.43891 0.00585 0.0
H1601 H 0.02527 0.48945 0.04733 0.0
H1602 H 0.04506 0.53559 0.02858 0.0
H1603 H 0.04322 0.56158 0.00053 0.0
H1604 H 0.97263 0.51223 0.96016 0.0
H1605 H 0.95422 0.46557 0.9782 0.0
C1606 C 0.97609 0.46011 0.01096 0.0
C1607 C 0.98969 0.46061 0.02803 0.0
C1608 C 0.98722 0.48672 1.00018 0.0
C1609 C 0.01453 0.48824 0.03418 0.0
C1610 C 0.02584 0.51469 0.02348 0.0
C1611 C 0.02357 0.54078 0.9957 0.0
C1612 C 0.00942 0.54071 0.97892 0.0
C1613 C 0.0124 0.51418 0.00645 0.0
C1614 C 0.98445 0.51311 0.9728 0.0
C1615 C 0.97361 0.48639 0.98324 0.0
H1616 H 0.47714 0.45066 0.97672 0.0
H1617 H 0.42222 0.48852 0.9957 0.0
H1618 H 0.46273 0.52221 0.01674 0.0
H1619 H 0.51331 0.54021 0.03027 0.0
H1620 H 0.56822 0.5024 0.01116 0.0
H1621 H 0.52759 0.46853 0.99029 0.0
C1622 C 0.47391 0.46613 0.98553 0.0
C1623 C 0.44664 0.46705 0.98453 0.0
C1624 C 0.49711 0.48514 0.99784 0.0
C1625 C 0.44313 0.48764 0.99589 0.0
C1626 C 0.46618 0.50672 0.0081 0.0
C1627 C 0.51648 0.52467 0.02149 0.0
C1628 C 0.54383 0.52386 0.02241 0.0
C1629 C 0.49322 0.50559 0.00923 0.0
C1630 C 0.54726 0.5032 0.01107 0.0
C1631 C 0.52415 0.48401 0.99895 0.0
H1632 H 0.17214 0.39157 0.34866 0.0
H1633 H 0.15202 0.32134 0.38932 0.0
H1634 H 0.17809 0.30162 0.37046 0.0
H1635 H 0.20461 0.30292 0.3421 0.0
H1636 H 0.23114 0.37722 0.30338 0.0
H1637 H 0.20382 0.39615 0.32171 0.0
C1638 C 0.17404 0.37242 0.35369 0.0
C1639 C 0.15975 0.35788 0.3704 0.0
C1640 C 0.18972 0.36149 0.34296 0.0
C1641 C 0.16213 0.33269 0.37638 0.0
C1642 C 0.17717 0.32141 0.36562 0.0
C1643 C 0.20526 0.3237 0.33773 0.0
C1644 C 0.22015 0.33836 0.32116 0.0
C1645 C 0.19074 0.33542 0.34879 0.0
C1646 C 0.21944 0.36475 0.31573 0.0
C1647 C 0.2041 0.37594 0.32637 0.0
H1648 H 0.6574 0.81023 0.37171 0.0
H1649 H 0.68616 0.76938 0.32974 0.0
H1650 H 0.69937 0.8124 0.30918 0.0
H1651 H 0.70272 0.86177 0.30295 0.0
H1652 H 0.67181 0.90139 0.34444 0.0
H1653 H 0.6594 0.85877 0.36517 0.0
C1654 C 0.66632 0.81059 0.35802 0.0
C1655 C 0.67096 0.78662 0.35242 0.0
C1656 C 0.67356 0.83528 0.34611 0.0
C1657 C 0.6829 0.78775 0.33464 0.0
C1658 C 0.69025 0.81227 0.32277 0.0
C1659 C 0.69305 0.86095 0.31646 0.0
C1660 C 0.68853 0.88496 0.32213 0.0
C1661 C 0.68568 0.83617 0.32834 0.0
C1662 C 0.67617 0.8836 0.3398 0.0
C1663 C 0.66885 0.8591 0.35166 0.0
H1664 H 0.14863 0.79149 0.30301 0.0
H1665 H 0.08903 0.81606 0.33133 0.0
H1666 H 0.12959 0.84685 0.35323 0.0
H1667 H 0.18131 0.8653 0.36495 0.0
H1668 H 0.24141 0.84201 0.33589 0.0
H1669 H 0.20084 0.81114 0.31421 0.0
C1670 C 0.14451 0.80356 0.31399 0.0
C1671 C 0.11584 0.80147 0.31551 0.0
C1672 C 0.16782 0.82098 0.32663 0.0
C1673 C 0.11101 0.8176 0.32967 0.0
C1674 C 0.13409 0.83497 0.34232 0.0
C1675 C 0.18573 0.85375 0.35379 0.0
C1676 C 0.21451 0.85598 0.35224 0.0
C1677 C 0.16252 0.83664 0.34101 0.0
C1678 C 0.21941 0.84029 0.33779 0.0
C1679 C 0.1963 0.82287 0.3252 0.0
H1680 H 0.86953 0.69264 0.63894 0.0
H1681 H 0.83402 0.60127 0.66034 0.0
H1682 H 0.80222 0.60942 0.68211 0.0
H1683 H 0.78465 0.64249 0.69548 0.0
H1684 H 0.82191 0.73459 0.67534 0.0
H1685 H 0.85382 0.72652 0.65331 0.0
C1686 C 0.85515 0.67455 0.64848 0.0
C1687 C 0.85414 0.64623 0.6477 0.0
C1688 C 0.83749 0.67965 0.66145 0.0
C1689 C 0.83485 0.62304 0.66011 0.0
C1690 C 0.81685 0.62778 0.6728 0.0
C1691 C 0.79982 0.6608 0.68629 0.0
C1692 C 0.80092 0.68909 0.68706 0.0
C1693 C 0.81799 0.65597 0.67361 0.0
C1694 C 0.82092 0.71272 0.6752 0.0
C1695 C 0.83896 0.70803 0.66247 0.0
H1696 H 0.36461 0.22796 0.66998 0.0
H1697 H 0.32644 0.18051 0.61876 0.0
H1698 H 0.3108 0.13175 0.63401 0.0
H1699 H 0.30628 0.10242 0.66221 0.0
H1700 H 0.34315 0.15 0.71356 0.0
H1701 H 0.36067 0.19885 0.69797 0.0
C1702 C 0.35273 0.20695 0.66215 0.0
C1703 C 0.34656 0.20796 0.64325 0.0
C1704 C 0.34336 0.17898 0.67107 0.0
C1705 C 0.33177 0.1805 0.63325 0.0
C1706 C 0.32256 0.15256 0.64201 0.0
C1707 C 0.31789 0.12348 0.67002 0.0
C1708 C 0.32317 0.12254 0.68906 0.0
C1709 C 0.3279 0.15151 0.66097 0.0
C1710 C 0.33889 0.15007 0.69889 0.0
C1711 C 0.34885 0.17801 0.69 0.0
H1712 H 0.77843 0.14293 0.66121 0.0
H1713 H 0.83448 0.13717 0.61836 0.0
H1714 H 0.87972 0.16467 0.63794 0.0
H1715 H 0.9032 0.1913 0.66694 0.0
H1716 H 0.84637 0.19447 0.71042 0.0
H1717 H 0.80152 0.16714 0.69084 0.0
C1718 C 0.80065 0.14799 0.65615 0.0
C1719 C 0.80338 0.13859 0.63833 0.0
C1720 C 0.82629 0.16319 0.66759 0.0
C1721 C 0.83203 0.14448 0.63202 0.0
C1722 C 0.85779 0.1601 0.6432 0.0
C1723 C 0.88096 0.18554 0.6723 0.0
C1724 C 0.87829 0.19512 0.69015 0.0
C1725 C 0.85518 0.16957 0.66102 0.0
C1726 C 0.84924 0.18783 0.69667 0.0
C1727 C 0.82353 0.17212 0.6855 0.0
H1728 H 0.3079 0.11466 0.15255 0.0
H1729 H 0.38774 0.18993 0.12794 0.0
H1730 H 0.38217 0.2257 0.14804 0.0
H1731 H 0.35389 0.23556 0.17204 0.0
H1732 H 0.27587 0.15952 0.19795 0.0
H1733 H 0.28067 0.12439 0.17727 0.0
C1734 C 0.32407 0.13891 0.1516 0.0
C1735 C 0.3482 0.14963 0.13879 0.0
C1736 C 0.32071 0.1593 0.16316 0.0
C1737 C 0.36919 0.18107 0.13785 0.0
C1738 C 0.36585 0.20154 0.14922 0.0
C1739 C 0.33804 0.21131 0.17336 0.0
C1740 C 0.3144 0.20052 0.1866 0.0
C1741 C 0.34159 0.19091 0.16187 0.0
C1742 C 0.29385 0.16889 0.18768 0.0
C1743 C 0.29681 0.14858 0.176 0.0
H1744 H 0.84903 0.16573 0.12786 0.0
H1745 H 0.85417 0.237 0.16286 0.0
H1746 H 0.82328 0.19921 0.18641 0.0
H1747 H 0.79436 0.14586 0.19683 0.0
H1748 H 0.79153 0.07467 0.16284 0.0
H1749 H 0.82208 0.11237 0.13904 0.0
C1750 C 0.84327 0.17284 0.14066 0.0
C1751 C 0.85354 0.20396 0.14365 0.0
C1752 C 0.826 0.15105 0.15424 0.0
C1753 C 0.84646 0.21314 0.16034 0.0
C1754 C 0.82879 0.19156 0.17374 0.0
C1755 C 0.80041 0.13868 0.18416 0.0
C1756 C 0.79051 0.10761 0.1814 0.0
C1757 C 0.81834 0.16048 0.1708 0.0
C1758 C 0.7989 0.0985 0.16516 0.0
C1759 C 0.81627 0.12001 0.15159 0.0
H1760 H 0.85044 0.69228 0.19978 0.0
H1761 H 0.89523 0.65216 0.16968 0.0
H1762 H 0.85823 0.63791 0.14472 0.0
H1763 H 0.81261 0.63591 0.13169 0.0
H1764 H 0.76809 0.67649 0.16165 0.0
H1765 H 0.80476 0.69026 0.18674 0.0
C1766 C 0.85203 0.68028 0.18781 0.0
C1767 C 0.87573 0.67347 0.18661 0.0
C1768 C 0.83043 0.67177 0.1736 0.0
C1769 C 0.87762 0.65823 0.17085 0.0
C1770 C 0.85627 0.64978 0.15664 0.0
C1771 C 0.81099 0.64793 0.14365 0.0
C1772 C 0.7875 0.65505 0.14473 0.0
C1773 C 0.83253 0.65635 0.15789 0.0
C1774 C 0.78554 0.67019 0.16053 0.0
C1775 C 0.80673 0.6784 0.17482 0.0
H1776 H 0.61625 0.83487 0.85302 0.0
H1777 H 0.71026 0.90535 0.85931 0.0
H1778 H 0.72637 0.87735 0.83928 0.0
H1779 H 0.71401 0.83277 0.82009 0.0
H1780 H 0.62 0.76254 0.81332 0.0
H1781 H 0.6039 0.78993 0.83394 0.0
C1782 C 0.64026 0.84403 0.85007 0.0
C1783 C 0.66192 0.87238 0.85753 0.0
C1784 C 0.64949 0.82764 0.83865 0.0
C1785 C 0.69297 0.88396 0.85345 0.0
C1786 C 0.70228 0.86781 0.84213 0.0
C1787 C 0.68998 0.82348 0.82306 0.0
C1788 C 0.66834 0.79552 0.81518 0.0
C1789 C 0.68075 0.83966 0.83463 0.0
C1790 C 0.6373 0.78368 0.81943 0.0
C1791 C 0.62799 0.79951 0.83108 0.0
H1792 H 0.12531 0.81515 0.85873 0.0
H1793 H 0.14578 0.74842 0.8364 0.0
H1794 H 0.17901 0.78521 0.81314 0.0
H1795 H 0.20137 0.8359 0.7988 0.0
H1796 H 0.18017 0.90236 0.82073 0.0
H1797 H 0.14833 0.86618 0.84465 0.0
C1798 C 0.13683 0.80856 0.84866 0.0
C1799 C 0.13284 0.77897 0.84919 0.0
C1800 C 0.15588 0.82982 0.83534 0.0
C1801 C 0.14852 0.77105 0.83633 0.0
C1802 C 0.16744 0.79205 0.823 0.0
C1803 C 0.18965 0.84243 0.80874 0.0
C1804 C 0.193 0.87177 0.80787 0.0
C1805 C 0.17115 0.82143 0.82232 0.0
C1806 C 0.1782 0.88006 0.82115 0.0
C1807 C 0.1598 0.85929 0.83475 0.0
H1808 H 0.17443 0.31089 0.86545 0.0
H1809 H 0.24525 0.39474 0.84153 0.0
H1810 H 0.21171 0.38925 0.81573 0.0
H1811 H 0.16202 0.36114 0.80037 0.0
H1812 H 0.09146 0.27689 0.82413 0.0
H1813 H 0.12494 0.28252 0.84991 0.0
C1814 C 0.18244 0.32813 0.85469 0.0
C1815 C 0.21226 0.3533 0.85547 0.0
C1816 C 0.16304 0.32486 0.83995 0.0
C1817 C 0.22249 0.37507 0.8412 0.0
C1818 C 0.20328 0.37201 0.8265 0.0
C1819 C 0.15404 0.34379 0.81106 0.0
C1820 C 0.12422 0.31859 0.81026 0.0
C1821 C 0.17351 0.34701 0.82575 0.0
C1822 C 0.11413 0.29669 0.82448 0.0
C1823 C 0.13333 0.29979 0.83918 0.0
H1824 H 0.96301 0.43608 0.48418 0.0
H1825 H 0.0579 0.50482 0.47944 0.0
H1826 H 0.05028 0.53734 0.50125 0.0
H1827 H 0.01622 0.54672 0.52117 0.0
H1828 H 0.92185 0.47721 0.52669 0.0
H1829 H 0.92946 0.44461 0.50487 0.0
C1830 C 0.98201 0.45818 0.48795 0.0
C1831 C 0.01095 0.46807 0.48018 0.0
C1832 C 0.97744 0.47671 0.50047 0.0
C1833 C 0.03547 0.49657 0.48537 0.0
C1834 C 0.03107 0.51527 0.49771 0.0
C1835 C 0.99735 0.52452 0.51741 0.0
C1836 C 0.96843 0.51442 0.52523 0.0
C1837 C 0.0021 0.5057 0.50521 0.0
C1838 C 0.94422 0.48541 0.52068 0.0
C1839 C 0.9486 0.4668 0.50827 0.0
H1840 H 0.55629 0.52883 0.48415 0.0
H1841 H 0.48752 0.555 0.47946 0.0
H1842 H 0.4543 0.5137 0.50037 0.0
H1843 H 0.4447 0.47012 0.52012 0.0
H1844 H 0.51435 0.44557 0.52605 0.0
H1845 H 0.54746 0.48648 0.50468 0.0
C1846 C 0.53427 0.5259 0.48793 0.0
C1847 C 0.52452 0.54513 0.48019 0.0
C1848 C 0.51535 0.50225 0.50012 0.0
C1849 C 0.49556 0.54042 0.485 0.0
C1850 C 0.47654 0.51683 0.49702 0.0
C1851 C 0.46703 0.4736 0.51657 0.0
C1852 C 0.47701 0.45473 0.52447 0.0
C1853 C 0.48611 0.49749 0.50457 0.0
C1854 C 0.5062 0.45981 0.52009 0.0
C1855 C 0.52511 0.48319 0.5079 0.0
H1856 H 0.5107 0.97969 0.53353 0.0
H1857 H 0.57896 0.06003 0.50511 0.0
H1858 H 0.54325 0.05058 0.47988 0.0
H1859 H 0.49235 0.02034 0.46638 0.0
H1860 H 0.42425 0.93949 0.49453 0.0
H1861 H 0.46001 0.94883 0.5197 0.0
C1862 C 0.51769 0.99527 0.52188 0.0
C1863 C 0.54741 0.02063 0.52125 0.0
C1864 C 0.49704 0.98973 0.50747 0.0
C1865 C 0.55631 0.04024 0.50587 0.0
C1866 C 0.53585 0.03494 0.4915 0.0
C1867 C 0.48541 0.00447 0.47787 0.0
C1868 C 0.45563 0.97916 0.4785 0.0
C1869 C 0.50615 0.0098 0.49218 0.0
C1870 C 0.44688 0.9593 0.49376 0.0
C1871 C 0.46738 0.96453 0.50811 0.0
H1872 H 0.21754 0.8779 0.04534 0.0
H1873 H 0.19106 0.93915 0.02128 0.0
H1874 H 0.14883 0.89659 0.00529 0.0
H1875 H 0.1231 0.84321 0.99553 0.0
H1876 H 0.15004 0.78183 0.01872 0.0
H1877 H 0.18797 0.82299 0.03806 0.0
C1878 C 0.20208 0.88174 0.03693 0.0
C1879 C 0.20758 0.91159 0.03425 0.0
C1880 C 0.1781 0.85722 0.02756 0.0
C1881 C 0.18751 0.91638 0.02326 0.0
C1882 C 0.16338 0.8921 0.01414 0.0
C1883 C 0.13711 0.83884 0.00498 0.0
C1884 C 0.13417 0.80978 0.00558 0.0
C1885 C 0.15909 0.86263 0.01574 0.0
C1886 C 0.15195 0.8041 0.01807 0.0
C1887 C 0.17375 0.82765 0.02902 0.0
H1888 H 0.11061 0.29929 0.06016 0.0
H1889 H 0.10628 0.36953 0.02867 0.0
H1890 H 0.14842 0.37597 0.00938 0.0
H1891 H 0.1836 0.35887 0.99968 0.0
H1892 H 0.18824 0.28832 0.03035 0.0
H1893 H 0.1489 0.2847 0.05173 0.0
C1894 C 0.1191 0.31615 0.04917 0.0
C1895 C 0.1053 0.33389 0.04591 0.0
C1896 C 0.14315 0.31946 0.03786 0.0
C1897 C 0.11674 0.35589 0.03172 0.0
C1898 C 0.14066 0.3594 0.02052 0.0
C1899 C 0.17599 0.34277 0.0111 0.0
C1900 C 0.18827 0.32355 0.01336 0.0
C1901 C 0.15355 0.34087 0.02321 0.0
C1902 C 0.17889 0.30324 0.02838 0.0
C1903 C 0.15639 0.30112 0.04053 0.0
H1904 H 0.72088 0.80584 0.03631 0.0
H1905 H 0.63313 0.77419 0.0618 0.0
H1906 H 0.62837 0.81449 0.04602 0.0
H1907 H 0.64721 0.85551 0.02261 0.0
H1908 H 0.73301 0.88384 0.99539 0.0
H1909 H 0.74089 0.84835 0.01439 0.0
C1910 C 0.70106 0.80827 0.03874 0.0
C1911 C 0.67746 0.78735 0.05025 0.0
C1912 C 0.69812 0.83073 0.0292 0.0
C1913 C 0.65154 0.79016 0.05297 0.0
C1914 C 0.64882 0.8131 0.04395 0.0
C1915 C 0.66784 0.8542 0.02117 0.0
C1916 C 0.68959 0.87211 0.00777 0.0
C1917 C 0.67166 0.83305 0.03169 0.0
C1918 C 0.71605 0.87011 0.00568 0.0
C1919 C 0.72049 0.84985 0.01648 0.0
H1920 H 0.80339 0.09991 0.95522 0.0
H1921 H 0.75857 0.14866 0.9369 0.0
H1922 H 0.79766 0.19495 0.95202 0.0
H1923 H 0.84101 0.21957 0.97341 0.0
H1924 H 0.88431 0.16974 0.9925 0.0
H1925 H 0.84998 0.1262 0.97354 0.0
C1926 C 0.80263 0.12087 0.95404 0.0
C1927 C 0.77796 0.12077 0.94508 0.0
C1928 C 0.82484 0.14718 0.96299 0.0
C1929 C 0.77711 0.14806 0.94394 0.0
C1930 C 0.79943 0.17451 0.95258 0.0
C1931 C 0.84308 0.19926 0.97327 0.0
C1932 C 0.86495 0.19779 0.9845 0.0
C1933 C 0.82279 0.17401 0.96267 0.0
C1934 C 0.86781 0.17157 0.98391 0.0
C1935 C 0.848 0.14654 0.97319 0.0
H1936 H 0.82682 0.70656 0.98318 0.0
H1937 H 0.76558 0.61091 0.97311 0.0
H1938 H 0.80212 0.60988 0.95141 0.0
H1939 H 0.85403 0.63477 0.93845 0.0
H1940 H 0.91594 0.7299 0.9501 0.0
H1941 H 0.87639 0.7327 0.96758 0.0
C1942 C 0.82139 0.68559 0.97606 0.0
C1943 C 0.79383 0.65877 0.9799 0.0
C1944 C 0.84266 0.68507 0.96389 0.0
C1945 C 0.7867 0.63186 0.97035 0.0
C1946 C 0.80765 0.63122 0.95804 0.0
C1947 C 0.85873 0.65619 0.94463 0.0
C1948 C 0.88803 0.68197 0.94309 0.0
C1949 C 0.8361 0.65747 0.95517 0.0
C1950 C 0.89357 0.70973 0.95088 0.0
C1951 C 0.87104 0.71131 0.9611 0.0
H1952 H 0.36873 0.22732 0.93536 0.0
H1953 H 0.27243 0.18163 0.94761 0.0
H1954 H 0.27596 0.14115 0.96351 0.0
H1955 H 0.3076 0.12342 0.97821 0.0
H1956 H 0.40433 0.16976 0.96729 0.0
H1957 H 0.39948 0.20558 0.94686 0.0
C1958 C 0.34846 0.20826 0.94129 0.0
C1959 C 0.32045 0.20772 0.94045 0.0
C1960 C 0.35082 0.18551 0.95098 0.0
C1961 C 0.29425 0.18259 0.94789 0.0
C1962 C 0.2963 0.15955 0.95721 0.0
C1963 C 0.32753 0.14075 0.97096 0.0
C1964 C 0.35635 0.14414 0.97448 0.0
C1965 C 0.32465 0.16142 0.95943 0.0
C1966 C 0.38196 0.16704 0.96511 0.0
C1967 C 0.3792 0.18746 0.95339 0.0
H1968 H 0.8711 0.2276 0.38127 0.0
H1969 H 0.94171 0.23205 0.34581 0.0
H1970 H 0.90405 0.18784 0.32852 0.0
H1971 H 0.85092 0.15099 0.32179 0.0
H1972 H 0.77943 0.14677 0.35623 0.0
H1973 H 0.81749 0.18745 0.37587 0.0
C1974 C 0.87815 0.21842 0.36998 0.0
C1975 C 0.90896 0.23306 0.36465 0.0
C1976 C 0.85625 0.19329 0.35987 0.0
C1977 C 0.91799 0.22123 0.34996 0.0
C1978 C 0.89652 0.19603 0.34009 0.0
C1979 C 0.84371 0.15898 0.33363 0.0
C1980 C 0.81253 0.14639 0.33743 0.0
C1981 C 0.86556 0.18244 0.3446 0.0
C1982 C 0.80339 0.15628 0.35304 0.0
C1983 C 0.82511 0.17958 0.3642 0.0
H1984 H 0.82311 0.60706 0.33502 0.0
H1985 H 0.89204 0.68918 0.3612 0.0
H1986 H 0.85426 0.68712 0.38321 0.0
H1987 H 0.80056 0.66443 0.39302 0.0
H1988 H 0.73185 0.58297 0.36592 0.0
H1989 H 0.77062 0.58201 0.34652 0.0
C1990 C 0.82984 0.62433 0.34566 0.0
C1991 C 0.86012 0.64837 0.34643 0.0
C1992 C 0.80803 0.62312 0.3581 0.0
C1993 C 0.8688 0.67039 0.36042 0.0
C1994 C 0.8472 0.66932 0.37291 0.0
C1995 C 0.79418 0.64632 0.38299 0.0
C1996 C 0.76334 0.62385 0.38094 0.0
C1997 C 0.81658 0.64617 0.37159 0.0
C1998 C 0.75543 0.60032 0.36801 0.0
C1999 C 0.77756 0.5999 0.35675 0.0
H2000 H 0.32617 0.19021 0.36117 0.0
H2001 H 0.27452 0.12215 0.31996 0.0
H2002 H 0.27459 0.08274 0.33938 0.0
H2003 H 0.29338 0.06871 0.36646 0.0
H2004 H 0.34562 0.13634 0.40775 0.0
H2005 H 0.34097 0.17495 0.38993 0.0
C2006 C 0.3144 0.16665 0.35663 0.0
C2007 C 0.30063 0.15912 0.33909 0.0
C2008 C 0.31477 0.14415 0.3678 0.0
C2009 C 0.28573 0.12856 0.33328 0.0
C2010 C 0.28565 0.10602 0.34439 0.0
C2011 C 0.30302 0.09167 0.37188 0.0
C2012 C 0.31976 0.09963 0.38843 0.0
C2013 C 0.30067 0.1137 0.36147 0.0
C2014 C 0.33277 0.12971 0.39498 0.0
C2015 C 0.33013 0.15176 0.3848 0.0
H2016 H 0.5614 0.50319 0.3185 0.0
H2017 H 0.50577 0.54545 0.31516 0.0
H2018 H 0.46987 0.50448 0.2951 0.0
H2019 H 0.45009 0.45259 0.283 0.0
H2020 H 0.50336 0.40828 0.28889 0.0
H2021 H 0.54446 0.45403 0.3034 0.0
C2022 C 0.54155 0.50355 0.31324 0.0
C2023 C 0.53599 0.52703 0.31857 0.0
C2024 C 0.52047 0.47939 0.30228 0.0
C2025 C 0.51062 0.52766 0.31126 0.0
C2026 C 0.48993 0.5041 0.29991 0.0
C2027 C 0.47114 0.45342 0.28694 0.0
C2028 C 0.47388 0.42731 0.28497 0.0
C2029 C 0.49404 0.47929 0.29593 0.0
C2030 C 0.50094 0.42826 0.29035 0.0
C2031 C 0.52427 0.45428 0.29872 0.0
H2032 H 0.57438 0.04901 0.29167 0.0
H2033 H 0.52006 0.95704 0.27141 0.0
H2034 H 0.47523 0.95234 0.28731 0.0
H2035 H 0.45339 0.97238 0.31001 0.0
H2036 H 0.50875 0.06366 0.33106 0.0
H2037 H 0.55124 0.07088 0.31153 0.0
C2038 C 0.55254 0.02824 0.29027 0.0
C2039 C 0.55055 0.00337 0.28044 0.0
C2040 C 0.52717 0.02551 0.29975 0.0
C2041 C 0.5222 0.9764 0.27907 0.0
C2042 C 0.49661 0.97371 0.28815 0.0
C2043 C 0.47453 0.99407 0.30995 0.0
C2044 C 0.47812 0.01738 0.32202 0.0
C2045 C 0.49907 0.99779 0.299 0.0
C2046 C 0.50568 0.04529 0.32201 0.0
C2047 C 0.52994 0.04942 0.31087 0.0
H2048 H 0.96747 0.53606 0.29356 0.0
H2049 H 0.05147 0.56866 0.26321 0.0
H2050 H 0.06397 0.53582 0.28172 0.0
H2051 H 0.0527 0.50105 0.30831 0.0
H2052 H 0.96895 0.46998 0.33876 0.0
H2053 H 0.95454 0.49895 0.31832 0.0
C2054 C 0.98811 0.53535 0.29062 0.0
C2055 C 0.0084 0.55451 0.27695 0.0
C2056 C 0.99537 0.51705 0.30152 0.0
C2057 C 0.0355 0.55403 0.27368 0.0
C2058 C 0.04267 0.53536 0.28428 0.0
C2059 C 0.03114 0.50035 0.31026 0.0
C2060 C 0.0121 0.48378 0.32514 0.0
C2061 C 0.02307 0.51728 0.29852 0.0
C2062 C 0.98426 0.4831 0.32761 0.0
C2063 C 0.97592 0.49949 0.31589 0.0
H2064 H 0.48194 0.45895 0.68995 0.0
H2065 H 0.43041 0.502 0.67416 0.0
H2066 H 0.46225 0.54565 0.69394 0.0
H2067 H 0.50845 0.57409 0.71236 0.0
H2068 H 0.56329 0.53335 0.72554 0.0
H2069 H 0.52586 0.48585 0.71087 0.0
C2070 C 0.47735 0.47763 0.69123 0.0
C2071 C 0.45413 0.47755 0.68061 0.0
C2072 C 0.49639 0.50306 0.70213 0.0
C2073 C 0.4484 0.50186 0.68215 0.0
C2074 C 0.46658 0.52676 0.69342 0.0
C2075 C 0.51213 0.55475 0.71214 0.0
C2076 C 0.53892 0.55751 0.71976 0.0
C2077 C 0.49129 0.52805 0.70293 0.0
C2078 C 0.54287 0.53192 0.71984 0.0
C2079 C 0.52162 0.50481 0.71126 0.0
H2080 H 0.53514 0.99475 0.69296 0.0
H2081 H 0.54564 0.07771 0.6694 0.0
H2082 H 0.503 0.07258 0.68803 0.0
H2083 H 0.45874 0.04089 0.70758 0.0
H2084 H 0.44572 0.95593 0.72944 0.0
H2085 H 0.49357 0.96553 0.71515 0.0
C2086 C 0.52849 0.01204 0.6923 0.0
C2087 C 0.54326 0.03648 0.67984 0.0
C2088 C 0.50338 0.00839 0.70261 0.0
C2089 C 0.53433 0.05861 0.67885 0.0
C2090 C 0.50999 0.05565 0.68946 0.0
C2091 C 0.46686 0.02494 0.70967 0.0
C2092 C 0.44883 0.99776 0.71951 0.0
C2093 C 0.49374 0.03012 0.70091 0.0
C2094 C 0.45926 0.97696 0.72184 0.0
C2095 C 0.48651 0.9824 0.71363 0.0
H2096 H 0.02232 0.47828 0.72715 0.0
H2097 H 0.94322 0.39855 0.70546 0.0
H2098 H 0.92968 0.43082 0.68772 0.0
H2099 H 0.94366 0.48109 0.67529 0.0
H2100 H 0.02554 0.56054 0.69438 0.0
H2101 H 0.03447 0.52905 0.7162 0.0
C2102 C 0.002 0.46796 0.71864 0.0
C2103 C 0.984 0.43599 0.71761 0.0
C2104 C 0.99498 0.48662 0.70781 0.0
C2105 C 0.95736 0.42305 0.7068 0.0
C2106 C 0.94976 0.4415 0.69642 0.0
C2107 C 0.96345 0.49154 0.68424 0.0
C2108 C 0.98412 0.52305 0.68299 0.0
C2109 C 0.96896 0.47321 0.69634 0.0
C2110 C 0.00918 0.53636 0.69508 0.0
C2111 C 0.01444 0.51833 0.70747 0.0
H2112 H 0.18142 0.86806 0.63609 0.0
H2113 H 0.19978 0.80985 0.67082 0.0
H2114 H 0.16487 0.76545 0.65256 0.0
H2115 H 0.12578 0.74269 0.62876 0.0
H2116 H 0.10535 0.79992 0.59453 0.0
H2117 H 0.14455 0.84533 0.61049 0.0
C2118 C 0.17811 0.8457 0.63939 0.0
C2119 C 0.19289 0.84207 0.6548 0.0
C2120 C 0.15755 0.82017 0.62903 0.0
C2121 C 0.18831 0.81302 0.65912 0.0
C2122 C 0.16842 0.78769 0.64869 0.0
C2123 C 0.13046 0.76516 0.62444 0.0
C2124 C 0.11287 0.76801 0.61042 0.0
C2125 C 0.15245 0.79091 0.63389 0.0
C2126 C 0.11861 0.79721 0.60532 0.0
C2127 C 0.14096 0.82312 0.61444 0.0
H2128 H 0.12416 0.29924 0.64469 0.0
H2129 H 0.15658 0.39576 0.64532 0.0
H2130 H 0.19769 0.40472 0.62385 0.0
H2131 H 0.22785 0.38577 0.60834 0.0
H2132 H 0.19907 0.28989 0.61132 0.0
H2133 H 0.1525 0.27977 0.62713 0.0
C2134 C 0.13987 0.32208 0.63972 0.0
C2135 C 0.13759 0.34685 0.64642 0.0
C2136 C 0.1641 0.32712 0.62803 0.0
C2137 C 0.15814 0.37646 0.64023 0.0
C2138 C 0.18159 0.38154 0.62804 0.0
C2139 C 0.21134 0.36261 0.61234 0.0
C2140 C 0.21732 0.33877 0.60883 0.0
C2141 C 0.18541 0.35716 0.62239 0.0
C2142 C 0.19514 0.30876 0.61365 0.0
C2143 C 0.16859 0.30296 0.62294 0.0
H2144 H 0.67366 0.81032 0.63943 0.0
H2145 H 0.60839 0.80212 0.6809 0.0
H2146 H 0.59783 0.83671 0.66346 0.0
H2147 H 0.61113 0.87387 0.63847 0.0
H2148 H 0.68094 0.8876 0.59925 0.0
H2149 H 0.68616 0.84674 0.61392 0.0
C2150 C 0.65724 0.81616 0.64477 0.0
C2151 C 0.642 0.80348 0.66158 0.0
C2152 C 0.65225 0.83733 0.63511 0.0
C2153 C 0.62019 0.81089 0.6679 0.0
C2154 C 0.61431 0.83103 0.65803 0.0
C2155 C 0.62698 0.86737 0.63293 0.0
C2156 C 0.64543 0.88329 0.61778 0.0
C2157 C 0.63068 0.84489 0.64187 0.0
C2158 C 0.66643 0.87536 0.61088 0.0
C2159 C 0.66946 0.85216 0.6193 0.0
loop_
_geom_bond_atom_site_label_1
_geom_bond_atom_site_label_2
_geom_bond_distance
_geom_bond_site_symmetry_2
_ccdc_geom_bond_type
Li0 N17 1.990 . S
Li0 O60 1.956 . S
Li0 O61 1.970 . S
Li0 O62 1.961 . S
Li1 N25 1.990 . S
Li1 O60 1.970 . S
Li1 O61 1.956 . S
Li1 O63 1.961 . S
Li2 N47 1.990 . S
Li2 O60 1.961 . S
Li2 O62 1.956 . S
Li2 O63 1.970 . S
Li3 N53 1.972 1_545 S
Li3 O61 1.992 . S
Li3 O62 1.978 . S
Li3 O63 1.948 . S
C4 C6 1.348 . S
C4 C7 1.356 . S
C4 O60 1.325 . S
N5 C8 1.314 . S
N5 C9 1.279 . S
C6 C4 1.348 . S
C6 C8 1.353 . S
C6 H64 0.929 . S
C7 C4 1.356 . S
C7 C9 1.358 . S
C7 H65 0.930 . S
C8 N5 1.314 . S
C8 C6 1.353 . S
C8 H66 0.930 . S
C9 N5 1.279 . S
C9 C7 1.358 . S
C9 H67 0.930 . S
C10 C13 1.348 . S
C10 C14 1.356 . S
C10 O61 1.325 . S
C11 N12 1.279 . S
C11 C14 1.358 . S
C11 H68 0.930 . S
N12 C11 1.279 . S
N12 C15 1.314 . S
C13 C10 1.348 . S
C13 C15 1.353 . S
C13 H69 0.929 . S
C14 C10 1.356 . S
C14 C11 1.358 . S
C14 H70 0.927 1_545 S
C15 N12 1.314 . S
C15 C13 1.353 . S
C15 H71 0.930 . S
C16 N17 1.314 . S
C16 C21 1.353 . S
C16 H22 0.930 . S
N17 Li0 1.990 . S
N17 C16 1.314 . S
N17 C19 1.279 . S
C18 C19 1.358 . S
C18 C20 1.356 . S
C18 H72 0.930 . S
C19 N17 1.279 . S
C19 C18 1.358 . S
C19 H23 0.930 . S
C20 C18 1.356 . S
C20 C21 1.348 . S
C21 C16 1.353 . S
C21 C20 1.348 . S
C21 H73 0.929 1_554 S
H22 C16 0.930 . S
H23 C19 0.930 . S
C24 N25 1.314 . S
C24 C26 1.353 . S
C24 H30 0.930 . S
N25 Li1 1.990 . S
N25 C24 1.314 . S
N25 C28 1.279 . S
C26 C24 1.353 . S
C26 C29 1.348 . S
C26 H74 0.929 . S
C27 C28 1.358 . S
C27 C29 1.356 . S
C27 H75 0.930 . S
C28 N25 1.279 . S
C28 C27 1.358 . S
C28 H31 0.930 . S
C29 C26 1.348 . S
C29 C27 1.356 . S
H30 C24 0.930 . S
H31 C28 0.930 . S
C32 C34 1.348 1_545 S
C32 C35 1.356 . S
C32 O62 1.325 . S
N33 C36 1.314 1_545 S
N33 C37 1.279 . S
C34 C32 1.348 1_565 S
C34 C36 1.353 1_554 S
C34 H76 0.929 . S
C35 C32 1.356 . S
C35 C37 1.358 1_554 S
C35 H77 0.930 . S
C36 N33 1.314 1_565 S
C36 C34 1.353 1_556 S
C36 H78 0.930 . S
C37 N33 1.279 . S
C37 C35 1.358 1_556 S
C37 H79 0.930 . S
C38 C39 1.348 . S
C38 C40 1.356 . S
C38 O63 1.325 1_565 S
C39 C38 1.348 . S
C39 C41 1.353 . S
C39 H80 0.929 . S
C40 C38 1.356 . S
C40 C42 1.358 . S
C40 H81 0.930 . S
C41 C39 1.353 . S
C41 N43 1.314 . S
C41 H82 0.930 . S
C42 C40 1.358 . S
C42 N43 1.279 . S
C42 H83 0.930 . S
N43 C41 1.314 . S
N43 C42 1.279 . S
C44 C46 1.353 . S
C44 N47 1.314 . S
C44 H50 0.930 . S
C45 N47 1.279 . S
C45 C48 1.358 . S
C45 H51 0.930 . S
C46 C44 1.353 . S
C46 C49 1.348 . S
C46 H84 0.929 . S
N47 Li2 1.990 . S
N47 C44 1.314 . S
N47 C45 1.279 . S
C48 C45 1.358 . S
C48 C49 1.356 . S
C48 H85 0.930 . S
C49 C46 1.348 . S
C49 C48 1.356 . S
H50 C44 0.930 . S
H51 C45 0.930 . S
C52 N53 1.314 . S
C52 C54 1.353 . S
C52 H58 0.930 . S
N53 Li3 1.972 1_565 S
N53 C52 1.314 . S
N53 C56 1.279 . S
C54 C52 1.353 . S
C54 C57 1.348 . S
C54 H86 0.929 . S
C55 C56 1.358 . S
C55 C57 1.356 . S
C55 H87 0.930 . S
C56 N53 1.279 . S
C56 C55 1.358 . S
C56 H59 0.930 . S
C57 C54 1.348 . S
C57 C55 1.356 . S
H58 C52 0.930 . S
H59 C56 0.930 . S
O60 Li0 1.956 . S
O60 Li1 1.970 . S
O60 Li2 1.961 . S
O60 C4 1.325 . S
O61 Li0 1.970 . S
O61 Li1 1.956 . S
O61 Li3 1.992 . S
O61 C10 1.325 . S
O62 Li0 1.961 . S
O62 Li2 1.956 . S
O62 Li3 1.978 . S
O62 C32 1.325 . S
O63 Li1 1.961 . S
O63 Li2 1.970 . S
O63 Li3 1.948 . S
O63 C38 1.325 1_545 S
H64 C6 0.929 . S
H65 C7 0.930 . S
H66 C8 0.930 . S
H67 C9 0.930 . S
H68 C11 0.930 . S
H69 C13 0.929 . S
H70 C14 0.927 1_565 S
H71 C15 0.930 . S
H72 C18 0.930 . S
H73 C21 0.929 1_556 S
H74 C26 0.929 . S
H75 C27 0.930 . S
H76 C34 0.929 . S
H77 C35 0.930 . S
H78 C36 0.930 . S
H79 C37 0.930 . S
H80 C39 0.929 . S
H81 C40 0.930 . S
H82 C41 0.930 . S
H83 C42 0.930 . S
H84 C46 0.929 . S
H85 C48 0.930 . S
H86 C54 0.929 . S
H87 C55 0.930 . S
Li88 N105 1.990 . S
Li88 O148 1.956 . S
Li88 O149 1.970 . S
Li88 O150 1.961 . S
Li89 N113 1.990 . S
Li89 O148 1.970 1_455 S
Li89 O149 1.956 1_455 S
Li89 O151 1.961 1_455 S
Li90 N135 1.990 . S
Li90 O148 1.961 . S
Li90 O150 1.956 . S
Li90 O151 1.970 . S
Li91 N141 1.990 . S
Li91 O149 1.961 . S
Li91 O150 1.970 . S
Li91 O151 1.956 . S
C92 C94 1.348 1_655 S
C92 C95 1.356 . S
C92 O148 1.325 . S
N93 C96 1.314 1_655 S
N93 C97 1.279 . S
C94 C92 1.348 1_455 S
C94 C96 1.353 1_554 S
C94 H152 0.929 . S
C95 C92 1.356 . S
C95 C97 1.358 1_554 S
C95 H153 0.930 . S
C96 N93 1.314 1_455 S
C96 C94 1.353 1_556 S
C96 H154 0.930 . S
C97 N93 1.279 . S
C97 C95 1.358 1_556 S
C97 H155 0.930 . S
C98 C101 1.348 . S
C98 C102 1.356 . S
C98 O149 1.325 1_455 S
C99 N100 1.279 . S
C99 C102 1.358 . S
C99 H156 0.930 . S
N100 C99 1.279 . S
N100 C103 1.314 . S
C101 C98 1.348 . S
C101 C103 1.353 . S
C101 H157 0.929 . S
C102 C98 1.356 . S
C102 C99 1.358 . S
C102 H158 0.930 . S
C103 N100 1.314 . S
C103 C101 1.353 . S
C103 H159 0.930 . S
C104 N105 1.314 . S
C104 C109 1.353 . S
C104 H110 0.930 . S
N105 Li88 1.990 . S
N105 C104 1.314 . S
N105 C107 1.279 . S
C106 C107 1.358 . S
C106 C108 1.356 . S
C106 H160 0.930 . S
C107 N105 1.279 . S
C107 C106 1.358 . S
C107 H111 0.930 . S
C108 C106 1.356 . S
C108 C109 1.348 . S
C109 C104 1.353 . S
C109 C108 1.348 . S
C109 H161 0.929 . S
H110 C104 0.930 . S
H111 C107 0.930 . S
C112 N113 1.314 . S
C112 C114 1.353 . S
C112 H118 0.930 . S
N113 Li89 1.990 . S
N113 C112 1.314 . S
N113 C116 1.279 . S
C114 C112 1.353 . S
C114 C117 1.348 . S
C114 H162 0.929 . S
C115 C116 1.358 . S
C115 C117 1.356 . S
C115 H163 0.930 . S
C116 N113 1.279 . S
C116 C115 1.358 . S
C116 H119 0.930 . S
C117 C114 1.348 . S
C117 C115 1.356 . S
H118 C112 0.930 . S
H119 C116 0.930 . S
C120 C122 1.348 . S
C120 C123 1.356 . S
C120 O150 1.325 . S
N121 C124 1.314 . S
N121 C125 1.279 . S
C122 C120 1.348 . S
C122 C124 1.353 . S
C122 H164 0.929 . S
C123 C120 1.356 . S
C123 C125 1.358 . S
C123 H165 0.930 . S
C124 N121 1.314 . S
C124 C122 1.353 . S
C124 H166 0.930 . S
C125 N121 1.279 . S
C125 C123 1.358 . S
C125 H167 0.930 . S
C126 C127 1.348 . S
C126 C128 1.356 . S
C126 O151 1.325 . S
C127 C126 1.348 . S
C127 C129 1.353 . S
C127 H168 0.929 . S
C128 C126 1.356 . S
C128 C130 1.358 . S
C128 H169 0.930 1_655 S
C129 C127 1.353 . S
C129 N131 1.314 . S
C129 H170 0.930 . S
C130 C128 1.358 . S
C130 N131 1.279 . S
C130 H171 0.930 . S
N131 C129 1.314 . S
N131 C130 1.279 . S
C132 C134 1.382 . S
C132 N135 1.314 . S
C132 H138 0.930 . S
C133 N135 1.279 . S
C133 C136 1.358 . S
C133 H139 0.930 . S
C134 C132 1.382 . S
C134 C137 1.358 . S
C134 H172 0.892 1_554 S
N135 Li90 1.990 . S
N135 C132 1.314 . S
N135 C133 1.279 . S
C136 C133 1.358 . S
C136 C137 1.356 . S
C136 H173 0.930 . S
C137 C134 1.358 . S
C137 C136 1.356 . S
H138 C132 0.930 . S
H139 C133 0.930 . S
C140 N141 1.314 . S
C140 C142 1.353 . S
C140 H146 0.930 . S
N141 Li91 1.990 . S
N141 C140 1.314 . S
N141 C144 1.279 . S
C142 C140 1.353 . S
C142 C145 1.348 . S
C142 H174 0.929 . S
C143 C144 1.358 . S
C143 C145 1.356 . S
C143 H175 0.930 . S
C144 N141 1.279 . S
C144 C143 1.358 . S
C144 H147 0.930 . S
C145 C142 1.348 . S
C145 C143 1.356 . S
H146 C140 0.930 . S
H147 C144 0.930 . S
O148 Li88 1.956 . S
O148 Li89 1.970 1_655 S
O148 Li90 1.961 . S
O148 C92 1.325 . S
O149 Li88 1.970 . S
O149 Li89 1.956 1_655 S
O149 Li91 1.961 . S
O149 C98 1.325 1_655 S
O150 Li88 1.961 . S
O150 Li90 1.956 . S
O150 Li91 1.970 . S
O150 C120 1.325 . S
O151 Li89 1.961 1_655 S
O151 Li90 1.970 . S
O151 Li91 1.956 . S
O151 C126 1.325 . S
H152 C94 0.929 . S
H153 C95 0.930 . S
H154 C96 0.930 . S
H155 C97 0.930 . S
H156 C99 0.930 . S
H157 C101 0.929 . S
H158 C102 0.930 . S
H159 C103 0.930 . S
H160 C106 0.930 . S
H161 C109 0.929 . S
H162 C114 0.929 . S
H163 C115 0.930 . S
H164 C122 0.929 . S
H165 C123 0.930 . S
H166 C124 0.930 . S
H167 C125 0.930 . S
H168 C127 0.929 . S
H169 C128 0.930 1_455 S
H170 C129 0.930 . S
H171 C130 0.930 . S
H172 C134 0.892 1_556 S
H173 C136 0.930 . S
H174 C142 0.929 . S
H175 C143 0.930 . S
Li176 N193 1.990 . S
Li176 O236 1.956 . S
Li176 O237 1.970 . S
Li176 O238 1.961 . S
Li177 N201 1.990 . S
Li177 O236 1.970 . S
Li177 O237 1.956 . S
Li177 O239 1.961 . S
Li178 N223 1.990 . S
Li178 O236 1.961 . S
Li178 O238 1.956 . S
Li178 O239 1.970 . S
Li179 N229 1.990 . S
Li179 O237 1.961 . S
Li179 O238 1.970 . S
Li179 O239 1.956 . S
C180 C182 1.348 . S
C180 C183 1.356 . S
C180 O236 1.325 . S
N181 C184 1.314 . S
N181 C185 1.279 . S
C182 C180 1.348 . S
C182 C184 1.353 . S
C182 H240 0.929 . S
C183 C180 1.356 . S
C183 C185 1.358 . S
C183 H241 0.930 . S
C184 N181 1.314 . S
C184 C182 1.353 . S
C184 H242 0.930 . S
C185 N181 1.279 . S
C185 C183 1.358 . S
C185 H243 0.930 . S
C186 C189 1.348 . S
C186 C190 1.356 . S
C186 O237 1.325 . S
C187 N188 1.279 . S
C187 C190 1.358 . S
C187 H244 0.930 . S
N188 C187 1.279 . S
N188 C191 1.314 . S
C189 C186 1.348 . S
C189 C191 1.353 . S
C189 H245 0.929 . S
C190 C186 1.356 . S
C190 C187 1.358 . S
C190 H246 0.930 . S
C191 N188 1.314 . S
C191 C189 1.353 . S
C191 H247 0.930 . S
C192 N193 1.314 . S
C192 C197 1.353 . S
C192 H198 0.930 . S
N193 Li176 1.990 . S
N193 C192 1.314 . S
N193 C195 1.279 . S
C194 C195 1.358 . S
C194 C196 1.356 . S
C194 H248 0.930 . S
C195 N193 1.279 . S
C195 C194 1.358 . S
C195 H199 0.930 . S
C196 C194 1.356 . S
C196 C197 1.348 . S
C197 C192 1.353 . S
C197 C196 1.348 . S
C197 H249 0.929 . S
H198 C192 0.930 . S
H199 C195 0.930 . S
C200 N201 1.314 . S
C200 C202 1.353 . S
C200 H206 0.930 . S
N201 Li177 1.990 . S
N201 C200 1.314 . S
N201 C204 1.279 . S
C202 C200 1.353 . S
C202 C205 1.348 . S
C202 H250 0.929 . S
C203 C204 1.358 . S
C203 C205 1.356 . S
C203 H251 0.930 . S
C204 N201 1.279 . S
C204 C203 1.358 . S
C204 H207 0.930 . S
C205 C202 1.348 . S
C205 C203 1.356 . S
H206 C200 0.930 . S
H207 C204 0.930 . S
C208 C210 1.348 . S
C208 C211 1.356 . S
C208 O238 1.325 . S
N209 C212 1.314 . S
N209 C213 1.279 . S
C210 C208 1.348 . S
C210 C212 1.353 1_554 S
C210 H252 0.929 . S
C211 C208 1.356 . S
C211 C213 1.358 1_554 S
C211 H253 0.930 . S
C212 N209 1.314 . S
C212 C210 1.353 1_556 S
C212 H254 0.930 . S
C213 N209 1.279 . S
C213 C211 1.358 1_556 S
C213 H255 0.930 . S
C214 C215 1.348 . S
C214 C216 1.356 . S
C214 O239 1.325 . S
C215 C214 1.348 . S
C215 C217 1.353 . S
C215 H256 0.929 . S
C216 C214 1.356 . S
C216 C218 1.358 . S
C216 H257 0.930 . S
C217 C215 1.353 . S
C217 N219 1.314 . S
C217 H258 0.930 . S
C218 C216 1.358 . S
C218 N219 1.279 . S
C218 H259 0.930 . S
N219 C217 1.314 . S
N219 C218 1.279 . S
C220 C222 1.353 . S
C220 N223 1.314 . S
C220 H226 0.930 . S
C221 N223 1.279 . S
C221 C224 1.358 1_554 S
C221 H227 0.930 . S
C222 C220 1.353 . S
C222 C225 1.348 . S
C222 H260 0.929 . S
N223 Li178 1.990 . S
N223 C220 1.314 . S
N223 C221 1.279 . S
C224 C221 1.358 1_556 S
C224 C225 1.356 1_556 S
C224 H261 0.930 . S
C225 C222 1.348 . S
C225 C224 1.356 1_554 S
H226 C220 0.930 . S
H227 C221 0.930 . S
C228 N229 1.314 . S
C228 C230 1.353 . S
C228 H234 0.930 . S
N229 Li179 1.990 . S
N229 C228 1.314 . S
N229 C232 1.279 . S
C230 C228 1.353 . S
C230 C233 1.348 . S
C230 H262 0.929 . S
C231 C232 1.358 . S
C231 C233 1.356 . S
C231 H263 0.930 . S
C232 N229 1.279 . S
C232 C231 1.358 . S
C232 H235 0.930 . S
C233 C230 1.348 . S
C233 C231 1.356 . S
H234 C228 0.930 . S
H235 C232 0.930 . S
O236 Li176 1.956 . S
O236 Li177 1.970 . S
O236 Li178 1.961 . S
O236 C180 1.325 . S
O237 Li176 1.970 . S
O237 Li177 1.956 . S
O237 Li179 1.961 . S
O237 C186 1.325 . S
O238 Li176 1.961 . S
O238 Li178 1.956 . S
O238 Li179 1.970 . S
O238 C208 1.325 . S
O239 Li177 1.961 . S
O239 Li178 1.970 . S
O239 Li179 1.956 . S
O239 C214 1.325 . S
H240 C182 0.929 . S
H241 C183 0.930 . S
H242 C184 0.930 . S
H243 C185 0.930 . S
H244 C187 0.930 . S
H245 C189 0.929 . S
H246 C190 0.930 . S
H247 C191 0.930 . S
H248 C194 0.930 . S
H249 C197 0.929 . S
H250 C202 0.929 . S
H251 C203 0.930 . S
H252 C210 0.929 . S
H253 C211 0.930 . S
H254 C212 0.930 . S
H255 C213 0.930 . S
H256 C215 0.929 . S
H257 C216 0.930 . S
H258 C217 0.930 . S
H259 C218 0.930 . S
H260 C222 0.929 . S
H261 C224 0.930 . S
H262 C230 0.929 . S
H263 C231 0.930 . S
Li264 N281 1.990 . S
Li264 O324 1.956 . S
Li264 O325 1.970 . S
Li264 O326 1.961 . S
Li265 N289 1.990 1_565 S
Li265 O324 1.970 . S
Li265 O325 1.956 . S
Li265 O327 1.961 . S
Li266 N311 1.990 . S
Li266 O324 1.961 . S
Li266 O326 1.956 . S
Li266 O327 1.970 . S
Li267 N317 1.990 . S
Li267 O325 1.961 . S
Li267 O326 1.970 . S
Li267 O327 1.956 . S
C268 C270 1.348 . S
C268 C271 1.356 . S
C268 O324 1.325 1_545 S
N269 C272 1.314 . S
N269 C273 1.279 . S
C270 C268 1.348 . S
C270 C272 1.353 . S
C270 H328 0.929 . S
C271 C268 1.356 . S
C271 C273 1.358 . S
C271 H329 0.930 1_545 S
C272 N269 1.314 . S
C272 C270 1.353 . S
C272 H330 0.930 . S
C273 N269 1.279 . S
C273 C271 1.358 . S
C273 H331 0.930 . S
C274 C277 1.348 . S
C274 C278 1.356 . S
C274 O325 1.325 . S
C275 N276 1.250 1_565 S
C275 C278 1.358 1_554 S
C275 H332 0.930 . S
N276 C275 1.250 1_545 S
N276 C279 1.332 . S
C277 C274 1.348 . S
C277 C279 1.353 1_566 S
C277 H333 0.929 . S
C278 C274 1.356 . S
C278 C275 1.358 1_556 S
C278 H334 0.930 . S
C279 N276 1.332 . S
C279 C277 1.353 1_544 S
C279 H335 0.930 . S
C280 N281 1.314 . S
C280 C285 1.353 . S
C280 H286 0.930 . S
N281 Li264 1.990 . S
N281 C280 1.314 . S
N281 C283 1.279 . S
C282 C283 1.358 . S
C282 C284 1.356 . S
C282 H336 0.930 1_565 S
C283 N281 1.279 . S
C283 C282 1.358 . S
C283 H287 0.930 1_565 S
C284 C282 1.356 . S
C284 C285 1.348 . S
C285 C280 1.353 . S
C285 C284 1.348 . S
C285 H337 0.929 . S
H286 C280 0.930 . S
H287 C283 0.930 1_545 S
C288 N289 1.314 . S
C288 C290 1.353 . S
C288 H294 0.930 . S
N289 Li265 1.990 1_545 S
N289 C288 1.314 . S
N289 C292 1.279 . S
C290 C288 1.353 . S
C290 C293 1.348 . S
C290 H338 0.929 . S
C291 C292 1.358 . S
C291 C293 1.356 . S
C291 H339 0.930 . S
C292 N289 1.279 . S
C292 C291 1.358 . S
C292 H295 0.930 . S
C293 C290 1.348 . S
C293 C291 1.356 . S
H294 C288 0.930 . S
H295 C292 0.930 . S
C296 C298 1.348 . S
C296 C299 1.356 . S
C296 O326 1.325 . S
N297 C300 1.314 . S
N297 C301 1.279 . S
C298 C296 1.348 . S
C298 C300 1.353 . S
C298 H340 0.929 . S
C299 C296 1.356 . S
C299 C301 1.358 . S
C299 H341 0.930 . S
C300 N297 1.314 . S
C300 C298 1.353 . S
C300 H342 0.930 . S
C301 N297 1.279 . S
C301 C299 1.358 . S
C301 H343 0.930 . S
C302 C303 1.348 . S
C302 C304 1.356 . S
C302 O327 1.325 . S
C303 C302 1.348 . S
C303 C305 1.353 . S
C303 H344 0.929 . S
C304 C302 1.356 . S
C304 C306 1.358 . S
C304 H345 0.930 . S
C305 C303 1.353 . S
C305 N307 1.314 . S
C305 H346 0.930 . S
C306 C304 1.358 . S
C306 N307 1.279 . S
C306 H347 0.930 . S
N307 C305 1.314 . S
N307 C306 1.279 . S
C308 C310 1.353 . S
C308 N311 1.314 . S
C308 H314 0.930 . S
C309 N311 1.279 . S
C309 C312 1.358 . S
C309 H315 0.930 . S
C310 C308 1.353 . S
C310 C313 1.348 . S
C310 H348 0.929 . S
N311 Li266 1.990 . S
N311 C308 1.314 . S
N311 C309 1.279 . S
C312 C309 1.358 . S
C312 C313 1.356 . S
C312 H349 0.930 . S
C313 C310 1.348 . S
C313 C312 1.356 . S
H314 C308 0.930 . S
H315 C309 0.930 . S
C316 N317 1.314 . S
C316 C318 1.350 1_556 S
C316 H322 0.930 . S
N317 Li267 1.990 . S
N317 C316 1.314 . S
N317 C320 1.279 . S
C318 C316 1.350 1_554 S
C318 C321 1.346 1_554 S
C318 H350 0.934 . S
C319 C320 1.358 . S
C319 C321 1.356 . S
C319 H351 0.930 . S
C320 N317 1.279 . S
C320 C319 1.358 . S
C320 H323 0.930 . S
C321 C318 1.346 1_556 S
C321 C319 1.356 . S
H322 C316 0.930 . S
H323 C320 0.930 . S
O324 Li264 1.956 . S
O324 Li265 1.970 . S
O324 Li266 1.961 . S
O324 C268 1.325 1_565 S
O325 Li264 1.970 . S
O325 Li265 1.956 . S
O325 Li267 1.961 . S
O325 C274 1.325 . S
O326 Li264 1.961 . S
O326 Li266 1.956 . S
O326 Li267 1.970 . S
O326 C296 1.325 . S
O327 Li265 1.961 . S
O327 Li266 1.970 . S
O327 Li267 1.956 . S
O327 C302 1.325 . S
H328 C270 0.929 . S
H329 C271 0.930 1_565 S
H330 C272 0.930 . S
H331 C273 0.930 . S
H332 C275 0.930 . S
H333 C277 0.929 . S
H334 C278 0.930 . S
H335 C279 0.930 . S
H336 C282 0.930 1_545 S
H337 C285 0.929 . S
H338 C290 0.929 . S
H339 C291 0.930 . S
H340 C298 0.929 . S
H341 C299 0.930 . S
H342 C300 0.930 . S
H343 C301 0.930 . S
H344 C303 0.929 . S
H345 C304 0.930 . S
H346 C305 0.930 . S
H347 C306 0.930 . S
H348 C310 0.929 . S
H349 C312 0.930 . S
H350 C318 0.934 . S
H351 C319 0.930 . S
Li352 N369 1.990 . S
Li352 O412 1.956 . S
Li352 O413 1.970 . S
Li352 O414 1.961 . S
Li353 N377 1.990 . S
Li353 O412 1.970 . S
Li353 O413 1.956 . S
Li353 O415 1.961 . S
Li354 N399 1.990 . S
Li354 O412 1.961 . S
Li354 O414 1.956 . S
Li354 O415 1.970 . S
Li355 N405 2.035 . S
Li355 O413 1.943 1_655 S
Li355 O414 1.951 1_655 S
Li355 O415 1.924 1_655 S
C356 C358 1.348 . S
C356 C359 1.356 . S
C356 O412 1.325 . S
N357 C360 1.314 . S
N357 C361 1.279 . S
C358 C356 1.348 . S
C358 C360 1.353 . S
C358 H416 0.929 . S
C359 C356 1.356 . S
C359 C361 1.358 . S
C359 H417 0.930 . S
C360 N357 1.314 . S
C360 C358 1.353 . S
C360 H418 0.930 . S
C361 N357 1.279 . S
C361 C359 1.358 . S
C361 H419 0.930 . S
C362 C365 1.348 . S
C362 C366 1.356 . S
C362 O413 1.325 . S
C363 N364 1.279 . S
C363 C366 1.358 . S
C363 H420 0.930 . S
N364 C363 1.279 . S
N364 C367 1.314 . S
C365 C362 1.348 . S
C365 C367 1.353 . S
C365 H421 0.929 . S
C366 C362 1.356 . S
C366 C363 1.358 . S
C366 H422 0.930 . S
C367 N364 1.314 . S
C367 C365 1.353 . S
C367 H423 0.930 . S
C368 N369 1.314 . S
C368 C373 1.353 . S
C368 H374 0.930 . S
N369 Li352 1.990 . S
N369 C368 1.314 . S
N369 C371 1.279 . S
C370 C371 1.358 . S
C370 C372 1.356 . S
C370 H424 0.930 . S
C371 N369 1.279 . S
C371 C370 1.358 . S
C371 H375 0.930 . S
C372 C370 1.356 . S
C372 C373 1.348 . S
C373 C368 1.353 . S
C373 C372 1.348 . S
C373 H425 0.929 . S
H374 C368 0.930 . S
H375 C371 0.930 . S
C376 N377 1.314 . S
C376 C378 1.365 . S
C376 H382 0.930 . S
N377 Li353 1.990 . S
N377 C376 1.314 . S
N377 C380 1.279 . S
C378 C376 1.365 . S
C378 C381 1.352 . S
C378 H426 0.913 1_556 S
C379 C380 1.358 . S
C379 C381 1.356 . S
C379 H427 0.930 . S
C380 N377 1.279 . S
C380 C379 1.358 . S
C380 H383 0.930 . S
C381 C378 1.352 . S
C381 C379 1.356 . S
H382 C376 0.930 . S
H383 C380 0.930 . S
C384 C386 1.348 . S
C384 C387 1.356 . S
C384 O414 1.325 1_655 S
N385 C388 1.314 . S
N385 C389 1.279 . S
C386 C384 1.348 . S
C386 C388 1.353 . S
C386 H428 0.929 . S
C387 C384 1.356 . S
C387 C389 1.358 . S
C387 H429 0.930 1_655 S
C388 N385 1.314 . S
C388 C386 1.353 . S
C388 H430 0.930 . S
C389 N385 1.279 . S
C389 C387 1.358 . S
C389 H431 0.930 . S
C390 C391 1.348 . S
C390 C392 1.356 . S
C390 O415 1.325 . S
C391 C390 1.348 . S
C391 C393 1.353 1_456 S
C391 H432 0.929 . S
C392 C390 1.356 . S
C392 C394 1.358 1_556 S
C392 H433 0.930 . S
C393 C391 1.353 1_654 S
C393 N395 1.314 . S
C393 H434 0.930 . S
C394 C392 1.358 1_554 S
C394 N395 1.279 1_455 S
C394 H435 0.930 . S
N395 C393 1.314 . S
N395 C394 1.279 1_655 S
C396 C398 1.353 . S
C396 N399 1.314 . S
C396 H402 0.930 . S
C397 N399 1.279 . S
C397 C400 1.358 . S
C397 H403 0.930 1_455 S
C398 C396 1.353 . S
C398 C401 1.348 . S
C398 H436 0.929 . S
N399 Li354 1.990 . S
N399 C396 1.314 . S
N399 C397 1.279 . S
C400 C397 1.358 . S
C400 C401 1.356 . S
C400 H437 0.930 1_455 S
C401 C398 1.348 . S
C401 C400 1.356 . S
H402 C396 0.930 . S
H403 C397 0.930 1_655 S
C404 N405 1.314 . S
C404 C406 1.353 . S
C404 H410 0.930 . S
N405 Li355 2.035 . S
N405 C404 1.314 . S
N405 C408 1.279 . S
C406 C404 1.353 . S
C406 C409 1.348 . S
C406 H438 0.929 . S
C407 C408 1.358 . S
C407 C409 1.356 . S
C407 H439 0.930 . S
C408 N405 1.279 . S
C408 C407 1.358 . S
C408 H411 0.930 . S
C409 C406 1.348 . S
C409 C407 1.356 . S
H410 C404 0.930 . S
H411 C408 0.930 . S
O412 Li352 1.956 . S
O412 Li353 1.970 . S
O412 Li354 1.961 . S
O412 C356 1.325 . S
O413 Li352 1.970 . S
O413 Li353 1.956 . S
O413 Li355 1.943 1_455 S
O413 C362 1.325 . S
O414 Li352 1.961 . S
O414 Li354 1.956 . S
O414 Li355 1.951 1_455 S
O414 C384 1.325 1_455 S
O415 Li353 1.961 . S
O415 Li354 1.970 . S
O415 Li355 1.924 1_455 S
O415 C390 1.325 . S
H416 C358 0.929 . S
H417 C359 0.930 . S
H418 C360 0.930 . S
H419 C361 0.930 . S
H420 C363 0.930 . S
H421 C365 0.929 . S
H422 C366 0.930 . S
H423 C367 0.930 . S
H424 C370 0.930 . S
H425 C373 0.929 . S
H426 C378 0.913 1_554 S
H427 C379 0.930 . S
H428 C386 0.929 . S
H429 C387 0.930 1_455 S
H430 C388 0.930 . S
H431 C389 0.930 . S
H432 C391 0.929 . S
H433 C392 0.930 . S
H434 C393 0.930 . S
H435 C394 0.930 . S
H436 C398 0.929 . S
H437 C400 0.930 1_655 S
H438 C406 0.929 . S
H439 C407 0.930 . S
Li440 N457 1.990 . S
Li440 O500 1.956 . S
Li440 O501 1.970 . S
Li440 O502 1.961 . S
Li441 N465 1.990 . S
Li441 O500 1.970 . S
Li441 O501 1.956 . S
Li441 O503 1.961 . S
Li442 N487 1.990 . S
Li442 O500 1.961 . S
Li442 O502 1.956 . S
Li442 O503 1.970 . S
Li443 N493 1.990 . S
Li443 O501 1.961 . S
Li443 O502 1.970 . S
Li443 O503 1.956 . S
C444 C446 1.348 . S
C444 C447 1.356 . S
C444 O500 1.325 . S
N445 C448 1.314 . S
N445 C449 1.279 . S
C446 C444 1.348 . S
C446 C448 1.353 1_556 S
C446 H504 0.929 . S
C447 C444 1.356 . S
C447 C449 1.358 1_556 S
C447 H505 0.930 . S
C448 N445 1.314 . S
C448 C446 1.353 1_554 S
C448 H506 0.930 . S
C449 N445 1.279 . S
C449 C447 1.358 1_554 S
C449 H507 0.930 . S
C450 C453 1.348 . S
C450 C454 1.356 . S
C450 O501 1.325 . S
C451 N452 1.279 . S
C451 C454 1.358 . S
C451 H508 0.930 . S
N452 C451 1.279 . S
N452 C455 1.314 . S
C453 C450 1.348 . S
C453 C455 1.353 . S
C453 H509 0.929 . S
C454 C450 1.356 . S
C454 C451 1.358 . S
C454 H510 0.930 . S
C455 N452 1.314 . S
C455 C453 1.353 . S
C455 H511 0.930 . S
C456 N457 1.314 . S
C456 C461 1.353 . S
C456 H462 0.930 . S
N457 Li440 1.990 . S
N457 C456 1.314 . S
N457 C459 1.279 . S
C458 C459 1.330 1_554 S
C458 C460 1.338 1_554 S
C458 H512 0.978 . S
C459 N457 1.279 . S
C459 C458 1.330 1_556 S
C459 H463 0.930 . S
C460 C458 1.338 1_556 S
C460 C461 1.348 . S
C461 C456 1.353 . S
C461 C460 1.348 . S
C461 H513 0.929 . S
H462 C456 0.930 . S
H463 C459 0.930 . S
C464 N465 1.314 . S
C464 C466 1.353 . S
C464 H470 0.930 . S
N465 Li441 1.990 . S
N465 C464 1.314 . S
N465 C468 1.279 . S
C466 C464 1.353 . S
C466 C469 1.348 . S
C466 H514 0.929 . S
C467 C468 1.358 . S
C467 C469 1.356 . S
C467 H515 0.930 . S
C468 N465 1.279 . S
C468 C467 1.358 . S
C468 H471 0.930 . S
C469 C466 1.348 . S
C469 C467 1.356 . S
H470 C464 0.930 . S
H471 C468 0.930 . S
C472 C474 1.348 . S
C472 C475 1.356 . S
C472 O502 1.325 . S
N473 C476 1.314 . S
N473 C477 1.279 . S
C474 C472 1.348 . S
C474 C476 1.353 . S
C474 H516 0.929 . S
C475 C472 1.356 . S
C475 C477 1.358 . S
C475 H517 0.930 . S
C476 N473 1.314 . S
C476 C474 1.353 . S
C476 H518 0.930 . S
C477 N473 1.279 . S
C477 C475 1.358 . S
C477 H519 0.930 . S
C478 C479 1.348 . S
C478 C480 1.356 . S
C478 O503 1.325 . S
C479 C478 1.348 . S
C479 C481 1.353 . S
C479 H520 0.929 . S
C480 C478 1.356 . S
C480 C482 1.358 . S
C480 H521 0.930 . S
C481 C479 1.353 . S
C481 N483 1.314 . S
C481 H522 0.930 . S
C482 C480 1.358 . S
C482 N483 1.279 . S
C482 H523 0.930 . S
N483 C481 1.314 . S
N483 C482 1.279 . S
C484 C486 1.353 . S
C484 N487 1.314 . S
C484 H490 0.930 . S
C485 N487 1.279 . S
C485 C488 1.358 . S
C485 H491 0.930 . S
C486 C484 1.353 . S
C486 C489 1.348 . S
C486 H524 0.929 . S
N487 Li442 1.990 . S
N487 C484 1.314 . S
N487 C485 1.279 . S
C488 C485 1.358 . S
C488 C489 1.356 . S
C488 H525 0.930 . S
C489 C486 1.348 . S
C489 C488 1.356 . S
H490 C484 0.930 . S
H491 C485 0.930 . S
C492 N493 1.314 . S
C492 C494 1.353 . S
C492 H498 0.930 . S
N493 Li443 1.990 . S
N493 C492 1.314 . S
N493 C496 1.279 . S
C494 C492 1.353 . S
C494 C497 1.348 . S
C494 H526 0.929 . S
C495 C496 1.358 . S
C495 C497 1.356 . S
C495 H527 0.930 . S
C496 N493 1.279 . S
C496 C495 1.358 . S
C496 H499 0.930 . S
C497 C494 1.348 . S
C497 C495 1.356 . S
H498 C492 0.930 . S
H499 C496 0.930 . S
O500 Li440 1.956 . S
O500 Li441 1.970 . S
O500 Li442 1.961 . S
O500 C444 1.325 . S
O501 Li440 1.970 . S
O501 Li441 1.956 . S
O501 Li443 1.961 . S
O501 C450 1.325 . S
O502 Li440 1.961 . S
O502 Li442 1.956 . S
O502 Li443 1.970 . S
O502 C472 1.325 . S
O503 Li441 1.961 . S
O503 Li442 1.970 . S
O503 Li443 1.956 . S
O503 C478 1.325 . S
H504 C446 0.929 . S
H505 C447 0.930 . S
H506 C448 0.930 . S
H507 C449 0.930 . S
H508 C451 0.930 . S
H509 C453 0.929 . S
H510 C454 0.930 . S
H511 C455 0.930 . S
H512 C458 0.978 . S
H513 C461 0.929 . S
H514 C466 0.929 . S
H515 C467 0.930 . S
H516 C474 0.929 . S
H517 C475 0.930 . S
H518 C476 0.930 . S
H519 C477 0.930 . S
H520 C479 0.929 . S
H521 C480 0.930 . S
H522 C481 0.930 . S
H523 C482 0.930 . S
H524 C486 0.929 . S
H525 C488 0.930 . S
H526 C494 0.929 . S
H527 C495 0.930 . S
Li528 N545 1.981 . S
Li528 O588 1.974 . S
Li528 O589 1.957 1_455 S
Li528 O590 1.971 1_455 S
Li529 N553 1.998 . S
Li529 O588 1.948 1_655 S
Li529 O589 1.988 . S
Li529 O591 1.938 1_655 S
Li530 N575 1.990 . S
Li530 O588 1.961 . S
Li530 O590 1.956 1_455 S
Li530 O591 1.970 . S
Li531 N581 1.990 . S
Li531 O589 1.961 . S
Li531 O590 1.970 . S
Li531 O591 1.956 1_655 S
C532 C534 1.348 . S
C532 C535 1.356 . S
C532 O588 1.325 . S
N533 C536 1.314 . S
N533 C537 1.279 . S
C534 C532 1.348 . S
C534 C536 1.353 . S
C534 H592 0.929 . S
C535 C532 1.356 . S
C535 C537 1.358 . S
C535 H593 0.930 . S
C536 N533 1.314 . S
C536 C534 1.353 . S
C536 H594 0.930 . S
C537 N533 1.279 . S
C537 C535 1.358 . S
C537 H595 0.930 . S
C538 C541 1.348 . S
C538 C542 1.356 . S
C538 O589 1.325 . S
C539 N540 1.279 . S
C539 C542 1.358 . S
C539 H596 0.930 . S
N540 C539 1.279 . S
N540 C543 1.314 . S
C541 C538 1.348 . S
C541 C543 1.353 . S
C541 H597 0.929 . S
C542 C538 1.356 . S
C542 C539 1.358 . S
C542 H598 0.930 . S
C543 N540 1.314 . S
C543 C541 1.353 . S
C543 H599 0.930 . S
C544 N545 1.314 1_655 S
C544 C549 1.353 . S
C544 H550 0.930 . S
N545 Li528 1.981 . S
N545 C544 1.314 1_455 S
N545 C547 1.279 . S
C546 C547 1.358 . S
C546 C548 1.356 1_455 S
C546 H600 0.930 . S
C547 N545 1.279 . S
C547 C546 1.358 . S
C547 H551 0.930 . S
C548 C546 1.356 1_655 S
C548 C549 1.348 . S
C549 C544 1.353 . S
C549 C548 1.348 . S
C549 H601 0.929 . S
H550 C544 0.930 . S
H551 C547 0.930 . S
C552 N553 1.314 1_455 S
C552 C554 1.353 . S
C552 H558 0.930 . S
N553 Li529 1.998 . S
N553 C552 1.314 1_655 S
N553 C556 1.279 . S
C554 C552 1.353 . S
C554 C557 1.348 . S
C554 H602 0.929 . S
C555 C556 1.358 . S
C555 C557 1.356 1_655 S
C555 H603 0.930 . S
C556 N553 1.279 . S
C556 C555 1.358 . S
C556 H559 0.930 . S
C557 C554 1.348 . S
C557 C555 1.356 1_455 S
H558 C552 0.930 . S
H559 C556 0.930 . S
C560 C562 1.349 . S
C560 C563 1.350 1_655 S
C560 O590 1.328 . S
N561 C564 1.314 1_455 S
N561 C565 1.279 . S
C562 C560 1.349 . S
C562 C564 1.353 . S
C562 H604 0.929 . S
C563 C560 1.350 1_455 S
C563 C565 1.358 . S
C563 H605 0.930 . S
C564 N561 1.314 1_655 S
C564 C562 1.353 . S
C564 H606 0.930 . S
C565 N561 1.279 . S
C565 C563 1.358 . S
C565 H607 0.930 . S
C566 C567 1.348 . S
C566 C568 1.356 1_455 S
C566 O591 1.325 . S
C567 C566 1.348 . S
C567 C569 1.353 . S
C567 H608 0.929 . S
C568 C566 1.356 1_655 S
C568 C570 1.358 . S
C568 H609 0.930 . S
C569 C567 1.353 . S
C569 N571 1.308 1_455 S
C569 H610 0.930 . S
C570 C568 1.358 . S
C570 N571 1.292 . S
C570 H611 0.930 . S
N571 C569 1.308 1_655 S
N571 C570 1.292 . S
C572 C574 1.353 . S
C572 N575 1.314 . S
C572 H578 0.930 . S
C573 N575 1.279 . S
C573 C576 1.358 . S
C573 H579 0.930 . S
C574 C572 1.353 . S
C574 C577 1.348 . S
C574 H612 0.929 . S
N575 Li530 1.990 . S
N575 C572 1.314 . S
N575 C573 1.279 . S
C576 C573 1.358 . S
C576 C577 1.356 . S
C576 H613 0.930 . S
C577 C574 1.348 . S
C577 C576 1.356 . S
H578 C572 0.930 . S
H579 C573 0.930 . S
C580 N581 1.314 . S
C580 C582 1.353 . S
C580 H586 0.930 . S
N581 Li531 1.990 . S
N581 C580 1.314 . S
N581 C584 1.279 . S
C582 C580 1.353 . S
C582 C585 1.348 . S
C582 H614 0.929 . S
C583 C584 1.358 . S
C583 C585 1.356 . S
C583 H615 0.930 . S
C584 N581 1.279 . S
C584 C583 1.358 . S
C584 H587 0.930 . S
C585 C582 1.348 . S
C585 C583 1.356 . S
H586 C580 0.930 . S
H587 C584 0.930 . S
O588 Li528 1.974 . S
O588 Li529 1.948 1_455 S
O588 Li530 1.961 . S
O588 C532 1.325 . S
O589 Li528 1.957 1_655 S
O589 Li529 1.988 . S
O589 Li531 1.961 . S
O589 C538 1.325 . S
O590 Li528 1.971 1_655 S
O590 Li530 1.956 1_655 S
O590 Li531 1.970 . S
O590 C560 1.328 . S
O591 Li529 1.938 1_455 S
O591 Li530 1.970 . S
O591 Li531 1.956 1_455 S
O591 C566 1.325 . S
H592 C534 0.929 . S
H593 C535 0.930 . S
H594 C536 0.930 . S
H595 C537 0.930 . S
H596 C539 0.930 . S
H597 C541 0.929 . S
H598 C542 0.930 . S
H599 C543 0.930 . S
H600 C546 0.930 . S
H601 C549 0.929 . S
H602 C554 0.929 . S
H603 C555 0.930 . S
H604 C562 0.929 . S
H605 C563 0.930 . S
H606 C564 0.930 . S
H607 C565 0.930 . S
H608 C567 0.929 . S
H609 C568 0.930 . S
H610 C569 0.930 . S
H611 C570 0.930 . S
H612 C574 0.929 . S
H613 C576 0.930 . S
H614 C582 0.929 . S
H615 C583 0.930 . S
Li616 N633 1.990 . S
Li616 O676 1.956 . S
Li616 O677 1.970 . S
Li616 O678 1.961 . S
Li617 N641 1.990 . S
Li617 O676 1.970 . S
Li617 O677 1.956 . S
Li617 O679 1.961 . S
Li618 N663 1.990 . S
Li618 O676 1.961 . S
Li618 O678 1.956 . S
Li618 O679 1.970 . S
Li619 N669 1.990 . S
Li619 O677 1.961 . S
Li619 O678 1.970 . S
Li619 O679 1.956 . S
C620 C622 1.348 . S
C620 C623 1.356 . S
C620 O676 1.325 . S
N621 C624 1.314 . S
N621 C625 1.279 . S
C622 C620 1.348 . S
C622 C624 1.353 . S
C622 H680 0.929 . S
C623 C620 1.356 . S
C623 C625 1.358 . S
C623 H681 0.930 . S
C624 N621 1.314 . S
C624 C622 1.353 . S
C624 H682 0.930 . S
C625 N621 1.279 . S
C625 C623 1.358 . S
C625 H683 0.930 . S
C626 C629 1.348 . S
C626 C630 1.356 . S
C626 O677 1.325 . S
C627 N628 1.279 . S
C627 C630 1.358 . S
C627 H684 0.930 . S
N628 C627 1.279 . S
N628 C631 1.314 . S
C629 C626 1.348 . S
C629 C631 1.353 . S
C629 H685 0.929 . S
C630 C626 1.356 . S
C630 C627 1.358 . S
C630 H686 0.930 . S
C631 N628 1.314 . S
C631 C629 1.353 . S
C631 H687 0.930 . S
C632 N633 1.314 . S
C632 C637 1.353 . S
C632 H638 0.930 . S
N633 Li616 1.990 . S
N633 C632 1.314 . S
N633 C635 1.279 . S
C634 C635 1.358 . S
C634 C636 1.356 . S
C634 H688 0.930 . S
C635 N633 1.279 . S
C635 C634 1.358 . S
C635 H639 0.930 . S
C636 C634 1.356 . S
C636 C637 1.348 . S
C637 C632 1.353 . S
C637 C636 1.348 . S
C637 H689 0.929 . S
H638 C632 0.930 . S
H639 C635 0.930 . S
C640 N641 1.314 . S
C640 C642 1.353 . S
C640 H646 0.930 . S
N641 Li617 1.990 . S
N641 C640 1.314 . S
N641 C644 1.279 . S
C642 C640 1.353 . S
C642 C645 1.348 . S
C642 H690 0.929 . S
C643 C644 1.358 . S
C643 C645 1.356 . S
C643 H691 0.930 . S
C644 N641 1.279 . S
C644 C643 1.358 . S
C644 H647 0.930 . S
C645 C642 1.348 . S
C645 C643 1.356 . S
H646 C640 0.930 . S
H647 C644 0.930 . S
C648 C650 1.348 . S
C648 C651 1.356 . S
C648 O678 1.325 . S
N649 C652 1.314 . S
N649 C653 1.279 . S
C650 C648 1.348 . S
C650 C652 1.353 . S
C650 H692 0.929 . S
C651 C648 1.356 . S
C651 C653 1.358 . S
C651 H693 0.930 . S
C652 N649 1.314 . S
C652 C650 1.353 . S
C652 H694 0.930 . S
C653 N649 1.279 . S
C653 C651 1.358 . S
C653 H695 0.930 . S
C654 C655 1.348 . S
C654 C656 1.356 . S
C654 O679 1.325 . S
C655 C654 1.348 . S
C655 C657 1.353 . S
C655 H696 0.929 . S
C656 C654 1.356 . S
C656 C658 1.358 . S
C656 H697 0.930 . S
C657 C655 1.353 . S
C657 N659 1.314 . S
C657 H698 0.930 . S
C658 C656 1.358 . S
C658 N659 1.279 . S
C658 H699 0.930 . S
N659 C657 1.314 . S
N659 C658 1.279 . S
C660 C662 1.353 . S
C660 N663 1.314 . S
C660 H666 0.930 . S
C661 N663 1.279 . S
C661 C664 1.358 . S
C661 H667 0.930 . S
C662 C660 1.353 . S
C662 C665 1.348 . S
C662 H700 0.929 . S
N663 Li618 1.990 . S
N663 C660 1.314 . S
N663 C661 1.279 . S
C664 C661 1.358 . S
C664 C665 1.356 . S
C664 H701 0.930 . S
C665 C662 1.348 . S
C665 C664 1.356 . S
H666 C660 0.930 . S
H667 C661 0.930 . S
C668 N669 1.314 . S
C668 C670 1.353 . S
C668 H674 0.930 . S
N669 Li619 1.990 . S
N669 C668 1.314 . S
N669 C672 1.279 . S
C670 C668 1.353 . S
C670 C673 1.348 . S
C670 H702 0.929 . S
C671 C672 1.358 . S
C671 C673 1.356 . S
C671 H703 0.930 . S
C672 N669 1.279 . S
C672 C671 1.358 . S
C672 H675 0.930 . S
C673 C670 1.348 . S
C673 C671 1.356 . S
H674 C668 0.930 . S
H675 C672 0.930 . S
O676 Li616 1.956 . S
O676 Li617 1.970 . S
O676 Li618 1.961 . S
O676 C620 1.325 . S
O677 Li616 1.970 . S
O677 Li617 1.956 . S
O677 Li619 1.961 . S
O677 C626 1.325 . S
O678 Li616 1.961 . S
O678 Li618 1.956 . S
O678 Li619 1.970 . S
O678 C648 1.325 . S
O679 Li617 1.961 . S
O679 Li618 1.970 . S
O679 Li619 1.956 . S
O679 C654 1.325 . S
H680 C622 0.929 . S
H681 C623 0.930 . S
H682 C624 0.930 . S
H683 C625 0.930 . S
H684 C627 0.930 . S
H685 C629 0.929 . S
H686 C630 0.930 . S
H687 C631 0.930 . S
H688 C634 0.930 . S
H689 C637 0.929 . S
H690 C642 0.929 . S
H691 C643 0.930 . S
H692 C650 0.929 . S
H693 C651 0.930 . S
H694 C652 0.930 . S
H695 C653 0.930 . S
H696 C655 0.929 . S
H697 C656 0.930 . S
H698 C657 0.930 . S
H699 C658 0.930 . S
H700 C662 0.929 . S
H701 C664 0.930 . S
H702 C670 0.929 . S
H703 C671 0.930 . S
Li704 N721 1.990 . S
Li704 O764 1.956 . S
Li704 O765 1.957 1_545 S
Li704 O766 1.958 . S
Li705 N729 1.990 . S
Li705 O764 1.970 1_565 S
Li705 O765 1.971 . S
Li705 O767 1.961 . S
Li706 N751 1.990 . S
Li706 O764 1.961 . S
Li706 O766 1.958 . S
Li706 O767 1.970 1_545 S
Li707 N757 1.990 . S
Li707 O765 1.984 . S
Li707 O766 1.972 1_565 S
Li707 O767 1.956 . S
C708 C710 1.348 . S
C708 C711 1.356 . S
C708 O764 1.325 . S
N709 C712 1.314 . S
N709 C713 1.279 . S
C710 C708 1.348 . S
C710 C712 1.353 . S
C710 H768 0.929 . S
C711 C708 1.356 . S
C711 C713 1.358 . S
C711 H769 0.930 . S
C712 N709 1.314 . S
C712 C710 1.353 . S
C712 H770 0.930 . S
C713 N709 1.279 . S
C713 C711 1.358 . S
C713 H771 0.930 . S
C714 C717 1.348 1_565 S
C714 C718 1.356 . S
C714 O765 1.314 . S
C715 N716 1.279 . S
C715 C718 1.358 . S
C715 H772 0.930 . S
N716 C715 1.279 . S
N716 C719 1.314 1_565 S
C717 C714 1.348 1_545 S
C717 C719 1.353 . S
C717 H773 0.929 . S
C718 C714 1.356 . S
C718 C715 1.358 . S
C718 H774 0.930 . S
C719 N716 1.314 1_545 S
C719 C717 1.353 . S
C719 H775 0.930 . S
C720 N721 1.314 . S
C720 C725 1.353 . S
C720 H726 0.930 . S
N721 Li704 1.990 . S
N721 C720 1.314 . S
N721 C723 1.279 . S
C722 C723 1.358 . S
C722 C724 1.356 . S
C722 H776 0.930 . S
C723 N721 1.279 . S
C723 C722 1.358 . S
C723 H727 0.930 . S
C724 C722 1.356 . S
C724 C725 1.348 . S
C725 C720 1.353 . S
C725 C724 1.348 . S
C725 H777 0.929 . S
H726 C720 0.930 . S
H727 C723 0.930 . S
C728 N729 1.314 . S
C728 C730 1.353 . S
C728 H734 0.930 . S
N729 Li705 1.990 . S
N729 C728 1.314 . S
N729 C732 1.279 1_565 S
C730 C728 1.353 . S
C730 C733 1.348 . S
C730 H778 0.929 . S
C731 C732 1.358 . S
C731 C733 1.356 1_545 S
C731 H779 0.930 . S
C732 N729 1.279 1_545 S
C732 C731 1.358 . S
C732 H735 0.930 . S
C733 C730 1.348 . S
C733 C731 1.356 1_565 S
H734 C728 0.930 . S
H735 C732 0.930 . S
C736 C738 1.326 1_545 S
C736 C739 1.382 . S
C736 O766 1.320 . S
N737 C740 1.314 1_545 S
N737 C741 1.279 . S
C738 C736 1.326 1_565 S
C738 C740 1.353 . S
C738 H780 0.929 . S
C739 C736 1.382 . S
C739 C741 1.358 . S
C739 H781 0.930 . S
C740 N737 1.314 1_565 S
C740 C738 1.353 . S
C740 H782 0.930 . S
C741 N737 1.279 . S
C741 C739 1.358 . S
C741 H783 0.930 . S
C742 C743 1.348 . S
C742 C744 1.356 . S
C742 O767 1.325 . S
C743 C742 1.348 . S
C743 C745 1.353 . S
C743 H784 0.929 . S
C744 C742 1.356 . S
C744 C746 1.358 . S
C744 H785 0.930 . S
C745 C743 1.353 . S
C745 N747 1.314 . S
C745 H786 0.930 . S
C746 C744 1.358 . S
C746 N747 1.279 . S
C746 H787 0.930 . S
N747 C745 1.314 . S
N747 C746 1.279 . S
C748 C750 1.353 . S
C748 N751 1.314 . S
C748 H754 0.930 . S
C749 N751 1.279 1_565 S
C749 C752 1.358 . S
C749 H755 0.930 . S
C750 C748 1.353 . S
C750 C753 1.348 . S
C750 H788 0.929 . S
N751 Li706 1.990 . S
N751 C748 1.314 . S
N751 C749 1.279 1_545 S
C752 C749 1.358 . S
C752 C753 1.356 1_565 S
C752 H789 0.930 . S
C753 C750 1.348 . S
C753 C752 1.356 1_545 S
H754 C748 0.930 . S
H755 C749 0.930 . S
C756 N757 1.314 . S
C756 C758 1.353 . S
C756 H762 0.930 . S
N757 Li707 1.990 . S
N757 C756 1.314 . S
N757 C760 1.279 . S
C758 C756 1.353 . S
C758 C761 1.348 . S
C758 H790 0.929 . S
C759 C760 1.358 . S
C759 C761 1.356 . S
C759 H791 0.930 . S
C760 N757 1.279 . S
C760 C759 1.358 . S
C760 H763 0.930 . S
C761 C758 1.348 . S
C761 C759 1.356 . S
H762 C756 0.930 . S
H763 C760 0.930 . S
O764 Li704 1.956 . S
O764 Li705 1.970 1_545 S
O764 Li706 1.961 . S
O764 C708 1.325 . S
O765 Li704 1.957 1_565 S
O765 Li705 1.971 . S
O765 Li707 1.984 . S
O765 C714 1.314 . S
O766 Li704 1.958 . S
O766 Li706 1.958 . S
O766 Li707 1.972 1_545 S
O766 C736 1.320 . S
O767 Li705 1.961 . S
O767 Li706 1.970 1_565 S
O767 Li707 1.956 . S
O767 C742 1.325 . S
H768 C710 0.929 . S
H769 C711 0.930 . S
H770 C712 0.930 . S
H771 C713 0.930 . S
H772 C715 0.930 . S
H773 C717 0.929 . S
H774 C718 0.930 . S
H775 C719 0.930 . S
H776 C722 0.930 . S
H777 C725 0.929 . S
H778 C730 0.929 . S
H779 C731 0.930 . S
H780 C738 0.929 . S
H781 C739 0.930 . S
H782 C740 0.930 . S
H783 C741 0.930 . S
H784 C743 0.929 . S
H785 C744 0.930 . S
H786 C745 0.930 . S
H787 C746 0.930 . S
H788 C750 0.929 . S
H789 C752 0.930 . S
H790 C758 0.929 . S
H791 C759 0.930 . S
Li792 N809 1.990 . S
Li792 O852 1.956 . S
Li792 O853 1.970 . S
Li792 O854 1.961 . S
Li793 N817 1.990 . S
Li793 O852 1.970 . S
Li793 O853 1.956 . S
Li793 O855 1.961 . S
Li794 N839 1.990 . S
Li794 O852 1.961 . S
Li794 O854 1.956 . S
Li794 O855 1.970 . S
Li795 N845 1.990 . S
Li795 O853 1.961 . S
Li795 O854 1.970 . S
Li795 O855 1.956 . S
C796 C798 1.348 . S
C796 C799 1.356 . S
C796 O852 1.325 . S
N797 C800 1.314 . S
N797 C801 1.279 . S
C798 C796 1.348 . S
C798 C800 1.353 . S
C798 H856 0.929 . S
C799 C796 1.356 . S
C799 C801 1.358 . S
C799 H857 0.930 . S
C800 N797 1.314 . S
C800 C798 1.353 . S
C800 H858 0.930 . S
C801 N797 1.279 . S
C801 C799 1.358 . S
C801 H859 0.930 . S
C802 C805 1.348 . S
C802 C806 1.356 . S
C802 O853 1.325 . S
C803 N804 1.279 . S
C803 C806 1.358 . S
C803 H860 0.930 . S
N804 C803 1.279 . S
N804 C807 1.314 . S
C805 C802 1.348 . S
C805 C807 1.353 . S
C805 H861 0.929 . S
C806 C802 1.356 . S
C806 C803 1.358 . S
C806 H862 0.930 . S
C807 N804 1.314 . S
C807 C805 1.353 . S
C807 H863 0.930 . S
C808 N809 1.314 . S
C808 C813 1.353 . S
C808 H814 0.930 . S
N809 Li792 1.990 . S
N809 C808 1.314 . S
N809 C811 1.279 . S
C810 C811 1.358 . S
C810 C812 1.356 . S
C810 H864 0.930 . S
C811 N809 1.279 . S
C811 C810 1.358 . S
C811 H815 0.930 . S
C812 C810 1.356 . S
C812 C813 1.348 . S
C813 C808 1.353 . S
C813 C812 1.348 . S
C813 H865 0.929 . S
H814 C808 0.930 . S
H815 C811 0.930 . S
C816 N817 1.314 . S
C816 C818 1.353 . S
C816 H822 0.930 . S
N817 Li793 1.990 . S
N817 C816 1.314 . S
N817 C820 1.279 . S
C818 C816 1.353 . S
C818 C821 1.348 . S
C818 H866 0.929 . S
C819 C820 1.358 . S
C819 C821 1.356 . S
C819 H867 0.930 . S
C820 N817 1.279 . S
C820 C819 1.358 . S
C820 H823 0.930 . S
C821 C818 1.348 . S
C821 C819 1.356 . S
H822 C816 0.930 . S
H823 C820 0.930 . S
C824 C826 1.348 . S
C824 C827 1.356 . S
C824 O854 1.325 . S
N825 C828 1.314 . S
N825 C829 1.279 . S
C826 C824 1.348 . S
C826 C828 1.353 . S
C826 H868 0.929 . S
C827 C824 1.356 . S
C827 C829 1.358 . S
C827 H869 0.930 . S
C828 N825 1.314 . S
C828 C826 1.353 . S
C828 H870 0.930 . S
C829 N825 1.279 . S
C829 C827 1.358 . S
C829 H871 0.930 . S
C830 C831 1.348 . S
C830 C832 1.356 . S
C830 O855 1.325 . S
C831 C830 1.348 . S
C831 C833 1.353 . S
C831 H872 0.929 . S
C832 C830 1.356 . S
C832 C834 1.358 . S
C832 H873 0.930 . S
C833 C831 1.353 . S
C833 N835 1.314 . S
C833 H874 0.930 . S
C834 C832 1.358 . S
C834 N835 1.279 . S
C834 H875 0.930 . S
N835 C833 1.314 . S
N835 C834 1.279 . S
C836 C838 1.353 . S
C836 N839 1.314 . S
C836 H842 0.930 . S
C837 N839 1.279 . S
C837 C840 1.358 . S
C837 H843 0.930 . S
C838 C836 1.353 . S
C838 C841 1.348 . S
C838 H876 0.929 . S
N839 Li794 1.990 . S
N839 C836 1.314 . S
N839 C837 1.279 . S
C840 C837 1.358 . S
C840 C841 1.356 . S
C840 H877 0.930 . S
C841 C838 1.348 . S
C841 C840 1.356 . S
H842 C836 0.930 . S
H843 C837 0.930 . S
C844 N845 1.314 . S
C844 C846 1.353 . S
C844 H850 0.930 . S
N845 Li795 1.990 . S
N845 C844 1.314 . S
N845 C848 1.279 . S
C846 C844 1.353 . S
C846 C849 1.348 . S
C846 H878 0.929 . S
C847 C848 1.358 . S
C847 C849 1.356 . S
C847 H879 0.930 . S
C848 N845 1.279 . S
C848 C847 1.358 . S
C848 H851 0.930 . S
C849 C846 1.348 . S
C849 C847 1.356 . S
H850 C844 0.930 . S
H851 C848 0.930 . S
O852 Li792 1.956 . S
O852 Li793 1.970 . S
O852 Li794 1.961 . S
O852 C796 1.325 . S
O853 Li792 1.970 . S
O853 Li793 1.956 . S
O853 Li795 1.961 . S
O853 C802 1.325 . S
O854 Li792 1.961 . S
O854 Li794 1.956 . S
O854 Li795 1.970 . S
O854 C824 1.325 . S
O855 Li793 1.961 . S
O855 Li794 1.970 . S
O855 Li795 1.956 . S
O855 C830 1.325 . S
H856 C798 0.929 . S
H857 C799 0.930 . S
H858 C800 0.930 . S
H859 C801 0.930 . S
H860 C803 0.930 . S
H861 C805 0.929 . S
H862 C806 0.930 . S
H863 C807 0.930 . S
H864 C810 0.930 . S
H865 C813 0.929 . S
H866 C818 0.929 . S
H867 C819 0.930 . S
H868 C826 0.929 . S
H869 C827 0.930 . S
H870 C828 0.930 . S
H871 C829 0.930 . S
H872 C831 0.929 . S
H873 C832 0.930 . S
H874 C833 0.930 . S
H875 C834 0.930 . S
H876 C838 0.929 . S
H877 C840 0.930 . S
H878 C846 0.929 . S
H879 C847 0.930 . S
Li880 N897 1.990 . S
Li880 O940 1.956 . S
Li880 O941 1.970 . S
Li880 O942 1.961 . S
Li881 N905 1.990 . S
Li881 O940 1.970 . S
Li881 O941 1.956 . S
Li881 O943 1.961 . S
Li882 N927 1.990 1_545 S
Li882 O940 1.961 . S
Li882 O942 1.956 . S
Li882 O943 1.970 . S
Li883 N933 1.990 . S
Li883 O941 1.961 . S
Li883 O942 1.970 . S
Li883 O943 1.956 . S
C884 C886 1.348 . S
C884 C887 1.356 . S
C884 O940 1.325 . S
N885 C888 1.314 . S
N885 C889 1.279 . S
C886 C884 1.348 . S
C886 C888 1.353 . S
C886 H944 0.929 . S
C887 C884 1.356 . S
C887 C889 1.358 . S
C887 H945 0.930 . S
C888 N885 1.314 . S
C888 C886 1.353 . S
C888 H946 0.930 . S
C889 N885 1.279 . S
C889 C887 1.358 . S
C889 H947 0.930 . S
C890 C893 1.348 . S
C890 C894 1.356 . S
C890 O941 1.325 . S
C891 N892 1.279 . S
C891 C894 1.358 . S
C891 H948 0.930 . S
N892 C891 1.279 . S
N892 C895 1.314 . S
C893 C890 1.348 . S
C893 C895 1.353 . S
C893 H949 0.929 . S
C894 C890 1.356 . S
C894 C891 1.358 . S
C894 H950 0.930 . S
C895 N892 1.314 . S
C895 C893 1.353 . S
C895 H951 0.930 . S
C896 N897 1.314 . S
C896 C901 1.353 . S
C896 H902 0.930 . S
N897 Li880 1.990 . S
N897 C896 1.314 . S
N897 C899 1.279 . S
C898 C899 1.358 . S
C898 C900 1.356 . S
C898 H952 0.930 . S
C899 N897 1.279 . S
C899 C898 1.358 . S
C899 H903 0.930 . S
C900 C898 1.356 . S
C900 C901 1.348 . S
C901 C896 1.353 . S
C901 C900 1.348 . S
C901 H953 0.929 . S
H902 C896 0.930 . S
H903 C899 0.930 . S
C904 N905 1.314 . S
C904 C906 1.353 . S
C904 H910 0.930 . S
N905 Li881 1.990 . S
N905 C904 1.314 . S
N905 C908 1.279 . S
C906 C904 1.353 . S
C906 C909 1.348 . S
C906 H954 0.929 . S
C907 C908 1.358 . S
C907 C909 1.356 . S
C907 H955 0.930 . S
C908 N905 1.279 . S
C908 C907 1.358 . S
C908 H911 0.930 . S
C909 C906 1.348 . S
C909 C907 1.356 . S
H910 C904 0.930 . S
H911 C908 0.930 . S
C912 C914 1.348 . S
C912 C915 1.356 . S
C912 O942 1.325 1_565 S
N913 C916 1.314 . S
N913 C917 1.279 . S
C914 C912 1.348 . S
C914 C916 1.353 . S
C914 H956 0.929 . S
C915 C912 1.356 . S
C915 C917 1.358 . S
C915 H957 0.930 . S
C916 N913 1.314 . S
C916 C914 1.353 . S
C916 H958 0.930 . S
C917 N913 1.279 . S
C917 C915 1.358 . S
C917 H959 0.930 . S
C918 C919 1.348 1_545 S
C918 C920 1.356 . S
C918 O943 1.325 . S
C919 C918 1.348 1_565 S
C919 C921 1.353 . S
C919 H960 0.929 . S
C920 C918 1.356 . S
C920 C922 1.358 . S
C920 H961 0.930 . S
C921 C919 1.353 . S
C921 N923 1.314 1_565 S
C921 H962 0.930 . S
C922 C920 1.358 . S
C922 N923 1.279 . S
C922 H963 0.930 . S
N923 C921 1.314 1_545 S
N923 C922 1.279 . S
C924 C926 1.353 . S
C924 N927 1.314 . S
C924 H930 0.930 . S
C925 N927 1.279 . S
C925 C928 1.358 . S
C925 H931 0.930 . S
C926 C924 1.353 . S
C926 C929 1.348 . S
C926 H964 0.929 . S
N927 Li882 1.990 1_565 S
N927 C924 1.314 . S
N927 C925 1.279 . S
C928 C925 1.358 . S
C928 C929 1.356 . S
C928 H965 0.930 . S
C929 C926 1.348 . S
C929 C928 1.356 . S
H930 C924 0.930 . S
H931 C925 0.930 . S
C932 N933 1.314 . S
C932 C934 1.353 . S
C932 H938 0.930 . S
N933 Li883 1.990 . S
N933 C932 1.314 . S
N933 C936 1.279 . S
C934 C932 1.353 . S
C934 C937 1.348 . S
C934 H966 0.929 . S
C935 C936 1.358 . S
C935 C937 1.356 . S
C935 H967 0.930 . S
C936 N933 1.279 . S
C936 C935 1.358 . S
C936 H939 0.930 . S
C937 C934 1.348 . S
C937 C935 1.356 . S
H938 C932 0.930 . S
H939 C936 0.930 . S
O940 Li880 1.956 . S
O940 Li881 1.970 . S
O940 Li882 1.961 . S
O940 C884 1.325 . S
O941 Li880 1.970 . S
O941 Li881 1.956 . S
O941 Li883 1.961 . S
O941 C890 1.325 . S
O942 Li880 1.961 . S
O942 Li882 1.956 . S
O942 Li883 1.970 . S
O942 C912 1.325 1_545 S
O943 Li881 1.961 . S
O943 Li882 1.970 . S
O943 Li883 1.956 . S
O943 C918 1.325 . S
H944 C886 0.929 . S
H945 C887 0.930 . S
H946 C888 0.930 . S
H947 C889 0.930 . S
H948 C891 0.930 . S
H949 C893 0.929 . S
H950 C894 0.930 . S
H951 C895 0.930 . S
H952 C898 0.930 . S
H953 C901 0.929 . S
H954 C906 0.929 . S
H955 C907 0.930 . S
H956 C914 0.929 . S
H957 C915 0.930 . S
H958 C916 0.930 . S
H959 C917 0.930 . S
H960 C919 0.929 . S
H961 C920 0.930 . S
H962 C921 0.930 . S
H963 C922 0.930 . S
H964 C926 0.929 . S
H965 C928 0.930 . S
H966 C934 0.929 . S
H967 C935 0.930 . S
Li968 N985 1.990 . S
Li968 O1028 1.956 . S
Li968 O1029 1.970 . S
Li968 O1030 1.961 . S
Li969 N993 1.990 . S
Li969 O1028 1.970 . S
Li969 O1029 1.956 . S
Li969 O1031 1.961 . S
Li970 N1015 1.990 1_655 S
Li970 O1028 1.961 . S
Li970 O1030 1.956 . S
Li970 O1031 1.970 . S
Li971 N1021 1.990 . S
Li971 O1029 1.961 . S
Li971 O1030 1.970 . S
Li971 O1031 1.956 . S
C972 C974 1.348 . S
C972 C975 1.356 . S
C972 O1028 1.325 . S
N973 C976 1.314 . S
N973 C977 1.279 . S
C974 C972 1.348 . S
C974 C976 1.353 . S
C974 H1032 0.929 . S
C975 C972 1.356 . S
C975 C977 1.358 . S
C975 H1033 0.930 . S
C976 N973 1.314 . S
C976 C974 1.353 . S
C976 H1034 0.930 . S
C977 N973 1.279 . S
C977 C975 1.358 . S
C977 H1035 0.930 . S
C978 C981 1.348 . S
C978 C982 1.356 . S
C978 O1029 1.325 . S
C979 N980 1.279 . S
C979 C982 1.358 . S
C979 H1036 0.930 . S
N980 C979 1.279 . S
N980 C983 1.314 . S
C981 C978 1.348 . S
C981 C983 1.353 . S
C981 H1037 0.929 . S
C982 C978 1.356 . S
C982 C979 1.358 . S
C982 H1038 0.930 . S
C983 N980 1.314 . S
C983 C981 1.353 . S
C983 H1039 0.930 . S
C984 N985 1.314 . S
C984 C989 1.353 . S
C984 H990 0.930 . S
N985 Li968 1.990 . S
N985 C984 1.314 . S
N985 C987 1.279 . S
C986 C987 1.358 . S
C986 C988 1.356 . S
C986 H1040 0.930 . S
C987 N985 1.279 . S
C987 C986 1.358 . S
C987 H991 0.930 . S
C988 C986 1.356 . S
C988 C989 1.348 . S
C989 C984 1.353 . S
C989 C988 1.348 . S
C989 H1041 0.929 . S
H990 C984 0.930 . S
H991 C987 0.930 . S
C992 N993 1.314 . S
C992 C994 1.353 . S
C992 H998 0.930 1_655 S
N993 Li969 1.990 . S
N993 C992 1.314 . S
N993 C996 1.279 . S
C994 C992 1.353 . S
C994 C997 1.348 . S
C994 H1042 0.929 1_655 S
C995 C996 1.358 . S
C995 C997 1.356 . S
C995 H1043 0.930 . S
C996 N993 1.279 . S
C996 C995 1.358 . S
C996 H999 0.930 . S
C997 C994 1.348 . S
C997 C995 1.356 . S
H998 C992 0.930 1_455 S
H999 C996 0.930 . S
C1000 C1002 1.348 . S
C1000 C1003 1.356 . S
C1000 O1030 1.325 . S
N1001 C1004 1.314 . S
N1001 C1005 1.279 . S
C1002 C1000 1.348 . S
C1002 C1004 1.353 . S
C1002 H1044 0.929 . S
C1003 C1000 1.356 . S
C1003 C1005 1.358 . S
C1003 H1045 0.930 . S
C1004 N1001 1.314 . S
C1004 C1002 1.353 . S
C1004 H1046 0.930 . S
C1005 N1001 1.279 . S
C1005 C1003 1.358 . S
C1005 H1047 0.930 . S
C1006 C1007 1.348 . S
C1006 C1008 1.356 . S
C1006 O1031 1.325 1_455 S
C1007 C1006 1.348 . S
C1007 C1009 1.353 . S
C1007 H1048 0.929 . S
C1008 C1006 1.356 . S
C1008 C1010 1.358 . S
C1008 H1049 0.930 1_455 S
C1009 C1007 1.353 . S
C1009 N1011 1.314 . S
C1009 H1050 0.930 . S
C1010 C1008 1.358 . S
C1010 N1011 1.279 . S
C1010 H1051 0.930 . S
N1011 C1009 1.314 . S
N1011 C1010 1.279 . S
C1012 C1014 1.353 . S
C1012 N1015 1.314 . S
C1012 H1018 0.930 . S
C1013 N1015 1.279 . S
C1013 C1016 1.358 . S
C1013 H1019 0.930 . S
C1014 C1012 1.353 . S
C1014 C1017 1.348 . S
C1014 H1052 0.929 . S
N1015 Li970 1.990 1_455 S
N1015 C1012 1.314 . S
N1015 C1013 1.279 . S
C1016 C1013 1.358 . S
C1016 C1017 1.356 . S
C1016 H1053 0.930 . S
C1017 C1014 1.348 . S
C1017 C1016 1.356 . S
H1018 C1012 0.930 . S
H1019 C1013 0.930 . S
C1020 N1021 1.314 . S
C1020 C1022 1.353 . S
C1020 H1026 0.930 . S
N1021 Li971 1.990 . S
N1021 C1020 1.314 . S
N1021 C1024 1.279 . S
C1022 C1020 1.353 . S
C1022 C1025 1.348 . S
C1022 H1054 0.929 . S
C1023 C1024 1.358 . S
C1023 C1025 1.356 . S
C1023 H1055 0.930 . S
C1024 N1021 1.279 . S
C1024 C1023 1.358 . S
C1024 H1027 0.930 . S
C1025 C1022 1.348 . S
C1025 C1023 1.356 . S
H1026 C1020 0.930 . S
H1027 C1024 0.930 . S
O1028 Li968 1.956 . S
O1028 Li969 1.970 . S
O1028 Li970 1.961 . S
O1028 C972 1.325 . S
O1029 Li968 1.970 . S
O1029 Li969 1.956 . S
O1029 Li971 1.961 . S
O1029 C978 1.325 . S
O1030 Li968 1.961 . S
O1030 Li970 1.956 . S
O1030 Li971 1.970 . S
O1030 C1000 1.325 . S
O1031 Li969 1.961 . S
O1031 Li970 1.970 . S
O1031 Li971 1.956 . S
O1031 C1006 1.325 1_655 S
H1032 C974 0.929 . S
H1033 C975 0.930 . S
H1034 C976 0.930 . S
H1035 C977 0.930 . S
H1036 C979 0.930 . S
H1037 C981 0.929 . S
H1038 C982 0.930 . S
H1039 C983 0.930 . S
H1040 C986 0.930 . S
H1041 C989 0.929 . S
H1042 C994 0.929 1_455 S
H1043 C995 0.930 . S
H1044 C1002 0.929 . S
H1045 C1003 0.930 . S
H1046 C1004 0.930 . S
H1047 C1005 0.930 . S
H1048 C1007 0.929 . S
H1049 C1008 0.930 1_655 S
H1050 C1009 0.930 . S
H1051 C1010 0.930 . S
H1052 C1014 0.929 . S
H1053 C1016 0.930 . S
H1054 C1022 0.929 . S
H1055 C1023 0.930 . S
Li1056 N1073 1.990 . S
Li1056 O1116 1.956 . S
Li1056 O1117 1.970 . S
Li1056 O1118 1.961 . S
Li1057 N1081 1.990 . S
Li1057 O1116 1.970 . S
Li1057 O1117 1.956 . S
Li1057 O1119 1.961 . S
Li1058 N1103 1.990 . S
Li1058 O1116 1.961 . S
Li1058 O1118 1.956 . S
Li1058 O1119 1.970 . S
Li1059 N1109 1.990 . S
Li1059 O1117 1.961 . S
Li1059 O1118 1.970 . S
Li1059 O1119 1.956 . S
C1060 C1062 1.348 . S
C1060 C1063 1.356 . S
C1060 O1116 1.325 . S
N1061 C1064 1.314 . S
N1061 C1065 1.279 . S
C1062 C1060 1.348 . S
C1062 C1064 1.353 . S
C1062 H1120 0.929 . S
C1063 C1060 1.356 . S
C1063 C1065 1.358 . S
C1063 H1121 0.930 . S
C1064 N1061 1.314 . S
C1064 C1062 1.353 . S
C1064 H1122 0.930 . S
C1065 N1061 1.279 . S
C1065 C1063 1.358 . S
C1065 H1123 0.930 . S
C1066 C1069 1.348 . S
C1066 C1070 1.356 . S
C1066 O1117 1.325 . S
C1067 N1068 1.279 . S
C1067 C1070 1.358 . S
C1067 H1124 0.930 . S
N1068 C1067 1.279 . S
N1068 C1071 1.314 . S
C1069 C1066 1.348 . S
C1069 C1071 1.353 . S
C1069 H1125 0.929 . S
C1070 C1066 1.356 . S
C1070 C1067 1.358 . S
C1070 H1126 0.930 . S
C1071 N1068 1.314 . S
C1071 C1069 1.353 . S
C1071 H1127 0.930 . S
C1072 N1073 1.314 . S
C1072 C1077 1.353 . S
C1072 H1078 0.930 . S
N1073 Li1056 1.990 . S
N1073 C1072 1.314 . S
N1073 C1075 1.279 . S
C1074 C1075 1.358 . S
C1074 C1076 1.356 . S
C1074 H1128 0.930 . S
C1075 N1073 1.279 . S
C1075 C1074 1.358 . S
C1075 H1079 0.930 . S
C1076 C1074 1.356 . S
C1076 C1077 1.348 . S
C1077 C1072 1.353 . S
C1077 C1076 1.348 . S
C1077 H1129 0.929 . S
H1078 C1072 0.930 . S
H1079 C1075 0.930 . S
C1080 N1081 1.314 . S
C1080 C1082 1.353 . S
C1080 H1086 0.930 . S
N1081 Li1057 1.990 . S
N1081 C1080 1.314 . S
N1081 C1084 1.279 . S
C1082 C1080 1.353 . S
C1082 C1085 1.348 . S
C1082 H1130 0.929 . S
C1083 C1084 1.358 . S
C1083 C1085 1.356 . S
C1083 H1131 0.930 . S
C1084 N1081 1.279 . S
C1084 C1083 1.358 . S
C1084 H1087 0.930 . S
C1085 C1082 1.348 . S
C1085 C1083 1.356 . S
H1086 C1080 0.930 . S
H1087 C1084 0.930 . S
C1088 C1090 1.348 . S
C1088 C1091 1.356 . S
C1088 O1118 1.325 . S
N1089 C1092 1.314 . S
N1089 C1093 1.279 . S
C1090 C1088 1.348 . S
C1090 C1092 1.353 . S
C1090 H1132 0.929 . S
C1091 C1088 1.356 . S
C1091 C1093 1.358 . S
C1091 H1133 0.930 . S
C1092 N1089 1.314 . S
C1092 C1090 1.353 . S
C1092 H1134 0.930 . S
C1093 N1089 1.279 . S
C1093 C1091 1.358 . S
C1093 H1135 0.930 . S
C1094 C1095 1.348 . S
C1094 C1096 1.356 . S
C1094 O1119 1.325 . S
C1095 C1094 1.348 . S
C1095 C1097 1.353 . S
C1095 H1136 0.929 . S
C1096 C1094 1.356 . S
C1096 C1098 1.358 . S
C1096 H1137 0.930 . S
C1097 C1095 1.353 . S
C1097 N1099 1.314 . S
C1097 H1138 0.930 . S
C1098 C1096 1.358 . S
C1098 N1099 1.279 . S
C1098 H1139 0.930 . S
N1099 C1097 1.314 . S
N1099 C1098 1.279 . S
C1100 C1102 1.353 . S
C1100 N1103 1.314 . S
C1100 H1106 0.930 . S
C1101 N1103 1.279 . S
C1101 C1104 1.358 . S
C1101 H1107 0.930 . S
C1102 C1100 1.353 . S
C1102 C1105 1.348 . S
C1102 H1140 0.929 . S
N1103 Li1058 1.990 . S
N1103 C1100 1.314 . S
N1103 C1101 1.279 . S
C1104 C1101 1.358 . S
C1104 C1105 1.356 . S
C1104 H1141 0.930 . S
C1105 C1102 1.348 . S
C1105 C1104 1.356 . S
H1106 C1100 0.930 . S
H1107 C1101 0.930 . S
C1108 N1109 1.314 . S
C1108 C1110 1.353 . S
C1108 H1114 0.930 . S
N1109 Li1059 1.990 . S
N1109 C1108 1.314 . S
N1109 C1112 1.279 . S
C1110 C1108 1.353 . S
C1110 C1113 1.348 . S
C1110 H1142 0.929 . S
C1111 C1112 1.358 . S
C1111 C1113 1.356 . S
C1111 H1143 0.930 . S
C1112 N1109 1.279 . S
C1112 C1111 1.358 . S
C1112 H1115 0.930 . S
C1113 C1110 1.348 . S
C1113 C1111 1.356 . S
H1114 C1108 0.930 . S
H1115 C1112 0.930 . S
O1116 Li1056 1.956 . S
O1116 Li1057 1.970 . S
O1116 Li1058 1.961 . S
O1116 C1060 1.325 . S
O1117 Li1056 1.970 . S
O1117 Li1057 1.956 . S
O1117 Li1059 1.961 . S
O1117 C1066 1.325 . S
O1118 Li1056 1.961 . S
O1118 Li1058 1.956 . S
O1118 Li1059 1.970 . S
O1118 C1088 1.325 . S
O1119 Li1057 1.961 . S
O1119 Li1058 1.970 . S
O1119 Li1059 1.956 . S
O1119 C1094 1.325 . S
H1120 C1062 0.929 . S
H1121 C1063 0.930 . S
H1122 C1064 0.930 . S
H1123 C1065 0.930 . S
H1124 C1067 0.930 . S
H1125 C1069 0.929 . S
H1126 C1070 0.930 . S
H1127 C1071 0.930 . S
H1128 C1074 0.930 . S
H1129 C1077 0.929 . S
H1130 C1082 0.929 . S
H1131 C1083 0.930 . S
H1132 C1090 0.929 . S
H1133 C1091 0.930 . S
H1134 C1092 0.930 . S
H1135 C1093 0.930 . S
H1136 C1095 0.929 . S
H1137 C1096 0.930 . S
H1138 C1097 0.930 . S
H1139 C1098 0.930 . S
H1140 C1102 0.929 . S
H1141 C1104 0.930 . S
H1142 C1110 0.929 . S
H1143 C1111 0.930 . S
Li1144 N1161 1.990 . S
Li1144 O1204 1.956 . S
Li1144 O1205 1.970 . S
Li1144 O1206 1.961 . S
Li1145 N1169 1.990 1_565 S
Li1145 O1204 1.970 . S
Li1145 O1205 1.956 . S
Li1145 O1207 1.961 . S
Li1146 N1191 1.990 . S
Li1146 O1204 1.961 . S
Li1146 O1206 1.956 . S
Li1146 O1207 1.970 . S
Li1147 N1197 1.990 . S
Li1147 O1205 1.961 . S
Li1147 O1206 1.970 . S
Li1147 O1207 1.956 . S
C1148 C1150 1.348 . S
C1148 C1151 1.356 . S
C1148 O1204 1.325 1_545 S
N1149 C1152 1.314 . S
N1149 C1153 1.279 . S
C1150 C1148 1.348 . S
C1150 C1152 1.353 . S
C1150 H1208 0.929 . S
C1151 C1148 1.356 . S
C1151 C1153 1.358 . S
C1151 H1209 0.930 1_545 S
C1152 N1149 1.314 . S
C1152 C1150 1.353 . S
C1152 H1210 0.930 . S
C1153 N1149 1.279 . S
C1153 C1151 1.358 . S
C1153 H1211 0.930 . S
C1154 C1157 1.348 . S
C1154 C1158 1.356 . S
C1154 O1205 1.325 . S
C1155 N1156 1.279 . S
C1155 C1158 1.358 . S
C1155 H1212 0.930 . S
N1156 C1155 1.279 . S
N1156 C1159 1.314 . S
C1157 C1154 1.348 . S
C1157 C1159 1.353 . S
C1157 H1213 0.929 . S
C1158 C1154 1.356 . S
C1158 C1155 1.358 . S
C1158 H1214 0.930 . S
C1159 N1156 1.314 . S
C1159 C1157 1.353 . S
C1159 H1215 0.930 1_565 S
C1160 N1161 1.314 . S
C1160 C1165 1.353 . S
C1160 H1166 0.930 . S
N1161 Li1144 1.990 . S
N1161 C1160 1.314 . S
N1161 C1163 1.279 . S
C1162 C1163 1.358 . S
C1162 C1164 1.356 . S
C1162 H1216 0.930 1_565 S
C1163 N1161 1.279 . S
C1163 C1162 1.358 . S
C1163 H1167 0.930 1_565 S
C1164 C1162 1.356 . S
C1164 C1165 1.348 . S
C1165 C1160 1.353 . S
C1165 C1164 1.348 . S
C1165 H1217 0.929 . S
H1166 C1160 0.930 . S
H1167 C1163 0.930 1_545 S
C1168 N1169 1.314 . S
C1168 C1170 1.353 . S
C1168 H1174 0.930 . S
N1169 Li1145 1.990 1_545 S
N1169 C1168 1.314 . S
N1169 C1172 1.279 . S
C1170 C1168 1.353 . S
C1170 C1173 1.348 . S
C1170 H1218 0.929 . S
C1171 C1172 1.358 . S
C1171 C1173 1.356 . S
C1171 H1219 0.930 . S
C1172 N1169 1.279 . S
C1172 C1171 1.358 . S
C1172 H1175 0.930 . S
C1173 C1170 1.348 . S
C1173 C1171 1.356 . S
H1174 C1168 0.930 . S
H1175 C1172 0.930 . S
C1176 C1178 1.348 . S
C1176 C1179 1.356 . S
C1176 O1206 1.325 . S
N1177 C1180 1.314 . S
N1177 C1181 1.279 . S
C1178 C1176 1.348 . S
C1178 C1180 1.353 . S
C1178 H1220 0.929 . S
C1179 C1176 1.356 . S
C1179 C1181 1.358 . S
C1179 H1221 0.930 . S
C1180 N1177 1.314 . S
C1180 C1178 1.353 . S
C1180 H1222 0.930 . S
C1181 N1177 1.279 . S
C1181 C1179 1.358 . S
C1181 H1223 0.930 . S
C1182 C1183 1.348 . S
C1182 C1184 1.356 . S
C1182 O1207 1.325 . S
C1183 C1182 1.348 . S
C1183 C1185 1.353 . S
C1183 H1224 0.929 . S
C1184 C1182 1.356 . S
C1184 C1186 1.358 . S
C1184 H1225 0.930 . S
C1185 C1183 1.353 . S
C1185 N1187 1.314 . S
C1185 H1226 0.930 . S
C1186 C1184 1.358 . S
C1186 N1187 1.279 . S
C1186 H1227 0.930 . S
N1187 C1185 1.314 . S
N1187 C1186 1.279 . S
C1188 C1190 1.353 . S
C1188 N1191 1.314 . S
C1188 H1194 0.930 . S
C1189 N1191 1.279 . S
C1189 C1192 1.358 . S
C1189 H1195 0.930 . S
C1190 C1188 1.353 . S
C1190 C1193 1.348 . S
C1190 H1228 0.929 . S
N1191 Li1146 1.990 . S
N1191 C1188 1.314 . S
N1191 C1189 1.279 . S
C1192 C1189 1.358 . S
C1192 C1193 1.356 . S
C1192 H1229 0.930 . S
C1193 C1190 1.348 . S
C1193 C1192 1.356 . S
H1194 C1188 0.930 . S
H1195 C1189 0.930 . S
C1196 N1197 1.314 . S
C1196 C1198 1.353 . S
C1196 H1202 0.930 . S
N1197 Li1147 1.990 . S
N1197 C1196 1.314 . S
N1197 C1200 1.279 . S
C1198 C1196 1.353 . S
C1198 C1201 1.348 . S
C1198 H1230 0.929 . S
C1199 C1200 1.358 . S
C1199 C1201 1.356 . S
C1199 H1231 0.930 . S
C1200 N1197 1.279 . S
C1200 C1199 1.358 . S
C1200 H1203 0.930 . S
C1201 C1198 1.348 . S
C1201 C1199 1.356 . S
H1202 C1196 0.930 . S
H1203 C1200 0.930 . S
O1204 Li1144 1.956 . S
O1204 Li1145 1.970 . S
O1204 Li1146 1.961 . S
O1204 C1148 1.325 1_565 S
O1205 Li1144 1.970 . S
O1205 Li1145 1.956 . S
O1205 Li1147 1.961 . S
O1205 C1154 1.325 . S
O1206 Li1144 1.961 . S
O1206 Li1146 1.956 . S
O1206 Li1147 1.970 . S
O1206 C1176 1.325 . S
O1207 Li1145 1.961 . S
O1207 Li1146 1.970 . S
O1207 Li1147 1.956 . S
O1207 C1182 1.325 . S
H1208 C1150 0.929 . S
H1209 C1151 0.930 1_565 S
H1210 C1152 0.930 . S
H1211 C1153 0.930 . S
H1212 C1155 0.930 . S
H1213 C1157 0.929 . S
H1214 C1158 0.930 . S
H1215 C1159 0.930 1_545 S
H1216 C1162 0.930 1_545 S
H1217 C1165 0.929 . S
H1218 C1170 0.929 . S
H1219 C1171 0.930 . S
H1220 C1178 0.929 . S
H1221 C1179 0.930 . S
H1222 C1180 0.930 . S
H1223 C1181 0.930 . S
H1224 C1183 0.929 . S
H1225 C1184 0.930 . S
H1226 C1185 0.930 . S
H1227 C1186 0.930 . S
H1228 C1190 0.929 . S
H1229 C1192 0.930 . S
H1230 C1198 0.929 . S
H1231 C1199 0.930 . S
Li1232 N1249 1.990 . S
Li1232 O1292 1.956 . S
Li1232 O1293 1.970 . S
Li1232 O1294 1.961 . S
Li1233 N1257 1.990 . S
Li1233 O1292 1.970 . S
Li1233 O1293 1.956 . S
Li1233 O1295 1.961 . S
Li1234 N1279 1.990 1_455 S
Li1234 O1292 1.961 . S
Li1234 O1294 1.956 . S
Li1234 O1295 1.970 . S
Li1235 N1285 1.990 . S
Li1235 O1293 1.961 . S
Li1235 O1294 1.970 . S
Li1235 O1295 1.956 . S
C1236 C1238 1.348 . S
C1236 C1239 1.356 . S
C1236 O1292 1.325 1_655 S
N1237 C1240 1.314 . S
N1237 C1241 1.279 . S
C1238 C1236 1.348 . S
C1238 C1240 1.353 . S
C1238 H1296 0.928 1_655 S
C1239 C1236 1.356 . S
C1239 C1241 1.358 . S
C1239 H1297 0.930 . S
C1240 N1237 1.314 . S
C1240 C1238 1.353 . S
C1240 H1298 0.930 . S
C1241 N1237 1.279 . S
C1241 C1239 1.358 . S
C1241 H1299 0.930 . S
C1242 C1245 1.348 . S
C1242 C1246 1.356 . S
C1242 O1293 1.325 . S
C1243 N1244 1.279 . S
C1243 C1246 1.358 . S
C1243 H1300 0.930 . S
N1244 C1243 1.279 . S
N1244 C1247 1.314 . S
C1245 C1242 1.348 . S
C1245 C1247 1.353 . S
C1245 H1301 0.929 . S
C1246 C1242 1.356 . S
C1246 C1243 1.358 . S
C1246 H1302 0.930 . S
C1247 N1244 1.314 . S
C1247 C1245 1.353 . S
C1247 H1303 0.930 . S
C1248 N1249 1.314 . S
C1248 C1253 1.353 . S
C1248 H1254 0.930 . S
N1249 Li1232 1.990 . S
N1249 C1248 1.314 . S
N1249 C1251 1.279 . S
C1250 C1251 1.358 . S
C1250 C1252 1.356 . S
C1250 H1304 0.930 . S
C1251 N1249 1.279 . S
C1251 C1250 1.358 . S
C1251 H1255 0.930 . S
C1252 C1250 1.356 . S
C1252 C1253 1.348 . S
C1253 C1248 1.353 . S
C1253 C1252 1.348 . S
C1253 H1305 0.929 . S
H1254 C1248 0.930 . S
H1255 C1251 0.930 . S
C1256 N1257 1.314 . S
C1256 C1258 1.353 . S
C1256 H1262 0.929 1_455 S
N1257 Li1233 1.990 . S
N1257 C1256 1.314 . S
N1257 C1260 1.279 . S
C1258 C1256 1.353 . S
C1258 C1261 1.348 . S
C1258 H1306 0.929 1_455 S
C1259 C1260 1.358 . S
C1259 C1261 1.356 . S
C1259 H1307 0.930 . S
C1260 N1257 1.279 . S
C1260 C1259 1.358 . S
C1260 H1263 0.930 . S
C1261 C1258 1.348 . S
C1261 C1259 1.356 . S
H1262 C1256 0.929 1_655 S
H1263 C1260 0.930 . S
C1264 C1266 1.348 . S
C1264 C1267 1.356 . S
C1264 O1294 1.325 . S
N1265 C1268 1.314 . S
N1265 C1269 1.279 . S
C1266 C1264 1.348 . S
C1266 C1268 1.353 . S
C1266 H1308 0.929 . S
C1267 C1264 1.356 . S
C1267 C1269 1.358 . S
C1267 H1309 0.930 . S
C1268 N1265 1.314 . S
C1268 C1266 1.353 . S
C1268 H1310 0.930 . S
C1269 N1265 1.279 . S
C1269 C1267 1.358 . S
C1269 H1311 0.930 . S
C1270 C1271 1.348 . S
C1270 C1272 1.356 . S
C1270 O1295 1.325 . S
C1271 C1270 1.348 . S
C1271 C1273 1.353 1_455 S
C1271 H1312 0.929 1_455 S
C1272 C1270 1.356 . S
C1272 C1274 1.358 . S
C1272 H1313 0.930 . S
C1273 C1271 1.353 1_655 S
C1273 N1275 1.314 1_655 S
C1273 H1314 0.930 . S
C1274 C1272 1.358 . S
C1274 N1275 1.279 . S
C1274 H1315 0.930 . S
N1275 C1273 1.314 1_455 S
N1275 C1274 1.279 . S
C1276 C1278 1.353 . S
C1276 N1279 1.314 . S
C1276 H1282 0.930 . S
C1277 N1279 1.279 . S
C1277 C1280 1.358 . S
C1277 H1283 0.930 . S
C1278 C1276 1.353 . S
C1278 C1281 1.348 . S
C1278 H1316 0.929 . S
N1279 Li1234 1.990 1_655 S
N1279 C1276 1.314 . S
N1279 C1277 1.279 . S
C1280 C1277 1.358 . S
C1280 C1281 1.356 . S
C1280 H1317 0.930 . S
C1281 C1278 1.348 . S
C1281 C1280 1.356 . S
H1282 C1276 0.930 . S
H1283 C1277 0.930 . S
C1284 N1285 1.314 . S
C1284 C1286 1.353 . S
C1284 H1290 0.930 . S
N1285 Li1235 1.990 . S
N1285 C1284 1.314 . S
N1285 C1288 1.279 . S
C1286 C1284 1.353 . S
C1286 C1289 1.348 . S
C1286 H1318 0.929 . S
C1287 C1288 1.358 . S
C1287 C1289 1.356 . S
C1287 H1319 0.930 . S
C1288 N1285 1.279 . S
C1288 C1287 1.358 . S
C1288 H1291 0.930 . S
C1289 C1286 1.348 . S
C1289 C1287 1.356 . S
H1290 C1284 0.930 . S
H1291 C1288 0.930 . S
O1292 Li1232 1.956 . S
O1292 Li1233 1.970 . S
O1292 Li1234 1.961 . S
O1292 C1236 1.325 1_455 S
O1293 Li1232 1.970 . S
O1293 Li1233 1.956 . S
O1293 Li1235 1.961 . S
O1293 C1242 1.325 . S
O1294 Li1232 1.961 . S
O1294 Li1234 1.956 . S
O1294 Li1235 1.970 . S
O1294 C1264 1.325 . S
O1295 Li1233 1.961 . S
O1295 Li1234 1.970 . S
O1295 Li1235 1.956 . S
O1295 C1270 1.325 . S
H1296 C1238 0.928 1_455 S
H1297 C1239 0.930 . S
H1298 C1240 0.930 . S
H1299 C1241 0.930 . S
H1300 C1243 0.930 . S
H1301 C1245 0.929 . S
H1302 C1246 0.930 . S
H1303 C1247 0.930 . S
H1304 C1250 0.930 . S
H1305 C1253 0.929 . S
H1306 C1258 0.929 1_655 S
H1307 C1259 0.930 . S
H1308 C1266 0.929 . S
H1309 C1267 0.930 . S
H1310 C1268 0.930 . S
H1311 C1269 0.930 . S
H1312 C1271 0.929 1_655 S
H1313 C1272 0.930 . S
H1314 C1273 0.930 . S
H1315 C1274 0.930 . S
H1316 C1278 0.929 . S
H1317 C1280 0.930 . S
H1318 C1286 0.929 . S
H1319 C1287 0.930 . S
Li1320 N1337 1.990 . S
Li1320 O1380 1.954 1_655 S
Li1320 O1381 2.001 . S
Li1320 O1382 1.961 . S
Li1321 N1345 1.990 . S
Li1321 O1380 1.973 . S
Li1321 O1381 1.934 1_455 S
Li1321 O1383 1.961 . S
Li1322 N1367 1.990 . S
Li1322 O1380 1.963 1_655 S
Li1322 O1382 1.956 . S
Li1322 O1383 1.970 1_655 S
Li1323 N1373 1.990 . S
Li1323 O1381 1.938 1_455 S
Li1323 O1382 1.970 1_455 S
Li1323 O1383 1.956 . S
C1324 C1326 1.348 1_655 S
C1324 C1327 1.356 . S
C1324 O1380 1.323 1_655 S
N1325 C1328 1.314 1_655 S
N1325 C1329 1.279 . S
C1326 C1324 1.348 1_455 S
C1326 C1328 1.353 . S
C1326 H1384 0.929 . S
C1327 C1324 1.356 . S
C1327 C1329 1.358 . S
C1327 H1385 0.930 . S
C1328 N1325 1.314 1_455 S
C1328 C1326 1.353 . S
C1328 H1386 0.930 . S
C1329 N1325 1.279 . S
C1329 C1327 1.358 . S
C1329 H1387 0.930 . S
C1330 C1333 1.333 1_455 S
C1330 C1334 1.370 . S
C1330 O1381 1.332 1_455 S
C1331 N1332 1.279 . S
C1331 C1334 1.358 . S
C1331 H1388 0.930 . S
N1332 C1331 1.279 . S
N1332 C1335 1.314 1_455 S
C1333 C1330 1.333 1_655 S
C1333 C1335 1.353 . S
C1333 H1389 0.929 . S
C1334 C1330 1.370 . S
C1334 C1331 1.358 . S
C1334 H1390 0.930 . S
C1335 N1332 1.314 1_655 S
C1335 C1333 1.353 . S
C1335 H1391 0.930 . S
C1336 N1337 1.314 . S
C1336 C1341 1.353 . S
C1336 H1342 0.930 . S
N1337 Li1320 1.990 . S
N1337 C1336 1.314 . S
N1337 C1339 1.279 . S
C1338 C1339 1.358 . S
C1338 C1340 1.356 . S
C1338 H1392 0.930 . S
C1339 N1337 1.279 . S
C1339 C1338 1.358 . S
C1339 H1343 0.930 . S
C1340 C1338 1.356 . S
C1340 C1341 1.348 . S
C1341 C1336 1.353 . S
C1341 C1340 1.348 . S
C1341 H1393 0.929 . S
H1342 C1336 0.930 . S
H1343 C1339 0.930 . S
C1344 N1345 1.314 . S
C1344 C1346 1.353 . S
C1344 H1350 0.930 . S
N1345 Li1321 1.990 . S
N1345 C1344 1.314 . S
N1345 C1348 1.279 . S
C1346 C1344 1.353 . S
C1346 C1349 1.348 . S
C1346 H1394 0.929 . S
C1347 C1348 1.358 . S
C1347 C1349 1.356 . S
C1347 H1395 0.930 . S
C1348 N1345 1.279 . S
C1348 C1347 1.358 . S
C1348 H1351 0.930 . S
C1349 C1346 1.348 . S
C1349 C1347 1.356 . S
H1350 C1344 0.930 . S
H1351 C1348 0.930 . S
C1352 C1354 1.348 . S
C1352 C1355 1.356 . S
C1352 O1382 1.325 . S
N1353 C1356 1.314 . S
N1353 C1357 1.279 . S
C1354 C1352 1.348 . S
C1354 C1356 1.353 . S
C1354 H1396 0.929 . S
C1355 C1352 1.356 . S
C1355 C1357 1.358 . S
C1355 H1397 0.930 . S
C1356 N1353 1.314 . S
C1356 C1354 1.353 . S
C1356 H1398 0.930 . S
C1357 N1353 1.279 . S
C1357 C1355 1.358 . S
C1357 H1399 0.930 . S
C1358 C1359 1.348 . S
C1358 C1360 1.356 . S
C1358 O1383 1.325 . S
C1359 C1358 1.348 . S
C1359 C1361 1.353 . S
C1359 H1400 0.929 . S
C1360 C1358 1.356 . S
C1360 C1362 1.358 . S
C1360 H1401 0.930 . S
C1361 C1359 1.353 . S
C1361 N1363 1.314 . S
C1361 H1402 0.930 . S
C1362 C1360 1.358 . S
C1362 N1363 1.279 . S
C1362 H1403 0.930 . S
N1363 C1361 1.314 . S
N1363 C1362 1.279 . S
C1364 C1366 1.353 . S
C1364 N1367 1.314 1_455 S
C1364 H1370 0.930 . S
C1365 N1367 1.279 . S
C1365 C1368 1.358 . S
C1365 H1371 0.930 . S
C1366 C1364 1.353 . S
C1366 C1369 1.348 1_455 S
C1366 H1404 0.929 . S
N1367 Li1322 1.990 . S
N1367 C1364 1.314 1_655 S
N1367 C1365 1.279 . S
C1368 C1365 1.358 . S
C1368 C1369 1.356 . S
C1368 H1405 0.930 . S
C1369 C1366 1.348 1_655 S
C1369 C1368 1.356 . S
H1370 C1364 0.930 . S
H1371 C1365 0.930 . S
C1372 N1373 1.314 1_655 S
C1372 C1374 1.353 . S
C1372 H1378 0.930 . S
N1373 Li1323 1.990 . S
N1373 C1372 1.314 1_455 S
N1373 C1376 1.279 . S
C1374 C1372 1.353 . S
C1374 C1377 1.348 1_655 S
C1374 H1406 0.929 . S
C1375 C1376 1.358 . S
C1375 C1377 1.356 . S
C1375 H1407 0.930 . S
C1376 N1373 1.279 . S
C1376 C1375 1.358 . S
C1376 H1379 0.930 . S
C1377 C1374 1.348 1_455 S
C1377 C1375 1.356 . S
H1378 C1372 0.930 . S
H1379 C1376 0.930 . S
O1380 Li1320 1.954 1_455 S
O1380 Li1321 1.973 . S
O1380 Li1322 1.963 1_455 S
O1380 C1324 1.323 1_455 S
O1381 Li1320 2.001 . S
O1381 Li1321 1.934 1_655 S
O1381 Li1323 1.938 1_655 S
O1381 C1330 1.332 1_655 S
O1382 Li1320 1.961 . S
O1382 Li1322 1.956 . S
O1382 Li1323 1.970 1_655 S
O1382 C1352 1.325 . S
O1383 Li1321 1.961 . S
O1383 Li1322 1.970 1_455 S
O1383 Li1323 1.956 . S
O1383 C1358 1.325 . S
H1384 C1326 0.929 . S
H1385 C1327 0.930 . S
H1386 C1328 0.930 . S
H1387 C1329 0.930 . S
H1388 C1331 0.930 . S
H1389 C1333 0.929 . S
H1390 C1334 0.930 . S
H1391 C1335 0.930 . S
H1392 C1338 0.930 . S
H1393 C1341 0.929 . S
H1394 C1346 0.929 . S
H1395 C1347 0.930 . S
H1396 C1354 0.929 . S
H1397 C1355 0.930 . S
H1398 C1356 0.930 . S
H1399 C1357 0.930 . S
H1400 C1359 0.929 . S
H1401 C1360 0.930 . S
H1402 C1361 0.930 . S
H1403 C1362 0.930 . S
H1404 C1366 0.929 . S
H1405 C1368 0.930 . S
H1406 C1374 0.929 . S
H1407 C1375 0.930 . S
Li1408 N1425 1.990 . S
Li1408 O1468 1.956 . S
Li1408 O1469 1.970 . S
Li1408 O1470 1.961 . S
Li1409 N1433 1.990 . S
Li1409 O1468 1.970 . S
Li1409 O1469 1.956 . S
Li1409 O1471 1.961 . S
Li1410 N1455 1.990 . S
Li1410 O1468 1.961 . S
Li1410 O1470 1.956 . S
Li1410 O1471 1.970 . S
Li1411 N1461 1.990 . S
Li1411 O1469 1.961 . S
Li1411 O1470 1.970 . S
Li1411 O1471 1.956 . S
C1412 C1414 1.348 . S
C1412 C1415 1.356 . S
C1412 O1468 1.325 . S
N1413 C1416 1.314 . S
N1413 C1417 1.279 . S
C1414 C1412 1.348 . S
C1414 C1416 1.353 . S
C1414 H1472 0.929 . S
C1415 C1412 1.356 . S
C1415 C1417 1.358 . S
C1415 H1473 0.930 . S
C1416 N1413 1.314 . S
C1416 C1414 1.353 . S
C1416 H1474 0.930 . S
C1417 N1413 1.279 . S
C1417 C1415 1.358 . S
C1417 H1475 0.930 . S
C1418 C1421 1.348 . S
C1418 C1422 1.356 . S
C1418 O1469 1.325 . S
C1419 N1420 1.279 . S
C1419 C1422 1.358 . S
C1419 H1476 0.930 . S
N1420 C1419 1.279 . S
N1420 C1423 1.314 . S
C1421 C1418 1.348 . S
C1421 C1423 1.353 . S
C1421 H1477 0.929 . S
C1422 C1418 1.356 . S
C1422 C1419 1.358 . S
C1422 H1478 0.930 . S
C1423 N1420 1.314 . S
C1423 C1421 1.353 . S
C1423 H1479 0.930 . S
C1424 N1425 1.314 . S
C1424 C1429 1.353 . S
C1424 H1430 0.930 . S
N1425 Li1408 1.990 . S
N1425 C1424 1.314 . S
N1425 C1427 1.279 . S
C1426 C1427 1.358 . S
C1426 C1428 1.356 . S
C1426 H1480 0.930 . S
C1427 N1425 1.279 . S
C1427 C1426 1.358 . S
C1427 H1431 0.930 . S
C1428 C1426 1.356 . S
C1428 C1429 1.348 . S
C1429 C1424 1.353 . S
C1429 C1428 1.348 . S
C1429 H1481 0.929 . S
H1430 C1424 0.930 . S
H1431 C1427 0.930 . S
C1432 N1433 1.314 . S
C1432 C1434 1.353 . S
C1432 H1438 0.930 . S
N1433 Li1409 1.990 . S
N1433 C1432 1.314 . S
N1433 C1436 1.279 . S
C1434 C1432 1.353 . S
C1434 C1437 1.348 . S
C1434 H1482 0.929 . S
C1435 C1436 1.358 . S
C1435 C1437 1.356 . S
C1435 H1483 0.930 . S
C1436 N1433 1.279 . S
C1436 C1435 1.358 . S
C1436 H1439 0.930 . S
C1437 C1434 1.348 . S
C1437 C1435 1.356 . S
H1438 C1432 0.930 . S
H1439 C1436 0.930 . S
C1440 C1442 1.348 . S
C1440 C1443 1.356 . S
C1440 O1470 1.325 . S
N1441 C1444 1.314 . S
N1441 C1445 1.279 . S
C1442 C1440 1.348 . S
C1442 C1444 1.353 . S
C1442 H1484 0.929 . S
C1443 C1440 1.356 . S
C1443 C1445 1.358 . S
C1443 H1485 0.930 . S
C1444 N1441 1.314 . S
C1444 C1442 1.353 . S
C1444 H1486 0.930 . S
C1445 N1441 1.279 . S
C1445 C1443 1.358 . S
C1445 H1487 0.930 . S
C1446 C1447 1.348 . S
C1446 C1448 1.356 . S
C1446 O1471 1.325 . S
C1447 C1446 1.348 . S
C1447 C1449 1.353 . S
C1447 H1488 0.929 . S
C1448 C1446 1.356 . S
C1448 C1450 1.358 . S
C1448 H1489 0.930 . S
C1449 C1447 1.353 . S
C1449 N1451 1.314 . S
C1449 H1490 0.930 . S
C1450 C1448 1.358 . S
C1450 N1451 1.279 . S
C1450 H1491 0.930 . S
N1451 C1449 1.314 . S
N1451 C1450 1.279 . S
C1452 C1454 1.353 . S
C1452 N1455 1.314 . S
C1452 H1458 0.930 . S
C1453 N1455 1.279 . S
C1453 C1456 1.358 . S
C1453 H1459 0.930 . S
C1454 C1452 1.353 . S
C1454 C1457 1.348 . S
C1454 H1492 0.929 . S
N1455 Li1410 1.990 . S
N1455 C1452 1.314 . S
N1455 C1453 1.279 . S
C1456 C1453 1.358 . S
C1456 C1457 1.356 . S
C1456 H1493 0.930 . S
C1457 C1454 1.348 . S
C1457 C1456 1.356 . S
H1458 C1452 0.930 . S
H1459 C1453 0.930 . S
C1460 N1461 1.314 . S
C1460 C1462 1.353 . S
C1460 H1466 0.930 . S
N1461 Li1411 1.990 . S
N1461 C1460 1.314 . S
N1461 C1464 1.279 . S
C1462 C1460 1.353 . S
C1462 C1465 1.348 . S
C1462 H1494 0.929 . S
C1463 C1464 1.358 . S
C1463 C1465 1.356 . S
C1463 H1495 0.930 . S
C1464 N1461 1.279 . S
C1464 C1463 1.358 . S
C1464 H1467 0.930 . S
C1465 C1462 1.348 . S
C1465 C1463 1.356 . S
H1466 C1460 0.930 . S
H1467 C1464 0.930 . S
O1468 Li1408 1.956 . S
O1468 Li1409 1.970 . S
O1468 Li1410 1.961 . S
O1468 C1412 1.325 . S
O1469 Li1408 1.970 . S
O1469 Li1409 1.956 . S
O1469 Li1411 1.961 . S
O1469 C1418 1.325 . S
O1470 Li1408 1.961 . S
O1470 Li1410 1.956 . S
O1470 Li1411 1.970 . S
O1470 C1440 1.325 . S
O1471 Li1409 1.961 . S
O1471 Li1410 1.970 . S
O1471 Li1411 1.956 . S
O1471 C1446 1.325 . S
H1472 C1414 0.929 . S
H1473 C1415 0.930 . S
H1474 C1416 0.930 . S
H1475 C1417 0.930 . S
H1476 C1419 0.930 . S
H1477 C1421 0.929 . S
H1478 C1422 0.930 . S
H1479 C1423 0.930 . S
H1480 C1426 0.930 . S
H1481 C1429 0.929 . S
H1482 C1434 0.929 . S
H1483 C1435 0.930 . S
H1484 C1442 0.929 . S
H1485 C1443 0.930 . S
H1486 C1444 0.930 . S
H1487 C1445 0.930 . S
H1488 C1447 0.929 . S
H1489 C1448 0.930 . S
H1490 C1449 0.930 . S
H1491 C1450 0.930 . S
H1492 C1454 0.929 . S
H1493 C1456 0.930 . S
H1494 C1462 0.929 . S
H1495 C1463 0.930 . S
Li1496 N1513 1.990 . S
Li1496 O1556 1.956 . S
Li1496 O1557 1.988 . S
Li1496 O1558 1.961 1_565 S
Li1497 N1521 1.979 1_565 S
Li1497 O1556 1.975 . S
Li1497 O1557 1.947 . S
Li1497 O1559 1.957 1_565 S
Li1498 N1543 1.991 . S
Li1498 O1556 1.959 . S
Li1498 O1558 1.954 1_565 S
Li1498 O1559 1.974 1_565 S
Li1499 N1549 1.990 . S
Li1499 O1557 1.947 1_545 S
Li1499 O1558 1.970 . S
Li1499 O1559 1.956 . S
C1500 C1502 1.348 . S
C1500 C1503 1.356 . S
C1500 O1556 1.325 . S
N1501 C1504 1.314 . S
N1501 C1505 1.279 . S
C1502 C1500 1.348 . S
C1502 C1504 1.353 . S
C1502 H1560 0.929 . S
C1503 C1500 1.356 . S
C1503 C1505 1.358 . S
C1503 H1561 0.930 . S
C1504 N1501 1.314 . S
C1504 C1502 1.353 . S
C1504 H1562 0.930 . S
C1505 N1501 1.279 . S
C1505 C1503 1.358 . S
C1505 H1563 0.930 . S
C1506 C1509 1.366 . S
C1506 C1510 1.340 1_565 S
C1506 O1557 1.325 . S
C1507 N1508 1.278 . S
C1507 C1510 1.358 . S
C1507 H1564 0.930 . S
N1508 C1507 1.278 . S
N1508 C1511 1.316 1_545 S
C1509 C1506 1.366 . S
C1509 C1511 1.353 . S
C1509 H1565 0.929 . S
C1510 C1506 1.340 1_545 S
C1510 C1507 1.358 . S
C1510 H1566 0.930 . S
C1511 N1508 1.316 1_565 S
C1511 C1509 1.353 . S
C1511 H1567 0.930 . S
C1512 N1513 1.314 . S
C1512 C1517 1.353 . S
C1512 H1518 0.930 . S
N1513 Li1496 1.990 . S
N1513 C1512 1.314 . S
N1513 C1515 1.279 . S
C1514 C1515 1.358 . S
C1514 C1516 1.356 . S
C1514 H1568 0.930 . S
C1515 N1513 1.279 . S
C1515 C1514 1.358 . S
C1515 H1519 0.930 . S
C1516 C1514 1.356 . S
C1516 C1517 1.348 . S
C1517 C1512 1.353 . S
C1517 C1516 1.348 . S
C1517 H1569 0.929 . S
H1518 C1512 0.930 . S
H1519 C1515 0.930 . S
C1520 N1521 1.327 . S
C1520 C1522 1.353 . S
C1520 H1526 0.930 . S
N1521 Li1497 1.979 1_545 S
N1521 C1520 1.327 . S
N1521 C1524 1.275 1_545 S
C1522 C1520 1.353 . S
C1522 C1525 1.348 1_545 S
C1522 H1570 0.929 . S
C1523 C1524 1.358 . S
C1523 C1525 1.356 . S
C1523 H1571 0.930 . S
C1524 N1521 1.275 1_565 S
C1524 C1523 1.358 . S
C1524 H1527 0.930 . S
C1525 C1522 1.348 1_565 S
C1525 C1523 1.356 . S
H1526 C1520 0.930 . S
H1527 C1524 0.930 . S
C1528 C1530 1.348 . S
C1528 C1531 1.356 1_545 S
C1528 O1558 1.325 . S
N1529 C1532 1.314 . S
N1529 C1533 1.279 1_545 S
C1530 C1528 1.348 . S
C1530 C1532 1.353 . S
C1530 H1572 0.929 . S
C1531 C1528 1.356 1_565 S
C1531 C1533 1.358 . S
C1531 H1573 0.930 . S
C1532 N1529 1.314 . S
C1532 C1530 1.353 . S
C1532 H1574 0.930 . S
C1533 N1529 1.279 1_565 S
C1533 C1531 1.358 . S
C1533 H1575 0.930 . S
C1534 C1535 1.348 . S
C1534 C1536 1.356 . S
C1534 O1559 1.325 . S
C1535 C1534 1.348 . S
C1535 C1537 1.353 . S
C1535 H1576 0.929 . S
C1536 C1534 1.356 . S
C1536 C1538 1.358 . S
C1536 H1577 0.930 . S
C1537 C1535 1.353 . S
C1537 N1539 1.314 . S
C1537 H1578 0.930 . S
C1538 C1536 1.358 . S
C1538 N1539 1.279 . S
C1538 H1579 0.930 . S
N1539 C1537 1.314 . S
N1539 C1538 1.279 . S
C1540 C1542 1.353 . S
C1540 N1543 1.314 . S
C1540 H1546 0.930 . S
C1541 N1543 1.279 1_545 S
C1541 C1544 1.358 . S
C1541 H1547 0.930 . S
C1542 C1540 1.353 . S
C1542 C1545 1.348 1_565 S
C1542 H1580 0.929 . S
N1543 Li1498 1.991 . S
N1543 C1540 1.314 . S
N1543 C1541 1.279 1_565 S
C1544 C1541 1.358 . S
C1544 C1545 1.356 . S
C1544 H1581 0.930 . S
C1545 C1542 1.348 1_545 S
C1545 C1544 1.356 . S
H1546 C1540 0.930 . S
H1547 C1541 0.930 . S
C1548 N1549 1.314 . S
C1548 C1550 1.353 . S
C1548 H1554 0.930 . S
N1549 Li1499 1.990 . S
N1549 C1548 1.314 . S
N1549 C1552 1.279 . S
C1550 C1548 1.353 . S
C1550 C1553 1.348 . S
C1550 H1582 0.929 . S
C1551 C1552 1.358 . S
C1551 C1553 1.356 . S
C1551 H1583 0.930 . S
C1552 N1549 1.279 . S
C1552 C1551 1.358 . S
C1552 H1555 0.930 . S
C1553 C1550 1.348 . S
C1553 C1551 1.356 . S
H1554 C1548 0.930 . S
H1555 C1552 0.930 . S
O1556 Li1496 1.956 . S
O1556 Li1497 1.975 . S
O1556 Li1498 1.959 . S
O1556 C1500 1.325 . S
O1557 Li1496 1.988 . S
O1557 Li1497 1.947 . S
O1557 Li1499 1.947 1_565 S
O1557 C1506 1.325 . S
O1558 Li1496 1.961 1_545 S
O1558 Li1498 1.954 1_545 S
O1558 Li1499 1.970 . S
O1558 C1528 1.325 . S
O1559 Li1497 1.957 1_545 S
O1559 Li1498 1.974 1_545 S
O1559 Li1499 1.956 . S
O1559 C1534 1.325 . S
H1560 C1502 0.929 . S
H1561 C1503 0.930 . S
H1562 C1504 0.930 . S
H1563 C1505 0.930 . S
H1564 C1507 0.930 . S
H1565 C1509 0.929 . S
H1566 C1510 0.930 . S
H1567 C1511 0.930 . S
H1568 C1514 0.930 . S
H1569 C1517 0.929 . S
H1570 C1522 0.929 . S
H1571 C1523 0.930 . S
H1572 C1530 0.929 . S
H1573 C1531 0.930 . S
H1574 C1532 0.930 . S
H1575 C1533 0.930 . S
H1576 C1535 0.929 . S
H1577 C1536 0.930 . S
H1578 C1537 0.930 . S
H1579 C1538 0.930 . S
H1580 C1542 0.929 . S
H1581 C1544 0.930 . S
H1582 C1550 0.929 . S
H1583 C1551 0.930 . S
H1584 C1590 0.930 . S
H1585 C1593 0.930 . S
H1586 C1594 0.930 . S
H1587 C1595 0.930 . S
H1588 C1598 0.930 . S
H1589 C1599 0.930 . S
C1590 H1584 0.930 . S
C1590 C1591 1.355 1_565 S
C1590 C1592 1.415 . S
C1591 C1590 1.355 1_545 S
C1591 C1593 1.419 . S
C1592 C1590 1.415 . S
C1592 C1597 1.419 1_564 S
C1592 C1599 1.409 1_554 S
C1593 H1585 0.930 . S
C1593 C1591 1.419 . S
C1593 C1594 1.362 . S
C1594 H1586 0.930 . S
C1594 C1593 1.362 . S
C1594 C1597 1.390 1_554 S
C1595 H1587 0.930 . S
C1595 C1596 1.355 1_545 S
C1595 C1597 1.441 . S
C1596 C1595 1.355 1_565 S
C1596 C1598 1.419 . S
C1597 C1592 1.419 1_546 S
C1597 C1594 1.390 1_556 S
C1597 C1595 1.441 . S
C1598 H1588 0.930 . S
C1598 C1596 1.419 . S
C1598 C1599 1.362 . S
C1599 H1589 0.930 . S
C1599 C1592 1.409 1_556 S
C1599 C1598 1.362 . S
H1600 C1606 0.930 . S
H1601 C1609 0.930 . S
H1602 C1610 0.930 . S
H1603 C1611 0.930 . S
H1604 C1614 0.930 . S
H1605 C1615 0.930 . S
C1606 H1600 0.930 . S
C1606 C1607 1.355 . S
C1606 C1608 1.450 . S
C1607 C1606 1.355 . S
C1607 C1609 1.419 1_655 S
C1608 C1606 1.450 . S
C1608 C1613 1.422 1_654 S
C1608 C1615 1.379 1_554 S
C1609 H1601 0.930 . S
C1609 C1607 1.419 1_455 S
C1609 C1610 1.362 . S
C1610 H1602 0.930 . S
C1610 C1609 1.362 . S
C1610 C1613 1.397 1_554 S
C1611 H1603 0.930 . S
C1611 C1612 1.355 . S
C1611 C1613 1.428 . S
C1612 C1611 1.355 . S
C1612 C1614 1.419 1_455 S
C1613 C1608 1.422 1_456 S
C1613 C1610 1.397 1_556 S
C1613 C1611 1.428 . S
C1614 H1604 0.930 . S
C1614 C1612 1.419 1_655 S
C1614 C1615 1.362 . S
C1615 H1605 0.930 . S
C1615 C1608 1.379 1_556 S
C1615 C1614 1.362 . S
H1616 C1622 0.930 . S
H1617 C1625 0.930 . S
H1618 C1626 0.917 1_554 S
H1619 C1627 0.930 . S
H1620 C1630 0.930 . S
H1621 C1631 0.930 . S
C1622 H1616 0.930 . S
C1622 C1623 1.355 . S
C1622 C1624 1.415 . S
C1623 C1622 1.355 . S
C1623 C1625 1.419 . S
C1624 C1622 1.415 . S
C1624 C1629 1.425 1_556 S
C1624 C1631 1.409 . S
C1625 H1617 0.930 . S
C1625 C1623 1.419 . S
C1625 C1626 1.382 . S
C1626 H1618 0.917 1_556 S
C1626 C1625 1.382 . S
C1626 C1629 1.403 1_556 S
C1627 H1619 0.930 . S
C1627 C1628 1.355 . S
C1627 C1629 1.415 . S
C1628 C1627 1.355 . S
C1628 C1630 1.419 . S
C1629 C1624 1.425 1_554 S
C1629 C1626 1.403 1_554 S
C1629 C1627 1.415 . S
C1630 H1620 0.930 . S
C1630 C1628 1.419 . S
C1630 C1631 1.362 1_554 S
C1631 H1621 0.930 . S
C1631 C1624 1.409 . S
C1631 C1630 1.362 1_556 S
H1632 C1638 0.930 . S
H1633 C1641 0.930 . S
H1634 C1642 0.930 . S
H1635 C1643 0.930 . S
H1636 C1646 0.930 . S
H1637 C1647 0.930 . S
C1638 H1632 0.930 . S
C1638 C1639 1.355 . S
C1638 C1640 1.415 . S
C1639 C1638 1.355 . S
C1639 C1641 1.419 . S
C1640 C1638 1.415 . S
C1640 C1645 1.425 . S
C1640 C1647 1.409 . S
C1641 H1633 0.930 . S
C1641 C1639 1.419 . S
C1641 C1642 1.362 . S
C1642 H1634 0.930 . S
C1642 C1641 1.362 . S
C1642 C1645 1.409 . S
C1643 H1635 0.930 . S
C1643 C1644 1.355 . S
C1643 C1645 1.415 . S
C1644 C1643 1.355 . S
C1644 C1646 1.419 . S
C1645 C1640 1.425 . S
C1645 C1642 1.409 . S
C1645 C1643 1.415 . S
C1646 H1636 0.930 . S
C1646 C1644 1.419 . S
C1646 C1647 1.362 . S
C1647 H1637 0.930 . S
C1647 C1640 1.409 . S
C1647 C1646 1.362 . S
H1648 C1654 0.930 . S
H1649 C1657 0.930 . S
H1650 C1658 0.930 . S
H1651 C1659 0.930 . S
H1652 C1662 0.930 . S
H1653 C1663 0.930 . S
C1654 H1648 0.930 . S
C1654 C1655 1.355 . S
C1654 C1656 1.415 . S
C1655 C1654 1.355 . S
C1655 C1657 1.419 . S
C1656 C1654 1.415 . S
C1656 C1661 1.425 . S
C1656 C1663 1.409 . S
C1657 H1649 0.930 . S
C1657 C1655 1.419 . S
C1657 C1658 1.362 . S
C1658 H1650 0.930 . S
C1658 C1657 1.362 . S
C1658 C1661 1.409 . S
C1659 H1651 0.930 . S
C1659 C1660 1.355 . S
C1659 C1661 1.415 . S
C1660 C1659 1.355 . S
C1660 C1662 1.419 . S
C1661 C1656 1.425 . S
C1661 C1658 1.409 . S
C1661 C1659 1.415 . S
C1662 H1652 0.930 . S
C1662 C1660 1.419 . S
C1662 C1663 1.362 . S
C1663 H1653 0.930 . S
C1663 C1656 1.409 . S
C1663 C1662 1.362 . S
H1664 C1670 0.930 . S
H1665 C1673 0.930 . S
H1666 C1674 0.930 . S
H1667 C1675 0.930 . S
H1668 C1678 0.930 . S
H1669 C1679 0.930 . S
C1670 H1664 0.930 . S
C1670 C1671 1.355 . S
C1670 C1672 1.415 . S
C1671 C1670 1.355 . S
C1671 C1673 1.419 . S
C1672 C1670 1.415 . S
C1672 C1677 1.425 . S
C1672 C1679 1.409 . S
C1673 H1665 0.930 . S
C1673 C1671 1.419 . S
C1673 C1674 1.362 . S
C1674 H1666 0.930 . S
C1674 C1673 1.362 . S
C1674 C1677 1.409 . S
C1675 H1667 0.930 . S
C1675 C1676 1.355 . S
C1675 C1677 1.415 . S
C1676 C1675 1.355 . S
C1676 C1678 1.419 . S
C1677 C1672 1.425 . S
C1677 C1674 1.409 . S
C1677 C1675 1.415 . S
C1678 H1668 0.930 . S
C1678 C1676 1.419 . S
C1678 C1679 1.362 . S
C1679 H1669 0.930 . S
C1679 C1672 1.409 . S
C1679 C1678 1.362 . S
H1680 C1686 0.930 . S
H1681 C1689 0.930 . S
H1682 C1690 0.930 . S
H1683 C1691 0.930 . S
H1684 C1694 0.930 . S
H1685 C1695 0.930 . S
C1686 H1680 0.930 . S
C1686 C1687 1.355 . S
C1686 C1688 1.415 . S
C1687 C1686 1.355 . S
C1687 C1689 1.419 . S
C1688 C1686 1.415 . S
C1688 C1693 1.425 . S
C1688 C1695 1.409 . S
C1689 H1681 0.930 . S
C1689 C1687 1.419 . S
C1689 C1690 1.362 . S
C1690 H1682 0.930 . S
C1690 C1689 1.362 . S
C1690 C1693 1.409 . S
C1691 H1683 0.930 . S
C1691 C1692 1.355 . S
C1691 C1693 1.415 . S
C1692 C1691 1.355 . S
C1692 C1694 1.419 . S
C1693 C1688 1.425 . S
C1693 C1690 1.409 . S
C1693 C1691 1.415 . S
C1694 H1684 0.930 . S
C1694 C1692 1.419 . S
C1694 C1695 1.362 . S
C1695 H1685 0.930 . S
C1695 C1688 1.409 . S
C1695 C1694 1.362 . S
H1696 C1702 0.930 . S
H1697 C1705 0.930 . S
H1698 C1706 0.930 . S
H1699 C1707 0.930 . S
H1700 C1710 0.930 . S
H1701 C1711 0.930 . S
C1702 H1696 0.930 . S
C1702 C1703 1.355 . S
C1702 C1704 1.415 . S
C1703 C1702 1.355 . S
C1703 C1705 1.419 . S
C1704 C1702 1.415 . S
C1704 C1709 1.425 . S
C1704 C1711 1.409 . S
C1705 H1697 0.930 . S
C1705 C1703 1.419 . S
C1705 C1706 1.362 . S
C1706 H1698 0.930 . S
C1706 C1705 1.362 . S
C1706 C1709 1.409 . S
C1707 H1699 0.930 . S
C1707 C1708 1.355 . S
C1707 C1709 1.415 . S
C1708 C1707 1.355 . S
C1708 C1710 1.419 . S
C1709 C1704 1.425 . S
C1709 C1706 1.409 . S
C1709 C1707 1.415 . S
C1710 H1700 0.930 . S
C1710 C1708 1.419 . S
C1710 C1711 1.362 . S
C1711 H1701 0.930 . S
C1711 C1704 1.409 . S
C1711 C1710 1.362 . S
H1712 C1718 0.930 . S
H1713 C1721 0.930 . S
H1714 C1722 0.930 . S
H1715 C1723 0.930 . S
H1716 C1726 0.930 . S
H1717 C1727 0.930 . S
C1718 H1712 0.930 . S
C1718 C1719 1.355 . S
C1718 C1720 1.415 . S
C1719 C1718 1.355 . S
C1719 C1721 1.419 . S
C1720 C1718 1.415 . S
C1720 C1725 1.425 . S
C1720 C1727 1.409 . S
C1721 H1713 0.930 . S
C1721 C1719 1.419 . S
C1721 C1722 1.362 . S
C1722 H1714 0.930 . S
C1722 C1721 1.362 . S
C1722 C1725 1.409 . S
C1723 H1715 0.930 . S
C1723 C1724 1.355 . S
C1723 C1725 1.415 . S
C1724 C1723 1.355 . S
C1724 C1726 1.419 . S
C1725 C1720 1.425 . S
C1725 C1722 1.409 . S
C1725 C1723 1.415 . S
C1726 H1716 0.930 . S
C1726 C1724 1.419 . S
C1726 C1727 1.362 . S
C1727 H1717 0.930 . S
C1727 C1720 1.409 . S
C1727 C1726 1.362 . S
H1728 C1734 0.930 . S
H1729 C1737 0.930 . S
H1730 C1738 0.930 . S
H1731 C1739 0.930 . S
H1732 C1742 0.930 . S
H1733 C1743 0.930 . S
C1734 H1728 0.930 . S
C1734 C1735 1.355 . S
C1734 C1736 1.415 . S
C1735 C1734 1.355 . S
C1735 C1737 1.419 . S
C1736 C1734 1.415 . S
C1736 C1741 1.425 . S
C1736 C1743 1.409 . S
C1737 H1729 0.930 . S
C1737 C1735 1.419 . S
C1737 C1738 1.362 . S
C1738 H1730 0.930 . S
C1738 C1737 1.362 . S
C1738 C1741 1.409 . S
C1739 H1731 0.930 . S
C1739 C1740 1.355 . S
C1739 C1741 1.415 . S
C1740 C1739 1.355 . S
C1740 C1742 1.419 . S
C1741 C1736 1.425 . S
C1741 C1738 1.409 . S
C1741 C1739 1.415 . S
C1742 H1732 0.930 . S
C1742 C1740 1.419 . S
C1742 C1743 1.362 . S
C1743 H1733 0.930 . S
C1743 C1736 1.409 . S
C1743 C1742 1.362 . S
H1744 C1750 0.930 . S
H1745 C1753 0.930 . S
H1746 C1754 0.930 . S
H1747 C1755 0.930 . S
H1748 C1758 0.930 . S
H1749 C1759 0.930 . S
C1750 H1744 0.930 . S
C1750 C1751 1.355 . S
C1750 C1752 1.415 . S
C1751 C1750 1.355 . S
C1751 C1753 1.419 . S
C1752 C1750 1.415 . S
C1752 C1757 1.425 . S
C1752 C1759 1.409 . S
C1753 H1745 0.930 . S
C1753 C1751 1.419 . S
C1753 C1754 1.362 . S
C1754 H1746 0.930 . S
C1754 C1753 1.362 . S
C1754 C1757 1.409 . S
C1755 H1747 0.930 . S
C1755 C1756 1.355 . S
C1755 C1757 1.415 . S
C1756 C1755 1.355 . S
C1756 C1758 1.419 . S
C1757 C1752 1.425 . S
C1757 C1754 1.409 . S
C1757 C1755 1.415 . S
C1758 H1748 0.930 . S
C1758 C1756 1.419 . S
C1758 C1759 1.362 . S
C1759 H1749 0.930 . S
C1759 C1752 1.409 . S
C1759 C1758 1.362 . S
H1760 C1766 0.930 . S
H1761 C1769 0.930 . S
H1762 C1770 0.930 . S
H1763 C1771 0.930 . S
H1764 C1774 0.930 . S
H1765 C1775 0.930 . S
C1766 H1760 0.930 . S
C1766 C1767 1.355 . S
C1766 C1768 1.415 . S
C1767 C1766 1.355 . S
C1767 C1769 1.419 . S
C1768 C1766 1.415 . S
C1768 C1773 1.425 . S
C1768 C1775 1.409 . S
C1769 H1761 0.930 . S
C1769 C1767 1.419 . S
C1769 C1770 1.362 . S
C1770 H1762 0.930 . S
C1770 C1769 1.362 . S
C1770 C1773 1.409 . S
C1771 H1763 0.930 . S
C1771 C1772 1.355 . S
C1771 C1773 1.415 . S
C1772 C1771 1.355 . S
C1772 C1774 1.419 . S
C1773 C1768 1.425 . S
C1773 C1770 1.409 . S
C1773 C1771 1.415 . S
C1774 H1764 0.930 . S
C1774 C1772 1.419 . S
C1774 C1775 1.362 . S
C1775 H1765 0.930 . S
C1775 C1768 1.409 . S
C1775 C1774 1.362 . S
H1776 C1782 0.930 . S
H1777 C1785 0.930 . S
H1778 C1786 0.930 . S
H1779 C1787 0.930 . S
H1780 C1790 0.930 . S
H1781 C1791 0.930 . S
C1782 H1776 0.930 . S
C1782 C1783 1.355 . S
C1782 C1784 1.415 . S
C1783 C1782 1.355 . S
C1783 C1785 1.419 . S
C1784 C1782 1.415 . S
C1784 C1789 1.425 . S
C1784 C1791 1.409 . S
C1785 H1777 0.930 . S
C1785 C1783 1.419 . S
C1785 C1786 1.362 . S
C1786 H1778 0.930 . S
C1786 C1785 1.362 . S
C1786 C1789 1.409 . S
C1787 H1779 0.930 . S
C1787 C1788 1.355 . S
C1787 C1789 1.415 . S
C1788 C1787 1.355 . S
C1788 C1790 1.419 . S
C1789 C1784 1.425 . S
C1789 C1786 1.409 . S
C1789 C1787 1.415 . S
C1790 H1780 0.930 . S
C1790 C1788 1.419 . S
C1790 C1791 1.362 . S
C1791 H1781 0.930 . S
C1791 C1784 1.409 . S
C1791 C1790 1.362 . S
H1792 C1798 0.930 . S
H1793 C1801 0.930 . S
H1794 C1802 0.930 . S
H1795 C1803 0.930 . S
H1796 C1806 0.930 . S
H1797 C1807 0.930 . S
C1798 H1792 0.930 . S
C1798 C1799 1.355 . S
C1798 C1800 1.415 . S
C1799 C1798 1.355 . S
C1799 C1801 1.419 . S
C1800 C1798 1.415 . S
C1800 C1805 1.425 . S
C1800 C1807 1.409 . S
C1801 H1793 0.930 . S
C1801 C1799 1.419 . S
C1801 C1802 1.362 . S
C1802 H1794 0.930 . S
C1802 C1801 1.362 . S
C1802 C1805 1.409 . S
C1803 H1795 0.930 . S
C1803 C1804 1.355 . S
C1803 C1805 1.415 . S
C1804 C1803 1.355 . S
C1804 C1806 1.419 . S
C1805 C1800 1.425 . S
C1805 C1802 1.409 . S
C1805 C1803 1.415 . S
C1806 H1796 0.930 . S
C1806 C1804 1.419 . S
C1806 C1807 1.362 . S
C1807 H1797 0.930 . S
C1807 C1800 1.409 . S
C1807 C1806 1.362 . S
H1808 C1814 0.930 . S
H1809 C1817 0.930 . S
H1810 C1818 0.930 . S
H1811 C1819 0.930 . S
H1812 C1822 0.930 . S
H1813 C1823 0.930 . S
C1814 H1808 0.930 . S
C1814 C1815 1.355 . S
C1814 C1816 1.415 . S
C1815 C1814 1.355 . S
C1815 C1817 1.419 . S
C1816 C1814 1.415 . S
C1816 C1821 1.425 . S
C1816 C1823 1.409 . S
C1817 H1809 0.930 . S
C1817 C1815 1.419 . S
C1817 C1818 1.362 . S
C1818 H1810 0.930 . S
C1818 C1817 1.362 . S
C1818 C1821 1.409 . S
C1819 H1811 0.930 . S
C1819 C1820 1.355 . S
C1819 C1821 1.415 . S
C1820 C1819 1.355 . S
C1820 C1822 1.419 . S
C1821 C1816 1.425 . S
C1821 C1818 1.409 . S
C1821 C1819 1.415 . S
C1822 H1812 0.930 . S
C1822 C1820 1.419 . S
C1822 C1823 1.362 . S
C1823 H1813 0.930 . S
C1823 C1816 1.409 . S
C1823 C1822 1.362 . S
H1824 C1830 0.930 . S
H1825 C1833 0.930 . S
H1826 C1834 0.930 . S
H1827 C1835 0.930 . S
H1828 C1838 0.930 . S
H1829 C1839 0.930 . S
C1830 H1824 0.930 . S
C1830 C1831 1.355 1_655 S
C1830 C1832 1.415 . S
C1831 C1830 1.355 1_455 S
C1831 C1833 1.419 . S
C1832 C1830 1.415 . S
C1832 C1837 1.425 1_655 S
C1832 C1839 1.409 . S
C1833 H1825 0.930 . S
C1833 C1831 1.419 . S
C1833 C1834 1.362 . S
C1834 H1826 0.930 . S
C1834 C1833 1.362 . S
C1834 C1837 1.409 . S
C1835 H1827 0.930 . S
C1835 C1836 1.355 1_455 S
C1835 C1837 1.415 . S
C1836 C1835 1.355 1_655 S
C1836 C1838 1.419 . S
C1837 C1832 1.425 1_455 S
C1837 C1834 1.409 . S
C1837 C1835 1.415 . S
C1838 H1828 0.930 . S
C1838 C1836 1.419 . S
C1838 C1839 1.362 . S
C1839 H1829 0.930 . S
C1839 C1832 1.409 . S
C1839 C1838 1.362 . S
H1840 C1846 0.930 . S
H1841 C1849 0.930 . S
H1842 C1850 0.930 . S
H1843 C1851 0.930 . S
H1844 C1854 0.930 . S
H1845 C1855 0.930 . S
C1846 H1840 0.930 . S
C1846 C1847 1.355 . S
C1846 C1848 1.415 . S
C1847 C1846 1.355 . S
C1847 C1849 1.419 . S
C1848 C1846 1.415 . S
C1848 C1853 1.425 . S
C1848 C1855 1.409 . S
C1849 H1841 0.930 . S
C1849 C1847 1.419 . S
C1849 C1850 1.362 . S
C1850 H1842 0.930 . S
C1850 C1849 1.362 . S
C1850 C1853 1.409 . S
C1851 H1843 0.930 . S
C1851 C1852 1.355 . S
C1851 C1853 1.415 . S
C1852 C1851 1.355 . S
C1852 C1854 1.419 . S
C1853 C1848 1.425 . S
C1853 C1850 1.409 . S
C1853 C1851 1.415 . S
C1854 H1844 0.930 . S
C1854 C1852 1.419 . S
C1854 C1855 1.362 . S
C1855 H1845 0.930 . S
C1855 C1848 1.409 . S
C1855 C1854 1.362 . S
H1856 C1862 0.930 . S
H1857 C1865 0.930 . S
H1858 C1866 0.930 . S
H1859 C1867 0.930 . S
H1860 C1870 0.930 . S
H1861 C1871 0.930 . S
C1862 H1856 0.930 . S
C1862 C1863 1.355 1_565 S
C1862 C1864 1.415 . S
C1863 C1862 1.355 1_545 S
C1863 C1865 1.419 . S
C1864 C1862 1.415 . S
C1864 C1869 1.425 1_565 S
C1864 C1871 1.409 . S
C1865 H1857 0.930 . S
C1865 C1863 1.419 . S
C1865 C1866 1.362 . S
C1866 H1858 0.930 . S
C1866 C1865 1.362 . S
C1866 C1869 1.409 . S
C1867 H1859 0.930 . S
C1867 C1868 1.355 1_545 S
C1867 C1869 1.415 . S
C1868 C1867 1.355 1_565 S
C1868 C1870 1.419 . S
C1869 C1864 1.425 1_545 S
C1869 C1866 1.409 . S
C1869 C1867 1.415 . S
C1870 H1860 0.930 . S
C1870 C1868 1.419 . S
C1870 C1871 1.362 . S
C1871 H1861 0.930 . S
C1871 C1864 1.409 . S
C1871 C1870 1.362 . S
H1872 C1878 0.930 . S
H1873 C1881 0.930 . S
H1874 C1882 0.930 . S
H1875 C1883 0.930 . S
H1876 C1886 0.930 . S
H1877 C1887 0.930 . S
C1878 H1872 0.930 . S
C1878 C1879 1.355 . S
C1878 C1880 1.415 . S
C1879 C1878 1.355 . S
C1879 C1881 1.419 . S
C1880 C1878 1.415 . S
C1880 C1885 1.425 . S
C1880 C1887 1.409 . S
C1881 H1873 0.930 . S
C1881 C1879 1.419 . S
C1881 C1882 1.362 . S
C1882 H1874 0.930 . S
C1882 C1881 1.362 . S
C1882 C1885 1.409 . S
C1883 H1875 0.930 . S
C1883 C1884 1.355 1_554 S
C1883 C1885 1.415 . S
C1884 C1883 1.355 1_556 S
C1884 C1886 1.419 . S
C1885 C1880 1.425 . S
C1885 C1882 1.409 . S
C1885 C1883 1.415 . S
C1886 H1876 0.930 . S
C1886 C1884 1.419 . S
C1886 C1887 1.362 1_556 S
C1887 H1877 0.930 . S
C1887 C1880 1.409 . S
C1887 C1886 1.362 1_554 S
H1888 C1894 0.930 . S
H1889 C1897 0.930 . S
H1890 C1898 0.930 . S
H1891 C1899 0.930 . S
H1892 C1902 0.930 . S
H1893 C1903 0.930 . S
C1894 H1888 0.930 . S
C1894 C1895 1.355 . S
C1894 C1896 1.415 . S
C1895 C1894 1.355 . S
C1895 C1897 1.419 . S
C1896 C1894 1.415 . S
C1896 C1901 1.425 . S
C1896 C1903 1.409 . S
C1897 H1889 0.930 . S
C1897 C1895 1.419 . S
C1897 C1898 1.362 . S
C1898 H1890 0.930 . S
C1898 C1897 1.362 . S
C1898 C1901 1.409 . S
C1899 H1891 0.930 . S
C1899 C1900 1.355 . S
C1899 C1901 1.415 1_556 S
C1900 C1899 1.355 . S
C1900 C1902 1.419 1_556 S
C1901 C1896 1.425 . S
C1901 C1898 1.409 . S
C1901 C1899 1.415 1_554 S
C1902 H1892 0.930 . S
C1902 C1900 1.419 1_554 S
C1902 C1903 1.362 . S
C1903 H1893 0.930 . S
C1903 C1896 1.409 . S
C1903 C1902 1.362 . S
H1904 C1910 0.930 . S
H1905 C1913 0.930 . S
H1906 C1914 0.930 . S
H1907 C1915 0.930 . S
H1908 C1918 0.930 . S
H1909 C1919 0.930 1_556 S
C1910 H1904 0.930 . S
C1910 C1911 1.355 . S
C1910 C1912 1.415 . S
C1911 C1910 1.355 . S
C1911 C1913 1.419 . S
C1912 C1910 1.415 . S
C1912 C1917 1.425 . S
C1912 C1919 1.409 . S
C1913 H1905 0.930 . S
C1913 C1911 1.419 . S
C1913 C1914 1.362 . S
C1914 H1906 0.930 . S
C1914 C1913 1.362 . S
C1914 C1917 1.409 . S
C1915 H1907 0.930 . S
C1915 C1916 1.355 1_554 S
C1915 C1917 1.415 . S
C1916 C1915 1.355 1_556 S
C1916 C1918 1.419 . S
C1917 C1912 1.425 . S
C1917 C1914 1.409 . S
C1917 C1915 1.415 . S
C1918 H1908 0.930 . S
C1918 C1916 1.419 . S
C1918 C1919 1.362 1_556 S
C1919 H1909 0.930 1_554 S
C1919 C1912 1.409 . S
C1919 C1918 1.362 1_554 S
H1920 C1926 0.930 . S
H1921 C1929 0.930 . S
H1922 C1930 0.930 . S
H1923 C1931 0.930 . S
H1924 C1934 0.932 . S
H1925 C1935 0.930 . S
C1926 H1920 0.930 . S
C1926 C1927 1.355 . S
C1926 C1928 1.415 . S
C1927 C1926 1.355 . S
C1927 C1929 1.419 . S
C1928 C1926 1.415 . S
C1928 C1933 1.425 . S
C1928 C1935 1.409 . S
C1929 H1921 0.930 . S
C1929 C1927 1.419 . S
C1929 C1930 1.362 . S
C1930 H1922 0.930 . S
C1930 C1929 1.362 . S
C1930 C1933 1.409 . S
C1931 H1923 0.930 . S
C1931 C1932 1.355 1_556 S
C1931 C1933 1.415 . S
C1932 C1931 1.355 1_554 S
C1932 C1934 1.420 . S
C1933 C1928 1.425 . S
C1933 C1930 1.409 . S
C1933 C1931 1.415 . S
C1934 H1924 0.932 . S
C1934 C1932 1.420 . S
C1934 C1935 1.359 1_554 S
C1935 H1925 0.930 . S
C1935 C1928 1.409 . S
C1935 C1934 1.359 1_556 S
H1936 C1942 0.930 . S
H1937 C1945 0.930 . S
H1938 C1946 0.930 . S
H1939 C1947 0.930 . S
H1940 C1950 0.930 . S
H1941 C1951 0.930 1_554 S
C1942 H1936 0.930 . S
C1942 C1943 1.355 . S
C1942 C1944 1.415 1_554 S
C1943 C1942 1.355 . S
C1943 C1945 1.419 1_554 S
C1944 C1942 1.415 1_556 S
C1944 C1949 1.425 . S
C1944 C1951 1.409 . S
C1945 H1937 0.930 . S
C1945 C1943 1.419 1_556 S
C1945 C1946 1.362 . S
C1946 H1938 0.930 . S
C1946 C1945 1.362 . S
C1946 C1949 1.409 . S
C1947 H1939 0.930 . S
C1947 C1948 1.355 . S
C1947 C1949 1.415 . S
C1948 C1947 1.355 . S
C1948 C1950 1.419 . S
C1949 C1944 1.425 . S
C1949 C1946 1.409 . S
C1949 C1947 1.415 . S
C1950 H1940 0.930 . S
C1950 C1948 1.419 . S
C1950 C1951 1.362 . S
C1951 H1941 0.930 1_556 S
C1951 C1944 1.409 . S
C1951 C1950 1.362 . S
H1952 C1958 0.930 . S
H1953 C1961 0.930 . S
H1954 C1962 0.930 . S
H1955 C1963 0.930 . S
H1956 C1966 0.930 . S
H1957 C1967 0.930 . S
C1958 H1952 0.930 . S
C1958 C1959 1.355 . S
C1958 C1960 1.415 . S
C1959 C1958 1.355 . S
C1959 C1961 1.419 . S
C1960 C1958 1.415 . S
C1960 C1965 1.425 . S
C1960 C1967 1.409 . S
C1961 H1953 0.930 . S
C1961 C1959 1.419 . S
C1961 C1962 1.362 . S
C1962 H1954 0.930 . S
C1962 C1961 1.362 . S
C1962 C1965 1.409 . S
C1963 H1955 0.930 . S
C1963 C1964 1.355 . S
C1963 C1965 1.415 1_554 S
C1964 C1963 1.355 . S
C1964 C1966 1.419 1_554 S
C1965 C1960 1.425 . S
C1965 C1962 1.409 . S
C1965 C1963 1.415 1_556 S
C1966 H1956 0.930 . S
C1966 C1964 1.419 1_556 S
C1966 C1967 1.362 . S
C1967 H1957 0.930 . S
C1967 C1960 1.409 . S
C1967 C1966 1.362 . S
H1968 C1974 0.930 . S
H1969 C1977 0.930 . S
H1970 C1978 0.930 . S
H1971 C1979 0.930 . S
H1972 C1982 0.930 . S
H1973 C1983 0.930 . S
C1974 H1968 0.930 . S
C1974 C1975 1.355 . S
C1974 C1976 1.415 . S
C1975 C1974 1.355 . S
C1975 C1977 1.419 . S
C1976 C1974 1.415 . S
C1976 C1981 1.425 . S
C1976 C1983 1.409 . S
C1977 H1969 0.930 . S
C1977 C1975 1.419 . S
C1977 C1978 1.362 . S
C1978 H1970 0.930 . S
C1978 C1977 1.362 . S
C1978 C1981 1.409 . S
C1979 H1971 0.930 . S
C1979 C1980 1.355 . S
C1979 C1981 1.415 . S
C1980 C1979 1.355 . S
C1980 C1982 1.419 . S
C1981 C1976 1.425 . S
C1981 C1978 1.409 . S
C1981 C1979 1.415 . S
C1982 H1972 0.930 . S
C1982 C1980 1.419 . S
C1982 C1983 1.362 . S
C1983 H1973 0.930 . S
C1983 C1976 1.409 . S
C1983 C1982 1.362 . S
H1984 C1990 0.930 . S
H1985 C1993 0.930 . S
H1986 C1994 0.930 . S
H1987 C1995 0.930 . S
H1988 C1998 0.930 . S
H1989 C1999 0.930 . S
C1990 H1984 0.930 . S
C1990 C1991 1.355 . S
C1990 C1992 1.415 . S
C1991 C1990 1.355 . S
C1991 C1993 1.419 . S
C1992 C1990 1.415 . S
C1992 C1997 1.425 . S
C1992 C1999 1.409 . S
C1993 H1985 0.930 . S
C1993 C1991 1.419 . S
C1993 C1994 1.362 . S
C1994 H1986 0.930 . S
C1994 C1993 1.362 . S
C1994 C1997 1.409 . S
C1995 H1987 0.930 . S
C1995 C1996 1.355 . S
C1995 C1997 1.415 . S
C1996 C1995 1.355 . S
C1996 C1998 1.419 . S
C1997 C1992 1.425 . S
C1997 C1994 1.409 . S
C1997 C1995 1.415 . S
C1998 H1988 0.930 . S
C1998 C1996 1.419 . S
C1998 C1999 1.362 . S
C1999 H1989 0.930 . S
C1999 C1992 1.409 . S
C1999 C1998 1.362 . S
H2000 C2006 0.930 . S
H2001 C2009 0.930 . S
H2002 C2010 0.930 . S
H2003 C2011 0.930 . S
H2004 C2014 0.930 . S
H2005 C2015 0.930 . S
C2006 H2000 0.930 . S
C2006 C2007 1.355 . S
C2006 C2008 1.415 . S
C2007 C2006 1.355 . S
C2007 C2009 1.419 . S
C2008 C2006 1.415 . S
C2008 C2013 1.425 . S
C2008 C2015 1.409 . S
C2009 H2001 0.930 . S
C2009 C2007 1.419 . S
C2009 C2010 1.362 . S
C2010 H2002 0.930 . S
C2010 C2009 1.362 . S
C2010 C2013 1.409 . S
C2011 H2003 0.930 . S
C2011 C2012 1.355 . S
C2011 C2013 1.415 . S
C2012 C2011 1.355 . S
C2012 C2014 1.419 . S
C2013 C2008 1.425 . S
C2013 C2010 1.409 . S
C2013 C2011 1.415 . S
C2014 H2004 0.930 . S
C2014 C2012 1.419 . S
C2014 C2015 1.362 . S
C2015 H2005 0.930 . S
C2015 C2008 1.409 . S
C2015 C2014 1.362 . S
H2016 C2022 0.930 . S
H2017 C2025 0.930 . S
H2018 C2026 0.930 . S
H2019 C2027 0.930 . S
H2020 C2030 0.930 . S
H2021 C2031 0.930 . S
C2022 H2016 0.930 . S
C2022 C2023 1.355 . S
C2022 C2024 1.415 . S
C2023 C2022 1.355 . S
C2023 C2025 1.419 . S
C2024 C2022 1.415 . S
C2024 C2029 1.425 . S
C2024 C2031 1.409 . S
C2025 H2017 0.930 . S
C2025 C2023 1.419 . S
C2025 C2026 1.362 . S
C2026 H2018 0.930 . S
C2026 C2025 1.362 . S
C2026 C2029 1.409 . S
C2027 H2019 0.930 . S
C2027 C2028 1.355 . S
C2027 C2029 1.415 . S
C2028 C2027 1.355 . S
C2028 C2030 1.419 . S
C2029 C2024 1.425 . S
C2029 C2026 1.409 . S
C2029 C2027 1.415 . S
C2030 H2020 0.930 . S
C2030 C2028 1.419 . S
C2030 C2031 1.362 . S
C2031 H2021 0.930 . S
C2031 C2024 1.409 . S
C2031 C2030 1.362 . S
H2032 C2038 0.930 . S
H2033 C2041 0.930 . S
H2034 C2042 0.930 . S
H2035 C2043 0.930 . S
H2036 C2046 0.930 . S
H2037 C2047 0.930 . S
C2038 H2032 0.930 . S
C2038 C2039 1.355 . S
C2038 C2040 1.415 . S
C2039 C2038 1.355 . S
C2039 C2041 1.419 1_545 S
C2040 C2038 1.415 . S
C2040 C2045 1.404 1_545 S
C2040 C2047 1.409 . S
C2041 H2033 0.930 . S
C2041 C2039 1.419 1_565 S
C2041 C2042 1.362 . S
C2042 H2034 0.930 . S
C2042 C2041 1.362 . S
C2042 C2045 1.429 . S
C2043 H2035 0.930 . S
C2043 C2044 1.355 1_565 S
C2043 C2045 1.415 . S
C2044 C2043 1.355 1_545 S
C2044 C2046 1.419 . S
C2045 C2040 1.404 1_565 S
C2045 C2042 1.429 . S
C2045 C2043 1.415 . S
C2046 H2036 0.930 . S
C2046 C2044 1.419 . S
C2046 C2047 1.362 . S
C2047 H2037 0.930 . S
C2047 C2040 1.409 . S
C2047 C2046 1.362 . S
H2048 C2054 0.930 . S
H2049 C2057 0.931 . S
H2050 C2058 0.930 . S
H2051 C2059 0.930 . S
H2052 C2062 0.930 . S
H2053 C2063 0.930 . S
C2054 H2048 0.930 . S
C2054 C2055 1.355 . S
C2054 C2056 1.415 . S
C2055 C2054 1.355 . S
C2055 C2057 1.419 . S
C2056 C2054 1.415 . S
C2056 C2061 1.425 . S
C2056 C2063 1.409 . S
C2057 H2049 0.931 . S
C2057 C2055 1.419 . S
C2057 C2058 1.362 1_655 S
C2058 H2050 0.930 . S
C2058 C2057 1.362 1_455 S
C2058 C2061 1.409 1_455 S
C2059 H2051 0.930 . S
C2059 C2060 1.355 1_455 S
C2059 C2061 1.415 1_455 S
C2060 C2059 1.355 1_655 S
C2060 C2062 1.419 . S
C2061 C2056 1.425 . S
C2061 C2058 1.409 1_655 S
C2061 C2059 1.415 1_655 S
C2062 H2052 0.930 . S
C2062 C2060 1.419 . S
C2062 C2063 1.362 . S
C2063 H2053 0.930 . S
C2063 C2056 1.409 . S
C2063 C2062 1.362 . S
H2064 C2070 0.930 . S
H2065 C2073 0.930 . S
H2066 C2074 0.930 . S
H2067 C2075 0.930 . S
H2068 C2078 0.930 . S
H2069 C2079 0.930 . S
C2070 H2064 0.930 . S
C2070 C2071 1.355 . S
C2070 C2072 1.415 . S
C2071 C2070 1.355 . S
C2071 C2073 1.419 . S
C2072 C2070 1.415 . S
C2072 C2077 1.425 . S
C2072 C2079 1.409 . S
C2073 H2065 0.930 . S
C2073 C2071 1.419 . S
C2073 C2074 1.362 . S
C2074 H2066 0.930 . S
C2074 C2073 1.362 . S
C2074 C2077 1.409 . S
C2075 H2067 0.930 . S
C2075 C2076 1.355 . S
C2075 C2077 1.415 . S
C2076 C2075 1.355 . S
C2076 C2078 1.419 . S
C2077 C2072 1.425 . S
C2077 C2074 1.409 . S
C2077 C2075 1.415 . S
C2078 H2068 0.930 . S
C2078 C2076 1.419 . S
C2078 C2079 1.362 . S
C2079 H2069 0.930 . S
C2079 C2072 1.409 . S
C2079 C2078 1.362 . S
H2080 C2086 0.930 . S
H2081 C2089 0.930 . S
H2082 C2090 0.930 . S
H2083 C2091 0.930 1_545 S
H2084 C2094 0.930 . S
H2085 C2095 0.930 . S
C2086 H2080 0.930 . S
C2086 C2087 1.355 1_565 S
C2086 C2088 1.415 . S
C2087 C2086 1.355 1_545 S
C2087 C2089 1.419 . S
C2088 C2086 1.415 . S
C2088 C2093 1.425 . S
C2088 C2095 1.409 . S
C2089 H2081 0.930 . S
C2089 C2087 1.419 . S
C2089 C2090 1.362 . S
C2090 H2082 0.930 . S
C2090 C2089 1.362 . S
C2090 C2093 1.409 1_545 S
C2091 H2083 0.930 1_565 S
C2091 C2092 1.355 . S
C2091 C2093 1.415 . S
C2092 C2091 1.355 . S
C2092 C2094 1.419 . S
C2093 C2088 1.425 . S
C2093 C2090 1.409 1_565 S
C2093 C2091 1.415 . S
C2094 H2084 0.930 . S
C2094 C2092 1.419 . S
C2094 C2095 1.362 . S
C2095 H2085 0.930 . S
C2095 C2088 1.409 . S
C2095 C2094 1.362 . S
H2096 C2102 0.930 . S
H2097 C2105 0.930 . S
H2098 C2106 0.923 1_655 S
H2099 C2107 0.930 . S
H2100 C2110 0.930 . S
H2101 C2111 0.930 . S
C2102 H2096 0.930 . S
C2102 C2103 1.355 . S
C2102 C2104 1.415 . S
C2103 C2102 1.355 . S
C2103 C2105 1.419 . S
C2104 C2102 1.415 . S
C2104 C2109 1.425 . S
C2104 C2111 1.409 . S
C2105 H2097 0.930 . S
C2105 C2103 1.419 . S
C2105 C2106 1.383 . S
C2106 H2098 0.923 1_455 S
C2106 C2105 1.383 . S
C2106 C2109 1.397 . S
C2107 H2099 0.930 . S
C2107 C2108 1.355 1_655 S
C2107 C2109 1.415 1_655 S
C2108 C2107 1.355 1_455 S
C2108 C2110 1.419 . S
C2109 C2104 1.425 . S
C2109 C2106 1.397 . S
C2109 C2107 1.415 1_455 S
C2110 H2100 0.930 . S
C2110 C2108 1.419 . S
C2110 C2111 1.362 . S
C2111 H2101 0.930 . S
C2111 C2104 1.409 . S
C2111 C2110 1.362 . S
H2112 C2118 0.930 . S
H2113 C2121 0.930 . S
H2114 C2122 0.930 . S
H2115 C2123 0.930 . S
H2116 C2126 0.930 . S
H2117 C2127 0.930 . S
C2118 H2112 0.930 . S
C2118 C2119 1.355 . S
C2118 C2120 1.415 . S
C2119 C2118 1.355 . S
C2119 C2121 1.419 . S
C2120 C2118 1.415 . S
C2120 C2125 1.425 . S
C2120 C2127 1.409 . S
C2121 H2113 0.930 . S
C2121 C2119 1.419 . S
C2121 C2122 1.362 . S
C2122 H2114 0.930 . S
C2122 C2121 1.362 . S
C2122 C2125 1.409 . S
C2123 H2115 0.930 . S
C2123 C2124 1.355 . S
C2123 C2125 1.415 . S
C2124 C2123 1.355 . S
C2124 C2126 1.419 . S
C2125 C2120 1.425 . S
C2125 C2122 1.409 . S
C2125 C2123 1.415 . S
C2126 H2116 0.930 . S
C2126 C2124 1.419 . S
C2126 C2127 1.362 . S
C2127 H2117 0.930 . S
C2127 C2120 1.409 . S
C2127 C2126 1.362 . S
H2128 C2134 0.930 . S
H2129 C2137 0.930 . S
H2130 C2138 0.930 . S
H2131 C2139 0.930 . S
H2132 C2142 0.930 . S
H2133 C2143 0.930 . S
C2134 H2128 0.930 . S
C2134 C2135 1.355 . S
C2134 C2136 1.415 . S
C2135 C2134 1.355 . S
C2135 C2137 1.419 . S
C2136 C2134 1.415 . S
C2136 C2141 1.425 . S
C2136 C2143 1.409 . S
C2137 H2129 0.930 . S
C2137 C2135 1.419 . S
C2137 C2138 1.362 . S
C2138 H2130 0.930 . S
C2138 C2137 1.362 . S
C2138 C2141 1.409 . S
C2139 H2131 0.930 . S
C2139 C2140 1.355 . S
C2139 C2141 1.415 . S
C2140 C2139 1.355 . S
C2140 C2142 1.419 . S
C2141 C2136 1.425 . S
C2141 C2138 1.409 . S
C2141 C2139 1.415 . S
C2142 H2132 0.930 . S
C2142 C2140 1.419 . S
C2142 C2143 1.362 . S
C2143 H2133 0.930 . S
C2143 C2136 1.409 . S
C2143 C2142 1.362 . S
H2144 C2150 0.930 . S
H2145 C2153 0.930 . S
H2146 C2154 0.930 . S
H2147 C2155 0.930 . S
H2148 C2158 0.930 . S
H2149 C2159 0.930 . S
C2150 H2144 0.930 . S
C2150 C2151 1.355 . S
C2150 C2152 1.415 . S
C2151 C2150 1.355 . S
C2151 C2153 1.419 . S
C2152 C2150 1.415 . S
C2152 C2157 1.425 . S
C2152 C2159 1.409 . S
C2153 H2145 0.930 . S
C2153 C2151 1.419 . S
C2153 C2154 1.362 . S
C2154 H2146 0.930 . S
C2154 C2153 1.362 . S
C2154 C2157 1.409 . S
C2155 H2147 0.930 . S
C2155 C2156 1.355 . S
C2155 C2157 1.415 . S
C2156 C2155 1.355 . S
C2156 C2158 1.419 . S
C2157 C2152 1.425 . S
C2157 C2154 1.409 . S
C2157 C2155 1.415 . S
C2158 H2148 0.930 . S
C2158 C2156 1.419 . S
C2158 C2159 1.362 . S
C2159 H2149 0.930 . S
C2159 C2152 1.409 . S
C2159 C2158 1.362 . S
C1591 C49 1.981 . S
C1596 C284 1.996 . S
C1607 C108 1.968 . S
C1612 C401 1.983 . S
C1623 C489 1.986 . S
C1628 C233 1.999 . S
C1639 C577 1.921 . S
C1644 C821 1.941 . S
C1655 C636 1.951 . S
C1660 C929 1.968 . S
C1671 C1017 1.913 . S
C1676 C761 1.926 . S
C1687 C1340 1.950 . S
C1692 C1105 1.931 . S
C1703 C1465 1.979 . S
C1708 C1173 1.963 . S
C1719 C1553 1.961 . S
C1724 C1281 1.969 . S
C1735 C29 2.636 . S
C1740 C849 2.625 . S
C1751 C145 2.647 . S
C1756 C900 2.645 . S
C1767 C1025 2.758 . S
C1772 C205 2.757 . S
C1783 C313 2.628 . S
C1788 C1085 2.626 . S
C1799 C372 2.670 . S
C1804 C1193 2.676 . S
C1815 C497 2.771 . S
C1820 C1252 2.770 . S
C1831 C557 2.685 . S
C1836 C1369 2.686 . S
C1847 C673 2.710 . S
C1852 C1437 2.705 . S
C1863 C1545 2.631 . S
C1868 C733 2.625 . S
C1879 C57 0.497 . S
C1884 C381 0.360 . S
C1895 C117 0.315 . S
C1900 C460 0.147 . S
C1911 C196 0.568 . S
C1916 C321 0.306 . S
C1927 C293 0.393 . S
C1932 C137 0.153 . S
C1943 C225 0.203 . S
C1948 C409 0.321 . S
C1959 C469 0.381 . S
C1964 C20 0.282 . S
C1975 C585 0.293 . S
C1980 C909 0.225 . S
C1991 C988 0.295 . S
C1996 C645 0.425 . S
C2007 C841 0.290 . S
C2012 C724 0.523 . S
C2023 C665 0.331 . S
C2028 C812 0.569 . S
C2039 C937 0.406 . S
C2044 C753 0.189 . S
C2055 C997 0.509 . S
C2060 C548 0.297 . S
C2071 C1428 0.183 . S
C2076 C1113 0.392 . S
C2087 C1525 0.352 1_545 S
C2092 C1164 0.447 . S
C2103 C1261 0.373 . S
C2108 C1377 0.170 . S
C2119 C1201 0.313 . S
C2124 C1349 0.558 . S
C2135 C1289 0.178 . S
C2140 C1457 0.379 . S
C2151 C1076 0.238 . S
C2156 C1516 0.414 . S
