# Generated by pormake.
# Topology snv-x, (7)-cn, num edge types: 1
# Building blocks:
#     Node 0, Type 0, BuildingBlock: OLANEW_clean_sbu_3, # of connection points: 7
#     Node 1, Type 0, BuildingBlock: OLANEW_clean_sbu_3, # of connection points: 7
#     Node 2, Type 0, BuildingBlock: OLANEW_clean_sbu_3, # of connection points: 7
#     Node 3, Type 0, BuildingBlock: OLANEW_clean_sbu_3, # of connection points: 7
#     Node 4, Type 0, BuildingBlock: OLANEW_clean_sbu_3, # of connection points: 7
#     Node 5, Type 0, BuildingBlock: OLANEW_clean_sbu_3, # of connection points: 7
#     Node 6, Type 0, BuildingBlock: OLANEW_clean_sbu_3, # of connection points: 7
#     Node 7, Type 0, BuildingBlock: OLANEW_clean_sbu_3, # of connection points: 7
#     Node 8, Type 0, BuildingBlock: OLANEW_clean_sbu_3, # of connection points: 7
#     Node 9, Type 0, BuildingBlock: OLANEW_clean_sbu_3, # of connection points: 7
#     Node 10, Type 0, BuildingBlock: OLANEW_clean_sbu_3, # of connection points: 7
#     Node 11, Type 0, BuildingBlock: OLANEW_clean_sbu_3, # of connection points: 7
#     Node 12, Type 0, BuildingBlock: OLANEW_clean_sbu_3, # of connection points: 7
#     Node 13, Type 0, BuildingBlock: OLANEW_clean_sbu_3, # of connection points: 7
#     Node 14, Type 0, BuildingBlock: OLANEW_clean_sbu_3, # of connection points: 7
#     Node 15, Type 0, BuildingBlock: OLANEW_clean_sbu_3, # of connection points: 7
#     Node 16, Type 0, BuildingBlock: OLANEW_clean_sbu_3, # of connection points: 7
#     Node 17, Type 0, BuildingBlock: OLANEW_clean_sbu_3, # of connection points: 7
#     Node 18, Type 0, BuildingBlock: OLANEW_clean_sbu_3, # of connection points: 7
#     Node 19, Type 0, BuildingBlock: OLANEW_clean_sbu_3, # of connection points: 7
#     Node 20, Type 0, BuildingBlock: OLANEW_clean_sbu_3, # of connection points: 7
#     Node 21, Type 0, BuildingBlock: OLANEW_clean_sbu_3, # of connection points: 7
#     Node 22, Type 0, BuildingBlock: OLANEW_clean_sbu_3, # of connection points: 7
#     Node 23, Type 0, BuildingBlock: OLANEW_clean_sbu_3, # of connection points: 7
#     Edge 24, Type (0, 0), BuildingBlock: AJUNOK_clean_linker_0, # of connection points: 2
#     Edge 25, Type (0, 0), BuildingBlock: AJUNOK_clean_linker_0, # of connection points: 2
#     Edge 26, Type (0, 0), BuildingBlock: AJUNOK_clean_linker_0, # of connection points: 2
#     Edge 27, Type (0, 0), BuildingBlock: AJUNOK_clean_linker_0, # of connection points: 2
#     Edge 28, Type (0, 0), BuildingBlock: AJUNOK_clean_linker_0, # of connection points: 2
#     Edge 29, Type (0, 0), BuildingBlock: AJUNOK_clean_linker_0, # of connection points: 2
#     Edge 30, Type (0, 0), BuildingBlock: AJUNOK_clean_linker_0, # of connection points: 2
#     Edge 31, Type (0, 0), BuildingBlock: AJUNOK_clean_linker_0, # of connection points: 2
#     Edge 32, Type (0, 0), BuildingBlock: AJUNOK_clean_linker_0, # of connection points: 2
#     Edge 33, Type (0, 0), BuildingBlock: AJUNOK_clean_linker_0, # of connection points: 2
#     Edge 34, Type (0, 0), BuildingBlock: AJUNOK_clean_linker_0, # of connection points: 2
#     Edge 35, Type (0, 0), BuildingBlock: AJUNOK_clean_linker_0, # of connection points: 2
#     Edge 36, Type (0, 0), BuildingBlock: AJUNOK_clean_linker_0, # of connection points: 2
#     Edge 37, Type (0, 0), BuildingBlock: AJUNOK_clean_linker_0, # of connection points: 2
#     Edge 38, Type (0, 0), BuildingBlock: AJUNOK_clean_linker_0, # of connection points: 2
#     Edge 39, Type (0, 0), BuildingBlock: AJUNOK_clean_linker_0, # of connection points: 2
#     Edge 40, Type (0, 0), BuildingBlock: AJUNOK_clean_linker_0, # of connection points: 2
#     Edge 41, Type (0, 0), BuildingBlock: AJUNOK_clean_linker_0, # of connection points: 2
#     Edge 42, Type (0, 0), BuildingBlock: AJUNOK_clean_linker_0, # of connection points: 2
#     Edge 43, Type (0, 0), BuildingBlock: AJUNOK_clean_linker_0, # of connection points: 2
#     Edge 44, Type (0, 0), BuildingBlock: AJUNOK_clean_linker_0, # of connection points: 2
#     Edge 45, Type (0, 0), BuildingBlock: AJUNOK_clean_linker_0, # of connection points: 2
#     Edge 46, Type (0, 0), BuildingBlock: AJUNOK_clean_linker_0, # of connection points: 2
#     Edge 47, Type (0, 0), BuildingBlock: AJUNOK_clean_linker_0, # of connection points: 2
#     Edge 48, Type (0, 0), BuildingBlock: AJUNOK_clean_linker_0, # of connection points: 2
#     Edge 49, Type (0, 0), BuildingBlock: AJUNOK_clean_linker_0, # of connection points: 2
#     Edge 50, Type (0, 0), BuildingBlock: AJUNOK_clean_linker_0, # of connection points: 2
#     Edge 51, Type (0, 0), BuildingBlock: AJUNOK_clean_linker_0, # of connection points: 2
#     Edge 52, Type (0, 0), BuildingBlock: AJUNOK_clean_linker_0, # of connection points: 2
#     Edge 53, Type (0, 0), BuildingBlock: AJUNOK_clean_linker_0, # of connection points: 2
#     Edge 54, Type (0, 0), BuildingBlock: AJUNOK_clean_linker_0, # of connection points: 2
#     Edge 55, Type (0, 0), BuildingBlock: AJUNOK_clean_linker_0, # of connection points: 2
#     Edge 56, Type (0, 0), BuildingBlock: AJUNOK_clean_linker_0, # of connection points: 2
#     Edge 57, Type (0, 0), BuildingBlock: AJUNOK_clean_linker_0, # of connection points: 2
#     Edge 58, Type (0, 0), BuildingBlock: AJUNOK_clean_linker_0, # of connection points: 2
#     Edge 59, Type (0, 0), BuildingBlock: AJUNOK_clean_linker_0, # of connection points: 2
#     Edge 60, Type (0, 0), BuildingBlock: AJUNOK_clean_linker_0, # of connection points: 2
#     Edge 61, Type (0, 0), BuildingBlock: AJUNOK_clean_linker_0, # of connection points: 2
#     Edge 62, Type (0, 0), BuildingBlock: AJUNOK_clean_linker_0, # of connection points: 2
#     Edge 63, Type (0, 0), BuildingBlock: AJUNOK_clean_linker_0, # of connection points: 2
#     Edge 64, Type (0, 0), BuildingBlock: AJUNOK_clean_linker_0, # of connection points: 2
#     Edge 65, Type (0, 0), BuildingBlock: AJUNOK_clean_linker_0, # of connection points: 2
#     Edge 66, Type (0, 0), BuildingBlock: AJUNOK_clean_linker_0, # of connection points: 2
#     Edge 67, Type (0, 0), BuildingBlock: AJUNOK_clean_linker_0, # of connection points: 2
#     Edge 68, Type (0, 0), BuildingBlock: AJUNOK_clean_linker_0, # of connection points: 2
#     Edge 69, Type (0, 0), BuildingBlock: AJUNOK_clean_linker_0, # of connection points: 2
#     Edge 70, Type (0, 0), BuildingBlock: AJUNOK_clean_linker_0, # of connection points: 2
#     Edge 71, Type (0, 0), BuildingBlock: AJUNOK_clean_linker_0, # of connection points: 2
#     Edge 72, Type (0, 0), BuildingBlock: AJUNOK_clean_linker_0, # of connection points: 2
#     Edge 73, Type (0, 0), BuildingBlock: AJUNOK_clean_linker_0, # of connection points: 2
#     Edge 74, Type (0, 0), BuildingBlock: AJUNOK_clean_linker_0, # of connection points: 2
#     Edge 75, Type (0, 0), BuildingBlock: AJUNOK_clean_linker_0, # of connection points: 2
#     Edge 76, Type (0, 0), BuildingBlock: AJUNOK_clean_linker_0, # of connection points: 2
#     Edge 77, Type (0, 0), BuildingBlock: AJUNOK_clean_linker_0, # of connection points: 2
#     Edge 78, Type (0, 0), BuildingBlock: AJUNOK_clean_linker_0, # of connection points: 2
#     Edge 79, Type (0, 0), BuildingBlock: AJUNOK_clean_linker_0, # of connection points: 2
#     Edge 80, Type (0, 0), BuildingBlock: AJUNOK_clean_linker_0, # of connection points: 2
#     Edge 81, Type (0, 0), BuildingBlock: AJUNOK_clean_linker_0, # of connection points: 2
#     Edge 82, Type (0, 0), BuildingBlock: AJUNOK_clean_linker_0, # of connection points: 2
#     Edge 83, Type (0, 0), BuildingBlock: AJUNOK_clean_linker_0, # of connection points: 2
#     Edge 84, Type (0, 0), BuildingBlock: AJUNOK_clean_linker_0, # of connection points: 2
#     Edge 85, Type (0, 0), BuildingBlock: AJUNOK_clean_linker_0, # of connection points: 2
#     Edge 86, Type (0, 0), BuildingBlock: AJUNOK_clean_linker_0, # of connection points: 2
#     Edge 87, Type (0, 0), BuildingBlock: AJUNOK_clean_linker_0, # of connection points: 2
#     Edge 88, Type (0, 0), BuildingBlock: AJUNOK_clean_linker_0, # of connection points: 2
#     Edge 89, Type (0, 0), BuildingBlock: AJUNOK_clean_linker_0, # of connection points: 2
#     Edge 90, Type (0, 0), BuildingBlock: AJUNOK_clean_linker_0, # of connection points: 2
#     Edge 91, Type (0, 0), BuildingBlock: AJUNOK_clean_linker_0, # of connection points: 2
#     Edge 92, Type (0, 0), BuildingBlock: AJUNOK_clean_linker_0, # of connection points: 2
#     Edge 93, Type (0, 0), BuildingBlock: AJUNOK_clean_linker_0, # of connection points: 2
#     Edge 94, Type (0, 0), BuildingBlock: AJUNOK_clean_linker_0, # of connection points: 2
#     Edge 95, Type (0, 0), BuildingBlock: AJUNOK_clean_linker_0, # of connection points: 2
#     Edge 96, Type (0, 0), BuildingBlock: AJUNOK_clean_linker_0, # of connection points: 2
#     Edge 97, Type (0, 0), BuildingBlock: AJUNOK_clean_linker_0, # of connection points: 2
#     Edge 98, Type (0, 0), BuildingBlock: AJUNOK_clean_linker_0, # of connection points: 2
#     Edge 99, Type (0, 0), BuildingBlock: AJUNOK_clean_linker_0, # of connection points: 2
#     Edge 100, Type (0, 0), BuildingBlock: AJUNOK_clean_linker_0, # of connection points: 2
#     Edge 101, Type (0, 0), BuildingBlock: AJUNOK_clean_linker_0, # of connection points: 2
#     Edge 102, Type (0, 0), BuildingBlock: AJUNOK_clean_linker_0, # of connection points: 2
#     Edge 103, Type (0, 0), BuildingBlock: AJUNOK_clean_linker_0, # of connection points: 2
#     Edge 104, Type (0, 0), BuildingBlock: AJUNOK_clean_linker_0, # of connection points: 2
#     Edge 105, Type (0, 0), BuildingBlock: AJUNOK_clean_linker_0, # of connection points: 2
#     Edge 106, Type (0, 0), BuildingBlock: AJUNOK_clean_linker_0, # of connection points: 2
#     Edge 107, Type (0, 0), BuildingBlock: AJUNOK_clean_linker_0, # of connection points: 2
# Relax obj value: 0.242
# Max RMSD: 0.259
# Mean RMSD: 0.259
data_MOF--net-snv-x--node1-OLANEW_clean_sbu_3--edge1-AJUNOK_clean_linker_0
_symmetry_space_group_name_H-M    P1
_symmetry_Int_Tables_number       1
_symmetry_cell_setting            triclinic
loop_
_symmetry_equiv_pos_as_xyz
'x, y, z'
_cell_length_a     54.205908
_cell_length_b     54.138553
_cell_length_c     54.225279
_cell_angle_alpha  89.950248
_cell_angle_beta   90.035157
_cell_angle_gamma 90.163435
loop_
_atom_site_label
_atom_site_type_symbol
_atom_site_fract_x
_atom_site_fract_y
_atom_site_fract_z
_atom_type_partial_charge
C0 C 0.21049 0.44427 0.34808 0.0
C1 C 0.21278 0.46494 0.3634 0.0
C2 C 0.191 0.47487 0.37382 0.0
C3 C 0.16772 0.46389 0.36917 0.0
C4 C 0.16688 0.44331 0.35363 0.0
N5 N 0.18793 0.43527 0.34386 0.0
C6 C 0.14553 0.42772 0.34676 0.0
C7 C 0.13259 0.39133 0.32226 0.0
C8 C 0.12023 0.3764 0.33952 0.0
C9 C 0.10316 0.35872 0.33161 0.0
C10 C 0.09823 0.35589 0.30648 0.0
C11 C 0.11029 0.37083 0.28925 0.0
C12 C 0.12739 0.38853 0.29709 0.0
Cd13 Cd 0.09223 0.45956 0.3524 0.0
Cd14 Cd 0.09184 0.53104 0.3094 0.0
C15 C 0.23671 0.38598 0.32187 0.0
C16 C 0.25943 0.36456 0.29016 0.0
C17 C 0.25706 0.34259 0.30373 0.0
C18 C 0.24571 0.34253 0.32691 0.0
C19 C 0.23664 0.36461 0.33639 0.0
C20 C 0.24878 0.38626 0.29909 0.0
Co21 Co 0.18613 0.40551 0.32788 0.0
N22 N 0.18422 0.38605 0.35831 0.0
N23 N 0.18428 0.37567 0.3119 0.0
C24 C 0.18032 0.35583 0.32597 0.0
C25 C 0.17785 0.33286 0.31444 0.0
C26 C 0.17966 0.33201 0.28841 0.0
C27 C 0.18376 0.35382 0.27455 0.0
C28 C 0.18604 0.37613 0.28737 0.0
N29 N 0.18829 0.41992 0.2946 0.0
N30 N 0.15055 0.4092 0.33015 0.0
N31 N 0.22161 0.40619 0.32888 0.0
O32 O 0.05696 0.50649 0.29566 0.0
O33 O 0.07966 0.47995 0.31501 0.0
C34 C 0.04765 0.43217 0.37359 0.0
O35 O 0.05814 0.42516 0.35368 0.0
O36 O 0.05637 0.45221 0.38244 0.0
C37 C 0.10555 0.51212 0.37011 0.0
O38 O 0.10507 0.49232 0.38265 0.0
O39 O 0.09615 0.51121 0.34884 0.0
C40 C 0.17987 0.36175 0.3525 0.0
O41 O 0.1779 0.3445 0.36948 0.0
O42 O 0.12214 0.47858 0.31677 0.0
O43 O 0.12697 0.51155 0.29221 0.0
C44 C 0.18874 0.40136 0.27744 0.0
O45 O 0.18852 0.40587 0.25361 0.0
C46 C 0.1849 0.44538 0.28784 0.0
C47 C 0.16266 0.45597 0.29408 0.0
C48 C 0.15748 0.4804 0.28901 0.0
C49 C 0.17436 0.4942 0.27413 0.0
C50 C 0.19679 0.48348 0.26559 0.0
C51 C 0.20206 0.45891 0.27326 0.0
C52 C 0.05846 0.48744 0.30927 0.0
O53 O 0.12398 0.42891 0.35905 0.0
C54 C 0.13422 0.49052 0.29967 0.0
C55 C 0.18666 0.39451 0.38339 0.0
C56 C 0.2093 0.40386 0.39178 0.0
C57 C 0.21242 0.41065 0.41636 0.0
C58 C 0.19322 0.40751 0.43313 0.0
C59 C 0.17083 0.397 0.4255 0.0
C60 C 0.16743 0.39082 0.40052 0.0
C61 C 0.23001 0.42804 0.33835 0.0
O62 O 0.25361 0.43237 0.34195 0.0
H63 H 0.23068 0.47265 0.36784 0.0
H64 H 0.19221 0.49071 0.38592 0.0
H65 H 0.15116 0.47108 0.37761 0.0
H66 H 0.12396 0.37823 0.35901 0.0
H67 H 0.08502 0.34219 0.30039 0.0
H68 H 0.13639 0.40012 0.28355 0.0
H69 H 0.26583 0.32585 0.29713 0.0
H70 H 0.22886 0.36498 0.35472 0.0
H71 H 0.24966 0.40316 0.28838 0.0
H72 H 0.17474 0.3162 0.32505 0.0
H73 H 0.17783 0.31449 0.27898 0.0
H74 H 0.18484 0.35321 0.25463 0.0
H75 H 0.14862 0.44467 0.3023 0.0
H76 H 0.17016 0.51313 0.26926 0.0
H77 H 0.21903 0.45014 0.26745 0.0
H78 H 0.22505 0.40487 0.37976 0.0
H79 H 0.19627 0.41222 0.4523 0.0
H80 H 0.15033 0.38228 0.39466 0.0
C81 C 0.57515 0.21116 0.33916 0.0
C82 C 0.55394 0.2151 0.35331 0.0
C83 C 0.54343 0.19456 0.3657 0.0
C84 C 0.55415 0.17079 0.36387 0.0
C85 C 0.57527 0.16824 0.34933 0.0
N86 N 0.58415 0.18824 0.33802 0.0
C87 C 0.59068 0.14613 0.34511 0.0
C88 C 0.62772 0.13075 0.32327 0.0
C89 C 0.64193 0.11979 0.34196 0.0
C90 C 0.65942 0.10183 0.33608 0.0
C91 C 0.66278 0.09465 0.31157 0.0
C92 C 0.64857 0.10535 0.29293 0.0
C93 C 0.63105 0.12331 0.29875 0.0
Cd94 Cd 0.5584 0.09273 0.35238 0.0
Cd95 Cd 0.48748 0.09157 0.30871 0.0
C96 C 0.63541 0.23417 0.3141 0.0
C97 C 0.66123 0.25278 0.28263 0.0
C98 C 0.6809 0.25289 0.29946 0.0
C99 C 0.6773 0.24564 0.3239 0.0
C100 C 0.65431 0.23696 0.33133 0.0
C101 C 0.63848 0.24272 0.28987 0.0
Co102 Co 0.61444 0.18471 0.32352 0.0
N103 N 0.63296 0.18576 0.35475 0.0
N104 N 0.64469 0.18118 0.30879 0.0
C105 C 0.66419 0.17969 0.32375 0.0
C106 C 0.6876 0.17762 0.31311 0.0
C107 C 0.68921 0.17719 0.28704 0.0
C108 C 0.66773 0.17887 0.27225 0.0
C109 C 0.64496 0.18099 0.28418 0.0
N110 N 0.60109 0.18383 0.28998 0.0
N111 N 0.61003 0.14953 0.32904 0.0
N112 N 0.61426 0.22009 0.32071 0.0
O113 O 0.51247 0.05704 0.29517 0.0
O114 O 0.53907 0.07977 0.31453 0.0
C115 C 0.5856 0.04768 0.37319 0.0
O116 O 0.59387 0.06016 0.35494 0.0
O117 O 0.56456 0.05487 0.38086 0.0
C118 C 0.50575 0.10615 0.36921 0.0
O119 O 0.5253 0.10607 0.38211 0.0
O120 O 0.50711 0.0964 0.34814 0.0
C121 C 0.65748 0.18168 0.35008 0.0
O122 O 0.67415 0.18145 0.3677 0.0
O123 O 0.53977 0.12147 0.31558 0.0
O124 O 0.50705 0.12639 0.29083 0.0
C125 C 0.62003 0.18269 0.27333 0.0
O126 O 0.61611 0.18096 0.24947 0.0
C127 C 0.57561 0.18107 0.28319 0.0
C128 C 0.56416 0.15955 0.29032 0.0
C129 C 0.53935 0.15567 0.28629 0.0
C130 C 0.52607 0.17277 0.27118 0.0
C131 C 0.53753 0.19467 0.2615 0.0
C132 C 0.56251 0.19886 0.26913 0.0
C133 C 0.5312 0.05853 0.30919 0.0
O134 O 0.58838 0.12557 0.35901 0.0
C135 C 0.52828 0.13331 0.29805 0.0
C136 C 0.6228 0.18829 0.37924 0.0
C137 C 0.60854 0.2089 0.38488 0.0
C138 C 0.59303 0.20853 0.40519 0.0
C139 C 0.59383 0.18889 0.42166 0.0
C140 C 0.61247 0.17073 0.42001 0.0
C141 C 0.62616 0.16998 0.39759 0.0
C142 C 0.59222 0.22958 0.32837 0.0
O143 O 0.58834 0.25349 0.32978 0.0
H144 H 0.54637 0.23342 0.3556 0.0
H145 H 0.52732 0.19716 0.37717 0.0
H146 H 0.5464 0.1552 0.37371 0.0
H147 H 0.63964 0.12525 0.36099 0.0
H148 H 0.67633 0.08076 0.30704 0.0
H149 H 0.62 0.13122 0.28415 0.0
H150 H 0.69825 0.26166 0.29452 0.0
H151 H 0.65118 0.23225 0.35048 0.0
H152 H 0.6232 0.24192 0.27699 0.0
H153 H 0.70404 0.17661 0.32439 0.0
H154 H 0.70708 0.17564 0.2783 0.0
H155 H 0.66896 0.17854 0.25233 0.0
H156 H 0.57495 0.14536 0.29908 0.0
H157 H 0.50704 0.16869 0.26684 0.0
H158 H 0.57201 0.21585 0.26478 0.0
H159 H 0.60847 0.22485 0.37305 0.0
H160 H 0.57974 0.18857 0.43563 0.0
H161 H 0.63937 0.15555 0.3941 0.0
C162 C 0.80547 0.57365 0.33757 0.0
C163 C 0.80213 0.55106 0.3497 0.0
C164 C 0.82329 0.53906 0.35923 0.0
C165 C 0.84704 0.54978 0.35677 0.0
C166 C 0.84903 0.57231 0.34429 0.0
N167 N 0.8284 0.58257 0.33565 0.0
C168 C 0.87123 0.58773 0.33976 0.0
C169 C 0.88544 0.62711 0.32108 0.0
C170 C 0.89793 0.63839 0.34083 0.0
C171 C 0.9154 0.65688 0.33638 0.0
C172 C 0.92058 0.66423 0.31224 0.0
C173 C 0.90832 0.65306 0.29251 0.0
C174 C 0.89083 0.63456 0.29688 0.0
Cd175 Cd 0.92993 0.55875 0.34604 0.0
Cd176 Cd 0.93269 0.53004 0.31061 0.0
C177 C 0.78214 0.63612 0.31906 0.0
C178 C 0.76478 0.66512 0.28981 0.0
C179 C 0.76554 0.68341 0.30808 0.0
C180 C 0.77331 0.67788 0.33206 0.0
C181 C 0.78079 0.6539 0.33772 0.0
C182 C 0.77358 0.64147 0.29532 0.0
Co183 Co 0.83147 0.61369 0.32279 0.0
N184 N 0.83349 0.63044 0.35493 0.0
N185 N 0.83446 0.64474 0.30946 0.0
C186 C 0.83781 0.66333 0.32522 0.0
C187 C 0.84034 0.68722 0.31569 0.0
C188 C 0.83872 0.69036 0.28982 0.0
C189 C 0.83477 0.66985 0.27413 0.0
C190 C 0.8326 0.64648 0.28497 0.0
N191 N 0.82889 0.60231 0.28834 0.0
N192 N 0.86703 0.60846 0.32549 0.0
N193 N 0.79607 0.61431 0.32317 0.0
O194 O 0.96294 0.5024 0.31186 0.0
O195 O 0.96015 0.52239 0.34724 0.0
C196 C 0.96743 0.59387 0.36977 0.0
O197 O 0.96619 0.59116 0.34633 0.0
O198 O 0.95091 0.58198 0.38161 0.0
C199 C 0.90393 0.50912 0.36256 0.0
O200 O 0.91175 0.52796 0.37424 0.0
O201 O 0.90817 0.5073 0.33967 0.0
C202 C 0.83758 0.65522 0.35117 0.0
O203 O 0.83896 0.67106 0.36949 0.0
O204 O 0.89733 0.55247 0.30786 0.0
O205 O 0.90403 0.52475 0.27839 0.0
C206 C 0.82926 0.62232 0.27287 0.0
O207 O 0.82988 0.61989 0.24876 0.0
C208 C 0.83434 0.57798 0.27945 0.0
C209 C 0.85835 0.57078 0.28185 0.0
C210 C 0.86572 0.547 0.27718 0.0
C211 C 0.84906 0.53066 0.26476 0.0
C212 C 0.82452 0.53854 0.25836 0.0
C213 C 0.81724 0.5624 0.26705 0.0
C214 C 0.96902 0.50476 0.3343 0.0
O215 O 0.89236 0.58463 0.35295 0.0
C216 C 0.89017 0.54081 0.28813 0.0
C217 C 0.8328 0.61934 0.37916 0.0
C218 C 0.81274 0.60452 0.38598 0.0
C219 C 0.81271 0.59186 0.40827 0.0
C220 C 0.8318 0.59539 0.42501 0.0
C221 C 0.85021 0.61321 0.42046 0.0
C222 C 0.85131 0.62431 0.39692 0.0
C223 C 0.78668 0.59177 0.32964 0.0
O224 O 0.76288 0.58798 0.33242 0.0
H225 H 0.78389 0.54338 0.35248 0.0
H226 H 0.82123 0.52172 0.36898 0.0
H227 H 0.86305 0.54091 0.36457 0.0
H228 H 0.89406 0.63309 0.35964 0.0
H229 H 0.9341 0.67855 0.30882 0.0
H230 H 0.88166 0.62608 0.28134 0.0
H231 H 0.75769 0.70147 0.30439 0.0
H232 H 0.78632 0.64932 0.35636 0.0
H233 H 0.77383 0.62728 0.28124 0.0
H234 H 0.84338 0.70288 0.3277 0.0
H235 H 0.84053 0.70865 0.28195 0.0
H236 H 0.83359 0.67221 0.25434 0.0
H237 H 0.87169 0.58405 0.28831 0.0
H238 H 0.85492 0.51201 0.26072 0.0
H239 H 0.79877 0.56916 0.26366 0.0
H240 H 0.79666 0.60316 0.37453 0.0
H241 H 0.83118 0.58539 0.4423 0.0
H242 H 0.86582 0.63744 0.39283 0.0
C243 C 0.44364 0.8045 0.34633 0.0
C244 C 0.46457 0.80195 0.3612 0.0
C245 C 0.4757 0.82369 0.37061 0.0
C246 C 0.4656 0.84723 0.36547 0.0
C247 C 0.44475 0.84843 0.35032 0.0
N248 N 0.43555 0.82729 0.34146 0.0
C249 C 0.4296 0.87026 0.34377 0.0
C250 C 0.39153 0.88326 0.322 0.0
C251 C 0.37899 0.89653 0.34039 0.0
C252 C 0.3609 0.91371 0.33396 0.0
C253 C 0.3552 0.91784 0.30919 0.0
C254 C 0.36758 0.90477 0.29081 0.0
C255 C 0.38567 0.88756 0.29715 0.0
Cd256 Cd 0.45831 0.92928 0.34906 0.0
Cd257 Cd 0.48425 0.93445 0.31142 0.0
C258 C 0.38385 0.77935 0.32163 0.0
C259 C 0.36071 0.75906 0.28919 0.0
C260 C 0.33923 0.76157 0.30337 0.0
C261 C 0.34001 0.77205 0.32694 0.0
C262 C 0.36268 0.77989 0.33639 0.0
C263 C 0.38308 0.76827 0.29831 0.0
Co264 Co 0.40519 0.82941 0.32678 0.0
N265 N 0.3873 0.83229 0.35801 0.0
N266 N 0.37479 0.83166 0.3121 0.0
C267 C 0.35572 0.83613 0.32696 0.0
C268 C 0.33224 0.83823 0.31646 0.0
C269 C 0.33011 0.83554 0.29057 0.0
C270 C 0.35114 0.83075 0.27587 0.0
C271 C 0.37401 0.82879 0.28769 0.0
N272 N 0.4181 0.82572 0.29278 0.0
N273 N 0.40987 0.8652 0.32846 0.0
N274 N 0.40463 0.79394 0.32853 0.0
O275 O 0.51141 0.96544 0.31309 0.0
O276 O 0.49389 0.96043 0.34956 0.0
C277 C 0.42432 0.96621 0.37496 0.0
O278 O 0.42594 0.96545 0.35138 0.0
O279 O 0.43666 0.94943 0.38589 0.0
C280 C 0.50785 0.90436 0.36279 0.0
O281 O 0.48953 0.9108 0.37591 0.0
O282 O 0.50833 0.91032 0.34021 0.0
C283 C 0.36287 0.83691 0.3532 0.0
O284 O 0.34645 0.83921 0.37088 0.0
O285 O 0.46628 0.89637 0.31126 0.0
O286 O 0.49097 0.90506 0.2797 0.0
C287 C 0.3986 0.8251 0.27666 0.0
O288 O 0.40184 0.8249 0.25262 0.0
C289 C 0.44254 0.83174 0.28424 0.0
C290 C 0.44923 0.8559 0.28684 0.0
C291 C 0.47225 0.86457 0.28079 0.0
C292 C 0.48847 0.84885 0.2671 0.0
C293 C 0.48136 0.82388 0.26108 0.0
C294 C 0.45808 0.81553 0.27061 0.0
C295 C 0.51042 0.97034 0.33592 0.0
O296 O 0.43182 0.89205 0.35606 0.0
C297 C 0.47733 0.88974 0.29101 0.0
C298 C 0.39646 0.82914 0.3828 0.0
C299 C 0.40338 0.80568 0.3912 0.0
C300 C 0.40908 0.80179 0.41596 0.0
C301 C 0.40706 0.82099 0.43292 0.0
C302 C 0.39886 0.84442 0.42537 0.0
C303 C 0.39469 0.84857 0.39995 0.0
C304 C 0.42638 0.78516 0.33769 0.0
O305 O 0.43007 0.7615 0.34166 0.0
H306 H 0.47157 0.78391 0.36613 0.0
H307 H 0.49171 0.82226 0.38246 0.0
H308 H 0.47353 0.86371 0.37347 0.0
H309 H 0.38294 0.89346 0.35967 0.0
H310 H 0.3412 0.93115 0.30425 0.0
H311 H 0.39505 0.87775 0.2826 0.0
H312 H 0.32209 0.75349 0.29684 0.0
H313 H 0.36364 0.78732 0.35486 0.0
H314 H 0.39968 0.76724 0.28723 0.0
H315 H 0.31614 0.8416 0.32774 0.0
H316 H 0.31218 0.83709 0.28192 0.0
H317 H 0.34952 0.82881 0.25607 0.0
H318 H 0.43578 0.86873 0.29351 0.0
H319 H 0.50638 0.85576 0.26156 0.0
H320 H 0.4516 0.79701 0.26677 0.0
H321 H 0.40314 0.78995 0.37911 0.0
H322 H 0.41045 0.81696 0.45218 0.0
H323 H 0.38891 0.86656 0.39354 0.0
C324 C 0.20949 0.577 0.67422 0.0
C325 C 0.2138 0.55554 0.66054 0.0
C326 C 0.1932 0.54338 0.64992 0.0
C327 C 0.16907 0.55296 0.65277 0.0
C328 C 0.16619 0.57448 0.66667 0.0
N329 N 0.18624 0.5847 0.67661 0.0
C330 C 0.14348 0.58866 0.67194 0.0
C331 C 0.12757 0.62581 0.69327 0.0
C332 C 0.11539 0.63887 0.67448 0.0
C333 C 0.09754 0.65645 0.68041 0.0
C334 C 0.09167 0.66104 0.70506 0.0
C335 C 0.1036 0.648 0.72382 0.0
C336 C 0.12146 0.6304 0.71796 0.0
Cd337 Cd 0.09098 0.553 0.65982 0.0
Cd338 Cd 0.11414 0.47864 0.68666 0.0
C339 C 0.23088 0.63831 0.69863 0.0
C340 C 0.25545 0.66001 0.72874 0.0
C341 C 0.25076 0.68223 0.71642 0.0
C342 C 0.23834 0.68228 0.69378 0.0
C343 C 0.22946 0.6599 0.68445 0.0
C344 C 0.24466 0.63811 0.7204 0.0
Co345 Co 0.18182 0.61493 0.69092 0.0
N346 N 0.17993 0.63274 0.65937 0.0
N347 N 0.17739 0.64523 0.7053 0.0
C348 C 0.17325 0.66417 0.69011 0.0
C349 C 0.17068 0.68774 0.70036 0.0
C350 C 0.17239 0.69005 0.72631 0.0
C351 C 0.17663 0.6691 0.74138 0.0
C352 C 0.1792 0.64615 0.72983 0.0
N353 N 0.18352 0.60216 0.72501 0.0
N354 N 0.14671 0.60852 0.68746 0.0
N355 N 0.21731 0.61693 0.69139 0.0
O356 O 0.0727 0.48108 0.69858 0.0
O357 O 0.06821 0.51815 0.68109 0.0
C358 C 0.04962 0.58424 0.63644 0.0
O359 O 0.05406 0.58515 0.65964 0.0
O360 O 0.06334 0.56912 0.62489 0.0
C361 C 0.11348 0.50979 0.63535 0.0
O362 O 0.10904 0.52954 0.62381 0.0
O363 O 0.10842 0.50954 0.65783 0.0
C364 C 0.17397 0.65697 0.66386 0.0
O365 O 0.17226 0.67339 0.64606 0.0
O366 O 0.12299 0.54053 0.69753 0.0
O367 O 0.13518 0.50455 0.71434 0.0
C368 C 0.18292 0.62161 0.74114 0.0
O369 O 0.1826 0.61834 0.76517 0.0
C370 C 0.18038 0.5769 0.73293 0.0
C371 C 0.15866 0.56527 0.72625 0.0
C372 C 0.15553 0.54011 0.729 0.0
C373 C 0.17294 0.52682 0.74378 0.0
C374 C 0.19392 0.5388 0.75432 0.0
C375 C 0.19789 0.564 0.74773 0.0
C376 C 0.05932 0.49923 0.69213 0.0
O377 O 0.12263 0.58549 0.65866 0.0
C378 C 0.1359 0.528 0.71367 0.0
C379 C 0.1849 0.62356 0.63485 0.0
C380 C 0.20852 0.61493 0.62889 0.0
C381 C 0.21411 0.60719 0.60507 0.0
C382 C 0.19657 0.60899 0.58644 0.0
C383 C 0.17343 0.61937 0.59132 0.0
C384 C 0.16736 0.62611 0.61571 0.0
C385 C 0.22746 0.59505 0.684 0.0
O386 O 0.25143 0.59208 0.68193 0.0
H387 H 0.23234 0.54881 0.65753 0.0
H388 H 0.196 0.52684 0.63911 0.0
H389 H 0.15339 0.544 0.64433 0.0
H390 H 0.11996 0.63576 0.65532 0.0
H391 H 0.07787 0.67468 0.70963 0.0
H392 H 0.13046 0.62037 0.73267 0.0
H393 H 0.26004 0.69891 0.72262 0.0
H394 H 0.22169 0.65928 0.66614 0.0
H395 H 0.24778 0.62091 0.73013 0.0
H396 H 0.16781 0.7038 0.68882 0.0
H397 H 0.17053 0.70806 0.73473 0.0
H398 H 0.17783 0.67085 0.76122 0.0
H399 H 0.14412 0.57587 0.71803 0.0
H400 H 0.17038 0.50722 0.74689 0.0
H401 H 0.2143 0.57352 0.7541 0.0
H402 H 0.22325 0.61542 0.6421 0.0
H403 H 0.20167 0.60382 0.56784 0.0
H404 H 0.14967 0.63452 0.61953 0.0
C405 C 0.44564 0.20895 0.66893 0.0
C406 C 0.46631 0.21081 0.65361 0.0
C407 C 0.47654 0.18873 0.64427 0.0
C408 C 0.46596 0.16555 0.65014 0.0
C409 C 0.4456 0.16504 0.66595 0.0
N410 N 0.43701 0.18648 0.67448 0.0
C411 C 0.43028 0.14362 0.67331 0.0
C412 C 0.39181 0.13167 0.69505 0.0
C413 C 0.37924 0.11802 0.6769 0.0
C414 C 0.36083 0.1012 0.68362 0.0
C415 C 0.35487 0.09783 0.70845 0.0
C416 C 0.36731 0.11128 0.72659 0.0
C417 C 0.38571 0.12814 0.71995 0.0
Cd418 Cd 0.46282 0.08655 0.66905 0.0
Cd419 Cd 0.49173 0.08478 0.70468 0.0
C420 C 0.38718 0.23636 0.69294 0.0
C421 C 0.36783 0.26428 0.72164 0.0
C422 C 0.34551 0.26145 0.70887 0.0
C423 C 0.34451 0.24732 0.68734 0.0
C424 C 0.36562 0.23562 0.67895 0.0
C425 C 0.38868 0.25127 0.71398 0.0
Co426 Co 0.40638 0.18524 0.68895 0.0
N427 N 0.38853 0.18176 0.65766 0.0
N428 N 0.37568 0.18394 0.70335 0.0
C429 C 0.35666 0.17922 0.68846 0.0
C430 C 0.33301 0.17795 0.6987 0.0
C431 C 0.33062 0.18162 0.72442 0.0
C432 C 0.35158 0.18653 0.73922 0.0
C433 C 0.37462 0.1877 0.72763 0.0
N434 N 0.41872 0.18955 0.723 0.0
N435 N 0.41046 0.14933 0.68826 0.0
N436 N 0.40704 0.22071 0.68635 0.0
O437 O 0.52091 0.056 0.70281 0.0
O438 O 0.49991 0.05719 0.66792 0.0
C439 C 0.42833 0.04721 0.64778 0.0
O440 O 0.43724 0.0457 0.6696 0.0
O441 O 0.43404 0.067 0.63634 0.0
C442 C 0.51106 0.1151 0.65297 0.0
O443 O 0.49351 0.10537 0.64069 0.0
O444 O 0.51263 0.11131 0.67595 0.0
C445 C 0.36402 0.17744 0.66239 0.0
O446 O 0.34765 0.17499 0.64464 0.0
O447 O 0.46863 0.11976 0.70647 0.0
O448 O 0.49564 0.11383 0.73678 0.0
C449 C 0.39911 0.19126 0.73885 0.0
O450 O 0.40209 0.19233 0.7629 0.0
C451 C 0.44294 0.18407 0.73205 0.0
C452 C 0.45023 0.16004 0.72984 0.0
C453 C 0.47355 0.15233 0.73612 0.0
C454 C 0.48936 0.16894 0.74924 0.0
C455 C 0.48114 0.1934 0.75515 0.0
C456 C 0.45777 0.20086 0.74568 0.0
C457 C 0.51804 0.04901 0.6807 0.0
O458 O 0.43289 0.12122 0.66231 0.0
C459 C 0.47981 0.12743 0.72627 0.0
C460 C 0.39743 0.18512 0.63287 0.0
C461 C 0.40379 0.2088 0.62454 0.0
C462 C 0.40869 0.21308 0.59971 0.0
C463 C 0.40691 0.19391 0.58271 0.0
C464 C 0.39991 0.17006 0.59031 0.0
C465 C 0.39541 0.16577 0.61559 0.0
C466 C 0.42906 0.22877 0.67711 0.0
O467 O 0.43344 0.25224 0.6726 0.0
H468 H 0.47364 0.22861 0.64816 0.0
H469 H 0.49222 0.18961 0.63195 0.0
H470 H 0.47304 0.14882 0.64206 0.0
H471 H 0.38342 0.12057 0.65757 0.0
H472 H 0.34063 0.0848 0.71362 0.0
H473 H 0.3952 0.13826 0.73427 0.0
H474 H 0.32942 0.27191 0.71454 0.0
H475 H 0.36523 0.22602 0.66152 0.0
H476 H 0.40586 0.25278 0.7241 0.0
H477 H 0.31696 0.17447 0.68732 0.0
H478 H 0.31256 0.18069 0.73287 0.0
H479 H 0.3498 0.18916 0.75892 0.0
H480 H 0.43717 0.14672 0.72311 0.0
H481 H 0.50757 0.16297 0.75486 0.0
H482 H 0.45108 0.21937 0.74909 0.0
H483 H 0.40352 0.22444 0.63676 0.0
H484 H 0.40979 0.19819 0.56343 0.0
H485 H 0.38942 0.1477 0.62175 0.0
C486 C 0.80579 0.4451 0.67191 0.0
C487 C 0.80248 0.46678 0.65825 0.0
C488 C 0.82363 0.47806 0.6477 0.0
C489 C 0.84731 0.46745 0.65061 0.0
C490 C 0.84919 0.44573 0.66446 0.0
N491 N 0.82866 0.43632 0.67431 0.0
C492 C 0.87126 0.4306 0.66984 0.0
C493 C 0.88569 0.39317 0.69186 0.0
C494 C 0.89781 0.37954 0.67349 0.0
C495 C 0.91531 0.36178 0.67998 0.0
C496 C 0.92091 0.3576 0.70478 0.0
C497 C 0.90909 0.37126 0.72312 0.0
C498 C 0.89157 0.38904 0.7167 0.0
Cd499 Cd 0.9258 0.46406 0.66285 0.0
Cd500 Cd 0.91763 0.53741 0.70055 0.0
C501 C 0.78172 0.38501 0.69714 0.0
C502 C 0.7606 0.36261 0.72957 0.0
C503 C 0.76316 0.34086 0.7158 0.0
C504 C 0.77377 0.34124 0.69231 0.0
C505 C 0.78178 0.36371 0.68254 0.0
C506 C 0.77039 0.38474 0.72037 0.0
Co507 Co 0.83169 0.40604 0.68907 0.0
N508 N 0.83263 0.38771 0.65789 0.0
N509 N 0.8348 0.37574 0.70395 0.0
C510 C 0.83818 0.35644 0.68909 0.0
C511 C 0.84077 0.33304 0.69974 0.0
C512 C 0.83971 0.33123 0.72577 0.0
C513 C 0.83608 0.3525 0.74049 0.0
C514 C 0.83359 0.37526 0.72853 0.0
N515 N 0.83053 0.4192 0.72287 0.0
N516 N 0.86713 0.41091 0.68545 0.0
N517 N 0.79614 0.40572 0.68964 0.0
O518 O 0.95294 0.52013 0.72104 0.0
O519 O 0.93928 0.49099 0.6971 0.0
C520 C 0.97049 0.43611 0.64234 0.0
O521 O 0.95535 0.42611 0.65744 0.0
O522 O 0.96605 0.45884 0.63803 0.0
C523 C 0.90925 0.51359 0.64143 0.0
O524 O 0.91097 0.49341 0.62966 0.0
O525 O 0.9176 0.51346 0.66312 0.0
C526 C 0.83744 0.36327 0.66276 0.0
O527 O 0.83874 0.34659 0.64521 0.0
O528 O 0.89477 0.47899 0.69896 0.0
O529 O 0.88683 0.5138 0.71994 0.0
C530 C 0.83083 0.40006 0.73939 0.0
O531 O 0.83161 0.40375 0.76335 0.0
C532 C 0.83408 0.44442 0.7303 0.0
C533 C 0.85626 0.45517 0.72404 0.0
C534 C 0.86088 0.47976 0.72841 0.0
C535 C 0.84428 0.49322 0.74363 0.0
C536 C 0.82163 0.48265 0.75231 0.0
C537 C 0.81669 0.45784 0.74466 0.0
C538 C 0.95668 0.49989 0.7099 0.0
O539 O 0.89257 0.43338 0.65714 0.0
C540 C 0.88251 0.49111 0.71571 0.0
C541 C 0.83008 0.39722 0.63314 0.0
C542 C 0.80822 0.40885 0.62576 0.0
C543 C 0.80538 0.41749 0.60169 0.0
C544 C 0.82386 0.41367 0.58428 0.0
C545 C 0.84503 0.40029 0.59064 0.0
C546 C 0.84839 0.39269 0.61528 0.0
C547 C 0.78698 0.42787 0.68174 0.0
O548 O 0.76318 0.43194 0.67971 0.0
H549 H 0.78428 0.47437 0.65522 0.0
H550 H 0.82161 0.49475 0.6369 0.0
H551 H 0.86339 0.47584 0.64224 0.0
H552 H 0.89355 0.38242 0.65424 0.0
H553 H 0.93444 0.34384 0.70978 0.0
H554 H 0.88275 0.39961 0.7311 0.0
H555 H 0.75489 0.32385 0.72249 0.0
H556 H 0.78876 0.36448 0.66389 0.0
H557 H 0.76936 0.40154 0.73117 0.0
H558 H 0.84329 0.31676 0.68847 0.0
H559 H 0.84163 0.31337 0.73452 0.0
H560 H 0.83541 0.35114 0.76039 0.0
H561 H 0.87036 0.44411 0.7157 0.0
H562 H 0.84968 0.51162 0.74898 0.0
H563 H 0.79957 0.44885 0.74969 0.0
H564 H 0.79278 0.4103 0.63807 0.0
H565 H 0.82081 0.41966 0.56547 0.0
H566 H 0.86473 0.38239 0.62028 0.0
C567 C 0.57377 0.8073 0.67231 0.0
C568 C 0.55228 0.80398 0.65836 0.0
C569 C 0.5416 0.82508 0.64717 0.0
C570 C 0.5527 0.84867 0.64964 0.0
C571 C 0.57416 0.85051 0.66384 0.0
N572 N 0.58284 0.83013 0.6745 0.0
C573 C 0.58977 0.87238 0.66888 0.0
C574 C 0.62627 0.88721 0.69213 0.0
C575 C 0.64077 0.89896 0.67411 0.0
C576 C 0.65822 0.91672 0.68098 0.0
C577 C 0.66124 0.92292 0.7058 0.0
C578 C 0.64675 0.91143 0.72378 0.0
C579 C 0.62928 0.89367 0.71699 0.0
Cd580 Cd 0.55734 0.92435 0.6602 0.0
Cd581 Cd 0.48484 0.92238 0.70102 0.0
C582 C 0.6335 0.78292 0.69716 0.0
C583 C 0.65446 0.75828 0.72768 0.0
C584 C 0.67668 0.76171 0.71488 0.0
C585 C 0.67702 0.77415 0.69226 0.0
C586 C 0.655 0.78351 0.68286 0.0
C587 C 0.63292 0.76951 0.71919 0.0
Co588 Co 0.61307 0.83317 0.68931 0.0
N589 N 0.63127 0.83392 0.65816 0.0
N590 N 0.64335 0.83631 0.70412 0.0
C591 C 0.66253 0.84009 0.68916 0.0
C592 C 0.68587 0.84325 0.69975 0.0
C593 C 0.68771 0.84251 0.7258 0.0
C594 C 0.66651 0.83875 0.74061 0.0
C595 C 0.6438 0.83563 0.72872 0.0
N596 N 0.59991 0.83251 0.7231 0.0
N597 N 0.60868 0.86855 0.68537 0.0
N598 N 0.61292 0.79759 0.69015 0.0
O599 O 0.50777 0.95813 0.7155 0.0
O600 O 0.53493 0.93576 0.69675 0.0
C601 C 0.58422 0.96968 0.63879 0.0
O602 O 0.59112 0.95927 0.65883 0.0
O603 O 0.5645 0.96051 0.62972 0.0
C604 C 0.50574 0.91017 0.64077 0.0
O605 O 0.52591 0.91113 0.6289 0.0
O606 O 0.50619 0.91893 0.66232 0.0
C607 C 0.65559 0.8393 0.66282 0.0
O608 O 0.67213 0.84074 0.64515 0.0
O609 O 0.53856 0.89344 0.69583 0.0
O610 O 0.50475 0.8875 0.71893 0.0
C611 C 0.619 0.83303 0.73965 0.0
O612 O 0.61528 0.83406 0.76358 0.0
C613 C 0.57447 0.83503 0.73015 0.0
C614 C 0.56252 0.85593 0.72218 0.0
C615 C 0.53745 0.85891 0.72502 0.0
C616 C 0.52409 0.84118 0.73953 0.0
C617 C 0.53614 0.8203 0.75066 0.0
C618 C 0.56185 0.81771 0.74527 0.0
C619 C 0.52771 0.9568 0.70327 0.0
O620 O 0.58834 0.89297 0.655 0.0
C621 C 0.52636 0.88101 0.71258 0.0
C622 C 0.6218 0.82934 0.63372 0.0
C623 C 0.61221 0.80604 0.62773 0.0
C624 C 0.60349 0.80107 0.60409 0.0
C625 C 0.60522 0.81894 0.58573 0.0
C626 C 0.61644 0.84176 0.59071 0.0
C627 C 0.62419 0.84721 0.61492 0.0
C628 C 0.5906 0.78851 0.68254 0.0
O629 O 0.58627 0.76468 0.68064 0.0
H630 H 0.54444 0.7858 0.65556 0.0
H631 H 0.52507 0.82306 0.63615 0.0
H632 H 0.54484 0.86469 0.6407 0.0
H633 H 0.63881 0.89419 0.65484 0.0
H634 H 0.67476 0.93665 0.71109 0.0
H635 H 0.61803 0.88511 0.73108 0.0
H636 H 0.69326 0.75253 0.72133 0.0
H637 H 0.65469 0.7914 0.66459 0.0
H638 H 0.61584 0.76764 0.7294 0.0
H639 H 0.70207 0.84605 0.68843 0.0
H640 H 0.70553 0.84491 0.73449 0.0
H641 H 0.66787 0.83852 0.76052 0.0
H642 H 0.57318 0.87044 0.71382 0.0
H643 H 0.50445 0.84367 0.74197 0.0
H644 H 0.57256 0.80287 0.75307 0.0
H645 H 0.61244 0.79116 0.64083 0.0
H646 H 0.59925 0.81435 0.56722 0.0
H647 H 0.63314 0.86469 0.61883 0.0
C648 C 0.3456 0.21209 0.44094 0.0
C649 C 0.35955 0.21548 0.4624 0.0
C650 C 0.36988 0.19428 0.47374 0.0
C651 C 0.36649 0.17048 0.46338 0.0
C652 C 0.35232 0.16857 0.44189 0.0
N653 N 0.34268 0.18913 0.43248 0.0
C654 C 0.34628 0.14647 0.42702 0.0
C655 C 0.32295 0.13168 0.39063 0.0
C656 C 0.34088 0.11921 0.37672 0.0
C657 C 0.33384 0.10131 0.35955 0.0
C658 C 0.30891 0.09567 0.35619 0.0
C659 C 0.291 0.10785 0.3701 0.0
C660 C 0.29798 0.12577 0.38731 0.0
Cd661 Cd 0.35115 0.09236 0.45798 0.0
Cd662 Cd 0.30941 0.09346 0.5296 0.0
C663 C 0.31869 0.23556 0.38155 0.0
C664 C 0.2861 0.25759 0.36049 0.0
C665 C 0.29938 0.2554 0.33839 0.0
C666 C 0.32266 0.24434 0.33789 0.0
C667 C 0.33267 0.23545 0.35987 0.0
C668 C 0.29565 0.24719 0.38211 0.0
Co669 Co 0.32685 0.1858 0.40286 0.0
N670 N 0.35737 0.18399 0.38352 0.0
N671 N 0.31088 0.18245 0.3732 0.0
C672 C 0.32503 0.17883 0.35342 0.0
C673 C 0.31355 0.1766 0.33041 0.0
C674 C 0.28749 0.17813 0.32951 0.0
C675 C 0.27356 0.18184 0.35128 0.0
C676 C 0.28634 0.18406 0.3736 0.0
N677 N 0.29361 0.18766 0.41725 0.0
N678 N 0.32996 0.15043 0.408 0.0
N679 N 0.32684 0.22135 0.40207 0.0
O680 O 0.29395 0.05911 0.50539 0.0
O681 O 0.31281 0.0804 0.47725 0.0
C682 C 0.37139 0.0471 0.43075 0.0
O683 O 0.35608 0.06198 0.42072 0.0
O684 O 0.37609 0.0521 0.45329 0.0
C685 C 0.37046 0.10573 0.50961 0.0
O686 O 0.38239 0.1044 0.48952 0.0
O687 O 0.34857 0.09763 0.50911 0.0
C688 C 0.3516 0.17913 0.35934 0.0
O689 O 0.36859 0.17733 0.34214 0.0
O690 O 0.31582 0.12286 0.47721 0.0
O691 O 0.29197 0.12869 0.51042 0.0
C692 C 0.27641 0.18725 0.39873 0.0
O693 O 0.25258 0.18691 0.40326 0.0
C694 C 0.28697 0.18489 0.44281 0.0
C695 C 0.29279 0.16277 0.45381 0.0
C696 C 0.28811 0.1584 0.4784 0.0
C697 C 0.27334 0.17573 0.4918 0.0
C698 C 0.26472 0.19826 0.48074 0.0
C699 C 0.27321 0.20281 0.45608 0.0
C700 C 0.30782 0.05961 0.48652 0.0
O701 O 0.35929 0.12537 0.429 0.0
C702 C 0.29901 0.13537 0.48907 0.0
C703 C 0.38246 0.18669 0.39204 0.0
C704 C 0.39038 0.20924 0.40197 0.0
C705 C 0.41484 0.21267 0.40907 0.0
C706 C 0.43202 0.19394 0.40557 0.0
C707 C 0.42499 0.17167 0.39434 0.0
C708 C 0.40003 0.16786 0.38805 0.0
C709 C 0.33551 0.23076 0.42382 0.0
O710 O 0.33773 0.25464 0.42761 0.0
H711 H 0.36287 0.23374 0.46981 0.0
H712 H 0.38084 0.19633 0.4903 0.0
H713 H 0.37466 0.15434 0.47183 0.0
H714 H 0.36024 0.12344 0.37897 0.0
H715 H 0.30348 0.08182 0.34288 0.0
H716 H 0.28392 0.13485 0.39811 0.0
H717 H 0.29259 0.26449 0.3219 0.0
H718 H 0.35117 0.22806 0.36006 0.0
H719 H 0.28538 0.2482 0.39922 0.0
H720 H 0.32421 0.17402 0.31375 0.0
H721 H 0.27811 0.17649 0.31196 0.0
H722 H 0.25364 0.18289 0.3506 0.0
H723 H 0.30079 0.14838 0.4428 0.0
H724 H 0.26841 0.17132 0.5106 0.0
H725 H 0.26968 0.22011 0.4469 0.0
H726 H 0.37808 0.22473 0.4032 0.0
H727 H 0.45106 0.19725 0.41069 0.0
H728 H 0.39455 0.15085 0.3791 0.0
C729 C 0.80675 0.34659 0.44624 0.0
C730 C 0.80449 0.36013 0.46808 0.0
C731 C 0.82629 0.36961 0.47898 0.0
C732 C 0.84957 0.36569 0.46787 0.0
C733 C 0.85051 0.35169 0.44624 0.0
N734 N 0.82933 0.34308 0.43704 0.0
C735 C 0.87207 0.3459 0.43049 0.0
C736 C 0.88461 0.32537 0.39158 0.0
C737 C 0.89795 0.34416 0.37957 0.0
C738 C 0.91499 0.33829 0.36118 0.0
C739 C 0.91889 0.31367 0.35463 0.0
C740 C 0.90573 0.29489 0.36645 0.0
C741 C 0.88866 0.30068 0.38484 0.0
Cd742 Cd 0.9304 0.34991 0.45985 0.0
Cd743 Cd 0.93515 0.31231 0.48562 0.0
C744 C 0.78056 0.32569 0.3858 0.0
C745 C 0.75704 0.29579 0.36274 0.0
C746 C 0.76084 0.30968 0.34131 0.0
C747 C 0.77262 0.33265 0.34249 0.0
C748 C 0.78145 0.3411 0.36511 0.0
C749 C 0.76757 0.30339 0.38495 0.0
Co750 Co 0.83098 0.32965 0.40608 0.0
N751 N 0.83361 0.3615 0.38907 0.0
N752 N 0.83269 0.31599 0.37512 0.0
C753 C 0.83699 0.33148 0.35647 0.0
C754 C 0.83862 0.32175 0.33263 0.0
C755 C 0.8357 0.29592 0.3297 0.0
C756 C 0.83118 0.28051 0.35031 0.0
C757 C 0.82963 0.29159 0.37356 0.0
N758 N 0.82746 0.29529 0.41772 0.0
N759 N 0.86679 0.33126 0.4103 0.0
N760 N 0.79558 0.33128 0.4065 0.0
O761 O 0.96533 0.31388 0.5135 0.0
O762 O 0.96029 0.3506 0.49641 0.0
C763 C 0.9679 0.37504 0.4262 0.0
O764 O 0.96501 0.35154 0.42594 0.0
O765 O 0.95319 0.38643 0.44052 0.0
C766 C 0.90394 0.36291 0.50915 0.0
O767 O 0.91102 0.3763 0.49117 0.0
O768 O 0.9099 0.34031 0.50958 0.0
C769 C 0.83803 0.35748 0.36444 0.0
O770 O 0.84006 0.3757 0.34851 0.0
O771 O 0.89784 0.3119 0.46636 0.0
O772 O 0.90601 0.27997 0.49079 0.0
C773 C 0.82632 0.27974 0.39781 0.0
O774 O 0.82599 0.25558 0.40035 0.0
C775 C 0.83347 0.28604 0.44176 0.0
C776 C 0.85768 0.28792 0.44834 0.0
C777 C 0.86601 0.28139 0.47132 0.0
C778 C 0.8499 0.26787 0.48734 0.0
C779 C 0.82477 0.26264 0.48017 0.0
C780 C 0.81682 0.27294 0.45716 0.0
C781 C 0.96982 0.33687 0.51305 0.0
O782 O 0.89387 0.35813 0.43302 0.0
C783 C 0.89108 0.29138 0.47689 0.0
C784 C 0.83144 0.38594 0.39938 0.0
C785 C 0.80945 0.39346 0.41066 0.0
C786 C 0.80689 0.41739 0.41975 0.0
C787 C 0.82584 0.43455 0.41673 0.0
C788 C 0.84716 0.42806 0.40369 0.0
C789 C 0.85018 0.40357 0.39559 0.0
C790 C 0.78718 0.33849 0.42912 0.0
O791 O 0.7636 0.34182 0.43362 0.0
H792 H 0.78658 0.36409 0.47593 0.0
H793 H 0.82508 0.38052 0.49564 0.0
H794 H 0.86601 0.37378 0.47565 0.0
H795 H 0.895 0.36335 0.3842 0.0
H796 H 0.93209 0.30916 0.3404 0.0
H797 H 0.87879 0.28582 0.39378 0.0
H798 H 0.75205 0.30396 0.32423 0.0
H799 H 0.78941 0.35936 0.36648 0.0
H800 H 0.76543 0.29232 0.40148 0.0
H801 H 0.84181 0.33358 0.31685 0.0
H802 H 0.83692 0.28787 0.31148 0.0
H803 H 0.82913 0.26074 0.34811 0.0
H804 H 0.87063 0.29483 0.43503 0.0
H805 H 0.85712 0.26138 0.50474 0.0
H806 H 0.79794 0.27073 0.45103 0.0
H807 H 0.79364 0.3815 0.41134 0.0
H808 H 0.823 0.45334 0.4229 0.0
H809 H 0.86654 0.39856 0.38532 0.0
C810 C 0.66941 0.80916 0.44689 0.0
C811 C 0.65365 0.80735 0.46722 0.0
C812 C 0.64311 0.82932 0.47643 0.0
C813 C 0.64853 0.8524 0.46544 0.0
C814 C 0.66487 0.85292 0.44551 0.0
N815 N 0.67418 0.83155 0.43758 0.0
C816 C 0.67168 0.87413 0.42968 0.0
C817 C 0.69303 0.88576 0.39091 0.0
C818 C 0.67464 0.89882 0.37815 0.0
C819 C 0.68107 0.91561 0.35963 0.0
C820 C 0.70585 0.91952 0.35374 0.0
C821 C 0.72423 0.90664 0.36636 0.0
C822 C 0.71789 0.88983 0.38488 0.0
Cd823 Cd 0.66786 0.93139 0.46155 0.0
Cd824 Cd 0.70364 0.93264 0.4927 0.0
C825 C 0.69304 0.78108 0.38875 0.0
C826 C 0.72333 0.75549 0.36884 0.0
C827 C 0.70996 0.75734 0.34675 0.0
C828 C 0.68743 0.76987 0.34624 0.0
C829 C 0.67858 0.78078 0.36757 0.0
C830 C 0.71512 0.76786 0.38983 0.0
Co831 Co 0.68795 0.83234 0.40658 0.0
N832 N 0.65624 0.83438 0.38928 0.0
N833 N 0.70173 0.83323 0.37555 0.0
C834 C 0.68637 0.83713 0.35675 0.0
C835 C 0.6962 0.83863 0.33294 0.0
C836 C 0.72201 0.83592 0.33014 0.0
C837 C 0.73731 0.83177 0.35088 0.0
C838 C 0.72613 0.83044 0.3741 0.0
N839 N 0.72213 0.82925 0.41817 0.0
N840 N 0.68655 0.86831 0.40984 0.0
N841 N 0.68628 0.79693 0.40829 0.0
O842 O 0.702 0.96215 0.52125 0.0
O843 O 0.66931 0.96257 0.49691 0.0
C844 C 0.64204 0.96846 0.42755 0.0
O845 O 0.6655 0.96558 0.42704 0.0
O846 O 0.63093 0.95413 0.44256 0.0
C847 C 0.65181 0.90278 0.51079 0.0
O848 O 0.64033 0.91179 0.49238 0.0
O849 O 0.67467 0.9067 0.51339 0.0
C850 C 0.6604 0.83819 0.36457 0.0
O851 O 0.64229 0.83977 0.34849 0.0
O852 O 0.70618 0.89871 0.46812 0.0
O853 O 0.73613 0.90422 0.49576 0.0
C854 C 0.73781 0.82775 0.39842 0.0
O855 O 0.76192 0.82737 0.4011 0.0
C856 C 0.73124 0.8347 0.44226 0.0
C857 C 0.72938 0.8587 0.44949 0.0
C858 C 0.73628 0.86632 0.47263 0.0
C859 C 0.75046 0.84982 0.48776 0.0
C860 C 0.75602 0.82518 0.47937 0.0
C861 C 0.74448 0.81769 0.45688 0.0
C862 C 0.68093 0.97064 0.51584 0.0
O863 O 0.66048 0.89641 0.43214 0.0
C864 C 0.72603 0.89099 0.47932 0.0
C865 C 0.63173 0.83178 0.39919 0.0
C866 C 0.62395 0.80924 0.40933 0.0
C867 C 0.59966 0.80597 0.41711 0.0
C868 C 0.58244 0.82472 0.41377 0.0
C869 C 0.58928 0.84663 0.40176 0.0
C870 C 0.61416 0.85044 0.39531 0.0
C871 C 0.67803 0.78916 0.43076 0.0
O872 O 0.67435 0.76569 0.43581 0.0
H873 H 0.64855 0.78957 0.47485 0.0
H874 H 0.63025 0.8284 0.49166 0.0
H875 H 0.63959 0.86899 0.47178 0.0
H876 H 0.65535 0.89587 0.38232 0.0
H877 H 0.7108 0.93253 0.33942 0.0
H878 H 0.7324 0.8802 0.39455 0.0
H879 H 0.71608 0.74738 0.33051 0.0
H880 H 0.66057 0.78931 0.36758 0.0
H881 H 0.7257 0.76723 0.40678 0.0
H882 H 0.68445 0.8416 0.31707 0.0
H883 H 0.73013 0.83701 0.31195 0.0
H884 H 0.75707 0.82991 0.34881 0.0
H885 H 0.72202 0.87191 0.43664 0.0
H886 H 0.75711 0.85613 0.50549 0.0
H887 H 0.74577 0.79886 0.45039 0.0
H888 H 0.63604 0.79359 0.41005 0.0
H889 H 0.56342 0.82132 0.41888 0.0
H890 H 0.61955 0.8673 0.38595 0.0
C891 C 0.20992 0.6735 0.44478 0.0
C892 C 0.21257 0.65927 0.46616 0.0
C893 C 0.191 0.64921 0.47695 0.0
C894 C 0.16754 0.65333 0.46626 0.0
C895 C 0.16621 0.66809 0.44514 0.0
N896 N 0.1872 0.67721 0.43596 0.0
C897 C 0.14441 0.67402 0.42978 0.0
C898 C 0.13141 0.69454 0.39097 0.0
C899 C 0.11844 0.67559 0.37885 0.0
C900 C 0.10126 0.68127 0.3605 0.0
C901 C 0.09685 0.70586 0.35413 0.0
C902 C 0.10962 0.72481 0.36613 0.0
C903 C 0.12683 0.7192 0.38448 0.0
Cd904 Cd 0.08624 0.67011 0.46025 0.0
Cd905 Cd 0.08374 0.70564 0.49094 0.0
C906 C 0.23555 0.69734 0.38516 0.0
C907 C 0.25709 0.72917 0.36234 0.0
C908 C 0.25607 0.71414 0.34129 0.0
C909 C 0.24625 0.69029 0.34255 0.0
C910 C 0.23664 0.68168 0.36475 0.0
C911 C 0.24648 0.7208 0.38434 0.0
Co912 Co 0.18515 0.69124 0.40523 0.0
N913 N 0.18316 0.65958 0.38765 0.0
N914 N 0.1831 0.70541 0.37445 0.0
C915 C 0.18 0.69011 0.35545 0.0
C916 C 0.17913 0.70012 0.33166 0.0
C917 C 0.18162 0.72602 0.32912 0.0
C918 C 0.18506 0.74123 0.35006 0.0
C919 C 0.18588 0.72987 0.37323 0.0
N920 N 0.18798 0.72554 0.41734 0.0
N921 N 0.14939 0.68885 0.4096 0.0
N922 N 0.22062 0.69045 0.40555 0.0
O923 O 0.05467 0.70183 0.51994 0.0
O924 O 0.05598 0.66867 0.49631 0.0
C925 C 0.0479 0.64733 0.42541 0.0
O926 O 0.05204 0.67065 0.42569 0.0
O927 O 0.06166 0.63497 0.43991 0.0
C928 C 0.11457 0.6542 0.50934 0.0
O929 O 0.10567 0.64229 0.49112 0.0
O930 O 0.11029 0.67705 0.51155 0.0
C931 C 0.17952 0.66399 0.36296 0.0
O932 O 0.17837 0.64604 0.34667 0.0
O933 O 0.11817 0.70867 0.467 0.0
O934 O 0.11213 0.73857 0.49444 0.0
C935 C 0.18883 0.74139 0.39764 0.0
O936 O 0.18896 0.76552 0.40046 0.0
C937 C 0.18237 0.73452 0.44156 0.0
C938 C 0.15838 0.73205 0.44874 0.0
C939 C 0.15036 0.73898 0.47174 0.0
C940 C 0.16652 0.75328 0.48709 0.0
C941 C 0.19109 0.75945 0.47898 0.0
C942 C 0.19892 0.7486 0.45622 0.0
C943 C 0.0476 0.68 0.51522 0.0
O944 O 0.12255 0.66194 0.43272 0.0
C945 C 0.12562 0.72861 0.47818 0.0
C946 C 0.18575 0.63483 0.39716 0.0
C947 C 0.20841 0.62707 0.40688 0.0
C948 C 0.21221 0.60243 0.41325 0.0
C949 C 0.19374 0.58496 0.40924 0.0
C950 C 0.17134 0.59194 0.39836 0.0
C951 C 0.16715 0.61701 0.3929 0.0
C952 C 0.22925 0.68237 0.42779 0.0
O953 O 0.25291 0.67945 0.43216 0.0
H954 H 0.2306 0.65524 0.47371 0.0
H955 H 0.19251 0.63774 0.49323 0.0
H956 H 0.15124 0.64483 0.47393 0.0
H957 H 0.12173 0.65644 0.38339 0.0
H958 H 0.08354 0.71023 0.33994 0.0
H959 H 0.13638 0.73414 0.39364 0.0
H960 H 0.2651 0.72008 0.32442 0.0
H961 H 0.22962 0.663 0.36602 0.0
H962 H 0.2466 0.73239 0.40062 0.0
H963 H 0.17693 0.68843 0.31563 0.0
H964 H 0.18105 0.73428 0.31095 0.0
H965 H 0.18703 0.76104 0.34814 0.0
H966 H 0.14539 0.72447 0.43581 0.0
H967 H 0.15999 0.75964 0.50483 0.0
H968 H 0.21762 0.75106 0.44971 0.0
H969 H 0.22381 0.63952 0.40821 0.0
H970 H 0.19735 0.56581 0.4137 0.0
H971 H 0.15011 0.6224 0.38399 0.0
C972 C 0.34526 0.80571 0.57419 0.0
C973 C 0.36022 0.8029 0.55337 0.0
C974 C 0.36987 0.82449 0.54216 0.0
C975 C 0.3649 0.84813 0.55208 0.0
C976 C 0.34971 0.84956 0.57287 0.0
N977 N 0.34053 0.82858 0.58213 0.0
C978 C 0.34368 0.87151 0.58799 0.0
C979 C 0.32278 0.8849 0.62641 0.0
C980 C 0.34161 0.89806 0.63854 0.0
C981 C 0.33578 0.91536 0.65671 0.0
C982 C 0.31119 0.9197 0.66292 0.0
C983 C 0.29237 0.90673 0.65097 0.0
C984 C 0.29811 0.88941 0.63279 0.0
Cd985 Cd 0.34988 0.92976 0.55791 0.0
Cd986 Cd 0.31338 0.93463 0.53099 0.0
C987 C 0.32039 0.781 0.63389 0.0
C988 C 0.28814 0.76144 0.6579 0.0
C989 C 0.30327 0.76309 0.67887 0.0
C990 C 0.32725 0.77255 0.67716 0.0
C991 C 0.33593 0.78079 0.65443 0.0
C992 C 0.29675 0.77063 0.63534 0.0
Co993 Co 0.32619 0.83099 0.61268 0.0
N994 N 0.35765 0.83325 0.63028 0.0
N995 N 0.31193 0.83347 0.6433 0.0
C996 C 0.32716 0.83718 0.66228 0.0
C997 C 0.31708 0.83846 0.68599 0.0
C998 C 0.29121 0.8358 0.68846 0.0
C999 C 0.2761 0.83182 0.66753 0.0
C1000 C 0.28752 0.83059 0.64442 0.0
N1001 N 0.29195 0.82795 0.60028 0.0
N1002 N 0.32861 0.86673 0.60798 0.0
N1003 N 0.32715 0.79549 0.61307 0.0
O1004 O 0.31523 0.96631 0.50481 0.0
O1005 O 0.35146 0.96161 0.52293 0.0
C1006 C 0.37365 0.96695 0.59318 0.0
O1007 O 0.35081 0.96818 0.58719 0.0
O1008 O 0.38478 0.94821 0.58433 0.0
C1009 C 0.36387 0.90549 0.50663 0.0
O1010 O 0.3766 0.91138 0.52551 0.0
O1011 O 0.34116 0.91085 0.5062 0.0
C1012 C 0.35329 0.83762 0.65481 0.0
O1013 O 0.37126 0.83928 0.67104 0.0
O1014 O 0.31094 0.89812 0.55167 0.0
O1015 O 0.28026 0.90645 0.5258 0.0
C1016 C 0.27609 0.82724 0.61997 0.0
O1017 O 0.252 0.82714 0.61706 0.0
C1018 C 0.28305 0.8342 0.57611 0.0
C1019 C 0.286 0.85833 0.5694 0.0
C1020 C 0.2796 0.86699 0.54651 0.0
C1021 C 0.26516 0.85153 0.5307 0.0
C1022 C 0.25874 0.82667 0.53796 0.0
C1023 C 0.26875 0.81823 0.56093 0.0
C1024 C 0.33795 0.97167 0.5064 0.0
O1025 O 0.35622 0.89314 0.58537 0.0
C1026 C 0.29053 0.8917 0.54075 0.0
C1027 C 0.38219 0.82927 0.62097 0.0
C1028 C 0.39008 0.8053 0.61539 0.0
C1029 C 0.41474 0.80064 0.61007 0.0
C1030 C 0.43198 0.81974 0.61047 0.0
C1031 C 0.42476 0.844 0.61626 0.0
C1032 C 0.39964 0.84859 0.62133 0.0
C1033 C 0.33644 0.78654 0.59147 0.0
O1034 O 0.3403 0.76284 0.58795 0.0
H1035 H 0.36504 0.78477 0.54654 0.0
H1036 H 0.38178 0.82286 0.52623 0.0
H1037 H 0.37308 0.86451 0.54409 0.0
H1038 H 0.36077 0.8948 0.6342 0.0
H1039 H 0.30671 0.9331 0.67699 0.0
H1040 H 0.28324 0.87968 0.62373 0.0
H1041 H 0.2971 0.75517 0.6962 0.0
H1042 H 0.35451 0.78789 0.65301 0.0
H1043 H 0.28504 0.77017 0.61914 0.0
H1044 H 0.32869 0.84108 0.70203 0.0
H1045 H 0.2829 0.83667 0.70658 0.0
H1046 H 0.25633 0.82977 0.6694 0.0
H1047 H 0.29332 0.87106 0.58265 0.0
H1048 H 0.25883 0.85904 0.51336 0.0
H1049 H 0.26537 0.79952 0.56715 0.0
H1050 H 0.37765 0.7898 0.6164 0.0
H1051 H 0.45113 0.81511 0.60744 0.0
H1052 H 0.39372 0.86696 0.62641 0.0
C1053 C 0.21242 0.34441 0.57666 0.0
C1054 C 0.2162 0.35739 0.55464 0.0
C1055 C 0.19541 0.36833 0.54315 0.0
C1056 C 0.17164 0.36651 0.55389 0.0
C1057 C 0.16933 0.35329 0.57594 0.0
N1058 N 0.1895 0.34302 0.5855 0.0
C1059 C 0.14713 0.34863 0.59113 0.0
C1060 C 0.13156 0.32636 0.62788 0.0
C1061 C 0.11994 0.34489 0.64176 0.0
C1062 C 0.10186 0.33864 0.65905 0.0
C1063 C 0.0952 0.31394 0.66254 0.0
C1064 C 0.10656 0.29545 0.64867 0.0
C1065 C 0.12465 0.30162 0.63136 0.0
Cd1066 Cd 0.09344 0.35692 0.56016 0.0
Cd1067 Cd 0.08961 0.31013 0.49148 0.0
C1068 C 0.23485 0.31762 0.63661 0.0
C1069 C 0.25733 0.28448 0.65599 0.0
C1070 C 0.2546 0.29627 0.67885 0.0
C1071 C 0.24321 0.31939 0.6806 0.0
C1072 C 0.23454 0.33049 0.65899 0.0
C1073 C 0.24649 0.29473 0.63499 0.0
Co1074 Co 0.18572 0.32808 0.61552 0.0
N1075 N 0.18529 0.35908 0.63412 0.0
N1076 N 0.18174 0.31297 0.64553 0.0
C1077 C 0.17824 0.32777 0.6649 0.0
C1078 C 0.17515 0.31688 0.6881 0.0
C1079 C 0.17565 0.29075 0.68961 0.0
C1080 C 0.17916 0.27616 0.66822 0.0
C1081 C 0.18229 0.28833 0.64566 0.0
N1082 N 0.18641 0.29443 0.60185 0.0
N1083 N 0.15052 0.33248 0.61043 0.0
N1084 N 0.22111 0.32679 0.61622 0.0
O1085 O 0.05475 0.29892 0.51733 0.0
O1086 O 0.07895 0.31941 0.54156 0.0
C1087 C 0.05 0.38083 0.58734 0.0
O1088 O 0.05815 0.35952 0.59336 0.0
O1089 O 0.06063 0.39017 0.56854 0.0
C1090 C 0.10614 0.37156 0.50661 0.0
O1091 O 0.10607 0.38524 0.52559 0.0
O1092 O 0.09637 0.3505 0.50879 0.0
C1093 C 0.17965 0.35425 0.65832 0.0
O1094 O 0.17829 0.37181 0.67498 0.0
O1095 O 0.12179 0.31919 0.54278 0.0
O1096 O 0.12449 0.29272 0.51111 0.0
C1097 C 0.18521 0.27767 0.62075 0.0
O1098 O 0.18389 0.25376 0.61672 0.0
C1099 C 0.18304 0.28759 0.5764 0.0
C1100 C 0.16091 0.29416 0.56589 0.0
C1101 C 0.15589 0.28992 0.54141 0.0
C1102 C 0.1726 0.27522 0.52737 0.0
C1103 C 0.19551 0.26655 0.53747 0.0
C1104 C 0.20044 0.27361 0.5625 0.0
C1105 C 0.05734 0.31351 0.53548 0.0
O1106 O 0.12679 0.36282 0.58926 0.0
C1107 C 0.13277 0.30103 0.53142 0.0
C1108 C 0.18949 0.3835 0.62435 0.0
C1109 C 0.21182 0.38903 0.61277 0.0
C1110 C 0.21443 0.41054 0.59908 0.0
C1111 C 0.19541 0.42768 0.5983 0.0
C1112 C 0.17409 0.42468 0.613 0.0
C1113 C 0.17126 0.40195 0.62584 0.0
C1114 C 0.23071 0.334 0.594 0.0
O1115 O 0.25459 0.33479 0.58989 0.0
H1116 H 0.23448 0.35952 0.5469 0.0
H1117 H 0.19777 0.37852 0.52613 0.0
H1118 H 0.15581 0.37507 0.54526 0.0
H1119 H 0.12502 0.36407 0.63943 0.0
H1120 H 0.08122 0.30913 0.67593 0.0
H1121 H 0.13312 0.28713 0.62063 0.0
H1122 H 0.264 0.2888 0.69486 0.0
H1123 H 0.22736 0.34905 0.65957 0.0
H1124 H 0.24787 0.28545 0.61734 0.0
H1125 H 0.17267 0.32802 0.70447 0.0
H1126 H 0.17332 0.28183 0.70732 0.0
H1127 H 0.17932 0.25621 0.66935 0.0
H1128 H 0.14686 0.30222 0.57726 0.0
H1129 H 0.16708 0.2702 0.50894 0.0
H1130 H 0.21759 0.26842 0.57127 0.0
H1131 H 0.22728 0.3767 0.6141 0.0
H1132 H 0.19806 0.44365 0.58664 0.0
H1133 H 0.15552 0.39832 0.63739 0.0
C1134 C 0.67322 0.21394 0.57658 0.0
C1135 C 0.65937 0.21841 0.5553 0.0
C1136 C 0.6481 0.19794 0.54354 0.0
C1137 C 0.6503 0.17381 0.55344 0.0
C1138 C 0.66433 0.1708 0.57482 0.0
N1139 N 0.67508 0.19069 0.58455 0.0
C1140 C 0.66908 0.14814 0.58928 0.0
C1141 C 0.69191 0.13159 0.62532 0.0
C1142 C 0.67364 0.11946 0.63919 0.0
C1143 C 0.68018 0.10104 0.65601 0.0
C1144 C 0.70492 0.09454 0.65903 0.0
C1145 C 0.72315 0.10641 0.64516 0.0
C1146 C 0.71668 0.12485 0.62832 0.0
Cd1147 Cd 0.66126 0.09495 0.55663 0.0
Cd1148 Cd 0.70339 0.09692 0.48415 0.0
C1149 C 0.69957 0.23511 0.63685 0.0
C1150 C 0.73166 0.25647 0.65933 0.0
C1151 C 0.71749 0.25427 0.68091 0.0
C1152 C 0.69388 0.24374 0.68028 0.0
C1153 C 0.68459 0.23525 0.65784 0.0
C1154 C 0.72285 0.24627 0.63734 0.0
Co1155 Co 0.69029 0.18609 0.61427 0.0
N1156 N 0.65943 0.18522 0.63308 0.0
N1157 N 0.70562 0.18152 0.64408 0.0
C1158 C 0.69099 0.17819 0.66359 0.0
C1159 C 0.70201 0.17538 0.68676 0.0
C1160 C 0.7281 0.17609 0.68811 0.0
C1161 C 0.74253 0.17958 0.66661 0.0
C1162 C 0.73022 0.1824 0.6441 0.0
N1163 N 0.72382 0.18683 0.60039 0.0
N1164 N 0.6855 0.15099 0.60845 0.0
N1165 N 0.69192 0.22157 0.61573 0.0
O1166 O 0.71752 0.06187 0.5079 0.0
O1167 O 0.69849 0.08402 0.53514 0.0
C1168 C 0.6402 0.04988 0.58426 0.0
O1169 O 0.65661 0.06406 0.59364 0.0
O1170 O 0.63489 0.05515 0.56193 0.0
C1171 C 0.64168 0.10835 0.50386 0.0
O1172 O 0.6305 0.10722 0.52446 0.0
O1173 O 0.66371 0.10077 0.50362 0.0
C1174 C 0.66454 0.17961 0.65724 0.0
O1175 O 0.6472 0.1783 0.67414 0.0
O1176 O 0.69795 0.12471 0.53885 0.0
O1177 O 0.72163 0.13069 0.50548 0.0
C1178 C 0.74069 0.18564 0.61918 0.0
O1179 O 0.76456 0.18458 0.61502 0.0
C1180 C 0.73069 0.18413 0.57488 0.0
C1181 C 0.72337 0.16271 0.56331 0.0
C1182 C 0.72767 0.15874 0.53859 0.0
C1183 C 0.74349 0.17547 0.52562 0.0
C1184 C 0.7537 0.19701 0.53726 0.0
C1185 C 0.74585 0.2014 0.5621 0.0
C1186 C 0.70467 0.06303 0.52745 0.0
O1187 O 0.65504 0.12768 0.58667 0.0
C1188 C 0.71528 0.1368 0.52721 0.0
C1189 C 0.63475 0.18975 0.62419 0.0
C1190 C 0.62848 0.21312 0.61504 0.0
C1191 C 0.60458 0.21813 0.6071 0.0
C1192 C 0.58626 0.2002 0.60909 0.0
C1193 C 0.59155 0.17721 0.61975 0.0
C1194 C 0.61598 0.17179 0.62685 0.0
C1195 C 0.68394 0.23181 0.59411 0.0
O1196 O 0.68234 0.25583 0.591 0.0
H1197 H 0.65685 0.23696 0.54831 0.0
H1198 H 0.63742 0.20094 0.527 0.0
H1199 H 0.64144 0.15816 0.54479 0.0
H1200 H 0.65444 0.12443 0.63723 0.0
H1201 H 0.70995 0.0803 0.67207 0.0
H1202 H 0.73098 0.13371 0.61757 0.0
H1203 H 0.72384 0.26298 0.69779 0.0
H1204 H 0.66587 0.22846 0.65681 0.0
H1205 H 0.73382 0.24726 0.62066 0.0
H1206 H 0.69098 0.17303 0.70323 0.0
H1207 H 0.73712 0.17403 0.7058 0.0
H1208 H 0.76246 0.18006 0.66763 0.0
H1209 H 0.71448 0.14851 0.57392 0.0
H1210 H 0.74806 0.17134 0.50667 0.0
H1211 H 0.75102 0.21811 0.57167 0.0
H1212 H 0.64163 0.22801 0.61502 0.0
H1213 H 0.5676 0.20481 0.60366 0.0
H1214 H 0.62012 0.15423 0.63545 0.0
C1215 C 0.804 0.66836 0.57956 0.0
C1216 C 0.79945 0.64771 0.56474 0.0
C1217 C 0.8198 0.63363 0.55679 0.0
C1218 C 0.84412 0.64059 0.56306 0.0
C1219 C 0.84746 0.66168 0.57752 0.0
N1220 N 0.82749 0.67434 0.58465 0.0
C1221 C 0.8702 0.66916 0.59068 0.0
C1222 C 0.88628 0.6954 0.62447 0.0
C1223 C 0.89846 0.67844 0.63985 0.0
C1224 C 0.9165 0.68659 0.65638 0.0
C1225 C 0.92259 0.71164 0.65761 0.0
C1226 C 0.91069 0.72857 0.64224 0.0
C1227 C 0.89262 0.72049 0.62568 0.0
Cd1228 Cd 0.92364 0.66206 0.55718 0.0
Cd1229 Cd 0.92524 0.70516 0.48542 0.0
C1230 C 0.7833 0.70081 0.63668 0.0
C1231 C 0.76194 0.73301 0.659 0.0
C1232 C 0.76398 0.71884 0.68063 0.0
C1233 C 0.77425 0.69521 0.68002 0.0
C1234 C 0.78303 0.686 0.65779 0.0
C1235 C 0.77218 0.72411 0.63701 0.0
Co1236 Co 0.83193 0.69173 0.61353 0.0
N1237 N 0.83313 0.66191 0.63395 0.0
N1238 N 0.8364 0.70865 0.64249 0.0
C1239 C 0.84003 0.69505 0.66271 0.0
C1240 C 0.84298 0.70723 0.68525 0.0
C1241 C 0.84203 0.73337 0.68528 0.0
C1242 C 0.83818 0.74668 0.66311 0.0
C1243 C 0.83525 0.73321 0.64127 0.0
N1244 N 0.83066 0.72461 0.5979 0.0
N1245 N 0.86707 0.68733 0.60808 0.0
N1246 N 0.79652 0.69271 0.6155 0.0
O1247 O 0.95936 0.71895 0.51073 0.0
O1248 O 0.93639 0.7 0.5375 0.0
C1249 C 0.96912 0.64078 0.5836 0.0
O1250 O 0.95394 0.65526 0.59428 0.0
O1251 O 0.96433 0.63723 0.56081 0.0
C1252 C 0.91052 0.64412 0.50412 0.0
O1253 O 0.90991 0.63231 0.52441 0.0
O1254 O 0.91988 0.6655 0.50475 0.0
C1255 C 0.83883 0.66827 0.65775 0.0
O1256 O 0.84056 0.65173 0.67543 0.0
O1257 O 0.89517 0.69885 0.53839 0.0
O1258 O 0.89078 0.72334 0.50537 0.0
C1259 C 0.83174 0.74239 0.61588 0.0
O1260 O 0.83276 0.76608 0.61058 0.0
C1261 C 0.83381 0.73055 0.57218 0.0
C1262 C 0.85529 0.7226 0.56122 0.0
C1263 C 0.86099 0.72811 0.53709 0.0
C1264 C 0.84538 0.74461 0.52381 0.0
C1265 C 0.82301 0.75411 0.53423 0.0
C1266 C 0.81758 0.7464 0.5589 0.0
C1267 C 0.95766 0.70541 0.5298 0.0
O1268 O 0.89144 0.65634 0.58851 0.0
C1269 C 0.88364 0.7164 0.52662 0.0
C1270 C 0.82821 0.63676 0.62667 0.0
C1271 C 0.80387 0.62862 0.62333 0.0
C1272 C 0.79885 0.60395 0.61812 0.0
C1273 C 0.81797 0.58692 0.61649 0.0
C1274 C 0.8426 0.59436 0.62009 0.0
C1275 C 0.84753 0.61953 0.62509 0.0
C1276 C 0.78617 0.68045 0.59613 0.0
O1277 O 0.76232 0.67617 0.59487 0.0
H1278 H 0.78082 0.64138 0.56125 0.0
H1279 H 0.81663 0.61665 0.54675 0.0
H1280 H 0.85958 0.629 0.55808 0.0
H1281 H 0.89378 0.65903 0.63934 0.0
H1282 H 0.93654 0.71793 0.67042 0.0
H1283 H 0.8837 0.73379 0.6138 0.0
H1284 H 0.75522 0.7251 0.69749 0.0
H1285 H 0.78992 0.66737 0.6572 0.0
H1286 H 0.77116 0.73496 0.62024 0.0
H1287 H 0.84564 0.69705 0.70222 0.0
H1288 H 0.84421 0.74329 0.70246 0.0
H1289 H 0.83754 0.76665 0.66312 0.0
H1290 H 0.86869 0.71307 0.5721 0.0
H1291 H 0.85136 0.75043 0.50575 0.0
H1292 H 0.80096 0.75268 0.56796 0.0
H1293 H 0.78851 0.64101 0.62521 0.0
H1294 H 0.81316 0.56774 0.61364 0.0
H1295 H 0.86627 0.6257 0.62823 0.0
C1296 C 0.44365 0.34545 0.21076 0.0
C1297 C 0.46447 0.36043 0.21404 0.0
C1298 C 0.47562 0.37082 0.19281 0.0
C1299 C 0.46564 0.36652 0.16907 0.0
C1300 C 0.44489 0.35125 0.16715 0.0
N1301 N 0.43567 0.3414 0.18779 0.0
C1302 C 0.42989 0.34546 0.14505 0.0
C1303 C 0.39197 0.32377 0.13099 0.0
C1304 C 0.3788 0.34223 0.11845 0.0
C1305 C 0.36067 0.3358 0.10126 0.0
C1306 C 0.35563 0.31096 0.09641 0.0
C1307 C 0.36877 0.29252 0.10868 0.0
C1308 C 0.38691 0.29887 0.12588 0.0
Cd1309 Cd 0.46335 0.35591 0.08991 0.0
Cd1310 Cd 0.53602 0.325 0.11233 0.0
C1311 C 0.38348 0.321 0.23478 0.0
C1312 C 0.35907 0.29008 0.25599 0.0
C1313 C 0.3386 0.30577 0.25452 0.0
C1314 C 0.34061 0.32935 0.24421 0.0
C1315 C 0.36344 0.33731 0.23537 0.0
C1316 C 0.38156 0.29764 0.24576 0.0
Co1317 Co 0.40517 0.32699 0.18484 0.0
N1318 N 0.38758 0.3584 0.18355 0.0
N1319 N 0.37459 0.31264 0.18195 0.0
C1320 C 0.35558 0.32788 0.17874 0.0
C1321 C 0.3319 0.31769 0.17708 0.0
C1322 C 0.32949 0.2917 0.17902 0.0
C1323 C 0.35048 0.27659 0.18254 0.0
C1324 C 0.37357 0.28811 0.18405 0.0
N1325 N 0.41767 0.29293 0.18635 0.0
N1326 N 0.40998 0.33015 0.14938 0.0
N1327 N 0.40464 0.32705 0.22038 0.0
O1328 O 0.5371 0.32183 0.06934 0.0
O1329 O 0.50013 0.33902 0.06692 0.0
C1330 C 0.43189 0.37883 0.04806 0.0
O1331 O 0.42898 0.35629 0.0547 0.0
O1332 O 0.4488 0.38998 0.06 0.0
C1333 C 0.50767 0.37905 0.11394 0.0
O1334 O 0.48853 0.39124 0.10844 0.0
O1335 O 0.50635 0.35613 0.11069 0.0
C1336 C 0.36304 0.35409 0.17901 0.0
O1337 O 0.34685 0.37208 0.17764 0.0
O1338 O 0.47462 0.31568 0.11923 0.0
O1339 O 0.50938 0.29452 0.1271 0.0
C1340 C 0.39814 0.2768 0.1868 0.0
O1341 O 0.40124 0.25272 0.18638 0.0
C1342 C 0.4423 0.28467 0.18112 0.0
C1343 C 0.45138 0.28939 0.15777 0.0
C1344 C 0.47538 0.28401 0.15157 0.0
C1345 C 0.48961 0.26914 0.16809 0.0
C1346 C 0.48056 0.26191 0.19188 0.0
C1347 C 0.45655 0.27069 0.19816 0.0
C1348 C 0.51933 0.3302 0.05654 0.0
O1349 O 0.43254 0.35827 0.12373 0.0
C1350 C 0.48637 0.29757 0.1301 0.0
C1351 C 0.39732 0.38288 0.18725 0.0
C1352 C 0.40418 0.39075 0.21089 0.0
C1353 C 0.41078 0.41526 0.21512 0.0
C1354 C 0.41021 0.43238 0.19594 0.0
C1355 C 0.40285 0.42517 0.17212 0.0
C1356 C 0.39679 0.40016 0.16791 0.0
C1357 C 0.42631 0.33612 0.2296 0.0
O1358 O 0.42973 0.33965 0.25334 0.0
H1359 H 0.47134 0.36474 0.23228 0.0
H1360 H 0.49152 0.38279 0.1948 0.0
H1361 H 0.47353 0.37526 0.15301 0.0
H1362 H 0.38226 0.36153 0.12215 0.0
H1363 H 0.34158 0.30602 0.08312 0.0
H1364 H 0.39699 0.28434 0.13508 0.0
H1365 H 0.32139 0.30037 0.26325 0.0
H1366 H 0.36532 0.35587 0.22831 0.0
H1367 H 0.39739 0.28547 0.24617 0.0
H1368 H 0.31584 0.32928 0.17472 0.0
H1369 H 0.31139 0.28331 0.1779 0.0
H1370 H 0.34866 0.25673 0.18397 0.0
H1371 H 0.43978 0.29777 0.14413 0.0
H1372 H 0.50761 0.2633 0.16204 0.0
H1373 H 0.4488 0.26686 0.21615 0.0
H1374 H 0.40334 0.37843 0.22646 0.0
H1375 H 0.41421 0.45149 0.20022 0.0
H1376 H 0.39075 0.39425 0.14984 0.0
C1377 C 0.44278 0.67172 0.80718 0.0
C1378 C 0.46285 0.65581 0.8041 0.0
C1379 C 0.47307 0.64468 0.82542 0.0
C1380 C 0.46279 0.64902 0.849 0.0
C1381 C 0.44275 0.66515 0.85063 0.0
N1382 N 0.43474 0.67604 0.83005 0.0
C1383 C 0.42729 0.67099 0.87232 0.0
C1384 C 0.39072 0.69447 0.88625 0.0
C1385 C 0.37554 0.67657 0.89735 0.0
C1386 C 0.35764 0.68361 0.91447 0.0
C1387 C 0.35485 0.70847 0.9207 0.0
C1388 C 0.37002 0.72634 0.90985 0.0
C1389 C 0.38793 0.71937 0.89271 0.0
Cd1390 Cd 0.46076 0.65952 0.9237 0.0
Cd1391 Cd 0.5338 0.70005 0.92021 0.0
C1392 C 0.38454 0.69995 0.78292 0.0
C1393 C 0.3633 0.73273 0.7614 0.0
C1394 C 0.34156 0.71864 0.7622 0.0
C1395 C 0.34186 0.69462 0.77149 0.0
C1396 C 0.3635 0.68512 0.7813 0.0
C1397 C 0.38475 0.72361 0.7725 0.0
Co1398 Co 0.40461 0.6912 0.83269 0.0
N1399 N 0.38643 0.66005 0.83317 0.0
N1400 N 0.37434 0.70603 0.83539 0.0
C1401 C 0.35499 0.69098 0.8381 0.0
C1402 C 0.33155 0.70152 0.84019 0.0
C1403 C 0.32978 0.72761 0.83942 0.0
C1404 C 0.35113 0.74251 0.83663 0.0
C1405 C 0.37394 0.73066 0.83457 0.0
N1406 N 0.41784 0.72503 0.83191 0.0
N1407 N 0.40863 0.68759 0.86805 0.0
N1408 N 0.40481 0.69174 0.79732 0.0
O1409 O 0.51208 0.71884 0.95452 0.0
O1410 O 0.48588 0.69417 0.93713 0.0
C1411 C 0.43184 0.63597 0.96668 0.0
O1412 O 0.43213 0.65938 0.96329 0.0
O1413 O 0.44542 0.62414 0.95164 0.0
C1414 C 0.51219 0.6399 0.90898 0.0
O1415 O 0.49213 0.62784 0.91022 0.0
O1416 O 0.51178 0.66143 0.91778 0.0
C1417 C 0.3619 0.66462 0.83724 0.0
O1418 O 0.34537 0.64682 0.838 0.0
O1419 O 0.47845 0.69524 0.89199 0.0
O1420 O 0.51318 0.71723 0.88581 0.0
C1421 C 0.39882 0.74161 0.83231 0.0
O1422 O 0.40261 0.76559 0.83318 0.0
C1423 C 0.44328 0.73198 0.83464 0.0
C1424 C 0.45507 0.7236 0.85549 0.0
C1425 C 0.4803 0.72519 0.85817 0.0
C1426 C 0.494 0.73963 0.84071 0.0
C1427 C 0.482 0.75157 0.82042 0.0
C1428 C 0.45632 0.74683 0.81736 0.0
C1429 C 0.49207 0.70665 0.95572 0.0
O1430 O 0.42837 0.65746 0.89313 0.0
C1431 C 0.49118 0.71177 0.87972 0.0
C1432 C 0.3958 0.63568 0.82828 0.0
C1433 C 0.40008 0.62826 0.80394 0.0
C1434 C 0.40639 0.60396 0.79868 0.0
C1435 C 0.40849 0.58666 0.81757 0.0
C1436 C 0.40459 0.59345 0.84235 0.0
C1437 C 0.39829 0.61831 0.84747 0.0
C1438 C 0.42609 0.68184 0.78823 0.0
O1439 O 0.42974 0.67873 0.76448 0.0
H1440 H 0.46977 0.65136 0.78593 0.0
H1441 H 0.48841 0.63207 0.82357 0.0
H1442 H 0.46992 0.63973 0.86515 0.0
H1443 H 0.37729 0.65728 0.89253 0.0
H1444 H 0.34099 0.71389 0.93394 0.0
H1445 H 0.39965 0.73338 0.88459 0.0
H1446 H 0.32517 0.72504 0.75264 0.0
H1447 H 0.36386 0.6662 0.78757 0.0
H1448 H 0.4016 0.73443 0.77241 0.0
H1449 H 0.31523 0.69014 0.84216 0.0
H1450 H 0.31188 0.73627 0.84098 0.0
H1451 H 0.34978 0.76244 0.83618 0.0
H1452 H 0.44424 0.71564 0.87005 0.0
H1453 H 0.51371 0.74194 0.84312 0.0
H1454 H 0.44664 0.7543 0.80157 0.0
H1455 H 0.39773 0.64088 0.78877 0.0
H1456 H 0.41193 0.56774 0.81233 0.0
H1457 H 0.39473 0.62417 0.86619 0.0
C1458 C 0.33987 0.44557 0.80558 0.0
C1459 C 0.3535 0.46719 0.80158 0.0
C1460 C 0.36447 0.47881 0.82227 0.0
C1461 C 0.36198 0.46859 0.84619 0.0
C1462 C 0.34804 0.44698 0.84881 0.0
N1463 N 0.3378 0.43721 0.82867 0.0
C1464 C 0.3434 0.43207 0.87124 0.0
C1465 C 0.32285 0.39395 0.88647 0.0
C1466 C 0.34204 0.38115 0.89826 0.0
C1467 C 0.3367 0.36292 0.91574 0.0
C1468 C 0.31222 0.35741 0.92163 0.0
C1469 C 0.29305 0.37022 0.91015 0.0
C1470 C 0.29832 0.38847 0.89267 0.0
Cd1471 Cd 0.3553 0.466 0.9254 0.0
Cd1472 Cd 0.32777 0.54008 0.90246 0.0
C1473 C 0.3176 0.38409 0.78305 0.0
C1474 C 0.28846 0.35646 0.76325 0.0
C1475 C 0.30658 0.33804 0.76303 0.0
C1476 C 0.33053 0.34302 0.77124 0.0
C1477 C 0.3362 0.36634 0.78056 0.0
C1478 C 0.29392 0.37947 0.77375 0.0
Co1479 Co 0.32367 0.40671 0.83248 0.0
N1480 N 0.3552 0.38894 0.83287 0.0
N1481 N 0.30934 0.37617 0.83611 0.0
C1482 C 0.32459 0.35702 0.83837 0.0
C1483 C 0.31436 0.33336 0.84044 0.0
C1484 C 0.28835 0.33106 0.83958 0.0
C1485 C 0.27322 0.35216 0.8368 0.0
C1486 C 0.28476 0.37524 0.835 0.0
N1487 N 0.28964 0.41932 0.83207 0.0
N1488 N 0.32808 0.41198 0.86774 0.0
N1489 N 0.32227 0.4059 0.79699 0.0
O1490 O 0.3215 0.54067 0.94534 0.0
O1491 O 0.33757 0.50318 0.94698 0.0
C1492 C 0.37709 0.43468 0.96799 0.0
O1493 O 0.35561 0.43017 0.95918 0.0
O1494 O 0.38757 0.45324 0.95802 0.0
C1495 C 0.38045 0.50933 0.90196 0.0
O1496 O 0.39181 0.48961 0.90721 0.0
O1497 O 0.35752 0.50895 0.90506 0.0
C1498 C 0.35078 0.3643 0.83709 0.0
O1499 O 0.36861 0.34789 0.8376 0.0
O1500 O 0.31601 0.47868 0.89523 0.0
O1501 O 0.29758 0.51445 0.88511 0.0
C1502 C 0.27344 0.39986 0.83254 0.0
O1503 O 0.24943 0.40309 0.83362 0.0
C1504 C 0.28184 0.44436 0.83611 0.0
C1505 C 0.28776 0.4548 0.85861 0.0
C1506 C 0.2841 0.47961 0.8631 0.0
C1507 C 0.2696 0.49355 0.84589 0.0
C1508 C 0.26058 0.48284 0.82354 0.0
C1509 C 0.26778 0.45801 0.81864 0.0
C1510 C 0.32857 0.52208 0.95776 0.0
O1511 O 0.35712 0.43497 0.89191 0.0
C1512 C 0.29894 0.4911 0.88347 0.0
C1513 C 0.37983 0.39873 0.82983 0.0
C1514 C 0.38683 0.40962 0.80742 0.0
C1515 C 0.41101 0.41748 0.80354 0.0
C1516 C 0.42883 0.41388 0.82166 0.0
C1517 C 0.42272 0.40186 0.84375 0.0
C1518 C 0.39807 0.39473 0.84801 0.0
C1519 C 0.33006 0.42788 0.78726 0.0
O1520 O 0.33254 0.43122 0.76337 0.0
H1521 H 0.3563 0.4744 0.78317 0.0
H1522 H 0.37535 0.49541 0.81971 0.0
H1523 H 0.37086 0.4771 0.86187 0.0
H1524 H 0.36107 0.38502 0.89379 0.0
H1525 H 0.30812 0.34329 0.93514 0.0
H1526 H 0.28328 0.39834 0.8841 0.0
H1527 H 0.30282 0.3205 0.75408 0.0
H1528 H 0.35489 0.37046 0.78619 0.0
H1529 H 0.28 0.39378 0.77446 0.0
H1530 H 0.32594 0.31724 0.84247 0.0
H1531 H 0.27995 0.31296 0.841 0.0
H1532 H 0.25334 0.35041 0.83612 0.0
H1533 H 0.29618 0.4436 0.87264 0.0
H1534 H 0.26604 0.5129 0.84941 0.0
H1535 H 0.26219 0.44916 0.80162 0.0
H1536 H 0.37413 0.41102 0.79229 0.0
H1537 H 0.44762 0.41966 0.81802 0.0
H1538 H 0.39336 0.38507 0.86484 0.0
C1539 C 0.57571 0.34757 0.80579 0.0
C1540 C 0.55625 0.36398 0.80158 0.0
C1541 C 0.54538 0.37564 0.82222 0.0
C1542 C 0.55425 0.37111 0.84634 0.0
C1543 C 0.57362 0.35437 0.84918 0.0
N1544 N 0.58254 0.34324 0.82909 0.0
C1545 C 0.58802 0.3488 0.8717 0.0
C1546 C 0.62467 0.32646 0.88731 0.0
C1547 C 0.63871 0.34496 0.89891 0.0
C1548 C 0.65628 0.33866 0.91669 0.0
C1549 C 0.65987 0.31392 0.92307 0.0
C1550 C 0.64585 0.29546 0.91172 0.0
C1551 C 0.62827 0.30169 0.89392 0.0
Cd1552 Cd 0.55371 0.35578 0.92477 0.0
Cd1553 Cd 0.48 0.31707 0.91584 0.0
C1554 C 0.63533 0.3201 0.78394 0.0
C1555 C 0.65776 0.28802 0.76252 0.0
C1556 C 0.67931 0.30233 0.76443 0.0
C1557 C 0.67876 0.32592 0.77486 0.0
C1558 C 0.65646 0.33505 0.78371 0.0
C1559 C 0.63573 0.29682 0.77269 0.0
Co1560 Co 0.61281 0.32863 0.83315 0.0
N1561 N 0.63041 0.3601 0.83397 0.0
N1562 N 0.64318 0.31436 0.83729 0.0
C1563 C 0.66216 0.32976 0.84055 0.0
C1564 C 0.68576 0.31967 0.84305 0.0
C1565 C 0.68807 0.29363 0.84218 0.0
C1566 C 0.66708 0.27834 0.83884 0.0
C1567 C 0.64408 0.28976 0.83632 0.0
N1568 N 0.60015 0.29451 0.83227 0.0
N1569 N 0.60727 0.33263 0.86834 0.0
N1570 N 0.61426 0.32774 0.79766 0.0
O1571 O 0.49876 0.29693 0.95076 0.0
O1572 O 0.52845 0.31966 0.93618 0.0
C1573 C 0.58192 0.37682 0.96947 0.0
O1574 O 0.59061 0.35949 0.95602 0.0
O1575 O 0.55995 0.38303 0.9637 0.0
C1576 C 0.5033 0.37606 0.90912 0.0
O1577 O 0.52336 0.38815 0.91054 0.0
O1578 O 0.50338 0.3546 0.91804 0.0
C1579 C 0.65481 0.35599 0.83924 0.0
O1580 O 0.67103 0.37406 0.84024 0.0
O1581 O 0.53742 0.32086 0.89221 0.0
O1582 O 0.50288 0.29969 0.88324 0.0
C1583 C 0.61951 0.27832 0.83327 0.0
O1584 O 0.61619 0.25428 0.83424 0.0
C1585 C 0.5748 0.28691 0.83458 0.0
C1586 C 0.56243 0.29494 0.85518 0.0
C1587 C 0.53736 0.29184 0.85772 0.0
C1588 C 0.5245 0.27692 0.84013 0.0
C1589 C 0.53701 0.26511 0.82001 0.0
C1590 C 0.5627 0.27101 0.81754 0.0
C1591 C 0.51848 0.30911 0.95445 0.0
O1592 O 0.58511 0.36183 0.89274 0.0
C1593 C 0.52541 0.30463 0.87897 0.0
C1594 C 0.62107 0.38423 0.82782 0.0
C1595 C 0.61855 0.39118 0.80307 0.0
C1596 C 0.61318 0.41548 0.79683 0.0
C1597 C 0.61028 0.43328 0.81511 0.0
C1598 C 0.6123 0.42699 0.84027 0.0
C1599 C 0.61742 0.40204 0.84634 0.0
C1600 C 0.59327 0.33742 0.78766 0.0
O1601 O 0.59058 0.34044 0.76376 0.0
H1602 H 0.55043 0.36857 0.78305 0.0
H1603 H 0.53064 0.3888 0.81946 0.0
H1604 H 0.54668 0.38086 0.86201 0.0
H1605 H 0.63636 0.36417 0.89396 0.0
H1606 H 0.67349 0.30907 0.93681 0.0
H1607 H 0.61744 0.28722 0.8854 0.0
H1608 H 0.69616 0.29602 0.75568 0.0
H1609 H 0.65581 0.35362 0.7908 0.0
H1610 H 0.61905 0.28577 0.7718 0.0
H1611 H 0.70184 0.33136 0.84526 0.0
H1612 H 0.70611 0.28531 0.844 0.0
H1613 H 0.66884 0.25844 0.83824 0.0
H1614 H 0.57268 0.3036 0.86974 0.0
H1615 H 0.5048 0.27465 0.84225 0.0
H1616 H 0.5738 0.26309 0.80311 0.0
H1617 H 0.62172 0.37821 0.78837 0.0
H1618 H 0.60785 0.45215 0.80913 0.0
H1619 H 0.61941 0.39639 0.86537 0.0
C1620 C 0.67453 0.57356 0.80776 0.0
C1621 C 0.66021 0.55234 0.80403 0.0
C1622 C 0.64907 0.54118 0.82489 0.0
C1623 C 0.65206 0.5515 0.84869 0.0
C1624 C 0.66669 0.57268 0.85103 0.0
N1625 N 0.67719 0.58195 0.83078 0.0
C1626 C 0.67164 0.58777 0.87325 0.0
C1627 C 0.69323 0.62535 0.88819 0.0
C1628 C 0.6747 0.63914 0.89986 0.0
C1629 C 0.68093 0.65693 0.91747 0.0
C1630 C 0.70563 0.66098 0.92363 0.0
C1631 C 0.72413 0.64715 0.91228 0.0
C1632 C 0.71797 0.62935 0.89466 0.0
Cd1633 Cd 0.66078 0.55291 0.92635 0.0
Cd1634 Cd 0.68726 0.47787 0.90407 0.0
C1635 C 0.69947 0.63375 0.78442 0.0
C1636 C 0.73029 0.65733 0.76236 0.0
C1637 C 0.71487 0.67806 0.76346 0.0
C1638 C 0.69112 0.67613 0.7733 0.0
C1639 C 0.6832 0.65368 0.78302 0.0
C1640 C 0.72276 0.63519 0.77337 0.0
Co1641 Co 0.69141 0.61254 0.83416 0.0
N1642 N 0.66002 0.6301 0.83411 0.0
N1643 N 0.70559 0.6432 0.83755 0.0
C1644 C 0.69022 0.66214 0.84055 0.0
C1645 C 0.7003 0.68571 0.84388 0.0
C1646 C 0.72633 0.68811 0.84364 0.0
C1647 C 0.7416 0.6672 0.84031 0.0
C1648 C 0.73018 0.6442 0.83723 0.0
N1649 N 0.72525 0.60024 0.83414 0.0
N1650 N 0.68711 0.60766 0.86947 0.0
N1651 N 0.69284 0.61275 0.79871 0.0
O1652 O 0.70327 0.48133 0.94423 0.0
O1653 O 0.68539 0.51792 0.94457 0.0
C1654 C 0.64076 0.58302 0.97078 0.0
O1655 O 0.65956 0.59021 0.95839 0.0
O1656 O 0.63233 0.5622 0.96367 0.0
C1657 C 0.63458 0.50945 0.9037 0.0
O1658 O 0.62371 0.52958 0.90839 0.0
O1659 O 0.6571 0.50866 0.90889 0.0
C1660 C 0.66409 0.65464 0.83904 0.0
O1661 O 0.64603 0.67076 0.84008 0.0
O1662 O 0.69822 0.53922 0.89471 0.0
O1663 O 0.71451 0.5032 0.88215 0.0
C1664 C 0.74152 0.61961 0.83488 0.0
O1665 O 0.76551 0.6163 0.8362 0.0
C1666 C 0.73276 0.57513 0.83728 0.0
C1667 C 0.72685 0.56385 0.85926 0.0
C1668 C 0.72955 0.53873 0.86217 0.0
C1669 C 0.74404 0.52544 0.84446 0.0
C1670 C 0.75359 0.53717 0.82267 0.0
C1671 C 0.74568 0.56202 0.81885 0.0
C1672 C 0.6978 0.50115 0.95547 0.0
O1673 O 0.65833 0.58502 0.89416 0.0
C1674 C 0.71423 0.52665 0.88174 0.0
C1675 C 0.63577 0.61999 0.83023 0.0
C1676 C 0.62876 0.61124 0.80695 0.0
C1677 C 0.60483 0.60266 0.80284 0.0
C1678 C 0.5874 0.60334 0.82172 0.0
C1679 C 0.59367 0.61313 0.84489 0.0
C1680 C 0.61807 0.62107 0.84909 0.0
C1681 C 0.68459 0.59084 0.78925 0.0
O1682 O 0.68239 0.58713 0.7654 0.0
H1683 H 0.65699 0.54514 0.7857 0.0
H1684 H 0.63763 0.52493 0.82254 0.0
H1685 H 0.64297 0.54344 0.86447 0.0
H1686 H 0.65552 0.63638 0.89517 0.0
H1687 H 0.71043 0.67477 0.93724 0.0
H1688 H 0.73249 0.61865 0.88621 0.0
H1689 H 0.72028 0.695 0.75416 0.0
H1690 H 0.66445 0.65181 0.78953 0.0
H1691 H 0.73466 0.61914 0.77305 0.0
H1692 H 0.68861 0.70166 0.84646 0.0
H1693 H 0.73464 0.70614 0.84611 0.0
H1694 H 0.76149 0.66898 0.84039 0.0
H1695 H 0.71861 0.57457 0.87377 0.0
H1696 H 0.74752 0.50609 0.84776 0.0
H1697 H 0.74871 0.57147 0.80161 0.0
H1698 H 0.64132 0.61187 0.79159 0.0
H1699 H 0.56871 0.59752 0.8177 0.0
H1700 H 0.62313 0.6288 0.86679 0.0
C1701 C 0.57868 0.674 0.21371 0.0
C1702 C 0.55859 0.65841 0.2181 0.0
C1703 C 0.54694 0.64738 0.19755 0.0
C1704 C 0.55513 0.65239 0.17323 0.0
C1705 C 0.57499 0.66862 0.17015 0.0
N1706 N 0.58548 0.67811 0.19036 0.0
C1707 C 0.58857 0.6747 0.14719 0.0
C1708 C 0.62728 0.69349 0.13161 0.0
C1709 C 0.63767 0.67366 0.11852 0.0
C1710 C 0.65571 0.67798 0.10063 0.0
C1711 C 0.66352 0.70206 0.09562 0.0
C1712 C 0.65331 0.72186 0.10852 0.0
C1713 C 0.63527 0.71763 0.12643 0.0
Cd1714 Cd 0.55583 0.66982 0.08858 0.0
Cd1715 Cd 0.52075 0.69669 0.09934 0.0
C1716 C 0.63885 0.70086 0.23482 0.0
C1717 C 0.6563 0.73422 0.25854 0.0
C1718 C 0.6798 0.72392 0.25535 0.0
C1719 C 0.68288 0.70148 0.24292 0.0
C1720 C 0.66197 0.68958 0.23355 0.0
C1721 C 0.63589 0.72305 0.24753 0.0
Co1722 Co 0.61632 0.6915 0.18605 0.0
N1723 N 0.63307 0.65944 0.18325 0.0
N1724 N 0.64714 0.70498 0.18158 0.0
C1725 C 0.66552 0.68926 0.17705 0.0
C1726 C 0.68944 0.69876 0.17475 0.0
C1727 C 0.69277 0.72458 0.17726 0.0
C1728 C 0.67247 0.74021 0.18216 0.0
C1729 C 0.64911 0.72938 0.18442 0.0
N1730 N 0.60505 0.72609 0.18959 0.0
N1731 N 0.60937 0.68911 0.15068 0.0
N1732 N 0.61874 0.69071 0.2214 0.0
O1733 O 0.48938 0.69867 0.07241 0.0
O1734 O 0.5223 0.68013 0.05699 0.0
C1735 C 0.58873 0.6422 0.05065 0.0
O1736 O 0.58867 0.66582 0.05208 0.0
O1737 O 0.57517 0.6319 0.06688 0.0
C1738 C 0.50781 0.64749 0.12253 0.0
O1739 O 0.52252 0.6408 0.10541 0.0
O1740 O 0.507 0.66981 0.12901 0.0
C1741 C 0.65744 0.66325 0.1775 0.0
O1742 O 0.67319 0.64493 0.17553 0.0
O1743 O 0.55526 0.71025 0.12007 0.0
O1744 O 0.52147 0.7335 0.12051 0.0
C1745 C 0.62521 0.74143 0.18913 0.0
O1746 O 0.62303 0.76561 0.18951 0.0
C1747 C 0.58091 0.73568 0.18433 0.0
C1748 C 0.57384 0.73431 0.16013 0.0
C1749 C 0.55051 0.74058 0.15259 0.0
C1750 C 0.53495 0.75389 0.16929 0.0
C1751 C 0.54286 0.75919 0.19397 0.0
C1752 C 0.56593 0.74882 0.20151 0.0
C1753 C 0.50044 0.68879 0.05455 0.0
O1754 O 0.58377 0.66286 0.12552 0.0
C1755 C 0.54258 0.72868 0.12904 0.0
C1756 C 0.62309 0.6351 0.18766 0.0
C1757 C 0.61438 0.62864 0.21107 0.0
C1758 C 0.60372 0.60564 0.21523 0.0
C1759 C 0.60311 0.58811 0.19652 0.0
C1760 C 0.61477 0.5927 0.17373 0.0
C1761 C 0.62437 0.61667 0.16936 0.0
C1762 C 0.59701 0.68305 0.23162 0.0
O1763 O 0.59405 0.6809 0.25559 0.0
H1764 H 0.55307 0.65363 0.23668 0.0
H1765 H 0.53225 0.63422 0.20068 0.0
H1766 H 0.54694 0.64312 0.15759 0.0
H1767 H 0.63212 0.65485 0.12237 0.0
H1768 H 0.6775 0.70538 0.08178 0.0
H1769 H 0.62767 0.73324 0.13616 0.0
H1770 H 0.6953 0.73188 0.26523 0.0
H1771 H 0.66358 0.67154 0.22525 0.0
H1772 H 0.6177 0.73106 0.24952 0.0
H1773 H 0.70503 0.68674 0.17156 0.0
H1774 H 0.71108 0.73243 0.17565 0.0
H1775 H 0.67503 0.75994 0.18419 0.0
H1776 H 0.58663 0.72714 0.14685 0.0
H1777 H 0.51672 0.7595 0.16341 0.0
H1778 H 0.57246 0.75147 0.22021 0.0
H1779 H 0.61644 0.64092 0.22648 0.0
H1780 H 0.59443 0.57053 0.20045 0.0
H1781 H 0.63388 0.62096 0.1524 0.0
C1782 C 0.3433 0.5737 0.20997 0.0
C1783 C 0.35669 0.55194 0.21365 0.0
C1784 C 0.36727 0.54039 0.19274 0.0
C1785 C 0.36463 0.55079 0.16891 0.0
C1786 C 0.35102 0.57259 0.16665 0.0
N1787 N 0.34113 0.58227 0.18699 0.0
C1788 C 0.34606 0.58763 0.1444 0.0
C1789 C 0.32501 0.62532 0.12942 0.0
C1790 C 0.34382 0.63861 0.11746 0.0
C1791 C 0.33791 0.65635 0.0997 0.0
C1792 C 0.31326 0.66085 0.0937 0.0
C1793 C 0.29449 0.64756 0.10541 0.0
C1794 C 0.30033 0.62981 0.12318 0.0
Cd1795 Cd 0.35254 0.55424 0.09015 0.0
Cd1796 Cd 0.3148 0.48097 0.10098 0.0
C1797 C 0.31956 0.63449 0.23326 0.0
C1798 C 0.28908 0.6558 0.25767 0.0
C1799 C 0.30221 0.67789 0.25441 0.0
C1800 C 0.32494 0.67806 0.2422 0.0
C1801 C 0.33406 0.65594 0.23271 0.0
C1802 C 0.29738 0.63416 0.24639 0.0
Co1803 Co 0.32731 0.61292 0.18351 0.0
N1804 N 0.35898 0.63023 0.18237 0.0
N1805 N 0.31348 0.64359 0.1799 0.0
C1806 C 0.32903 0.66238 0.17617 0.0
C1807 C 0.31917 0.68611 0.17362 0.0
C1808 C 0.2932 0.68872 0.17484 0.0
C1809 C 0.27775 0.6679 0.17858 0.0
C1810 C 0.28892 0.64478 0.18117 0.0
N1811 N 0.29319 0.60074 0.18482 0.0
N1812 N 0.33083 0.60759 0.14819 0.0
N1813 N 0.32668 0.61359 0.21902 0.0
O1814 O 0.29433 0.49732 0.06541 0.0
O1815 O 0.31765 0.52759 0.07776 0.0
C1816 C 0.37346 0.58253 0.04557 0.0
O1817 O 0.36139 0.59322 0.06274 0.0
O1818 O 0.37431 0.55907 0.04782 0.0
C1819 C 0.37423 0.50517 0.10685 0.0
O1820 O 0.38597 0.5253 0.1041 0.0
O1821 O 0.35215 0.5051 0.09954 0.0
C1822 C 0.35516 0.65468 0.17696 0.0
O1823 O 0.37339 0.6707 0.17573 0.0
O1824 O 0.31687 0.53935 0.12264 0.0
O1825 O 0.29604 0.50459 0.1318 0.0
C1826 C 0.27725 0.6203 0.18425 0.0
O1827 O 0.25319 0.61724 0.1837 0.0
C1828 C 0.28529 0.57555 0.18214 0.0
C1829 C 0.29148 0.564 0.16037 0.0
C1830 C 0.28782 0.53903 0.15704 0.0
C1831 C 0.27331 0.52579 0.17469 0.0
C1832 C 0.26418 0.53758 0.19633 0.0
C1833 C 0.27126 0.56264 0.20022 0.0
C1834 C 0.30638 0.51682 0.06034 0.0
O1835 O 0.35894 0.58459 0.12327 0.0
C1836 C 0.30044 0.52732 0.1356 0.0
C1837 C 0.38285 0.62002 0.18788 0.0
C1838 C 0.38778 0.61105 0.21159 0.0
C1839 C 0.4099 0.59927 0.2168 0.0
C1840 C 0.42812 0.59781 0.19888 0.0
C1841 C 0.42506 0.60963 0.17596 0.0
C1842 C 0.40189 0.62006 0.1702 0.0
C1843 C 0.33366 0.59122 0.22846 0.0
O1844 O 0.33541 0.58726 0.25232 0.0
H1845 H 0.35955 0.54453 0.23197 0.0
H1846 H 0.37789 0.52365 0.19506 0.0
H1847 H 0.37305 0.54221 0.153 0.0
H1848 H 0.36298 0.63551 0.1221 0.0
H1849 H 0.30871 0.6746 0.07997 0.0
H1850 H 0.28562 0.61954 0.13196 0.0
H1851 H 0.29609 0.69444 0.26387 0.0
H1852 H 0.35236 0.65547 0.22492 0.0
H1853 H 0.28702 0.61711 0.24827 0.0
H1854 H 0.33098 0.70204 0.17102 0.0
H1855 H 0.28507 0.70685 0.17294 0.0
H1856 H 0.2579 0.66988 0.17935 0.0
H1857 H 0.29958 0.57469 0.14575 0.0
H1858 H 0.2694 0.50638 0.17183 0.0
H1859 H 0.26559 0.57215 0.21682 0.0
H1860 H 0.3749 0.61361 0.22641 0.0
H1861 H 0.44538 0.58901 0.20368 0.0
H1862 H 0.39894 0.62919 0.15268 0.0
C1863 C 0.66953 0.43987 0.20971 0.0
C1864 C 0.65239 0.4588 0.21322 0.0
C1865 C 0.64099 0.46908 0.19212 0.0
C1866 C 0.64655 0.46014 0.16824 0.0
C1867 C 0.66409 0.44143 0.1661 0.0
N1868 N 0.67484 0.43302 0.18663 0.0
C1869 C 0.67099 0.42715 0.14388 0.0
C1870 C 0.69486 0.39105 0.12939 0.0
C1871 C 0.67712 0.37652 0.11722 0.0
C1872 C 0.68445 0.35896 0.09985 0.0
C1873 C 0.70944 0.35585 0.09447 0.0
C1874 C 0.72714 0.37035 0.10641 0.0
C1875 C 0.71989 0.38793 0.12379 0.0
Cd1876 Cd 0.66151 0.4624 0.09126 0.0
Cd1877 Cd 0.69393 0.5383 0.10518 0.0
C1878 C 0.69863 0.38154 0.23291 0.0
C1879 C 0.73097 0.36256 0.25695 0.0
C1880 C 0.71925 0.33956 0.25408 0.0
C1881 C 0.69662 0.33766 0.24173 0.0
C1882 C 0.68587 0.35906 0.23229 0.0
C1883 C 0.72096 0.38347 0.24563 0.0
Co1884 Co 0.69041 0.40315 0.18328 0.0
N1885 N 0.65954 0.38454 0.1812 0.0
N1886 N 0.70566 0.37315 0.17986 0.0
C1887 C 0.69098 0.3537 0.17592 0.0
C1888 C 0.70184 0.33038 0.17391 0.0
C1889 C 0.72785 0.32884 0.17592 0.0
C1890 C 0.74234 0.35028 0.17992 0.0
C1891 C 0.73018 0.37296 0.18194 0.0
N1892 N 0.72413 0.41689 0.18552 0.0
N1893 N 0.68763 0.40844 0.14795 0.0
N1894 N 0.68987 0.40183 0.21874 0.0
O1895 O 0.71432 0.52534 0.06869 0.0
O1896 O 0.69165 0.49182 0.07261 0.0
C1897 C 0.63814 0.43336 0.04816 0.0
O1898 O 0.65955 0.42811 0.05667 0.0
O1899 O 0.62836 0.45214 0.0584 0.0
C1900 C 0.6384 0.51024 0.10941 0.0
O1901 O 0.6276 0.48952 0.10787 0.0
O1902 O 0.65995 0.51135 0.10105 0.0
C1903 C 0.66455 0.36026 0.17612 0.0
O1904 O 0.64704 0.34348 0.17454 0.0
O1905 O 0.6968 0.47807 0.12408 0.0
O1906 O 0.71506 0.51396 0.13435 0.0
C1907 C 0.74079 0.39789 0.18539 0.0
O1908 O 0.76473 0.40182 0.1854 0.0
C1909 C 0.73137 0.44238 0.18262 0.0
C1910 C 0.72371 0.4541 0.16136 0.0
C1911 C 0.72665 0.47918 0.15798 0.0
C1912 C 0.74193 0.49253 0.17491 0.0
C1913 C 0.75312 0.48057 0.1955 0.0
C1914 C 0.74686 0.45529 0.19956 0.0
C1915 C 0.70635 0.50506 0.05997 0.0
O1916 O 0.65867 0.42949 0.12235 0.0
C1917 C 0.71256 0.49079 0.13725 0.0
C1918 C 0.63501 0.39321 0.18649 0.0
C1919 C 0.62755 0.39634 0.21099 0.0
C1920 C 0.60335 0.4028 0.2165 0.0
C1921 C 0.5861 0.4058 0.1977 0.0
C1922 C 0.59277 0.40226 0.17285 0.0
C1923 C 0.61757 0.39615 0.16744 0.0
C1924 C 0.67953 0.4227 0.22828 0.0
O1925 O 0.67588 0.42555 0.25207 0.0
H1926 H 0.647 0.46456 0.23154 0.0
H1927 H 0.62714 0.48324 0.19439 0.0
H1928 H 0.63689 0.46697 0.1522 0.0
H1929 H 0.65772 0.37848 0.12141 0.0
H1930 H 0.71509 0.34224 0.08104 0.0
H1931 H 0.73379 0.39911 0.13279 0.0
H1932 H 0.72657 0.3235 0.26353 0.0
H1933 H 0.66775 0.35809 0.22412 0.0
H1934 H 0.73018 0.4012 0.24708 0.0
H1935 H 0.69075 0.31395 0.17122 0.0
H1936 H 0.73675 0.31103 0.17446 0.0
H1937 H 0.76221 0.3491 0.18137 0.0
H1938 H 0.71533 0.44344 0.14699 0.0
H1939 H 0.74531 0.51204 0.17199 0.0
H1940 H 0.75409 0.4457 0.21553 0.0
H1941 H 0.6401 0.39298 0.22605 0.0
H1942 H 0.56723 0.40946 0.20297 0.0
H1943 H 0.62327 0.39304 0.14858 0.0
C1944 C 0.13323 0.4052 0.45122 0.0
C1945 C 0.15274 0.38953 0.44446 0.0
C1946 C 0.11788 0.39935 0.47136 0.0
C1947 C 0.1215 0.37753 0.48497 0.0
H1948 H 0.13025 0.42231 0.44129 0.0
H1949 H 0.1032 0.41192 0.47635 0.0
S1950 S 0.17073 0.33116 0.47519 0.0
N1951 N 0.17528 0.35188 0.45327 0.0
N1952 N 0.14636 0.34074 0.49071 0.0
C1953 C 0.14082 0.36173 0.47816 0.0
C1954 C 0.15649 0.36777 0.45797 0.0
C1955 C 0.63107 0.13132 0.43825 0.0
C1956 C 0.61789 0.15363 0.44162 0.0
C1957 C 0.63827 0.11644 0.45831 0.0
C1958 C 0.6315 0.12234 0.48261 0.0
H1959 H 0.6363 0.12512 0.42007 0.0
H1960 H 0.64928 0.10015 0.45476 0.0
S1961 S 0.59628 0.17717 0.50282 0.0
N1962 N 0.59953 0.18075 0.47284 0.0
N1963 N 0.60961 0.15064 0.50917 0.0
C1964 C 0.61722 0.14349 0.48638 0.0
C1965 C 0.61127 0.1596 0.46632 0.0
C1966 C 0.89165 0.62537 0.4389 0.0
C1967 C 0.86599 0.62181 0.44136 0.0
C1968 C 0.90621 0.63264 0.45927 0.0
C1969 C 0.89559 0.63613 0.48271 0.0
H1970 H 0.90054 0.62223 0.4213 0.0
H1971 H 0.92588 0.63521 0.45677 0.0
S1972 S 0.82901 0.63425 0.49743 0.0
N1973 N 0.83043 0.62631 0.46818 0.0
N1974 N 0.85781 0.63862 0.50633 0.0
C1975 C 0.87 0.63364 0.48505 0.0
C1976 C 0.85521 0.62684 0.46441 0.0
C1977 C 0.40589 0.86628 0.46601 0.0
C1978 C 0.39163 0.86298 0.44443 0.0
C1979 C 0.39741 0.88074 0.48584 0.0
C1980 C 0.37435 0.89251 0.48482 0.0
H1981 H 0.42349 0.85706 0.46788 0.0
H1982 H 0.40861 0.882 0.50234 0.0
S1983 S 0.33051 0.89129 0.43186 0.0
N1984 N 0.3535 0.87345 0.4232 0.0
N1985 N 0.33824 0.90147 0.45944 0.0
C1986 C 0.3605 0.89039 0.4628 0.0
C1987 C 0.36896 0.87547 0.44288 0.0
C1988 C 0.13695 0.61455 0.56271 0.0
C1989 C 0.15826 0.62749 0.57015 0.0
C1990 C 0.1234 0.62214 0.5418 0.0
C1991 C 0.13081 0.64292 0.52802 0.0
H1992 H 0.13073 0.59864 0.57313 0.0
H1993 H 0.1066 0.61237 0.53702 0.0
S1994 S 0.1855 0.68254 0.53983 0.0
N1995 N 0.18635 0.66148 0.56186 0.0
N1996 N 0.16087 0.67596 0.52316 0.0
C1997 C 0.15224 0.65567 0.53525 0.0
C1998 C 0.16598 0.6479 0.55618 0.0
C1999 C 0.37236 0.13748 0.57211 0.0
C2000 C 0.39473 0.15072 0.57142 0.0
C2001 C 0.36522 0.12209 0.55253 0.0
C2002 C 0.38013 0.11932 0.53143 0.0
H2003 H 0.35966 0.13994 0.58732 0.0
H2004 H 0.34742 0.11303 0.55362 0.0
S2005 S 0.44187 0.14765 0.52192 0.0
N2006 N 0.43288 0.1581 0.54904 0.0
N2007 N 0.41931 0.12964 0.51206 0.0
C2008 C 0.40314 0.13143 0.53111 0.0
C2009 C 0.41045 0.14702 0.55111 0.0
C2010 C 0.87312 0.40721 0.55431 0.0
C2011 C 0.86128 0.39096 0.57081 0.0
C2012 C 0.88683 0.3982 0.5342 0.0
C2013 C 0.88888 0.37266 0.52984 0.0
H2014 H 0.8717 0.42699 0.55696 0.0
H2015 H 0.89592 0.4113 0.52211 0.0
S2016 S 0.85885 0.3227 0.56645 0.0
N2017 N 0.85113 0.34845 0.58071 0.0
N2018 N 0.87626 0.33137 0.54304 0.0
C2019 C 0.87655 0.35632 0.54605 0.0
C2020 C 0.86293 0.3655 0.56651 0.0
C2021 C 0.61293 0.87998 0.56434 0.0
C2022 C 0.62428 0.85725 0.5697 0.0
C2023 C 0.62064 0.89425 0.54396 0.0
C2024 C 0.64008 0.8862 0.52881 0.0
H2025 H 0.59822 0.88677 0.576 0.0
H2026 H 0.61215 0.91205 0.54071 0.0
S2027 S 0.67596 0.82839 0.53567 0.0
N2028 N 0.65556 0.8274 0.55826 0.0
N2029 N 0.67072 0.85453 0.52092 0.0
C2030 C 0.65144 0.86355 0.53415 0.0
C2031 C 0.64336 0.84897 0.55438 0.0
C2032 C 0.44679 0.13077 0.3983 0.0
C2033 C 0.44447 0.15402 0.38688 0.0
C2034 C 0.46683 0.11516 0.39276 0.0
C2035 C 0.48479 0.12229 0.37542 0.0
H2036 H 0.43341 0.12492 0.41195 0.0
H2037 H 0.46827 0.09748 0.40201 0.0
S2038 S 0.48598 0.18039 0.33928 0.0
N2039 N 0.46126 0.18284 0.35688 0.0
N2040 N 0.49831 0.15337 0.34612 0.0
C2041 C 0.48218 0.1451 0.36345 0.0
C2042 C 0.46215 0.16102 0.36927 0.0
C2043 C 0.86395 0.45217 0.36886 0.0
C2044 C 0.86344 0.44781 0.39431 0.0
C2045 C 0.8768 0.47228 0.35912 0.0
C2046 C 0.88988 0.48883 0.37442 0.0
H2047 H 0.85374 0.4403 0.35638 0.0
H2048 H 0.87623 0.4749 0.33932 0.0
S2049 S 0.89541 0.48436 0.44243 0.0
N2050 N 0.87748 0.46085 0.43478 0.0
N2051 N 0.90229 0.49871 0.4164 0.0
C2052 C 0.88982 0.48445 0.39998 0.0
C2053 C 0.87646 0.46391 0.40994 0.0
C2054 C 0.55197 0.87335 0.40793 0.0
C2055 C 0.5698 0.86309 0.39214 0.0
C2056 C 0.53192 0.88679 0.39846 0.0
C2057 C 0.52894 0.89014 0.37289 0.0
H2058 H 0.55345 0.87076 0.42768 0.0
H2059 H 0.51866 0.89449 0.41123 0.0
S2060 S 0.56989 0.86505 0.32381 0.0
N2061 N 0.58276 0.85615 0.3499 0.0
N2062 N 0.5453 0.88096 0.33193 0.0
C2063 C 0.5467 0.87967 0.35696 0.0
C2064 C 0.56707 0.86628 0.36663 0.0
C2065 C 0.13058 0.56978 0.40152 0.0
C2066 C 0.15385 0.57248 0.39031 0.0
C2067 C 0.11483 0.55005 0.39512 0.0
C2068 C 0.1218 0.53282 0.37705 0.0
H2069 H 0.12481 0.58266 0.41565 0.0
H2070 H 0.09715 0.54827 0.40427 0.0
S2071 S 0.18007 0.53259 0.34137 0.0
N2072 N 0.18265 0.55671 0.35985 0.0
N2073 N 0.1529 0.52018 0.34752 0.0
C2074 C 0.14468 0.53575 0.36534 0.0
C2075 C 0.16076 0.55547 0.37204 0.0
C2076 C 0.46254 0.89488 0.64651 0.0
C2077 C 0.48397 0.89601 0.63187 0.0
C2078 C 0.44297 0.87897 0.64064 0.0
C2079 C 0.44388 0.86359 0.61975 0.0
H2080 H 0.46116 0.9057 0.66324 0.0
H2081 H 0.42757 0.87786 0.65332 0.0
S2082 S 0.49427 0.86203 0.57338 0.0
N2083 N 0.50397 0.88193 0.59431 0.0
N2084 N 0.46682 0.85268 0.58278 0.0
C2085 C 0.4645 0.86574 0.60404 0.0
C2086 C 0.48458 0.8818 0.61018 0.0
C2087 C 0.16545 0.47052 0.6129 0.0
C2088 C 0.15647 0.44604 0.61582 0.0
C2089 C 0.15049 0.49118 0.61664 0.0
C2090 C 0.1262 0.48847 0.62471 0.0
H2091 H 0.18461 0.47423 0.60884 0.0
H2092 H 0.15859 0.5094 0.61495 0.0
S2093 S 0.09235 0.42984 0.63491 0.0
N2094 N 0.11992 0.42116 0.6254 0.0
N2095 N 0.09313 0.46031 0.63552 0.0
C2096 C 0.11658 0.46458 0.62766 0.0
C2097 C 0.13137 0.44333 0.6226 0.0
C2098 C 0.56471 0.13935 0.61476 0.0
C2099 C 0.57069 0.16129 0.62738 0.0
C2100 C 0.5442 0.12492 0.62193 0.0
C2101 C 0.52943 0.13201 0.64203 0.0
H2102 H 0.57596 0.13334 0.5994 0.0
H2103 H 0.54051 0.10772 0.6124 0.0
S2104 S 0.53742 0.18798 0.68071 0.0
N2105 N 0.56003 0.18957 0.66036 0.0
N2106 N 0.52215 0.16239 0.67418 0.0
C2107 C 0.53524 0.15402 0.6545 0.0
C2108 C 0.55573 0.16868 0.64709 0.0
C2109 C 0.87965 0.57677 0.6412 0.0
C2110 C 0.86245 0.57537 0.62184 0.0
C2111 C 0.89571 0.55725 0.64623 0.0
C2112 C 0.89511 0.53525 0.6324 0.0
H2113 H 0.87989 0.5925 0.65353 0.0
H2114 H 0.90804 0.55914 0.66181 0.0
S2115 S 0.85649 0.52373 0.57709 0.0
N2116 N 0.84832 0.55157 0.5864 0.0
N2117 N 0.87782 0.51431 0.59668 0.0
C2118 C 0.87926 0.53418 0.61191 0.0
C2119 C 0.86306 0.55432 0.6065 0.0
C2120 C 0.37627 0.44316 0.13906 0.0
C2121 C 0.39825 0.44419 0.1528 0.0
C2122 C 0.36949 0.46243 0.12332 0.0
C2123 C 0.38412 0.48381 0.12085 0.0
H2124 H 0.36353 0.42787 0.14127 0.0
H2125 H 0.35212 0.46075 0.11367 0.0
S2126 S 0.44516 0.49425 0.15009 0.0
N2127 N 0.43619 0.46704 0.16062 0.0
N2128 N 0.42285 0.50383 0.1317 0.0
C2129 C 0.40682 0.48457 0.13341 0.0
C2130 C 0.41396 0.46469 0.14926 0.0
C2131 C 0.38556 0.57511 0.88047 0.0
C2132 C 0.40371 0.5739 0.86195 0.0
C2133 C 0.38038 0.55473 0.89546 0.0
C2134 C 0.39215 0.5319 0.89184 0.0
H2135 H 0.37405 0.59127 0.88253 0.0
H2136 H 0.36613 0.5566 0.90924 0.0
S2137 S 0.44609 0.52095 0.85163 0.0
N2138 N 0.43812 0.54981 0.84583 0.0
N2139 N 0.42625 0.51067 0.87236 0.0
C2140 C 0.41222 0.53114 0.87565 0.0
C2141 C 0.41833 0.55229 0.86098 0.0
C2142 C 0.44439 0.40501 0.88469 0.0
C2143 C 0.44276 0.39476 0.8609 0.0
C2144 C 0.46448 0.3995 0.90023 0.0
C2145 C 0.48326 0.38346 0.89241 0.0
H2146 H 0.43029 0.41758 0.89113 0.0
H2147 H 0.4652 0.40757 0.91849 0.0
S2148 S 0.48619 0.35005 0.83291 0.0
N2149 N 0.46089 0.36687 0.83092 0.0
N2150 N 0.4981 0.35613 0.86028 0.0
C2151 C 0.48137 0.37258 0.86903 0.0
C2152 C 0.46124 0.37836 0.8532 0.0
C2153 C 0.62898 0.44466 0.87974 0.0
C2154 C 0.61272 0.44689 0.85959 0.0
C2155 C 0.63367 0.46452 0.89547 0.0
C2156 C 0.62318 0.48788 0.89136 0.0
H2157 H 0.63956 0.42802 0.88271 0.0
H2158 H 0.64678 0.46185 0.91028 0.0
S2159 S 0.5752 0.50262 0.84511 0.0
N2160 N 0.58197 0.47335 0.8399 0.0
N2161 N 0.59298 0.51139 0.86826 0.0
C2162 C 0.60524 0.49004 0.87289 0.0
C2163 C 0.59965 0.46943 0.85723 0.0
C2164 C 0.57227 0.64195 0.87342 0.0
C2165 C 0.57413 0.61814 0.86335 0.0
C2166 C 0.5526 0.64837 0.88873 0.0
C2167 C 0.53382 0.63132 0.89461 0.0
H2168 H 0.58563 0.6561 0.86867 0.0
H2169 H 0.55181 0.6672 0.89529 0.0
S2170 S 0.53146 0.56573 0.87489 0.0
N2171 N 0.55668 0.57678 0.86176 0.0
N2172 N 0.5193 0.58896 0.8904 0.0
C2173 C 0.53588 0.60713 0.88536 0.0
C2174 C 0.55609 0.60054 0.86975 0.0
C2175 C 0.62284 0.54773 0.16558 0.0
C2176 C 0.61869 0.57172 0.15611 0.0
C2177 C 0.62752 0.52765 0.15011 0.0
C2178 C 0.62901 0.53064 0.12456 0.0
H2179 H 0.62339 0.54437 0.18525 0.0
H2180 H 0.63131 0.50992 0.15834 0.0
S2181 S 0.62027 0.58873 0.08967 0.0
N2182 N 0.61561 0.59661 0.11869 0.0
N2183 N 0.62673 0.55894 0.09002 0.0
C2184 C 0.62527 0.55423 0.11459 0.0
C2185 C 0.61959 0.57471 0.13024 0.0
C2186 C 0.46862 0.62333 0.17313 0.0
C2187 C 0.44738 0.61481 0.16084 0.0
C2188 C 0.48928 0.63133 0.16019 0.0
C2189 C 0.49004 0.63089 0.13443 0.0
H2190 H 0.46881 0.62549 0.19299 0.0
H2191 H 0.50394 0.64002 0.17044 0.0
S2192 S 0.43957 0.61062 0.09295 0.0
N2193 N 0.42844 0.60619 0.121 0.0
N2194 N 0.46784 0.62158 0.09665 0.0
C2195 C 0.46939 0.62176 0.12165 0.0
C2196 C 0.44792 0.61372 0.13487 0.0
C2197 C 0.57361 0.38233 0.13576 0.0
C2198 C 0.57309 0.40127 0.15348 0.0
C2199 C 0.553 0.37719 0.12109 0.0
C2200 C 0.53063 0.38995 0.12418 0.0
H2201 H 0.58944 0.37029 0.13411 0.0
H2202 H 0.55442 0.36242 0.10783 0.0
S2203 S 0.52168 0.44568 0.16255 0.0
N2204 N 0.5502 0.43686 0.16867 0.0
N2205 N 0.5107 0.42554 0.14245 0.0
C2206 C 0.53061 0.41064 0.13967 0.0
C2207 C 0.55196 0.41654 0.15412 0.0
C2208 C 0.20795 0.50194 0.22344 0.0
C2209 C 0.21425 0.49754 0.24838 0.0
C2210 C 0.22415 0.51444 0.2069 0.0
C2211 C 0.24735 0.52384 0.21446 0.0
H2212 H 0.19038 0.49537 0.21651 0.0
H2213 H 0.21828 0.51704 0.18799 0.0
S2214 S 0.273 0.51735 0.2777 0.0
N2215 N 0.24588 0.50341 0.27949 0.0
N2216 N 0.27557 0.52748 0.24904 0.0
C2217 C 0.25376 0.51974 0.23941 0.0
C2218 C 0.23751 0.50649 0.25609 0.0
C2219 C 0.49738 0.21407 0.24367 0.0
C2220 C 0.52356 0.21263 0.24392 0.0
C2221 C 0.48405 0.22971 0.22723 0.0
C2222 C 0.49575 0.24563 0.20999 0.0
H2223 H 0.48668 0.20306 0.25643 0.0
H2224 H 0.46412 0.2289 0.228 0.0
S2225 S 0.56406 0.25099 0.20325 0.0
N2226 N 0.56047 0.22921 0.2242 0.0
N2227 N 0.53597 0.26003 0.19607 0.0
C2228 C 0.52195 0.24509 0.21056 0.0
C2229 C 0.53555 0.2285 0.2267 0.0
C2230 C 0.76382 0.50836 0.23271 0.0
C2231 C 0.7715 0.4943 0.21214 0.0
C2232 C 0.78081 0.52202 0.24759 0.0
C2233 C 0.80662 0.52245 0.24292 0.0
H2234 H 0.74439 0.509 0.23729 0.0
H2235 H 0.7735 0.53234 0.26302 0.0
S2236 S 0.83634 0.48914 0.19076 0.0
N2237 N 0.80685 0.48194 0.1879 0.0
N2238 N 0.83836 0.50732 0.21513 0.0
C2239 C 0.81441 0.50824 0.22239 0.0
C2240 C 0.79709 0.49439 0.20729 0.0
C2241 C 0.52315 0.80064 0.2068 0.0
C2242 C 0.52723 0.77523 0.21154 0.0
C2243 C 0.5091 0.81604 0.22294 0.0
C2244 C 0.4976 0.80699 0.24467 0.0
H2245 H 0.53114 0.80887 0.19044 0.0
H2246 H 0.50681 0.83526 0.21796 0.0
S2247 S 0.50244 0.74171 0.26607 0.0
N2248 N 0.51862 0.74197 0.24025 0.0
N2249 N 0.49212 0.77015 0.26984 0.0
C2250 C 0.50154 0.7815 0.24957 0.0
C2251 C 0.51628 0.76597 0.23337 0.0
C2252 C 0.20703 0.5234 0.7973 0.0
C2253 C 0.21157 0.52493 0.77164 0.0
C2254 C 0.22294 0.51031 0.81372 0.0
C2255 C 0.24419 0.49753 0.80548 0.0
H2256 H 0.19091 0.53242 0.80485 0.0
H2257 H 0.21822 0.50983 0.83312 0.0
S2258 S 0.26535 0.49656 0.7402 0.0
N2259 N 0.23978 0.51309 0.73911 0.0
N2260 N 0.26904 0.48843 0.76936 0.0
C2261 C 0.24898 0.49909 0.77982 0.0
C2262 C 0.23296 0.51272 0.76319 0.0
C2263 C 0.48835 0.21734 0.79524 0.0
C2264 C 0.49623 0.21108 0.77126 0.0
C2265 C 0.50156 0.23424 0.81045 0.0
C2266 C 0.52328 0.24678 0.80255 0.0
H2267 H 0.47178 0.20883 0.80254 0.0
H2268 H 0.49452 0.2371 0.82887 0.0
S2269 S 0.55071 0.23816 0.73981 0.0
N2270 N 0.52693 0.21906 0.73993 0.0
N2271 N 0.55072 0.25174 0.76707 0.0
C2272 C 0.53099 0.24087 0.77807 0.0
C2273 C 0.51779 0.22302 0.76291 0.0
C2274 C 0.77203 0.49748 0.80279 0.0
C2275 C 0.77074 0.52366 0.80402 0.0
C2276 C 0.78805 0.48472 0.78633 0.0
C2277 C 0.80365 0.49705 0.76926 0.0
H2278 H 0.76053 0.48628 0.81464 0.0
H2279 H 0.7883 0.46477 0.78741 0.0
S2280 S 0.80719 0.56561 0.76292 0.0
N2281 N 0.78811 0.56129 0.78615 0.0
N2282 N 0.81465 0.53771 0.7535 0.0
C2283 C 0.80191 0.52321 0.76953 0.0
C2284 C 0.78648 0.53626 0.78709 0.0
C2285 C 0.48852 0.79325 0.79828 0.0
C2286 C 0.49597 0.76856 0.80244 0.0
C2287 C 0.50134 0.80942 0.78186 0.0
C2288 C 0.52221 0.80191 0.76789 0.0
H2289 H 0.47278 0.8004 0.80825 0.0
H2290 H 0.49485 0.82824 0.78053 0.0
S2291 S 0.54743 0.73768 0.76966 0.0
N2292 N 0.52492 0.737 0.79012 0.0
N2293 N 0.54774 0.76603 0.75842 0.0
C2294 C 0.5292 0.77675 0.77136 0.0
C2295 C 0.5165 0.76057 0.78865 0.0
C2296 C 0.22974 0.23302 0.53418 0.0
C2297 C 0.2137 0.2501 0.52245 0.0
C2298 C 0.246 0.2171 0.52092 0.0
C2299 C 0.2473 0.21649 0.49472 0.0
H2300 H 0.22967 0.23148 0.55407 0.0
H2301 H 0.25776 0.20516 0.53171 0.0
S2302 S 0.21002 0.25796 0.45413 0.0
N2303 N 0.20219 0.2664 0.48223 0.0
N2304 N 0.22975 0.23516 0.45775 0.0
C2305 C 0.23128 0.23351 0.4827 0.0
C2306 C 0.21538 0.25038 0.49627 0.0
C2307 C 0.77175 0.21646 0.49737 0.0
C2308 C 0.77196 0.21446 0.52347 0.0
C2309 C 0.78859 0.23164 0.48403 0.0
C2310 C 0.80685 0.24647 0.49563 0.0
H2311 H 0.75824 0.2063 0.48674 0.0
H2312 H 0.7873 0.23138 0.46412 0.0
S2313 S 0.81566 0.24962 0.56371 0.0
N2314 N 0.79319 0.22929 0.56029 0.0
N2315 N 0.82294 0.25878 0.53562 0.0
C2316 C 0.80709 0.24515 0.52176 0.0
C2317 C 0.79022 0.2292 0.53542 0.0
C2318 C 0.79099 0.78987 0.53214 0.0
C2319 C 0.80582 0.77203 0.51988 0.0
C2320 C 0.77533 0.80678 0.51932 0.0
C2321 C 0.77347 0.80729 0.49325 0.0
H2322 H 0.79156 0.79115 0.55204 0.0
H2323 H 0.76437 0.81945 0.53014 0.0
S2324 S 0.80832 0.76523 0.45143 0.0
N2325 N 0.81618 0.75593 0.47928 0.0
N2326 N 0.78957 0.78873 0.4557 0.0
C2327 C 0.78854 0.7899 0.48072 0.0
C2328 C 0.80386 0.77223 0.49376 0.0
C2329 C 0.20911 0.77688 0.51986 0.0
C2330 C 0.20843 0.77684 0.49373 0.0
C2331 C 0.22519 0.79264 0.53363 0.0
C2332 C 0.24174 0.80965 0.52234 0.0
H2333 H 0.19724 0.76434 0.52996 0.0
H2334 H 0.22429 0.79159 0.55354 0.0
S2335 S 0.24774 0.81749 0.45433 0.0
N2336 N 0.22592 0.79639 0.45727 0.0
N2337 N 0.25639 0.82452 0.48265 0.0
C2338 C 0.24131 0.80973 0.49619 0.0
C2339 C 0.22481 0.79382 0.48217 0.0
C2340 C 0.00981 0.50548 0.35258 0.0
C2341 C 0.99054 0.49114 0.34288 0.0
C2342 C 0.03373 0.50189 0.34396 0.0
C2343 C 0.03854 0.4833 0.32658 0.0
H2344 H 1.00594 0.52229 0.36269 0.0
H2345 H 0.04755 0.51575 0.34816 0.0
S2346 S 0.99626 0.43377 0.30648 0.0
N2347 N 0.97904 0.45242 0.32332 0.0
N2348 N 0.02441 0.44558 0.30701 0.0
C2349 C 0.02065 0.46537 0.32189 0.0
C2350 C 0.99635 0.46904 0.33071 0.0
C2351 C 0.51014 0.01142 0.35314 0.0
C2352 C 0.52436 0.99162 0.34463 0.0
C2353 C 0.51467 0.03504 0.34396 0.0
C2354 C 0.53412 0.03906 0.32731 0.0
H2355 H 0.49281 1.00811 0.36256 0.0
H2356 H 0.50091 0.04915 0.34706 0.0
S2357 S 0.58323 0.99519 0.31049 0.0
N2358 N 0.56337 0.97876 0.32688 0.0
N2359 N 0.57225 0.02364 0.30983 0.0
C2360 C 0.55174 0.02067 0.32391 0.0
C2361 C 0.54701 0.99664 0.33315 0.0
C2362 C 0.99827 0.48703 0.72221 0.0
C2363 C 0.98188 0.49434 0.70367 0.0
C2364 C 0.02365 0.48802 0.7181 0.0
C2365 C 0.03293 0.49727 0.69575 0.0
H2366 H 0.99147 0.48152 0.74019 0.0
H2367 H 0.03605 0.48262 0.73282 0.0
S2368 S 0.99714 0.51802 0.64141 0.0
N2369 N 0.97618 0.51008 0.66205 0.0
N2370 N 0.0241 0.51263 0.65453 0.0
C2371 C 0.01664 0.50396 0.67687 0.0
C2372 C 0.99093 0.50229 0.6808 0.0
C2373 C 0.51789 0.98429 0.66898 0.0
C2374 C 0.5342 0.9777 0.68796 0.0
C2375 C 0.51672 1.00871 0.66097 0.0
C2376 C 0.53107 0.02674 0.67289 0.0
H2377 H 0.50394 0.97138 0.66264 0.0
H2378 H 0.50145 0.01393 0.64918 0.0
S2379 S 0.58394 0.01586 0.71462 0.0
N2380 N 0.57046 0.98858 0.71181 0.0
N2381 N 0.56828 0.0349 0.69668 0.0
C2382 C 0.5514 0.01903 0.68701 0.0
C2383 C 0.55257 0.99421 0.69521 0.0
C2384 C 0.3527 0.01356 0.509 0.0
C2385 C 0.3463 0.99379 0.49359 0.0
C2386 C 0.34208 0.03662 0.50501 0.0
C2387 C 0.32629 0.04036 0.48479 0.0
H2388 H 0.36154 0.01021 0.52662 0.0
H2389 H 0.34371 0.05045 0.51934 0.0
S2390 S 0.31485 0.99741 0.43323 0.0
N2391 N 0.33129 0.98135 0.45327 0.0
N2392 N 0.31173 0.02528 0.44525 0.0
C2393 C 0.32491 0.02244 0.46637 0.0
C2394 C 0.33553 0.99893 0.47063 0.0
C2395 C 0.00988 0.35665 0.51569 0.0
C2396 C 0.98998 0.34598 0.52834 0.0
C2397 C 0.03377 0.34892 0.5211 0.0
C2398 C 0.03776 0.33118 0.5396 0.0
H2399 H 1.00687 0.36683 0.49872 0.0
H2400 H 0.04835 0.35375 0.50832 0.0
S2401 S 0.99268 0.30861 0.58529 0.0
N2402 N 0.97632 0.32524 0.56565 0.0
N2403 N 0.02159 0.31038 0.57575 0.0
C2404 C 0.01879 0.32558 0.55602 0.0
C2405 C 0.99455 0.33361 0.55061 0.0
C2406 C 0.66323 0.01175 0.51195 0.0
C2407 C 0.67328 0.99366 0.52751 0.0
C2408 C 0.67118 0.0361 0.51414 0.0
C2409 C 0.68833 0.04252 0.53243 0.0
H2410 H 0.65307 1.00663 0.4955 0.0
H2411 H 0.66651 0.04906 0.49963 0.0
S2412 S 0.709 1.00419 0.58471 0.0
N2413 N 0.69289 0.98524 0.56701 0.0
N2414 N 0.70791 0.03151 0.57111 0.0
C2415 C 0.69342 0.02596 0.55143 0.0
C2416 C 0.68533 1.00118 0.5492 0.0
C2417 C 0.98272 0.67126 0.51457 0.0
C2418 C 0.97728 0.68777 0.53375 0.0
C2419 C 1.00661 0.66231 0.51179 0.0
C2420 C 0.02532 0.67104 0.52744 0.0
H2421 H 0.9695 0.66793 0.49995 0.0
H2422 H 0.0111 0.65285 0.49477 0.0
S2423 S 0.01715 0.70418 0.5864 0.0
N2424 N 0.98968 0.7049 0.57317 0.0
N2425 N 0.03508 0.68816 0.5677 0.0
C2426 C 0.01857 0.6821 0.54983 0.0
C2427 C 0.99427 0.69116 0.55276 0.0
C2428 C 0.54145 0.31182 0.99347 0.0
C2429 C 0.52178 0.31941 0.97875 0.0
C2430 C 0.54121 0.31676 0.01868 0.0
C2431 C 0.52116 0.32922 0.02961 0.0
H2432 H 0.55618 0.30073 0.98579 0.0
H2433 H 0.55615 0.30952 0.02979 0.0
S2434 S 0.46821 0.35754 0.99675 0.0
N2435 N 0.48414 0.34331 0.97512 0.0
N2436 N 0.48344 0.35274 0.0227 0.0
C2437 C 0.5027 0.33907 0.01434 0.0
C2438 C 0.50308 0.33409 0.98874 0.0
C2439 C 0.47808 0.71795 0.997 0.0
C2440 C 0.48343 0.69944 0.97986 0.0
C2441 C 0.48072 0.71331 0.02212 0.0
C2442 C 0.48955 0.69034 0.03024 0.0
H2443 H 0.47433 0.73664 0.99092 0.0
H2444 H 0.47862 0.72854 0.0349 0.0
S2445 S 0.50134 0.63471 0.99267 0.0
N2446 N 0.49358 0.65629 0.97259 0.0
N2447 N 0.4996 0.6479 0.02006 0.0
C2448 C 0.4921 0.67093 0.0135 0.0
C2449 C 0.48869 0.67542 0.98804 0.0
C2450 C 0.32742 0.49973 0.99729 0.0
C2451 C 0.32604 0.52223 0.98458 0.0
C2452 C 0.32174 0.49853 0.02217 0.0
C2453 C 0.31475 0.51979 0.03515 0.0
H2454 H 0.33186 0.48269 0.98782 0.0
H2455 H 0.32227 0.48066 0.03121 0.0
S2456 S 0.3132 0.58387 0.01173 0.0
N2457 N 0.32069 0.56692 0.98756 0.0
N2458 N 0.31006 0.56434 0.03496 0.0
C2459 C 0.31538 0.54274 0.02341 0.0
C2460 C 0.32097 0.54403 0.99786 0.0
C2461 C 0.68645 0.51781 0.99595 0.0
C2462 C 0.7021 0.50278 0.98191 0.0
C2463 C 0.68804 0.51789 0.02144 0.0
C2464 C 0.7054 0.50314 0.03355 0.0
H2465 H 0.67239 0.52909 0.98732 0.0
H2466 H 0.67553 0.52952 0.03181 0.0
S2467 S 0.75124 0.46139 1.00556 0.0
N2468 N 0.73598 0.47318 0.98194 0.0
N2469 N 0.7389 0.4737 0.03054 0.0
C2470 C 0.7214 0.48825 0.02006 0.0
C2471 C 0.71978 0.48802 0.99394 0.0
C2472 C 0.2695 0.2977 0.37339 0.0
C2473 C 0.2655 0.27528 0.36093 0.0
C2474 C 0.26004 0.31981 0.36395 0.0
C2475 C 0.24631 0.31985 0.34197 0.0
H2476 H 0.28291 0.29874 0.38819 0.0
H2477 H 0.26609 0.33707 0.3721 0.0
S2478 S 0.2239 0.26504 0.30778 0.0
N2479 N 0.24154 0.25362 0.32986 0.0
N2480 N 0.22409 0.29529 0.31174 0.0
C2481 C 0.23862 0.29717 0.33207 0.0
C2482 C 0.24797 0.27471 0.34187 0.0
C2483 C 0.71962 0.24243 0.341 0.0
C2484 C 0.69592 0.25282 0.34208 0.0
C2485 C 0.73991 0.25499 0.35103 0.0
C2486 C 0.73671 0.27805 0.36237 0.0
H2487 H 0.72278 0.22582 0.33033 0.0
H2488 H 0.7583 0.24793 0.34775 0.0
S2489 S 0.67836 0.31236 0.37035 0.0
N2490 N 0.67027 0.2866 0.3562 0.0
N2491 N 0.70832 0.3101 0.37522 0.0
C2492 C 0.71284 0.28741 0.36546 0.0
C2493 C 0.69235 0.27477 0.35522 0.0
C2494 C 0.74924 0.69276 0.36738 0.0
C2495 C 0.76921 0.69649 0.35133 0.0
C2496 C 0.73621 0.71293 0.37673 0.0
C2497 C 0.74301 0.73713 0.37027 0.0
H2498 H 0.74157 0.67442 0.36992 0.0
H2499 H 0.71895 0.70951 0.38623 0.0
S2500 S 0.79825 0.75631 0.3352 0.0
N2501 N 0.79857 0.72581 0.33423 0.0
N2502 N 0.77383 0.76386 0.35178 0.0
C2503 C 0.76518 0.74103 0.35767 0.0
C2504 C 0.77848 0.72053 0.34824 0.0
C2505 C 0.2964 0.74821 0.37444 0.0
C2506 C 0.27391 0.75055 0.36175 0.0
C2507 C 0.31804 0.75852 0.36477 0.0
C2508 C 0.31752 0.77151 0.34233 0.0
H2509 H 0.298 0.73539 0.38972 0.0
H2510 H 0.33548 0.75352 0.37314 0.0
S2511 S 0.26178 0.78999 0.30739 0.0
N2512 N 0.25124 0.77211 0.32976 0.0
N2513 N 0.29192 0.79183 0.3116 0.0
C2514 C 0.29448 0.77782 0.33225 0.0
C2515 C 0.27253 0.76731 0.34209 0.0
C2516 C 0.25299 0.70302 0.6558 0.0
C2517 C 0.24005 0.70463 0.6782 0.0
C2518 C 0.26568 0.72353 0.64646 0.0
C2519 C 0.26575 0.74601 0.65939 0.0
H2520 H 0.25619 0.68522 0.64728 0.0
H2521 H 0.27819 0.72075 0.63114 0.0
S2522 S 0.22765 0.76162 0.71375 0.0
N2523 N 0.22249 0.73189 0.70911 0.0
N2524 N 0.24671 0.77047 0.69165 0.0
C2525 C 0.24925 0.74892 0.67909 0.0
C2526 C 0.23624 0.72811 0.68851 0.0
C2527 C 0.30024 0.23819 0.68039 0.0
C2528 C 0.32245 0.24842 0.67185 0.0
C2529 C 0.27768 0.24669 0.67123 0.0
C2530 C 0.27705 0.26607 0.65394 0.0
H2531 H 0.30026 0.22555 0.69589 0.0
H2532 H 0.26085 0.24072 0.68025 0.0
S2533 S 0.33056 0.29522 0.62285 0.0
N2534 N 0.34279 0.27539 0.64247 0.0
N2535 N 0.3004 0.29192 0.6256 0.0
C2536 C 0.29919 0.27362 0.64276 0.0
C2537 C 0.32206 0.26481 0.6519 0.0
C2538 C 0.74918 0.29637 0.64646 0.0
C2539 C 0.75236 0.27412 0.65947 0.0
C2540 C 0.75943 0.31838 0.65536 0.0
C2541 C 0.77314 0.31848 0.67735 0.0
H2542 H 0.73592 0.29746 0.63154 0.0
H2543 H 0.7539 0.33561 0.64684 0.0
S2544 S 0.79345 0.26374 0.71291 0.0
N2545 N 0.77522 0.25243 0.69124 0.0
N2546 N 0.79461 0.29385 0.70806 0.0
C2547 C 0.78006 0.29575 0.68774 0.0
C2548 C 0.76967 0.27341 0.67866 0.0
C2549 C 0.69987 0.75997 0.65534 0.0
C2550 C 0.69976 0.77366 0.67733 0.0
C2551 C 0.7219 0.75006 0.64627 0.0
C2552 C 0.74419 0.75358 0.65909 0.0
H2553 H 0.68264 0.75426 0.64691 0.0
H2554 H 0.72082 0.73679 0.63136 0.0
S2555 S 0.75441 0.7948 0.71251 0.0
N2556 N 0.72427 0.79536 0.70797 0.0
N2557 N 0.76579 0.77683 0.69071 0.0
C2558 C 0.7448 0.77089 0.67832 0.0
C2559 C 0.72242 0.78082 0.68765 0.0
C2560 C 0.37027 0.26893 0.29458 0.0
C2561 C 0.35711 0.26836 0.27225 0.0
C2562 C 0.36052 0.25785 0.31579 0.0
C2563 C 0.33749 0.24586 0.31504 0.0
H2564 H 0.38625 0.28084 0.29655 0.0
H2565 H 0.36952 0.26142 0.33327 0.0
S2566 S 0.3003 0.2326 0.25924 0.0
N2567 N 0.32338 0.24988 0.24922 0.0
N2568 N 0.30515 0.22866 0.28906 0.0
C2569 C 0.32657 0.24146 0.29194 0.0
C2570 C 0.33646 0.25276 0.27042 0.0
C2571 C 0.76977 0.34783 0.27593 0.0
C2572 C 0.75014 0.36473 0.27604 0.0
C2573 C 0.78029 0.33987 0.2981 0.0
C2574 C 0.77149 0.34883 0.32075 0.0
H2575 H 0.77466 0.33831 0.25905 0.0
H2576 H 0.79304 0.32451 0.29768 0.0
S2577 S 0.72488 0.39763 0.33024 0.0
N2578 N 0.72582 0.39365 0.30008 0.0
N2579 N 0.7458 0.37877 0.34177 0.0
C2580 C 0.7549 0.36862 0.32075 0.0
C2581 C 0.74414 0.37666 0.29823 0.0
C2582 C 0.66951 0.77215 0.27985 0.0
C2583 C 0.65329 0.75185 0.27882 0.0
C2584 C 0.67907 0.77998 0.30248 0.0
C2585 C 0.67177 0.76829 0.32439 0.0
H2586 H 0.67766 0.77934 0.26306 0.0
H2587 H 0.69393 0.79338 0.3026 0.0
S2588 S 0.62522 0.71885 0.33172 0.0
N2589 N 0.62686 0.72362 0.30169 0.0
N2590 N 0.64432 0.73904 0.3443 0.0
C2591 C 0.65261 0.75096 0.32383 0.0
C2592 C 0.64313 0.74277 0.30086 0.0
C2593 C 0.25059 0.6711 0.27666 0.0
C2594 C 0.27092 0.65509 0.27769 0.0
C2595 C 0.24015 0.68034 0.29835 0.0
C2596 C 0.24979 0.6737 0.32147 0.0
H2597 H 0.24471 0.67871 0.25913 0.0
H2598 H 0.22626 0.69464 0.297 0.0
S2599 S 0.30073 0.63009 0.33381 0.0
N2600 N 0.29838 0.63087 0.30346 0.0
N2601 N 0.27869 0.64827 0.34426 0.0
C2602 C 0.26808 0.65552 0.32272 0.0
C2603 C 0.27866 0.6461 0.3007 0.0
C2604 C 0.33558 0.77982 0.72168 0.0
C2605 C 0.34374 0.77103 0.69871 0.0
C2606 C 0.34586 0.77079 0.74357 0.0
C2607 C 0.36423 0.75254 0.74288 0.0
H2608 H 0.31951 0.79163 0.72276 0.0
H2609 H 0.33699 0.77534 0.76088 0.0
S2610 S 0.39544 0.72798 0.68741 0.0
N2611 N 0.37417 0.74685 0.67654 0.0
N2612 N 0.39344 0.72984 0.71772 0.0
C2613 C 0.37516 0.74682 0.72013 0.0
C2614 C 0.36471 0.75594 0.69788 0.0
C2615 C 0.25475 0.35717 0.70421 0.0
C2616 C 0.24468 0.33319 0.70419 0.0
C2617 C 0.26551 0.36693 0.72556 0.0
C2618 C 0.26673 0.35284 0.74729 0.0
H2619 H 0.25709 0.36726 0.68712 0.0
H2620 H 0.27587 0.38401 0.724 0.0
S2621 S 0.23584 0.29289 0.75881 0.0
N2622 N 0.2306 0.29866 0.72935 0.0
N2623 N 0.25185 0.3167 0.76928 0.0
C2624 C 0.25312 0.3308 0.74857 0.0
C2625 C 0.24186 0.321 0.72696 0.0
C2626 C 0.65628 0.25922 0.70124 0.0
C2627 C 0.67811 0.24533 0.70241 0.0
C2628 C 0.64639 0.26984 0.72259 0.0
C2629 C 0.65825 0.26688 0.74545 0.0
H2630 H 0.6486 0.2645 0.68356 0.0
H2631 H 0.63167 0.28319 0.72055 0.0
S2632 S 0.71088 0.22569 0.75902 0.0
N2633 N 0.70744 0.22405 0.72879 0.0
N2634 N 0.68887 0.24423 0.76895 0.0
C2635 C 0.67731 0.2495 0.74734 0.0
C2636 C 0.68738 0.23874 0.72568 0.0
C2637 C 0.75612 0.65826 0.69991 0.0
C2638 C 0.77168 0.67897 0.70165 0.0
C2639 C 0.74573 0.64785 0.72111 0.0
C2640 C 0.75056 0.65806 0.74444 0.0
H2641 H 0.74968 0.65192 0.68207 0.0
H2642 H 0.73133 0.63409 0.7189 0.0
S2643 S 0.79593 0.70708 0.75893 0.0
N2644 N 0.796 0.70539 0.72851 0.0
N2645 N 0.77609 0.6859 0.76852 0.0
C2646 C 0.76903 0.67609 0.74658 0.0
C2647 C 0.77964 0.68666 0.72503 0.0
C2648 C 0.32093 0.36676 0.26143 0.0
C2649 C 0.31923 0.34605 0.24595 0.0
C2650 C 0.29982 0.37611 0.27298 0.0
C2651 C 0.27672 0.36482 0.26929 0.0
H2652 H 0.33881 0.37364 0.26721 0.0
H2653 H 0.30216 0.38978 0.28739 0.0
S2654 S 0.26193 0.3154 0.22462 0.0
N2655 N 0.29219 0.31866 0.22288 0.0
N2656 N 0.25251 0.33616 0.24481 0.0
C2657 C 0.27435 0.3471 0.25063 0.0
C2658 C 0.29574 0.33765 0.23886 0.0
C2659 C 0.2773 0.67008 0.76767 0.0
C2660 C 0.27762 0.65943 0.74407 0.0
C2661 C 0.29908 0.67936 0.77815 0.0
C2662 C 0.32142 0.67817 0.76511 0.0
H2663 H 0.2599 0.67336 0.77691 0.0
H2664 H 0.29809 0.68935 0.79541 0.0
S2665 S 0.33161 0.65208 0.70299 0.0
N2666 N 0.302 0.64752 0.70849 0.0
N2667 N 0.34281 0.66513 0.72813 0.0
C2668 C 0.32219 0.66599 0.74239 0.0
C2669 C 0.30023 0.65646 0.73187 0.0
C2670 C 0.37355 0.30804 0.73169 0.0
C2671 C 0.36931 0.28388 0.74019 0.0
C2672 C 0.36392 0.3283 0.74439 0.0
C2673 C 0.3498 0.32478 0.7658 0.0
H2674 H 0.38158 0.31106 0.71363 0.0
H2675 H 0.36484 0.34635 0.73576 0.0
S2676 S 0.33913 0.26574 0.79856 0.0
N2677 N 0.35451 0.25786 0.77348 0.0
N2678 N 0.33628 0.2961 0.79747 0.0
C2679 C 0.34856 0.30109 0.77622 0.0
C2680 C 0.35839 0.28049 0.76332 0.0
C2681 C 0.69939 0.36358 0.75872 0.0
C2682 C 0.70081 0.34187 0.77288 0.0
C2683 C 0.7206 0.37358 0.74781 0.0
C2684 C 0.74358 0.36198 0.75073 0.0
H2685 H 0.68161 0.37105 0.75353 0.0
H2686 H 0.71836 0.38818 0.73431 0.0
S2687 S 0.75776 0.30968 0.79232 0.0
N2688 N 0.72751 0.31287 0.79416 0.0
N2689 N 0.76743 0.33169 0.77351 0.0
C2690 C 0.74571 0.34304 0.76829 0.0
C2691 C 0.72418 0.33283 0.77933 0.0
C2692 C 0.65706 0.69399 0.74925 0.0
C2693 C 0.67369 0.69634 0.76895 0.0
C2694 C 0.64713 0.71497 0.73802 0.0
C2695 C 0.6537 0.73868 0.74625 0.0
H2696 H 0.65398 0.67615 0.74071 0.0
H2697 H 0.63692 0.7127 0.72098 0.0
S2698 S 0.69132 0.75404 0.80101 0.0
N2699 N 0.69249 0.7236 0.79914 0.0
N2700 N 0.67361 0.76322 0.77795 0.0
C2701 C 0.66747 0.74104 0.76797 0.0
C2702 C 0.67764 0.71971 0.77935 0.0
C2703 C 0.70761 0.66414 0.25286 0.0
C2704 C 0.707 0.6887 0.24439 0.0
C2705 C 0.72871 0.65472 0.26421 0.0
C2706 C 0.74963 0.66969 0.26767 0.0
H2707 H 0.69094 0.65311 0.25363 0.0
H2708 H 0.72731 0.63693 0.27329 0.0
S2709 S 0.76017 0.7318 0.24095 0.0
N2710 N 0.73129 0.72509 0.23378 0.0
N2711 N 0.77084 0.70754 0.25603 0.0
C2712 C 0.7507 0.69253 0.25541 0.0
C2713 C 0.72931 0.70204 0.24356 0.0
C2714 C 0.36275 0.69923 0.25693 0.0
C2715 C 0.34047 0.70046 0.24373 0.0
C2716 C 0.37228 0.72024 0.26861 0.0
C2717 C 0.35965 0.74284 0.26737 0.0
H2718 H 0.37106 0.6815 0.261 0.0
H2719 H 0.38746 0.71791 0.28141 0.0
S2720 S 0.30559 0.75708 0.2282 0.0
N2721 N 0.30983 0.72707 0.22474 0.0
N2722 N 0.32783 0.76667 0.24675 0.0
C2723 C 0.34011 0.74514 0.25053 0.0
C2724 C 0.33039 0.72379 0.23871 0.0
C2725 C 0.65915 0.31325 0.25244 0.0
C2726 C 0.68295 0.31397 0.24216 0.0
C2727 C 0.64942 0.29112 0.26165 0.0
C2728 C 0.66341 0.2693 0.26109 0.0
H2729 H 0.64925 0.33021 0.2561 0.0
H2730 H 0.63264 0.29199 0.27246 0.0
S2731 S 0.72264 0.26013 0.22848 0.0
N2732 N 0.71716 0.29003 0.22595 0.0
N2733 N 0.69891 0.2484 0.24365 0.0
C2734 C 0.68504 0.26901 0.24685 0.0
C2735 C 0.69495 0.2915 0.23747 0.0
C2736 C 0.99318 0.38607 0.3869 0.0
C2737 C 0.98861 0.38878 0.41251 0.0
C2738 C 0.01195 0.39996 0.37439 0.0
C2739 C 0.02729 0.4173 0.38677 0.0
H2740 H 0.98187 0.37344 0.3763 0.0
H2741 H 0.01427 0.39724 0.35475 0.0
S2742 S 0.02538 0.42878 0.45442 0.0
N2743 N 1.00277 0.40879 0.44987 0.0
N2744 N 0.0375 0.43416 0.427 0.0
C2745 C 0.02325 0.41948 0.41248 0.0
C2746 C 1.0042 0.40551 0.42507 0.0
C2747 C 0.60627 0.99906 0.42221 0.0
C2748 C 0.62803 0.98822 0.41266 0.0
C2749 C 0.59285 0.01769 0.40936 0.0
C2750 C 0.60007 0.02671 0.3859 0.0
H2751 H 0.59964 0.99338 0.44018 0.0
H2752 H 0.57668 0.02534 0.4182 0.0
S2753 S 0.65402 1.00283 0.35086 0.0
N2754 N 0.65503 0.98713 0.37699 0.0
N2755 N 0.63004 0.02149 0.35301 0.0
C2756 C 0.62146 0.01557 0.37578 0.0
C2757 C 0.63527 0.99666 0.389 0.0
C2758 C 0.99223 0.60491 0.4087 0.0
C2759 C 0.98773 0.60874 0.38321 0.0
C2760 C 0.01147 0.61725 0.42176 0.0
C2761 C 0.02715 0.6349 0.41051 0.0
H2762 H 0.98099 0.59175 0.41876 0.0
H2763 H 0.01393 0.61301 0.44113 0.0
S2764 S 0.02394 0.65237 0.34425 0.0
N2765 N 1.00159 0.63174 0.34726 0.0
N2766 N 0.03659 0.65542 0.37184 0.0
C2767 C 0.02271 0.63932 0.38515 0.0
C2768 C 1.00347 0.62621 0.3716 0.0
C2769 C 0.39269 1.00224 0.378 0.0
C2770 C 0.40996 0.98619 0.38938 0.0
C2771 C 0.38003 0.02124 0.3913 0.0
C2772 C 0.38397 0.02565 0.41683 0.0
H2773 H 0.38888 1.00018 0.3585 0.0
H2774 H 0.36722 0.03283 0.38129 0.0
S2775 S 0.42748 0.98951 0.45576 0.0
N2776 N 0.43008 0.97669 0.42828 0.0
N2777 N 0.40696 0.01176 0.45265 0.0
C2778 C 0.40111 0.00967 0.42838 0.0
C2779 C 0.41382 0.99029 0.41493 0.0
C2780 C 0.99207 0.62641 0.62322 0.0
C2781 C 0.99059 0.62774 0.59708 0.0
C2782 C 0.01099 0.61287 0.6358 0.0
C2783 C 0.02971 0.59975 0.62308 0.0
H2784 H 0.97814 0.63555 0.6342 0.0
H2785 H 0.01066 0.6124 0.65575 0.0
S2786 S 0.03641 0.59942 0.55467 0.0
N2787 N 0.01127 0.61591 0.55926 0.0
N2788 N 0.04613 0.59109 0.5823 0.0
C2789 C 0.02885 0.6017 0.59698 0.0
C2790 C 0.00965 0.61542 0.58425 0.0
C2791 C 0.37679 0.01054 0.61278 0.0
C2792 C 0.38711 0.98684 0.60858 0.0
C2793 C 0.38986 0.02973 0.62544 0.0
C2794 C 0.41379 0.02622 0.63539 0.0
H2795 H 0.35859 0.01461 0.60565 0.0
H2796 H 0.38106 0.04754 0.62748 0.0
S2797 S 0.44975 0.96815 0.62987 0.0
N2798 N 0.42356 0.96168 0.61562 0.0
N2799 N 0.44715 0.99687 0.63978 0.0
C2800 C 0.42412 1.00258 0.63174 0.0
C2801 C 0.41114 0.98326 0.61836 0.0
C2802 C 0.99263 0.39576 0.62886 0.0
C2803 C 0.99152 0.42198 0.62937 0.0
C2804 C 0.01135 0.38261 0.61566 0.0
C2805 C 0.03 0.39482 0.60188 0.0
H2806 H 0.97866 0.38518 0.63849 0.0
H2807 H 0.0109 0.36261 0.61592 0.0
S2808 S 0.03738 0.46313 0.59882 0.0
N2809 N 0.01249 0.4593 0.61593 0.0
N2810 N 0.04659 0.43511 0.59121 0.0
C2811 C 0.02931 0.42096 0.60265 0.0
C2812 C 0.01052 0.43429 0.61626 0.0
C2813 C 0.59442 0.99624 0.60055 0.0
C2814 C 0.59885 0.99045 0.62568 0.0
C2815 C 0.60797 0.01477 0.58753 0.0
C2816 C 0.62685 0.0291 0.5987 0.0
H2817 H 0.58034 0.98613 0.59057 0.0
H2818 H 0.60338 0.01797 0.56836 0.0
S2819 S 0.64577 0.02243 0.66443 0.0
N2820 N 0.62385 1.0014 0.66122 0.0
N2821 N 0.64869 0.03598 0.63727 0.0
C2822 C 0.63143 0.02363 0.62391 0.0
C2823 C 0.61772 1.00455 0.63714 0.0
C2824 C 0.41125 0.429 1.0005 0.0
C2825 C 0.38991 0.41957 0.98862 0.0
C2826 C 0.42416 0.41585 0.01926 0.0
C2827 C 0.41701 0.39201 0.02749 0.0
H2828 H 0.41819 0.44704 0.99531 0.0
H2829 H 0.44021 0.4246 0.02735 0.0
S2830 S 0.36272 0.35784 1.00255 0.0
N2831 N 0.36242 0.38406 0.98689 0.0
N2832 N 0.38662 0.35947 0.02145 0.0
C2833 C 0.39576 0.38212 0.0157 0.0
C2834 C 0.38235 0.39574 0.99665 0.0
C2835 C 0.40809 0.63442 1.00841 0.0
C2836 C 0.41611 0.62267 0.98646 0.0
C2837 C 0.39404 0.62176 0.02695 0.0
C2838 C 0.38699 0.59655 0.02473 0.0
H2839 H 0.41309 0.65353 0.01159 0.0
H2840 H 0.38909 0.63179 0.04349 0.0
S2841 S 0.40012 0.55786 0.96962 0.0
N2842 N 0.41365 0.58445 0.96313 0.0
N2843 N 0.38774 0.56125 0.99723 0.0
C2844 C 0.39421 0.58492 1.00252 0.0
C2845 C 0.40852 0.59772 0.98375 0.0
C2846 C 0.58633 0.40997 1.00346 0.0
C2847 C 0.59678 0.39017 0.98996 0.0
C2848 C 0.59971 0.42351 0.02171 0.0
C2849 C 0.62458 0.41829 0.02797 0.0
H2850 H 0.56745 0.41532 0.99981 0.0
H2851 H 0.59025 0.43836 0.03111 0.0
S2852 S 0.66137 0.36837 0.99848 0.0
N2853 N 0.6343 0.36629 0.98459 0.0
N2854 N 0.65898 0.39121 0.01853 0.0
C2855 C 0.63531 0.39842 0.01473 0.0
C2856 C 0.62167 0.38464 0.99599 0.0
C2857 C 0.63298 0.62367 0.99575 0.0
C2858 C 0.62854 0.59805 0.99189 0.0
C2859 C 0.62047 0.63774 0.01443 0.0
C2860 C 0.60283 0.62711 0.03074 0.0
H2861 H 0.64599 0.63318 0.98391 0.0
H2862 H 0.62468 0.65723 0.016 0.0
S2863 S 0.58464 0.56068 0.02943 0.0
N2864 N 0.60516 0.56292 1.00706 0.0
N2865 N 0.58218 0.58865 0.04121 0.0
C2866 C 0.59854 0.60148 0.02718 0.0
C2867 C 0.61113 0.58728 1.00821 0.0
loop_
_geom_bond_atom_site_label_1
_geom_bond_atom_site_label_2
_geom_bond_distance
_geom_bond_site_symmetry_2
_ccdc_geom_bond_type
C0 C1 1.359 . S
C0 N5 1.330 . S
C0 C61 1.504 . S
C1 C0 1.359 . S
C1 C2 1.366 . S
C1 H63 0.929 . S
C2 C1 1.366 . S
C2 C3 1.415 . S
C2 H64 0.932 . S
C3 C2 1.415 . S
C3 C4 1.366 . S
C3 H65 0.931 . S
C4 C3 1.366 . S
C4 N5 1.325 . S
C4 C6 1.516 . S
N5 C0 1.330 . S
N5 C4 1.325 . S
N5 Co21 1.869 . S
C6 C4 1.516 . S
C6 N30 1.316 . S
C6 O53 1.263 . S
C7 C8 1.421 . S
C7 C12 1.360 . S
C7 N30 1.436 . S
C8 C7 1.421 . S
C8 C9 1.379 . S
C8 H66 0.929 . S
C9 C8 1.379 . S
C9 C10 1.417 . S
C10 C9 1.417 . S
C10 C11 1.352 . S
C10 H67 0.929 . S
C11 C10 1.352 . S
C11 C12 1.393 . S
C12 C7 1.360 . S
C12 C11 1.393 . S
C12 H68 0.931 . S
Cd13 O33 2.329 . S
Cd13 O35 2.350 . S
Cd13 O36 2.277 . S
Cd13 O38 2.173 . S
Cd13 O42 2.263 . S
Cd13 O53 2.366 . S
Cd14 O32 2.352 . S
Cd14 O39 2.250 . S
Cd14 O43 2.308 . S
C15 C19 1.403 . S
C15 C20 1.370 . S
C15 N31 1.423 . S
C16 C17 1.389 . S
C16 C20 1.389 . S
C17 C16 1.389 . S
C17 C18 1.379 . S
C17 H69 0.929 . S
C18 C17 1.379 . S
C18 C19 1.405 . S
C19 C15 1.403 . S
C19 C18 1.405 . S
C19 H70 0.932 . S
C20 C15 1.370 . S
C20 C16 1.389 . S
C20 H71 0.931 . S
Co21 N5 1.869 . S
Co21 N22 1.955 . S
Co21 N23 1.864 . S
Co21 N29 1.958 . S
Co21 N30 1.953 . S
Co21 N31 1.974 . S
N22 Co21 1.955 . S
N22 C40 1.329 . S
N22 C55 1.432 . S
N23 Co21 1.864 . S
N23 C24 1.327 . S
N23 C28 1.342 . S
C24 N23 1.327 . S
C24 C25 1.407 . S
C24 C40 1.481 . S
C25 C24 1.407 . S
C25 C26 1.364 . S
C25 H72 0.930 . S
C26 C25 1.364 . S
C26 C27 1.390 . S
C26 H73 0.931 . S
C27 C26 1.390 . S
C27 C28 1.346 . S
C27 H74 0.930 . S
C28 N23 1.342 . S
C28 C27 1.346 . S
C28 C44 1.516 . S
N29 Co21 1.958 . S
N29 C44 1.324 . S
N29 C46 1.427 . S
N30 C6 1.316 . S
N30 C7 1.436 . S
N30 Co21 1.953 . S
N31 C15 1.423 . S
N31 Co21 1.974 . S
N31 C61 1.309 . S
O32 Cd14 2.352 . S
O32 C52 1.235 . S
O33 Cd13 2.329 . S
O33 C52 1.270 . S
C34 O35 1.270 . S
C34 O36 1.248 . S
O35 Cd13 2.350 . S
O35 C34 1.270 . S
O36 Cd13 2.277 . S
O36 C34 1.248 . S
C37 O38 1.277 . S
C37 O39 1.230 . S
O38 Cd13 2.173 . S
O38 C37 1.277 . S
O39 Cd14 2.250 . S
O39 C37 1.230 . S
C40 N22 1.329 . S
C40 C24 1.481 . S
C40 O41 1.246 . S
O41 C40 1.246 . S
O42 Cd13 2.263 . S
O42 C54 1.258 . S
O43 Cd14 2.308 . S
O43 C54 1.274 . S
C44 C28 1.516 . S
C44 N29 1.324 . S
C44 O45 1.238 . S
O45 C44 1.238 . S
C46 N29 1.427 . S
C46 C47 1.394 . S
C46 C51 1.395 . S
C47 C46 1.394 . S
C47 C48 1.380 . S
C47 H75 0.929 . S
C48 C47 1.380 . S
C48 C49 1.384 . S
C48 C54 1.495 . S
C49 C48 1.384 . S
C49 C50 1.382 . S
C49 H76 0.930 . S
C50 C49 1.382 . S
C50 C51 1.398 . S
C51 C46 1.395 . S
C51 C50 1.398 . S
C51 H77 0.930 . S
C52 O32 1.235 . S
C52 O33 1.270 . S
O53 C6 1.263 . S
O53 Cd13 2.366 . S
C54 O42 1.258 . S
C54 O43 1.274 . S
C54 C48 1.495 . S
C55 N22 1.432 . S
C55 C56 1.381 . S
C55 C60 1.385 . S
C56 C55 1.381 . S
C56 C57 1.371 . S
C56 H78 0.932 . S
C57 C56 1.371 . S
C57 C58 1.400 . S
C58 C57 1.400 . S
C58 C59 1.351 . S
C58 H79 0.930 . S
C59 C58 1.351 . S
C59 C60 1.388 . S
C60 C55 1.385 . S
C60 C59 1.388 . S
C60 H80 0.929 . S
C61 C0 1.504 . S
C61 N31 1.309 . S
C61 O62 1.258 . S
O62 C61 1.258 . S
H63 C1 0.929 . S
H64 C2 0.932 . S
H65 C3 0.931 . S
H66 C8 0.929 . S
H67 C10 0.929 . S
H68 C12 0.931 . S
H69 C17 0.929 . S
H70 C19 0.932 . S
H71 C20 0.931 . S
H72 C25 0.930 . S
H73 C26 0.931 . S
H74 C27 0.930 . S
H75 C47 0.929 . S
H76 C49 0.930 . S
H77 C51 0.930 . S
H78 C56 0.932 . S
H79 C58 0.930 . S
H80 C60 0.929 . S
C81 C82 1.359 . S
C81 N86 1.330 . S
C81 C142 1.504 . S
C82 C81 1.359 . S
C82 C83 1.366 . S
C82 H144 0.929 . S
C83 C82 1.366 . S
C83 C84 1.415 . S
C83 H145 0.932 . S
C84 C83 1.415 . S
C84 C85 1.366 . S
C84 H146 0.931 . S
C85 C84 1.366 . S
C85 N86 1.325 . S
C85 C87 1.516 . S
N86 C81 1.330 . S
N86 C85 1.325 . S
N86 Co102 1.869 . S
C87 C85 1.516 . S
C87 N111 1.316 . S
C87 O134 1.263 . S
C88 C89 1.421 . S
C88 C93 1.360 . S
C88 N111 1.436 . S
C89 C88 1.421 . S
C89 C90 1.379 . S
C89 H147 0.929 . S
C90 C89 1.379 . S
C90 C91 1.417 . S
C91 C90 1.417 . S
C91 C92 1.352 . S
C91 H148 0.929 . S
C92 C91 1.352 . S
C92 C93 1.393 . S
C93 C88 1.360 . S
C93 C92 1.393 . S
C93 H149 0.931 . S
Cd94 O114 2.329 . S
Cd94 O116 2.350 . S
Cd94 O117 2.277 . S
Cd94 O119 2.173 . S
Cd94 O123 2.263 . S
Cd94 O134 2.366 . S
Cd95 O113 2.352 . S
Cd95 O120 2.250 . S
Cd95 O124 2.308 . S
C96 C100 1.403 . S
C96 C101 1.370 . S
C96 N112 1.423 . S
C97 C98 1.389 . S
C97 C101 1.389 . S
C98 C97 1.389 . S
C98 C99 1.379 . S
C98 H150 0.929 . S
C99 C98 1.379 . S
C99 C100 1.405 . S
C100 C96 1.403 . S
C100 C99 1.405 . S
C100 H151 0.932 . S
C101 C96 1.370 . S
C101 C97 1.389 . S
C101 H152 0.931 . S
Co102 N86 1.869 . S
Co102 N103 1.955 . S
Co102 N104 1.864 . S
Co102 N110 1.958 . S
Co102 N111 1.953 . S
Co102 N112 1.974 . S
N103 Co102 1.955 . S
N103 C121 1.329 . S
N103 C136 1.432 . S
N104 Co102 1.864 . S
N104 C105 1.327 . S
N104 C109 1.342 . S
C105 N104 1.327 . S
C105 C106 1.407 . S
C105 C121 1.481 . S
C106 C105 1.407 . S
C106 C107 1.364 . S
C106 H153 0.930 . S
C107 C106 1.364 . S
C107 C108 1.390 . S
C107 H154 0.931 . S
C108 C107 1.390 . S
C108 C109 1.346 . S
C108 H155 0.930 . S
C109 N104 1.342 . S
C109 C108 1.346 . S
C109 C125 1.516 . S
N110 Co102 1.958 . S
N110 C125 1.324 . S
N110 C127 1.427 . S
N111 C87 1.316 . S
N111 C88 1.436 . S
N111 Co102 1.953 . S
N112 C96 1.423 . S
N112 Co102 1.974 . S
N112 C142 1.309 . S
O113 Cd95 2.352 . S
O113 C133 1.235 . S
O114 Cd94 2.329 . S
O114 C133 1.270 . S
C115 O116 1.270 . S
C115 O117 1.248 . S
O116 Cd94 2.350 . S
O116 C115 1.270 . S
O117 Cd94 2.277 . S
O117 C115 1.248 . S
C118 O119 1.277 . S
C118 O120 1.230 . S
O119 Cd94 2.173 . S
O119 C118 1.277 . S
O120 Cd95 2.250 . S
O120 C118 1.230 . S
C121 N103 1.329 . S
C121 C105 1.481 . S
C121 O122 1.246 . S
O122 C121 1.246 . S
O123 Cd94 2.263 . S
O123 C135 1.258 . S
O124 Cd95 2.308 . S
O124 C135 1.274 . S
C125 C109 1.516 . S
C125 N110 1.324 . S
C125 O126 1.238 . S
O126 C125 1.238 . S
C127 N110 1.427 . S
C127 C128 1.394 . S
C127 C132 1.395 . S
C128 C127 1.394 . S
C128 C129 1.380 . S
C128 H156 0.929 . S
C129 C128 1.380 . S
C129 C130 1.384 . S
C129 C135 1.495 . S
C130 C129 1.384 . S
C130 C131 1.382 . S
C130 H157 0.930 . S
C131 C130 1.382 . S
C131 C132 1.398 . S
C132 C127 1.395 . S
C132 C131 1.398 . S
C132 H158 0.930 . S
C133 O113 1.235 . S
C133 O114 1.270 . S
O134 C87 1.263 . S
O134 Cd94 2.366 . S
C135 O123 1.258 . S
C135 O124 1.274 . S
C135 C129 1.495 . S
C136 N103 1.432 . S
C136 C137 1.381 . S
C136 C141 1.385 . S
C137 C136 1.381 . S
C137 C138 1.371 . S
C137 H159 0.932 . S
C138 C137 1.371 . S
C138 C139 1.400 . S
C139 C138 1.400 . S
C139 C140 1.351 . S
C139 H160 0.930 . S
C140 C139 1.351 . S
C140 C141 1.388 . S
C141 C136 1.385 . S
C141 C140 1.388 . S
C141 H161 0.929 . S
C142 C81 1.504 . S
C142 N112 1.309 . S
C142 O143 1.258 . S
O143 C142 1.258 . S
H144 C82 0.929 . S
H145 C83 0.932 . S
H146 C84 0.931 . S
H147 C89 0.929 . S
H148 C91 0.929 . S
H149 C93 0.931 . S
H150 C98 0.929 . S
H151 C100 0.932 . S
H152 C101 0.931 . S
H153 C106 0.930 . S
H154 C107 0.931 . S
H155 C108 0.930 . S
H156 C128 0.929 . S
H157 C130 0.930 . S
H158 C132 0.930 . S
H159 C137 0.932 . S
H160 C139 0.930 . S
H161 C141 0.929 . S
C162 C163 1.359 . S
C162 N167 1.330 . S
C162 C223 1.504 . S
C163 C162 1.359 . S
C163 C164 1.366 . S
C163 H225 0.929 . S
C164 C163 1.366 . S
C164 C165 1.415 . S
C164 H226 0.932 . S
C165 C164 1.415 . S
C165 C166 1.366 . S
C165 H227 0.931 . S
C166 C165 1.366 . S
C166 N167 1.325 . S
C166 C168 1.516 . S
N167 C162 1.330 . S
N167 C166 1.325 . S
N167 Co183 1.869 . S
C168 C166 1.516 . S
C168 N192 1.316 . S
C168 O215 1.263 . S
C169 C170 1.421 . S
C169 C174 1.360 . S
C169 N192 1.436 . S
C170 C169 1.421 . S
C170 C171 1.379 . S
C170 H228 0.929 . S
C171 C170 1.379 . S
C171 C172 1.417 . S
C172 C171 1.417 . S
C172 C173 1.352 . S
C172 H229 0.929 . S
C173 C172 1.352 . S
C173 C174 1.393 . S
C174 C169 1.360 . S
C174 C173 1.393 . S
C174 H230 0.931 . S
Cd175 O195 2.329 . S
Cd175 O197 2.350 . S
Cd175 O198 2.277 . S
Cd175 O200 2.173 . S
Cd175 O204 2.263 . S
Cd175 O215 2.366 . S
Cd176 O194 2.352 . S
Cd176 O201 2.250 . S
Cd176 O205 2.308 . S
C177 C181 1.403 . S
C177 C182 1.370 . S
C177 N193 1.423 . S
C178 C179 1.389 . S
C178 C182 1.389 . S
C179 C178 1.389 . S
C179 C180 1.379 . S
C179 H231 0.929 . S
C180 C179 1.379 . S
C180 C181 1.405 . S
C181 C177 1.403 . S
C181 C180 1.405 . S
C181 H232 0.932 . S
C182 C177 1.370 . S
C182 C178 1.389 . S
C182 H233 0.931 . S
Co183 N167 1.869 . S
Co183 N184 1.955 . S
Co183 N185 1.864 . S
Co183 N191 1.958 . S
Co183 N192 1.953 . S
Co183 N193 1.974 . S
N184 Co183 1.955 . S
N184 C202 1.329 . S
N184 C217 1.432 . S
N185 Co183 1.864 . S
N185 C186 1.327 . S
N185 C190 1.342 . S
C186 N185 1.327 . S
C186 C187 1.407 . S
C186 C202 1.481 . S
C187 C186 1.407 . S
C187 C188 1.364 . S
C187 H234 0.930 . S
C188 C187 1.364 . S
C188 C189 1.390 . S
C188 H235 0.931 . S
C189 C188 1.390 . S
C189 C190 1.346 . S
C189 H236 0.930 . S
C190 N185 1.342 . S
C190 C189 1.346 . S
C190 C206 1.516 . S
N191 Co183 1.958 . S
N191 C206 1.324 . S
N191 C208 1.427 . S
N192 C168 1.316 . S
N192 C169 1.436 . S
N192 Co183 1.953 . S
N193 C177 1.423 . S
N193 Co183 1.974 . S
N193 C223 1.309 . S
O194 Cd176 2.352 . S
O194 C214 1.235 . S
O195 Cd175 2.329 . S
O195 C214 1.270 . S
C196 O197 1.270 . S
C196 O198 1.248 . S
O197 Cd175 2.350 . S
O197 C196 1.270 . S
O198 Cd175 2.277 . S
O198 C196 1.248 . S
C199 O200 1.277 . S
C199 O201 1.230 . S
O200 Cd175 2.173 . S
O200 C199 1.277 . S
O201 Cd176 2.250 . S
O201 C199 1.230 . S
C202 N184 1.329 . S
C202 C186 1.481 . S
C202 O203 1.246 . S
O203 C202 1.246 . S
O204 Cd175 2.263 . S
O204 C216 1.258 . S
O205 Cd176 2.308 . S
O205 C216 1.274 . S
C206 C190 1.516 . S
C206 N191 1.324 . S
C206 O207 1.238 . S
O207 C206 1.238 . S
C208 N191 1.427 . S
C208 C209 1.394 . S
C208 C213 1.395 . S
C209 C208 1.394 . S
C209 C210 1.380 . S
C209 H237 0.929 . S
C210 C209 1.380 . S
C210 C211 1.384 . S
C210 C216 1.495 . S
C211 C210 1.384 . S
C211 C212 1.382 . S
C211 H238 0.930 . S
C212 C211 1.382 . S
C212 C213 1.398 . S
C213 C208 1.395 . S
C213 C212 1.398 . S
C213 H239 0.930 . S
C214 O194 1.235 . S
C214 O195 1.270 . S
O215 C168 1.263 . S
O215 Cd175 2.366 . S
C216 O204 1.258 . S
C216 O205 1.274 . S
C216 C210 1.495 . S
C217 N184 1.432 . S
C217 C218 1.381 . S
C217 C222 1.385 . S
C218 C217 1.381 . S
C218 C219 1.371 . S
C218 H240 0.932 . S
C219 C218 1.371 . S
C219 C220 1.400 . S
C220 C219 1.400 . S
C220 C221 1.351 . S
C220 H241 0.930 . S
C221 C220 1.351 . S
C221 C222 1.388 . S
C222 C217 1.385 . S
C222 C221 1.388 . S
C222 H242 0.929 . S
C223 C162 1.504 . S
C223 N193 1.309 . S
C223 O224 1.258 . S
O224 C223 1.258 . S
H225 C163 0.929 . S
H226 C164 0.932 . S
H227 C165 0.931 . S
H228 C170 0.929 . S
H229 C172 0.929 . S
H230 C174 0.931 . S
H231 C179 0.929 . S
H232 C181 0.932 . S
H233 C182 0.931 . S
H234 C187 0.930 . S
H235 C188 0.931 . S
H236 C189 0.930 . S
H237 C209 0.929 . S
H238 C211 0.930 . S
H239 C213 0.930 . S
H240 C218 0.932 . S
H241 C220 0.930 . S
H242 C222 0.929 . S
C243 C244 1.359 . S
C243 N248 1.330 . S
C243 C304 1.504 . S
C244 C243 1.359 . S
C244 C245 1.366 . S
C244 H306 0.929 . S
C245 C244 1.366 . S
C245 C246 1.415 . S
C245 H307 0.932 . S
C246 C245 1.415 . S
C246 C247 1.366 . S
C246 H308 0.931 . S
C247 C246 1.366 . S
C247 N248 1.325 . S
C247 C249 1.516 . S
N248 C243 1.330 . S
N248 C247 1.325 . S
N248 Co264 1.869 . S
C249 C247 1.516 . S
C249 N273 1.316 . S
C249 O296 1.263 . S
C250 C251 1.421 . S
C250 C255 1.360 . S
C250 N273 1.436 . S
C251 C250 1.421 . S
C251 C252 1.379 . S
C251 H309 0.929 . S
C252 C251 1.379 . S
C252 C253 1.417 . S
C253 C252 1.417 . S
C253 C254 1.352 . S
C253 H310 0.929 . S
C254 C253 1.352 . S
C254 C255 1.393 . S
C255 C250 1.360 . S
C255 C254 1.393 . S
C255 H311 0.931 . S
Cd256 O276 2.329 . S
Cd256 O278 2.350 . S
Cd256 O279 2.277 . S
Cd256 O281 2.173 . S
Cd256 O285 2.263 . S
Cd256 O296 2.366 . S
Cd257 O275 2.352 . S
Cd257 O282 2.250 . S
Cd257 O286 2.308 . S
C258 C262 1.403 . S
C258 C263 1.370 . S
C258 N274 1.423 . S
C259 C260 1.389 . S
C259 C263 1.389 . S
C260 C259 1.389 . S
C260 C261 1.379 . S
C260 H312 0.929 . S
C261 C260 1.379 . S
C261 C262 1.405 . S
C262 C258 1.403 . S
C262 C261 1.405 . S
C262 H313 0.932 . S
C263 C258 1.370 . S
C263 C259 1.389 . S
C263 H314 0.931 . S
Co264 N248 1.869 . S
Co264 N265 1.955 . S
Co264 N266 1.864 . S
Co264 N272 1.958 . S
Co264 N273 1.953 . S
Co264 N274 1.974 . S
N265 Co264 1.955 . S
N265 C283 1.329 . S
N265 C298 1.432 . S
N266 Co264 1.864 . S
N266 C267 1.327 . S
N266 C271 1.342 . S
C267 N266 1.327 . S
C267 C268 1.407 . S
C267 C283 1.481 . S
C268 C267 1.407 . S
C268 C269 1.364 . S
C268 H315 0.930 . S
C269 C268 1.364 . S
C269 C270 1.390 . S
C269 H316 0.931 . S
C270 C269 1.390 . S
C270 C271 1.346 . S
C270 H317 0.930 . S
C271 N266 1.342 . S
C271 C270 1.346 . S
C271 C287 1.516 . S
N272 Co264 1.958 . S
N272 C287 1.324 . S
N272 C289 1.427 . S
N273 C249 1.316 . S
N273 C250 1.436 . S
N273 Co264 1.953 . S
N274 C258 1.423 . S
N274 Co264 1.974 . S
N274 C304 1.309 . S
O275 Cd257 2.352 . S
O275 C295 1.235 . S
O276 Cd256 2.329 . S
O276 C295 1.270 . S
C277 O278 1.270 . S
C277 O279 1.248 . S
O278 Cd256 2.350 . S
O278 C277 1.270 . S
O279 Cd256 2.277 . S
O279 C277 1.248 . S
C280 O281 1.277 . S
C280 O282 1.230 . S
O281 Cd256 2.173 . S
O281 C280 1.277 . S
O282 Cd257 2.250 . S
O282 C280 1.230 . S
C283 N265 1.329 . S
C283 C267 1.481 . S
C283 O284 1.246 . S
O284 C283 1.246 . S
O285 Cd256 2.263 . S
O285 C297 1.258 . S
O286 Cd257 2.308 . S
O286 C297 1.274 . S
C287 C271 1.516 . S
C287 N272 1.324 . S
C287 O288 1.238 . S
O288 C287 1.238 . S
C289 N272 1.427 . S
C289 C290 1.394 . S
C289 C294 1.395 . S
C290 C289 1.394 . S
C290 C291 1.380 . S
C290 H318 0.929 . S
C291 C290 1.380 . S
C291 C292 1.384 . S
C291 C297 1.495 . S
C292 C291 1.384 . S
C292 C293 1.382 . S
C292 H319 0.930 . S
C293 C292 1.382 . S
C293 C294 1.398 . S
C294 C289 1.395 . S
C294 C293 1.398 . S
C294 H320 0.930 . S
C295 O275 1.235 . S
C295 O276 1.270 . S
O296 C249 1.263 . S
O296 Cd256 2.366 . S
C297 O285 1.258 . S
C297 O286 1.274 . S
C297 C291 1.495 . S
C298 N265 1.432 . S
C298 C299 1.381 . S
C298 C303 1.385 . S
C299 C298 1.381 . S
C299 C300 1.371 . S
C299 H321 0.932 . S
C300 C299 1.371 . S
C300 C301 1.400 . S
C301 C300 1.400 . S
C301 C302 1.351 . S
C301 H322 0.930 . S
C302 C301 1.351 . S
C302 C303 1.388 . S
C303 C298 1.385 . S
C303 C302 1.388 . S
C303 H323 0.929 . S
C304 C243 1.504 . S
C304 N274 1.309 . S
C304 O305 1.258 . S
O305 C304 1.258 . S
H306 C244 0.929 . S
H307 C245 0.932 . S
H308 C246 0.931 . S
H309 C251 0.929 . S
H310 C253 0.929 . S
H311 C255 0.931 . S
H312 C260 0.929 . S
H313 C262 0.932 . S
H314 C263 0.931 . S
H315 C268 0.930 . S
H316 C269 0.931 . S
H317 C270 0.930 . S
H318 C290 0.929 . S
H319 C292 0.930 . S
H320 C294 0.930 . S
H321 C299 0.932 . S
H322 C301 0.930 . S
H323 C303 0.929 . S
C324 C325 1.359 . S
C324 N329 1.330 . S
C324 C385 1.504 . S
C325 C324 1.359 . S
C325 C326 1.366 . S
C325 H387 0.929 . S
C326 C325 1.366 . S
C326 C327 1.415 . S
C326 H388 0.932 . S
C327 C326 1.415 . S
C327 C328 1.366 . S
C327 H389 0.931 . S
C328 C327 1.366 . S
C328 N329 1.325 . S
C328 C330 1.516 . S
N329 C324 1.330 . S
N329 C328 1.325 . S
N329 Co345 1.869 . S
C330 C328 1.516 . S
C330 N354 1.316 . S
C330 O377 1.263 . S
C331 C332 1.421 . S
C331 C336 1.360 . S
C331 N354 1.436 . S
C332 C331 1.421 . S
C332 C333 1.379 . S
C332 H390 0.929 . S
C333 C332 1.379 . S
C333 C334 1.417 . S
C334 C333 1.417 . S
C334 C335 1.352 . S
C334 H391 0.929 . S
C335 C334 1.352 . S
C335 C336 1.393 . S
C336 C331 1.360 . S
C336 C335 1.393 . S
C336 H392 0.931 . S
Cd337 O357 2.329 . S
Cd337 O359 2.350 . S
Cd337 O360 2.277 . S
Cd337 O362 2.173 . S
Cd337 O366 2.263 . S
Cd337 O377 2.366 . S
Cd338 O356 2.352 . S
Cd338 O363 2.250 . S
Cd338 O367 2.308 . S
C339 C343 1.403 . S
C339 C344 1.370 . S
C339 N355 1.423 . S
C340 C341 1.389 . S
C340 C344 1.389 . S
C341 C340 1.389 . S
C341 C342 1.379 . S
C341 H393 0.929 . S
C342 C341 1.379 . S
C342 C343 1.405 . S
C343 C339 1.403 . S
C343 C342 1.405 . S
C343 H394 0.932 . S
C344 C339 1.370 . S
C344 C340 1.389 . S
C344 H395 0.931 . S
Co345 N329 1.869 . S
Co345 N346 1.955 . S
Co345 N347 1.864 . S
Co345 N353 1.958 . S
Co345 N354 1.953 . S
Co345 N355 1.974 . S
N346 Co345 1.955 . S
N346 C364 1.329 . S
N346 C379 1.432 . S
N347 Co345 1.864 . S
N347 C348 1.327 . S
N347 C352 1.342 . S
C348 N347 1.327 . S
C348 C349 1.407 . S
C348 C364 1.481 . S
C349 C348 1.407 . S
C349 C350 1.364 . S
C349 H396 0.930 . S
C350 C349 1.364 . S
C350 C351 1.390 . S
C350 H397 0.931 . S
C351 C350 1.390 . S
C351 C352 1.346 . S
C351 H398 0.930 . S
C352 N347 1.342 . S
C352 C351 1.346 . S
C352 C368 1.516 . S
N353 Co345 1.958 . S
N353 C368 1.324 . S
N353 C370 1.427 . S
N354 C330 1.316 . S
N354 C331 1.436 . S
N354 Co345 1.953 . S
N355 C339 1.423 . S
N355 Co345 1.974 . S
N355 C385 1.309 . S
O356 Cd338 2.352 . S
O356 C376 1.235 . S
O357 Cd337 2.329 . S
O357 C376 1.270 . S
C358 O359 1.270 . S
C358 O360 1.248 . S
O359 Cd337 2.350 . S
O359 C358 1.270 . S
O360 Cd337 2.277 . S
O360 C358 1.248 . S
C361 O362 1.277 . S
C361 O363 1.230 . S
O362 Cd337 2.173 . S
O362 C361 1.277 . S
O363 Cd338 2.250 . S
O363 C361 1.230 . S
C364 N346 1.329 . S
C364 C348 1.481 . S
C364 O365 1.246 . S
O365 C364 1.246 . S
O366 Cd337 2.263 . S
O366 C378 1.258 . S
O367 Cd338 2.308 . S
O367 C378 1.274 . S
C368 C352 1.516 . S
C368 N353 1.324 . S
C368 O369 1.238 . S
O369 C368 1.238 . S
C370 N353 1.427 . S
C370 C371 1.394 . S
C370 C375 1.395 . S
C371 C370 1.394 . S
C371 C372 1.380 . S
C371 H399 0.929 . S
C372 C371 1.380 . S
C372 C373 1.384 . S
C372 C378 1.495 . S
C373 C372 1.384 . S
C373 C374 1.382 . S
C373 H400 0.930 . S
C374 C373 1.382 . S
C374 C375 1.398 . S
C375 C370 1.395 . S
C375 C374 1.398 . S
C375 H401 0.930 . S
C376 O356 1.235 . S
C376 O357 1.270 . S
O377 C330 1.263 . S
O377 Cd337 2.366 . S
C378 O366 1.258 . S
C378 O367 1.274 . S
C378 C372 1.495 . S
C379 N346 1.432 . S
C379 C380 1.381 . S
C379 C384 1.385 . S
C380 C379 1.381 . S
C380 C381 1.371 . S
C380 H402 0.932 . S
C381 C380 1.371 . S
C381 C382 1.400 . S
C382 C381 1.400 . S
C382 C383 1.351 . S
C382 H403 0.930 . S
C383 C382 1.351 . S
C383 C384 1.388 . S
C384 C379 1.385 . S
C384 C383 1.388 . S
C384 H404 0.929 . S
C385 C324 1.504 . S
C385 N355 1.309 . S
C385 O386 1.258 . S
O386 C385 1.258 . S
H387 C325 0.929 . S
H388 C326 0.932 . S
H389 C327 0.931 . S
H390 C332 0.929 . S
H391 C334 0.929 . S
H392 C336 0.931 . S
H393 C341 0.929 . S
H394 C343 0.932 . S
H395 C344 0.931 . S
H396 C349 0.930 . S
H397 C350 0.931 . S
H398 C351 0.930 . S
H399 C371 0.929 . S
H400 C373 0.930 . S
H401 C375 0.930 . S
H402 C380 0.932 . S
H403 C382 0.930 . S
H404 C384 0.929 . S
C405 C406 1.359 . S
C405 N410 1.330 . S
C405 C466 1.504 . S
C406 C405 1.359 . S
C406 C407 1.366 . S
C406 H468 0.929 . S
C407 C406 1.366 . S
C407 C408 1.415 . S
C407 H469 0.932 . S
C408 C407 1.415 . S
C408 C409 1.366 . S
C408 H470 0.931 . S
C409 C408 1.366 . S
C409 N410 1.325 . S
C409 C411 1.516 . S
N410 C405 1.330 . S
N410 C409 1.325 . S
N410 Co426 1.869 . S
C411 C409 1.516 . S
C411 N435 1.316 . S
C411 O458 1.263 . S
C412 C413 1.421 . S
C412 C417 1.360 . S
C412 N435 1.436 . S
C413 C412 1.421 . S
C413 C414 1.379 . S
C413 H471 0.929 . S
C414 C413 1.379 . S
C414 C415 1.417 . S
C415 C414 1.417 . S
C415 C416 1.352 . S
C415 H472 0.929 . S
C416 C415 1.352 . S
C416 C417 1.393 . S
C417 C412 1.360 . S
C417 C416 1.393 . S
C417 H473 0.931 . S
Cd418 O438 2.329 . S
Cd418 O440 2.350 . S
Cd418 O441 2.277 . S
Cd418 O443 2.173 . S
Cd418 O447 2.263 . S
Cd418 O458 2.366 . S
Cd419 O437 2.352 . S
Cd419 O444 2.250 . S
Cd419 O448 2.308 . S
C420 C424 1.403 . S
C420 C425 1.370 . S
C420 N436 1.423 . S
C421 C422 1.389 . S
C421 C425 1.389 . S
C422 C421 1.389 . S
C422 C423 1.379 . S
C422 H474 0.929 . S
C423 C422 1.379 . S
C423 C424 1.405 . S
C424 C420 1.403 . S
C424 C423 1.405 . S
C424 H475 0.932 . S
C425 C420 1.370 . S
C425 C421 1.389 . S
C425 H476 0.931 . S
Co426 N410 1.869 . S
Co426 N427 1.955 . S
Co426 N428 1.864 . S
Co426 N434 1.958 . S
Co426 N435 1.953 . S
Co426 N436 1.974 . S
N427 Co426 1.955 . S
N427 C445 1.329 . S
N427 C460 1.432 . S
N428 Co426 1.864 . S
N428 C429 1.327 . S
N428 C433 1.342 . S
C429 N428 1.327 . S
C429 C430 1.407 . S
C429 C445 1.481 . S
C430 C429 1.407 . S
C430 C431 1.364 . S
C430 H477 0.930 . S
C431 C430 1.364 . S
C431 C432 1.390 . S
C431 H478 0.931 . S
C432 C431 1.390 . S
C432 C433 1.346 . S
C432 H479 0.930 . S
C433 N428 1.342 . S
C433 C432 1.346 . S
C433 C449 1.516 . S
N434 Co426 1.958 . S
N434 C449 1.324 . S
N434 C451 1.427 . S
N435 C411 1.316 . S
N435 C412 1.436 . S
N435 Co426 1.953 . S
N436 C420 1.423 . S
N436 Co426 1.974 . S
N436 C466 1.309 . S
O437 Cd419 2.352 . S
O437 C457 1.235 . S
O438 Cd418 2.329 . S
O438 C457 1.270 . S
C439 O440 1.270 . S
C439 O441 1.248 . S
O440 Cd418 2.350 . S
O440 C439 1.270 . S
O441 Cd418 2.277 . S
O441 C439 1.248 . S
C442 O443 1.277 . S
C442 O444 1.230 . S
O443 Cd418 2.173 . S
O443 C442 1.277 . S
O444 Cd419 2.250 . S
O444 C442 1.230 . S
C445 N427 1.329 . S
C445 C429 1.481 . S
C445 O446 1.246 . S
O446 C445 1.246 . S
O447 Cd418 2.263 . S
O447 C459 1.258 . S
O448 Cd419 2.308 . S
O448 C459 1.274 . S
C449 C433 1.516 . S
C449 N434 1.324 . S
C449 O450 1.238 . S
O450 C449 1.238 . S
C451 N434 1.427 . S
C451 C452 1.394 . S
C451 C456 1.395 . S
C452 C451 1.394 . S
C452 C453 1.380 . S
C452 H480 0.929 . S
C453 C452 1.380 . S
C453 C454 1.384 . S
C453 C459 1.495 . S
C454 C453 1.384 . S
C454 C455 1.382 . S
C454 H481 0.930 . S
C455 C454 1.382 . S
C455 C456 1.398 . S
C456 C451 1.395 . S
C456 C455 1.398 . S
C456 H482 0.930 . S
C457 O437 1.235 . S
C457 O438 1.270 . S
O458 C411 1.263 . S
O458 Cd418 2.366 . S
C459 O447 1.258 . S
C459 O448 1.274 . S
C459 C453 1.495 . S
C460 N427 1.432 . S
C460 C461 1.381 . S
C460 C465 1.385 . S
C461 C460 1.381 . S
C461 C462 1.371 . S
C461 H483 0.932 . S
C462 C461 1.371 . S
C462 C463 1.400 . S
C463 C462 1.400 . S
C463 C464 1.351 . S
C463 H484 0.930 . S
C464 C463 1.351 . S
C464 C465 1.388 . S
C465 C460 1.385 . S
C465 C464 1.388 . S
C465 H485 0.929 . S
C466 C405 1.504 . S
C466 N436 1.309 . S
C466 O467 1.258 . S
O467 C466 1.258 . S
H468 C406 0.929 . S
H469 C407 0.932 . S
H470 C408 0.931 . S
H471 C413 0.929 . S
H472 C415 0.929 . S
H473 C417 0.931 . S
H474 C422 0.929 . S
H475 C424 0.932 . S
H476 C425 0.931 . S
H477 C430 0.930 . S
H478 C431 0.931 . S
H479 C432 0.930 . S
H480 C452 0.929 . S
H481 C454 0.930 . S
H482 C456 0.930 . S
H483 C461 0.932 . S
H484 C463 0.930 . S
H485 C465 0.929 . S
C486 C487 1.359 . S
C486 N491 1.330 . S
C486 C547 1.504 . S
C487 C486 1.359 . S
C487 C488 1.366 . S
C487 H549 0.929 . S
C488 C487 1.366 . S
C488 C489 1.415 . S
C488 H550 0.932 . S
C489 C488 1.415 . S
C489 C490 1.366 . S
C489 H551 0.931 . S
C490 C489 1.366 . S
C490 N491 1.325 . S
C490 C492 1.516 . S
N491 C486 1.330 . S
N491 C490 1.325 . S
N491 Co507 1.869 . S
C492 C490 1.516 . S
C492 N516 1.316 . S
C492 O539 1.263 . S
C493 C494 1.421 . S
C493 C498 1.360 . S
C493 N516 1.436 . S
C494 C493 1.421 . S
C494 C495 1.379 . S
C494 H552 0.929 . S
C495 C494 1.379 . S
C495 C496 1.417 . S
C496 C495 1.417 . S
C496 C497 1.352 . S
C496 H553 0.929 . S
C497 C496 1.352 . S
C497 C498 1.393 . S
C498 C493 1.360 . S
C498 C497 1.393 . S
C498 H554 0.931 . S
Cd499 O519 2.329 . S
Cd499 O521 2.350 . S
Cd499 O522 2.277 . S
Cd499 O524 2.173 . S
Cd499 O528 2.263 . S
Cd499 O539 2.366 . S
Cd500 O518 2.352 . S
Cd500 O525 2.250 . S
Cd500 O529 2.308 . S
C501 C505 1.403 . S
C501 C506 1.370 . S
C501 N517 1.423 . S
C502 C503 1.389 . S
C502 C506 1.389 . S
C503 C502 1.389 . S
C503 C504 1.379 . S
C503 H555 0.929 . S
C504 C503 1.379 . S
C504 C505 1.405 . S
C505 C501 1.403 . S
C505 C504 1.405 . S
C505 H556 0.932 . S
C506 C501 1.370 . S
C506 C502 1.389 . S
C506 H557 0.931 . S
Co507 N491 1.869 . S
Co507 N508 1.955 . S
Co507 N509 1.864 . S
Co507 N515 1.958 . S
Co507 N516 1.953 . S
Co507 N517 1.974 . S
N508 Co507 1.955 . S
N508 C526 1.329 . S
N508 C541 1.432 . S
N509 Co507 1.864 . S
N509 C510 1.327 . S
N509 C514 1.342 . S
C510 N509 1.327 . S
C510 C511 1.407 . S
C510 C526 1.481 . S
C511 C510 1.407 . S
C511 C512 1.364 . S
C511 H558 0.930 . S
C512 C511 1.364 . S
C512 C513 1.390 . S
C512 H559 0.931 . S
C513 C512 1.390 . S
C513 C514 1.346 . S
C513 H560 0.930 . S
C514 N509 1.342 . S
C514 C513 1.346 . S
C514 C530 1.516 . S
N515 Co507 1.958 . S
N515 C530 1.324 . S
N515 C532 1.427 . S
N516 C492 1.316 . S
N516 C493 1.436 . S
N516 Co507 1.953 . S
N517 C501 1.423 . S
N517 Co507 1.974 . S
N517 C547 1.309 . S
O518 Cd500 2.352 . S
O518 C538 1.235 . S
O519 Cd499 2.329 . S
O519 C538 1.270 . S
C520 O521 1.270 . S
C520 O522 1.248 . S
O521 Cd499 2.350 . S
O521 C520 1.270 . S
O522 Cd499 2.277 . S
O522 C520 1.248 . S
C523 O524 1.277 . S
C523 O525 1.230 . S
O524 Cd499 2.173 . S
O524 C523 1.277 . S
O525 Cd500 2.250 . S
O525 C523 1.230 . S
C526 N508 1.329 . S
C526 C510 1.481 . S
C526 O527 1.246 . S
O527 C526 1.246 . S
O528 Cd499 2.263 . S
O528 C540 1.258 . S
O529 Cd500 2.308 . S
O529 C540 1.274 . S
C530 C514 1.516 . S
C530 N515 1.324 . S
C530 O531 1.238 . S
O531 C530 1.238 . S
C532 N515 1.427 . S
C532 C533 1.394 . S
C532 C537 1.395 . S
C533 C532 1.394 . S
C533 C534 1.380 . S
C533 H561 0.929 . S
C534 C533 1.380 . S
C534 C535 1.384 . S
C534 C540 1.495 . S
C535 C534 1.384 . S
C535 C536 1.382 . S
C535 H562 0.930 . S
C536 C535 1.382 . S
C536 C537 1.398 . S
C537 C532 1.395 . S
C537 C536 1.398 . S
C537 H563 0.930 . S
C538 O518 1.235 . S
C538 O519 1.270 . S
O539 C492 1.263 . S
O539 Cd499 2.366 . S
C540 O528 1.258 . S
C540 O529 1.274 . S
C540 C534 1.495 . S
C541 N508 1.432 . S
C541 C542 1.381 . S
C541 C546 1.385 . S
C542 C541 1.381 . S
C542 C543 1.371 . S
C542 H564 0.932 . S
C543 C542 1.371 . S
C543 C544 1.400 . S
C544 C543 1.400 . S
C544 C545 1.351 . S
C544 H565 0.930 . S
C545 C544 1.351 . S
C545 C546 1.388 . S
C546 C541 1.385 . S
C546 C545 1.388 . S
C546 H566 0.929 . S
C547 C486 1.504 . S
C547 N517 1.309 . S
C547 O548 1.258 . S
O548 C547 1.258 . S
H549 C487 0.929 . S
H550 C488 0.932 . S
H551 C489 0.931 . S
H552 C494 0.929 . S
H553 C496 0.929 . S
H554 C498 0.931 . S
H555 C503 0.929 . S
H556 C505 0.932 . S
H557 C506 0.931 . S
H558 C511 0.930 . S
H559 C512 0.931 . S
H560 C513 0.930 . S
H561 C533 0.929 . S
H562 C535 0.930 . S
H563 C537 0.930 . S
H564 C542 0.932 . S
H565 C544 0.930 . S
H566 C546 0.929 . S
C567 C568 1.359 . S
C567 N572 1.330 . S
C567 C628 1.504 . S
C568 C567 1.359 . S
C568 C569 1.366 . S
C568 H630 0.929 . S
C569 C568 1.366 . S
C569 C570 1.415 . S
C569 H631 0.932 . S
C570 C569 1.415 . S
C570 C571 1.366 . S
C570 H632 0.931 . S
C571 C570 1.366 . S
C571 N572 1.325 . S
C571 C573 1.516 . S
N572 C567 1.330 . S
N572 C571 1.325 . S
N572 Co588 1.869 . S
C573 C571 1.516 . S
C573 N597 1.316 . S
C573 O620 1.263 . S
C574 C575 1.421 . S
C574 C579 1.360 . S
C574 N597 1.436 . S
C575 C574 1.421 . S
C575 C576 1.379 . S
C575 H633 0.929 . S
C576 C575 1.379 . S
C576 C577 1.417 . S
C577 C576 1.417 . S
C577 C578 1.352 . S
C577 H634 0.929 . S
C578 C577 1.352 . S
C578 C579 1.393 . S
C579 C574 1.360 . S
C579 C578 1.393 . S
C579 H635 0.931 . S
Cd580 O600 2.329 . S
Cd580 O602 2.350 . S
Cd580 O603 2.277 . S
Cd580 O605 2.173 . S
Cd580 O609 2.263 . S
Cd580 O620 2.366 . S
Cd581 O599 2.352 . S
Cd581 O606 2.250 . S
Cd581 O610 2.308 . S
C582 C586 1.403 . S
C582 C587 1.370 . S
C582 N598 1.423 . S
C583 C584 1.389 . S
C583 C587 1.389 . S
C584 C583 1.389 . S
C584 C585 1.379 . S
C584 H636 0.929 . S
C585 C584 1.379 . S
C585 C586 1.405 . S
C586 C582 1.403 . S
C586 C585 1.405 . S
C586 H637 0.932 . S
C587 C582 1.370 . S
C587 C583 1.389 . S
C587 H638 0.931 . S
Co588 N572 1.869 . S
Co588 N589 1.955 . S
Co588 N590 1.864 . S
Co588 N596 1.958 . S
Co588 N597 1.953 . S
Co588 N598 1.974 . S
N589 Co588 1.955 . S
N589 C607 1.329 . S
N589 C622 1.432 . S
N590 Co588 1.864 . S
N590 C591 1.327 . S
N590 C595 1.342 . S
C591 N590 1.327 . S
C591 C592 1.407 . S
C591 C607 1.481 . S
C592 C591 1.407 . S
C592 C593 1.364 . S
C592 H639 0.930 . S
C593 C592 1.364 . S
C593 C594 1.390 . S
C593 H640 0.931 . S
C594 C593 1.390 . S
C594 C595 1.346 . S
C594 H641 0.930 . S
C595 N590 1.342 . S
C595 C594 1.346 . S
C595 C611 1.516 . S
N596 Co588 1.958 . S
N596 C611 1.324 . S
N596 C613 1.427 . S
N597 C573 1.316 . S
N597 C574 1.436 . S
N597 Co588 1.953 . S
N598 C582 1.423 . S
N598 Co588 1.974 . S
N598 C628 1.309 . S
O599 Cd581 2.352 . S
O599 C619 1.235 . S
O600 Cd580 2.329 . S
O600 C619 1.270 . S
C601 O602 1.270 . S
C601 O603 1.248 . S
O602 Cd580 2.350 . S
O602 C601 1.270 . S
O603 Cd580 2.277 . S
O603 C601 1.248 . S
C604 O605 1.277 . S
C604 O606 1.230 . S
O605 Cd580 2.173 . S
O605 C604 1.277 . S
O606 Cd581 2.250 . S
O606 C604 1.230 . S
C607 N589 1.329 . S
C607 C591 1.481 . S
C607 O608 1.246 . S
O608 C607 1.246 . S
O609 Cd580 2.263 . S
O609 C621 1.258 . S
O610 Cd581 2.308 . S
O610 C621 1.274 . S
C611 C595 1.516 . S
C611 N596 1.324 . S
C611 O612 1.238 . S
O612 C611 1.238 . S
C613 N596 1.427 . S
C613 C614 1.394 . S
C613 C618 1.395 . S
C614 C613 1.394 . S
C614 C615 1.380 . S
C614 H642 0.929 . S
C615 C614 1.380 . S
C615 C616 1.384 . S
C615 C621 1.495 . S
C616 C615 1.384 . S
C616 C617 1.382 . S
C616 H643 0.930 . S
C617 C616 1.382 . S
C617 C618 1.398 . S
C618 C613 1.395 . S
C618 C617 1.398 . S
C618 H644 0.930 . S
C619 O599 1.235 . S
C619 O600 1.270 . S
O620 C573 1.263 . S
O620 Cd580 2.366 . S
C621 O609 1.258 . S
C621 O610 1.274 . S
C621 C615 1.495 . S
C622 N589 1.432 . S
C622 C623 1.381 . S
C622 C627 1.385 . S
C623 C622 1.381 . S
C623 C624 1.371 . S
C623 H645 0.932 . S
C624 C623 1.371 . S
C624 C625 1.400 . S
C625 C624 1.400 . S
C625 C626 1.351 . S
C625 H646 0.930 . S
C626 C625 1.351 . S
C626 C627 1.388 . S
C627 C622 1.385 . S
C627 C626 1.388 . S
C627 H647 0.929 . S
C628 C567 1.504 . S
C628 N598 1.309 . S
C628 O629 1.258 . S
O629 C628 1.258 . S
H630 C568 0.929 . S
H631 C569 0.932 . S
H632 C570 0.931 . S
H633 C575 0.929 . S
H634 C577 0.929 . S
H635 C579 0.931 . S
H636 C584 0.929 . S
H637 C586 0.932 . S
H638 C587 0.931 . S
H639 C592 0.930 . S
H640 C593 0.931 . S
H641 C594 0.930 . S
H642 C614 0.929 . S
H643 C616 0.930 . S
H644 C618 0.930 . S
H645 C623 0.932 . S
H646 C625 0.930 . S
H647 C627 0.929 . S
C648 C649 1.359 . S
C648 N653 1.330 . S
C648 C709 1.504 . S
C649 C648 1.359 . S
C649 C650 1.366 . S
C649 H711 0.929 . S
C650 C649 1.366 . S
C650 C651 1.415 . S
C650 H712 0.932 . S
C651 C650 1.415 . S
C651 C652 1.366 . S
C651 H713 0.931 . S
C652 C651 1.366 . S
C652 N653 1.325 . S
C652 C654 1.516 . S
N653 C648 1.330 . S
N653 C652 1.325 . S
N653 Co669 1.869 . S
C654 C652 1.516 . S
C654 N678 1.316 . S
C654 O701 1.263 . S
C655 C656 1.421 . S
C655 C660 1.360 . S
C655 N678 1.436 . S
C656 C655 1.421 . S
C656 C657 1.379 . S
C656 H714 0.929 . S
C657 C656 1.379 . S
C657 C658 1.417 . S
C658 C657 1.417 . S
C658 C659 1.352 . S
C658 H715 0.929 . S
C659 C658 1.352 . S
C659 C660 1.393 . S
C660 C655 1.360 . S
C660 C659 1.393 . S
C660 H716 0.931 . S
Cd661 O681 2.329 . S
Cd661 O683 2.350 . S
Cd661 O684 2.277 . S
Cd661 O686 2.173 . S
Cd661 O690 2.263 . S
Cd661 O701 2.366 . S
Cd662 O680 2.352 . S
Cd662 O687 2.250 . S
Cd662 O691 2.308 . S
C663 C667 1.403 . S
C663 C668 1.370 . S
C663 N679 1.423 . S
C664 C665 1.389 . S
C664 C668 1.389 . S
C665 C664 1.389 . S
C665 C666 1.379 . S
C665 H717 0.929 . S
C666 C665 1.379 . S
C666 C667 1.405 . S
C667 C663 1.403 . S
C667 C666 1.405 . S
C667 H718 0.932 . S
C668 C663 1.370 . S
C668 C664 1.389 . S
C668 H719 0.931 . S
Co669 N653 1.869 . S
Co669 N670 1.955 . S
Co669 N671 1.864 . S
Co669 N677 1.958 . S
Co669 N678 1.953 . S
Co669 N679 1.974 . S
N670 Co669 1.955 . S
N670 C688 1.329 . S
N670 C703 1.432 . S
N671 Co669 1.864 . S
N671 C672 1.327 . S
N671 C676 1.342 . S
C672 N671 1.327 . S
C672 C673 1.407 . S
C672 C688 1.481 . S
C673 C672 1.407 . S
C673 C674 1.364 . S
C673 H720 0.930 . S
C674 C673 1.364 . S
C674 C675 1.390 . S
C674 H721 0.931 . S
C675 C674 1.390 . S
C675 C676 1.346 . S
C675 H722 0.930 . S
C676 N671 1.342 . S
C676 C675 1.346 . S
C676 C692 1.516 . S
N677 Co669 1.958 . S
N677 C692 1.324 . S
N677 C694 1.427 . S
N678 C654 1.316 . S
N678 C655 1.436 . S
N678 Co669 1.953 . S
N679 C663 1.423 . S
N679 Co669 1.974 . S
N679 C709 1.309 . S
O680 Cd662 2.352 . S
O680 C700 1.235 . S
O681 Cd661 2.329 . S
O681 C700 1.270 . S
C682 O683 1.270 . S
C682 O684 1.248 . S
O683 Cd661 2.350 . S
O683 C682 1.270 . S
O684 Cd661 2.277 . S
O684 C682 1.248 . S
C685 O686 1.277 . S
C685 O687 1.230 . S
O686 Cd661 2.173 . S
O686 C685 1.277 . S
O687 Cd662 2.250 . S
O687 C685 1.230 . S
C688 N670 1.329 . S
C688 C672 1.481 . S
C688 O689 1.246 . S
O689 C688 1.246 . S
O690 Cd661 2.263 . S
O690 C702 1.258 . S
O691 Cd662 2.308 . S
O691 C702 1.274 . S
C692 C676 1.516 . S
C692 N677 1.324 . S
C692 O693 1.238 . S
O693 C692 1.238 . S
C694 N677 1.427 . S
C694 C695 1.394 . S
C694 C699 1.395 . S
C695 C694 1.394 . S
C695 C696 1.380 . S
C695 H723 0.929 . S
C696 C695 1.380 . S
C696 C697 1.384 . S
C696 C702 1.495 . S
C697 C696 1.384 . S
C697 C698 1.382 . S
C697 H724 0.930 . S
C698 C697 1.382 . S
C698 C699 1.398 . S
C699 C694 1.395 . S
C699 C698 1.398 . S
C699 H725 0.930 . S
C700 O680 1.235 . S
C700 O681 1.270 . S
O701 C654 1.263 . S
O701 Cd661 2.366 . S
C702 O690 1.258 . S
C702 O691 1.274 . S
C702 C696 1.495 . S
C703 N670 1.432 . S
C703 C704 1.381 . S
C703 C708 1.385 . S
C704 C703 1.381 . S
C704 C705 1.371 . S
C704 H726 0.932 . S
C705 C704 1.371 . S
C705 C706 1.400 . S
C706 C705 1.400 . S
C706 C707 1.351 . S
C706 H727 0.930 . S
C707 C706 1.351 . S
C707 C708 1.388 . S
C708 C703 1.385 . S
C708 C707 1.388 . S
C708 H728 0.929 . S
C709 C648 1.504 . S
C709 N679 1.309 . S
C709 O710 1.258 . S
O710 C709 1.258 . S
H711 C649 0.929 . S
H712 C650 0.932 . S
H713 C651 0.931 . S
H714 C656 0.929 . S
H715 C658 0.929 . S
H716 C660 0.931 . S
H717 C665 0.929 . S
H718 C667 0.932 . S
H719 C668 0.931 . S
H720 C673 0.930 . S
H721 C674 0.931 . S
H722 C675 0.930 . S
H723 C695 0.929 . S
H724 C697 0.930 . S
H725 C699 0.930 . S
H726 C704 0.932 . S
H727 C706 0.930 . S
H728 C708 0.929 . S
C729 C730 1.359 . S
C729 N734 1.330 . S
C729 C790 1.504 . S
C730 C729 1.359 . S
C730 C731 1.366 . S
C730 H792 0.929 . S
C731 C730 1.366 . S
C731 C732 1.415 . S
C731 H793 0.932 . S
C732 C731 1.415 . S
C732 C733 1.366 . S
C732 H794 0.931 . S
C733 C732 1.366 . S
C733 N734 1.325 . S
C733 C735 1.516 . S
N734 C729 1.330 . S
N734 C733 1.325 . S
N734 Co750 1.869 . S
C735 C733 1.516 . S
C735 N759 1.316 . S
C735 O782 1.263 . S
C736 C737 1.421 . S
C736 C741 1.360 . S
C736 N759 1.436 . S
C737 C736 1.421 . S
C737 C738 1.379 . S
C737 H795 0.929 . S
C738 C737 1.379 . S
C738 C739 1.417 . S
C739 C738 1.417 . S
C739 C740 1.352 . S
C739 H796 0.929 . S
C740 C739 1.352 . S
C740 C741 1.393 . S
C741 C736 1.360 . S
C741 C740 1.393 . S
C741 H797 0.931 . S
Cd742 O762 2.329 . S
Cd742 O764 2.350 . S
Cd742 O765 2.277 . S
Cd742 O767 2.173 . S
Cd742 O771 2.263 . S
Cd742 O782 2.366 . S
Cd743 O761 2.352 . S
Cd743 O768 2.250 . S
Cd743 O772 2.308 . S
C744 C748 1.403 . S
C744 C749 1.370 . S
C744 N760 1.423 . S
C745 C746 1.389 . S
C745 C749 1.389 . S
C746 C745 1.389 . S
C746 C747 1.379 . S
C746 H798 0.929 . S
C747 C746 1.379 . S
C747 C748 1.405 . S
C748 C744 1.403 . S
C748 C747 1.405 . S
C748 H799 0.932 . S
C749 C744 1.370 . S
C749 C745 1.389 . S
C749 H800 0.931 . S
Co750 N734 1.869 . S
Co750 N751 1.955 . S
Co750 N752 1.864 . S
Co750 N758 1.958 . S
Co750 N759 1.953 . S
Co750 N760 1.974 . S
N751 Co750 1.955 . S
N751 C769 1.329 . S
N751 C784 1.432 . S
N752 Co750 1.864 . S
N752 C753 1.327 . S
N752 C757 1.342 . S
C753 N752 1.327 . S
C753 C754 1.407 . S
C753 C769 1.481 . S
C754 C753 1.407 . S
C754 C755 1.364 . S
C754 H801 0.930 . S
C755 C754 1.364 . S
C755 C756 1.390 . S
C755 H802 0.931 . S
C756 C755 1.390 . S
C756 C757 1.346 . S
C756 H803 0.930 . S
C757 N752 1.342 . S
C757 C756 1.346 . S
C757 C773 1.516 . S
N758 Co750 1.958 . S
N758 C773 1.324 . S
N758 C775 1.427 . S
N759 C735 1.316 . S
N759 C736 1.436 . S
N759 Co750 1.953 . S
N760 C744 1.423 . S
N760 Co750 1.974 . S
N760 C790 1.309 . S
O761 Cd743 2.352 . S
O761 C781 1.235 . S
O762 Cd742 2.329 . S
O762 C781 1.270 . S
C763 O764 1.270 . S
C763 O765 1.248 . S
O764 Cd742 2.350 . S
O764 C763 1.270 . S
O765 Cd742 2.277 . S
O765 C763 1.248 . S
C766 O767 1.277 . S
C766 O768 1.230 . S
O767 Cd742 2.173 . S
O767 C766 1.277 . S
O768 Cd743 2.250 . S
O768 C766 1.230 . S
C769 N751 1.329 . S
C769 C753 1.481 . S
C769 O770 1.246 . S
O770 C769 1.246 . S
O771 Cd742 2.263 . S
O771 C783 1.258 . S
O772 Cd743 2.308 . S
O772 C783 1.274 . S
C773 C757 1.516 . S
C773 N758 1.324 . S
C773 O774 1.238 . S
O774 C773 1.238 . S
C775 N758 1.427 . S
C775 C776 1.394 . S
C775 C780 1.395 . S
C776 C775 1.394 . S
C776 C777 1.380 . S
C776 H804 0.929 . S
C777 C776 1.380 . S
C777 C778 1.384 . S
C777 C783 1.495 . S
C778 C777 1.384 . S
C778 C779 1.382 . S
C778 H805 0.930 . S
C779 C778 1.382 . S
C779 C780 1.398 . S
C780 C775 1.395 . S
C780 C779 1.398 . S
C780 H806 0.930 . S
C781 O761 1.235 . S
C781 O762 1.270 . S
O782 C735 1.263 . S
O782 Cd742 2.366 . S
C783 O771 1.258 . S
C783 O772 1.274 . S
C783 C777 1.495 . S
C784 N751 1.432 . S
C784 C785 1.381 . S
C784 C789 1.385 . S
C785 C784 1.381 . S
C785 C786 1.371 . S
C785 H807 0.932 . S
C786 C785 1.371 . S
C786 C787 1.400 . S
C787 C786 1.400 . S
C787 C788 1.351 . S
C787 H808 0.930 . S
C788 C787 1.351 . S
C788 C789 1.388 . S
C789 C784 1.385 . S
C789 C788 1.388 . S
C789 H809 0.929 . S
C790 C729 1.504 . S
C790 N760 1.309 . S
C790 O791 1.258 . S
O791 C790 1.258 . S
H792 C730 0.929 . S
H793 C731 0.932 . S
H794 C732 0.931 . S
H795 C737 0.929 . S
H796 C739 0.929 . S
H797 C741 0.931 . S
H798 C746 0.929 . S
H799 C748 0.932 . S
H800 C749 0.931 . S
H801 C754 0.930 . S
H802 C755 0.931 . S
H803 C756 0.930 . S
H804 C776 0.929 . S
H805 C778 0.930 . S
H806 C780 0.930 . S
H807 C785 0.932 . S
H808 C787 0.930 . S
H809 C789 0.929 . S
C810 C811 1.359 . S
C810 N815 1.330 . S
C810 C871 1.504 . S
C811 C810 1.359 . S
C811 C812 1.366 . S
C811 H873 0.929 . S
C812 C811 1.366 . S
C812 C813 1.415 . S
C812 H874 0.932 . S
C813 C812 1.415 . S
C813 C814 1.366 . S
C813 H875 0.931 . S
C814 C813 1.366 . S
C814 N815 1.325 . S
C814 C816 1.516 . S
N815 C810 1.330 . S
N815 C814 1.325 . S
N815 Co831 1.869 . S
C816 C814 1.516 . S
C816 N840 1.316 . S
C816 O863 1.263 . S
C817 C818 1.421 . S
C817 C822 1.360 . S
C817 N840 1.436 . S
C818 C817 1.421 . S
C818 C819 1.379 . S
C818 H876 0.929 . S
C819 C818 1.379 . S
C819 C820 1.417 . S
C820 C819 1.417 . S
C820 C821 1.352 . S
C820 H877 0.929 . S
C821 C820 1.352 . S
C821 C822 1.393 . S
C822 C817 1.360 . S
C822 C821 1.393 . S
C822 H878 0.931 . S
Cd823 O843 2.329 . S
Cd823 O845 2.350 . S
Cd823 O846 2.277 . S
Cd823 O848 2.173 . S
Cd823 O852 2.263 . S
Cd823 O863 2.366 . S
Cd824 O842 2.352 . S
Cd824 O849 2.250 . S
Cd824 O853 2.308 . S
C825 C829 1.403 . S
C825 C830 1.370 . S
C825 N841 1.423 . S
C826 C827 1.389 . S
C826 C830 1.389 . S
C827 C826 1.389 . S
C827 C828 1.379 . S
C827 H879 0.929 . S
C828 C827 1.379 . S
C828 C829 1.405 . S
C829 C825 1.403 . S
C829 C828 1.405 . S
C829 H880 0.932 . S
C830 C825 1.370 . S
C830 C826 1.389 . S
C830 H881 0.931 . S
Co831 N815 1.869 . S
Co831 N832 1.955 . S
Co831 N833 1.864 . S
Co831 N839 1.958 . S
Co831 N840 1.953 . S
Co831 N841 1.974 . S
N832 Co831 1.955 . S
N832 C850 1.329 . S
N832 C865 1.432 . S
N833 Co831 1.864 . S
N833 C834 1.327 . S
N833 C838 1.342 . S
C834 N833 1.327 . S
C834 C835 1.407 . S
C834 C850 1.481 . S
C835 C834 1.407 . S
C835 C836 1.364 . S
C835 H882 0.930 . S
C836 C835 1.364 . S
C836 C837 1.390 . S
C836 H883 0.931 . S
C837 C836 1.390 . S
C837 C838 1.346 . S
C837 H884 0.930 . S
C838 N833 1.342 . S
C838 C837 1.346 . S
C838 C854 1.516 . S
N839 Co831 1.958 . S
N839 C854 1.324 . S
N839 C856 1.427 . S
N840 C816 1.316 . S
N840 C817 1.436 . S
N840 Co831 1.953 . S
N841 C825 1.423 . S
N841 Co831 1.974 . S
N841 C871 1.309 . S
O842 Cd824 2.352 . S
O842 C862 1.235 . S
O843 Cd823 2.329 . S
O843 C862 1.270 . S
C844 O845 1.270 . S
C844 O846 1.248 . S
O845 Cd823 2.350 . S
O845 C844 1.270 . S
O846 Cd823 2.277 . S
O846 C844 1.248 . S
C847 O848 1.277 . S
C847 O849 1.230 . S
O848 Cd823 2.173 . S
O848 C847 1.277 . S
O849 Cd824 2.250 . S
O849 C847 1.230 . S
C850 N832 1.329 . S
C850 C834 1.481 . S
C850 O851 1.246 . S
O851 C850 1.246 . S
O852 Cd823 2.263 . S
O852 C864 1.258 . S
O853 Cd824 2.308 . S
O853 C864 1.274 . S
C854 C838 1.516 . S
C854 N839 1.324 . S
C854 O855 1.238 . S
O855 C854 1.238 . S
C856 N839 1.427 . S
C856 C857 1.394 . S
C856 C861 1.395 . S
C857 C856 1.394 . S
C857 C858 1.380 . S
C857 H885 0.929 . S
C858 C857 1.380 . S
C858 C859 1.384 . S
C858 C864 1.495 . S
C859 C858 1.384 . S
C859 C860 1.382 . S
C859 H886 0.930 . S
C860 C859 1.382 . S
C860 C861 1.398 . S
C861 C856 1.395 . S
C861 C860 1.398 . S
C861 H887 0.930 . S
C862 O842 1.235 . S
C862 O843 1.270 . S
O863 C816 1.263 . S
O863 Cd823 2.366 . S
C864 O852 1.258 . S
C864 O853 1.274 . S
C864 C858 1.495 . S
C865 N832 1.432 . S
C865 C866 1.381 . S
C865 C870 1.385 . S
C866 C865 1.381 . S
C866 C867 1.371 . S
C866 H888 0.932 . S
C867 C866 1.371 . S
C867 C868 1.400 . S
C868 C867 1.400 . S
C868 C869 1.351 . S
C868 H889 0.930 . S
C869 C868 1.351 . S
C869 C870 1.388 . S
C870 C865 1.385 . S
C870 C869 1.388 . S
C870 H890 0.929 . S
C871 C810 1.504 . S
C871 N841 1.309 . S
C871 O872 1.258 . S
O872 C871 1.258 . S
H873 C811 0.929 . S
H874 C812 0.932 . S
H875 C813 0.931 . S
H876 C818 0.929 . S
H877 C820 0.929 . S
H878 C822 0.931 . S
H879 C827 0.929 . S
H880 C829 0.932 . S
H881 C830 0.931 . S
H882 C835 0.930 . S
H883 C836 0.931 . S
H884 C837 0.930 . S
H885 C857 0.929 . S
H886 C859 0.930 . S
H887 C861 0.930 . S
H888 C866 0.932 . S
H889 C868 0.930 . S
H890 C870 0.929 . S
C891 C892 1.359 . S
C891 N896 1.330 . S
C891 C952 1.504 . S
C892 C891 1.359 . S
C892 C893 1.366 . S
C892 H954 0.929 . S
C893 C892 1.366 . S
C893 C894 1.415 . S
C893 H955 0.932 . S
C894 C893 1.415 . S
C894 C895 1.366 . S
C894 H956 0.931 . S
C895 C894 1.366 . S
C895 N896 1.325 . S
C895 C897 1.516 . S
N896 C891 1.330 . S
N896 C895 1.325 . S
N896 Co912 1.869 . S
C897 C895 1.516 . S
C897 N921 1.316 . S
C897 O944 1.263 . S
C898 C899 1.421 . S
C898 C903 1.360 . S
C898 N921 1.436 . S
C899 C898 1.421 . S
C899 C900 1.379 . S
C899 H957 0.929 . S
C900 C899 1.379 . S
C900 C901 1.417 . S
C901 C900 1.417 . S
C901 C902 1.352 . S
C901 H958 0.929 . S
C902 C901 1.352 . S
C902 C903 1.393 . S
C903 C898 1.360 . S
C903 C902 1.393 . S
C903 H959 0.931 . S
Cd904 O924 2.329 . S
Cd904 O926 2.350 . S
Cd904 O927 2.277 . S
Cd904 O929 2.173 . S
Cd904 O933 2.263 . S
Cd904 O944 2.366 . S
Cd905 O923 2.352 . S
Cd905 O930 2.250 . S
Cd905 O934 2.308 . S
C906 C910 1.403 . S
C906 C911 1.370 . S
C906 N922 1.423 . S
C907 C908 1.389 . S
C907 C911 1.389 . S
C908 C907 1.389 . S
C908 C909 1.379 . S
C908 H960 0.929 . S
C909 C908 1.379 . S
C909 C910 1.405 . S
C910 C906 1.403 . S
C910 C909 1.405 . S
C910 H961 0.932 . S
C911 C906 1.370 . S
C911 C907 1.389 . S
C911 H962 0.931 . S
Co912 N896 1.869 . S
Co912 N913 1.955 . S
Co912 N914 1.864 . S
Co912 N920 1.958 . S
Co912 N921 1.953 . S
Co912 N922 1.974 . S
N913 Co912 1.955 . S
N913 C931 1.329 . S
N913 C946 1.432 . S
N914 Co912 1.864 . S
N914 C915 1.327 . S
N914 C919 1.342 . S
C915 N914 1.327 . S
C915 C916 1.407 . S
C915 C931 1.481 . S
C916 C915 1.407 . S
C916 C917 1.364 . S
C916 H963 0.930 . S
C917 C916 1.364 . S
C917 C918 1.390 . S
C917 H964 0.931 . S
C918 C917 1.390 . S
C918 C919 1.346 . S
C918 H965 0.930 . S
C919 N914 1.342 . S
C919 C918 1.346 . S
C919 C935 1.516 . S
N920 Co912 1.958 . S
N920 C935 1.324 . S
N920 C937 1.427 . S
N921 C897 1.316 . S
N921 C898 1.436 . S
N921 Co912 1.953 . S
N922 C906 1.423 . S
N922 Co912 1.974 . S
N922 C952 1.309 . S
O923 Cd905 2.352 . S
O923 C943 1.235 . S
O924 Cd904 2.329 . S
O924 C943 1.270 . S
C925 O926 1.270 . S
C925 O927 1.248 . S
O926 Cd904 2.350 . S
O926 C925 1.270 . S
O927 Cd904 2.277 . S
O927 C925 1.248 . S
C928 O929 1.277 . S
C928 O930 1.230 . S
O929 Cd904 2.173 . S
O929 C928 1.277 . S
O930 Cd905 2.250 . S
O930 C928 1.230 . S
C931 N913 1.329 . S
C931 C915 1.481 . S
C931 O932 1.246 . S
O932 C931 1.246 . S
O933 Cd904 2.263 . S
O933 C945 1.258 . S
O934 Cd905 2.308 . S
O934 C945 1.274 . S
C935 C919 1.516 . S
C935 N920 1.324 . S
C935 O936 1.238 . S
O936 C935 1.238 . S
C937 N920 1.427 . S
C937 C938 1.394 . S
C937 C942 1.395 . S
C938 C937 1.394 . S
C938 C939 1.380 . S
C938 H966 0.929 . S
C939 C938 1.380 . S
C939 C940 1.384 . S
C939 C945 1.495 . S
C940 C939 1.384 . S
C940 C941 1.382 . S
C940 H967 0.930 . S
C941 C940 1.382 . S
C941 C942 1.398 . S
C942 C937 1.395 . S
C942 C941 1.398 . S
C942 H968 0.930 . S
C943 O923 1.235 . S
C943 O924 1.270 . S
O944 C897 1.263 . S
O944 Cd904 2.366 . S
C945 O933 1.258 . S
C945 O934 1.274 . S
C945 C939 1.495 . S
C946 N913 1.432 . S
C946 C947 1.381 . S
C946 C951 1.385 . S
C947 C946 1.381 . S
C947 C948 1.371 . S
C947 H969 0.932 . S
C948 C947 1.371 . S
C948 C949 1.400 . S
C949 C948 1.400 . S
C949 C950 1.351 . S
C949 H970 0.930 . S
C950 C949 1.351 . S
C950 C951 1.388 . S
C951 C946 1.385 . S
C951 C950 1.388 . S
C951 H971 0.929 . S
C952 C891 1.504 . S
C952 N922 1.309 . S
C952 O953 1.258 . S
O953 C952 1.258 . S
H954 C892 0.929 . S
H955 C893 0.932 . S
H956 C894 0.931 . S
H957 C899 0.929 . S
H958 C901 0.929 . S
H959 C903 0.931 . S
H960 C908 0.929 . S
H961 C910 0.932 . S
H962 C911 0.931 . S
H963 C916 0.930 . S
H964 C917 0.931 . S
H965 C918 0.930 . S
H966 C938 0.929 . S
H967 C940 0.930 . S
H968 C942 0.930 . S
H969 C947 0.932 . S
H970 C949 0.930 . S
H971 C951 0.929 . S
C972 C973 1.359 . S
C972 N977 1.330 . S
C972 C1033 1.504 . S
C973 C972 1.359 . S
C973 C974 1.366 . S
C973 H1035 0.929 . S
C974 C973 1.366 . S
C974 C975 1.415 . S
C974 H1036 0.932 . S
C975 C974 1.415 . S
C975 C976 1.366 . S
C975 H1037 0.931 . S
C976 C975 1.366 . S
C976 N977 1.325 . S
C976 C978 1.516 . S
N977 C972 1.330 . S
N977 C976 1.325 . S
N977 Co993 1.869 . S
C978 C976 1.516 . S
C978 N1002 1.316 . S
C978 O1025 1.263 . S
C979 C980 1.421 . S
C979 C984 1.360 . S
C979 N1002 1.436 . S
C980 C979 1.421 . S
C980 C981 1.379 . S
C980 H1038 0.929 . S
C981 C980 1.379 . S
C981 C982 1.417 . S
C982 C981 1.417 . S
C982 C983 1.352 . S
C982 H1039 0.929 . S
C983 C982 1.352 . S
C983 C984 1.393 . S
C984 C979 1.360 . S
C984 C983 1.393 . S
C984 H1040 0.931 . S
Cd985 O1005 2.329 . S
Cd985 O1007 2.350 . S
Cd985 O1008 2.277 . S
Cd985 O1010 2.173 . S
Cd985 O1014 2.263 . S
Cd985 O1025 2.366 . S
Cd986 O1004 2.352 . S
Cd986 O1011 2.250 . S
Cd986 O1015 2.308 . S
C987 C991 1.403 . S
C987 C992 1.370 . S
C987 N1003 1.423 . S
C988 C989 1.389 . S
C988 C992 1.389 . S
C989 C988 1.389 . S
C989 C990 1.379 . S
C989 H1041 0.929 . S
C990 C989 1.379 . S
C990 C991 1.405 . S
C991 C987 1.403 . S
C991 C990 1.405 . S
C991 H1042 0.932 . S
C992 C987 1.370 . S
C992 C988 1.389 . S
C992 H1043 0.931 . S
Co993 N977 1.869 . S
Co993 N994 1.955 . S
Co993 N995 1.864 . S
Co993 N1001 1.958 . S
Co993 N1002 1.953 . S
Co993 N1003 1.974 . S
N994 Co993 1.955 . S
N994 C1012 1.329 . S
N994 C1027 1.432 . S
N995 Co993 1.864 . S
N995 C996 1.327 . S
N995 C1000 1.342 . S
C996 N995 1.327 . S
C996 C997 1.407 . S
C996 C1012 1.481 . S
C997 C996 1.407 . S
C997 C998 1.364 . S
C997 H1044 0.930 . S
C998 C997 1.364 . S
C998 C999 1.390 . S
C998 H1045 0.931 . S
C999 C998 1.390 . S
C999 C1000 1.346 . S
C999 H1046 0.930 . S
C1000 N995 1.342 . S
C1000 C999 1.346 . S
C1000 C1016 1.516 . S
N1001 Co993 1.958 . S
N1001 C1016 1.324 . S
N1001 C1018 1.427 . S
N1002 C978 1.316 . S
N1002 C979 1.436 . S
N1002 Co993 1.953 . S
N1003 C987 1.423 . S
N1003 Co993 1.974 . S
N1003 C1033 1.309 . S
O1004 Cd986 2.352 . S
O1004 C1024 1.235 . S
O1005 Cd985 2.329 . S
O1005 C1024 1.270 . S
C1006 O1007 1.270 . S
C1006 O1008 1.248 . S
O1007 Cd985 2.350 . S
O1007 C1006 1.270 . S
O1008 Cd985 2.277 . S
O1008 C1006 1.248 . S
C1009 O1010 1.277 . S
C1009 O1011 1.230 . S
O1010 Cd985 2.173 . S
O1010 C1009 1.277 . S
O1011 Cd986 2.250 . S
O1011 C1009 1.230 . S
C1012 N994 1.329 . S
C1012 C996 1.481 . S
C1012 O1013 1.246 . S
O1013 C1012 1.246 . S
O1014 Cd985 2.263 . S
O1014 C1026 1.258 . S
O1015 Cd986 2.308 . S
O1015 C1026 1.274 . S
C1016 C1000 1.516 . S
C1016 N1001 1.324 . S
C1016 O1017 1.238 . S
O1017 C1016 1.238 . S
C1018 N1001 1.427 . S
C1018 C1019 1.394 . S
C1018 C1023 1.395 . S
C1019 C1018 1.394 . S
C1019 C1020 1.380 . S
C1019 H1047 0.929 . S
C1020 C1019 1.380 . S
C1020 C1021 1.384 . S
C1020 C1026 1.495 . S
C1021 C1020 1.384 . S
C1021 C1022 1.382 . S
C1021 H1048 0.930 . S
C1022 C1021 1.382 . S
C1022 C1023 1.398 . S
C1023 C1018 1.395 . S
C1023 C1022 1.398 . S
C1023 H1049 0.930 . S
C1024 O1004 1.235 . S
C1024 O1005 1.270 . S
O1025 C978 1.263 . S
O1025 Cd985 2.366 . S
C1026 O1014 1.258 . S
C1026 O1015 1.274 . S
C1026 C1020 1.495 . S
C1027 N994 1.432 . S
C1027 C1028 1.381 . S
C1027 C1032 1.385 . S
C1028 C1027 1.381 . S
C1028 C1029 1.371 . S
C1028 H1050 0.932 . S
C1029 C1028 1.371 . S
C1029 C1030 1.400 . S
C1030 C1029 1.400 . S
C1030 C1031 1.351 . S
C1030 H1051 0.930 . S
C1031 C1030 1.351 . S
C1031 C1032 1.388 . S
C1032 C1027 1.385 . S
C1032 C1031 1.388 . S
C1032 H1052 0.929 . S
C1033 C972 1.504 . S
C1033 N1003 1.309 . S
C1033 O1034 1.258 . S
O1034 C1033 1.258 . S
H1035 C973 0.929 . S
H1036 C974 0.932 . S
H1037 C975 0.931 . S
H1038 C980 0.929 . S
H1039 C982 0.929 . S
H1040 C984 0.931 . S
H1041 C989 0.929 . S
H1042 C991 0.932 . S
H1043 C992 0.931 . S
H1044 C997 0.930 . S
H1045 C998 0.931 . S
H1046 C999 0.930 . S
H1047 C1019 0.929 . S
H1048 C1021 0.930 . S
H1049 C1023 0.930 . S
H1050 C1028 0.932 . S
H1051 C1030 0.930 . S
H1052 C1032 0.929 . S
C1053 C1054 1.359 . S
C1053 N1058 1.330 . S
C1053 C1114 1.504 . S
C1054 C1053 1.359 . S
C1054 C1055 1.366 . S
C1054 H1116 0.929 . S
C1055 C1054 1.366 . S
C1055 C1056 1.415 . S
C1055 H1117 0.932 . S
C1056 C1055 1.415 . S
C1056 C1057 1.366 . S
C1056 H1118 0.931 . S
C1057 C1056 1.366 . S
C1057 N1058 1.325 . S
C1057 C1059 1.516 . S
N1058 C1053 1.330 . S
N1058 C1057 1.325 . S
N1058 Co1074 1.869 . S
C1059 C1057 1.516 . S
C1059 N1083 1.316 . S
C1059 O1106 1.263 . S
C1060 C1061 1.421 . S
C1060 C1065 1.360 . S
C1060 N1083 1.436 . S
C1061 C1060 1.421 . S
C1061 C1062 1.379 . S
C1061 H1119 0.929 . S
C1062 C1061 1.379 . S
C1062 C1063 1.417 . S
C1063 C1062 1.417 . S
C1063 C1064 1.352 . S
C1063 H1120 0.929 . S
C1064 C1063 1.352 . S
C1064 C1065 1.393 . S
C1065 C1060 1.360 . S
C1065 C1064 1.393 . S
C1065 H1121 0.931 . S
Cd1066 O1086 2.329 . S
Cd1066 O1088 2.350 . S
Cd1066 O1089 2.277 . S
Cd1066 O1091 2.173 . S
Cd1066 O1095 2.263 . S
Cd1066 O1106 2.366 . S
Cd1067 O1085 2.352 . S
Cd1067 O1092 2.250 . S
Cd1067 O1096 2.308 . S
C1068 C1072 1.403 . S
C1068 C1073 1.370 . S
C1068 N1084 1.423 . S
C1069 C1070 1.389 . S
C1069 C1073 1.389 . S
C1070 C1069 1.389 . S
C1070 C1071 1.379 . S
C1070 H1122 0.929 . S
C1071 C1070 1.379 . S
C1071 C1072 1.405 . S
C1072 C1068 1.403 . S
C1072 C1071 1.405 . S
C1072 H1123 0.932 . S
C1073 C1068 1.370 . S
C1073 C1069 1.389 . S
C1073 H1124 0.931 . S
Co1074 N1058 1.869 . S
Co1074 N1075 1.955 . S
Co1074 N1076 1.864 . S
Co1074 N1082 1.958 . S
Co1074 N1083 1.953 . S
Co1074 N1084 1.974 . S
N1075 Co1074 1.955 . S
N1075 C1093 1.329 . S
N1075 C1108 1.432 . S
N1076 Co1074 1.864 . S
N1076 C1077 1.327 . S
N1076 C1081 1.342 . S
C1077 N1076 1.327 . S
C1077 C1078 1.407 . S
C1077 C1093 1.481 . S
C1078 C1077 1.407 . S
C1078 C1079 1.364 . S
C1078 H1125 0.930 . S
C1079 C1078 1.364 . S
C1079 C1080 1.390 . S
C1079 H1126 0.931 . S
C1080 C1079 1.390 . S
C1080 C1081 1.346 . S
C1080 H1127 0.930 . S
C1081 N1076 1.342 . S
C1081 C1080 1.346 . S
C1081 C1097 1.516 . S
N1082 Co1074 1.958 . S
N1082 C1097 1.324 . S
N1082 C1099 1.427 . S
N1083 C1059 1.316 . S
N1083 C1060 1.436 . S
N1083 Co1074 1.953 . S
N1084 C1068 1.423 . S
N1084 Co1074 1.974 . S
N1084 C1114 1.309 . S
O1085 Cd1067 2.352 . S
O1085 C1105 1.235 . S
O1086 Cd1066 2.329 . S
O1086 C1105 1.270 . S
C1087 O1088 1.270 . S
C1087 O1089 1.248 . S
O1088 Cd1066 2.350 . S
O1088 C1087 1.270 . S
O1089 Cd1066 2.277 . S
O1089 C1087 1.248 . S
C1090 O1091 1.277 . S
C1090 O1092 1.230 . S
O1091 Cd1066 2.173 . S
O1091 C1090 1.277 . S
O1092 Cd1067 2.250 . S
O1092 C1090 1.230 . S
C1093 N1075 1.329 . S
C1093 C1077 1.481 . S
C1093 O1094 1.246 . S
O1094 C1093 1.246 . S
O1095 Cd1066 2.263 . S
O1095 C1107 1.258 . S
O1096 Cd1067 2.308 . S
O1096 C1107 1.274 . S
C1097 C1081 1.516 . S
C1097 N1082 1.324 . S
C1097 O1098 1.238 . S
O1098 C1097 1.238 . S
C1099 N1082 1.427 . S
C1099 C1100 1.394 . S
C1099 C1104 1.395 . S
C1100 C1099 1.394 . S
C1100 C1101 1.380 . S
C1100 H1128 0.929 . S
C1101 C1100 1.380 . S
C1101 C1102 1.384 . S
C1101 C1107 1.495 . S
C1102 C1101 1.384 . S
C1102 C1103 1.382 . S
C1102 H1129 0.930 . S
C1103 C1102 1.382 . S
C1103 C1104 1.398 . S
C1104 C1099 1.395 . S
C1104 C1103 1.398 . S
C1104 H1130 0.930 . S
C1105 O1085 1.235 . S
C1105 O1086 1.270 . S
O1106 C1059 1.263 . S
O1106 Cd1066 2.366 . S
C1107 O1095 1.258 . S
C1107 O1096 1.274 . S
C1107 C1101 1.495 . S
C1108 N1075 1.432 . S
C1108 C1109 1.381 . S
C1108 C1113 1.385 . S
C1109 C1108 1.381 . S
C1109 C1110 1.371 . S
C1109 H1131 0.932 . S
C1110 C1109 1.371 . S
C1110 C1111 1.400 . S
C1111 C1110 1.400 . S
C1111 C1112 1.351 . S
C1111 H1132 0.930 . S
C1112 C1111 1.351 . S
C1112 C1113 1.388 . S
C1113 C1108 1.385 . S
C1113 C1112 1.388 . S
C1113 H1133 0.929 . S
C1114 C1053 1.504 . S
C1114 N1084 1.309 . S
C1114 O1115 1.258 . S
O1115 C1114 1.258 . S
H1116 C1054 0.929 . S
H1117 C1055 0.932 . S
H1118 C1056 0.931 . S
H1119 C1061 0.929 . S
H1120 C1063 0.929 . S
H1121 C1065 0.931 . S
H1122 C1070 0.929 . S
H1123 C1072 0.932 . S
H1124 C1073 0.931 . S
H1125 C1078 0.930 . S
H1126 C1079 0.931 . S
H1127 C1080 0.930 . S
H1128 C1100 0.929 . S
H1129 C1102 0.930 . S
H1130 C1104 0.930 . S
H1131 C1109 0.932 . S
H1132 C1111 0.930 . S
H1133 C1113 0.929 . S
C1134 C1135 1.359 . S
C1134 N1139 1.330 . S
C1134 C1195 1.504 . S
C1135 C1134 1.359 . S
C1135 C1136 1.366 . S
C1135 H1197 0.929 . S
C1136 C1135 1.366 . S
C1136 C1137 1.415 . S
C1136 H1198 0.932 . S
C1137 C1136 1.415 . S
C1137 C1138 1.366 . S
C1137 H1199 0.931 . S
C1138 C1137 1.366 . S
C1138 N1139 1.325 . S
C1138 C1140 1.516 . S
N1139 C1134 1.330 . S
N1139 C1138 1.325 . S
N1139 Co1155 1.869 . S
C1140 C1138 1.516 . S
C1140 N1164 1.316 . S
C1140 O1187 1.263 . S
C1141 C1142 1.421 . S
C1141 C1146 1.360 . S
C1141 N1164 1.436 . S
C1142 C1141 1.421 . S
C1142 C1143 1.379 . S
C1142 H1200 0.929 . S
C1143 C1142 1.379 . S
C1143 C1144 1.417 . S
C1144 C1143 1.417 . S
C1144 C1145 1.352 . S
C1144 H1201 0.929 . S
C1145 C1144 1.352 . S
C1145 C1146 1.393 . S
C1146 C1141 1.360 . S
C1146 C1145 1.393 . S
C1146 H1202 0.931 . S
Cd1147 O1167 2.329 . S
Cd1147 O1169 2.350 . S
Cd1147 O1170 2.277 . S
Cd1147 O1172 2.173 . S
Cd1147 O1176 2.263 . S
Cd1147 O1187 2.366 . S
Cd1148 O1166 2.352 . S
Cd1148 O1173 2.250 . S
Cd1148 O1177 2.308 . S
C1149 C1153 1.403 . S
C1149 C1154 1.370 . S
C1149 N1165 1.423 . S
C1150 C1151 1.389 . S
C1150 C1154 1.389 . S
C1151 C1150 1.389 . S
C1151 C1152 1.379 . S
C1151 H1203 0.929 . S
C1152 C1151 1.379 . S
C1152 C1153 1.405 . S
C1153 C1149 1.403 . S
C1153 C1152 1.405 . S
C1153 H1204 0.932 . S
C1154 C1149 1.370 . S
C1154 C1150 1.389 . S
C1154 H1205 0.931 . S
Co1155 N1139 1.869 . S
Co1155 N1156 1.955 . S
Co1155 N1157 1.864 . S
Co1155 N1163 1.958 . S
Co1155 N1164 1.953 . S
Co1155 N1165 1.974 . S
N1156 Co1155 1.955 . S
N1156 C1174 1.329 . S
N1156 C1189 1.432 . S
N1157 Co1155 1.864 . S
N1157 C1158 1.327 . S
N1157 C1162 1.342 . S
C1158 N1157 1.327 . S
C1158 C1159 1.407 . S
C1158 C1174 1.481 . S
C1159 C1158 1.407 . S
C1159 C1160 1.364 . S
C1159 H1206 0.930 . S
C1160 C1159 1.364 . S
C1160 C1161 1.390 . S
C1160 H1207 0.931 . S
C1161 C1160 1.390 . S
C1161 C1162 1.346 . S
C1161 H1208 0.930 . S
C1162 N1157 1.342 . S
C1162 C1161 1.346 . S
C1162 C1178 1.516 . S
N1163 Co1155 1.958 . S
N1163 C1178 1.324 . S
N1163 C1180 1.427 . S
N1164 C1140 1.316 . S
N1164 C1141 1.436 . S
N1164 Co1155 1.953 . S
N1165 C1149 1.423 . S
N1165 Co1155 1.974 . S
N1165 C1195 1.309 . S
O1166 Cd1148 2.352 . S
O1166 C1186 1.235 . S
O1167 Cd1147 2.329 . S
O1167 C1186 1.270 . S
C1168 O1169 1.270 . S
C1168 O1170 1.248 . S
O1169 Cd1147 2.350 . S
O1169 C1168 1.270 . S
O1170 Cd1147 2.277 . S
O1170 C1168 1.248 . S
C1171 O1172 1.277 . S
C1171 O1173 1.230 . S
O1172 Cd1147 2.173 . S
O1172 C1171 1.277 . S
O1173 Cd1148 2.250 . S
O1173 C1171 1.230 . S
C1174 N1156 1.329 . S
C1174 C1158 1.481 . S
C1174 O1175 1.246 . S
O1175 C1174 1.246 . S
O1176 Cd1147 2.263 . S
O1176 C1188 1.258 . S
O1177 Cd1148 2.308 . S
O1177 C1188 1.274 . S
C1178 C1162 1.516 . S
C1178 N1163 1.324 . S
C1178 O1179 1.238 . S
O1179 C1178 1.238 . S
C1180 N1163 1.427 . S
C1180 C1181 1.394 . S
C1180 C1185 1.395 . S
C1181 C1180 1.394 . S
C1181 C1182 1.380 . S
C1181 H1209 0.929 . S
C1182 C1181 1.380 . S
C1182 C1183 1.384 . S
C1182 C1188 1.495 . S
C1183 C1182 1.384 . S
C1183 C1184 1.382 . S
C1183 H1210 0.930 . S
C1184 C1183 1.382 . S
C1184 C1185 1.398 . S
C1185 C1180 1.395 . S
C1185 C1184 1.398 . S
C1185 H1211 0.930 . S
C1186 O1166 1.235 . S
C1186 O1167 1.270 . S
O1187 C1140 1.263 . S
O1187 Cd1147 2.366 . S
C1188 O1176 1.258 . S
C1188 O1177 1.274 . S
C1188 C1182 1.495 . S
C1189 N1156 1.432 . S
C1189 C1190 1.381 . S
C1189 C1194 1.385 . S
C1190 C1189 1.381 . S
C1190 C1191 1.371 . S
C1190 H1212 0.932 . S
C1191 C1190 1.371 . S
C1191 C1192 1.400 . S
C1192 C1191 1.400 . S
C1192 C1193 1.351 . S
C1192 H1213 0.930 . S
C1193 C1192 1.351 . S
C1193 C1194 1.388 . S
C1194 C1189 1.385 . S
C1194 C1193 1.388 . S
C1194 H1214 0.929 . S
C1195 C1134 1.504 . S
C1195 N1165 1.309 . S
C1195 O1196 1.258 . S
O1196 C1195 1.258 . S
H1197 C1135 0.929 . S
H1198 C1136 0.932 . S
H1199 C1137 0.931 . S
H1200 C1142 0.929 . S
H1201 C1144 0.929 . S
H1202 C1146 0.931 . S
H1203 C1151 0.929 . S
H1204 C1153 0.932 . S
H1205 C1154 0.931 . S
H1206 C1159 0.930 . S
H1207 C1160 0.931 . S
H1208 C1161 0.930 . S
H1209 C1181 0.929 . S
H1210 C1183 0.930 . S
H1211 C1185 0.930 . S
H1212 C1190 0.932 . S
H1213 C1192 0.930 . S
H1214 C1194 0.929 . S
C1215 C1216 1.359 . S
C1215 N1220 1.330 . S
C1215 C1276 1.504 . S
C1216 C1215 1.359 . S
C1216 C1217 1.366 . S
C1216 H1278 0.929 . S
C1217 C1216 1.366 . S
C1217 C1218 1.415 . S
C1217 H1279 0.932 . S
C1218 C1217 1.415 . S
C1218 C1219 1.366 . S
C1218 H1280 0.931 . S
C1219 C1218 1.366 . S
C1219 N1220 1.325 . S
C1219 C1221 1.516 . S
N1220 C1215 1.330 . S
N1220 C1219 1.325 . S
N1220 Co1236 1.869 . S
C1221 C1219 1.516 . S
C1221 N1245 1.316 . S
C1221 O1268 1.263 . S
C1222 C1223 1.421 . S
C1222 C1227 1.360 . S
C1222 N1245 1.436 . S
C1223 C1222 1.421 . S
C1223 C1224 1.379 . S
C1223 H1281 0.929 . S
C1224 C1223 1.379 . S
C1224 C1225 1.417 . S
C1225 C1224 1.417 . S
C1225 C1226 1.352 . S
C1225 H1282 0.929 . S
C1226 C1225 1.352 . S
C1226 C1227 1.393 . S
C1227 C1222 1.360 . S
C1227 C1226 1.393 . S
C1227 H1283 0.931 . S
Cd1228 O1248 2.329 . S
Cd1228 O1250 2.350 . S
Cd1228 O1251 2.277 . S
Cd1228 O1253 2.173 . S
Cd1228 O1257 2.263 . S
Cd1228 O1268 2.366 . S
Cd1229 O1247 2.352 . S
Cd1229 O1254 2.250 . S
Cd1229 O1258 2.308 . S
C1230 C1234 1.403 . S
C1230 C1235 1.370 . S
C1230 N1246 1.423 . S
C1231 C1232 1.389 . S
C1231 C1235 1.389 . S
C1232 C1231 1.389 . S
C1232 C1233 1.379 . S
C1232 H1284 0.929 . S
C1233 C1232 1.379 . S
C1233 C1234 1.405 . S
C1234 C1230 1.403 . S
C1234 C1233 1.405 . S
C1234 H1285 0.932 . S
C1235 C1230 1.370 . S
C1235 C1231 1.389 . S
C1235 H1286 0.931 . S
Co1236 N1220 1.869 . S
Co1236 N1237 1.955 . S
Co1236 N1238 1.864 . S
Co1236 N1244 1.958 . S
Co1236 N1245 1.953 . S
Co1236 N1246 1.974 . S
N1237 Co1236 1.955 . S
N1237 C1255 1.329 . S
N1237 C1270 1.432 . S
N1238 Co1236 1.864 . S
N1238 C1239 1.327 . S
N1238 C1243 1.342 . S
C1239 N1238 1.327 . S
C1239 C1240 1.407 . S
C1239 C1255 1.481 . S
C1240 C1239 1.407 . S
C1240 C1241 1.364 . S
C1240 H1287 0.930 . S
C1241 C1240 1.364 . S
C1241 C1242 1.390 . S
C1241 H1288 0.931 . S
C1242 C1241 1.390 . S
C1242 C1243 1.346 . S
C1242 H1289 0.930 . S
C1243 N1238 1.342 . S
C1243 C1242 1.346 . S
C1243 C1259 1.516 . S
N1244 Co1236 1.958 . S
N1244 C1259 1.324 . S
N1244 C1261 1.427 . S
N1245 C1221 1.316 . S
N1245 C1222 1.436 . S
N1245 Co1236 1.953 . S
N1246 C1230 1.423 . S
N1246 Co1236 1.974 . S
N1246 C1276 1.309 . S
O1247 Cd1229 2.352 . S
O1247 C1267 1.235 . S
O1248 Cd1228 2.329 . S
O1248 C1267 1.270 . S
C1249 O1250 1.270 . S
C1249 O1251 1.248 . S
O1250 Cd1228 2.350 . S
O1250 C1249 1.270 . S
O1251 Cd1228 2.277 . S
O1251 C1249 1.248 . S
C1252 O1253 1.277 . S
C1252 O1254 1.230 . S
O1253 Cd1228 2.173 . S
O1253 C1252 1.277 . S
O1254 Cd1229 2.250 . S
O1254 C1252 1.230 . S
C1255 N1237 1.329 . S
C1255 C1239 1.481 . S
C1255 O1256 1.246 . S
O1256 C1255 1.246 . S
O1257 Cd1228 2.263 . S
O1257 C1269 1.258 . S
O1258 Cd1229 2.308 . S
O1258 C1269 1.274 . S
C1259 C1243 1.516 . S
C1259 N1244 1.324 . S
C1259 O1260 1.238 . S
O1260 C1259 1.238 . S
C1261 N1244 1.427 . S
C1261 C1262 1.394 . S
C1261 C1266 1.395 . S
C1262 C1261 1.394 . S
C1262 C1263 1.380 . S
C1262 H1290 0.929 . S
C1263 C1262 1.380 . S
C1263 C1264 1.384 . S
C1263 C1269 1.495 . S
C1264 C1263 1.384 . S
C1264 C1265 1.382 . S
C1264 H1291 0.930 . S
C1265 C1264 1.382 . S
C1265 C1266 1.398 . S
C1266 C1261 1.395 . S
C1266 C1265 1.398 . S
C1266 H1292 0.930 . S
C1267 O1247 1.235 . S
C1267 O1248 1.270 . S
O1268 C1221 1.263 . S
O1268 Cd1228 2.366 . S
C1269 O1257 1.258 . S
C1269 O1258 1.274 . S
C1269 C1263 1.495 . S
C1270 N1237 1.432 . S
C1270 C1271 1.381 . S
C1270 C1275 1.385 . S
C1271 C1270 1.381 . S
C1271 C1272 1.371 . S
C1271 H1293 0.932 . S
C1272 C1271 1.371 . S
C1272 C1273 1.400 . S
C1273 C1272 1.400 . S
C1273 C1274 1.351 . S
C1273 H1294 0.930 . S
C1274 C1273 1.351 . S
C1274 C1275 1.388 . S
C1275 C1270 1.385 . S
C1275 C1274 1.388 . S
C1275 H1295 0.929 . S
C1276 C1215 1.504 . S
C1276 N1246 1.309 . S
C1276 O1277 1.258 . S
O1277 C1276 1.258 . S
H1278 C1216 0.929 . S
H1279 C1217 0.932 . S
H1280 C1218 0.931 . S
H1281 C1223 0.929 . S
H1282 C1225 0.929 . S
H1283 C1227 0.931 . S
H1284 C1232 0.929 . S
H1285 C1234 0.932 . S
H1286 C1235 0.931 . S
H1287 C1240 0.930 . S
H1288 C1241 0.931 . S
H1289 C1242 0.930 . S
H1290 C1262 0.929 . S
H1291 C1264 0.930 . S
H1292 C1266 0.930 . S
H1293 C1271 0.932 . S
H1294 C1273 0.930 . S
H1295 C1275 0.929 . S
C1296 C1297 1.359 . S
C1296 N1301 1.330 . S
C1296 C1357 1.504 . S
C1297 C1296 1.359 . S
C1297 C1298 1.366 . S
C1297 H1359 0.929 . S
C1298 C1297 1.366 . S
C1298 C1299 1.415 . S
C1298 H1360 0.932 . S
C1299 C1298 1.415 . S
C1299 C1300 1.366 . S
C1299 H1361 0.931 . S
C1300 C1299 1.366 . S
C1300 N1301 1.325 . S
C1300 C1302 1.516 . S
N1301 C1296 1.330 . S
N1301 C1300 1.325 . S
N1301 Co1317 1.869 . S
C1302 C1300 1.516 . S
C1302 N1326 1.316 . S
C1302 O1349 1.263 . S
C1303 C1304 1.421 . S
C1303 C1308 1.360 . S
C1303 N1326 1.436 . S
C1304 C1303 1.421 . S
C1304 C1305 1.379 . S
C1304 H1362 0.929 . S
C1305 C1304 1.379 . S
C1305 C1306 1.417 . S
C1306 C1305 1.417 . S
C1306 C1307 1.352 . S
C1306 H1363 0.929 . S
C1307 C1306 1.352 . S
C1307 C1308 1.393 . S
C1308 C1303 1.360 . S
C1308 C1307 1.393 . S
C1308 H1364 0.931 . S
Cd1309 O1329 2.329 . S
Cd1309 O1331 2.350 . S
Cd1309 O1332 2.277 . S
Cd1309 O1334 2.173 . S
Cd1309 O1338 2.263 . S
Cd1309 O1349 2.366 . S
Cd1310 O1328 2.352 . S
Cd1310 O1335 2.250 . S
Cd1310 O1339 2.308 . S
C1311 C1315 1.403 . S
C1311 C1316 1.370 . S
C1311 N1327 1.423 . S
C1312 C1313 1.389 . S
C1312 C1316 1.389 . S
C1313 C1312 1.389 . S
C1313 C1314 1.379 . S
C1313 H1365 0.929 . S
C1314 C1313 1.379 . S
C1314 C1315 1.405 . S
C1315 C1311 1.403 . S
C1315 C1314 1.405 . S
C1315 H1366 0.932 . S
C1316 C1311 1.370 . S
C1316 C1312 1.389 . S
C1316 H1367 0.931 . S
Co1317 N1301 1.869 . S
Co1317 N1318 1.955 . S
Co1317 N1319 1.864 . S
Co1317 N1325 1.958 . S
Co1317 N1326 1.953 . S
Co1317 N1327 1.974 . S
N1318 Co1317 1.955 . S
N1318 C1336 1.329 . S
N1318 C1351 1.432 . S
N1319 Co1317 1.864 . S
N1319 C1320 1.327 . S
N1319 C1324 1.342 . S
C1320 N1319 1.327 . S
C1320 C1321 1.407 . S
C1320 C1336 1.481 . S
C1321 C1320 1.407 . S
C1321 C1322 1.364 . S
C1321 H1368 0.930 . S
C1322 C1321 1.364 . S
C1322 C1323 1.390 . S
C1322 H1369 0.931 . S
C1323 C1322 1.390 . S
C1323 C1324 1.346 . S
C1323 H1370 0.930 . S
C1324 N1319 1.342 . S
C1324 C1323 1.346 . S
C1324 C1340 1.516 . S
N1325 Co1317 1.958 . S
N1325 C1340 1.324 . S
N1325 C1342 1.427 . S
N1326 C1302 1.316 . S
N1326 C1303 1.436 . S
N1326 Co1317 1.953 . S
N1327 C1311 1.423 . S
N1327 Co1317 1.974 . S
N1327 C1357 1.309 . S
O1328 Cd1310 2.352 . S
O1328 C1348 1.235 . S
O1329 Cd1309 2.329 . S
O1329 C1348 1.270 . S
C1330 O1331 1.270 . S
C1330 O1332 1.248 . S
O1331 Cd1309 2.350 . S
O1331 C1330 1.270 . S
O1332 Cd1309 2.277 . S
O1332 C1330 1.248 . S
C1333 O1334 1.277 . S
C1333 O1335 1.230 . S
O1334 Cd1309 2.173 . S
O1334 C1333 1.277 . S
O1335 Cd1310 2.250 . S
O1335 C1333 1.230 . S
C1336 N1318 1.329 . S
C1336 C1320 1.481 . S
C1336 O1337 1.246 . S
O1337 C1336 1.246 . S
O1338 Cd1309 2.263 . S
O1338 C1350 1.258 . S
O1339 Cd1310 2.308 . S
O1339 C1350 1.274 . S
C1340 C1324 1.516 . S
C1340 N1325 1.324 . S
C1340 O1341 1.238 . S
O1341 C1340 1.238 . S
C1342 N1325 1.427 . S
C1342 C1343 1.394 . S
C1342 C1347 1.395 . S
C1343 C1342 1.394 . S
C1343 C1344 1.380 . S
C1343 H1371 0.929 . S
C1344 C1343 1.380 . S
C1344 C1345 1.384 . S
C1344 C1350 1.495 . S
C1345 C1344 1.384 . S
C1345 C1346 1.382 . S
C1345 H1372 0.930 . S
C1346 C1345 1.382 . S
C1346 C1347 1.398 . S
C1347 C1342 1.395 . S
C1347 C1346 1.398 . S
C1347 H1373 0.930 . S
C1348 O1328 1.235 . S
C1348 O1329 1.270 . S
O1349 C1302 1.263 . S
O1349 Cd1309 2.366 . S
C1350 O1338 1.258 . S
C1350 O1339 1.274 . S
C1350 C1344 1.495 . S
C1351 N1318 1.432 . S
C1351 C1352 1.381 . S
C1351 C1356 1.385 . S
C1352 C1351 1.381 . S
C1352 C1353 1.371 . S
C1352 H1374 0.932 . S
C1353 C1352 1.371 . S
C1353 C1354 1.400 . S
C1354 C1353 1.400 . S
C1354 C1355 1.351 . S
C1354 H1375 0.930 . S
C1355 C1354 1.351 . S
C1355 C1356 1.388 . S
C1356 C1351 1.385 . S
C1356 C1355 1.388 . S
C1356 H1376 0.929 . S
C1357 C1296 1.504 . S
C1357 N1327 1.309 . S
C1357 O1358 1.258 . S
O1358 C1357 1.258 . S
H1359 C1297 0.929 . S
H1360 C1298 0.932 . S
H1361 C1299 0.931 . S
H1362 C1304 0.929 . S
H1363 C1306 0.929 . S
H1364 C1308 0.931 . S
H1365 C1313 0.929 . S
H1366 C1315 0.932 . S
H1367 C1316 0.931 . S
H1368 C1321 0.930 . S
H1369 C1322 0.931 . S
H1370 C1323 0.930 . S
H1371 C1343 0.929 . S
H1372 C1345 0.930 . S
H1373 C1347 0.930 . S
H1374 C1352 0.932 . S
H1375 C1354 0.930 . S
H1376 C1356 0.929 . S
C1377 C1378 1.359 . S
C1377 N1382 1.330 . S
C1377 C1438 1.504 . S
C1378 C1377 1.359 . S
C1378 C1379 1.366 . S
C1378 H1440 0.929 . S
C1379 C1378 1.366 . S
C1379 C1380 1.415 . S
C1379 H1441 0.932 . S
C1380 C1379 1.415 . S
C1380 C1381 1.366 . S
C1380 H1442 0.931 . S
C1381 C1380 1.366 . S
C1381 N1382 1.325 . S
C1381 C1383 1.516 . S
N1382 C1377 1.330 . S
N1382 C1381 1.325 . S
N1382 Co1398 1.869 . S
C1383 C1381 1.516 . S
C1383 N1407 1.316 . S
C1383 O1430 1.263 . S
C1384 C1385 1.421 . S
C1384 C1389 1.360 . S
C1384 N1407 1.436 . S
C1385 C1384 1.421 . S
C1385 C1386 1.379 . S
C1385 H1443 0.929 . S
C1386 C1385 1.379 . S
C1386 C1387 1.417 . S
C1387 C1386 1.417 . S
C1387 C1388 1.352 . S
C1387 H1444 0.929 . S
C1388 C1387 1.352 . S
C1388 C1389 1.393 . S
C1389 C1384 1.360 . S
C1389 C1388 1.393 . S
C1389 H1445 0.931 . S
Cd1390 O1410 2.329 . S
Cd1390 O1412 2.350 . S
Cd1390 O1413 2.277 . S
Cd1390 O1415 2.173 . S
Cd1390 O1419 2.263 . S
Cd1390 O1430 2.366 . S
Cd1391 O1409 2.352 . S
Cd1391 O1416 2.250 . S
Cd1391 O1420 2.308 . S
C1392 C1396 1.403 . S
C1392 C1397 1.370 . S
C1392 N1408 1.423 . S
C1393 C1394 1.389 . S
C1393 C1397 1.389 . S
C1394 C1393 1.389 . S
C1394 C1395 1.379 . S
C1394 H1446 0.929 . S
C1395 C1394 1.379 . S
C1395 C1396 1.405 . S
C1396 C1392 1.403 . S
C1396 C1395 1.405 . S
C1396 H1447 0.932 . S
C1397 C1392 1.370 . S
C1397 C1393 1.389 . S
C1397 H1448 0.931 . S
Co1398 N1382 1.869 . S
Co1398 N1399 1.955 . S
Co1398 N1400 1.864 . S
Co1398 N1406 1.958 . S
Co1398 N1407 1.953 . S
Co1398 N1408 1.974 . S
N1399 Co1398 1.955 . S
N1399 C1417 1.329 . S
N1399 C1432 1.432 . S
N1400 Co1398 1.864 . S
N1400 C1401 1.327 . S
N1400 C1405 1.342 . S
C1401 N1400 1.327 . S
C1401 C1402 1.407 . S
C1401 C1417 1.481 . S
C1402 C1401 1.407 . S
C1402 C1403 1.364 . S
C1402 H1449 0.930 . S
C1403 C1402 1.364 . S
C1403 C1404 1.390 . S
C1403 H1450 0.931 . S
C1404 C1403 1.390 . S
C1404 C1405 1.346 . S
C1404 H1451 0.930 . S
C1405 N1400 1.342 . S
C1405 C1404 1.346 . S
C1405 C1421 1.516 . S
N1406 Co1398 1.958 . S
N1406 C1421 1.324 . S
N1406 C1423 1.427 . S
N1407 C1383 1.316 . S
N1407 C1384 1.436 . S
N1407 Co1398 1.953 . S
N1408 C1392 1.423 . S
N1408 Co1398 1.974 . S
N1408 C1438 1.309 . S
O1409 Cd1391 2.352 . S
O1409 C1429 1.235 . S
O1410 Cd1390 2.329 . S
O1410 C1429 1.270 . S
C1411 O1412 1.270 . S
C1411 O1413 1.248 . S
O1412 Cd1390 2.350 . S
O1412 C1411 1.270 . S
O1413 Cd1390 2.277 . S
O1413 C1411 1.248 . S
C1414 O1415 1.277 . S
C1414 O1416 1.230 . S
O1415 Cd1390 2.173 . S
O1415 C1414 1.277 . S
O1416 Cd1391 2.250 . S
O1416 C1414 1.230 . S
C1417 N1399 1.329 . S
C1417 C1401 1.481 . S
C1417 O1418 1.246 . S
O1418 C1417 1.246 . S
O1419 Cd1390 2.263 . S
O1419 C1431 1.258 . S
O1420 Cd1391 2.308 . S
O1420 C1431 1.274 . S
C1421 C1405 1.516 . S
C1421 N1406 1.324 . S
C1421 O1422 1.238 . S
O1422 C1421 1.238 . S
C1423 N1406 1.427 . S
C1423 C1424 1.394 . S
C1423 C1428 1.395 . S
C1424 C1423 1.394 . S
C1424 C1425 1.380 . S
C1424 H1452 0.929 . S
C1425 C1424 1.380 . S
C1425 C1426 1.384 . S
C1425 C1431 1.495 . S
C1426 C1425 1.384 . S
C1426 C1427 1.382 . S
C1426 H1453 0.930 . S
C1427 C1426 1.382 . S
C1427 C1428 1.398 . S
C1428 C1423 1.395 . S
C1428 C1427 1.398 . S
C1428 H1454 0.930 . S
C1429 O1409 1.235 . S
C1429 O1410 1.270 . S
O1430 C1383 1.263 . S
O1430 Cd1390 2.366 . S
C1431 O1419 1.258 . S
C1431 O1420 1.274 . S
C1431 C1425 1.495 . S
C1432 N1399 1.432 . S
C1432 C1433 1.381 . S
C1432 C1437 1.385 . S
C1433 C1432 1.381 . S
C1433 C1434 1.371 . S
C1433 H1455 0.932 . S
C1434 C1433 1.371 . S
C1434 C1435 1.400 . S
C1435 C1434 1.400 . S
C1435 C1436 1.351 . S
C1435 H1456 0.930 . S
C1436 C1435 1.351 . S
C1436 C1437 1.388 . S
C1437 C1432 1.385 . S
C1437 C1436 1.388 . S
C1437 H1457 0.929 . S
C1438 C1377 1.504 . S
C1438 N1408 1.309 . S
C1438 O1439 1.258 . S
O1439 C1438 1.258 . S
H1440 C1378 0.929 . S
H1441 C1379 0.932 . S
H1442 C1380 0.931 . S
H1443 C1385 0.929 . S
H1444 C1387 0.929 . S
H1445 C1389 0.931 . S
H1446 C1394 0.929 . S
H1447 C1396 0.932 . S
H1448 C1397 0.931 . S
H1449 C1402 0.930 . S
H1450 C1403 0.931 . S
H1451 C1404 0.930 . S
H1452 C1424 0.929 . S
H1453 C1426 0.930 . S
H1454 C1428 0.930 . S
H1455 C1433 0.932 . S
H1456 C1435 0.930 . S
H1457 C1437 0.929 . S
C1458 C1459 1.359 . S
C1458 N1463 1.330 . S
C1458 C1519 1.504 . S
C1459 C1458 1.359 . S
C1459 C1460 1.366 . S
C1459 H1521 0.929 . S
C1460 C1459 1.366 . S
C1460 C1461 1.415 . S
C1460 H1522 0.932 . S
C1461 C1460 1.415 . S
C1461 C1462 1.366 . S
C1461 H1523 0.931 . S
C1462 C1461 1.366 . S
C1462 N1463 1.325 . S
C1462 C1464 1.516 . S
N1463 C1458 1.330 . S
N1463 C1462 1.325 . S
N1463 Co1479 1.869 . S
C1464 C1462 1.516 . S
C1464 N1488 1.316 . S
C1464 O1511 1.263 . S
C1465 C1466 1.421 . S
C1465 C1470 1.360 . S
C1465 N1488 1.436 . S
C1466 C1465 1.421 . S
C1466 C1467 1.379 . S
C1466 H1524 0.929 . S
C1467 C1466 1.379 . S
C1467 C1468 1.417 . S
C1468 C1467 1.417 . S
C1468 C1469 1.352 . S
C1468 H1525 0.929 . S
C1469 C1468 1.352 . S
C1469 C1470 1.393 . S
C1470 C1465 1.360 . S
C1470 C1469 1.393 . S
C1470 H1526 0.931 . S
Cd1471 O1491 2.329 . S
Cd1471 O1493 2.350 . S
Cd1471 O1494 2.277 . S
Cd1471 O1496 2.173 . S
Cd1471 O1500 2.263 . S
Cd1471 O1511 2.366 . S
Cd1472 O1490 2.352 . S
Cd1472 O1497 2.250 . S
Cd1472 O1501 2.308 . S
C1473 C1477 1.403 . S
C1473 C1478 1.370 . S
C1473 N1489 1.423 . S
C1474 C1475 1.389 . S
C1474 C1478 1.389 . S
C1475 C1474 1.389 . S
C1475 C1476 1.379 . S
C1475 H1527 0.929 . S
C1476 C1475 1.379 . S
C1476 C1477 1.405 . S
C1477 C1473 1.403 . S
C1477 C1476 1.405 . S
C1477 H1528 0.932 . S
C1478 C1473 1.370 . S
C1478 C1474 1.389 . S
C1478 H1529 0.931 . S
Co1479 N1463 1.869 . S
Co1479 N1480 1.955 . S
Co1479 N1481 1.864 . S
Co1479 N1487 1.958 . S
Co1479 N1488 1.953 . S
Co1479 N1489 1.974 . S
N1480 Co1479 1.955 . S
N1480 C1498 1.329 . S
N1480 C1513 1.432 . S
N1481 Co1479 1.864 . S
N1481 C1482 1.327 . S
N1481 C1486 1.342 . S
C1482 N1481 1.327 . S
C1482 C1483 1.407 . S
C1482 C1498 1.481 . S
C1483 C1482 1.407 . S
C1483 C1484 1.364 . S
C1483 H1530 0.930 . S
C1484 C1483 1.364 . S
C1484 C1485 1.390 . S
C1484 H1531 0.931 . S
C1485 C1484 1.390 . S
C1485 C1486 1.346 . S
C1485 H1532 0.930 . S
C1486 N1481 1.342 . S
C1486 C1485 1.346 . S
C1486 C1502 1.516 . S
N1487 Co1479 1.958 . S
N1487 C1502 1.324 . S
N1487 C1504 1.427 . S
N1488 C1464 1.316 . S
N1488 C1465 1.436 . S
N1488 Co1479 1.953 . S
N1489 C1473 1.423 . S
N1489 Co1479 1.974 . S
N1489 C1519 1.309 . S
O1490 Cd1472 2.352 . S
O1490 C1510 1.235 . S
O1491 Cd1471 2.329 . S
O1491 C1510 1.270 . S
C1492 O1493 1.270 . S
C1492 O1494 1.248 . S
O1493 Cd1471 2.350 . S
O1493 C1492 1.270 . S
O1494 Cd1471 2.277 . S
O1494 C1492 1.248 . S
C1495 O1496 1.277 . S
C1495 O1497 1.230 . S
O1496 Cd1471 2.173 . S
O1496 C1495 1.277 . S
O1497 Cd1472 2.250 . S
O1497 C1495 1.230 . S
C1498 N1480 1.329 . S
C1498 C1482 1.481 . S
C1498 O1499 1.246 . S
O1499 C1498 1.246 . S
O1500 Cd1471 2.263 . S
O1500 C1512 1.258 . S
O1501 Cd1472 2.308 . S
O1501 C1512 1.274 . S
C1502 C1486 1.516 . S
C1502 N1487 1.324 . S
C1502 O1503 1.238 . S
O1503 C1502 1.238 . S
C1504 N1487 1.427 . S
C1504 C1505 1.394 . S
C1504 C1509 1.395 . S
C1505 C1504 1.394 . S
C1505 C1506 1.380 . S
C1505 H1533 0.929 . S
C1506 C1505 1.380 . S
C1506 C1507 1.384 . S
C1506 C1512 1.495 . S
C1507 C1506 1.384 . S
C1507 C1508 1.382 . S
C1507 H1534 0.930 . S
C1508 C1507 1.382 . S
C1508 C1509 1.398 . S
C1509 C1504 1.395 . S
C1509 C1508 1.398 . S
C1509 H1535 0.930 . S
C1510 O1490 1.235 . S
C1510 O1491 1.270 . S
O1511 C1464 1.263 . S
O1511 Cd1471 2.366 . S
C1512 O1500 1.258 . S
C1512 O1501 1.274 . S
C1512 C1506 1.495 . S
C1513 N1480 1.432 . S
C1513 C1514 1.381 . S
C1513 C1518 1.385 . S
C1514 C1513 1.381 . S
C1514 C1515 1.371 . S
C1514 H1536 0.932 . S
C1515 C1514 1.371 . S
C1515 C1516 1.400 . S
C1516 C1515 1.400 . S
C1516 C1517 1.351 . S
C1516 H1537 0.930 . S
C1517 C1516 1.351 . S
C1517 C1518 1.388 . S
C1518 C1513 1.385 . S
C1518 C1517 1.388 . S
C1518 H1538 0.929 . S
C1519 C1458 1.504 . S
C1519 N1489 1.309 . S
C1519 O1520 1.258 . S
O1520 C1519 1.258 . S
H1521 C1459 0.929 . S
H1522 C1460 0.932 . S
H1523 C1461 0.931 . S
H1524 C1466 0.929 . S
H1525 C1468 0.929 . S
H1526 C1470 0.931 . S
H1527 C1475 0.929 . S
H1528 C1477 0.932 . S
H1529 C1478 0.931 . S
H1530 C1483 0.930 . S
H1531 C1484 0.931 . S
H1532 C1485 0.930 . S
H1533 C1505 0.929 . S
H1534 C1507 0.930 . S
H1535 C1509 0.930 . S
H1536 C1514 0.932 . S
H1537 C1516 0.930 . S
H1538 C1518 0.929 . S
C1539 C1540 1.359 . S
C1539 N1544 1.330 . S
C1539 C1600 1.504 . S
C1540 C1539 1.359 . S
C1540 C1541 1.366 . S
C1540 H1602 0.929 . S
C1541 C1540 1.366 . S
C1541 C1542 1.415 . S
C1541 H1603 0.932 . S
C1542 C1541 1.415 . S
C1542 C1543 1.366 . S
C1542 H1604 0.931 . S
C1543 C1542 1.366 . S
C1543 N1544 1.325 . S
C1543 C1545 1.516 . S
N1544 C1539 1.330 . S
N1544 C1543 1.325 . S
N1544 Co1560 1.869 . S
C1545 C1543 1.516 . S
C1545 N1569 1.316 . S
C1545 O1592 1.263 . S
C1546 C1547 1.421 . S
C1546 C1551 1.360 . S
C1546 N1569 1.436 . S
C1547 C1546 1.421 . S
C1547 C1548 1.379 . S
C1547 H1605 0.929 . S
C1548 C1547 1.379 . S
C1548 C1549 1.417 . S
C1549 C1548 1.417 . S
C1549 C1550 1.352 . S
C1549 H1606 0.929 . S
C1550 C1549 1.352 . S
C1550 C1551 1.393 . S
C1551 C1546 1.360 . S
C1551 C1550 1.393 . S
C1551 H1607 0.931 . S
Cd1552 O1572 2.329 . S
Cd1552 O1574 2.350 . S
Cd1552 O1575 2.277 . S
Cd1552 O1577 2.173 . S
Cd1552 O1581 2.263 . S
Cd1552 O1592 2.366 . S
Cd1553 O1571 2.352 . S
Cd1553 O1578 2.250 . S
Cd1553 O1582 2.308 . S
C1554 C1558 1.403 . S
C1554 C1559 1.370 . S
C1554 N1570 1.423 . S
C1555 C1556 1.389 . S
C1555 C1559 1.389 . S
C1556 C1555 1.389 . S
C1556 C1557 1.379 . S
C1556 H1608 0.929 . S
C1557 C1556 1.379 . S
C1557 C1558 1.405 . S
C1558 C1554 1.403 . S
C1558 C1557 1.405 . S
C1558 H1609 0.932 . S
C1559 C1554 1.370 . S
C1559 C1555 1.389 . S
C1559 H1610 0.931 . S
Co1560 N1544 1.869 . S
Co1560 N1561 1.955 . S
Co1560 N1562 1.864 . S
Co1560 N1568 1.958 . S
Co1560 N1569 1.953 . S
Co1560 N1570 1.974 . S
N1561 Co1560 1.955 . S
N1561 C1579 1.329 . S
N1561 C1594 1.432 . S
N1562 Co1560 1.864 . S
N1562 C1563 1.327 . S
N1562 C1567 1.342 . S
C1563 N1562 1.327 . S
C1563 C1564 1.407 . S
C1563 C1579 1.481 . S
C1564 C1563 1.407 . S
C1564 C1565 1.364 . S
C1564 H1611 0.930 . S
C1565 C1564 1.364 . S
C1565 C1566 1.390 . S
C1565 H1612 0.931 . S
C1566 C1565 1.390 . S
C1566 C1567 1.346 . S
C1566 H1613 0.930 . S
C1567 N1562 1.342 . S
C1567 C1566 1.346 . S
C1567 C1583 1.516 . S
N1568 Co1560 1.958 . S
N1568 C1583 1.324 . S
N1568 C1585 1.427 . S
N1569 C1545 1.316 . S
N1569 C1546 1.436 . S
N1569 Co1560 1.953 . S
N1570 C1554 1.423 . S
N1570 Co1560 1.974 . S
N1570 C1600 1.309 . S
O1571 Cd1553 2.352 . S
O1571 C1591 1.235 . S
O1572 Cd1552 2.329 . S
O1572 C1591 1.270 . S
C1573 O1574 1.270 . S
C1573 O1575 1.248 . S
O1574 Cd1552 2.350 . S
O1574 C1573 1.270 . S
O1575 Cd1552 2.277 . S
O1575 C1573 1.248 . S
C1576 O1577 1.277 . S
C1576 O1578 1.230 . S
O1577 Cd1552 2.173 . S
O1577 C1576 1.277 . S
O1578 Cd1553 2.250 . S
O1578 C1576 1.230 . S
C1579 N1561 1.329 . S
C1579 C1563 1.481 . S
C1579 O1580 1.246 . S
O1580 C1579 1.246 . S
O1581 Cd1552 2.263 . S
O1581 C1593 1.258 . S
O1582 Cd1553 2.308 . S
O1582 C1593 1.274 . S
C1583 C1567 1.516 . S
C1583 N1568 1.324 . S
C1583 O1584 1.238 . S
O1584 C1583 1.238 . S
C1585 N1568 1.427 . S
C1585 C1586 1.394 . S
C1585 C1590 1.395 . S
C1586 C1585 1.394 . S
C1586 C1587 1.380 . S
C1586 H1614 0.929 . S
C1587 C1586 1.380 . S
C1587 C1588 1.384 . S
C1587 C1593 1.495 . S
C1588 C1587 1.384 . S
C1588 C1589 1.382 . S
C1588 H1615 0.930 . S
C1589 C1588 1.382 . S
C1589 C1590 1.398 . S
C1590 C1585 1.395 . S
C1590 C1589 1.398 . S
C1590 H1616 0.930 . S
C1591 O1571 1.235 . S
C1591 O1572 1.270 . S
O1592 C1545 1.263 . S
O1592 Cd1552 2.366 . S
C1593 O1581 1.258 . S
C1593 O1582 1.274 . S
C1593 C1587 1.495 . S
C1594 N1561 1.432 . S
C1594 C1595 1.381 . S
C1594 C1599 1.385 . S
C1595 C1594 1.381 . S
C1595 C1596 1.371 . S
C1595 H1617 0.932 . S
C1596 C1595 1.371 . S
C1596 C1597 1.400 . S
C1597 C1596 1.400 . S
C1597 C1598 1.351 . S
C1597 H1618 0.930 . S
C1598 C1597 1.351 . S
C1598 C1599 1.388 . S
C1599 C1594 1.385 . S
C1599 C1598 1.388 . S
C1599 H1619 0.929 . S
C1600 C1539 1.504 . S
C1600 N1570 1.309 . S
C1600 O1601 1.258 . S
O1601 C1600 1.258 . S
H1602 C1540 0.929 . S
H1603 C1541 0.932 . S
H1604 C1542 0.931 . S
H1605 C1547 0.929 . S
H1606 C1549 0.929 . S
H1607 C1551 0.931 . S
H1608 C1556 0.929 . S
H1609 C1558 0.932 . S
H1610 C1559 0.931 . S
H1611 C1564 0.930 . S
H1612 C1565 0.931 . S
H1613 C1566 0.930 . S
H1614 C1586 0.929 . S
H1615 C1588 0.930 . S
H1616 C1590 0.930 . S
H1617 C1595 0.932 . S
H1618 C1597 0.930 . S
H1619 C1599 0.929 . S
C1620 C1621 1.359 . S
C1620 N1625 1.330 . S
C1620 C1681 1.504 . S
C1621 C1620 1.359 . S
C1621 C1622 1.366 . S
C1621 H1683 0.929 . S
C1622 C1621 1.366 . S
C1622 C1623 1.415 . S
C1622 H1684 0.932 . S
C1623 C1622 1.415 . S
C1623 C1624 1.366 . S
C1623 H1685 0.931 . S
C1624 C1623 1.366 . S
C1624 N1625 1.325 . S
C1624 C1626 1.516 . S
N1625 C1620 1.330 . S
N1625 C1624 1.325 . S
N1625 Co1641 1.869 . S
C1626 C1624 1.516 . S
C1626 N1650 1.316 . S
C1626 O1673 1.263 . S
C1627 C1628 1.421 . S
C1627 C1632 1.360 . S
C1627 N1650 1.436 . S
C1628 C1627 1.421 . S
C1628 C1629 1.379 . S
C1628 H1686 0.929 . S
C1629 C1628 1.379 . S
C1629 C1630 1.417 . S
C1630 C1629 1.417 . S
C1630 C1631 1.352 . S
C1630 H1687 0.929 . S
C1631 C1630 1.352 . S
C1631 C1632 1.393 . S
C1632 C1627 1.360 . S
C1632 C1631 1.393 . S
C1632 H1688 0.931 . S
Cd1633 O1653 2.329 . S
Cd1633 O1655 2.350 . S
Cd1633 O1656 2.277 . S
Cd1633 O1658 2.173 . S
Cd1633 O1662 2.263 . S
Cd1633 O1673 2.366 . S
Cd1634 O1652 2.352 . S
Cd1634 O1659 2.250 . S
Cd1634 O1663 2.308 . S
C1635 C1639 1.403 . S
C1635 C1640 1.370 . S
C1635 N1651 1.423 . S
C1636 C1637 1.389 . S
C1636 C1640 1.389 . S
C1637 C1636 1.389 . S
C1637 C1638 1.379 . S
C1637 H1689 0.929 . S
C1638 C1637 1.379 . S
C1638 C1639 1.405 . S
C1639 C1635 1.403 . S
C1639 C1638 1.405 . S
C1639 H1690 0.932 . S
C1640 C1635 1.370 . S
C1640 C1636 1.389 . S
C1640 H1691 0.931 . S
Co1641 N1625 1.869 . S
Co1641 N1642 1.955 . S
Co1641 N1643 1.864 . S
Co1641 N1649 1.958 . S
Co1641 N1650 1.953 . S
Co1641 N1651 1.974 . S
N1642 Co1641 1.955 . S
N1642 C1660 1.329 . S
N1642 C1675 1.432 . S
N1643 Co1641 1.864 . S
N1643 C1644 1.327 . S
N1643 C1648 1.342 . S
C1644 N1643 1.327 . S
C1644 C1645 1.407 . S
C1644 C1660 1.481 . S
C1645 C1644 1.407 . S
C1645 C1646 1.364 . S
C1645 H1692 0.930 . S
C1646 C1645 1.364 . S
C1646 C1647 1.390 . S
C1646 H1693 0.931 . S
C1647 C1646 1.390 . S
C1647 C1648 1.346 . S
C1647 H1694 0.930 . S
C1648 N1643 1.342 . S
C1648 C1647 1.346 . S
C1648 C1664 1.516 . S
N1649 Co1641 1.958 . S
N1649 C1664 1.324 . S
N1649 C1666 1.427 . S
N1650 C1626 1.316 . S
N1650 C1627 1.436 . S
N1650 Co1641 1.953 . S
N1651 C1635 1.423 . S
N1651 Co1641 1.974 . S
N1651 C1681 1.309 . S
O1652 Cd1634 2.352 . S
O1652 C1672 1.235 . S
O1653 Cd1633 2.329 . S
O1653 C1672 1.270 . S
C1654 O1655 1.270 . S
C1654 O1656 1.248 . S
O1655 Cd1633 2.350 . S
O1655 C1654 1.270 . S
O1656 Cd1633 2.277 . S
O1656 C1654 1.248 . S
C1657 O1658 1.277 . S
C1657 O1659 1.230 . S
O1658 Cd1633 2.173 . S
O1658 C1657 1.277 . S
O1659 Cd1634 2.250 . S
O1659 C1657 1.230 . S
C1660 N1642 1.329 . S
C1660 C1644 1.481 . S
C1660 O1661 1.246 . S
O1661 C1660 1.246 . S
O1662 Cd1633 2.263 . S
O1662 C1674 1.258 . S
O1663 Cd1634 2.308 . S
O1663 C1674 1.274 . S
C1664 C1648 1.516 . S
C1664 N1649 1.324 . S
C1664 O1665 1.238 . S
O1665 C1664 1.238 . S
C1666 N1649 1.427 . S
C1666 C1667 1.394 . S
C1666 C1671 1.395 . S
C1667 C1666 1.394 . S
C1667 C1668 1.380 . S
C1667 H1695 0.929 . S
C1668 C1667 1.380 . S
C1668 C1669 1.384 . S
C1668 C1674 1.495 . S
C1669 C1668 1.384 . S
C1669 C1670 1.382 . S
C1669 H1696 0.930 . S
C1670 C1669 1.382 . S
C1670 C1671 1.398 . S
C1671 C1666 1.395 . S
C1671 C1670 1.398 . S
C1671 H1697 0.930 . S
C1672 O1652 1.235 . S
C1672 O1653 1.270 . S
O1673 C1626 1.263 . S
O1673 Cd1633 2.366 . S
C1674 O1662 1.258 . S
C1674 O1663 1.274 . S
C1674 C1668 1.495 . S
C1675 N1642 1.432 . S
C1675 C1676 1.381 . S
C1675 C1680 1.385 . S
C1676 C1675 1.381 . S
C1676 C1677 1.371 . S
C1676 H1698 0.932 . S
C1677 C1676 1.371 . S
C1677 C1678 1.400 . S
C1678 C1677 1.400 . S
C1678 C1679 1.351 . S
C1678 H1699 0.930 . S
C1679 C1678 1.351 . S
C1679 C1680 1.388 . S
C1680 C1675 1.385 . S
C1680 C1679 1.388 . S
C1680 H1700 0.929 . S
C1681 C1620 1.504 . S
C1681 N1651 1.309 . S
C1681 O1682 1.258 . S
O1682 C1681 1.258 . S
H1683 C1621 0.929 . S
H1684 C1622 0.932 . S
H1685 C1623 0.931 . S
H1686 C1628 0.929 . S
H1687 C1630 0.929 . S
H1688 C1632 0.931 . S
H1689 C1637 0.929 . S
H1690 C1639 0.932 . S
H1691 C1640 0.931 . S
H1692 C1645 0.930 . S
H1693 C1646 0.931 . S
H1694 C1647 0.930 . S
H1695 C1667 0.929 . S
H1696 C1669 0.930 . S
H1697 C1671 0.930 . S
H1698 C1676 0.932 . S
H1699 C1678 0.930 . S
H1700 C1680 0.929 . S
C1701 C1702 1.359 . S
C1701 N1706 1.330 . S
C1701 C1762 1.504 . S
C1702 C1701 1.359 . S
C1702 C1703 1.366 . S
C1702 H1764 0.929 . S
C1703 C1702 1.366 . S
C1703 C1704 1.415 . S
C1703 H1765 0.932 . S
C1704 C1703 1.415 . S
C1704 C1705 1.366 . S
C1704 H1766 0.931 . S
C1705 C1704 1.366 . S
C1705 N1706 1.325 . S
C1705 C1707 1.516 . S
N1706 C1701 1.330 . S
N1706 C1705 1.325 . S
N1706 Co1722 1.869 . S
C1707 C1705 1.516 . S
C1707 N1731 1.316 . S
C1707 O1754 1.263 . S
C1708 C1709 1.421 . S
C1708 C1713 1.360 . S
C1708 N1731 1.436 . S
C1709 C1708 1.421 . S
C1709 C1710 1.379 . S
C1709 H1767 0.929 . S
C1710 C1709 1.379 . S
C1710 C1711 1.417 . S
C1711 C1710 1.417 . S
C1711 C1712 1.352 . S
C1711 H1768 0.929 . S
C1712 C1711 1.352 . S
C1712 C1713 1.393 . S
C1713 C1708 1.360 . S
C1713 C1712 1.393 . S
C1713 H1769 0.931 . S
Cd1714 O1734 2.329 . S
Cd1714 O1736 2.350 . S
Cd1714 O1737 2.277 . S
Cd1714 O1739 2.173 . S
Cd1714 O1743 2.263 . S
Cd1714 O1754 2.366 . S
Cd1715 O1733 2.352 . S
Cd1715 O1740 2.250 . S
Cd1715 O1744 2.308 . S
C1716 C1720 1.403 . S
C1716 C1721 1.370 . S
C1716 N1732 1.423 . S
C1717 C1718 1.389 . S
C1717 C1721 1.389 . S
C1718 C1717 1.389 . S
C1718 C1719 1.379 . S
C1718 H1770 0.929 . S
C1719 C1718 1.379 . S
C1719 C1720 1.405 . S
C1720 C1716 1.403 . S
C1720 C1719 1.405 . S
C1720 H1771 0.932 . S
C1721 C1716 1.370 . S
C1721 C1717 1.389 . S
C1721 H1772 0.931 . S
Co1722 N1706 1.869 . S
Co1722 N1723 1.955 . S
Co1722 N1724 1.864 . S
Co1722 N1730 1.958 . S
Co1722 N1731 1.953 . S
Co1722 N1732 1.974 . S
N1723 Co1722 1.955 . S
N1723 C1741 1.329 . S
N1723 C1756 1.432 . S
N1724 Co1722 1.864 . S
N1724 C1725 1.327 . S
N1724 C1729 1.342 . S
C1725 N1724 1.327 . S
C1725 C1726 1.407 . S
C1725 C1741 1.481 . S
C1726 C1725 1.407 . S
C1726 C1727 1.364 . S
C1726 H1773 0.930 . S
C1727 C1726 1.364 . S
C1727 C1728 1.390 . S
C1727 H1774 0.931 . S
C1728 C1727 1.390 . S
C1728 C1729 1.346 . S
C1728 H1775 0.930 . S
C1729 N1724 1.342 . S
C1729 C1728 1.346 . S
C1729 C1745 1.516 . S
N1730 Co1722 1.958 . S
N1730 C1745 1.324 . S
N1730 C1747 1.427 . S
N1731 C1707 1.316 . S
N1731 C1708 1.436 . S
N1731 Co1722 1.953 . S
N1732 C1716 1.423 . S
N1732 Co1722 1.974 . S
N1732 C1762 1.309 . S
O1733 Cd1715 2.352 . S
O1733 C1753 1.235 . S
O1734 Cd1714 2.329 . S
O1734 C1753 1.270 . S
C1735 O1736 1.270 . S
C1735 O1737 1.248 . S
O1736 Cd1714 2.350 . S
O1736 C1735 1.270 . S
O1737 Cd1714 2.277 . S
O1737 C1735 1.248 . S
C1738 O1739 1.277 . S
C1738 O1740 1.230 . S
O1739 Cd1714 2.173 . S
O1739 C1738 1.277 . S
O1740 Cd1715 2.250 . S
O1740 C1738 1.230 . S
C1741 N1723 1.329 . S
C1741 C1725 1.481 . S
C1741 O1742 1.246 . S
O1742 C1741 1.246 . S
O1743 Cd1714 2.263 . S
O1743 C1755 1.258 . S
O1744 Cd1715 2.308 . S
O1744 C1755 1.274 . S
C1745 C1729 1.516 . S
C1745 N1730 1.324 . S
C1745 O1746 1.238 . S
O1746 C1745 1.238 . S
C1747 N1730 1.427 . S
C1747 C1748 1.394 . S
C1747 C1752 1.395 . S
C1748 C1747 1.394 . S
C1748 C1749 1.380 . S
C1748 H1776 0.929 . S
C1749 C1748 1.380 . S
C1749 C1750 1.384 . S
C1749 C1755 1.495 . S
C1750 C1749 1.384 . S
C1750 C1751 1.382 . S
C1750 H1777 0.930 . S
C1751 C1750 1.382 . S
C1751 C1752 1.398 . S
C1752 C1747 1.395 . S
C1752 C1751 1.398 . S
C1752 H1778 0.930 . S
C1753 O1733 1.235 . S
C1753 O1734 1.270 . S
O1754 C1707 1.263 . S
O1754 Cd1714 2.366 . S
C1755 O1743 1.258 . S
C1755 O1744 1.274 . S
C1755 C1749 1.495 . S
C1756 N1723 1.432 . S
C1756 C1757 1.381 . S
C1756 C1761 1.385 . S
C1757 C1756 1.381 . S
C1757 C1758 1.371 . S
C1757 H1779 0.932 . S
C1758 C1757 1.371 . S
C1758 C1759 1.400 . S
C1759 C1758 1.400 . S
C1759 C1760 1.351 . S
C1759 H1780 0.930 . S
C1760 C1759 1.351 . S
C1760 C1761 1.388 . S
C1761 C1756 1.385 . S
C1761 C1760 1.388 . S
C1761 H1781 0.929 . S
C1762 C1701 1.504 . S
C1762 N1732 1.309 . S
C1762 O1763 1.258 . S
O1763 C1762 1.258 . S
H1764 C1702 0.929 . S
H1765 C1703 0.932 . S
H1766 C1704 0.931 . S
H1767 C1709 0.929 . S
H1768 C1711 0.929 . S
H1769 C1713 0.931 . S
H1770 C1718 0.929 . S
H1771 C1720 0.932 . S
H1772 C1721 0.931 . S
H1773 C1726 0.930 . S
H1774 C1727 0.931 . S
H1775 C1728 0.930 . S
H1776 C1748 0.929 . S
H1777 C1750 0.930 . S
H1778 C1752 0.930 . S
H1779 C1757 0.932 . S
H1780 C1759 0.930 . S
H1781 C1761 0.929 . S
C1782 C1783 1.359 . S
C1782 N1787 1.330 . S
C1782 C1843 1.504 . S
C1783 C1782 1.359 . S
C1783 C1784 1.366 . S
C1783 H1845 0.929 . S
C1784 C1783 1.366 . S
C1784 C1785 1.415 . S
C1784 H1846 0.932 . S
C1785 C1784 1.415 . S
C1785 C1786 1.366 . S
C1785 H1847 0.931 . S
C1786 C1785 1.366 . S
C1786 N1787 1.325 . S
C1786 C1788 1.516 . S
N1787 C1782 1.330 . S
N1787 C1786 1.325 . S
N1787 Co1803 1.869 . S
C1788 C1786 1.516 . S
C1788 N1812 1.316 . S
C1788 O1835 1.263 . S
C1789 C1790 1.421 . S
C1789 C1794 1.360 . S
C1789 N1812 1.436 . S
C1790 C1789 1.421 . S
C1790 C1791 1.379 . S
C1790 H1848 0.929 . S
C1791 C1790 1.379 . S
C1791 C1792 1.417 . S
C1792 C1791 1.417 . S
C1792 C1793 1.352 . S
C1792 H1849 0.929 . S
C1793 C1792 1.352 . S
C1793 C1794 1.393 . S
C1794 C1789 1.360 . S
C1794 C1793 1.393 . S
C1794 H1850 0.931 . S
Cd1795 O1815 2.329 . S
Cd1795 O1817 2.350 . S
Cd1795 O1818 2.277 . S
Cd1795 O1820 2.173 . S
Cd1795 O1824 2.263 . S
Cd1795 O1835 2.366 . S
Cd1796 O1814 2.352 . S
Cd1796 O1821 2.250 . S
Cd1796 O1825 2.308 . S
C1797 C1801 1.403 . S
C1797 C1802 1.370 . S
C1797 N1813 1.423 . S
C1798 C1799 1.389 . S
C1798 C1802 1.389 . S
C1799 C1798 1.389 . S
C1799 C1800 1.379 . S
C1799 H1851 0.929 . S
C1800 C1799 1.379 . S
C1800 C1801 1.405 . S
C1801 C1797 1.403 . S
C1801 C1800 1.405 . S
C1801 H1852 0.932 . S
C1802 C1797 1.370 . S
C1802 C1798 1.389 . S
C1802 H1853 0.931 . S
Co1803 N1787 1.869 . S
Co1803 N1804 1.955 . S
Co1803 N1805 1.864 . S
Co1803 N1811 1.958 . S
Co1803 N1812 1.953 . S
Co1803 N1813 1.974 . S
N1804 Co1803 1.955 . S
N1804 C1822 1.329 . S
N1804 C1837 1.432 . S
N1805 Co1803 1.864 . S
N1805 C1806 1.327 . S
N1805 C1810 1.342 . S
C1806 N1805 1.327 . S
C1806 C1807 1.407 . S
C1806 C1822 1.481 . S
C1807 C1806 1.407 . S
C1807 C1808 1.364 . S
C1807 H1854 0.930 . S
C1808 C1807 1.364 . S
C1808 C1809 1.390 . S
C1808 H1855 0.931 . S
C1809 C1808 1.390 . S
C1809 C1810 1.346 . S
C1809 H1856 0.930 . S
C1810 N1805 1.342 . S
C1810 C1809 1.346 . S
C1810 C1826 1.516 . S
N1811 Co1803 1.958 . S
N1811 C1826 1.324 . S
N1811 C1828 1.427 . S
N1812 C1788 1.316 . S
N1812 C1789 1.436 . S
N1812 Co1803 1.953 . S
N1813 C1797 1.423 . S
N1813 Co1803 1.974 . S
N1813 C1843 1.309 . S
O1814 Cd1796 2.352 . S
O1814 C1834 1.235 . S
O1815 Cd1795 2.329 . S
O1815 C1834 1.270 . S
C1816 O1817 1.270 . S
C1816 O1818 1.248 . S
O1817 Cd1795 2.350 . S
O1817 C1816 1.270 . S
O1818 Cd1795 2.277 . S
O1818 C1816 1.248 . S
C1819 O1820 1.277 . S
C1819 O1821 1.230 . S
O1820 Cd1795 2.173 . S
O1820 C1819 1.277 . S
O1821 Cd1796 2.250 . S
O1821 C1819 1.230 . S
C1822 N1804 1.329 . S
C1822 C1806 1.481 . S
C1822 O1823 1.246 . S
O1823 C1822 1.246 . S
O1824 Cd1795 2.263 . S
O1824 C1836 1.258 . S
O1825 Cd1796 2.308 . S
O1825 C1836 1.274 . S
C1826 C1810 1.516 . S
C1826 N1811 1.324 . S
C1826 O1827 1.238 . S
O1827 C1826 1.238 . S
C1828 N1811 1.427 . S
C1828 C1829 1.394 . S
C1828 C1833 1.395 . S
C1829 C1828 1.394 . S
C1829 C1830 1.380 . S
C1829 H1857 0.929 . S
C1830 C1829 1.380 . S
C1830 C1831 1.384 . S
C1830 C1836 1.495 . S
C1831 C1830 1.384 . S
C1831 C1832 1.382 . S
C1831 H1858 0.930 . S
C1832 C1831 1.382 . S
C1832 C1833 1.398 . S
C1833 C1828 1.395 . S
C1833 C1832 1.398 . S
C1833 H1859 0.930 . S
C1834 O1814 1.235 . S
C1834 O1815 1.270 . S
O1835 C1788 1.263 . S
O1835 Cd1795 2.366 . S
C1836 O1824 1.258 . S
C1836 O1825 1.274 . S
C1836 C1830 1.495 . S
C1837 N1804 1.432 . S
C1837 C1838 1.381 . S
C1837 C1842 1.385 . S
C1838 C1837 1.381 . S
C1838 C1839 1.371 . S
C1838 H1860 0.932 . S
C1839 C1838 1.371 . S
C1839 C1840 1.400 . S
C1840 C1839 1.400 . S
C1840 C1841 1.351 . S
C1840 H1861 0.930 . S
C1841 C1840 1.351 . S
C1841 C1842 1.388 . S
C1842 C1837 1.385 . S
C1842 C1841 1.388 . S
C1842 H1862 0.929 . S
C1843 C1782 1.504 . S
C1843 N1813 1.309 . S
C1843 O1844 1.258 . S
O1844 C1843 1.258 . S
H1845 C1783 0.929 . S
H1846 C1784 0.932 . S
H1847 C1785 0.931 . S
H1848 C1790 0.929 . S
H1849 C1792 0.929 . S
H1850 C1794 0.931 . S
H1851 C1799 0.929 . S
H1852 C1801 0.932 . S
H1853 C1802 0.931 . S
H1854 C1807 0.930 . S
H1855 C1808 0.931 . S
H1856 C1809 0.930 . S
H1857 C1829 0.929 . S
H1858 C1831 0.930 . S
H1859 C1833 0.930 . S
H1860 C1838 0.932 . S
H1861 C1840 0.930 . S
H1862 C1842 0.929 . S
C1863 C1864 1.359 . S
C1863 N1868 1.330 . S
C1863 C1924 1.504 . S
C1864 C1863 1.359 . S
C1864 C1865 1.366 . S
C1864 H1926 0.929 . S
C1865 C1864 1.366 . S
C1865 C1866 1.415 . S
C1865 H1927 0.932 . S
C1866 C1865 1.415 . S
C1866 C1867 1.366 . S
C1866 H1928 0.931 . S
C1867 C1866 1.366 . S
C1867 N1868 1.325 . S
C1867 C1869 1.516 . S
N1868 C1863 1.330 . S
N1868 C1867 1.325 . S
N1868 Co1884 1.869 . S
C1869 C1867 1.516 . S
C1869 N1893 1.316 . S
C1869 O1916 1.263 . S
C1870 C1871 1.421 . S
C1870 C1875 1.360 . S
C1870 N1893 1.436 . S
C1871 C1870 1.421 . S
C1871 C1872 1.379 . S
C1871 H1929 0.929 . S
C1872 C1871 1.379 . S
C1872 C1873 1.417 . S
C1873 C1872 1.417 . S
C1873 C1874 1.352 . S
C1873 H1930 0.929 . S
C1874 C1873 1.352 . S
C1874 C1875 1.393 . S
C1875 C1870 1.360 . S
C1875 C1874 1.393 . S
C1875 H1931 0.931 . S
Cd1876 O1896 2.329 . S
Cd1876 O1898 2.350 . S
Cd1876 O1899 2.277 . S
Cd1876 O1901 2.173 . S
Cd1876 O1905 2.263 . S
Cd1876 O1916 2.366 . S
Cd1877 O1895 2.352 . S
Cd1877 O1902 2.250 . S
Cd1877 O1906 2.308 . S
C1878 C1882 1.403 . S
C1878 C1883 1.370 . S
C1878 N1894 1.423 . S
C1879 C1880 1.389 . S
C1879 C1883 1.389 . S
C1880 C1879 1.389 . S
C1880 C1881 1.379 . S
C1880 H1932 0.929 . S
C1881 C1880 1.379 . S
C1881 C1882 1.405 . S
C1882 C1878 1.403 . S
C1882 C1881 1.405 . S
C1882 H1933 0.932 . S
C1883 C1878 1.370 . S
C1883 C1879 1.389 . S
C1883 H1934 0.931 . S
Co1884 N1868 1.869 . S
Co1884 N1885 1.955 . S
Co1884 N1886 1.864 . S
Co1884 N1892 1.958 . S
Co1884 N1893 1.953 . S
Co1884 N1894 1.974 . S
N1885 Co1884 1.955 . S
N1885 C1903 1.329 . S
N1885 C1918 1.432 . S
N1886 Co1884 1.864 . S
N1886 C1887 1.327 . S
N1886 C1891 1.342 . S
C1887 N1886 1.327 . S
C1887 C1888 1.407 . S
C1887 C1903 1.481 . S
C1888 C1887 1.407 . S
C1888 C1889 1.364 . S
C1888 H1935 0.930 . S
C1889 C1888 1.364 . S
C1889 C1890 1.390 . S
C1889 H1936 0.931 . S
C1890 C1889 1.390 . S
C1890 C1891 1.346 . S
C1890 H1937 0.930 . S
C1891 N1886 1.342 . S
C1891 C1890 1.346 . S
C1891 C1907 1.516 . S
N1892 Co1884 1.958 . S
N1892 C1907 1.324 . S
N1892 C1909 1.427 . S
N1893 C1869 1.316 . S
N1893 C1870 1.436 . S
N1893 Co1884 1.953 . S
N1894 C1878 1.423 . S
N1894 Co1884 1.974 . S
N1894 C1924 1.309 . S
O1895 Cd1877 2.352 . S
O1895 C1915 1.235 . S
O1896 Cd1876 2.329 . S
O1896 C1915 1.270 . S
C1897 O1898 1.270 . S
C1897 O1899 1.248 . S
O1898 Cd1876 2.350 . S
O1898 C1897 1.270 . S
O1899 Cd1876 2.277 . S
O1899 C1897 1.248 . S
C1900 O1901 1.277 . S
C1900 O1902 1.230 . S
O1901 Cd1876 2.173 . S
O1901 C1900 1.277 . S
O1902 Cd1877 2.250 . S
O1902 C1900 1.230 . S
C1903 N1885 1.329 . S
C1903 C1887 1.481 . S
C1903 O1904 1.246 . S
O1904 C1903 1.246 . S
O1905 Cd1876 2.263 . S
O1905 C1917 1.258 . S
O1906 Cd1877 2.308 . S
O1906 C1917 1.274 . S
C1907 C1891 1.516 . S
C1907 N1892 1.324 . S
C1907 O1908 1.238 . S
O1908 C1907 1.238 . S
C1909 N1892 1.427 . S
C1909 C1910 1.394 . S
C1909 C1914 1.395 . S
C1910 C1909 1.394 . S
C1910 C1911 1.380 . S
C1910 H1938 0.929 . S
C1911 C1910 1.380 . S
C1911 C1912 1.384 . S
C1911 C1917 1.495 . S
C1912 C1911 1.384 . S
C1912 C1913 1.382 . S
C1912 H1939 0.930 . S
C1913 C1912 1.382 . S
C1913 C1914 1.398 . S
C1914 C1909 1.395 . S
C1914 C1913 1.398 . S
C1914 H1940 0.930 . S
C1915 O1895 1.235 . S
C1915 O1896 1.270 . S
O1916 C1869 1.263 . S
O1916 Cd1876 2.366 . S
C1917 O1905 1.258 . S
C1917 O1906 1.274 . S
C1917 C1911 1.495 . S
C1918 N1885 1.432 . S
C1918 C1919 1.381 . S
C1918 C1923 1.385 . S
C1919 C1918 1.381 . S
C1919 C1920 1.371 . S
C1919 H1941 0.932 . S
C1920 C1919 1.371 . S
C1920 C1921 1.400 . S
C1921 C1920 1.400 . S
C1921 C1922 1.351 . S
C1921 H1942 0.930 . S
C1922 C1921 1.351 . S
C1922 C1923 1.388 . S
C1923 C1918 1.385 . S
C1923 C1922 1.388 . S
C1923 H1943 0.929 . S
C1924 C1863 1.504 . S
C1924 N1894 1.309 . S
C1924 O1925 1.258 . S
O1925 C1924 1.258 . S
H1926 C1864 0.929 . S
H1927 C1865 0.932 . S
H1928 C1866 0.931 . S
H1929 C1871 0.929 . S
H1930 C1873 0.929 . S
H1931 C1875 0.931 . S
H1932 C1880 0.929 . S
H1933 C1882 0.932 . S
H1934 C1883 0.931 . S
H1935 C1888 0.930 . S
H1936 C1889 0.931 . S
H1937 C1890 0.930 . S
H1938 C1910 0.929 . S
H1939 C1912 0.930 . S
H1940 C1914 0.930 . S
H1941 C1919 0.932 . S
H1942 C1921 0.930 . S
H1943 C1923 0.929 . S
C1944 C1945 1.369 . S
C1944 C1946 1.419 . S
C1944 H1948 0.930 . S
C1945 C1944 1.369 . S
C1945 C1954 1.429 . S
C1946 C1944 1.419 . S
C1946 C1947 1.363 . S
C1946 H1949 0.929 . S
C1947 C1946 1.363 . S
C1947 C1953 1.428 . S
H1948 C1944 0.930 . S
H1949 C1946 0.929 . S
S1950 N1951 1.613 . S
S1950 N1952 1.610 . S
N1951 S1950 1.613 . S
N1951 C1954 1.350 . S
N1952 S1950 1.610 . S
N1952 C1953 1.351 . S
C1953 C1947 1.428 . S
C1953 N1952 1.351 . S
C1953 C1954 1.434 . S
C1954 C1945 1.429 . S
C1954 N1951 1.350 . S
C1954 C1953 1.434 . S
C1955 C1956 1.369 . S
C1955 C1957 1.419 . S
C1955 H1959 0.930 . S
C1956 C1955 1.369 . S
C1956 C1965 1.429 . S
C1957 C1955 1.419 . S
C1957 C1958 1.363 . S
C1957 H1960 0.929 . S
C1958 C1957 1.363 . S
C1958 C1964 1.428 . S
H1959 C1955 0.930 . S
H1960 C1957 0.929 . S
S1961 N1962 1.613 . S
S1961 N1963 1.610 . S
N1962 S1961 1.613 . S
N1962 C1965 1.350 . S
N1963 S1961 1.610 . S
N1963 C1964 1.351 . S
C1964 C1958 1.428 . S
C1964 N1963 1.351 . S
C1964 C1965 1.434 . S
C1965 C1956 1.429 . S
C1965 N1962 1.350 . S
C1965 C1964 1.434 . S
C1966 C1967 1.369 . S
C1966 C1968 1.419 . S
C1966 H1970 0.930 . S
C1967 C1966 1.369 . S
C1967 C1976 1.429 . S
C1968 C1966 1.419 . S
C1968 C1969 1.363 . S
C1968 H1971 0.929 . S
C1969 C1968 1.363 . S
C1969 C1975 1.428 . S
H1970 C1966 0.930 . S
H1971 C1968 0.929 . S
S1972 N1973 1.613 . S
S1972 N1974 1.610 . S
N1973 S1972 1.613 . S
N1973 C1976 1.350 . S
N1974 S1972 1.610 . S
N1974 C1975 1.351 . S
C1975 C1969 1.428 . S
C1975 N1974 1.351 . S
C1975 C1976 1.434 . S
C1976 C1967 1.429 . S
C1976 N1973 1.350 . S
C1976 C1975 1.434 . S
C1977 C1978 1.369 . S
C1977 C1979 1.419 . S
C1977 H1981 0.930 . S
C1978 C1977 1.369 . S
C1978 C1987 1.429 . S
C1979 C1977 1.419 . S
C1979 C1980 1.363 . S
C1979 H1982 0.929 . S
C1980 C1979 1.363 . S
C1980 C1986 1.428 . S
H1981 C1977 0.930 . S
H1982 C1979 0.929 . S
S1983 N1984 1.613 . S
S1983 N1985 1.610 . S
N1984 S1983 1.613 . S
N1984 C1987 1.350 . S
N1985 S1983 1.610 . S
N1985 C1986 1.351 . S
C1986 C1980 1.428 . S
C1986 N1985 1.351 . S
C1986 C1987 1.434 . S
C1987 C1978 1.429 . S
C1987 N1984 1.350 . S
C1987 C1986 1.434 . S
C1988 C1989 1.369 . S
C1988 C1990 1.419 . S
C1988 H1992 0.930 . S
C1989 C1988 1.369 . S
C1989 C1998 1.429 . S
C1990 C1988 1.419 . S
C1990 C1991 1.363 . S
C1990 H1993 0.929 . S
C1991 C1990 1.363 . S
C1991 C1997 1.428 . S
H1992 C1988 0.930 . S
H1993 C1990 0.929 . S
S1994 N1995 1.613 . S
S1994 N1996 1.610 . S
N1995 S1994 1.613 . S
N1995 C1998 1.350 . S
N1996 S1994 1.610 . S
N1996 C1997 1.351 . S
C1997 C1991 1.428 . S
C1997 N1996 1.351 . S
C1997 C1998 1.434 . S
C1998 C1989 1.429 . S
C1998 N1995 1.350 . S
C1998 C1997 1.434 . S
C1999 C2000 1.369 . S
C1999 C2001 1.419 . S
C1999 H2003 0.930 . S
C2000 C1999 1.369 . S
C2000 C2009 1.429 . S
C2001 C1999 1.419 . S
C2001 C2002 1.363 . S
C2001 H2004 0.929 . S
C2002 C2001 1.363 . S
C2002 C2008 1.428 . S
H2003 C1999 0.930 . S
H2004 C2001 0.929 . S
S2005 N2006 1.613 . S
S2005 N2007 1.610 . S
N2006 S2005 1.613 . S
N2006 C2009 1.350 . S
N2007 S2005 1.610 . S
N2007 C2008 1.351 . S
C2008 C2002 1.428 . S
C2008 N2007 1.351 . S
C2008 C2009 1.434 . S
C2009 C2000 1.429 . S
C2009 N2006 1.350 . S
C2009 C2008 1.434 . S
C2010 C2011 1.369 . S
C2010 C2012 1.419 . S
C2010 H2014 0.930 . S
C2011 C2010 1.369 . S
C2011 C2020 1.429 . S
C2012 C2010 1.419 . S
C2012 C2013 1.363 . S
C2012 H2015 0.929 . S
C2013 C2012 1.363 . S
C2013 C2019 1.428 . S
H2014 C2010 0.930 . S
H2015 C2012 0.929 . S
S2016 N2017 1.613 . S
S2016 N2018 1.610 . S
N2017 S2016 1.613 . S
N2017 C2020 1.350 . S
N2018 S2016 1.610 . S
N2018 C2019 1.351 . S
C2019 C2013 1.428 . S
C2019 N2018 1.351 . S
C2019 C2020 1.434 . S
C2020 C2011 1.429 . S
C2020 N2017 1.350 . S
C2020 C2019 1.434 . S
C2021 C2022 1.369 . S
C2021 C2023 1.419 . S
C2021 H2025 0.930 . S
C2022 C2021 1.369 . S
C2022 C2031 1.429 . S
C2023 C2021 1.419 . S
C2023 C2024 1.363 . S
C2023 H2026 0.929 . S
C2024 C2023 1.363 . S
C2024 C2030 1.428 . S
H2025 C2021 0.930 . S
H2026 C2023 0.929 . S
S2027 N2028 1.613 . S
S2027 N2029 1.610 . S
N2028 S2027 1.613 . S
N2028 C2031 1.350 . S
N2029 S2027 1.610 . S
N2029 C2030 1.351 . S
C2030 C2024 1.428 . S
C2030 N2029 1.351 . S
C2030 C2031 1.434 . S
C2031 C2022 1.429 . S
C2031 N2028 1.350 . S
C2031 C2030 1.434 . S
C2032 C2033 1.369 . S
C2032 C2034 1.419 . S
C2032 H2036 0.930 . S
C2033 C2032 1.369 . S
C2033 C2042 1.429 . S
C2034 C2032 1.419 . S
C2034 C2035 1.363 . S
C2034 H2037 0.929 . S
C2035 C2034 1.363 . S
C2035 C2041 1.428 . S
H2036 C2032 0.930 . S
H2037 C2034 0.929 . S
S2038 N2039 1.613 . S
S2038 N2040 1.610 . S
N2039 S2038 1.613 . S
N2039 C2042 1.350 . S
N2040 S2038 1.610 . S
N2040 C2041 1.351 . S
C2041 C2035 1.428 . S
C2041 N2040 1.351 . S
C2041 C2042 1.434 . S
C2042 C2033 1.429 . S
C2042 N2039 1.350 . S
C2042 C2041 1.434 . S
C2043 C2044 1.369 . S
C2043 C2045 1.419 . S
C2043 H2047 0.930 . S
C2044 C2043 1.369 . S
C2044 C2053 1.429 . S
C2045 C2043 1.419 . S
C2045 C2046 1.363 . S
C2045 H2048 0.929 . S
C2046 C2045 1.363 . S
C2046 C2052 1.428 . S
H2047 C2043 0.930 . S
H2048 C2045 0.929 . S
S2049 N2050 1.613 . S
S2049 N2051 1.610 . S
N2050 S2049 1.613 . S
N2050 C2053 1.350 . S
N2051 S2049 1.610 . S
N2051 C2052 1.351 . S
C2052 C2046 1.428 . S
C2052 N2051 1.351 . S
C2052 C2053 1.434 . S
C2053 C2044 1.429 . S
C2053 N2050 1.350 . S
C2053 C2052 1.434 . S
C2054 C2055 1.369 . S
C2054 C2056 1.419 . S
C2054 H2058 0.930 . S
C2055 C2054 1.369 . S
C2055 C2064 1.429 . S
C2056 C2054 1.419 . S
C2056 C2057 1.363 . S
C2056 H2059 0.929 . S
C2057 C2056 1.363 . S
C2057 C2063 1.428 . S
H2058 C2054 0.930 . S
H2059 C2056 0.929 . S
S2060 N2061 1.613 . S
S2060 N2062 1.610 . S
N2061 S2060 1.613 . S
N2061 C2064 1.350 . S
N2062 S2060 1.610 . S
N2062 C2063 1.351 . S
C2063 C2057 1.428 . S
C2063 N2062 1.351 . S
C2063 C2064 1.434 . S
C2064 C2055 1.429 . S
C2064 N2061 1.350 . S
C2064 C2063 1.434 . S
C2065 C2066 1.369 . S
C2065 C2067 1.419 . S
C2065 H2069 0.930 . S
C2066 C2065 1.369 . S
C2066 C2075 1.429 . S
C2067 C2065 1.419 . S
C2067 C2068 1.363 . S
C2067 H2070 0.929 . S
C2068 C2067 1.363 . S
C2068 C2074 1.428 . S
H2069 C2065 0.930 . S
H2070 C2067 0.929 . S
S2071 N2072 1.613 . S
S2071 N2073 1.610 . S
N2072 S2071 1.613 . S
N2072 C2075 1.350 . S
N2073 S2071 1.610 . S
N2073 C2074 1.351 . S
C2074 C2068 1.428 . S
C2074 N2073 1.351 . S
C2074 C2075 1.434 . S
C2075 C2066 1.429 . S
C2075 N2072 1.350 . S
C2075 C2074 1.434 . S
C2076 C2077 1.369 . S
C2076 C2078 1.419 . S
C2076 H2080 0.930 . S
C2077 C2076 1.369 . S
C2077 C2086 1.429 . S
C2078 C2076 1.419 . S
C2078 C2079 1.363 . S
C2078 H2081 0.929 . S
C2079 C2078 1.363 . S
C2079 C2085 1.428 . S
H2080 C2076 0.930 . S
H2081 C2078 0.929 . S
S2082 N2083 1.613 . S
S2082 N2084 1.610 . S
N2083 S2082 1.613 . S
N2083 C2086 1.350 . S
N2084 S2082 1.610 . S
N2084 C2085 1.351 . S
C2085 C2079 1.428 . S
C2085 N2084 1.351 . S
C2085 C2086 1.434 . S
C2086 C2077 1.429 . S
C2086 N2083 1.350 . S
C2086 C2085 1.434 . S
C2087 C2088 1.369 . S
C2087 C2089 1.419 . S
C2087 H2091 0.930 . S
C2088 C2087 1.369 . S
C2088 C2097 1.429 . S
C2089 C2087 1.419 . S
C2089 C2090 1.363 . S
C2089 H2092 0.929 . S
C2090 C2089 1.363 . S
C2090 C2096 1.428 . S
H2091 C2087 0.930 . S
H2092 C2089 0.929 . S
S2093 N2094 1.613 . S
S2093 N2095 1.610 . S
N2094 S2093 1.613 . S
N2094 C2097 1.350 . S
N2095 S2093 1.610 . S
N2095 C2096 1.351 . S
C2096 C2090 1.428 . S
C2096 N2095 1.351 . S
C2096 C2097 1.434 . S
C2097 C2088 1.429 . S
C2097 N2094 1.350 . S
C2097 C2096 1.434 . S
C2098 C2099 1.369 . S
C2098 C2100 1.419 . S
C2098 H2102 0.930 . S
C2099 C2098 1.369 . S
C2099 C2108 1.429 . S
C2100 C2098 1.419 . S
C2100 C2101 1.363 . S
C2100 H2103 0.929 . S
C2101 C2100 1.363 . S
C2101 C2107 1.428 . S
H2102 C2098 0.930 . S
H2103 C2100 0.929 . S
S2104 N2105 1.613 . S
S2104 N2106 1.610 . S
N2105 S2104 1.613 . S
N2105 C2108 1.350 . S
N2106 S2104 1.610 . S
N2106 C2107 1.351 . S
C2107 C2101 1.428 . S
C2107 N2106 1.351 . S
C2107 C2108 1.434 . S
C2108 C2099 1.429 . S
C2108 N2105 1.350 . S
C2108 C2107 1.434 . S
C2109 C2110 1.369 . S
C2109 C2111 1.419 . S
C2109 H2113 0.930 . S
C2110 C2109 1.369 . S
C2110 C2119 1.429 . S
C2111 C2109 1.419 . S
C2111 C2112 1.363 . S
C2111 H2114 0.929 . S
C2112 C2111 1.363 . S
C2112 C2118 1.428 . S
H2113 C2109 0.930 . S
H2114 C2111 0.929 . S
S2115 N2116 1.613 . S
S2115 N2117 1.610 . S
N2116 S2115 1.613 . S
N2116 C2119 1.350 . S
N2117 S2115 1.610 . S
N2117 C2118 1.351 . S
C2118 C2112 1.428 . S
C2118 N2117 1.351 . S
C2118 C2119 1.434 . S
C2119 C2110 1.429 . S
C2119 N2116 1.350 . S
C2119 C2118 1.434 . S
C2120 C2121 1.369 . S
C2120 C2122 1.419 . S
C2120 H2124 0.930 . S
C2121 C2120 1.369 . S
C2121 C2130 1.429 . S
C2122 C2120 1.419 . S
C2122 C2123 1.363 . S
C2122 H2125 0.929 . S
C2123 C2122 1.363 . S
C2123 C2129 1.428 . S
H2124 C2120 0.930 . S
H2125 C2122 0.929 . S
S2126 N2127 1.613 . S
S2126 N2128 1.610 . S
N2127 S2126 1.613 . S
N2127 C2130 1.350 . S
N2128 S2126 1.610 . S
N2128 C2129 1.351 . S
C2129 C2123 1.428 . S
C2129 N2128 1.351 . S
C2129 C2130 1.434 . S
C2130 C2121 1.429 . S
C2130 N2127 1.350 . S
C2130 C2129 1.434 . S
C2131 C2132 1.369 . S
C2131 C2133 1.419 . S
C2131 H2135 0.930 . S
C2132 C2131 1.369 . S
C2132 C2141 1.429 . S
C2133 C2131 1.419 . S
C2133 C2134 1.363 . S
C2133 H2136 0.929 . S
C2134 C2133 1.363 . S
C2134 C2140 1.428 . S
H2135 C2131 0.930 . S
H2136 C2133 0.929 . S
S2137 N2138 1.613 . S
S2137 N2139 1.610 . S
N2138 S2137 1.613 . S
N2138 C2141 1.350 . S
N2139 S2137 1.610 . S
N2139 C2140 1.351 . S
C2140 C2134 1.428 . S
C2140 N2139 1.351 . S
C2140 C2141 1.434 . S
C2141 C2132 1.429 . S
C2141 N2138 1.350 . S
C2141 C2140 1.434 . S
C2142 C2143 1.369 . S
C2142 C2144 1.419 . S
C2142 H2146 0.930 . S
C2143 C2142 1.369 . S
C2143 C2152 1.429 . S
C2144 C2142 1.419 . S
C2144 C2145 1.363 . S
C2144 H2147 0.929 . S
C2145 C2144 1.363 . S
C2145 C2151 1.428 . S
H2146 C2142 0.930 . S
H2147 C2144 0.929 . S
S2148 N2149 1.613 . S
S2148 N2150 1.610 . S
N2149 S2148 1.613 . S
N2149 C2152 1.350 . S
N2150 S2148 1.610 . S
N2150 C2151 1.351 . S
C2151 C2145 1.428 . S
C2151 N2150 1.351 . S
C2151 C2152 1.434 . S
C2152 C2143 1.429 . S
C2152 N2149 1.350 . S
C2152 C2151 1.434 . S
C2153 C2154 1.369 . S
C2153 C2155 1.419 . S
C2153 H2157 0.930 . S
C2154 C2153 1.369 . S
C2154 C2163 1.429 . S
C2155 C2153 1.419 . S
C2155 C2156 1.363 . S
C2155 H2158 0.929 . S
C2156 C2155 1.363 . S
C2156 C2162 1.428 . S
H2157 C2153 0.930 . S
H2158 C2155 0.929 . S
S2159 N2160 1.613 . S
S2159 N2161 1.610 . S
N2160 S2159 1.613 . S
N2160 C2163 1.350 . S
N2161 S2159 1.610 . S
N2161 C2162 1.351 . S
C2162 C2156 1.428 . S
C2162 N2161 1.351 . S
C2162 C2163 1.434 . S
C2163 C2154 1.429 . S
C2163 N2160 1.350 . S
C2163 C2162 1.434 . S
C2164 C2165 1.369 . S
C2164 C2166 1.419 . S
C2164 H2168 0.930 . S
C2165 C2164 1.369 . S
C2165 C2174 1.429 . S
C2166 C2164 1.419 . S
C2166 C2167 1.363 . S
C2166 H2169 0.929 . S
C2167 C2166 1.363 . S
C2167 C2173 1.428 . S
H2168 C2164 0.930 . S
H2169 C2166 0.929 . S
S2170 N2171 1.613 . S
S2170 N2172 1.610 . S
N2171 S2170 1.613 . S
N2171 C2174 1.350 . S
N2172 S2170 1.610 . S
N2172 C2173 1.351 . S
C2173 C2167 1.428 . S
C2173 N2172 1.351 . S
C2173 C2174 1.434 . S
C2174 C2165 1.429 . S
C2174 N2171 1.350 . S
C2174 C2173 1.434 . S
C2175 C2176 1.369 . S
C2175 C2177 1.419 . S
C2175 H2179 0.930 . S
C2176 C2175 1.369 . S
C2176 C2185 1.429 . S
C2177 C2175 1.419 . S
C2177 C2178 1.363 . S
C2177 H2180 0.929 . S
C2178 C2177 1.363 . S
C2178 C2184 1.428 . S
H2179 C2175 0.930 . S
H2180 C2177 0.929 . S
S2181 N2182 1.613 . S
S2181 N2183 1.610 . S
N2182 S2181 1.613 . S
N2182 C2185 1.350 . S
N2183 S2181 1.610 . S
N2183 C2184 1.351 . S
C2184 C2178 1.428 . S
C2184 N2183 1.351 . S
C2184 C2185 1.434 . S
C2185 C2176 1.429 . S
C2185 N2182 1.350 . S
C2185 C2184 1.434 . S
C2186 C2187 1.369 . S
C2186 C2188 1.419 . S
C2186 H2190 0.930 . S
C2187 C2186 1.369 . S
C2187 C2196 1.429 . S
C2188 C2186 1.419 . S
C2188 C2189 1.363 . S
C2188 H2191 0.929 . S
C2189 C2188 1.363 . S
C2189 C2195 1.428 . S
H2190 C2186 0.930 . S
H2191 C2188 0.929 . S
S2192 N2193 1.613 . S
S2192 N2194 1.610 . S
N2193 S2192 1.613 . S
N2193 C2196 1.350 . S
N2194 S2192 1.610 . S
N2194 C2195 1.351 . S
C2195 C2189 1.428 . S
C2195 N2194 1.351 . S
C2195 C2196 1.434 . S
C2196 C2187 1.429 . S
C2196 N2193 1.350 . S
C2196 C2195 1.434 . S
C2197 C2198 1.369 . S
C2197 C2199 1.419 . S
C2197 H2201 0.930 . S
C2198 C2197 1.369 . S
C2198 C2207 1.429 . S
C2199 C2197 1.419 . S
C2199 C2200 1.363 . S
C2199 H2202 0.929 . S
C2200 C2199 1.363 . S
C2200 C2206 1.428 . S
H2201 C2197 0.930 . S
H2202 C2199 0.929 . S
S2203 N2204 1.613 . S
S2203 N2205 1.610 . S
N2204 S2203 1.613 . S
N2204 C2207 1.350 . S
N2205 S2203 1.610 . S
N2205 C2206 1.351 . S
C2206 C2200 1.428 . S
C2206 N2205 1.351 . S
C2206 C2207 1.434 . S
C2207 C2198 1.429 . S
C2207 N2204 1.350 . S
C2207 C2206 1.434 . S
C2208 C2209 1.369 . S
C2208 C2210 1.419 . S
C2208 H2212 0.930 . S
C2209 C2208 1.369 . S
C2209 C2218 1.429 . S
C2210 C2208 1.419 . S
C2210 C2211 1.363 . S
C2210 H2213 0.929 . S
C2211 C2210 1.363 . S
C2211 C2217 1.428 . S
H2212 C2208 0.930 . S
H2213 C2210 0.929 . S
S2214 N2215 1.613 . S
S2214 N2216 1.610 . S
N2215 S2214 1.613 . S
N2215 C2218 1.350 . S
N2216 S2214 1.610 . S
N2216 C2217 1.351 . S
C2217 C2211 1.428 . S
C2217 N2216 1.351 . S
C2217 C2218 1.434 . S
C2218 C2209 1.429 . S
C2218 N2215 1.350 . S
C2218 C2217 1.434 . S
C2219 C2220 1.369 . S
C2219 C2221 1.419 . S
C2219 H2223 0.930 . S
C2220 C2219 1.369 . S
C2220 C2229 1.429 . S
C2221 C2219 1.419 . S
C2221 C2222 1.363 . S
C2221 H2224 0.929 . S
C2222 C2221 1.363 . S
C2222 C2228 1.428 . S
H2223 C2219 0.930 . S
H2224 C2221 0.929 . S
S2225 N2226 1.613 . S
S2225 N2227 1.610 . S
N2226 S2225 1.613 . S
N2226 C2229 1.350 . S
N2227 S2225 1.610 . S
N2227 C2228 1.351 . S
C2228 C2222 1.428 . S
C2228 N2227 1.351 . S
C2228 C2229 1.434 . S
C2229 C2220 1.429 . S
C2229 N2226 1.350 . S
C2229 C2228 1.434 . S
C2230 C2231 1.369 . S
C2230 C2232 1.419 . S
C2230 H2234 0.930 . S
C2231 C2230 1.369 . S
C2231 C2240 1.429 . S
C2232 C2230 1.419 . S
C2232 C2233 1.363 . S
C2232 H2235 0.929 . S
C2233 C2232 1.363 . S
C2233 C2239 1.428 . S
H2234 C2230 0.930 . S
H2235 C2232 0.929 . S
S2236 N2237 1.613 . S
S2236 N2238 1.610 . S
N2237 S2236 1.613 . S
N2237 C2240 1.350 . S
N2238 S2236 1.610 . S
N2238 C2239 1.351 . S
C2239 C2233 1.428 . S
C2239 N2238 1.351 . S
C2239 C2240 1.434 . S
C2240 C2231 1.429 . S
C2240 N2237 1.350 . S
C2240 C2239 1.434 . S
C2241 C2242 1.369 . S
C2241 C2243 1.419 . S
C2241 H2245 0.930 . S
C2242 C2241 1.369 . S
C2242 C2251 1.429 . S
C2243 C2241 1.419 . S
C2243 C2244 1.363 . S
C2243 H2246 0.929 . S
C2244 C2243 1.363 . S
C2244 C2250 1.428 . S
H2245 C2241 0.930 . S
H2246 C2243 0.929 . S
S2247 N2248 1.613 . S
S2247 N2249 1.610 . S
N2248 S2247 1.613 . S
N2248 C2251 1.350 . S
N2249 S2247 1.610 . S
N2249 C2250 1.351 . S
C2250 C2244 1.428 . S
C2250 N2249 1.351 . S
C2250 C2251 1.434 . S
C2251 C2242 1.429 . S
C2251 N2248 1.350 . S
C2251 C2250 1.434 . S
C2252 C2253 1.369 . S
C2252 C2254 1.419 . S
C2252 H2256 0.930 . S
C2253 C2252 1.369 . S
C2253 C2262 1.429 . S
C2254 C2252 1.419 . S
C2254 C2255 1.363 . S
C2254 H2257 0.929 . S
C2255 C2254 1.363 . S
C2255 C2261 1.428 . S
H2256 C2252 0.930 . S
H2257 C2254 0.929 . S
S2258 N2259 1.613 . S
S2258 N2260 1.610 . S
N2259 S2258 1.613 . S
N2259 C2262 1.350 . S
N2260 S2258 1.610 . S
N2260 C2261 1.351 . S
C2261 C2255 1.428 . S
C2261 N2260 1.351 . S
C2261 C2262 1.434 . S
C2262 C2253 1.429 . S
C2262 N2259 1.350 . S
C2262 C2261 1.434 . S
C2263 C2264 1.369 . S
C2263 C2265 1.419 . S
C2263 H2267 0.930 . S
C2264 C2263 1.369 . S
C2264 C2273 1.429 . S
C2265 C2263 1.419 . S
C2265 C2266 1.363 . S
C2265 H2268 0.929 . S
C2266 C2265 1.363 . S
C2266 C2272 1.428 . S
H2267 C2263 0.930 . S
H2268 C2265 0.929 . S
S2269 N2270 1.613 . S
S2269 N2271 1.610 . S
N2270 S2269 1.613 . S
N2270 C2273 1.350 . S
N2271 S2269 1.610 . S
N2271 C2272 1.351 . S
C2272 C2266 1.428 . S
C2272 N2271 1.351 . S
C2272 C2273 1.434 . S
C2273 C2264 1.429 . S
C2273 N2270 1.350 . S
C2273 C2272 1.434 . S
C2274 C2275 1.369 . S
C2274 C2276 1.419 . S
C2274 H2278 0.930 . S
C2275 C2274 1.369 . S
C2275 C2284 1.429 . S
C2276 C2274 1.419 . S
C2276 C2277 1.363 . S
C2276 H2279 0.929 . S
C2277 C2276 1.363 . S
C2277 C2283 1.428 . S
H2278 C2274 0.930 . S
H2279 C2276 0.929 . S
S2280 N2281 1.613 . S
S2280 N2282 1.610 . S
N2281 S2280 1.613 . S
N2281 C2284 1.350 . S
N2282 S2280 1.610 . S
N2282 C2283 1.351 . S
C2283 C2277 1.428 . S
C2283 N2282 1.351 . S
C2283 C2284 1.434 . S
C2284 C2275 1.429 . S
C2284 N2281 1.350 . S
C2284 C2283 1.434 . S
C2285 C2286 1.369 . S
C2285 C2287 1.419 . S
C2285 H2289 0.930 . S
C2286 C2285 1.369 . S
C2286 C2295 1.429 . S
C2287 C2285 1.419 . S
C2287 C2288 1.363 . S
C2287 H2290 0.929 . S
C2288 C2287 1.363 . S
C2288 C2294 1.428 . S
H2289 C2285 0.930 . S
H2290 C2287 0.929 . S
S2291 N2292 1.613 . S
S2291 N2293 1.610 . S
N2292 S2291 1.613 . S
N2292 C2295 1.350 . S
N2293 S2291 1.610 . S
N2293 C2294 1.351 . S
C2294 C2288 1.428 . S
C2294 N2293 1.351 . S
C2294 C2295 1.434 . S
C2295 C2286 1.429 . S
C2295 N2292 1.350 . S
C2295 C2294 1.434 . S
C2296 C2297 1.369 . S
C2296 C2298 1.419 . S
C2296 H2300 0.930 . S
C2297 C2296 1.369 . S
C2297 C2306 1.429 . S
C2298 C2296 1.419 . S
C2298 C2299 1.363 . S
C2298 H2301 0.929 . S
C2299 C2298 1.363 . S
C2299 C2305 1.428 . S
H2300 C2296 0.930 . S
H2301 C2298 0.929 . S
S2302 N2303 1.613 . S
S2302 N2304 1.610 . S
N2303 S2302 1.613 . S
N2303 C2306 1.350 . S
N2304 S2302 1.610 . S
N2304 C2305 1.351 . S
C2305 C2299 1.428 . S
C2305 N2304 1.351 . S
C2305 C2306 1.434 . S
C2306 C2297 1.429 . S
C2306 N2303 1.350 . S
C2306 C2305 1.434 . S
C2307 C2308 1.369 . S
C2307 C2309 1.419 . S
C2307 H2311 0.930 . S
C2308 C2307 1.369 . S
C2308 C2317 1.429 . S
C2309 C2307 1.419 . S
C2309 C2310 1.363 . S
C2309 H2312 0.929 . S
C2310 C2309 1.363 . S
C2310 C2316 1.428 . S
H2311 C2307 0.930 . S
H2312 C2309 0.929 . S
S2313 N2314 1.613 . S
S2313 N2315 1.610 . S
N2314 S2313 1.613 . S
N2314 C2317 1.350 . S
N2315 S2313 1.610 . S
N2315 C2316 1.351 . S
C2316 C2310 1.428 . S
C2316 N2315 1.351 . S
C2316 C2317 1.434 . S
C2317 C2308 1.429 . S
C2317 N2314 1.350 . S
C2317 C2316 1.434 . S
C2318 C2319 1.369 . S
C2318 C2320 1.419 . S
C2318 H2322 0.930 . S
C2319 C2318 1.369 . S
C2319 C2328 1.429 . S
C2320 C2318 1.419 . S
C2320 C2321 1.363 . S
C2320 H2323 0.929 . S
C2321 C2320 1.363 . S
C2321 C2327 1.428 . S
H2322 C2318 0.930 . S
H2323 C2320 0.929 . S
S2324 N2325 1.613 . S
S2324 N2326 1.610 . S
N2325 S2324 1.613 . S
N2325 C2328 1.350 . S
N2326 S2324 1.610 . S
N2326 C2327 1.351 . S
C2327 C2321 1.428 . S
C2327 N2326 1.351 . S
C2327 C2328 1.434 . S
C2328 C2319 1.429 . S
C2328 N2325 1.350 . S
C2328 C2327 1.434 . S
C2329 C2330 1.369 . S
C2329 C2331 1.419 . S
C2329 H2333 0.930 . S
C2330 C2329 1.369 . S
C2330 C2339 1.429 . S
C2331 C2329 1.419 . S
C2331 C2332 1.363 . S
C2331 H2334 0.929 . S
C2332 C2331 1.363 . S
C2332 C2338 1.428 . S
H2333 C2329 0.930 . S
H2334 C2331 0.929 . S
S2335 N2336 1.613 . S
S2335 N2337 1.610 . S
N2336 S2335 1.613 . S
N2336 C2339 1.350 . S
N2337 S2335 1.610 . S
N2337 C2338 1.351 . S
C2338 C2332 1.428 . S
C2338 N2337 1.351 . S
C2338 C2339 1.434 . S
C2339 C2330 1.429 . S
C2339 N2336 1.350 . S
C2339 C2338 1.434 . S
C2340 C2341 1.369 . S
C2340 C2342 1.419 1_655 S
C2340 H2344 0.930 . S
C2341 C2340 1.369 . S
C2341 C2350 1.429 . S
C2342 C2340 1.419 1_455 S
C2342 C2343 1.363 . S
C2342 H2345 0.929 . S
C2343 C2342 1.363 . S
C2343 C2349 1.428 . S
H2344 C2340 0.930 . S
H2345 C2342 0.929 . S
S2346 N2347 1.613 . S
S2346 N2348 1.610 1_655 S
N2347 S2346 1.613 . S
N2347 C2350 1.350 . S
N2348 S2346 1.610 1_455 S
N2348 C2349 1.351 . S
C2349 C2343 1.428 . S
C2349 N2348 1.351 . S
C2349 C2350 1.434 1_455 S
C2350 C2341 1.429 . S
C2350 N2347 1.350 . S
C2350 C2349 1.434 1_655 S
C2351 C2352 1.369 . S
C2351 C2353 1.419 1_565 S
C2351 H2355 0.930 . S
C2352 C2351 1.369 . S
C2352 C2361 1.429 . S
C2353 C2351 1.419 1_545 S
C2353 C2354 1.363 . S
C2353 H2356 0.929 . S
C2354 C2353 1.363 . S
C2354 C2360 1.428 . S
H2355 C2351 0.930 . S
H2356 C2353 0.929 . S
S2357 N2358 1.613 . S
S2357 N2359 1.610 1_565 S
N2358 S2357 1.613 . S
N2358 C2361 1.350 . S
N2359 S2357 1.610 1_545 S
N2359 C2360 1.351 . S
C2360 C2354 1.428 . S
C2360 N2359 1.351 . S
C2360 C2361 1.434 1_545 S
C2361 C2352 1.429 . S
C2361 N2358 1.350 . S
C2361 C2360 1.434 1_565 S
C2362 C2363 1.369 . S
C2362 C2364 1.419 1_655 S
C2362 H2366 0.930 . S
C2363 C2362 1.369 . S
C2363 C2372 1.429 . S
C2364 C2362 1.419 1_455 S
C2364 C2365 1.363 . S
C2364 H2367 0.929 . S
C2365 C2364 1.363 . S
C2365 C2371 1.428 . S
H2366 C2362 0.930 . S
H2367 C2364 0.929 . S
S2368 N2369 1.613 . S
S2368 N2370 1.610 1_655 S
N2369 S2368 1.613 . S
N2369 C2372 1.350 . S
N2370 S2368 1.610 1_455 S
N2370 C2371 1.351 . S
C2371 C2365 1.428 . S
C2371 N2370 1.351 . S
C2371 C2372 1.434 1_455 S
C2372 C2363 1.429 . S
C2372 N2369 1.350 . S
C2372 C2371 1.434 1_655 S
C2373 C2374 1.369 . S
C2373 C2375 1.419 1_565 S
C2373 H2377 0.930 . S
C2374 C2373 1.369 . S
C2374 C2383 1.429 . S
C2375 C2373 1.419 1_545 S
C2375 C2376 1.363 . S
C2375 H2378 0.929 . S
C2376 C2375 1.363 . S
C2376 C2382 1.428 . S
H2377 C2373 0.930 . S
H2378 C2375 0.929 . S
S2379 N2380 1.613 1_545 S
S2379 N2381 1.610 . S
N2380 S2379 1.613 1_565 S
N2380 C2383 1.350 . S
N2381 S2379 1.610 . S
N2381 C2382 1.351 . S
C2382 C2376 1.428 . S
C2382 N2381 1.351 . S
C2382 C2383 1.434 1_545 S
C2383 C2374 1.429 . S
C2383 N2380 1.350 . S
C2383 C2382 1.434 1_565 S
C2384 C2385 1.369 . S
C2384 C2386 1.419 1_565 S
C2384 H2388 0.930 . S
C2385 C2384 1.369 . S
C2385 C2394 1.429 . S
C2386 C2384 1.419 1_545 S
C2386 C2387 1.363 . S
C2386 H2389 0.929 . S
C2387 C2386 1.363 . S
C2387 C2393 1.428 . S
H2388 C2384 0.930 . S
H2389 C2386 0.929 . S
S2390 N2391 1.613 . S
S2390 N2392 1.610 1_565 S
N2391 S2390 1.613 . S
N2391 C2394 1.350 . S
N2392 S2390 1.610 1_545 S
N2392 C2393 1.351 . S
C2393 C2387 1.428 . S
C2393 N2392 1.351 . S
C2393 C2394 1.434 1_545 S
C2394 C2385 1.429 . S
C2394 N2391 1.350 . S
C2394 C2393 1.434 1_565 S
C2395 C2396 1.369 . S
C2395 C2397 1.419 1_655 S
C2395 H2399 0.930 . S
C2396 C2395 1.369 . S
C2396 C2405 1.429 . S
C2397 C2395 1.419 1_455 S
C2397 C2398 1.363 . S
C2397 H2400 0.929 . S
C2398 C2397 1.363 . S
C2398 C2404 1.428 . S
H2399 C2395 0.930 . S
H2400 C2397 0.929 . S
S2401 N2402 1.613 . S
S2401 N2403 1.610 1_655 S
N2402 S2401 1.613 . S
N2402 C2405 1.350 . S
N2403 S2401 1.610 1_455 S
N2403 C2404 1.351 . S
C2404 C2398 1.428 . S
C2404 N2403 1.351 . S
C2404 C2405 1.434 1_455 S
C2405 C2396 1.429 . S
C2405 N2402 1.350 . S
C2405 C2404 1.434 1_655 S
C2406 C2407 1.369 . S
C2406 C2408 1.419 1_565 S
C2406 H2410 0.930 . S
C2407 C2406 1.369 . S
C2407 C2416 1.429 . S
C2408 C2406 1.419 1_545 S
C2408 C2409 1.363 . S
C2408 H2411 0.929 . S
C2409 C2408 1.363 . S
C2409 C2415 1.428 . S
H2410 C2406 0.930 . S
H2411 C2408 0.929 . S
S2412 N2413 1.613 . S
S2412 N2414 1.610 1_565 S
N2413 S2412 1.613 . S
N2413 C2416 1.350 . S
N2414 S2412 1.610 1_545 S
N2414 C2415 1.351 . S
C2415 C2409 1.428 . S
C2415 N2414 1.351 . S
C2415 C2416 1.434 1_545 S
C2416 C2407 1.429 . S
C2416 N2413 1.350 . S
C2416 C2415 1.434 1_565 S
C2417 C2418 1.369 . S
C2417 C2419 1.419 1_655 S
C2417 H2421 0.930 . S
C2418 C2417 1.369 . S
C2418 C2427 1.429 . S
C2419 C2417 1.419 1_455 S
C2419 C2420 1.363 . S
C2419 H2422 0.929 . S
C2420 C2419 1.363 . S
C2420 C2426 1.428 . S
H2421 C2417 0.930 . S
H2422 C2419 0.929 . S
S2423 N2424 1.613 1_455 S
S2423 N2425 1.610 . S
N2424 S2423 1.613 1_655 S
N2424 C2427 1.350 . S
N2425 S2423 1.610 . S
N2425 C2426 1.351 . S
C2426 C2420 1.428 . S
C2426 N2425 1.351 . S
C2426 C2427 1.434 1_455 S
C2427 C2418 1.429 . S
C2427 N2424 1.350 . S
C2427 C2426 1.434 1_655 S
C2428 C2429 1.369 . S
C2428 C2430 1.419 1_556 S
C2428 H2432 0.930 . S
C2429 C2428 1.369 . S
C2429 C2438 1.429 . S
C2430 C2428 1.419 1_554 S
C2430 C2431 1.363 . S
C2430 H2433 0.929 . S
C2431 C2430 1.363 . S
C2431 C2437 1.428 . S
H2432 C2428 0.930 . S
H2433 C2430 0.929 . S
S2434 N2435 1.613 . S
S2434 N2436 1.610 1_556 S
N2435 S2434 1.613 . S
N2435 C2438 1.350 . S
N2436 S2434 1.610 1_554 S
N2436 C2437 1.351 . S
C2437 C2431 1.428 . S
C2437 N2436 1.351 . S
C2437 C2438 1.434 1_554 S
C2438 C2429 1.429 . S
C2438 N2435 1.350 . S
C2438 C2437 1.434 1_556 S
C2439 C2440 1.369 . S
C2439 C2441 1.419 1_556 S
C2439 H2443 0.930 . S
C2440 C2439 1.369 . S
C2440 C2449 1.429 . S
C2441 C2439 1.419 1_554 S
C2441 C2442 1.363 . S
C2441 H2444 0.929 . S
C2442 C2441 1.363 . S
C2442 C2448 1.428 . S
H2443 C2439 0.930 . S
H2444 C2441 0.929 . S
S2445 N2446 1.613 1_554 S
S2445 N2447 1.610 . S
N2446 S2445 1.613 1_556 S
N2446 C2449 1.350 . S
N2447 S2445 1.610 . S
N2447 C2448 1.351 . S
C2448 C2442 1.428 . S
C2448 N2447 1.351 . S
C2448 C2449 1.434 1_554 S
C2449 C2440 1.429 . S
C2449 N2446 1.350 . S
C2449 C2448 1.434 1_556 S
C2450 C2451 1.369 . S
C2450 C2452 1.419 1_556 S
C2450 H2454 0.930 . S
C2451 C2450 1.369 . S
C2451 C2460 1.429 . S
C2452 C2450 1.419 1_554 S
C2452 C2453 1.363 . S
C2452 H2455 0.929 . S
C2453 C2452 1.363 . S
C2453 C2459 1.428 . S
H2454 C2450 0.930 . S
H2455 C2452 0.929 . S
S2456 N2457 1.613 . S
S2456 N2458 1.610 1_556 S
N2457 S2456 1.613 . S
N2457 C2460 1.350 . S
N2458 S2456 1.610 1_554 S
N2458 C2459 1.351 . S
C2459 C2453 1.428 . S
C2459 N2458 1.351 . S
C2459 C2460 1.434 1_554 S
C2460 C2451 1.429 . S
C2460 N2457 1.350 . S
C2460 C2459 1.434 1_556 S
C2461 C2462 1.369 . S
C2461 C2463 1.419 1_556 S
C2461 H2465 0.930 . S
C2462 C2461 1.369 . S
C2462 C2471 1.429 . S
C2463 C2461 1.419 1_554 S
C2463 C2464 1.363 . S
C2463 H2466 0.929 . S
C2464 C2463 1.363 . S
C2464 C2470 1.428 . S
H2465 C2461 0.930 . S
H2466 C2463 0.929 . S
S2467 N2468 1.613 . S
S2467 N2469 1.610 1_556 S
N2468 S2467 1.613 . S
N2468 C2471 1.350 . S
N2469 S2467 1.610 1_554 S
N2469 C2470 1.351 . S
C2470 C2464 1.428 . S
C2470 N2469 1.351 . S
C2470 C2471 1.434 1_554 S
C2471 C2462 1.429 . S
C2471 N2468 1.350 . S
C2471 C2470 1.434 1_556 S
C2472 C2473 1.369 . S
C2472 C2474 1.419 . S
C2472 H2476 0.930 . S
C2473 C2472 1.369 . S
C2473 C2482 1.429 . S
C2474 C2472 1.419 . S
C2474 C2475 1.363 . S
C2474 H2477 0.929 . S
C2475 C2474 1.363 . S
C2475 C2481 1.428 . S
H2476 C2472 0.930 . S
H2477 C2474 0.929 . S
S2478 N2479 1.613 . S
S2478 N2480 1.610 . S
N2479 S2478 1.613 . S
N2479 C2482 1.350 . S
N2480 S2478 1.610 . S
N2480 C2481 1.351 . S
C2481 C2475 1.428 . S
C2481 N2480 1.351 . S
C2481 C2482 1.434 . S
C2482 C2473 1.429 . S
C2482 N2479 1.350 . S
C2482 C2481 1.434 . S
C2483 C2484 1.369 . S
C2483 C2485 1.419 . S
C2483 H2487 0.930 . S
C2484 C2483 1.369 . S
C2484 C2493 1.429 . S
C2485 C2483 1.419 . S
C2485 C2486 1.363 . S
C2485 H2488 0.929 . S
C2486 C2485 1.363 . S
C2486 C2492 1.428 . S
H2487 C2483 0.930 . S
H2488 C2485 0.929 . S
S2489 N2490 1.613 . S
S2489 N2491 1.610 . S
N2490 S2489 1.613 . S
N2490 C2493 1.350 . S
N2491 S2489 1.610 . S
N2491 C2492 1.351 . S
C2492 C2486 1.428 . S
C2492 N2491 1.351 . S
C2492 C2493 1.434 . S
C2493 C2484 1.429 . S
C2493 N2490 1.350 . S
C2493 C2492 1.434 . S
C2494 C2495 1.369 . S
C2494 C2496 1.419 . S
C2494 H2498 0.930 . S
C2495 C2494 1.369 . S
C2495 C2504 1.429 . S
C2496 C2494 1.419 . S
C2496 C2497 1.363 . S
C2496 H2499 0.929 . S
C2497 C2496 1.363 . S
C2497 C2503 1.428 . S
H2498 C2494 0.930 . S
H2499 C2496 0.929 . S
S2500 N2501 1.613 . S
S2500 N2502 1.610 . S
N2501 S2500 1.613 . S
N2501 C2504 1.350 . S
N2502 S2500 1.610 . S
N2502 C2503 1.351 . S
C2503 C2497 1.428 . S
C2503 N2502 1.351 . S
C2503 C2504 1.434 . S
C2504 C2495 1.429 . S
C2504 N2501 1.350 . S
C2504 C2503 1.434 . S
C2505 C2506 1.369 . S
C2505 C2507 1.419 . S
C2505 H2509 0.930 . S
C2506 C2505 1.369 . S
C2506 C2515 1.429 . S
C2507 C2505 1.419 . S
C2507 C2508 1.363 . S
C2507 H2510 0.929 . S
C2508 C2507 1.363 . S
C2508 C2514 1.428 . S
H2509 C2505 0.930 . S
H2510 C2507 0.929 . S
S2511 N2512 1.613 . S
S2511 N2513 1.610 . S
N2512 S2511 1.613 . S
N2512 C2515 1.350 . S
N2513 S2511 1.610 . S
N2513 C2514 1.351 . S
C2514 C2508 1.428 . S
C2514 N2513 1.351 . S
C2514 C2515 1.434 . S
C2515 C2506 1.429 . S
C2515 N2512 1.350 . S
C2515 C2514 1.434 . S
C2516 C2517 1.369 . S
C2516 C2518 1.419 . S
C2516 H2520 0.930 . S
C2517 C2516 1.369 . S
C2517 C2526 1.429 . S
C2518 C2516 1.419 . S
C2518 C2519 1.363 . S
C2518 H2521 0.929 . S
C2519 C2518 1.363 . S
C2519 C2525 1.428 . S
H2520 C2516 0.930 . S
H2521 C2518 0.929 . S
S2522 N2523 1.613 . S
S2522 N2524 1.610 . S
N2523 S2522 1.613 . S
N2523 C2526 1.350 . S
N2524 S2522 1.610 . S
N2524 C2525 1.351 . S
C2525 C2519 1.428 . S
C2525 N2524 1.351 . S
C2525 C2526 1.434 . S
C2526 C2517 1.429 . S
C2526 N2523 1.350 . S
C2526 C2525 1.434 . S
C2527 C2528 1.369 . S
C2527 C2529 1.419 . S
C2527 H2531 0.930 . S
C2528 C2527 1.369 . S
C2528 C2537 1.429 . S
C2529 C2527 1.419 . S
C2529 C2530 1.363 . S
C2529 H2532 0.929 . S
C2530 C2529 1.363 . S
C2530 C2536 1.428 . S
H2531 C2527 0.930 . S
H2532 C2529 0.929 . S
S2533 N2534 1.613 . S
S2533 N2535 1.610 . S
N2534 S2533 1.613 . S
N2534 C2537 1.350 . S
N2535 S2533 1.610 . S
N2535 C2536 1.351 . S
C2536 C2530 1.428 . S
C2536 N2535 1.351 . S
C2536 C2537 1.434 . S
C2537 C2528 1.429 . S
C2537 N2534 1.350 . S
C2537 C2536 1.434 . S
C2538 C2539 1.369 . S
C2538 C2540 1.419 . S
C2538 H2542 0.930 . S
C2539 C2538 1.369 . S
C2539 C2548 1.429 . S
C2540 C2538 1.419 . S
C2540 C2541 1.363 . S
C2540 H2543 0.929 . S
C2541 C2540 1.363 . S
C2541 C2547 1.428 . S
H2542 C2538 0.930 . S
H2543 C2540 0.929 . S
S2544 N2545 1.613 . S
S2544 N2546 1.610 . S
N2545 S2544 1.613 . S
N2545 C2548 1.350 . S
N2546 S2544 1.610 . S
N2546 C2547 1.351 . S
C2547 C2541 1.428 . S
C2547 N2546 1.351 . S
C2547 C2548 1.434 . S
C2548 C2539 1.429 . S
C2548 N2545 1.350 . S
C2548 C2547 1.434 . S
C2549 C2550 1.369 . S
C2549 C2551 1.419 . S
C2549 H2553 0.930 . S
C2550 C2549 1.369 . S
C2550 C2559 1.429 . S
C2551 C2549 1.419 . S
C2551 C2552 1.363 . S
C2551 H2554 0.929 . S
C2552 C2551 1.363 . S
C2552 C2558 1.428 . S
H2553 C2549 0.930 . S
H2554 C2551 0.929 . S
S2555 N2556 1.613 . S
S2555 N2557 1.610 . S
N2556 S2555 1.613 . S
N2556 C2559 1.350 . S
N2557 S2555 1.610 . S
N2557 C2558 1.351 . S
C2558 C2552 1.428 . S
C2558 N2557 1.351 . S
C2558 C2559 1.434 . S
C2559 C2550 1.429 . S
C2559 N2556 1.350 . S
C2559 C2558 1.434 . S
C2560 C2561 1.369 . S
C2560 C2562 1.419 . S
C2560 H2564 0.930 . S
C2561 C2560 1.369 . S
C2561 C2570 1.429 . S
C2562 C2560 1.419 . S
C2562 C2563 1.363 . S
C2562 H2565 0.929 . S
C2563 C2562 1.363 . S
C2563 C2569 1.428 . S
H2564 C2560 0.930 . S
H2565 C2562 0.929 . S
S2566 N2567 1.613 . S
S2566 N2568 1.610 . S
N2567 S2566 1.613 . S
N2567 C2570 1.350 . S
N2568 S2566 1.610 . S
N2568 C2569 1.351 . S
C2569 C2563 1.428 . S
C2569 N2568 1.351 . S
C2569 C2570 1.434 . S
C2570 C2561 1.429 . S
C2570 N2567 1.350 . S
C2570 C2569 1.434 . S
C2571 C2572 1.369 . S
C2571 C2573 1.419 . S
C2571 H2575 0.930 . S
C2572 C2571 1.369 . S
C2572 C2581 1.429 . S
C2573 C2571 1.419 . S
C2573 C2574 1.363 . S
C2573 H2576 0.929 . S
C2574 C2573 1.363 . S
C2574 C2580 1.428 . S
H2575 C2571 0.930 . S
H2576 C2573 0.929 . S
S2577 N2578 1.613 . S
S2577 N2579 1.610 . S
N2578 S2577 1.613 . S
N2578 C2581 1.350 . S
N2579 S2577 1.610 . S
N2579 C2580 1.351 . S
C2580 C2574 1.428 . S
C2580 N2579 1.351 . S
C2580 C2581 1.434 . S
C2581 C2572 1.429 . S
C2581 N2578 1.350 . S
C2581 C2580 1.434 . S
C2582 C2583 1.369 . S
C2582 C2584 1.419 . S
C2582 H2586 0.930 . S
C2583 C2582 1.369 . S
C2583 C2592 1.429 . S
C2584 C2582 1.419 . S
C2584 C2585 1.363 . S
C2584 H2587 0.929 . S
C2585 C2584 1.363 . S
C2585 C2591 1.428 . S
H2586 C2582 0.930 . S
H2587 C2584 0.929 . S
S2588 N2589 1.613 . S
S2588 N2590 1.610 . S
N2589 S2588 1.613 . S
N2589 C2592 1.350 . S
N2590 S2588 1.610 . S
N2590 C2591 1.351 . S
C2591 C2585 1.428 . S
C2591 N2590 1.351 . S
C2591 C2592 1.434 . S
C2592 C2583 1.429 . S
C2592 N2589 1.350 . S
C2592 C2591 1.434 . S
C2593 C2594 1.369 . S
C2593 C2595 1.419 . S
C2593 H2597 0.930 . S
C2594 C2593 1.369 . S
C2594 C2603 1.429 . S
C2595 C2593 1.419 . S
C2595 C2596 1.363 . S
C2595 H2598 0.929 . S
C2596 C2595 1.363 . S
C2596 C2602 1.428 . S
H2597 C2593 0.930 . S
H2598 C2595 0.929 . S
S2599 N2600 1.613 . S
S2599 N2601 1.610 . S
N2600 S2599 1.613 . S
N2600 C2603 1.350 . S
N2601 S2599 1.610 . S
N2601 C2602 1.351 . S
C2602 C2596 1.428 . S
C2602 N2601 1.351 . S
C2602 C2603 1.434 . S
C2603 C2594 1.429 . S
C2603 N2600 1.350 . S
C2603 C2602 1.434 . S
C2604 C2605 1.369 . S
C2604 C2606 1.419 . S
C2604 H2608 0.930 . S
C2605 C2604 1.369 . S
C2605 C2614 1.429 . S
C2606 C2604 1.419 . S
C2606 C2607 1.363 . S
C2606 H2609 0.929 . S
C2607 C2606 1.363 . S
C2607 C2613 1.428 . S
H2608 C2604 0.930 . S
H2609 C2606 0.929 . S
S2610 N2611 1.613 . S
S2610 N2612 1.610 . S
N2611 S2610 1.613 . S
N2611 C2614 1.350 . S
N2612 S2610 1.610 . S
N2612 C2613 1.351 . S
C2613 C2607 1.428 . S
C2613 N2612 1.351 . S
C2613 C2614 1.434 . S
C2614 C2605 1.429 . S
C2614 N2611 1.350 . S
C2614 C2613 1.434 . S
C2615 C2616 1.369 . S
C2615 C2617 1.419 . S
C2615 H2619 0.930 . S
C2616 C2615 1.369 . S
C2616 C2625 1.429 . S
C2617 C2615 1.419 . S
C2617 C2618 1.363 . S
C2617 H2620 0.929 . S
C2618 C2617 1.363 . S
C2618 C2624 1.428 . S
H2619 C2615 0.930 . S
H2620 C2617 0.929 . S
S2621 N2622 1.613 . S
S2621 N2623 1.610 . S
N2622 S2621 1.613 . S
N2622 C2625 1.350 . S
N2623 S2621 1.610 . S
N2623 C2624 1.351 . S
C2624 C2618 1.428 . S
C2624 N2623 1.351 . S
C2624 C2625 1.434 . S
C2625 C2616 1.429 . S
C2625 N2622 1.350 . S
C2625 C2624 1.434 . S
C2626 C2627 1.369 . S
C2626 C2628 1.419 . S
C2626 H2630 0.930 . S
C2627 C2626 1.369 . S
C2627 C2636 1.429 . S
C2628 C2626 1.419 . S
C2628 C2629 1.363 . S
C2628 H2631 0.929 . S
C2629 C2628 1.363 . S
C2629 C2635 1.428 . S
H2630 C2626 0.930 . S
H2631 C2628 0.929 . S
S2632 N2633 1.613 . S
S2632 N2634 1.610 . S
N2633 S2632 1.613 . S
N2633 C2636 1.350 . S
N2634 S2632 1.610 . S
N2634 C2635 1.351 . S
C2635 C2629 1.428 . S
C2635 N2634 1.351 . S
C2635 C2636 1.434 . S
C2636 C2627 1.429 . S
C2636 N2633 1.350 . S
C2636 C2635 1.434 . S
C2637 C2638 1.369 . S
C2637 C2639 1.419 . S
C2637 H2641 0.930 . S
C2638 C2637 1.369 . S
C2638 C2647 1.429 . S
C2639 C2637 1.419 . S
C2639 C2640 1.363 . S
C2639 H2642 0.929 . S
C2640 C2639 1.363 . S
C2640 C2646 1.428 . S
H2641 C2637 0.930 . S
H2642 C2639 0.929 . S
S2643 N2644 1.613 . S
S2643 N2645 1.610 . S
N2644 S2643 1.613 . S
N2644 C2647 1.350 . S
N2645 S2643 1.610 . S
N2645 C2646 1.351 . S
C2646 C2640 1.428 . S
C2646 N2645 1.351 . S
C2646 C2647 1.434 . S
C2647 C2638 1.429 . S
C2647 N2644 1.350 . S
C2647 C2646 1.434 . S
C2648 C2649 1.369 . S
C2648 C2650 1.419 . S
C2648 H2652 0.930 . S
C2649 C2648 1.369 . S
C2649 C2658 1.429 . S
C2650 C2648 1.419 . S
C2650 C2651 1.363 . S
C2650 H2653 0.929 . S
C2651 C2650 1.363 . S
C2651 C2657 1.428 . S
H2652 C2648 0.930 . S
H2653 C2650 0.929 . S
S2654 N2655 1.613 . S
S2654 N2656 1.610 . S
N2655 S2654 1.613 . S
N2655 C2658 1.350 . S
N2656 S2654 1.610 . S
N2656 C2657 1.351 . S
C2657 C2651 1.428 . S
C2657 N2656 1.351 . S
C2657 C2658 1.434 . S
C2658 C2649 1.429 . S
C2658 N2655 1.350 . S
C2658 C2657 1.434 . S
C2659 C2660 1.369 . S
C2659 C2661 1.419 . S
C2659 H2663 0.930 . S
C2660 C2659 1.369 . S
C2660 C2669 1.429 . S
C2661 C2659 1.419 . S
C2661 C2662 1.363 . S
C2661 H2664 0.929 . S
C2662 C2661 1.363 . S
C2662 C2668 1.428 . S
H2663 C2659 0.930 . S
H2664 C2661 0.929 . S
S2665 N2666 1.613 . S
S2665 N2667 1.610 . S
N2666 S2665 1.613 . S
N2666 C2669 1.350 . S
N2667 S2665 1.610 . S
N2667 C2668 1.351 . S
C2668 C2662 1.428 . S
C2668 N2667 1.351 . S
C2668 C2669 1.434 . S
C2669 C2660 1.429 . S
C2669 N2666 1.350 . S
C2669 C2668 1.434 . S
C2670 C2671 1.369 . S
C2670 C2672 1.419 . S
C2670 H2674 0.930 . S
C2671 C2670 1.369 . S
C2671 C2680 1.429 . S
C2672 C2670 1.419 . S
C2672 C2673 1.363 . S
C2672 H2675 0.929 . S
C2673 C2672 1.363 . S
C2673 C2679 1.428 . S
H2674 C2670 0.930 . S
H2675 C2672 0.929 . S
S2676 N2677 1.613 . S
S2676 N2678 1.610 . S
N2677 S2676 1.613 . S
N2677 C2680 1.350 . S
N2678 S2676 1.610 . S
N2678 C2679 1.351 . S
C2679 C2673 1.428 . S
C2679 N2678 1.351 . S
C2679 C2680 1.434 . S
C2680 C2671 1.429 . S
C2680 N2677 1.350 . S
C2680 C2679 1.434 . S
C2681 C2682 1.369 . S
C2681 C2683 1.419 . S
C2681 H2685 0.930 . S
C2682 C2681 1.369 . S
C2682 C2691 1.429 . S
C2683 C2681 1.419 . S
C2683 C2684 1.363 . S
C2683 H2686 0.929 . S
C2684 C2683 1.363 . S
C2684 C2690 1.428 . S
H2685 C2681 0.930 . S
H2686 C2683 0.929 . S
S2687 N2688 1.613 . S
S2687 N2689 1.610 . S
N2688 S2687 1.613 . S
N2688 C2691 1.350 . S
N2689 S2687 1.610 . S
N2689 C2690 1.351 . S
C2690 C2684 1.428 . S
C2690 N2689 1.351 . S
C2690 C2691 1.434 . S
C2691 C2682 1.429 . S
C2691 N2688 1.350 . S
C2691 C2690 1.434 . S
C2692 C2693 1.369 . S
C2692 C2694 1.419 . S
C2692 H2696 0.930 . S
C2693 C2692 1.369 . S
C2693 C2702 1.429 . S
C2694 C2692 1.419 . S
C2694 C2695 1.363 . S
C2694 H2697 0.929 . S
C2695 C2694 1.363 . S
C2695 C2701 1.428 . S
H2696 C2692 0.930 . S
H2697 C2694 0.929 . S
S2698 N2699 1.613 . S
S2698 N2700 1.610 . S
N2699 S2698 1.613 . S
N2699 C2702 1.350 . S
N2700 S2698 1.610 . S
N2700 C2701 1.351 . S
C2701 C2695 1.428 . S
C2701 N2700 1.351 . S
C2701 C2702 1.434 . S
C2702 C2693 1.429 . S
C2702 N2699 1.350 . S
C2702 C2701 1.434 . S
C2703 C2704 1.369 . S
C2703 C2705 1.419 . S
C2703 H2707 0.930 . S
C2704 C2703 1.369 . S
C2704 C2713 1.429 . S
C2705 C2703 1.419 . S
C2705 C2706 1.363 . S
C2705 H2708 0.929 . S
C2706 C2705 1.363 . S
C2706 C2712 1.428 . S
H2707 C2703 0.930 . S
H2708 C2705 0.929 . S
S2709 N2710 1.613 . S
S2709 N2711 1.610 . S
N2710 S2709 1.613 . S
N2710 C2713 1.350 . S
N2711 S2709 1.610 . S
N2711 C2712 1.351 . S
C2712 C2706 1.428 . S
C2712 N2711 1.351 . S
C2712 C2713 1.434 . S
C2713 C2704 1.429 . S
C2713 N2710 1.350 . S
C2713 C2712 1.434 . S
C2714 C2715 1.369 . S
C2714 C2716 1.419 . S
C2714 H2718 0.930 . S
C2715 C2714 1.369 . S
C2715 C2724 1.429 . S
C2716 C2714 1.419 . S
C2716 C2717 1.363 . S
C2716 H2719 0.929 . S
C2717 C2716 1.363 . S
C2717 C2723 1.428 . S
H2718 C2714 0.930 . S
H2719 C2716 0.929 . S
S2720 N2721 1.613 . S
S2720 N2722 1.610 . S
N2721 S2720 1.613 . S
N2721 C2724 1.350 . S
N2722 S2720 1.610 . S
N2722 C2723 1.351 . S
C2723 C2717 1.428 . S
C2723 N2722 1.351 . S
C2723 C2724 1.434 . S
C2724 C2715 1.429 . S
C2724 N2721 1.350 . S
C2724 C2723 1.434 . S
C2725 C2726 1.369 . S
C2725 C2727 1.419 . S
C2725 H2729 0.930 . S
C2726 C2725 1.369 . S
C2726 C2735 1.429 . S
C2727 C2725 1.419 . S
C2727 C2728 1.363 . S
C2727 H2730 0.929 . S
C2728 C2727 1.363 . S
C2728 C2734 1.428 . S
H2729 C2725 0.930 . S
H2730 C2727 0.929 . S
S2731 N2732 1.613 . S
S2731 N2733 1.610 . S
N2732 S2731 1.613 . S
N2732 C2735 1.350 . S
N2733 S2731 1.610 . S
N2733 C2734 1.351 . S
C2734 C2728 1.428 . S
C2734 N2733 1.351 . S
C2734 C2735 1.434 . S
C2735 C2726 1.429 . S
C2735 N2732 1.350 . S
C2735 C2734 1.434 . S
C2736 C2737 1.369 . S
C2736 C2738 1.392 1_655 S
C2736 H2740 0.930 . S
C2737 C2736 1.369 . S
C2737 C2746 1.445 . S
C2738 C2736 1.392 1_455 S
C2738 C2739 1.391 . S
C2738 H2741 0.929 . S
C2739 C2738 1.391 . S
C2739 C2745 1.428 . S
H2740 C2736 0.930 . S
H2741 C2738 0.929 . S
S2742 N2743 1.641 . S
S2742 N2744 1.610 . S
N2743 S2742 1.641 . S
N2743 C2746 1.348 1_455 S
N2744 S2742 1.610 . S
N2744 C2745 1.351 . S
C2745 C2739 1.428 . S
C2745 N2744 1.351 . S
C2745 C2746 1.418 1_455 S
C2746 C2737 1.445 . S
C2746 N2743 1.348 1_655 S
C2746 C2745 1.418 1_655 S
C2747 C2748 1.369 1_545 S
C2747 C2749 1.419 . S
C2747 H2751 0.930 . S
C2748 C2747 1.369 1_565 S
C2748 C2757 1.429 . S
C2749 C2747 1.419 . S
C2749 C2750 1.363 . S
C2749 H2752 0.929 . S
C2750 C2749 1.363 . S
C2750 C2756 1.428 1_545 S
H2751 C2747 0.930 . S
H2752 C2749 0.929 . S
S2753 N2754 1.613 . S
S2753 N2755 1.610 . S
N2754 S2753 1.613 . S
N2754 C2757 1.350 . S
N2755 S2753 1.610 . S
N2755 C2756 1.351 . S
C2756 C2750 1.428 1_565 S
C2756 N2755 1.351 . S
C2756 C2757 1.434 . S
C2757 C2748 1.429 . S
C2757 N2754 1.350 . S
C2757 C2756 1.434 . S
C2758 C2759 1.369 . S
C2758 C2760 1.385 1_655 S
C2758 H2762 0.930 . S
C2759 C2758 1.369 . S
C2759 C2768 1.426 1_655 S
C2760 C2758 1.385 1_455 S
C2760 C2761 1.398 . S
C2760 H2763 0.929 . S
C2761 C2760 1.398 . S
C2761 C2767 1.428 . S
H2762 C2758 0.930 . S
H2763 C2760 0.929 . S
S2764 N2765 1.613 . S
S2764 N2766 1.610 . S
N2765 S2764 1.613 . S
N2765 C2768 1.350 . S
N2766 S2764 1.610 . S
N2766 C2767 1.351 . S
C2767 C2761 1.428 . S
C2767 N2766 1.351 . S
C2767 C2768 1.436 . S
C2768 C2759 1.426 1_455 S
C2768 N2765 1.350 . S
C2768 C2767 1.436 . S
C2769 C2770 1.369 . S
C2769 C2771 1.419 1_565 S
C2769 H2773 0.930 . S
C2770 C2769 1.369 . S
C2770 C2779 1.429 . S
C2771 C2769 1.419 1_545 S
C2771 C2772 1.363 . S
C2771 H2774 0.929 . S
C2772 C2771 1.363 . S
C2772 C2778 1.428 . S
H2773 C2769 0.930 . S
H2774 C2771 0.929 . S
S2775 N2776 1.613 . S
S2775 N2777 1.610 1_565 S
N2776 S2775 1.613 . S
N2776 C2779 1.350 . S
N2777 S2775 1.610 1_545 S
N2777 C2778 1.351 . S
C2778 C2772 1.428 . S
C2778 N2777 1.351 . S
C2778 C2779 1.434 1_545 S
C2779 C2770 1.429 . S
C2779 N2776 1.350 . S
C2779 C2778 1.434 1_565 S
C2780 C2781 1.369 . S
C2780 C2782 1.419 1_655 S
C2780 H2784 0.930 . S
C2781 C2780 1.369 . S
C2781 C2790 1.429 . S
C2782 C2780 1.419 1_455 S
C2782 C2783 1.363 . S
C2782 H2785 0.929 . S
C2783 C2782 1.363 . S
C2783 C2789 1.428 . S
H2784 C2780 0.930 . S
H2785 C2782 0.929 . S
S2786 N2787 1.613 1_455 S
S2786 N2788 1.610 . S
N2787 S2786 1.613 1_655 S
N2787 C2790 1.350 . S
N2788 S2786 1.610 . S
N2788 C2789 1.351 . S
C2789 C2783 1.428 . S
C2789 N2788 1.351 . S
C2789 C2790 1.434 1_455 S
C2790 C2781 1.429 . S
C2790 N2787 1.350 . S
C2790 C2789 1.434 1_655 S
C2791 C2792 1.360 1_545 S
C2791 C2793 1.427 . S
C2791 H2795 0.931 . S
C2792 C2791 1.360 1_565 S
C2792 C2801 1.429 . S
C2793 C2791 1.427 . S
C2793 C2794 1.363 . S
C2793 H2796 0.929 . S
C2794 C2793 1.363 . S
C2794 C2800 1.428 1_545 S
H2795 C2791 0.931 . S
H2796 C2793 0.929 . S
S2797 N2798 1.613 . S
S2797 N2799 1.610 . S
N2798 S2797 1.613 . S
N2798 C2801 1.350 . S
N2799 S2797 1.610 . S
N2799 C2800 1.351 . S
C2800 C2794 1.428 1_565 S
C2800 N2799 1.351 . S
C2800 C2801 1.434 . S
C2801 C2792 1.429 . S
C2801 N2798 1.350 . S
C2801 C2800 1.434 . S
C2802 C2803 1.369 . S
C2802 C2804 1.419 . S
C2802 H2806 0.930 . S
C2803 C2802 1.369 . S
C2803 C2812 1.429 1_655 S
C2804 C2802 1.419 . S
C2804 C2805 1.363 1_655 S
C2804 H2807 0.929 . S
C2805 C2804 1.363 1_455 S
C2805 C2811 1.428 . S
H2806 C2802 0.930 . S
H2807 C2804 0.929 . S
S2808 N2809 1.613 . S
S2808 N2810 1.610 . S
N2809 S2808 1.613 . S
N2809 C2812 1.350 . S
N2810 S2808 1.610 . S
N2810 C2811 1.351 . S
C2811 C2805 1.428 . S
C2811 N2810 1.351 . S
C2811 C2812 1.434 . S
C2812 C2803 1.429 1_455 S
C2812 N2809 1.350 . S
C2812 C2811 1.434 . S
C2813 C2814 1.369 . S
C2813 C2815 1.419 1_565 S
C2813 H2817 0.930 . S
C2814 C2813 1.369 . S
C2814 C2823 1.429 . S
C2815 C2813 1.419 1_545 S
C2815 C2816 1.363 . S
C2815 H2818 0.929 . S
C2816 C2815 1.363 . S
C2816 C2822 1.428 . S
H2817 C2813 0.930 . S
H2818 C2815 0.929 . S
S2819 N2820 1.605 1_545 S
S2819 N2821 1.610 . S
N2820 S2819 1.605 1_565 S
N2820 C2823 1.350 . S
N2821 S2819 1.610 . S
N2821 C2822 1.351 . S
C2822 C2816 1.428 . S
C2822 N2821 1.351 . S
C2822 C2823 1.434 1_545 S
C2823 C2814 1.429 . S
C2823 N2820 1.350 . S
C2823 C2822 1.434 1_565 S
C2824 C2825 1.369 . S
C2824 C2826 1.419 1_556 S
C2824 H2828 0.930 . S
C2825 C2824 1.369 . S
C2825 C2834 1.429 . S
C2826 C2824 1.419 1_554 S
C2826 C2827 1.363 . S
C2826 H2829 0.929 . S
C2827 C2826 1.363 . S
C2827 C2833 1.428 . S
H2828 C2824 0.930 . S
H2829 C2826 0.929 . S
S2830 N2831 1.613 . S
S2830 N2832 1.610 1_556 S
N2831 S2830 1.613 . S
N2831 C2834 1.350 . S
N2832 S2830 1.610 1_554 S
N2832 C2833 1.351 . S
C2833 C2827 1.428 . S
C2833 N2832 1.351 . S
C2833 C2834 1.434 1_554 S
C2834 C2825 1.429 . S
C2834 N2831 1.350 . S
C2834 C2833 1.434 1_556 S
C2835 C2836 1.369 1_554 S
C2835 C2837 1.419 . S
C2835 H2839 0.930 . S
C2836 C2835 1.369 1_556 S
C2836 C2845 1.429 . S
C2837 C2835 1.419 . S
C2837 C2838 1.363 . S
C2837 H2840 0.929 . S
C2838 C2837 1.363 . S
C2838 C2844 1.428 1_554 S
H2839 C2835 0.930 . S
H2840 C2837 0.929 . S
S2841 N2842 1.613 . S
S2841 N2843 1.610 . S
N2842 S2841 1.613 . S
N2842 C2845 1.350 . S
N2843 S2841 1.610 . S
N2843 C2844 1.351 . S
C2844 C2838 1.428 1_556 S
C2844 N2843 1.351 . S
C2844 C2845 1.434 . S
C2845 C2836 1.429 . S
C2845 N2842 1.350 . S
C2845 C2844 1.434 . S
C2846 C2847 1.369 . S
C2846 C2848 1.419 1_556 S
C2846 H2850 0.930 . S
C2847 C2846 1.369 . S
C2847 C2856 1.429 . S
C2848 C2846 1.419 1_554 S
C2848 C2849 1.363 . S
C2848 H2851 0.929 . S
C2849 C2848 1.363 . S
C2849 C2855 1.428 . S
H2850 C2846 0.930 . S
H2851 C2848 0.929 . S
S2852 N2853 1.613 . S
S2852 N2854 1.610 1_556 S
N2853 S2852 1.613 . S
N2853 C2856 1.350 . S
N2854 S2852 1.610 1_554 S
N2854 C2855 1.351 . S
C2855 C2849 1.428 . S
C2855 N2854 1.351 . S
C2855 C2856 1.434 1_554 S
C2856 C2847 1.429 . S
C2856 N2853 1.350 . S
C2856 C2855 1.434 1_556 S
C2857 C2858 1.369 . S
C2857 C2859 1.385 1_556 S
C2857 H2861 0.930 . S
C2858 C2857 1.369 . S
C2858 C2867 1.452 . S
C2859 C2857 1.385 1_554 S
C2859 C2860 1.398 . S
C2859 H2862 0.929 . S
C2860 C2859 1.398 . S
C2860 C2866 1.428 . S
H2861 C2857 0.930 . S
H2862 C2859 0.929 . S
S2863 N2864 1.624 . S
S2863 N2865 1.610 . S
N2864 S2863 1.624 . S
N2864 C2867 1.349 1_554 S
N2865 S2863 1.610 . S
N2865 C2866 1.351 . S
C2866 C2860 1.428 . S
C2866 N2865 1.351 . S
C2866 C2867 1.410 1_554 S
C2867 C2858 1.452 . S
C2867 N2864 1.349 1_556 S
C2867 C2866 1.410 1_556 S
C1945 C59 1.493 . S
C1947 C1090 1.388 . S
C1956 C140 1.488 . S
C1958 C1171 1.396 . S
C1967 C221 1.489 . S
C1969 C1252 1.396 . S
C1978 C302 1.498 . S
C1980 C1009 1.386 . S
C1989 C383 1.493 . S
C1991 C928 1.389 . S
C2000 C464 1.489 . S
C2002 C685 1.398 . S
C2011 C545 1.496 . S
C2013 C766 1.386 . S
C2022 C626 1.490 . S
C2024 C847 1.392 . S
C2033 C707 1.490 . S
C2035 C118 1.393 . S
C2044 C788 1.492 . S
C2046 C199 1.397 . S
C2055 C869 1.496 . S
C2057 C280 1.386 . S
C2066 C950 1.491 . S
C2068 C37 1.391 . S
C2077 C604 1.400 . S
C2079 C1031 1.491 . S
C2088 C1112 1.498 . S
C2090 C361 1.388 . S
C2099 C1193 1.493 . S
C2101 C442 1.389 . S
C2110 C1274 1.489 . S
C2112 C523 1.397 . S
C2121 C1355 1.489 . S
C2123 C1819 1.398 . S
C2132 C1436 1.489 . S
C2134 C1495 1.398 . S
C2143 C1517 1.489 . S
C2145 C1576 1.394 . S
C2154 C1598 1.488 . S
C2156 C1657 1.396 . S
C2165 C1679 1.489 . S
C2167 C1414 1.398 . S
C2176 C1760 1.497 . S
C2178 C1900 1.391 . S
C2187 C1841 1.497 . S
C2189 C1738 1.391 . S
C2198 C1922 1.489 . S
C2200 C1333 1.398 . S
C2209 C50 2.857 . S
C2211 C1832 2.857 . S
C2220 C131 2.858 . S
C2222 C1346 2.855 . S
C2231 C1913 2.856 . S
C2233 C212 2.855 . S
C2242 C1751 2.856 . S
C2244 C293 2.857 . S
C2253 C374 2.856 . S
C2255 C1508 2.857 . S
C2264 C455 2.855 . S
C2266 C1589 2.857 . S
C2275 C1670 2.858 . S
C2277 C536 2.855 . S
C2286 C1427 2.855 . S
C2288 C617 2.858 . S
C2297 C1103 2.854 . S
C2299 C698 2.856 . S
C2308 C1184 2.858 . S
C2310 C779 2.855 . S
C2319 C1265 2.854 . S
C2321 C860 2.856 . S
C2330 C941 2.857 . S
C2332 C1022 2.855 . S
C2341 C214 1.057 . S
C2343 C52 1.062 . S
C2352 C295 1.061 . S
C2354 C133 1.065 . S
C2363 C538 1.070 . S
C2365 C376 1.067 . S
C2374 C619 1.056 . S
C2376 C457 1.056 . S
C2385 C1024 1.059 . S
C2387 C700 1.065 . S
C2396 C781 1.058 . S
C2398 C1105 1.064 . S
C2407 C862 1.056 . S
C2409 C1186 1.062 . S
C2418 C1267 1.060 . S
C2420 C943 1.057 . S
C2429 C1591 1.067 . S
C2431 C1348 1.068 . S
C2440 C1429 1.070 . S
C2442 C1753 1.066 . S
C2451 C1510 1.058 . S
C2453 C1834 1.064 . S
C2462 C1672 1.054 . S
C2464 C1915 1.059 . S
C2473 C664 1.506 . S
C2475 C18 1.690 . S
C2484 C99 1.693 . S
C2486 C745 1.496 . S
C2495 C180 1.696 . S
C2497 C826 1.503 . S
C2506 C907 1.505 . S
C2508 C261 1.690 . S
C2517 C342 1.690 . S
C2519 C988 1.500 . S
C2528 C423 1.694 . S
C2530 C1069 1.495 . S
C2539 C1150 1.506 . S
C2541 C504 1.690 . S
C2550 C585 1.690 . S
C2552 C1231 1.506 . S
C2561 C1312 1.495 . S
C2563 C666 1.694 . S
C2572 C1879 1.491 . S
C2574 C747 1.699 . S
C2583 C1717 1.491 . S
C2585 C828 1.697 . S
C2594 C1798 1.491 . S
C2596 C909 1.699 . S
C2605 C990 1.696 . S
C2607 C1393 1.494 . S
C2616 C1071 1.690 . S
C2618 C1474 1.500 . S
C2627 C1152 1.690 . S
C2629 C1555 1.506 . S
C2638 C1233 1.695 . S
C2640 C1636 1.504 . S
C2649 C1314 1.689 . S
C2651 C16 1.506 . S
C2660 C340 1.494 . S
C2662 C1395 1.694 . S
C2671 C421 1.506 . S
C2673 C1476 1.694 . S
C2682 C1557 1.690 . S
C2684 C502 1.506 . S
C2693 C1638 1.698 . S
C2695 C583 1.502 . S
C2704 C1719 1.692 . S
C2706 C178 1.498 . S
C2715 C1800 1.688 . S
C2717 C259 1.505 . S
C2726 C1881 1.688 . S
C2728 C97 1.504 . S
C2737 C763 2.807 . S
C2739 C34 2.808 . S
C2748 C844 2.812 . S
C2750 C115 2.811 . S
C2759 C196 2.811 . S
C2761 C925 2.811 . S
C2770 C277 2.807 . S
C2772 C682 2.808 . S
C2781 C1249 2.807 . S
C2783 C358 2.807 . S
C2792 C1006 2.808 . S
C2794 C439 2.808 . S
C2803 C520 2.807 . S
C2805 C1087 2.808 . S
C2814 C601 2.811 . S
C2816 C1168 2.811 . S
C2825 C1492 2.812 . S
C2827 C1330 2.812 . S
C2836 C1411 2.809 . S
C2838 C1816 2.809 . S
C2847 C1573 2.812 . S
C2849 C1897 2.812 . S
C2858 C1654 2.807 . S
C2860 C1735 2.808 . S
