# Generated by pormake.
# Topology zga, (5)-cn, num edge types: 1
# Building blocks:
#     Node 0, Type 0, BuildingBlock: XOMCOT_clean_sbu_1, # of connection points: 5
#     Node 1, Type 0, BuildingBlock: XOMCOT_clean_sbu_1, # of connection points: 5
#     Node 2, Type 0, BuildingBlock: XOMCOT_clean_sbu_1, # of connection points: 5
#     Node 3, Type 0, BuildingBlock: XOMCOT_clean_sbu_1, # of connection points: 5
#     Node 4, Type 0, BuildingBlock: XOMCOT_clean_sbu_1, # of connection points: 5
#     Node 5, Type 0, BuildingBlock: XOMCOT_clean_sbu_1, # of connection points: 5
#     Node 6, Type 0, BuildingBlock: XOMCOT_clean_sbu_1, # of connection points: 5
#     Node 7, Type 0, BuildingBlock: XOMCOT_clean_sbu_1, # of connection points: 5
#     Node 8, Type 0, BuildingBlock: XOMCOT_clean_sbu_1, # of connection points: 5
#     Node 9, Type 0, BuildingBlock: XOMCOT_clean_sbu_1, # of connection points: 5
#     Node 10, Type 0, BuildingBlock: XOMCOT_clean_sbu_1, # of connection points: 5
#     Node 11, Type 0, BuildingBlock: XOMCOT_clean_sbu_1, # of connection points: 5
#     Node 12, Type 0, BuildingBlock: XOMCOT_clean_sbu_1, # of connection points: 5
#     Node 13, Type 0, BuildingBlock: XOMCOT_clean_sbu_1, # of connection points: 5
#     Node 14, Type 0, BuildingBlock: XOMCOT_clean_sbu_1, # of connection points: 5
#     Node 15, Type 0, BuildingBlock: XOMCOT_clean_sbu_1, # of connection points: 5
#     Edge 16, Type (0, 0), BuildingBlock: CIFDUS_clean_linker_0, # of connection points: 2
#     Edge 17, Type (0, 0), BuildingBlock: CIFDUS_clean_linker_0, # of connection points: 2
#     Edge 18, Type (0, 0), BuildingBlock: CIFDUS_clean_linker_0, # of connection points: 2
#     Edge 19, Type (0, 0), BuildingBlock: CIFDUS_clean_linker_0, # of connection points: 2
#     Edge 20, Type (0, 0), BuildingBlock: CIFDUS_clean_linker_0, # of connection points: 2
#     Edge 21, Type (0, 0), BuildingBlock: CIFDUS_clean_linker_0, # of connection points: 2
#     Edge 22, Type (0, 0), BuildingBlock: CIFDUS_clean_linker_0, # of connection points: 2
#     Edge 23, Type (0, 0), BuildingBlock: CIFDUS_clean_linker_0, # of connection points: 2
#     Edge 24, Type (0, 0), BuildingBlock: CIFDUS_clean_linker_0, # of connection points: 2
#     Edge 25, Type (0, 0), BuildingBlock: CIFDUS_clean_linker_0, # of connection points: 2
#     Edge 26, Type (0, 0), BuildingBlock: CIFDUS_clean_linker_0, # of connection points: 2
#     Edge 27, Type (0, 0), BuildingBlock: CIFDUS_clean_linker_0, # of connection points: 2
#     Edge 28, Type (0, 0), BuildingBlock: CIFDUS_clean_linker_0, # of connection points: 2
#     Edge 29, Type (0, 0), BuildingBlock: CIFDUS_clean_linker_0, # of connection points: 2
#     Edge 30, Type (0, 0), BuildingBlock: CIFDUS_clean_linker_0, # of connection points: 2
#     Edge 31, Type (0, 0), BuildingBlock: CIFDUS_clean_linker_0, # of connection points: 2
#     Edge 32, Type (0, 0), BuildingBlock: CIFDUS_clean_linker_0, # of connection points: 2
#     Edge 33, Type (0, 0), BuildingBlock: CIFDUS_clean_linker_0, # of connection points: 2
#     Edge 34, Type (0, 0), BuildingBlock: CIFDUS_clean_linker_0, # of connection points: 2
#     Edge 35, Type (0, 0), BuildingBlock: CIFDUS_clean_linker_0, # of connection points: 2
#     Edge 36, Type (0, 0), BuildingBlock: CIFDUS_clean_linker_0, # of connection points: 2
#     Edge 37, Type (0, 0), BuildingBlock: CIFDUS_clean_linker_0, # of connection points: 2
#     Edge 38, Type (0, 0), BuildingBlock: CIFDUS_clean_linker_0, # of connection points: 2
#     Edge 39, Type (0, 0), BuildingBlock: CIFDUS_clean_linker_0, # of connection points: 2
#     Edge 40, Type (0, 0), BuildingBlock: CIFDUS_clean_linker_0, # of connection points: 2
#     Edge 41, Type (0, 0), BuildingBlock: CIFDUS_clean_linker_0, # of connection points: 2
#     Edge 42, Type (0, 0), BuildingBlock: CIFDUS_clean_linker_0, # of connection points: 2
#     Edge 43, Type (0, 0), BuildingBlock: CIFDUS_clean_linker_0, # of connection points: 2
#     Edge 44, Type (0, 0), BuildingBlock: CIFDUS_clean_linker_0, # of connection points: 2
#     Edge 45, Type (0, 0), BuildingBlock: CIFDUS_clean_linker_0, # of connection points: 2
#     Edge 46, Type (0, 0), BuildingBlock: CIFDUS_clean_linker_0, # of connection points: 2
#     Edge 47, Type (0, 0), BuildingBlock: CIFDUS_clean_linker_0, # of connection points: 2
#     Edge 48, Type (0, 0), BuildingBlock: CIFDUS_clean_linker_0, # of connection points: 2
#     Edge 49, Type (0, 0), BuildingBlock: CIFDUS_clean_linker_0, # of connection points: 2
#     Edge 50, Type (0, 0), BuildingBlock: CIFDUS_clean_linker_0, # of connection points: 2
#     Edge 51, Type (0, 0), BuildingBlock: CIFDUS_clean_linker_0, # of connection points: 2
#     Edge 52, Type (0, 0), BuildingBlock: CIFDUS_clean_linker_0, # of connection points: 2
#     Edge 53, Type (0, 0), BuildingBlock: CIFDUS_clean_linker_0, # of connection points: 2
#     Edge 54, Type (0, 0), BuildingBlock: CIFDUS_clean_linker_0, # of connection points: 2
#     Edge 55, Type (0, 0), BuildingBlock: CIFDUS_clean_linker_0, # of connection points: 2
# Relax obj value: 0.048
# Max RMSD: 0.093
# Mean RMSD: 0.093
data_MOF--net-zga--node1-XOMCOT_clean_sbu_1--edge1-CIFDUS_clean_linker_0
_symmetry_space_group_name_H-M    P1
_symmetry_Int_Tables_number       1
_symmetry_cell_setting            triclinic
loop_
_symmetry_equiv_pos_as_xyz
'x, y, z'
_cell_length_a     44.972786
_cell_length_b     91.904122
_cell_length_c     15.697295
_cell_angle_alpha  90.01732
_cell_angle_beta   89.871177
_cell_angle_gamma 93.30169
loop_
_atom_site_label
_atom_site_type_symbol
_atom_site_fract_x
_atom_site_fract_y
_atom_site_fract_z
_atom_type_partial_charge
C0 C 0.17784 0.55058 0.03461 0.0
C1 C 0.17878 0.55062 0.94706 0.0
N2 N 0.15924 0.54005 0.91865 0.0
N3 N 0.15766 0.5401 0.06069 0.0
C4 C 0.14719 0.53371 0.98892 0.0
H5 H 0.19005 0.55811 0.07645 0.0
Co6 Co 0.14462 0.53679 0.17049 0.0
C7 C 0.07968 0.52859 0.15133 0.0
O8 O 0.07491 0.53799 0.21231 0.0
N9 N 0.13215 0.53298 0.28259 0.0
C10 C 0.11716 0.51985 0.39564 0.0
C11 C 0.11707 0.52059 0.30842 0.0
C12 C 0.14212 0.53927 0.35562 0.0
N13 N 0.13318 0.53157 0.42488 0.0
O14 O 0.16545 0.5191 0.17397 0.0
H15 H 0.10848 0.512 0.26662 0.0
H16 H 0.15733 0.54873 0.35893 0.0
O17 O 0.10659 0.52683 0.12733 0.0
C18 C 0.19129 0.5235 0.20116 0.0
O19 O 0.19631 0.53753 0.21509 0.0
N20 N 0.12908 0.55539 0.16921 0.0
C21 C 0.12715 0.58546 0.14297 0.0
C22 C 0.10762 0.57561 0.099 0.0
C23 C 0.10933 0.56054 0.11186 0.0
C24 C 0.14791 0.56494 0.21201 0.0
C25 C 0.14676 0.57989 0.20193 0.0
H26 H 0.09668 0.55314 0.07042 0.0
H27 H 0.16639 0.56103 0.24679 0.0
H28 H 0.13057 0.52474 0.98804 0.0
H29 H 0.19172 0.5583 0.90767 0.0
H30 H 0.10819 0.51085 0.43411 0.0
H31 H 0.09264 0.57944 0.05111 0.0
H32 H 0.16242 0.587 0.23693 0.0
C33 C 0.10408 0.71334 0.04743 0.0
C34 C 0.10336 0.71313 0.95966 0.0
N35 N 0.13083 0.71719 0.93078 0.0
N36 N 0.13184 0.71756 0.07306 0.0
C37 C 0.14757 0.71968 1.00069 0.0
H38 H 0.08559 0.71059 0.08967 0.0
Co39 Co 0.14574 0.71958 0.18315 0.0
C40 C 0.21032 0.72882 0.16323 0.0
O41 O 0.21601 0.71921 0.22213 0.0
N42 N 0.15936 0.72203 0.295 0.0
C43 C 0.17358 0.73433 0.41109 0.0
C44 C 0.17174 0.7348 0.32422 0.0
C45 C 0.15351 0.71403 0.36587 0.0
N46 N 0.16187 0.72129 0.43746 0.0
O47 O 0.1247 0.7372 0.1958 0.0
H48 H 0.17707 0.7443 0.28529 0.0
H49 H 0.14166 0.70351 0.36604 0.0
O50 O 0.18317 0.73027 0.14102 0.0
C51 C 0.10019 0.73291 0.23229 0.0
O52 O 0.09608 0.71901 0.25067 0.0
N53 N 0.16107 0.70107 0.17339 0.0
C54 C 0.16298 0.67114 0.14292 0.0
C55 C 0.18408 0.68108 0.10529 0.0
C56 C 0.18242 0.69613 0.12017 0.0
C57 C 0.14068 0.69146 0.20981 0.0
C58 C 0.14164 0.67657 0.19741 0.0
H59 H 0.19689 0.70365 0.08443 0.0
H60 H 0.12206 0.69541 0.2444 0.0
H61 H 0.17114 0.72264 0.99881 0.0
H62 H 0.08407 0.7104 0.92046 0.0
H63 H 0.18065 0.74338 0.45175 0.0
H64 H 0.20059 0.67736 0.06129 0.0
H65 H 0.12497 0.6694 0.2283 0.0
C66 C 0.85304 0.45753 1.00146 0.0
C67 C 0.84878 0.45617 0.08781 0.0
N68 N 0.86906 0.46508 0.12825 0.0
N69 N 0.87602 0.4672 0.98603 0.0
C70 C 0.88539 0.47166 0.0646 0.0
H71 H 0.84053 0.45155 0.95273 0.0
Co72 Co 0.89009 0.47138 0.87468 0.0
C73 C 0.95455 0.47916 0.89864 0.0
O74 O 0.95929 0.47001 0.83635 0.0
N75 N 0.90365 0.47601 0.76054 0.0
C76 C 0.92276 0.49004 0.65522 0.0
C77 C 0.91849 0.48883 0.74162 0.0
C78 C 0.89805 0.46992 0.68249 0.0
N79 N 0.90981 0.47817 0.61769 0.0
O80 O 0.86941 0.48913 0.87471 0.0
H81 H 0.92488 0.49717 0.78769 0.0
H82 H 0.88492 0.4599 0.672 0.0
O83 O 0.92763 0.48094 0.92242 0.0
C84 C 0.84416 0.485 0.84238 0.0
O85 O 0.83992 0.47125 0.82031 0.0
N86 N 0.9053 0.45279 0.87218 0.0
C87 C 0.90214 0.42274 0.89986 0.0
C88 C 0.92237 0.43187 0.94603 0.0
C89 C 0.92324 0.44701 0.93226 0.0
C90 C 0.88662 0.44385 0.82488 0.0
C91 C 0.88504 0.42886 0.83658 0.0
H92 H 0.93591 0.45403 0.97575 0.0
H93 H 0.86985 0.4484 0.78585 0.0
H94 H 0.90384 0.47953 0.07486 0.0
H95 H 0.83234 0.44882 0.11812 0.0
H96 H 0.93332 0.4993 0.62215 0.0
H97 H 0.93545 0.4275 0.99683 0.0
H98 H 0.86883 0.4222 0.80065 0.0
C99 C 0.93192 0.30079 1.01209 0.0
C100 C 0.93449 0.29971 0.09914 0.0
N101 N 0.91714 0.28811 0.12574 0.0
N102 N 0.91276 0.29003 0.98413 0.0
C103 C 0.90477 0.28231 0.05426 0.0
H104 H 0.94196 0.30934 0.97228 0.0
Co105 Co 0.89787 0.28762 0.87421 0.0
C106 C 0.83397 0.27938 0.93181 0.0
O107 O 0.82413 0.29184 0.90644 0.0
N108 N 0.88362 0.28485 0.76239 0.0
C109 C 0.85741 0.28157 0.64326 0.0
C110 C 0.85588 0.28262 0.73039 0.0
C111 C 0.90154 0.28493 0.69316 0.0
N112 N 0.88623 0.28307 0.61984 0.0
O113 O 0.91859 0.27 0.86341 0.0
H114 H 0.8355 0.28196 0.76627 0.0
H115 H 0.92546 0.28664 0.69648 0.0
O116 O 0.86149 0.2768 0.92069 0.0
C117 C 0.94556 0.2741 0.84513 0.0
O118 O 0.95268 0.28817 0.84254 0.0
N119 N 0.88206 0.30627 0.88098 0.0
C120 C 0.88632 0.33646 0.90387 0.0
C121 C 0.8724 0.32739 0.96575 0.0
C122 C 0.87071 0.31221 0.9534 0.0
C123 C 0.89357 0.31521 0.81818 0.0
C124 C 0.89558 0.33024 0.8279 0.0
H125 H 0.86327 0.30526 1.00572 0.0
H126 H 0.9046 0.31081 0.76384 0.0
H127 H 0.88947 0.27282 0.05307 0.0
H128 H 0.94677 0.30742 0.13977 0.0
H129 H 0.8386 0.28028 0.60054 0.0
H130 H 0.86525 0.33186 0.02576 0.0
H131 H 0.90644 0.33691 0.77867 0.0
C132 C 0.17751 0.05056 0.54475 0.0
C133 C 0.18241 0.05183 0.45842 0.0
N134 N 0.16228 0.04298 0.41683 0.0
N135 N 0.15438 0.04091 0.5593 0.0
C136 C 0.14584 0.0363 0.47997 0.0
H137 H 0.18951 0.05667 0.59389 0.0
Co138 Co 0.13816 0.03684 0.6703 0.0
C139 C 0.07655 0.02788 0.60471 0.0
O140 O 0.06546 0.03958 0.6371 0.0
N141 N 0.12294 0.03209 0.78359 0.0
C142 C 0.09558 0.02299 0.89232 0.0
C143 C 0.0968 0.02507 0.80563 0.0
C144 C 0.13739 0.03386 0.85977 0.0
N145 N 0.12107 0.02855 0.92702 0.0
O146 O 0.16119 0.01999 0.6762 0.0
H147 H 0.07954 0.02123 0.76253 0.0
H148 H 0.15956 0.03897 0.86588 0.0
O149 O 0.10415 0.02559 0.61631 0.0
C150 C 0.18641 0.02447 0.70699 0.0
O151 O 0.19058 0.0384 0.72519 0.0
N152 N 0.11909 0.05501 0.6683 0.0
C153 C 0.12339 0.08546 0.6563 0.0
C154 C 0.11483 0.0769 0.58537 0.0
C155 C 0.112 0.06165 0.59339 0.0
C156 C 0.12321 0.06338 0.73971 0.0
C157 C 0.12453 0.0785 0.73546 0.0
H158 H 0.10745 0.05526 0.53674 0.0
H159 H 0.12893 0.05875 0.79963 0.0
H160 H 0.12697 0.02873 0.4685 0.0
H161 H 0.19943 0.05896 0.42897 0.0
H162 H 0.07709 0.01779 0.9272 0.0
H163 H 0.11279 0.08172 0.52291 0.0
H164 H 0.12928 0.08463 0.79328 0.0
C165 C 0.09953 0.20592 0.50898 0.0
C166 C 0.09651 0.20695 0.42207 0.0
N167 N 0.11336 0.21866 0.39451 0.0
N168 N 0.11846 0.21682 0.53613 0.0
C169 C 0.12581 0.2246 0.46566 0.0
H170 H 0.0901 0.19726 0.54912 0.0
Co171 Co 0.13408 0.21898 0.6455 0.0
C172 C 0.19691 0.22859 0.58894 0.0
O173 O 0.20739 0.21636 0.6157 0.0
N174 N 0.14867 0.2215 0.75722 0.0
C175 C 0.17415 0.22618 0.8764 0.0
C176 C 0.1758 0.22551 0.78914 0.0
C177 C 0.13095 0.22004 0.82671 0.0
N178 N 0.14584 0.22273 0.90006 0.0
O179 O 0.11178 0.23599 0.6609 0.0
H180 H 0.19576 0.228 0.75309 0.0
H181 H 0.10744 0.21698 0.82332 0.0
O182 O 0.16917 0.2308 0.59913 0.0
C183 C 0.08504 0.23168 0.6802 0.0
O184 O 0.07815 0.21759 0.68131 0.0
N185 N 0.15229 0.2009 0.63328 0.0
C186 C 0.15611 0.17103 0.60565 0.0
C187 C 0.16455 0.18104 0.54157 0.0
C188 C 0.16289 0.19601 0.5571 0.0
C189 C 0.14532 0.19116 0.69696 0.0
C190 C 0.14772 0.17628 0.68512 0.0
H191 H 0.16762 0.20353 0.50526 0.0
H192 H 0.13502 0.19458 0.75498 0.0
H193 H 0.14098 0.23414 0.46642 0.0
H194 H 0.08435 0.19907 0.38227 0.0
H195 H 0.19258 0.22882 0.91891 0.0
H196 H 0.17096 0.17732 0.47905 0.0
H197 H 0.14044 0.16885 0.73557 0.0
C198 C 0.84693 0.95367 0.44676 0.0
C199 C 0.84172 0.95291 0.53309 0.0
N200 N 0.86028 0.96276 0.57314 0.0
N201 N 0.86883 0.96391 0.43065 0.0
C202 C 0.87641 0.96935 0.50891 0.0
H203 H 0.8362 0.94676 0.39879 0.0
Co204 Co 0.88522 0.9674 0.31978 0.0
C205 C 0.94739 0.97585 0.39043 0.0
O206 O 0.95824 0.96347 0.36771 0.0
N207 N 0.90137 0.9712 0.20634 0.0
C208 C 0.93298 0.97505 0.09773 0.0
C209 C 0.93032 0.97339 0.18425 0.0
C210 C 0.88687 0.97164 0.12994 0.0
N211 N 0.90568 0.97397 0.06258 0.0
O212 O 0.86396 0.98476 0.3114 0.0
H213 H 0.94894 0.97349 0.22676 0.0
H214 H 0.86298 0.97002 0.12363 0.0
O215 O 0.92022 0.9783 0.37297 0.0
C216 C 0.83835 0.98055 0.28223 0.0
O217 O 0.83289 0.96654 0.26838 0.0
N218 N 0.90177 0.94895 0.32321 0.0
C219 C 0.90549 0.91862 0.32572 0.0
C220 C 0.91465 0.92711 0.39641 0.0
C221 C 0.91235 0.9423 0.39417 0.0
C222 C 0.8928 0.9407 0.25469 0.0
C223 C 0.89494 0.9257 0.254 0.0
H224 H 0.91735 0.94854 0.45124 0.0
H225 H 0.8813 0.94545 0.20243 0.0
H226 H 0.89386 0.97776 0.51864 0.0
H227 H 0.82608 0.9452 0.56363 0.0
H228 H 0.95381 0.97646 0.06327 0.0
H229 H 0.92252 0.92205 0.45375 0.0
H230 H 0.88633 0.91961 0.19941 0.0
C231 C 0.93571 0.80147 0.51849 0.0
C232 C 0.9376 0.8036 0.60516 0.0
N233 N 0.91901 0.79366 0.64414 0.0
N234 N 0.91587 0.79028 0.50184 0.0
C235 C 0.90625 0.78564 0.57994 0.0
H236 H 0.94767 0.80788 0.47037 0.0
Co237 Co 0.90427 0.78441 0.39055 0.0
C238 C 0.84059 0.77354 0.41705 0.0
O239 O 0.83281 0.78105 0.35027 0.0
N240 N 0.89308 0.77813 0.27738 0.0
C241 C 0.87822 0.76237 0.17579 0.0
C242 C 0.88031 0.76474 0.26186 0.0
C243 C 0.89945 0.78349 0.19791 0.0
N244 N 0.89052 0.77411 0.13465 0.0
O245 O 0.92797 0.76773 0.39906 0.0
H246 H 0.87395 0.75679 0.31028 0.0
H247 H 0.91191 0.79366 0.18608 0.0
O248 O 0.86811 0.77388 0.4391 0.0
C249 C 0.95329 0.77238 0.36901 0.0
O250 O 0.95659 0.78614 0.34663 0.0
N251 N 0.8858 0.802 0.37857 0.0
C252 C 0.87963 0.83216 0.3771 0.0
C253 C 0.8604 0.82287 0.42645 0.0
C254 C 0.86427 0.80777 0.42774 0.0
C255 C 0.90434 0.81088 0.33068 0.0
C256 C 0.90164 0.8258 0.32859 0.0
H257 H 0.85151 0.80103 0.47255 0.0
H258 H 0.92353 0.80659 0.30066 0.0
H259 H 0.88957 0.77684 0.58969 0.0
H260 H 0.95164 0.81186 0.63702 0.0
H261 H 0.86887 0.75251 0.14638 0.0
H262 H 0.84341 0.82723 0.4664 0.0
H263 H 0.91833 0.83234 0.29365 0.0
C264 C 0.68639 0.55081 0.54216 0.0
C265 C 0.69003 0.55036 0.4551 0.0
N266 N 0.67121 0.53973 0.42386 0.0
N267 N 0.66525 0.54059 0.56551 0.0
C268 C 0.65669 0.53391 0.49225 0.0
H269 H 0.69767 0.55843 0.58545 0.0
Co270 Co 0.64992 0.538 0.67496 0.0
C271 C 0.58625 0.52805 0.63474 0.0
O272 O 0.57663 0.53836 0.68399 0.0
N273 N 0.63539 0.53508 0.78749 0.0
C274 C 0.61506 0.52464 0.90382 0.0
C275 C 0.61527 0.52469 0.81631 0.0
C276 C 0.64804 0.54064 0.8596 0.0
N277 N 0.63576 0.5347 0.93095 0.0
O278 O 0.67217 0.52097 0.68809 0.0
H279 H 0.60296 0.51678 0.77743 0.0
H280 H 0.6677 0.54794 0.86048 0.0
O281 O 0.61442 0.52663 0.62763 0.0
C282 C 0.69762 0.52557 0.71693 0.0
O283 O 0.70246 0.53966 0.72875 0.0
N284 N 0.63226 0.55605 0.66409 0.0
C285 C 0.62775 0.58568 0.62874 0.0
C286 C 0.61269 0.57502 0.57821 0.0
C287 C 0.61564 0.56019 0.59616 0.0
C288 C 0.64627 0.5664 0.71426 0.0
C289 C 0.64377 0.58116 0.69912 0.0
H290 H 0.6068 0.55218 0.55111 0.0
H291 H 0.66223 0.56342 0.76073 0.0
H292 H 0.63915 0.5254 0.48832 0.0
H293 H 0.70499 0.55746 0.41772 0.0
H294 H 0.60149 0.51736 0.94411 0.0
H295 H 0.60054 0.57807 0.52212 0.0
H296 H 0.65585 0.58898 0.7397 0.0
C297 C 0.59181 0.71325 0.51593 0.0
C298 C 0.59139 0.71276 0.42816 0.0
N299 N 0.61923 0.71615 0.39975 0.0
N300 N 0.61975 0.71698 0.54206 0.0
C301 C 0.63589 0.71849 0.46998 0.0
H302 H 0.57294 0.71112 0.55776 0.0
Co303 Co 0.63346 0.71951 0.65221 0.0
C304 C 0.69734 0.73085 0.62917 0.0
O305 O 0.7056 0.72228 0.69072 0.0
N306 N 0.64684 0.72236 0.7637 0.0
C307 C 0.66021 0.73468 0.88047 0.0
C308 C 0.65852 0.73523 0.7935 0.0
C309 C 0.64113 0.71425 0.83415 0.0
N310 N 0.64904 0.72149 0.90612 0.0
O311 O 0.6112 0.73673 0.66331 0.0
H312 H 0.66348 0.74482 0.75493 0.0
H313 H 0.62969 0.70361 0.83357 0.0
O314 O 0.66969 0.73081 0.60877 0.0
C315 C 0.58669 0.73251 0.6999 0.0
O316 O 0.58275 0.7187 0.72075 0.0
N317 N 0.65042 0.70142 0.644 0.0
C318 C 0.65593 0.67161 0.61809 0.0
C319 C 0.6771 0.68189 0.58395 0.0
C320 C 0.67362 0.69686 0.59627 0.0
C321 C 0.62998 0.69149 0.67728 0.0
C322 C 0.63255 0.67665 0.66663 0.0
H323 H 0.6884 0.70459 0.56304 0.0
H324 H 0.61038 0.69515 0.70857 0.0
H325 H 0.65963 0.72103 0.46863 0.0
H326 H 0.57203 0.71043 0.38858 0.0
H327 H 0.66684 0.74372 0.92173 0.0
H328 H 0.6952 0.67843 0.54463 0.0
H329 H 0.61576 0.66917 0.69461 0.0
C330 C 0.34866 0.45807 0.51449 0.0
C331 C 0.34447 0.45884 0.60125 0.0
N332 N 0.36283 0.46969 0.63227 0.0
N333 N 0.36963 0.46835 0.49087 0.0
C334 C 0.37751 0.47537 0.56369 0.0
H335 H 0.33781 0.45024 0.47163 0.0
Co336 Co 0.38514 0.47106 0.38127 0.0
C337 C 0.44831 0.48066 0.42776 0.0
O338 O 0.45807 0.46971 0.38398 0.0
N339 N 0.39949 0.47424 0.26883 0.0
C340 C 0.42103 0.48347 0.15091 0.0
C341 C 0.4222 0.48308 0.23843 0.0
C342 C 0.38419 0.47 0.19803 0.0
N343 N 0.39709 0.47516 0.1257 0.0
O344 O 0.36226 0.48793 0.36847 0.0
H345 H 0.43782 0.48963 0.27615 0.0
H346 H 0.36316 0.46367 0.19956 0.0
O347 O 0.42024 0.48264 0.42924 0.0
C348 C 0.33643 0.48322 0.34295 0.0
O349 O 0.33129 0.46907 0.33469 0.0
N350 N 0.40388 0.45305 0.39142 0.0
C351 C 0.40978 0.42335 0.42057 0.0
C352 C 0.41896 0.43364 0.48239 0.0
C353 C 0.41627 0.44853 0.46596 0.0
C354 C 0.39588 0.44301 0.33035 0.0
C355 C 0.39937 0.42824 0.34268 0.0
H356 H 0.42168 0.45627 0.51622 0.0
H357 H 0.3839 0.44598 0.27482 0.0
H358 H 0.39473 0.48404 0.56707 0.0
H359 H 0.32942 0.45176 0.63846 0.0
H360 H 0.43634 0.48959 0.10927 0.0
H361 H 0.42681 0.43018 0.5439 0.0
H362 H 0.39136 0.42057 0.29429 0.0
C363 C 0.43297 0.30265 0.46456 0.0
C364 C 0.43775 0.304 0.55085 0.0
N365 N 0.41735 0.29531 0.59261 0.0
N366 N 0.40962 0.29313 0.45038 0.0
C367 C 0.40082 0.28866 0.52979 0.0
H368 H 0.44517 0.30864 0.41517 0.0
Co369 Co 0.39342 0.2892 0.33968 0.0
C370 C 0.33095 0.28089 0.40082 0.0
O371 O 0.32061 0.2924 0.36409 0.0
N372 N 0.37819 0.28464 0.22632 0.0
C373 C 0.35178 0.27475 0.11818 0.0
C374 C 0.35292 0.27681 0.2048 0.0
C375 C 0.39237 0.28679 0.14982 0.0
N376 N 0.37658 0.28103 0.08293 0.0
O377 O 0.41535 0.27199 0.33408 0.0
H378 H 0.33649 0.27217 0.24824 0.0
H379 H 0.41418 0.29229 0.1434 0.0
O380 O 0.35867 0.27847 0.39345 0.0
C381 C 0.44089 0.27601 0.30346 0.0
O382 O 0.44604 0.28985 0.28433 0.0
N383 N 0.37549 0.30761 0.342 0.0
C384 C 0.38058 0.33799 0.35918 0.0
C385 C 0.37028 0.32916 0.42737 0.0
C386 C 0.36718 0.31396 0.41676 0.0
C387 C 0.38174 0.31625 0.27283 0.0
C388 C 0.38346 0.33136 0.27945 0.0
H389 H 0.36146 0.30732 0.47178 0.0
H390 H 0.38886 0.31178 0.21371 0.0
H391 H 0.38169 0.28125 0.54157 0.0
H392 H 0.45485 0.31106 0.58027 0.0
H393 H 0.33397 0.26891 0.08385 0.0
H394 H 0.36702 0.33371 0.49007 0.0
H395 H 0.38974 0.3377 0.22341 0.0
C396 C 0.68204 0.05279 0.99544 0.0
C397 C 0.68418 0.0549 0.90877 0.0
N398 N 0.66458 0.04545 0.86993 0.0
N399 N 0.66104 0.04211 1.0122 0.0
C400 C 0.65096 0.03774 0.93418 0.0
H401 H 0.69461 0.05891 0.04349 0.0
Co402 Co 0.64871 0.03661 0.12362 0.0
C403 C 0.58452 0.02667 0.09582 0.0
O404 O 0.57643 0.03473 0.16011 0.0
N405 N 0.63675 0.03069 0.23697 0.0
C406 C 0.62023 0.01535 0.33894 0.0
C407 C 0.62253 0.01763 0.25285 0.0
C408 C 0.64375 0.03591 0.3163 0.0
N409 N 0.63384 0.02677 0.37977 0.0
O410 O 0.67064 0.01939 0.11579 0.0
H411 H 0.61542 0.00978 0.20475 0.0
H412 H 0.65737 0.04575 0.32786 0.0
O413 O 0.61217 0.02662 0.07549 0.0
C414 C 0.69632 0.02344 0.14525 0.0
O415 O 0.70109 0.03717 0.16706 0.0
N416 N 0.63185 0.05465 0.13466 0.0
C417 C 0.62953 0.08506 0.13102 0.0
C418 C 0.60939 0.07608 0.08278 0.0
C419 C 0.61131 0.06083 0.08413 0.0
C420 C 0.6511 0.06322 0.18204 0.0
C421 C 0.6503 0.07826 0.18159 0.0
H422 H 0.59798 0.05424 0.04 0.0
H423 H 0.66956 0.0585 0.21315 0.0
H424 H 0.63333 0.0294 0.92451 0.0
H425 H 0.69906 0.06281 0.87682 0.0
H426 H 0.60986 0.00572 0.36857 0.0
H427 H 0.59322 0.08076 0.04157 0.0
H428 H 0.66756 0.08446 0.21604 0.0
C429 C 0.60147 0.20462 0.03632 0.0
C430 C 0.59982 0.20461 0.94854 0.0
N431 N 0.61828 0.21555 0.91927 0.0
N432 N 0.62091 0.21549 0.06142 0.0
C433 C 0.6303 0.22208 0.98878 0.0
H434 H 0.59018 0.19686 0.07894 0.0
Co435 Co 0.634 0.21978 0.17119 0.0
C436 C 0.69845 0.22858 0.12584 0.0
O437 O 0.70853 0.21804 0.17216 0.0
N438 N 0.6464 0.2246 0.28316 0.0
C439 C 0.66797 0.23475 0.39796 0.0
C440 C 0.66967 0.23327 0.31114 0.0
C441 C 0.63017 0.22163 0.35438 0.0
N442 N 0.64313 0.22731 0.42529 0.0
O443 O 0.61204 0.23701 0.17034 0.0
H444 H 0.68623 0.23895 0.272 0.0
H445 H 0.60892 0.21552 0.3541 0.0
O446 O 0.67033 0.23033 0.12351 0.0
C447 C 0.58565 0.23285 0.19393 0.0
O448 O 0.57986 0.21889 0.20848 0.0
N449 N 0.65155 0.20152 0.17503 0.0
C450 C 0.65854 0.17143 0.17311 0.0
C451 C 0.67089 0.18037 0.10798 0.0
C452 C 0.66712 0.19547 0.11009 0.0
C453 C 0.63917 0.19275 0.23718 0.0
C454 C 0.64302 0.17791 0.23874 0.0
H455 H 0.67489 0.20209 0.05672 0.0
H456 H 0.62372 0.19684 0.2819 0.0
H457 H 0.64618 0.23136 0.98621 0.0
H458 H 0.58726 0.19677 0.90933 0.0
H459 H 0.6834 0.24122 0.43731 0.0
H460 H 0.68247 0.17569 0.05494 0.0
H461 H 0.63193 0.17136 0.28809 0.0
C462 C 0.34298 0.95631 0.98552 0.0
C463 C 0.3395 0.95446 0.07209 0.0
N464 N 0.35977 0.96337 0.11245 0.0
N465 N 0.36541 0.96633 0.97022 0.0
C466 C 0.37504 0.97055 0.04904 0.0
H467 H 0.33056 0.95035 0.93655 0.0
Co468 Co 0.38018 0.97088 0.85938 0.0
C469 C 0.44395 0.97968 0.90094 0.0
O470 O 0.45282 0.97011 0.84554 0.0
N471 N 0.39437 0.97593 0.74552 0.0
C472 C 0.41604 0.98924 0.64081 0.0
C473 C 0.41405 0.98719 0.7272 0.0
C474 C 0.38359 0.97189 0.66709 0.0
N475 N 0.39675 0.97967 0.60223 0.0
O476 O 0.35836 0.98813 0.85861 0.0
H477 H 0.42499 0.99436 0.7732 0.0
H478 H 0.36479 0.96423 0.6574 0.0
O479 O 0.41594 0.98112 0.91141 0.0
C480 C 0.33332 0.98384 0.8259 0.0
O481 O 0.32941 0.97006 0.80398 0.0
N482 N 0.39728 0.95262 0.85742 0.0
C483 C 0.39413 0.92246 0.88278 0.0
C484 C 0.41113 0.9317 0.93764 0.0
C485 C 0.41231 0.94685 0.92408 0.0
C486 C 0.38256 0.94358 0.80091 0.0
C487 C 0.38129 0.92856 0.81116 0.0
H488 H 0.42227 0.95389 0.97258 0.0
H489 H 0.36814 0.94788 0.75421 0.0
H490 H 0.39375 0.97825 0.05992 0.0
H491 H 0.32341 0.94698 0.10281 0.0
H492 H 0.43005 0.99758 0.60933 0.0
H493 H 0.4212 0.92741 0.99427 0.0
H494 H 0.36812 0.92185 0.76686 0.0
C495 C 0.43231 0.80029 1.01157 0.0
C496 C 0.43489 0.79997 0.09889 0.0
N497 N 0.41543 0.78951 0.12893 0.0
N498 N 0.41103 0.79021 0.98714 0.0
C499 C 0.40147 0.78369 0.05996 0.0
H500 H 0.44454 0.80767 0.96882 0.0
Co501 Co 0.3967 0.78741 0.87724 0.0
C502 C 0.33174 0.77961 0.90306 0.0
O503 O 0.32626 0.7892 0.8438 0.0
N504 N 0.38276 0.78417 0.76491 0.0
C505 C 0.36494 0.77181 0.65211 0.0
C506 C 0.36704 0.77197 0.73928 0.0
C507 C 0.39079 0.79098 0.69122 0.0
N508 N 0.3801 0.78376 0.62178 0.0
O509 O 0.41656 0.76946 0.86971 0.0
H510 H 0.35897 0.76324 0.78093 0.0
H511 H 0.40619 0.80036 0.68715 0.0
O512 O 0.3589 0.77772 0.92343 0.0
C513 C 0.44207 0.77364 0.83893 0.0
O514 O 0.44732 0.78762 0.82416 0.0
N515 N 0.38236 0.80623 0.88187 0.0
C516 C 0.38425 0.83625 0.9113 0.0
C517 C 0.36342 0.82692 0.9543 0.0
C518 C 0.36326 0.81177 0.93997 0.0
C519 C 0.40213 0.81536 0.83921 0.0
C520 C 0.40307 0.83031 0.85153 0.0
H521 H 0.34976 0.80459 0.98071 0.0
H522 H 0.41985 0.811 0.8029 0.0
H523 H 0.3838 0.77522 0.06307 0.0
H524 H 0.44965 0.80697 0.13733 0.0
H525 H 0.35405 0.76325 0.61419 0.0
H526 H 0.34899 0.83115 1.00257 0.0
H527 H 0.4198 0.8371 0.81818 0.0
H528 H 0.28125 0.47505 0.28432 0.0
H529 H 0.33742 0.51316 0.34863 0.0
H530 H 0.29737 0.52877 0.30839 0.0
H531 H 0.2468 0.53149 0.25613 0.0
H532 H 0.19031 0.49348 0.19216 0.0
H533 H 0.23055 0.47781 0.23093 0.0
C534 C 0.28486 0.48678 0.28976 0.0
C535 C 0.31242 0.49293 0.31982 0.0
C536 C 0.26178 0.49564 0.26637 0.0
C537 C 0.31653 0.50814 0.32603 0.0
C538 C 0.29363 0.51705 0.3029 0.0
C539 C 0.24312 0.51977 0.25033 0.0
C540 C 0.21542 0.51367 0.22112 0.0
C541 C 0.26621 0.5109 0.27309 0.0
C542 C 0.21132 0.49846 0.21416 0.0
C543 C 0.23431 0.48953 0.23654 0.0
H544 H 0.04754 0.72508 0.30784 0.0
H545 H 0.09829 0.76257 0.2072 0.0
H546 H 0.05732 0.77799 0.24365 0.0
H547 H 1.00717 0.78058 0.30147 0.0
H548 H 0.9562 0.74297 0.39975 0.0
H549 H 0.9977 0.72771 0.36686 0.0
C550 C 0.04984 0.73664 0.29374 0.0
C551 C 0.07609 0.74266 0.25448 0.0
C552 C 0.02624 0.74535 0.31453 0.0
C553 C 0.07844 0.75765 0.23711 0.0
C554 C 0.05501 0.76644 0.258 0.0
C555 C 1.00502 0.76904 0.31616 0.0
C556 C 0.97845 0.76292 0.35323 0.0
C557 C 0.02881 0.76037 0.29639 0.0
C558 C 0.97628 0.74796 0.37151 0.0
C559 C 1.0 0.73925 0.35251 0.0
H560 H 0.33242 0.75991 0.03551 0.0
H561 H 0.27286 0.78002 0.86191 0.0
H562 H 0.23039 0.7664 0.92555 0.0
H563 H 0.20948 0.74862 0.03102 0.0
H564 H 0.26911 0.72864 0.20504 0.0
H565 H 0.31152 0.74225 0.14134 0.0
C566 C 0.31018 0.76133 1.01155 0.0
C567 C 0.30614 0.77106 0.94372 0.0
C568 C 0.28551 0.75343 0.04883 0.0
C569 C 0.27694 0.77268 0.91399 0.0
C570 C 0.25245 0.76486 0.95042 0.0
C571 C 0.23172 0.74727 0.05519 0.0
C572 C 0.2358 0.73755 0.12311 0.0
C573 C 0.25638 0.7552 0.01802 0.0
C574 C 0.265 0.73598 0.15297 0.0
C575 C 0.28946 0.74379 0.11648 0.0
H576 H 0.95555 0.49871 0.03225 0.0
H577 H 1.01299 0.47817 0.85357 0.0
H578 H 0.05636 0.49136 0.91435 0.0
H579 H 0.07871 0.5089 0.0185 0.0
H580 H 0.02129 0.52944 0.19723 0.0
H581 H 0.97792 0.51621 0.13668 0.0
C582 C 0.97753 0.49711 1.00661 0.0
C583 C 0.9807 0.4874 0.93816 0.0
C584 C 1.00274 0.50479 0.04207 0.0
C585 C 1.00957 0.48552 0.90617 0.0
C586 C 0.03458 0.49309 0.94093 0.0
C587 C 0.05674 0.51047 0.0443 0.0
C588 C 0.05356 0.52022 0.11262 0.0
C589 C 0.03153 0.50278 1.00896 0.0
C590 C 0.02471 0.52207 0.14474 0.0
C591 C 0.9997 0.51447 0.1101 0.0
H592 H 0.78921 0.47728 0.78239 0.0
H593 H 0.84362 0.51474 0.86713 0.0
H594 H 0.80262 0.53044 0.83624 0.0
H595 H 0.75191 0.53342 0.78315 0.0
H596 H 0.69791 0.49584 0.69799 0.0
H597 H 0.73859 0.48017 0.73134 0.0
C598 C 0.79228 0.48889 0.79437 0.0
C599 C 0.81963 0.49484 0.82698 0.0
C600 C 0.76875 0.49777 0.77622 0.0
C601 C 0.82292 0.50988 0.8422 0.0
C602 C 0.79947 0.51884 0.82438 0.0
C603 C 0.74891 0.52179 0.77176 0.0
C604 C 0.72179 0.51581 0.7377 0.0
C605 C 0.77238 0.51289 0.79102 0.0
C606 C 0.71844 0.50072 0.72388 0.0
C607 C 0.74171 0.49178 0.74297 0.0
H608 H 0.02824 0.22441 0.72901 0.0
H609 H 0.09044 0.26153 0.69416 0.0
H610 H 0.05267 0.27771 0.74441 0.0
H611 H 1.00246 0.2812 0.79804 0.0
H612 H 0.94003 0.24417 0.83248 0.0
H613 H 0.97788 0.22792 0.783 0.0
C614 C 0.03364 0.23605 0.73207 0.0
C615 C 0.06223 0.24176 0.70754 0.0
C616 C 1.0119 0.24523 0.76137 0.0
C617 C 0.06868 0.25686 0.71228 0.0
C618 C 0.0471 0.26609 0.74123 0.0
C619 C 0.99699 0.26956 0.79513 0.0
C620 C 0.96833 0.2639 0.8192 0.0
C621 C 0.01872 0.26037 0.76606 0.0
C622 C 0.96185 0.2488 0.81469 0.0
C623 C 0.98347 0.23954 0.78615 0.0
H624 H 0.75914 0.2277 0.11602 0.0
H625 H 0.68651 0.25338 0.03813 0.0
H626 H 0.72184 0.27113 0.97167 0.0
H627 H 0.77334 0.27966 0.93748 0.0
H628 H 0.84608 0.25388 1.01289 0.0
H629 H 0.81074 0.23595 0.0784 0.0
C630 C 0.75095 0.23717 0.08445 0.0
C631 C 0.72003 0.23917 0.08274 0.0
C632 C 0.77148 0.24737 0.04597 0.0
C633 C 0.71005 0.2515 0.04086 0.0
C634 C 0.7303 0.2617 1.00281 0.0
C635 C 0.78157 0.27013 0.9682 0.0
C636 C 0.81251 0.26822 0.9703 0.0
C637 C 0.76107 0.25979 1.00534 0.0
C638 C 0.82252 0.25569 1.01005 0.0
C639 C 0.80226 0.24542 0.04769 0.0
H640 H 0.27921 0.97628 0.75912 0.0
H641 H 0.33196 0.01328 0.85734 0.0
H642 H 0.29082 0.02897 0.82883 0.0
H643 H 0.24032 0.03206 0.77559 0.0
H644 H 0.1877 0.99502 0.67736 0.0
H645 H 0.22874 0.97934 0.70655 0.0
C646 C 0.28185 0.98779 0.77452 0.0
C647 C 0.30875 0.99361 0.81043 0.0
C648 C 0.25821 0.99667 0.75787 0.0
C649 C 0.31158 0.00853 0.82981 0.0
C650 C 0.28806 0.01748 0.81344 0.0
C651 C 0.2377 0.02055 0.76038 0.0
C652 C 0.21087 0.01472 0.72408 0.0
C653 C 0.26133 0.01165 0.77738 0.0
C654 C 0.20802 0.99978 0.70515 0.0
C655 C 0.23149 0.99084 0.72188 0.0
H656 H 0.25741 0.22832 0.57847 0.0
H657 H 0.18412 0.25463 0.51501 0.0
H658 H 0.21905 0.27313 0.45292 0.0
H659 H 0.2704 0.28174 0.4153 0.0
H660 H 0.34349 0.25534 0.47954 0.0
H661 H 0.30859 0.23705 0.54293 0.0
C662 C 0.24895 0.23809 0.55111 0.0
C663 C 0.218 0.24001 0.55154 0.0
C664 C 0.26919 0.24871 0.51569 0.0
C665 C 0.20771 0.25281 0.51587 0.0
C666 C 0.22772 0.26341 0.48025 0.0
C667 C 0.27879 0.27201 0.44333 0.0
C668 C 0.3097 0.26997 0.44219 0.0
C669 C 0.25851 0.26147 0.47967 0.0
C670 C 0.31995 0.25725 0.4791 0.0
C671 C 0.29995 0.24675 0.5154 0.0
H672 H 1.00722 0.9751 0.41709 0.0
H673 H 0.93319 1.00217 0.45808 0.0
H674 H 0.96653 0.02058 0.52699 0.0
H675 H 1.01669 0.02895 0.57631 0.0
H676 H 0.09061 1.00184 0.53414 0.0
H677 H 0.05729 0.98355 0.46485 0.0
C678 C 0.99825 0.98502 0.44103 0.0
C679 C 0.96757 0.98719 0.43216 0.0
C680 C 0.0176 0.99558 0.48041 0.0
C681 C 0.95661 1.00017 0.46362 0.0
C682 C 0.97571 0.01071 0.50318 0.0
C683 C 0.02561 0.01906 0.55197 0.0
C684 C 0.05628 0.01682 0.56095 0.0
C685 C 1.00625 0.00854 0.51199 0.0
C686 C 0.06722 0.0039 0.52856 0.0
C687 C 0.04813 0.9934 0.48885 0.0
H688 H 0.75146 0.03046 0.20635 0.0
H689 H 0.69502 0.99369 0.12171 0.0
H690 H 0.7344 0.97731 0.15675 0.0
H691 H 0.7841 0.97354 0.21402 0.0
H692 H 0.84018 0.01035 0.29993 0.0
H693 H 0.80123 0.02674 0.2619 0.0
C694 C 0.74764 0.01886 0.19513 0.0
C695 C 0.7202 0.0133 0.16136 0.0
C696 C 0.7702 0.00958 0.21609 0.0
C697 C 0.71587 0.99825 0.14734 0.0
C698 C 0.73835 0.98891 0.16764 0.0
C699 C 0.78793 0.98515 0.22463 0.0
C700 C 0.8151 0.99072 0.26019 0.0
C701 C 0.76549 0.99446 0.20256 0.0
C702 C 0.81954 0.00579 0.27299 0.0
C703 C 0.79728 0.01514 0.25113 0.0
H704 H 0.75722 0.73375 0.66013 0.0
H705 H 0.68985 0.74834 0.48979 0.0
H706 H 0.72797 0.76269 0.40991 0.0
H707 H 0.78054 0.77103 0.38755 0.0
H708 H 0.84786 0.75639 0.55789 0.0
H709 H 0.80968 0.74219 0.63829 0.0
C710 C 0.75076 0.74008 0.60563 0.0
C711 C 0.72049 0.73992 0.58139 0.0
C712 C 0.77288 0.74832 0.55974 0.0
C713 C 0.7128 0.74824 0.51039 0.0
C714 C 0.73467 0.75645 0.46447 0.0
C715 C 0.78696 0.76474 0.44225 0.0
C716 C 0.81726 0.76484 0.46627 0.0
C717 C 0.7648 0.75657 0.48842 0.0
C718 C 0.82489 0.75659 0.5376 0.0
C719 C 0.803 0.74844 0.58374 0.0
H720 H 0.49547 0.78101 0.76658 0.0
H721 H 0.44251 0.74391 0.86328 0.0
H722 H 0.4829 0.72807 0.82802 0.0
H723 H 0.53298 0.72494 0.77072 0.0
H724 H 0.5857 0.76211 0.67377 0.0
H725 H 0.54523 0.77788 0.70853 0.0
C726 C 0.49258 0.76945 0.78023 0.0
C727 C 0.46587 0.76366 0.81793 0.0
C728 C 0.5158 0.76049 0.75975 0.0
C729 C 0.46272 0.74865 0.83453 0.0
C730 C 0.48584 0.73962 0.81435 0.0
C731 C 0.53577 0.7365 0.75702 0.0
C732 C 0.5625 0.74235 0.71962 0.0
C733 C 0.51244 0.74545 0.77711 0.0
C734 C 0.56549 0.75733 0.70238 0.0
C735 C 0.54234 0.76633 0.72231 0.0
H736 H 0.52547 0.52859 0.63573 0.0
H737 H 0.59714 0.50469 0.53238 0.0
H738 H 0.56098 0.48812 0.45993 0.0
H739 H 0.50905 0.48029 0.42615 0.0
H740 H 0.43731 0.50423 0.52862 0.0
H741 H 0.47346 0.52085 0.60102 0.0
C742 C 0.53328 0.51976 0.59742 0.0
C743 C 0.56419 0.51794 0.58997 0.0
C744 C 0.51228 0.51024 0.55566 0.0
C745 C 0.57364 0.50642 0.53961 0.0
C746 C 0.55291 0.4969 0.49807 0.0
C747 C 0.5012 0.48914 0.46424 0.0
C748 C 0.47029 0.49094 0.47163 0.0
C749 C 0.52218 0.4987 0.50568 0.0
C750 C 0.46081 0.50253 0.52144 0.0
C751 C 0.48154 0.51205 0.563 0.0
H752 H 0.49646 0.28283 0.24326 0.0
H753 H 0.43922 0.24636 0.32869 0.0
H754 H 0.47918 0.22993 0.30119 0.0
H755 H 0.53 0.22604 0.25318 0.0
H756 H 0.58739 0.26252 0.16868 0.0
H757 H 0.54736 0.27895 0.19562 0.0
C758 C 0.49259 0.27128 0.256 0.0
C759 C 0.46477 0.26583 0.28807 0.0
C760 C 0.51562 0.26196 0.2401 0.0
C761 C 0.46034 0.25084 0.30414 0.0
C762 C 0.48318 0.24146 0.28834 0.0
C763 C 0.53387 0.23758 0.24034 0.0
C764 C 0.56174 0.24304 0.20864 0.0
C765 C 0.51086 0.24691 0.25629 0.0
C766 C 0.56623 0.25803 0.19288 0.0
C767 C 0.54334 0.26741 0.20835 0.0
H768 H 0.50413 0.98204 0.87457 0.0
H769 H 0.43487 0.9994 0.02856 0.0
H770 H 0.47197 0.01542 0.10146 0.0
H771 H 0.52418 0.02451 0.12195 0.0
H772 H 0.59324 0.00732 0.96633 0.0
H773 H 0.55613 0.99134 0.89369 0.0
C774 C 0.49705 0.9893 0.92418 0.0
C775 C 0.46657 0.98942 0.94595 0.0
C776 C 0.51854 0.99858 0.96555 0.0
C777 C 0.45804 0.99901 1.01024 0.0
C778 C 0.47931 0.0082 0.05204 0.0
C779 C 0.53119 0.0173 0.07206 0.0
C780 C 0.56166 0.01718 0.05 0.0
C781 C 0.50964 0.00809 0.03025 0.0
C782 C 0.57009 0.00772 0.98491 0.0
C783 C 0.54882 0.99853 0.94329 0.0
H784 H 0.10109 0.52533 0.56477 0.0
H785 H 0.18637 0.54345 0.47793 0.0
H786 H 0.2023 0.54756 0.6249 0.0
H787 H 0.19206 0.5457 0.7779 0.0
H788 H 0.10605 0.52814 0.86409 0.0
H789 H 0.09068 0.52369 0.71773 0.0
C790 C 0.12318 0.53011 0.57836 0.0
C791 C 0.14243 0.53417 0.5111 0.0
C792 C 0.13218 0.53239 0.66274 0.0
C793 C 0.17094 0.54049 0.52887 0.0
C794 C 0.18015 0.54273 0.6128 0.0
C795 C 0.1699 0.54101 0.76467 0.0
C796 C 0.15042 0.53719 0.83205 0.0
C797 C 0.16092 0.53873 0.68019 0.0
C798 C 0.12184 0.53092 0.81378 0.0
C799 C 0.11285 0.52849 0.72993 0.0
H800 H 0.10742 0.70344 0.79244 0.0
H801 H 0.1769 0.73477 0.8736 0.0
H802 H 0.19472 0.73737 0.72818 0.0
H803 H 0.18958 0.7316 0.57773 0.0
H804 H 0.11745 0.70213 0.49292 0.0
H805 H 0.10218 0.6977 0.63996 0.0
C806 C 0.12629 0.71091 0.77817 0.0
C807 C 0.14082 0.71881 0.84409 0.0
C808 C 0.13616 0.71261 0.69379 0.0
C809 C 0.16556 0.72832 0.82462 0.0
C810 C 0.17573 0.7299 0.74126 0.0
C811 C 0.17042 0.72426 0.59117 0.0
C812 C 0.15464 0.71735 0.52408 0.0
C813 C 0.16107 0.72219 0.67541 0.0
C814 C 0.13032 0.70754 0.543 0.0
C815 C 0.1213 0.70511 0.62721 0.0
H816 H 0.86224 0.46659 0.5306 0.0
H817 H 0.95197 0.48477 0.49918 0.0
H818 H 0.9476 0.48247 0.34433 0.0
H819 H 0.91796 0.47549 0.2168 0.0
H820 H 0.82712 0.4585 0.24948 0.0
H821 H 0.83236 0.46001 0.40311 0.0
C822 C 0.88092 0.46986 0.48981 0.0
C823 C 0.90745 0.47577 0.52664 0.0
C824 C 0.87804 0.46876 0.40036 0.0
C825 C 0.93128 0.48023 0.47256 0.0
C826 C 0.92878 0.47892 0.38388 0.0
C827 C 0.8992 0.47222 0.25721 0.0
C828 C 0.87227 0.46672 0.2201 0.0
C829 C 0.90216 0.4733 0.34677 0.0
C830 C 0.84839 0.46248 0.27485 0.0
C831 C 0.85126 0.46342 0.36344 0.0
H832 H 0.9485 0.29539 0.26772 0.0
H833 H 0.86795 0.2721 0.18087 0.0
H834 H 0.85283 0.26741 0.32691 0.0
H835 H 0.86038 0.27134 0.47928 0.0
H836 H 0.93863 0.29634 0.5668 0.0
H837 H 0.95661 0.29885 0.42089 0.0
C838 C 0.9276 0.28933 0.28045 0.0
C839 C 0.90949 0.28423 0.21249 0.0
C840 C 0.91845 0.28699 0.3651 0.0
C841 C 0.88274 0.27609 0.23094 0.0
C842 C 0.87382 0.27348 0.3149 0.0
C843 C 0.88128 0.27741 0.46661 0.0
C844 C 0.89789 0.28373 0.53424 0.0
C845 C 0.89119 0.27913 0.38235 0.0
C846 C 0.92538 0.29123 0.51647 0.0
C847 C 0.93563 0.29278 0.43277 0.0
H848 H 0.1326 0.02133 0.32594 0.0
H849 H 0.18216 0.06268 0.29667 0.0
H850 H 0.17566 0.06143 0.14338 0.0
H851 H 0.15442 0.0491 0.01508 0.0
H852 H 0.10375 0.00816 0.04419 0.0
H853 H 0.11194 0.00886 0.19779 0.0
C854 C 0.14192 0.03011 0.28642 0.0
C855 C 0.15811 0.04203 0.32468 0.0
C856 C 0.13782 0.02946 0.19691 0.0
C857 C 0.17008 0.0532 0.27072 0.0
C858 C 0.1662 0.05256 0.18217 0.0
C859 C 0.1455 0.04026 0.0549 0.0
C860 C 0.12834 0.02863 0.01735 0.0
C861 C 0.15006 0.04078 0.14424 0.0
C862 C 0.1167 0.01735 0.07079 0.0
C863 C 0.12144 0.01772 0.15904 0.0
H864 H 0.08424 0.20924 0.25194 0.0
H865 H 0.1596 0.23673 0.33773 0.0
H866 H 0.17471 0.24119 0.19176 0.0
H867 H 0.16887 0.2361 0.03998 0.0
H868 H 0.09623 0.20704 0.95395 0.0
H869 H 0.07794 0.20445 0.09956 0.0
C870 C 0.10405 0.21616 0.2393 0.0
C871 C 0.12071 0.22245 0.30721 0.0
C872 C 0.11333 0.21838 0.15464 0.0
C873 C 0.14594 0.23171 0.28813 0.0
C874 C 0.15488 0.23422 0.20406 0.0
C875 C 0.14917 0.22911 0.05285 0.0
C876 C 0.13419 0.22171 0.98568 0.0
C877 C 0.13911 0.22738 0.137 0.0
C878 C 0.10819 0.21299 1.00385 0.0
C879 C 0.09777 0.21141 0.0874 0.0
H880 H 0.8573 0.96194 0.9771 0.0
H881 H 0.9399 0.98744 0.94005 0.0
H882 H 0.93322 0.9864 0.78662 0.0
H883 H 0.90537 0.97733 0.66086 0.0
H884 H 0.82121 0.95302 0.69714 0.0
H885 H 0.8272 0.95461 0.85047 0.0
C886 C 0.87366 0.96744 0.93573 0.0
C887 C 0.89942 0.97451 0.97152 0.0
C888 C 0.86961 0.96693 0.84609 0.0
C889 C 0.92024 0.98155 0.91556 0.0
C890 C 0.91638 0.98104 0.8271 0.0
C891 C 0.88808 0.97249 0.70168 0.0
C892 C 0.8631 0.96481 0.66524 0.0
C893 C 0.89139 0.97358 0.79127 0.0
C894 C 0.84115 0.95869 0.72132 0.0
C895 C 0.84441 0.95967 0.81003 0.0
H896 H 0.90282 0.79897 0.04263 0.0
H897 H 0.88878 0.75229 0.01653 0.0
H898 H 0.89468 0.75431 0.86357 0.0
H899 H 0.90482 0.76912 0.73467 0.0
H900 H 0.92098 0.81559 0.75974 0.0
H901 H 0.91372 0.81378 0.91369 0.0
C902 C 0.90123 0.78921 1.0039 0.0
C903 C 0.89496 0.77552 0.04289 0.0
C904 C 0.90516 0.79036 0.91456 0.0
C905 C 0.89289 0.76306 0.99001 0.0
C906 C 0.89649 0.76416 0.90164 0.0
C907 C 0.90651 0.77886 0.77374 0.0
C908 C 0.91354 0.79246 0.73513 0.0
C909 C 0.9026 0.77773 0.86296 0.0
C910 C 0.91598 0.80494 0.78738 0.0
C911 C 0.91171 0.80393 0.87572 0.0
H912 H 0.63257 0.51602 0.06371 0.0
H913 H 0.65943 0.56021 0.99326 0.0
H914 H 0.6743 0.56554 0.14007 0.0
H915 H 0.67784 0.5579 0.28934 0.0
H916 H 0.6508 0.51372 0.35969 0.0
H917 H 0.63735 0.5082 0.21218 0.0
C918 C 0.64145 0.52685 0.08053 0.0
C919 C 0.64475 0.53771 0.01756 0.0
C920 C 0.64982 0.52985 0.16509 0.0
C921 C 0.65689 0.55161 0.04029 0.0
C922 C 0.66527 0.55469 0.12431 0.0
C923 C 0.66945 0.54701 0.27228 0.0
C924 C 0.66526 0.53626 0.33572 0.0
C925 C 0.66172 0.54391 0.1873 0.0
C926 C 0.65387 0.52225 0.31246 0.0
C927 C 0.64627 0.51907 0.22803 0.0
H928 H 0.6774 0.73124 0.0465 0.0
H929 H 0.60439 0.70245 0.96057 0.0
H930 H 0.58946 0.69762 0.10766 0.0
H931 H 0.59526 0.70286 0.26069 0.0
H932 H 0.66616 0.73326 0.34351 0.0
H933 H 0.68354 0.73625 0.19784 0.0
C934 C 0.65817 0.72394 0.05986 0.0
C935 C 0.64199 0.71734 0.9925 0.0
C936 C 0.64915 0.72157 0.1442 0.0
C937 C 0.61752 0.7076 1.011 0.0
C938 C 0.60873 0.70494 0.09521 0.0
C939 C 0.61439 0.71018 0.24673 0.0
C940 C 0.62937 0.71775 0.31315 0.0
C941 C 0.62405 0.71209 0.16223 0.0
C942 C 0.65444 0.72707 0.2941 0.0
C943 C 0.66435 0.72889 0.21059 0.0
H944 H 0.4038 0.4933 0.99125 0.0
H945 H 0.36774 0.45076 0.06685 0.0
H946 H 0.35233 0.44554 0.9204 0.0
H947 H 0.35161 0.45255 0.77004 0.0
H948 H 0.38684 0.49533 0.6945 0.0
H949 H 0.40051 0.50085 0.8415 0.0
C950 C 0.39268 0.48288 0.97554 0.0
C951 C 0.38709 0.47241 0.03976 0.0
C952 C 0.38392 0.47995 0.89115 0.0
C953 C 0.37211 0.45905 0.01873 0.0
C954 C 0.36343 0.45603 0.93492 0.0
C955 C 0.3618 0.46318 0.78553 0.0
C956 C 0.3684 0.47342 0.72047 0.0
C957 C 0.36946 0.46635 0.87047 0.0
C958 C 0.38197 0.48708 0.74251 0.0
C959 C 0.3897 0.4903 0.82683 0.0
H960 H 0.40821 0.30208 0.99362 0.0
H961 H 0.36129 0.2601 0.96702 0.0
H962 H 0.36951 0.26073 0.81343 0.0
H963 H 0.38918 0.27337 0.68447 0.0
H964 H 0.43533 0.31561 0.71097 0.0
H965 H 0.42863 0.31456 0.86454 0.0
C966 C 0.40011 0.293 0.95435 0.0
C967 C 0.38395 0.28111 0.9926 0.0
C968 C 0.40475 0.29345 0.86499 0.0
C969 C 0.3734 0.26951 0.93988 0.0
C970 C 0.37818 0.26983 0.85163 0.0
C971 C 0.39769 0.28239 0.72354 0.0
C972 C 0.41298 0.2945 0.68466 0.0
C973 C 0.39354 0.28181 0.81305 0.0
C974 C 0.42396 0.30599 0.73776 0.0
C975 C 0.41997 0.30546 0.82632 0.0
H976 H 0.64873 0.05134 0.47184 0.0
H977 H 0.63017 0.0049 0.49746 0.0
H978 H 0.63637 0.00672 0.65031 0.0
H979 H 0.64798 0.02126 0.77925 0.0
H980 H 0.6687 0.06742 0.75476 0.0
H981 H 0.6612 0.06586 0.60089 0.0
C982 C 0.64623 0.04158 0.51046 0.0
C983 C 0.63856 0.02804 0.47141 0.0
C984 C 0.65033 0.04261 0.59974 0.0
C985 C 0.63534 0.01558 0.52409 0.0
C986 C 0.63912 0.01656 0.61238 0.0
C987 C 0.65061 0.03098 0.74031 0.0
C988 C 0.65898 0.04442 0.77903 0.0
C989 C 0.64656 0.03 0.65117 0.0
C990 C 0.66264 0.05689 0.72699 0.0
C991 C 0.65823 0.05602 0.63871 0.0
H992 H 0.58306 0.21365 0.78086 0.0
H993 H 0.67319 0.22399 0.86346 0.0
H994 H 0.68865 0.22897 0.71707 0.0
H995 H 0.67704 0.2297 0.566 0.0
H996 H 0.58674 0.22024 0.48118 0.0
H997 H 0.57097 0.21539 0.62769 0.0
C998 C 0.60604 0.21697 0.76633 0.0
C999 C 0.62691 0.21852 0.83259 0.0
C1000 C 0.61479 0.2199 0.6818 0.0
C1001 C 0.65662 0.22293 0.81356 0.0
C1002 C 0.66553 0.22571 0.72987 0.0
C1003 C 0.6538 0.22682 0.57927 0.0
C1004 C 0.63324 0.2253 0.51216 0.0
C1005 C 0.64481 0.22421 0.66357 0.0
C1006 C 0.60326 0.22128 0.53109 0.0
C1007 C 0.59414 0.21856 0.61506 0.0
H1008 H 0.37362 0.95646 0.51121 0.0
H1009 H 0.40525 1.00148 0.48604 0.0
H1010 H 0.39762 1.0003 0.333 0.0
H1011 H 0.38196 0.9866 0.20396 0.0
H1012 H 0.34935 0.94175 0.22834 0.0
H1013 H 0.35694 0.94286 0.38205 0.0
C1014 C 0.37859 0.96605 0.47248 0.0
C1015 C 0.39038 0.97898 0.51132 0.0
C1016 C 0.37392 0.96537 0.3833 0.0
C1017 C 0.39679 0.99125 0.45898 0.0
C1018 C 0.39226 0.99063 0.37082 0.0
C1019 C 0.37668 0.97704 0.24277 0.0
C1020 C 0.36495 0.96414 0.2038 0.0
C1021 C 0.38102 0.97774 0.33195 0.0
C1022 C 0.35798 0.95192 0.25596 0.0
C1023 C 0.36246 0.95251 0.34428 0.0
H1024 H 0.416 0.80827 0.26024 0.0
H1025 H 0.39943 0.76304 0.19364 0.0
H1026 H 0.38651 0.75719 0.34164 0.0
H1027 H 0.38051 0.76494 0.48945 0.0
H1028 H 0.39513 0.8104 0.55537 0.0
H1029 H 0.40874 0.81613 0.40818 0.0
C1030 C 0.40988 0.79712 0.27851 0.0
C1031 C 0.40883 0.78607 0.21651 0.0
C1032 C 0.40217 0.79389 0.36336 0.0
C1033 C 0.40025 0.77171 0.2404 0.0
C1034 C 0.39293 0.76837 0.32489 0.0
C1035 C 0.38625 0.77614 0.47176 0.0
C1036 C 0.38685 0.7872 0.53391 0.0
C1037 C 0.39373 0.77939 0.38682 0.0
C1038 C 0.39489 0.80162 0.5094 0.0
C1039 C 0.40256 0.80493 0.42507 0.0
H1040 H 0.17707 0.60342 0.12556 0.0
H1041 H 0.08112 0.60334 0.11898 0.0
H1042 H 0.08419 0.62994 0.10697 0.0
H1043 H 0.1139 0.65316 0.11315 0.0
H1044 H 0.20965 0.65328 0.13159 0.0
H1045 H 0.20693 0.62664 0.123 0.0
C1046 C 0.15678 0.60921 0.1218 0.0
C1047 C 0.12883 0.6014 0.12511 0.0
C1048 C 0.15872 0.62448 0.11723 0.0
C1049 C 0.10286 0.60905 0.11692 0.0
C1050 C 0.10462 0.62427 0.11059 0.0
C1051 C 0.13422 0.64737 0.1154 0.0
C1052 C 0.16194 0.65521 0.12485 0.0
C1053 C 0.13239 0.63209 0.11311 0.0
C1054 C 0.18807 0.64755 0.12456 0.0
C1055 C 0.18648 0.63231 0.12033 0.0
H1056 H 0.94098 0.40108 0.90381 0.0
H1057 H 0.84886 0.40968 0.94422 0.0
H1058 H 0.83589 0.38362 0.95918 0.0
H1059 H 0.84988 0.35815 0.94464 0.0
H1060 H 0.94166 0.34959 0.89782 0.0
H1061 H 0.95571 0.37565 0.90249 0.0
C1062 C 0.91824 0.39721 0.9176 0.0
C1063 C 0.89588 0.4072 0.92213 0.0
C1064 C 0.91081 0.38216 0.92416 0.0
C1065 C 0.86639 0.40211 0.9396 0.0
C1066 C 0.85894 0.38722 0.94806 0.0
C1067 C 0.87297 0.36204 0.93717 0.0
C1068 C 0.89465 0.35205 0.92008 0.0
C1069 C 0.88081 0.3771 0.93801 0.0
C1070 C 0.92455 0.35716 0.9101 0.0
C1071 C 0.9326 0.37204 0.91269 0.0
H1072 H 0.10509 0.10674 0.54645 0.0
H1073 H 0.16895 0.0992 0.74484 0.0
H1074 H 0.18633 0.12458 0.7414 0.0
H1075 H 0.18142 0.14943 0.69011 0.0
H1076 H 0.12032 0.15738 0.48694 0.0
H1077 H 0.10478 0.13135 0.48185 0.0
C1078 C 0.123 0.11059 0.58829 0.0
C1079 C 0.13466 0.10103 0.64825 0.0
C1080 C 0.13375 0.12531 0.58453 0.0
C1081 C 0.15827 0.10632 0.70093 0.0
C1082 C 0.16868 0.12086 0.69829 0.0
C1083 C 0.16522 0.14536 0.64345 0.0
C1084 C 0.15207 0.1552 0.58894 0.0
C1085 C 0.15624 0.1305 0.64162 0.0
C1086 C 0.13101 0.14991 0.52881 0.0
C1087 C 0.12187 0.13507 0.52666 0.0
H1088 H 0.88701 0.90009 0.45512 0.0
H1089 H 0.92088 0.90066 0.19738 0.0
H1090 H 0.91185 0.87438 0.18772 0.0
H1091 H 0.89333 0.85148 0.24955 0.0
H1092 H 0.86575 0.84971 0.51325 0.0
H1093 H 0.87185 0.87628 0.52188 0.0
C1094 C 0.89297 0.89442 0.39754 0.0
C1095 C 0.90434 0.9024 0.32674 0.0
C1096 C 0.88808 0.87915 0.39257 0.0
C1097 C 0.91166 0.89485 0.25232 0.0
C1098 C 0.90645 0.87981 0.24659 0.0
C1099 C 0.88908 0.85677 0.30973 0.0
C1100 C 0.8794 0.84841 0.38082 0.0
C1101 C 0.89438 0.87189 0.31587 0.0
C1102 C 0.87288 0.85574 0.45687 0.0
C1103 C 0.87683 0.87096 0.46233 0.0
H1104 H 0.6101 0.65252 0.57483 0.0
H1105 H 0.70434 0.65496 0.62783 0.0
H1106 H 0.70432 0.62831 0.62619 0.0
H1107 H 0.67645 0.60452 0.62562 0.0
H1108 H 0.58167 0.60212 0.58112 0.0
H1109 H 0.58294 0.62863 0.56281 0.0
C1110 C 0.63068 0.64721 0.58566 0.0
C1111 C 0.65712 0.65569 0.60303 0.0
C1112 C 0.6303 0.63194 0.58681 0.0
C1113 C 0.68375 0.64869 0.61445 0.0
C1114 C 0.68366 0.63346 0.61419 0.0
C1115 C 0.65605 0.6098 0.61181 0.0
C1116 C 0.62885 0.60142 0.60652 0.0
C1117 C 0.6569 0.62501 0.60311 0.0
C1118 C 0.6028 0.60834 0.58589 0.0
C1119 C 0.60353 0.62349 0.57591 0.0
H1120 H 0.43819 0.40225 0.34057 0.0
H1121 H 0.37308 0.40925 0.53537 0.0
H1122 H 0.35825 0.38313 0.5366 0.0
H1123 H 0.36012 0.35878 0.46925 0.0
H1124 H 0.42789 0.35216 0.27955 0.0
H1125 H 0.44484 0.37756 0.28842 0.0
C1126 C 0.4214 0.39794 0.38503 0.0
C1127 C 0.40689 0.40753 0.43819 0.0
C1128 C 0.41278 0.38302 0.3844 0.0
C1129 C 0.38488 0.40195 0.49491 0.0
C1130 C 0.37613 0.38706 0.4947 0.0
C1131 C 0.37881 0.36282 0.4306 0.0
C1132 C 0.3917 0.35353 0.37115 0.0
C1133 C 0.3893 0.37755 0.43766 0.0
C1134 C 0.41628 0.35907 0.32271 0.0
C1135 C 0.42645 0.37363 0.32856 0.0
H1136 H 0.64248 0.15273 0.04308 0.0
H1137 H 0.67406 0.154 0.30244 0.0
H1138 H 0.66497 0.12769 0.31428 0.0
H1139 H 0.64543 0.10475 0.25509 0.0
H1140 H 0.61832 0.10232 0.99144 0.0
H1141 H 0.62667 0.12876 0.97873 0.0
C1142 C 0.64806 0.14716 0.10128 0.0
C1143 C 0.65893 0.1553 0.17186 0.0
C1144 C 0.64262 0.13192 0.10791 0.0
C1145 C 0.66564 0.14797 0.24738 0.0
C1146 C 0.66021 0.13295 0.25444 0.0
C1147 C 0.64182 0.10985 0.194 0.0
C1148 C 0.63143 0.10134 0.12428 0.0
C1149 C 0.6482 0.12488 0.18574 0.0
C1150 C 0.62586 0.10846 0.04692 0.0
C1151 C 0.63111 0.1236 0.03911 0.0
H1152 H 0.34367 0.85708 0.90424 0.0
H1153 H 0.43564 0.85059 0.96093 0.0
H1154 H 0.44674 0.87692 0.96531 0.0
H1155 H 0.43154 0.90177 0.93533 0.0
H1156 H 0.33953 0.90817 0.87707 0.0
H1157 H 0.32725 0.88211 0.89123 0.0
C1158 C 0.36591 0.86149 0.91965 0.0
C1159 C 0.38883 0.85198 0.93146 0.0
C1160 C 0.3723 0.87667 0.9202 0.0
C1161 C 0.41768 0.85777 0.95089 0.0
C1162 C 0.42408 0.87281 0.95307 0.0
C1163 C 0.40876 0.89747 0.92717 0.0
C1164 C 0.38671 0.90685 0.90298 0.0
C1165 C 0.40179 0.88238 0.93496 0.0
C1166 C 0.35717 0.90111 0.89322 0.0
C1167 C 0.35003 0.88621 0.90176 0.0
loop_
_geom_bond_atom_site_label_1
_geom_bond_atom_site_label_2
_geom_bond_distance
_geom_bond_site_symmetry_2
_ccdc_geom_bond_type
C0 C1 1.351 . S
C0 N3 1.368 . S
C0 H5 0.931 . S
C1 C0 1.351 . S
C1 N2 1.373 . S
C1 H29 0.930 . S
N2 C1 1.373 . S
N2 C4 1.340 . S
N3 C0 1.368 . S
N3 C4 1.321 . S
N3 Co6 2.135 1_556 S
C4 N2 1.340 . S
C4 N3 1.321 . S
C4 H28 0.930 . S
H5 C0 0.931 . S
Co6 N3 2.135 1_554 S
Co6 N9 2.121 . S
Co6 O14 2.055 . S
Co6 O17 2.039 . S
Co6 N20 2.140 . S
C7 O8 1.227 . S
C7 O17 1.265 . S
O8 C7 1.227 . S
N9 Co6 2.121 . S
N9 C11 1.375 . S
N9 C12 1.313 . S
C10 C11 1.338 . S
C10 N13 1.377 . S
C10 H30 0.930 . S
C11 N9 1.375 . S
C11 C10 1.338 . S
C11 H15 0.931 . S
C12 N9 1.313 . S
C12 N13 1.344 . S
C12 H16 0.930 . S
N13 C10 1.377 . S
N13 C12 1.344 . S
O14 Co6 2.055 . S
O14 C18 1.253 . S
H15 C11 0.931 . S
H16 C12 0.930 . S
O17 Co6 2.039 . S
O17 C7 1.265 . S
C18 O14 1.253 . S
C18 O19 1.227 . S
O19 C18 1.227 . S
N20 Co6 2.140 . S
N20 C23 1.346 . S
N20 C24 1.345 . S
C21 C22 1.387 . S
C21 C25 1.391 . S
C22 C21 1.387 . S
C22 C23 1.369 . S
C22 H31 0.929 . S
C23 N20 1.346 . S
C23 C22 1.369 . S
C23 H26 0.928 . S
C24 N20 1.345 . S
C24 C25 1.371 . S
C24 H27 0.931 . S
C25 C21 1.391 . S
C25 C24 1.371 . S
C25 H32 0.930 . S
H26 C23 0.928 . S
H27 C24 0.931 . S
H28 C4 0.930 . S
H29 C1 0.930 . S
H30 C10 0.930 . S
H31 C22 0.929 . S
H32 C25 0.930 . S
C33 C34 1.351 . S
C33 N36 1.368 . S
C33 H38 0.931 . S
C34 C33 1.351 . S
C34 N35 1.373 . S
C34 H62 0.930 . S
N35 C34 1.373 . S
N35 C37 1.340 . S
N36 C33 1.368 . S
N36 C37 1.321 . S
N36 Co39 2.135 1_556 S
C37 N35 1.340 . S
C37 N36 1.321 . S
C37 H61 0.930 . S
H38 C33 0.931 . S
Co39 N36 2.135 1_554 S
Co39 N42 2.121 . S
Co39 O47 2.055 . S
Co39 O50 2.039 . S
Co39 N53 2.140 . S
C40 O41 1.227 . S
C40 O50 1.265 . S
O41 C40 1.227 . S
N42 Co39 2.121 . S
N42 C44 1.375 . S
N42 C45 1.313 . S
C43 C44 1.338 . S
C43 N46 1.377 . S
C43 H63 0.930 . S
C44 N42 1.375 . S
C44 C43 1.338 . S
C44 H48 0.931 . S
C45 N42 1.313 . S
C45 N46 1.344 . S
C45 H49 0.930 . S
N46 C43 1.377 . S
N46 C45 1.344 . S
O47 Co39 2.055 . S
O47 C51 1.253 . S
H48 C44 0.931 . S
H49 C45 0.930 . S
O50 Co39 2.039 . S
O50 C40 1.265 . S
C51 O47 1.253 . S
C51 O52 1.227 . S
O52 C51 1.227 . S
N53 Co39 2.140 . S
N53 C56 1.346 . S
N53 C57 1.345 . S
C54 C55 1.387 . S
C54 C58 1.391 . S
C55 C54 1.387 . S
C55 C56 1.369 . S
C55 H64 0.941 . S
C56 N53 1.346 . S
C56 C55 1.369 . S
C56 H59 0.928 . S
C57 N53 1.345 . S
C57 C58 1.371 . S
C57 H60 0.931 . S
C58 C54 1.391 . S
C58 C57 1.371 . S
C58 H65 0.930 . S
H59 C56 0.928 . S
H60 C57 0.931 . S
H61 C37 0.930 . S
H62 C34 0.930 . S
H63 C43 0.930 . S
H64 C55 0.941 . S
H65 C58 0.930 . S
C66 C67 1.351 . S
C66 N69 1.368 . S
C66 H71 0.931 . S
C67 C66 1.351 . S
C67 N68 1.373 . S
C67 H95 0.930 . S
N68 C67 1.373 . S
N68 C70 1.340 . S
N69 C66 1.368 . S
N69 C70 1.321 . S
N69 Co72 2.135 1_554 S
C70 N68 1.340 . S
C70 N69 1.321 . S
C70 H94 0.930 . S
H71 C66 0.931 . S
Co72 N69 2.135 1_556 S
Co72 N75 2.121 . S
Co72 O80 2.055 . S
Co72 O83 2.039 . S
Co72 N86 2.140 . S
C73 O74 1.227 . S
C73 O83 1.265 . S
O74 C73 1.227 . S
N75 Co72 2.121 . S
N75 C77 1.375 . S
N75 C78 1.313 . S
C76 C77 1.338 . S
C76 N79 1.377 . S
C76 H96 0.930 . S
C77 N75 1.375 . S
C77 C76 1.338 . S
C77 H81 0.931 . S
C78 N75 1.313 . S
C78 N79 1.344 . S
C78 H82 0.930 . S
N79 C76 1.377 . S
N79 C78 1.344 . S
O80 Co72 2.055 . S
O80 C84 1.253 . S
H81 C77 0.931 . S
H82 C78 0.930 . S
O83 Co72 2.039 . S
O83 C73 1.265 . S
C84 O80 1.253 . S
C84 O85 1.227 . S
O85 C84 1.227 . S
N86 Co72 2.140 . S
N86 C89 1.346 . S
N86 C90 1.345 . S
C87 C88 1.387 . S
C87 C91 1.391 . S
C88 C87 1.387 . S
C88 C89 1.369 . S
C88 H97 0.929 . S
C89 N86 1.346 . S
C89 C88 1.369 . S
C89 H92 0.928 . S
C90 N86 1.345 . S
C90 C91 1.371 . S
C90 H93 0.931 . S
C91 C87 1.391 . S
C91 C90 1.371 . S
C91 H98 0.930 . S
H92 C89 0.928 . S
H93 C90 0.931 . S
H94 C70 0.930 . S
H95 C67 0.930 . S
H96 C76 0.930 . S
H97 C88 0.929 . S
H98 C91 0.930 . S
C99 C100 1.351 . S
C99 N102 1.368 . S
C99 H104 0.931 . S
C100 C99 1.351 . S
C100 N101 1.373 . S
C100 H128 0.930 . S
N101 C100 1.373 . S
N101 C103 1.340 . S
N102 C99 1.368 . S
N102 C103 1.321 . S
N102 Co105 2.135 1_554 S
C103 N101 1.340 . S
C103 N102 1.321 . S
C103 H127 0.930 . S
H104 C99 0.931 . S
Co105 N102 2.135 1_556 S
Co105 N108 2.121 . S
Co105 O113 2.055 . S
Co105 O116 2.039 . S
Co105 N119 2.140 . S
C106 O107 1.227 . S
C106 O116 1.265 . S
O107 C106 1.227 . S
N108 Co105 2.121 . S
N108 C110 1.375 . S
N108 C111 1.313 . S
C109 C110 1.338 . S
C109 N112 1.377 . S
C109 H129 0.930 . S
C110 N108 1.375 . S
C110 C109 1.338 . S
C110 H114 0.931 . S
C111 N108 1.313 . S
C111 N112 1.344 . S
C111 H115 0.930 . S
N112 C109 1.377 . S
N112 C111 1.344 . S
O113 Co105 2.055 . S
O113 C117 1.253 . S
H114 C110 0.931 . S
H115 C111 0.930 . S
O116 Co105 2.039 . S
O116 C106 1.265 . S
C117 O113 1.253 . S
C117 O118 1.227 . S
O118 C117 1.227 . S
N119 Co105 2.140 . S
N119 C122 1.346 . S
N119 C123 1.345 . S
C120 C121 1.387 . S
C120 C124 1.391 . S
C121 C120 1.387 . S
C121 C122 1.369 . S
C121 H130 0.941 . S
C122 N119 1.346 . S
C122 C121 1.369 . S
C122 H125 0.928 . S
C123 N119 1.345 . S
C123 C124 1.371 . S
C123 H126 0.931 . S
C124 C120 1.391 . S
C124 C123 1.371 . S
C124 H131 0.930 . S
H125 C122 0.928 . S
H126 C123 0.931 . S
H127 C103 0.930 . S
H128 C100 0.930 . S
H129 C109 0.930 . S
H130 C121 0.941 . S
H131 C124 0.930 . S
C132 C133 1.351 . S
C132 N135 1.368 . S
C132 H137 0.931 . S
C133 C132 1.351 . S
C133 N134 1.373 . S
C133 H161 0.930 . S
N134 C133 1.373 . S
N134 C136 1.340 . S
N135 C132 1.368 . S
N135 C136 1.321 . S
N135 Co138 2.135 . S
C136 N134 1.340 . S
C136 N135 1.321 . S
C136 H160 0.930 . S
H137 C132 0.931 . S
Co138 N135 2.135 . S
Co138 N141 2.121 . S
Co138 O146 2.055 . S
Co138 O149 2.039 . S
Co138 N152 2.140 . S
C139 O140 1.227 . S
C139 O149 1.265 . S
O140 C139 1.227 . S
N141 Co138 2.121 . S
N141 C143 1.375 . S
N141 C144 1.313 . S
C142 C143 1.338 . S
C142 N145 1.377 . S
C142 H162 0.930 . S
C143 N141 1.375 . S
C143 C142 1.338 . S
C143 H147 0.931 . S
C144 N141 1.313 . S
C144 N145 1.344 . S
C144 H148 0.930 . S
N145 C142 1.377 . S
N145 C144 1.344 . S
O146 Co138 2.055 . S
O146 C150 1.253 . S
H147 C143 0.931 . S
H148 C144 0.930 . S
O149 Co138 2.039 . S
O149 C139 1.265 . S
C150 O146 1.253 . S
C150 O151 1.227 . S
O151 C150 1.227 . S
N152 Co138 2.140 . S
N152 C155 1.346 . S
N152 C156 1.345 . S
C153 C154 1.387 . S
C153 C157 1.391 . S
C154 C153 1.387 . S
C154 C155 1.369 . S
C154 H163 0.929 . S
C155 N152 1.346 . S
C155 C154 1.369 . S
C155 H158 0.928 . S
C156 N152 1.345 . S
C156 C157 1.371 . S
C156 H159 0.931 . S
C157 C153 1.391 . S
C157 C156 1.371 . S
C157 H164 0.930 . S
H158 C155 0.928 . S
H159 C156 0.931 . S
H160 C136 0.930 . S
H161 C133 0.930 . S
H162 C142 0.930 . S
H163 C154 0.929 . S
H164 C157 0.930 . S
C165 C166 1.351 . S
C165 N168 1.368 . S
C165 H170 0.931 . S
C166 C165 1.351 . S
C166 N167 1.373 . S
C166 H194 0.930 . S
N167 C166 1.373 . S
N167 C169 1.340 . S
N168 C165 1.368 . S
N168 C169 1.321 . S
N168 Co171 2.135 . S
C169 N167 1.340 . S
C169 N168 1.321 . S
C169 H193 0.930 . S
H170 C165 0.931 . S
Co171 N168 2.135 . S
Co171 N174 2.121 . S
Co171 O179 2.055 . S
Co171 O182 2.039 . S
Co171 N185 2.140 . S
C172 O173 1.227 . S
C172 O182 1.265 . S
O173 C172 1.227 . S
N174 Co171 2.121 . S
N174 C176 1.375 . S
N174 C177 1.313 . S
C175 C176 1.338 . S
C175 N178 1.377 . S
C175 H195 0.930 . S
C176 N174 1.375 . S
C176 C175 1.338 . S
C176 H180 0.931 . S
C177 N174 1.313 . S
C177 N178 1.344 . S
C177 H181 0.930 . S
N178 C175 1.377 . S
N178 C177 1.344 . S
O179 Co171 2.055 . S
O179 C183 1.253 . S
H180 C176 0.931 . S
H181 C177 0.930 . S
O182 Co171 2.039 . S
O182 C172 1.265 . S
C183 O179 1.253 . S
C183 O184 1.227 . S
O184 C183 1.227 . S
N185 Co171 2.140 . S
N185 C188 1.346 . S
N185 C189 1.345 . S
C186 C187 1.387 . S
C186 C190 1.391 . S
C187 C186 1.387 . S
C187 C188 1.369 . S
C187 H196 0.929 . S
C188 N185 1.346 . S
C188 C187 1.369 . S
C188 H191 0.928 . S
C189 N185 1.345 . S
C189 C190 1.371 . S
C189 H192 0.931 . S
C190 C186 1.391 . S
C190 C189 1.371 . S
C190 H197 0.930 . S
H191 C188 0.928 . S
H192 C189 0.931 . S
H193 C169 0.930 . S
H194 C166 0.930 . S
H195 C175 0.930 . S
H196 C187 0.929 . S
H197 C190 0.930 . S
C198 C199 1.351 . S
C198 N201 1.368 . S
C198 H203 0.931 . S
C199 C198 1.351 . S
C199 N200 1.373 . S
C199 H227 0.930 . S
N200 C199 1.373 . S
N200 C202 1.340 . S
N201 C198 1.368 . S
N201 C202 1.321 . S
N201 Co204 2.135 . S
C202 N200 1.340 . S
C202 N201 1.321 . S
C202 H226 0.930 . S
H203 C198 0.931 . S
Co204 N201 2.135 . S
Co204 N207 2.121 . S
Co204 O212 2.055 . S
Co204 O215 2.039 . S
Co204 N218 2.140 . S
C205 O206 1.227 . S
C205 O215 1.265 . S
O206 C205 1.227 . S
N207 Co204 2.121 . S
N207 C209 1.375 . S
N207 C210 1.313 . S
C208 C209 1.338 . S
C208 N211 1.377 . S
C208 H228 0.930 . S
C209 N207 1.375 . S
C209 C208 1.338 . S
C209 H213 0.931 . S
C210 N207 1.313 . S
C210 N211 1.344 . S
C210 H214 0.930 . S
N211 C208 1.377 . S
N211 C210 1.344 . S
O212 Co204 2.055 . S
O212 C216 1.253 . S
H213 C209 0.931 . S
H214 C210 0.930 . S
O215 Co204 2.039 . S
O215 C205 1.265 . S
C216 O212 1.253 . S
C216 O217 1.227 . S
O217 C216 1.227 . S
N218 Co204 2.140 . S
N218 C221 1.346 . S
N218 C222 1.345 . S
C219 C220 1.387 . S
C219 C223 1.391 . S
C220 C219 1.387 . S
C220 C221 1.369 . S
C220 H229 0.929 . S
C221 N218 1.346 . S
C221 C220 1.369 . S
C221 H224 0.928 . S
C222 N218 1.345 . S
C222 C223 1.371 . S
C222 H225 0.931 . S
C223 C219 1.391 . S
C223 C222 1.371 . S
C223 H230 0.930 . S
H224 C221 0.928 . S
H225 C222 0.931 . S
H226 C202 0.930 . S
H227 C199 0.930 . S
H228 C208 0.930 . S
H229 C220 0.929 . S
H230 C223 0.930 . S
C231 C232 1.351 . S
C231 N234 1.368 . S
C231 H236 0.931 . S
C232 C231 1.351 . S
C232 N233 1.373 . S
C232 H260 0.930 . S
N233 C232 1.373 . S
N233 C235 1.340 . S
N234 C231 1.368 . S
N234 C235 1.321 . S
N234 Co237 2.135 . S
C235 N233 1.340 . S
C235 N234 1.321 . S
C235 H259 0.930 . S
H236 C231 0.931 . S
Co237 N234 2.135 . S
Co237 N240 2.121 . S
Co237 O245 2.055 . S
Co237 O248 2.039 . S
Co237 N251 2.140 . S
C238 O239 1.227 . S
C238 O248 1.265 . S
O239 C238 1.227 . S
N240 Co237 2.121 . S
N240 C242 1.375 . S
N240 C243 1.313 . S
C241 C242 1.338 . S
C241 N244 1.377 . S
C241 H261 0.930 . S
C242 N240 1.375 . S
C242 C241 1.338 . S
C242 H246 0.931 . S
C243 N240 1.313 . S
C243 N244 1.344 . S
C243 H247 0.930 . S
N244 C241 1.377 . S
N244 C243 1.344 . S
O245 Co237 2.055 . S
O245 C249 1.253 . S
H246 C242 0.931 . S
H247 C243 0.930 . S
O248 Co237 2.039 . S
O248 C238 1.265 . S
C249 O245 1.253 . S
C249 O250 1.227 . S
O250 C249 1.227 . S
N251 Co237 2.140 . S
N251 C254 1.346 . S
N251 C255 1.345 . S
C252 C253 1.387 . S
C252 C256 1.391 . S
C253 C252 1.387 . S
C253 C254 1.369 . S
C253 H262 0.929 . S
C254 N251 1.346 . S
C254 C253 1.369 . S
C254 H257 0.928 . S
C255 N251 1.345 . S
C255 C256 1.371 . S
C255 H258 0.931 . S
C256 C252 1.391 . S
C256 C255 1.371 . S
C256 H263 0.930 . S
H257 C254 0.928 . S
H258 C255 0.931 . S
H259 C235 0.930 . S
H260 C232 0.930 . S
H261 C241 0.930 . S
H262 C253 0.929 . S
H263 C256 0.930 . S
C264 C265 1.351 . S
C264 N267 1.368 . S
C264 H269 0.931 . S
C265 C264 1.351 . S
C265 N266 1.373 . S
C265 H293 0.930 . S
N266 C265 1.373 . S
N266 C268 1.340 . S
N267 C264 1.368 . S
N267 C268 1.321 . S
N267 Co270 2.135 . S
C268 N266 1.340 . S
C268 N267 1.321 . S
C268 H292 0.930 . S
H269 C264 0.931 . S
Co270 N267 2.135 . S
Co270 N273 2.121 . S
Co270 O278 2.055 . S
Co270 O281 2.039 . S
Co270 N284 2.140 . S
C271 O272 1.227 . S
C271 O281 1.265 . S
O272 C271 1.227 . S
N273 Co270 2.121 . S
N273 C275 1.375 . S
N273 C276 1.313 . S
C274 C275 1.338 . S
C274 N277 1.377 . S
C274 H294 0.930 . S
C275 N273 1.375 . S
C275 C274 1.338 . S
C275 H279 0.931 . S
C276 N273 1.313 . S
C276 N277 1.344 . S
C276 H280 0.930 . S
N277 C274 1.377 . S
N277 C276 1.344 . S
O278 Co270 2.055 . S
O278 C282 1.253 . S
H279 C275 0.931 . S
H280 C276 0.930 . S
O281 Co270 2.039 . S
O281 C271 1.265 . S
C282 O278 1.253 . S
C282 O283 1.227 . S
O283 C282 1.227 . S
N284 Co270 2.140 . S
N284 C287 1.346 . S
N284 C288 1.345 . S
C285 C286 1.387 . S
C285 C289 1.391 . S
C286 C285 1.387 . S
C286 C287 1.369 . S
C286 H295 0.929 . S
C287 N284 1.346 . S
C287 C286 1.369 . S
C287 H290 0.928 . S
C288 N284 1.345 . S
C288 C289 1.371 . S
C288 H291 0.931 . S
C289 C285 1.391 . S
C289 C288 1.371 . S
C289 H296 0.930 . S
H290 C287 0.928 . S
H291 C288 0.931 . S
H292 C268 0.930 . S
H293 C265 0.930 . S
H294 C274 0.930 . S
H295 C286 0.929 . S
H296 C289 0.930 . S
C297 C298 1.351 . S
C297 N300 1.368 . S
C297 H302 0.931 . S
C298 C297 1.351 . S
C298 N299 1.373 . S
C298 H326 0.930 . S
N299 C298 1.373 . S
N299 C301 1.340 . S
N300 C297 1.368 . S
N300 C301 1.321 . S
N300 Co303 2.135 . S
C301 N299 1.340 . S
C301 N300 1.321 . S
C301 H325 0.930 . S
H302 C297 0.931 . S
Co303 N300 2.135 . S
Co303 N306 2.121 . S
Co303 O311 2.055 . S
Co303 O314 2.039 . S
Co303 N317 2.140 . S
C304 O305 1.227 . S
C304 O314 1.265 . S
O305 C304 1.227 . S
N306 Co303 2.121 . S
N306 C308 1.375 . S
N306 C309 1.313 . S
C307 C308 1.338 . S
C307 N310 1.377 . S
C307 H327 0.930 . S
C308 N306 1.375 . S
C308 C307 1.338 . S
C308 H312 0.931 . S
C309 N306 1.313 . S
C309 N310 1.344 . S
C309 H313 0.930 . S
N310 C307 1.377 . S
N310 C309 1.344 . S
O311 Co303 2.055 . S
O311 C315 1.253 . S
H312 C308 0.931 . S
H313 C309 0.930 . S
O314 Co303 2.039 . S
O314 C304 1.265 . S
C315 O311 1.253 . S
C315 O316 1.227 . S
O316 C315 1.227 . S
N317 Co303 2.140 . S
N317 C320 1.346 . S
N317 C321 1.345 . S
C318 C319 1.387 . S
C318 C322 1.391 . S
C319 C318 1.387 . S
C319 C320 1.369 . S
C319 H328 0.929 . S
C320 N317 1.346 . S
C320 C319 1.369 . S
C320 H323 0.928 . S
C321 N317 1.345 . S
C321 C322 1.371 . S
C321 H324 0.931 . S
C322 C318 1.391 . S
C322 C321 1.371 . S
C322 H329 0.930 . S
H323 C320 0.928 . S
H324 C321 0.931 . S
H325 C301 0.930 . S
H326 C298 0.930 . S
H327 C307 0.930 . S
H328 C319 0.929 . S
H329 C322 0.930 . S
C330 C331 1.351 . S
C330 N333 1.368 . S
C330 H335 0.931 . S
C331 C330 1.351 . S
C331 N332 1.373 . S
C331 H359 0.930 . S
N332 C331 1.373 . S
N332 C334 1.340 . S
N333 C330 1.368 . S
N333 C334 1.321 . S
N333 Co336 2.135 . S
C334 N332 1.340 . S
C334 N333 1.321 . S
C334 H358 0.930 . S
H335 C330 0.931 . S
Co336 N333 2.135 . S
Co336 N339 2.121 . S
Co336 O344 2.055 . S
Co336 O347 2.039 . S
Co336 N350 2.140 . S
C337 O338 1.227 . S
C337 O347 1.265 . S
O338 C337 1.227 . S
N339 Co336 2.121 . S
N339 C341 1.375 . S
N339 C342 1.313 . S
C340 C341 1.338 . S
C340 N343 1.377 . S
C340 H360 0.930 . S
C341 N339 1.375 . S
C341 C340 1.338 . S
C341 H345 0.931 . S
C342 N339 1.313 . S
C342 N343 1.344 . S
C342 H346 0.930 . S
N343 C340 1.377 . S
N343 C342 1.344 . S
O344 Co336 2.055 . S
O344 C348 1.253 . S
H345 C341 0.931 . S
H346 C342 0.930 . S
O347 Co336 2.039 . S
O347 C337 1.265 . S
C348 O344 1.253 . S
C348 O349 1.227 . S
O349 C348 1.227 . S
N350 Co336 2.140 . S
N350 C353 1.346 . S
N350 C354 1.345 . S
C351 C352 1.387 . S
C351 C355 1.391 . S
C352 C351 1.387 . S
C352 C353 1.369 . S
C352 H361 0.929 . S
C353 N350 1.346 . S
C353 C352 1.369 . S
C353 H356 0.928 . S
C354 N350 1.345 . S
C354 C355 1.371 . S
C354 H357 0.931 . S
C355 C351 1.391 . S
C355 C354 1.371 . S
C355 H362 0.930 . S
H356 C353 0.928 . S
H357 C354 0.931 . S
H358 C334 0.930 . S
H359 C331 0.930 . S
H360 C340 0.930 . S
H361 C352 0.929 . S
H362 C355 0.930 . S
C363 C364 1.351 . S
C363 N366 1.368 . S
C363 H368 0.931 . S
C364 C363 1.351 . S
C364 N365 1.373 . S
C364 H392 0.930 . S
N365 C364 1.373 . S
N365 C367 1.340 . S
N366 C363 1.368 . S
N366 C367 1.321 . S
N366 Co369 2.135 . S
C367 N365 1.340 . S
C367 N366 1.321 . S
C367 H391 0.930 . S
H368 C363 0.931 . S
Co369 N366 2.135 . S
Co369 N372 2.121 . S
Co369 O377 2.055 . S
Co369 O380 2.039 . S
Co369 N383 2.140 . S
C370 O371 1.227 . S
C370 O380 1.265 . S
O371 C370 1.227 . S
N372 Co369 2.121 . S
N372 C374 1.375 . S
N372 C375 1.313 . S
C373 C374 1.338 . S
C373 N376 1.377 . S
C373 H393 0.930 . S
C374 N372 1.375 . S
C374 C373 1.338 . S
C374 H378 0.931 . S
C375 N372 1.313 . S
C375 N376 1.344 . S
C375 H379 0.930 . S
N376 C373 1.377 . S
N376 C375 1.344 . S
O377 Co369 2.055 . S
O377 C381 1.253 . S
H378 C374 0.931 . S
H379 C375 0.930 . S
O380 Co369 2.039 . S
O380 C370 1.265 . S
C381 O377 1.253 . S
C381 O382 1.227 . S
O382 C381 1.227 . S
N383 Co369 2.140 . S
N383 C386 1.346 . S
N383 C387 1.345 . S
C384 C385 1.387 . S
C384 C388 1.391 . S
C385 C384 1.387 . S
C385 C386 1.369 . S
C385 H394 0.929 . S
C386 N383 1.346 . S
C386 C385 1.369 . S
C386 H389 0.928 . S
C387 N383 1.345 . S
C387 C388 1.371 . S
C387 H390 0.931 . S
C388 C384 1.391 . S
C388 C387 1.371 . S
C388 H395 0.930 . S
H389 C386 0.928 . S
H390 C387 0.931 . S
H391 C367 0.930 . S
H392 C364 0.930 . S
H393 C373 0.930 . S
H394 C385 0.929 . S
H395 C388 0.930 . S
C396 C397 1.351 . S
C396 N399 1.368 . S
C396 H401 0.931 . S
C397 C396 1.351 . S
C397 N398 1.373 . S
C397 H425 0.930 . S
N398 C397 1.373 . S
N398 C400 1.340 . S
N399 C396 1.368 . S
N399 C400 1.321 . S
N399 Co402 2.135 1_556 S
C400 N398 1.340 . S
C400 N399 1.321 . S
C400 H424 0.930 . S
H401 C396 0.931 . S
Co402 N399 2.135 1_554 S
Co402 N405 2.121 . S
Co402 O410 2.055 . S
Co402 O413 2.039 . S
Co402 N416 2.140 . S
C403 O404 1.227 . S
C403 O413 1.265 . S
O404 C403 1.227 . S
N405 Co402 2.121 . S
N405 C407 1.375 . S
N405 C408 1.313 . S
C406 C407 1.338 . S
C406 N409 1.377 . S
C406 H426 0.930 . S
C407 N405 1.375 . S
C407 C406 1.338 . S
C407 H411 0.931 . S
C408 N405 1.313 . S
C408 N409 1.344 . S
C408 H412 0.930 . S
N409 C406 1.377 . S
N409 C408 1.344 . S
O410 Co402 2.055 . S
O410 C414 1.253 . S
H411 C407 0.931 . S
H412 C408 0.930 . S
O413 Co402 2.039 . S
O413 C403 1.265 . S
C414 O410 1.253 . S
C414 O415 1.227 . S
O415 C414 1.227 . S
N416 Co402 2.140 . S
N416 C419 1.346 . S
N416 C420 1.345 . S
C417 C418 1.387 . S
C417 C421 1.391 . S
C418 C417 1.387 . S
C418 C419 1.369 . S
C418 H427 0.940 . S
C419 N416 1.346 . S
C419 C418 1.369 . S
C419 H422 0.928 . S
C420 N416 1.345 . S
C420 C421 1.371 . S
C420 H423 0.931 . S
C421 C417 1.391 . S
C421 C420 1.371 . S
C421 H428 0.930 . S
H422 C419 0.928 . S
H423 C420 0.931 . S
H424 C400 0.930 . S
H425 C397 0.930 . S
H426 C406 0.930 . S
H427 C418 0.940 . S
H428 C421 0.930 . S
C429 C430 1.351 . S
C429 N432 1.368 . S
C429 H434 0.931 . S
C430 C429 1.351 . S
C430 N431 1.373 . S
C430 H458 0.930 . S
N431 C430 1.373 . S
N431 C433 1.340 . S
N432 C429 1.368 . S
N432 C433 1.321 . S
N432 Co435 2.135 1_556 S
C433 N431 1.340 . S
C433 N432 1.321 . S
C433 H457 0.930 . S
H434 C429 0.931 . S
Co435 N432 2.135 1_554 S
Co435 N438 2.121 . S
Co435 O443 2.055 . S
Co435 O446 2.039 . S
Co435 N449 2.140 . S
C436 O437 1.227 . S
C436 O446 1.265 . S
O437 C436 1.227 . S
N438 Co435 2.121 . S
N438 C440 1.375 . S
N438 C441 1.313 . S
C439 C440 1.338 . S
C439 N442 1.377 . S
C439 H459 0.930 . S
C440 N438 1.375 . S
C440 C439 1.338 . S
C440 H444 0.931 . S
C441 N438 1.313 . S
C441 N442 1.344 . S
C441 H445 0.930 . S
N442 C439 1.377 . S
N442 C441 1.344 . S
O443 Co435 2.055 . S
O443 C447 1.253 . S
H444 C440 0.931 . S
H445 C441 0.930 . S
O446 Co435 2.039 . S
O446 C436 1.265 . S
C447 O443 1.253 . S
C447 O448 1.227 . S
O448 C447 1.227 . S
N449 Co435 2.140 . S
N449 C452 1.346 . S
N449 C453 1.345 . S
C450 C451 1.387 . S
C450 C454 1.391 . S
C451 C450 1.387 . S
C451 C452 1.369 . S
C451 H460 0.940 . S
C452 N449 1.346 . S
C452 C451 1.369 . S
C452 H455 0.928 . S
C453 N449 1.345 . S
C453 C454 1.371 . S
C453 H456 0.931 . S
C454 C450 1.391 . S
C454 C453 1.371 . S
C454 H461 0.930 . S
H455 C452 0.928 . S
H456 C453 0.931 . S
H457 C433 0.930 . S
H458 C430 0.930 . S
H459 C439 0.930 . S
H460 C451 0.940 . S
H461 C454 0.930 . S
C462 C463 1.351 . S
C462 N465 1.368 . S
C462 H467 0.931 . S
C463 C462 1.351 . S
C463 N464 1.373 . S
C463 H491 0.930 . S
N464 C463 1.373 . S
N464 C466 1.340 . S
N465 C462 1.368 . S
N465 C466 1.321 . S
N465 Co468 2.135 1_554 S
C466 N464 1.340 . S
C466 N465 1.321 . S
C466 H490 0.930 . S
H467 C462 0.931 . S
Co468 N465 2.135 1_556 S
Co468 N471 2.121 . S
Co468 O476 2.055 . S
Co468 O479 2.039 . S
Co468 N482 2.140 . S
C469 O470 1.227 . S
C469 O479 1.265 . S
O470 C469 1.227 . S
N471 Co468 2.121 . S
N471 C473 1.375 . S
N471 C474 1.313 . S
C472 C473 1.338 . S
C472 N475 1.377 . S
C472 H492 0.930 . S
C473 N471 1.375 . S
C473 C472 1.338 . S
C473 H477 0.931 . S
C474 N471 1.313 . S
C474 N475 1.344 . S
C474 H478 0.930 . S
N475 C472 1.377 . S
N475 C474 1.344 . S
O476 Co468 2.055 . S
O476 C480 1.253 . S
H477 C473 0.931 . S
H478 C474 0.930 . S
O479 Co468 2.039 . S
O479 C469 1.265 . S
C480 O476 1.253 . S
C480 O481 1.227 . S
O481 C480 1.227 . S
N482 Co468 2.140 . S
N482 C485 1.346 . S
N482 C486 1.345 . S
C483 C484 1.387 . S
C483 C487 1.391 . S
C484 C483 1.387 . S
C484 C485 1.369 . S
C484 H493 0.940 . S
C485 N482 1.346 . S
C485 C484 1.369 . S
C485 H488 0.928 . S
C486 N482 1.345 . S
C486 C487 1.371 . S
C486 H489 0.931 . S
C487 C483 1.391 . S
C487 C486 1.371 . S
C487 H494 0.930 . S
H488 C485 0.928 . S
H489 C486 0.931 . S
H490 C466 0.930 . S
H491 C463 0.930 . S
H492 C472 0.930 . S
H493 C484 0.940 . S
H494 C487 0.930 . S
C495 C496 1.351 . S
C495 N498 1.368 . S
C495 H500 0.931 . S
C496 C495 1.351 . S
C496 N497 1.373 . S
C496 H524 0.930 . S
N497 C496 1.373 . S
N497 C499 1.340 . S
N498 C495 1.368 . S
N498 C499 1.321 . S
N498 Co501 2.135 1_554 S
C499 N497 1.340 . S
C499 N498 1.321 . S
C499 H523 0.930 . S
H500 C495 0.931 . S
Co501 N498 2.135 1_556 S
Co501 N504 2.121 . S
Co501 O509 2.055 . S
Co501 O512 2.039 . S
Co501 N515 2.140 . S
C502 O503 1.227 . S
C502 O512 1.265 . S
O503 C502 1.227 . S
N504 Co501 2.121 . S
N504 C506 1.375 . S
N504 C507 1.313 . S
C505 C506 1.338 . S
C505 N508 1.377 . S
C505 H525 0.930 . S
C506 N504 1.375 . S
C506 C505 1.338 . S
C506 H510 0.931 . S
C507 N504 1.313 . S
C507 N508 1.344 . S
C507 H511 0.930 . S
N508 C505 1.377 . S
N508 C507 1.344 . S
O509 Co501 2.055 . S
O509 C513 1.253 . S
H510 C506 0.931 . S
H511 C507 0.930 . S
O512 Co501 2.039 . S
O512 C502 1.265 . S
C513 O509 1.253 . S
C513 O514 1.227 . S
O514 C513 1.227 . S
N515 Co501 2.140 . S
N515 C518 1.346 . S
N515 C519 1.345 . S
C516 C517 1.387 . S
C516 C520 1.391 . S
C517 C516 1.387 . S
C517 C518 1.369 . S
C517 H526 0.940 . S
C518 N515 1.346 . S
C518 C517 1.369 . S
C518 H521 0.928 . S
C519 N515 1.345 . S
C519 C520 1.371 . S
C519 H522 0.931 . S
C520 C516 1.391 . S
C520 C519 1.371 . S
C520 H527 0.930 . S
H521 C518 0.928 . S
H522 C519 0.931 . S
H523 C499 0.930 . S
H524 C496 0.930 . S
H525 C505 0.930 . S
H526 C517 0.940 . S
H527 C520 0.930 . S
H528 C534 0.930 . S
H529 C537 0.930 . S
H530 C538 0.930 . S
H531 C539 0.930 . S
H532 C542 0.930 . S
H533 C543 0.930 . S
C534 H528 0.930 . S
C534 C535 1.355 . S
C534 C536 1.415 . S
C535 C534 1.355 . S
C535 C537 1.419 . S
C536 C534 1.415 . S
C536 C541 1.425 . S
C536 C543 1.409 . S
C537 H529 0.930 . S
C537 C535 1.419 . S
C537 C538 1.362 . S
C538 H530 0.930 . S
C538 C537 1.362 . S
C538 C541 1.409 . S
C539 H531 0.930 . S
C539 C540 1.355 . S
C539 C541 1.415 . S
C540 C539 1.355 . S
C540 C542 1.419 . S
C541 C536 1.425 . S
C541 C538 1.409 . S
C541 C539 1.415 . S
C542 H532 0.930 . S
C542 C540 1.419 . S
C542 C543 1.362 . S
C543 H533 0.930 . S
C543 C536 1.409 . S
C543 C542 1.362 . S
H544 C550 0.930 . S
H545 C553 0.930 . S
H546 C554 0.930 . S
H547 C555 0.930 . S
H548 C558 0.930 . S
H549 C559 0.930 . S
C550 H544 0.930 . S
C550 C551 1.355 . S
C550 C552 1.415 . S
C551 C550 1.355 . S
C551 C553 1.419 . S
C552 C550 1.415 . S
C552 C557 1.425 1_455 S
C552 C559 1.409 . S
C553 H545 0.930 . S
C553 C551 1.419 . S
C553 C554 1.362 1_455 S
C554 H546 0.930 . S
C554 C553 1.362 1_655 S
C554 C557 1.409 . S
C555 H547 0.930 . S
C555 C556 1.355 . S
C555 C557 1.415 . S
C556 C555 1.355 . S
C556 C558 1.419 . S
C557 C552 1.425 1_655 S
C557 C554 1.409 . S
C557 C555 1.415 . S
C558 H548 0.930 . S
C558 C556 1.419 . S
C558 C559 1.362 1_655 S
C559 H549 0.930 . S
C559 C552 1.409 . S
C559 C558 1.362 1_455 S
H560 C566 0.930 1_554 S
H561 C569 0.930 . S
H562 C570 0.930 . S
H563 C571 0.930 1_556 S
H564 C574 0.930 . S
H565 C575 0.930 . S
C566 H560 0.930 1_556 S
C566 C567 1.355 . S
C566 C568 1.415 1_556 S
C567 C566 1.355 . S
C567 C569 1.419 . S
C568 C566 1.415 1_554 S
C568 C573 1.425 1_554 S
C568 C575 1.409 . S
C569 H561 0.930 . S
C569 C567 1.419 . S
C569 C570 1.362 . S
C570 H562 0.930 . S
C570 C569 1.362 . S
C570 C573 1.409 . S
C571 H563 0.930 1_554 S
C571 C572 1.355 . S
C571 C573 1.415 1_554 S
C572 C571 1.355 . S
C572 C574 1.419 . S
C573 C568 1.425 1_556 S
C573 C570 1.409 . S
C573 C571 1.415 1_556 S
C574 H564 0.930 . S
C574 C572 1.419 . S
C574 C575 1.362 . S
C575 H565 0.930 . S
C575 C568 1.409 . S
C575 C574 1.362 . S
H576 C582 0.930 1_554 S
H577 C585 0.930 . S
H578 C586 0.930 . S
H579 C587 0.930 1_556 S
H580 C590 0.930 . S
H581 C591 0.930 . S
C582 H576 0.930 1_556 S
C582 C583 1.355 . S
C582 C584 1.415 1_556 S
C583 C582 1.355 . S
C583 C585 1.419 . S
C584 C582 1.415 1_554 S
C584 C589 1.425 1_654 S
C584 C591 1.409 . S
C585 H577 0.930 . S
C585 C583 1.419 . S
C585 C586 1.362 1_655 S
C586 H578 0.930 . S
C586 C585 1.362 1_455 S
C586 C589 1.409 . S
C587 H579 0.930 1_554 S
C587 C588 1.355 . S
C587 C589 1.415 1_554 S
C588 C587 1.355 . S
C588 C590 1.419 . S
C589 C584 1.425 1_456 S
C589 C586 1.409 . S
C589 C587 1.415 1_556 S
C590 H580 0.930 . S
C590 C588 1.419 . S
C590 C591 1.362 1_455 S
C591 H581 0.930 . S
C591 C584 1.409 . S
C591 C590 1.362 1_655 S
H592 C598 0.930 . S
H593 C601 0.930 . S
H594 C602 0.930 . S
H595 C603 0.930 . S
H596 C606 0.930 . S
H597 C607 0.930 . S
C598 H592 0.930 . S
C598 C599 1.355 . S
C598 C600 1.415 . S
C599 C598 1.355 . S
C599 C601 1.419 . S
C600 C598 1.415 . S
C600 C605 1.425 . S
C600 C607 1.409 . S
C601 H593 0.930 . S
C601 C599 1.419 . S
C601 C602 1.362 . S
C602 H594 0.930 . S
C602 C601 1.362 . S
C602 C605 1.409 . S
C603 H595 0.930 . S
C603 C604 1.355 . S
C603 C605 1.415 . S
C604 C603 1.355 . S
C604 C606 1.419 . S
C605 C600 1.425 . S
C605 C602 1.409 . S
C605 C603 1.415 . S
C606 H596 0.930 . S
C606 C604 1.419 . S
C606 C607 1.362 . S
C607 H597 0.930 . S
C607 C600 1.409 . S
C607 C606 1.362 . S
H608 C614 0.930 . S
H609 C617 0.930 . S
H610 C618 0.929 1_655 S
H611 C619 0.930 . S
H612 C622 0.930 . S
H613 C623 0.929 1_455 S
C614 H608 0.930 . S
C614 C615 1.355 . S
C614 C616 1.415 . S
C615 C614 1.355 . S
C615 C617 1.419 . S
C616 C614 1.415 . S
C616 C621 1.425 1_455 S
C616 C623 1.408 1_455 S
C617 H609 0.930 . S
C617 C615 1.419 . S
C617 C618 1.364 . S
C618 H610 0.929 1_455 S
C618 C617 1.364 . S
C618 C621 1.408 1_455 S
C619 H611 0.930 . S
C619 C620 1.355 . S
C619 C621 1.415 . S
C620 C619 1.355 . S
C620 C622 1.419 . S
C621 C616 1.425 1_655 S
C621 C618 1.408 1_655 S
C621 C619 1.415 . S
C622 H612 0.930 . S
C622 C620 1.419 . S
C622 C623 1.364 . S
C623 H613 0.929 1_655 S
C623 C616 1.408 1_655 S
C623 C622 1.364 . S
H624 C630 0.930 . S
H625 C633 0.930 . S
H626 C634 0.930 . S
H627 C635 0.930 . S
H628 C638 0.930 . S
H629 C639 0.930 . S
C630 H624 0.930 . S
C630 C631 1.355 1_556 S
C630 C632 1.415 . S
C631 C630 1.355 1_554 S
C631 C633 1.419 . S
C632 C630 1.415 . S
C632 C637 1.425 1_556 S
C632 C639 1.409 . S
C633 H625 0.930 . S
C633 C631 1.419 . S
C633 C634 1.362 . S
C634 H626 0.930 . S
C634 C633 1.362 . S
C634 C637 1.409 . S
C635 H627 0.930 . S
C635 C636 1.355 1_554 S
C635 C637 1.415 . S
C636 C635 1.355 1_556 S
C636 C638 1.419 . S
C637 C632 1.425 1_554 S
C637 C634 1.409 . S
C637 C635 1.415 . S
C638 H628 0.930 . S
C638 C636 1.419 . S
C638 C639 1.362 . S
C639 H629 0.930 . S
C639 C632 1.409 . S
C639 C638 1.362 . S
H640 C646 0.930 . S
H641 C649 0.930 . S
H642 C650 0.930 . S
H643 C651 0.930 . S
H644 C654 0.930 . S
H645 C655 0.930 . S
C646 H640 0.930 . S
C646 C647 1.355 . S
C646 C648 1.415 1_565 S
C647 C646 1.355 . S
C647 C649 1.419 . S
C648 C646 1.415 1_545 S
C648 C653 1.425 1_545 S
C648 C655 1.409 . S
C649 H641 0.930 . S
C649 C647 1.419 . S
C649 C650 1.362 . S
C650 H642 0.930 . S
C650 C649 1.362 . S
C650 C653 1.409 . S
C651 H643 0.930 . S
C651 C652 1.355 . S
C651 C653 1.415 1_545 S
C652 C651 1.355 . S
C652 C654 1.419 . S
C653 C648 1.425 1_565 S
C653 C650 1.409 . S
C653 C651 1.415 1_565 S
C654 H644 0.930 . S
C654 C652 1.419 . S
C654 C655 1.362 . S
C655 H645 0.930 . S
C655 C648 1.409 . S
C655 C654 1.362 . S
H656 C662 0.930 . S
H657 C665 0.930 . S
H658 C666 0.930 . S
H659 C667 0.930 . S
H660 C670 0.930 . S
H661 C671 0.930 . S
C662 H656 0.930 . S
C662 C663 1.355 . S
C662 C664 1.415 . S
C663 C662 1.355 . S
C663 C665 1.419 . S
C664 C662 1.415 . S
C664 C669 1.425 . S
C664 C671 1.409 . S
C665 H657 0.930 . S
C665 C663 1.419 . S
C665 C666 1.362 . S
C666 H658 0.930 . S
C666 C665 1.362 . S
C666 C669 1.409 . S
C667 H659 0.930 . S
C667 C668 1.355 . S
C667 C669 1.415 . S
C668 C667 1.355 . S
C668 C670 1.419 . S
C669 C664 1.425 . S
C669 C666 1.409 . S
C669 C667 1.415 . S
C670 H660 0.930 . S
C670 C668 1.419 . S
C670 C671 1.362 . S
C671 H661 0.930 . S
C671 C664 1.409 . S
C671 C670 1.362 . S
H672 C678 0.930 . S
H673 C681 0.930 . S
H674 C682 0.930 . S
H675 C683 0.930 . S
H676 C686 0.930 . S
H677 C687 0.930 . S
C678 H672 0.930 . S
C678 C679 1.355 . S
C678 C680 1.415 1_655 S
C679 C678 1.355 . S
C679 C681 1.419 1_565 S
C680 C678 1.415 1_455 S
C680 C685 1.425 1_465 S
C680 C687 1.409 . S
C681 H673 0.930 . S
C681 C679 1.419 1_545 S
C681 C682 1.362 . S
C682 H674 0.930 . S
C682 C681 1.362 . S
C682 C685 1.409 . S
C683 H675 0.930 . S
C683 C684 1.355 . S
C683 C685 1.415 1_455 S
C684 C683 1.355 . S
C684 C686 1.419 1_545 S
C685 C680 1.425 1_645 S
C685 C682 1.409 . S
C685 C683 1.415 1_655 S
C686 H676 0.930 . S
C686 C684 1.419 1_565 S
C686 C687 1.362 . S
C687 H677 0.930 . S
C687 C680 1.409 . S
C687 C686 1.362 . S
H688 C694 0.930 . S
H689 C697 0.930 . S
H690 C698 0.932 1_565 S
H691 C699 0.930 . S
H692 C702 0.930 . S
H693 C703 0.932 1_545 S
C694 H688 0.930 . S
C694 C695 1.355 . S
C694 C696 1.415 . S
C695 C694 1.355 . S
C695 C697 1.419 . S
C696 C694 1.415 . S
C696 C701 1.425 1_545 S
C696 C703 1.409 1_545 S
C697 H689 0.930 . S
C697 C695 1.419 . S
C697 C698 1.362 . S
C698 H690 0.932 1_545 S
C698 C697 1.362 . S
C698 C701 1.409 1_545 S
C699 H691 0.930 . S
C699 C700 1.355 . S
C699 C701 1.415 . S
C700 C699 1.355 . S
C700 C702 1.419 . S
C701 C696 1.425 1_565 S
C701 C698 1.409 1_565 S
C701 C699 1.415 . S
C702 H692 0.930 . S
C702 C700 1.419 . S
C702 C703 1.362 . S
C703 H693 0.932 1_565 S
C703 C696 1.409 1_565 S
C703 C702 1.362 . S
H704 C710 0.930 . S
H705 C713 0.930 . S
H706 C714 0.930 . S
H707 C715 0.930 . S
H708 C718 0.930 . S
H709 C719 0.930 . S
C710 H704 0.930 . S
C710 C711 1.355 . S
C710 C712 1.415 . S
C711 C710 1.355 . S
C711 C713 1.419 . S
C712 C710 1.415 . S
C712 C717 1.425 . S
C712 C719 1.409 . S
C713 H705 0.930 . S
C713 C711 1.419 . S
C713 C714 1.362 . S
C714 H706 0.930 . S
C714 C713 1.362 . S
C714 C717 1.409 . S
C715 H707 0.930 . S
C715 C716 1.355 . S
C715 C717 1.415 . S
C716 C715 1.355 . S
C716 C718 1.419 . S
C717 C712 1.425 . S
C717 C714 1.409 . S
C717 C715 1.415 . S
C718 H708 0.930 . S
C718 C716 1.419 . S
C718 C719 1.362 . S
C719 H709 0.930 . S
C719 C712 1.409 . S
C719 C718 1.362 . S
H720 C726 0.930 . S
H721 C729 0.930 . S
H722 C730 0.930 . S
H723 C731 0.930 . S
H724 C734 0.930 . S
H725 C735 0.930 . S
C726 H720 0.930 . S
C726 C727 1.355 . S
C726 C728 1.415 . S
C727 C726 1.355 . S
C727 C729 1.419 . S
C728 C726 1.415 . S
C728 C733 1.425 . S
C728 C735 1.409 . S
C729 H721 0.930 . S
C729 C727 1.419 . S
C729 C730 1.362 . S
C730 H722 0.930 . S
C730 C729 1.362 . S
C730 C733 1.409 . S
C731 H723 0.930 . S
C731 C732 1.355 . S
C731 C733 1.415 . S
C732 C731 1.355 . S
C732 C734 1.419 . S
C733 C728 1.425 . S
C733 C730 1.409 . S
C733 C731 1.415 . S
C734 H724 0.930 . S
C734 C732 1.419 . S
C734 C735 1.362 . S
C735 H725 0.930 . S
C735 C728 1.409 . S
C735 C734 1.362 . S
H736 C742 0.930 . S
H737 C745 0.930 . S
H738 C746 0.930 . S
H739 C747 0.930 . S
H740 C750 0.930 . S
H741 C751 0.930 . S
C742 H736 0.930 . S
C742 C743 1.355 . S
C742 C744 1.415 . S
C743 C742 1.355 . S
C743 C745 1.419 . S
C744 C742 1.415 . S
C744 C749 1.425 . S
C744 C751 1.409 . S
C745 H737 0.930 . S
C745 C743 1.419 . S
C745 C746 1.362 . S
C746 H738 0.930 . S
C746 C745 1.362 . S
C746 C749 1.409 . S
C747 H739 0.930 . S
C747 C748 1.355 . S
C747 C749 1.415 . S
C748 C747 1.355 . S
C748 C750 1.419 . S
C749 C744 1.425 . S
C749 C746 1.409 . S
C749 C747 1.415 . S
C750 H740 0.930 . S
C750 C748 1.419 . S
C750 C751 1.362 . S
C751 H741 0.930 . S
C751 C744 1.409 . S
C751 C750 1.362 . S
H752 C758 0.930 . S
H753 C761 0.930 . S
H754 C762 0.930 . S
H755 C763 0.930 . S
H756 C766 0.930 . S
H757 C767 0.930 . S
C758 H752 0.930 . S
C758 C759 1.355 . S
C758 C760 1.415 . S
C759 C758 1.355 . S
C759 C761 1.419 . S
C760 C758 1.415 . S
C760 C765 1.425 . S
C760 C767 1.409 . S
C761 H753 0.930 . S
C761 C759 1.419 . S
C761 C762 1.362 . S
C762 H754 0.930 . S
C762 C761 1.362 . S
C762 C765 1.409 . S
C763 H755 0.930 . S
C763 C764 1.355 . S
C763 C765 1.415 . S
C764 C763 1.355 . S
C764 C766 1.419 . S
C765 C760 1.425 . S
C765 C762 1.409 . S
C765 C763 1.415 . S
C766 H756 0.930 . S
C766 C764 1.419 . S
C766 C767 1.362 . S
C767 H757 0.930 . S
C767 C760 1.409 . S
C767 C766 1.362 . S
H768 C774 0.930 . S
H769 C777 0.930 . S
H770 C778 0.930 . S
H771 C779 0.930 . S
H772 C782 0.930 . S
H773 C783 0.930 . S
C774 H768 0.930 . S
C774 C775 1.355 . S
C774 C776 1.415 1_556 S
C775 C774 1.355 . S
C775 C777 1.419 1_565 S
C776 C774 1.415 1_554 S
C776 C781 1.425 1_564 S
C776 C783 1.409 . S
C777 H769 0.930 . S
C777 C775 1.419 1_545 S
C777 C778 1.362 . S
C778 H770 0.930 . S
C778 C777 1.362 . S
C778 C781 1.409 . S
C779 H771 0.930 . S
C779 C780 1.355 . S
C779 C781 1.415 1_554 S
C780 C779 1.355 . S
C780 C782 1.419 1_545 S
C781 C776 1.425 1_546 S
C781 C778 1.409 . S
C781 C779 1.415 1_556 S
C782 H772 0.930 . S
C782 C780 1.419 1_565 S
C782 C783 1.362 . S
C783 H773 0.930 . S
C783 C776 1.409 . S
C783 C782 1.362 . S
H784 C790 0.930 . S
H785 C793 0.930 . S
H786 C794 0.930 . S
H787 C795 0.930 . S
H788 C798 0.930 . S
H789 C799 0.930 . S
C790 H784 0.930 . S
C790 C791 1.355 . S
C790 C792 1.415 . S
C791 C790 1.355 . S
C791 C793 1.419 . S
C792 C790 1.415 . S
C792 C797 1.425 . S
C792 C799 1.409 . S
C793 H785 0.930 . S
C793 C791 1.419 . S
C793 C794 1.362 . S
C794 H786 0.930 . S
C794 C793 1.362 . S
C794 C797 1.409 . S
C795 H787 0.930 . S
C795 C796 1.355 . S
C795 C797 1.415 . S
C796 C795 1.355 . S
C796 C798 1.419 . S
C797 C792 1.425 . S
C797 C794 1.409 . S
C797 C795 1.415 . S
C798 H788 0.930 . S
C798 C796 1.419 . S
C798 C799 1.362 . S
C799 H789 0.930 . S
C799 C792 1.409 . S
C799 C798 1.362 . S
H800 C806 0.930 . S
H801 C809 0.930 . S
H802 C810 0.930 . S
H803 C811 0.930 . S
H804 C814 0.930 . S
H805 C815 0.930 . S
C806 H800 0.930 . S
C806 C807 1.355 . S
C806 C808 1.415 . S
C807 C806 1.355 . S
C807 C809 1.419 . S
C808 C806 1.415 . S
C808 C813 1.425 . S
C808 C815 1.409 . S
C809 H801 0.930 . S
C809 C807 1.419 . S
C809 C810 1.362 . S
C810 H802 0.930 . S
C810 C809 1.362 . S
C810 C813 1.409 . S
C811 H803 0.930 . S
C811 C812 1.355 . S
C811 C813 1.415 . S
C812 C811 1.355 . S
C812 C814 1.419 . S
C813 C808 1.425 . S
C813 C810 1.409 . S
C813 C811 1.415 . S
C814 H804 0.930 . S
C814 C812 1.419 . S
C814 C815 1.362 . S
C815 H805 0.930 . S
C815 C808 1.409 . S
C815 C814 1.362 . S
H816 C822 0.930 . S
H817 C825 0.930 . S
H818 C826 0.930 . S
H819 C827 0.930 . S
H820 C830 0.930 . S
H821 C831 0.930 . S
C822 H816 0.930 . S
C822 C823 1.355 . S
C822 C824 1.415 . S
C823 C822 1.355 . S
C823 C825 1.419 . S
C824 C822 1.415 . S
C824 C829 1.425 . S
C824 C831 1.409 . S
C825 H817 0.930 . S
C825 C823 1.419 . S
C825 C826 1.362 . S
C826 H818 0.930 . S
C826 C825 1.362 . S
C826 C829 1.409 . S
C827 H819 0.930 . S
C827 C828 1.355 . S
C827 C829 1.415 . S
C828 C827 1.355 . S
C828 C830 1.419 . S
C829 C824 1.425 . S
C829 C826 1.409 . S
C829 C827 1.415 . S
C830 H820 0.930 . S
C830 C828 1.419 . S
C830 C831 1.362 . S
C831 H821 0.930 . S
C831 C824 1.409 . S
C831 C830 1.362 . S
H832 C838 0.930 . S
H833 C841 0.930 . S
H834 C842 0.930 . S
H835 C843 0.930 . S
H836 C846 0.930 . S
H837 C847 0.930 . S
C838 H832 0.930 . S
C838 C839 1.355 . S
C838 C840 1.415 . S
C839 C838 1.355 . S
C839 C841 1.419 . S
C840 C838 1.415 . S
C840 C845 1.425 . S
C840 C847 1.409 . S
C841 H833 0.930 . S
C841 C839 1.419 . S
C841 C842 1.362 . S
C842 H834 0.930 . S
C842 C841 1.362 . S
C842 C845 1.409 . S
C843 H835 0.930 . S
C843 C844 1.355 . S
C843 C845 1.415 . S
C844 C843 1.355 . S
C844 C846 1.419 . S
C845 C840 1.425 . S
C845 C842 1.409 . S
C845 C843 1.415 . S
C846 H836 0.930 . S
C846 C844 1.419 . S
C846 C847 1.362 . S
C847 H837 0.930 . S
C847 C840 1.409 . S
C847 C846 1.362 . S
H848 C854 0.930 . S
H849 C857 0.930 . S
H850 C858 0.930 . S
H851 C859 0.930 1_556 S
H852 C862 0.936 . S
H853 C863 0.930 . S
C854 H848 0.930 . S
C854 C855 1.355 . S
C854 C856 1.415 . S
C855 C854 1.355 . S
C855 C857 1.419 . S
C856 C854 1.415 . S
C856 C861 1.425 . S
C856 C863 1.409 . S
C857 H849 0.930 . S
C857 C855 1.419 . S
C857 C858 1.362 . S
C858 H850 0.930 . S
C858 C857 1.362 . S
C858 C861 1.409 . S
C859 H851 0.930 1_554 S
C859 C860 1.355 1_554 S
C859 C861 1.415 . S
C860 C859 1.355 1_556 S
C860 C862 1.423 . S
C861 C856 1.425 . S
C861 C858 1.409 . S
C861 C859 1.415 . S
C862 H852 0.936 . S
C862 C860 1.423 . S
C862 C863 1.353 1_556 S
C863 H853 0.930 . S
C863 C856 1.409 . S
C863 C862 1.353 1_554 S
H864 C870 0.930 . S
H865 C873 0.930 . S
H866 C874 0.930 . S
H867 C875 0.930 . S
H868 C878 0.930 . S
H869 C879 0.930 . S
C870 H864 0.930 . S
C870 C871 1.355 . S
C870 C872 1.415 . S
C871 C870 1.355 . S
C871 C873 1.419 . S
C872 C870 1.415 . S
C872 C877 1.425 . S
C872 C879 1.409 . S
C873 H865 0.930 . S
C873 C871 1.419 . S
C873 C874 1.362 . S
C874 H866 0.930 . S
C874 C873 1.362 . S
C874 C877 1.409 . S
C875 H867 0.930 . S
C875 C876 1.355 1_554 S
C875 C877 1.415 . S
C876 C875 1.355 1_556 S
C876 C878 1.419 . S
C877 C872 1.425 . S
C877 C874 1.409 . S
C877 C875 1.415 . S
C878 H868 0.930 . S
C878 C876 1.419 . S
C878 C879 1.362 1_556 S
C879 H869 0.930 . S
C879 C872 1.409 . S
C879 C878 1.362 1_554 S
H880 C886 0.930 1_554 S
H881 C889 0.930 1_554 S
H882 C890 0.930 . S
H883 C891 0.930 . S
H884 C894 0.930 . S
H885 C895 0.930 . S
C886 H880 0.930 1_556 S
C886 C887 1.355 1_556 S
C886 C888 1.415 . S
C887 C886 1.355 1_554 S
C887 C889 1.419 1_554 S
C888 C886 1.415 . S
C888 C893 1.425 . S
C888 C895 1.409 . S
C889 H881 0.930 1_556 S
C889 C887 1.419 1_556 S
C889 C890 1.362 . S
C890 H882 0.930 . S
C890 C889 1.362 . S
C890 C893 1.409 . S
C891 H883 0.930 . S
C891 C892 1.355 . S
C891 C893 1.415 . S
C892 C891 1.355 . S
C892 C894 1.419 . S
C893 C888 1.425 . S
C893 C890 1.409 . S
C893 C891 1.415 . S
C894 H884 0.930 . S
C894 C892 1.419 . S
C894 C895 1.362 . S
C895 H885 0.930 . S
C895 C888 1.409 . S
C895 C894 1.362 . S
H896 C902 0.930 1_554 S
H897 C905 0.922 1_554 S
H898 C906 0.930 . S
H899 C907 0.930 . S
H900 C910 0.930 . S
H901 C911 0.930 . S
C902 H896 0.930 1_556 S
C902 C903 1.355 1_556 S
C902 C904 1.415 . S
C903 C902 1.355 1_554 S
C903 C905 1.413 1_554 S
C904 C902 1.415 . S
C904 C909 1.425 . S
C904 C911 1.409 . S
C905 H897 0.922 1_556 S
C905 C903 1.413 1_556 S
C905 C906 1.376 . S
C906 H898 0.930 . S
C906 C905 1.376 . S
C906 C909 1.409 . S
C907 H899 0.930 . S
C907 C908 1.355 . S
C907 C909 1.415 . S
C908 C907 1.355 . S
C908 C910 1.419 . S
C909 C904 1.425 . S
C909 C906 1.409 . S
C909 C907 1.415 . S
C910 H900 0.930 . S
C910 C908 1.419 . S
C910 C911 1.362 . S
C911 H901 0.930 . S
C911 C904 1.409 . S
C911 C910 1.362 . S
H912 C918 0.930 . S
H913 C921 0.930 . S
H914 C922 0.930 . S
H915 C923 0.930 . S
H916 C926 0.930 . S
H917 C927 0.930 . S
C918 H912 0.930 . S
C918 C919 1.355 1_554 S
C918 C920 1.415 . S
C919 C918 1.355 1_556 S
C919 C921 1.419 . S
C920 C918 1.415 . S
C920 C925 1.425 . S
C920 C927 1.409 . S
C921 H913 0.930 . S
C921 C919 1.419 . S
C921 C922 1.362 1_556 S
C922 H914 0.930 . S
C922 C921 1.362 1_554 S
C922 C925 1.409 . S
C923 H915 0.930 . S
C923 C924 1.355 . S
C923 C925 1.415 . S
C924 C923 1.355 . S
C924 C926 1.419 . S
C925 C920 1.425 . S
C925 C922 1.409 . S
C925 C923 1.415 . S
C926 H916 0.930 . S
C926 C924 1.419 . S
C926 C927 1.362 . S
C927 H917 0.930 . S
C927 C920 1.409 . S
C927 C926 1.362 . S
H928 C934 0.932 . S
H929 C937 0.930 . S
H930 C938 0.930 . S
H931 C939 0.930 . S
H932 C942 0.930 . S
H933 C943 0.930 . S
C934 H928 0.932 . S
C934 C935 1.355 1_554 S
C934 C936 1.415 . S
C935 C934 1.355 1_556 S
C935 C937 1.419 . S
C936 C934 1.415 . S
C936 C941 1.425 . S
C936 C943 1.409 . S
C937 H929 0.930 . S
C937 C935 1.419 . S
C937 C938 1.362 1_556 S
C938 H930 0.930 . S
C938 C937 1.362 1_554 S
C938 C941 1.409 . S
C939 H931 0.930 . S
C939 C940 1.355 . S
C939 C941 1.415 . S
C940 C939 1.355 . S
C940 C942 1.419 . S
C941 C936 1.425 . S
C941 C938 1.409 . S
C941 C939 1.415 . S
C942 H932 0.930 . S
C942 C940 1.419 . S
C942 C943 1.362 . S
C943 H933 0.930 . S
C943 C936 1.409 . S
C943 C942 1.362 . S
H944 C950 0.930 . S
H945 C953 0.930 . S
H946 C954 0.930 . S
H947 C955 0.930 . S
H948 C958 0.930 . S
H949 C959 0.930 . S
C950 H944 0.930 . S
C950 C951 1.355 1_556 S
C950 C952 1.415 . S
C951 C950 1.355 1_554 S
C951 C953 1.419 . S
C952 C950 1.415 . S
C952 C957 1.425 . S
C952 C959 1.409 . S
C953 H945 0.930 . S
C953 C951 1.419 . S
C953 C954 1.362 1_554 S
C954 H946 0.930 . S
C954 C953 1.362 1_556 S
C954 C957 1.409 . S
C955 H947 0.930 . S
C955 C956 1.355 . S
C955 C957 1.415 . S
C956 C955 1.355 . S
C956 C958 1.419 . S
C957 C952 1.425 . S
C957 C954 1.409 . S
C957 C955 1.415 . S
C958 H948 0.930 . S
C958 C956 1.419 . S
C958 C959 1.362 . S
C959 H949 0.930 . S
C959 C952 1.409 . S
C959 C958 1.362 . S
H960 C966 0.930 1_554 S
H961 C969 0.930 . S
H962 C970 0.930 . S
H963 C971 0.930 . S
H964 C974 0.930 . S
H965 C975 0.930 . S
C966 H960 0.930 1_556 S
C966 C967 1.355 1_556 S
C966 C968 1.415 . S
C967 C966 1.355 1_554 S
C967 C969 1.419 . S
C968 C966 1.415 . S
C968 C973 1.425 . S
C968 C975 1.409 . S
C969 H961 0.930 . S
C969 C967 1.419 . S
C969 C970 1.362 1_554 S
C970 H962 0.930 . S
C970 C969 1.362 1_556 S
C970 C973 1.409 . S
C971 H963 0.930 . S
C971 C972 1.355 . S
C971 C973 1.415 . S
C972 C971 1.355 . S
C972 C974 1.419 . S
C973 C968 1.425 . S
C973 C970 1.409 . S
C973 C971 1.415 . S
C974 H964 0.930 . S
C974 C972 1.419 . S
C974 C975 1.362 . S
C975 H965 0.930 . S
C975 C968 1.409 . S
C975 C974 1.362 . S
H976 C982 0.930 . S
H977 C985 0.930 . S
H978 C986 0.930 . S
H979 C987 0.930 . S
H980 C990 0.930 . S
H981 C991 0.930 . S
C982 H976 0.930 . S
C982 C983 1.355 . S
C982 C984 1.415 . S
C983 C982 1.355 . S
C983 C985 1.419 . S
C984 C982 1.415 . S
C984 C989 1.425 . S
C984 C991 1.409 . S
C985 H977 0.930 . S
C985 C983 1.419 . S
C985 C986 1.362 . S
C986 H978 0.930 . S
C986 C985 1.362 . S
C986 C989 1.409 . S
C987 H979 0.930 . S
C987 C988 1.355 . S
C987 C989 1.415 . S
C988 C987 1.355 . S
C988 C990 1.419 . S
C989 C984 1.425 . S
C989 C986 1.409 . S
C989 C987 1.415 . S
C990 H980 0.930 . S
C990 C988 1.419 . S
C990 C991 1.362 . S
C991 H981 0.930 . S
C991 C984 1.409 . S
C991 C990 1.362 . S
H992 C998 0.930 . S
H993 C1001 0.930 . S
H994 C1002 0.930 . S
H995 C1003 0.930 . S
H996 C1006 0.930 . S
H997 C1007 0.930 . S
C998 H992 0.930 . S
C998 C999 1.355 . S
C998 C1000 1.415 . S
C999 C998 1.355 . S
C999 C1001 1.419 . S
C1000 C998 1.415 . S
C1000 C1005 1.425 . S
C1000 C1007 1.409 . S
C1001 H993 0.930 . S
C1001 C999 1.419 . S
C1001 C1002 1.362 . S
C1002 H994 0.930 . S
C1002 C1001 1.362 . S
C1002 C1005 1.409 . S
C1003 H995 0.930 . S
C1003 C1004 1.355 . S
C1003 C1005 1.415 . S
C1004 C1003 1.355 . S
C1004 C1006 1.419 . S
C1005 C1000 1.425 . S
C1005 C1002 1.409 . S
C1005 C1003 1.415 . S
C1006 H996 0.930 . S
C1006 C1004 1.419 . S
C1006 C1007 1.362 . S
C1007 H997 0.930 . S
C1007 C1000 1.409 . S
C1007 C1006 1.362 . S
H1008 C1014 0.930 . S
H1009 C1017 0.930 . S
H1010 C1018 0.930 . S
H1011 C1019 0.930 . S
H1012 C1022 0.930 . S
H1013 C1023 0.930 . S
C1014 H1008 0.930 . S
C1014 C1015 1.355 . S
C1014 C1016 1.415 . S
C1015 C1014 1.355 . S
C1015 C1017 1.419 . S
C1016 C1014 1.415 . S
C1016 C1021 1.425 . S
C1016 C1023 1.409 . S
C1017 H1009 0.930 . S
C1017 C1015 1.419 . S
C1017 C1018 1.362 . S
C1018 H1010 0.930 . S
C1018 C1017 1.362 . S
C1018 C1021 1.409 . S
C1019 H1011 0.930 . S
C1019 C1020 1.355 . S
C1019 C1021 1.415 . S
C1020 C1019 1.355 . S
C1020 C1022 1.419 . S
C1021 C1016 1.425 . S
C1021 C1018 1.409 . S
C1021 C1019 1.415 . S
C1022 H1012 0.930 . S
C1022 C1020 1.419 . S
C1022 C1023 1.362 . S
C1023 H1013 0.930 . S
C1023 C1016 1.409 . S
C1023 C1022 1.362 . S
H1024 C1030 0.930 . S
H1025 C1033 0.930 . S
H1026 C1034 0.930 . S
H1027 C1035 0.930 . S
H1028 C1038 0.930 . S
H1029 C1039 0.930 . S
C1030 H1024 0.930 . S
C1030 C1031 1.355 . S
C1030 C1032 1.415 . S
C1031 C1030 1.355 . S
C1031 C1033 1.419 . S
C1032 C1030 1.415 . S
C1032 C1037 1.425 . S
C1032 C1039 1.409 . S
C1033 H1025 0.930 . S
C1033 C1031 1.419 . S
C1033 C1034 1.362 . S
C1034 H1026 0.930 . S
C1034 C1033 1.362 . S
C1034 C1037 1.409 . S
C1035 H1027 0.930 . S
C1035 C1036 1.355 . S
C1035 C1037 1.415 . S
C1036 C1035 1.355 . S
C1036 C1038 1.419 . S
C1037 C1032 1.425 . S
C1037 C1034 1.409 . S
C1037 C1035 1.415 . S
C1038 H1028 0.930 . S
C1038 C1036 1.419 . S
C1038 C1039 1.362 . S
C1039 H1029 0.930 . S
C1039 C1032 1.409 . S
C1039 C1038 1.362 . S
H1040 C1046 0.930 . S
H1041 C1049 0.930 . S
H1042 C1050 0.930 . S
H1043 C1051 0.930 . S
H1044 C1054 0.930 . S
H1045 C1055 0.930 . S
C1046 H1040 0.930 . S
C1046 C1047 1.355 . S
C1046 C1048 1.415 . S
C1047 C1046 1.355 . S
C1047 C1049 1.419 . S
C1048 C1046 1.415 . S
C1048 C1053 1.425 . S
C1048 C1055 1.409 . S
C1049 H1041 0.930 . S
C1049 C1047 1.419 . S
C1049 C1050 1.362 . S
C1050 H1042 0.930 . S
C1050 C1049 1.362 . S
C1050 C1053 1.409 . S
C1051 H1043 0.930 . S
C1051 C1052 1.355 . S
C1051 C1053 1.415 . S
C1052 C1051 1.355 . S
C1052 C1054 1.419 . S
C1053 C1048 1.425 . S
C1053 C1050 1.409 . S
C1053 C1051 1.415 . S
C1054 H1044 0.930 . S
C1054 C1052 1.419 . S
C1054 C1055 1.362 . S
C1055 H1045 0.930 . S
C1055 C1048 1.409 . S
C1055 C1054 1.362 . S
H1056 C1062 0.930 . S
H1057 C1065 0.930 . S
H1058 C1066 0.930 . S
H1059 C1067 0.930 . S
H1060 C1070 0.930 . S
H1061 C1071 0.930 . S
C1062 H1056 0.930 . S
C1062 C1063 1.355 . S
C1062 C1064 1.415 . S
C1063 C1062 1.355 . S
C1063 C1065 1.419 . S
C1064 C1062 1.415 . S
C1064 C1069 1.425 . S
C1064 C1071 1.409 . S
C1065 H1057 0.930 . S
C1065 C1063 1.419 . S
C1065 C1066 1.362 . S
C1066 H1058 0.930 . S
C1066 C1065 1.362 . S
C1066 C1069 1.409 . S
C1067 H1059 0.930 . S
C1067 C1068 1.355 . S
C1067 C1069 1.415 . S
C1068 C1067 1.355 . S
C1068 C1070 1.419 . S
C1069 C1064 1.425 . S
C1069 C1066 1.409 . S
C1069 C1067 1.415 . S
C1070 H1060 0.930 . S
C1070 C1068 1.419 . S
C1070 C1071 1.362 . S
C1071 H1061 0.930 . S
C1071 C1064 1.409 . S
C1071 C1070 1.362 . S
H1072 C1078 0.930 . S
H1073 C1081 0.930 . S
H1074 C1082 0.930 . S
H1075 C1083 0.930 . S
H1076 C1086 0.930 . S
H1077 C1087 0.930 . S
C1078 H1072 0.930 . S
C1078 C1079 1.355 . S
C1078 C1080 1.415 . S
C1079 C1078 1.355 . S
C1079 C1081 1.419 . S
C1080 C1078 1.415 . S
C1080 C1085 1.425 . S
C1080 C1087 1.409 . S
C1081 H1073 0.930 . S
C1081 C1079 1.419 . S
C1081 C1082 1.362 . S
C1082 H1074 0.930 . S
C1082 C1081 1.362 . S
C1082 C1085 1.409 . S
C1083 H1075 0.930 . S
C1083 C1084 1.355 . S
C1083 C1085 1.415 . S
C1084 C1083 1.355 . S
C1084 C1086 1.419 . S
C1085 C1080 1.425 . S
C1085 C1082 1.409 . S
C1085 C1083 1.415 . S
C1086 H1076 0.930 . S
C1086 C1084 1.419 . S
C1086 C1087 1.362 . S
C1087 H1077 0.930 . S
C1087 C1080 1.409 . S
C1087 C1086 1.362 . S
H1088 C1094 0.930 . S
H1089 C1097 0.930 . S
H1090 C1098 0.930 . S
H1091 C1099 0.930 . S
H1092 C1102 0.930 . S
H1093 C1103 0.930 . S
C1094 H1088 0.930 . S
C1094 C1095 1.355 . S
C1094 C1096 1.415 . S
C1095 C1094 1.355 . S
C1095 C1097 1.419 . S
C1096 C1094 1.415 . S
C1096 C1101 1.425 . S
C1096 C1103 1.409 . S
C1097 H1089 0.930 . S
C1097 C1095 1.419 . S
C1097 C1098 1.362 . S
C1098 H1090 0.930 . S
C1098 C1097 1.362 . S
C1098 C1101 1.409 . S
C1099 H1091 0.930 . S
C1099 C1100 1.355 . S
C1099 C1101 1.415 . S
C1100 C1099 1.355 . S
C1100 C1102 1.419 . S
C1101 C1096 1.425 . S
C1101 C1098 1.409 . S
C1101 C1099 1.415 . S
C1102 H1092 0.930 . S
C1102 C1100 1.419 . S
C1102 C1103 1.362 . S
C1103 H1093 0.930 . S
C1103 C1096 1.409 . S
C1103 C1102 1.362 . S
H1104 C1110 0.930 . S
H1105 C1113 0.930 . S
H1106 C1114 0.930 . S
H1107 C1115 0.930 . S
H1108 C1118 0.930 . S
H1109 C1119 0.930 . S
C1110 H1104 0.930 . S
C1110 C1111 1.355 . S
C1110 C1112 1.415 . S
C1111 C1110 1.355 . S
C1111 C1113 1.419 . S
C1112 C1110 1.415 . S
C1112 C1117 1.425 . S
C1112 C1119 1.409 . S
C1113 H1105 0.930 . S
C1113 C1111 1.419 . S
C1113 C1114 1.362 . S
C1114 H1106 0.930 . S
C1114 C1113 1.362 . S
C1114 C1117 1.409 . S
C1115 H1107 0.930 . S
C1115 C1116 1.355 . S
C1115 C1117 1.415 . S
C1116 C1115 1.355 . S
C1116 C1118 1.419 . S
C1117 C1112 1.425 . S
C1117 C1114 1.409 . S
C1117 C1115 1.415 . S
C1118 H1108 0.930 . S
C1118 C1116 1.419 . S
C1118 C1119 1.362 . S
C1119 H1109 0.930 . S
C1119 C1112 1.409 . S
C1119 C1118 1.362 . S
H1120 C1126 0.930 . S
H1121 C1129 0.930 . S
H1122 C1130 0.930 . S
H1123 C1131 0.930 . S
H1124 C1134 0.930 . S
H1125 C1135 0.930 . S
C1126 H1120 0.930 . S
C1126 C1127 1.355 . S
C1126 C1128 1.415 . S
C1127 C1126 1.355 . S
C1127 C1129 1.419 . S
C1128 C1126 1.415 . S
C1128 C1133 1.425 . S
C1128 C1135 1.409 . S
C1129 H1121 0.930 . S
C1129 C1127 1.419 . S
C1129 C1130 1.362 . S
C1130 H1122 0.930 . S
C1130 C1129 1.362 . S
C1130 C1133 1.409 . S
C1131 H1123 0.930 . S
C1131 C1132 1.355 . S
C1131 C1133 1.415 . S
C1132 C1131 1.355 . S
C1132 C1134 1.419 . S
C1133 C1128 1.425 . S
C1133 C1130 1.409 . S
C1133 C1131 1.415 . S
C1134 H1124 0.930 . S
C1134 C1132 1.419 . S
C1134 C1135 1.362 . S
C1135 H1125 0.930 . S
C1135 C1128 1.409 . S
C1135 C1134 1.362 . S
H1136 C1142 0.934 . S
H1137 C1145 0.930 . S
H1138 C1146 0.930 . S
H1139 C1147 0.930 . S
H1140 C1150 0.930 1_556 S
H1141 C1151 0.930 1_556 S
C1142 H1136 0.934 . S
C1142 C1143 1.355 . S
C1142 C1144 1.415 . S
C1143 C1142 1.355 . S
C1143 C1145 1.419 . S
C1144 C1142 1.415 . S
C1144 C1149 1.425 . S
C1144 C1151 1.409 . S
C1145 H1137 0.930 . S
C1145 C1143 1.419 . S
C1145 C1146 1.362 . S
C1146 H1138 0.930 . S
C1146 C1145 1.362 . S
C1146 C1149 1.409 . S
C1147 H1139 0.930 . S
C1147 C1148 1.355 . S
C1147 C1149 1.415 . S
C1148 C1147 1.355 . S
C1148 C1150 1.419 . S
C1149 C1144 1.425 . S
C1149 C1146 1.409 . S
C1149 C1147 1.415 . S
C1150 H1140 0.930 1_554 S
C1150 C1148 1.419 . S
C1150 C1151 1.362 . S
C1151 H1141 0.930 1_554 S
C1151 C1144 1.409 . S
C1151 C1150 1.362 . S
H1152 C1158 0.930 . S
H1153 C1161 0.930 . S
H1154 C1162 0.930 . S
H1155 C1163 0.930 . S
H1156 C1166 0.930 . S
H1157 C1167 0.930 . S
C1158 H1152 0.930 . S
C1158 C1159 1.355 . S
C1158 C1160 1.415 . S
C1159 C1158 1.355 . S
C1159 C1161 1.419 . S
C1160 C1158 1.415 . S
C1160 C1165 1.425 . S
C1160 C1167 1.409 . S
C1161 H1153 0.930 . S
C1161 C1159 1.419 . S
C1161 C1162 1.362 . S
C1162 H1154 0.930 . S
C1162 C1161 1.362 . S
C1162 C1165 1.409 . S
C1163 H1155 0.930 . S
C1163 C1164 1.355 . S
C1163 C1165 1.415 . S
C1164 C1163 1.355 . S
C1164 C1166 1.419 . S
C1165 C1160 1.425 . S
C1165 C1162 1.409 . S
C1165 C1163 1.415 . S
C1166 H1156 0.930 . S
C1166 C1164 1.419 . S
C1166 C1167 1.362 . S
C1167 H1157 0.930 . S
C1167 C1160 1.409 . S
C1167 C1166 1.362 . S
C535 C348 1.517 . S
C540 C18 1.517 . S
C551 C51 1.524 . S
C556 C249 1.524 . S
C567 C502 1.513 . S
C572 C40 1.513 . S
C583 C73 1.510 . S
C588 C7 1.510 . S
C599 C84 1.526 . S
C604 C282 1.526 . S
C615 C183 1.505 . S
C620 C117 1.505 . S
C631 C436 1.515 . S
C636 C106 1.515 . S
C647 C480 1.530 . S
C652 C150 1.530 . S
C663 C172 1.513 . S
C668 C370 1.513 . S
C679 C205 1.490 . S
C684 C139 1.490 . S
C695 C414 1.529 . S
C700 C216 1.529 . S
C711 C304 1.476 . S
C716 C238 1.476 . S
C727 C513 1.500 . S
C732 C315 1.500 . S
C743 C271 1.503 . S
C748 C337 1.503 . S
C759 C381 1.503 . S
C764 C447 1.503 . S
C775 C469 1.496 . S
C780 C403 1.496 . S
C791 N13 1.376 . S
C796 N2 1.376 . S
C807 N35 1.358 . S
C812 N46 1.359 . S
C823 N79 1.342 . S
C828 N68 1.340 . S
C839 N101 1.370 . S
C844 N112 1.371 . S
C855 N134 1.343 . S
C860 N145 1.345 . S
C871 N167 1.370 . S
C876 N178 1.371 . S
C887 N211 1.339 . S
C892 N200 1.336 . S
C903 N244 1.341 . S
C908 N233 1.338 . S
C919 N277 1.376 . S
C924 N266 1.376 . S
C935 N310 1.347 . S
C940 N299 1.345 . S
C951 N343 1.369 . S
C956 N332 1.368 . S
C967 N376 1.349 . S
C972 N365 1.347 . S
C983 N409 1.355 . S
C988 N398 1.353 . S
C999 N431 1.375 . S
C1004 N442 1.375 . S
C1015 N475 1.351 . S
C1020 N464 1.349 . S
C1031 N497 1.337 . S
C1036 N508 1.340 . S
C1047 C21 1.495 . S
C1052 C54 1.496 . S
C1063 C87 1.496 . S
C1068 C120 1.498 . S
C1079 C153 1.497 . S
C1084 C186 1.497 . S
C1095 C219 1.495 . S
C1100 C252 1.497 . S
C1111 C318 1.495 . S
C1116 C285 1.496 . S
C1127 C351 1.497 . S
C1132 C384 1.497 . S
C1143 C450 1.495 . S
C1148 C417 1.498 . S
C1159 C516 1.497 . S
C1164 C483 1.497 . S
