# Generated by pormake.
# Topology vmb, (5)-cn, num edge types: 1
# Building blocks:
#     Node 0, Type 0, BuildingBlock: XOMCOT_clean_sbu_1, # of connection points: 5
#     Node 1, Type 0, BuildingBlock: XOMCOT_clean_sbu_1, # of connection points: 5
#     Node 2, Type 0, BuildingBlock: XOMCOT_clean_sbu_1, # of connection points: 5
#     Node 3, Type 0, BuildingBlock: XOMCOT_clean_sbu_1, # of connection points: 5
#     Node 4, Type 0, BuildingBlock: XOMCOT_clean_sbu_1, # of connection points: 5
#     Node 5, Type 0, BuildingBlock: XOMCOT_clean_sbu_1, # of connection points: 5
#     Node 6, Type 0, BuildingBlock: XOMCOT_clean_sbu_1, # of connection points: 5
#     Node 7, Type 0, BuildingBlock: XOMCOT_clean_sbu_1, # of connection points: 5
#     Edge 8, Type (0, 0), BuildingBlock: XIVTED_clean_linker_0, # of connection points: 2
#     Edge 9, Type (0, 0), BuildingBlock: XIVTED_clean_linker_0, # of connection points: 2
#     Edge 10, Type (0, 0), BuildingBlock: XIVTED_clean_linker_0, # of connection points: 2
#     Edge 11, Type (0, 0), BuildingBlock: XIVTED_clean_linker_0, # of connection points: 2
#     Edge 12, Type (0, 0), BuildingBlock: XIVTED_clean_linker_0, # of connection points: 2
#     Edge 13, Type (0, 0), BuildingBlock: XIVTED_clean_linker_0, # of connection points: 2
#     Edge 14, Type (0, 0), BuildingBlock: XIVTED_clean_linker_0, # of connection points: 2
#     Edge 15, Type (0, 0), BuildingBlock: XIVTED_clean_linker_0, # of connection points: 2
#     Edge 16, Type (0, 0), BuildingBlock: XIVTED_clean_linker_0, # of connection points: 2
#     Edge 17, Type (0, 0), BuildingBlock: XIVTED_clean_linker_0, # of connection points: 2
#     Edge 18, Type (0, 0), BuildingBlock: XIVTED_clean_linker_0, # of connection points: 2
#     Edge 19, Type (0, 0), BuildingBlock: XIVTED_clean_linker_0, # of connection points: 2
#     Edge 20, Type (0, 0), BuildingBlock: XIVTED_clean_linker_0, # of connection points: 2
#     Edge 21, Type (0, 0), BuildingBlock: XIVTED_clean_linker_0, # of connection points: 2
#     Edge 22, Type (0, 0), BuildingBlock: XIVTED_clean_linker_0, # of connection points: 2
#     Edge 23, Type (0, 0), BuildingBlock: XIVTED_clean_linker_0, # of connection points: 2
#     Edge 24, Type (0, 0), BuildingBlock: XIVTED_clean_linker_0, # of connection points: 2
#     Edge 25, Type (0, 0), BuildingBlock: XIVTED_clean_linker_0, # of connection points: 2
#     Edge 26, Type (0, 0), BuildingBlock: XIVTED_clean_linker_0, # of connection points: 2
#     Edge 27, Type (0, 0), BuildingBlock: XIVTED_clean_linker_0, # of connection points: 2
# Relax obj value: 0.083
# Max RMSD: 0.124
# Mean RMSD: 0.124
data_MOF--net-vmb--node1-XOMCOT_clean_sbu_1--edge1-XIVTED_clean_linker_0
_symmetry_space_group_name_H-M    P1
_symmetry_Int_Tables_number       1
_symmetry_cell_setting            triclinic
loop_
_symmetry_equiv_pos_as_xyz
'x, y, z'
_cell_length_a     38.454513
_cell_length_b     48.552599
_cell_length_c     27.133785
_cell_angle_alpha  89.853961
_cell_angle_beta   119.58129
_cell_angle_gamma 90.233935
loop_
_atom_site_label
_atom_site_type_symbol
_atom_site_fract_x
_atom_site_fract_y
_atom_site_fract_z
_atom_type_partial_charge
C0 C 0.20968 0.08049 0.27443 0.0
C1 C 0.16965 0.08107 0.25723 0.0
N2 N 0.16398 0.06832 0.2968 0.0
N3 N 0.22943 0.06753 0.32479 0.0
C4 C 0.20068 0.06012 0.33739 0.0
H5 H 0.2238 0.09012 0.25282 0.0
Co6 Co 0.28505 0.06718 0.36468 0.0
C7 C 0.30982 0.04298 0.47691 0.0
O8 O 0.33875 0.06135 0.49682 0.0
N9 N 0.34219 0.06711 0.40302 0.0
C10 C 0.40653 0.07872 0.44192 0.0
C11 C 0.36814 0.08846 0.41793 0.0
C12 C 0.36597 0.04452 0.41757 0.0
N13 N 0.40528 0.05103 0.44184 0.0
O14 O 0.28458 0.03729 0.31732 0.0
H15 H 0.36049 0.10994 0.41118 0.0
H16 H 0.35452 0.02366 0.41084 0.0
O17 O 0.28548 0.04185 0.42319 0.0
C18 C 0.2909 0.04868 0.27989 0.0
O19 O 0.29815 0.07532 0.28425 0.0
N20 N 0.28339 0.0987 0.40402 0.0
C21 C 0.27819 0.14974 0.44705 0.0
C22 C 0.26898 0.1254 0.46618 0.0
C23 C 0.27058 0.10014 0.44287 0.0
C24 C 0.28868 0.12234 0.38135 0.0
C25 C 0.28729 0.14802 0.40311 0.0
H26 H 0.26025 0.0821 0.45508 0.0
H27 H 0.29456 0.12119 0.34632 0.0
H28 H 0.20668 0.05052 0.37686 0.0
H29 H 0.14655 0.09093 0.21941 0.0
H30 H 0.43324 0.09118 0.45673 0.0
H31 H 0.25954 0.12594 0.49775 0.0
H32 H 0.29368 0.16628 0.38597 0.0
C33 C 0.83468 0.08434 0.24462 0.0
C34 C 0.87542 0.08793 0.27194 0.0
N35 N 0.891 0.06958 0.25107 0.0
N36 N 0.82438 0.06376 0.20667 0.0
C37 C 0.85941 0.05502 0.21175 0.0
H38 H 0.81367 0.09686 0.25014 0.0
Co39 Co 0.77135 0.05507 0.1544 0.0
C40 C 0.7781 0.00685 0.09563 0.0
O41 O 0.75898 -0.00724 0.11634 0.0
N42 N 0.71778 0.04658 0.10066 0.0
C43 C 0.66419 0.03939 0.0163 0.0
C44 C 0.70274 0.04893 0.04409 0.0
C45 C 0.68741 0.03553 0.10607 0.0
N46 N 0.65447 0.03075 0.05512 0.0
O47 O 0.77303 0.02528 0.20291 0.0
H48 H 0.71915 0.05646 0.02394 0.0
H49 H 0.6898 0.03019 0.14634 0.0
O50 O 0.78786 0.03182 0.11093 0.0
C51 C 0.76731 0.03486 0.24216 0.0
O52 O 0.7592 0.06119 0.24101 0.0
N53 N 0.76958 0.08593 0.11234 0.0
C54 C 0.76754 0.13691 0.06396 0.0
C55 C 0.79089 0.11544 0.06126 0.0
C56 C 0.7919 0.09006 0.08644 0.0
C57 C 0.74643 0.10642 0.11476 0.0
C58 C 0.74483 0.13205 0.09064 0.0
H59 H 0.81155 0.07416 0.08671 0.0
H60 H 0.72974 0.10291 0.13668 0.0
H61 H 0.86158 0.0395 0.18485 0.0
H62 H 0.89215 0.10347 0.30348 0.0
H63 H 0.64491 0.03878 0.97081 0.0
H64 H 0.80937 0.11857 0.04187 0.0
H65 H 0.72628 0.14803 0.09338 0.0
C66 C 0.8358 0.89863 0.7482 0.0
C67 C 0.87598 0.89776 0.76634 0.0
N68 N 0.88207 0.90862 0.72556 0.0
N69 N 0.81642 0.90989 0.69604 0.0
C70 C 0.8455 0.91597 0.68328 0.0
H71 H 0.82136 0.89035 0.77057 0.0
Co72 Co 0.76086 0.9101 0.65448 0.0
C73 C 0.73811 0.93313 0.54173 0.0
O74 O 0.7091 0.91482 0.52103 0.0
N75 N 0.70378 0.91008 0.6141 0.0
C76 C 0.6394 0.89829 0.57283 0.0
C77 C 0.6779 0.88864 0.59804 0.0
C78 C 0.67985 0.93259 0.59874 0.0
N79 N 0.64051 0.92598 0.5732 0.0
O80 O 0.76036 0.94088 0.69926 0.0
H81 H 0.68576 0.86717 0.60477 0.0
H82 H 0.69122 0.95348 0.60598 0.0
O83 O 0.76169 0.93438 0.5956 0.0
C84 C 0.75265 0.93031 0.73605 0.0
O85 O 0.7449 0.90376 0.73266 0.0
N86 N 0.76334 0.87775 0.6182 0.0
C87 C 0.7698 0.82509 0.5822 0.0
C88 C 0.77758 0.84864 0.55895 0.0
C89 C 0.77539 0.87476 0.57879 0.0
C90 C 0.7591 0.85507 0.64443 0.0
C91 C 0.76145 0.82863 0.62657 0.0
H92 H 0.78447 0.89222 0.56326 0.0
H93 H 0.75339 0.85761 0.6794 0.0
H94 H 0.83986 0.92397 0.64273 0.0
H95 H 0.89891 0.88898 0.80577 0.0
H96 H 0.61268 0.88575 0.55706 0.0
H97 H 0.78536 0.84701 0.5258 0.0
H98 H 0.7573 0.81115 0.648 0.0
C99 C 0.21038 0.89248 0.77521 0.0
C100 C 0.16965 0.88897 0.74879 0.0
N101 N 0.15443 0.90812 0.76862 0.0
N102 N 0.22103 0.9138 0.8116 0.0
C103 C 0.1862 0.92307 0.8064 0.0
H104 H 0.23119 0.87941 0.77036 0.0
Co105 Co 0.27417 0.92264 0.86317 0.0
C106 C 0.26742 0.97113 0.92156 0.0
O107 O 0.28627 0.98526 0.90049 0.0
N108 N 0.32781 0.93132 0.91626 0.0
C109 C 0.3816 0.93878 1.00025 0.0
C110 C 0.34314 0.92908 0.9729 0.0
C111 C 0.35791 0.94248 0.91035 0.0
N112 N 0.39097 0.94743 0.96108 0.0
O113 O 0.27209 0.95218 0.81395 0.0
H114 H 0.32699 0.92154 0.99342 0.0
H115 H 0.35522 0.9478 0.86988 0.0
O116 O 0.25796 0.94608 0.90672 0.0
C117 C 0.27695 0.9421 0.7743 0.0
O118 O 0.28442 0.91565 0.77566 0.0
N119 N 0.27632 0.89199 0.90588 0.0
C120 C 0.27841 0.84117 0.95475 0.0
C121 C 0.25502 0.86268 0.9572 0.0
C122 C 0.25398 0.88797 0.93178 0.0
C123 C 0.29953 0.87147 0.90371 0.0
C124 C 0.30116 0.8459 0.92809 0.0
H125 H 0.23425 0.90387 0.93122 0.0
H126 H 0.3162 0.87488 0.88173 0.0
H127 H 0.18432 0.93925 0.83233 0.0
H128 H 0.15269 0.87292 0.71873 0.0
H129 H 0.40106 0.93951 0.0457 0.0
H130 H 0.23649 0.85962 0.97654 0.0
H131 H 0.31973 0.82989 0.92553 0.0
C132 C 0.6993 0.55709 0.24858 0.0
C133 C 0.65909 0.55673 0.23033 0.0
N134 N 0.65384 0.55409 0.27568 0.0
N135 N 0.72005 0.55445 0.30543 0.0
C136 C 0.69143 0.5532 0.3209 0.0
H137 H 0.7124 0.55976 0.22169 0.0
Co138 Co 0.77663 0.55512 0.34764 0.0
C139 C 0.75887 0.50993 0.40701 0.0
O140 O 0.73179 0.49813 0.36004 0.0
N141 N 0.83292 0.5561 0.38865 0.0
C142 C 0.89556 0.57102 0.42522 0.0
C143 C 0.85591 0.57847 0.39631 0.0
C144 C 0.85933 0.53519 0.4128 0.0
N145 N 0.89786 0.54372 0.43558 0.0
O146 O 0.77886 0.52478 0.30423 0.0
H147 H 0.84457 0.59885 0.3806 0.0
H148 H 0.85032 0.51406 0.41296 0.0
O149 O 0.77727 0.53135 0.40495 0.0
C150 C 0.78496 0.53455 0.26542 0.0
O151 O 0.78995 0.5613 0.26415 0.0
N152 N 0.77451 0.58617 0.38609 0.0
C153 C 0.77418 0.63711 0.43245 0.0
C154 C 0.78476 0.61324 0.46597 0.0
C155 C 0.7852 0.58784 0.44206 0.0
C156 C 0.76343 0.60907 0.3528 0.0
C157 C 0.76316 0.63478 0.37513 0.0
H158 H 0.7951 0.56985 0.46896 0.0
H159 H 0.75566 0.60734 0.30879 0.0
H160 H 0.69812 0.55163 0.36449 0.0
H161 H 0.6356 0.55902 0.1868 0.0
H162 H 0.92068 0.58459 0.43587 0.0
H163 H 0.79387 0.61435 0.5106 0.0
H164 H 0.75454 0.65272 0.34783 0.0
C165 C 0.33985 0.5832 0.26729 0.0
C166 C 0.38009 0.5814 0.28642 0.0
N167 N 0.38574 0.56569 0.25012 0.0
N168 N 0.31962 0.56863 0.21908 0.0
C169 C 0.34839 0.55823 0.20932 0.0
H170 H 0.32609 0.59517 0.28654 0.0
Co171 Co 0.26349 0.56822 0.17968 0.0
C172 C 0.23832 0.54803 0.06489 0.0
O173 O 0.21086 0.56731 0.04685 0.0
N174 N 0.20613 0.56778 0.14192 0.0
C175 C 0.14183 0.57876 0.10596 0.0
C176 C 0.18033 0.58864 0.13228 0.0
C177 C 0.18202 0.5452 0.12204 0.0
N178 N 0.14268 0.55139 0.0992 0.0
O179 O 0.26384 0.5366 0.22253 0.0
H180 H 0.18811 0.60982 0.14422 0.0
H181 H 0.19324 0.52461 0.12377 0.0
O182 O 0.26223 0.54522 0.11836 0.0
C183 C 0.26293 0.54583 0.26593 0.0
O184 O 0.25998 0.57257 0.27018 0.0
N185 N 0.26518 0.6012 0.14411 0.0
C186 C 0.2728 0.65372 0.108 0.0
C187 C 0.28313 0.63018 0.0882 0.0
C188 C 0.28013 0.60416 0.10793 0.0
C189 C 0.25885 0.62397 0.16779 0.0
C190 C 0.26119 0.65034 0.14918 0.0
H191 H 0.29124 0.5867 0.09547 0.0
H192 H 0.25219 0.62163 0.20192 0.0
H193 H 0.34207 0.5458 0.17278 0.0
H194 H 0.4033 0.59185 0.32325 0.0
H195 H 0.11529 0.59087 0.09413 0.0
H196 H 0.29463 0.63185 0.05904 0.0
H197 H 0.2539 0.66783 0.16701 0.0
C198 C 0.34695 0.41726 0.78251 0.0
C199 C 0.38721 0.41801 0.80175 0.0
N200 N 0.39329 0.42284 0.75761 0.0
N201 N 0.32677 0.42202 0.72631 0.0
C202 C 0.35589 0.42545 0.71217 0.0
H203 H 0.33338 0.4127 0.80819 0.0
Co204 Co 0.27041 0.4197 0.68527 0.0
C205 C 0.24396 0.4411 0.5705 0.0
O206 O 0.21692 0.4214 0.55205 0.0
N207 N 0.21307 0.41736 0.64635 0.0
C208 C 0.15001 0.40292 0.61001 0.0
C209 C 0.18938 0.39502 0.63621 0.0
C210 C 0.18685 0.43874 0.62686 0.0
N211 N 0.14819 0.43048 0.60381 0.0
O212 O 0.26715 0.45081 0.72681 0.0
H213 H 0.19934 0.37414 0.64798 0.0
H214 H 0.1961 0.45999 0.62914 0.0
O215 O 0.26813 0.44354 0.62401 0.0
C216 C 0.26216 0.44138 0.76692 0.0
O217 O 0.25795 0.41462 0.76966 0.0
N218 N 0.27519 0.38731 0.6507 0.0
C219 C 0.28183 0.33556 0.6115 0.0
C220 C 0.2894 0.35961 0.5896 0.0
C221 C 0.28694 0.38526 0.61079 0.0
C222 C 0.27198 0.36408 0.67647 0.0
C223 C 0.27415 0.338 0.65671 0.0
H224 H 0.29529 0.40315 0.59546 0.0
H225 H 0.26668 0.36588 0.71196 0.0
H226 H 0.34975 0.42886 0.66923 0.0
H227 H 0.41007 0.41485 0.84531 0.0
H228 H 0.12473 0.38931 0.598 0.0
H229 H 0.29777 0.35863 0.55693 0.0
H230 H 0.26903 0.32002 0.67598 0.0
C231 C 0.70512 0.40763 0.7495 0.0
C232 C 0.66477 0.41007 0.72991 0.0
N233 N 0.65935 0.41754 0.77346 0.0
N234 N 0.72544 0.41361 0.80518 0.0
C235 C 0.69674 0.41955 0.81875 0.0
H236 H 0.71889 0.40159 0.72477 0.0
Co237 Co 0.78141 0.41225 0.84695 0.0
C238 C 0.805 0.43074 0.96219 0.0
O239 O 0.83169 0.41094 0.9804 0.0
N240 N 0.83895 0.41132 0.88778 0.0
C241 C 0.90313 0.39931 0.92701 0.0
C242 C 0.86431 0.38996 0.89936 0.0
C243 C 0.86366 0.43356 0.90832 0.0
N244 N 0.9029 0.42681 0.93281 0.0
O245 O 0.78345 0.44465 0.80782 0.0
H246 H 0.85599 0.36879 0.88779 0.0
H247 H 0.85289 0.45438 0.9055 0.0
O248 O 0.78207 0.43423 0.9087 0.0
C249 C 0.79399 0.43829 0.77148 0.0
O250 O 0.80419 0.41273 0.76923 0.0
N251 N 0.77718 0.37867 0.87872 0.0
C252 C 0.76933 0.32552 0.91194 0.0
C253 C 0.75919 0.34865 0.9331 0.0
C254 C 0.76243 0.375 0.91497 0.0
C255 C 0.78309 0.35636 0.85343 0.0
C256 C 0.78055 0.32966 0.87051 0.0
H257 H 0.75214 0.39218 0.92935 0.0
H258 H 0.79052 0.3594 0.82018 0.0
H259 H 0.70308 0.4253 0.86089 0.0
H260 H 0.64121 0.40591 0.68711 0.0
H261 H 0.92946 0.38676 0.94022 0.0
H262 H 0.74804 0.34643 0.96258 0.0
H263 H 0.78785 0.31253 0.85183 0.0
H264 H 0.2835 0.02362 0.96231 0.0
H265 H 0.25926 -0.00315 0.23609 0.0
H266 H 0.24694 0.94442 0.99389 0.0
H267 H 0.31596 0.0677 0.20902 0.0
H268 H 0.25001 0.97711 0.14643 0.0
H269 H 0.28853 0.04081 0.0496 0.0
C270 C 0.27612 0.00986 0.98731 0.0
C271 C 0.26495 0.98247 0.9706 0.0
C272 C 0.26459 -0.00308 0.16055 0.0
C273 C 0.27124 0.00204 0.072 0.0
C274 C 0.27008 0.00809 0.21179 0.0
C275 C 0.2882 0.03405 0.23006 0.0
C276 C 0.27717 0.01197 0.12762 0.0
C277 C 0.30147 0.04777 0.19669 0.0
C278 C 0.27924 0.01966 0.03756 0.0
C279 C 0.25564 0.9657 1.005 0.0
N280 N 0.29551 0.03668 0.14736 0.0
N281 N 0.2592 0.9757 0.05428 0.0
H282 H 0.75378 0.97902 0.24348 0.0
H283 H 0.7849 0.97956 0.55922 0.0
H284 H 0.78538 0.05202 0.34723 0.0
H285 H 0.71238 0.91977 0.43174 0.0
H286 H 0.79727 0.00304 0.48865 0.0
H287 H 0.75102 0.95315 0.3197 0.0
C288 C 0.76065 -0.01053 0.28249 0.0
C289 C 0.76944 0.01771 0.28885 0.0
C290 C 0.77874 0.98471 0.47642 0.0
C291 C 0.76658 -0.01158 0.37604 0.0
C292 C 0.7717 0.97135 0.51663 0.0
C293 C 0.74713 0.9479 0.50128 0.0
C294 C 0.76174 0.97419 0.42092 0.0
C295 C 0.73102 0.93803 0.44545 0.0
C296 C 0.75887 0.97481 0.32581 0.0
C297 C 0.77799 0.03031 0.34028 0.0
N298 N 0.73864 0.95114 0.40751 0.0
N299 N 0.77632 0.01564 0.38178 0.0
H300 H 0.79087 0.97993 0.78456 0.0
H301 H 0.75818 0.9552 0.05111 0.0
H302 H 0.71955 0.91503 0.79936 0.0
H303 H 0.80145 0.0332 0.02597 0.0
H304 H 0.75208 0.93873 0.96274 0.0
H305 H 0.80036 -0.00038 0.87444 0.0
C306 C 0.77677 0.97009 0.8061 0.0
C307 C 0.75464 0.94568 0.78459 0.0
C308 C 0.76305 0.95946 0.97643 0.0
C309 C 0.76603 0.96755 0.88728 0.0
C310 C 0.76682 0.96884 0.02732 0.0
C311 C 0.78012 -0.00428 0.0461 0.0
C312 C 0.77264 0.97698 0.94351 0.0
C313 C 0.79101 0.01232 0.01318 0.0
C314 C 0.78243 0.98118 0.85749 0.0
C315 C 0.73727 0.93367 0.81446 0.0
N316 N 0.78686 0.00274 0.96328 0.0
N317 N 0.74359 0.94455 0.86412 0.0
H318 H 0.25453 0.9246 0.66792 0.0
H319 H 0.34003 0.05535 0.58838 0.0
H320 H 0.29498 -0.00286 0.7731 0.0
H321 H 0.26008 -0.00179 0.46048 0.0
H322 H 0.32667 0.03288 0.65739 0.0
H323 H 0.25806 0.94987 0.59251 0.0
C324 C 0.26386 0.94599 0.67496 0.0
C325 C 0.27471 0.95878 0.72703 0.0
C326 C 0.31188 0.02527 0.61426 0.0
C327 C 0.27937 0.9877 0.6409 0.0
C328 C 0.31973 0.03793 0.57465 0.0
C329 C 0.30145 0.0285 0.51832 0.0
C330 C 0.28597 0.00258 0.59814 0.0
C331 C 0.27502 0.00607 0.5034 0.0
C332 C 0.26573 0.96039 0.63175 0.0
C333 C 0.28627 0.98653 0.73361 0.0
N334 N 0.26838 -0.00634 0.54326 0.0
N335 N 0.28886 -3e-05 0.69132 0.0
H336 H 0.79782 0.47871 0.26515 0.0
H337 H 0.76245 0.47847 0.9478 0.0
H338 H 0.76869 0.55161 0.16104 0.0
H339 H 0.83181 0.4167 0.07232 0.0
H340 H 0.75339 0.50259 0.0202 0.0
H341 H 0.79912 0.45229 0.18872 0.0
C342 C 0.7914 0.48905 0.22615 0.0
C343 C 0.78358 0.51738 0.21959 0.0
C344 C 0.77052 0.48371 0.03144 0.0
C345 C 0.78459 0.48749 0.13228 0.0
C346 C 0.77566 0.46998 0.99018 0.0
C347 C 0.79829 0.44575 1.00416 0.0
C348 C 0.7876 0.47285 0.08666 0.0
C349 C 0.81456 0.43553 0.05974 0.0
C350 C 0.79227 0.47407 0.18272 0.0
C351 C 0.7754 0.52985 0.16818 0.0
N352 N 0.80886 0.44909 0.09886 0.0
N353 N 0.7761 0.51486 0.12656 0.0
H354 H 0.24214 0.491 0.26162 0.0
H355 H 0.29153 0.48675 0.58614 0.0
H356 H 0.28945 0.5604 0.37506 0.0
H357 H 0.21122 0.42984 0.45796 0.0
H358 H 0.30072 0.51071 0.51335 0.0
H359 H 0.24098 0.46435 0.33814 0.0
C360 C 0.25273 0.50047 0.30272 0.0
C361 C 0.26553 0.52797 0.31189 0.0
C362 C 0.28113 0.49293 0.5014 0.0
C363 C 0.26442 0.49783 0.39928 0.0
C364 C 0.27586 0.47932 0.54288 0.0
C365 C 0.25024 0.45646 0.52816 0.0
C366 C 0.26111 0.48333 0.44508 0.0
C367 C 0.23092 0.44757 0.47138 0.0
C368 C 0.25186 0.48538 0.34623 0.0
C369 C 0.27885 0.53933 0.36594 0.0
N370 N 0.2368 0.46095 0.43209 0.0
N371 N 0.2779 0.52427 0.40747 0.0
H372 H 0.20657 0.56024 0.95278 0.0
H373 H 0.28518 0.42578 0.87449 0.0
H374 H 0.28485 0.50218 0.07955 0.0
H375 H 0.24256 0.49637 0.76365 0.0
H376 H 0.28296 0.45251 0.94877 0.0
H377 H 0.21651 0.53622 0.88206 0.0
C378 C 0.22581 0.54234 0.96587 0.0
C379 C 0.24465 0.53307 0.02235 0.0
C380 C 0.2744 0.46229 0.90847 0.0
C381 C 0.25612 0.50542 0.94088 0.0
C382 C 0.27547 0.44703 0.86584 0.0
C383 C 0.26375 0.45885 0.8126 0.0
C384 C 0.26082 0.48954 0.89773 0.0
C385 C 0.25188 0.4865 0.80408 0.0
C386 C 0.23167 0.52877 0.92533 0.0
C387 C 0.26958 0.50996 0.03656 0.0
N388 N 0.25022 0.50085 0.84604 0.0
N389 N 0.2743 0.49677 0.99595 0.0
H390 H 0.72551 0.46142 0.68906 0.0
H391 H 0.82542 0.51689 0.51018 0.0
H392 H 0.85183 0.45515 0.74896 0.0
H393 H 0.70578 0.48347 0.43108 0.0
H394 H 0.83401 0.50454 0.60315 0.0
H395 H 0.71618 0.48118 0.59964 0.0
C396 C 0.75141 0.46524 0.68413 0.0
C397 C 0.78957 0.45719 0.72643 0.0
C398 C 0.80591 0.49992 0.56541 0.0
C399 C 0.77915 0.47902 0.62466 0.0
C400 C 0.801 0.50686 0.5124 0.0
C401 C 0.76498 0.50089 0.46284 0.0
C402 C 0.77428 0.48747 0.56906 0.0
C403 C 0.73424 0.48805 0.4682 0.0
C404 C 0.74602 0.47603 0.63294 0.0
C405 C 0.82206 0.46155 0.71747 0.0
N406 N 0.73949 0.4819 0.52044 0.0
N407 N 0.81616 0.47219 0.66754 0.0
H408 H 0.56408 0.91536 0.4913 0.0
H409 H 0.48186 0.06169 0.52293 0.0
H410 H 0.63885 0.97848 0.60741 0.0
H411 H 0.40661 -0.00157 0.40783 0.0
H412 H 0.53951 0.03157 0.554 0.0
H413 H 0.50631 0.94546 0.45991 0.0
C414 C 0.56841 0.93551 0.51042 0.0
C415 C 0.60654 0.94426 0.55244 0.0
C416 C 0.51042 0.02422 0.52196 0.0
C417 C 0.54018 0.97908 0.51612 0.0
C418 C 0.4774 0.0415 0.50394 0.0
C419 C 0.43918 0.03272 0.46229 0.0
C420 C 0.50544 -0.00215 0.49829 0.0
C421 C 0.43533 0.00604 0.44026 0.0
C422 C 0.53533 0.95276 0.49223 0.0
C423 C 0.61024 0.97088 0.57467 0.0
N424 N 0.46804 -0.01039 0.45837 0.0
N425 N 0.5775 0.98728 0.55639 0.0
H426 H 0.42485 0.94829 0.89346 0.0
H427 H 0.62034 0.02993 0.12239 0.0
H428 H 0.44236 0.97618 0.05506 0.0
H429 H 0.60281 0.00245 0.96054 0.0
H430 H 0.55543 0.00985 0.09898 0.0
H431 H 0.48965 0.96854 0.91654 0.0
C432 C 0.44215 0.95877 0.93358 0.0
C433 C 0.4282 0.96024 0.97251 0.0
C434 C 0.56581 0.00825 0.06857 0.0
C435 C 0.50257 0.98329 0.99956 0.0
C436 C 0.60301 0.01958 0.08214 0.0
C437 C 0.61703 0.01814 0.04328 0.0
C438 C 0.54247 -0.00471 0.01583 0.0
C439 C 0.59301 0.00461 0.99143 0.0
C440 C 0.47927 0.97019 0.94695 0.0
C441 C 0.45213 0.97396 0.02414 0.0
N442 N 0.55701 -0.00622 0.97926 0.0
N443 N 0.48805 0.98487 0.03613 0.0
H444 H 0.97323 0.56099 0.51087 0.0
H445 H 0.07273 0.41403 0.52728 0.0
H446 H 0.90591 0.48885 0.42165 0.0
H447 H 0.1405 0.48502 0.62178 0.0
H448 H 1.0118 0.44128 0.48808 0.0
H449 H 0.03454 0.53382 0.55149 0.0
C450 C 0.97123 0.53946 0.4996 0.0
C451 C 0.93406 0.52734 0.46229 0.0
C452 C 0.03993 0.45096 0.51741 0.0
C453 C 1.00469 0.49588 0.50934 0.0
C454 C 0.07493 0.43532 0.54018 0.0
C455 C 0.11213 0.44705 0.57854 0.0
C456 C 0.04174 0.47873 0.53275 0.0
C457 C 0.11275 0.47503 0.59225 0.0
C458 C 1.00638 0.5239 0.5231 0.0
C459 C 0.9336 0.49913 0.45039 0.0
N460 N 0.07815 0.48985 0.56954 0.0
N461 N 0.96829 0.48446 0.47359 0.0
H462 H 0.06636 0.5646 0.02081 0.0
H463 H 0.97919 0.4133 1.01154 0.0
H464 H 0.13976 0.4963 0.11815 0.0
H465 H 0.90663 0.48166 0.91297 0.0
H466 H 0.03797 0.44318 0.05102 0.0
H467 H 1.0079 0.53452 0.98124 0.0
C468 C 0.07028 0.54329 0.03418 0.0
C469 C 0.10828 0.53314 0.07348 0.0
C470 C 1.00923 0.45168 0.02077 0.0
C471 C 0.04085 0.49825 0.02743 0.0
C472 C 0.9755 0.43456 0.99788 0.0
C473 C 0.93761 0.4448 0.95834 0.0
C474 C 1.00537 0.47943 1.00425 0.0
C475 C 0.93495 0.47279 0.94349 0.0
C476 C 0.03674 0.52604 1.01123 0.0
C477 C 0.11127 0.50508 0.08789 0.0
N478 N 0.9683 0.48903 0.96627 0.0
N479 N 0.07805 0.48869 0.06509 0.0
H480 H 0.13067 0.02476 0.32164 0.0
H481 H 0.94202 0.11261 0.27763 0.0
H482 H 0.1129 0.11032 0.27357 0.0
H483 H 0.93331 0.02479 0.25056 0.0
H484 H 1.01057 0.11149 0.29522 0.0
H485 H 0.0639 0.02377 0.31419 0.0
C486 C 0.11286 0.04334 0.31022 0.0
C487 C 0.12695 0.06762 0.29787 0.0
C488 C 0.99378 0.09241 0.28566 0.0
C489 C 0.05148 0.06678 0.28974 0.0
C490 C 0.95469 0.093 0.276 0.0
C491 C 0.93188 0.06874 0.26268 0.0
C492 C 1.01064 0.06733 0.28265 0.0
C493 C 0.9498 0.04398 0.26026 0.0
C494 C 0.07484 0.04274 0.30557 0.0
C495 C 0.10285 0.09116 0.28288 0.0
N496 N 0.98825 0.04386 0.27033 0.0
N497 N 0.06645 0.09018 0.27942 0.0
H498 H 0.11229 0.95368 0.76528 0.0
H499 H 0.93398 0.86664 0.7561 0.0
H500 H 0.10399 0.86529 0.74836 0.0
H501 H 0.91531 0.9503 0.69555 0.0
H502 H 0.99976 0.86714 0.76291 0.0
H503 H 0.04333 0.95461 0.74918 0.0
C504 C 0.09594 0.93454 0.75809 0.0
C505 C 0.11381 0.90938 0.75793 0.0
C506 C 0.98128 0.88539 0.74777 0.0
C507 C 0.03553 0.91025 0.7401 0.0
C508 C 0.94386 0.88511 0.74409 0.0
C509 C 0.91941 0.90847 0.72535 0.0
C510 C 0.99488 0.90941 0.7337 0.0
C511 C 0.93336 0.93187 0.70988 0.0
C512 C 0.05663 0.93509 0.74855 0.0
C513 C 0.09129 0.88515 0.74812 0.0
N514 N 0.97052 0.93191 0.71504 0.0
N515 N 0.05358 0.88618 0.74015 0.0
H516 H 0.40051 0.55311 0.16399 0.0
H517 H 0.63867 0.56476 0.36229 0.0
H518 H 0.45904 0.56561 0.34487 0.0
H519 H 0.581 0.54062 0.18632 0.0
H520 H 0.57326 0.56478 0.35705 0.0
H521 H 0.46627 0.54784 0.17126 0.0
C522 C 0.42702 0.55448 0.20527 0.0
C523 C 0.42397 0.56015 0.25373 0.0
C524 C 0.57499 0.55942 0.31961 0.0
C525 C 0.49964 0.5545 0.26236 0.0
C526 C 0.61248 0.55931 0.32267 0.0
C527 C 0.61572 0.55302 0.27456 0.0
C528 C 0.54029 0.55325 0.26807 0.0
C529 C 0.58029 0.54627 0.2243 0.0
C530 C 0.46467 0.55163 0.2094 0.0
C531 C 0.45969 0.5619 0.30607 0.0
N532 N 0.54425 0.54672 0.22234 0.0
N533 N 0.49584 0.55927 0.30889 0.0
H534 H 0.58851 0.43294 0.68292 0.0
H535 H 0.46511 0.40479 0.84372 0.0
H536 H 0.64251 0.40989 0.85905 0.0
H537 H 0.4111 0.44099 0.67648 0.0
H538 H 0.52934 0.40584 0.84808 0.0
H539 H 0.52337 0.43535 0.67823 0.0
C540 C 0.58675 0.42838 0.72068 0.0
C541 C 0.62124 0.421 0.77145 0.0
C542 C 0.50356 0.4137 0.81045 0.0
C543 C 0.54635 0.42379 0.76624 0.0
C544 C 0.46641 0.41328 0.80784 0.0
C545 C 0.43187 0.42313 0.75971 0.0
C546 C 0.50685 0.42378 0.76449 0.0
C547 C 0.43645 0.43308 0.71443 0.0
C548 C 0.54948 0.4299 0.71797 0.0
C549 C 0.61699 0.41582 0.81915 0.0
N550 N 0.47315 0.4331 0.71791 0.0
N551 N 0.58031 0.41711 0.81523 0.0
H552 H 0.25154 0.32224 0.49978 0.0
H553 H 0.30634 0.16222 0.55887 0.0
H554 H 0.31145 0.28649 0.66733 0.0
H555 H 0.24906 0.1989 0.39219 0.0
H556 H 0.30718 0.20728 0.59946 0.0
H557 H 0.25021 0.27708 0.45977 0.0
C558 C 0.26471 0.30493 0.52823 0.0
C559 C 0.2817 0.30822 0.58706 0.0
C560 C 0.29441 0.20546 0.55401 0.0
C561 C 0.27974 0.25625 0.54137 0.0
C562 C 0.29368 0.17971 0.53077 0.0
C563 C 0.27773 0.17679 0.47205 0.0
C564 C 0.27898 0.22848 0.51826 0.0
C565 C 0.26221 0.20025 0.43776 0.0
C566 C 0.26369 0.27909 0.50531 0.0
C567 C 0.29762 0.28489 0.62171 0.0
N568 N 0.26325 0.22508 0.46137 0.0
N569 N 0.29627 0.25991 0.59835 0.0
H570 H 0.74645 0.27683 0.85184 0.0
H571 H 0.77471 0.18646 0.11534 0.0
H572 H 0.78959 0.30978 0.01994 0.0
H573 H 0.76193 0.15051 0.96198 0.0
H574 H 0.77452 0.23222 0.07782 0.0
H575 H 0.74676 0.23075 0.88844 0.0
C576 C 0.75619 0.27444 0.89647 0.0
C577 C 0.7681 0.29736 0.93283 0.0
C578 C 0.7718 0.21436 0.05233 0.0
C579 C 0.76783 0.24461 0.97469 0.0
C580 C 0.77166 0.18823 0.07358 0.0
C581 C 0.76812 0.16468 0.04156 0.0
C582 C 0.76806 0.21704 0.99841 0.0
C583 C 0.76493 0.16816 0.98812 0.0
C584 C 0.75617 0.2481 0.91724 0.0
C585 C 0.77957 0.2929 0.99003 0.0
N586 N 0.76476 0.19389 0.96803 0.0
N587 N 0.77909 0.2671 1.00911 0.0
H588 H 0.80873 0.68406 0.42111 0.0
H589 H 0.72211 0.78067 0.57121 0.0
H590 H 0.74267 0.65238 0.49936 0.0
H591 H 0.82002 0.8052 0.54524 0.0
H592 H 0.72484 0.73455 0.53796 0.0
H593 H 0.80863 0.72975 0.45883 0.0
C594 C 0.79418 0.68679 0.44624 0.0
C595 C 0.77554 0.66452 0.45704 0.0
C596 C 0.74579 0.75003 0.53975 0.0
C597 C 0.77519 0.71664 0.50008 0.0
C598 C 0.74441 0.77638 0.55898 0.0
C599 C 0.77097 0.79699 0.56131 0.0
C600 C 0.77358 0.74422 0.52198 0.0
C601 C 0.79852 0.79022 0.54345 0.0
C602 C 0.79431 0.71279 0.46796 0.0
C603 C 0.75752 0.66903 0.49036 0.0
N604 N 0.799 0.76445 0.52438 0.0
N605 N 0.7575 0.69467 0.51037 0.0
H606 H 0.27139 0.79144 0.90399 0.0
H607 H 0.29679 0.70244 0.16753 0.0
H608 H 0.28377 0.82797 0.05665 0.0
H609 H 0.25376 0.66873 1.00004 0.0
H610 H 0.29785 0.74816 0.13064 0.0
H611 H 0.27101 0.74581 0.94179 0.0
C612 C 0.27425 0.78982 0.94566 0.0
C613 C 0.27779 0.81349 0.9774 0.0
C614 C 0.28814 0.73073 0.10201 0.0
C615 C 0.27717 0.76134 0.0208 0.0
C616 C 0.28732 0.7046 0.12294 0.0
C617 C 0.27493 0.6816 0.0868 0.0
C618 C 0.27683 0.73393 0.04463 0.0
C619 C 0.26398 0.68572 0.0297 0.0
C620 C 0.27377 0.76379 0.96705 0.0
C621 C 0.28075 0.81023 0.03072 0.0
N622 N 0.26521 0.71135 1.01043 0.0
N623 N 0.28056 0.7846 0.05092 0.0
loop_
_geom_bond_atom_site_label_1
_geom_bond_atom_site_label_2
_geom_bond_distance
_geom_bond_site_symmetry_2
_ccdc_geom_bond_type
C0 C1 1.351 . S
C0 N3 1.368 . S
C0 H5 0.931 . S
C1 C0 1.351 . S
C1 N2 1.373 . S
C1 H29 0.930 . S
N2 C1 1.373 . S
N2 C4 1.340 . S
N3 C0 1.368 . S
N3 C4 1.321 . S
N3 Co6 2.135 . S
C4 N2 1.340 . S
C4 N3 1.321 . S
C4 H28 0.930 . S
H5 C0 0.931 . S
Co6 N3 2.135 . S
Co6 N9 2.121 . S
Co6 O14 2.055 . S
Co6 O17 2.039 . S
Co6 N20 2.140 . S
C7 O8 1.227 . S
C7 O17 1.265 . S
O8 C7 1.227 . S
N9 Co6 2.121 . S
N9 C11 1.375 . S
N9 C12 1.313 . S
C10 C11 1.338 . S
C10 N13 1.377 . S
C10 H30 0.930 . S
C11 N9 1.375 . S
C11 C10 1.338 . S
C11 H15 0.931 . S
C12 N9 1.313 . S
C12 N13 1.344 . S
C12 H16 0.930 . S
N13 C10 1.377 . S
N13 C12 1.344 . S
O14 Co6 2.055 . S
O14 C18 1.253 . S
H15 C11 0.931 . S
H16 C12 0.930 . S
O17 Co6 2.039 . S
O17 C7 1.265 . S
C18 O14 1.253 . S
C18 O19 1.227 . S
O19 C18 1.227 . S
N20 Co6 2.140 . S
N20 C23 1.346 . S
N20 C24 1.345 . S
C21 C22 1.387 . S
C21 C25 1.391 . S
C22 C21 1.387 . S
C22 C23 1.369 . S
C22 H31 0.929 . S
C23 N20 1.346 . S
C23 C22 1.369 . S
C23 H26 0.928 . S
C24 N20 1.345 . S
C24 C25 1.371 . S
C24 H27 0.931 . S
C25 C21 1.391 . S
C25 C24 1.371 . S
C25 H32 0.930 . S
H26 C23 0.928 . S
H27 C24 0.931 . S
H28 C4 0.930 . S
H29 C1 0.930 . S
H30 C10 0.930 . S
H31 C22 0.929 . S
H32 C25 0.930 . S
C33 C34 1.351 . S
C33 N36 1.368 . S
C33 H38 0.931 . S
C34 C33 1.351 . S
C34 N35 1.373 . S
C34 H62 0.930 . S
N35 C34 1.373 . S
N35 C37 1.340 . S
N36 C33 1.368 . S
N36 C37 1.321 . S
N36 Co39 2.135 . S
C37 N35 1.340 . S
C37 N36 1.321 . S
C37 H61 0.930 . S
H38 C33 0.931 . S
Co39 N36 2.135 . S
Co39 N42 2.121 . S
Co39 O47 2.055 . S
Co39 O50 2.039 . S
Co39 N53 2.140 . S
C40 O41 1.227 1_554 S
C40 O50 1.265 . S
O41 C40 1.227 1_556 S
N42 Co39 2.121 . S
N42 C44 1.375 1_554 S
N42 C45 1.313 . S
C43 C44 1.338 . S
C43 N46 1.377 1_556 S
C43 H63 0.930 . S
C44 N42 1.375 1_556 S
C44 C43 1.338 . S
C44 H48 0.931 . S
C45 N42 1.313 . S
C45 N46 1.344 . S
C45 H49 0.930 . S
N46 C43 1.377 1_554 S
N46 C45 1.344 . S
O47 Co39 2.055 . S
O47 C51 1.253 . S
H48 C44 0.931 . S
H49 C45 0.930 . S
O50 Co39 2.039 . S
O50 C40 1.265 . S
C51 O47 1.253 . S
C51 O52 1.227 . S
O52 C51 1.227 . S
N53 Co39 2.140 . S
N53 C56 1.346 . S
N53 C57 1.345 . S
C54 C55 1.387 . S
C54 C58 1.391 . S
C55 C54 1.387 . S
C55 C56 1.369 . S
C55 H64 0.929 . S
C56 N53 1.346 . S
C56 C55 1.369 . S
C56 H59 0.928 . S
C57 N53 1.345 . S
C57 C58 1.371 . S
C57 H60 0.931 . S
C58 C54 1.391 . S
C58 C57 1.371 . S
C58 H65 0.930 . S
H59 C56 0.928 . S
H60 C57 0.931 . S
H61 C37 0.930 . S
H62 C34 0.930 . S
H63 C43 0.930 . S
H64 C55 0.929 . S
H65 C58 0.930 . S
C66 C67 1.351 . S
C66 N69 1.368 . S
C66 H71 0.931 . S
C67 C66 1.351 . S
C67 N68 1.373 . S
C67 H95 0.930 . S
N68 C67 1.373 . S
N68 C70 1.340 . S
N69 C66 1.368 . S
N69 C70 1.321 . S
N69 Co72 2.135 . S
C70 N68 1.340 . S
C70 N69 1.321 . S
C70 H94 0.930 . S
H71 C66 0.931 . S
Co72 N69 2.135 . S
Co72 N75 2.121 . S
Co72 O80 2.055 . S
Co72 O83 2.039 . S
Co72 N86 2.140 . S
C73 O74 1.227 . S
C73 O83 1.265 . S
O74 C73 1.227 . S
N75 Co72 2.121 . S
N75 C77 1.375 . S
N75 C78 1.313 . S
C76 C77 1.338 . S
C76 N79 1.377 . S
C76 H96 0.930 . S
C77 N75 1.375 . S
C77 C76 1.338 . S
C77 H81 0.931 . S
C78 N75 1.313 . S
C78 N79 1.344 . S
C78 H82 0.930 . S
N79 C76 1.377 . S
N79 C78 1.344 . S
O80 Co72 2.055 . S
O80 C84 1.253 . S
H81 C77 0.931 . S
H82 C78 0.930 . S
O83 Co72 2.039 . S
O83 C73 1.265 . S
C84 O80 1.253 . S
C84 O85 1.227 . S
O85 C84 1.227 . S
N86 Co72 2.140 . S
N86 C89 1.346 . S
N86 C90 1.345 . S
C87 C88 1.387 . S
C87 C91 1.391 . S
C88 C87 1.387 . S
C88 C89 1.369 . S
C88 H97 0.929 . S
C89 N86 1.346 . S
C89 C88 1.369 . S
C89 H92 0.928 . S
C90 N86 1.345 . S
C90 C91 1.371 . S
C90 H93 0.931 . S
C91 C87 1.391 . S
C91 C90 1.371 . S
C91 H98 0.930 . S
H92 C89 0.928 . S
H93 C90 0.931 . S
H94 C70 0.930 . S
H95 C67 0.930 . S
H96 C76 0.930 . S
H97 C88 0.929 . S
H98 C91 0.930 . S
C99 C100 1.351 . S
C99 N102 1.368 . S
C99 H104 0.931 . S
C100 C99 1.351 . S
C100 N101 1.373 . S
C100 H128 0.930 . S
N101 C100 1.373 . S
N101 C103 1.340 . S
N102 C99 1.368 . S
N102 C103 1.321 . S
N102 Co105 2.135 . S
C103 N101 1.340 . S
C103 N102 1.321 . S
C103 H127 0.930 . S
H104 C99 0.931 . S
Co105 N102 2.135 . S
Co105 N108 2.121 . S
Co105 O113 2.055 . S
Co105 O116 2.039 . S
Co105 N119 2.140 . S
C106 O107 1.227 1_556 S
C106 O116 1.265 . S
O107 C106 1.227 1_554 S
N108 Co105 2.121 . S
N108 C110 1.375 1_556 S
N108 C111 1.313 . S
C109 C110 1.338 . S
C109 N112 1.377 1_554 S
C109 H129 0.930 . S
C110 N108 1.375 1_554 S
C110 C109 1.338 . S
C110 H114 0.931 . S
C111 N108 1.313 . S
C111 N112 1.344 . S
C111 H115 0.930 . S
N112 C109 1.377 1_556 S
N112 C111 1.344 . S
O113 Co105 2.055 . S
O113 C117 1.253 . S
H114 C110 0.931 . S
H115 C111 0.930 . S
O116 Co105 2.039 . S
O116 C106 1.265 . S
C117 O113 1.253 . S
C117 O118 1.227 . S
O118 C117 1.227 . S
N119 Co105 2.140 . S
N119 C122 1.346 . S
N119 C123 1.345 . S
C120 C121 1.387 . S
C120 C124 1.391 . S
C121 C120 1.387 . S
C121 C122 1.369 . S
C121 H130 0.929 . S
C122 N119 1.346 . S
C122 C121 1.369 . S
C122 H125 0.928 . S
C123 N119 1.345 . S
C123 C124 1.371 . S
C123 H126 0.931 . S
C124 C120 1.391 . S
C124 C123 1.371 . S
C124 H131 0.930 . S
H125 C122 0.928 . S
H126 C123 0.931 . S
H127 C103 0.930 . S
H128 C100 0.930 . S
H129 C109 0.930 . S
H130 C121 0.929 . S
H131 C124 0.930 . S
C132 C133 1.351 . S
C132 N135 1.368 . S
C132 H137 0.931 . S
C133 C132 1.351 . S
C133 N134 1.373 . S
C133 H161 0.930 . S
N134 C133 1.373 . S
N134 C136 1.340 . S
N135 C132 1.368 . S
N135 C136 1.321 . S
N135 Co138 2.135 . S
C136 N134 1.340 . S
C136 N135 1.321 . S
C136 H160 0.930 . S
H137 C132 0.931 . S
Co138 N135 2.135 . S
Co138 N141 2.121 . S
Co138 O146 2.055 . S
Co138 O149 2.039 . S
Co138 N152 2.140 . S
C139 O140 1.227 . S
C139 O149 1.265 . S
O140 C139 1.227 . S
N141 Co138 2.121 . S
N141 C143 1.375 . S
N141 C144 1.313 . S
C142 C143 1.338 . S
C142 N145 1.377 . S
C142 H162 0.930 . S
C143 N141 1.375 . S
C143 C142 1.338 . S
C143 H147 0.931 . S
C144 N141 1.313 . S
C144 N145 1.344 . S
C144 H148 0.930 . S
N145 C142 1.377 . S
N145 C144 1.344 . S
O146 Co138 2.055 . S
O146 C150 1.253 . S
H147 C143 0.931 . S
H148 C144 0.930 . S
O149 Co138 2.039 . S
O149 C139 1.265 . S
C150 O146 1.253 . S
C150 O151 1.227 . S
O151 C150 1.227 . S
N152 Co138 2.140 . S
N152 C155 1.346 . S
N152 C156 1.345 . S
C153 C154 1.387 . S
C153 C157 1.391 . S
C154 C153 1.387 . S
C154 C155 1.369 . S
C154 H163 0.929 . S
C155 N152 1.346 . S
C155 C154 1.369 . S
C155 H158 0.928 . S
C156 N152 1.345 . S
C156 C157 1.371 . S
C156 H159 0.931 . S
C157 C153 1.391 . S
C157 C156 1.371 . S
C157 H164 0.930 . S
H158 C155 0.928 . S
H159 C156 0.931 . S
H160 C136 0.930 . S
H161 C133 0.930 . S
H162 C142 0.930 . S
H163 C154 0.929 . S
H164 C157 0.930 . S
C165 C166 1.351 . S
C165 N168 1.368 . S
C165 H170 0.931 . S
C166 C165 1.351 . S
C166 N167 1.373 . S
C166 H194 0.930 . S
N167 C166 1.373 . S
N167 C169 1.340 . S
N168 C165 1.368 . S
N168 C169 1.321 . S
N168 Co171 2.135 . S
C169 N167 1.340 . S
C169 N168 1.321 . S
C169 H193 0.930 . S
H170 C165 0.931 . S
Co171 N168 2.135 . S
Co171 N174 2.121 . S
Co171 O179 2.055 . S
Co171 O182 2.039 . S
Co171 N185 2.140 . S
C172 O173 1.227 1_554 S
C172 O182 1.265 . S
O173 C172 1.227 1_556 S
N174 Co171 2.121 . S
N174 C176 1.375 1_554 S
N174 C177 1.313 . S
C175 C176 1.338 . S
C175 N178 1.377 1_556 S
C175 H195 0.930 . S
C176 N174 1.375 1_556 S
C176 C175 1.338 . S
C176 H180 0.931 . S
C177 N174 1.313 . S
C177 N178 1.344 . S
C177 H181 0.930 . S
N178 C175 1.377 1_554 S
N178 C177 1.344 . S
O179 Co171 2.055 . S
O179 C183 1.253 . S
H180 C176 0.931 . S
H181 C177 0.930 . S
O182 Co171 2.039 . S
O182 C172 1.265 . S
C183 O179 1.253 . S
C183 O184 1.227 . S
O184 C183 1.227 . S
N185 Co171 2.140 . S
N185 C188 1.346 . S
N185 C189 1.345 . S
C186 C187 1.387 . S
C186 C190 1.391 . S
C187 C186 1.387 . S
C187 C188 1.369 . S
C187 H196 0.929 . S
C188 N185 1.346 . S
C188 C187 1.369 . S
C188 H191 0.928 . S
C189 N185 1.345 . S
C189 C190 1.371 . S
C189 H192 0.931 . S
C190 C186 1.391 . S
C190 C189 1.371 . S
C190 H197 0.930 . S
H191 C188 0.928 . S
H192 C189 0.931 . S
H193 C169 0.930 . S
H194 C166 0.930 . S
H195 C175 0.930 . S
H196 C187 0.929 . S
H197 C190 0.930 . S
C198 C199 1.351 . S
C198 N201 1.368 . S
C198 H203 0.931 . S
C199 C198 1.351 . S
C199 N200 1.373 . S
C199 H227 0.930 . S
N200 C199 1.373 . S
N200 C202 1.340 . S
N201 C198 1.368 . S
N201 C202 1.321 . S
N201 Co204 2.135 . S
C202 N200 1.340 . S
C202 N201 1.321 . S
C202 H226 0.930 . S
H203 C198 0.931 . S
Co204 N201 2.135 . S
Co204 N207 2.121 . S
Co204 O212 2.055 . S
Co204 O215 2.039 . S
Co204 N218 2.140 . S
C205 O206 1.227 . S
C205 O215 1.265 . S
O206 C205 1.227 . S
N207 Co204 2.121 . S
N207 C209 1.375 . S
N207 C210 1.313 . S
C208 C209 1.338 . S
C208 N211 1.377 . S
C208 H228 0.930 . S
C209 N207 1.375 . S
C209 C208 1.338 . S
C209 H213 0.931 . S
C210 N207 1.313 . S
C210 N211 1.344 . S
C210 H214 0.930 . S
N211 C208 1.377 . S
N211 C210 1.344 . S
O212 Co204 2.055 . S
O212 C216 1.253 . S
H213 C209 0.931 . S
H214 C210 0.930 . S
O215 Co204 2.039 . S
O215 C205 1.265 . S
C216 O212 1.253 . S
C216 O217 1.227 . S
O217 C216 1.227 . S
N218 Co204 2.140 . S
N218 C221 1.346 . S
N218 C222 1.345 . S
C219 C220 1.387 . S
C219 C223 1.391 . S
C220 C219 1.387 . S
C220 C221 1.369 . S
C220 H229 0.929 . S
C221 N218 1.346 . S
C221 C220 1.369 . S
C221 H224 0.928 . S
C222 N218 1.345 . S
C222 C223 1.371 . S
C222 H225 0.931 . S
C223 C219 1.391 . S
C223 C222 1.371 . S
C223 H230 0.930 . S
H224 C221 0.928 . S
H225 C222 0.931 . S
H226 C202 0.930 . S
H227 C199 0.930 . S
H228 C208 0.930 . S
H229 C220 0.929 . S
H230 C223 0.930 . S
C231 C232 1.351 . S
C231 N234 1.368 . S
C231 H236 0.931 . S
C232 C231 1.351 . S
C232 N233 1.373 . S
C232 H260 0.930 . S
N233 C232 1.373 . S
N233 C235 1.340 . S
N234 C231 1.368 . S
N234 C235 1.321 . S
N234 Co237 2.135 . S
C235 N233 1.340 . S
C235 N234 1.321 . S
C235 H259 0.930 . S
H236 C231 0.931 . S
Co237 N234 2.135 . S
Co237 N240 2.121 . S
Co237 O245 2.055 . S
Co237 O248 2.039 . S
Co237 N251 2.140 . S
C238 O239 1.227 1_556 S
C238 O248 1.265 . S
O239 C238 1.227 1_554 S
N240 Co237 2.121 . S
N240 C242 1.375 1_556 S
N240 C243 1.313 . S
C241 C242 1.338 . S
C241 N244 1.377 1_554 S
C241 H261 0.930 . S
C242 N240 1.375 1_554 S
C242 C241 1.338 . S
C242 H246 0.931 . S
C243 N240 1.313 . S
C243 N244 1.344 . S
C243 H247 0.930 . S
N244 C241 1.377 1_556 S
N244 C243 1.344 . S
O245 Co237 2.055 . S
O245 C249 1.253 . S
H246 C242 0.931 . S
H247 C243 0.930 . S
O248 Co237 2.039 . S
O248 C238 1.265 . S
C249 O245 1.253 . S
C249 O250 1.227 . S
O250 C249 1.227 . S
N251 Co237 2.140 . S
N251 C254 1.346 . S
N251 C255 1.345 . S
C252 C253 1.387 . S
C252 C256 1.391 . S
C253 C252 1.387 . S
C253 C254 1.369 . S
C253 H262 0.929 . S
C254 N251 1.346 . S
C254 C253 1.369 . S
C254 H257 0.928 . S
C255 N251 1.345 . S
C255 C256 1.371 . S
C255 H258 0.931 . S
C256 C252 1.391 . S
C256 C255 1.371 . S
C256 H263 0.930 . S
H257 C254 0.928 . S
H258 C255 0.931 . S
H259 C235 0.930 . S
H260 C232 0.930 . S
H261 C241 0.930 . S
H262 C253 0.929 . S
H263 C256 0.930 . S
H264 C270 0.920 1_556 S
H265 C274 0.930 1_565 S
H266 C279 0.929 . S
H267 C277 0.929 . S
H268 C272 0.929 . S
H269 C278 0.929 . S
C270 H264 0.920 1_554 S
C270 C271 1.367 1_545 S
C270 C278 1.378 . S
C271 C270 1.367 1_565 S
C271 C279 1.433 . S
C272 H268 0.929 . S
C272 C274 1.378 1_565 S
C272 C276 1.350 1_565 S
C273 C276 1.460 1_565 S
C273 C278 1.346 1_565 S
C273 N281 1.434 . S
C274 H265 0.930 1_545 S
C274 C272 1.378 1_545 S
C274 C275 1.367 . S
C275 C274 1.367 . S
C275 C277 1.433 . S
C276 C272 1.350 1_545 S
C276 C273 1.460 1_545 S
C276 N280 1.427 . S
C277 H267 0.929 . S
C277 C275 1.433 . S
C277 N280 1.384 . S
C278 H269 0.929 . S
C278 C270 1.378 . S
C278 C273 1.346 1_545 S
C279 H266 0.929 . S
C279 C271 1.433 . S
C279 N281 1.384 . S
N280 C276 1.427 . S
N280 C277 1.384 . S
N281 C273 1.434 . S
N281 C279 1.384 . S
H282 C288 0.930 1_565 S
H283 C292 0.930 . S
H284 C297 0.929 . S
H285 C295 0.929 . S
H286 C290 0.929 . S
H287 C296 0.929 . S
C288 H282 0.930 1_545 S
C288 C289 1.367 . S
C288 C296 1.378 1_545 S
C289 C288 1.367 . S
C289 C297 1.433 . S
C290 H286 0.929 . S
C290 C292 1.378 . S
C290 C294 1.346 1_545 S
C291 C294 1.460 1_545 S
C291 C296 1.350 1_545 S
C291 N299 1.427 . S
C292 H283 0.930 . S
C292 C290 1.378 . S
C292 C293 1.367 1_545 S
C293 C292 1.367 1_565 S
C293 C295 1.433 . S
C294 C290 1.346 1_565 S
C294 C291 1.460 1_565 S
C294 N298 1.434 . S
C295 H285 0.929 . S
C295 C293 1.433 . S
C295 N298 1.384 . S
C296 H287 0.929 . S
C296 C288 1.378 1_565 S
C296 C291 1.350 1_565 S
C297 H284 0.929 . S
C297 C289 1.433 . S
C297 N299 1.384 . S
N298 C294 1.434 . S
N298 C295 1.384 . S
N299 C291 1.427 . S
N299 C297 1.384 . S
H300 C306 0.930 1_545 S
H301 C310 0.930 . S
H302 C315 0.929 . S
H303 C313 0.929 . S
H304 C308 0.929 . S
H305 C314 0.929 . S
C306 H300 0.930 1_565 S
C306 C307 1.367 . S
C306 C314 1.378 1_565 S
C307 C306 1.367 . S
C307 C315 1.433 . S
C308 H304 0.929 . S
C308 C310 1.378 . S
C308 C312 1.347 1_565 S
C309 C312 1.461 1_565 S
C309 C314 1.350 1_565 S
C309 N317 1.427 . S
C310 H301 0.930 . S
C310 C308 1.378 . S
C310 C311 1.367 1_565 S
C311 C310 1.367 1_545 S
C311 C313 1.433 . S
C312 C308 1.347 1_545 S
C312 C309 1.461 1_545 S
C312 N316 1.433 . S
C313 H303 0.929 . S
C313 C311 1.433 . S
C313 N316 1.384 . S
C314 H305 0.929 . S
C314 C306 1.378 1_545 S
C314 C309 1.350 1_545 S
C315 H302 0.929 . S
C315 C307 1.433 . S
C315 N317 1.384 . S
N316 C312 1.433 . S
N316 C313 1.384 . S
N317 C309 1.427 . S
N317 C315 1.384 . S
H318 C324 0.930 . S
H319 C328 0.930 . S
H320 C333 0.933 . S
H321 C331 0.929 . S
H322 C326 0.929 . S
H323 C332 0.929 . S
C324 H318 0.930 . S
C324 C325 1.367 . S
C324 C332 1.378 . S
C325 C324 1.367 . S
C325 C333 1.428 1_565 S
C326 H322 0.929 . S
C326 C328 1.378 . S
C326 C330 1.350 . S
C327 C330 1.463 1_565 S
C327 C332 1.350 . S
C327 N335 1.427 1_565 S
C328 H319 0.930 . S
C328 C326 1.378 . S
C328 C329 1.367 . S
C329 C328 1.367 . S
C329 C331 1.433 1_545 S
C330 C326 1.350 . S
C330 C327 1.463 1_545 S
C330 N334 1.427 1_545 S
C331 H321 0.929 . S
C331 C329 1.433 1_565 S
C331 N334 1.384 . S
C332 H323 0.929 . S
C332 C324 1.378 . S
C332 C327 1.350 . S
C333 H320 0.933 . S
C333 C325 1.428 1_545 S
C333 N335 1.386 . S
N334 C330 1.427 1_565 S
N334 C331 1.384 . S
N335 C327 1.427 1_545 S
N335 C333 1.386 . S
H336 C342 0.930 . S
H337 C346 0.930 1_556 S
H338 C351 0.929 . S
H339 C349 0.929 . S
H340 C344 0.929 . S
H341 C350 0.929 . S
C342 H336 0.930 . S
C342 C343 1.367 . S
C342 C350 1.378 . S
C343 C342 1.367 . S
C343 C351 1.433 . S
C344 H340 0.929 . S
C344 C346 1.378 . S
C344 C348 1.350 . S
C345 C348 1.463 . S
C345 C350 1.350 . S
C345 N353 1.427 . S
C346 H337 0.930 1_554 S
C346 C344 1.378 . S
C346 C347 1.367 . S
C347 C346 1.367 . S
C347 C349 1.433 . S
C348 C344 1.350 . S
C348 C345 1.463 . S
C348 N352 1.427 . S
C349 H339 0.929 . S
C349 C347 1.433 . S
C349 N352 1.384 . S
C350 H341 0.929 . S
C350 C342 1.378 . S
C350 C345 1.350 . S
C351 H338 0.929 . S
C351 C343 1.433 . S
C351 N353 1.384 . S
N352 C348 1.427 . S
N352 C349 1.384 . S
N353 C345 1.427 . S
N353 C351 1.384 . S
H354 C360 0.930 . S
H355 C364 0.930 . S
H356 C369 0.929 . S
H357 C367 0.929 . S
H358 C362 0.929 . S
H359 C368 0.929 . S
C360 H354 0.930 . S
C360 C361 1.367 . S
C360 C368 1.378 . S
C361 C360 1.367 . S
C361 C369 1.433 . S
C362 H358 0.929 . S
C362 C364 1.378 . S
C362 C366 1.350 . S
C363 C366 1.463 . S
C363 C368 1.350 . S
C363 N371 1.427 . S
C364 H355 0.930 . S
C364 C362 1.378 . S
C364 C365 1.367 . S
C365 C364 1.367 . S
C365 C367 1.433 . S
C366 C362 1.350 . S
C366 C363 1.463 . S
C366 N370 1.427 . S
C367 H357 0.929 . S
C367 C365 1.433 . S
C367 N370 1.384 . S
C368 H359 0.929 . S
C368 C360 1.378 . S
C368 C363 1.350 . S
C369 H356 0.929 . S
C369 C361 1.433 . S
C369 N371 1.384 . S
N370 C366 1.427 . S
N370 C367 1.384 . S
N371 C363 1.427 . S
N371 C369 1.384 . S
H372 C378 0.930 . S
H373 C382 0.930 . S
H374 C387 0.929 . S
H375 C385 0.929 . S
H376 C380 0.929 . S
H377 C386 0.929 . S
C378 H372 0.930 . S
C378 C379 1.367 . S
C378 C386 1.378 . S
C379 C378 1.367 . S
C379 C387 1.433 . S
C380 H376 0.929 . S
C380 C382 1.378 . S
C380 C384 1.350 . S
C381 C384 1.463 . S
C381 C386 1.350 . S
C381 N389 1.427 . S
C382 H373 0.930 . S
C382 C380 1.378 . S
C382 C383 1.367 . S
C383 C382 1.367 . S
C383 C385 1.433 . S
C384 C380 1.350 . S
C384 C381 1.463 . S
C384 N388 1.427 . S
C385 H375 0.929 . S
C385 C383 1.433 . S
C385 N388 1.384 . S
C386 H377 0.929 . S
C386 C378 1.378 . S
C386 C381 1.350 . S
C387 H374 0.929 . S
C387 C379 1.433 . S
C387 N389 1.384 . S
N388 C384 1.427 . S
N388 C385 1.384 . S
N389 C381 1.427 . S
N389 C387 1.384 . S
H390 C396 0.930 . S
H391 C400 0.930 . S
H392 C405 0.929 . S
H393 C403 0.929 . S
H394 C398 0.929 . S
H395 C404 0.929 . S
C396 H390 0.930 . S
C396 C397 1.367 . S
C396 C404 1.378 . S
C397 C396 1.367 . S
C397 C405 1.433 . S
C398 H394 0.929 . S
C398 C400 1.378 . S
C398 C402 1.350 . S
C399 C402 1.463 . S
C399 C404 1.350 . S
C399 N407 1.427 . S
C400 H391 0.930 . S
C400 C398 1.378 . S
C400 C401 1.367 . S
C401 C400 1.367 . S
C401 C403 1.433 . S
C402 C398 1.350 . S
C402 C399 1.463 . S
C402 N406 1.427 . S
C403 H393 0.929 . S
C403 C401 1.433 . S
C403 N406 1.384 . S
C404 H395 0.929 . S
C404 C396 1.378 . S
C404 C399 1.350 . S
C405 H392 0.929 . S
C405 C397 1.433 . S
C405 N407 1.384 . S
N406 C402 1.427 . S
N406 C403 1.384 . S
N407 C399 1.427 . S
N407 C405 1.384 . S
H408 C414 0.930 . S
H409 C418 0.930 . S
H410 C423 0.929 . S
H411 C421 0.929 . S
H412 C416 0.929 . S
H413 C422 0.929 . S
C414 H408 0.930 . S
C414 C415 1.367 . S
C414 C422 1.378 . S
C415 C414 1.367 . S
C415 C423 1.433 . S
C416 H412 0.929 . S
C416 C418 1.378 . S
C416 C420 1.350 . S
C417 C420 1.463 1_565 S
C417 C422 1.350 . S
C417 N425 1.417 1_565 S
C418 H409 0.930 . S
C418 C416 1.378 . S
C418 C419 1.367 . S
C419 C418 1.367 . S
C419 C421 1.433 . S
C420 C416 1.350 . S
C420 C417 1.463 1_545 S
C420 N424 1.417 1_545 S
C421 H411 0.929 . S
C421 C419 1.433 . S
C421 N424 1.367 1_545 S
C422 H413 0.929 . S
C422 C414 1.378 . S
C422 C417 1.350 . S
C423 H410 0.929 . S
C423 C415 1.433 . S
C423 N425 1.367 1_565 S
N424 C420 1.417 1_565 S
N424 C421 1.367 1_565 S
N425 C417 1.417 1_545 S
N425 C423 1.367 1_545 S
H426 C432 0.930 . S
H427 C436 0.930 . S
H428 C441 0.929 . S
H429 C439 0.929 . S
H430 C434 0.929 . S
H431 C440 0.929 . S
C432 H426 0.930 . S
C432 C433 1.367 . S
C432 C440 1.378 . S
C433 C432 1.367 . S
C433 C441 1.433 1_556 S
C434 H430 0.929 . S
C434 C436 1.378 . S
C434 C438 1.350 . S
C435 C438 1.463 1_566 S
C435 C440 1.350 . S
C435 N443 1.427 1_556 S
C436 H427 0.930 . S
C436 C434 1.378 . S
C436 C437 1.367 . S
C437 C436 1.367 . S
C437 C439 1.433 1_554 S
C438 C434 1.350 . S
C438 C435 1.463 1_544 S
C438 N442 1.427 1_554 S
C439 H429 0.929 . S
C439 C437 1.433 1_556 S
C439 N442 1.384 . S
C440 H431 0.929 . S
C440 C432 1.378 . S
C440 C435 1.350 . S
C441 H428 0.929 . S
C441 C433 1.433 1_554 S
C441 N443 1.384 . S
N442 C438 1.427 1_556 S
N442 C439 1.384 . S
N443 C435 1.427 1_554 S
N443 C441 1.384 . S
H444 C450 0.930 . S
H445 C454 0.930 . S
H446 C459 0.929 . S
H447 C457 0.929 . S
H448 C452 0.929 1_655 S
H449 C458 0.929 1_455 S
C450 H444 0.930 . S
C450 C451 1.367 . S
C450 C458 1.378 . S
C451 C450 1.367 . S
C451 C459 1.433 . S
C452 H448 0.929 1_455 S
C452 C454 1.378 . S
C452 C456 1.350 . S
C453 C456 1.463 1_655 S
C453 C458 1.350 . S
C453 N461 1.427 . S
C454 H445 0.930 . S
C454 C452 1.378 . S
C454 C455 1.367 . S
C455 C454 1.367 . S
C455 C457 1.433 . S
C456 C452 1.350 . S
C456 C453 1.463 1_455 S
C456 N460 1.427 . S
C457 H447 0.929 . S
C457 C455 1.433 . S
C457 N460 1.384 . S
C458 H449 0.929 1_655 S
C458 C450 1.378 . S
C458 C453 1.350 . S
C459 H446 0.929 . S
C459 C451 1.433 . S
C459 N461 1.384 . S
N460 C456 1.427 . S
N460 C457 1.384 . S
N461 C453 1.427 . S
N461 C459 1.384 . S
H462 C468 0.930 . S
H463 C472 0.930 . S
H464 C477 0.929 . S
H465 C475 0.929 . S
H466 C470 0.929 . S
H467 C476 0.929 . S
C468 H462 0.930 . S
C468 C469 1.367 1_556 S
C468 C476 1.378 . S
C469 C468 1.367 1_554 S
C469 C477 1.433 . S
C470 H466 0.929 . S
C470 C472 1.378 . S
C470 C474 1.350 1_554 S
C471 C474 1.463 1_454 S
C471 C476 1.350 1_554 S
C471 N479 1.427 . S
C472 H463 0.930 . S
C472 C470 1.378 . S
C472 C473 1.367 1_554 S
C473 C472 1.367 1_556 S
C473 C475 1.433 . S
C474 C470 1.350 1_556 S
C474 C471 1.463 1_656 S
C474 N478 1.427 . S
C475 H465 0.929 . S
C475 C473 1.433 . S
C475 N478 1.384 . S
C476 H467 0.929 . S
C476 C468 1.378 . S
C476 C471 1.350 1_556 S
C477 H464 0.929 . S
C477 C469 1.433 . S
C477 N479 1.384 . S
N478 C474 1.427 . S
N478 C475 1.384 . S
N479 C471 1.427 . S
N479 C477 1.384 . S
H480 C486 0.930 . S
H481 C490 0.930 . S
H482 C495 0.929 . S
H483 C493 0.929 . S
H484 C488 0.929 . S
H485 C494 0.929 . S
C486 H480 0.930 . S
C486 C487 1.367 . S
C486 C494 1.378 . S
C487 C486 1.367 . S
C487 C495 1.433 . S
C488 H484 0.929 . S
C488 C490 1.378 . S
C488 C492 1.350 . S
C489 C492 1.463 1_455 S
C489 C494 1.350 . S
C489 N497 1.427 . S
C490 H481 0.930 . S
C490 C488 1.378 . S
C490 C491 1.367 . S
C491 C490 1.367 . S
C491 C493 1.433 . S
C492 C488 1.350 . S
C492 C489 1.463 1_655 S
C492 N496 1.427 . S
C493 H483 0.929 . S
C493 C491 1.433 . S
C493 N496 1.384 . S
C494 H485 0.929 . S
C494 C486 1.378 . S
C494 C489 1.350 . S
C495 H482 0.929 . S
C495 C487 1.433 . S
C495 N497 1.384 . S
N496 C492 1.427 . S
N496 C493 1.384 . S
N497 C489 1.427 . S
N497 C495 1.384 . S
H498 C504 0.930 . S
H499 C508 0.930 . S
H500 C513 0.929 . S
H501 C511 0.929 . S
H502 C506 0.929 . S
H503 C512 0.929 . S
C504 H498 0.930 . S
C504 C505 1.367 . S
C504 C512 1.378 . S
C505 C504 1.367 . S
C505 C513 1.433 . S
C506 H502 0.929 . S
C506 C508 1.378 . S
C506 C510 1.350 . S
C507 C510 1.463 1_455 S
C507 C512 1.350 . S
C507 N515 1.427 . S
C508 H499 0.930 . S
C508 C506 1.378 . S
C508 C509 1.367 . S
C509 C508 1.367 . S
C509 C511 1.433 . S
C510 C506 1.350 . S
C510 C507 1.463 1_655 S
C510 N514 1.427 . S
C511 H501 0.929 . S
C511 C509 1.433 . S
C511 N514 1.384 . S
C512 H503 0.929 . S
C512 C504 1.378 . S
C512 C507 1.350 . S
C513 H500 0.929 . S
C513 C505 1.433 . S
C513 N515 1.384 . S
N514 C510 1.427 . S
N514 C511 1.384 . S
N515 C507 1.427 . S
N515 C513 1.384 . S
H516 C522 0.930 . S
H517 C526 0.930 . S
H518 C531 0.929 . S
H519 C529 0.929 . S
H520 C524 0.929 . S
H521 C530 0.929 . S
C522 H516 0.930 . S
C522 C523 1.367 . S
C522 C530 1.378 . S
C523 C522 1.367 . S
C523 C531 1.433 . S
C524 H520 0.929 . S
C524 C526 1.378 . S
C524 C528 1.350 . S
C525 C528 1.463 . S
C525 C530 1.350 . S
C525 N533 1.427 . S
C526 H517 0.930 . S
C526 C524 1.378 . S
C526 C527 1.367 . S
C527 C526 1.367 . S
C527 C529 1.433 . S
C528 C524 1.350 . S
C528 C525 1.463 . S
C528 N532 1.427 . S
C529 H519 0.929 . S
C529 C527 1.433 . S
C529 N532 1.384 . S
C530 H521 0.929 . S
C530 C522 1.378 . S
C530 C525 1.350 . S
C531 H518 0.929 . S
C531 C523 1.433 . S
C531 N533 1.384 . S
N532 C528 1.427 . S
N532 C529 1.384 . S
N533 C525 1.427 . S
N533 C531 1.384 . S
H534 C540 0.930 . S
H535 C544 0.930 . S
H536 C549 0.929 . S
H537 C547 0.929 . S
H538 C542 0.929 . S
H539 C548 0.929 . S
C540 H534 0.930 . S
C540 C541 1.367 . S
C540 C548 1.378 . S
C541 C540 1.367 . S
C541 C549 1.433 . S
C542 H538 0.929 . S
C542 C544 1.378 . S
C542 C546 1.350 . S
C543 C546 1.463 . S
C543 C548 1.350 . S
C543 N551 1.427 . S
C544 H535 0.930 . S
C544 C542 1.378 . S
C544 C545 1.367 . S
C545 C544 1.367 . S
C545 C547 1.433 . S
C546 C542 1.350 . S
C546 C543 1.463 . S
C546 N550 1.427 . S
C547 H537 0.929 . S
C547 C545 1.433 . S
C547 N550 1.384 . S
C548 H539 0.929 . S
C548 C540 1.378 . S
C548 C543 1.350 . S
C549 H536 0.929 . S
C549 C541 1.433 . S
C549 N551 1.384 . S
N550 C546 1.427 . S
N550 C547 1.384 . S
N551 C543 1.427 . S
N551 C549 1.384 . S
H552 C558 0.930 . S
H553 C562 0.930 . S
H554 C567 0.929 . S
H555 C565 0.929 . S
H556 C560 0.929 . S
H557 C566 0.929 . S
C558 H552 0.930 . S
C558 C559 1.367 . S
C558 C566 1.378 . S
C559 C558 1.367 . S
C559 C567 1.433 . S
C560 H556 0.929 . S
C560 C562 1.378 . S
C560 C564 1.350 . S
C561 C564 1.463 . S
C561 C566 1.350 . S
C561 N569 1.427 . S
C562 H553 0.930 . S
C562 C560 1.378 . S
C562 C563 1.367 . S
C563 C562 1.367 . S
C563 C565 1.433 . S
C564 C560 1.350 . S
C564 C561 1.463 . S
C564 N568 1.427 . S
C565 H555 0.929 . S
C565 C563 1.433 . S
C565 N568 1.384 . S
C566 H557 0.929 . S
C566 C558 1.378 . S
C566 C561 1.350 . S
C567 H554 0.929 . S
C567 C559 1.433 . S
C567 N569 1.384 . S
N568 C564 1.427 . S
N568 C565 1.384 . S
N569 C561 1.427 . S
N569 C567 1.384 . S
H570 C576 0.930 . S
H571 C580 0.930 . S
H572 C585 0.929 . S
H573 C583 0.929 . S
H574 C578 0.929 . S
H575 C584 0.929 . S
C576 H570 0.930 . S
C576 C577 1.367 . S
C576 C584 1.378 . S
C577 C576 1.367 . S
C577 C585 1.433 . S
C578 H574 0.929 . S
C578 C580 1.378 . S
C578 C582 1.350 . S
C579 C582 1.463 1_556 S
C579 C584 1.350 . S
C579 N587 1.427 . S
C580 H571 0.930 . S
C580 C578 1.378 . S
C580 C581 1.367 . S
C581 C580 1.367 . S
C581 C583 1.433 . S
C582 C578 1.350 . S
C582 C579 1.463 1_554 S
C582 N586 1.427 . S
C583 H573 0.929 . S
C583 C581 1.433 . S
C583 N586 1.384 . S
C584 H575 0.929 . S
C584 C576 1.378 . S
C584 C579 1.350 . S
C585 H572 0.929 . S
C585 C577 1.433 . S
C585 N587 1.384 . S
N586 C582 1.427 . S
N586 C583 1.384 . S
N587 C579 1.427 . S
N587 C585 1.384 . S
H588 C594 0.930 . S
H589 C598 0.930 . S
H590 C603 0.929 . S
H591 C601 0.929 . S
H592 C596 0.929 . S
H593 C602 0.929 . S
C594 H588 0.930 . S
C594 C595 1.367 . S
C594 C602 1.378 . S
C595 C594 1.367 . S
C595 C603 1.433 . S
C596 H592 0.929 . S
C596 C598 1.378 . S
C596 C600 1.350 . S
C597 C600 1.463 . S
C597 C602 1.350 . S
C597 N605 1.427 . S
C598 H589 0.930 . S
C598 C596 1.378 . S
C598 C599 1.367 . S
C599 C598 1.367 . S
C599 C601 1.433 . S
C600 C596 1.350 . S
C600 C597 1.463 . S
C600 N604 1.427 . S
C601 H591 0.929 . S
C601 C599 1.433 . S
C601 N604 1.384 . S
C602 H593 0.929 . S
C602 C594 1.378 . S
C602 C597 1.350 . S
C603 H590 0.929 . S
C603 C595 1.433 . S
C603 N605 1.384 . S
N604 C600 1.427 . S
N604 C601 1.384 . S
N605 C597 1.427 . S
N605 C603 1.384 . S
H606 C612 0.930 . S
H607 C616 0.930 . S
H608 C621 0.929 . S
H609 C619 0.929 . S
H610 C614 0.929 . S
H611 C620 0.929 . S
C612 H606 0.930 . S
C612 C613 1.367 . S
C612 C620 1.378 . S
C613 C612 1.367 . S
C613 C621 1.433 . S
C614 H610 0.929 . S
C614 C616 1.378 . S
C614 C618 1.350 . S
C615 C618 1.463 1_556 S
C615 C620 1.350 . S
C615 N623 1.427 1_556 S
C616 H607 0.930 . S
C616 C614 1.378 . S
C616 C617 1.367 . S
C617 C616 1.367 . S
C617 C619 1.433 . S
C618 C614 1.350 . S
C618 C615 1.463 1_554 S
C618 N622 1.427 1_554 S
C619 H609 0.929 . S
C619 C617 1.433 . S
C619 N622 1.384 1_554 S
C620 H611 0.929 . S
C620 C612 1.378 . S
C620 C615 1.350 . S
C621 H608 0.929 . S
C621 C613 1.433 . S
C621 N623 1.384 1_556 S
N622 C618 1.427 1_556 S
N622 C619 1.384 1_556 S
N623 C615 1.427 1_554 S
N623 C621 1.384 1_554 S
C271 C106 1.028 1_554 S
C275 C18 1.033 . S
C289 C51 1.034 . S
C293 C73 1.028 . S
C307 C84 1.033 . S
C311 C40 1.028 1_556 S
C325 C117 1.030 . S
C329 C7 1.016 . S
C343 C150 1.033 . S
C347 C238 1.027 1_554 S
C361 C183 1.034 . S
C365 C205 1.029 . S
C379 C172 1.016 1_556 S
C383 C216 1.030 . S
C397 C249 1.031 . S
C401 C139 1.017 . S
C415 N79 1.942 . S
C419 N13 1.942 . S
C433 N112 1.946 . S
C437 N46 1.946 . S
C451 N145 1.941 . S
C455 N211 1.941 . S
C469 N178 1.939 . S
C473 N244 1.939 . S
C487 N2 1.188 . S
C491 N35 1.191 . S
C505 N101 1.181 . S
C509 N68 1.185 . S
C523 N167 1.190 . S
C527 N134 1.191 . S
C541 N233 1.171 . S
C545 N200 1.174 . S
C559 C219 1.593 . S
C563 C21 1.593 . S
C577 C252 1.602 . S
C581 C54 1.602 . S
C595 C153 1.597 . S
C599 C87 1.597 . S
C613 C120 1.602 . S
C617 C186 1.602 . S
