# Generated by pormake.
# Topology fcu, (12)-cn, num edge types: 1
# Building blocks:
#     Node 0, Type 0, BuildingBlock: ENOWUB_clean_sbu_0, # of connection points: 12
#     Node 1, Type 0, BuildingBlock: ENOWUB_clean_sbu_0, # of connection points: 12
#     Node 2, Type 0, BuildingBlock: ENOWUB_clean_sbu_0, # of connection points: 12
#     Node 3, Type 0, BuildingBlock: ENOWUB_clean_sbu_0, # of connection points: 12
#     Edge 4, Type (0, 0), BuildingBlock: UVAHIK_clean_linker_0, # of connection points: 2
#     Edge 5, Type (0, 0), BuildingBlock: UVAHIK_clean_linker_0, # of connection points: 2
#     Edge 6, Type (0, 0), BuildingBlock: UVAHIK_clean_linker_0, # of connection points: 2
#     Edge 7, Type (0, 0), BuildingBlock: UVAHIK_clean_linker_0, # of connection points: 2
#     Edge 8, Type (0, 0), BuildingBlock: UVAHIK_clean_linker_0, # of connection points: 2
#     Edge 9, Type (0, 0), BuildingBlock: UVAHIK_clean_linker_0, # of connection points: 2
#     Edge 10, Type (0, 0), BuildingBlock: UVAHIK_clean_linker_0, # of connection points: 2
#     Edge 11, Type (0, 0), BuildingBlock: UVAHIK_clean_linker_0, # of connection points: 2
#     Edge 12, Type (0, 0), BuildingBlock: UVAHIK_clean_linker_0, # of connection points: 2
#     Edge 13, Type (0, 0), BuildingBlock: UVAHIK_clean_linker_0, # of connection points: 2
#     Edge 14, Type (0, 0), BuildingBlock: UVAHIK_clean_linker_0, # of connection points: 2
#     Edge 15, Type (0, 0), BuildingBlock: UVAHIK_clean_linker_0, # of connection points: 2
#     Edge 16, Type (0, 0), BuildingBlock: UVAHIK_clean_linker_0, # of connection points: 2
#     Edge 17, Type (0, 0), BuildingBlock: UVAHIK_clean_linker_0, # of connection points: 2
#     Edge 18, Type (0, 0), BuildingBlock: UVAHIK_clean_linker_0, # of connection points: 2
#     Edge 19, Type (0, 0), BuildingBlock: UVAHIK_clean_linker_0, # of connection points: 2
#     Edge 20, Type (0, 0), BuildingBlock: UVAHIK_clean_linker_0, # of connection points: 2
#     Edge 21, Type (0, 0), BuildingBlock: UVAHIK_clean_linker_0, # of connection points: 2
#     Edge 22, Type (0, 0), BuildingBlock: UVAHIK_clean_linker_0, # of connection points: 2
#     Edge 23, Type (0, 0), BuildingBlock: UVAHIK_clean_linker_0, # of connection points: 2
#     Edge 24, Type (0, 0), BuildingBlock: UVAHIK_clean_linker_0, # of connection points: 2
#     Edge 25, Type (0, 0), BuildingBlock: UVAHIK_clean_linker_0, # of connection points: 2
#     Edge 26, Type (0, 0), BuildingBlock: UVAHIK_clean_linker_0, # of connection points: 2
#     Edge 27, Type (0, 0), BuildingBlock: UVAHIK_clean_linker_0, # of connection points: 2
# Relax obj value: 0.000
# Max RMSD: 0.000
# Mean RMSD: 0.000
data_MOF--net-fcu--node1-ENOWUB_clean_sbu_0--edge1-UVAHIK_clean_linker_0
_symmetry_space_group_name_H-M    P1
_symmetry_Int_Tables_number       1
_symmetry_cell_setting            triclinic
loop_
_symmetry_equiv_pos_as_xyz
'x, y, z'
_cell_length_a     33.031381
_cell_length_b     33.123334
_cell_length_c     33.283983
_cell_angle_alpha  89.863948
_cell_angle_beta   90.350004
_cell_angle_gamma 90.268018
loop_
_atom_site_label
_atom_site_type_symbol
_atom_site_fract_x
_atom_site_fract_y
_atom_site_fract_z
_atom_type_partial_charge
O0 O 0.09015 0.9056 0.00325 0.0
O1 O 0.01791 0.94013 0.03115 0.0
O2 O 0.04849 0.02935 0.96348 0.0
O3 O 0.03297 0.94951 0.95116 0.0
O4 O 0.0332 0.01962 0.04262 0.0
Zr5 Zr 0.07182 0.97632 0.00361 0.0
Zr6 Zr 0.97872 0.98394 0.06943 0.0
Zr7 Zr 0.97812 0.91457 0.97871 0.0
O8 O 0.95388 0.03727 0.0304 0.0
O9 O 0.95355 0.96703 0.93867 0.0
O10 O 0.93885 0.95748 0.01777 0.0
Zr11 Zr 0.00893 0.07194 0.00259 0.0
Zr12 Zr 0.00827 0.00285 0.91212 0.0
Zr13 Zr 0.91482 0.01038 0.97797 0.0
O14 O 0.96885 0.04655 0.95036 0.0
O15 O 0.89583 0.08084 0.98357 0.0
O16 O 0.86979 0.9539 0.96424 0.0
O17 O 0.11717 0.03257 0.01665 0.0
O18 O 0.02635 0.11227 0.94444 0.0
O19 O 0.96054 0.87422 0.03677 0.0
O20 O 0.98443 0.89069 0.91037 0.0
O21 O 0.00615 0.09533 0.07126 0.0
O22 O 0.90906 0.99078 0.09031 0.0
O23 O 0.07762 0.9927 0.89102 0.0
O24 O 0.95106 0.01783 0.86879 0.0
O25 O 0.0361 0.97041 0.11315 0.0
O26 O 0.95252 0.11844 -0.00203 0.0
O27 O 0.03422 0.86776 0.98697 0.0
O28 O 0.90804 0.8963 0.96407 0.0
O29 O 0.07902 0.0902 0.01707 0.0
O30 O 0.09224 0.9674 0.07323 0.0
O31 O 0.89479 0.02244 0.90843 0.0
O32 O 0.86972 0.0062 0.03551 0.0
O33 O 0.11639 0.97626 0.94595 0.0
C34 C 0.07196 0.87169 -0.00339 0.0
O35 O 0.98689 0.04294 0.11205 0.0
O36 O 0.96156 0.91606 0.09159 0.0
C37 C 0.91426 0.11452 -0.00914 0.0
C38 C 0.87414 0.91538 0.96067 0.0
C39 C 0.11288 0.07106 0.02042 0.0
C40 C 0.03065 0.10533 0.90661 0.0
C41 C 0.95658 0.88136 0.07459 0.0
C42 C 0.99302 0.90635 0.87592 0.0
C43 C -0.00219 0.07989 0.10584 0.0
C44 C 0.87472 -0.00187 0.07321 0.0
C45 C 0.11149 0.98329 0.9081 0.0
C46 C 0.91283 0.02328 0.87408 0.0
C47 C 0.07454 0.96666 0.1077 0.0
O48 O 0.00186 0.94379 0.86962 0.0
O49 O 0.02601 0.07056 0.88963 0.0
O50 O 0.11767 0.45312 0.50987 0.0
O51 O 0.03529 0.46511 0.53962 0.0
O52 O 0.0304 0.53601 0.4481 0.0
O53 O 0.04587 0.45622 0.4599 0.0
O54 O 0.01948 0.54417 0.52931 0.0
Zr55 Zr 0.07183 0.50908 0.49855 0.0
Zr56 Zr 0.98211 0.49971 0.56931 0.0
Zr57 Zr 0.00871 0.41281 0.50101 0.0
O58 O 0.93962 0.52645 0.52011 0.0
O59 O 0.96632 0.43852 0.45077 0.0
O60 O 0.95497 0.44646 0.53159 0.0
Zr61 Zr 0.97702 0.56964 0.47923 0.0
Zr62 Zr 0.00349 0.48267 0.41027 0.0
Zr63 Zr 0.91377 0.47392 0.48104 0.0
O64 O 0.95048 0.51767 0.44009 0.0
O65 O 0.86752 0.53017 0.47185 0.0
O66 O 0.89568 0.40308 0.48242 0.0
O67 O 0.09066 0.5798 0.49262 0.0
O68 O 0.9738 0.59299 0.41053 0.0
O69 O 0.00925 0.38837 0.56967 0.0
O70 O 0.02414 0.37344 0.44215 0.0
O71 O 0.96502 0.60994 0.53846 0.0
O72 O 0.91346 0.49231 0.59379 0.0
O73 O 0.07208 0.49037 0.38573 0.0
O74 O 0.94389 0.46784 0.37008 0.0
O75 O 0.04164 0.51457 0.60944 0.0
O76 O 0.9063 0.58767 0.47183 0.0
O77 O 0.07944 0.3952 0.51194 0.0
O78 O 0.95244 0.36563 0.49536 0.0
O79 O 0.03337 0.61673 0.48035 0.0
O80 O 0.09575 0.51959 0.56691 0.0
O81 O 0.88958 0.46524 0.41252 0.0
O82 O 0.87222 0.47521 0.54085 0.0
O83 O 0.11353 0.50597 0.43897 0.0
C84 C 0.11346 0.41456 0.51374 0.0
O85 O 0.96847 0.56753 0.59281 0.0
O86 O 0.99282 0.44063 0.61135 0.0
C87 C 0.87202 0.56887 0.46999 0.0
C88 C 0.91428 0.3693 0.48772 0.0
C89 C 0.07187 0.61328 0.48595 0.0
C90 C 0.98016 0.57821 0.37536 0.0
C91 C 0.00314 0.40372 0.60469 0.0
C92 C 0.02569 0.38034 0.40408 0.0
C93 C 0.96369 0.60259 0.57648 0.0
C94 C 0.87864 0.4836 0.57819 0.0
C95 C 0.10703 0.49815 0.40152 0.0
C96 C 0.90574 0.46407 0.37731 0.0
C97 C 0.07959 0.51984 0.60215 0.0
O98 O 0.01925 0.41488 0.38712 0.0
O99 O 0.99205 0.54185 0.36818 0.0
O100 O 0.59114 0.96917 0.40668 0.0
O101 O 0.53399 0.0247 0.44179 0.0
O102 O 0.53235 0.94545 0.52621 0.0
O103 O 0.51711 0.94486 0.44494 0.0
O104 O 0.54867 0.02572 0.52117 0.0
Zr105 Zr 0.57169 0.97652 0.47681 0.0
Zr106 Zr 0.51049 0.07344 0.48619 0.0
Zr107 Zr 0.47867 -0.0065 0.41102 0.0
O108 O 0.46998 0.04355 0.53539 0.0
O109 O 0.4384 0.9625 0.45929 0.0
O110 O 0.45476 0.04305 0.45466 0.0
Zr111 Zr 0.50816 -0.00487 0.56963 0.0
Zr112 Zr 0.47696 0.91506 0.49427 0.0
Zr113 Zr 0.41542 0.01141 0.50385 0.0
O114 O 0.45305 0.96334 0.53895 0.0
O115 O 0.39522 0.01474 0.57373 0.0
O116 O 0.37092 0.01757 0.44591 0.0
O117 O 0.61696 0.9754 0.53489 0.0
O118 O 0.49809 0.9323 0.60599 0.0
O119 O 0.49054 0.05591 0.37447 0.0
O120 O 0.45854 0.9292 0.38208 0.0
O121 O 0.52744 0.05959 0.59889 0.0
O122 O 0.45498 0.12046 0.49677 0.0
O123 O 0.53247 0.86772 0.4868 0.0
O124 O 0.40641 0.89727 0.50357 0.0
O125 O 0.58087 0.09098 0.47302 0.0
O126 O 0.45131 0.00688 0.61375 0.0
O127 O 0.53505 0.97959 0.36716 0.0
O128 O 0.40965 0.00731 0.38999 0.0
O129 O 0.57763 0.98473 0.59052 0.0
O130 O 0.61747 0.03265 0.46702 0.0
O131 O 0.36866 0.95481 0.50921 0.0
O132 O 0.3983 0.08228 0.50891 0.0
O133 O 0.58974 0.90565 0.47701 0.0
C134 C 0.57296 0.97187 0.37226 0.0
O135 O 0.53073 0.10621 0.54806 0.0
O136 O 0.50844 0.10442 0.42033 0.0
C137 C 0.41302 0.01235 0.60829 0.0
C138 C 0.37577 0.01472 0.40759 0.0
C139 C 0.61198 0.97925 0.57316 0.0
C140 C 0.48656 0.89635 0.59621 0.0
C141 C 0.50133 0.09209 0.38425 0.0
C142 C 0.45363 0.89287 0.3954 0.0
C143 C 0.5343 0.09545 0.58516 0.0
C144 C 0.41705 0.11635 0.50524 0.0
C145 C 0.5709 0.87167 0.48106 0.0
C146 C 0.37259 0.91608 0.50791 0.0
C147 C 0.61404 0.07137 0.46708 0.0
O148 O 0.45874 0.88163 0.43218 0.0
O149 O 0.47823 0.88441 0.56024 0.0
O150 O 0.61706 0.45424 0.97072 0.0
O151 O 0.54707 0.46236 0.02136 0.0
O152 O 0.51612 0.54186 0.94384 0.0
O153 O 0.5329 0.46204 0.94141 0.0
O154 O 0.53121 0.54279 0.0245 0.0
Zr155 Zr 0.5706 0.51067 0.97603 0.0
Zr156 Zr 0.50683 0.49387 0.0691 0.0
Zr157 Zr 0.50865 0.41423 0.98687 0.0
O158 O 0.45169 0.5246 0.03773 0.0
O159 O 0.45328 0.44384 0.95449 0.0
O160 O 0.46862 0.44487 0.0354 0.0
Zr161 Zr 0.47575 0.57242 -0.00784 0.0
Zr162 Zr 0.47775 0.49302 0.91022 0.0
Zr163 Zr 0.41414 0.47582 0.00319 0.0
O164 O 0.43716 0.52438 0.95776 0.0
O165 O 0.36809 0.53209 0.01037 0.0
O166 O 0.39654 0.405 0.00912 0.0
O167 O 0.58813 0.58152 0.97039 0.0
O168 O 0.45566 0.6041 0.92978 0.0
O169 O 0.52861 0.38259 0.04937 0.0
O170 O 0.50797 0.38251 0.92135 0.0
O171 O 0.47767 0.60419 0.05728 0.0
O172 O 0.45039 0.47884 0.11288 0.0
O173 O 0.53428 0.50732 0.86632 0.0
O174 O 0.40901 0.47787 0.88929 0.0
O175 O 0.57568 0.50849 0.09002 0.0
O176 O 0.40552 0.59027 0.00435 0.0
O177 O 0.57907 0.39664 0.97765 0.0
O178 O 0.45323 0.36696 -0.00134 0.0
O179 O 0.53144 0.61965 0.98068 0.0
O180 O 0.61496 0.51746 0.03413 0.0
O181 O 0.36978 0.46893 0.94522 0.0
O182 O 0.39442 0.46895 0.07302 0.0
O183 O 0.59043 0.51656 0.90612 0.0
C184 C 0.61294 0.41551 0.97268 0.0
O185 O 0.49544 0.55695 0.10446 0.0
O186 O 0.52742 0.43015 0.09923 0.0
C187 C 0.37198 0.57086 0.00982 0.0
C188 C 0.41525 0.37099 0.00669 0.0
C189 C 0.56949 0.61556 0.97288 0.0
C190 C 0.45132 0.59277 0.89298 0.0
C191 C 0.5334 0.39401 0.0861 0.0
C192 C 0.50106 0.39449 0.88505 0.0
C193 C 0.48474 0.59285 0.0937 0.0
C194 C 0.41247 0.471 0.10747 0.0
C195 C 0.57234 0.51452 0.87168 0.0
C196 C 0.375 0.47077 0.90687 0.0
C197 C 0.60973 0.51547 0.07247 0.0
O198 O 0.48997 0.43039 0.87484 0.0
O199 O 0.45754 0.55669 0.87983 0.0
C200 C 0.00409 0.09048 0.18029 0.0
C201 C 0.00361 0.10636 0.14104 0.0
C202 C 0.01301 0.11542 0.21299 0.0
C203 C 0.06236 0.21221 0.23759 0.0
H204 H 0.99114 0.21331 0.32971 0.0
C205 C 0.03948 0.3508 0.33644 0.0
C206 C 0.03377 0.34542 0.37789 0.0
C207 C 0.04364 0.31747 0.31136 0.0
C208 C 0.01184 0.2128 0.30461 0.0
H209 H 0.01094 0.16113 0.1056 0.0
H210 H 0.02592 0.20426 0.16244 0.0
H211 H 0.98241 0.16141 0.27848 0.0
H212 H 0.02977 0.30073 0.42574 0.0
H213 H 0.03696 0.24271 0.38173 0.0
H214 H 0.09077 0.26452 0.26289 0.0
C215 C 0.02033 0.17246 0.16786 0.0
C216 C 0.00681 0.18313 0.27532 0.0
C217 C 0.01137 0.14773 0.13532 0.0
C218 C 0.03392 0.30604 0.39391 0.0
C219 C 0.03791 0.27274 0.36877 0.0
C220 C 0.06737 0.24185 0.2668 0.0
C221 C 0.02173 0.1565 0.2069 0.0
C222 C 0.03115 0.18346 0.24093 0.0
C223 C 0.04207 0.27815 0.32721 0.0
C224 C 0.04132 0.24315 0.2999 0.0
H225 H -0.00151 0.05869 0.18571 0.0
H226 H 0.01385 0.10247 0.2429 0.0
H227 H 0.08206 0.21254 0.21168 0.0
H228 H 0.03977 0.38068 0.32313 0.0
H229 H 0.04637 0.32248 0.27931 0.0
C230 C 0.84216 0.97904 0.138 0.0
C231 C 0.83834 -0.00566 0.0987 0.0
C232 C 0.80815 0.97259 0.16156 0.0
C233 C 0.70499 0.00493 0.17783 0.0
H234 H 0.70031 0.90724 0.24231 0.0
C235 C 0.58225 0.97904 0.29792 0.0
C236 C 0.59773 0.96741 0.33571 0.0
C237 C 0.6066 0.97769 0.26384 0.0
C238 C 0.70118 0.93462 0.22445 0.0
H239 H 0.79546 0.0155 0.0537 0.0
H240 H 0.73567 0.00462 0.09562 0.0
H241 H 0.75234 0.91451 0.19107 0.0
H242 H 0.65052 0.94389 0.36692 0.0
H243 H 0.69294 0.94176 0.30753 0.0
H244 H 0.65475 0.02568 0.21229 0.0
C245 C 0.7653 -0.0025 0.10773 0.0
C246 C 0.73086 0.93876 0.19516 0.0
C247 C 0.79951 0.00372 0.08384 0.0
C248 C 0.63766 0.95321 0.33837 0.0
C249 C 0.66188 0.95165 0.30426 0.0
C250 C 0.67524 0.0008 0.20722 0.0
C251 C 0.7694 0.98139 0.14662 0.0
C252 C 0.73387 0.97449 0.17253 0.0
C253 C 0.64678 0.9644 0.26678 0.0
C254 C 0.67393 0.96612 0.23165 0.0
H255 H 0.87145 0.97135 0.15059 0.0
H256 H 0.81224 0.96092 0.19175 0.0
H257 H 0.7068 0.03284 0.16089 0.0
H258 H 0.55163 0.9902 0.29473 0.0
H259 H 0.59415 0.98743 0.23525 0.0
C260 C 0.95957 0.80758 0.08958 0.0
C261 C 0.94794 0.84667 0.10092 0.0
C262 C 0.9564 0.77558 0.11671 0.0
C263 C 0.95724 0.76016 0.22525 0.0
H264 H 0.93264 0.64858 0.1991 0.0
C265 C 0.94956 0.64075 0.34727 0.0
C266 C 0.97169 0.60517 0.34099 0.0
C267 C 0.94226 0.66734 0.3158 0.0
C268 C 0.93979 0.67962 0.20659 0.0
H269 H 0.92064 0.88239 0.148 0.0
H270 H 0.91421 0.82633 0.19502 0.0
H271 H 0.92493 0.70101 0.14749 0.0
H272 H 0.00187 0.56874 0.29619 0.0
H273 H 0.98952 0.61614 0.24084 0.0
H274 H 0.97236 0.73912 0.284 0.0
C275 C 0.92697 0.82065 0.16568 0.0
C276 C 0.93533 0.70955 0.17721 0.0
C277 C 0.93057 0.8527 0.13878 0.0
C278 C 0.98504 0.59607 0.30203 0.0
C279 C 0.97777 0.62298 0.27036 0.0
C280 C 0.96153 0.73045 0.25445 0.0
C281 C 0.94122 0.78212 0.15545 0.0
C282 C 0.94392 0.75014 0.18639 0.0
C283 C 0.95701 0.6592 0.2773 0.0
C284 C 0.95271 0.68998 0.2455 0.0
H285 H 0.97311 0.80206 0.06055 0.0
H286 H 0.96786 0.74629 0.10807 0.0
H287 H 0.96526 0.79094 0.23296 0.0
H288 H 0.93792 0.64835 0.37665 0.0
H289 H 0.92543 0.69467 0.32174 0.0
C290 C 0.30038 0.01455 0.39795 0.0
C291 C 0.33948 0.01807 0.3817 0.0
C292 C 0.26644 0.01342 0.3727 0.0
C293 C 0.23328 0.03457 0.26837 0.0
H294 H 0.15821 0.94563 0.2848 0.0
C295 C 0.1432 0.96746 0.1394 0.0
C296 C 0.1009 0.96623 0.14378 0.0
C297 C 0.16814 0.97471 0.17244 0.0
C298 C 0.17866 0.97087 0.28025 0.0
H299 H 0.37339 0.02505 0.32639 0.0
H300 H 0.31457 0.02269 0.28267 0.0
H301 H 0.20926 0.96102 0.33629 0.0
H302 H 0.05193 0.96859 0.18708 0.0
H303 H 0.09611 0.98055 0.2451 0.0
H304 H 0.20399 0.04316 0.21156 0.0
C305 C 0.30997 0.02112 0.31484 0.0
C306 C 0.20767 0.97985 0.30968 0.0
C307 C 0.34378 0.02211 0.33993 0.0
C308 C 0.08436 0.96953 0.18255 0.0
C309 C 0.10951 0.97642 0.21578 0.0
C310 C 0.20464 0.02538 0.23893 0.0
C311 C 0.27102 0.01612 0.33086 0.0
C312 C 0.23604 0.01101 0.30339 0.0
C313 C 0.15142 0.98044 0.2106 0.0
C314 C 0.17797 0.99274 0.24413 0.0
H315 H 0.29602 0.01131 0.43002 0.0
H316 H 0.23671 0.00983 0.38583 0.0
H317 H 0.25417 0.0593 0.26312 0.0
H318 H 0.15715 0.96472 0.11017 0.0
H319 H 0.20055 0.97694 0.168 0.0
C320 C 0.99229 0.83704 0.84728 0.0
C321 C 0.99239 0.87899 0.8411 0.0
C322 C 0.99067 0.81085 0.8148 0.0
C323 C 0.95702 0.80265 0.7112 0.0
H324 H 0.02336 0.70633 0.71396 0.0
C325 C 0.96043 0.67716 0.58853 0.0
C326 C 0.95991 0.63744 0.60371 0.0
C327 C 0.96319 0.70997 0.61465 0.0
C328 C 0.00458 0.73305 0.71292 0.0
H329 H 0.99096 0.92642 0.79591 0.0
H330 H 0.98812 0.8801 0.7388 0.0
H331 H 0.03405 0.75873 0.76412 0.0
H332 H 0.95867 0.60129 0.65832 0.0
H333 H 0.96346 0.6585 0.70355 0.0
H334 H 0.92723 0.77632 0.66006 0.0
C335 C 0.98924 0.86783 0.76898 0.0
C336 C 0.01075 0.76299 0.74148 0.0
C337 C 0.9911 0.89421 0.80161 0.0
C338 C 0.9596 0.63137 0.64551 0.0
C339 C 0.96251 0.66407 0.67146 0.0
C340 C 0.95093 0.7726 0.68238 0.0
C341 C 0.98908 0.82595 0.77541 0.0
C342 C 0.98626 0.79747 0.74158 0.0
C343 C 0.96561 0.70347 0.65622 0.0
C344 C 0.97393 0.73711 0.68386 0.0
H345 H 0.99337 0.82427 0.87726 0.0
H346 H 0.98995 0.77865 0.82059 0.0
H347 H 0.93767 0.82896 0.71082 0.0
H348 H 0.96048 0.68296 0.55649 0.0
H349 H 0.96541 0.74019 0.60232 0.0
C350 C 0.18676 0.98109 0.89848 0.0
C351 C 0.14739 0.9809 0.88207 0.0
C352 C 0.22048 0.9806 0.87333 0.0
C353 C 0.25054 0.95633 0.76979 0.0
H354 H 0.33386 0.03805 0.78448 0.0
C355 C 0.34461 0.013 0.63963 0.0
C356 C 0.38694 0.01242 0.64421 0.0
C357 C 0.31965 0.00743 0.67268 0.0
C358 C 0.31111 0.01472 0.78046 0.0
H359 H 0.11261 0.97913 0.82647 0.0
H360 H 0.17111 0.97854 0.78297 0.0
H361 H 0.28206 0.02851 0.83613 0.0
H362 H 0.43613 0.00792 0.6877 0.0
H363 H 0.39192 -0.00127 0.74573 0.0
H364 H 0.27839 0.94371 0.71347 0.0
C365 C 0.176 0.97872 0.81518 0.0
C366 C 0.28164 0.00916 0.80995 0.0
C367 C 0.14245 0.97944 0.84016 0.0
C368 C 0.40365 0.00834 0.68305 0.0
C369 C 0.37849 0.0031 0.71628 0.0
C370 C 0.27971 0.96204 0.74037 0.0
C371 C 0.21531 0.97947 0.83145 0.0
C372 C 0.25035 0.9808 0.80415 0.0
C373 C 0.33637 0.00147 0.71104 0.0
C374 C 0.30939 0.99214 0.74488 0.0
H375 H 0.19156 0.98236 0.93068 0.0
H376 H 0.25052 0.98111 0.88656 0.0
H377 H 0.22725 0.93366 0.76503 0.0
H378 H 0.33056 0.01635 0.61033 0.0
H379 H 0.28713 0.00705 0.66814 0.0
C380 C 0.02186 0.33686 0.63416 0.0
C381 C 0.01059 0.37733 0.63983 0.0
C382 C 0.03107 0.31234 0.66693 0.0
C383 C 0.01194 0.30005 0.77389 0.0
H384 H 0.09934 0.22259 0.76638 0.0
C385 C 0.03757 0.17988 0.89574 0.0
C386 C 0.03961 0.14034 0.88048 0.0
C387 C 0.04183 0.21305 0.87021 0.0
C388 C 0.07494 0.24416 0.76892 0.0
H389 H 0.00021 0.42367 0.68468 0.0
H390 H 0.01618 0.38046 0.74203 0.0
H391 H 0.09109 0.27378 0.71411 0.0
H392 H 0.05007 0.1048 0.8268 0.0
H393 H 0.05715 0.16268 0.78236 0.0
H394 H -0.00504 0.26963 0.82797 0.0
C395 C 0.01769 0.36791 0.71205 0.0
C396 C 0.07016 0.27334 0.73905 0.0
C397 C 0.0085 0.39258 0.67919 0.0
C398 C 0.04802 0.13478 0.83953 0.0
C399 C 0.05245 0.16797 0.81409 0.0
C400 C 0.01675 0.27089 0.80381 0.0
C401 C 0.02927 0.32763 0.70616 0.0
C402 C 0.03787 0.30075 0.74064 0.0
C403 C 0.04848 0.20737 0.82903 0.0
C404 C 0.04758 0.24196 0.80095 0.0
H405 H 0.02377 0.32397 0.60436 0.0
H406 H 0.03906 0.28115 0.66152 0.0
H407 H 0.98662 0.32061 0.77573 0.0
H408 H 0.03133 0.18534 0.92716 0.0
H409 H 0.03904 0.24315 0.88252 0.0
C410 C 0.64384 0.98643 0.64091 0.0
C411 C 0.64839 0.98137 0.59923 0.0
C412 C 0.67721 -0.00543 0.66524 0.0
C413 C 0.78513 0.98498 0.67702 0.0
H414 H 0.77205 0.07553 0.74957 0.0
C415 C 0.90387 0.02286 0.79917 0.0
C416 C 0.88735 0.02824 0.83769 0.0
C417 C 0.87894 0.023 0.76513 0.0
C418 C 0.77618 0.05019 0.72951 0.0
H419 H 0.69225 0.97866 0.55091 0.0
H420 H 0.75104 0.99214 0.59421 0.0
H421 H 0.72039 0.06172 0.69874 0.0
H422 H 0.83185 0.03988 0.87026 0.0
H423 H 0.78856 0.0397 0.81115 0.0
H424 H 0.83997 0.97223 0.70909 0.0
C425 C 0.72124 0.99025 0.6075 0.0
C426 C 0.74672 0.04237 0.70043 0.0
C427 C 0.68761 0.98243 0.58286 0.0
C428 C 0.84565 0.03552 0.84116 0.0
C429 C 0.82082 0.03572 0.80717 0.0
C430 C 0.81459 0.99265 0.7064 0.0
C431 C 0.716 -0.0025 0.64867 0.0
C432 C 0.75033 0.00898 0.67483 0.0
C433 C 0.83706 0.02872 0.76889 0.0
C434 C 0.80969 0.02459 0.73374 0.0
H435 H 0.61428 0.98544 0.6548 0.0
H436 H 0.67259 -0.00083 0.69711 0.0
H437 H 0.78844 0.95904 0.65758 0.0
H438 H 0.93588 0.01727 0.79527 0.0
H439 H 0.89233 0.01794 0.73596 0.0
C440 C 0.40643 0.29544 0.00686 0.0
C441 C 0.39108 0.33416 0.01476 0.0
C442 C 0.3828 0.26107 0.01425 0.0
C443 C 0.29168 0.22644 0.0692 0.0
H444 H 0.27958 0.14986 0.98198 0.0
C445 C 0.14691 0.13535 0.04136 0.0
C446 C 0.14984 0.09524 0.02809 0.0
C447 C 0.18165 0.15892 0.04637 0.0
C448 C 0.28321 0.17048 0.00698 0.0
H449 H 0.33918 0.36687 0.03765 0.0
H450 H 0.29828 0.30741 0.04986 0.0
H451 H 0.33225 0.20161 0.97857 0.0
H452 H 0.19174 0.0481 0.0107 0.0
H453 H 0.2524 0.08963 0.01919 0.0
H454 H 0.24141 0.19647 0.0967 0.0
C455 C 0.32863 0.30345 0.03841 0.0
C456 C 0.3134 0.20007 0.00504 0.0
C457 C 0.35201 0.33764 0.03089 0.0
C458 C 0.18839 0.07891 0.02096 0.0
C459 C 0.22314 0.10266 0.02565 0.0
C460 C 0.26146 0.19699 0.07106 0.0
C461 C 0.34361 0.26482 0.03001 0.0
C462 C 0.31697 0.22919 0.03548 0.0
C463 C 0.22002 0.143 0.03799 0.0
C464 C 0.2561 0.16959 0.03935 0.0
H465 H 0.43645 0.29167 -0.00544 0.0
H466 H 0.39511 0.2316 0.00759 0.0
H467 H 0.29432 0.24802 0.09349 0.0
H468 H 0.11774 0.14878 0.04739 0.0
H469 H 0.17831 0.19011 0.05545 0.0
C470 C 0.2966 0.57848 0.007 0.0
C471 C 0.33504 0.59503 0.01534 0.0
C472 C 0.26189 0.60216 0.01033 0.0
C473 C 0.22347 0.69541 0.05588 0.0
H474 H 0.15434 0.70272 0.96151 0.0
C475 C 0.13583 0.83745 0.0177 0.0
C476 C 0.09632 0.83464 0.00195 0.0
C477 C 0.1589 0.80296 0.02379 0.0
C478 C 0.17276 0.7004 0.98844 0.0
H479 H 0.36713 0.64887 0.03498 0.0
H480 H 0.30665 0.69002 0.04089 0.0
H481 H 0.20638 0.6506 0.96514 0.0
H482 H 0.05013 0.79301 0.98031 0.0
H483 H 0.09105 0.73242 -0.00923 0.0
H484 H 0.19094 0.74598 0.07864 0.0
C485 C 0.30333 0.65876 0.03187 0.0
C486 C 0.20253 0.67062 0.9905 0.0
C487 C 0.33799 0.63532 0.0281 0.0
C488 C 0.08047 0.79629 -0.00758 0.0
C489 C 0.10383 0.76162 -0.00165 0.0
C490 C 0.1937 0.725 0.0539 0.0
C491 C 0.26503 0.64256 0.02262 0.0
C492 C 0.22907 0.66888 0.02361 0.0
C493 C 0.1432 0.76471 0.01429 0.0
C494 C 0.16912 0.72876 0.0195 0.0
H495 H 0.29338 0.54753 -0.00304 0.0
H496 H 0.23267 0.58901 0.00309 0.0
H497 H 0.2431 0.69418 0.08205 0.0
H498 H 0.14914 0.86635 0.02551 0.0
H499 H 0.18947 0.80638 0.03533 0.0
C500 C 0.64646 0.34827 0.97476 0.0
C501 C 0.6499 0.39051 0.97196 0.0
C502 C 0.68075 0.3245 0.97891 0.0
C503 C 0.78754 0.3162 0.96087 0.0
H504 H 0.78098 0.23694 0.0467 0.0
C505 C 0.90699 0.18993 0.98877 0.0
C506 C 0.88926 0.15131 -0.0083 0.0
C507 C 0.88283 0.22448 0.9895 0.0
C508 C 0.78334 0.25904 0.02277 0.0
H509 H 0.69253 0.44063 0.96919 0.0
H510 H 0.75292 0.39833 0.9759 0.0
H511 H 0.72906 0.28866 0.04064 0.0
H512 H 0.8324 0.11874 -0.00202 0.0
H513 H 0.79063 0.17873 -0.00071 0.0
H514 H 0.84102 0.28518 0.942 0.0
C515 C 0.72331 0.38414 0.97527 0.0
C516 C 0.75375 0.28856 0.01933 0.0
C517 C 0.68877 0.4082 0.97141 0.0
C518 C 0.84707 0.14796 -0.00445 0.0
C519 C 0.82313 0.18234 -0.00333 0.0
C520 C 0.81729 0.28644 0.96427 0.0
C521 C 0.71934 0.34224 0.98011 0.0
C522 C 0.75475 0.31636 0.98749 0.0
C523 C 0.84074 0.22088 -0.00623 0.0
C524 C 0.81443 0.25673 -0.00564 0.0
H525 H 0.61718 0.33341 0.97485 0.0
H526 H 0.67706 0.29209 0.98174 0.0
H527 H 0.78882 0.33745 0.93612 0.0
H528 H 0.93943 0.19348 0.98556 0.0
H529 H 0.89702 0.25394 0.98714 0.0
C530 C 0.84003 0.851 0.93999 0.0
C531 C 0.83715 0.89103 0.95352 0.0
C532 C 0.80535 0.8272 0.93562 0.0
C533 C 0.70426 0.81466 0.97642 0.0
H534 H 0.69168 0.73896 0.88848 0.0
C535 C 0.57932 0.69104 0.97451 0.0
C536 C 0.59399 0.65234 0.96539 0.0
C537 C 0.60349 0.72526 0.968 0.0
C538 C 0.69475 0.75998 0.91321 0.0
H539 H 0.79535 0.9377 0.9723 0.0
H540 H 0.73479 0.89579 0.96491 0.0
H541 H 0.74494 0.79016 0.88578 0.0
H542 H 0.64521 0.61955 0.94118 0.0
H543 H 0.68698 0.67867 0.93044 0.0
H544 H 0.65522 0.78333 0.00467 0.0
C545 C 0.76398 0.88301 0.9577 0.0
C546 C 0.72519 0.78924 0.91163 0.0
C547 C 0.79866 0.907 0.96171 0.0
C548 C 0.6329 0.64876 0.94888 0.0
C549 C 0.65679 0.68278 0.94223 0.0
C550 C 0.67386 0.78523 0.97807 0.0
C551 C 0.76705 0.84278 0.94496 0.0
C552 C 0.73103 0.81606 0.94377 0.0
C553 C 0.64252 0.72138 0.95188 0.0
C554 C 0.66969 0.75678 0.94707 0.0
H555 H 0.86915 0.83782 0.93323 0.0
H556 H 0.80868 0.79612 0.9262 0.0
H557 H 0.70825 0.83481 0.00173 0.0
H558 H 0.54946 0.69488 0.98718 0.0
H559 H 0.59169 0.75471 0.97561 0.0
C560 C 0.63739 0.53401 0.83898 0.0
C561 C 0.59758 0.51926 0.83555 0.0
C562 C 0.66253 0.53519 0.80559 0.0
C563 C 0.67831 0.48304 0.71113 0.0
H564 H 0.75848 0.56743 0.69535 0.0
C565 C 0.80401 0.47667 0.59024 0.0
C566 C 0.843 0.48642 0.60463 0.0
C567 C 0.77009 0.48302 0.6142 0.0
C568 C 0.73621 0.54368 0.69944 0.0
H569 H 0.5524 0.4957 0.79393 0.0
H570 H 0.59657 0.4979 0.73551 0.0
H571 H 0.70449 0.5772 0.74402 0.0
H572 H 0.87682 0.50957 0.65596 0.0
H573 H 0.81778 0.52025 0.69752 0.0
H574 H 0.71079 0.44911 0.66725 0.0
C575 C 0.60823 0.50823 0.76421 0.0
C576 C 0.70536 0.54927 0.72718 0.0
C577 C 0.58295 0.50718 0.79763 0.0
C578 C 0.84734 0.50173 0.64379 0.0
C579 C 0.81349 0.50827 0.66752 0.0
C580 C 0.70914 0.4775 0.68325 0.0
C581 C 0.64844 0.52161 0.76807 0.0
C582 C 0.67687 0.51852 0.73415 0.0
C583 C 0.77457 0.49949 0.65277 0.0
C584 C 0.73902 0.50728 0.67812 0.0
H585 H 0.64953 0.54384 0.86766 0.0
H586 H 0.69356 0.5452 0.80958 0.0
H587 H 0.65695 0.45867 0.71618 0.0
H588 H 0.79953 0.46483 0.56023 0.0
H589 H 0.74032 0.47596 0.60224 0.0
C590 C 0.1489 0.5154 0.63193 0.0
C591 C 0.10718 0.52147 0.63716 0.0
C592 C 0.17396 0.50889 0.66503 0.0
C593 C 0.18614 0.5206 0.77278 0.0
H594 H 0.25234 0.42466 0.76282 0.0
C595 C 0.30004 0.47391 0.89585 0.0
C596 C 0.33904 0.46686 0.88076 0.0
C597 C 0.26681 0.47561 0.86976 0.0
C598 C 0.23402 0.45149 0.76604 0.0
H599 H 0.05973 0.5289 0.68149 0.0
H600 H 0.10406 0.51795 0.73942 0.0
H601 H 0.2048 0.44218 0.70934 0.0
H602 H 0.37344 0.45354 0.82705 0.0
H603 H 0.31585 0.45685 0.78181 0.0
H604 H 0.21659 0.53084 0.82879 0.0
C605 C 0.11694 0.51774 0.70957 0.0
C606 C 0.20699 0.46154 0.73546 0.0
C607 C 0.09168 0.52393 0.67639 0.0
C608 C 0.34385 0.45936 0.83958 0.0
C609 C 0.31074 0.46089 0.81366 0.0
C610 C 0.21352 0.51071 0.80334 0.0
C611 C 0.15792 0.50872 0.70395 0.0
C612 C 0.18367 0.49672 0.73812 0.0
C613 C 0.27207 0.46993 0.82833 0.0
C614 C 0.23847 0.47664 0.79967 0.0
H615 H 0.16196 0.5135 0.60223 0.0
H616 H 0.20575 0.50275 0.66015 0.0
H617 H 0.16828 0.5478 0.77541 0.0
H618 H 0.29539 0.47984 0.92747 0.0
H619 H 0.23721 0.48229 0.88183 0.0
C620 C 0.13823 0.48002 0.33588 0.0
C621 C 0.14269 0.49492 0.37518 0.0
C622 C 0.17205 0.47329 0.31216 0.0
C623 C 0.27673 0.50344 0.29721 0.0
H624 H 0.28037 0.40523 0.23399 0.0
C625 C 0.40226 0.47599 0.18179 0.0
C626 C 0.38735 0.46529 0.14357 0.0
C627 C 0.37716 0.47397 0.2153 0.0
C628 C 0.27979 0.43272 0.25154 0.0
H629 H 0.18633 0.51543 0.41993 0.0
H630 H 0.24547 0.50394 0.37798 0.0
H631 H 0.2265 0.41431 0.28295 0.0
H632 H 0.3351 0.44199 0.11098 0.0
H633 H 0.29138 0.43898 0.16922 0.0
H634 H 0.32908 0.52258 0.26472 0.0
C635 C 0.21565 0.49738 0.36587 0.0
C636 C 0.24901 0.43793 0.27944 0.0
C637 C 0.18177 0.50393 0.3898 0.0
C638 C 0.34746 0.45082 0.13989 0.0
C639 C 0.32249 0.44868 0.17336 0.0
C640 C 0.3075 0.49828 0.2692 0.0
C641 C 0.21105 0.48145 0.32708 0.0
C642 C 0.24656 0.47383 0.30162 0.0
C643 C 0.33685 0.46097 0.21122 0.0
C644 C 0.30857 0.46338 0.2453 0.0
H645 H 0.10867 0.47271 0.32357 0.0
H646 H 0.16767 0.46175 0.282 0.0
H647 H 0.27537 0.53145 0.31386 0.0
H648 H 0.43291 0.48713 0.18572 0.0
H649 H 0.38903 0.48328 0.24426 0.0
C650 C 0.68468 0.51151 0.08371 0.0
C651 C 0.64571 0.51895 0.09868 0.0
C652 C 0.71783 0.50939 0.1099 0.0
C653 C 0.75052 0.53324 0.2138 0.0
H654 H 0.81656 0.43718 0.20413 0.0
C655 C 0.83638 0.46932 0.34765 0.0
C656 C 0.87806 0.46305 0.3423 0.0
C657 C 0.81121 0.47602 0.31465 0.0
C658 C 0.79862 0.46431 0.20685 0.0
H659 H 0.61131 0.53242 0.15236 0.0
H660 H 0.66873 0.52839 0.19776 0.0
H661 H 0.76808 0.45409 0.15087 0.0
H662 H 0.92531 0.45566 0.29776 0.0
H663 H 0.88081 0.46692 0.24 0.0
H664 H 0.77985 0.54256 0.27046 0.0
C665 C 0.6739 0.52438 0.16591 0.0
C666 C 0.77113 0.47417 0.17635 0.0
C667 C 0.64088 0.52633 0.13989 0.0
C668 C 0.89341 0.46073 0.30299 0.0
C669 C 0.86803 0.46712 0.2699 0.0
C670 C 0.77766 0.52322 0.24432 0.0
C671 C 0.71254 0.51502 0.15135 0.0
C672 C 0.74609 0.50817 0.1801 0.0
C673 C 0.82708 0.4762 0.27566 0.0
C674 C 0.80113 0.48815 0.24155 0.0
H675 H 0.68935 0.50562 0.05207 0.0
H676 H 0.74739 0.50248 0.09788 0.0
H677 H 0.73218 0.56004 0.2171 0.0
H678 H 0.82339 0.4711 0.3774 0.0
H679 H 0.77946 0.48221 0.31967 0.0
C680 C 0.33855 0.84884 0.5048 0.0
C681 C 0.33545 0.891 0.50838 0.0
C682 C 0.30408 0.82515 0.50007 0.0
C683 C 0.1977 0.81549 0.51801 0.0
H684 H 0.20327 0.74013 0.42908 0.0
C685 C 0.07868 0.68866 0.48907 0.0
C686 C 0.09654 0.65047 0.48443 0.0
C687 C 0.10254 0.72362 0.48834 0.0
C688 C 0.20117 0.76115 0.45388 0.0
H689 H 0.29322 0.94099 0.51209 0.0
H690 H 0.23249 0.89878 0.50443 0.0
H691 H 0.25519 0.79215 0.43653 0.0
H692 H 0.15321 0.61905 0.47481 0.0
H693 H 0.19453 0.67978 0.47357 0.0
H694 H 0.14465 0.78298 0.53645 0.0
C695 C 0.262 0.88464 0.50483 0.0
C696 C 0.23075 0.79084 0.45808 0.0
C697 C 0.29672 0.90863 0.50923 0.0
C698 C 0.13851 0.64795 0.47861 0.0
C699 C 0.16215 0.68277 0.47751 0.0
C700 C 0.16801 0.78553 0.51387 0.0
C701 C 0.26566 0.84289 0.49911 0.0
C702 C 0.23011 0.81718 0.491 0.0
C703 C 0.14445 0.72089 0.4824 0.0
C704 C 0.17053 0.75717 0.48263 0.0
H705 H 0.36771 0.83402 0.50442 0.0
H706 H 0.30748 0.79282 0.49653 0.0
H707 H 0.19674 0.8356 0.5436 0.0
H708 H 0.04641 0.69154 0.49381 0.0
H709 H 0.08827 0.75272 0.49221 0.0
C710 C 0.14813 0.35099 0.53501 0.0
C711 C 0.1506 0.39055 0.51991 0.0
C712 C 0.18291 0.32763 0.5392 0.0
C713 C 0.28283 0.31429 0.49636 0.0
H714 H 0.29762 0.24245 0.58739 0.0
C715 C 0.40751 0.19164 0.50091 0.0
C716 C 0.39288 0.15323 0.5119 0.0
C717 C 0.38363 0.22596 0.50651 0.0
C718 C 0.29394 0.2624 0.5618 0.0
H719 H 0.19171 0.43686 0.49792 0.0
H720 H 0.25251 0.39566 0.50495 0.0
H721 H 0.24458 0.29342 0.58913 0.0
H722 H 0.34208 0.12108 0.53844 0.0
H723 H 0.30078 0.18042 0.5477 0.0
H724 H 0.33105 0.28208 0.46831 0.0
C725 C 0.22356 0.38292 0.51358 0.0
C726 C 0.26363 0.29153 0.56282 0.0
C727 C 0.18877 0.4065 0.50975 0.0
C728 C 0.35433 0.15006 0.52934 0.0
C729 C 0.33073 0.18421 0.53512 0.0
C730 C 0.31312 0.28501 0.49528 0.0
C731 C 0.22089 0.34319 0.52811 0.0
C732 C 0.25695 0.31688 0.52961 0.0
C733 C 0.34494 0.22249 0.52358 0.0
C734 C 0.31805 0.25791 0.52747 0.0
H735 H 0.11926 0.33787 0.54333 0.0
H736 H 0.17988 0.29689 0.55001 0.0
H737 H 0.27819 0.33332 0.47024 0.0
H738 H 0.43709 0.19515 0.48745 0.0
H739 H 0.39536 0.25516 0.49743 0.0
C740 C 0.83884 0.63638 0.47024 0.0
C741 C 0.83517 0.59412 0.46823 0.0
C742 C 0.80463 0.66046 0.47294 0.0
C743 C 0.69793 0.6691 0.45192 0.0
H744 H 0.70379 0.74973 0.53619 0.0
C745 C 0.57804 0.7961 0.47733 0.0
C746 C 0.59583 0.83471 0.48034 0.0
C747 C 0.60223 0.76149 0.47783 0.0
C748 C 0.70163 0.72726 0.51265 0.0
H749 H 0.79223 0.54427 0.46538 0.0
H750 H 0.73203 0.58706 0.46957 0.0
H751 H 0.75566 0.69788 0.53235 0.0
H752 H 0.65302 0.86706 0.48588 0.0
H753 H 0.69464 0.80711 0.4868 0.0
H754 H 0.6446 0.69987 0.43129 0.0
C755 C 0.76173 0.60105 0.46946 0.0
C756 C 0.73122 0.69766 0.51048 0.0
C757 C 0.79618 0.57669 0.46711 0.0
C758 C 0.63817 0.83793 0.4835 0.0
C759 C 0.66209 0.80354 0.48436 0.0
C760 C 0.66816 0.69897 0.45405 0.0
C761 C 0.76588 0.64303 0.47341 0.0
C762 C 0.73049 0.6693 0.47925 0.0
C763 C 0.64441 0.76502 0.48191 0.0
C764 C 0.67076 0.72916 0.48357 0.0
H765 H 0.86821 0.65106 0.47086 0.0
H766 H 0.80851 0.69289 0.47518 0.0
H767 H 0.69683 0.64741 0.42762 0.0
H768 H 0.54552 0.7926 0.47465 0.0
H769 H 0.58798 0.73203 0.47578 0.0
C770 C 0.64909 0.13592 0.4496 0.0
C771 C 0.6513 0.09503 0.46052 0.0
C772 C 0.68432 0.15866 0.44505 0.0
C773 C 0.78665 0.16555 0.48314 0.0
H774 H 0.79612 0.24806 0.40083 0.0
C775 C 0.90749 0.29365 0.48688 0.0
C776 C 0.89009 0.3321 0.4821 0.0
C777 C 0.8847 0.25886 0.47894 0.0
C778 C 0.79404 0.22491 0.42379 0.0
H779 H 0.69223 0.04566 0.47446 0.0
H780 H 0.75383 0.08581 0.46686 0.0
H781 H 0.74361 0.19633 0.39481 0.0
H782 H 0.83488 0.36392 0.4657 0.0
H783 H 0.79564 0.30364 0.45229 0.0
H784 H 0.83579 0.19549 0.51316 0.0
C785 C 0.72477 0.10002 0.46173 0.0
C786 C 0.76408 0.19544 0.42036 0.0
C787 C 0.68951 0.07712 0.46595 0.0
C788 C 0.84945 0.33494 0.46967 0.0
C789 C 0.82698 0.30038 0.46151 0.0
C790 C 0.81667 0.19514 0.4866 0.0
C791 C 0.72242 0.14104 0.45157 0.0
C792 C 0.75907 0.16657 0.45084 0.0
C793 C 0.84443 0.26209 0.4657 0.0
C794 C 0.81937 0.22603 0.45781 0.0
H795 H 0.62015 0.15051 0.44494 0.0
H796 H 0.68168 0.19044 0.43777 0.0
H797 H 0.78327 0.14366 0.50713 0.0
H798 H 0.93873 0.29038 0.49636 0.0
H799 H 0.89866 0.22954 0.48259 0.0
C800 C 0.51366 0.37915 0.81275 0.0
C801 C 0.50896 0.36553 0.85249 0.0
C802 C 0.52387 0.35221 0.7824 0.0
C803 C 0.56675 0.25087 0.7656 0.0
H804 H 0.50824 0.25752 0.66449 0.0
C805 C 0.54592 0.11884 0.6558 0.0
C806 C 0.54485 0.12734 0.6144 0.0
C807 C 0.55059 0.14999 0.68355 0.0
C808 C 0.52546 0.25575 0.69224 0.0
H809 H 0.51076 0.31285 0.89143 0.0
H810 H 0.52752 0.26573 0.83822 0.0
H811 H 0.49709 0.30835 0.7157 0.0
H812 H 0.55122 0.17491 0.56967 0.0
H813 H 0.5593 0.22906 0.61826 0.0
H814 H 0.59394 0.19723 0.74242 0.0
C815 C 0.52427 0.2974 0.83075 0.0
C816 C 0.51902 0.28483 0.7216 0.0
C817 C 0.51428 0.32435 0.86115 0.0
C818 C 0.55124 0.16728 0.60134 0.0
C819 C 0.55585 0.19837 0.6291 0.0
C820 C 0.57307 0.22164 0.73624 0.0
C821 C 0.52936 0.3111 0.79113 0.0
C822 C 0.53901 0.28225 0.75884 0.0
C823 C 0.55429 0.19014 0.67041 0.0
C824 C 0.55193 0.22348 0.69959 0.0
H825 H 0.51033 0.41079 0.80513 0.0
H826 H 0.52799 0.36368 0.75219 0.0
H827 H 0.58314 0.2486 0.79379 0.0
H828 H 0.54146 0.08841 0.66693 0.0
H829 H 0.54904 0.14286 0.71528 0.0
C830 C 0.47677 0.82562 0.61998 0.0
C831 C 0.47994 0.86697 0.62878 0.0
C832 C 0.46714 0.798 0.65003 0.0
C833 C 0.46826 0.78418 0.75909 0.0
H834 H 0.39612 0.69471 0.73416 0.0
C835 C 0.43259 0.66389 0.87646 0.0
C836 C 0.4409 0.62441 0.86345 0.0
C837 C 0.42863 0.69519 0.84878 0.0
C838 C 0.41619 0.71962 0.74148 0.0
H839 H 0.47579 0.91183 0.67604 0.0
H840 H 0.45873 0.8634 0.72859 0.0
H841 H 0.40792 0.7473 0.68394 0.0
H842 H 0.44836 0.58637 0.81094 0.0
H843 H 0.44172 0.64126 0.76267 0.0
H844 H 0.47716 0.75616 0.81628 0.0
C845 C 0.46413 0.85241 0.69848 0.0
C846 C 0.4231 0.74956 0.7128 0.0
C847 C 0.474 0.88009 0.66842 0.0
C848 C 0.44227 0.61645 0.82202 0.0
C849 C 0.43822 0.64783 0.79432 0.0
C850 C 0.4612 0.75438 0.7878 0.0
C851 C 0.46025 0.81116 0.68944 0.0
C852 C 0.4499 0.78162 0.72105 0.0
C853 C 0.43272 0.68762 0.80759 0.0
C854 C 0.43574 0.72146 0.77895 0.0
H855 H 0.48151 0.81453 0.58978 0.0
H856 H 0.46532 0.76626 0.6424 0.0
H857 H 0.4894 0.80827 0.76613 0.0
H858 H 0.43065 0.67105 0.90812 0.0
H859 H 0.42374 0.72558 0.85964 0.0
C860 C 0.4819 0.61303 0.16626 0.0
C861 C 0.47804 0.62317 0.12537 0.0
C862 C 0.47357 0.64158 0.19584 0.0
C863 C 0.46896 0.75078 0.21079 0.0
H864 H 0.40748 0.72356 0.3061 0.0
C865 C 0.43345 0.87156 0.32612 0.0
C866 C 0.44393 0.86119 0.36578 0.0
C867 C 0.42982 0.84177 0.29685 0.0
C868 C 0.42471 0.73148 0.27962 0.0
H869 H 0.4621 0.67132 0.08362 0.0
H870 H 0.44757 0.72056 0.13507 0.0
H871 H 0.41884 0.67211 0.25478 0.0
H872 H 0.45589 0.81111 0.40644 0.0
H873 H 0.45032 0.75937 0.35514 0.0
H874 H 0.47569 0.80969 0.23564 0.0
C875 C 0.45745 0.69076 0.14423 0.0
C876 C 0.43134 0.70208 0.25043 0.0
C877 C 0.46575 0.6624 0.11476 0.0
C878 C 0.44801 0.82021 0.37611 0.0
C879 C 0.44457 0.79045 0.34677 0.0
C880 C 0.46238 0.78004 0.23985 0.0
C881 C 0.46136 0.6807 0.18499 0.0
C882 C 0.45369 0.71151 0.21588 0.0
C883 C 0.43678 0.80112 0.30665 0.0
C884 C 0.44039 0.77066 0.27462 0.0
H885 H 0.4911 0.58305 0.17549 0.0
H886 H 0.47721 0.63325 0.22714 0.0
H887 H 0.48686 0.75866 0.18473 0.0
H888 H 0.42936 0.90279 0.31731 0.0
H889 H 0.42295 0.85068 0.26623 0.0
C890 C 0.51518 0.10769 0.3121 0.0
C891 C 0.5087 0.12119 0.35153 0.0
C892 C 0.5255 0.13503 0.28189 0.0
C893 C 0.56579 0.23822 0.26653 0.0
H894 H 0.51182 0.22987 0.16311 0.0
C895 C 0.5433 0.37046 0.157 0.0
C896 C 0.54444 0.3625 0.11556 0.0
C897 C 0.54832 0.3392 0.18469 0.0
C898 C 0.52779 0.23215 0.19155 0.0
H899 H 0.50704 0.17402 0.39001 0.0
H900 H 0.52393 0.22172 0.3371 0.0
H901 H 0.50053 0.17797 0.21363 0.0
H902 H 0.55528 0.31607 0.07082 0.0
H903 H 0.56387 0.26173 0.11929 0.0
H904 H 0.59172 0.29341 0.24475 0.0
C905 C 0.52213 0.18991 0.32976 0.0
C906 C 0.52128 0.20245 0.22049 0.0
C907 C 0.51206 0.16261 0.35998 0.0
C908 C 0.55345 0.32319 0.1025 0.0
C909 C 0.55841 0.29201 0.13018 0.0
C910 C 0.57214 0.26806 0.23761 0.0
C911 C 0.52931 0.17638 0.29051 0.0
C912 C 0.53952 0.20565 0.25856 0.0
C913 C 0.5546 0.29952 0.17142 0.0
C914 C 0.55256 0.26565 0.20017 0.0
H915 H 0.51333 0.07589 0.30473 0.0
H916 H 0.53116 0.12372 0.25195 0.0
H917 H 0.5809 0.24099 0.29537 0.0
H918 H 0.53669 0.4004 0.16812 0.0
H919 H 0.545 0.34573 0.21637 0.0
loop_
_geom_bond_atom_site_label_1
_geom_bond_atom_site_label_2
_geom_bond_distance
_geom_bond_site_symmetry_2
_ccdc_geom_bond_type
O0 Zr5 2.207 1_565 S
O0 C34 1.295 . S
O1 Zr5 2.133 1_565 S
O1 Zr6 2.133 1_565 S
O1 Zr7 2.133 . S
O2 Zr5 2.133 1_556 S
O2 Zr11 2.133 1_556 S
O2 Zr12 2.133 . S
O3 Zr5 2.133 1_566 S
O3 Zr7 2.133 1_556 S
O3 Zr12 2.133 1_565 S
O4 Zr5 2.133 . S
O4 Zr6 2.133 . S
O4 Zr11 2.133 . S
Zr5 O0 2.207 1_545 S
Zr5 O1 2.133 1_545 S
Zr5 O2 2.133 1_554 S
Zr5 O3 2.133 1_544 S
Zr5 O4 2.133 . S
Zr5 O17 2.207 . S
Zr5 O30 2.207 . S
Zr5 O33 2.207 1_554 S
Zr6 O1 2.133 1_545 S
Zr6 O4 2.133 . S
Zr6 O8 2.133 1_455 S
Zr6 O10 2.133 1_445 S
Zr6 O22 2.207 1_455 S
Zr6 O25 2.207 . S
Zr6 O35 2.207 . S
Zr6 O36 2.207 1_545 S
Zr7 O1 2.133 . S
Zr7 O3 2.133 1_554 S
Zr7 O9 2.133 1_454 S
Zr7 O10 2.133 1_455 S
Zr7 O19 2.207 . S
Zr7 O20 2.207 1_554 S
Zr7 O27 2.207 . S
Zr7 O28 2.207 1_455 S
O8 Zr6 2.133 1_655 S
O8 Zr11 2.133 1_655 S
O8 Zr13 2.133 . S
O9 Zr7 2.133 1_656 S
O9 Zr12 2.133 1_665 S
O9 Zr13 2.133 1_566 S
O10 Zr6 2.133 1_665 S
O10 Zr7 2.133 1_655 S
O10 Zr13 2.133 1_565 S
Zr11 O2 2.133 1_554 S
Zr11 O4 2.133 . S
Zr11 O8 2.133 1_455 S
Zr11 O14 2.133 1_454 S
Zr11 O18 2.207 1_554 S
Zr11 O21 2.207 . S
Zr11 O26 2.207 1_455 S
Zr11 O29 2.207 . S
Zr12 O2 2.133 . S
Zr12 O3 2.133 1_545 S
Zr12 O9 2.133 1_445 S
Zr12 O14 2.133 1_455 S
Zr12 O23 2.207 . S
Zr12 O24 2.207 1_455 S
Zr12 O48 2.207 1_545 S
Zr12 O49 2.207 . S
Zr13 O8 2.133 . S
Zr13 O9 2.133 1_544 S
Zr13 O10 2.133 1_545 S
Zr13 O14 2.133 1_554 S
Zr13 O15 2.207 . S
Zr13 O16 2.207 1_545 S
Zr13 O31 2.207 1_554 S
Zr13 O32 2.207 . S
O14 Zr11 2.133 1_656 S
O14 Zr12 2.133 1_655 S
O14 Zr13 2.133 1_556 S
O15 Zr13 2.207 . S
O15 C37 1.295 . S
O16 Zr13 2.207 1_565 S
O16 C38 1.295 . S
O17 Zr5 2.207 . S
O17 C39 1.295 . S
O18 Zr11 2.207 1_556 S
O18 C40 1.295 . S
O19 Zr7 2.207 . S
O19 C41 1.295 . S
O20 Zr7 2.207 1_556 S
O20 C42 1.295 . S
O21 Zr11 2.207 . S
O21 C43 1.295 . S
O22 Zr6 2.207 1_655 S
O22 C44 1.295 . S
O23 Zr12 2.207 . S
O23 C45 1.295 . S
O24 Zr12 2.207 1_655 S
O24 C46 1.295 . S
O25 Zr6 2.207 . S
O25 C47 1.295 . S
O26 Zr11 2.207 1_655 S
O26 C37 1.295 . S
O27 Zr7 2.207 . S
O27 C34 1.295 . S
O28 Zr7 2.207 1_655 S
O28 C38 1.295 . S
O29 Zr11 2.207 . S
O29 C39 1.295 . S
O30 Zr5 2.207 . S
O30 C47 1.295 . S
O31 Zr13 2.207 1_556 S
O31 C46 1.295 . S
O32 Zr13 2.207 . S
O32 C44 1.295 . S
O33 Zr5 2.207 1_556 S
O33 C45 1.295 . S
C34 O0 1.295 . S
C34 O27 1.295 . S
O35 Zr6 2.207 . S
O35 C43 1.295 . S
O36 Zr6 2.207 1_565 S
O36 C41 1.295 . S
C37 O15 1.295 . S
C37 O26 1.295 . S
C38 O16 1.295 . S
C38 O28 1.295 . S
C39 O17 1.295 . S
C39 O29 1.295 . S
C40 O18 1.295 . S
C40 O49 1.295 . S
C41 O19 1.295 . S
C41 O36 1.295 . S
C42 O20 1.295 . S
C42 O48 1.295 . S
C43 O21 1.295 . S
C43 O35 1.295 . S
C44 O22 1.295 . S
C44 O32 1.295 . S
C45 O23 1.295 . S
C45 O33 1.295 . S
C46 O24 1.295 . S
C46 O31 1.295 . S
C47 O25 1.295 . S
C47 O30 1.295 . S
O48 Zr12 2.207 1_565 S
O48 C42 1.295 . S
O49 Zr12 2.207 . S
O49 C40 1.295 . S
O50 Zr55 2.207 . S
O50 C84 1.295 . S
O51 Zr55 2.133 . S
O51 Zr56 2.133 . S
O51 Zr57 2.133 . S
O52 Zr55 2.133 . S
O52 Zr61 2.133 . S
O52 Zr62 2.133 . S
O53 Zr55 2.133 . S
O53 Zr57 2.133 . S
O53 Zr62 2.133 . S
O54 Zr55 2.133 . S
O54 Zr56 2.133 . S
O54 Zr61 2.133 . S
Zr55 O50 2.207 . S
Zr55 O51 2.133 . S
Zr55 O52 2.133 . S
Zr55 O53 2.133 . S
Zr55 O54 2.133 . S
Zr55 O67 2.207 . S
Zr55 O80 2.207 . S
Zr55 O83 2.207 . S
Zr56 O51 2.133 . S
Zr56 O54 2.133 . S
Zr56 O58 2.133 1_455 S
Zr56 O60 2.133 1_455 S
Zr56 O72 2.207 1_455 S
Zr56 O75 2.207 . S
Zr56 O85 2.207 . S
Zr56 O86 2.207 . S
Zr57 O51 2.133 . S
Zr57 O53 2.133 . S
Zr57 O59 2.133 1_455 S
Zr57 O60 2.133 1_455 S
Zr57 O69 2.207 . S
Zr57 O70 2.207 . S
Zr57 O77 2.207 . S
Zr57 O78 2.207 1_455 S
O58 Zr56 2.133 1_655 S
O58 Zr61 2.133 1_655 S
O58 Zr63 2.133 . S
O59 Zr57 2.133 1_655 S
O59 Zr62 2.133 1_655 S
O59 Zr63 2.133 . S
O60 Zr56 2.133 1_655 S
O60 Zr57 2.133 1_655 S
O60 Zr63 2.133 . S
Zr61 O52 2.133 . S
Zr61 O54 2.133 . S
Zr61 O58 2.133 1_455 S
Zr61 O64 2.133 1_455 S
Zr61 O68 2.207 . S
Zr61 O71 2.207 . S
Zr61 O76 2.207 1_455 S
Zr61 O79 2.207 . S
Zr62 O52 2.133 . S
Zr62 O53 2.133 . S
Zr62 O59 2.133 1_455 S
Zr62 O64 2.133 1_455 S
Zr62 O73 2.207 . S
Zr62 O74 2.207 1_455 S
Zr62 O98 2.207 . S
Zr62 O99 2.207 . S
Zr63 O58 2.133 . S
Zr63 O59 2.133 . S
Zr63 O60 2.133 . S
Zr63 O64 2.133 . S
Zr63 O65 2.207 . S
Zr63 O66 2.207 . S
Zr63 O81 2.207 . S
Zr63 O82 2.207 . S
O64 Zr61 2.133 1_655 S
O64 Zr62 2.133 1_655 S
O64 Zr63 2.133 . S
O65 Zr63 2.207 . S
O65 C87 1.295 . S
O66 Zr63 2.207 . S
O66 C88 1.295 . S
O67 Zr55 2.207 . S
O67 C89 1.295 . S
O68 Zr61 2.207 . S
O68 C90 1.295 . S
O69 Zr57 2.207 . S
O69 C91 1.295 . S
O70 Zr57 2.207 . S
O70 C92 1.295 . S
O71 Zr61 2.207 . S
O71 C93 1.295 . S
O72 Zr56 2.207 1_655 S
O72 C94 1.295 . S
O73 Zr62 2.207 . S
O73 C95 1.295 . S
O74 Zr62 2.207 1_655 S
O74 C96 1.295 . S
O75 Zr56 2.207 . S
O75 C97 1.295 . S
O76 Zr61 2.207 1_655 S
O76 C87 1.295 . S
O77 Zr57 2.207 . S
O77 C84 1.295 . S
O78 Zr57 2.207 1_655 S
O78 C88 1.295 . S
O79 Zr61 2.207 . S
O79 C89 1.295 . S
O80 Zr55 2.207 . S
O80 C97 1.295 . S
O81 Zr63 2.207 . S
O81 C96 1.295 . S
O82 Zr63 2.207 . S
O82 C94 1.295 . S
O83 Zr55 2.207 . S
O83 C95 1.295 . S
C84 O50 1.295 . S
C84 O77 1.295 . S
O85 Zr56 2.207 . S
O85 C93 1.295 . S
O86 Zr56 2.207 . S
O86 C91 1.295 . S
C87 O65 1.295 . S
C87 O76 1.295 . S
C88 O66 1.295 . S
C88 O78 1.295 . S
C89 O67 1.295 . S
C89 O79 1.295 . S
C90 O68 1.295 . S
C90 O99 1.295 . S
C91 O69 1.295 . S
C91 O86 1.295 . S
C92 O70 1.295 . S
C92 O98 1.295 . S
C93 O71 1.295 . S
C93 O85 1.295 . S
C94 O72 1.295 . S
C94 O82 1.295 . S
C95 O73 1.295 . S
C95 O83 1.295 . S
C96 O74 1.295 . S
C96 O81 1.295 . S
C97 O75 1.295 . S
C97 O80 1.295 . S
O98 Zr62 2.207 . S
O98 C92 1.295 . S
O99 Zr62 2.207 . S
O99 C90 1.295 . S
O100 Zr105 2.207 . S
O100 C134 1.295 . S
O101 Zr105 2.133 . S
O101 Zr106 2.133 . S
O101 Zr107 2.133 . S
O102 Zr105 2.133 1_565 S
O102 Zr111 2.133 1_565 S
O102 Zr112 2.133 . S
O103 Zr105 2.133 1_565 S
O103 Zr107 2.133 1_565 S
O103 Zr112 2.133 . S
O104 Zr105 2.133 . S
O104 Zr106 2.133 . S
O104 Zr111 2.133 . S
Zr105 O100 2.207 . S
Zr105 O101 2.133 . S
Zr105 O102 2.133 1_545 S
Zr105 O103 2.133 1_545 S
Zr105 O104 2.133 . S
Zr105 O117 2.207 . S
Zr105 O130 2.207 . S
Zr105 O133 2.207 1_545 S
Zr106 O101 2.133 . S
Zr106 O104 2.133 . S
Zr106 O108 2.133 . S
Zr106 O110 2.133 . S
Zr106 O122 2.207 . S
Zr106 O125 2.207 . S
Zr106 O135 2.207 . S
Zr106 O136 2.207 . S
Zr107 O101 2.133 . S
Zr107 O103 2.133 1_545 S
Zr107 O109 2.133 1_545 S
Zr107 O110 2.133 . S
Zr107 O119 2.207 . S
Zr107 O120 2.207 1_545 S
Zr107 O127 2.207 . S
Zr107 O128 2.207 . S
O108 Zr106 2.133 . S
O108 Zr111 2.133 . S
O108 Zr113 2.133 . S
O109 Zr107 2.133 1_565 S
O109 Zr112 2.133 . S
O109 Zr113 2.133 1_565 S
O110 Zr106 2.133 . S
O110 Zr107 2.133 . S
O110 Zr113 2.133 . S
Zr111 O102 2.133 1_545 S
Zr111 O104 2.133 . S
Zr111 O108 2.133 . S
Zr111 O114 2.133 1_545 S
Zr111 O118 2.207 1_545 S
Zr111 O121 2.207 . S
Zr111 O126 2.207 . S
Zr111 O129 2.207 . S
Zr112 O102 2.133 . S
Zr112 O103 2.133 . S
Zr112 O109 2.133 . S
Zr112 O114 2.133 . S
Zr112 O123 2.207 . S
Zr112 O124 2.207 . S
Zr112 O148 2.207 . S
Zr112 O149 2.207 . S
Zr113 O108 2.133 . S
Zr113 O109 2.133 1_545 S
Zr113 O110 2.133 . S
Zr113 O114 2.133 1_545 S
Zr113 O115 2.207 . S
Zr113 O116 2.207 . S
Zr113 O131 2.207 1_545 S
Zr113 O132 2.207 . S
O114 Zr111 2.133 1_565 S
O114 Zr112 2.133 . S
O114 Zr113 2.133 1_565 S
O115 Zr113 2.207 . S
O115 C137 1.295 . S
O116 Zr113 2.207 . S
O116 C138 1.295 . S
O117 Zr105 2.207 . S
O117 C139 1.295 . S
O118 Zr111 2.207 1_565 S
O118 C140 1.295 . S
O119 Zr107 2.207 . S
O119 C141 1.295 . S
O120 Zr107 2.207 1_565 S
O120 C142 1.295 . S
O121 Zr111 2.207 . S
O121 C143 1.295 . S
O122 Zr106 2.207 . S
O122 C144 1.295 . S
O123 Zr112 2.207 . S
O123 C145 1.295 . S
O124 Zr112 2.207 . S
O124 C146 1.295 . S
O125 Zr106 2.207 . S
O125 C147 1.295 . S
O126 Zr111 2.207 . S
O126 C137 1.295 . S
O127 Zr107 2.207 . S
O127 C134 1.295 . S
O128 Zr107 2.207 . S
O128 C138 1.295 . S
O129 Zr111 2.207 . S
O129 C139 1.295 . S
O130 Zr105 2.207 . S
O130 C147 1.295 . S
O131 Zr113 2.207 1_565 S
O131 C146 1.295 . S
O132 Zr113 2.207 . S
O132 C144 1.295 . S
O133 Zr105 2.207 1_565 S
O133 C145 1.295 . S
C134 O100 1.295 . S
C134 O127 1.295 . S
O135 Zr106 2.207 . S
O135 C143 1.295 . S
O136 Zr106 2.207 . S
O136 C141 1.295 . S
C137 O115 1.295 . S
C137 O126 1.295 . S
C138 O116 1.295 . S
C138 O128 1.295 . S
C139 O117 1.295 . S
C139 O129 1.295 . S
C140 O118 1.295 . S
C140 O149 1.295 . S
C141 O119 1.295 . S
C141 O136 1.295 . S
C142 O120 1.295 . S
C142 O148 1.295 . S
C143 O121 1.295 . S
C143 O135 1.295 . S
C144 O122 1.295 . S
C144 O132 1.295 . S
C145 O123 1.295 . S
C145 O133 1.295 . S
C146 O124 1.295 . S
C146 O131 1.295 . S
C147 O125 1.295 . S
C147 O130 1.295 . S
O148 Zr112 2.207 . S
O148 C142 1.295 . S
O149 Zr112 2.207 . S
O149 C140 1.295 . S
O150 Zr155 2.207 . S
O150 C184 1.295 . S
O151 Zr155 2.133 . S
O151 Zr156 2.133 . S
O151 Zr157 2.133 . S
O152 Zr155 2.133 1_556 S
O152 Zr161 2.133 1_556 S
O152 Zr162 2.133 . S
O153 Zr155 2.133 1_556 S
O153 Zr157 2.133 1_556 S
O153 Zr162 2.133 . S
O154 Zr155 2.133 . S
O154 Zr156 2.133 . S
O154 Zr161 2.133 . S
Zr155 O150 2.207 . S
Zr155 O151 2.133 . S
Zr155 O152 2.133 1_554 S
Zr155 O153 2.133 1_554 S
Zr155 O154 2.133 . S
Zr155 O167 2.207 . S
Zr155 O180 2.207 . S
Zr155 O183 2.207 1_554 S
Zr156 O151 2.133 . S
Zr156 O154 2.133 . S
Zr156 O158 2.133 . S
Zr156 O160 2.133 . S
Zr156 O172 2.207 . S
Zr156 O175 2.207 . S
Zr156 O185 2.207 . S
Zr156 O186 2.207 . S
Zr157 O151 2.133 . S
Zr157 O153 2.133 1_554 S
Zr157 O159 2.133 1_554 S
Zr157 O160 2.133 . S
Zr157 O169 2.207 . S
Zr157 O170 2.207 1_554 S
Zr157 O177 2.207 . S
Zr157 O178 2.207 . S
O158 Zr156 2.133 . S
O158 Zr161 2.133 . S
O158 Zr163 2.133 . S
O159 Zr157 2.133 1_556 S
O159 Zr162 2.133 . S
O159 Zr163 2.133 1_556 S
O160 Zr156 2.133 . S
O160 Zr157 2.133 . S
O160 Zr163 2.133 . S
Zr161 O152 2.133 1_554 S
Zr161 O154 2.133 . S
Zr161 O158 2.133 . S
Zr161 O164 2.133 1_554 S
Zr161 O168 2.207 1_554 S
Zr161 O171 2.207 . S
Zr161 O176 2.207 . S
Zr161 O179 2.207 . S
Zr162 O152 2.133 . S
Zr162 O153 2.133 . S
Zr162 O159 2.133 . S
Zr162 O164 2.133 . S
Zr162 O173 2.207 . S
Zr162 O174 2.207 . S
Zr162 O198 2.207 . S
Zr162 O199 2.207 . S
Zr163 O158 2.133 . S
Zr163 O159 2.133 1_554 S
Zr163 O160 2.133 . S
Zr163 O164 2.133 1_554 S
Zr163 O165 2.207 . S
Zr163 O166 2.207 . S
Zr163 O181 2.207 1_554 S
Zr163 O182 2.207 . S
O164 Zr161 2.133 1_556 S
O164 Zr162 2.133 . S
O164 Zr163 2.133 1_556 S
O165 Zr163 2.207 . S
O165 C187 1.295 . S
O166 Zr163 2.207 . S
O166 C188 1.295 . S
O167 Zr155 2.207 . S
O167 C189 1.295 . S
O168 Zr161 2.207 1_556 S
O168 C190 1.295 . S
O169 Zr157 2.207 . S
O169 C191 1.295 . S
O170 Zr157 2.207 1_556 S
O170 C192 1.295 . S
O171 Zr161 2.207 . S
O171 C193 1.295 . S
O172 Zr156 2.207 . S
O172 C194 1.295 . S
O173 Zr162 2.207 . S
O173 C195 1.295 . S
O174 Zr162 2.207 . S
O174 C196 1.295 . S
O175 Zr156 2.207 . S
O175 C197 1.295 . S
O176 Zr161 2.207 . S
O176 C187 1.295 . S
O177 Zr157 2.207 . S
O177 C184 1.295 . S
O178 Zr157 2.207 . S
O178 C188 1.295 . S
O179 Zr161 2.207 . S
O179 C189 1.295 . S
O180 Zr155 2.207 . S
O180 C197 1.295 . S
O181 Zr163 2.207 1_556 S
O181 C196 1.295 . S
O182 Zr163 2.207 . S
O182 C194 1.295 . S
O183 Zr155 2.207 1_556 S
O183 C195 1.295 . S
C184 O150 1.295 . S
C184 O177 1.295 . S
O185 Zr156 2.207 . S
O185 C193 1.295 . S
O186 Zr156 2.207 . S
O186 C191 1.295 . S
C187 O165 1.295 . S
C187 O176 1.295 . S
C188 O166 1.295 . S
C188 O178 1.295 . S
C189 O167 1.295 . S
C189 O179 1.295 . S
C190 O168 1.295 . S
C190 O199 1.295 . S
C191 O169 1.295 . S
C191 O186 1.295 . S
C192 O170 1.295 . S
C192 O198 1.295 . S
C193 O171 1.295 . S
C193 O185 1.295 . S
C194 O172 1.295 . S
C194 O182 1.295 . S
C195 O173 1.295 . S
C195 O183 1.295 . S
C196 O174 1.295 . S
C196 O181 1.295 . S
C197 O175 1.295 . S
C197 O180 1.295 . S
O198 Zr162 2.207 . S
O198 C192 1.295 . S
O199 Zr162 2.207 . S
O199 C190 1.295 . S
C200 C201 1.349 . S
C200 C202 1.327 . S
C200 H225 0.950 . S
C201 C200 1.349 . S
C201 C217 1.349 1_455 S
C202 C200 1.327 . S
C202 C221 1.429 . S
C202 H226 0.950 . S
C203 C220 1.574 . S
C203 C222 1.368 1_655 S
C203 H227 0.949 . S
H204 C208 0.949 . S
C205 C206 1.349 1_655 S
C205 C207 1.327 . S
C205 H228 0.950 . S
C206 C205 1.349 1_455 S
C206 C218 1.349 . S
C207 C205 1.327 . S
C207 C223 1.429 1_655 S
C207 H229 0.950 . S
C208 H204 0.949 . S
C208 C216 1.574 . S
C208 C224 1.368 . S
H209 C217 0.950 . S
H210 C215 0.950 . S
H211 C216 0.949 . S
H212 C218 0.950 . S
H213 C219 0.950 . S
H214 C220 0.949 . S
C215 H210 0.950 . S
C215 C217 1.327 . S
C215 C221 1.429 1_655 S
C216 C208 1.574 . S
C216 H211 0.949 . S
C216 C222 1.368 . S
C217 C201 1.349 1_655 S
C217 H209 0.950 . S
C217 C215 1.327 . S
C218 C206 1.349 . S
C218 H212 0.950 . S
C218 C219 1.327 . S
C219 H213 0.950 . S
C219 C218 1.327 . S
C219 C223 1.429 . S
C220 C203 1.574 . S
C220 H214 0.949 . S
C220 C224 1.368 1_655 S
C221 C202 1.429 . S
C221 C215 1.429 1_455 S
C221 C222 1.523 . S
C222 C203 1.368 1_455 S
C222 C216 1.368 . S
C222 C221 1.523 . S
C223 C207 1.429 1_455 S
C223 C219 1.429 . S
C223 C224 1.523 . S
C224 C208 1.368 . S
C224 C220 1.368 1_455 S
C224 C223 1.523 . S
H225 C200 0.950 . S
H226 C202 0.950 . S
H227 C203 0.949 . S
H228 C205 0.950 . S
H229 C207 0.950 . S
C230 C231 1.349 1_565 S
C230 C232 1.327 . S
C230 H255 0.950 . S
C231 C230 1.349 1_545 S
C231 C247 1.349 . S
C232 C230 1.327 . S
C232 C251 1.429 1_565 S
C232 H256 0.950 . S
C233 C250 1.574 . S
C233 C252 1.368 . S
C233 H257 0.949 . S
H234 C238 0.949 . S
C235 C236 1.349 . S
C235 C237 1.327 . S
C235 H258 0.950 . S
C236 C235 1.349 . S
C236 C248 1.349 1_545 S
C237 C235 1.327 . S
C237 C253 1.429 . S
C237 H259 0.950 . S
C238 H234 0.949 . S
C238 C246 1.574 . S
C238 C254 1.368 1_565 S
H239 C247 0.950 . S
H240 C245 0.950 . S
H241 C246 0.949 . S
H242 C248 0.950 . S
H243 C249 0.950 . S
H244 C250 0.949 . S
C245 H240 0.950 . S
C245 C247 1.327 . S
C245 C251 1.429 . S
C246 C238 1.574 . S
C246 H241 0.949 . S
C246 C252 1.368 1_565 S
C247 C231 1.349 . S
C247 H239 0.950 . S
C247 C245 1.327 . S
C248 C236 1.349 1_565 S
C248 H242 0.950 . S
C248 C249 1.327 . S
C249 H243 0.950 . S
C249 C248 1.327 . S
C249 C253 1.429 1_565 S
C250 C233 1.574 . S
C250 H244 0.949 . S
C250 C254 1.368 . S
C251 C232 1.429 1_545 S
C251 C245 1.429 . S
C251 C252 1.523 . S
C252 C233 1.368 . S
C252 C246 1.368 1_545 S
C252 C251 1.523 . S
C253 C237 1.429 . S
C253 C249 1.429 1_545 S
C253 C254 1.523 . S
C254 C238 1.368 1_545 S
C254 C250 1.368 . S
C254 C253 1.523 . S
H255 C230 0.950 . S
H256 C232 0.950 . S
H257 C233 0.949 . S
H258 C235 0.950 . S
H259 C237 0.950 . S
C260 C261 1.349 1_655 S
C260 C262 1.327 . S
C260 H285 0.950 . S
C261 C260 1.349 1_455 S
C261 C277 1.349 . S
C262 C260 1.327 . S
C262 C281 1.429 1_655 S
C262 H286 0.950 . S
C263 C280 1.574 . S
C263 C282 1.368 . S
C263 H287 0.949 . S
H264 C268 0.949 . S
C265 C266 1.349 . S
C265 C267 1.327 . S
C265 H288 0.950 . S
C266 C265 1.349 . S
C266 C278 1.349 1_455 S
C267 C265 1.327 . S
C267 C283 1.429 . S
C267 H289 0.950 . S
C268 H264 0.949 . S
C268 C276 1.574 . S
C268 C284 1.368 1_655 S
H269 C277 0.950 . S
H270 C275 0.950 . S
H271 C276 0.949 . S
H272 C278 0.950 . S
H273 C279 0.950 . S
H274 C280 0.949 . S
C275 H270 0.950 . S
C275 C277 1.327 . S
C275 C281 1.429 . S
C276 C268 1.574 . S
C276 H271 0.949 . S
C276 C282 1.368 1_655 S
C277 C261 1.349 . S
C277 H269 0.950 . S
C277 C275 1.327 . S
C278 C266 1.349 1_655 S
C278 H272 0.950 . S
C278 C279 1.327 . S
C279 H273 0.950 . S
C279 C278 1.327 . S
C279 C283 1.429 1_655 S
C280 C263 1.574 . S
C280 H274 0.949 . S
C280 C284 1.368 . S
C281 C262 1.429 1_455 S
C281 C275 1.429 . S
C281 C282 1.523 . S
C282 C263 1.368 . S
C282 C276 1.368 1_455 S
C282 C281 1.523 . S
C283 C267 1.429 . S
C283 C279 1.429 1_455 S
C283 C284 1.523 . S
C284 C268 1.368 1_455 S
C284 C280 1.368 . S
C284 C283 1.523 . S
H285 C260 0.950 . S
H286 C262 0.950 . S
H287 C263 0.949 . S
H288 C265 0.950 . S
H289 C267 0.950 . S
C290 C291 1.349 1_565 S
C290 C292 1.327 . S
C290 H315 0.950 . S
C291 C290 1.349 1_545 S
C291 C307 1.349 . S
C292 C290 1.327 . S
C292 C311 1.429 1_565 S
C292 H316 0.950 . S
C293 C310 1.574 . S
C293 C312 1.368 . S
C293 H317 0.949 . S
H294 C298 0.949 . S
C295 C296 1.349 . S
C295 C297 1.327 . S
C295 H318 0.950 . S
C296 C295 1.349 . S
C296 C308 1.349 1_545 S
C297 C295 1.327 . S
C297 C313 1.429 . S
C297 H319 0.950 . S
C298 H294 0.949 . S
C298 C306 1.574 . S
C298 C314 1.368 1_565 S
H299 C307 0.950 . S
H300 C305 0.950 . S
H301 C306 0.949 . S
H302 C308 0.950 . S
H303 C309 0.950 . S
H304 C310 0.949 . S
C305 H300 0.950 . S
C305 C307 1.327 . S
C305 C311 1.429 . S
C306 C298 1.574 . S
C306 H301 0.949 . S
C306 C312 1.368 1_565 S
C307 C291 1.349 . S
C307 H299 0.950 . S
C307 C305 1.327 . S
C308 C296 1.349 1_565 S
C308 H302 0.950 . S
C308 C309 1.327 . S
C309 H303 0.950 . S
C309 C308 1.327 . S
C309 C313 1.429 1_565 S
C310 C293 1.574 . S
C310 H304 0.949 . S
C310 C314 1.368 . S
C311 C292 1.429 1_545 S
C311 C305 1.429 . S
C311 C312 1.523 . S
C312 C293 1.368 . S
C312 C306 1.368 1_545 S
C312 C311 1.523 . S
C313 C297 1.429 . S
C313 C309 1.429 1_545 S
C313 C314 1.523 . S
C314 C298 1.368 1_545 S
C314 C310 1.368 . S
C314 C313 1.523 . S
H315 C290 0.950 . S
H316 C292 0.950 . S
H317 C293 0.949 . S
H318 C295 0.950 . S
H319 C297 0.950 . S
C320 C321 1.349 . S
C320 C322 1.327 . S
C320 H345 0.950 . S
C321 C320 1.349 . S
C321 C337 1.349 1_455 S
C322 C320 1.327 . S
C322 C341 1.429 . S
C322 H346 0.950 . S
C323 C340 1.574 . S
C323 C342 1.368 1_655 S
C323 H347 0.949 . S
H324 C328 0.949 . S
C325 C326 1.349 1_655 S
C325 C327 1.327 . S
C325 H348 0.950 . S
C326 C325 1.349 1_455 S
C326 C338 1.349 . S
C327 C325 1.327 . S
C327 C343 1.429 1_655 S
C327 H349 0.950 . S
C328 H324 0.949 . S
C328 C336 1.574 . S
C328 C344 1.368 . S
H329 C337 0.950 . S
H330 C335 0.950 . S
H331 C336 0.949 . S
H332 C338 0.950 . S
H333 C339 0.950 . S
H334 C340 0.949 . S
C335 H330 0.950 . S
C335 C337 1.327 . S
C335 C341 1.429 1_655 S
C336 C328 1.574 . S
C336 H331 0.949 . S
C336 C342 1.368 . S
C337 C321 1.349 1_655 S
C337 H329 0.950 . S
C337 C335 1.327 . S
C338 C326 1.349 . S
C338 H332 0.950 . S
C338 C339 1.327 . S
C339 H333 0.950 . S
C339 C338 1.327 . S
C339 C343 1.429 . S
C340 C323 1.574 . S
C340 H334 0.949 . S
C340 C344 1.368 1_655 S
C341 C322 1.429 . S
C341 C335 1.429 1_455 S
C341 C342 1.523 . S
C342 C323 1.368 1_455 S
C342 C336 1.368 . S
C342 C341 1.523 . S
C343 C327 1.429 1_455 S
C343 C339 1.429 . S
C343 C344 1.523 . S
C344 C328 1.368 . S
C344 C340 1.368 1_455 S
C344 C343 1.523 . S
H345 C320 0.950 . S
H346 C322 0.950 . S
H347 C323 0.949 . S
H348 C325 0.950 . S
H349 C327 0.950 . S
C350 C351 1.349 . S
C350 C352 1.327 . S
C350 H375 0.950 . S
C351 C350 1.349 . S
C351 C367 1.349 1_545 S
C352 C350 1.327 . S
C352 C371 1.429 . S
C352 H376 0.950 . S
C353 C370 1.574 . S
C353 C372 1.368 1_565 S
C353 H377 0.949 . S
H354 C358 0.949 . S
C355 C356 1.349 1_565 S
C355 C357 1.327 . S
C355 H378 0.950 . S
C356 C355 1.349 1_545 S
C356 C368 1.349 . S
C357 C355 1.327 . S
C357 C373 1.429 1_565 S
C357 H379 0.950 . S
C358 H354 0.949 . S
C358 C366 1.574 . S
C358 C374 1.368 . S
H359 C367 0.950 . S
H360 C365 0.950 . S
H361 C366 0.949 . S
H362 C368 0.950 . S
H363 C369 0.950 . S
H364 C370 0.949 . S
C365 H360 0.950 . S
C365 C367 1.327 . S
C365 C371 1.429 1_565 S
C366 C358 1.574 . S
C366 H361 0.949 . S
C366 C372 1.368 . S
C367 C351 1.349 1_565 S
C367 H359 0.950 . S
C367 C365 1.327 . S
C368 C356 1.349 . S
C368 H362 0.950 . S
C368 C369 1.327 . S
C369 H363 0.950 . S
C369 C368 1.327 . S
C369 C373 1.429 . S
C370 C353 1.574 . S
C370 H364 0.949 . S
C370 C374 1.368 1_565 S
C371 C352 1.429 . S
C371 C365 1.429 1_545 S
C371 C372 1.523 . S
C372 C353 1.368 1_545 S
C372 C366 1.368 . S
C372 C371 1.523 . S
C373 C357 1.429 1_545 S
C373 C369 1.429 . S
C373 C374 1.523 . S
C374 C358 1.368 . S
C374 C370 1.368 1_545 S
C374 C373 1.523 . S
H375 C350 0.950 . S
H376 C352 0.950 . S
H377 C353 0.949 . S
H378 C355 0.950 . S
H379 C357 0.950 . S
C380 C381 1.349 . S
C380 C382 1.327 . S
C380 H405 0.950 . S
C381 C380 1.349 . S
C381 C397 1.349 1_455 S
C382 C380 1.327 . S
C382 C401 1.429 . S
C382 H406 0.950 . S
C383 C400 1.574 . S
C383 C402 1.368 1_655 S
C383 H407 0.949 . S
H384 C388 0.949 . S
C385 C386 1.349 1_655 S
C385 C387 1.327 . S
C385 H408 0.950 . S
C386 C385 1.349 1_455 S
C386 C398 1.349 . S
C387 C385 1.327 . S
C387 C403 1.429 1_655 S
C387 H409 0.950 . S
C388 H384 0.949 . S
C388 C396 1.574 . S
C388 C404 1.368 . S
H389 C397 0.950 . S
H390 C395 0.950 . S
H391 C396 0.949 . S
H392 C398 0.950 . S
H393 C399 0.950 . S
H394 C400 0.949 . S
C395 H390 0.950 . S
C395 C397 1.327 . S
C395 C401 1.429 1_655 S
C396 C388 1.574 . S
C396 H391 0.949 . S
C396 C402 1.368 . S
C397 C381 1.349 1_655 S
C397 H389 0.950 . S
C397 C395 1.327 . S
C398 C386 1.349 . S
C398 H392 0.950 . S
C398 C399 1.327 . S
C399 H393 0.950 . S
C399 C398 1.327 . S
C399 C403 1.429 . S
C400 C383 1.574 . S
C400 H394 0.949 . S
C400 C404 1.368 1_655 S
C401 C382 1.429 . S
C401 C395 1.429 1_455 S
C401 C402 1.523 . S
C402 C383 1.368 1_455 S
C402 C396 1.368 . S
C402 C401 1.523 . S
C403 C387 1.429 1_455 S
C403 C399 1.429 . S
C403 C404 1.523 . S
C404 C388 1.368 . S
C404 C400 1.368 1_455 S
C404 C403 1.523 . S
H405 C380 0.950 . S
H406 C382 0.950 . S
H407 C383 0.949 . S
H408 C385 0.950 . S
H409 C387 0.950 . S
C410 C411 1.349 . S
C410 C412 1.327 . S
C410 H435 0.950 . S
C411 C410 1.349 . S
C411 C427 1.349 1_545 S
C412 C410 1.327 . S
C412 C431 1.429 . S
C412 H436 0.950 . S
C413 C430 1.574 . S
C413 C432 1.368 1_565 S
C413 H437 0.949 . S
H414 C418 0.949 . S
C415 C416 1.349 1_565 S
C415 C417 1.327 . S
C415 H438 0.950 . S
C416 C415 1.349 1_545 S
C416 C428 1.349 . S
C417 C415 1.327 . S
C417 C433 1.429 1_565 S
C417 H439 0.950 . S
C418 H414 0.949 . S
C418 C426 1.574 . S
C418 C434 1.368 . S
H419 C427 0.950 . S
H420 C425 0.950 . S
H421 C426 0.949 . S
H422 C428 0.950 . S
H423 C429 0.950 . S
H424 C430 0.949 . S
C425 H420 0.950 . S
C425 C427 1.327 . S
C425 C431 1.429 1_565 S
C426 C418 1.574 . S
C426 H421 0.949 . S
C426 C432 1.368 . S
C427 C411 1.349 1_565 S
C427 H419 0.950 . S
C427 C425 1.327 . S
C428 C416 1.349 . S
C428 H422 0.950 . S
C428 C429 1.327 . S
C429 H423 0.950 . S
C429 C428 1.327 . S
C429 C433 1.429 . S
C430 C413 1.574 . S
C430 H424 0.949 . S
C430 C434 1.368 1_565 S
C431 C412 1.429 . S
C431 C425 1.429 1_545 S
C431 C432 1.523 . S
C432 C413 1.368 1_545 S
C432 C426 1.368 . S
C432 C431 1.523 . S
C433 C417 1.429 1_545 S
C433 C429 1.429 . S
C433 C434 1.523 . S
C434 C418 1.368 . S
C434 C430 1.368 1_545 S
C434 C433 1.523 . S
H435 C410 0.950 . S
H436 C412 0.950 . S
H437 C413 0.949 . S
H438 C415 0.950 . S
H439 C417 0.950 . S
C440 C441 1.349 1_556 S
C440 C442 1.327 . S
C440 H465 0.950 . S
C441 C440 1.349 1_554 S
C441 C457 1.349 . S
C442 C440 1.327 . S
C442 C461 1.429 1_556 S
C442 H466 0.950 . S
C443 C460 1.574 . S
C443 C462 1.368 . S
C443 H467 0.949 . S
H444 C448 0.949 . S
C445 C446 1.349 . S
C445 C447 1.327 . S
C445 H468 0.950 . S
C446 C445 1.349 . S
C446 C458 1.349 1_554 S
C447 C445 1.327 . S
C447 C463 1.429 . S
C447 H469 0.950 . S
C448 H444 0.949 . S
C448 C456 1.574 . S
C448 C464 1.368 1_556 S
H449 C457 0.950 . S
H450 C455 0.950 . S
H451 C456 0.949 . S
H452 C458 0.950 . S
H453 C459 0.950 . S
H454 C460 0.949 . S
C455 H450 0.950 . S
C455 C457 1.327 . S
C455 C461 1.429 . S
C456 C448 1.574 . S
C456 H451 0.949 . S
C456 C462 1.368 1_556 S
C457 C441 1.349 . S
C457 H449 0.950 . S
C457 C455 1.327 . S
C458 C446 1.349 1_556 S
C458 H452 0.950 . S
C458 C459 1.327 . S
C459 H453 0.950 . S
C459 C458 1.327 . S
C459 C463 1.429 1_556 S
C460 C443 1.574 . S
C460 H454 0.949 . S
C460 C464 1.368 . S
C461 C442 1.429 1_554 S
C461 C455 1.429 . S
C461 C462 1.523 . S
C462 C443 1.368 . S
C462 C456 1.368 1_554 S
C462 C461 1.523 . S
C463 C447 1.429 . S
C463 C459 1.429 1_554 S
C463 C464 1.523 . S
C464 C448 1.368 1_554 S
C464 C460 1.368 . S
C464 C463 1.523 . S
H465 C440 0.950 . S
H466 C442 0.950 . S
H467 C443 0.949 . S
H468 C445 0.950 . S
H469 C447 0.950 . S
C470 C471 1.349 1_556 S
C470 C472 1.327 . S
C470 H495 0.950 . S
C471 C470 1.349 1_554 S
C471 C487 1.349 . S
C472 C470 1.327 . S
C472 C491 1.429 1_556 S
C472 H496 0.950 . S
C473 C490 1.574 . S
C473 C492 1.368 . S
C473 H497 0.949 . S
H474 C478 0.949 . S
C475 C476 1.349 . S
C475 C477 1.327 . S
C475 H498 0.950 . S
C476 C475 1.349 . S
C476 C488 1.349 1_554 S
C477 C475 1.327 . S
C477 C493 1.429 . S
C477 H499 0.950 . S
C478 H474 0.949 . S
C478 C486 1.574 . S
C478 C494 1.368 1_556 S
H479 C487 0.950 . S
H480 C485 0.950 . S
H481 C486 0.949 . S
H482 C488 0.950 . S
H483 C489 0.950 . S
H484 C490 0.949 . S
C485 H480 0.950 . S
C485 C487 1.327 . S
C485 C491 1.429 . S
C486 C478 1.574 . S
C486 H481 0.949 . S
C486 C492 1.368 1_556 S
C487 C471 1.349 . S
C487 H479 0.950 . S
C487 C485 1.327 . S
C488 C476 1.349 1_556 S
C488 H482 0.950 . S
C488 C489 1.327 . S
C489 H483 0.950 . S
C489 C488 1.327 . S
C489 C493 1.429 1_556 S
C490 C473 1.574 . S
C490 H484 0.949 . S
C490 C494 1.368 . S
C491 C472 1.429 1_554 S
C491 C485 1.429 . S
C491 C492 1.523 . S
C492 C473 1.368 . S
C492 C486 1.368 1_554 S
C492 C491 1.523 . S
C493 C477 1.429 . S
C493 C489 1.429 1_554 S
C493 C494 1.523 . S
C494 C478 1.368 1_554 S
C494 C490 1.368 . S
C494 C493 1.523 . S
H495 C470 0.950 . S
H496 C472 0.950 . S
H497 C473 0.949 . S
H498 C475 0.950 . S
H499 C477 0.950 . S
C500 C501 1.349 . S
C500 C502 1.327 . S
C500 H525 0.950 . S
C501 C500 1.349 . S
C501 C517 1.349 1_554 S
C502 C500 1.327 . S
C502 C521 1.429 . S
C502 H526 0.950 . S
C503 C520 1.574 . S
C503 C522 1.368 1_556 S
C503 H527 0.949 . S
H504 C508 0.949 . S
C505 C506 1.349 1_556 S
C505 C507 1.327 . S
C505 H528 0.950 . S
C506 C505 1.349 1_554 S
C506 C518 1.349 . S
C507 C505 1.327 . S
C507 C523 1.429 1_556 S
C507 H529 0.950 . S
C508 H504 0.949 . S
C508 C516 1.574 . S
C508 C524 1.368 . S
H509 C517 0.950 . S
H510 C515 0.950 . S
H511 C516 0.949 . S
H512 C518 0.950 . S
H513 C519 0.950 . S
H514 C520 0.949 . S
C515 H510 0.950 . S
C515 C517 1.327 . S
C515 C521 1.429 1_556 S
C516 C508 1.574 . S
C516 H511 0.949 . S
C516 C522 1.368 . S
C517 C501 1.349 1_556 S
C517 H509 0.950 . S
C517 C515 1.327 . S
C518 C506 1.349 . S
C518 H512 0.950 . S
C518 C519 1.327 . S
C519 H513 0.950 . S
C519 C518 1.327 . S
C519 C523 1.429 . S
C520 C503 1.574 . S
C520 H514 0.949 . S
C520 C524 1.368 1_556 S
C521 C502 1.429 . S
C521 C515 1.429 1_554 S
C521 C522 1.523 . S
C522 C503 1.368 1_554 S
C522 C516 1.368 . S
C522 C521 1.523 . S
C523 C507 1.429 1_554 S
C523 C519 1.429 . S
C523 C524 1.523 . S
C524 C508 1.368 . S
C524 C520 1.368 1_554 S
C524 C523 1.523 . S
H525 C500 0.950 . S
H526 C502 0.950 . S
H527 C503 0.949 . S
H528 C505 0.950 . S
H529 C507 0.950 . S
C530 C531 1.349 1_556 S
C530 C532 1.327 . S
C530 H555 0.950 . S
C531 C530 1.349 1_554 S
C531 C547 1.349 . S
C532 C530 1.327 . S
C532 C551 1.429 1_556 S
C532 H556 0.950 . S
C533 C550 1.574 . S
C533 C552 1.368 . S
C533 H557 0.949 . S
H534 C538 0.949 . S
C535 C536 1.349 . S
C535 C537 1.327 . S
C535 H558 0.950 . S
C536 C535 1.349 . S
C536 C548 1.349 1_554 S
C537 C535 1.327 . S
C537 C553 1.429 . S
C537 H559 0.950 . S
C538 H534 0.949 . S
C538 C546 1.574 . S
C538 C554 1.368 1_556 S
H539 C547 0.950 . S
H540 C545 0.950 . S
H541 C546 0.949 . S
H542 C548 0.950 . S
H543 C549 0.950 . S
H544 C550 0.949 . S
C545 H540 0.950 . S
C545 C547 1.327 . S
C545 C551 1.429 . S
C546 C538 1.574 . S
C546 H541 0.949 . S
C546 C552 1.368 1_556 S
C547 C531 1.349 . S
C547 H539 0.950 . S
C547 C545 1.327 . S
C548 C536 1.349 1_556 S
C548 H542 0.950 . S
C548 C549 1.327 . S
C549 H543 0.950 . S
C549 C548 1.327 . S
C549 C553 1.429 1_556 S
C550 C533 1.574 . S
C550 H544 0.949 . S
C550 C554 1.368 . S
C551 C532 1.429 1_554 S
C551 C545 1.429 . S
C551 C552 1.523 . S
C552 C533 1.368 . S
C552 C546 1.368 1_554 S
C552 C551 1.523 . S
C553 C537 1.429 . S
C553 C549 1.429 1_554 S
C553 C554 1.523 . S
C554 C538 1.368 1_554 S
C554 C550 1.368 . S
C554 C553 1.523 . S
H555 C530 0.950 . S
H556 C532 0.950 . S
H557 C533 0.949 . S
H558 C535 0.950 . S
H559 C537 0.950 . S
C560 C561 1.349 . S
C560 C562 1.327 . S
C560 H585 0.950 . S
C561 C560 1.349 . S
C561 C577 1.349 . S
C562 C560 1.327 . S
C562 C581 1.429 . S
C562 H586 0.950 . S
C563 C580 1.574 . S
C563 C582 1.368 . S
C563 H587 0.949 . S
H564 C568 0.949 . S
C565 C566 1.349 . S
C565 C567 1.327 . S
C565 H588 0.950 . S
C566 C565 1.349 . S
C566 C578 1.349 . S
C567 C565 1.327 . S
C567 C583 1.429 . S
C567 H589 0.950 . S
C568 H564 0.949 . S
C568 C576 1.574 . S
C568 C584 1.368 . S
H569 C577 0.950 . S
H570 C575 0.950 . S
H571 C576 0.949 . S
H572 C578 0.950 . S
H573 C579 0.950 . S
H574 C580 0.949 . S
C575 H570 0.950 . S
C575 C577 1.327 . S
C575 C581 1.429 . S
C576 C568 1.574 . S
C576 H571 0.949 . S
C576 C582 1.368 . S
C577 C561 1.349 . S
C577 H569 0.950 . S
C577 C575 1.327 . S
C578 C566 1.349 . S
C578 H572 0.950 . S
C578 C579 1.327 . S
C579 H573 0.950 . S
C579 C578 1.327 . S
C579 C583 1.429 . S
C580 C563 1.574 . S
C580 H574 0.949 . S
C580 C584 1.368 . S
C581 C562 1.429 . S
C581 C575 1.429 . S
C581 C582 1.523 . S
C582 C563 1.368 . S
C582 C576 1.368 . S
C582 C581 1.523 . S
C583 C567 1.429 . S
C583 C579 1.429 . S
C583 C584 1.523 . S
C584 C568 1.368 . S
C584 C580 1.368 . S
C584 C583 1.523 . S
H585 C560 0.950 . S
H586 C562 0.950 . S
H587 C563 0.949 . S
H588 C565 0.950 . S
H589 C567 0.950 . S
C590 C591 1.349 . S
C590 C592 1.327 . S
C590 H615 0.950 . S
C591 C590 1.349 . S
C591 C607 1.349 . S
C592 C590 1.327 . S
C592 C611 1.429 . S
C592 H616 0.950 . S
C593 C610 1.574 . S
C593 C612 1.368 . S
C593 H617 0.949 . S
H594 C598 0.949 . S
C595 C596 1.349 . S
C595 C597 1.327 . S
C595 H618 0.950 . S
C596 C595 1.349 . S
C596 C608 1.349 . S
C597 C595 1.327 . S
C597 C613 1.429 . S
C597 H619 0.950 . S
C598 H594 0.949 . S
C598 C606 1.574 . S
C598 C614 1.368 . S
H599 C607 0.950 . S
H600 C605 0.950 . S
H601 C606 0.949 . S
H602 C608 0.950 . S
H603 C609 0.950 . S
H604 C610 0.949 . S
C605 H600 0.950 . S
C605 C607 1.327 . S
C605 C611 1.429 . S
C606 C598 1.574 . S
C606 H601 0.949 . S
C606 C612 1.368 . S
C607 C591 1.349 . S
C607 H599 0.950 . S
C607 C605 1.327 . S
C608 C596 1.349 . S
C608 H602 0.950 . S
C608 C609 1.327 . S
C609 H603 0.950 . S
C609 C608 1.327 . S
C609 C613 1.429 . S
C610 C593 1.574 . S
C610 H604 0.949 . S
C610 C614 1.368 . S
C611 C592 1.429 . S
C611 C605 1.429 . S
C611 C612 1.523 . S
C612 C593 1.368 . S
C612 C606 1.368 . S
C612 C611 1.523 . S
C613 C597 1.429 . S
C613 C609 1.429 . S
C613 C614 1.523 . S
C614 C598 1.368 . S
C614 C610 1.368 . S
C614 C613 1.523 . S
H615 C590 0.950 . S
H616 C592 0.950 . S
H617 C593 0.949 . S
H618 C595 0.950 . S
H619 C597 0.950 . S
C620 C621 1.349 . S
C620 C622 1.327 . S
C620 H645 0.950 . S
C621 C620 1.349 . S
C621 C637 1.349 . S
C622 C620 1.327 . S
C622 C641 1.429 . S
C622 H646 0.950 . S
C623 C640 1.574 . S
C623 C642 1.368 . S
C623 H647 0.949 . S
H624 C628 0.949 . S
C625 C626 1.349 . S
C625 C627 1.327 . S
C625 H648 0.950 . S
C626 C625 1.349 . S
C626 C638 1.349 . S
C627 C625 1.327 . S
C627 C643 1.429 . S
C627 H649 0.950 . S
C628 H624 0.949 . S
C628 C636 1.574 . S
C628 C644 1.368 . S
H629 C637 0.950 . S
H630 C635 0.950 . S
H631 C636 0.949 . S
H632 C638 0.950 . S
H633 C639 0.950 . S
H634 C640 0.949 . S
C635 H630 0.950 . S
C635 C637 1.327 . S
C635 C641 1.429 . S
C636 C628 1.574 . S
C636 H631 0.949 . S
C636 C642 1.368 . S
C637 C621 1.349 . S
C637 H629 0.950 . S
C637 C635 1.327 . S
C638 C626 1.349 . S
C638 H632 0.950 . S
C638 C639 1.327 . S
C639 H633 0.950 . S
C639 C638 1.327 . S
C639 C643 1.429 . S
C640 C623 1.574 . S
C640 H634 0.949 . S
C640 C644 1.368 . S
C641 C622 1.429 . S
C641 C635 1.429 . S
C641 C642 1.523 . S
C642 C623 1.368 . S
C642 C636 1.368 . S
C642 C641 1.523 . S
C643 C627 1.429 . S
C643 C639 1.429 . S
C643 C644 1.523 . S
C644 C628 1.368 . S
C644 C640 1.368 . S
C644 C643 1.523 . S
H645 C620 0.950 . S
H646 C622 0.950 . S
H647 C623 0.949 . S
H648 C625 0.950 . S
H649 C627 0.950 . S
C650 C651 1.349 . S
C650 C652 1.327 . S
C650 H675 0.950 . S
C651 C650 1.349 . S
C651 C667 1.349 . S
C652 C650 1.327 . S
C652 C671 1.429 . S
C652 H676 0.950 . S
C653 C670 1.574 . S
C653 C672 1.368 . S
C653 H677 0.949 . S
H654 C658 0.949 . S
C655 C656 1.349 . S
C655 C657 1.327 . S
C655 H678 0.950 . S
C656 C655 1.349 . S
C656 C668 1.349 . S
C657 C655 1.327 . S
C657 C673 1.429 . S
C657 H679 0.950 . S
C658 H654 0.949 . S
C658 C666 1.574 . S
C658 C674 1.368 . S
H659 C667 0.950 . S
H660 C665 0.950 . S
H661 C666 0.949 . S
H662 C668 0.950 . S
H663 C669 0.950 . S
H664 C670 0.949 . S
C665 H660 0.950 . S
C665 C667 1.327 . S
C665 C671 1.429 . S
C666 C658 1.574 . S
C666 H661 0.949 . S
C666 C672 1.368 . S
C667 C651 1.349 . S
C667 H659 0.950 . S
C667 C665 1.327 . S
C668 C656 1.349 . S
C668 H662 0.950 . S
C668 C669 1.327 . S
C669 H663 0.950 . S
C669 C668 1.327 . S
C669 C673 1.429 . S
C670 C653 1.574 . S
C670 H664 0.949 . S
C670 C674 1.368 . S
C671 C652 1.429 . S
C671 C665 1.429 . S
C671 C672 1.523 . S
C672 C653 1.368 . S
C672 C666 1.368 . S
C672 C671 1.523 . S
C673 C657 1.429 . S
C673 C669 1.429 . S
C673 C674 1.523 . S
C674 C658 1.368 . S
C674 C670 1.368 . S
C674 C673 1.523 . S
H675 C650 0.950 . S
H676 C652 0.950 . S
H677 C653 0.949 . S
H678 C655 0.950 . S
H679 C657 0.950 . S
C680 C681 1.349 . S
C680 C682 1.327 . S
C680 H705 0.950 . S
C681 C680 1.349 . S
C681 C697 1.349 . S
C682 C680 1.327 . S
C682 C701 1.429 . S
C682 H706 0.950 . S
C683 C700 1.574 . S
C683 C702 1.368 . S
C683 H707 0.949 . S
H684 C688 0.949 . S
C685 C686 1.349 . S
C685 C687 1.327 . S
C685 H708 0.950 . S
C686 C685 1.349 . S
C686 C698 1.349 . S
C687 C685 1.327 . S
C687 C703 1.429 . S
C687 H709 0.950 . S
C688 H684 0.949 . S
C688 C696 1.574 . S
C688 C704 1.368 . S
H689 C697 0.950 . S
H690 C695 0.950 . S
H691 C696 0.949 . S
H692 C698 0.950 . S
H693 C699 0.950 . S
H694 C700 0.949 . S
C695 H690 0.950 . S
C695 C697 1.327 . S
C695 C701 1.429 . S
C696 C688 1.574 . S
C696 H691 0.949 . S
C696 C702 1.368 . S
C697 C681 1.349 . S
C697 H689 0.950 . S
C697 C695 1.327 . S
C698 C686 1.349 . S
C698 H692 0.950 . S
C698 C699 1.327 . S
C699 H693 0.950 . S
C699 C698 1.327 . S
C699 C703 1.429 . S
C700 C683 1.574 . S
C700 H694 0.949 . S
C700 C704 1.368 . S
C701 C682 1.429 . S
C701 C695 1.429 . S
C701 C702 1.523 . S
C702 C683 1.368 . S
C702 C696 1.368 . S
C702 C701 1.523 . S
C703 C687 1.429 . S
C703 C699 1.429 . S
C703 C704 1.523 . S
C704 C688 1.368 . S
C704 C700 1.368 . S
C704 C703 1.523 . S
H705 C680 0.950 . S
H706 C682 0.950 . S
H707 C683 0.949 . S
H708 C685 0.950 . S
H709 C687 0.950 . S
C710 C711 1.349 . S
C710 C712 1.327 . S
C710 H735 0.950 . S
C711 C710 1.349 . S
C711 C727 1.349 . S
C712 C710 1.327 . S
C712 C731 1.429 . S
C712 H736 0.950 . S
C713 C730 1.574 . S
C713 C732 1.368 . S
C713 H737 0.949 . S
H714 C718 0.949 . S
C715 C716 1.349 . S
C715 C717 1.327 . S
C715 H738 0.950 . S
C716 C715 1.349 . S
C716 C728 1.349 . S
C717 C715 1.327 . S
C717 C733 1.429 . S
C717 H739 0.950 . S
C718 H714 0.949 . S
C718 C726 1.574 . S
C718 C734 1.368 . S
H719 C727 0.950 . S
H720 C725 0.950 . S
H721 C726 0.949 . S
H722 C728 0.950 . S
H723 C729 0.950 . S
H724 C730 0.949 . S
C725 H720 0.950 . S
C725 C727 1.327 . S
C725 C731 1.429 . S
C726 C718 1.574 . S
C726 H721 0.949 . S
C726 C732 1.368 . S
C727 C711 1.349 . S
C727 H719 0.950 . S
C727 C725 1.327 . S
C728 C716 1.349 . S
C728 H722 0.950 . S
C728 C729 1.327 . S
C729 H723 0.950 . S
C729 C728 1.327 . S
C729 C733 1.429 . S
C730 C713 1.574 . S
C730 H724 0.949 . S
C730 C734 1.368 . S
C731 C712 1.429 . S
C731 C725 1.429 . S
C731 C732 1.523 . S
C732 C713 1.368 . S
C732 C726 1.368 . S
C732 C731 1.523 . S
C733 C717 1.429 . S
C733 C729 1.429 . S
C733 C734 1.523 . S
C734 C718 1.368 . S
C734 C730 1.368 . S
C734 C733 1.523 . S
H735 C710 0.950 . S
H736 C712 0.950 . S
H737 C713 0.949 . S
H738 C715 0.950 . S
H739 C717 0.950 . S
C740 C741 1.349 . S
C740 C742 1.327 . S
C740 H765 0.950 . S
C741 C740 1.349 . S
C741 C757 1.349 . S
C742 C740 1.327 . S
C742 C761 1.429 . S
C742 H766 0.950 . S
C743 C760 1.574 . S
C743 C762 1.368 . S
C743 H767 0.949 . S
H744 C748 0.949 . S
C745 C746 1.349 . S
C745 C747 1.327 . S
C745 H768 0.950 . S
C746 C745 1.349 . S
C746 C758 1.349 . S
C747 C745 1.327 . S
C747 C763 1.429 . S
C747 H769 0.950 . S
C748 H744 0.949 . S
C748 C756 1.574 . S
C748 C764 1.368 . S
H749 C757 0.950 . S
H750 C755 0.950 . S
H751 C756 0.949 . S
H752 C758 0.950 . S
H753 C759 0.950 . S
H754 C760 0.949 . S
C755 H750 0.950 . S
C755 C757 1.327 . S
C755 C761 1.429 . S
C756 C748 1.574 . S
C756 H751 0.949 . S
C756 C762 1.368 . S
C757 C741 1.349 . S
C757 H749 0.950 . S
C757 C755 1.327 . S
C758 C746 1.349 . S
C758 H752 0.950 . S
C758 C759 1.327 . S
C759 H753 0.950 . S
C759 C758 1.327 . S
C759 C763 1.429 . S
C760 C743 1.574 . S
C760 H754 0.949 . S
C760 C764 1.368 . S
C761 C742 1.429 . S
C761 C755 1.429 . S
C761 C762 1.523 . S
C762 C743 1.368 . S
C762 C756 1.368 . S
C762 C761 1.523 . S
C763 C747 1.429 . S
C763 C759 1.429 . S
C763 C764 1.523 . S
C764 C748 1.368 . S
C764 C760 1.368 . S
C764 C763 1.523 . S
H765 C740 0.950 . S
H766 C742 0.950 . S
H767 C743 0.949 . S
H768 C745 0.950 . S
H769 C747 0.950 . S
C770 C771 1.349 . S
C770 C772 1.327 . S
C770 H795 0.950 . S
C771 C770 1.349 . S
C771 C787 1.349 . S
C772 C770 1.327 . S
C772 C791 1.429 . S
C772 H796 0.950 . S
C773 C790 1.574 . S
C773 C792 1.368 . S
C773 H797 0.949 . S
H774 C778 0.949 . S
C775 C776 1.349 . S
C775 C777 1.327 . S
C775 H798 0.950 . S
C776 C775 1.349 . S
C776 C788 1.349 . S
C777 C775 1.327 . S
C777 C793 1.429 . S
C777 H799 0.950 . S
C778 H774 0.949 . S
C778 C786 1.574 . S
C778 C794 1.368 . S
H779 C787 0.950 . S
H780 C785 0.950 . S
H781 C786 0.949 . S
H782 C788 0.950 . S
H783 C789 0.950 . S
H784 C790 0.949 . S
C785 H780 0.950 . S
C785 C787 1.327 . S
C785 C791 1.429 . S
C786 C778 1.574 . S
C786 H781 0.949 . S
C786 C792 1.368 . S
C787 C771 1.349 . S
C787 H779 0.950 . S
C787 C785 1.327 . S
C788 C776 1.349 . S
C788 H782 0.950 . S
C788 C789 1.327 . S
C789 H783 0.950 . S
C789 C788 1.327 . S
C789 C793 1.429 . S
C790 C773 1.574 . S
C790 H784 0.949 . S
C790 C794 1.368 . S
C791 C772 1.429 . S
C791 C785 1.429 . S
C791 C792 1.523 . S
C792 C773 1.368 . S
C792 C786 1.368 . S
C792 C791 1.523 . S
C793 C777 1.429 . S
C793 C789 1.429 . S
C793 C794 1.523 . S
C794 C778 1.368 . S
C794 C790 1.368 . S
C794 C793 1.523 . S
H795 C770 0.950 . S
H796 C772 0.950 . S
H797 C773 0.949 . S
H798 C775 0.950 . S
H799 C777 0.950 . S
C800 C801 1.349 . S
C800 C802 1.327 . S
C800 H825 0.950 . S
C801 C800 1.349 . S
C801 C817 1.349 . S
C802 C800 1.327 . S
C802 C821 1.429 . S
C802 H826 0.950 . S
C803 C820 1.574 . S
C803 C822 1.368 . S
C803 H827 0.949 . S
H804 C808 0.949 . S
C805 C806 1.349 . S
C805 C807 1.327 . S
C805 H828 0.950 . S
C806 C805 1.349 . S
C806 C818 1.349 . S
C807 C805 1.327 . S
C807 C823 1.429 . S
C807 H829 0.950 . S
C808 H804 0.949 . S
C808 C816 1.574 . S
C808 C824 1.368 . S
H809 C817 0.950 . S
H810 C815 0.950 . S
H811 C816 0.949 . S
H812 C818 0.950 . S
H813 C819 0.950 . S
H814 C820 0.949 . S
C815 H810 0.950 . S
C815 C817 1.327 . S
C815 C821 1.429 . S
C816 C808 1.574 . S
C816 H811 0.949 . S
C816 C822 1.368 . S
C817 C801 1.349 . S
C817 H809 0.950 . S
C817 C815 1.327 . S
C818 C806 1.349 . S
C818 H812 0.950 . S
C818 C819 1.327 . S
C819 H813 0.950 . S
C819 C818 1.327 . S
C819 C823 1.429 . S
C820 C803 1.574 . S
C820 H814 0.949 . S
C820 C824 1.368 . S
C821 C802 1.429 . S
C821 C815 1.429 . S
C821 C822 1.523 . S
C822 C803 1.368 . S
C822 C816 1.368 . S
C822 C821 1.523 . S
C823 C807 1.429 . S
C823 C819 1.429 . S
C823 C824 1.523 . S
C824 C808 1.368 . S
C824 C820 1.368 . S
C824 C823 1.523 . S
H825 C800 0.950 . S
H826 C802 0.950 . S
H827 C803 0.949 . S
H828 C805 0.950 . S
H829 C807 0.950 . S
C830 C831 1.349 . S
C830 C832 1.327 . S
C830 H855 0.950 . S
C831 C830 1.349 . S
C831 C847 1.349 . S
C832 C830 1.327 . S
C832 C851 1.429 . S
C832 H856 0.950 . S
C833 C850 1.574 . S
C833 C852 1.368 . S
C833 H857 0.949 . S
H834 C838 0.949 . S
C835 C836 1.349 . S
C835 C837 1.327 . S
C835 H858 0.950 . S
C836 C835 1.349 . S
C836 C848 1.349 . S
C837 C835 1.327 . S
C837 C853 1.429 . S
C837 H859 0.950 . S
C838 H834 0.949 . S
C838 C846 1.574 . S
C838 C854 1.368 . S
H839 C847 0.950 . S
H840 C845 0.950 . S
H841 C846 0.949 . S
H842 C848 0.950 . S
H843 C849 0.950 . S
H844 C850 0.949 . S
C845 H840 0.950 . S
C845 C847 1.327 . S
C845 C851 1.429 . S
C846 C838 1.574 . S
C846 H841 0.949 . S
C846 C852 1.368 . S
C847 C831 1.349 . S
C847 H839 0.950 . S
C847 C845 1.327 . S
C848 C836 1.349 . S
C848 H842 0.950 . S
C848 C849 1.327 . S
C849 H843 0.950 . S
C849 C848 1.327 . S
C849 C853 1.429 . S
C850 C833 1.574 . S
C850 H844 0.949 . S
C850 C854 1.368 . S
C851 C832 1.429 . S
C851 C845 1.429 . S
C851 C852 1.523 . S
C852 C833 1.368 . S
C852 C846 1.368 . S
C852 C851 1.523 . S
C853 C837 1.429 . S
C853 C849 1.429 . S
C853 C854 1.523 . S
C854 C838 1.368 . S
C854 C850 1.368 . S
C854 C853 1.523 . S
H855 C830 0.950 . S
H856 C832 0.950 . S
H857 C833 0.949 . S
H858 C835 0.950 . S
H859 C837 0.950 . S
C860 C861 1.349 . S
C860 C862 1.327 . S
C860 H885 0.950 . S
C861 C860 1.349 . S
C861 C877 1.349 . S
C862 C860 1.327 . S
C862 C881 1.429 . S
C862 H886 0.950 . S
C863 C880 1.574 . S
C863 C882 1.368 . S
C863 H887 0.949 . S
H864 C868 0.949 . S
C865 C866 1.349 . S
C865 C867 1.327 . S
C865 H888 0.950 . S
C866 C865 1.349 . S
C866 C878 1.349 . S
C867 C865 1.327 . S
C867 C883 1.429 . S
C867 H889 0.950 . S
C868 H864 0.949 . S
C868 C876 1.574 . S
C868 C884 1.368 . S
H869 C877 0.950 . S
H870 C875 0.950 . S
H871 C876 0.949 . S
H872 C878 0.950 . S
H873 C879 0.950 . S
H874 C880 0.949 . S
C875 H870 0.950 . S
C875 C877 1.327 . S
C875 C881 1.429 . S
C876 C868 1.574 . S
C876 H871 0.949 . S
C876 C882 1.368 . S
C877 C861 1.349 . S
C877 H869 0.950 . S
C877 C875 1.327 . S
C878 C866 1.349 . S
C878 H872 0.950 . S
C878 C879 1.327 . S
C879 H873 0.950 . S
C879 C878 1.327 . S
C879 C883 1.429 . S
C880 C863 1.574 . S
C880 H874 0.949 . S
C880 C884 1.368 . S
C881 C862 1.429 . S
C881 C875 1.429 . S
C881 C882 1.523 . S
C882 C863 1.368 . S
C882 C876 1.368 . S
C882 C881 1.523 . S
C883 C867 1.429 . S
C883 C879 1.429 . S
C883 C884 1.523 . S
C884 C868 1.368 . S
C884 C880 1.368 . S
C884 C883 1.523 . S
H885 C860 0.950 . S
H886 C862 0.950 . S
H887 C863 0.949 . S
H888 C865 0.950 . S
H889 C867 0.950 . S
C890 C891 1.349 . S
C890 C892 1.327 . S
C890 H915 0.950 . S
C891 C890 1.349 . S
C891 C907 1.349 . S
C892 C890 1.327 . S
C892 C911 1.429 . S
C892 H916 0.950 . S
C893 C910 1.574 . S
C893 C912 1.368 . S
C893 H917 0.949 . S
H894 C898 0.949 . S
C895 C896 1.349 . S
C895 C897 1.327 . S
C895 H918 0.950 . S
C896 C895 1.349 . S
C896 C908 1.349 . S
C897 C895 1.327 . S
C897 C913 1.429 . S
C897 H919 0.950 . S
C898 H894 0.949 . S
C898 C906 1.574 . S
C898 C914 1.368 . S
H899 C907 0.950 . S
H900 C905 0.950 . S
H901 C906 0.949 . S
H902 C908 0.950 . S
H903 C909 0.950 . S
H904 C910 0.949 . S
C905 H900 0.950 . S
C905 C907 1.327 . S
C905 C911 1.429 . S
C906 C898 1.574 . S
C906 H901 0.949 . S
C906 C912 1.368 . S
C907 C891 1.349 . S
C907 H899 0.950 . S
C907 C905 1.327 . S
C908 C896 1.349 . S
C908 H902 0.950 . S
C908 C909 1.327 . S
C909 H903 0.950 . S
C909 C908 1.327 . S
C909 C913 1.429 . S
C910 C893 1.574 . S
C910 H904 0.949 . S
C910 C914 1.368 . S
C911 C892 1.429 . S
C911 C905 1.429 . S
C911 C912 1.523 . S
C912 C893 1.368 . S
C912 C906 1.368 . S
C912 C911 1.523 . S
C913 C897 1.429 . S
C913 C909 1.429 . S
C913 C914 1.523 . S
C914 C898 1.368 . S
C914 C910 1.368 . S
C914 C913 1.523 . S
H915 C890 0.950 . S
H916 C892 0.950 . S
H917 C893 0.949 . S
H918 C895 0.950 . S
H919 C897 0.950 . S
C201 C43 1.500 . S
C206 C92 1.495 . S
C231 C44 1.500 . S
C236 C134 1.500 . S
C261 C41 1.500 . S
C266 C90 1.500 . S
C291 C138 1.500 . S
C296 C47 1.495 . S
C321 C42 1.500 . S
C326 C93 1.505 . S
C351 C45 1.500 . S
C356 C137 1.500 . S
C381 C91 1.500 . S
C386 C40 1.500 . S
C411 C139 1.500 . S
C416 C46 1.505 . S
C441 C188 1.500 . S
C446 C39 1.495 . S
C471 C187 1.500 . S
C476 C34 1.500 . S
C501 C184 1.500 . S
C506 C37 1.500 . S
C531 C38 1.500 . S
C536 C189 1.505 . S
C561 C195 1.500 . S
C566 C94 1.505 . S
C591 C97 1.500 . S
C596 C196 1.500 . S
C621 C95 1.500 . S
C626 C194 1.495 . S
C651 C197 1.500 . S
C656 C96 1.500 . S
C681 C146 1.500 . S
C686 C89 1.500 . S
C711 C84 1.500 . S
C716 C144 1.495 . S
C741 C87 1.500 . S
C746 C145 1.505 . S
C771 C147 1.500 . S
C776 C88 1.500 . S
C801 C192 1.500 . S
C806 C143 1.500 . S
C831 C140 1.500 . S
C836 C190 1.505 . S
C861 C193 1.500 . S
C866 C142 1.500 . S
C891 C141 1.500 . S
C896 C191 1.495 . S
