# Generated by pormake.
# Topology wld, (5)-cn, num edge types: 1
# Building blocks:
#     Node 0, Type 0, BuildingBlock: XOMCOT_clean_sbu_0, # of connection points: 5
#     Node 1, Type 0, BuildingBlock: XOMCOT_clean_sbu_0, # of connection points: 5
#     Node 2, Type 0, BuildingBlock: XOMCOT_clean_sbu_0, # of connection points: 5
#     Node 3, Type 0, BuildingBlock: XOMCOT_clean_sbu_0, # of connection points: 5
#     Node 4, Type 0, BuildingBlock: XOMCOT_clean_sbu_0, # of connection points: 5
#     Node 5, Type 0, BuildingBlock: XOMCOT_clean_sbu_0, # of connection points: 5
#     Node 6, Type 0, BuildingBlock: XOMCOT_clean_sbu_0, # of connection points: 5
#     Node 7, Type 0, BuildingBlock: XOMCOT_clean_sbu_0, # of connection points: 5
#     Node 8, Type 0, BuildingBlock: XOMCOT_clean_sbu_0, # of connection points: 5
#     Node 9, Type 0, BuildingBlock: XOMCOT_clean_sbu_0, # of connection points: 5
#     Node 10, Type 0, BuildingBlock: XOMCOT_clean_sbu_0, # of connection points: 5
#     Node 11, Type 0, BuildingBlock: XOMCOT_clean_sbu_0, # of connection points: 5
#     Edge 12, Type (0, 0), BuildingBlock: EZIPEK_clean_linker_0, # of connection points: 2
#     Edge 13, Type (0, 0), BuildingBlock: EZIPEK_clean_linker_0, # of connection points: 2
#     Edge 14, Type (0, 0), BuildingBlock: EZIPEK_clean_linker_0, # of connection points: 2
#     Edge 15, Type (0, 0), BuildingBlock: EZIPEK_clean_linker_0, # of connection points: 2
#     Edge 16, Type (0, 0), BuildingBlock: EZIPEK_clean_linker_0, # of connection points: 2
#     Edge 17, Type (0, 0), BuildingBlock: EZIPEK_clean_linker_0, # of connection points: 2
#     Edge 18, Type (0, 0), BuildingBlock: EZIPEK_clean_linker_0, # of connection points: 2
#     Edge 19, Type (0, 0), BuildingBlock: EZIPEK_clean_linker_0, # of connection points: 2
#     Edge 20, Type (0, 0), BuildingBlock: EZIPEK_clean_linker_0, # of connection points: 2
#     Edge 21, Type (0, 0), BuildingBlock: EZIPEK_clean_linker_0, # of connection points: 2
#     Edge 22, Type (0, 0), BuildingBlock: EZIPEK_clean_linker_0, # of connection points: 2
#     Edge 23, Type (0, 0), BuildingBlock: EZIPEK_clean_linker_0, # of connection points: 2
#     Edge 24, Type (0, 0), BuildingBlock: EZIPEK_clean_linker_0, # of connection points: 2
#     Edge 25, Type (0, 0), BuildingBlock: EZIPEK_clean_linker_0, # of connection points: 2
#     Edge 26, Type (0, 0), BuildingBlock: EZIPEK_clean_linker_0, # of connection points: 2
#     Edge 27, Type (0, 0), BuildingBlock: EZIPEK_clean_linker_0, # of connection points: 2
#     Edge 28, Type (0, 0), BuildingBlock: EZIPEK_clean_linker_0, # of connection points: 2
#     Edge 29, Type (0, 0), BuildingBlock: EZIPEK_clean_linker_0, # of connection points: 2
#     Edge 30, Type (0, 0), BuildingBlock: EZIPEK_clean_linker_0, # of connection points: 2
#     Edge 31, Type (0, 0), BuildingBlock: EZIPEK_clean_linker_0, # of connection points: 2
#     Edge 32, Type (0, 0), BuildingBlock: EZIPEK_clean_linker_0, # of connection points: 2
#     Edge 33, Type (0, 0), BuildingBlock: EZIPEK_clean_linker_0, # of connection points: 2
#     Edge 34, Type (0, 0), BuildingBlock: EZIPEK_clean_linker_0, # of connection points: 2
#     Edge 35, Type (0, 0), BuildingBlock: EZIPEK_clean_linker_0, # of connection points: 2
#     Edge 36, Type (0, 0), BuildingBlock: EZIPEK_clean_linker_0, # of connection points: 2
#     Edge 37, Type (0, 0), BuildingBlock: EZIPEK_clean_linker_0, # of connection points: 2
#     Edge 38, Type (0, 0), BuildingBlock: EZIPEK_clean_linker_0, # of connection points: 2
#     Edge 39, Type (0, 0), BuildingBlock: EZIPEK_clean_linker_0, # of connection points: 2
#     Edge 40, Type (0, 0), BuildingBlock: EZIPEK_clean_linker_0, # of connection points: 2
#     Edge 41, Type (0, 0), BuildingBlock: EZIPEK_clean_linker_0, # of connection points: 2
# Relax obj value: 0.215
# Max RMSD: 0.220
# Mean RMSD: 0.220
data_MOF--net-wld--node1-XOMCOT_clean_sbu_0--edge1-EZIPEK_clean_linker_0
_symmetry_space_group_name_H-M    P1
_symmetry_Int_Tables_number       1
_symmetry_cell_setting            triclinic
loop_
_symmetry_equiv_pos_as_xyz
'x, y, z'
_cell_length_a     28.885938
_cell_length_b     28.895078
_cell_length_c     39.82785
_cell_angle_alpha  90.014155
_cell_angle_beta   89.991559
_cell_angle_gamma 120.15821
loop_
_atom_site_label
_atom_site_type_symbol
_atom_site_fract_x
_atom_site_fract_y
_atom_site_fract_z
_atom_type_partial_charge
Co0 Co 0.39045 0.24022 0.08855 0.0
C1 C 0.32127 0.26702 0.04578 0.0
C2 C 0.36793 0.32911 0.08103 0.0
C3 C 0.33726 0.34422 0.06314 0.0
N4 N 0.35883 0.28093 0.07012 0.0
N5 N 0.30803 0.30528 0.04108 0.0
H6 H 0.30317 0.2297 0.03208 0.0
H7 H 0.39306 0.35156 0.10152 0.0
C8 C 0.48513 0.34936 0.11075 0.0
O9 O 0.45909 0.35498 0.13586 0.0
N10 N 0.42285 0.20069 0.1061 0.0
C11 C 0.40197 0.15949 0.12798 0.0
C12 C 0.43742 0.14102 0.1316 0.0
C13 C 0.4703 0.20658 0.09652 0.0
N14 N 0.48006 0.17077 0.1118 0.0
C15 C 0.31703 0.237 0.13771 0.0
C16 C 0.38494 0.26607 0.1924 0.0
C17 C 0.33443 0.26106 0.1963 0.0
C18 C 0.29922 0.2436 0.16893 0.0
C19 C 0.40023 0.25684 0.161 0.0
N20 N 0.3682 0.24707 0.13357 0.0
H21 H 0.28998 0.22485 0.11655 0.0
H22 H 0.43931 0.26099 0.15832 0.0
H23 H 0.36353 0.14374 0.14021 0.0
H24 H 0.49671 0.2358 0.07835 0.0
O25 O 0.32723 0.17352 0.07658 0.0
O26 O 0.39818 0.21765 0.04406 0.0
O27 O 0.4635 0.30841 0.09134 0.0
C28 C 0.35208 0.17444 0.04912 0.0
H29 H 0.33555 0.38053 0.06649 0.0
H30 H 0.43222 0.10809 0.14722 0.0
H31 H 0.41274 0.2782 0.21323 0.0
H32 H 0.25921 0.2376 0.17135 0.0
Co33 Co 0.76304 0.14514 0.08404 0.0
C34 C 0.72307 0.04653 0.04135 0.0
C35 C 0.68029 0.02977 0.08774 0.0
C36 C 0.66078 0.98281 0.07028 0.0
N37 N 0.71902 0.07043 0.06964 0.0
N38 N 0.68792 0.99328 0.0413 0.0
H39 H 0.75176 0.06682 0.0215 0.0
H40 H 0.66955 0.03212 0.11322 0.0
C41 C 0.65444 0.13055 0.10715 0.0
O42 O 0.64668 0.0945 0.12975 0.0
N43 N 0.80652 0.21838 0.09816 0.0
C44 C 0.85344 0.2396 0.11482 0.0
C45 C 0.87299 0.29363 0.11884 0.0
C46 C 0.79809 0.25937 0.09208 0.0
N47 N 0.83801 0.3056 0.10459 0.0
C48 C 0.77544 0.0849 0.13665 0.0
C49 C 0.73952 0.12301 0.18822 0.0
C50 C 0.74783 0.08001 0.19442 0.0
C51 C 0.76893 0.06293 0.16872 0.0
C52 C 0.74832 0.14496 0.15605 0.0
N53 N 0.7612 0.12248 0.1302 0.0
H54 H 0.78915 0.06975 0.11646 0.0
H55 H 0.74145 0.17781 0.15146 0.0
H56 H 0.87218 0.21731 0.12322 0.0
H57 H 0.76402 0.25576 0.07845 0.0
O58 O 0.82773 0.14653 0.06926 0.0
O59 O 0.77933 0.16909 0.03804 0.0
O60 O 0.69641 0.15219 0.08864 0.0
C61 C 0.82208 0.16504 0.04063 0.0
H62 H 0.63107 0.94336 0.07897 0.0
H63 H 0.90991 0.32202 0.13116 0.0
H64 H 0.72476 0.13832 0.20777 0.0
H65 H 0.77736 0.03086 0.17297 0.0
Co66 Co 0.85495 0.60856 0.07863 0.0
C67 C 0.96425 0.68379 0.05186 0.0
C68 C 0.94149 0.60196 0.04355 0.0
C69 C 0.98965 0.6335 0.02803 0.0
N70 N 0.92584 0.63309 0.05956 0.0
N71 N 1.00383 0.68476 0.03336 0.0
H72 H 0.96128 0.719 0.05672 0.0
H73 H 0.9181 0.55928 0.04077 0.0
C74 C 0.87398 0.51935 0.09904 0.0
O75 O 0.92108 0.55512 0.11085 0.0
N76 N 0.78402 0.58336 0.09575 0.0
C77 C 0.76647 0.60897 0.11578 0.0
C78 C 0.7124 0.57541 0.12139 0.0
C79 C 0.74088 0.53545 0.08891 0.0
N80 N 0.69691 0.5296 0.10438 0.0
C81 C 0.92446 0.6815 0.12977 0.0
C82 C 0.88377 0.6093 0.18231 0.0
C83 C 0.92827 0.65995 0.18794 0.0
C84 C 0.94791 0.6968 0.16153 0.0
C85 C 0.86174 0.5956 0.1501 0.0
N86 N 0.88396 0.63049 0.12386 0.0
H87 H 0.93885 0.71089 0.1101 0.0
H88 H 0.82731 0.55634 0.14609 0.0
H89 H 0.79131 0.64884 0.12578 0.0
H90 H 0.74166 0.50524 0.07324 0.0
O91 O 0.8572 0.67321 0.06363 0.0
O92 O 0.82674 0.59931 0.03376 0.0
O93 O 0.84327 0.5341 0.08573 0.0
C94 C 0.83605 0.64825 0.03558 0.0
H95 H 0.01067 0.62003 0.01183 0.0
H96 H 0.68655 0.58363 0.13687 0.0
H97 H 0.86696 0.58029 0.20245 0.0
H98 H 0.98139 0.73685 0.1654 0.0
Co99 Co 0.26181 0.4094 0.4201 0.0
C100 C 0.29329 0.33522 0.4518 0.0
C101 C 0.33536 0.41468 0.4722 0.0
C102 C 0.35098 0.38357 0.48941 0.0
N103 N 0.3 0.38481 0.44816 0.0
N104 N 0.32467 0.33387 0.47643 0.0
H105 H 0.26424 0.30014 0.43838 0.0
H106 H 0.34733 0.45583 0.47775 0.0
C107 C 0.37726 0.49699 0.40981 0.0
O108 O 0.39183 0.46079 0.40677 0.0
N109 N 0.22458 0.43595 0.39331 0.0
C110 C 0.19243 0.4142 0.36639 0.0
C111 C 0.1724 0.44701 0.35729 0.0
C112 C 0.22408 0.48134 0.40007 0.0
N113 N 0.19257 0.48887 0.37863 0.0
C114 C 0.24785 0.32592 0.37485 0.0
C115 C 0.31804 0.3904 0.32576 0.0
C116 C 0.29024 0.33497 0.32104 0.0
C117 C 0.254 0.30254 0.34572 0.0
C118 C 0.30907 0.4121 0.35457 0.0
N119 N 0.27646 0.38014 0.37968 0.0
H120 H 0.21865 0.30009 0.39302 0.0
H121 H 0.32758 0.4546 0.35575 0.0
H122 H 0.18319 0.37673 0.35472 0.0
H123 H 0.24583 0.50806 0.4206 0.0
O124 O 0.19419 0.34747 0.43261 0.0
O125 O 0.23321 0.42448 0.46001 0.0
O126 O 0.32832 0.48258 0.41541 0.0
C127 C 0.19202 0.37656 0.45674 0.0
H128 H 0.3775 0.39563 0.51089 0.0
H129 H 0.14502 0.44059 0.33691 0.0
H130 H 0.3451 0.41689 0.30666 0.0
H131 H 0.23043 0.25957 0.34239 0.0
Co132 Co 0.60786 0.87022 0.42329 0.0
C133 C 0.67879 0.97946 0.45194 0.0
C134 C 0.60231 0.93719 0.47626 0.0
C135 C 0.63282 0.98514 0.49267 0.0
N136 N 0.63078 0.93383 0.45044 0.0
N137 N 0.68065 0.01134 0.47726 0.0
H138 H 0.71272 0.98866 0.43624 0.0
H139 H 0.56261 0.90598 0.48336 0.0
C140 C 0.51713 0.89258 0.41375 0.0
O141 O 0.55245 0.94364 0.40999 0.0
N142 N 0.58309 0.8052 0.39778 0.0
C143 C 0.60387 0.79539 0.37016 0.0
C144 C 0.57535 0.74095 0.36369 0.0
C145 C 0.54258 0.75726 0.40761 0.0
N146 N 0.53735 0.7176 0.3875 0.0
C147 C 0.68698 0.94017 0.37592 0.0
C148 C 0.6181 0.93745 0.32698 0.0
C149 C 0.67332 0.96761 0.32132 0.0
C150 C 0.70792 0.96802 0.34597 0.0
C151 C 0.59885 0.9086 0.3568 0.0
N152 N 0.633 0.9123 0.38181 0.0
H153 H 0.71467 0.93987 0.3939 0.0
H154 H 0.55656 0.8822 0.35888 0.0
H155 H 0.6383 0.82513 0.35641 0.0
H156 H 0.51803 0.75129 0.42953 0.0
O157 O 0.67271 0.86971 0.43455 0.0
O158 O 0.59765 0.82896 0.46384 0.0
O159 O 0.53288 0.85925 0.41977 0.0
C160 C 0.64616 0.83805 0.45916 0.0
H161 H 0.62154 0.99909 0.51472 0.0
H162 H 0.58244 0.72005 0.34359 0.0
H163 H 0.59004 0.93464 0.30792 0.0
H164 H 0.75083 0.9894 0.34197 0.0
Co165 Co 0.14295 0.75385 0.41506 0.0
C166 C 0.03756 0.72294 0.44626 0.0
C167 C 0.06863 0.67249 0.46169 0.0
C168 C 0.02113 0.65621 0.47817 0.0
N169 N 0.07881 0.71401 0.44157 0.0
N170 N 1.00166 0.68775 0.46842 0.0
H171 H 0.03496 0.75558 0.43489 0.0
H172 H 0.09498 0.65645 0.46524 0.0
C173 C 0.16209 0.67086 0.38424 0.0
O174 O 0.16963 0.69676 0.35579 0.0
N175 N 0.20979 0.79359 0.39006 0.0
C176 C 0.22544 0.8305 0.36527 0.0
C177 C 0.2804 0.8553 0.3617 0.0
C178 C 0.25555 0.79644 0.40076 0.0
N179 N 0.29885 0.83365 0.38412 0.0
C180 C 0.09646 0.77595 0.35756 0.0
C181 C 0.03393 0.67109 0.33669 0.0
C182 C 0.03655 0.71209 0.31672 0.0
C183 C 0.06689 0.765 0.32786 0.0
C184 C 0.06414 0.68397 0.36615 0.0
N185 N 0.09827 0.7361 0.37488 0.0
H186 H 0.11799 0.81665 0.36657 0.0
H187 H 0.06023 0.6519 0.38177 0.0
H188 H 0.20034 0.84168 0.35176 0.0
H189 H 0.25749 0.77345 0.42161 0.0
O190 O 0.14572 0.82018 0.42694 0.0
O191 O 0.18462 0.78354 0.45563 0.0
O192 O 0.14991 0.68746 0.41078 0.0
C193 C 0.1771 0.82402 0.45148 0.0
H194 H 1.00341 0.6253 0.49716 0.0
H195 H 0.30509 0.88785 0.34482 0.0
H196 H 0.00915 0.62956 0.3294 0.0
H197 H 0.06803 0.79747 0.3136 0.0
Co198 Co 0.60621 0.74814 0.9165 0.0
C199 C 0.68508 0.71795 0.94453 0.0
C200 C 0.61152 0.68568 0.97197 0.0
C201 C 0.64437 0.67132 0.98825 0.0
N202 N 0.63643 0.71431 0.94425 0.0
N203 N 0.69034 0.69164 0.97089 0.0
H204 H 0.71711 0.74049 0.92715 0.0
H205 H 0.57298 0.6782 0.9807 0.0
C206 C 0.52813 0.6299 0.90818 0.0
O207 O 0.56879 0.62174 0.90555 0.0
N208 N 0.57412 0.781 0.89067 0.0
C209 C 0.59392 0.81464 0.86425 0.0
C210 C 0.55813 0.83134 0.85602 0.0
C211 C 0.52704 0.77747 0.8981 0.0
N212 N 0.51652 0.80781 0.87747 0.0
C213 C 0.68765 0.76187 0.86971 0.0
C214 C 0.6194 0.69854 0.81936 0.0
C215 C 0.67462 0.72123 0.81513 0.0
C216 C 0.70906 0.75421 0.8403 0.0
C217 C 0.5998 0.70703 0.84944 0.0
N218 N 0.63369 0.7351 0.87513 0.0
H219 H 0.71466 0.79039 0.88781 0.0
H220 H 0.55746 0.69237 0.85172 0.0
H221 H 0.63226 0.82741 0.85254 0.0
H222 H 0.50162 0.75427 0.91878 0.0
O223 O 0.66624 0.81817 0.92693 0.0
O224 O 0.59174 0.77613 0.957 0.0
O225 O 0.53602 0.67722 0.9129 0.0
C226 C 0.63837 0.81873 0.95232 0.0
H227 H 0.63609 0.64934 0.01159 0.0
H228 H 0.56267 0.85928 0.83644 0.0
H229 H 0.59188 0.67486 0.7996 0.0
H230 H 0.75209 0.77435 0.83703 0.0
Co231 Co 0.25024 0.85506 0.91504 0.0
C232 C 0.28028 0.961 0.945 0.0
C233 C 0.33407 0.93326 0.95903 0.0
C234 C 0.34914 0.98043 0.97562 0.0
N235 N 0.29113 0.92113 0.93974 0.0
N236 N 0.31549 0.99782 0.96677 0.0
H237 H 0.24582 0.9615 0.93479 0.0
H238 H 0.35153 0.90811 0.96234 0.0
C239 C 0.33193 0.83338 0.88458 0.0
O240 O 0.30414 0.82169 0.85661 0.0
N241 N 0.20932 0.78663 0.89173 0.0
C242 C 0.17409 0.7706 0.86592 0.0
C243 C 0.15083 0.71587 0.86201 0.0
C244 C 0.20673 0.7412 0.90289 0.0
N245 N 0.17172 0.69786 0.88525 0.0
C246 C 0.22427 0.89789 0.85745 0.0
C247 C 0.3272 0.95626 0.83253 0.0
C248 C 0.28479 0.95279 0.81373 0.0
C249 C 0.23295 0.92471 0.82685 0.0
C250 C 0.3166 0.92896 0.86299 0.0
N251 N 0.26524 0.89667 0.87378 0.0
H252 H 0.18429 0.87732 0.86773 0.0
H253 H 0.34979 0.93372 0.87769 0.0
H254 H 0.16378 0.79543 0.85134 0.0
H255 H 0.22947 0.73971 0.92404 0.0
O256 O 0.18454 0.85273 0.92771 0.0
O257 O 0.22359 0.81636 0.95672 0.0
O258 O 0.31668 0.84844 0.91044 0.0
C259 C 0.18297 0.82377 0.95312 0.0
H260 H 0.3804 0.999 0.99435 0.0
H261 H 0.12061 0.69111 0.84381 0.0
H262 H 0.36806 0.97958 0.82363 0.0
H263 H 0.19955 0.92302 0.81339 0.0
Co264 Co 0.15165 0.3941 0.91831 0.0
C265 C 0.04351 0.31677 0.94787 0.0
C266 C 0.07859 0.39572 0.96857 0.0
C267 C 0.03161 0.36329 0.98546 0.0
N268 N 0.08574 0.36716 0.94436 0.0
N269 N 0.00978 0.31384 0.97239 0.0
H270 H 0.03845 0.2821 0.93456 0.0
H271 H 0.10696 0.43695 0.97463 0.0
C272 C 0.12559 0.48179 0.90809 0.0
O273 O 0.07625 0.44479 0.90083 0.0
N274 N 0.21853 0.42238 0.89427 0.0
C275 C 0.23181 0.39825 0.87027 0.0
C276 C 0.28656 0.42735 0.8656 0.0
C277 C 0.26483 0.46611 0.90337 0.0
N278 N 0.30708 0.4699 0.88648 0.0
C279 C 0.08019 0.31905 0.86912 0.0
C280 C 0.09958 0.39276 0.81906 0.0
C281 C 0.06315 0.33875 0.81311 0.0
C282 C 0.0539 0.30145 0.8383 0.0
C283 C 0.12483 0.40853 0.85025 0.0
N284 N 0.11303 0.37232 0.87558 0.0
H285 H 0.07585 0.28941 0.88709 0.0
H286 H 0.15489 0.44974 0.85354 0.0
H287 H 0.20424 0.36039 0.85865 0.0
H288 H 0.26801 0.49277 0.92349 0.0
O289 O 0.15354 0.32935 0.92779 0.0
O290 O 0.19033 0.40215 0.95961 0.0
O291 O 0.15988 0.4682 0.91645 0.0
C292 C 0.18224 0.35423 0.95392 0.0
H293 H 0.01545 0.3746 0.00638 0.0
H294 H 0.30984 0.41698 0.84918 0.0
H295 H 0.10896 0.42236 0.79959 0.0
H296 H 0.0275 0.25907 0.83391 0.0
Co297 Co 0.74752 0.60903 0.58112 0.0
C298 C 0.72096 0.68722 0.5494 0.0
C299 C 0.66459 0.60611 0.53658 0.0
C300 C 0.65003 0.63864 0.52028 0.0
N301 N 0.70792 0.63603 0.556 0.0
N302 N 0.68521 0.68943 0.52865 0.0
H303 H 0.75751 0.72231 0.55722 0.0
H304 H 0.64593 0.56367 0.53298 0.0
C305 C 0.63369 0.52342 0.59584 0.0
O306 O 0.62255 0.56124 0.60274 0.0
N307 N 0.78661 0.58103 0.60457 0.0
C308 C 0.82088 0.6024 0.63058 0.0
C309 C 0.838 0.56739 0.63967 0.0
C310 C 0.78377 0.53401 0.59789 0.0
N311 N 0.81452 0.5247 0.61903 0.0
C312 C 0.75146 0.68566 0.62923 0.0
C313 C 0.71372 0.61627 0.68282 0.0
C314 C 0.73523 0.67131 0.68949 0.0
C315 C 0.74993 0.70502 0.66109 0.0
C316 C 0.71544 0.59844 0.65054 0.0
N317 N 0.73412 0.63288 0.62401 0.0
H318 H 0.76919 0.7141 0.60927 0.0
H319 H 0.704 0.55694 0.64728 0.0
H320 H 0.83237 0.64053 0.64219 0.0
H321 H 0.75941 0.50695 0.57814 0.0
O322 O 0.81427 0.67249 0.56954 0.0
O323 O 0.7752 0.59823 0.53931 0.0
O324 O 0.6807 0.53564 0.58599 0.0
C325 C 0.81651 0.64588 0.54387 0.0
H326 H 0.61776 0.62635 0.50235 0.0
H327 H 0.86554 0.57273 0.65973 0.0
H328 H 0.6957 0.58619 0.70215 0.0
H329 H 0.76059 0.74638 0.66239 0.0
Co330 Co 0.39971 0.14954 0.58076 0.0
C331 C 0.32651 0.04397 0.54741 0.0
C332 C 0.40795 0.07971 0.531 0.0
C333 C 0.37797 0.03332 0.51312 0.0
N334 N 0.3763 0.08575 0.55339 0.0
N335 N 0.32697 0.01089 0.52364 0.0
H336 H 0.29009 0.03947 0.55791 0.0
H337 H 0.44957 0.10872 0.52651 0.0
C338 C 0.4886 0.12584 0.59264 0.0
O339 O 0.4522 0.07627 0.59987 0.0
N340 N 0.42473 0.21443 0.60633 0.0
C341 C 0.39732 0.22711 0.62825 0.0
C342 C 0.42612 0.28166 0.63388 0.0
C343 C 0.46997 0.26064 0.59953 0.0
N344 N 0.47168 0.3024 0.61573 0.0
C345 C 0.3231 0.07241 0.62722 0.0
C346 C 0.39413 0.09483 0.67953 0.0
C347 C 0.34053 0.0557 0.68389 0.0
C348 C 0.30453 0.04476 0.65755 0.0
C349 C 0.41089 0.12133 0.64882 0.0
N350 N 0.37621 0.10833 0.62244 0.0
H351 H 0.29417 0.06662 0.60832 0.0
H352 H 0.45156 0.15329 0.64668 0.0
H353 H 0.35786 0.19932 0.63782 0.0
H354 H 0.49926 0.26429 0.58116 0.0
O355 O 0.33474 0.15014 0.56989 0.0
O356 O 0.40964 0.19098 0.54049 0.0
O357 O 0.47436 0.15951 0.58404 0.0
C358 C 0.36116 0.18203 0.54525 0.0
H359 H 0.39177 0.0187 0.49263 0.0
H360 H 0.41365 0.30466 0.64896 0.0
H361 H 0.42258 0.10541 0.69989 0.0
H362 H 0.26233 0.0161 0.6607 0.0
Co363 Co 0.86427 0.26302 0.58266 0.0
C364 C 0.97047 0.29801 0.55192 0.0
C365 C 0.94425 0.35493 0.54424 0.0
C366 C 0.99281 0.37364 0.52857 0.0
N367 N 0.93037 0.30771 0.55896 0.0
N368 N 0.00923 0.33808 0.53363 0.0
H369 H 0.97043 0.26179 0.55891 0.0
H370 H 0.92 0.37373 0.54388 0.0
C371 C 0.84265 0.34089 0.62026 0.0
O372 O 0.82949 0.30935 0.64657 0.0
N373 N 0.79598 0.21813 0.60503 0.0
C374 C 0.77924 0.1755 0.62578 0.0
C375 C 0.72448 0.15089 0.62958 0.0
C376 C 0.75069 0.21773 0.59611 0.0
N377 N 0.70702 0.1777 0.61088 0.0
C378 C 0.90609 0.22937 0.63797 0.0
C379 C 0.96757 0.33073 0.66461 0.0
C380 C 0.96185 0.28678 0.68269 0.0
C381 C 0.93261 0.23567 0.66852 0.0
C382 C 0.94046 0.32223 0.63426 0.0
N383 N 0.90581 0.27184 0.62314 0.0
H384 H 0.88627 0.19055 0.62614 0.0
H385 H 0.94794 0.35584 0.61908 0.0
H386 H 0.80331 0.16054 0.63638 0.0
H387 H 0.74944 0.24498 0.57797 0.0
O388 O 0.86127 0.19951 0.56468 0.0
O389 O 0.82635 0.24342 0.54042 0.0
O390 O 0.8583 0.32899 0.59317 0.0
C391 C 0.83472 0.20317 0.5394 0.0
H392 H 0.01347 0.40937 0.51331 0.0
H393 H 0.6992 0.11516 0.64401 0.0
H394 H 0.99269 0.37113 0.67387 0.0
H395 H 0.93008 0.20119 0.68103 0.0
C396 C 0.56395 0.11035 0.08712 0.0
C397 C 0.61288 0.14594 0.10345 0.0
C398 C 0.57459 0.19977 0.1237 0.0
C399 C 0.52596 0.16437 0.10732 0.0
N400 N 0.47633 0.09279 0.06847 0.0
N401 N 0.66881 0.22979 0.13172 0.0
C402 C 0.52133 0.12167 0.08745 0.0
C403 C 0.61956 0.19258 0.11983 0.0
N404 N 0.558 0.06518 0.07199 0.0
N405 N 0.57664 0.23859 0.14427 0.0
H406 H 0.70218 0.22515 0.12989 0.0
H407 H 0.67776 0.26707 0.14097 0.0
H408 H 0.54403 0.24429 0.1476 0.0
H409 H 0.60893 0.26264 0.15977 0.0
H410 H 0.52166 0.03444 0.06297 0.0
H411 H 0.58934 0.05724 0.06969 0.0
H412 H 0.47177 0.06403 0.05098 0.0
H413 H 0.44476 0.1006 0.06844 0.0
C414 C 0.84824 0.38251 0.07174 0.0
C415 C 0.84258 0.35741 0.1031 0.0
C416 C 0.85446 0.43728 0.13211 0.0
C417 C 0.85736 0.46164 0.10053 0.0
N418 N 0.84028 0.44967 0.04054 0.0
N419 N 0.82655 0.35448 0.16239 0.0
C420 C 0.84875 0.43183 0.07039 0.0
C421 C 0.84165 0.38297 0.13313 0.0
N422 N 0.85577 0.36047 0.04339 0.0
N423 N 0.86396 0.46582 0.16116 0.0
H424 H 0.81548 0.31414 0.16351 0.0
H425 H 0.81989 0.36909 0.18468 0.0
H426 H 0.86982 0.50438 0.1619 0.0
H427 H 0.86885 0.45223 0.18437 0.0
H428 H 0.86595 0.37995 0.02027 0.0
H429 H 0.85719 0.32512 0.0437 0.0
H430 H 0.82916 0.42672 0.01869 0.0
H431 H 0.83798 0.48425 0.03811 0.0
C432 C 0.63348 0.44104 0.12747 0.0
C433 C 0.64481 0.48247 0.1043 0.0
C434 C 0.55462 0.43079 0.08043 0.0
C435 C 0.54158 0.39159 0.10579 0.0
N436 N 0.56706 0.35801 0.1535 0.0
N437 N 0.6188 0.51933 0.05911 0.0
C438 C 0.58079 0.39615 0.1292 0.0
C439 C 0.60612 0.47785 0.08069 0.0
N440 N 0.67365 0.44484 0.14753 0.0
N441 N 0.5177 0.42281 0.05626 0.0
H442 H 0.65684 0.55335 0.05836 0.0
H443 H 0.59164 0.52159 0.04305 0.0
H444 H 0.47951 0.38909 0.05569 0.0
H445 H 0.5255 0.44754 0.03554 0.0
H446 H 0.67032 0.41404 0.16272 0.0
H447 H 0.712 0.4784 0.14763 0.0
H448 H 0.59142 0.36142 0.17369 0.0
H449 H 0.52996 0.32296 0.15411 0.0
C450 C 0.21954 0.58132 0.36328 0.0
C451 C 0.18293 0.53306 0.37924 0.0
C452 C 0.13119 0.57374 0.3992 0.0
C453 C 0.17029 0.62374 0.38512 0.0
N454 N 0.25921 0.67737 0.36202 0.0
N455 N 0.10923 0.48439 0.41684 0.0
C456 C 0.21658 0.62813 0.36937 0.0
C457 C 0.14032 0.52965 0.39858 0.0
N458 N 0.25694 0.58208 0.342 0.0
N459 N 0.08436 0.56731 0.41181 0.0
H460 H 0.11411 0.451 0.41586 0.0
H461 H 0.0814 0.48132 0.43463 0.0
H462 H 0.07587 0.59811 0.41343 0.0
H463 H 0.05207 0.5303 0.41858 0.0
H464 H 0.28176 0.61481 0.32698 0.0
H465 H 0.25959 0.548 0.33715 0.0
H466 H 0.29588 0.6832 0.35354 0.0
H467 H 0.26015 0.71284 0.36817 0.0
C468 C 0.44774 0.64128 0.3764 0.0
C469 C 0.49847 0.66181 0.39145 0.0
C470 C 0.46749 0.5776 0.42198 0.0
C471 C 0.41762 0.55487 0.40469 0.0
N472 N 0.36219 0.56508 0.36272 0.0
N473 N 0.55996 0.65006 0.42568 0.0
C474 C 0.40805 0.58677 0.38135 0.0
C475 C 0.50931 0.62993 0.41332 0.0
N476 N 0.43706 0.67487 0.35814 0.0
N477 N 0.4738 0.55043 0.44805 0.0
H478 H 0.59066 0.68876 0.42022 0.0
H479 H 0.57263 0.62752 0.4391 0.0
H480 H 0.4434 0.51324 0.4563 0.0
H481 H 0.50716 0.56673 0.4637 0.0
H482 H 0.39879 0.66518 0.35038 0.0
H483 H 0.46637 0.7141 0.35252 0.0
H484 H 0.35802 0.5834 0.34134 0.0
H485 H 0.32884 0.52799 0.36725 0.0
C486 C 0.42973 0.83555 0.38238 0.0
C487 C 0.45901 0.87361 0.40814 0.0
C488 C 0.38016 0.88324 0.41904 0.0
C489 C 0.35378 0.84956 0.39127 0.0
N490 N 0.35574 0.80133 0.34293 0.0
N491 N 0.46201 0.93392 0.45124 0.0
C492 C 0.37938 0.82811 0.37191 0.0
C493 C 0.43413 0.89764 0.42649 0.0
N494 N 0.44858 0.805 0.36842 0.0
N495 N 0.35298 0.90078 0.43842 0.0
H496 H 0.49921 0.94136 0.45987 0.0
H497 H 0.44917 0.95781 0.46279 0.0
H498 H 0.31465 0.8931 0.43232 0.0
H499 H 0.36693 0.92071 0.46118 0.0
H500 H 0.42594 0.77308 0.35232 0.0
H501 H 0.48414 0.80695 0.37526 0.0
H502 H 0.37496 0.79018 0.3253 0.0
H503 H 0.31832 0.7943 0.33505 0.0
C504 C 0.43066 0.86847 0.89659 0.0
C505 C 0.37961 0.82626 0.88598 0.0
C506 C 0.42094 0.77409 0.86776 0.0
C507 C 0.47091 0.815 0.87949 0.0
N508 N 0.52256 0.89574 0.911 0.0
N509 N 0.32489 0.73309 0.871 0.0
C510 C 0.47553 0.86069 0.89563 0.0
C511 C 0.37442 0.77741 0.87415 0.0
N512 N 0.43708 0.91659 0.90648 0.0
N513 N 0.41825 0.7323 0.85007 0.0
H514 H 0.29006 0.73315 0.87752 0.0
H515 H 0.31879 0.69508 0.86587 0.0
H516 H 0.4519 0.72879 0.84537 0.0
H517 H 0.3838 0.70382 0.83774 0.0
H518 H 0.47433 0.95073 0.91 0.0
H519 H 0.40552 0.92364 0.90956 0.0
H520 H 0.52717 0.92666 0.92664 0.0
H521 H 0.55602 0.89105 0.91024 0.0
C522 C 0.11254 0.5596 0.92291 0.0
C523 C 0.14139 0.53951 0.90486 0.0
C524 C 0.18456 0.62201 0.87129 0.0
C525 C 0.15912 0.64347 0.89087 0.0
N526 N 0.10308 0.63641 0.93731 0.0
N527 N 0.21637 0.5594 0.86822 0.0
C528 C 0.12435 0.61328 0.91736 0.0
C529 C 0.18088 0.57296 0.88097 0.0
N530 N 0.0739 0.52742 0.94538 0.0
N531 N 0.2116 0.64819 0.84294 0.0
H532 H 0.21794 0.52583 0.87566 0.0
H533 H 0.24884 0.58503 0.85325 0.0
H534 H 0.21617 0.68491 0.83563 0.0
H535 H 0.22577 0.63154 0.82538 0.0
H536 H 0.04708 0.53705 0.9563 0.0
H537 H 0.06718 0.48977 0.95232 0.0
H538 H 0.08211 0.61937 0.95938 0.0
H539 H 0.10895 0.67452 0.93258 0.0
C540 C 0.45211 0.56994 0.86978 0.0
C541 C 0.47254 0.58452 0.90286 0.0
C542 C 0.38564 0.51481 0.92464 0.0
C543 C 0.36307 0.50814 0.89209 0.0
N544 N 0.37371 0.53732 0.83455 0.0
N545 N 0.45756 0.57183 0.96255 0.0
C546 C 0.39604 0.53798 0.86486 0.0
C547 C 0.43883 0.55739 0.93059 0.0
N548 N 0.48619 0.58417 0.84313 0.0
N549 N 0.35749 0.47863 0.9493 0.0
H550 H 0.49719 0.60022 0.96774 0.0
H551 H 0.43303 0.55767 0.98367 0.0
H552 H 0.32006 0.44496 0.94511 0.0
H553 H 0.37366 0.47864 0.97268 0.0
H554 H 0.47323 0.57147 0.81866 0.0
H555 H 0.52738 0.60179 0.84631 0.0
H556 H 0.39574 0.56222 0.81471 0.0
H557 H 0.33246 0.51624 0.83051 0.0
C558 C 0.7773 0.42762 0.62733 0.0
C559 C 0.82113 0.47859 0.61933 0.0
C560 C 0.88015 0.44101 0.61765 0.0
C561 C 0.83537 0.38858 0.62123 0.0
N562 N 0.73929 0.33174 0.62488 0.0
N563 N 0.91171 0.53217 0.59989 0.0
C564 C 0.78327 0.38179 0.62485 0.0
C565 C 0.87178 0.48473 0.61227 0.0
N566 N 0.73057 0.42333 0.63846 0.0
N567 N 0.93072 0.44993 0.62205 0.0
H568 H 0.90632 0.56465 0.59507 0.0
H569 H 0.94806 0.53726 0.5913 0.0
H570 H 0.9376 0.42032 0.63105 0.0
H571 H 0.96464 0.48796 0.62207 0.0
H572 H 0.69878 0.38795 0.64786 0.0
H573 H 0.72547 0.4564 0.64121 0.0
H574 H 0.7002 0.32453 0.62347 0.0
H575 H 0.74205 0.29733 0.62361 0.0
C576 C 0.57012 0.43092 0.57332 0.0
C577 C 0.59204 0.46625 0.60114 0.0
C578 C 0.53785 0.39097 0.63897 0.0
C579 C 0.51098 0.35818 0.61103 0.0
N580 N 0.49133 0.35271 0.55189 0.0
N581 N 0.58715 0.48097 0.6607 0.0
C582 C 0.52413 0.37981 0.57822 0.0
C583 C 0.57281 0.44674 0.63406 0.0
N584 N 0.5932 0.44525 0.54234 0.0
N585 N 0.53198 0.36856 0.66998 0.0
H586 H 0.61175 0.52213 0.65848 0.0
H587 H 0.57012 0.46891 0.68445 0.0
H588 H 0.50858 0.32749 0.67415 0.0
H589 H 0.55479 0.38992 0.69069 0.0
H590 H 0.58074 0.41876 0.52211 0.0
H591 H 0.62843 0.48099 0.5378 0.0
H592 H 0.49677 0.36896 0.52786 0.0
H593 H 0.45516 0.31703 0.555 0.0
C594 C 0.62197 0.12989 0.57958 0.0
C595 C 0.65249 0.16457 0.60594 0.0
C596 C 0.58017 0.18233 0.61877 0.0
C597 C 0.54648 0.14248 0.59513 0.0
N598 N 0.53468 0.0753 0.55427 0.0
N599 N 0.65781 0.21503 0.65498 0.0
C600 C 0.5672 0.11524 0.57591 0.0
C601 C 0.63067 0.18816 0.62681 0.0
N602 N 0.64588 0.11179 0.55777 0.0
N603 N 0.56512 0.21573 0.63305 0.0
H604 H 0.69507 0.21996 0.66136 0.0
H605 H 0.64147 0.2283 0.67333 0.0
H606 H 0.52978 0.215 0.62727 0.0
H607 H 0.5907 0.24853 0.64779 0.0
H608 H 0.62802 0.0912 0.5357 0.0
H609 H 0.68545 0.12073 0.56064 0.0
H610 H 0.54561 0.04988 0.54271 0.0
H611 H 0.49551 0.06553 0.54905 0.0
C612 C 0.30635 0.07347 0.03912 0.0
C613 C 0.33174 0.12693 0.02615 0.0
C614 C 0.33768 0.09223 0.97077 0.0
C615 C 0.31189 0.03981 0.98391 0.0
N616 N 0.25626 0.97862 0.02636 0.0
N617 N 0.35523 0.18309 0.97677 0.0
C618 C 0.29068 0.03002 0.01663 0.0
C619 C 0.34233 0.13508 0.99101 0.0
N620 N 0.30104 0.06345 0.07286 0.0
N621 N 0.35919 0.10113 0.93932 0.0
H622 H 0.356 0.21431 0.99033 0.0
H623 H 0.3592 0.18977 0.95096 0.0
H624 H 0.35459 0.06991 0.92385 0.0
H625 H 0.38387 0.13926 0.92953 0.0
H626 H 0.28908 0.02581 0.08293 0.0
H627 H 0.31321 0.0924 0.09135 0.0
H628 H 0.23509 0.96881 0.04891 0.0
H629 H 0.2445 0.94641 0.01004 0.0
C630 C 0.91473 0.18879 0.0202 0.0
C631 C 0.86602 0.18847 0.01469 0.0
C632 C 0.91105 0.26068 0.97337 0.0
C633 C 0.961 0.26742 0.98355 0.0
N634 N 0.01172 0.23777 0.01551 0.0
N635 N 0.81452 0.20326 0.97291 0.0
C636 C 0.96314 0.23075 0.00621 0.0
C637 C 0.86297 0.21826 0.98727 0.0
N638 N 0.91392 0.14698 0.0367 0.0
N639 N 0.90995 0.2961 0.95117 0.0
H640 H 0.77999 0.1677 0.97939 0.0
H641 H 0.80979 0.22127 0.95157 0.0
H642 H 0.94447 0.32588 0.93948 0.0
H643 H 0.87557 0.29781 0.94576 0.0
H644 H 0.9474 0.14278 0.03973 0.0
H645 H 0.87813 0.11271 0.04324 0.0
H646 H 0.0169 0.21665 0.03491 0.0
H647 H 0.04743 0.26716 0.00486 0.0
C648 C 0.78406 0.63831 0.98241 0.0
C649 C 0.81476 0.67059 0.00976 0.0
C650 C 0.77488 0.72734 0.00257 0.0
C651 C 0.7368 0.68868 0.98039 0.0
N652 N 0.70546 0.60912 0.94726 0.0
N653 N 0.85951 0.76029 0.03174 0.0
C654 C 0.74211 0.64512 0.96925 0.0
C655 C 0.81646 0.71982 0.01565 0.0
N656 N 0.79741 0.60386 0.9678 0.0
N657 N 0.76965 0.76985 0.01211 0.0
H658 H 0.89339 0.75777 0.03755 0.0
H659 H 0.86491 0.79841 0.03515 0.0
H660 H 0.74068 0.77706 0.00181 0.0
H661 H 0.79207 0.79627 0.03121 0.0
H662 H 0.77874 0.58146 0.94642 0.0
H663 H 0.83212 0.60339 0.97442 0.0
H664 H 0.70314 0.57303 0.94099 0.0
H665 H 0.67534 0.61431 0.93664 0.0
C666 C 0.10359 0.35946 0.5321 0.0
C667 C 0.0532 0.33859 0.51642 0.0
C668 C 0.09191 0.33803 0.46202 0.0
C669 C 0.14304 0.35825 0.4776 0.0
N670 N 0.19453 0.37589 0.52856 0.0
N671 N 0.99526 0.29629 0.47076 0.0
C672 C 0.14799 0.36524 0.51307 0.0
C673 C 0.04642 0.32377 0.48251 0.0
N674 N 0.10903 0.3752 0.56486 0.0
N675 N 0.08723 0.33668 0.42784 0.0
H676 H 0.98454 0.27976 0.44679 0.0
H677 H 0.98454 0.27976 0.44679 0.0
H678 H 0.119 0.34746 0.41151 0.0
H679 H 0.05262 0.32959 0.41536 0.0
H680 H 0.14578 0.39611 0.57706 0.0
H681 H 0.07646 0.36978 0.57926 0.0
H682 H 0.19909 0.3769 0.55453 0.0
H683 H 0.22715 0.37874 0.51548 0.0
C684 C 0.65963 0.80307 0.51377 0.0
C685 C 0.66725 0.80841 0.47843 0.0
C686 C 0.70472 0.74867 0.48034 0.0
C687 C 0.68742 0.73579 0.51383 0.0
N688 N 0.64748 0.74861 0.56309 0.0
N689 N 0.69333 0.78121 0.42722 0.0
C690 C 0.6652 0.76292 0.53091 0.0
C691 C 0.68985 0.78077 0.46146 0.0
N692 N 0.64834 0.83716 0.53094 0.0
N693 N 0.73491 0.7293 0.46657 0.0
H694 H 0.68245 0.80274 0.41152 0.0
H695 H 0.70277 0.75607 0.41384 0.0
H696 H 0.74558 0.70512 0.48008 0.0
H697 H 0.75369 0.74144 0.4433 0.0
H698 H 0.64663 0.8381 0.55703 0.0
H699 H 0.64612 0.86829 0.51921 0.0
H700 H 0.62535 0.76246 0.57585 0.0
H701 H 0.65246 0.72022 0.5763 0.0
C702 C 0.25598 0.91549 0.52398 0.0
C703 C 0.28177 0.96599 0.50802 0.0
C704 C 0.23493 0.92544 0.45559 0.0
C705 C 0.20786 0.87419 0.47155 0.0
N706 N 0.18164 0.82416 0.52339 0.0
N707 N 0.28466 0.02187 0.46278 0.0
C708 C 0.215 0.87038 0.50659 0.0
C709 C 0.26724 0.97173 0.47518 0.0
N710 N 0.27222 0.91039 0.55525 0.0
N711 N 0.23373 0.9303 0.42151 0.0
H712 H 0.30839 0.05632 0.47685 0.0
H713 H 0.2711 0.02905 0.44021 0.0
H714 H 0.21185 0.89869 0.40526 0.0
H715 H 0.25862 0.96577 0.40876 0.0
H716 H 0.25924 0.8736 0.56688 0.0
H717 H 0.30156 0.94306 0.56861 0.0
H718 H 0.18195 0.8205 0.54939 0.0
H719 H 0.14979 0.79125 0.51171 0.0
C720 C 0.66624 0.95431 0.98418 0.0
C721 C 0.68309 0.95364 0.0174 0.0
C722 C 0.67278 0.8651 0.00778 0.0
C723 C 0.65782 0.86667 0.97407 0.0
N724 N 0.65584 0.91979 0.92778 0.0
N725 N 0.71692 0.91628 0.05781 0.0
C726 C 0.65976 0.91363 0.96143 0.0
C727 C 0.69077 0.91128 0.02829 0.0
N728 N 0.65328 0.99188 0.97489 0.0
N729 N 0.66958 0.81957 0.02028 0.0
H730 H 0.7326 0.95087 0.07244 0.0
H731 H 0.728 0.88895 0.0659 0.0
H732 H 0.65906 0.78591 0.00555 0.0
H733 H 0.67431 0.81409 0.04562 0.0
H734 H 0.63502 0.99069 0.95209 0.0
H735 H 0.65622 0.02147 0.99119 0.0
H736 H 0.66244 0.95551 0.91708 0.0
H737 H 0.65089 0.89104 0.91023 0.0
C738 C 0.03785 0.73781 0.98207 0.0
C739 C 0.04614 0.72924 0.0158 0.0
C740 C 0.14167 0.79432 0.01037 0.0
C741 C 0.13494 0.79578 0.97505 0.0
N742 N 0.07562 0.76176 0.92666 0.0
N743 N 0.10438 0.74695 0.06278 0.0
C744 C 0.08264 0.76651 0.96069 0.0
C745 C 0.09761 0.75738 0.03028 0.0
N746 N 0.98676 0.71717 0.97039 0.0
N747 N 0.18977 0.82879 0.0249 0.0
H748 H 0.07214 0.72137 0.07801 0.0
H749 H 0.1417 0.7612 0.07396 0.0
H750 H 0.22276 0.85675 0.01118 0.0
H751 H 0.19566 0.83305 0.05076 0.0
H752 H 0.97775 0.7266 0.94694 0.0
H753 H 0.95326 0.69477 0.9855 0.0
H754 H 0.03923 0.73542 0.91531 0.0
H755 H 0.10648 0.77971 0.90936 0.0
C756 C 0.247 0.32057 0.96149 0.0
C757 C 0.20751 0.33082 0.9753 0.0
C758 C 0.22483 0.30676 0.03107 0.0
C759 C 0.27001 0.306 0.01807 0.0
N760 N 0.32849 0.31826 0.97183 0.0
N761 N 0.15895 0.33444 0.02361 0.0
C762 C 0.28191 0.3138 0.98344 0.0
C763 C 0.19623 0.32384 0.01024 0.0
N764 N 0.25162 0.31745 0.92756 0.0
N765 N 0.20932 0.29055 0.06337 0.0
H766 H 0.13528 0.34436 0.00896 0.0
H767 H 0.1532 0.33596 0.0493 0.0
H768 H 0.22953 0.27717 0.0787 0.0
H769 H 0.1741 0.2856 0.07385 0.0
H770 H 0.27635 0.30518 0.91649 0.0
H771 H 0.22684 0.32142 0.9104 0.0
H772 H 0.34292 0.33078 0.9476 0.0
H773 H 0.35511 0.31376 0.98725 0.0
C774 C 0.90659 0.66435 0.46891 0.0
C775 C 0.9575 0.68893 0.48435 0.0
C776 C 0.91773 0.69009 0.53824 0.0
C777 C 0.866 0.66615 0.52291 0.0
N778 N 0.81458 0.64485 0.47165 0.0
N779 N 0.01397 0.73967 0.53006 0.0
C780 C 0.86146 0.65773 0.48753 0.0
C781 C 0.96366 0.70697 0.51778 0.0
N782 N 0.90123 0.64558 0.43687 0.0
N783 N 0.92339 0.69277 0.57237 0.0
H784 H 0.04814 0.75211 0.51537 0.0
H785 H 0.02135 0.7587 0.55329 0.0
H786 H 0.89181 0.67908 0.58914 0.0
H787 H 0.95955 0.70382 0.58434 0.0
H788 H 0.86431 0.62191 0.42529 0.0
H789 H 0.93403 0.65129 0.42263 0.0
H790 H 0.8103 0.64262 0.44564 0.0
H791 H 0.78156 0.64185 0.4843 0.0
C792 C 0.35384 0.22212 0.49091 0.0
C793 C 0.34013 0.21167 0.52551 0.0
C794 C 0.29991 0.26909 0.52233 0.0
C795 C 0.32369 0.28758 0.49063 0.0
N796 N 0.37479 0.28381 0.44434 0.0
N797 N 0.30211 0.23005 0.57507 0.0
C798 C 0.3506 0.26424 0.47458 0.0
C799 C 0.31278 0.23558 0.54142 0.0
N800 N 0.36851 0.19079 0.47346 0.0
N801 N 0.26467 0.28369 0.53409 0.0
H802 H 0.30818 0.20522 0.5909 0.0
H803 H 0.28999 0.25341 0.58813 0.0
H804 H 0.2546 0.3081 0.52033 0.0
H805 H 0.24141 0.2672 0.55553 0.0
H806 H 0.37477 0.1937 0.44761 0.0
H807 H 0.36851 0.15788 0.48424 0.0
H808 H 0.40011 0.27256 0.43295 0.0
H809 H 0.37219 0.31409 0.43174 0.0
C810 C 0.81108 0.11182 0.51725 0.0
C811 C 0.80744 0.15882 0.51418 0.0
C812 C 0.72751 0.10993 0.47898 0.0
C813 C 0.72579 0.06154 0.48744 0.0
N814 N 0.76439 0.01483 0.5149 0.0
N815 N 0.77985 0.20691 0.47764 0.0
C816 C 0.76765 0.06209 0.50621 0.0
C817 C 0.77074 0.15936 0.4907 0.0
N818 N 0.85749 0.11547 0.5284 0.0
N819 N 0.68683 0.10815 0.46051 0.0
H820 H 0.81537 0.2427 0.48211 0.0
H821 H 0.75649 0.2101 0.45892 0.0
H822 H 0.6561 0.07259 0.4504 0.0
H823 H 0.68192 0.14108 0.45675 0.0
H824 H 0.86402 0.08317 0.52907 0.0
H825 H 0.89215 0.1523 0.5323 0.0
H826 H 0.79048 0.01213 0.53176 0.0
H827 H 0.73302 0.97779 0.50711 0.0
C828 C 0.31619 0.27513 0.2898 0.0
C829 C 0.29712 0.31187 0.28931 0.0
C830 C 0.3063 0.31807 0.22824 0.0
C831 C 0.3197 0.27703 0.22831 0.0
N832 N 0.32408 0.20722 0.25897 0.0
N833 N 0.25904 0.35544 0.25706 0.0
C834 C 0.32054 0.25261 0.25907 0.0
C835 C 0.28737 0.32925 0.25818 0.0
N836 N 0.33262 0.2636 0.3192 0.0
N837 N 0.31434 0.34857 0.20024 0.0
H838 H 0.24247 0.36242 0.2784 0.0
H839 H 0.247 0.36473 0.2346 0.0
H840 H 0.3314 0.34433 0.17823 0.0
H841 H 0.3097 0.38209 0.2002 0.0
H842 H 0.35176 0.2412 0.32022 0.0
H843 H 0.33202 0.28066 0.34215 0.0
H844 H 0.31994 0.1852 0.28062 0.0
H845 H 0.32549 0.18853 0.23689 0.0
C846 C 0.7531 0.07842 0.25759 0.0
C847 C 0.73109 0.05086 0.227 0.0
C848 C 0.67914 0.96735 0.25831 0.0
C849 C 0.69464 0.99636 0.28894 0.0
N850 N 0.73883 0.08207 0.31713 0.0
N851 N 0.66291 0.97093 0.19922 0.0
C852 C 0.72968 0.05269 0.28848 0.0
C853 C 0.69126 0.99575 0.22756 0.0
N854 N 0.79718 0.12854 0.25724 0.0
N855 N 0.6543 0.91274 0.25842 0.0
H856 H 0.66819 0.99071 0.17643 0.0
H857 H 0.63007 0.93218 0.19936 0.0
H858 H 0.64673 0.8904 0.28038 0.0
H859 H 0.6467 0.89024 0.23654 0.0
H860 H 0.81776 0.1483 0.27896 0.0
H861 H 0.81641 0.14801 0.23511 0.0
H862 H 0.75989 0.12378 0.31734 0.0
H863 H 0.72089 0.06515 0.34006 0.0
C864 C 0.93484 0.68942 0.24812 0.0
C865 C 0.95577 0.67361 0.22104 0.0
C866 C 0.03192 0.68796 0.25585 0.0
C867 C 0.00877 0.69954 0.28371 0.0
N868 N 0.93507 0.7045 0.30814 0.0
N869 N 0.01922 0.64951 0.20016 0.0
C870 C 0.95933 0.69846 0.28034 0.0
C871 C 1.00297 0.67058 0.22519 0.0
N872 N 0.8924 0.69706 0.24277 0.0
N873 N 0.08234 0.69512 0.25842 0.0
H874 H 0.99944 0.63682 0.17718 0.0
H875 H 0.04965 0.6405 0.20308 0.0
H876 H 0.10472 0.7074 0.28052 0.0
H877 H 0.10384 0.69322 0.23801 0.0
H878 H 0.8788 0.71408 0.26041 0.0
H879 H 0.87307 0.69004 0.21963 0.0
H880 H 0.89635 0.69838 0.3081 0.0
H881 H 0.95217 0.71178 0.33202 0.0
C882 C 0.72583 0.65707 0.75326 0.0
C883 C 0.73742 0.6914 0.72518 0.0
C884 C 0.72099 0.75167 0.75953 0.0
C885 C 0.69705 0.71126 0.78437 0.0
N886 N 0.67962 0.626 0.80634 0.0
N887 N 0.78947 0.78676 0.71717 0.0
C888 C 0.70065 0.66417 0.78183 0.0
C889 C 0.74745 0.74376 0.73211 0.0
N890 N 0.74596 0.62332 0.75446 0.0
N891 N 0.71833 0.79741 0.76179 0.0
H892 H 0.81738 0.78243 0.70287 0.0
H893 H 0.8013 0.8262 0.72346 0.0
H894 H 0.69944 0.80499 0.78161 0.0
H895 H 0.73141 0.82563 0.7425 0.0
H896 H 0.74328 0.60078 0.77555 0.0
H897 H 0.77148 0.62364 0.73575 0.0
H898 H 0.67611 0.58847 0.80376 0.0
H899 H 0.66259 0.63055 0.8283 0.0
C900 C 0.30259 0.02993 0.77626 0.0
C901 C 0.29494 0.97773 0.78 0.0
C902 C 0.31671 0.97635 0.72063 0.0
C903 C 0.32213 0.02761 0.71654 0.0
N904 N 0.31162 0.09966 0.73825 0.0
N905 N 0.28534 0.89715 0.75533 0.0
C906 C 0.31243 0.05336 0.74374 0.0
C907 C 0.29912 0.94966 0.752 0.0
N908 N 0.30215 0.05767 0.80397 0.0
N909 N 0.33029 0.95411 0.69488 0.0
H910 H 0.27309 0.87652 0.77807 0.0
H911 H 0.2819 0.87269 0.73517 0.0
H912 H 0.34227 0.97194 0.6713 0.0
H913 H 0.33333 0.91989 0.69745 0.0
H914 H 0.31351 0.09802 0.80357 0.0
H915 H 0.29376 0.04124 0.82805 0.0
H916 H 0.29936 0.11756 0.75613 0.0
H917 H 0.31919 0.11818 0.7148 0.0
C918 C 0.98337 0.31326 0.77639 0.0
C919 C 0.03575 0.32132 0.78016 0.0
C920 C 0.03935 0.3049 0.72001 0.0
C921 C 0.98623 0.29491 0.71652 0.0
N922 N 0.90405 0.28053 0.74157 0.0
N923 N 0.11058 0.31641 0.7576 0.0
C924 C 0.95709 0.29623 0.74484 0.0
C925 C 0.06286 0.31457 0.75253 0.0
N926 N 0.95959 0.32388 0.80266 0.0
N927 N 0.06777 0.30671 0.69208 0.0
H928 H 0.12923 0.3241 0.78101 0.0
H929 H 0.12981 0.30637 0.73934 0.0
H930 H 0.05118 0.29803 0.66804 0.0
H931 H 0.10857 0.31991 0.6923 0.0
H932 H 0.92425 0.32497 0.80052 0.0
H933 H 0.97711 0.33537 0.82636 0.0
H934 H 0.87898 0.27498 0.7618 0.0
H935 H 0.88375 0.26889 0.7187 0.0
loop_
_geom_bond_atom_site_label_1
_geom_bond_atom_site_label_2
_geom_bond_distance
_geom_bond_site_symmetry_2
_ccdc_geom_bond_type
Co0 N4 2.148 . S
Co0 N10 2.128 . S
Co0 N20 2.194 . S
Co0 O25 2.351 . S
Co0 O26 2.155 . S
Co0 O27 2.096 . S
C1 N4 1.301 . S
C1 N5 1.328 . S
C1 H6 0.930 . S
C2 C3 1.333 . S
C2 N4 1.317 . S
C2 H7 0.930 . S
C3 C2 1.333 . S
C3 N5 1.350 . S
C3 H29 0.931 . S
N4 Co0 2.148 . S
N4 C1 1.301 . S
N4 C2 1.317 . S
N5 C1 1.328 . S
N5 C3 1.350 . S
H6 C1 0.930 . S
H7 C2 0.930 . S
C8 O9 1.224 . S
C8 O27 1.247 . S
O9 C8 1.224 . S
N10 Co0 2.128 . S
N10 C11 1.355 . S
N10 C13 1.311 . S
C11 N10 1.355 . S
C11 C12 1.363 . S
C11 H23 0.929 . S
C12 C11 1.363 . S
C12 N14 1.375 . S
C12 H30 0.931 . S
C13 N10 1.311 . S
C13 N14 1.347 . S
C13 H24 0.929 . S
N14 C12 1.375 . S
N14 C13 1.347 . S
C15 C18 1.365 . S
C15 N20 1.328 . S
C15 H21 0.929 . S
C16 C17 1.362 . S
C16 C19 1.378 . S
C16 H31 0.929 . S
C17 C16 1.362 . S
C17 C18 1.366 . S
C18 C15 1.365 . S
C18 C17 1.366 . S
C18 H32 0.930 . S
C19 C16 1.378 . S
C19 N20 1.315 . S
C19 H22 0.930 . S
N20 Co0 2.194 . S
N20 C15 1.328 . S
N20 C19 1.315 . S
H21 C15 0.929 . S
H22 C19 0.930 . S
H23 C11 0.929 . S
H24 C13 0.929 . S
O25 Co0 2.351 . S
O25 C28 1.244 . S
O26 Co0 2.155 . S
O26 C28 1.240 . S
O27 Co0 2.096 . S
O27 C8 1.247 . S
C28 O25 1.244 . S
C28 O26 1.240 . S
H29 C3 0.931 . S
H30 C12 0.931 . S
H31 C16 0.929 . S
H32 C18 0.930 . S
Co33 N37 2.148 . S
Co33 N43 2.128 . S
Co33 N53 2.194 . S
Co33 O58 2.351 . S
Co33 O59 2.155 . S
Co33 O60 2.096 . S
C34 N37 1.301 . S
C34 N38 1.328 . S
C34 H39 0.930 . S
C35 C36 1.333 . S
C35 N37 1.317 . S
C35 H40 0.930 . S
C36 C35 1.333 . S
C36 N38 1.350 . S
C36 H62 0.931 1_545 S
N37 Co33 2.148 . S
N37 C34 1.301 . S
N37 C35 1.317 . S
N38 C34 1.328 . S
N38 C36 1.350 . S
H39 C34 0.930 . S
H40 C35 0.930 . S
C41 O42 1.224 . S
C41 O60 1.247 . S
O42 C41 1.224 . S
N43 Co33 2.128 . S
N43 C44 1.355 . S
N43 C46 1.311 . S
C44 N43 1.355 . S
C44 C45 1.363 . S
C44 H56 0.929 . S
C45 C44 1.363 . S
C45 N47 1.375 . S
C45 H63 0.931 . S
C46 N43 1.311 . S
C46 N47 1.347 . S
C46 H57 0.929 . S
N47 C45 1.375 . S
N47 C46 1.347 . S
C48 C51 1.365 . S
C48 N53 1.328 . S
C48 H54 0.929 . S
C49 C50 1.362 . S
C49 C52 1.378 . S
C49 H64 0.929 . S
C50 C49 1.362 . S
C50 C51 1.366 . S
C51 C48 1.365 . S
C51 C50 1.366 . S
C51 H65 0.930 . S
C52 C49 1.378 . S
C52 N53 1.315 . S
C52 H55 0.930 . S
N53 Co33 2.194 . S
N53 C48 1.328 . S
N53 C52 1.315 . S
H54 C48 0.929 . S
H55 C52 0.930 . S
H56 C44 0.929 . S
H57 C46 0.929 . S
O58 Co33 2.351 . S
O58 C61 1.244 . S
O59 Co33 2.155 . S
O59 C61 1.240 . S
O60 Co33 2.096 . S
O60 C41 1.247 . S
C61 O58 1.244 . S
C61 O59 1.240 . S
H62 C36 0.931 1_565 S
H63 C45 0.931 . S
H64 C49 0.929 . S
H65 C51 0.930 . S
Co66 N70 2.148 . S
Co66 N76 2.128 . S
Co66 N86 2.194 . S
Co66 O91 2.351 . S
Co66 O92 2.155 . S
Co66 O93 2.096 . S
C67 N70 1.301 . S
C67 N71 1.328 . S
C67 H72 0.930 . S
C68 C69 1.333 . S
C68 N70 1.317 . S
C68 H73 0.930 . S
C69 C68 1.333 . S
C69 N71 1.350 . S
C69 H95 0.931 1_655 S
N70 Co66 2.148 . S
N70 C67 1.301 . S
N70 C68 1.317 . S
N71 C67 1.328 . S
N71 C69 1.350 . S
H72 C67 0.930 . S
H73 C68 0.930 . S
C74 O75 1.224 . S
C74 O93 1.247 . S
O75 C74 1.224 . S
N76 Co66 2.128 . S
N76 C77 1.355 . S
N76 C79 1.311 . S
C77 N76 1.355 . S
C77 C78 1.363 . S
C77 H89 0.929 . S
C78 C77 1.363 . S
C78 N80 1.375 . S
C78 H96 0.931 . S
C79 N76 1.311 . S
C79 N80 1.347 . S
C79 H90 0.929 . S
N80 C78 1.375 . S
N80 C79 1.347 . S
C81 C84 1.365 . S
C81 N86 1.328 . S
C81 H87 0.929 . S
C82 C83 1.362 . S
C82 C85 1.378 . S
C82 H97 0.929 . S
C83 C82 1.362 . S
C83 C84 1.366 . S
C84 C81 1.365 . S
C84 C83 1.366 . S
C84 H98 0.930 . S
C85 C82 1.378 . S
C85 N86 1.315 . S
C85 H88 0.930 . S
N86 Co66 2.194 . S
N86 C81 1.328 . S
N86 C85 1.315 . S
H87 C81 0.929 . S
H88 C85 0.930 . S
H89 C77 0.929 . S
H90 C79 0.929 . S
O91 Co66 2.351 . S
O91 C94 1.244 . S
O92 Co66 2.155 . S
O92 C94 1.240 . S
O93 Co66 2.096 . S
O93 C74 1.247 . S
C94 O91 1.244 . S
C94 O92 1.240 . S
H95 C69 0.931 1_455 S
H96 C78 0.931 . S
H97 C82 0.929 . S
H98 C84 0.930 . S
Co99 N103 2.148 . S
Co99 N109 2.128 . S
Co99 N119 2.194 . S
Co99 O124 2.351 . S
Co99 O125 2.155 . S
Co99 O126 2.096 . S
C100 N103 1.301 . S
C100 N104 1.328 . S
C100 H105 0.930 . S
C101 C102 1.333 . S
C101 N103 1.317 . S
C101 H106 0.930 . S
C102 C101 1.333 . S
C102 N104 1.350 . S
C102 H128 0.931 . S
N103 Co99 2.148 . S
N103 C100 1.301 . S
N103 C101 1.317 . S
N104 C100 1.328 . S
N104 C102 1.350 . S
H105 C100 0.930 . S
H106 C101 0.930 . S
C107 O108 1.224 . S
C107 O126 1.247 . S
O108 C107 1.224 . S
N109 Co99 2.128 . S
N109 C110 1.355 . S
N109 C112 1.311 . S
C110 N109 1.355 . S
C110 C111 1.363 . S
C110 H122 0.929 . S
C111 C110 1.363 . S
C111 N113 1.375 . S
C111 H129 0.931 . S
C112 N109 1.311 . S
C112 N113 1.347 . S
C112 H123 0.929 . S
N113 C111 1.375 . S
N113 C112 1.347 . S
C114 C117 1.365 . S
C114 N119 1.328 . S
C114 H120 0.929 . S
C115 C116 1.362 . S
C115 C118 1.378 . S
C115 H130 0.929 . S
C116 C115 1.362 . S
C116 C117 1.366 . S
C117 C114 1.365 . S
C117 C116 1.366 . S
C117 H131 0.930 . S
C118 C115 1.378 . S
C118 N119 1.315 . S
C118 H121 0.930 . S
N119 Co99 2.194 . S
N119 C114 1.328 . S
N119 C118 1.315 . S
H120 C114 0.929 . S
H121 C118 0.930 . S
H122 C110 0.929 . S
H123 C112 0.929 . S
O124 Co99 2.351 . S
O124 C127 1.244 . S
O125 Co99 2.155 . S
O125 C127 1.240 . S
O126 Co99 2.096 . S
O126 C107 1.247 . S
C127 O124 1.244 . S
C127 O125 1.240 . S
H128 C102 0.931 . S
H129 C111 0.931 . S
H130 C115 0.929 . S
H131 C117 0.930 . S
Co132 N136 2.148 . S
Co132 N142 2.128 . S
Co132 N152 2.194 . S
Co132 O157 2.351 . S
Co132 O158 2.155 . S
Co132 O159 2.096 . S
C133 N136 1.301 . S
C133 N137 1.328 . S
C133 H138 0.930 . S
C134 C135 1.333 . S
C134 N136 1.317 . S
C134 H139 0.930 . S
C135 C134 1.333 . S
C135 N137 1.350 . S
C135 H161 0.931 1_565 S
N136 Co132 2.148 . S
N136 C133 1.301 . S
N136 C134 1.317 . S
N137 C133 1.328 . S
N137 C135 1.350 . S
H138 C133 0.930 . S
H139 C134 0.930 . S
C140 O141 1.224 . S
C140 O159 1.247 . S
O141 C140 1.224 . S
N142 Co132 2.128 . S
N142 C143 1.355 . S
N142 C145 1.311 . S
C143 N142 1.355 . S
C143 C144 1.363 . S
C143 H155 0.929 . S
C144 C143 1.363 . S
C144 N146 1.375 . S
C144 H162 0.931 . S
C145 N142 1.311 . S
C145 N146 1.347 . S
C145 H156 0.929 . S
N146 C144 1.375 . S
N146 C145 1.347 . S
C147 C150 1.365 . S
C147 N152 1.328 . S
C147 H153 0.929 . S
C148 C149 1.362 . S
C148 C151 1.378 . S
C148 H163 0.929 . S
C149 C148 1.362 . S
C149 C150 1.366 . S
C150 C147 1.365 . S
C150 C149 1.366 . S
C150 H164 0.930 . S
C151 C148 1.378 . S
C151 N152 1.315 . S
C151 H154 0.930 . S
N152 Co132 2.194 . S
N152 C147 1.328 . S
N152 C151 1.315 . S
H153 C147 0.929 . S
H154 C151 0.930 . S
H155 C143 0.929 . S
H156 C145 0.929 . S
O157 Co132 2.351 . S
O157 C160 1.244 . S
O158 Co132 2.155 . S
O158 C160 1.240 . S
O159 Co132 2.096 . S
O159 C140 1.247 . S
C160 O157 1.244 . S
C160 O158 1.240 . S
H161 C135 0.931 1_545 S
H162 C144 0.931 . S
H163 C148 0.929 . S
H164 C150 0.930 . S
Co165 N169 2.148 . S
Co165 N175 2.128 . S
Co165 N185 2.194 . S
Co165 O190 2.351 . S
Co165 O191 2.155 . S
Co165 O192 2.096 . S
C166 N169 1.301 . S
C166 N170 1.328 . S
C166 H171 0.930 . S
C167 C168 1.333 . S
C167 N169 1.317 . S
C167 H172 0.930 . S
C168 C167 1.333 . S
C168 N170 1.350 . S
C168 H194 0.931 1_455 S
N169 Co165 2.148 . S
N169 C166 1.301 . S
N169 C167 1.317 . S
N170 C166 1.328 . S
N170 C168 1.350 . S
H171 C166 0.930 . S
H172 C167 0.930 . S
C173 O174 1.224 . S
C173 O192 1.247 . S
O174 C173 1.224 . S
N175 Co165 2.128 . S
N175 C176 1.355 . S
N175 C178 1.311 . S
C176 N175 1.355 . S
C176 C177 1.363 . S
C176 H188 0.929 . S
C177 C176 1.363 . S
C177 N179 1.375 . S
C177 H195 0.931 . S
C178 N175 1.311 . S
C178 N179 1.347 . S
C178 H189 0.929 . S
N179 C177 1.375 . S
N179 C178 1.347 . S
C180 C183 1.365 . S
C180 N185 1.328 . S
C180 H186 0.929 . S
C181 C182 1.362 . S
C181 C184 1.378 . S
C181 H196 0.929 . S
C182 C181 1.362 . S
C182 C183 1.366 . S
C183 C180 1.365 . S
C183 C182 1.366 . S
C183 H197 0.930 . S
C184 C181 1.378 . S
C184 N185 1.315 . S
C184 H187 0.930 . S
N185 Co165 2.194 . S
N185 C180 1.328 . S
N185 C184 1.315 . S
H186 C180 0.929 . S
H187 C184 0.930 . S
H188 C176 0.929 . S
H189 C178 0.929 . S
O190 Co165 2.351 . S
O190 C193 1.244 . S
O191 Co165 2.155 . S
O191 C193 1.240 . S
O192 Co165 2.096 . S
O192 C173 1.247 . S
C193 O190 1.244 . S
C193 O191 1.240 . S
H194 C168 0.931 1_655 S
H195 C177 0.931 . S
H196 C181 0.929 . S
H197 C183 0.930 . S
Co198 N202 2.148 . S
Co198 N208 2.128 . S
Co198 N218 2.194 . S
Co198 O223 2.351 . S
Co198 O224 2.155 . S
Co198 O225 2.096 . S
C199 N202 1.301 . S
C199 N203 1.328 . S
C199 H204 0.930 . S
C200 C201 1.333 . S
C200 N202 1.317 . S
C200 H205 0.930 . S
C201 C200 1.333 . S
C201 N203 1.350 . S
C201 H227 0.931 . S
N202 Co198 2.148 . S
N202 C199 1.301 . S
N202 C200 1.317 . S
N203 C199 1.328 . S
N203 C201 1.350 . S
H204 C199 0.930 . S
H205 C200 0.930 . S
C206 O207 1.224 . S
C206 O225 1.247 . S
O207 C206 1.224 . S
N208 Co198 2.128 . S
N208 C209 1.355 . S
N208 C211 1.311 . S
C209 N208 1.355 . S
C209 C210 1.363 . S
C209 H221 0.929 . S
C210 C209 1.363 . S
C210 N212 1.375 . S
C210 H228 0.931 . S
C211 N208 1.311 . S
C211 N212 1.347 . S
C211 H222 0.929 . S
N212 C210 1.375 . S
N212 C211 1.347 . S
C213 C216 1.365 . S
C213 N218 1.328 . S
C213 H219 0.929 . S
C214 C215 1.362 . S
C214 C217 1.378 . S
C214 H229 0.929 . S
C215 C214 1.362 . S
C215 C216 1.366 . S
C216 C213 1.365 . S
C216 C215 1.366 . S
C216 H230 0.930 . S
C217 C214 1.378 . S
C217 N218 1.315 . S
C217 H220 0.930 . S
N218 Co198 2.194 . S
N218 C213 1.328 . S
N218 C217 1.315 . S
H219 C213 0.929 . S
H220 C217 0.930 . S
H221 C209 0.929 . S
H222 C211 0.929 . S
O223 Co198 2.351 . S
O223 C226 1.244 . S
O224 Co198 2.155 . S
O224 C226 1.240 . S
O225 Co198 2.096 . S
O225 C206 1.247 . S
C226 O223 1.244 . S
C226 O224 1.240 . S
H227 C201 0.931 . S
H228 C210 0.931 . S
H229 C214 0.929 . S
H230 C216 0.930 . S
Co231 N235 2.148 . S
Co231 N241 2.128 . S
Co231 N251 2.194 . S
Co231 O256 2.351 . S
Co231 O257 2.155 . S
Co231 O258 2.096 . S
C232 N235 1.301 . S
C232 N236 1.328 . S
C232 H237 0.930 . S
C233 C234 1.333 . S
C233 N235 1.317 . S
C233 H238 0.930 . S
C234 C233 1.333 . S
C234 N236 1.350 . S
C234 H260 0.931 1_565 S
N235 Co231 2.148 . S
N235 C232 1.301 . S
N235 C233 1.317 . S
N236 C232 1.328 . S
N236 C234 1.350 . S
H237 C232 0.930 . S
H238 C233 0.930 . S
C239 O240 1.224 . S
C239 O258 1.247 . S
O240 C239 1.224 . S
N241 Co231 2.128 . S
N241 C242 1.355 . S
N241 C244 1.311 . S
C242 N241 1.355 . S
C242 C243 1.363 . S
C242 H254 0.929 . S
C243 C242 1.363 . S
C243 N245 1.375 . S
C243 H261 0.931 . S
C244 N241 1.311 . S
C244 N245 1.347 . S
C244 H255 0.929 . S
N245 C243 1.375 . S
N245 C244 1.347 . S
C246 C249 1.365 . S
C246 N251 1.328 . S
C246 H252 0.929 . S
C247 C248 1.362 . S
C247 C250 1.378 . S
C247 H262 0.929 . S
C248 C247 1.362 . S
C248 C249 1.366 . S
C249 C246 1.365 . S
C249 C248 1.366 . S
C249 H263 0.930 . S
C250 C247 1.378 . S
C250 N251 1.315 . S
C250 H253 0.930 . S
N251 Co231 2.194 . S
N251 C246 1.328 . S
N251 C250 1.315 . S
H252 C246 0.929 . S
H253 C250 0.930 . S
H254 C242 0.929 . S
H255 C244 0.929 . S
O256 Co231 2.351 . S
O256 C259 1.244 . S
O257 Co231 2.155 . S
O257 C259 1.240 . S
O258 Co231 2.096 . S
O258 C239 1.247 . S
C259 O256 1.244 . S
C259 O257 1.240 . S
H260 C234 0.931 1_545 S
H261 C243 0.931 . S
H262 C247 0.929 . S
H263 C249 0.930 . S
Co264 N268 2.148 . S
Co264 N274 2.128 . S
Co264 N284 2.194 . S
Co264 O289 2.351 . S
Co264 O290 2.155 . S
Co264 O291 2.096 . S
C265 N268 1.301 . S
C265 N269 1.328 . S
C265 H270 0.930 . S
C266 C267 1.333 . S
C266 N268 1.317 . S
C266 H271 0.930 . S
C267 C266 1.333 . S
C267 N269 1.350 . S
C267 H293 0.931 1_455 S
N268 Co264 2.148 . S
N268 C265 1.301 . S
N268 C266 1.317 . S
N269 C265 1.328 . S
N269 C267 1.350 . S
H270 C265 0.930 . S
H271 C266 0.930 . S
C272 O273 1.224 . S
C272 O291 1.247 . S
O273 C272 1.224 . S
N274 Co264 2.128 . S
N274 C275 1.355 . S
N274 C277 1.311 . S
C275 N274 1.355 . S
C275 C276 1.363 . S
C275 H287 0.929 . S
C276 C275 1.363 . S
C276 N278 1.375 . S
C276 H294 0.931 . S
C277 N274 1.311 . S
C277 N278 1.347 . S
C277 H288 0.929 . S
N278 C276 1.375 . S
N278 C277 1.347 . S
C279 C282 1.365 . S
C279 N284 1.328 . S
C279 H285 0.929 . S
C280 C281 1.362 . S
C280 C283 1.378 . S
C280 H295 0.929 . S
C281 C280 1.362 . S
C281 C282 1.366 . S
C282 C279 1.365 . S
C282 C281 1.366 . S
C282 H296 0.930 . S
C283 C280 1.378 . S
C283 N284 1.315 . S
C283 H286 0.930 . S
N284 Co264 2.194 . S
N284 C279 1.328 . S
N284 C283 1.315 . S
H285 C279 0.929 . S
H286 C283 0.930 . S
H287 C275 0.929 . S
H288 C277 0.929 . S
O289 Co264 2.351 . S
O289 C292 1.244 . S
O290 Co264 2.155 . S
O290 C292 1.240 . S
O291 Co264 2.096 . S
O291 C272 1.247 . S
C292 O289 1.244 . S
C292 O290 1.240 . S
H293 C267 0.931 1_655 S
H294 C276 0.931 . S
H295 C280 0.929 . S
H296 C282 0.930 . S
Co297 N301 2.148 . S
Co297 N307 2.128 . S
Co297 N317 2.194 . S
Co297 O322 2.351 . S
Co297 O323 2.155 . S
Co297 O324 2.096 . S
C298 N301 1.301 . S
C298 N302 1.328 . S
C298 H303 0.930 . S
C299 C300 1.333 . S
C299 N301 1.317 . S
C299 H304 0.930 . S
C300 C299 1.333 . S
C300 N302 1.350 . S
C300 H326 0.931 . S
N301 Co297 2.148 . S
N301 C298 1.301 . S
N301 C299 1.317 . S
N302 C298 1.328 . S
N302 C300 1.350 . S
H303 C298 0.930 . S
H304 C299 0.930 . S
C305 O306 1.224 . S
C305 O324 1.247 . S
O306 C305 1.224 . S
N307 Co297 2.128 . S
N307 C308 1.355 . S
N307 C310 1.311 . S
C308 N307 1.355 . S
C308 C309 1.363 . S
C308 H320 0.929 . S
C309 C308 1.363 . S
C309 N311 1.375 . S
C309 H327 0.931 . S
C310 N307 1.311 . S
C310 N311 1.347 . S
C310 H321 0.929 . S
N311 C309 1.375 . S
N311 C310 1.347 . S
C312 C315 1.365 . S
C312 N317 1.328 . S
C312 H318 0.929 . S
C313 C314 1.362 . S
C313 C316 1.378 . S
C313 H328 0.929 . S
C314 C313 1.362 . S
C314 C315 1.366 . S
C315 C312 1.365 . S
C315 C314 1.366 . S
C315 H329 0.930 . S
C316 C313 1.378 . S
C316 N317 1.315 . S
C316 H319 0.930 . S
N317 Co297 2.194 . S
N317 C312 1.328 . S
N317 C316 1.315 . S
H318 C312 0.929 . S
H319 C316 0.930 . S
H320 C308 0.929 . S
H321 C310 0.929 . S
O322 Co297 2.351 . S
O322 C325 1.244 . S
O323 Co297 2.155 . S
O323 C325 1.240 . S
O324 Co297 2.096 . S
O324 C305 1.247 . S
C325 O322 1.244 . S
C325 O323 1.240 . S
H326 C300 0.931 . S
H327 C309 0.931 . S
H328 C313 0.929 . S
H329 C315 0.930 . S
Co330 N334 2.148 . S
Co330 N340 2.128 . S
Co330 N350 2.194 . S
Co330 O355 2.351 . S
Co330 O356 2.155 . S
Co330 O357 2.096 . S
C331 N334 1.301 . S
C331 N335 1.328 . S
C331 H336 0.930 . S
C332 C333 1.333 . S
C332 N334 1.317 . S
C332 H337 0.930 . S
C333 C332 1.333 . S
C333 N335 1.350 . S
C333 H359 0.931 1_545 S
N334 Co330 2.148 . S
N334 C331 1.301 . S
N334 C332 1.317 . S
N335 C331 1.328 . S
N335 C333 1.350 . S
H336 C331 0.930 . S
H337 C332 0.930 . S
C338 O339 1.224 . S
C338 O357 1.247 . S
O339 C338 1.224 . S
N340 Co330 2.128 . S
N340 C341 1.355 . S
N340 C343 1.311 . S
C341 N340 1.355 . S
C341 C342 1.363 . S
C341 H353 0.929 . S
C342 C341 1.363 . S
C342 N344 1.375 . S
C342 H360 0.931 . S
C343 N340 1.311 . S
C343 N344 1.347 . S
C343 H354 0.929 . S
N344 C342 1.375 . S
N344 C343 1.347 . S
C345 C348 1.365 . S
C345 N350 1.328 . S
C345 H351 0.929 . S
C346 C347 1.362 . S
C346 C349 1.378 . S
C346 H361 0.929 . S
C347 C346 1.362 . S
C347 C348 1.366 . S
C348 C345 1.365 . S
C348 C347 1.366 . S
C348 H362 0.930 . S
C349 C346 1.378 . S
C349 N350 1.315 . S
C349 H352 0.930 . S
N350 Co330 2.194 . S
N350 C345 1.328 . S
N350 C349 1.315 . S
H351 C345 0.929 . S
H352 C349 0.930 . S
H353 C341 0.929 . S
H354 C343 0.929 . S
O355 Co330 2.351 . S
O355 C358 1.244 . S
O356 Co330 2.155 . S
O356 C358 1.240 . S
O357 Co330 2.096 . S
O357 C338 1.247 . S
C358 O355 1.244 . S
C358 O356 1.240 . S
H359 C333 0.931 1_565 S
H360 C342 0.931 . S
H361 C346 0.929 . S
H362 C348 0.930 . S
Co363 N367 2.148 . S
Co363 N373 2.128 . S
Co363 N383 2.194 . S
Co363 O388 2.351 . S
Co363 O389 2.155 . S
Co363 O390 2.096 . S
C364 N367 1.301 . S
C364 N368 1.328 . S
C364 H369 0.930 . S
C365 C366 1.333 . S
C365 N367 1.317 . S
C365 H370 0.930 . S
C366 C365 1.333 . S
C366 N368 1.350 . S
C366 H392 0.931 1_655 S
N367 Co363 2.148 . S
N367 C364 1.301 . S
N367 C365 1.317 . S
N368 C364 1.328 . S
N368 C366 1.350 . S
H369 C364 0.930 . S
H370 C365 0.930 . S
C371 O372 1.224 . S
C371 O390 1.247 . S
O372 C371 1.224 . S
N373 Co363 2.128 . S
N373 C374 1.355 . S
N373 C376 1.311 . S
C374 N373 1.355 . S
C374 C375 1.363 . S
C374 H386 0.929 . S
C375 C374 1.363 . S
C375 N377 1.375 . S
C375 H393 0.931 . S
C376 N373 1.311 . S
C376 N377 1.347 . S
C376 H387 0.929 . S
N377 C375 1.375 . S
N377 C376 1.347 . S
C378 C381 1.365 . S
C378 N383 1.328 . S
C378 H384 0.929 . S
C379 C380 1.362 . S
C379 C382 1.378 . S
C379 H394 0.929 . S
C380 C379 1.362 . S
C380 C381 1.366 . S
C381 C378 1.365 . S
C381 C380 1.366 . S
C381 H395 0.930 . S
C382 C379 1.378 . S
C382 N383 1.315 . S
C382 H385 0.930 . S
N383 Co363 2.194 . S
N383 C378 1.328 . S
N383 C382 1.315 . S
H384 C378 0.929 . S
H385 C382 0.930 . S
H386 C374 0.929 . S
H387 C376 0.929 . S
O388 Co363 2.351 . S
O388 C391 1.244 . S
O389 Co363 2.155 . S
O389 C391 1.240 . S
O390 Co363 2.096 . S
O390 C371 1.247 . S
C391 O388 1.244 . S
C391 O389 1.240 . S
H392 C366 0.931 1_455 S
H393 C375 0.931 . S
H394 C379 0.929 . S
H395 C381 0.930 . S
C396 C397 1.363 . S
C396 C402 1.379 . S
C396 N404 1.356 . S
C397 C396 1.363 . S
C397 C403 1.363 . S
C398 C399 1.363 . S
C398 C403 1.379 . S
C398 N405 1.356 . S
C399 C398 1.363 . S
C399 C402 1.363 . S
N400 C402 1.356 . S
N400 H412 0.984 . S
N400 H413 0.985 . S
N401 C403 1.356 . S
N401 H406 0.984 . S
N401 H407 0.985 . S
C402 C396 1.379 . S
C402 C399 1.363 . S
C402 N400 1.356 . S
C403 C397 1.363 . S
C403 C398 1.379 . S
C403 N401 1.356 . S
N404 C396 1.356 . S
N404 H410 0.984 . S
N404 H411 0.984 . S
N405 C398 1.356 . S
N405 H408 0.984 . S
N405 H409 0.985 . S
H406 N401 0.984 . S
H407 N401 0.985 . S
H408 N405 0.984 . S
H409 N405 0.985 . S
H410 N404 0.984 . S
H411 N404 0.984 . S
H412 N400 0.984 . S
H413 N400 0.985 . S
C414 C415 1.363 . S
C414 C420 1.379 . S
C414 N422 1.356 . S
C415 C414 1.363 . S
C415 C421 1.363 . S
C416 C417 1.363 . S
C416 C421 1.379 . S
C416 N423 1.356 . S
C417 C416 1.363 . S
C417 C420 1.363 . S
N418 C420 1.356 . S
N418 H430 0.984 . S
N418 H431 0.985 . S
N419 C421 1.356 . S
N419 H424 0.984 . S
N419 H425 0.985 . S
C420 C414 1.379 . S
C420 C417 1.363 . S
C420 N418 1.356 . S
C421 C415 1.363 . S
C421 C416 1.379 . S
C421 N419 1.356 . S
N422 C414 1.356 . S
N422 H428 0.984 . S
N422 H429 0.984 . S
N423 C416 1.356 . S
N423 H426 0.984 . S
N423 H427 0.985 . S
H424 N419 0.984 . S
H425 N419 0.985 . S
H426 N423 0.984 . S
H427 N423 0.985 . S
H428 N422 0.984 . S
H429 N422 0.984 . S
H430 N418 0.984 . S
H431 N418 0.985 . S
C432 C433 1.363 . S
C432 C438 1.379 . S
C432 N440 1.356 . S
C433 C432 1.363 . S
C433 C439 1.363 . S
C434 C435 1.363 . S
C434 C439 1.379 . S
C434 N441 1.356 . S
C435 C434 1.363 . S
C435 C438 1.363 . S
N436 C438 1.356 . S
N436 H448 0.984 . S
N436 H449 0.985 . S
N437 C439 1.356 . S
N437 H442 0.984 . S
N437 H443 0.985 . S
C438 C432 1.379 . S
C438 C435 1.363 . S
C438 N436 1.356 . S
C439 C433 1.363 . S
C439 C434 1.379 . S
C439 N437 1.356 . S
N440 C432 1.356 . S
N440 H446 0.984 . S
N440 H447 0.984 . S
N441 C434 1.356 . S
N441 H444 0.984 . S
N441 H445 0.985 . S
H442 N437 0.984 . S
H443 N437 0.985 . S
H444 N441 0.984 . S
H445 N441 0.985 . S
H446 N440 0.984 . S
H447 N440 0.984 . S
H448 N436 0.984 . S
H449 N436 0.985 . S
C450 C451 1.363 . S
C450 C456 1.379 . S
C450 N458 1.356 . S
C451 C450 1.363 . S
C451 C457 1.363 . S
C452 C453 1.363 . S
C452 C457 1.379 . S
C452 N459 1.356 . S
C453 C452 1.363 . S
C453 C456 1.363 . S
N454 C456 1.356 . S
N454 H466 0.984 . S
N454 H467 0.985 . S
N455 C457 1.356 . S
N455 H460 0.984 . S
N455 H461 0.985 . S
C456 C450 1.379 . S
C456 C453 1.363 . S
C456 N454 1.356 . S
C457 C451 1.363 . S
C457 C452 1.379 . S
C457 N455 1.356 . S
N458 C450 1.356 . S
N458 H464 0.984 . S
N458 H465 0.984 . S
N459 C452 1.356 . S
N459 H462 0.984 . S
N459 H463 0.985 . S
H460 N455 0.984 . S
H461 N455 0.985 . S
H462 N459 0.984 . S
H463 N459 0.985 . S
H464 N458 0.984 . S
H465 N458 0.984 . S
H466 N454 0.984 . S
H467 N454 0.985 . S
C468 C469 1.363 . S
C468 C474 1.379 . S
C468 N476 1.356 . S
C469 C468 1.363 . S
C469 C475 1.363 . S
C470 C471 1.363 . S
C470 C475 1.379 . S
C470 N477 1.356 . S
C471 C470 1.363 . S
C471 C474 1.363 . S
N472 C474 1.356 . S
N472 H484 0.984 . S
N472 H485 0.985 . S
N473 C475 1.356 . S
N473 H478 0.984 . S
N473 H479 0.985 . S
C474 C468 1.379 . S
C474 C471 1.363 . S
C474 N472 1.356 . S
C475 C469 1.363 . S
C475 C470 1.379 . S
C475 N473 1.356 . S
N476 C468 1.356 . S
N476 H482 0.984 . S
N476 H483 0.984 . S
N477 C470 1.356 . S
N477 H480 0.984 . S
N477 H481 0.985 . S
H478 N473 0.984 . S
H479 N473 0.985 . S
H480 N477 0.984 . S
H481 N477 0.985 . S
H482 N476 0.984 . S
H483 N476 0.984 . S
H484 N472 0.984 . S
H485 N472 0.985 . S
C486 C487 1.363 . S
C486 C492 1.379 . S
C486 N494 1.356 . S
C487 C486 1.363 . S
C487 C493 1.363 . S
C488 C489 1.363 . S
C488 C493 1.379 . S
C488 N495 1.356 . S
C489 C488 1.363 . S
C489 C492 1.363 . S
N490 C492 1.356 . S
N490 H502 0.984 . S
N490 H503 0.985 . S
N491 C493 1.356 . S
N491 H496 0.984 . S
N491 H497 0.985 . S
C492 C486 1.379 . S
C492 C489 1.363 . S
C492 N490 1.356 . S
C493 C487 1.363 . S
C493 C488 1.379 . S
C493 N491 1.356 . S
N494 C486 1.356 . S
N494 H500 0.984 . S
N494 H501 0.984 . S
N495 C488 1.356 . S
N495 H498 0.984 . S
N495 H499 0.985 . S
H496 N491 0.984 . S
H497 N491 0.985 . S
H498 N495 0.984 . S
H499 N495 0.985 . S
H500 N494 0.984 . S
H501 N494 0.984 . S
H502 N490 0.984 . S
H503 N490 0.985 . S
C504 C505 1.363 . S
C504 C510 1.379 . S
C504 N512 1.356 . S
C505 C504 1.363 . S
C505 C511 1.363 . S
C506 C507 1.363 . S
C506 C511 1.379 . S
C506 N513 1.356 . S
C507 C506 1.363 . S
C507 C510 1.363 . S
N508 C510 1.356 . S
N508 H520 0.984 . S
N508 H521 0.985 . S
N509 C511 1.356 . S
N509 H514 0.984 . S
N509 H515 0.985 . S
C510 C504 1.379 . S
C510 C507 1.363 . S
C510 N508 1.356 . S
C511 C505 1.363 . S
C511 C506 1.379 . S
C511 N509 1.356 . S
N512 C504 1.356 . S
N512 H518 0.984 . S
N512 H519 0.984 . S
N513 C506 1.356 . S
N513 H516 0.984 . S
N513 H517 0.985 . S
H514 N509 0.984 . S
H515 N509 0.985 . S
H516 N513 0.984 . S
H517 N513 0.985 . S
H518 N512 0.984 . S
H519 N512 0.984 . S
H520 N508 0.984 . S
H521 N508 0.985 . S
C522 C523 1.363 . S
C522 C528 1.379 . S
C522 N530 1.356 . S
C523 C522 1.363 . S
C523 C529 1.363 . S
C524 C525 1.363 . S
C524 C529 1.379 . S
C524 N531 1.356 . S
C525 C524 1.363 . S
C525 C528 1.363 . S
N526 C528 1.356 . S
N526 H538 0.984 . S
N526 H539 0.985 . S
N527 C529 1.356 . S
N527 H532 0.984 . S
N527 H533 0.985 . S
C528 C522 1.379 . S
C528 C525 1.363 . S
C528 N526 1.356 . S
C529 C523 1.363 . S
C529 C524 1.379 . S
C529 N527 1.356 . S
N530 C522 1.356 . S
N530 H536 0.984 . S
N530 H537 0.984 . S
N531 C524 1.356 . S
N531 H534 0.984 . S
N531 H535 0.985 . S
H532 N527 0.984 . S
H533 N527 0.985 . S
H534 N531 0.984 . S
H535 N531 0.985 . S
H536 N530 0.984 . S
H537 N530 0.984 . S
H538 N526 0.984 . S
H539 N526 0.985 . S
C540 C541 1.363 . S
C540 C546 1.379 . S
C540 N548 1.356 . S
C541 C540 1.363 . S
C541 C547 1.363 . S
C542 C543 1.363 . S
C542 C547 1.379 . S
C542 N549 1.356 . S
C543 C542 1.363 . S
C543 C546 1.363 . S
N544 C546 1.356 . S
N544 H556 0.984 . S
N544 H557 0.985 . S
N545 C547 1.356 . S
N545 H550 0.984 . S
N545 H551 0.985 . S
C546 C540 1.379 . S
C546 C543 1.363 . S
C546 N544 1.356 . S
C547 C541 1.363 . S
C547 C542 1.379 . S
C547 N545 1.356 . S
N548 C540 1.356 . S
N548 H554 0.984 . S
N548 H555 0.984 . S
N549 C542 1.356 . S
N549 H552 0.984 . S
N549 H553 0.985 . S
H550 N545 0.984 . S
H551 N545 0.985 . S
H552 N549 0.984 . S
H553 N549 0.985 . S
H554 N548 0.984 . S
H555 N548 0.984 . S
H556 N544 0.984 . S
H557 N544 0.985 . S
C558 C559 1.363 . S
C558 C564 1.379 . S
C558 N566 1.356 . S
C559 C558 1.363 . S
C559 C565 1.363 . S
C560 C561 1.363 . S
C560 C565 1.379 . S
C560 N567 1.356 . S
C561 C560 1.363 . S
C561 C564 1.363 . S
N562 C564 1.356 . S
N562 H574 0.984 . S
N562 H575 0.985 . S
N563 C565 1.356 . S
N563 H568 0.984 . S
N563 H569 0.985 . S
C564 C558 1.379 . S
C564 C561 1.363 . S
C564 N562 1.356 . S
C565 C559 1.363 . S
C565 C560 1.379 . S
C565 N563 1.356 . S
N566 C558 1.356 . S
N566 H572 0.984 . S
N566 H573 0.984 . S
N567 C560 1.356 . S
N567 H570 0.984 . S
N567 H571 0.985 . S
H568 N563 0.984 . S
H569 N563 0.985 . S
H570 N567 0.984 . S
H571 N567 0.985 . S
H572 N566 0.984 . S
H573 N566 0.984 . S
H574 N562 0.984 . S
H575 N562 0.985 . S
C576 C577 1.363 . S
C576 C582 1.379 . S
C576 N584 1.356 . S
C577 C576 1.363 . S
C577 C583 1.363 . S
C578 C579 1.363 . S
C578 C583 1.379 . S
C578 N585 1.356 . S
C579 C578 1.363 . S
C579 C582 1.363 . S
N580 C582 1.356 . S
N580 H592 0.984 . S
N580 H593 0.985 . S
N581 C583 1.356 . S
N581 H586 0.984 . S
N581 H587 0.985 . S
C582 C576 1.379 . S
C582 C579 1.363 . S
C582 N580 1.356 . S
C583 C577 1.363 . S
C583 C578 1.379 . S
C583 N581 1.356 . S
N584 C576 1.356 . S
N584 H590 0.984 . S
N584 H591 0.984 . S
N585 C578 1.356 . S
N585 H588 0.984 . S
N585 H589 0.985 . S
H586 N581 0.984 . S
H587 N581 0.985 . S
H588 N585 0.984 . S
H589 N585 0.985 . S
H590 N584 0.984 . S
H591 N584 0.984 . S
H592 N580 0.984 . S
H593 N580 0.985 . S
C594 C595 1.363 . S
C594 C600 1.379 . S
C594 N602 1.356 . S
C595 C594 1.363 . S
C595 C601 1.363 . S
C596 C597 1.363 . S
C596 C601 1.379 . S
C596 N603 1.356 . S
C597 C596 1.363 . S
C597 C600 1.363 . S
N598 C600 1.356 . S
N598 H610 0.984 . S
N598 H611 0.985 . S
N599 C601 1.356 . S
N599 H604 0.984 . S
N599 H605 0.985 . S
C600 C594 1.379 . S
C600 C597 1.363 . S
C600 N598 1.356 . S
C601 C595 1.363 . S
C601 C596 1.379 . S
C601 N599 1.356 . S
N602 C594 1.356 . S
N602 H608 0.984 . S
N602 H609 0.984 . S
N603 C596 1.356 . S
N603 H606 0.984 . S
N603 H607 0.985 . S
H604 N599 0.984 . S
H605 N599 0.985 . S
H606 N603 0.984 . S
H607 N603 0.985 . S
H608 N602 0.984 . S
H609 N602 0.984 . S
H610 N598 0.984 . S
H611 N598 0.985 . S
C612 C613 1.363 . S
C612 C618 1.379 . S
C612 N620 1.356 . S
C613 C612 1.363 . S
C613 C619 1.363 1_554 S
C614 C615 1.363 . S
C614 C619 1.379 . S
C614 N621 1.356 . S
C615 C614 1.363 . S
C615 C618 1.363 1_556 S
N616 C618 1.356 1_565 S
N616 H628 0.984 . S
N616 H629 0.985 1_554 S
N617 C619 1.357 . S
N617 H622 0.980 1_556 S
N617 H623 0.988 . S
C618 C612 1.379 . S
C618 C615 1.363 1_554 S
C618 N616 1.356 1_545 S
C619 C613 1.363 1_556 S
C619 C614 1.379 . S
C619 N617 1.357 . S
N620 C612 1.356 . S
N620 H626 0.984 . S
N620 H627 0.984 . S
N621 C614 1.356 . S
N621 H624 0.984 . S
N621 H625 0.985 . S
H622 N617 0.980 1_554 S
H623 N617 0.988 . S
H624 N621 0.984 . S
H625 N621 0.985 . S
H626 N620 0.984 . S
H627 N620 0.984 . S
H628 N616 0.984 . S
H629 N616 0.985 1_556 S
C630 C631 1.363 . S
C630 C636 1.379 1_554 S
C630 N638 1.356 . S
C631 C630 1.363 . S
C631 C637 1.363 . S
C632 C633 1.363 . S
C632 C637 1.379 1_556 S
C632 N639 1.356 . S
C633 C632 1.363 . S
C633 C636 1.363 . S
N634 C636 1.356 . S
N634 H646 0.984 . S
N634 H647 0.985 1_655 S
N635 C637 1.356 . S
N635 H640 0.984 . S
N635 H641 0.985 . S
C636 C630 1.379 1_556 S
C636 C633 1.363 . S
C636 N634 1.356 . S
C637 C631 1.363 . S
C637 C632 1.379 1_554 S
C637 N635 1.356 . S
N638 C630 1.356 . S
N638 H644 0.984 . S
N638 H645 0.984 . S
N639 C632 1.356 . S
N639 H642 0.984 . S
N639 H643 0.985 . S
H640 N635 0.984 . S
H641 N635 0.985 . S
H642 N639 0.984 . S
H643 N639 0.985 . S
H644 N638 0.984 . S
H645 N638 0.984 . S
H646 N634 0.984 . S
H647 N634 0.985 1_455 S
C648 C649 1.390 . S
C648 C654 1.355 1_554 S
C648 N656 1.363 . S
C649 C648 1.390 . S
C649 C655 1.363 . S
C650 C651 1.363 1_554 S
C650 C655 1.379 . S
C650 N657 1.351 1_554 S
C651 C650 1.363 1_556 S
C651 C654 1.363 . S
N652 C654 1.356 . S
N652 H664 0.984 . S
N652 H665 0.985 . S
N653 C655 1.356 . S
N653 H658 0.984 . S
N653 H659 0.985 . S
C654 C648 1.355 1_556 S
C654 C651 1.363 . S
C654 N652 1.356 . S
C655 C649 1.363 . S
C655 C650 1.379 . S
C655 N653 1.356 . S
N656 C648 1.363 . S
N656 H662 0.984 1_554 S
N656 H663 0.984 . S
N657 C650 1.351 1_556 S
N657 H660 1.011 . S
N657 H661 0.965 1_556 S
H658 N653 0.984 . S
H659 N653 0.985 . S
H660 N657 1.011 . S
H661 N657 0.965 1_554 S
H662 N656 0.984 1_556 S
H663 N656 0.984 . S
H664 N652 0.984 . S
H665 N652 0.985 . S
C666 C667 1.363 . S
C666 C672 1.379 . S
C666 N674 1.356 . S
C667 C666 1.363 . S
C667 C673 1.363 . S
C668 C669 1.363 . S
C668 C673 1.379 . S
C668 N675 1.356 . S
C669 C668 1.363 . S
C669 C672 1.363 . S
N670 C672 1.356 . S
N670 H682 0.984 . S
N670 H683 0.985 . S
N671 C673 1.356 . S
N671 H676 0.984 1_455 S
N671 H677 0.985 . S
C672 C666 1.379 . S
C672 C669 1.363 . S
C672 N670 1.356 . S
C673 C667 1.363 . S
C673 C668 1.379 . S
C673 N671 1.356 . S
N674 C666 1.356 . S
N674 H680 0.984 . S
N674 H681 0.984 . S
N675 C668 1.356 . S
N675 H678 0.984 . S
N675 H679 0.985 . S
H676 N671 0.984 1_655 S
H677 N671 0.985 . S
H678 N675 0.984 . S
H679 N675 0.985 . S
H680 N674 0.984 . S
H681 N674 0.984 . S
H682 N670 0.984 . S
H683 N670 0.985 . S
C684 C685 1.363 . S
C684 C690 1.379 . S
C684 N692 1.356 . S
C685 C684 1.363 . S
C685 C691 1.363 . S
C686 C687 1.363 . S
C686 C691 1.379 . S
C686 N693 1.356 . S
C687 C686 1.363 . S
C687 C690 1.363 . S
N688 C690 1.356 . S
N688 H700 0.984 . S
N688 H701 0.985 . S
N689 C691 1.356 . S
N689 H694 0.984 . S
N689 H695 0.985 . S
C690 C684 1.379 . S
C690 C687 1.363 . S
C690 N688 1.356 . S
C691 C685 1.363 . S
C691 C686 1.379 . S
C691 N689 1.356 . S
N692 C684 1.356 . S
N692 H698 0.984 . S
N692 H699 0.984 . S
N693 C686 1.356 . S
N693 H696 0.984 . S
N693 H697 0.985 . S
H694 N689 0.984 . S
H695 N689 0.985 . S
H696 N693 0.984 . S
H697 N693 0.985 . S
H698 N692 0.984 . S
H699 N692 0.984 . S
H700 N688 0.984 . S
H701 N688 0.985 . S
C702 C703 1.363 . S
C702 C708 1.379 . S
C702 N710 1.356 . S
C703 C702 1.363 . S
C703 C709 1.363 . S
C704 C705 1.363 . S
C704 C709 1.379 . S
C704 N711 1.356 . S
C705 C704 1.363 . S
C705 C708 1.363 . S
N706 C708 1.356 . S
N706 H718 0.984 . S
N706 H719 0.985 . S
N707 C709 1.356 1_545 S
N707 H712 0.984 . S
N707 H713 0.985 . S
C708 C702 1.379 . S
C708 C705 1.363 . S
C708 N706 1.356 . S
C709 C703 1.363 . S
C709 C704 1.379 . S
C709 N707 1.356 1_565 S
N710 C702 1.356 . S
N710 H716 0.984 . S
N710 H717 0.984 . S
N711 C704 1.356 . S
N711 H714 0.984 . S
N711 H715 0.985 . S
H712 N707 0.984 . S
H713 N707 0.985 . S
H714 N711 0.984 . S
H715 N711 0.985 . S
H716 N710 0.984 . S
H717 N710 0.984 . S
H718 N706 0.984 . S
H719 N706 0.985 . S
C720 C721 1.363 1_556 S
C720 C726 1.379 . S
C720 N728 1.356 1_566 S
C721 C720 1.363 1_554 S
C721 C727 1.363 . S
C722 C723 1.363 . S
C722 C727 1.379 1_556 S
C722 N729 1.356 . S
C723 C722 1.363 . S
C723 C726 1.363 . S
N724 C726 1.356 . S
N724 H736 0.984 . S
N724 H737 0.985 . S
N725 C727 1.356 . S
N725 H730 0.984 . S
N725 H731 0.985 . S
C726 C720 1.379 . S
C726 C723 1.363 . S
C726 N724 1.356 . S
C727 C721 1.363 . S
C727 C722 1.379 1_554 S
C727 N725 1.356 . S
N728 C720 1.356 1_544 S
N728 H734 0.984 1_554 S
N728 H735 0.984 . S
N729 C722 1.356 . S
N729 H732 0.984 . S
N729 H733 0.985 1_556 S
H730 N725 0.984 . S
H731 N725 0.985 . S
H732 N729 0.984 . S
H733 N729 0.985 1_554 S
H734 N728 0.984 1_556 S
H735 N728 0.984 . S
H736 N724 0.984 . S
H737 N724 0.985 . S
C738 C739 1.363 1_556 S
C738 C744 1.379 . S
C738 N746 1.356 1_455 S
C739 C738 1.363 1_554 S
C739 C745 1.363 . S
C740 C741 1.334 1_554 S
C740 C745 1.403 . S
C740 N747 1.352 1_554 S
C741 C740 1.334 1_556 S
C741 C744 1.363 . S
N742 C744 1.356 . S
N742 H754 0.984 . S
N742 H755 0.985 . S
N743 C745 1.356 . S
N743 H748 0.984 . S
N743 H749 0.985 . S
C744 C738 1.379 . S
C744 C741 1.363 . S
C744 N742 1.356 . S
C745 C739 1.363 . S
C745 C740 1.403 . S
C745 N743 1.356 . S
N746 C738 1.356 1_655 S
N746 H752 0.984 . S
N746 H753 0.984 1_556 S
N747 C740 1.352 1_556 S
N747 H750 0.984 . S
N747 H751 0.985 1_556 S
H748 N743 0.984 . S
H749 N743 0.985 . S
H750 N747 0.984 . S
H751 N747 0.985 1_554 S
H752 N746 0.984 . S
H753 N746 0.984 1_554 S
H754 N742 0.984 . S
H755 N742 0.985 . S
C756 C757 1.363 . S
C756 C762 1.379 . S
C756 N764 1.356 . S
C757 C756 1.363 . S
C757 C763 1.363 . S
C758 C759 1.363 . S
C758 C763 1.379 1_554 S
C758 N765 1.356 . S
C759 C758 1.363 . S
C759 C762 1.363 1_554 S
N760 C762 1.356 1_554 S
N760 H772 0.984 1_554 S
N760 H773 0.985 . S
N761 C763 1.356 . S
N761 H766 0.984 . S
N761 H767 0.974 1_556 S
C762 C756 1.379 . S
C762 C759 1.363 1_556 S
C762 N760 1.356 1_556 S
C763 C757 1.363 . S
C763 C758 1.379 1_556 S
C763 N761 1.356 . S
N764 C756 1.356 . S
N764 H770 0.984 . S
N764 H771 0.984 . S
N765 C758 1.356 . S
N765 H768 0.984 . S
N765 H769 0.985 . S
H766 N761 0.984 . S
H767 N761 0.974 1_554 S
H768 N765 0.984 . S
H769 N765 0.985 . S
H770 N764 0.984 . S
H771 N764 0.984 . S
H772 N760 0.984 1_556 S
H773 N760 0.985 . S
C774 C775 1.363 . S
C774 C780 1.379 . S
C774 N782 1.356 . S
C775 C774 1.363 . S
C775 C781 1.363 . S
C776 C777 1.363 . S
C776 C781 1.379 . S
C776 N783 1.356 . S
C777 C776 1.363 . S
C777 C780 1.363 . S
N778 C780 1.356 . S
N778 H790 0.984 . S
N778 H791 0.985 . S
N779 C781 1.356 1_455 S
N779 H784 0.984 . S
N779 H785 0.985 . S
C780 C774 1.379 . S
C780 C777 1.363 . S
C780 N778 1.356 . S
C781 C775 1.363 . S
C781 C776 1.379 . S
C781 N779 1.356 1_655 S
N782 C774 1.356 . S
N782 H788 0.984 . S
N782 H789 0.984 . S
N783 C776 1.356 . S
N783 H786 0.984 . S
N783 H787 0.985 . S
H784 N779 0.984 . S
H785 N779 0.985 . S
H786 N783 0.984 . S
H787 N783 0.985 . S
H788 N782 0.984 . S
H789 N782 0.984 . S
H790 N778 0.984 . S
H791 N778 0.985 . S
C792 C793 1.363 . S
C792 C798 1.379 . S
C792 N800 1.356 . S
C793 C792 1.363 . S
C793 C799 1.363 . S
C794 C795 1.363 . S
C794 C799 1.379 . S
C794 N801 1.356 . S
C795 C794 1.363 . S
C795 C798 1.363 . S
N796 C798 1.356 . S
N796 H808 0.984 . S
N796 H809 0.985 . S
N797 C799 1.356 . S
N797 H802 0.984 . S
N797 H803 0.985 . S
C798 C792 1.379 . S
C798 C795 1.363 . S
C798 N796 1.356 . S
C799 C793 1.363 . S
C799 C794 1.379 . S
C799 N797 1.356 . S
N800 C792 1.356 . S
N800 H806 0.984 . S
N800 H807 0.984 . S
N801 C794 1.356 . S
N801 H804 0.984 . S
N801 H805 0.985 . S
H802 N797 0.984 . S
H803 N797 0.985 . S
H804 N801 0.984 . S
H805 N801 0.985 . S
H806 N800 0.984 . S
H807 N800 0.984 . S
H808 N796 0.984 . S
H809 N796 0.985 . S
C810 C811 1.363 . S
C810 C816 1.379 . S
C810 N818 1.356 . S
C811 C810 1.363 . S
C811 C817 1.363 . S
C812 C813 1.363 . S
C812 C817 1.379 . S
C812 N819 1.356 . S
C813 C812 1.363 . S
C813 C816 1.363 . S
N814 C816 1.356 1_565 S
N814 H826 0.984 . S
N814 H827 0.985 . S
N815 C817 1.356 . S
N815 H820 0.984 . S
N815 H821 0.985 . S
C816 C810 1.379 . S
C816 C813 1.363 . S
C816 N814 1.356 1_545 S
C817 C811 1.363 . S
C817 C812 1.379 . S
C817 N815 1.356 . S
N818 C810 1.356 . S
N818 H824 0.984 . S
N818 H825 0.984 . S
N819 C812 1.356 . S
N819 H822 0.984 . S
N819 H823 0.985 . S
H820 N815 0.984 . S
H821 N815 0.985 . S
H822 N819 0.984 . S
H823 N819 0.985 . S
H824 N818 0.984 . S
H825 N818 0.984 . S
H826 N814 0.984 . S
H827 N814 0.985 . S
C828 C829 1.363 . S
C828 C834 1.379 . S
C828 N836 1.356 . S
C829 C828 1.363 . S
C829 C835 1.363 . S
C830 C831 1.363 . S
C830 C835 1.379 . S
C830 N837 1.356 . S
C831 C830 1.363 . S
C831 C834 1.363 . S
N832 C834 1.356 . S
N832 H844 0.984 . S
N832 H845 0.985 . S
N833 C835 1.356 . S
N833 H838 0.984 . S
N833 H839 0.985 . S
C834 C828 1.379 . S
C834 C831 1.363 . S
C834 N832 1.356 . S
C835 C829 1.363 . S
C835 C830 1.379 . S
C835 N833 1.356 . S
N836 C828 1.356 . S
N836 H842 0.984 . S
N836 H843 0.984 . S
N837 C830 1.356 . S
N837 H840 0.984 . S
N837 H841 0.985 . S
H838 N833 0.984 . S
H839 N833 0.985 . S
H840 N837 0.984 . S
H841 N837 0.985 . S
H842 N836 0.984 . S
H843 N836 0.984 . S
H844 N832 0.984 . S
H845 N832 0.985 . S
C846 C847 1.363 . S
C846 C852 1.379 . S
C846 N854 1.356 . S
C847 C846 1.363 . S
C847 C853 1.363 1_545 S
C848 C849 1.363 . S
C848 C853 1.379 . S
C848 N855 1.356 . S
C849 C848 1.363 . S
C849 C852 1.363 1_565 S
N850 C852 1.356 . S
N850 H862 0.984 . S
N850 H863 0.985 1_545 S
N851 C853 1.356 . S
N851 H856 0.984 1_565 S
N851 H857 0.985 . S
C852 C846 1.379 . S
C852 C849 1.363 1_545 S
C852 N850 1.356 . S
C853 C847 1.363 1_565 S
C853 C848 1.379 . S
C853 N851 1.356 . S
N854 C846 1.356 . S
N854 H860 0.984 . S
N854 H861 0.984 . S
N855 C848 1.356 . S
N855 H858 0.984 . S
N855 H859 0.985 . S
H856 N851 0.984 1_545 S
H857 N851 0.985 . S
H858 N855 0.984 . S
H859 N855 0.985 . S
H860 N854 0.984 . S
H861 N854 0.984 . S
H862 N850 0.984 . S
H863 N850 0.985 1_565 S
C864 C865 1.363 . S
C864 C870 1.379 . S
C864 N872 1.356 . S
C865 C864 1.363 . S
C865 C871 1.363 1_655 S
C866 C867 1.363 . S
C866 C871 1.379 . S
C866 N873 1.356 . S
C867 C866 1.363 . S
C867 C870 1.363 1_455 S
N868 C870 1.356 . S
N868 H880 0.984 . S
N868 H881 0.985 1_655 S
N869 C871 1.356 . S
N869 H874 0.984 1_455 S
N869 H875 0.985 . S
C870 C864 1.379 . S
C870 C867 1.363 1_655 S
C870 N868 1.356 . S
C871 C865 1.363 1_455 S
C871 C866 1.379 . S
C871 N869 1.356 . S
N872 C864 1.356 . S
N872 H878 0.984 . S
N872 H879 0.984 . S
N873 C866 1.356 . S
N873 H876 0.984 . S
N873 H877 0.985 . S
H874 N869 0.984 1_655 S
H875 N869 0.985 . S
H876 N873 0.984 . S
H877 N873 0.985 . S
H878 N872 0.984 . S
H879 N872 0.984 . S
H880 N868 0.984 . S
H881 N868 0.985 1_455 S
C882 C883 1.363 . S
C882 C888 1.379 . S
C882 N890 1.356 . S
C883 C882 1.363 . S
C883 C889 1.363 . S
C884 C885 1.363 . S
C884 C889 1.379 . S
C884 N891 1.356 . S
C885 C884 1.363 . S
C885 C888 1.363 . S
N886 C888 1.356 . S
N886 H898 0.984 . S
N886 H899 0.985 . S
N887 C889 1.356 . S
N887 H892 0.984 . S
N887 H893 0.985 . S
C888 C882 1.379 . S
C888 C885 1.363 . S
C888 N886 1.356 . S
C889 C883 1.363 . S
C889 C884 1.379 . S
C889 N887 1.356 . S
N890 C882 1.356 . S
N890 H896 0.984 . S
N890 H897 0.984 . S
N891 C884 1.356 . S
N891 H894 0.984 . S
N891 H895 0.985 . S
H892 N887 0.984 . S
H893 N887 0.985 . S
H894 N891 0.984 . S
H895 N891 0.985 . S
H896 N890 0.984 . S
H897 N890 0.984 . S
H898 N886 0.984 . S
H899 N886 0.985 . S
C900 C901 1.387 . S
C900 C906 1.363 1_565 S
C900 N908 1.355 . S
C901 C900 1.387 . S
C901 C907 1.363 . S
C902 C903 1.387 . S
C902 C907 1.363 1_545 S
C902 N909 1.355 . S
C903 C902 1.387 . S
C903 C906 1.363 . S
N904 C906 1.356 . S
N904 H916 0.984 . S
N904 H917 0.985 . S
N905 C907 1.356 . S
N905 H910 0.984 . S
N905 H911 0.985 . S
C906 C900 1.363 1_545 S
C906 C903 1.363 . S
C906 N904 1.356 . S
C907 C901 1.363 . S
C907 C902 1.363 1_565 S
C907 N905 1.356 . S
N908 C900 1.355 . S
N908 H914 0.984 1_565 S
N908 H915 0.984 . S
N909 C902 1.355 . S
N909 H912 0.984 . S
N909 H913 0.985 1_545 S
H910 N905 0.984 . S
H911 N905 0.985 . S
H912 N909 0.984 . S
H913 N909 0.985 1_565 S
H914 N908 0.984 1_545 S
H915 N908 0.984 . S
H916 N904 0.984 . S
H917 N904 0.985 . S
C918 C919 1.363 . S
C918 C924 1.379 1_455 S
C918 N926 1.356 . S
C919 C918 1.363 . S
C919 C925 1.363 . S
C920 C921 1.363 . S
C920 C925 1.379 1_655 S
C920 N927 1.356 . S
C921 C920 1.363 . S
C921 C924 1.363 . S
N922 C924 1.356 . S
N922 H934 0.984 . S
N922 H935 0.985 . S
N923 C925 1.356 . S
N923 H928 0.984 . S
N923 H929 0.985 . S
C924 C918 1.379 1_655 S
C924 C921 1.363 . S
C924 N922 1.356 . S
C925 C919 1.363 . S
C925 C920 1.379 1_455 S
C925 N923 1.356 . S
N926 C918 1.356 . S
N926 H932 0.984 . S
N926 H933 0.984 . S
N927 C920 1.356 . S
N927 H930 0.984 . S
N927 H931 0.985 . S
H928 N923 0.984 . S
H929 N923 0.985 . S
H930 N927 0.984 . S
H931 N927 0.985 . S
H932 N926 0.984 . S
H933 N926 0.984 . S
H934 N922 0.984 . S
H935 N922 0.985 . S
C397 C41 1.754 . S
C399 N14 1.739 . S
C415 N47 1.738 . S
C417 C74 1.753 . S
C433 N80 1.739 . S
C435 C8 1.753 . S
C451 N113 1.739 . S
C453 C173 1.754 . S
C469 N146 1.739 . S
C471 C107 1.753 . S
C487 C140 1.753 . S
C489 N179 1.739 . S
C505 C239 1.754 . S
C507 N212 1.739 . S
C523 C272 1.753 . S
C525 N245 1.739 . S
C541 C206 1.753 . S
C543 N278 1.739 . S
C559 N311 1.739 . S
C561 C371 1.754 . S
C577 C305 1.753 . S
C579 N344 1.739 . S
C595 N377 1.739 . S
C597 C338 1.753 . S
C613 C28 1.379 . S
C615 N236 1.342 1_545 S
C631 C61 1.379 . S
C633 N269 1.342 1_655 S
C649 C94 1.379 . S
C651 N203 1.342 . S
C667 N368 1.342 1_455 S
C669 C127 1.379 . S
C685 C160 1.379 . S
C687 N302 1.342 . S
C703 N335 1.342 1_565 S
C705 C193 1.379 . S
C721 N38 1.342 1_565 S
C723 C226 1.379 . S
C739 N71 1.342 1_455 S
C741 C259 1.379 . S
C757 C292 1.379 . S
C759 N5 1.342 . S
C775 N170 1.342 1_655 S
C777 C325 1.379 . S
C793 C358 1.379 . S
C795 N104 1.342 . S
C811 C391 1.379 . S
C813 N137 1.342 1_545 S
C829 C116 1.418 . S
C831 C17 1.418 . S
C847 C50 1.418 . S
C849 C149 1.418 . S
C865 C83 1.418 . S
C867 C182 1.418 . S
C883 C314 1.418 . S
C885 C215 1.418 . S
C901 C248 1.418 . S
C903 C347 1.418 . S
C919 C281 1.418 . S
C921 C380 1.418 . S
