# Generated by pormake.
# Topology xfd, (7)-cn, num edge types: 1
# Building blocks:
#     Node 0, Type 0, BuildingBlock: HICVOG_clean_sbu_0, # of connection points: 7
#     Node 1, Type 0, BuildingBlock: HICVOG_clean_sbu_0, # of connection points: 7
#     Node 2, Type 0, BuildingBlock: HICVOG_clean_sbu_0, # of connection points: 7
#     Node 3, Type 0, BuildingBlock: HICVOG_clean_sbu_0, # of connection points: 7
#     Node 4, Type 0, BuildingBlock: HICVOG_clean_sbu_0, # of connection points: 7
#     Node 5, Type 0, BuildingBlock: HICVOG_clean_sbu_0, # of connection points: 7
#     Node 6, Type 0, BuildingBlock: HICVOG_clean_sbu_0, # of connection points: 7
#     Node 7, Type 0, BuildingBlock: HICVOG_clean_sbu_0, # of connection points: 7
#     Node 8, Type 0, BuildingBlock: HICVOG_clean_sbu_0, # of connection points: 7
#     Node 9, Type 0, BuildingBlock: HICVOG_clean_sbu_0, # of connection points: 7
#     Node 10, Type 0, BuildingBlock: HICVOG_clean_sbu_0, # of connection points: 7
#     Node 11, Type 0, BuildingBlock: HICVOG_clean_sbu_0, # of connection points: 7
#     Node 12, Type 0, BuildingBlock: HICVOG_clean_sbu_0, # of connection points: 7
#     Node 13, Type 0, BuildingBlock: HICVOG_clean_sbu_0, # of connection points: 7
#     Node 14, Type 0, BuildingBlock: HICVOG_clean_sbu_0, # of connection points: 7
#     Node 15, Type 0, BuildingBlock: HICVOG_clean_sbu_0, # of connection points: 7
#     Edge 16, Type (0, 0), BuildingBlock: KIFKEQ_clean_linker_1, # of connection points: 2
#     Edge 17, Type (0, 0), BuildingBlock: KIFKEQ_clean_linker_1, # of connection points: 2
#     Edge 18, Type (0, 0), BuildingBlock: KIFKEQ_clean_linker_1, # of connection points: 2
#     Edge 19, Type (0, 0), BuildingBlock: KIFKEQ_clean_linker_1, # of connection points: 2
#     Edge 20, Type (0, 0), BuildingBlock: KIFKEQ_clean_linker_1, # of connection points: 2
#     Edge 21, Type (0, 0), BuildingBlock: KIFKEQ_clean_linker_1, # of connection points: 2
#     Edge 22, Type (0, 0), BuildingBlock: KIFKEQ_clean_linker_1, # of connection points: 2
#     Edge 23, Type (0, 0), BuildingBlock: KIFKEQ_clean_linker_1, # of connection points: 2
#     Edge 24, Type (0, 0), BuildingBlock: KIFKEQ_clean_linker_1, # of connection points: 2
#     Edge 25, Type (0, 0), BuildingBlock: KIFKEQ_clean_linker_1, # of connection points: 2
#     Edge 26, Type (0, 0), BuildingBlock: KIFKEQ_clean_linker_1, # of connection points: 2
#     Edge 27, Type (0, 0), BuildingBlock: KIFKEQ_clean_linker_1, # of connection points: 2
#     Edge 28, Type (0, 0), BuildingBlock: KIFKEQ_clean_linker_1, # of connection points: 2
#     Edge 29, Type (0, 0), BuildingBlock: KIFKEQ_clean_linker_1, # of connection points: 2
#     Edge 30, Type (0, 0), BuildingBlock: KIFKEQ_clean_linker_1, # of connection points: 2
#     Edge 31, Type (0, 0), BuildingBlock: KIFKEQ_clean_linker_1, # of connection points: 2
#     Edge 32, Type (0, 0), BuildingBlock: KIFKEQ_clean_linker_1, # of connection points: 2
#     Edge 33, Type (0, 0), BuildingBlock: KIFKEQ_clean_linker_1, # of connection points: 2
#     Edge 34, Type (0, 0), BuildingBlock: KIFKEQ_clean_linker_1, # of connection points: 2
#     Edge 35, Type (0, 0), BuildingBlock: KIFKEQ_clean_linker_1, # of connection points: 2
#     Edge 36, Type (0, 0), BuildingBlock: KIFKEQ_clean_linker_1, # of connection points: 2
#     Edge 37, Type (0, 0), BuildingBlock: KIFKEQ_clean_linker_1, # of connection points: 2
#     Edge 38, Type (0, 0), BuildingBlock: KIFKEQ_clean_linker_1, # of connection points: 2
#     Edge 39, Type (0, 0), BuildingBlock: KIFKEQ_clean_linker_1, # of connection points: 2
#     Edge 40, Type (0, 0), BuildingBlock: KIFKEQ_clean_linker_1, # of connection points: 2
#     Edge 41, Type (0, 0), BuildingBlock: KIFKEQ_clean_linker_1, # of connection points: 2
#     Edge 42, Type (0, 0), BuildingBlock: KIFKEQ_clean_linker_1, # of connection points: 2
#     Edge 43, Type (0, 0), BuildingBlock: KIFKEQ_clean_linker_1, # of connection points: 2
#     Edge 44, Type (0, 0), BuildingBlock: KIFKEQ_clean_linker_1, # of connection points: 2
#     Edge 45, Type (0, 0), BuildingBlock: KIFKEQ_clean_linker_1, # of connection points: 2
#     Edge 46, Type (0, 0), BuildingBlock: KIFKEQ_clean_linker_1, # of connection points: 2
#     Edge 47, Type (0, 0), BuildingBlock: KIFKEQ_clean_linker_1, # of connection points: 2
#     Edge 48, Type (0, 0), BuildingBlock: KIFKEQ_clean_linker_1, # of connection points: 2
#     Edge 49, Type (0, 0), BuildingBlock: KIFKEQ_clean_linker_1, # of connection points: 2
#     Edge 50, Type (0, 0), BuildingBlock: KIFKEQ_clean_linker_1, # of connection points: 2
#     Edge 51, Type (0, 0), BuildingBlock: KIFKEQ_clean_linker_1, # of connection points: 2
#     Edge 52, Type (0, 0), BuildingBlock: KIFKEQ_clean_linker_1, # of connection points: 2
#     Edge 53, Type (0, 0), BuildingBlock: KIFKEQ_clean_linker_1, # of connection points: 2
#     Edge 54, Type (0, 0), BuildingBlock: KIFKEQ_clean_linker_1, # of connection points: 2
#     Edge 55, Type (0, 0), BuildingBlock: KIFKEQ_clean_linker_1, # of connection points: 2
#     Edge 56, Type (0, 0), BuildingBlock: KIFKEQ_clean_linker_1, # of connection points: 2
#     Edge 57, Type (0, 0), BuildingBlock: KIFKEQ_clean_linker_1, # of connection points: 2
#     Edge 58, Type (0, 0), BuildingBlock: KIFKEQ_clean_linker_1, # of connection points: 2
#     Edge 59, Type (0, 0), BuildingBlock: KIFKEQ_clean_linker_1, # of connection points: 2
#     Edge 60, Type (0, 0), BuildingBlock: KIFKEQ_clean_linker_1, # of connection points: 2
#     Edge 61, Type (0, 0), BuildingBlock: KIFKEQ_clean_linker_1, # of connection points: 2
#     Edge 62, Type (0, 0), BuildingBlock: KIFKEQ_clean_linker_1, # of connection points: 2
#     Edge 63, Type (0, 0), BuildingBlock: KIFKEQ_clean_linker_1, # of connection points: 2
#     Edge 64, Type (0, 0), BuildingBlock: KIFKEQ_clean_linker_1, # of connection points: 2
#     Edge 65, Type (0, 0), BuildingBlock: KIFKEQ_clean_linker_1, # of connection points: 2
#     Edge 66, Type (0, 0), BuildingBlock: KIFKEQ_clean_linker_1, # of connection points: 2
#     Edge 67, Type (0, 0), BuildingBlock: KIFKEQ_clean_linker_1, # of connection points: 2
#     Edge 68, Type (0, 0), BuildingBlock: KIFKEQ_clean_linker_1, # of connection points: 2
#     Edge 69, Type (0, 0), BuildingBlock: KIFKEQ_clean_linker_1, # of connection points: 2
#     Edge 70, Type (0, 0), BuildingBlock: KIFKEQ_clean_linker_1, # of connection points: 2
#     Edge 71, Type (0, 0), BuildingBlock: KIFKEQ_clean_linker_1, # of connection points: 2
# Relax obj value: 0.481
# Max RMSD: 0.264
# Mean RMSD: 0.264
data_MOF--net-xfd--node1-HICVOG_clean_sbu_0--edge1-KIFKEQ_clean_linker_1
_symmetry_space_group_name_H-M    P1
_symmetry_Int_Tables_number       1
_symmetry_cell_setting            triclinic
loop_
_symmetry_equiv_pos_as_xyz
'x, y, z'
_cell_length_a     43.778098
_cell_length_b     43.780589
_cell_length_c     21.660924
_cell_angle_alpha  90.001446
_cell_angle_beta   90.018216
_cell_angle_gamma 90.05099
loop_
_atom_site_label
_atom_site_type_symbol
_atom_site_fract_x
_atom_site_fract_y
_atom_site_fract_z
_atom_type_partial_charge
Zn0 Zn 0.96359 0.58337 0.37938 0.0
C1 C 0.03379 0.5226 0.38973 0.0
N2 N 0.01121 0.50196 0.39215 0.0
C3 C 0.98582 0.51899 0.39618 0.0
N4 N 0.99247 0.54944 0.39611 0.0
N5 N 0.02279 0.55131 0.39258 0.0
C6 C 0.0798 0.57709 0.26787 0.0
O7 O 0.05325 0.56928 0.2445 0.0
O8 O 0.92696 0.58621 0.4391 0.0
Zn9 Zn 0.04997 0.58649 0.38986 0.0
N10 N 0.95004 0.57448 0.29705 0.0
C11 C 0.96618 0.56578 0.19383 0.0
C12 C 0.97227 0.57588 0.25346 0.0
C13 C 0.92163 0.56384 0.28343 0.0
N14 N 0.93784 0.55527 0.17999 0.0
C15 C 0.91518 0.55407 0.22302 0.0
O16 O 0.03103 0.62753 0.37813 0.0
C17 C 1.00589 0.6418 0.37512 0.0
O18 O 0.98047 0.62757 0.37707 0.0
H19 H 0.99481 0.58392 0.26578 0.0
H20 H 0.90469 0.56205 0.31956 0.0
C21 C 0.10184 0.60039 0.46388 0.0
C22 C 0.11782 0.60548 0.51901 0.0
C23 C 0.0739 0.59029 0.57552 0.0
C24 C 0.0583 0.58463 0.52059 0.0
N25 N 0.07253 0.58987 0.46596 0.0
N26 N 0.10323 0.6005 0.57351 0.0
H27 H 0.11237 0.60539 0.41983 0.0
C28 C 0.90574 0.60452 0.42273 0.0
O29 O 0.90797 0.61851 0.36929 0.0
O30 O 0.08203 0.58322 0.32485 0.0
H31 H 0.03484 0.57685 0.52134 0.0
H32 H 0.98376 0.56633 0.15877 0.0
H33 H 0.06273 0.5867 0.61946 0.0
Zn34 Zn 0.68811 0.70772 0.62809 0.0
C35 C 0.75092 0.77593 0.6427 0.0
N36 N 0.77069 0.75254 0.6428 0.0
C37 C 0.75276 0.72765 0.64471 0.0
N38 N 0.72267 0.73549 0.64598 0.0
N39 N 0.72186 0.76591 0.64503 0.0
C40 C 0.69564 0.82132 0.51735 0.0
O41 O 0.69896 0.79312 0.49798 0.0
O42 O 0.68419 0.66964 0.68404 0.0
Zn43 Zn 0.68796 0.79481 0.64135 0.0
N44 N 0.69549 0.69405 0.54556 0.0
C45 C 0.70188 0.70787 0.44038 0.0
C46 C 0.69282 0.7152 0.50014 0.0
C47 C 0.70581 0.66539 0.5337 0.0
N48 N 0.71248 0.67936 0.4284 0.0
C49 C 0.71461 0.65771 0.47339 0.0
O50 O 0.64615 0.7773 0.63054 0.0
C51 C 0.63145 0.75237 0.62763 0.0
O52 O 0.64515 0.72672 0.62831 0.0
H53 H 0.68443 0.73773 0.51097 0.0
H54 H 0.70803 0.6492 0.57115 0.0
C55 C 0.67405 0.84681 0.71483 0.0
C56 C 0.66981 0.86323 0.76978 0.0
C57 C 0.68768 0.82042 0.82648 0.0
C58 C 0.69244 0.8044 0.7717 0.0
N59 N 0.6855 0.81789 0.71705 0.0
N60 N 0.6766 0.84941 0.82431 0.0
H61 H 0.66776 0.8567 0.67084 0.0
C62 C 0.66049 0.65406 0.66996 0.0
O63 O 0.64407 0.66307 0.62257 0.0
O64 O 0.69282 0.82637 0.5747 0.0
H65 H 0.70093 0.78121 0.77266 0.0
H66 H 0.7004 0.7246 0.40376 0.0
H67 H 0.69264 0.80983 0.87047 0.0
Zn68 Zn 0.56572 0.4303 0.88487 0.0
C69 C 0.49791 0.49403 0.89282 0.0
N70 N 0.52154 0.51351 0.89342 0.0
C71 C 0.54623 0.49536 0.8966 0.0
N72 N 0.53799 0.46538 0.89891 0.0
N73 N 0.5076 0.46487 0.89647 0.0
C74 C 0.45369 0.43956 0.7669 0.0
O75 O 0.48199 0.44323 0.74827 0.0
O76 O 0.60383 0.42837 0.94107 0.0
Zn77 Zn 0.47891 0.43103 0.89208 0.0
N78 N 0.57971 0.43602 0.80215 0.0
C79 C 0.56589 0.44064 0.69658 0.0
C80 C 0.55873 0.43208 0.75673 0.0
C81 C 0.60812 0.44701 0.78994 0.0
N82 N 0.59397 0.45232 0.68437 0.0
C83 C 0.61545 0.45574 0.72939 0.0
O84 O 0.49654 0.3891 0.88394 0.0
C85 C 0.52122 0.37393 0.88428 0.0
O86 O 0.54711 0.38719 0.88703 0.0
H87 H 0.53635 0.42326 0.76786 0.0
H88 H 0.6242 0.45015 0.82735 0.0
C89 C 0.42572 0.41882 0.9633 0.0
C90 C 0.40886 0.41489 0.01775 0.0
C91 C 0.45195 0.43106 0.07579 0.0
C92 C 0.46842 0.43554 0.02153 0.0
N93 N 0.45501 0.42928 0.96648 0.0
N94 N 0.42261 0.42095 0.07273 0.0
H95 H 0.41592 0.41297 0.91897 0.0
C96 C 0.60392 0.41137 0.98893 0.0
O97 O 0.57808 0.39879 0.00647 0.0
O98 O 0.44832 0.43583 0.82392 0.0
H99 H 0.49191 0.44318 0.02318 0.0
H100 H 0.54928 0.43819 0.65994 0.0
H101 H 0.46254 0.43534 0.12006 0.0
Zn102 Zn 0.84058 0.30926 0.13692 0.0
C103 C 0.77836 0.2399 0.13543 0.0
N104 N 0.75811 0.26277 0.13771 0.0
C105 C 0.77554 0.28772 0.1454 0.0
N106 N 0.80582 0.28056 0.14763 0.0
N107 N 0.80719 0.25031 0.14155 0.0
C108 C 0.83376 0.19695 0.01354 0.0
O109 O 0.83016 0.22525 0.99493 0.0
O110 O 0.84225 0.34649 0.19563 0.0
Zn111 Zn 0.84166 0.22257 0.13802 0.0
N112 N 0.83381 0.32497 0.0559 0.0
C113 C 0.82554 0.3134 0.95014 0.0
C114 C 0.83503 0.30458 0.0088 0.0
C115 C 0.82439 0.35419 0.04685 0.0
N116 N 0.81571 0.34244 0.94101 0.0
C117 C 0.81489 0.36325 0.98776 0.0
O118 O 0.8832 0.24098 0.12922 0.0
C119 C 0.89803 0.26587 0.13097 0.0
O120 O 0.88436 0.29147 0.13624 0.0
H121 H 0.84239 0.28146 0.01757 0.0
H122 H 0.8233 0.36973 0.08561 0.0
C123 C 0.85393 0.16985 0.21004 0.0
C124 C 0.85869 0.15338 0.26465 0.0
C125 C 0.84426 0.19706 0.3226 0.0
C126 C 0.83897 0.21319 0.26816 0.0
N127 N 0.84399 0.19928 0.21309 0.0
N128 N 0.85395 0.1676 0.31965 0.0
H129 H 0.85884 0.15964 0.16565 0.0
C130 C 0.85993 0.34662 0.24249 0.0
O131 O 0.87325 0.32095 0.25861 0.0
O132 O 0.83734 0.19155 0.07058 0.0
H133 H 0.8317 0.23679 0.26963 0.0
H134 H 0.82589 0.29733 0.91221 0.0
H135 H 0.84083 0.20794 0.36689 0.0
Zn136 Zn 0.04956 0.43403 0.59728 0.0
C137 C 0.98317 0.49947 0.59119 0.0
N138 N 1.00803 0.51738 0.59435 0.0
C139 C 0.03133 0.49754 0.59625 0.0
N140 N 0.02127 0.46845 0.59409 0.0
N141 N 0.99089 0.46935 0.59128 0.0
C142 C 0.90942 0.40771 0.56794 0.0
O143 O 0.91836 0.39124 0.61532 0.0
O144 O 0.08122 0.43752 0.66344 0.0
Zn145 Zn 0.96299 0.43511 0.60986 0.0
N146 N 0.07259 0.43165 0.52165 0.0
C147 C 0.07466 0.43296 0.41217 0.0
C148 C 0.05876 0.43785 0.46701 0.0
C149 C 0.10177 0.42084 0.52384 0.0
N150 N 0.10389 0.42252 0.4143 0.0
C151 C 0.11807 0.41651 0.46883 0.0
O152 O 0.98123 0.3918 0.60913 0.0
C153 C 1.0067 0.3778 0.60973 0.0
O154 O 0.03176 0.39227 0.60717 0.0
H155 H 0.03537 0.44579 0.46613 0.0
H156 H 0.11195 0.41508 0.56785 0.0
C157 C 0.92162 0.45257 0.70613 0.0
C158 C 0.91481 0.46243 0.76624 0.0
C159 C 0.96592 0.45179 0.79633 0.0
C160 C 0.97248 0.44193 0.73672 0.0
N161 N 0.95036 0.44291 0.69286 0.0
N162 N 0.93734 0.46178 0.80966 0.0
H163 H 0.90477 0.45371 0.6697 0.0
C164 C 0.07893 0.44374 0.7204 0.0
O165 O 0.05244 0.45197 0.74335 0.0
O166 O 0.92476 0.43161 0.55444 0.0
H167 H 0.99523 0.43447 0.72464 0.0
H168 H 0.06379 0.4373 0.3682 0.0
H169 H 0.98337 0.45162 0.83168 0.0
Zn170 Zn 0.83939 0.71111 0.85087 0.0
C171 C 0.77729 0.78033 0.85017 0.0
N172 N 0.75703 0.7574 0.84872 0.0
C173 C 0.7745 0.73244 0.84205 0.0
N174 N 0.80476 0.73967 0.83991 0.0
N175 N 0.80613 0.76997 0.84462 0.0
C176 C 0.83258 0.82415 0.97005 0.0
O177 O 0.83089 0.79564 0.98853 0.0
O178 O 0.84146 0.67544 0.78814 0.0
Zn179 Zn 0.84044 0.79811 0.84739 0.0
N180 N 0.83224 0.69423 0.9309 0.0
C181 C 0.82339 0.70496 0.03684 0.0
C182 C 0.83277 0.71438 0.97852 0.0
C183 C 0.82361 0.66469 0.93916 0.0
N184 N 0.8144 0.67559 0.04521 0.0
C185 C 0.81428 0.65501 -0.00199 0.0
O186 O 0.88209 0.78052 0.85965 0.0
C187 C 0.89664 0.7555 0.85932 0.0
O188 O 0.88276 0.73001 0.854 0.0
H189 H 0.83946 0.73777 0.97041 0.0
H190 H 0.82316 0.64929 0.9001 0.0
C191 C 0.85364 0.84981 0.77279 0.0
C192 C 0.85885 0.86551 0.71739 0.0
C193 C 0.84425 0.82117 0.66156 0.0
C194 C 0.8385 0.80584 0.71674 0.0
N195 N 0.84339 0.82043 0.77113 0.0
N196 N 0.85423 0.85059 0.66311 0.0
H197 H 0.85843 0.86057 0.81673 0.0
C198 C 0.86696 0.66127 0.78848 0.0
O199 O 0.88825 0.67004 0.82731 0.0
O200 O 0.83508 0.8298 0.9129 0.0
H201 H 0.83099 0.78229 0.71638 0.0
H202 H 0.82318 0.72082 0.07513 0.0
H203 H 0.84095 0.80973 0.61781 0.0
Zn204 Zn 0.47874 0.58775 0.0891 0.0
C205 C 0.54483 0.52235 0.08351 0.0
N206 N 0.51984 0.50452 0.08571 0.0
C207 C 0.49648 0.5243 0.08691 0.0
N208 N 0.50664 0.55334 0.08431 0.0
N209 N 0.53701 0.55243 0.082 0.0
C210 C 0.60348 0.60635 0.99544 0.0
O211 O 0.57758 0.61883 0.97804 0.0
O212 O 0.44768 0.58405 0.15618 0.0
Zn213 Zn 0.56523 0.58681 0.09874 0.0
N214 N 0.45507 0.59054 0.01452 0.0
C215 C 0.45184 0.58969 0.9052 0.0
C216 C 0.4684 0.58478 0.95921 0.0
C217 C 0.42578 0.6009 0.01821 0.0
N218 N 0.42248 0.59968 0.90877 0.0
C219 C 0.40882 0.60524 0.96404 0.0
O220 O 0.54777 0.63033 0.09958 0.0
C221 C 0.52207 0.64388 0.1019 0.0
O222 O 0.4972 0.62906 0.0997 0.0
H223 H 0.49187 0.57713 0.95718 0.0
H224 H 0.41601 0.6063 0.06276 0.0
C225 C 0.60738 0.56886 0.19241 0.0
C226 C 0.6151 0.55939 0.25229 0.0
C227 C 0.56503 0.57198 0.28609 0.0
C228 C 0.55756 0.5815 0.22666 0.0
N229 N 0.57872 0.5793 0.1811 0.0
N230 N 0.59353 0.56119 0.29749 0.0
H231 H 0.62349 0.56701 0.15474 0.0
C232 C 0.45042 0.57794 0.21309 0.0
O233 O 0.47717 0.57014 0.23549 0.0
O234 O 0.60345 0.58913 0.04296 0.0
H235 H 0.53482 0.58957 0.21615 0.0
H236 H 0.46235 0.58578 0.86074 0.0
H237 H 0.54833 0.57306 0.32283 0.0
Zn238 Zn 0.68594 0.22435 0.34386 0.0
C239 C 0.75137 0.29091 0.34196 0.0
N240 N 0.76898 0.26576 0.34246 0.0
C241 C 0.74893 0.24259 0.34163 0.0
N242 N 0.72001 0.25297 0.34002 0.0
N243 N 0.72122 0.28337 0.34022 0.0
C244 C 0.65939 0.36453 0.31356 0.0
O245 O 0.64327 0.3565 0.36208 0.0
O246 O 0.69113 0.19308 0.41089 0.0
Zn247 Zn 0.68739 0.31176 0.35885 0.0
N248 N 0.68361 0.20095 0.26862 0.0
C249 C 0.68764 0.1975 0.15956 0.0
C250 C 0.69131 0.21404 0.21401 0.0
C251 C 0.67239 0.17192 0.27113 0.0
N252 N 0.6769 0.16836 0.16203 0.0
C253 C 0.66927 0.15495 0.21654 0.0
O254 O 0.64431 0.2929 0.36209 0.0
C255 C 0.63017 0.26744 0.36127 0.0
O256 O 0.64437 0.24235 0.35554 0.0
H257 H 0.69974 0.23727 0.21282 0.0
H258 H 0.66569 0.16229 0.31511 0.0
C259 C 0.70745 0.35611 0.44785 0.0
C260 C 0.71766 0.36505 0.50659 0.0
C261 C 0.70562 0.31566 0.54504 0.0
C262 C 0.69508 0.30713 0.48695 0.0
N263 N 0.69666 0.32727 0.4395 0.0
N264 N 0.71654 0.34436 0.55353 0.0
H265 H 0.70871 0.37156 0.40896 0.0
C266 C 0.68703 0.19967 0.46725 0.0
O267 O 0.68264 0.22828 0.48268 0.0
O268 O 0.68293 0.34867 0.30001 0.0
H269 H 0.6866 0.2844 0.47886 0.0
H270 H 0.69319 0.2078 0.1156 0.0
H271 H 0.70504 0.2997 0.58313 0.0
Zn272 Zn 0.34127 0.21138 0.36278 0.0
C273 C 0.2782 0.27918 0.34479 0.0
N274 N 0.25863 0.2556 0.34445 0.0
C275 C 0.2767 0.23081 0.34452 0.0
N276 N 0.30672 0.23892 0.34392 0.0
N277 N 0.30735 0.26933 0.34404 0.0
C278 C 0.33202 0.32428 0.47214 0.0
O279 O 0.32771 0.2961 0.49083 0.0
O280 O 0.34479 0.17282 0.30802 0.0
Zn281 Zn 0.34117 0.29824 0.3483 0.0
N282 N 0.33422 0.19851 0.44592 0.0
C283 C 0.32901 0.21324 0.55085 0.0
C284 C 0.33818 0.21977 0.49077 0.0
C285 C 0.32263 0.17042 0.4587 0.0
N286 N 0.31689 0.18542 0.56365 0.0
C287 C 0.31348 0.16363 0.51925 0.0
O288 O 0.38318 0.28097 0.35887 0.0
C289 C 0.39789 0.25605 0.36164 0.0
O290 O 0.38417 0.23039 0.36128 0.0
H291 H 0.34763 0.24183 0.47925 0.0
H292 H 0.31945 0.15414 0.42168 0.0
C293 C 0.354 0.35062 0.27488 0.0
C294 C 0.35813 0.36691 0.21974 0.0
C295 C 0.34191 0.3233 0.16337 0.0
C296 C 0.33722 0.30742 0.21829 0.0
N297 N 0.3434 0.32136 0.27284 0.0
N298 N 0.35213 0.35263 0.1653 0.0
H299 H 0.35977 0.36086 0.31885 0.0
C300 C 0.3687 0.15746 0.32133 0.0
O301 O 0.38574 0.16686 0.36752 0.0
O302 O 0.33602 0.32948 0.41514 0.0
H303 H 0.32944 0.28396 0.21754 0.0
H304 H 0.33148 0.2301 0.58703 0.0
H305 H 0.33768 0.3123 0.1195 0.0
Zn306 Zn 0.18529 0.72609 0.84695 0.0
C307 C 0.25132 0.79154 0.84451 0.0
N308 N 0.26899 0.76654 0.8476 0.0
C309 C 0.24896 0.74339 0.84814 0.0
N310 N 0.21998 0.75371 0.8451 0.0
N311 N 0.22113 0.78407 0.84298 0.0
C312 C 0.16534 0.8698 0.81825 0.0
O313 O 0.15075 0.86592 0.87066 0.0
O314 O 0.18865 0.69437 0.91254 0.0
Zn315 Zn 0.18694 0.81236 0.85966 0.0
N316 N 0.18328 0.70329 0.77125 0.0
C317 C 0.18629 0.70068 0.66199 0.0
C318 C 0.19041 0.71684 0.71679 0.0
C319 C 0.17233 0.67418 0.77336 0.0
N320 N 0.17568 0.67148 0.66406 0.0
C321 C 0.16878 0.65762 0.71849 0.0
O322 O 0.14312 0.79494 0.86055 0.0
C323 C 0.12921 0.76935 0.86062 0.0
O324 O 0.14381 0.74442 0.85692 0.0
H325 H 0.19859 0.74017 0.71598 0.0
H326 H 0.16595 0.66421 0.81721 0.0
C327 C 0.20678 0.85456 0.9534 0.0
C328 C 0.2165 0.86197 0.01328 0.0
C329 C 0.20311 0.81201 0.04659 0.0
C330 C 0.19314 0.80493 0.98725 0.0
N331 N 0.19542 0.82622 0.9419 0.0
N332 N 0.21443 0.8403 0.05824 0.0
H333 H 0.20925 0.87068 0.91592 0.0
C334 C 0.19506 0.69674 0.96938 0.0
O335 O 0.20287 0.72336 0.99241 0.0
O336 O 0.18427 0.84937 0.80085 0.0
H337 H 0.18457 0.78237 0.97665 0.0
H338 H 0.19136 0.71132 0.61812 0.0
H339 H 0.20188 0.79521 0.08311 0.0
Zn340 Zn 0.18842 0.20727 0.13814 0.0
C341 C 0.25021 0.27687 0.14077 0.0
N342 N 0.27057 0.25409 0.14359 0.0
C343 C 0.25323 0.22902 0.15037 0.0
N344 N 0.22289 0.23602 0.15148 0.0
N345 N 0.22139 0.26628 0.1457 0.0
C346 C 0.19513 0.32271 0.01903 0.0
O347 O 0.20351 0.29629 -0.00403 0.0
O348 O 0.18666 0.16944 0.19527 0.0
Zn349 Zn 0.18652 0.29364 0.14292 0.0
N350 N 0.19595 0.193 0.05636 0.0
C351 C 0.20575 0.20611 0.95187 0.0
C352 C 0.19578 0.2142 0.01064 0.0
C353 C 0.20504 0.16381 0.04588 0.0
N354 N 0.21507 0.17703 0.94126 0.0
C355 C 0.215 0.15546 0.98664 0.0
O356 O 0.14526 0.27484 0.13462 0.0
C357 C 0.13052 0.24992 0.13426 0.0
O358 O 0.14433 0.22432 0.1374 0.0
H359 H 0.18896 0.23741 0.02059 0.0
H360 H 0.20552 0.14775 0.0838 0.0
C361 C 0.17409 0.34623 0.21513 0.0
C362 C 0.1697 0.36279 0.26972 0.0
C363 C 0.18515 0.31941 0.32753 0.0
C364 C 0.19008 0.3032 0.27307 0.0
N365 N 0.18436 0.3169 0.21808 0.0
N366 N 0.17511 0.34876 0.32465 0.0
H367 H 0.16868 0.3563 0.17086 0.0
C368 C 0.16877 0.16928 0.24181 0.0
O369 O 0.15557 0.19501 0.25794 0.0
O370 O 0.18903 0.32499 0.07603 0.0
H371 H 0.19765 0.27969 0.27449 0.0
H372 H 0.2062 0.22279 0.91503 0.0
H373 H 0.18911 0.30868 0.37179 0.0
Zn374 Zn 0.34295 0.72284 0.64031 0.0
C375 C 0.27751 0.78916 0.64703 0.0
N376 N 0.25969 0.76416 0.64635 0.0
C377 C 0.27948 0.74083 0.64428 0.0
N378 N 0.30856 0.75102 0.64474 0.0
N379 N 0.30766 0.78142 0.64633 0.0
C380 C 0.36538 0.8492 0.72505 0.0
O381 O 0.38063 0.82414 0.7377 0.0
O382 O 0.3394 0.69201 0.5728 0.0
Zn383 Zn 0.34227 0.80943 0.62854 0.0
N384 N 0.34527 0.69885 0.7147 0.0
C385 C 0.3435 0.69549 0.82397 0.0
C386 C 0.33893 0.71206 0.76987 0.0
C387 C 0.35596 0.66965 0.71128 0.0
N388 N 0.35372 0.66621 0.82065 0.0
C389 C 0.35994 0.65264 0.76557 0.0
O390 O 0.38563 0.79148 0.62869 0.0
C391 C 0.39932 0.76584 0.62834 0.0
O392 O 0.38458 0.74094 0.63119 0.0
H393 H 0.33109 0.73547 0.77175 0.0
H394 H 0.36184 0.65997 0.66688 0.0
C395 C 0.32487 0.85134 0.53437 0.0
C396 C 0.31547 0.85904 0.47445 0.0
C397 C 0.32876 0.80917 0.44046 0.0
C398 C 0.33799 0.80164 0.50007 0.0
N399 N 0.33534 0.82269 0.54578 0.0
N400 N 0.31768 0.83757 0.4291 0.0
H401 H 0.32264 0.86734 0.57214 0.0
C402 C 0.33283 0.69464 0.51607 0.0
O403 O 0.32437 0.72124 0.49393 0.0
O404 O 0.34484 0.84811 0.68328 0.0
H405 H 0.34615 0.77893 0.51057 0.0
H406 H 0.33914 0.70594 0.86832 0.0
H407 H 0.33018 0.79256 0.40361 0.0
Zn408 Zn 0.46123 0.0849 0.88864 0.0
C409 C 0.53014 0.0223 0.88855 0.0
N410 N 0.50687 1.0024 0.8893 0.0
C411 C 0.48212 0.02018 0.896 0.0
N412 N 0.48983 0.05027 0.89923 0.0
N413 N 0.52016 0.05127 0.89458 0.0
C414 C 0.57292 0.07768 0.76472 0.0
O415 O 0.54463 0.07298 0.74696 0.0
O416 O 0.42433 0.08643 0.94813 0.0
Zn417 Zn 0.54822 0.08562 0.89039 0.0
N418 N 0.44521 0.07849 0.8077 0.0
C419 C 0.45624 0.07114 0.70144 0.0
C420 C 0.46539 0.08009 0.76027 0.0
C421 C 0.41589 0.0693 0.79883 0.0
N422 N 0.42709 0.06155 0.69248 0.0
C423 C 0.40648 0.06043 0.73956 0.0
O424 O 0.52968 0.12708 0.8822 0.0
C425 C 0.50482 0.14193 0.88356 0.0
O426 O 0.47915 0.12836 0.88825 0.0
H427 H 0.48858 0.08732 0.76884 0.0
H428 H 0.40047 0.06805 0.83777 0.0
C429 C 0.60159 0.09831 0.9611 0.0
C430 C 0.61825 0.10347 0.01541 0.0
C431 C 0.57485 0.08897 0.07424 0.0
C432 C 0.55856 0.08328 0.02016 0.0
N433 N 0.57221 0.08814 0.96478 0.0
N434 N 0.60425 0.09888 0.07068 0.0
H435 H 0.61158 0.10314 0.91646 0.0
C436 C 0.42447 0.10399 0.99516 0.0
O437 O 0.45021 0.11741 0.01066 0.0
O438 O 0.57859 0.08163 0.82158 0.0
H439 H 0.53499 0.07589 0.02215 0.0
H440 H 0.47214 0.07176 0.66324 0.0
H441 H 0.56414 0.08573 0.11875 0.0
Zn442 Zn 0.06389 0.93185 0.37809 0.0
C443 C 0.99482 0.994 0.38549 0.0
N444 N 0.01764 0.01436 0.38765 0.0
C445 C 0.04275 0.99696 0.39246 0.0
N446 N 0.03573 0.96659 0.39297 0.0
N447 N 1.0054 0.96518 0.38902 0.0
C448 C 0.95068 0.93961 0.26315 0.0
O449 O 0.97905 0.94163 0.244 0.0
O450 O 0.10061 0.92712 0.43779 0.0
Zn451 Zn 0.97704 0.93101 0.38591 0.0
N452 N 0.07963 0.94021 0.29735 0.0
C453 C 0.06797 0.94932 0.19188 0.0
C454 C 0.05928 0.93911 0.25014 0.0
C455 C 0.10868 0.95031 0.28871 0.0
N456 N 0.09687 0.95967 0.18315 0.0
C457 C 0.11766 0.96042 0.22996 0.0
O458 O 0.99424 0.88916 0.37409 0.0
C459 C 0.01924 0.8746 0.37197 0.0
O460 O 0.04481 0.88852 0.37471 0.0
H461 H 0.03629 0.93121 0.25848 0.0
H462 H 0.12416 0.95147 0.32756 0.0
C463 C 0.92524 0.91784 0.46001 0.0
C464 C 0.9089 0.91411 0.51513 0.0
C465 C 0.95224 0.93129 0.57121 0.0
C466 C 0.96819 0.93558 0.51622 0.0
N467 N 0.95439 0.92872 0.46184 0.0
N468 N 0.92301 0.92079 0.56946 0.0
H469 H 0.91509 0.91168 0.41618 0.0
C470 C 0.1165 0.90385 0.42237 0.0
O471 O 0.10827 0.88868 0.37272 0.0
O472 O 0.94539 0.93659 0.32034 0.0
H473 H 0.99153 0.94371 0.5168 0.0
H474 H 0.05192 0.94904 0.1539 0.0
H475 H 0.96306 0.93618 0.615 0.0
Zn476 Zn 0.54892 0.93216 0.10176 0.0
C477 C 0.48163 0.99644 0.09903 0.0
N478 N 0.50646 0.01453 0.09897 0.0
C479 C 0.52998 0.99494 0.09855 0.0
N480 N 0.52009 0.96582 0.09772 0.0
N481 N 0.48968 0.96643 0.09787 0.0
C482 C 0.42282 0.90611 0.02149 0.0
O483 O 0.44754 0.88977 0.01224 0.0
O484 O 0.58038 0.93747 0.16838 0.0
Zn485 Zn 0.462 0.93196 0.1165 0.0
N486 N 0.57174 0.92996 0.02601 0.0
C487 C 0.57371 0.93169 0.91654 0.0
C488 C 0.55774 0.93607 0.97148 0.0
C489 C 0.60111 0.91976 0.02803 0.0
N490 N 0.60314 0.92182 0.91848 0.0
C491 C 0.61744 0.91593 0.97293 0.0
O492 O 0.48092 0.88904 0.11936 0.0
C493 C 0.50667 0.87553 0.1184 0.0
O494 O 0.53143 0.89037 0.11302 0.0
H495 H 0.53422 0.94362 0.97076 0.0
H496 H 0.61143 0.91415 0.072 0.0
C497 C 0.41846 0.95157 0.20556 0.0
C498 C 0.4094 0.96172 0.26417 0.0
C499 C 0.45848 0.94902 0.30338 0.0
C500 C 0.46719 0.93864 0.24525 0.0
N501 N 0.44721 0.94061 0.19755 0.0
N502 N 0.42987 0.96022 0.31149 0.0
H503 H 0.40328 0.95315 0.16629 0.0
C504 C 0.57499 0.9402 0.22563 0.0
O505 O 0.54662 0.94298 0.24438 0.0
O506 O 0.42407 0.92811 0.06006 0.0
H507 H 0.48991 0.9299 0.23746 0.0
H508 H 0.56273 0.93596 0.87265 0.0
H509 H 0.47426 0.94812 0.34178 0.0
Zn510 Zn 0.97668 0.08826 0.59456 0.0
C511 C 0.04469 0.0243 0.59523 0.0
N512 N 0.02005 1.006 0.59557 0.0
C513 C 0.99632 0.02534 0.59373 0.0
N514 N 1.00592 0.05458 0.59148 0.0
N515 N 0.03634 0.05421 0.59235 0.0
C516 C 0.11726 0.11653 0.57147 0.0
O517 O 0.10795 0.13266 0.61903 0.0
O518 O 0.94546 0.08293 0.66137 0.0
Zn519 Zn 0.06344 0.08889 0.61136 0.0
N520 N 0.95325 0.08994 0.51923 0.0
C521 C 0.95018 0.08601 0.41011 0.0
C522 C 0.96655 0.08237 0.46477 0.0
C523 C 0.92417 0.10101 0.52138 0.0
N524 N 0.921 0.09659 0.41221 0.0
C525 C 0.90736 0.1041 0.46656 0.0
O526 O 0.04414 0.13169 0.61014 0.0
C527 C 0.01846 0.14533 0.60904 0.0
O528 O 0.99362 0.13052 0.60489 0.0
H529 H 0.98985 0.07415 0.46385 0.0
H530 H 0.91439 0.10769 0.56523 0.0
C531 C 0.10449 0.06998 0.7069 0.0
C532 C 0.11147 0.06092 0.76742 0.0
C533 C 0.0616 0.07545 0.79908 0.0
C534 C 0.05498 0.08477 0.73914 0.0
N535 N 0.07632 0.08137 0.69431 0.0
N536 N 0.08962 0.06383 0.81181 0.0
H537 H 0.12077 0.06711 0.6698 0.0
C538 C 0.95061 0.07877 0.71834 0.0
O539 O 0.97881 0.07482 0.73722 0.0
O540 O 0.10183 0.0929 0.55646 0.0
H541 H 0.03286 0.09403 0.72773 0.0
H542 H 0.96065 0.08057 0.36627 0.0
H543 H 0.0447 0.07754 0.83525 0.0
H544 H 0.15421 0.65171 0.94721 0.0
H545 H 0.21876 0.68366 0.08342 0.0
H546 H 0.13392 0.61543 0.01974 0.0
H547 H 0.20028 0.64506 0.15571 0.0
H548 H 0.12401 0.61875 0.29077 0.0
H549 H 0.15944 0.64047 0.21816 0.0
H550 H 0.13116 0.57407 0.08115 0.0
H551 H 0.09335 0.55415 0.15351 0.0
C552 C 0.16479 0.65021 0.99235 0.0
C553 C 0.18756 0.67098 0.01032 0.0
C554 C 0.15332 0.62899 0.03416 0.0
C555 C 0.16489 0.62739 0.09468 0.0
C556 C 0.18987 0.64627 0.11046 0.0
C557 C 0.20071 0.66827 0.06901 0.0
C558 C 0.12566 0.60846 0.24539 0.0
C559 C 0.10543 0.58526 0.22714 0.0
C560 C 0.14638 0.62078 0.20352 0.0
C561 C 0.14801 0.60964 0.14267 0.0
C562 C 0.12984 0.58418 0.12665 0.0
C563 C 0.10831 0.5725 0.16814 0.0
H564 H 0.68116 0.88068 0.54341 0.0
H565 H 0.69382 0.81798 0.39138 0.0
H566 H 0.65865 0.91785 0.47308 0.0
H567 H 0.67112 0.85504 0.3214 0.0
H568 H 0.63489 0.92756 0.20076 0.0
H569 H 0.67228 0.90575 0.2715 0.0
H570 H 0.60827 0.91561 0.42189 0.0
H571 H 0.57097 0.93763 0.35148 0.0
C572 C 0.67979 0.87506 0.49478 0.0
C573 C 0.68871 0.8461 0.47312 0.0
C574 C 0.66679 0.89635 0.4546 0.0
C575 C 0.66269 0.88922 0.39194 0.0
C576 C 0.67408 0.86132 0.36939 0.0
C577 C 0.68697 0.83997 0.4096 0.0
C578 C 0.62903 0.92577 0.24922 0.0
C579 C 0.5997 0.93375 0.27033 0.0
C580 C 0.65045 0.91317 0.28963 0.0
C581 C 0.64307 0.90853 0.35201 0.0
C582 C 0.61474 0.91901 0.37412 0.0
C583 C 0.59325 0.9315 0.33366 0.0
H584 H 0.3936 0.42785 0.79138 0.0
H585 H 0.45778 0.43762 0.64099 0.0
H586 H 0.3558 0.40717 0.72011 0.0
H587 H 0.42004 0.41674 0.57001 0.0
H588 H 0.34679 0.38373 0.4477 0.0
H589 H 0.36957 0.42026 0.51905 0.0
H590 H 0.35621 0.35665 0.66909 0.0
H591 H 0.33325 0.3202 0.59805 0.0
C592 C 0.39945 0.42621 0.7429 0.0
C593 C 0.42894 0.43376 0.72198 0.0
C594 C 0.37778 0.41429 0.70219 0.0
C595 C 0.38508 0.4099 0.63973 0.0
C596 C 0.41363 0.41998 0.61786 0.0
C597 C 0.43536 0.4318 0.65862 0.0
C598 C 0.34801 0.37781 0.4962 0.0
C599 C 0.33881 0.34877 0.51707 0.0
C600 C 0.36116 0.39874 0.53696 0.0
C601 C 0.36513 0.39115 0.5994 0.0
C602 C 0.35336 0.36325 0.62125 0.0
C603 C 0.34032 0.34226 0.58045 0.0
H604 H 0.83508 0.20105 0.88766 0.0
H605 H 0.84598 0.13695 0.03789 0.0
H606 H 0.85613 0.16362 0.81644 0.0
H607 H 0.86682 0.09942 0.96633 0.0
H608 H 0.95444 0.07937 0.84425 0.0
H609 H 0.9173 0.10093 0.91544 0.0
H610 H 0.85357 0.11324 0.7652 0.0
H611 H 0.89083 0.09189 0.69366 0.0
C612 C 0.84118 0.1787 0.90521 0.0
C613 C 0.83954 0.17225 0.96859 0.0
C614 C 0.85308 0.15713 0.86429 0.0
C615 C 0.86355 0.12873 0.88603 0.0
C616 C 0.85939 0.12131 0.94851 0.0
C617 C 0.84739 0.14283 0.98939 0.0
C618 C 0.93223 0.0859 0.82661 0.0
C619 C 0.92587 0.08461 0.76315 0.0
C620 C 0.91083 0.09812 0.86751 0.0
C621 C 0.88269 0.10923 0.84565 0.0
C622 C 0.87528 0.10533 0.78309 0.0
C623 C 0.89663 0.09303 0.74223 0.0
H624 H 0.15288 0.3664 0.04125 0.0
H625 H 0.21812 0.33648 0.90472 0.0
H626 H 0.13174 0.40241 0.96904 0.0
H627 H 0.19872 0.37478 0.83283 0.0
H628 H 0.12314 0.40207 0.69722 0.0
H629 H 0.15795 0.37948 0.77001 0.0
H630 H 0.12884 0.44437 0.90905 0.0
H631 H 0.09171 0.46523 0.83638 0.0
C632 C 0.16339 0.36828 -0.00389 0.0
C633 C 0.18673 0.34821 0.97804 0.0
C634 C 0.15141 0.38933 0.9545 0.0
C635 C 0.16301 0.39149 0.89406 0.0
C636 C 0.18833 0.37317 0.87803 0.0
C637 C 0.1997 0.35134 0.91927 0.0
C638 C 0.12446 0.41186 0.7431 0.0
C639 C 0.10423 0.43498 0.76164 0.0
C640 C 0.14482 0.39901 0.7851 0.0
C641 C 0.14609 0.4095 0.84647 0.0
C642 C 0.12782 0.43477 0.86307 0.0
C643 C 0.10669 0.44701 0.82137 0.0
H644 H 0.83361 0.82014 0.09586 0.0
H645 H 0.8436 0.88438 0.94558 0.0
H646 H 0.85444 0.8578 0.16694 0.0
H647 H 0.86434 0.92209 0.01699 0.0
H648 H 0.9539 0.93928 0.13722 0.0
H649 H 0.91564 0.91917 0.06658 0.0
H650 H 0.85224 0.90878 0.21791 0.0
H651 H 0.89055 0.9288 0.28887 0.0
C652 C 0.83942 0.84258 0.0783 0.0
C653 C 0.83771 0.849 0.01493 0.0
C654 C 0.85118 0.86427 0.11913 0.0
C655 C 0.86145 0.89272 0.09723 0.0
C656 C 0.85701 0.90016 0.03486 0.0
C657 C 0.84509 0.87854 0.99408 0.0
C658 C 0.93154 0.93352 0.1552 0.0
C659 C 0.92553 0.93487 0.21877 0.0
C660 C 0.9095 0.92218 0.11464 0.0
C661 C 0.88111 0.91197 0.137 0.0
C662 C 0.8741 0.91607 0.19966 0.0
C663 C 0.89607 0.92756 0.24018 0.0
H664 H 0.31014 0.68202 0.40089 0.0
H665 H 0.37489 0.65061 0.53709 0.0
H666 H 0.32996 0.64466 0.32751 0.0
H667 H 0.39646 0.6156 0.46354 0.0
H668 H 0.43774 0.55507 0.32801 0.0
H669 H 0.40019 0.57464 0.40124 0.0
H670 H 0.37097 0.64109 0.26527 0.0
H671 H 0.40619 0.61973 0.19183 0.0
C672 C 0.32851 0.66702 0.41507 0.0
C673 C 0.34126 0.66951 0.47419 0.0
C674 C 0.34014 0.64575 0.37297 0.0
C675 C 0.36551 0.62736 0.3885 0.0
C676 C 0.3768 0.62877 0.44927 0.0
C677 C 0.36456 0.64926 0.4917 0.0
C678 C 0.42266 0.57337 0.31381 0.0
C679 C 0.42516 0.58617 0.25476 0.0
C680 C 0.40128 0.58487 0.35582 0.0
C681 C 0.3828 0.61016 0.34027 0.0
C682 C 0.38422 0.62149 0.27953 0.0
C683 C 0.40481 0.60937 0.23718 0.0
H684 H 0.56811 0.07831 0.63871 0.0
H685 H 0.63221 0.09351 0.78751 0.0
H686 H 0.60398 0.10145 0.5664 0.0
H687 H 0.66796 0.11658 0.71506 0.0
H688 H 0.67695 0.13907 0.44393 0.0
H689 H 0.65597 0.10136 0.51549 0.0
H690 H 0.66114 0.16739 0.66326 0.0
H691 H 0.68198 0.20503 0.59208 0.0
C692 C 0.59014 0.08581 0.65572 0.0
C693 C 0.597 0.08471 0.71902 0.0
C694 C 0.61078 0.09893 0.61422 0.0
C695 C 0.63856 0.11123 0.63538 0.0
C696 C 0.64651 0.10768 0.69773 0.0
C697 C 0.626 0.09441 0.73912 0.0
C698 C 0.67434 0.14529 0.49205 0.0
C699 C 0.68073 0.17516 0.51231 0.0
C700 C 0.66221 0.12372 0.53285 0.0
C701 C 0.65672 0.13151 0.59473 0.0
C702 C 0.66536 0.16062 0.61592 0.0
C703 C 0.67714 0.18226 0.57506 0.0
H704 H 0.86107 0.43822 0.72396 0.0
H705 H 0.89716 0.50457 0.85218 0.0
H706 H 0.81525 0.43448 0.78346 0.0
H707 H 0.85007 0.50182 0.91182 0.0
H708 H 0.84127 0.41486 0.03463 0.0
H709 H 0.84636 0.46172 0.97854 0.0
H710 H 0.7757 0.43262 0.8517 0.0
H711 H 0.77174 0.38444 0.90742 0.0
C712 C 0.85861 0.45327 0.7633 0.0
C713 C 0.88342 0.47033 0.78551 0.0
C714 C 0.83189 0.45129 0.79797 0.0
C715 C 0.82983 0.46598 0.85585 0.0
C716 C 0.85174 0.48853 0.86979 0.0
C717 C 0.87878 0.49013 0.83566 0.0
C718 C 0.82582 0.41887 -0.00356 0.0
C719 C 0.80746 0.39531 0.97302 0.0
C720 C 0.82859 0.44616 0.9638 0.0
C721 C 0.81334 0.44993 0.90686 0.0
C722 C 0.78945 0.4295 0.89278 0.0
C723 C 0.78712 0.40186 0.92469 0.0
H724 H 0.33404 0.10886 0.47556 0.0
H725 H 0.2702 0.14827 0.60464 0.0
H726 H 0.33521 0.06269 0.53454 0.0
H727 H 0.27003 0.10083 0.66345 0.0
H728 H 0.35557 0.08762 0.78721 0.0
H729 H 0.30903 0.09437 0.73086 0.0
H730 H 0.33621 0.02353 0.60282 0.0
H731 H 0.38419 0.01801 0.65871 0.0
C732 C 0.31894 0.10709 0.515 0.0
C733 C 0.30346 0.13274 0.53768 0.0
C734 C 0.31943 0.0802 0.54938 0.0
C735 C 0.30476 0.07882 0.60739 0.0
C736 C 0.28345 0.10189 0.62151 0.0
C737 C 0.28346 0.12911 0.5878 0.0
C738 C 0.35118 0.0725 0.74864 0.0
C739 C 0.37424 0.05367 0.72495 0.0
C740 C 0.32406 0.07625 0.71578 0.0
C741 C 0.32 0.0615 0.65837 0.0
C742 C 0.33967 0.03704 0.64411 0.0
C743 C 0.36718 0.03376 0.67618 0.0
H744 H 0.75613 0.63924 0.38722 0.0
H745 H 0.69103 0.60449 0.5193 0.0
H746 H 0.75356 0.5913 0.33067 0.0
H747 H 0.68667 0.55809 0.46167 0.0
H748 H 0.66839 0.58269 0.20623 0.0
H749 H 0.71488 0.58647 0.26341 0.0
H750 H 0.68145 0.51944 0.39397 0.0
H751 H 0.63357 0.5169 0.33688 0.0
C752 C 0.74195 0.62099 0.40515 0.0
C753 C 0.72258 0.62614 0.45569 0.0
C754 C 0.74031 0.59349 0.37261 0.0
C755 C 0.71761 0.57189 0.38766 0.0
C756 C 0.70339 0.57453 0.44595 0.0
C757 C 0.70574 0.60158 0.47955 0.0
C758 C 0.67126 0.56776 0.24566 0.0
C759 C 0.64665 0.55096 0.26938 0.0
C760 C 0.69838 0.5698 0.27908 0.0
C761 C 0.70097 0.55542 0.33722 0.0
C762 C 0.67929 0.53278 0.35211 0.0
C763 C 0.65182 0.53121 0.31935 0.0
H764 H 0.13844 1.00384 0.14963 0.0
H765 H 0.16963 0.93505 0.27761 0.0
H766 H 0.18692 1.00083 0.09483 0.0
H767 H 0.2168 0.93093 0.22252 0.0
H768 H 0.19398 0.9157 0.96773 0.0
H769 H 0.19052 0.96193 0.02602 0.0
H770 H 0.25688 0.92724 0.15646 0.0
H771 H 0.25919 0.87968 0.09824 0.0
C772 C 0.15606 0.9888 0.16723 0.0
C773 C 0.14967 0.96839 0.21553 0.0
C774 C 0.18388 0.98701 0.13583 0.0
C775 C 0.20471 0.96355 0.15032 0.0
C776 C 0.20096 0.94832 0.2073 0.0
C777 C 0.17348 0.95055 0.23942 0.0
C778 C 0.20888 0.91826 0.00731 0.0
C779 C 0.22539 0.89337 0.03069 0.0
C780 C 0.20705 0.94521 0.0413 0.0
C781 C 0.22132 0.94735 0.09963 0.0
C782 C 0.24374 0.92544 0.11425 0.0
C783 C 0.24512 0.89814 0.0809 0.0
H784 H 0.7714 0.63207 0.07679 0.0
H785 H 0.84315 0.60464 0.95207 0.0
H786 H 0.77675 0.58405 0.13258 0.0
H787 H 0.84956 0.5579 0.00833 0.0
H788 H 0.86115 0.578 0.26414 0.0
H789 H 0.8162 0.58285 0.20205 0.0
H790 H 0.85201 0.51645 0.07299 0.0
H791 H 0.89819 0.51255 0.13529 0.0
C792 C 0.78756 0.61527 0.05999 0.0
C793 C 0.80797 0.62265 0.01228 0.0
C794 C 0.79069 0.58774 0.09197 0.0
C795 C 0.81529 0.56815 0.07842 0.0
C796 C 0.83106 0.57273 0.02232 0.0
C797 C 0.82751 0.59992 0.98962 0.0
C798 C 0.85902 0.56331 0.22413 0.0
C799 C 0.88391 0.5462 0.20267 0.0
C800 C 0.83282 0.56596 0.18797 0.0
C801 C 0.83135 0.55178 0.12951 0.0
C802 C 0.85323 0.52923 0.11575 0.0
C803 C 0.87973 0.52695 0.15145 0.0
H804 H 0.18952 0.10334 0.0342 0.0
H805 H 0.25644 0.13459 0.90216 0.0
H806 H 0.18357 0.05685 0.97816 0.0
H807 H 0.25152 0.08666 0.84603 0.0
H808 H 0.16609 0.08123 0.72134 0.0
H809 H 0.21277 0.08293 0.77857 0.0
H810 H 0.17566 0.01891 0.91119 0.0
H811 H 0.12743 0.01946 0.85554 0.0
C812 C 0.20418 0.09969 0.99464 0.0
C813 C 0.22194 0.12344 0.97019 0.0
C814 C 0.20086 0.07253 0.96183 0.0
C815 C 0.21478 0.0691 0.90342 0.0
C816 C 0.2384 0.08961 0.88797 0.0
C817 C 0.24134 0.11712 0.92019 0.0
C818 C 0.1681 0.06663 0.76148 0.0
C819 C 0.14255 0.05151 0.78585 0.0
C820 C 0.19532 0.06741 0.79484 0.0
C821 C 0.19719 0.05331 0.85339 0.0
C822 C 0.1742 0.03215 0.86909 0.0
C823 C 0.14654 0.03224 0.83697 0.0
H824 H 0.6698 0.43384 0.77209 0.0
H825 H 0.63139 0.50001 0.64668 0.0
H826 H 0.71616 0.43307 0.71335 0.0
H827 H 0.67898 0.5007 0.58844 0.0
H828 H 0.69167 0.41689 0.45996 0.0
H829 H 0.68538 0.46274 0.5186 0.0
H830 H 0.75574 0.43323 0.64557 0.0
H831 H 0.76096 0.386 0.58712 0.0
C832 C 0.67188 0.44951 0.73362 0.0
C833 C 0.64646 0.46564 0.71173 0.0
C834 C 0.69885 0.44927 0.69943 0.0
C835 C 0.70054 0.46491 0.64247 0.0
C836 C 0.67769 0.48663 0.62947 0.0
C837 C 0.65038 0.48633 0.66287 0.0
C838 C 0.70687 0.42065 0.49869 0.0
C839 C 0.72538 0.39706 0.52138 0.0
C840 C 0.70335 0.44736 0.53294 0.0
C841 C 0.71798 0.45047 0.59072 0.0
C842 C 0.74231 0.43047 0.60396 0.0
C843 C 0.74542 0.40338 0.57038 0.0
H844 H 0.33707 0.91287 0.5214 0.0
H845 H 0.27227 0.87646 0.39043 0.0
H846 H 0.3381 0.96025 0.46664 0.0
H847 H 0.27204 0.92511 0.33587 0.0
H848 H 0.3572 0.93822 0.21301 0.0
H849 H 0.31013 0.93306 0.26774 0.0
H850 H 0.34024 1.00028 0.40098 0.0
H851 H 0.38871 1.00436 0.34643 0.0
C852 C 0.32181 0.91548 0.4824 0.0
C853 C 0.30605 0.89038 0.45787 0.0
C854 C 0.32221 0.9431 0.45047 0.0
C855 C 0.30729 0.94576 0.39289 0.0
C856 C 0.28574 0.9231 0.37729 0.0
C857 C 0.28582 0.89516 0.40852 0.0
C858 C 0.35348 0.95295 0.25245 0.0
C859 C 0.37743 0.9701 0.278 0.0
C860 C 0.32602 0.95009 0.28443 0.0
C861 C 0.32259 0.96384 0.34299 0.0
C862 C 0.34323 0.98728 0.35889 0.0
C863 C 0.37105 0.98971 0.32762 0.0
H864 H 0.11272 0.37804 0.23373 0.0
H865 H 0.19614 0.41672 0.30436 0.0
H866 H 0.08685 0.42652 0.24871 0.0
H867 H 0.17039 0.4661 0.31921 0.0
H868 H 0.09151 0.51581 0.43862 0.0
H869 H 0.1319 0.48434 0.39274 0.0
H870 H 0.07995 0.47867 0.22344 0.0
H871 H 0.03953 0.50869 0.27047 0.0
C872 C 0.12568 0.39733 0.25103 0.0
C873 C 0.15615 0.39366 0.26899 0.0
C874 C 0.11099 0.42532 0.25926 0.0
C875 C 0.12647 0.45047 0.28549 0.0
C876 C 0.15766 0.44721 0.29969 0.0
C877 C 0.17236 0.419 0.29149 0.0
C878 C 0.08946 0.50871 0.39097 0.0
C879 C 0.06242 0.51427 0.35825 0.0
C880 C 0.11264 0.49083 0.36429 0.0
C881 C 0.10865 0.47795 0.30499 0.0
C882 C 0.08333 0.48723 0.26986 0.0
C883 C 0.06027 0.5047 0.29659 0.0
H884 H 0.76013 0.83284 0.69351 0.0
H885 H 0.76317 0.78264 0.52277 0.0
H886 H 0.79077 0.87366 0.64662 0.0
H887 H 0.79278 0.8233 0.47502 0.0
H888 H 0.89334 0.85741 0.47693 0.0
H889 H 0.84547 0.83077 0.49497 0.0
H890 H 0.80676 0.91293 0.57318 0.0
H891 H 0.85551 0.93944 0.55528 0.0
C892 C 0.76634 0.83122 0.64532 0.0
C893 C 0.75989 0.80458 0.61199 0.0
C894 C 0.7837 0.85463 0.61803 0.0
C895 C 0.79527 0.85124 0.5575 0.0
C896 C 0.78526 0.82621 0.52228 0.0
C897 C 0.7681 0.803 0.54948 0.0
C898 C 0.87434 0.86994 0.49657 0.0
C899 C 0.87814 0.90021 0.51588 0.0
C900 C 0.84669 0.85479 0.50661 0.0
C901 C 0.82205 0.86962 0.53604 0.0
C902 C 0.82532 0.90067 0.55139 0.0
C903 C 0.85317 0.91581 0.54142 0.0
H904 H 0.44023 0.50217 0.94077 0.0
H905 H 0.49246 0.50773 0.77299 0.0
H906 H 0.40007 0.53357 0.89389 0.0
H907 H 0.45209 0.53732 0.7244 0.0
H908 H 0.41602 0.6369 0.72367 0.0
H909 H 0.44284 0.58913 0.74073 0.0
H910 H 0.36155 0.55041 0.82291 0.0
H911 H 0.33495 0.59911 0.80619 0.0
C912 C 0.4425 0.50921 0.89321 0.0
C913 C 0.46956 0.50327 0.86099 0.0
C914 C 0.41938 0.52692 0.86576 0.0
C915 C 0.42324 0.53904 0.80572 0.0
C916 C 0.44874 0.5295 0.77134 0.0
C917 C 0.4718 0.51228 0.79897 0.0
C918 C 0.4037 0.6179 0.7439 0.0
C919 C 0.37369 0.62177 0.76479 0.0
C920 C 0.41896 0.59026 0.75343 0.0
C921 C 0.40455 0.56565 0.78398 0.0
C922 C 0.37362 0.56892 0.80045 0.0
C923 C 0.35839 0.59676 0.79106 0.0
H924 H 0.6722 0.07746 0.05087 0.0
H925 H 0.63349 0.16028 0.97786 0.0
H926 H 0.72146 0.10349 0.06564 0.0
H927 H 0.68185 0.1865 0.99303 0.0
H928 H 0.77182 0.18202 0.18342 0.0
H929 H 0.73988 0.14186 0.13795 0.0
H930 H 0.73394 0.19401 0.96895 0.0
H931 H 0.76448 0.23425 0.01576 0.0
C932 C 0.67447 0.10115 0.03731 0.0
C933 C 0.64915 0.11708 0.01406 0.0
C934 C 0.70261 0.11604 0.04559 0.0
C935 C 0.70583 0.14719 0.03087 0.0
C936 C 0.6807 0.1624 0.00399 0.0
C937 C 0.65278 0.14749 0.99558 0.0
C938 C 0.76443 0.18423 0.13603 0.0
C939 C 0.76995 0.21134 0.10352 0.0
C940 C 0.74631 0.16115 0.10951 0.0
C941 C 0.73326 0.16522 0.05039 0.0
C942 C 0.74257 0.19058 0.0153 0.0
C943 C 0.76032 0.21355 0.0419 0.0
H944 H 0.11191 0.64237 0.75591 0.0
H945 H 0.19425 0.60391 0.68023 0.0
H946 H 0.08542 0.5943 0.73957 0.0
H947 H 0.16791 0.55491 0.66413 0.0
H948 H 0.08858 0.50574 0.54614 0.0
H949 H 0.12903 0.53739 0.59164 0.0
H950 H 0.07781 0.5422 0.76195 0.0
H951 H 0.03732 0.51204 0.71522 0.0
C952 C 0.12452 0.62321 0.73718 0.0
C953 C 0.15485 0.62687 0.71815 0.0
C954 C 0.10947 0.59543 0.72815 0.0
C955 C 0.12444 0.57048 0.70011 0.0
C956 C 0.15552 0.57367 0.68491 0.0
C957 C 0.17057 0.60167 0.69383 0.0
C958 C 0.08669 0.51277 0.59385 0.0
C959 C 0.05988 0.50684 0.62703 0.0
C960 C 0.1099 0.53074 0.62033 0.0
C961 C 0.1062 0.54333 0.67997 0.0
C962 C 0.08099 0.53389 0.7153 0.0
C963 C 0.0579 0.51634 0.68875 0.0
H964 H 0.76484 0.78702 0.97012 0.0
H965 H 0.76949 0.8375 0.79985 0.0
H966 H 0.73464 0.82748 0.0168 0.0
H967 H 0.73804 0.87792 0.84539 0.0
H968 H 0.67043 0.94213 0.93251 0.0
H969 H 0.71984 0.91669 0.91649 0.0
H970 H 0.6823 0.83396 0.99498 0.0
H971 H 0.63387 0.85966 0.01171 0.0
C972 C 0.76017 0.80741 0.94335 0.0
C973 C 0.76896 0.80907 0.88117 0.0
C974 C 0.74263 0.8305 0.96988 0.0
C975 C 0.73267 0.85537 0.93417 0.0
C976 C 0.74497 0.85898 0.8743 0.0
C977 C 0.76284 0.83577 0.84778 0.0
C978 C 0.67319 0.91863 0.94698 0.0
C979 C 0.64843 0.90263 0.97248 0.0
C980 C 0.70141 0.90409 0.93801 0.0
C981 C 0.70525 0.87319 0.95411 0.0
C982 C 0.68069 0.85791 0.98295 0.0
C983 C 0.65272 0.8725 0.99223 0.0
H984 H 0.41463 0.38237 0.25902 0.0
H985 H 0.33326 0.42033 0.1782 0.0
H986 H 0.44172 0.42978 0.24031 0.0
H987 H 0.36005 0.46888 0.16037 0.0
H988 H 0.49218 0.50973 0.20629 0.0
H989 H 0.4517 0.48104 0.25637 0.0
H990 H 0.39785 0.48641 0.08932 0.0
H991 H 0.43796 0.51752 0.04135 0.0
C992 C 0.40231 0.40137 0.23888 0.0
C993 C 0.3721 0.39766 0.21911 0.0
C994 C 0.41772 0.42884 0.22844 0.0
C995 C 0.40323 0.4535 0.19827 0.0
C996 C 0.37217 0.45036 0.18262 0.0
C997 C 0.35681 0.42262 0.19272 0.0
C998 C 0.47111 0.5058 0.18121 0.0
C999 C 0.4683 0.51526 0.11957 0.0
C1000 C 0.44798 0.48905 0.20968 0.0
C1001 C 0.42194 0.48007 0.17627 0.0
C1002 C 0.4176 0.49259 0.11669 0.0
C1003 C 0.44071 0.51008 0.08856 0.0
H1004 H 0.85465 0.0792 0.42187 0.0
H1005 H 0.89059 0.1599 0.50929 0.0
H1006 H 0.80588 0.10548 0.40371 0.0
H1007 H 0.84258 0.18635 0.49095 0.0
H1008 H 0.75877 0.23346 0.46211 0.0
H1009 H 0.78916 0.1928 0.50808 0.0
H1010 H 0.79073 0.14596 0.33246 0.0
H1011 H 0.75996 0.18702 0.2871 0.0
C1012 C 0.85191 0.10249 0.43763 0.0
C1013 C 0.87642 0.11777 0.46584 0.0
C1014 C 0.82403 0.1175 0.42748 0.0
C1015 C 0.8202 0.14817 0.44521 0.0
C1016 C 0.84428 0.16262 0.4773 0.0
C1017 C 0.87199 0.14757 0.4876 0.0
C1018 C 0.76473 0.21386 0.43403 0.0
C1019 C 0.75761 0.21345 0.37085 0.0
C1020 C 0.78233 0.19065 0.46021 0.0
C1021 C 0.79348 0.16663 0.42357 0.0
C1022 C 0.78284 0.16422 0.36215 0.0
C1023 C 0.76535 0.18775 0.33576 0.0
H1024 H 0.91579 0.65761 0.71353 0.0
H1025 H 0.83588 0.60728 0.7702 0.0
H1026 H 0.93461 0.61278 0.65806 0.0
H1027 H 0.85549 0.56163 0.71594 0.0
H1028 H 0.96425 0.50505 0.70835 0.0
H1029 H 0.92631 0.54081 0.748 0.0
H1030 H 0.90317 0.56627 0.56192 0.0
H1031 H 0.94082 0.53015 0.5224 0.0
C1032 C 0.90189 0.63712 0.71275 0.0
C1033 C 0.8742 0.63602 0.7454 0.0
C1034 C 0.91267 0.6115 0.68108 0.0
C1035 C 0.89639 0.5839 0.6824 0.0
C1036 C 0.8682 0.58283 0.71353 0.0
C1037 C 0.85697 0.60889 0.74425 0.0
C1038 C 0.94927 0.51633 0.67583 0.0
C1039 C 0.95376 0.51253 0.61203 0.0
C1040 C 0.9279 0.53728 0.69859 0.0
C1041 C 0.91138 0.55597 0.658 0.0
C1042 C 0.91508 0.55172 0.59416 0.0
C1043 C 0.93626 0.53044 0.57142 0.0
H1044 H 0.13868 0.17428 0.56878 0.0
H1045 H 0.15654 0.08484 0.49303 0.0
H1046 H 0.18217 0.19471 0.51373 0.0
H1047 H 0.20028 0.10595 0.43528 0.0
H1048 H 0.24664 0.18158 0.29299 0.0
H1049 H 0.21131 0.14769 0.34809 0.0
H1050 H 0.23872 0.18845 0.52064 0.0
H1051 H 0.27347 0.22211 0.46581 0.0
C1052 C 0.1519 0.15885 0.54026 0.0
C1053 C 0.14382 0.12788 0.53508 0.0
C1054 C 0.177 0.17062 0.50871 0.0
C1055 C 0.19503 0.1519 0.47075 0.0
C1056 C 0.18683 0.12094 0.46426 0.0
C1057 C 0.1616 0.10894 0.49674 0.0
C1058 C 0.24654 0.18192 0.34289 0.0
C1059 C 0.26438 0.20331 0.37537 0.0
C1060 C 0.22588 0.16281 0.37442 0.0
C1061 C 0.2219 0.16564 0.43864 0.0
C1062 C 0.24105 0.18577 0.47114 0.0
C1063 C 0.26153 0.20465 0.43984 0.0
H1064 H 0.55362 0.51847 0.20459 0.0
H1065 H 0.59415 0.49285 0.03129 0.0
H1066 H 0.58747 0.48373 0.25873 0.0
H1067 H 0.62847 0.4576 0.08579 0.0
H1068 H 0.6919 0.40511 0.23908 0.0
H1069 H 0.67088 0.44829 0.17938 0.0
H1070 H 0.58057 0.42575 0.24474 0.0
H1071 H 0.60097 0.38269 0.3016 0.0
C1072 C 0.57124 0.50694 0.17841 0.0
C1073 C 0.57249 0.5101 0.11396 0.0
C1074 C 0.59022 0.48645 0.20932 0.0
C1075 C 0.61048 0.46767 0.17647 0.0
C1076 C 0.61325 0.47194 0.11233 0.0
C1077 C 0.59396 0.49257 0.08115 0.0
C1078 C 0.6675 0.40899 0.23927 0.0
C1079 C 0.64809 0.39018 0.27463 0.0
C1080 C 0.65555 0.43389 0.20568 0.0
C1081 C 0.62413 0.44069 0.20817 0.0
C1082 C 0.60493 0.42152 0.24276 0.0
C1083 C 0.61669 0.39674 0.27537 0.0
H1084 H 0.36471 0.93022 0.03653 0.0
H1085 H 0.41417 0.85901 0.94139 0.0
H1086 H 0.31658 0.91071 0.99211 0.0
H1087 H 0.36664 0.84039 0.89688 0.0
H1088 H 0.25791 0.8076 0.96316 0.0
H1089 H 0.29511 0.84365 0.00499 0.0
H1090 H 0.31862 0.87135 0.82036 0.0
H1091 H 0.28052 0.83591 0.77862 0.0
C1092 C 0.36546 0.91082 0.00554 0.0
C1093 C 0.39349 0.89643 0.99212 0.0
C1094 C 0.33795 0.89975 0.98012 0.0
C1095 C 0.33811 0.87448 0.94004 0.0
C1096 C 0.366 0.8603 0.92658 0.0
C1097 C 0.39324 0.87098 0.95244 0.0
C1098 C 0.26921 0.82315 0.93172 0.0
C1099 C 0.26447 0.82048 0.86769 0.0
C1100 C 0.29091 0.84346 0.95569 0.0
C1101 C 0.3095 0.86057 0.91593 0.0
C1102 C 0.30417 0.85884 0.85199 0.0
C1103 C 0.28195 0.83892 0.82809 0.0
H1104 H 0.89175 0.35382 0.35002 0.0
H1105 H 0.85113 0.40576 0.20195 0.0
H1106 H 0.91534 0.39989 0.3902 0.0
H1107 H 0.87429 0.45246 0.24319 0.0
H1108 H 0.96225 0.51214 0.28196 0.0
H1109 H 0.92492 0.47432 0.24878 0.0
H1110 H 0.91193 0.44757 0.43846 0.0
H1111 H 0.94901 0.48559 0.47074 0.0
C1112 C 0.88738 0.37522 0.32654 0.0
C1113 C 0.86977 0.37586 0.27222 0.0
C1114 C 0.90079 0.40189 0.34998 0.0
C1115 C 0.89704 0.4302 0.31995 0.0
C1116 C 0.87813 0.43111 0.26723 0.0
C1117 C 0.86459 0.40433 0.24381 0.0
C1118 C 0.94943 0.50001 0.3169 0.0
C1119 C 0.95639 0.50431 0.37968 0.0
C1120 C 0.92843 0.47764 0.2978 0.0
C1121 C 0.91478 0.45781 0.34094 0.0
C1122 C 0.9214 0.46251 0.40388 0.0
C1123 C 0.94214 0.48509 0.42282 0.0
H1124 H 0.25848 0.2038 0.03745 0.0
H1125 H 0.28629 0.19265 0.22607 0.0
H1126 H 0.29606 0.16631 0.00478 0.0
H1127 H 0.3246 0.15581 0.19407 0.0
H1128 H 0.41795 0.13662 0.1019 0.0
H1129 H 0.37188 0.15955 0.1435 0.0
H1130 H 0.31843 0.11602 0.00064 0.0
H1131 H 0.36506 0.09357 0.95788 0.0
C1132 C 0.27088 0.19141 0.07259 0.0
C1133 C 0.26719 0.19917 0.13512 0.0
C1134 C 0.29315 0.17034 0.05374 0.0
C1135 C 0.31349 0.15742 0.09679 0.0
C1136 C 0.30925 0.16467 0.15959 0.0
C1137 C 0.28663 0.18535 0.17838 0.0
C1138 C 0.39637 0.13158 0.07963 0.0
C1139 C 0.39543 0.11351 0.02593 0.0
C1140 C 0.36971 0.14459 0.10394 0.0
C1141 C 0.34114 0.13995 0.07544 0.0
C1142 C 0.33998 0.12055 0.02348 0.0
C1143 C 0.36674 0.10744 -0.00083 0.0
H1144 H 0.69288 0.61465 0.74729 0.0
H1145 H 0.60273 0.6328 0.67513 0.0
H1146 H 0.67217 0.57102 0.80603 0.0
H1147 H 0.58278 0.58921 0.73077 0.0
H1148 H 0.55721 0.49681 0.77593 0.0
H1149 H 0.59118 0.53155 0.72183 0.0
H1150 H 0.62865 0.56143 0.89566 0.0
H1151 H 0.59417 0.52633 0.95005 0.0
C1152 C 0.66871 0.60972 0.74461 0.0
C1153 C 0.64944 0.62758 0.70705 0.0
C1154 C 0.65695 0.58453 0.77763 0.0
C1155 C 0.62593 0.5764 0.77226 0.0
C1156 C 0.60689 0.59444 0.73501 0.0
C1157 C 0.6184 0.61956 0.70309 0.0
C1158 C 0.57414 0.50918 0.8025 0.0
C1159 C 0.57434 0.50715 0.86718 0.0
C1160 C 0.59319 0.52965 0.77155 0.0
C1161 C 0.61246 0.54946 0.80451 0.0
C1162 C 0.61426 0.54626 0.86903 0.0
C1163 C 0.59489 0.5257 0.90021 0.0
H1164 H 0.27633 0.80244 0.52722 0.0
H1165 H 0.24288 0.8337 0.7026 0.0
H1166 H 0.24215 0.83699 0.47416 0.0
H1167 H 0.20658 0.86725 0.64958 0.0
H1168 H 0.14639 0.85043 0.406 0.0
H1169 H 0.18916 0.82993 0.46205 0.0
H1170 H 0.1913 0.91013 0.57811 0.0
H1171 H 0.14714 0.93091 0.52099 0.0
C1172 C 0.26314 0.81832 0.55458 0.0
C1173 C 0.26439 0.81712 0.61921 0.0
C1174 C 0.24256 0.83744 0.52415 0.0
C1175 C 0.22103 0.85469 0.55738 0.0
C1176 C 0.22296 0.85463 0.62233 0.0
C1177 C 0.24416 0.8357 0.6529 0.0
C1178 C 0.15589 0.86406 0.44308 0.0
C1179 C 0.14319 0.89251 0.4587 0.0
C1180 C 0.18082 0.85228 0.47518 0.0
C1181 C 0.19436 0.86855 0.52404 0.0
C1182 C 0.18158 0.89698 0.54059 0.0
C1183 C 0.15629 0.9089 0.508 0.0
H1184 H 0.5366 1.00754 0.76954 0.0
H1185 H 0.58765 0.01593 0.93857 0.0
H1186 H 0.57726 0.97703 0.72447 0.0
H1187 H 0.62835 0.9842 0.89465 0.0
H1188 H 0.69429 0.91734 0.80867 0.0
H1189 H 0.6673 0.96599 0.82398 0.0
H1190 H 0.58544 0.92522 0.74837 0.0
H1191 H 0.61266 0.87754 0.73229 0.0
C1192 C 0.55713 1.00359 0.79636 0.0
C1193 C 0.5589 0.01358 0.85781 0.0
C1194 C 0.58034 0.98585 0.77077 0.0
C1195 C 0.60556 0.97693 0.80665 0.0
C1196 C 0.60917 0.9903 0.86562 0.0
C1197 C 0.5858 1.00835 0.89121 0.0
C1198 C 0.67062 0.9192 0.79473 0.0
C1199 C 0.65536 0.89376 0.7701 0.0
C1200 C 0.65518 0.947 0.80332 0.0
C1201 C 0.62409 0.94975 0.78772 0.0
C1202 C 0.60949 0.92447 0.75996 0.0
C1203 C 0.62497 0.89691 0.75105 0.0
H1204 H 0.25659 0.33479 0.18864 0.0
H1205 H 0.26459 0.28228 0.02147 0.0
H1206 H 0.28787 0.37531 0.14266 0.0
H1207 H 0.2941 0.32297 0.97388 0.0
H1208 H 0.39359 0.35832 0.97857 0.0
H1209 H 0.34567 0.33162 0.99475 0.0
H1210 H 0.30615 0.41366 0.07201 0.0
H1211 H 0.35508 0.44015 0.05632 0.0
C1212 C 0.26391 0.33261 0.14118 0.0
C1213 C 0.25867 0.3054 0.10887 0.0
C1214 C 0.28166 0.3559 0.11435 0.0
C1215 C 0.29463 0.35194 0.05511 0.0
C1216 C 0.28564 0.32635 0.02035 0.0
C1217 C 0.26841 0.30313 0.04736 0.0
C1218 C 0.37441 0.37081 -0.00243 0.0
C1219 C 0.37804 0.40105 0.01718 0.0
C1220 C 0.34669 0.35562 0.00655 0.0
C1221 C 0.32172 0.37037 0.03505 0.0
C1222 C 0.32489 0.4014 0.05084 0.0
C1223 C 0.35285 0.41656 0.04207 0.0
H1224 H 0.93769 1.00197 0.43587 0.0
H1225 H 0.98825 1.00668 0.2657 0.0
H1226 H 0.89711 0.0332 0.38995 0.0
H1227 H 0.9477 0.03673 0.2188 0.0
H1228 H 0.91534 0.13782 0.22719 0.0
H1229 H 0.94122 0.08936 0.24274 0.0
H1230 H 0.85806 0.0504 0.31627 0.0
H1231 H 0.83227 0.0997 0.30057 0.0
C1232 C 0.93941 1.0086 0.38791 0.0
C1233 C 0.96611 1.0025 0.35455 0.0
C1234 C 0.91611 0.0263 0.36119 0.0
C1235 C 0.91968 0.03847 0.30121 0.0
C1236 C 0.94467 0.02869 0.26568 0.0
C1237 C 0.96781 0.01128 0.29237 0.0
C1238 C 0.90244 0.11865 0.24519 0.0
C1239 C 0.87208 0.12247 0.26378 0.0
C1240 C 0.91714 0.09069 0.25379 0.0
C1241 C 0.90178 0.06577 0.28112 0.0
C1242 C 0.87068 0.06914 0.29588 0.0
C1243 C 0.85596 0.0973 0.2872 0.0
H1244 H 0.27087 0.68317 0.69286 0.0
H1245 H 0.2648 0.73561 0.52522 0.0
H1246 H 0.2385 0.64348 0.64664 0.0
H1247 H 0.23406 0.69581 0.4777 0.0
H1248 H 0.13351 0.66243 0.48294 0.0
H1249 H 0.18182 0.68846 0.49997 0.0
H1250 H 0.22061 0.60516 0.57297 0.0
H1251 H 0.17141 0.57929 0.55615 0.0
C1252 C 0.26367 0.68552 0.64535 0.0
C1253 C 0.2699 0.71248 0.61286 0.0
C1254 C 0.24533 0.66271 0.61841 0.0
C1255 C 0.23271 0.6669 0.55891 0.0
C1256 C 0.24241 0.69222 0.52421 0.0
C1257 C 0.26032 0.71493 0.55122 0.0
C1258 C 0.1526 0.64955 0.50122 0.0
C1259 C 0.14873 0.6191 0.51924 0.0
C1260 C 0.18051 0.66434 0.51067 0.0
C1261 C 0.20537 0.649 0.53829 0.0
C1262 C 0.20195 0.61782 0.55249 0.0
C1263 C 0.17384 0.60303 0.54307 0.0
H1264 H 0.69374 0.10183 0.17287 0.0
H1265 H 0.61335 0.13885 0.25931 0.0
H1266 H 0.66721 0.05297 0.15688 0.0
H1267 H 0.58659 0.09092 0.24275 0.0
H1268 H 0.53834 1.00808 0.2178 0.0
H1269 H 0.57929 0.03854 0.26228 0.0
H1270 H 0.6272 0.0358 0.08788 0.0
H1271 H 0.58611 1.00433 0.04435 0.0
C1272 C 0.67045 0.09932 0.18881 0.0
C1273 C 0.65536 0.12411 0.21631 0.0
C1274 C 0.65528 0.07139 0.17987 0.0
C1275 C 0.62462 0.06782 0.19799 0.0
C1276 C 0.61032 0.09231 0.22899 0.0
C1277 C 0.62555 0.12002 0.23822 0.0
C1278 C 0.55823 0.01308 0.18975 0.0
C1279 C 0.559 1.00439 0.12742 0.0
C1280 C 0.58161 0.03076 0.21505 0.0
C1281 C 0.60602 0.04082 0.17812 0.0
C1282 C 0.60866 0.02879 0.11777 0.0
C1283 C 0.58508 0.01092 0.0924 0.0
H1284 H 0.26455 0.28571 0.46415 0.0
H1285 H 0.26904 0.33618 0.29386 0.0
H1286 H 0.23415 0.32599 0.51082 0.0
H1287 H 0.23741 0.37653 0.33953 0.0
H1288 H 0.17151 0.4419 0.4287 0.0
H1289 H 0.22042 0.41562 0.41184 0.0
H1290 H 0.18173 0.33345 0.49031 0.0
H1291 H 0.13374 0.35993 0.50765 0.0
C1292 C 0.25974 0.30605 0.43731 0.0
C1293 C 0.26868 0.30778 0.37519 0.0
C1294 C 0.24208 0.32904 0.46387 0.0
C1295 C 0.2322 0.35402 0.4284 0.0
C1296 C 0.24434 0.35755 0.36833 0.0
C1297 C 0.26228 0.33438 0.34172 0.0
C1298 C 0.17389 0.41833 0.44295 0.0
C1299 C 0.14889 0.40271 0.46848 0.0
C1300 C 0.20184 0.4033 0.43349 0.0
C1301 C 0.20518 0.37229 0.44916 0.0
C1302 C 0.18048 0.35743 0.47842 0.0
C1303 C 0.15275 0.37249 0.48807 0.0
H1304 H 0.93973 0.01576 0.54117 0.0
H1305 H 0.98898 0.01231 0.71309 0.0
H1306 H 0.89904 0.98426 0.58646 0.0
H1307 H 0.9484 0.98208 0.75922 0.0
H1308 H 0.83309 0.91886 0.67784 0.0
H1309 H 0.85937 0.96778 0.65995 0.0
H1310 H 0.94187 0.9293 0.73719 0.0
H1311 H 0.91551 0.88123 0.75497 0.0
C1312 C 0.94116 1.00931 0.58927 0.0
C1313 C 0.96752 0.01594 0.62341 0.0
C1314 C 0.91781 0.99146 0.61561 0.0
C1315 C 0.92097 0.97967 0.67604 0.0
C1316 C 0.94566 0.98981 0.71205 0.0
C1317 C 0.96883 1.00734 0.68576 0.0
C1318 C 0.85675 0.92129 0.69153 0.0
C1319 C 0.87253 0.89635 0.71675 0.0
C1320 C 0.87175 0.94923 0.68154 0.0
C1321 C 0.90281 0.95261 0.69674 0.0
C1322 C 0.91784 0.92796 0.72571 0.0
C1323 C 0.90285 0.90022 0.73563 0.0
H1324 H 0.25647 0.68637 0.79664 0.0
H1325 H 0.26339 0.73645 0.96703 0.0
H1326 H 0.28816 0.6456 0.84061 0.0
H1327 H 0.29328 0.6955 0.01252 0.0
H1328 H 0.39329 0.66127 0.0058 0.0
H1329 H 0.34514 0.68774 0.99118 0.0
H1330 H 0.30602 0.60625 0.9105 0.0
H1331 H 0.35507 0.5799 0.92523 0.0
C1332 C 0.26365 0.68793 0.84429 0.0
C1333 C 0.25789 0.71453 0.87823 0.0
C1334 C 0.28161 0.66451 0.86995 0.0
C1335 C 0.29428 0.66772 0.92967 0.0
C1336 C 0.28495 0.69268 0.96577 0.0
C1337 C 0.26751 0.71604 0.93995 0.0
C1338 C 0.37415 0.64883 0.98639 0.0
C1339 C 0.37793 0.61884 0.96542 0.0
C1340 C 0.34631 0.66388 0.97831 0.0
C1341 C 0.32142 0.64925 0.94915 0.0
C1342 C 0.32472 0.61841 0.93214 0.0
C1343 C 0.35276 0.60336 0.94026 0.0
H1344 H 0.33515 0.11403 0.25591 0.0
H1345 H 0.42714 0.14053 0.30399 0.0
H1346 H 0.35554 0.06967 0.19877 0.0
H1347 H 0.447 0.09635 0.24978 0.0
H1348 H 0.47428 1.00239 0.22024 0.0
H1349 H 0.44073 0.03801 0.27301 0.0
H1350 H 0.39666 0.05936 0.10039 0.0
H1351 H 0.43061 0.0232 0.04716 0.0
C1352 C 0.35961 0.11076 0.2534 0.0
C1353 C 0.37953 0.13106 0.28396 0.0
C1354 C 0.37123 0.08523 0.2213 0.0
C1355 C 0.40284 0.07934 0.22057 0.0
C1356 C 0.42251 0.09995 0.25035 0.0
C1357 C 0.41107 0.12534 0.28145 0.0
C1358 C 0.45619 0.01319 0.19403 0.0
C1359 C 0.45414 1.00868 0.12998 0.0
C1360 C 0.43731 0.03407 0.22411 0.0
C1361 C 0.41628 0.05175 0.19074 0.0
C1362 C 0.41256 0.04591 0.12729 0.0
C1363 C 0.43172 0.02488 0.09691 0.0
H1364 H 0.76998 0.70657 0.95467 0.0
H1365 H 0.74151 0.69619 0.76623 0.0
H1366 H 0.73242 0.66896 0.98724 0.0
H1367 H 0.70326 0.65923 0.79812 0.0
H1368 H 0.61027 0.63927 0.88922 0.0
H1369 H 0.65631 0.66247 0.84832 0.0
H1370 H 0.70953 0.61914 0.99168 0.0
H1371 H 0.66283 0.59648 0.03392 0.0
C1372 C 0.75739 0.69437 0.91951 0.0
C1373 C 0.76078 0.70245 0.85707 0.0
C1374 C 0.73516 0.6732 0.93831 0.0
C1375 C 0.71464 0.66048 0.89532 0.0
C1376 C 0.71872 0.66794 0.83257 0.0
C1377 C 0.74128 0.68873 0.81383 0.0
C1378 C 0.63178 0.63436 0.91182 0.0
C1379 C 0.63262 0.61628 0.9655 0.0
C1380 C 0.65845 0.64752 0.88789 0.0
C1381 C 0.68697 0.64298 0.91664 0.0
C1382 C 0.68804 0.6236 0.96865 0.0
C1383 C 0.66123 0.61038 0.99268 0.0
H1384 H 0.1556 0.87389 0.69305 0.0
H1385 H 0.15733 0.92736 0.86006 0.0
H1386 H 0.13327 0.91721 0.63746 0.0
H1387 H 0.13615 0.97075 0.8047 0.0
H1388 H 0.05144 0.01602 0.71645 0.0
H1389 H 0.08719 0.98233 0.76792 0.0
H1390 H 0.13477 0.96845 0.59562 0.0
H1391 H 0.0978 1.0015 0.54369 0.0
C1392 C 0.15238 0.8953 0.71719 0.0
C1393 C 0.15828 0.89728 0.78082 0.0
C1394 C 0.13955 0.92022 0.68537 0.0
C1395 C 0.13262 0.9477 0.71645 0.0
C1396 C 0.1406 0.95003 0.77922 0.0
C1397 C 0.15294 0.92514 0.81101 0.0
C1398 C 0.07034 1.00684 0.69003 0.0
C1399 C 0.07245 0.01263 0.6264 0.0
C1400 C 0.09088 0.98724 0.71952 0.0
C1401 C 0.11404 0.97231 0.68607 0.0
C1402 C 0.11704 0.97916 0.62276 0.0
C1403 C 0.09625 0.99879 0.59311 0.0
H1404 H 0.77821 0.34215 0.29012 0.0
H1405 H 0.75792 0.29801 0.463 0.0
H1406 H 0.81375 0.37665 0.3435 0.0
H1407 H 0.79272 0.33233 0.51606 0.0
H1408 H 0.86711 0.43979 0.49684 0.0
H1409 H 0.82366 0.41803 0.43865 0.0
H1410 H 0.85045 0.3277 0.49691 0.0
H1411 H 0.89344 0.34889 0.55277 0.0
C1412 C 0.77984 0.34099 0.33984 0.0
C1413 C 0.76392 0.31832 0.37285 0.0
C1414 C 0.80053 0.36053 0.37033 0.0
C1415 C 0.80626 0.35698 0.43386 0.0
C1416 C 0.7889 0.3356 0.46708 0.0
C1417 C 0.76845 0.31629 0.43686 0.0
C1418 C 0.86394 0.41528 0.49602 0.0
C1419 C 0.8838 0.39608 0.52938 0.0
C1420 C 0.83899 0.40288 0.46316 0.0
C1421 C 0.83335 0.3712 0.46418 0.0
C1422 C 0.85373 0.35223 0.49628 0.0
C1423 C 0.87847 0.36444 0.52833 0.0
H1424 H 0.44091 0.98926 0.9659 0.0
H1425 H 0.46113 0.01644 0.77966 0.0
H1426 H 0.40454 0.95144 0.92674 0.0
H1427 H 0.42422 0.97944 0.74045 0.0
H1428 H 0.40987 0.85743 0.81117 0.0
H1429 H 0.42867 0.90483 0.85553 0.0
H1430 H 0.36345 0.95591 0.74822 0.0
H1431 H 0.34376 0.90788 0.7039 0.0
C1432 C 0.43586 0.98886 0.91701 0.0
C1433 C 0.45236 1.00752 0.8762 0.0
C1434 C 0.41548 0.96673 0.89444 0.0
C1435 C 0.41138 0.96256 0.83055 0.0
C1436 C 0.42627 0.98257 0.78989 0.0
C1437 C 0.44702 1.00427 0.81247 0.0
C1438 C 0.39896 0.87858 0.79754 0.0
C1439 C 0.37493 0.8786 0.75441 0.0
C1440 C 0.40972 0.90579 0.82338 0.0
C1441 C 0.39713 0.93401 0.80642 0.0
C1442 C 0.37324 0.93439 0.76291 0.0
C1443 C 0.36202 0.90691 0.73757 0.0
H1444 H 0.7822 0.68049 0.70382 0.0
H1445 H 0.7574 0.71488 0.5247 0.0
H1446 H 0.81614 0.64309 0.65525 0.0
H1447 H 0.79085 0.678 0.47592 0.0
H1448 H 0.84583 0.60499 0.39191 0.0
H1449 H 0.80349 0.62662 0.45068 0.0
H1450 H 0.86483 0.64611 0.60166 0.0
H1451 H 0.90703 0.62341 0.54318 0.0
C1452 C 0.78256 0.67887 0.65402 0.0
C1453 C 0.76527 0.69919 0.61791 0.0
C1454 C 0.80258 0.65787 0.62607 0.0
C1455 C 0.80618 0.65713 0.56138 0.0
C1456 C 0.78822 0.67704 0.52558 0.0
C1457 C 0.76856 0.69803 0.55352 0.0
C1458 C 0.85002 0.61311 0.43842 0.0
C1459 C 0.8796 0.61214 0.46336 0.0
C1460 C 0.8258 0.62574 0.472 0.0
C1461 C 0.83061 0.63842 0.53096 0.0
C1462 C 0.86004 0.63611 0.55703 0.0
C1463 C 0.88428 0.62313 0.52354 0.0
H1464 H 0.17901 0.10996 0.20352 0.0
H1465 H 0.13528 0.16237 0.34721 0.0
H1466 H 0.15607 0.0632 0.24499 0.0
H1467 H 0.11184 0.11627 0.3874 0.0
H1468 H 0.06856 1.00246 0.27986 0.0
H1469 H 0.10607 0.04037 0.24815 0.0
H1470 H 0.11483 0.06925 0.43776 0.0
H1471 H 0.07773 0.03087 0.4683 0.0
C1472 C 0.16487 0.1115 0.24443 0.0
C1473 C 0.1588 0.14009 0.27154 0.0
C1474 C 0.15148 0.08467 0.268 0.0
C1475 C 0.13177 0.08568 0.31951 0.0
C1476 C 0.12704 0.11418 0.34822 0.0
C1477 C 0.14035 0.14087 0.32471 0.0
C1478 C 0.08062 0.01502 0.31529 0.0
C1479 C 0.07251 0.01127 0.37761 0.0
C1480 C 0.10169 0.03747 0.297 0.0
C1481 C 0.11418 0.05796 0.34036 0.0
C1482 C 0.10641 0.05378 0.40294 0.0
C1483 C 0.08569 0.03103 0.42108 0.0
H1484 H 0.74237 0.324 0.2206 0.0
H1485 H 0.77124 0.31324 0.03257 0.0
H1486 H 0.70401 0.36066 0.18796 0.0
H1487 H 0.73341 0.35037 -0.00083 0.0
H1488 H 0.66324 0.42197 0.95106 0.0
H1489 H 0.71011 0.40008 0.99407 0.0
H1490 H 0.65706 0.35624 0.13708 0.0
H1491 H 0.61083 0.37869 0.09544 0.0
C1492 C 0.74221 0.33136 0.17294 0.0
C1493 C 0.76187 0.31765 0.13005 0.0
C1494 C 0.71955 0.35191 0.15375 0.0
C1495 C 0.71547 0.35904 0.09084 0.0
C1496 C 0.73614 0.34635 0.04818 0.0
C1497 C 0.75851 0.32548 0.06746 0.0
C1498 C 0.66171 0.40813 0.99238 0.0
C1499 C 0.63309 0.40187 0.01926 0.0
C1500 C 0.68861 0.39536 0.01686 0.0
C1501 C 0.68764 0.37608 0.06903 0.0
C1502 C 0.6591 0.37115 0.09743 0.0
C1503 C 0.63234 0.38388 0.07306 0.0
H1504 H 0.97042 0.8388 0.34031 0.0
H1505 H 0.06483 0.83286 0.39651 0.0
H1506 H 0.96693 0.78344 0.33819 0.0
H1507 H 0.06107 0.77725 0.39717 0.0
H1508 H 0.05451 0.67757 0.34278 0.0
H1509 H 0.0578 0.73286 0.33902 0.0
H1510 H 0.96357 0.7392 0.39724 0.0
H1511 H 0.96001 0.68352 0.39823 0.0
C1512 C 0.99049 0.82566 0.35251 0.0
C1513 C 0.01796 0.84049 0.36849 0.0
C1514 C 0.98839 0.7937 0.35185 0.0
C1515 C 0.0136 0.77537 0.36786 0.0
C1516 C 0.04119 0.79027 0.3835 0.0
C1517 C 0.04339 0.82232 0.38342 0.0
C1518 C 0.03437 0.6907 0.35454 0.0
C1519 C 1.00695 0.67589 0.37084 0.0
C1520 C 0.03636 0.72264 0.35291 0.0
C1521 C 0.01109 0.74101 0.36827 0.0
C1522 C 0.98352 0.72613 0.38414 0.0
C1523 C 0.98143 0.69406 0.38501 0.0
H1524 H 0.44092 0.81121 0.65436 0.0
H1525 H 0.43484 0.71702 0.59666 0.0
H1526 H 0.49653 0.80756 0.65457 0.0
H1527 H 0.49019 0.71366 0.59394 0.0
H1528 H 0.58993 0.70675 0.6525 0.0
H1529 H 0.53434 0.71036 0.65318 0.0
H1530 H 0.54046 0.80459 0.59466 0.0
H1531 H 0.59582 0.80128 0.59691 0.0
C1532 C 0.45145 0.78984 0.64092 0.0
C1533 C 0.43332 0.76443 0.62563 0.0
C1534 C 0.48345 0.78771 0.64071 0.0
C1535 C 0.49825 0.76024 0.62433 0.0
C1536 C 0.47994 0.73502 0.60814 0.0
C1537 C 0.44803 0.73703 0.60919 0.0
C1538 C 0.57937 0.72819 0.63961 0.0
C1539 C 0.59745 0.75371 0.62482 0.0
C1540 C 0.54736 0.73029 0.63968 0.0
C1541 C 0.5325 0.75785 0.6241 0.0
C1542 C 0.55076 0.78316 0.60829 0.0
C1543 C 0.58268 0.78118 0.60906 0.0
H1544 H 0.56611 0.33176 0.90993 0.0
H1545 H 0.47156 0.33887 0.85496 0.0
H1546 H 0.56167 0.2762 0.91053 0.0
H1547 H 0.46739 0.28356 0.85308 0.0
H1548 H 0.46013 0.18379 0.91279 0.0
H1549 H 0.46436 0.23939 0.91392 0.0
H1550 H 0.55739 0.23262 0.84851 0.0
H1551 H 0.55348 0.17731 0.84982 0.0
C1552 C 0.54447 0.32149 0.8973 0.0
C1553 C 0.51923 0.33992 0.88247 0.0
C1554 C 0.5419 0.28952 0.89734 0.0
C1555 C 0.5141 0.27504 0.88187 0.0
C1556 C 0.48901 0.29361 0.86645 0.0
C1557 C 0.49149 0.3255 0.86705 0.0
C1558 C 0.48143 0.1942 0.89846 0.0
C1559 C 0.50643 0.17595 0.88134 0.0
C1560 C 0.48388 0.2262 0.89884 0.0
C1561 C 0.51131 0.24084 0.88147 0.0
C1562 C 0.5361 0.22244 0.86349 0.0
C1563 C 0.53375 0.19055 0.86374 0.0
H1564 H 0.09526 0.29917 0.10405 0.0
H1565 H 0.08829 0.20454 0.15837 0.0
H1566 H 0.04 0.30314 0.10151 0.0
H1567 H 0.03262 0.20876 0.15818 0.0
H1568 H 0.93344 0.21715 0.09767 0.0
H1569 H 0.98875 0.21311 0.09687 0.0
H1570 H 0.99574 0.30623 0.16161 0.0
H1571 H 0.94013 0.31058 0.16007 0.0
C1572 C 0.08193 0.27915 0.11583 0.0
C1573 C 0.09643 0.25147 0.13139 0.0
C1574 C 0.05002 0.28153 0.11487 0.0
C1575 C 0.03141 0.25639 0.13 0.0
C1576 C 0.04595 0.2286 0.14531 0.0
C1577 C 0.07799 0.22614 0.1457 0.0
C1578 C 0.94672 0.23689 0.11154 0.0
C1579 C 0.93213 0.26426 0.12883 0.0
C1580 C 0.97864 0.23445 0.11159 0.0
C1581 C 0.99714 0.25922 0.12949 0.0
C1582 C 0.98251 0.28671 0.14656 0.0
C1583 C 0.95049 0.28923 0.14594 0.0
H1584 H 0.96097 0.3367 0.58258 0.0
H1585 H 0.05491 0.34164 0.64239 0.0
H1586 H 0.96404 0.28107 0.58179 0.0
H1587 H 0.05766 0.28627 0.64473 0.0
H1588 H 0.96919 0.18118 0.63686 0.0
H1589 H 0.96613 0.23657 0.63958 0.0
H1590 H 0.06111 0.24232 0.58594 0.0
H1591 H 0.06441 0.18675 0.58638 0.0
C1592 C 0.98216 0.32592 0.59637 0.0
C1593 C 1.00769 0.34376 0.61234 0.0
C1594 C 0.98395 0.29387 0.59627 0.0
C1595 C 0.01118 0.27871 0.61305 0.0
C1596 C 0.03648 0.29675 0.63009 0.0
C1597 C 0.03482 0.3287 0.62928 0.0
C1598 C 0.98949 0.19425 0.62588 0.0
C1599 C 0.01709 0.17937 0.61153 0.0
C1600 C 0.98768 0.22621 0.62692 0.0
C1601 C 0.01329 0.2444 0.61274 0.0
C1602 C 0.04093 0.2294 0.59831 0.0
C1603 C 0.04285 0.19738 0.59819 0.0
H1604 H 0.08746 0.81555 0.8413 0.0
H1605 H 0.09351 0.71972 0.88657 0.0
H1606 H 0.0318 0.81183 0.84112 0.0
H1607 H 0.03819 0.71621 0.88909 0.0
H1608 H 0.93844 0.71089 0.82891 0.0
H1609 H 0.99403 0.71468 0.82925 0.0
H1610 H 0.98765 0.80669 0.90045 0.0
H1611 H 0.93228 0.80323 0.89756 0.0
C1612 C 0.07695 0.79377 0.85197 0.0
C1613 C 0.09513 0.76796 0.86372 0.0
C1614 C 0.0449 0.7916 0.85219 0.0
C1615 C 0.03007 0.76362 0.86492 0.0
C1616 C 0.04843 0.738 0.87771 0.0
C1617 C 0.08036 0.7401 0.87677 0.0
C1618 C 0.94891 0.73185 0.84496 0.0
C1619 C 0.93071 0.75671 0.86314 0.0
C1620 C 0.98095 0.73406 0.84541 0.0
C1621 C 0.99577 0.76109 0.86477 0.0
C1622 C 0.97741 0.78572 0.88395 0.0
C1623 C 0.94546 0.78362 0.8828 0.0
H1624 H 0.47344 0.67834 0.13864 0.0
H1625 H 0.56684 0.68631 0.07671 0.0
H1626 H 0.46971 0.73352 0.14602 0.0
H1627 H 0.56276 0.74188 0.08125 0.0
H1628 H 0.46115 0.83396 0.094 0.0
H1629 H 0.4653 0.77848 0.08973 0.0
H1630 H 0.56003 0.78469 0.14501 0.0
H1631 H 0.55612 0.84007 0.14636 0.0
C1632 C 0.49319 0.69192 0.1261 0.0
C1633 C 0.52048 0.67778 0.10705 0.0
C1634 C 0.49096 0.72375 0.12989 0.0
C1635 C 0.51582 0.74256 0.11393 0.0
C1636 C 0.5432 0.72835 0.09498 0.0
C1637 C 0.54556 0.6964 0.09201 0.0
C1638 C 0.4828 0.82345 0.1056 0.0
C1639 C 0.50828 0.84156 0.12044 0.0
C1640 C 0.48522 0.7915 0.10339 0.0
C1641 C 0.51309 0.77673 0.11685 0.0
C1642 C 0.53835 0.79498 0.13297 0.0
C1643 C 0.53603 0.82688 0.13433 0.0
H1644 H 0.5892 0.31365 0.33783 0.0
H1645 H 0.59404 0.21901 0.39283 0.0
H1646 H 0.53356 0.31067 0.33765 0.0
H1647 H 0.53865 0.2163 0.39572 0.0
H1648 H 0.43916 0.21043 0.33618 0.0
H1649 H 0.49474 0.21369 0.33619 0.0
H1650 H 0.4892 0.30778 0.3959 0.0
H1651 H 0.4338 0.30481 0.3928 0.0
C1652 C 0.57839 0.29233 0.35081 0.0
C1653 C 0.59618 0.26657 0.36515 0.0
C1654 C 0.54636 0.29059 0.351 0.0
C1655 C 0.53118 0.26316 0.36647 0.0
C1656 C 0.54917 0.23764 0.38211 0.0
C1657 C 0.58111 0.23927 0.381 0.0
C1658 C 0.44984 0.23177 0.34943 0.0
C1659 C 0.4319 0.25734 0.36435 0.0
C1660 C 0.48186 0.23366 0.34981 0.0
C1661 C 0.49689 0.26106 0.36607 0.0
C1662 C 0.47878 0.28645 0.38184 0.0
C1663 C 0.44683 0.28468 0.38056 0.0
loop_
_geom_bond_atom_site_label_1
_geom_bond_atom_site_label_2
_geom_bond_distance
_geom_bond_site_symmetry_2
_ccdc_geom_bond_type
Zn0 N4 2.020 . S
Zn0 O8 2.019 . S
Zn0 N10 2.119 . S
Zn0 O18 1.975 . S
C1 N2 1.334 . S
C1 N5 1.336 . S
N2 C1 1.334 . S
N2 C3 1.334 1_455 S
C3 N2 1.334 1_655 S
C3 N4 1.336 . S
N4 Zn0 2.020 . S
N4 C3 1.336 . S
N4 N5 1.354 1_655 S
N5 C1 1.336 . S
N5 N4 1.354 1_455 S
N5 Zn9 2.020 . S
C6 O7 1.244 . S
C6 O30 1.257 . S
O7 C6 1.244 . S
O8 Zn0 2.019 . S
O8 C28 1.257 . S
Zn9 N5 2.020 . S
Zn9 O16 1.975 . S
Zn9 N25 2.119 . S
Zn9 O30 2.019 . S
N10 Zn0 2.119 . S
N10 C12 1.334 . S
N10 C13 1.328 . S
C11 C12 1.391 . S
C11 N14 1.329 . S
C11 H32 0.930 . S
C12 N10 1.334 . S
C12 C11 1.391 . S
C12 H19 0.930 . S
C13 N10 1.328 . S
C13 C15 1.392 . S
C13 H20 0.930 . S
N14 C11 1.329 . S
N14 C15 1.331 . S
C15 C13 1.392 . S
C15 N14 1.331 . S
O16 Zn9 1.975 . S
O16 C17 1.252 . S
C17 O16 1.252 . S
C17 O18 1.252 1_455 S
O18 Zn0 1.975 . S
O18 C17 1.252 1_655 S
H19 C12 0.930 . S
H20 C13 0.930 . S
C21 C22 1.392 . S
C21 N25 1.328 . S
C21 H27 0.930 . S
C22 C21 1.392 . S
C22 N26 1.331 . S
C23 C24 1.391 . S
C23 N26 1.329 . S
C23 H33 0.930 . S
C24 C23 1.391 . S
C24 N25 1.334 . S
C24 H31 0.930 . S
N25 Zn9 2.119 . S
N25 C21 1.328 . S
N25 C24 1.334 . S
N26 C22 1.331 . S
N26 C23 1.329 . S
H27 C21 0.930 . S
C28 O8 1.257 . S
C28 O29 1.244 . S
O29 C28 1.244 . S
O30 C6 1.257 . S
O30 Zn9 2.019 . S
H31 C24 0.930 . S
H32 C11 0.930 . S
H33 C23 0.930 . S
Zn34 N38 2.020 . S
Zn34 O42 2.019 . S
Zn34 N44 2.119 . S
Zn34 O52 1.975 . S
C35 N36 1.334 . S
C35 N39 1.336 . S
N36 C35 1.334 . S
N36 C37 1.334 . S
C37 N36 1.334 . S
C37 N38 1.336 . S
N38 Zn34 2.020 . S
N38 C37 1.336 . S
N38 N39 1.354 . S
N39 C35 1.336 . S
N39 N38 1.354 . S
N39 Zn43 2.020 . S
C40 O41 1.244 . S
C40 O64 1.257 . S
O41 C40 1.244 . S
O42 Zn34 2.019 . S
O42 C62 1.257 . S
Zn43 N39 2.020 . S
Zn43 O50 1.975 . S
Zn43 N59 2.119 . S
Zn43 O64 2.019 . S
N44 Zn34 2.119 . S
N44 C46 1.334 . S
N44 C47 1.328 . S
C45 C46 1.391 . S
C45 N48 1.329 . S
C45 H66 0.930 . S
C46 N44 1.334 . S
C46 C45 1.391 . S
C46 H53 0.930 . S
C47 N44 1.328 . S
C47 C49 1.392 . S
C47 H54 0.930 . S
N48 C45 1.329 . S
N48 C49 1.331 . S
C49 C47 1.392 . S
C49 N48 1.331 . S
O50 Zn43 1.975 . S
O50 C51 1.252 . S
C51 O50 1.252 . S
C51 O52 1.252 . S
O52 Zn34 1.975 . S
O52 C51 1.252 . S
H53 C46 0.930 . S
H54 C47 0.930 . S
C55 C56 1.392 . S
C55 N59 1.328 . S
C55 H61 0.930 . S
C56 C55 1.392 . S
C56 N60 1.331 . S
C57 C58 1.391 . S
C57 N60 1.329 . S
C57 H67 0.930 . S
C58 C57 1.391 . S
C58 N59 1.334 . S
C58 H65 0.930 . S
N59 Zn43 2.119 . S
N59 C55 1.328 . S
N59 C58 1.334 . S
N60 C56 1.331 . S
N60 C57 1.329 . S
H61 C55 0.930 . S
C62 O42 1.257 . S
C62 O63 1.244 . S
O63 C62 1.244 . S
O64 C40 1.257 . S
O64 Zn43 2.019 . S
H65 C58 0.930 . S
H66 C45 0.930 . S
H67 C57 0.930 . S
Zn68 N72 2.020 . S
Zn68 O76 2.019 . S
Zn68 N78 2.119 . S
Zn68 O86 1.975 . S
C69 N70 1.334 . S
C69 N73 1.336 . S
N70 C69 1.334 . S
N70 C71 1.334 . S
C71 N70 1.334 . S
C71 N72 1.336 . S
N72 Zn68 2.020 . S
N72 C71 1.336 . S
N72 N73 1.354 . S
N73 C69 1.336 . S
N73 N72 1.354 . S
N73 Zn77 2.020 . S
C74 O75 1.244 . S
C74 O98 1.257 . S
O75 C74 1.244 . S
O76 Zn68 2.019 . S
O76 C96 1.257 1_556 S
Zn77 N73 2.020 . S
Zn77 O84 1.975 . S
Zn77 N93 2.119 1_556 S
Zn77 O98 2.019 . S
N78 Zn68 2.119 . S
N78 C80 1.334 . S
N78 C81 1.328 . S
C79 C80 1.391 . S
C79 N82 1.329 . S
C79 H100 0.930 . S
C80 N78 1.334 . S
C80 C79 1.391 . S
C80 H87 0.930 . S
C81 N78 1.328 . S
C81 C83 1.392 . S
C81 H88 0.930 . S
N82 C79 1.329 . S
N82 C83 1.331 . S
C83 C81 1.392 . S
C83 N82 1.331 . S
O84 Zn77 1.975 . S
O84 C85 1.252 . S
C85 O84 1.252 . S
C85 O86 1.252 . S
O86 Zn68 1.975 . S
O86 C85 1.252 . S
H87 C80 0.930 . S
H88 C81 0.930 . S
C89 C90 1.392 . S
C89 N93 1.328 . S
C89 H95 0.930 1_554 S
C90 C89 1.392 . S
C90 N94 1.331 . S
C91 C92 1.391 . S
C91 N94 1.329 . S
C91 H101 0.930 . S
C92 C91 1.391 . S
C92 N93 1.334 . S
C92 H99 0.930 . S
N93 Zn77 2.119 1_554 S
N93 C89 1.328 . S
N93 C92 1.334 . S
N94 C90 1.331 . S
N94 C91 1.329 . S
H95 C89 0.930 1_556 S
C96 O76 1.257 1_554 S
C96 O97 1.244 . S
O97 C96 1.244 . S
O98 C74 1.257 . S
O98 Zn77 2.019 . S
H99 C92 0.930 . S
H100 C79 0.930 . S
H101 C91 0.930 . S
Zn102 N106 2.020 . S
Zn102 O110 2.019 . S
Zn102 N112 2.119 . S
Zn102 O120 1.975 . S
C103 N104 1.334 . S
C103 N107 1.336 . S
N104 C103 1.334 . S
N104 C105 1.334 . S
C105 N104 1.334 . S
C105 N106 1.336 . S
N106 Zn102 2.020 . S
N106 C105 1.336 . S
N106 N107 1.354 . S
N107 C103 1.336 . S
N107 N106 1.354 . S
N107 Zn111 2.020 . S
C108 O109 1.244 . S
C108 O132 1.257 . S
O109 C108 1.244 . S
O110 Zn102 2.019 . S
O110 C130 1.257 . S
Zn111 N107 2.020 . S
Zn111 O118 1.975 . S
Zn111 N127 2.119 . S
Zn111 O132 2.019 . S
N112 Zn102 2.119 . S
N112 C114 1.334 . S
N112 C115 1.328 . S
C113 C114 1.391 1_556 S
C113 N116 1.329 . S
C113 H134 0.930 . S
C114 N112 1.334 . S
C114 C113 1.391 1_554 S
C114 H121 0.930 . S
C115 N112 1.328 . S
C115 C117 1.392 . S
C115 H122 0.930 . S
N116 C113 1.329 . S
N116 C117 1.331 1_556 S
C117 C115 1.392 . S
C117 N116 1.331 1_554 S
O118 Zn111 1.975 . S
O118 C119 1.252 . S
C119 O118 1.252 . S
C119 O120 1.252 . S
O120 Zn102 1.975 . S
O120 C119 1.252 . S
H121 C114 0.930 . S
H122 C115 0.930 . S
C123 C124 1.392 . S
C123 N127 1.328 . S
C123 H129 0.930 . S
C124 C123 1.392 . S
C124 N128 1.331 . S
C125 C126 1.391 . S
C125 N128 1.329 . S
C125 H135 0.930 . S
C126 C125 1.391 . S
C126 N127 1.334 . S
C126 H133 0.930 . S
N127 Zn111 2.119 . S
N127 C123 1.328 . S
N127 C126 1.334 . S
N128 C124 1.331 . S
N128 C125 1.329 . S
H129 C123 0.930 . S
C130 O110 1.257 . S
C130 O131 1.244 . S
O131 C130 1.244 . S
O132 C108 1.257 . S
O132 Zn111 2.019 . S
H133 C126 0.930 . S
H134 C113 0.930 . S
H135 C125 0.930 . S
Zn136 N140 2.020 . S
Zn136 O144 2.019 . S
Zn136 N146 2.119 . S
Zn136 O154 1.975 . S
C137 N138 1.334 1_655 S
C137 N141 1.336 . S
N138 C137 1.334 1_455 S
N138 C139 1.334 . S
C139 N138 1.334 . S
C139 N140 1.336 . S
N140 Zn136 2.020 . S
N140 C139 1.336 . S
N140 N141 1.354 1_455 S
N141 C137 1.336 . S
N141 N140 1.354 1_655 S
N141 Zn145 2.020 . S
C142 O143 1.244 . S
C142 O166 1.257 . S
O143 C142 1.244 . S
O144 Zn136 2.019 . S
O144 C164 1.257 . S
Zn145 N141 2.020 . S
Zn145 O152 1.975 . S
Zn145 N161 2.119 . S
Zn145 O166 2.019 . S
N146 Zn136 2.119 . S
N146 C148 1.334 . S
N146 C149 1.328 . S
C147 C148 1.391 . S
C147 N150 1.329 . S
C147 H168 0.930 . S
C148 N146 1.334 . S
C148 C147 1.391 . S
C148 H155 0.930 . S
C149 N146 1.328 . S
C149 C151 1.392 . S
C149 H156 0.930 . S
N150 C147 1.329 . S
N150 C151 1.331 . S
C151 C149 1.392 . S
C151 N150 1.331 . S
O152 Zn145 1.975 . S
O152 C153 1.252 1_655 S
C153 O152 1.252 1_455 S
C153 O154 1.252 . S
O154 Zn136 1.975 . S
O154 C153 1.252 . S
H155 C148 0.930 . S
H156 C149 0.930 . S
C157 C158 1.392 . S
C157 N161 1.328 . S
C157 H163 0.930 . S
C158 C157 1.392 . S
C158 N162 1.331 . S
C159 C160 1.391 . S
C159 N162 1.329 . S
C159 H169 0.930 . S
C160 C159 1.391 . S
C160 N161 1.334 . S
C160 H167 0.930 . S
N161 Zn145 2.119 . S
N161 C157 1.328 . S
N161 C160 1.334 . S
N162 C158 1.331 . S
N162 C159 1.329 . S
H163 C157 0.930 . S
C164 O144 1.257 . S
C164 O165 1.244 . S
O165 C164 1.244 . S
O166 C142 1.257 . S
O166 Zn145 2.019 . S
H167 C160 0.930 . S
H168 C147 0.930 . S
H169 C159 0.930 . S
Zn170 N174 2.020 . S
Zn170 O178 2.019 . S
Zn170 N180 2.119 . S
Zn170 O188 1.975 . S
C171 N172 1.334 . S
C171 N175 1.336 . S
N172 C171 1.334 . S
N172 C173 1.334 . S
C173 N172 1.334 . S
C173 N174 1.336 . S
N174 Zn170 2.020 . S
N174 C173 1.336 . S
N174 N175 1.354 . S
N175 C171 1.336 . S
N175 N174 1.354 . S
N175 Zn179 2.020 . S
C176 O177 1.244 . S
C176 O200 1.257 . S
O177 C176 1.244 . S
O178 Zn170 2.019 . S
O178 C198 1.257 . S
Zn179 N175 2.020 . S
Zn179 O186 1.975 . S
Zn179 N195 2.119 . S
Zn179 O200 2.019 . S
N180 Zn170 2.119 . S
N180 C182 1.334 . S
N180 C183 1.328 . S
C181 C182 1.391 1_554 S
C181 N184 1.329 . S
C181 H202 0.930 . S
C182 N180 1.334 . S
C182 C181 1.391 1_556 S
C182 H189 0.930 . S
C183 N180 1.328 . S
C183 C185 1.392 . S
C183 H190 0.930 . S
N184 C181 1.329 . S
N184 C185 1.331 1_554 S
C185 C183 1.392 . S
C185 N184 1.331 1_556 S
O186 Zn179 1.975 . S
O186 C187 1.252 . S
C187 O186 1.252 . S
C187 O188 1.252 . S
O188 Zn170 1.975 . S
O188 C187 1.252 . S
H189 C182 0.930 . S
H190 C183 0.930 . S
C191 C192 1.392 . S
C191 N195 1.328 . S
C191 H197 0.930 . S
C192 C191 1.392 . S
C192 N196 1.331 . S
C193 C194 1.391 . S
C193 N196 1.329 . S
C193 H203 0.930 . S
C194 C193 1.391 . S
C194 N195 1.334 . S
C194 H201 0.930 . S
N195 Zn179 2.119 . S
N195 C191 1.328 . S
N195 C194 1.334 . S
N196 C192 1.331 . S
N196 C193 1.329 . S
H197 C191 0.930 . S
C198 O178 1.257 . S
C198 O199 1.244 . S
O199 C198 1.244 . S
O200 C176 1.257 . S
O200 Zn179 2.019 . S
H201 C194 0.930 . S
H202 C181 0.930 . S
H203 C193 0.930 . S
Zn204 N208 2.020 . S
Zn204 O212 2.019 . S
Zn204 N214 2.119 1_554 S
Zn204 O222 1.975 . S
C205 N206 1.334 . S
C205 N209 1.336 . S
N206 C205 1.334 . S
N206 C207 1.334 . S
C207 N206 1.334 . S
C207 N208 1.336 . S
N208 Zn204 2.020 . S
N208 C207 1.336 . S
N208 N209 1.354 . S
N209 C205 1.336 . S
N209 N208 1.354 . S
N209 Zn213 2.020 . S
C210 O211 1.244 . S
C210 O234 1.257 1_556 S
O211 C210 1.244 . S
O212 Zn204 2.019 . S
O212 C232 1.257 . S
Zn213 N209 2.020 . S
Zn213 O220 1.975 . S
Zn213 N229 2.119 . S
Zn213 O234 2.019 . S
N214 Zn204 2.119 1_556 S
N214 C216 1.334 . S
N214 C217 1.328 . S
C215 C216 1.391 . S
C215 N218 1.329 . S
C215 H236 0.930 . S
C216 N214 1.334 . S
C216 C215 1.391 . S
C216 H223 0.930 . S
C217 N214 1.328 . S
C217 C219 1.392 . S
C217 H224 0.930 1_556 S
N218 C215 1.329 . S
N218 C219 1.331 . S
C219 C217 1.392 . S
C219 N218 1.331 . S
O220 Zn213 1.975 . S
O220 C221 1.252 . S
C221 O220 1.252 . S
C221 O222 1.252 . S
O222 Zn204 1.975 . S
O222 C221 1.252 . S
H223 C216 0.930 . S
H224 C217 0.930 1_554 S
C225 C226 1.392 . S
C225 N229 1.328 . S
C225 H231 0.930 . S
C226 C225 1.392 . S
C226 N230 1.331 . S
C227 C228 1.391 . S
C227 N230 1.329 . S
C227 H237 0.930 . S
C228 C227 1.391 . S
C228 N229 1.334 . S
C228 H235 0.930 . S
N229 Zn213 2.119 . S
N229 C225 1.328 . S
N229 C228 1.334 . S
N230 C226 1.331 . S
N230 C227 1.329 . S
H231 C225 0.930 . S
C232 O212 1.257 . S
C232 O233 1.244 . S
O233 C232 1.244 . S
O234 C210 1.257 1_554 S
O234 Zn213 2.019 . S
H235 C228 0.930 . S
H236 C215 0.930 . S
H237 C227 0.930 . S
Zn238 N242 2.020 . S
Zn238 O246 2.019 . S
Zn238 N248 2.119 . S
Zn238 O256 1.975 . S
C239 N240 1.334 . S
C239 N243 1.336 . S
N240 C239 1.334 . S
N240 C241 1.334 . S
C241 N240 1.334 . S
C241 N242 1.336 . S
N242 Zn238 2.020 . S
N242 C241 1.336 . S
N242 N243 1.354 . S
N243 C239 1.336 . S
N243 N242 1.354 . S
N243 Zn247 2.020 . S
C244 O245 1.244 . S
C244 O268 1.257 . S
O245 C244 1.244 . S
O246 Zn238 2.019 . S
O246 C266 1.257 . S
Zn247 N243 2.020 . S
Zn247 O254 1.975 . S
Zn247 N263 2.119 . S
Zn247 O268 2.019 . S
N248 Zn238 2.119 . S
N248 C250 1.334 . S
N248 C251 1.328 . S
C249 C250 1.391 . S
C249 N252 1.329 . S
C249 H270 0.930 . S
C250 N248 1.334 . S
C250 C249 1.391 . S
C250 H257 0.930 . S
C251 N248 1.328 . S
C251 C253 1.392 . S
C251 H258 0.930 . S
N252 C249 1.329 . S
N252 C253 1.331 . S
C253 C251 1.392 . S
C253 N252 1.331 . S
O254 Zn247 1.975 . S
O254 C255 1.252 . S
C255 O254 1.252 . S
C255 O256 1.252 . S
O256 Zn238 1.975 . S
O256 C255 1.252 . S
H257 C250 0.930 . S
H258 C251 0.930 . S
C259 C260 1.392 . S
C259 N263 1.328 . S
C259 H265 0.930 . S
C260 C259 1.392 . S
C260 N264 1.331 . S
C261 C262 1.391 . S
C261 N264 1.329 . S
C261 H271 0.930 . S
C262 C261 1.391 . S
C262 N263 1.334 . S
C262 H269 0.930 . S
N263 Zn247 2.119 . S
N263 C259 1.328 . S
N263 C262 1.334 . S
N264 C260 1.331 . S
N264 C261 1.329 . S
H265 C259 0.930 . S
C266 O246 1.257 . S
C266 O267 1.244 . S
O267 C266 1.244 . S
O268 C244 1.257 . S
O268 Zn247 2.019 . S
H269 C262 0.930 . S
H270 C249 0.930 . S
H271 C261 0.930 . S
Zn272 N276 2.020 . S
Zn272 O280 2.019 . S
Zn272 N282 2.119 . S
Zn272 O290 1.975 . S
C273 N274 1.334 . S
C273 N277 1.336 . S
N274 C273 1.334 . S
N274 C275 1.334 . S
C275 N274 1.334 . S
C275 N276 1.336 . S
N276 Zn272 2.020 . S
N276 C275 1.336 . S
N276 N277 1.354 . S
N277 C273 1.336 . S
N277 N276 1.354 . S
N277 Zn281 2.020 . S
C278 O279 1.244 . S
C278 O302 1.257 . S
O279 C278 1.244 . S
O280 Zn272 2.019 . S
O280 C300 1.257 . S
Zn281 N277 2.020 . S
Zn281 O288 1.975 . S
Zn281 N297 2.119 . S
Zn281 O302 2.019 . S
N282 Zn272 2.119 . S
N282 C284 1.334 . S
N282 C285 1.328 . S
C283 C284 1.391 . S
C283 N286 1.329 . S
C283 H304 0.930 . S
C284 N282 1.334 . S
C284 C283 1.391 . S
C284 H291 0.930 . S
C285 N282 1.328 . S
C285 C287 1.392 . S
C285 H292 0.930 . S
N286 C283 1.329 . S
N286 C287 1.331 . S
C287 C285 1.392 . S
C287 N286 1.331 . S
O288 Zn281 1.975 . S
O288 C289 1.252 . S
C289 O288 1.252 . S
C289 O290 1.252 . S
O290 Zn272 1.975 . S
O290 C289 1.252 . S
H291 C284 0.930 . S
H292 C285 0.930 . S
C293 C294 1.392 . S
C293 N297 1.328 . S
C293 H299 0.930 . S
C294 C293 1.392 . S
C294 N298 1.331 . S
C295 C296 1.391 . S
C295 N298 1.329 . S
C295 H305 0.930 . S
C296 C295 1.391 . S
C296 N297 1.334 . S
C296 H303 0.930 . S
N297 Zn281 2.119 . S
N297 C293 1.328 . S
N297 C296 1.334 . S
N298 C294 1.331 . S
N298 C295 1.329 . S
H299 C293 0.930 . S
C300 O280 1.257 . S
C300 O301 1.244 . S
O301 C300 1.244 . S
O302 C278 1.257 . S
O302 Zn281 2.019 . S
H303 C296 0.930 . S
H304 C283 0.930 . S
H305 C295 0.930 . S
Zn306 N310 2.020 . S
Zn306 O314 2.019 . S
Zn306 N316 2.119 . S
Zn306 O324 1.975 . S
C307 N308 1.334 . S
C307 N311 1.336 . S
N308 C307 1.334 . S
N308 C309 1.334 . S
C309 N308 1.334 . S
C309 N310 1.336 . S
N310 Zn306 2.020 . S
N310 C309 1.336 . S
N310 N311 1.354 . S
N311 C307 1.336 . S
N311 N310 1.354 . S
N311 Zn315 2.020 . S
C312 O313 1.244 . S
C312 O336 1.257 . S
O313 C312 1.244 . S
O314 Zn306 2.019 . S
O314 C334 1.257 . S
Zn315 N311 2.020 . S
Zn315 O322 1.975 . S
Zn315 N331 2.119 . S
Zn315 O336 2.019 . S
N316 Zn306 2.119 . S
N316 C318 1.334 . S
N316 C319 1.328 . S
C317 C318 1.391 . S
C317 N320 1.329 . S
C317 H338 0.930 . S
C318 N316 1.334 . S
C318 C317 1.391 . S
C318 H325 0.930 . S
C319 N316 1.328 . S
C319 C321 1.392 . S
C319 H326 0.930 . S
N320 C317 1.329 . S
N320 C321 1.331 . S
C321 C319 1.392 . S
C321 N320 1.331 . S
O322 Zn315 1.975 . S
O322 C323 1.252 . S
C323 O322 1.252 . S
C323 O324 1.252 . S
O324 Zn306 1.975 . S
O324 C323 1.252 . S
H325 C318 0.930 . S
H326 C319 0.930 . S
C327 C328 1.392 . S
C327 N331 1.328 . S
C327 H333 0.930 . S
C328 C327 1.392 . S
C328 N332 1.331 1_556 S
C329 C330 1.391 1_554 S
C329 N332 1.329 . S
C329 H339 0.930 . S
C330 C329 1.391 1_556 S
C330 N331 1.334 . S
C330 H337 0.930 . S
N331 Zn315 2.119 . S
N331 C327 1.328 . S
N331 C330 1.334 . S
N332 C328 1.331 1_554 S
N332 C329 1.329 . S
H333 C327 0.930 . S
C334 O314 1.257 . S
C334 O335 1.244 . S
O335 C334 1.244 . S
O336 C312 1.257 . S
O336 Zn315 2.019 . S
H337 C330 0.930 . S
H338 C317 0.930 . S
H339 C329 0.930 . S
Zn340 N344 2.020 . S
Zn340 O348 2.019 . S
Zn340 N350 2.119 . S
Zn340 O358 1.975 . S
C341 N342 1.334 . S
C341 N345 1.336 . S
N342 C341 1.334 . S
N342 C343 1.334 . S
C343 N342 1.334 . S
C343 N344 1.336 . S
N344 Zn340 2.020 . S
N344 C343 1.336 . S
N344 N345 1.354 . S
N345 C341 1.336 . S
N345 N344 1.354 . S
N345 Zn349 2.020 . S
C346 O347 1.244 . S
C346 O370 1.257 . S
O347 C346 1.244 . S
O348 Zn340 2.019 . S
O348 C368 1.257 . S
Zn349 N345 2.020 . S
Zn349 O356 1.975 . S
Zn349 N365 2.119 . S
Zn349 O370 2.019 . S
N350 Zn340 2.119 . S
N350 C352 1.334 . S
N350 C353 1.328 . S
C351 C352 1.391 1_556 S
C351 N354 1.329 . S
C351 H372 0.930 . S
C352 N350 1.334 . S
C352 C351 1.391 1_554 S
C352 H359 0.930 . S
C353 N350 1.328 . S
C353 C355 1.392 . S
C353 H360 0.930 . S
N354 C351 1.329 . S
N354 C355 1.331 1_556 S
C355 C353 1.392 . S
C355 N354 1.331 1_554 S
O356 Zn349 1.975 . S
O356 C357 1.252 . S
C357 O356 1.252 . S
C357 O358 1.252 . S
O358 Zn340 1.975 . S
O358 C357 1.252 . S
H359 C352 0.930 . S
H360 C353 0.930 . S
C361 C362 1.392 . S
C361 N365 1.328 . S
C361 H367 0.930 . S
C362 C361 1.392 . S
C362 N366 1.331 . S
C363 C364 1.391 . S
C363 N366 1.329 . S
C363 H373 0.930 . S
C364 C363 1.391 . S
C364 N365 1.334 . S
C364 H371 0.930 . S
N365 Zn349 2.119 . S
N365 C361 1.328 . S
N365 C364 1.334 . S
N366 C362 1.331 . S
N366 C363 1.329 . S
H367 C361 0.930 . S
C368 O348 1.257 . S
C368 O369 1.244 . S
O369 C368 1.244 . S
O370 C346 1.257 . S
O370 Zn349 2.019 . S
H371 C364 0.930 . S
H372 C351 0.930 . S
H373 C363 0.930 . S
Zn374 N378 2.020 . S
Zn374 O382 2.019 . S
Zn374 N384 2.119 . S
Zn374 O392 1.975 . S
C375 N376 1.334 . S
C375 N379 1.336 . S
N376 C375 1.334 . S
N376 C377 1.334 . S
C377 N376 1.334 . S
C377 N378 1.336 . S
N378 Zn374 2.020 . S
N378 C377 1.336 . S
N378 N379 1.354 . S
N379 C375 1.336 . S
N379 N378 1.354 . S
N379 Zn383 2.020 . S
C380 O381 1.244 . S
C380 O404 1.257 . S
O381 C380 1.244 . S
O382 Zn374 2.019 . S
O382 C402 1.257 . S
Zn383 N379 2.020 . S
Zn383 O390 1.975 . S
Zn383 N399 2.119 . S
Zn383 O404 2.019 . S
N384 Zn374 2.119 . S
N384 C386 1.334 . S
N384 C387 1.328 . S
C385 C386 1.391 . S
C385 N388 1.329 . S
C385 H406 0.930 . S
C386 N384 1.334 . S
C386 C385 1.391 . S
C386 H393 0.930 . S
C387 N384 1.328 . S
C387 C389 1.392 . S
C387 H394 0.930 . S
N388 C385 1.329 . S
N388 C389 1.331 . S
C389 C387 1.392 . S
C389 N388 1.331 . S
O390 Zn383 1.975 . S
O390 C391 1.252 . S
C391 O390 1.252 . S
C391 O392 1.252 . S
O392 Zn374 1.975 . S
O392 C391 1.252 . S
H393 C386 0.930 . S
H394 C387 0.930 . S
C395 C396 1.392 . S
C395 N399 1.328 . S
C395 H401 0.930 . S
C396 C395 1.392 . S
C396 N400 1.331 . S
C397 C398 1.391 . S
C397 N400 1.329 . S
C397 H407 0.930 . S
C398 C397 1.391 . S
C398 N399 1.334 . S
C398 H405 0.930 . S
N399 Zn383 2.119 . S
N399 C395 1.328 . S
N399 C398 1.334 . S
N400 C396 1.331 . S
N400 C397 1.329 . S
H401 C395 0.930 . S
C402 O382 1.257 . S
C402 O403 1.244 . S
O403 C402 1.244 . S
O404 C380 1.257 . S
O404 Zn383 2.019 . S
H405 C398 0.930 . S
H406 C385 0.930 . S
H407 C397 0.930 . S
Zn408 N412 2.020 . S
Zn408 O416 2.019 . S
Zn408 N418 2.119 . S
Zn408 O426 1.975 . S
C409 N410 1.334 . S
C409 N413 1.336 . S
N410 C409 1.334 . S
N410 C411 1.334 . S
C411 N410 1.334 . S
C411 N412 1.336 . S
N412 Zn408 2.020 . S
N412 C411 1.336 . S
N412 N413 1.354 . S
N413 C409 1.336 . S
N413 N412 1.354 . S
N413 Zn417 2.020 . S
C414 O415 1.244 . S
C414 O438 1.257 . S
O415 C414 1.244 . S
O416 Zn408 2.019 . S
O416 C436 1.257 1_556 S
Zn417 N413 2.020 . S
Zn417 O424 1.975 . S
Zn417 N433 2.119 1_556 S
Zn417 O438 2.019 . S
N418 Zn408 2.119 . S
N418 C420 1.334 . S
N418 C421 1.328 . S
C419 C420 1.391 . S
C419 N422 1.329 . S
C419 H440 0.930 . S
C420 N418 1.334 . S
C420 C419 1.391 . S
C420 H427 0.930 . S
C421 N418 1.328 . S
C421 C423 1.392 . S
C421 H428 0.930 . S
N422 C419 1.329 . S
N422 C423 1.331 . S
C423 C421 1.392 . S
C423 N422 1.331 . S
O424 Zn417 1.975 . S
O424 C425 1.252 . S
C425 O424 1.252 . S
C425 O426 1.252 . S
O426 Zn408 1.975 . S
O426 C425 1.252 . S
H427 C420 0.930 . S
H428 C421 0.930 . S
C429 C430 1.392 . S
C429 N433 1.328 . S
C429 H435 0.930 1_554 S
C430 C429 1.392 . S
C430 N434 1.331 . S
C431 C432 1.391 . S
C431 N434 1.329 . S
C431 H441 0.930 . S
C432 C431 1.391 . S
C432 N433 1.334 . S
C432 H439 0.930 . S
N433 Zn417 2.119 1_554 S
N433 C429 1.328 . S
N433 C432 1.334 . S
N434 C430 1.331 . S
N434 C431 1.329 . S
H435 C429 0.930 1_556 S
C436 O416 1.257 1_554 S
C436 O437 1.244 . S
O437 C436 1.244 . S
O438 C414 1.257 . S
O438 Zn417 2.019 . S
H439 C432 0.930 . S
H440 C419 0.930 . S
H441 C431 0.930 . S
Zn442 N446 2.020 . S
Zn442 O450 2.019 . S
Zn442 N452 2.119 . S
Zn442 O460 1.975 . S
C443 N444 1.334 1_655 S
C443 N447 1.336 . S
N444 C443 1.334 1_455 S
N444 C445 1.334 . S
C445 N444 1.334 . S
C445 N446 1.336 . S
N446 Zn442 2.020 . S
N446 C445 1.336 . S
N446 N447 1.354 1_455 S
N447 C443 1.336 . S
N447 N446 1.354 1_655 S
N447 Zn451 2.020 . S
C448 O449 1.244 . S
C448 O472 1.257 . S
O449 C448 1.244 . S
O450 Zn442 2.019 . S
O450 C470 1.257 . S
Zn451 N447 2.020 . S
Zn451 O458 1.975 . S
Zn451 N467 2.119 . S
Zn451 O472 2.019 . S
N452 Zn442 2.119 . S
N452 C454 1.334 . S
N452 C455 1.328 . S
C453 C454 1.391 . S
C453 N456 1.329 . S
C453 H474 0.930 . S
C454 N452 1.334 . S
C454 C453 1.391 . S
C454 H461 0.930 . S
C455 N452 1.328 . S
C455 C457 1.392 . S
C455 H462 0.930 . S
N456 C453 1.329 . S
N456 C457 1.331 . S
C457 C455 1.392 . S
C457 N456 1.331 . S
O458 Zn451 1.975 . S
O458 C459 1.252 1_655 S
C459 O458 1.252 1_455 S
C459 O460 1.252 . S
O460 Zn442 1.975 . S
O460 C459 1.252 . S
H461 C454 0.930 . S
H462 C455 0.930 . S
C463 C464 1.392 . S
C463 N467 1.328 . S
C463 H469 0.930 . S
C464 C463 1.392 . S
C464 N468 1.331 . S
C465 C466 1.391 . S
C465 N468 1.329 . S
C465 H475 0.930 . S
C466 C465 1.391 . S
C466 N467 1.334 . S
C466 H473 0.930 . S
N467 Zn451 2.119 . S
N467 C463 1.328 . S
N467 C466 1.334 . S
N468 C464 1.331 . S
N468 C465 1.329 . S
H469 C463 0.930 . S
C470 O450 1.257 . S
C470 O471 1.244 . S
O471 C470 1.244 . S
O472 C448 1.257 . S
O472 Zn451 2.019 . S
H473 C466 0.930 . S
H474 C453 0.930 . S
H475 C465 0.930 . S
Zn476 N480 2.020 . S
Zn476 O484 2.019 . S
Zn476 N486 2.119 1_554 S
Zn476 O494 1.975 . S
C477 N478 1.334 . S
C477 N481 1.336 . S
N478 C477 1.334 . S
N478 C479 1.334 . S
C479 N478 1.334 . S
C479 N480 1.336 . S
N480 Zn476 2.020 . S
N480 C479 1.336 . S
N480 N481 1.354 . S
N481 C477 1.336 . S
N481 N480 1.354 . S
N481 Zn485 2.020 . S
C482 O483 1.244 . S
C482 O506 1.257 1_556 S
O483 C482 1.244 . S
O484 Zn476 2.019 . S
O484 C504 1.257 . S
Zn485 N481 2.020 . S
Zn485 O492 1.975 . S
Zn485 N501 2.119 . S
Zn485 O506 2.019 . S
N486 Zn476 2.119 1_556 S
N486 C488 1.334 . S
N486 C489 1.328 . S
C487 C488 1.391 . S
C487 N490 1.329 . S
C487 H508 0.930 . S
C488 N486 1.334 . S
C488 C487 1.391 . S
C488 H495 0.930 . S
C489 N486 1.328 . S
C489 C491 1.392 . S
C489 H496 0.930 1_556 S
N490 C487 1.329 . S
N490 C491 1.331 . S
C491 C489 1.392 . S
C491 N490 1.331 . S
O492 Zn485 1.975 . S
O492 C493 1.252 . S
C493 O492 1.252 . S
C493 O494 1.252 . S
O494 Zn476 1.975 . S
O494 C493 1.252 . S
H495 C488 0.930 . S
H496 C489 0.930 1_554 S
C497 C498 1.392 . S
C497 N501 1.328 . S
C497 H503 0.930 . S
C498 C497 1.392 . S
C498 N502 1.331 . S
C499 C500 1.391 . S
C499 N502 1.329 . S
C499 H509 0.930 . S
C500 C499 1.391 . S
C500 N501 1.334 . S
C500 H507 0.930 . S
N501 Zn485 2.119 . S
N501 C497 1.328 . S
N501 C500 1.334 . S
N502 C498 1.331 . S
N502 C499 1.329 . S
H503 C497 0.930 . S
C504 O484 1.257 . S
C504 O505 1.244 . S
O505 C504 1.244 . S
O506 C482 1.257 1_554 S
O506 Zn485 2.019 . S
H507 C500 0.930 . S
H508 C487 0.930 . S
H509 C499 0.930 . S
Zn510 N514 2.020 . S
Zn510 O518 2.019 . S
Zn510 N520 2.119 . S
Zn510 O528 1.975 . S
C511 N512 1.334 . S
C511 N515 1.336 . S
N512 C511 1.334 . S
N512 C513 1.334 1_455 S
C513 N512 1.334 1_655 S
C513 N514 1.336 . S
N514 Zn510 2.020 . S
N514 C513 1.336 . S
N514 N515 1.354 1_655 S
N515 C511 1.336 . S
N515 N514 1.354 1_455 S
N515 Zn519 2.020 . S
C516 O517 1.244 . S
C516 O540 1.257 . S
O517 C516 1.244 . S
O518 Zn510 2.019 . S
O518 C538 1.257 . S
Zn519 N515 2.020 . S
Zn519 O526 1.975 . S
Zn519 N535 2.119 . S
Zn519 O540 2.019 . S
N520 Zn510 2.119 . S
N520 C522 1.334 . S
N520 C523 1.328 . S
C521 C522 1.391 . S
C521 N524 1.329 . S
C521 H542 0.930 . S
C522 N520 1.334 . S
C522 C521 1.391 . S
C522 H529 0.930 . S
C523 N520 1.328 . S
C523 C525 1.392 . S
C523 H530 0.930 . S
N524 C521 1.329 . S
N524 C525 1.331 . S
C525 C523 1.392 . S
C525 N524 1.331 . S
O526 Zn519 1.975 . S
O526 C527 1.252 . S
C527 O526 1.252 . S
C527 O528 1.252 1_455 S
O528 Zn510 1.975 . S
O528 C527 1.252 1_655 S
H529 C522 0.930 . S
H530 C523 0.930 . S
C531 C532 1.392 . S
C531 N535 1.328 . S
C531 H537 0.930 . S
C532 C531 1.392 . S
C532 N536 1.331 . S
C533 C534 1.391 . S
C533 N536 1.329 . S
C533 H543 0.930 . S
C534 C533 1.391 . S
C534 N535 1.334 . S
C534 H541 0.930 . S
N535 Zn519 2.119 . S
N535 C531 1.328 . S
N535 C534 1.334 . S
N536 C532 1.331 . S
N536 C533 1.329 . S
H537 C531 0.930 . S
C538 O518 1.257 . S
C538 O539 1.244 . S
O539 C538 1.244 . S
O540 C516 1.257 . S
O540 Zn519 2.019 . S
H541 C534 0.930 . S
H542 C521 0.930 . S
H543 C533 0.930 . S
H544 C552 0.950 . S
H545 C557 0.950 . S
H546 C554 0.950 . S
H547 C556 0.950 . S
H548 C558 0.950 . S
H549 C560 0.950 . S
H550 C562 0.950 . S
H551 C563 0.950 . S
C552 H544 0.950 . S
C552 C553 1.386 . S
C552 C554 1.391 1_556 S
C553 C552 1.386 . S
C553 C557 1.393 1_556 S
C554 H546 0.950 . S
C554 C552 1.391 1_554 S
C554 C555 1.400 . S
C555 C554 1.400 . S
C555 C556 1.398 . S
C555 C561 1.491 . S
C556 H547 0.950 . S
C556 C555 1.398 . S
C556 C557 1.391 . S
C557 H545 0.950 . S
C557 C553 1.393 1_554 S
C557 C556 1.391 . S
C558 H548 0.950 . S
C558 C559 1.386 . S
C558 C560 1.391 . S
C559 C558 1.386 . S
C559 C563 1.393 . S
C560 H549 0.950 . S
C560 C558 1.391 . S
C560 C561 1.400 . S
C561 C555 1.491 . S
C561 C560 1.400 . S
C561 C562 1.398 . S
C562 H550 0.950 . S
C562 C561 1.398 . S
C562 C563 1.391 . S
C563 H551 0.950 . S
C563 C559 1.393 . S
C563 C562 1.391 . S
H564 C572 0.950 . S
H565 C577 0.950 . S
H566 C574 0.950 . S
H567 C576 0.950 . S
H568 C578 0.950 . S
H569 C580 0.950 . S
H570 C582 0.950 . S
H571 C583 0.950 . S
C572 H564 0.950 . S
C572 C573 1.386 . S
C572 C574 1.391 . S
C573 C572 1.386 . S
C573 C577 1.393 . S
C574 H566 0.950 . S
C574 C572 1.391 . S
C574 C575 1.400 . S
C575 C574 1.400 . S
C575 C576 1.398 . S
C575 C581 1.491 . S
C576 H567 0.950 . S
C576 C575 1.398 . S
C576 C577 1.391 . S
C577 H565 0.950 . S
C577 C573 1.393 . S
C577 C576 1.391 . S
C578 H568 0.950 . S
C578 C579 1.386 . S
C578 C580 1.391 . S
C579 C578 1.386 . S
C579 C583 1.393 . S
C580 H569 0.950 . S
C580 C578 1.391 . S
C580 C581 1.400 . S
C581 C575 1.491 . S
C581 C580 1.400 . S
C581 C582 1.398 . S
C582 H570 0.950 . S
C582 C581 1.398 . S
C582 C583 1.391 . S
C583 H571 0.950 . S
C583 C579 1.393 . S
C583 C582 1.391 . S
H584 C592 0.950 . S
H585 C597 0.950 . S
H586 C594 0.950 . S
H587 C596 0.950 . S
H588 C598 0.950 . S
H589 C600 0.950 . S
H590 C602 0.950 . S
H591 C603 0.950 . S
C592 H584 0.950 . S
C592 C593 1.386 . S
C592 C594 1.391 . S
C593 C592 1.386 . S
C593 C597 1.393 . S
C594 H586 0.950 . S
C594 C592 1.391 . S
C594 C595 1.400 . S
C595 C594 1.400 . S
C595 C596 1.398 . S
C595 C601 1.491 . S
C596 H587 0.950 . S
C596 C595 1.398 . S
C596 C597 1.391 . S
C597 H585 0.950 . S
C597 C593 1.393 . S
C597 C596 1.391 . S
C598 H588 0.950 . S
C598 C599 1.386 . S
C598 C600 1.391 . S
C599 C598 1.386 . S
C599 C603 1.393 . S
C600 H589 0.950 . S
C600 C598 1.391 . S
C600 C601 1.400 . S
C601 C595 1.491 . S
C601 C600 1.400 . S
C601 C602 1.398 . S
C602 H590 0.950 . S
C602 C601 1.398 . S
C602 C603 1.391 . S
C603 H591 0.950 . S
C603 C599 1.393 . S
C603 C602 1.391 . S
H604 C612 0.950 1_554 S
H605 C617 0.950 1_554 S
H606 C614 0.950 . S
H607 C616 0.950 . S
H608 C618 0.950 . S
H609 C620 0.950 . S
H610 C622 0.950 . S
H611 C623 0.950 . S
C612 H604 0.950 1_556 S
C612 C613 1.386 1_556 S
C612 C614 1.391 . S
C613 C612 1.386 1_554 S
C613 C617 1.393 1_554 S
C614 H606 0.950 . S
C614 C612 1.391 . S
C614 C615 1.400 . S
C615 C614 1.400 . S
C615 C616 1.398 . S
C615 C621 1.491 . S
C616 H607 0.950 . S
C616 C615 1.398 . S
C616 C617 1.391 . S
C617 H605 0.950 1_556 S
C617 C613 1.393 1_556 S
C617 C616 1.391 . S
C618 H608 0.950 . S
C618 C619 1.386 . S
C618 C620 1.391 . S
C619 C618 1.386 . S
C619 C623 1.393 . S
C620 H609 0.950 . S
C620 C618 1.391 . S
C620 C621 1.400 . S
C621 C615 1.491 . S
C621 C620 1.400 . S
C621 C622 1.398 . S
C622 H610 0.950 . S
C622 C621 1.398 . S
C622 C623 1.391 . S
C623 H611 0.950 . S
C623 C619 1.393 . S
C623 C622 1.391 . S
H624 C632 0.950 . S
H625 C637 0.950 . S
H626 C634 0.950 . S
H627 C636 0.950 . S
H628 C638 0.950 . S
H629 C640 0.950 . S
H630 C642 0.950 . S
H631 C643 0.950 . S
C632 H624 0.950 . S
C632 C633 1.386 . S
C632 C634 1.391 1_554 S
C633 C632 1.386 . S
C633 C637 1.393 1_554 S
C634 H626 0.950 . S
C634 C632 1.391 1_556 S
C634 C635 1.400 . S
C635 C634 1.400 . S
C635 C636 1.398 . S
C635 C641 1.491 . S
C636 H627 0.950 . S
C636 C635 1.398 . S
C636 C637 1.391 . S
C637 H625 0.950 . S
C637 C633 1.393 1_556 S
C637 C636 1.391 . S
C638 H628 0.950 . S
C638 C639 1.386 . S
C638 C640 1.391 . S
C639 C638 1.386 . S
C639 C643 1.393 . S
C640 H629 0.950 . S
C640 C638 1.391 . S
C640 C641 1.400 . S
C641 C635 1.491 . S
C641 C640 1.400 . S
C641 C642 1.398 . S
C642 H630 0.950 . S
C642 C641 1.398 . S
C642 C643 1.391 . S
C643 H631 0.950 . S
C643 C639 1.393 . S
C643 C642 1.391 . S
H644 C652 0.950 . S
H645 C657 0.950 . S
H646 C654 0.950 . S
H647 C656 0.950 . S
H648 C658 0.950 . S
H649 C660 0.950 . S
H650 C662 0.950 . S
H651 C663 0.950 . S
C652 H644 0.950 . S
C652 C653 1.386 1_554 S
C652 C654 1.391 . S
C653 C652 1.386 1_556 S
C653 C657 1.393 . S
C654 H646 0.950 . S
C654 C652 1.391 . S
C654 C655 1.400 . S
C655 C654 1.400 . S
C655 C656 1.398 . S
C655 C661 1.491 . S
C656 H647 0.950 . S
C656 C655 1.398 . S
C656 C657 1.391 1_554 S
C657 H645 0.950 . S
C657 C653 1.393 . S
C657 C656 1.391 1_556 S
C658 H648 0.950 . S
C658 C659 1.386 . S
C658 C660 1.391 . S
C659 C658 1.386 . S
C659 C663 1.393 . S
C660 H649 0.950 . S
C660 C658 1.391 . S
C660 C661 1.400 . S
C661 C655 1.491 . S
C661 C660 1.400 . S
C661 C662 1.398 . S
C662 H650 0.950 . S
C662 C661 1.398 . S
C662 C663 1.391 . S
C663 H651 0.950 . S
C663 C659 1.393 . S
C663 C662 1.391 . S
H664 C672 0.950 . S
H665 C677 0.950 . S
H666 C674 0.950 . S
H667 C676 0.950 . S
H668 C678 0.950 . S
H669 C680 0.950 . S
H670 C682 0.950 . S
H671 C683 0.950 . S
C672 H664 0.950 . S
C672 C673 1.386 . S
C672 C674 1.391 . S
C673 C672 1.386 . S
C673 C677 1.393 . S
C674 H666 0.950 . S
C674 C672 1.391 . S
C674 C675 1.400 . S
C675 C674 1.400 . S
C675 C676 1.398 . S
C675 C681 1.491 . S
C676 H667 0.950 . S
C676 C675 1.398 . S
C676 C677 1.391 . S
C677 H665 0.950 . S
C677 C673 1.393 . S
C677 C676 1.391 . S
C678 H668 0.950 . S
C678 C679 1.386 . S
C678 C680 1.391 . S
C679 C678 1.386 . S
C679 C683 1.393 . S
C680 H669 0.950 . S
C680 C678 1.391 . S
C680 C681 1.400 . S
C681 C675 1.491 . S
C681 C680 1.400 . S
C681 C682 1.398 . S
C682 H670 0.950 . S
C682 C681 1.398 . S
C682 C683 1.391 . S
C683 H671 0.950 . S
C683 C679 1.393 . S
C683 C682 1.391 . S
H684 C692 0.950 . S
H685 C697 0.950 . S
H686 C694 0.950 . S
H687 C696 0.950 . S
H688 C698 0.950 . S
H689 C700 0.950 . S
H690 C702 0.950 . S
H691 C703 0.950 . S
C692 H684 0.950 . S
C692 C693 1.386 . S
C692 C694 1.391 . S
C693 C692 1.386 . S
C693 C697 1.393 . S
C694 H686 0.950 . S
C694 C692 1.391 . S
C694 C695 1.400 . S
C695 C694 1.400 . S
C695 C696 1.398 . S
C695 C701 1.491 . S
C696 H687 0.950 . S
C696 C695 1.398 . S
C696 C697 1.391 . S
C697 H685 0.950 . S
C697 C693 1.393 . S
C697 C696 1.391 . S
C698 H688 0.950 . S
C698 C699 1.386 . S
C698 C700 1.391 . S
C699 C698 1.386 . S
C699 C703 1.393 . S
C700 H689 0.950 . S
C700 C698 1.391 . S
C700 C701 1.400 . S
C701 C695 1.491 . S
C701 C700 1.400 . S
C701 C702 1.398 . S
C702 H690 0.950 . S
C702 C701 1.398 . S
C702 C703 1.391 . S
C703 H691 0.950 . S
C703 C699 1.393 . S
C703 C702 1.391 . S
H704 C712 0.950 . S
H705 C717 0.950 . S
H706 C714 0.950 . S
H707 C716 0.950 . S
H708 C718 0.950 . S
H709 C720 0.950 . S
H710 C722 0.950 . S
H711 C723 0.950 . S
C712 H704 0.950 . S
C712 C713 1.386 . S
C712 C714 1.391 . S
C713 C712 1.386 . S
C713 C717 1.393 . S
C714 H706 0.950 . S
C714 C712 1.391 . S
C714 C715 1.400 . S
C715 C714 1.400 . S
C715 C716 1.398 . S
C715 C721 1.491 . S
C716 H707 0.950 . S
C716 C715 1.398 . S
C716 C717 1.391 . S
C717 H705 0.950 . S
C717 C713 1.393 . S
C717 C716 1.391 . S
C718 H708 0.950 . S
C718 C719 1.386 . S
C718 C720 1.391 1_554 S
C719 C718 1.386 . S
C719 C723 1.393 1_554 S
C720 H709 0.950 . S
C720 C718 1.391 1_556 S
C720 C721 1.400 . S
C721 C715 1.491 . S
C721 C720 1.400 . S
C721 C722 1.398 . S
C722 H710 0.950 . S
C722 C721 1.398 . S
C722 C723 1.391 . S
C723 H711 0.950 . S
C723 C719 1.393 1_556 S
C723 C722 1.391 . S
H724 C732 0.950 . S
H725 C737 0.950 . S
H726 C734 0.950 . S
H727 C736 0.950 . S
H728 C738 0.950 . S
H729 C740 0.950 . S
H730 C742 0.950 . S
H731 C743 0.950 . S
C732 H724 0.950 . S
C732 C733 1.386 . S
C732 C734 1.391 . S
C733 C732 1.386 . S
C733 C737 1.393 . S
C734 H726 0.950 . S
C734 C732 1.391 . S
C734 C735 1.400 . S
C735 C734 1.400 . S
C735 C736 1.398 . S
C735 C741 1.491 . S
C736 H727 0.950 . S
C736 C735 1.398 . S
C736 C737 1.391 . S
C737 H725 0.950 . S
C737 C733 1.393 . S
C737 C736 1.391 . S
C738 H728 0.950 . S
C738 C739 1.386 . S
C738 C740 1.391 . S
C739 C738 1.386 . S
C739 C743 1.393 . S
C740 H729 0.950 . S
C740 C738 1.391 . S
C740 C741 1.400 . S
C741 C735 1.491 . S
C741 C740 1.400 . S
C741 C742 1.398 . S
C742 H730 0.950 . S
C742 C741 1.398 . S
C742 C743 1.391 . S
C743 H731 0.950 . S
C743 C739 1.393 . S
C743 C742 1.391 . S
H744 C752 0.950 . S
H745 C757 0.950 . S
H746 C754 0.950 . S
H747 C756 0.950 . S
H748 C758 0.950 . S
H749 C760 0.950 . S
H750 C762 0.950 . S
H751 C763 0.950 . S
C752 H744 0.950 . S
C752 C753 1.386 . S
C752 C754 1.391 . S
C753 C752 1.386 . S
C753 C757 1.393 . S
C754 H746 0.950 . S
C754 C752 1.391 . S
C754 C755 1.400 . S
C755 C754 1.400 . S
C755 C756 1.398 . S
C755 C761 1.491 . S
C756 H747 0.950 . S
C756 C755 1.398 . S
C756 C757 1.391 . S
C757 H745 0.950 . S
C757 C753 1.393 . S
C757 C756 1.391 . S
C758 H748 0.950 . S
C758 C759 1.386 . S
C758 C760 1.391 . S
C759 C758 1.386 . S
C759 C763 1.393 . S
C760 H749 0.950 . S
C760 C758 1.391 . S
C760 C761 1.400 . S
C761 C755 1.491 . S
C761 C760 1.400 . S
C761 C762 1.398 . S
C762 H750 0.950 . S
C762 C761 1.398 . S
C762 C763 1.391 . S
C763 H751 0.950 . S
C763 C759 1.393 . S
C763 C762 1.391 . S
H764 C772 0.950 . S
H765 C777 0.950 . S
H766 C774 0.950 . S
H767 C776 0.950 . S
H768 C778 0.950 . S
H769 C780 0.950 . S
H770 C782 0.950 . S
H771 C783 0.950 . S
C772 H764 0.950 . S
C772 C773 1.386 . S
C772 C774 1.391 . S
C773 C772 1.386 . S
C773 C777 1.393 . S
C774 H766 0.950 . S
C774 C772 1.391 . S
C774 C775 1.400 . S
C775 C774 1.400 . S
C775 C776 1.398 . S
C775 C781 1.491 . S
C776 H767 0.950 . S
C776 C775 1.398 . S
C776 C777 1.391 . S
C777 H765 0.950 . S
C777 C773 1.393 . S
C777 C776 1.391 . S
C778 H768 0.950 . S
C778 C779 1.386 . S
C778 C780 1.391 1_556 S
C779 C778 1.386 . S
C779 C783 1.393 . S
C780 H769 0.950 . S
C780 C778 1.391 1_554 S
C780 C781 1.400 . S
C781 C775 1.491 . S
C781 C780 1.400 . S
C781 C782 1.398 . S
C782 H770 0.950 . S
C782 C781 1.398 . S
C782 C783 1.390 1_554 S
C783 H771 0.950 . S
C783 C779 1.393 . S
C783 C782 1.390 1_556 S
H784 C792 0.944 1_556 S
H785 C797 0.950 . S
H786 C794 0.950 . S
H787 C796 0.950 . S
H788 C798 0.950 . S
H789 C800 0.950 . S
H790 C802 0.950 . S
H791 C803 0.950 . S
C792 H784 0.944 1_554 S
C792 C793 1.379 1_554 S
C792 C794 1.404 . S
C793 C792 1.379 1_556 S
C793 C797 1.393 . S
C794 H786 0.950 . S
C794 C792 1.404 . S
C794 C795 1.400 . S
C795 C794 1.400 . S
C795 C796 1.398 . S
C795 C801 1.491 . S
C796 H787 0.950 . S
C796 C795 1.398 . S
C796 C797 1.391 1_554 S
C797 H785 0.950 . S
C797 C793 1.393 . S
C797 C796 1.391 1_556 S
C798 H788 0.950 . S
C798 C799 1.386 . S
C798 C800 1.391 . S
C799 C798 1.386 . S
C799 C803 1.393 . S
C800 H789 0.950 . S
C800 C798 1.391 . S
C800 C801 1.400 . S
C801 C795 1.491 . S
C801 C800 1.400 . S
C801 C802 1.398 . S
C802 H790 0.950 . S
C802 C801 1.398 . S
C802 C803 1.391 . S
C803 H791 0.950 . S
C803 C799 1.393 . S
C803 C802 1.391 . S
H804 C812 0.950 . S
H805 C817 0.950 . S
H806 C814 0.950 . S
H807 C816 0.950 . S
H808 C818 0.950 . S
H809 C820 0.950 . S
H810 C822 0.950 . S
H811 C823 0.950 . S
C812 H804 0.950 . S
C812 C813 1.386 . S
C812 C814 1.391 1_554 S
C813 C812 1.386 . S
C813 C817 1.393 1_554 S
C814 H806 0.950 . S
C814 C812 1.391 1_556 S
C814 C815 1.400 . S
C815 C814 1.400 . S
C815 C816 1.398 . S
C815 C821 1.491 . S
C816 H807 0.950 . S
C816 C815 1.398 . S
C816 C817 1.391 . S
C817 H805 0.950 . S
C817 C813 1.393 1_556 S
C817 C816 1.391 . S
C818 H808 0.950 . S
C818 C819 1.386 . S
C818 C820 1.391 . S
C819 C818 1.386 . S
C819 C823 1.393 . S
C820 H809 0.950 . S
C820 C818 1.391 . S
C820 C821 1.400 . S
C821 C815 1.491 . S
C821 C820 1.400 . S
C821 C822 1.398 . S
C822 H810 0.950 . S
C822 C821 1.398 . S
C822 C823 1.391 . S
C823 H811 0.950 . S
C823 C819 1.393 . S
C823 C822 1.391 . S
H824 C832 0.950 . S
H825 C837 0.950 . S
H826 C834 0.950 . S
H827 C836 0.950 . S
H828 C838 0.950 . S
H829 C840 0.950 . S
H830 C842 0.950 . S
H831 C843 0.950 . S
C832 H824 0.950 . S
C832 C833 1.386 . S
C832 C834 1.391 . S
C833 C832 1.386 . S
C833 C837 1.393 . S
C834 H826 0.950 . S
C834 C832 1.391 . S
C834 C835 1.400 . S
C835 C834 1.400 . S
C835 C836 1.398 . S
C835 C841 1.491 . S
C836 H827 0.950 . S
C836 C835 1.398 . S
C836 C837 1.391 . S
C837 H825 0.950 . S
C837 C833 1.393 . S
C837 C836 1.391 . S
C838 H828 0.950 . S
C838 C839 1.386 . S
C838 C840 1.391 . S
C839 C838 1.386 . S
C839 C843 1.393 . S
C840 H829 0.950 . S
C840 C838 1.391 . S
C840 C841 1.400 . S
C841 C835 1.491 . S
C841 C840 1.400 . S
C841 C842 1.398 . S
C842 H830 0.950 . S
C842 C841 1.398 . S
C842 C843 1.391 . S
C843 H831 0.950 . S
C843 C839 1.393 . S
C843 C842 1.391 . S
H844 C852 0.950 . S
H845 C857 0.950 . S
H846 C854 0.950 . S
H847 C856 0.950 . S
H848 C858 0.950 . S
H849 C860 0.950 . S
H850 C862 0.950 . S
H851 C863 0.950 . S
C852 H844 0.950 . S
C852 C853 1.386 . S
C852 C854 1.391 . S
C853 C852 1.386 . S
C853 C857 1.393 . S
C854 H846 0.950 . S
C854 C852 1.391 . S
C854 C855 1.400 . S
C855 C854 1.400 . S
C855 C856 1.398 . S
C855 C861 1.491 . S
C856 H847 0.950 . S
C856 C855 1.398 . S
C856 C857 1.391 . S
C857 H845 0.950 . S
C857 C853 1.393 . S
C857 C856 1.391 . S
C858 H848 0.950 . S
C858 C859 1.386 . S
C858 C860 1.391 . S
C859 C858 1.386 . S
C859 C863 1.393 . S
C860 H849 0.950 . S
C860 C858 1.391 . S
C860 C861 1.400 . S
C861 C855 1.491 . S
C861 C860 1.400 . S
C861 C862 1.398 . S
C862 H850 0.950 . S
C862 C861 1.398 . S
C862 C863 1.391 . S
C863 H851 0.950 . S
C863 C859 1.393 . S
C863 C862 1.391 . S
H864 C872 0.950 . S
H865 C877 0.950 . S
H866 C874 0.950 . S
H867 C876 0.950 . S
H868 C878 0.950 . S
H869 C880 0.950 . S
H870 C882 0.950 . S
H871 C883 0.950 . S
C872 H864 0.950 . S
C872 C873 1.386 . S
C872 C874 1.391 . S
C873 C872 1.386 . S
C873 C877 1.393 . S
C874 H866 0.950 . S
C874 C872 1.391 . S
C874 C875 1.400 . S
C875 C874 1.400 . S
C875 C876 1.398 . S
C875 C881 1.491 . S
C876 H867 0.950 . S
C876 C875 1.398 . S
C876 C877 1.391 . S
C877 H865 0.950 . S
C877 C873 1.393 . S
C877 C876 1.391 . S
C878 H868 0.950 . S
C878 C879 1.386 . S
C878 C880 1.391 . S
C879 C878 1.386 . S
C879 C883 1.393 . S
C880 H869 0.950 . S
C880 C878 1.391 . S
C880 C881 1.400 . S
C881 C875 1.491 . S
C881 C880 1.400 . S
C881 C882 1.398 . S
C882 H870 0.950 . S
C882 C881 1.398 . S
C882 C883 1.391 . S
C883 H871 0.950 . S
C883 C879 1.393 . S
C883 C882 1.391 . S
H884 C892 0.950 . S
H885 C897 0.950 . S
H886 C894 0.950 . S
H887 C896 0.950 . S
H888 C898 0.950 . S
H889 C900 0.950 . S
H890 C902 0.950 . S
H891 C903 0.950 . S
C892 H884 0.950 . S
C892 C893 1.386 . S
C892 C894 1.391 . S
C893 C892 1.386 . S
C893 C897 1.393 . S
C894 H886 0.950 . S
C894 C892 1.391 . S
C894 C895 1.400 . S
C895 C894 1.400 . S
C895 C896 1.398 . S
C895 C901 1.491 . S
C896 H887 0.950 . S
C896 C895 1.398 . S
C896 C897 1.391 . S
C897 H885 0.950 . S
C897 C893 1.393 . S
C897 C896 1.391 . S
C898 H888 0.950 . S
C898 C899 1.386 . S
C898 C900 1.391 . S
C899 C898 1.386 . S
C899 C903 1.393 . S
C900 H889 0.950 . S
C900 C898 1.391 . S
C900 C901 1.400 . S
C901 C895 1.491 . S
C901 C900 1.400 . S
C901 C902 1.398 . S
C902 H890 0.950 . S
C902 C901 1.398 . S
C902 C903 1.391 . S
C903 H891 0.950 . S
C903 C899 1.393 . S
C903 C902 1.391 . S
H904 C912 0.950 . S
H905 C917 0.950 . S
H906 C914 0.950 . S
H907 C916 0.950 . S
H908 C918 0.950 . S
H909 C920 0.950 . S
H910 C922 0.950 . S
H911 C923 0.950 . S
C912 H904 0.950 . S
C912 C913 1.386 . S
C912 C914 1.391 . S
C913 C912 1.386 . S
C913 C917 1.393 . S
C914 H906 0.950 . S
C914 C912 1.391 . S
C914 C915 1.400 . S
C915 C914 1.400 . S
C915 C916 1.398 . S
C915 C921 1.491 . S
C916 H907 0.950 . S
C916 C915 1.398 . S
C916 C917 1.391 . S
C917 H905 0.950 . S
C917 C913 1.393 . S
C917 C916 1.391 . S
C918 H908 0.950 . S
C918 C919 1.386 . S
C918 C920 1.391 . S
C919 C918 1.386 . S
C919 C923 1.393 . S
C920 H909 0.950 . S
C920 C918 1.391 . S
C920 C921 1.400 . S
C921 C915 1.491 . S
C921 C920 1.400 . S
C921 C922 1.398 . S
C922 H910 0.950 . S
C922 C921 1.398 . S
C922 C923 1.391 . S
C923 H911 0.950 . S
C923 C919 1.393 . S
C923 C922 1.391 . S
H924 C932 0.950 . S
H925 C937 0.950 . S
H926 C934 0.950 . S
H927 C936 0.950 . S
H928 C938 0.950 . S
H929 C940 0.950 . S
H930 C942 0.950 . S
H931 C943 0.950 . S
C932 H924 0.950 . S
C932 C933 1.386 . S
C932 C934 1.391 . S
C933 C932 1.386 . S
C933 C937 1.393 . S
C934 H926 0.950 . S
C934 C932 1.391 . S
C934 C935 1.400 . S
C935 C934 1.400 . S
C935 C936 1.398 . S
C935 C941 1.491 . S
C936 H927 0.950 . S
C936 C935 1.398 . S
C936 C937 1.391 . S
C937 H925 0.950 . S
C937 C933 1.393 . S
C937 C936 1.391 . S
C938 H928 0.950 . S
C938 C939 1.386 . S
C938 C940 1.391 . S
C939 C938 1.386 . S
C939 C943 1.393 . S
C940 H929 0.950 . S
C940 C938 1.391 . S
C940 C941 1.400 . S
C941 C935 1.491 . S
C941 C940 1.400 . S
C941 C942 1.398 . S
C942 H930 0.950 . S
C942 C941 1.398 . S
C942 C943 1.391 . S
C943 H931 0.950 . S
C943 C939 1.393 . S
C943 C942 1.391 . S
H944 C952 0.950 . S
H945 C957 0.950 . S
H946 C954 0.950 . S
H947 C956 0.950 . S
H948 C958 0.950 . S
H949 C960 0.950 . S
H950 C962 0.950 . S
H951 C963 0.950 . S
C952 H944 0.950 . S
C952 C953 1.386 . S
C952 C954 1.391 . S
C953 C952 1.386 . S
C953 C957 1.393 . S
C954 H946 0.950 . S
C954 C952 1.391 . S
C954 C955 1.400 . S
C955 C954 1.400 . S
C955 C956 1.398 . S
C955 C961 1.491 . S
C956 H947 0.950 . S
C956 C955 1.398 . S
C956 C957 1.391 . S
C957 H945 0.950 . S
C957 C953 1.393 . S
C957 C956 1.391 . S
C958 H948 0.950 . S
C958 C959 1.386 . S
C958 C960 1.391 . S
C959 C958 1.386 . S
C959 C963 1.393 . S
C960 H949 0.950 . S
C960 C958 1.391 . S
C960 C961 1.400 . S
C961 C955 1.491 . S
C961 C960 1.400 . S
C961 C962 1.398 . S
C962 H950 0.950 . S
C962 C961 1.398 . S
C962 C963 1.391 . S
C963 H951 0.950 . S
C963 C959 1.393 . S
C963 C962 1.391 . S
H964 C972 0.950 . S
H965 C977 0.950 . S
H966 C974 0.950 . S
H967 C976 0.950 . S
H968 C978 0.950 . S
H969 C980 0.950 . S
H970 C982 0.950 . S
H971 C983 0.950 . S
C972 H964 0.950 . S
C972 C973 1.386 . S
C972 C974 1.391 . S
C973 C972 1.386 . S
C973 C977 1.393 . S
C974 H966 0.950 . S
C974 C972 1.391 . S
C974 C975 1.400 . S
C975 C974 1.400 . S
C975 C976 1.398 . S
C975 C981 1.491 . S
C976 H967 0.950 . S
C976 C975 1.398 . S
C976 C977 1.391 . S
C977 H965 0.950 . S
C977 C973 1.393 . S
C977 C976 1.391 . S
C978 H968 0.950 . S
C978 C979 1.386 . S
C978 C980 1.391 . S
C979 C978 1.386 . S
C979 C983 1.393 . S
C980 H969 0.950 . S
C980 C978 1.391 . S
C980 C981 1.400 . S
C981 C975 1.491 . S
C981 C980 1.400 . S
C981 C982 1.398 . S
C982 H970 0.950 . S
C982 C981 1.398 . S
C982 C983 1.391 . S
C983 H971 0.950 . S
C983 C979 1.393 . S
C983 C982 1.391 . S
H984 C992 0.950 . S
H985 C997 0.950 . S
H986 C994 0.950 . S
H987 C996 0.950 . S
H988 C998 0.950 . S
H989 C1000 0.950 . S
H990 C1002 0.950 . S
H991 C1003 0.950 . S
C992 H984 0.950 . S
C992 C993 1.386 . S
C992 C994 1.391 . S
C993 C992 1.386 . S
C993 C997 1.393 . S
C994 H986 0.950 . S
C994 C992 1.391 . S
C994 C995 1.400 . S
C995 C994 1.400 . S
C995 C996 1.398 . S
C995 C1001 1.491 . S
C996 H987 0.950 . S
C996 C995 1.398 . S
C996 C997 1.391 . S
C997 H985 0.950 . S
C997 C993 1.393 . S
C997 C996 1.391 . S
C998 H988 0.950 . S
C998 C999 1.386 . S
C998 C1000 1.391 . S
C999 C998 1.386 . S
C999 C1003 1.393 . S
C1000 H989 0.950 . S
C1000 C998 1.391 . S
C1000 C1001 1.400 . S
C1001 C995 1.491 . S
C1001 C1000 1.400 . S
C1001 C1002 1.398 . S
C1002 H990 0.950 . S
C1002 C1001 1.398 . S
C1002 C1003 1.391 . S
C1003 H991 0.950 . S
C1003 C999 1.393 . S
C1003 C1002 1.391 . S
H1004 C1012 0.950 . S
H1005 C1017 0.950 . S
H1006 C1014 0.950 . S
H1007 C1016 0.950 . S
H1008 C1018 0.950 . S
H1009 C1020 0.950 . S
H1010 C1022 0.950 . S
H1011 C1023 0.950 . S
C1012 H1004 0.950 . S
C1012 C1013 1.386 . S
C1012 C1014 1.391 . S
C1013 C1012 1.386 . S
C1013 C1017 1.393 . S
C1014 H1006 0.950 . S
C1014 C1012 1.391 . S
C1014 C1015 1.400 . S
C1015 C1014 1.400 . S
C1015 C1016 1.398 . S
C1015 C1021 1.491 . S
C1016 H1007 0.950 . S
C1016 C1015 1.398 . S
C1016 C1017 1.391 . S
C1017 H1005 0.950 . S
C1017 C1013 1.393 . S
C1017 C1016 1.391 . S
C1018 H1008 0.950 . S
C1018 C1019 1.386 . S
C1018 C1020 1.391 . S
C1019 C1018 1.386 . S
C1019 C1023 1.393 . S
C1020 H1009 0.950 . S
C1020 C1018 1.391 . S
C1020 C1021 1.400 . S
C1021 C1015 1.491 . S
C1021 C1020 1.400 . S
C1021 C1022 1.398 . S
C1022 H1010 0.950 . S
C1022 C1021 1.398 . S
C1022 C1023 1.391 . S
C1023 H1011 0.950 . S
C1023 C1019 1.393 . S
C1023 C1022 1.391 . S
H1024 C1032 0.950 . S
H1025 C1037 0.950 . S
H1026 C1034 0.950 . S
H1027 C1036 0.950 . S
H1028 C1038 0.950 . S
H1029 C1040 0.950 . S
H1030 C1042 0.950 . S
H1031 C1043 0.950 . S
C1032 H1024 0.950 . S
C1032 C1033 1.386 . S
C1032 C1034 1.391 . S
C1033 C1032 1.386 . S
C1033 C1037 1.393 . S
C1034 H1026 0.950 . S
C1034 C1032 1.391 . S
C1034 C1035 1.400 . S
C1035 C1034 1.400 . S
C1035 C1036 1.398 . S
C1035 C1041 1.491 . S
C1036 H1027 0.950 . S
C1036 C1035 1.398 . S
C1036 C1037 1.391 . S
C1037 H1025 0.950 . S
C1037 C1033 1.393 . S
C1037 C1036 1.391 . S
C1038 H1028 0.950 . S
C1038 C1039 1.386 . S
C1038 C1040 1.391 . S
C1039 C1038 1.386 . S
C1039 C1043 1.393 . S
C1040 H1029 0.950 . S
C1040 C1038 1.391 . S
C1040 C1041 1.400 . S
C1041 C1035 1.491 . S
C1041 C1040 1.400 . S
C1041 C1042 1.398 . S
C1042 H1030 0.950 . S
C1042 C1041 1.398 . S
C1042 C1043 1.391 . S
C1043 H1031 0.950 . S
C1043 C1039 1.393 . S
C1043 C1042 1.391 . S
H1044 C1052 0.950 . S
H1045 C1057 0.950 . S
H1046 C1054 0.950 . S
H1047 C1056 0.950 . S
H1048 C1058 0.950 . S
H1049 C1060 0.950 . S
H1050 C1062 0.950 . S
H1051 C1063 0.950 . S
C1052 H1044 0.950 . S
C1052 C1053 1.386 . S
C1052 C1054 1.391 . S
C1053 C1052 1.386 . S
C1053 C1057 1.393 . S
C1054 H1046 0.950 . S
C1054 C1052 1.391 . S
C1054 C1055 1.400 . S
C1055 C1054 1.400 . S
C1055 C1056 1.398 . S
C1055 C1061 1.491 . S
C1056 H1047 0.950 . S
C1056 C1055 1.398 . S
C1056 C1057 1.391 . S
C1057 H1045 0.950 . S
C1057 C1053 1.393 . S
C1057 C1056 1.391 . S
C1058 H1048 0.950 . S
C1058 C1059 1.386 . S
C1058 C1060 1.391 . S
C1059 C1058 1.386 . S
C1059 C1063 1.393 . S
C1060 H1049 0.950 . S
C1060 C1058 1.391 . S
C1060 C1061 1.400 . S
C1061 C1055 1.491 . S
C1061 C1060 1.400 . S
C1061 C1062 1.398 . S
C1062 H1050 0.950 . S
C1062 C1061 1.398 . S
C1062 C1063 1.391 . S
C1063 H1051 0.950 . S
C1063 C1059 1.393 . S
C1063 C1062 1.391 . S
H1064 C1072 0.950 . S
H1065 C1077 0.950 . S
H1066 C1074 0.950 . S
H1067 C1076 0.950 . S
H1068 C1078 0.950 . S
H1069 C1080 0.950 . S
H1070 C1082 0.950 . S
H1071 C1083 0.950 . S
C1072 H1064 0.950 . S
C1072 C1073 1.386 . S
C1072 C1074 1.391 . S
C1073 C1072 1.386 . S
C1073 C1077 1.393 . S
C1074 H1066 0.950 . S
C1074 C1072 1.391 . S
C1074 C1075 1.400 . S
C1075 C1074 1.400 . S
C1075 C1076 1.398 . S
C1075 C1081 1.491 . S
C1076 H1067 0.950 . S
C1076 C1075 1.398 . S
C1076 C1077 1.391 . S
C1077 H1065 0.950 . S
C1077 C1073 1.393 . S
C1077 C1076 1.391 . S
C1078 H1068 0.950 . S
C1078 C1079 1.386 . S
C1078 C1080 1.391 . S
C1079 C1078 1.386 . S
C1079 C1083 1.393 . S
C1080 H1069 0.950 . S
C1080 C1078 1.391 . S
C1080 C1081 1.400 . S
C1081 C1075 1.491 . S
C1081 C1080 1.400 . S
C1081 C1082 1.398 . S
C1082 H1070 0.950 . S
C1082 C1081 1.398 . S
C1082 C1083 1.391 . S
C1083 H1071 0.950 . S
C1083 C1079 1.393 . S
C1083 C1082 1.391 . S
H1084 C1092 0.950 . S
H1085 C1097 0.950 . S
H1086 C1094 0.950 . S
H1087 C1096 0.950 . S
H1088 C1098 0.950 . S
H1089 C1100 0.950 . S
H1090 C1102 0.950 . S
H1091 C1103 0.950 . S
C1092 H1084 0.950 . S
C1092 C1093 1.386 . S
C1092 C1094 1.391 . S
C1093 C1092 1.386 . S
C1093 C1097 1.393 . S
C1094 H1086 0.950 . S
C1094 C1092 1.391 . S
C1094 C1095 1.400 . S
C1095 C1094 1.400 . S
C1095 C1096 1.398 . S
C1095 C1101 1.491 . S
C1096 H1087 0.950 . S
C1096 C1095 1.398 . S
C1096 C1097 1.391 . S
C1097 H1085 0.950 . S
C1097 C1093 1.393 . S
C1097 C1096 1.391 . S
C1098 H1088 0.950 . S
C1098 C1099 1.386 . S
C1098 C1100 1.391 . S
C1099 C1098 1.386 . S
C1099 C1103 1.393 . S
C1100 H1089 0.950 . S
C1100 C1098 1.391 . S
C1100 C1101 1.400 . S
C1101 C1095 1.491 . S
C1101 C1100 1.400 . S
C1101 C1102 1.398 . S
C1102 H1090 0.950 . S
C1102 C1101 1.398 . S
C1102 C1103 1.391 . S
C1103 H1091 0.950 . S
C1103 C1099 1.393 . S
C1103 C1102 1.391 . S
H1104 C1112 0.950 . S
H1105 C1117 0.950 . S
H1106 C1114 0.950 . S
H1107 C1116 0.950 . S
H1108 C1118 0.950 . S
H1109 C1120 0.950 . S
H1110 C1122 0.950 . S
H1111 C1123 0.950 . S
C1112 H1104 0.950 . S
C1112 C1113 1.386 . S
C1112 C1114 1.391 . S
C1113 C1112 1.386 . S
C1113 C1117 1.393 . S
C1114 H1106 0.950 . S
C1114 C1112 1.391 . S
C1114 C1115 1.400 . S
C1115 C1114 1.400 . S
C1115 C1116 1.398 . S
C1115 C1121 1.491 . S
C1116 H1107 0.950 . S
C1116 C1115 1.398 . S
C1116 C1117 1.391 . S
C1117 H1105 0.950 . S
C1117 C1113 1.393 . S
C1117 C1116 1.391 . S
C1118 H1108 0.950 . S
C1118 C1119 1.386 . S
C1118 C1120 1.391 . S
C1119 C1118 1.386 . S
C1119 C1123 1.393 . S
C1120 H1109 0.950 . S
C1120 C1118 1.391 . S
C1120 C1121 1.400 . S
C1121 C1115 1.491 . S
C1121 C1120 1.400 . S
C1121 C1122 1.398 . S
C1122 H1110 0.950 . S
C1122 C1121 1.398 . S
C1122 C1123 1.391 . S
C1123 H1111 0.950 . S
C1123 C1119 1.393 . S
C1123 C1122 1.391 . S
H1124 C1132 0.950 . S
H1125 C1137 0.950 . S
H1126 C1134 0.950 . S
H1127 C1136 0.950 . S
H1128 C1138 0.950 . S
H1129 C1140 0.950 . S
H1130 C1142 0.950 . S
H1131 C1143 0.950 1_556 S
C1132 H1124 0.950 . S
C1132 C1133 1.386 . S
C1132 C1134 1.391 . S
C1133 C1132 1.386 . S
C1133 C1137 1.393 . S
C1134 H1126 0.950 . S
C1134 C1132 1.391 . S
C1134 C1135 1.400 . S
C1135 C1134 1.400 . S
C1135 C1136 1.398 . S
C1135 C1141 1.491 . S
C1136 H1127 0.950 . S
C1136 C1135 1.398 . S
C1136 C1137 1.391 . S
C1137 H1125 0.950 . S
C1137 C1133 1.393 . S
C1137 C1136 1.391 . S
C1138 H1128 0.950 . S
C1138 C1139 1.386 . S
C1138 C1140 1.391 . S
C1139 C1138 1.386 . S
C1139 C1143 1.393 . S
C1140 H1129 0.950 . S
C1140 C1138 1.391 . S
C1140 C1141 1.400 . S
C1141 C1135 1.491 . S
C1141 C1140 1.400 . S
C1141 C1142 1.398 . S
C1142 H1130 0.950 . S
C1142 C1141 1.398 . S
C1142 C1143 1.391 . S
C1143 H1131 0.950 1_554 S
C1143 C1139 1.393 . S
C1143 C1142 1.391 . S
H1144 C1152 0.950 . S
H1145 C1157 0.950 . S
H1146 C1154 0.950 . S
H1147 C1156 0.950 . S
H1148 C1158 0.950 . S
H1149 C1160 0.950 . S
H1150 C1162 0.950 . S
H1151 C1163 0.950 . S
C1152 H1144 0.950 . S
C1152 C1153 1.386 . S
C1152 C1154 1.391 . S
C1153 C1152 1.386 . S
C1153 C1157 1.393 . S
C1154 H1146 0.950 . S
C1154 C1152 1.391 . S
C1154 C1155 1.400 . S
C1155 C1154 1.400 . S
C1155 C1156 1.398 . S
C1155 C1161 1.491 . S
C1156 H1147 0.950 . S
C1156 C1155 1.398 . S
C1156 C1157 1.391 . S
C1157 H1145 0.950 . S
C1157 C1153 1.393 . S
C1157 C1156 1.391 . S
C1158 H1148 0.950 . S
C1158 C1159 1.386 . S
C1158 C1160 1.391 . S
C1159 C1158 1.386 . S
C1159 C1163 1.393 . S
C1160 H1149 0.950 . S
C1160 C1158 1.391 . S
C1160 C1161 1.400 . S
C1161 C1155 1.491 . S
C1161 C1160 1.400 . S
C1161 C1162 1.398 . S
C1162 H1150 0.950 . S
C1162 C1161 1.398 . S
C1162 C1163 1.391 . S
C1163 H1151 0.950 . S
C1163 C1159 1.393 . S
C1163 C1162 1.391 . S
H1164 C1172 0.950 . S
H1165 C1177 0.950 . S
H1166 C1174 0.950 . S
H1167 C1176 0.950 . S
H1168 C1178 0.950 . S
H1169 C1180 0.950 . S
H1170 C1182 0.950 . S
H1171 C1183 0.950 . S
C1172 H1164 0.950 . S
C1172 C1173 1.386 . S
C1172 C1174 1.391 . S
C1173 C1172 1.386 . S
C1173 C1177 1.393 . S
C1174 H1166 0.950 . S
C1174 C1172 1.391 . S
C1174 C1175 1.400 . S
C1175 C1174 1.400 . S
C1175 C1176 1.398 . S
C1175 C1181 1.491 . S
C1176 H1167 0.950 . S
C1176 C1175 1.398 . S
C1176 C1177 1.391 . S
C1177 H1165 0.950 . S
C1177 C1173 1.393 . S
C1177 C1176 1.391 . S
C1178 H1168 0.950 . S
C1178 C1179 1.386 . S
C1178 C1180 1.391 . S
C1179 C1178 1.386 . S
C1179 C1183 1.393 . S
C1180 H1169 0.950 . S
C1180 C1178 1.391 . S
C1180 C1181 1.400 . S
C1181 C1175 1.491 . S
C1181 C1180 1.400 . S
C1181 C1182 1.398 . S
C1182 H1170 0.950 . S
C1182 C1181 1.398 . S
C1182 C1183 1.391 . S
C1183 H1171 0.950 . S
C1183 C1179 1.393 . S
C1183 C1182 1.391 . S
H1184 C1192 0.950 . S
H1185 C1197 0.950 . S
H1186 C1194 0.950 . S
H1187 C1196 0.950 . S
H1188 C1198 0.950 . S
H1189 C1200 0.950 . S
H1190 C1202 0.950 . S
H1191 C1203 0.950 . S
C1192 H1184 0.950 . S
C1192 C1193 1.386 1_565 S
C1192 C1194 1.391 . S
C1193 C1192 1.386 1_545 S
C1193 C1197 1.393 . S
C1194 H1186 0.950 . S
C1194 C1192 1.391 . S
C1194 C1195 1.400 . S
C1195 C1194 1.400 . S
C1195 C1196 1.398 . S
C1195 C1201 1.491 . S
C1196 H1187 0.950 . S
C1196 C1195 1.398 . S
C1196 C1197 1.391 1_565 S
C1197 H1185 0.950 . S
C1197 C1193 1.393 . S
C1197 C1196 1.391 1_545 S
C1198 H1188 0.950 . S
C1198 C1199 1.386 . S
C1198 C1200 1.391 . S
C1199 C1198 1.386 . S
C1199 C1203 1.393 . S
C1200 H1189 0.950 . S
C1200 C1198 1.391 . S
C1200 C1201 1.400 . S
C1201 C1195 1.491 . S
C1201 C1200 1.400 . S
C1201 C1202 1.398 . S
C1202 H1190 0.950 . S
C1202 C1201 1.398 . S
C1202 C1203 1.391 . S
C1203 H1191 0.950 . S
C1203 C1199 1.393 . S
C1203 C1202 1.391 . S
H1204 C1212 0.950 . S
H1205 C1217 0.950 . S
H1206 C1214 0.950 . S
H1207 C1216 0.950 . S
H1208 C1218 0.950 . S
H1209 C1220 0.950 . S
H1210 C1222 0.950 . S
H1211 C1223 0.950 . S
C1212 H1204 0.950 . S
C1212 C1213 1.386 . S
C1212 C1214 1.391 . S
C1213 C1212 1.386 . S
C1213 C1217 1.393 . S
C1214 H1206 0.950 . S
C1214 C1212 1.391 . S
C1214 C1215 1.400 . S
C1215 C1214 1.400 . S
C1215 C1216 1.398 . S
C1215 C1221 1.491 . S
C1216 H1207 0.950 . S
C1216 C1215 1.398 . S
C1216 C1217 1.391 . S
C1217 H1205 0.950 . S
C1217 C1213 1.393 . S
C1217 C1216 1.391 . S
C1218 H1208 0.950 . S
C1218 C1219 1.386 . S
C1218 C1220 1.391 . S
C1219 C1218 1.386 . S
C1219 C1223 1.393 . S
C1220 H1209 0.950 . S
C1220 C1218 1.391 . S
C1220 C1221 1.400 . S
C1221 C1215 1.491 . S
C1221 C1220 1.400 . S
C1221 C1222 1.398 . S
C1222 H1210 0.950 . S
C1222 C1221 1.398 . S
C1222 C1223 1.391 . S
C1223 H1211 0.950 . S
C1223 C1219 1.393 . S
C1223 C1222 1.391 . S
H1224 C1232 0.950 . S
H1225 C1237 0.950 . S
H1226 C1234 0.950 . S
H1227 C1236 0.950 . S
H1228 C1238 0.950 . S
H1229 C1240 0.950 . S
H1230 C1242 0.950 . S
H1231 C1243 0.950 . S
C1232 H1224 0.950 . S
C1232 C1233 1.386 . S
C1232 C1234 1.391 1_565 S
C1233 C1232 1.386 . S
C1233 C1237 1.393 1_565 S
C1234 H1226 0.950 . S
C1234 C1232 1.391 1_545 S
C1234 C1235 1.400 . S
C1235 C1234 1.400 . S
C1235 C1236 1.398 . S
C1235 C1241 1.491 . S
C1236 H1227 0.950 . S
C1236 C1235 1.398 . S
C1236 C1237 1.391 . S
C1237 H1225 0.950 . S
C1237 C1233 1.393 1_545 S
C1237 C1236 1.391 . S
C1238 H1228 0.950 . S
C1238 C1239 1.386 . S
C1238 C1240 1.391 . S
C1239 C1238 1.386 . S
C1239 C1243 1.393 . S
C1240 H1229 0.950 . S
C1240 C1238 1.391 . S
C1240 C1241 1.400 . S
C1241 C1235 1.491 . S
C1241 C1240 1.400 . S
C1241 C1242 1.398 . S
C1242 H1230 0.950 . S
C1242 C1241 1.398 . S
C1242 C1243 1.391 . S
C1243 H1231 0.950 . S
C1243 C1239 1.393 . S
C1243 C1242 1.391 . S
H1244 C1252 0.950 . S
H1245 C1257 0.950 . S
H1246 C1254 0.950 . S
H1247 C1256 0.950 . S
H1248 C1258 0.950 . S
H1249 C1260 0.950 . S
H1250 C1262 0.950 . S
H1251 C1263 0.950 . S
C1252 H1244 0.950 . S
C1252 C1253 1.386 . S
C1252 C1254 1.391 . S
C1253 C1252 1.386 . S
C1253 C1257 1.393 . S
C1254 H1246 0.950 . S
C1254 C1252 1.391 . S
C1254 C1255 1.400 . S
C1255 C1254 1.400 . S
C1255 C1256 1.398 . S
C1255 C1261 1.491 . S
C1256 H1247 0.950 . S
C1256 C1255 1.398 . S
C1256 C1257 1.391 . S
C1257 H1245 0.950 . S
C1257 C1253 1.393 . S
C1257 C1256 1.391 . S
C1258 H1248 0.950 . S
C1258 C1259 1.386 . S
C1258 C1260 1.391 . S
C1259 C1258 1.386 . S
C1259 C1263 1.393 . S
C1260 H1249 0.950 . S
C1260 C1258 1.391 . S
C1260 C1261 1.400 . S
C1261 C1255 1.491 . S
C1261 C1260 1.400 . S
C1261 C1262 1.398 . S
C1262 H1250 0.950 . S
C1262 C1261 1.398 . S
C1262 C1263 1.391 . S
C1263 H1251 0.950 . S
C1263 C1259 1.393 . S
C1263 C1262 1.391 . S
H1264 C1272 0.950 . S
H1265 C1277 0.950 . S
H1266 C1274 0.950 . S
H1267 C1276 0.950 . S
H1268 C1278 0.950 1_565 S
H1269 C1280 0.950 . S
H1270 C1282 0.950 . S
H1271 C1283 0.950 . S
C1272 H1264 0.950 . S
C1272 C1273 1.386 . S
C1272 C1274 1.391 . S
C1273 C1272 1.386 . S
C1273 C1277 1.393 . S
C1274 H1266 0.950 . S
C1274 C1272 1.391 . S
C1274 C1275 1.400 . S
C1275 C1274 1.400 . S
C1275 C1276 1.398 . S
C1275 C1281 1.491 . S
C1276 H1267 0.950 . S
C1276 C1275 1.398 . S
C1276 C1277 1.391 . S
C1277 H1265 0.950 . S
C1277 C1273 1.393 . S
C1277 C1276 1.391 . S
C1278 H1268 0.950 1_545 S
C1278 C1279 1.386 1_545 S
C1278 C1280 1.391 . S
C1279 C1278 1.386 1_565 S
C1279 C1283 1.393 1_565 S
C1280 H1269 0.950 . S
C1280 C1278 1.391 . S
C1280 C1281 1.400 . S
C1281 C1275 1.491 . S
C1281 C1280 1.400 . S
C1281 C1282 1.398 . S
C1282 H1270 0.950 . S
C1282 C1281 1.398 . S
C1282 C1283 1.391 . S
C1283 H1271 0.950 . S
C1283 C1279 1.393 1_545 S
C1283 C1282 1.391 . S
H1284 C1292 0.950 . S
H1285 C1297 0.950 . S
H1286 C1294 0.950 . S
H1287 C1296 0.950 . S
H1288 C1298 0.950 . S
H1289 C1300 0.950 . S
H1290 C1302 0.950 . S
H1291 C1303 0.950 . S
C1292 H1284 0.950 . S
C1292 C1293 1.386 . S
C1292 C1294 1.391 . S
C1293 C1292 1.386 . S
C1293 C1297 1.393 . S
C1294 H1286 0.950 . S
C1294 C1292 1.391 . S
C1294 C1295 1.400 . S
C1295 C1294 1.400 . S
C1295 C1296 1.398 . S
C1295 C1301 1.491 . S
C1296 H1287 0.950 . S
C1296 C1295 1.398 . S
C1296 C1297 1.391 . S
C1297 H1285 0.950 . S
C1297 C1293 1.393 . S
C1297 C1296 1.391 . S
C1298 H1288 0.950 . S
C1298 C1299 1.386 . S
C1298 C1300 1.391 . S
C1299 C1298 1.386 . S
C1299 C1303 1.393 . S
C1300 H1289 0.950 . S
C1300 C1298 1.391 . S
C1300 C1301 1.400 . S
C1301 C1295 1.491 . S
C1301 C1300 1.400 . S
C1301 C1302 1.398 . S
C1302 H1290 0.950 . S
C1302 C1301 1.398 . S
C1302 C1303 1.391 . S
C1303 H1291 0.950 . S
C1303 C1299 1.393 . S
C1303 C1302 1.391 . S
H1304 C1312 0.950 . S
H1305 C1317 0.950 1_545 S
H1306 C1314 0.950 . S
H1307 C1316 0.950 . S
H1308 C1318 0.950 . S
H1309 C1320 0.950 . S
H1310 C1322 0.950 . S
H1311 C1323 0.950 . S
C1312 H1304 0.950 . S
C1312 C1313 1.386 1_565 S
C1312 C1314 1.391 . S
C1313 C1312 1.386 1_545 S
C1313 C1317 1.393 1_545 S
C1314 H1306 0.950 . S
C1314 C1312 1.391 . S
C1314 C1315 1.400 . S
C1315 C1314 1.400 . S
C1315 C1316 1.398 . S
C1315 C1321 1.491 . S
C1316 H1307 0.950 . S
C1316 C1315 1.398 . S
C1316 C1317 1.391 . S
C1317 H1305 0.950 1_565 S
C1317 C1313 1.393 1_565 S
C1317 C1316 1.391 . S
C1318 H1308 0.950 . S
C1318 C1319 1.386 . S
C1318 C1320 1.391 . S
C1319 C1318 1.386 . S
C1319 C1323 1.393 . S
C1320 H1309 0.950 . S
C1320 C1318 1.391 . S
C1320 C1321 1.400 . S
C1321 C1315 1.491 . S
C1321 C1320 1.400 . S
C1321 C1322 1.398 . S
C1322 H1310 0.950 . S
C1322 C1321 1.398 . S
C1322 C1323 1.391 . S
C1323 H1311 0.950 . S
C1323 C1319 1.393 . S
C1323 C1322 1.391 . S
H1324 C1332 0.950 . S
H1325 C1337 0.950 . S
H1326 C1334 0.950 . S
H1327 C1336 0.950 . S
H1328 C1338 0.950 . S
H1329 C1340 0.950 . S
H1330 C1342 0.950 . S
H1331 C1343 0.950 . S
C1332 H1324 0.950 . S
C1332 C1333 1.386 . S
C1332 C1334 1.391 . S
C1333 C1332 1.386 . S
C1333 C1337 1.393 . S
C1334 H1326 0.950 . S
C1334 C1332 1.391 . S
C1334 C1335 1.400 . S
C1335 C1334 1.400 . S
C1335 C1336 1.398 . S
C1335 C1341 1.491 . S
C1336 H1327 0.950 . S
C1336 C1335 1.398 . S
C1336 C1337 1.391 . S
C1337 H1325 0.950 . S
C1337 C1333 1.393 . S
C1337 C1336 1.391 . S
C1338 H1328 0.950 . S
C1338 C1339 1.386 . S
C1338 C1340 1.391 . S
C1339 C1338 1.386 . S
C1339 C1343 1.393 . S
C1340 H1329 0.950 . S
C1340 C1338 1.391 . S
C1340 C1341 1.400 . S
C1341 C1335 1.491 . S
C1341 C1340 1.400 . S
C1341 C1342 1.398 . S
C1342 H1330 0.950 . S
C1342 C1341 1.398 . S
C1342 C1343 1.391 . S
C1343 H1331 0.950 . S
C1343 C1339 1.393 . S
C1343 C1342 1.391 . S
H1344 C1352 0.950 . S
H1345 C1357 0.950 . S
H1346 C1354 0.950 . S
H1347 C1356 0.950 . S
H1348 C1358 0.950 . S
H1349 C1360 0.950 . S
H1350 C1362 0.950 . S
H1351 C1363 0.950 . S
C1352 H1344 0.950 . S
C1352 C1353 1.386 . S
C1352 C1354 1.391 . S
C1353 C1352 1.386 . S
C1353 C1357 1.393 . S
C1354 H1346 0.950 . S
C1354 C1352 1.391 . S
C1354 C1355 1.400 . S
C1355 C1354 1.400 . S
C1355 C1356 1.398 . S
C1355 C1361 1.491 . S
C1356 H1347 0.950 . S
C1356 C1355 1.398 . S
C1356 C1357 1.391 . S
C1357 H1345 0.950 . S
C1357 C1353 1.393 . S
C1357 C1356 1.391 . S
C1358 H1348 0.950 . S
C1358 C1359 1.386 . S
C1358 C1360 1.391 . S
C1359 C1358 1.386 . S
C1359 C1363 1.393 . S
C1360 H1349 0.950 . S
C1360 C1358 1.391 . S
C1360 C1361 1.400 . S
C1361 C1355 1.491 . S
C1361 C1360 1.400 . S
C1361 C1362 1.398 . S
C1362 H1350 0.950 . S
C1362 C1361 1.398 . S
C1362 C1363 1.391 . S
C1363 H1351 0.950 . S
C1363 C1359 1.393 . S
C1363 C1362 1.391 . S
H1364 C1372 0.950 . S
H1365 C1377 0.950 . S
H1366 C1374 0.950 . S
H1367 C1376 0.950 . S
H1368 C1378 0.950 . S
H1369 C1380 0.950 . S
H1370 C1382 0.950 . S
H1371 C1383 0.950 1_554 S
C1372 H1364 0.950 . S
C1372 C1373 1.386 . S
C1372 C1374 1.391 . S
C1373 C1372 1.386 . S
C1373 C1377 1.393 . S
C1374 H1366 0.950 . S
C1374 C1372 1.391 . S
C1374 C1375 1.400 . S
C1375 C1374 1.400 . S
C1375 C1376 1.398 . S
C1375 C1381 1.491 . S
C1376 H1367 0.950 . S
C1376 C1375 1.398 . S
C1376 C1377 1.391 . S
C1377 H1365 0.950 . S
C1377 C1373 1.393 . S
C1377 C1376 1.391 . S
C1378 H1368 0.950 . S
C1378 C1379 1.386 . S
C1378 C1380 1.391 . S
C1379 C1378 1.386 . S
C1379 C1383 1.393 . S
C1380 H1369 0.950 . S
C1380 C1378 1.391 . S
C1380 C1381 1.400 . S
C1381 C1375 1.491 . S
C1381 C1380 1.400 . S
C1381 C1382 1.398 . S
C1382 H1370 0.950 . S
C1382 C1381 1.398 . S
C1382 C1383 1.391 . S
C1383 H1371 0.950 1_556 S
C1383 C1379 1.393 . S
C1383 C1382 1.391 . S
H1384 C1392 0.950 . S
H1385 C1397 0.950 . S
H1386 C1394 0.950 . S
H1387 C1396 0.950 . S
H1388 C1398 0.950 1_545 S
H1389 C1400 0.950 . S
H1390 C1402 0.950 . S
H1391 C1403 0.950 . S
C1392 H1384 0.950 . S
C1392 C1393 1.386 . S
C1392 C1394 1.391 . S
C1393 C1392 1.386 . S
C1393 C1397 1.393 . S
C1394 H1386 0.950 . S
C1394 C1392 1.391 . S
C1394 C1395 1.400 . S
C1395 C1394 1.400 . S
C1395 C1396 1.398 . S
C1395 C1401 1.491 . S
C1396 H1387 0.950 . S
C1396 C1395 1.398 . S
C1396 C1397 1.391 . S
C1397 H1385 0.950 . S
C1397 C1393 1.393 . S
C1397 C1396 1.391 . S
C1398 H1388 0.950 1_565 S
C1398 C1399 1.386 . S
C1398 C1400 1.391 . S
C1399 C1398 1.386 . S
C1399 C1403 1.393 . S
C1400 H1389 0.950 . S
C1400 C1398 1.391 . S
C1400 C1401 1.400 . S
C1401 C1395 1.491 . S
C1401 C1400 1.400 . S
C1401 C1402 1.398 . S
C1402 H1390 0.950 . S
C1402 C1401 1.398 . S
C1402 C1403 1.391 . S
C1403 H1391 0.950 . S
C1403 C1399 1.393 . S
C1403 C1402 1.391 . S
H1404 C1412 0.950 . S
H1405 C1417 0.950 . S
H1406 C1414 0.950 . S
H1407 C1416 0.950 . S
H1408 C1418 0.950 . S
H1409 C1420 0.950 . S
H1410 C1422 0.950 . S
H1411 C1423 0.950 . S
C1412 H1404 0.950 . S
C1412 C1413 1.386 . S
C1412 C1414 1.391 . S
C1413 C1412 1.386 . S
C1413 C1417 1.393 . S
C1414 H1406 0.950 . S
C1414 C1412 1.391 . S
C1414 C1415 1.400 . S
C1415 C1414 1.400 . S
C1415 C1416 1.398 . S
C1415 C1421 1.491 . S
C1416 H1407 0.950 . S
C1416 C1415 1.398 . S
C1416 C1417 1.391 . S
C1417 H1405 0.950 . S
C1417 C1413 1.393 . S
C1417 C1416 1.391 . S
C1418 H1408 0.950 . S
C1418 C1419 1.386 . S
C1418 C1420 1.391 . S
C1419 C1418 1.386 . S
C1419 C1423 1.393 . S
C1420 H1409 0.950 . S
C1420 C1418 1.391 . S
C1420 C1421 1.400 . S
C1421 C1415 1.491 . S
C1421 C1420 1.400 . S
C1421 C1422 1.398 . S
C1422 H1410 0.950 . S
C1422 C1421 1.398 . S
C1422 C1423 1.391 . S
C1423 H1411 0.950 . S
C1423 C1419 1.393 . S
C1423 C1422 1.391 . S
H1424 C1432 0.950 . S
H1425 C1437 0.950 . S
H1426 C1434 0.950 . S
H1427 C1436 0.950 . S
H1428 C1438 0.950 . S
H1429 C1440 0.950 . S
H1430 C1442 0.950 . S
H1431 C1443 0.950 . S
C1432 H1424 0.950 . S
C1432 C1433 1.386 . S
C1432 C1434 1.391 . S
C1433 C1432 1.386 . S
C1433 C1437 1.393 . S
C1434 H1426 0.950 . S
C1434 C1432 1.391 . S
C1434 C1435 1.400 . S
C1435 C1434 1.400 . S
C1435 C1436 1.398 . S
C1435 C1441 1.491 . S
C1436 H1427 0.950 . S
C1436 C1435 1.398 . S
C1436 C1437 1.391 . S
C1437 H1425 0.950 . S
C1437 C1433 1.393 . S
C1437 C1436 1.391 . S
C1438 H1428 0.950 . S
C1438 C1439 1.386 . S
C1438 C1440 1.391 . S
C1439 C1438 1.386 . S
C1439 C1443 1.393 . S
C1440 H1429 0.950 . S
C1440 C1438 1.391 . S
C1440 C1441 1.400 . S
C1441 C1435 1.491 . S
C1441 C1440 1.400 . S
C1441 C1442 1.398 . S
C1442 H1430 0.950 . S
C1442 C1441 1.398 . S
C1442 C1443 1.391 . S
C1443 H1431 0.950 . S
C1443 C1439 1.393 . S
C1443 C1442 1.391 . S
H1444 C1452 0.950 . S
H1445 C1457 0.950 . S
H1446 C1454 0.950 . S
H1447 C1456 0.950 . S
H1448 C1458 0.950 . S
H1449 C1460 0.950 . S
H1450 C1462 0.950 . S
H1451 C1463 0.950 . S
C1452 H1444 0.950 . S
C1452 C1453 1.386 . S
C1452 C1454 1.391 . S
C1453 C1452 1.386 . S
C1453 C1457 1.393 . S
C1454 H1446 0.950 . S
C1454 C1452 1.391 . S
C1454 C1455 1.400 . S
C1455 C1454 1.400 . S
C1455 C1456 1.398 . S
C1455 C1461 1.491 . S
C1456 H1447 0.950 . S
C1456 C1455 1.398 . S
C1456 C1457 1.391 . S
C1457 H1445 0.950 . S
C1457 C1453 1.393 . S
C1457 C1456 1.391 . S
C1458 H1448 0.950 . S
C1458 C1459 1.386 . S
C1458 C1460 1.391 . S
C1459 C1458 1.386 . S
C1459 C1463 1.393 . S
C1460 H1449 0.950 . S
C1460 C1458 1.391 . S
C1460 C1461 1.400 . S
C1461 C1455 1.491 . S
C1461 C1460 1.400 . S
C1461 C1462 1.398 . S
C1462 H1450 0.950 . S
C1462 C1461 1.398 . S
C1462 C1463 1.391 . S
C1463 H1451 0.950 . S
C1463 C1459 1.393 . S
C1463 C1462 1.391 . S
H1464 C1472 0.950 . S
H1465 C1477 0.950 . S
H1466 C1474 0.950 . S
H1467 C1476 0.950 . S
H1468 C1478 0.950 . S
H1469 C1480 0.950 . S
H1470 C1482 0.950 . S
H1471 C1483 0.950 1_565 S
C1472 H1464 0.950 . S
C1472 C1473 1.386 . S
C1472 C1474 1.391 . S
C1473 C1472 1.386 . S
C1473 C1477 1.393 . S
C1474 H1466 0.950 . S
C1474 C1472 1.391 . S
C1474 C1475 1.400 . S
C1475 C1474 1.400 . S
C1475 C1476 1.398 . S
C1475 C1481 1.491 . S
C1476 H1467 0.950 . S
C1476 C1475 1.398 . S
C1476 C1477 1.391 . S
C1477 H1465 0.950 . S
C1477 C1473 1.393 . S
C1477 C1476 1.391 . S
C1478 H1468 0.950 . S
C1478 C1479 1.386 . S
C1478 C1480 1.391 . S
C1479 C1478 1.386 . S
C1479 C1483 1.393 . S
C1480 H1469 0.950 . S
C1480 C1478 1.391 . S
C1480 C1481 1.400 . S
C1481 C1475 1.491 . S
C1481 C1480 1.400 . S
C1481 C1482 1.398 . S
C1482 H1470 0.950 . S
C1482 C1481 1.398 . S
C1482 C1483 1.391 . S
C1483 H1471 0.950 1_545 S
C1483 C1479 1.393 . S
C1483 C1482 1.391 . S
H1484 C1492 0.950 . S
H1485 C1497 0.950 . S
H1486 C1494 0.950 . S
H1487 C1496 0.950 . S
H1488 C1498 0.950 1_556 S
H1489 C1500 0.950 . S
H1490 C1502 0.950 . S
H1491 C1503 0.950 . S
C1492 H1484 0.950 . S
C1492 C1493 1.386 . S
C1492 C1494 1.391 . S
C1493 C1492 1.386 . S
C1493 C1497 1.393 . S
C1494 H1486 0.950 . S
C1494 C1492 1.391 . S
C1494 C1495 1.400 . S
C1495 C1494 1.400 . S
C1495 C1496 1.398 . S
C1495 C1501 1.491 . S
C1496 H1487 0.950 . S
C1496 C1495 1.398 . S
C1496 C1497 1.391 . S
C1497 H1485 0.950 . S
C1497 C1493 1.393 . S
C1497 C1496 1.391 . S
C1498 H1488 0.950 1_554 S
C1498 C1499 1.386 . S
C1498 C1500 1.391 . S
C1499 C1498 1.386 . S
C1499 C1503 1.393 . S
C1500 H1489 0.950 . S
C1500 C1498 1.391 . S
C1500 C1501 1.400 . S
C1501 C1495 1.491 . S
C1501 C1500 1.400 . S
C1501 C1502 1.398 . S
C1502 H1490 0.950 . S
C1502 C1501 1.398 . S
C1502 C1503 1.391 . S
C1503 H1491 0.950 . S
C1503 C1499 1.393 . S
C1503 C1502 1.391 . S
H1504 C1512 0.950 . S
H1505 C1517 0.950 . S
H1506 C1514 0.950 . S
H1507 C1516 0.950 . S
H1508 C1518 0.950 . S
H1509 C1520 0.950 . S
H1510 C1522 0.950 . S
H1511 C1523 0.950 . S
C1512 H1504 0.950 . S
C1512 C1513 1.386 1_655 S
C1512 C1514 1.391 . S
C1513 C1512 1.386 1_455 S
C1513 C1517 1.393 . S
C1514 H1506 0.950 . S
C1514 C1512 1.391 . S
C1514 C1515 1.400 1_655 S
C1515 C1514 1.400 1_455 S
C1515 C1516 1.398 . S
C1515 C1521 1.491 . S
C1516 H1507 0.950 . S
C1516 C1515 1.398 . S
C1516 C1517 1.391 . S
C1517 H1505 0.950 . S
C1517 C1513 1.393 . S
C1517 C1516 1.391 . S
C1518 H1508 0.950 . S
C1518 C1519 1.386 . S
C1518 C1520 1.391 . S
C1519 C1518 1.386 . S
C1519 C1523 1.393 1_455 S
C1520 H1509 0.950 . S
C1520 C1518 1.391 . S
C1520 C1521 1.400 . S
C1521 C1515 1.491 . S
C1521 C1520 1.400 . S
C1521 C1522 1.398 1_455 S
C1522 H1510 0.950 . S
C1522 C1521 1.398 1_655 S
C1522 C1523 1.391 . S
C1523 H1511 0.950 . S
C1523 C1519 1.393 1_655 S
C1523 C1522 1.391 . S
H1524 C1532 0.950 . S
H1525 C1537 0.950 . S
H1526 C1534 0.950 . S
H1527 C1536 0.950 . S
H1528 C1538 0.950 . S
H1529 C1540 0.950 . S
H1530 C1542 0.950 . S
H1531 C1543 0.950 . S
C1532 H1524 0.950 . S
C1532 C1533 1.386 . S
C1532 C1534 1.391 . S
C1533 C1532 1.386 . S
C1533 C1537 1.393 . S
C1534 H1526 0.950 . S
C1534 C1532 1.391 . S
C1534 C1535 1.400 . S
C1535 C1534 1.400 . S
C1535 C1536 1.398 . S
C1535 C1541 1.491 . S
C1536 H1527 0.950 . S
C1536 C1535 1.398 . S
C1536 C1537 1.391 . S
C1537 H1525 0.950 . S
C1537 C1533 1.393 . S
C1537 C1536 1.391 . S
C1538 H1528 0.950 . S
C1538 C1539 1.386 . S
C1538 C1540 1.391 . S
C1539 C1538 1.386 . S
C1539 C1543 1.393 . S
C1540 H1529 0.950 . S
C1540 C1538 1.391 . S
C1540 C1541 1.400 . S
C1541 C1535 1.491 . S
C1541 C1540 1.400 . S
C1541 C1542 1.398 . S
C1542 H1530 0.950 . S
C1542 C1541 1.398 . S
C1542 C1543 1.391 . S
C1543 H1531 0.950 . S
C1543 C1539 1.393 . S
C1543 C1542 1.391 . S
H1544 C1552 0.950 . S
H1545 C1557 0.950 . S
H1546 C1554 0.950 . S
H1547 C1556 0.950 . S
H1548 C1558 0.950 . S
H1549 C1560 0.950 . S
H1550 C1562 0.950 . S
H1551 C1563 0.950 . S
C1552 H1544 0.950 . S
C1552 C1553 1.386 . S
C1552 C1554 1.391 . S
C1553 C1552 1.386 . S
C1553 C1557 1.393 . S
C1554 H1546 0.950 . S
C1554 C1552 1.391 . S
C1554 C1555 1.400 . S
C1555 C1554 1.400 . S
C1555 C1556 1.398 . S
C1555 C1561 1.491 . S
C1556 H1547 0.950 . S
C1556 C1555 1.398 . S
C1556 C1557 1.391 . S
C1557 H1545 0.950 . S
C1557 C1553 1.393 . S
C1557 C1556 1.391 . S
C1558 H1548 0.950 . S
C1558 C1559 1.386 . S
C1558 C1560 1.391 . S
C1559 C1558 1.386 . S
C1559 C1563 1.393 . S
C1560 H1549 0.950 . S
C1560 C1558 1.391 . S
C1560 C1561 1.400 . S
C1561 C1555 1.491 . S
C1561 C1560 1.400 . S
C1561 C1562 1.398 . S
C1562 H1550 0.950 . S
C1562 C1561 1.398 . S
C1562 C1563 1.391 . S
C1563 H1551 0.950 . S
C1563 C1559 1.393 . S
C1563 C1562 1.391 . S
H1564 C1572 0.950 . S
H1565 C1577 0.950 . S
H1566 C1574 0.950 . S
H1567 C1576 0.950 . S
H1568 C1578 0.950 . S
H1569 C1580 0.950 . S
H1570 C1582 0.950 . S
H1571 C1583 0.950 . S
C1572 H1564 0.950 . S
C1572 C1573 1.386 . S
C1572 C1574 1.391 . S
C1573 C1572 1.386 . S
C1573 C1577 1.393 . S
C1574 H1566 0.950 . S
C1574 C1572 1.391 . S
C1574 C1575 1.400 . S
C1575 C1574 1.400 . S
C1575 C1576 1.398 . S
C1575 C1581 1.491 1_455 S
C1576 H1567 0.950 . S
C1576 C1575 1.398 . S
C1576 C1577 1.391 . S
C1577 H1565 0.950 . S
C1577 C1573 1.393 . S
C1577 C1576 1.391 . S
C1578 H1568 0.950 . S
C1578 C1579 1.386 . S
C1578 C1580 1.391 . S
C1579 C1578 1.386 . S
C1579 C1583 1.393 . S
C1580 H1569 0.950 . S
C1580 C1578 1.391 . S
C1580 C1581 1.400 . S
C1581 C1575 1.491 1_655 S
C1581 C1580 1.400 . S
C1581 C1582 1.398 . S
C1582 H1570 0.950 . S
C1582 C1581 1.398 . S
C1582 C1583 1.391 . S
C1583 H1571 0.950 . S
C1583 C1579 1.393 . S
C1583 C1582 1.391 . S
H1584 C1592 0.950 . S
H1585 C1597 0.950 . S
H1586 C1594 0.950 . S
H1587 C1596 0.950 . S
H1588 C1598 0.950 . S
H1589 C1600 0.950 . S
H1590 C1602 0.950 . S
H1591 C1603 0.950 . S
C1592 H1584 0.950 . S
C1592 C1593 1.386 . S
C1592 C1594 1.391 . S
C1593 C1592 1.386 . S
C1593 C1597 1.393 1_455 S
C1594 H1586 0.950 . S
C1594 C1592 1.391 . S
C1594 C1595 1.400 . S
C1595 C1594 1.400 . S
C1595 C1596 1.398 1_455 S
C1595 C1601 1.491 . S
C1596 H1587 0.950 . S
C1596 C1595 1.398 1_655 S
C1596 C1597 1.391 . S
C1597 H1585 0.950 . S
C1597 C1593 1.393 1_655 S
C1597 C1596 1.391 . S
C1598 H1588 0.950 . S
C1598 C1599 1.386 1_655 S
C1598 C1600 1.391 . S
C1599 C1598 1.386 1_455 S
C1599 C1603 1.393 . S
C1600 H1589 0.950 . S
C1600 C1598 1.391 . S
C1600 C1601 1.400 1_655 S
C1601 C1595 1.491 . S
C1601 C1600 1.400 1_455 S
C1601 C1602 1.398 . S
C1602 H1590 0.950 . S
C1602 C1601 1.398 . S
C1602 C1603 1.391 . S
C1603 H1591 0.950 . S
C1603 C1599 1.393 . S
C1603 C1602 1.391 . S
H1604 C1612 0.950 . S
H1605 C1617 0.950 . S
H1606 C1614 0.950 . S
H1607 C1616 0.950 . S
H1608 C1618 0.950 . S
H1609 C1620 0.950 . S
H1610 C1622 0.950 . S
H1611 C1623 0.950 . S
C1612 H1604 0.950 . S
C1612 C1613 1.386 . S
C1612 C1614 1.391 . S
C1613 C1612 1.386 . S
C1613 C1617 1.393 . S
C1614 H1606 0.950 . S
C1614 C1612 1.391 . S
C1614 C1615 1.400 . S
C1615 C1614 1.400 . S
C1615 C1616 1.398 . S
C1615 C1621 1.491 1_455 S
C1616 H1607 0.950 . S
C1616 C1615 1.398 . S
C1616 C1617 1.391 . S
C1617 H1605 0.950 . S
C1617 C1613 1.393 . S
C1617 C1616 1.391 . S
C1618 H1608 0.950 . S
C1618 C1619 1.386 . S
C1618 C1620 1.391 . S
C1619 C1618 1.386 . S
C1619 C1623 1.393 . S
C1620 H1609 0.950 . S
C1620 C1618 1.391 . S
C1620 C1621 1.400 . S
C1621 C1615 1.491 1_655 S
C1621 C1620 1.400 . S
C1621 C1622 1.398 . S
C1622 H1610 0.950 . S
C1622 C1621 1.398 . S
C1622 C1623 1.391 . S
C1623 H1611 0.950 . S
C1623 C1619 1.393 . S
C1623 C1622 1.391 . S
H1624 C1632 0.950 . S
H1625 C1637 0.950 1_556 S
H1626 C1634 0.950 . S
H1627 C1636 0.950 1_556 S
H1628 C1638 0.950 1_556 S
H1629 C1640 0.950 1_556 S
H1630 C1642 0.950 . S
H1631 C1643 0.950 . S
C1632 H1624 0.950 . S
C1632 C1633 1.386 . S
C1632 C1634 1.391 . S
C1633 C1632 1.386 . S
C1633 C1637 1.393 . S
C1634 H1626 0.950 . S
C1634 C1632 1.391 . S
C1634 C1635 1.400 . S
C1635 C1634 1.400 . S
C1635 C1636 1.398 . S
C1635 C1641 1.491 . S
C1636 H1627 0.950 1_554 S
C1636 C1635 1.398 . S
C1636 C1637 1.391 . S
C1637 H1625 0.950 1_554 S
C1637 C1633 1.393 . S
C1637 C1636 1.391 . S
C1638 H1628 0.950 1_554 S
C1638 C1639 1.386 . S
C1638 C1640 1.391 . S
C1639 C1638 1.386 . S
C1639 C1643 1.393 . S
C1640 H1629 0.950 1_554 S
C1640 C1638 1.391 . S
C1640 C1641 1.400 . S
C1641 C1635 1.491 . S
C1641 C1640 1.400 . S
C1641 C1642 1.398 . S
C1642 H1630 0.950 . S
C1642 C1641 1.398 . S
C1642 C1643 1.391 . S
C1643 H1631 0.950 . S
C1643 C1639 1.393 . S
C1643 C1642 1.391 . S
H1644 C1652 0.950 . S
H1645 C1657 0.950 . S
H1646 C1654 0.950 . S
H1647 C1656 0.950 . S
H1648 C1658 0.950 . S
H1649 C1660 0.950 . S
H1650 C1662 0.950 . S
H1651 C1663 0.950 . S
C1652 H1644 0.950 . S
C1652 C1653 1.386 . S
C1652 C1654 1.391 . S
C1653 C1652 1.386 . S
C1653 C1657 1.393 . S
C1654 H1646 0.950 . S
C1654 C1652 1.391 . S
C1654 C1655 1.400 . S
C1655 C1654 1.400 . S
C1655 C1656 1.398 . S
C1655 C1661 1.491 . S
C1656 H1647 0.950 . S
C1656 C1655 1.398 . S
C1656 C1657 1.391 . S
C1657 H1645 0.950 . S
C1657 C1653 1.393 . S
C1657 C1656 1.391 . S
C1658 H1648 0.950 . S
C1658 C1659 1.386 . S
C1658 C1660 1.391 . S
C1659 C1658 1.386 . S
C1659 C1663 1.393 . S
C1660 H1649 0.950 . S
C1660 C1658 1.391 . S
C1660 C1661 1.400 . S
C1661 C1655 1.491 . S
C1661 C1660 1.400 . S
C1661 C1662 1.398 . S
C1662 H1650 0.950 . S
C1662 C1661 1.398 . S
C1662 C1663 1.391 . S
C1663 H1651 0.950 . S
C1663 C1659 1.393 . S
C1663 C1662 1.391 . S
C553 C334 1.332 . S
C559 C6 1.308 . S
C573 C40 1.338 . S
C579 C504 1.319 . S
C593 C74 1.319 . S
C599 C278 1.307 . S
C613 C108 1.309 . S
C619 C538 1.314 . S
C633 C346 1.336 . S
C639 C164 1.312 . S
C653 C176 1.326 . S
C659 C448 1.337 . S
C673 C402 1.307 . S
C679 C232 1.329 . S
C693 C414 1.311 . S
C699 C266 1.335 . S
C713 C158 0.679 . S
C719 C117 0.744 . S
C733 C287 0.680 . S
C739 C423 0.744 . S
C753 C49 0.737 . S
C759 C226 0.734 . S
C773 C457 0.724 . S
C779 C328 0.744 . S
C793 C185 0.739 . S
C799 C15 0.731 . S
C813 C355 0.666 . S
C819 C532 0.736 . S
C833 C83 0.652 . S
C839 C260 0.711 . S
C853 C396 0.652 . S
C859 C498 0.699 . S
C873 C362 1.530 . S
C879 C1 1.570 . S
C893 C35 1.551 . S
C899 C464 1.545 . S
C913 C69 1.552 . S
C919 C389 1.544 . S
C933 C430 1.531 . S
C939 C103 1.565 . S
C953 C321 1.527 . S
C959 C139 1.570 . S
C973 C171 1.569 . S
C979 C491 1.530 . S
C993 C294 1.553 . S
C999 C207 1.550 . S
C1013 C525 1.549 . S
C1019 C241 1.548 . S
C1033 C198 1.994 . S
C1039 C137 1.979 . S
C1053 C516 1.998 . S
C1059 C275 1.973 . S
C1073 C205 1.973 . S
C1079 C244 1.999 . S
C1093 C482 2.002 . S
C1099 C307 1.976 . S
C1113 C130 1.991 . S
C1119 C3 1.983 . S
C1133 C343 1.964 . S
C1139 C436 2.009 . S
C1153 C62 2.002 . S
C1159 C71 1.975 . S
C1173 C375 1.965 . S
C1179 C470 2.010 . S
C1193 C409 1.561 . S
C1199 C56 1.541 . S
C1213 C341 1.550 . S
C1219 C90 1.546 . S
C1233 C443 1.553 . S
C1239 C124 1.544 . S
C1253 C377 1.548 . S
C1259 C22 1.550 . S
C1273 C253 1.557 . S
C1279 C479 1.544 . S
C1293 C273 1.560 . S
C1299 C151 1.542 . S
C1313 C513 1.546 . S
C1319 C192 1.556 . S
C1333 C309 1.544 . S
C1339 C219 1.555 . S
C1353 C300 1.994 . S
C1359 C477 1.984 1_545 S
C1373 C173 1.964 . S
C1379 C210 2.009 . S
C1393 C312 1.987 . S
C1399 C511 1.988 1_565 S
C1413 C239 1.989 . S
C1419 C142 1.988 . S
C1433 C411 1.982 1_565 S
C1439 C380 1.996 . S
C1453 C37 1.989 . S
C1459 C28 1.988 . S
C1473 C368 2.006 . S
C1479 C445 1.971 1_545 S
C1493 C105 1.987 . S
C1499 C96 1.990 . S
C1513 C459 1.652 . S
C1519 C17 1.657 . S
C1533 C391 1.657 . S
C1539 C51 1.652 . S
C1553 C85 1.657 . S
C1559 C425 1.651 . S
C1573 C357 1.652 . S
C1579 C119 1.657 . S
C1593 C153 1.653 . S
C1599 C527 1.656 . S
C1613 C323 1.656 . S
C1619 C187 1.653 . S
C1633 C221 1.656 . S
C1639 C493 1.653 . S
C1653 C255 1.657 . S
C1659 C289 1.652 . S
