# Generated by pormake.
# Topology umo, (4)-cn, num edge types: 1
# Building blocks:
#     Node 0, Type 0, BuildingBlock: ESEHIV_clean_sbu_0, # of connection points: 4
#     Node 1, Type 0, BuildingBlock: ESEHIV_clean_sbu_0, # of connection points: 4
#     Node 2, Type 0, BuildingBlock: ESEHIV_clean_sbu_0, # of connection points: 4
#     Node 3, Type 0, BuildingBlock: ESEHIV_clean_sbu_0, # of connection points: 4
#     Node 4, Type 0, BuildingBlock: ESEHIV_clean_sbu_0, # of connection points: 4
#     Node 5, Type 0, BuildingBlock: ESEHIV_clean_sbu_0, # of connection points: 4
#     Node 6, Type 0, BuildingBlock: ESEHIV_clean_sbu_0, # of connection points: 4
#     Node 7, Type 0, BuildingBlock: ESEHIV_clean_sbu_0, # of connection points: 4
#     Node 8, Type 0, BuildingBlock: ESEHIV_clean_sbu_0, # of connection points: 4
#     Node 9, Type 0, BuildingBlock: ESEHIV_clean_sbu_0, # of connection points: 4
#     Node 10, Type 0, BuildingBlock: ESEHIV_clean_sbu_0, # of connection points: 4
#     Node 11, Type 0, BuildingBlock: ESEHIV_clean_sbu_0, # of connection points: 4
#     Edge 12, Type (0, 0), BuildingBlock: XIVTED_clean_linker_0, # of connection points: 2
#     Edge 13, Type (0, 0), BuildingBlock: XIVTED_clean_linker_0, # of connection points: 2
#     Edge 14, Type (0, 0), BuildingBlock: XIVTED_clean_linker_0, # of connection points: 2
#     Edge 15, Type (0, 0), BuildingBlock: XIVTED_clean_linker_0, # of connection points: 2
#     Edge 16, Type (0, 0), BuildingBlock: XIVTED_clean_linker_0, # of connection points: 2
#     Edge 17, Type (0, 0), BuildingBlock: XIVTED_clean_linker_0, # of connection points: 2
#     Edge 18, Type (0, 0), BuildingBlock: XIVTED_clean_linker_0, # of connection points: 2
#     Edge 19, Type (0, 0), BuildingBlock: XIVTED_clean_linker_0, # of connection points: 2
#     Edge 20, Type (0, 0), BuildingBlock: XIVTED_clean_linker_0, # of connection points: 2
#     Edge 21, Type (0, 0), BuildingBlock: XIVTED_clean_linker_0, # of connection points: 2
#     Edge 22, Type (0, 0), BuildingBlock: XIVTED_clean_linker_0, # of connection points: 2
#     Edge 23, Type (0, 0), BuildingBlock: XIVTED_clean_linker_0, # of connection points: 2
#     Edge 24, Type (0, 0), BuildingBlock: XIVTED_clean_linker_0, # of connection points: 2
#     Edge 25, Type (0, 0), BuildingBlock: XIVTED_clean_linker_0, # of connection points: 2
#     Edge 26, Type (0, 0), BuildingBlock: XIVTED_clean_linker_0, # of connection points: 2
#     Edge 27, Type (0, 0), BuildingBlock: XIVTED_clean_linker_0, # of connection points: 2
#     Edge 28, Type (0, 0), BuildingBlock: XIVTED_clean_linker_0, # of connection points: 2
#     Edge 29, Type (0, 0), BuildingBlock: XIVTED_clean_linker_0, # of connection points: 2
#     Edge 30, Type (0, 0), BuildingBlock: XIVTED_clean_linker_0, # of connection points: 2
#     Edge 31, Type (0, 0), BuildingBlock: XIVTED_clean_linker_0, # of connection points: 2
#     Edge 32, Type (0, 0), BuildingBlock: XIVTED_clean_linker_0, # of connection points: 2
#     Edge 33, Type (0, 0), BuildingBlock: XIVTED_clean_linker_0, # of connection points: 2
#     Edge 34, Type (0, 0), BuildingBlock: XIVTED_clean_linker_0, # of connection points: 2
#     Edge 35, Type (0, 0), BuildingBlock: XIVTED_clean_linker_0, # of connection points: 2
# Relax obj value: 0.179
# Max RMSD: 0.176
# Mean RMSD: 0.176
data_MOF--net-umo--node1-ESEHIV_clean_sbu_0--edge1-XIVTED_clean_linker_0
_symmetry_space_group_name_H-M    P1
_symmetry_Int_Tables_number       1
_symmetry_cell_setting            triclinic
loop_
_symmetry_equiv_pos_as_xyz
'x, y, z'
_cell_length_a     56.944776
_cell_length_b     56.857919
_cell_length_c     34.68897
_cell_angle_alpha  90.10466
_cell_angle_beta   90.105608
_cell_angle_gamma 120.10108
loop_
_atom_site_label
_atom_site_type_symbol
_atom_site_fract_x
_atom_site_fract_y
_atom_site_fract_z
_atom_type_partial_charge
Cu0 Cu 0.18697 0.54551 0.39324 0.0
N1 N 0.21817 0.54446 0.40788 0.0
N2 N 0.26268 0.56468 0.42122 0.0
C3 C 0.24323 0.56509 0.39949 0.0
C4 C 0.24938 0.54276 0.44422 0.0
C5 C 0.22191 0.53026 0.43585 0.0
O6 O 0.19758 0.5636 0.34318 0.0
C7 C 0.17498 0.5533 0.46728 0.0
O8 O 0.16825 0.52758 0.46815 0.0
H9 H 0.24682 0.58177 0.38079 0.0
H10 H 0.20577 0.51346 0.45134 0.0
N11 N 0.15503 0.51128 0.38876 0.0
N12 N 0.11107 0.47993 0.38023 0.0
C13 C 0.12984 0.50676 0.38073 0.0
C14 C 0.15212 0.48648 0.39342 0.0
C15 C 0.1251 0.46717 0.38831 0.0
C16 C 0.19069 0.54991 0.31185 0.0
O17 O 0.17063 0.52465 0.31237 0.0
H18 H 0.12535 0.52291 0.37589 0.0
H19 H 0.16848 0.4827 0.40015 0.0
O20 O 0.18236 0.56587 0.43516 0.0
H21 H 0.25862 0.53716 0.46702 0.0
H22 H 0.11653 0.44537 0.39003 0.0
Cu23 Cu 0.63227 0.1628 0.56932 0.0
N24 N 0.65444 0.19152 0.60233 0.0
N25 N 0.66122 0.2311 0.62675 0.0
C26 C 0.65727 0.21604 0.59467 0.0
C27 C 0.66179 0.21571 0.65592 0.0
C28 C 0.65723 0.19116 0.64085 0.0
O29 O 0.64631 0.17737 0.5176 0.0
C30 C 0.58419 0.14243 0.61242 0.0
O31 O 0.5879 0.12179 0.61886 0.0
H32 H 0.6527 0.22112 0.56665 0.0
H33 H 0.65235 0.17316 0.65735 0.0
N34 N 0.63264 0.1299 0.57694 0.0
N35 N 0.62197 0.08605 0.57147 0.0
C36 C 0.61718 0.10583 0.5586 0.0
C37 C 0.6478 0.12524 0.60214 0.0
C38 C 0.64132 0.09844 0.5989 0.0
C39 C 0.66946 0.17992 0.51011 0.0
O40 O 0.68006 0.17073 0.53546 0.0
H41 H 0.60268 0.10298 0.53629 0.0
H42 H 0.66244 0.14025 0.62176 0.0
O43 O 0.59749 0.15891 0.58526 0.0
H44 H 0.66195 0.22036 0.68623 0.0
H45 H 0.64994 0.0888 0.61616 0.0
Cu46 Cu 0.47623 0.64452 0.71523 0.0
N47 N 0.47898 0.67413 0.74293 0.0
N48 N 0.45906 0.69768 0.76222 0.0
C49 C 0.45628 0.67288 0.75674 0.0
C50 C 0.4849 0.71542 0.75189 0.0
C51 C 0.49708 0.70086 0.7398 0.0
O52 O 0.46333 0.6504 0.66577 0.0
C53 C 0.45804 0.60442 0.77287 0.0
O54 O 0.48407 0.61283 0.77548 0.0
H55 H 0.43703 0.65407 0.75789 0.0
H56 H 0.51658 0.7092 0.72579 0.0
N57 N 0.50926 0.64394 0.71047 0.0
N58 N 0.53947 0.62974 0.70071 0.0
C59 C 0.51337 0.62402 0.69613 0.0
C60 C 0.53349 0.66276 0.72459 0.0
C61 C 0.55196 0.65421 0.71866 0.0
C62 C 0.48047 0.67084 0.64617 0.0
O63 O 0.50633 0.68183 0.6549 0.0
H64 H 0.49734 0.60549 0.68342 0.0
H65 H 0.53732 0.68108 0.73943 0.0
O66 O 0.44966 0.61354 0.74574 0.0
H67 H 0.49378 0.73726 0.7504 0.0
H68 H 0.57283 0.66502 0.72833 0.0
Cu69 Cu 0.87268 0.47935 0.90391 0.0
N70 N 0.84511 0.47413 0.93782 0.0
N71 N 0.80642 0.44163 0.96412 0.0
C72 C 0.82034 0.45251 0.93131 0.0
C73 C 0.82274 0.45776 0.99262 0.0
C74 C 0.84675 0.47763 0.97635 0.0
O75 O 0.85624 0.47561 0.85256 0.0
C76 C 0.89373 0.45486 0.95182 0.0
O77 O 0.91169 0.48024 0.95985 0.0
H78 H 0.81439 0.4425 0.90352 0.0
H79 H 0.86532 0.49076 0.99187 0.0
N80 N 0.90478 0.51359 0.90814 0.0
N81 N 0.94771 0.54777 0.89985 0.0
C82 C 0.92876 0.52193 0.89013 0.0
C83 C 0.90865 0.53481 0.92995 0.0
C84 C 0.93493 0.55579 0.92496 0.0
C85 C 0.84912 0.49327 0.84581 0.0
O86 O 0.85548 0.51256 0.87154 0.0
H87 H 0.93211 0.50929 0.87014 0.0
H88 H 0.89343 0.53498 0.94836 0.0
O89 O 0.87816 0.44993 0.92266 0.0
H90 H 0.81916 0.45335 0.02308 0.0
H91 H 0.94398 0.57531 0.93935 0.0
Cu92 Cu 0.41032 0.86038 0.073 0.0
N93 N 0.38799 0.83653 0.111 0.0
N94 N 0.38081 0.79893 0.142 0.0
C95 C 0.3822 0.81059 0.10766 0.0
C96 C 0.38451 0.81793 0.16844 0.0
C97 C 0.38917 0.84123 0.14923 0.0
O98 O 0.39547 0.83885 0.02566 0.0
C99 C 0.45786 0.88361 0.11739 0.0
O100 O 0.45385 0.90436 0.11995 0.0
H101 H 0.38403 0.80216 0.08058 0.0
H102 H 0.39745 0.86121 0.16204 0.0
N103 N 0.41022 0.89355 0.0712 0.0
N104 N 0.42361 0.93769 0.06233 0.0
C105 C 0.42842 0.91716 0.05412 0.0
C106 C 0.39314 0.89927 0.09024 0.0
C107 C 0.40128 0.92631 0.08487 0.0
C108 C 0.37074 0.83198 0.01942 0.0
O109 O 0.36017 0.84357 0.04048 0.0
H110 H 0.44566 0.91956 0.03779 0.0
H111 H 0.37637 0.88491 0.10776 0.0
O112 O 0.44495 0.86551 0.09168 0.0
H113 H 0.38792 0.81662 0.19889 0.0
H114 H 0.39167 0.93686 0.09718 0.0
Cu115 Cu 0.57576 0.41428 0.2314 0.0
N116 N 0.57769 0.38846 0.26198 0.0
N117 N 0.60673 0.37684 0.28696 0.0
C118 C 0.59789 0.38334 0.25483 0.0
C119 C 0.59067 0.37684 0.31551 0.0
C120 C 0.57295 0.38433 0.30008 0.0
O121 O 0.57989 0.40419 0.17854 0.0
C122 C 0.60098 0.46046 0.28047 0.0
O123 O 0.57667 0.45756 0.28249 0.0
H124 H 0.60869 0.38847 0.2277 0.0
H125 H 0.5607 0.39042 0.31641 0.0
N126 N 0.54266 0.41403 0.23547 0.0
N127 N 0.51135 0.42678 0.22975 0.0
C128 C 0.53624 0.43163 0.21904 0.0
C129 C 0.52096 0.39721 0.25674 0.0
C130 C 0.50169 0.405 0.25333 0.0
C131 C 0.56025 0.38112 0.16781 0.0
O132 O 0.53947 0.36844 0.19116 0.0
H133 H 0.55003 0.44831 0.20085 0.0
H134 H 0.51938 0.38063 0.27391 0.0
O135 O 0.6057 0.44721 0.25481 0.0
H136 H 0.59401 0.37532 0.34592 0.0
H137 H 0.48208 0.39531 0.26728 0.0
Cu138 Cu 0.46878 0.81755 0.46008 0.0
N139 N 0.46333 0.78226 0.45419 0.0
N140 N 0.43873 0.73708 0.44598 0.0
C141 C 0.43842 0.75993 0.45531 0.0
C142 C 0.46488 0.74528 0.43781 0.0
C143 C 0.48007 0.77325 0.44293 0.0
O144 O 0.4408 0.81502 0.49505 0.0
C145 C 0.48496 0.8382 0.38549 0.0
O146 O 0.50802 0.84108 0.3981 0.0
H147 H 0.42012 0.76056 0.46153 0.0
H148 H 0.50155 0.78613 0.4376 0.0
N149 N 0.5023 0.84546 0.47978 0.0
N150 N 0.53345 0.88765 0.4996 0.0
C151 C 0.50763 0.87106 0.48723 0.0
C152 C 0.52554 0.84571 0.48762 0.0
C153 C 0.54469 0.87156 0.49987 0.0
C154 C 0.43 0.80028 0.52493 0.0
O155 O 0.41034 0.80197 0.54206 0.0
H156 H 0.49266 0.87727 0.48353 0.0
H157 H 0.52849 0.82846 0.48423 0.0
O158 O 0.46462 0.82859 0.40819 0.0
H159 H 0.4724 0.73208 0.42856 0.0
H160 H 0.56546 0.87798 0.50758 0.0
Cu161 Cu 0.66144 0.47129 0.62829 0.0
N162 N 0.64136 0.43362 0.63767 0.0
N163 N 0.6318 0.39032 0.64305 0.0
C164 C 0.65135 0.41683 0.64395 0.0
C165 C 0.6085 0.39048 0.63644 0.0
C166 C 0.61445 0.41713 0.63317 0.0
O167 O 0.69715 0.48426 0.65266 0.0
C168 C 0.66608 0.49572 0.55261 0.0
O169 O 0.67049 0.51781 0.57095 0.0
H170 H 0.6727 0.42372 0.647 0.0
H171 H 0.60033 0.42397 0.62618 0.0
N172 N 0.64515 0.48941 0.65321 0.0
N173 N 0.62571 0.51428 0.66887 0.0
C174 C 0.62998 0.50027 0.64055 0.0
C175 C 0.65002 0.49654 0.69062 0.0
C176 C 0.63832 0.51182 0.70023 0.0
C177 C 0.71456 0.47751 0.64279 0.0
O178 O 0.71063 0.46345 0.61094 0.0
H179 H 0.62329 0.49902 0.61101 0.0
H180 H 0.66217 0.49168 0.70939 0.0
O181 O 0.66295 0.47529 0.57191 0.0
H182 H 0.58863 0.37263 0.63307 0.0
H183 H 0.63946 0.52096 0.72809 0.0
Cu184 Cu 0.2175 0.6671 0.79585 0.0
N185 N 0.24883 0.69811 0.77889 0.0
N186 N 0.29388 0.71616 0.77254 0.0
C187 C 0.26905 0.6946 0.76546 0.0
C188 C 0.28912 0.73455 0.79013 0.0
C189 C 0.26131 0.72323 0.79447 0.0
O190 O 0.23206 0.66177 0.84399 0.0
C191 C 0.20359 0.64896 0.72239 0.0
O192 O 0.20444 0.6725 0.72222 0.0
H193 H 0.26568 0.67502 0.75584 0.0
H194 H 0.25142 0.73109 0.81271 0.0
N195 N 0.18651 0.67034 0.8047 0.0
N196 N 0.14319 0.65775 0.81892 0.0
C197 C 0.16159 0.64955 0.81374 0.0
C198 C 0.18386 0.69253 0.80376 0.0
C199 C 0.15729 0.68487 0.81253 0.0
C200 C 0.2276 0.67062 0.87531 0.0
O201 O 0.20469 0.6707 0.87879 0.0
H202 H 0.1573 0.62886 0.81719 0.0
H203 H 0.20007 0.71282 0.79718 0.0
O204 O 0.20832 0.64071 0.75414 0.0
H205 H 0.30455 0.7532 0.80344 0.0
H206 H 0.14905 0.69836 0.81371 0.0
Cu207 Cu 0.56675 0.21074 0.94918 0.0
N208 N 0.60312 0.22345 0.9625 0.0
N209 N 0.64695 0.25372 0.97396 0.0
C210 C 0.6211 0.2486 0.97543 0.0
C211 C 0.64504 0.23049 0.96049 0.0
C212 C 0.61804 0.21192 0.95347 0.0
O213 O 0.55801 0.23818 0.96777 0.0
C214 C 0.54515 0.18494 0.87532 0.0
O215 O 0.52502 0.1661 0.89547 0.0
H216 H 0.61562 0.2636 0.98318 0.0
H217 H 0.61003 0.19209 0.9403 0.0
N218 N 0.54346 0.1784 0.97615 0.0
N219 N 0.52065 0.13635 1.00137 0.0
C220 C 0.54 0.15296 0.9759 0.0
C221 C 0.52567 0.17755 1.0023 0.0
C222 C 0.51171 0.15196 1.01775 0.0
C223 C 0.57026 0.26339 0.95916 0.0
O224 O 0.58848 0.27236 0.93158 0.0
H225 H 0.55154 0.14687 0.95789 0.0
H226 H 0.523 0.19456 1.00968 0.0
O227 O 0.56383 0.20574 0.89275 0.0
H228 H 0.66198 0.22751 0.9543 0.0
H229 H 0.49585 0.14525 0.03917 0.0
Cu230 Cu 0.3779 0.56484 0.11432 0.0
N231 N 0.40155 0.60057 0.12984 0.0
N232 N 0.4141 0.6435 0.14554 0.0
C233 C 0.39319 0.61809 0.13976 0.0
C234 C 0.43664 0.64188 0.13904 0.0
C235 C 0.42882 0.6153 0.12943 0.0
O236 O 0.34322 0.55761 0.13532 0.0
C237 C 0.38613 0.54939 0.03869 0.0
O238 O 0.39252 0.53331 0.05736 0.0
H239 H 0.37207 0.61264 0.14048 0.0
H240 H 0.44199 0.60753 0.12128 0.0
N241 N 0.38578 0.53989 0.13841 0.0
N242 N 0.40464 0.51693 0.16377 0.0
C243 C 0.40886 0.53872 0.14247 0.0
C244 C 0.36665 0.51818 0.15752 0.0
C245 C 0.3781 0.50411 0.17312 0.0
C246 C 0.32531 0.56172 0.11988 0.0
O247 O 0.32748 0.56878 0.08346 0.0
H248 H 0.42828 0.55359 0.13061 0.0
H249 H 0.34566 0.51298 0.16005 0.0
O250 O 0.37831 0.56342 0.05772 0.0
H251 H 0.45726 0.65878 0.14011 0.0
H252 H 0.36758 0.48559 0.18978 0.0
Cu253 Cu 0.83679 0.36235 0.28745 0.0
N254 N 0.82233 0.3851 0.29439 0.0
N255 N 0.791 0.39755 0.30074 0.0
C256 C 0.79575 0.37659 0.2986 0.0
C257 C 0.81568 0.42016 0.29788 0.0
C258 C 0.83499 0.4124 0.29405 0.0
O259 O 0.80715 0.32667 0.30433 0.0
C260 C 0.83155 0.36401 0.20588 0.0
O261 O 0.80711 0.35919 0.21476 0.0
H262 H 0.7801 0.35537 0.2985 0.0
H263 H 0.85662 0.42565 0.29051 0.0
N264 N 0.86739 0.3744 0.31983 0.0
N265 N 0.90969 0.39136 0.34322 0.0
C266 C 0.89413 0.38621 0.31116 0.0
C267 C 0.86619 0.37247 0.35849 0.0
C268 C 0.89205 0.3827 0.37291 0.0
C269 C 0.8097 0.30916 0.32402 0.0
O270 O 0.83405 0.3126 0.32958 0.0
H271 H 0.90196 0.3905 0.28204 0.0
H272 H 0.84764 0.364 0.37503 0.0
O273 O 0.8471 0.36457 0.23289 0.0
H274 H 0.81953 0.44083 0.29818 0.0
H275 H 0.89748 0.38391 0.40306 0.0
H276 H 0.29666 0.59363 0.36322 0.0
H277 H 0.39762 0.71412 0.49691 0.0
H278 H 0.29159 0.58635 0.4869 0.0
H279 H 0.42621 0.69869 0.39039 0.0
H280 H 0.35638 0.66952 0.49182 0.0
H281 H 0.34209 0.63412 0.36978 0.0
C282 C 0.30529 0.60041 0.3917 0.0
C283 C 0.29045 0.58657 0.42456 0.0
C284 C 0.37178 0.67574 0.46973 0.0
C285 C 0.34193 0.63311 0.43231 0.0
C286 C 0.39526 0.70119 0.47262 0.0
C287 C 0.4154 0.71002 0.4442 0.0
C288 C 0.36789 0.65921 0.43749 0.0
C289 C 0.41126 0.6925 0.41307 0.0
C290 C 0.33117 0.62341 0.39542 0.0
C291 C 0.30246 0.59623 0.46085 0.0
N292 N 0.38776 0.66808 0.41019 0.0
N293 N 0.32728 0.61913 0.46378 0.0
H294 H 0.62672 0.24075 0.58468 0.0
H295 H 0.67197 0.38587 0.67922 0.0
H296 H 0.68538 0.2737 0.67698 0.0
H297 H 0.60074 0.34133 0.60802 0.0
H298 H 0.67937 0.34689 0.67683 0.0
H299 H 0.61938 0.27925 0.59042 0.0
C300 C 0.63837 0.2563 0.60588 0.0
C301 C 0.65709 0.25416 0.62997 0.0
C302 C 0.66205 0.34563 0.66195 0.0
C303 C 0.64838 0.29849 0.63714 0.0
C304 C 0.65786 0.36792 0.66314 0.0
C305 C 0.63566 0.36699 0.64379 0.0
C306 C 0.64412 0.32229 0.64082 0.0
C307 C 0.61793 0.34301 0.62375 0.0
C308 C 0.63393 0.27821 0.60944 0.0
C309 C 0.67088 0.27463 0.65775 0.0
N310 N 0.62266 0.32181 0.62258 0.0
N311 N 0.66642 0.29605 0.66041 0.0
H312 H 0.34478 0.75761 0.75644 0.0
H313 H 0.41232 0.66582 0.80084 0.0
H314 H 0.30052 0.67361 0.79113 0.0
H315 H 0.45504 0.74163 0.73914 0.0
H316 H 0.37297 0.67188 0.80553 0.0
H317 H 0.38705 0.75547 0.75718 0.0
C318 C 0.34398 0.73879 0.76415 0.0
C319 C 0.31902 0.71564 0.77298 0.0
C320 C 0.39097 0.6873 0.79108 0.0
C321 C 0.36709 0.71309 0.77455 0.0
C322 C 0.41351 0.68382 0.78837 0.0
C323 C 0.43705 0.70303 0.76915 0.0
C324 C 0.39177 0.71025 0.77461 0.0
C325 C 0.43746 0.72629 0.75433 0.0
C326 C 0.36802 0.73753 0.76453 0.0
C327 C 0.31911 0.69176 0.7831 0.0
N328 N 0.41511 0.72916 0.75715 0.0
N329 N 0.34265 0.69115 0.78364 0.0
H330 H 0.79767 0.39741 0.92303 0.0
H331 H 0.65379 0.29663 1.01776 0.0
H332 H 0.7646 0.42279 1.01518 0.0
H333 H 0.69574 0.27158 0.93899 0.0
H334 H 0.69344 0.3426 0.01831 0.0
H335 H 0.75984 0.35127 0.929 0.0
C336 C 0.78222 0.39333 0.94429 0.0
C337 C 0.78401 0.41418 0.96812 0.0
C338 C 0.69402 0.32694 1.00122 0.0
C339 C 0.7405 0.36082 0.97563 0.0
C340 C 0.67134 0.30068 1.00077 0.0
C341 C 0.67123 0.28006 0.97811 0.0
C342 C 0.71673 0.33276 0.97862 0.0
C343 C 0.69479 0.28655 0.95714 0.0
C344 C 0.76069 0.36682 0.94799 0.0
C345 C 0.76382 0.40734 0.99609 0.0
N346 N 0.71637 0.31228 0.95767 0.0
N347 N 0.74273 0.38127 0.99888 0.0
H348 H 0.35756 0.75723 0.19324 0.0
H349 H 0.44923 0.69493 0.12185 0.0
H350 H 0.41783 0.79155 0.10376 0.0
H351 H 0.37397 0.64699 0.18281 0.0
H352 H 0.44263 0.73411 0.12602 0.0
H353 H 0.36737 0.71968 0.19976 0.0
C354 C 0.37283 0.75684 0.17515 0.0
C355 C 0.38652 0.77715 0.14748 0.0
C356 C 0.42762 0.71506 0.13874 0.0
C357 C 0.39822 0.735 0.15511 0.0
C358 C 0.43153 0.69273 0.13664 0.0
C359 C 0.41202 0.66753 0.15165 0.0
C360 C 0.40412 0.71233 0.15622 0.0
C361 C 0.3893 0.66591 0.17024 0.0
C362 C 0.37842 0.73552 0.17878 0.0
C363 C 0.40635 0.77598 0.12486 0.0
N364 N 0.38589 0.68795 0.17186 0.0
N365 N 0.41159 0.75535 0.12919 0.0
H366 H 0.77767 0.43397 0.27306 0.0
H367 H 0.62069 0.34706 0.33286 0.0
H368 H 0.74432 0.35703 0.33182 0.0
H369 H 0.65337 0.41374 0.25257 0.0
H370 H 0.66636 0.35259 0.33957 0.0
H371 H 0.73275 0.42943 0.27261 0.0
C372 C 0.76098 0.41624 0.28624 0.0
C373 C 0.76483 0.3958 0.30232 0.0
C374 C 0.66341 0.3659 0.3204 0.0
C375 C 0.71305 0.39029 0.30158 0.0
C376 C 0.63744 0.36275 0.31665 0.0
C377 C 0.63316 0.37956 0.29155 0.0
C378 C 0.68521 0.38633 0.29938 0.0
C379 C 0.65555 0.39982 0.27141 0.0
C380 C 0.73523 0.41354 0.28571 0.0
C381 C 0.74223 0.37309 0.31859 0.0
N382 N 0.6805 0.40262 0.27579 0.0
N383 N 0.7173 0.37092 0.31778 0.0
H384 H 0.19519 0.5972 0.70986 0.0
H385 H 0.18926 0.60692 0.47942 0.0
H386 H 0.20037 0.6663 0.6505 0.0
H387 H 0.16609 0.53211 0.53981 0.0
H388 H 0.19562 0.62984 0.54181 0.0
H389 H 0.18701 0.57362 0.64756 0.0
C390 C 0.1946 0.60739 0.68385 0.0
C391 C 0.19843 0.63375 0.68554 0.0
C392 C 0.189 0.60836 0.54132 0.0
C393 C 0.18925 0.60703 0.61419 0.0
C394 C 0.18532 0.59527 0.50569 0.0
C395 C 0.1771 0.56754 0.50423 0.0
C396 C 0.1847 0.59367 0.57577 0.0
C397 C 0.17242 0.55351 0.53935 0.0
C398 C 0.18988 0.59393 0.64829 0.0
C399 C 0.19746 0.64597 0.65078 0.0
N400 N 0.17643 0.56672 0.57354 0.0
N401 N 0.19308 0.6326 0.61667 0.0
H402 H 0.59918 0.19415 0.63733 0.0
H403 H 0.51206 0.13998 0.83183 0.0
H404 H 0.54383 0.10962 0.66179 0.0
H405 H 0.58304 0.21972 0.8226 0.0
H406 H 0.51762 0.13125 0.7645 0.0
H407 H 0.5873 0.20635 0.69939 0.0
C408 C 0.58391 0.17821 0.65515 0.0
C409 C 0.57241 0.15077 0.64424 0.0
C410 C 0.53189 0.15075 0.77706 0.0
C411 C 0.55897 0.16459 0.71552 0.0
C412 C 0.5287 0.15582 0.81561 0.0
C413 C 0.54722 0.1806 0.83326 0.0
C414 C 0.55367 0.17061 0.75552 0.0
C415 C 0.56834 0.20026 0.81042 0.0
C416 C 0.57739 0.18518 0.69082 0.0
C417 C 0.55314 0.131 0.66895 0.0
N418 N 0.57105 0.19482 0.77284 0.0
N419 N 0.54714 0.13826 0.70335 0.0
H420 H 0.37627 0.58157 0.98932 0.0
H421 H 0.46199 0.56795 0.81889 0.0
H422 H 0.40694 0.52588 0.99124 0.0
H423 H 0.41535 0.60797 0.80354 0.0
H424 H 0.43992 0.55065 0.88094 0.0
H425 H 0.38848 0.59035 0.92089 0.0
C426 C 0.3853 0.57097 0.97534 0.0
C427 C 0.39076 0.5531 0.99632 0.0
C428 C 0.43409 0.56282 0.86384 0.0
C429 C 0.40496 0.56323 0.91799 0.0
C430 C 0.44664 0.57262 0.82828 0.0
C431 C 0.44045 0.58934 0.80594 0.0
C432 C 0.41558 0.57027 0.87782 0.0
C433 C 0.42052 0.59491 0.81966 0.0
C434 C 0.39223 0.57597 0.93622 0.0
C435 C 0.40245 0.53994 0.9765 0.0
N436 N 0.40912 0.58578 0.85503 0.0
N437 N 0.40938 0.54547 0.93873 0.0
H438 H 0.88236 0.37954 0.17682 0.0
H439 H 0.92719 0.45378 1.00703 0.0
H440 H 0.80377 0.36634 0.1426 0.0
H441 H 0.84363 0.41119 0.96994 0.0
H442 H 0.914 0.42831 0.06696 0.0
H443 H 0.89927 0.39625 0.11212 0.0
C444 C 0.86863 0.38011 0.1557 0.0
C445 C 0.84166 0.3718 0.16557 0.0
C446 C 0.8985 0.42366 0.04547 0.0
C447 C 0.86117 0.39188 0.09113 0.0
C448 C 0.90611 0.43836 1.01101 0.0
C449 C 0.88658 0.43451 0.98313 0.0
C450 C 0.87096 0.40498 0.05257 0.0
C451 C 0.85948 0.41456 0.99026 0.0
C452 C 0.8784 0.38999 0.11866 0.0
C453 C 0.82479 0.37276 0.13663 0.0
N454 N 0.85244 0.40092 0.02448 0.0
N455 N 0.83484 0.38275 0.101 0.0
H456 H 0.49654 0.91874 0.16756 0.0
H457 H 0.52612 0.87471 0.34019 0.0
H458 H 0.44165 0.83333 0.14805 0.0
H459 H 0.43991 0.81819 0.33835 0.0
H460 H 0.52369 0.88589 0.27271 0.0
H461 H 0.50554 0.90828 0.23253 0.0
C462 C 0.48694 0.8977 0.17658 0.0
C463 C 0.46847 0.87685 0.15219 0.0
C464 C 0.5053 0.87118 0.28716 0.0
C465 C 0.47797 0.86481 0.22696 0.0
C466 C 0.50664 0.86471 0.32562 0.0
C467 C 0.48311 0.84568 0.34508 0.0
C468 C 0.48032 0.85818 0.26764 0.0
C469 C 0.45846 0.83324 0.32461 0.0
C470 C 0.49199 0.89176 0.21371 0.0
C471 C 0.45621 0.84998 0.16571 0.0
N472 N 0.45773 0.83953 0.28685 0.0
N473 N 0.4607 0.84476 0.2025 0.0
H474 H 0.60738 0.50222 0.32637 0.0
H475 H 0.66297 0.45606 0.50366 0.0
H476 H 0.63366 0.44348 0.31422 0.0
H477 H 0.66017 0.53049 0.50396 0.0
H478 H 0.65303 0.4513 0.43435 0.0
H479 H 0.62791 0.51377 0.39066 0.0
C480 C 0.61809 0.49224 0.33688 0.0
C481 C 0.61897 0.47202 0.3147 0.0
C482 C 0.65489 0.46883 0.4495 0.0
C483 C 0.64172 0.48443 0.38913 0.0
C484 C 0.66049 0.47153 0.48916 0.0
C485 C 0.66231 0.49366 0.5099 0.0
C486 C 0.65064 0.48817 0.43036 0.0
C487 C 0.65895 0.51308 0.48934 0.0
C488 C 0.62969 0.49873 0.37373 0.0
C489 C 0.63282 0.45948 0.33005 0.0
N490 N 0.65299 0.50971 0.45096 0.0
N491 N 0.64322 0.46554 0.36654 0.0
H492 H 0.93707 0.37884 0.3954 0.0
H493 H 0.08464 0.49896 0.33566 0.0
H494 H 0.94907 0.43087 0.29836 0.0
H495 H 0.07101 0.43208 0.40883 0.0
H496 H 0.03543 0.47695 0.32441 0.0
H497 H 0.98619 0.4004 0.40331 0.0
C498 C 0.95008 0.39486 0.37572 0.0
C499 C 0.93885 0.4031 0.34625 0.0
C500 C 0.04326 0.46708 0.34281 0.0
C501 C 0.99554 0.42816 0.35528 0.0
C502 C 0.07135 0.47973 0.34948 0.0
C503 C 0.08211 0.46739 0.37325 0.0
C504 C 1.02568 0.44207 0.36047 0.0
C505 C 0.06381 0.44227 0.39 0.0
C506 C 0.97819 0.40711 0.38015 0.0
C507 C 0.95683 0.42377 0.32131 0.0
N508 N 0.03663 0.4306 0.3835 0.0
N509 N 0.98426 0.43576 0.32658 0.0
H510 H 0.58048 0.9181 0.54039 0.0
H511 H 0.57382 0.05602 0.53258 0.0
H512 H 0.51641 0.92387 0.48245 0.0
H513 H 0.64018 0.05026 0.58272 0.0
H514 H 0.55222 1.00794 0.51437 0.0
H515 H 0.60202 0.96626 0.55662 0.0
C516 C 0.57088 0.92934 0.53081 0.0
C517 C 0.54638 0.91641 0.50978 0.0
C518 C 0.57153 1.01723 0.52936 0.0
C519 C 0.5712 0.97229 0.52894 0.0
C520 C 0.58402 0.04486 0.53967 0.0
C521 C 0.60901 0.05763 0.55953 0.0
C522 C 0.58397 1.00198 0.53889 0.0
C523 C 0.62083 0.04159 0.56807 0.0
C524 C 0.58324 0.95702 0.54032 0.0
C525 C 0.53502 0.9325 0.49895 0.0
N526 N 0.60826 1.01482 0.55781 0.0
N527 N 0.54746 0.95943 0.50861 0.0
H528 H 0.59347 0.64578 0.69823 0.0
H529 H 0.57669 0.50182 0.63721 0.0
H530 H 0.51412 0.57553 0.6799 0.0
H531 H 0.64603 0.56506 0.69701 0.0
H532 H 0.55446 0.52968 0.64146 0.0
H533 H 0.61379 0.61783 0.6867 0.0
C534 C 0.58009 0.62448 0.69202 0.0
C535 C 0.5517 0.61321 0.69097 0.0
C536 C 0.57462 0.53747 0.65338 0.0
C537 C 0.57554 0.58068 0.67659 0.0
C538 C 0.58737 0.52169 0.65065 0.0
C539 C 0.61326 0.53114 0.6668 0.0
C540 C 0.58812 0.56309 0.6717 0.0
C541 C 0.62605 0.55692 0.68435 0.0
C542 C 0.59191 0.60845 0.68517 0.0
C543 C 0.53599 0.58536 0.6813 0.0
N544 N 0.61347 0.57189 0.6862 0.0
N545 N 0.54808 0.57009 0.67461 0.0
H546 H 0.11047 0.60247 0.81303 0.0
H547 H 0.9802 0.60296 0.90055 0.0
H548 H 0.11016 0.6749 0.84977 0.0
H549 H 0.9798 0.52931 0.86893 0.0
H550 H 0.02747 0.62931 0.88068 0.0
H551 H 0.06281 0.57534 0.83199 0.0
C552 C 0.10058 0.61278 0.82517 0.0
C553 C 0.11476 0.64126 0.82967 0.0
C554 C 1.0171 0.60738 0.87804 0.0
C555 C 0.05962 0.61 0.85125 0.0
C556 C 0.98997 0.59219 0.88964 0.0
C557 C 0.97568 0.56364 0.88681 0.0
C558 C 0.03043 0.59416 0.86332 0.0
C559 C 0.98969 0.55119 0.87152 0.0
C560 C 0.07319 0.59719 0.83585 0.0
C561 C 0.10033 0.65319 0.84518 0.0
N562 N 1.0162 0.56647 0.86049 0.0
N563 N 0.07375 0.63758 0.85535 0.0
H564 H 0.50233 0.112 0.07033 0.0
H565 H 0.45516 0.96028 0.99845 0.0
H566 H 0.51623 0.09569 0.95374 0.0
H567 H 0.42985 0.98079 0.10421 0.0
H568 H 0.4818 1.00912 0.98277 0.0
H569 H 0.48063 0.06378 0.08461 0.0
C570 C 0.50082 0.09823 0.04761 0.0
C571 C 0.51079 0.10803 1.01055 0.0
C572 C 0.47039 1.00283 1.00938 0.0
C573 C 0.48575 0.05206 0.02691 0.0
C574 C 0.45528 0.97498 0.01843 0.0
C575 C 0.43997 0.96626 0.05259 0.0
C576 C 0.47052 0.02214 0.03495 0.0
C577 C 0.44083 0.98631 0.07727 0.0
C578 C 0.4884 0.07056 0.05583 0.0
C579 C 0.50883 0.08909 0.98268 0.0
N580 N 0.45578 1.01308 0.06802 0.0
N581 N 0.49634 0.06196 0.99132 0.0
H582 H 0.40527 0.49351 0.23098 0.0
H583 H 0.51938 0.45828 0.16612 0.0
H584 H 0.44699 0.52014 0.12243 0.0
H585 H 0.47348 0.43123 0.27159 0.0
H586 H 0.49607 0.4836 0.15054 0.0
H587 H 0.43315 0.47366 0.24748 0.0
C588 C 0.42043 0.49524 0.2106 0.0
C589 C 0.42356 0.50825 0.17508 0.0
C590 C 0.49119 0.47214 0.17711 0.0
C591 C 0.45581 0.48528 0.19377 0.0
C592 C 0.50455 0.45773 0.18611 0.0
C593 C 0.49828 0.4423 0.22013 0.0
C594 C 0.4715 0.47127 0.20241 0.0
C595 C 0.47871 0.4423 0.24473 0.0
C596 C 0.43643 0.4839 0.22006 0.0
C597 C 0.44396 0.51033 0.15014 0.0
N598 N 0.4661 0.45645 0.23537 0.0
N599 N 0.45915 0.49872 0.15978 0.0
H600 H 0.24471 0.58889 0.31081 0.0
H601 H 0.27447 0.5526 0.10015 0.0
H602 H 0.18031 0.53045 0.23777 0.0
H603 H 0.3295 0.57349 0.19648 0.0
H604 H 0.24109 0.5544 0.14347 0.0
H605 H 0.27759 0.59476 0.26104 0.0
C606 C 0.23736 0.57781 0.28396 0.0
C607 C 0.20968 0.55887 0.27871 0.0
C608 C 0.26055 0.55867 0.15489 0.0
C609 C 0.24729 0.56553 0.22164 0.0
C610 C 0.27953 0.55761 0.1303 0.0
C611 C 0.30461 0.56249 0.14487 0.0
C612 C 0.2671 0.56543 0.19397 0.0
C613 C 0.31024 0.56911 0.18413 0.0
C614 C 0.25619 0.581 0.2557 0.0
C615 C 0.20146 0.54508 0.24318 0.0
N616 N 0.29173 0.5705 0.2072 0.0
N617 N 0.22019 0.54853 0.21608 0.0
H618 H 0.75846 0.30233 0.33355 0.0
H619 H 0.71256 0.178 0.48042 0.0
H620 H 0.80682 0.26603 0.36336 0.0
H621 H 0.66522 0.21711 0.46274 0.0
H622 H 0.74418 0.20686 0.43122 0.0
H623 H 0.72168 0.26867 0.37424 0.0
C624 C 0.76126 0.28709 0.34817 0.0
C625 C 0.78594 0.28714 0.34496 0.0
C626 C 0.72683 0.20913 0.43772 0.0
C627 C 0.74381 0.24855 0.39182 0.0
C628 C 0.70861 0.19253 0.4659 0.0
C629 C 0.68615 0.19514 0.47607 0.0
C630 C 0.72292 0.22888 0.4193 0.0
C631 C 0.68218 0.2143 0.45583 0.0
C632 C 0.74025 0.26795 0.37157 0.0
C633 C 0.78831 0.26696 0.36491 0.0
N634 N 0.70052 0.23061 0.42867 0.0
N635 N 0.76767 0.24867 0.38743 0.0
H636 H 0.51211 0.71378 0.59921 0.0
H637 H 0.39603 0.75085 0.55611 0.0
H638 H 0.42936 0.66465 0.63755 0.0
H639 H 0.48044 0.80418 0.52994 0.0
H640 H 0.4071 0.7175 0.5816 0.0
H641 H 0.49987 0.74447 0.56758 0.0
C642 C 0.49122 0.70915 0.60052 0.0
C643 C 0.47177 0.68649 0.62125 0.0
C644 C 0.42325 0.73639 0.57003 0.0
C645 C 0.45766 0.72209 0.5853 0.0
C646 C 0.41696 0.75553 0.55552 0.0
C647 C 0.43727 0.78016 0.53983 0.0
C648 C 0.45017 0.74186 0.5692 0.0
C649 C 0.46404 0.78517 0.54042 0.0
C650 C 0.4843 0.72687 0.58258 0.0
C651 C 0.44504 0.68172 0.62181 0.0
N652 N 0.46969 0.76617 0.55461 0.0
N653 N 0.43885 0.69945 0.6044 0.0
H654 H 0.82836 0.45523 0.78618 0.0
H655 H 0.73334 0.51117 0.70603 0.0
H656 H 0.82974 0.52721 0.82913 0.0
H657 H 0.74614 0.4534 0.64219 0.0
H658 H 0.7674 0.51553 0.75294 0.0
H659 H 0.7972 0.45235 0.73446 0.0
C660 C 0.82233 0.4705 0.78466 0.0
C661 C 0.83175 0.49145 0.81227 0.0
C662 C 0.76294 0.50202 0.72854 0.0
C663 C 0.79588 0.4881 0.7535 0.0
C664 C 0.74345 0.49954 0.70167 0.0
C665 C 0.73686 0.48199 0.66989 0.0
C666 C 0.77583 0.48655 0.72416 0.0
C667 C 0.75066 0.46735 0.66602 0.0
C668 C 0.80453 0.46884 0.75515 0.0
C669 C 0.8231 0.51061 0.80876 0.0
N670 N 0.76929 0.46978 0.69293 0.0
N671 N 0.80564 0.50835 0.7803 0.0
H672 H 0.38237 0.79869 0.97367 0.0
H673 H 0.22477 0.69056 0.94538 0.0
H674 H 0.31627 0.80982 1.01088 0.0
H675 H 0.28304 0.69451 0.86243 0.0
H676 H 0.26123 0.72885 0.97984 0.0
H677 H 0.34908 0.75654 0.94003 0.0
C678 C 0.36103 0.79249 0.97455 0.0
C679 C 0.35222 0.80797 0.99523 0.0
C680 C 0.26615 0.7212 0.95432 0.0
C681 C 0.3142 0.75956 0.95799 0.0
C682 C 0.24533 0.69913 0.93475 0.0
C683 C 0.25067 0.68933 0.90068 0.0
C684 C 0.29278 0.73379 0.94002 0.0
C685 C 0.27791 0.70134 0.88859 0.0
C686 C 0.34209 0.76841 0.95551 0.0
C687 C 0.32424 0.79877 0.9955 0.0
N688 N 0.29797 0.72314 0.90804 0.0
N689 N 0.30639 0.77522 0.97761 0.0
H690 H 0.51934 0.33396 0.13813 0.0
H691 H 0.60462 0.31864 0.96627 0.0
H692 H 0.60273 0.39477 0.1164 0.0
H693 H 0.53019 0.2527 1.01169 0.0
H694 H 0.60212 0.34939 1.01381 0.0
H695 H 0.52093 0.30716 0.0847 0.0
C696 C 0.53804 0.34188 0.12196 0.0
C697 C 0.56103 0.36672 0.13221 0.0
C698 C 0.58625 0.32824 1.01312 0.0
C699 C 0.56293 0.33562 0.07029 0.0
C700 C 0.58753 0.31067 0.9858 0.0
C701 C 0.56753 0.28295 0.98483 0.0
C702 C 0.56465 0.31814 0.03943 0.0
C703 C 0.54608 0.27383 1.01125 0.0
C704 C 0.5389 0.3264 0.09136 0.0
C705 C 0.58451 0.37578 0.10966 0.0
N706 N 0.54523 0.29132 0.03732 0.0
N707 N 0.58491 0.36017 0.07987 0.0
loop_
_geom_bond_atom_site_label_1
_geom_bond_atom_site_label_2
_geom_bond_distance
_geom_bond_site_symmetry_2
_ccdc_geom_bond_type
Cu0 N1 1.999 . S
Cu0 O6 1.974 . S
Cu0 N11 1.985 . S
Cu0 O20 1.959 . S
N1 Cu0 1.999 . S
N1 C3 1.263 . S
N1 C5 1.389 . S
N2 C3 1.358 . S
N2 C4 1.400 . S
C3 N1 1.263 . S
C3 N2 1.358 . S
C3 H9 0.930 . S
C4 N2 1.400 . S
C4 C5 1.351 . S
C4 H21 0.930 . S
C5 N1 1.389 . S
C5 C4 1.351 . S
C5 H10 0.930 . S
O6 Cu0 1.974 . S
O6 C16 1.282 . S
C7 O8 1.261 . S
C7 O20 1.251 . S
O8 C7 1.261 . S
H9 C3 0.930 . S
H10 C5 0.930 . S
N11 Cu0 1.985 . S
N11 C13 1.335 . S
N11 C14 1.390 . S
N12 C13 1.345 . S
N12 C15 1.336 . S
C13 N11 1.335 . S
C13 N12 1.345 . S
C13 H18 0.930 . S
C14 N11 1.390 . S
C14 C15 1.346 . S
C14 H19 0.930 . S
C15 N12 1.336 . S
C15 C14 1.346 . S
C15 H22 0.929 . S
C16 O6 1.282 . S
C16 O17 1.216 . S
O17 C16 1.216 . S
H18 C13 0.930 . S
H19 C14 0.930 . S
O20 Cu0 1.959 . S
O20 C7 1.251 . S
H21 C4 0.930 . S
H22 C15 0.929 . S
Cu23 N24 1.999 . S
Cu23 O29 1.974 . S
Cu23 N34 1.985 . S
Cu23 O43 1.959 . S
N24 Cu23 1.999 . S
N24 C26 1.263 . S
N24 C28 1.389 . S
N25 C26 1.358 . S
N25 C27 1.400 . S
C26 N24 1.263 . S
C26 N25 1.358 . S
C26 H32 0.930 . S
C27 N25 1.400 . S
C27 C28 1.351 . S
C27 H44 0.930 . S
C28 N24 1.389 . S
C28 C27 1.351 . S
C28 H33 0.930 . S
O29 Cu23 1.974 . S
O29 C39 1.282 . S
C30 O31 1.261 . S
C30 O43 1.251 . S
O31 C30 1.261 . S
H32 C26 0.930 . S
H33 C28 0.930 . S
N34 Cu23 1.985 . S
N34 C36 1.335 . S
N34 C37 1.390 . S
N35 C36 1.345 . S
N35 C38 1.336 . S
C36 N34 1.335 . S
C36 N35 1.345 . S
C36 H41 0.930 . S
C37 N34 1.390 . S
C37 C38 1.346 . S
C37 H42 0.930 . S
C38 N35 1.336 . S
C38 C37 1.346 . S
C38 H45 0.929 . S
C39 O29 1.282 . S
C39 O40 1.216 . S
O40 C39 1.216 . S
H41 C36 0.930 . S
H42 C37 0.930 . S
O43 Cu23 1.959 . S
O43 C30 1.251 . S
H44 C27 0.930 . S
H45 C38 0.929 . S
Cu46 N47 1.999 . S
Cu46 O52 1.974 . S
Cu46 N57 1.985 . S
Cu46 O66 1.959 . S
N47 Cu46 1.999 . S
N47 C49 1.263 . S
N47 C51 1.389 . S
N48 C49 1.358 . S
N48 C50 1.400 . S
C49 N47 1.263 . S
C49 N48 1.358 . S
C49 H55 0.930 . S
C50 N48 1.400 . S
C50 C51 1.351 . S
C50 H67 0.930 . S
C51 N47 1.389 . S
C51 C50 1.351 . S
C51 H56 0.930 . S
O52 Cu46 1.974 . S
O52 C62 1.282 . S
C53 O54 1.261 . S
C53 O66 1.251 . S
O54 C53 1.261 . S
H55 C49 0.930 . S
H56 C51 0.930 . S
N57 Cu46 1.985 . S
N57 C59 1.335 . S
N57 C60 1.390 . S
N58 C59 1.345 . S
N58 C61 1.336 . S
C59 N57 1.335 . S
C59 N58 1.345 . S
C59 H64 0.930 . S
C60 N57 1.390 . S
C60 C61 1.346 . S
C60 H65 0.930 . S
C61 N58 1.336 . S
C61 C60 1.346 . S
C61 H68 0.929 . S
C62 O52 1.282 . S
C62 O63 1.216 . S
O63 C62 1.216 . S
H64 C59 0.930 . S
H65 C60 0.930 . S
O66 Cu46 1.959 . S
O66 C53 1.251 . S
H67 C50 0.930 . S
H68 C61 0.929 . S
Cu69 N70 1.999 . S
Cu69 O75 1.974 . S
Cu69 N80 1.985 . S
Cu69 O89 1.959 . S
N70 Cu69 1.999 . S
N70 C72 1.263 . S
N70 C74 1.389 . S
N71 C72 1.358 . S
N71 C73 1.400 . S
C72 N70 1.263 . S
C72 N71 1.358 . S
C72 H78 0.930 . S
C73 N71 1.400 . S
C73 C74 1.351 . S
C73 H90 0.930 . S
C74 N70 1.389 . S
C74 C73 1.351 . S
C74 H79 0.930 . S
O75 Cu69 1.974 . S
O75 C85 1.282 . S
C76 O77 1.261 . S
C76 O89 1.251 . S
O77 C76 1.261 . S
H78 C72 0.930 . S
H79 C74 0.930 . S
N80 Cu69 1.985 . S
N80 C82 1.335 . S
N80 C83 1.390 . S
N81 C82 1.345 . S
N81 C84 1.336 . S
C82 N80 1.335 . S
C82 N81 1.345 . S
C82 H87 0.930 . S
C83 N80 1.390 . S
C83 C84 1.346 . S
C83 H88 0.930 . S
C84 N81 1.336 . S
C84 C83 1.346 . S
C84 H91 0.929 . S
C85 O75 1.282 . S
C85 O86 1.216 . S
O86 C85 1.216 . S
H87 C82 0.930 . S
H88 C83 0.930 . S
O89 Cu69 1.959 . S
O89 C76 1.251 . S
H90 C73 0.930 . S
H91 C84 0.929 . S
Cu92 N93 1.999 . S
Cu92 O98 1.974 . S
Cu92 N103 1.985 . S
Cu92 O112 1.959 . S
N93 Cu92 1.999 . S
N93 C95 1.263 . S
N93 C97 1.389 . S
N94 C95 1.358 . S
N94 C96 1.400 . S
C95 N93 1.263 . S
C95 N94 1.358 . S
C95 H101 0.930 . S
C96 N94 1.400 . S
C96 C97 1.351 . S
C96 H113 0.930 . S
C97 N93 1.389 . S
C97 C96 1.351 . S
C97 H102 0.930 . S
O98 Cu92 1.974 . S
O98 C108 1.282 . S
C99 O100 1.261 . S
C99 O112 1.251 . S
O100 C99 1.261 . S
H101 C95 0.930 . S
H102 C97 0.930 . S
N103 Cu92 1.985 . S
N103 C105 1.335 . S
N103 C106 1.390 . S
N104 C105 1.345 . S
N104 C107 1.336 . S
C105 N103 1.335 . S
C105 N104 1.345 . S
C105 H110 0.930 . S
C106 N103 1.390 . S
C106 C107 1.346 . S
C106 H111 0.930 . S
C107 N104 1.336 . S
C107 C106 1.346 . S
C107 H114 0.929 . S
C108 O98 1.282 . S
C108 O109 1.216 . S
O109 C108 1.216 . S
H110 C105 0.930 . S
H111 C106 0.930 . S
O112 Cu92 1.959 . S
O112 C99 1.251 . S
H113 C96 0.930 . S
H114 C107 0.929 . S
Cu115 N116 1.999 . S
Cu115 O121 1.974 . S
Cu115 N126 1.985 . S
Cu115 O135 1.959 . S
N116 Cu115 1.999 . S
N116 C118 1.263 . S
N116 C120 1.389 . S
N117 C118 1.358 . S
N117 C119 1.400 . S
C118 N116 1.263 . S
C118 N117 1.358 . S
C118 H124 0.930 . S
C119 N117 1.400 . S
C119 C120 1.351 . S
C119 H136 0.930 . S
C120 N116 1.389 . S
C120 C119 1.351 . S
C120 H125 0.930 . S
O121 Cu115 1.974 . S
O121 C131 1.282 . S
C122 O123 1.261 . S
C122 O135 1.251 . S
O123 C122 1.261 . S
H124 C118 0.930 . S
H125 C120 0.930 . S
N126 Cu115 1.985 . S
N126 C128 1.335 . S
N126 C129 1.390 . S
N127 C128 1.345 . S
N127 C130 1.336 . S
C128 N126 1.335 . S
C128 N127 1.345 . S
C128 H133 0.930 . S
C129 N126 1.390 . S
C129 C130 1.346 . S
C129 H134 0.930 . S
C130 N127 1.336 . S
C130 C129 1.346 . S
C130 H137 0.929 . S
C131 O121 1.282 . S
C131 O132 1.216 . S
O132 C131 1.216 . S
H133 C128 0.930 . S
H134 C129 0.930 . S
O135 Cu115 1.959 . S
O135 C122 1.251 . S
H136 C119 0.930 . S
H137 C130 0.929 . S
Cu138 N139 1.999 . S
Cu138 O144 1.974 . S
Cu138 N149 1.985 . S
Cu138 O158 1.959 . S
N139 Cu138 1.999 . S
N139 C141 1.263 . S
N139 C143 1.389 . S
N140 C141 1.358 . S
N140 C142 1.400 . S
C141 N139 1.263 . S
C141 N140 1.358 . S
C141 H147 0.930 . S
C142 N140 1.400 . S
C142 C143 1.351 . S
C142 H159 0.930 . S
C143 N139 1.389 . S
C143 C142 1.351 . S
C143 H148 0.930 . S
O144 Cu138 1.974 . S
O144 C154 1.282 . S
C145 O146 1.261 . S
C145 O158 1.251 . S
O146 C145 1.261 . S
H147 C141 0.930 . S
H148 C143 0.930 . S
N149 Cu138 1.985 . S
N149 C151 1.335 . S
N149 C152 1.390 . S
N150 C151 1.345 . S
N150 C153 1.336 . S
C151 N149 1.335 . S
C151 N150 1.345 . S
C151 H156 0.930 . S
C152 N149 1.390 . S
C152 C153 1.346 . S
C152 H157 0.930 . S
C153 N150 1.336 . S
C153 C152 1.346 . S
C153 H160 0.929 . S
C154 O144 1.282 . S
C154 O155 1.216 . S
O155 C154 1.216 . S
H156 C151 0.930 . S
H157 C152 0.930 . S
O158 Cu138 1.959 . S
O158 C145 1.251 . S
H159 C142 0.930 . S
H160 C153 0.929 . S
Cu161 N162 1.999 . S
Cu161 O167 1.974 . S
Cu161 N172 1.985 . S
Cu161 O181 1.959 . S
N162 Cu161 1.999 . S
N162 C164 1.263 . S
N162 C166 1.389 . S
N163 C164 1.358 . S
N163 C165 1.400 . S
C164 N162 1.263 . S
C164 N163 1.358 . S
C164 H170 0.930 . S
C165 N163 1.400 . S
C165 C166 1.351 . S
C165 H182 0.930 . S
C166 N162 1.389 . S
C166 C165 1.351 . S
C166 H171 0.930 . S
O167 Cu161 1.974 . S
O167 C177 1.282 . S
C168 O169 1.261 . S
C168 O181 1.251 . S
O169 C168 1.261 . S
H170 C164 0.930 . S
H171 C166 0.930 . S
N172 Cu161 1.985 . S
N172 C174 1.335 . S
N172 C175 1.390 . S
N173 C174 1.345 . S
N173 C176 1.336 . S
C174 N172 1.335 . S
C174 N173 1.345 . S
C174 H179 0.930 . S
C175 N172 1.390 . S
C175 C176 1.346 . S
C175 H180 0.930 . S
C176 N173 1.336 . S
C176 C175 1.346 . S
C176 H183 0.929 . S
C177 O167 1.282 . S
C177 O178 1.216 . S
O178 C177 1.216 . S
H179 C174 0.930 . S
H180 C175 0.930 . S
O181 Cu161 1.959 . S
O181 C168 1.251 . S
H182 C165 0.930 . S
H183 C176 0.929 . S
Cu184 N185 1.999 . S
Cu184 O190 1.974 . S
Cu184 N195 1.985 . S
Cu184 O204 1.959 . S
N185 Cu184 1.999 . S
N185 C187 1.263 . S
N185 C189 1.389 . S
N186 C187 1.358 . S
N186 C188 1.400 . S
C187 N185 1.263 . S
C187 N186 1.358 . S
C187 H193 0.930 . S
C188 N186 1.400 . S
C188 C189 1.351 . S
C188 H205 0.930 . S
C189 N185 1.389 . S
C189 C188 1.351 . S
C189 H194 0.930 . S
O190 Cu184 1.974 . S
O190 C200 1.282 . S
C191 O192 1.261 . S
C191 O204 1.251 . S
O192 C191 1.261 . S
H193 C187 0.930 . S
H194 C189 0.930 . S
N195 Cu184 1.985 . S
N195 C197 1.335 . S
N195 C198 1.390 . S
N196 C197 1.345 . S
N196 C199 1.336 . S
C197 N195 1.335 . S
C197 N196 1.345 . S
C197 H202 0.930 . S
C198 N195 1.390 . S
C198 C199 1.346 . S
C198 H203 0.930 . S
C199 N196 1.336 . S
C199 C198 1.346 . S
C199 H206 0.929 . S
C200 O190 1.282 . S
C200 O201 1.216 . S
O201 C200 1.216 . S
H202 C197 0.930 . S
H203 C198 0.930 . S
O204 Cu184 1.959 . S
O204 C191 1.251 . S
H205 C188 0.930 . S
H206 C199 0.929 . S
Cu207 N208 1.999 . S
Cu207 O213 1.974 . S
Cu207 N218 1.985 . S
Cu207 O227 1.959 . S
N208 Cu207 1.999 . S
N208 C210 1.263 . S
N208 C212 1.389 . S
N209 C210 1.358 . S
N209 C211 1.400 . S
C210 N208 1.263 . S
C210 N209 1.358 . S
C210 H216 0.930 . S
C211 N209 1.400 . S
C211 C212 1.351 . S
C211 H228 0.930 . S
C212 N208 1.389 . S
C212 C211 1.351 . S
C212 H217 0.930 . S
O213 Cu207 1.974 . S
O213 C223 1.282 . S
C214 O215 1.261 . S
C214 O227 1.251 . S
O215 C214 1.261 . S
H216 C210 0.930 . S
H217 C212 0.930 . S
N218 Cu207 1.985 . S
N218 C220 1.335 . S
N218 C221 1.390 . S
N219 C220 1.345 . S
N219 C222 1.336 . S
C220 N218 1.335 . S
C220 N219 1.345 . S
C220 H225 0.930 . S
C221 N218 1.390 . S
C221 C222 1.346 . S
C221 H226 0.930 . S
C222 N219 1.336 . S
C222 C221 1.346 . S
C222 H229 0.929 . S
C223 O213 1.282 . S
C223 O224 1.216 . S
O224 C223 1.216 . S
H225 C220 0.930 . S
H226 C221 0.930 . S
O227 Cu207 1.959 . S
O227 C214 1.251 . S
H228 C211 0.930 . S
H229 C222 0.929 . S
Cu230 N231 1.999 . S
Cu230 O236 1.974 . S
Cu230 N241 1.985 . S
Cu230 O250 1.959 . S
N231 Cu230 1.999 . S
N231 C233 1.263 . S
N231 C235 1.389 . S
N232 C233 1.358 . S
N232 C234 1.400 . S
C233 N231 1.263 . S
C233 N232 1.358 . S
C233 H239 0.930 . S
C234 N232 1.400 . S
C234 C235 1.351 . S
C234 H251 0.930 . S
C235 N231 1.389 . S
C235 C234 1.351 . S
C235 H240 0.930 . S
O236 Cu230 1.974 . S
O236 C246 1.282 . S
C237 O238 1.261 . S
C237 O250 1.251 . S
O238 C237 1.261 . S
H239 C233 0.930 . S
H240 C235 0.930 . S
N241 Cu230 1.985 . S
N241 C243 1.335 . S
N241 C244 1.390 . S
N242 C243 1.345 . S
N242 C245 1.336 . S
C243 N241 1.335 . S
C243 N242 1.345 . S
C243 H248 0.930 . S
C244 N241 1.390 . S
C244 C245 1.346 . S
C244 H249 0.930 . S
C245 N242 1.336 . S
C245 C244 1.346 . S
C245 H252 0.929 . S
C246 O236 1.282 . S
C246 O247 1.216 . S
O247 C246 1.216 . S
H248 C243 0.930 . S
H249 C244 0.930 . S
O250 Cu230 1.959 . S
O250 C237 1.251 . S
H251 C234 0.930 . S
H252 C245 0.929 . S
Cu253 N254 1.999 . S
Cu253 O259 1.974 . S
Cu253 N264 1.985 . S
Cu253 O273 1.959 . S
N254 Cu253 1.999 . S
N254 C256 1.263 . S
N254 C258 1.389 . S
N255 C256 1.358 . S
N255 C257 1.400 . S
C256 N254 1.263 . S
C256 N255 1.358 . S
C256 H262 0.930 . S
C257 N255 1.400 . S
C257 C258 1.351 . S
C257 H274 0.930 . S
C258 N254 1.389 . S
C258 C257 1.351 . S
C258 H263 0.930 . S
O259 Cu253 1.974 . S
O259 C269 1.282 . S
C260 O261 1.261 . S
C260 O273 1.251 . S
O261 C260 1.261 . S
H262 C256 0.930 . S
H263 C258 0.930 . S
N264 Cu253 1.985 . S
N264 C266 1.335 . S
N264 C267 1.390 . S
N265 C266 1.345 . S
N265 C268 1.336 . S
C266 N264 1.335 . S
C266 N265 1.345 . S
C266 H271 0.930 . S
C267 N264 1.390 . S
C267 C268 1.346 . S
C267 H272 0.930 . S
C268 N265 1.336 . S
C268 C267 1.346 . S
C268 H275 0.929 . S
C269 O259 1.282 . S
C269 O270 1.216 . S
O270 C269 1.216 . S
H271 C266 0.930 . S
H272 C267 0.930 . S
O273 Cu253 1.959 . S
O273 C260 1.251 . S
H274 C257 0.930 . S
H275 C268 0.929 . S
H276 C282 0.930 . S
H277 C286 0.930 . S
H278 C291 0.929 . S
H279 C289 0.929 . S
H280 C284 0.929 . S
H281 C290 0.929 . S
C282 H276 0.930 . S
C282 C283 1.367 . S
C282 C290 1.378 . S
C283 C282 1.367 . S
C283 C291 1.433 . S
C284 H280 0.929 . S
C284 C286 1.378 . S
C284 C288 1.350 . S
C285 C288 1.463 . S
C285 C290 1.350 . S
C285 N293 1.427 . S
C286 H277 0.930 . S
C286 C284 1.378 . S
C286 C287 1.367 . S
C287 C286 1.367 . S
C287 C289 1.433 . S
C288 C284 1.350 . S
C288 C285 1.463 . S
C288 N292 1.427 . S
C289 H279 0.929 . S
C289 C287 1.433 . S
C289 N292 1.384 . S
C290 H281 0.929 . S
C290 C282 1.378 . S
C290 C285 1.350 . S
C291 H278 0.929 . S
C291 C283 1.433 . S
C291 N293 1.384 . S
N292 C288 1.427 . S
N292 C289 1.384 . S
N293 C285 1.427 . S
N293 C291 1.384 . S
H294 C300 0.930 . S
H295 C304 0.930 . S
H296 C309 0.929 . S
H297 C307 0.929 . S
H298 C302 0.929 . S
H299 C308 0.929 . S
C300 H294 0.930 . S
C300 C301 1.367 . S
C300 C308 1.378 . S
C301 C300 1.367 . S
C301 C309 1.433 . S
C302 H298 0.929 . S
C302 C304 1.378 . S
C302 C306 1.350 . S
C303 C306 1.463 . S
C303 C308 1.350 . S
C303 N311 1.427 . S
C304 H295 0.930 . S
C304 C302 1.378 . S
C304 C305 1.367 . S
C305 C304 1.367 . S
C305 C307 1.433 . S
C306 C302 1.350 . S
C306 C303 1.463 . S
C306 N310 1.427 . S
C307 H297 0.929 . S
C307 C305 1.433 . S
C307 N310 1.384 . S
C308 H299 0.929 . S
C308 C300 1.378 . S
C308 C303 1.350 . S
C309 H296 0.929 . S
C309 C301 1.433 . S
C309 N311 1.384 . S
N310 C306 1.427 . S
N310 C307 1.384 . S
N311 C303 1.427 . S
N311 C309 1.384 . S
H312 C318 0.930 . S
H313 C322 0.930 . S
H314 C327 0.929 . S
H315 C325 0.929 . S
H316 C320 0.929 . S
H317 C326 0.929 . S
C318 H312 0.930 . S
C318 C319 1.367 . S
C318 C326 1.378 . S
C319 C318 1.367 . S
C319 C327 1.433 . S
C320 H316 0.929 . S
C320 C322 1.378 . S
C320 C324 1.350 . S
C321 C324 1.463 . S
C321 C326 1.350 . S
C321 N329 1.427 . S
C322 H313 0.930 . S
C322 C320 1.378 . S
C322 C323 1.367 . S
C323 C322 1.367 . S
C323 C325 1.433 . S
C324 C320 1.350 . S
C324 C321 1.463 . S
C324 N328 1.427 . S
C325 H315 0.929 . S
C325 C323 1.433 . S
C325 N328 1.384 . S
C326 H317 0.929 . S
C326 C318 1.378 . S
C326 C321 1.350 . S
C327 H314 0.929 . S
C327 C319 1.433 . S
C327 N329 1.384 . S
N328 C324 1.427 . S
N328 C325 1.384 . S
N329 C321 1.427 . S
N329 C327 1.384 . S
H330 C336 0.930 . S
H331 C340 0.930 . S
H332 C345 0.929 . S
H333 C343 0.929 . S
H334 C338 0.929 . S
H335 C344 0.929 . S
C336 H330 0.930 . S
C336 C337 1.367 . S
C336 C344 1.378 . S
C337 C336 1.367 . S
C337 C345 1.433 . S
C338 H334 0.929 . S
C338 C340 1.378 . S
C338 C342 1.350 . S
C339 C342 1.463 . S
C339 C344 1.350 . S
C339 N347 1.427 . S
C340 H331 0.930 . S
C340 C338 1.378 . S
C340 C341 1.367 . S
C341 C340 1.367 . S
C341 C343 1.433 . S
C342 C338 1.350 . S
C342 C339 1.463 . S
C342 N346 1.427 . S
C343 H333 0.929 . S
C343 C341 1.433 . S
C343 N346 1.384 . S
C344 H335 0.929 . S
C344 C336 1.378 . S
C344 C339 1.350 . S
C345 H332 0.929 . S
C345 C337 1.433 . S
C345 N347 1.384 . S
N346 C342 1.427 . S
N346 C343 1.384 . S
N347 C339 1.427 . S
N347 C345 1.384 . S
H348 C354 0.930 . S
H349 C358 0.930 . S
H350 C363 0.929 . S
H351 C361 0.929 . S
H352 C356 0.929 . S
H353 C362 0.929 . S
C354 H348 0.930 . S
C354 C355 1.367 . S
C354 C362 1.378 . S
C355 C354 1.367 . S
C355 C363 1.433 . S
C356 H352 0.929 . S
C356 C358 1.378 . S
C356 C360 1.350 . S
C357 C360 1.463 . S
C357 C362 1.350 . S
C357 N365 1.427 . S
C358 H349 0.930 . S
C358 C356 1.378 . S
C358 C359 1.367 . S
C359 C358 1.367 . S
C359 C361 1.433 . S
C360 C356 1.350 . S
C360 C357 1.463 . S
C360 N364 1.427 . S
C361 H351 0.929 . S
C361 C359 1.433 . S
C361 N364 1.384 . S
C362 H353 0.929 . S
C362 C354 1.378 . S
C362 C357 1.350 . S
C363 H350 0.929 . S
C363 C355 1.433 . S
C363 N365 1.384 . S
N364 C360 1.427 . S
N364 C361 1.384 . S
N365 C357 1.427 . S
N365 C363 1.384 . S
H366 C372 0.930 . S
H367 C376 0.930 . S
H368 C381 0.929 . S
H369 C379 0.929 . S
H370 C374 0.929 . S
H371 C380 0.929 . S
C372 H366 0.930 . S
C372 C373 1.367 . S
C372 C380 1.378 . S
C373 C372 1.367 . S
C373 C381 1.433 . S
C374 H370 0.929 . S
C374 C376 1.378 . S
C374 C378 1.350 . S
C375 C378 1.463 . S
C375 C380 1.350 . S
C375 N383 1.427 . S
C376 H367 0.930 . S
C376 C374 1.378 . S
C376 C377 1.367 . S
C377 C376 1.367 . S
C377 C379 1.433 . S
C378 C374 1.350 . S
C378 C375 1.463 . S
C378 N382 1.427 . S
C379 H369 0.929 . S
C379 C377 1.433 . S
C379 N382 1.384 . S
C380 H371 0.929 . S
C380 C372 1.378 . S
C380 C375 1.350 . S
C381 H368 0.929 . S
C381 C373 1.433 . S
C381 N383 1.384 . S
N382 C378 1.427 . S
N382 C379 1.384 . S
N383 C375 1.427 . S
N383 C381 1.384 . S
H384 C390 0.930 . S
H385 C394 0.930 . S
H386 C399 0.929 . S
H387 C397 0.929 . S
H388 C392 0.929 . S
H389 C398 0.929 . S
C390 H384 0.930 . S
C390 C391 1.367 . S
C390 C398 1.378 . S
C391 C390 1.367 . S
C391 C399 1.433 . S
C392 H388 0.929 . S
C392 C394 1.378 . S
C392 C396 1.350 . S
C393 C396 1.463 . S
C393 C398 1.350 . S
C393 N401 1.427 . S
C394 H385 0.930 . S
C394 C392 1.378 . S
C394 C395 1.367 . S
C395 C394 1.367 . S
C395 C397 1.433 . S
C396 C392 1.350 . S
C396 C393 1.463 . S
C396 N400 1.427 . S
C397 H387 0.929 . S
C397 C395 1.433 . S
C397 N400 1.384 . S
C398 H389 0.929 . S
C398 C390 1.378 . S
C398 C393 1.350 . S
C399 H386 0.929 . S
C399 C391 1.433 . S
C399 N401 1.384 . S
N400 C396 1.427 . S
N400 C397 1.384 . S
N401 C393 1.427 . S
N401 C399 1.384 . S
H402 C408 0.930 . S
H403 C412 0.930 . S
H404 C417 0.929 . S
H405 C415 0.929 . S
H406 C410 0.929 . S
H407 C416 0.929 . S
C408 H402 0.930 . S
C408 C409 1.367 . S
C408 C416 1.378 . S
C409 C408 1.367 . S
C409 C417 1.433 . S
C410 H406 0.929 . S
C410 C412 1.378 . S
C410 C414 1.350 . S
C411 C414 1.463 . S
C411 C416 1.350 . S
C411 N419 1.427 . S
C412 H403 0.930 . S
C412 C410 1.378 . S
C412 C413 1.367 . S
C413 C412 1.367 . S
C413 C415 1.433 . S
C414 C410 1.350 . S
C414 C411 1.463 . S
C414 N418 1.427 . S
C415 H405 0.929 . S
C415 C413 1.433 . S
C415 N418 1.384 . S
C416 H407 0.929 . S
C416 C408 1.378 . S
C416 C411 1.350 . S
C417 H404 0.929 . S
C417 C409 1.433 . S
C417 N419 1.384 . S
N418 C414 1.427 . S
N418 C415 1.384 . S
N419 C411 1.427 . S
N419 C417 1.384 . S
H420 C426 0.930 1_554 S
H421 C430 0.930 . S
H422 C435 0.929 . S
H423 C433 0.929 . S
H424 C428 0.929 . S
H425 C434 0.929 . S
C426 H420 0.930 1_556 S
C426 C427 1.367 . S
C426 C434 1.378 . S
C427 C426 1.367 . S
C427 C435 1.433 . S
C428 H424 0.929 . S
C428 C430 1.378 . S
C428 C432 1.350 . S
C429 C432 1.463 . S
C429 C434 1.350 . S
C429 N437 1.427 . S
C430 H421 0.930 . S
C430 C428 1.378 . S
C430 C431 1.367 . S
C431 C430 1.367 . S
C431 C433 1.433 . S
C432 C428 1.350 . S
C432 C429 1.463 . S
C432 N436 1.427 . S
C433 H423 0.929 . S
C433 C431 1.433 . S
C433 N436 1.384 . S
C434 H425 0.929 . S
C434 C426 1.378 . S
C434 C429 1.350 . S
C435 H422 0.929 . S
C435 C427 1.433 . S
C435 N437 1.384 . S
N436 C432 1.427 . S
N436 C433 1.384 . S
N437 C429 1.427 . S
N437 C435 1.384 . S
H438 C444 0.930 . S
H439 C448 0.930 . S
H440 C453 0.929 . S
H441 C451 0.929 . S
H442 C446 0.929 . S
H443 C452 0.929 . S
C444 H438 0.930 . S
C444 C445 1.367 . S
C444 C452 1.378 . S
C445 C444 1.367 . S
C445 C453 1.433 . S
C446 H442 0.929 . S
C446 C448 1.378 . S
C446 C450 1.350 . S
C447 C450 1.463 . S
C447 C452 1.350 . S
C447 N455 1.427 . S
C448 H439 0.930 . S
C448 C446 1.378 . S
C448 C449 1.367 . S
C449 C448 1.367 . S
C449 C451 1.433 . S
C450 C446 1.350 . S
C450 C447 1.463 . S
C450 N454 1.427 . S
C451 H441 0.929 . S
C451 C449 1.433 . S
C451 N454 1.384 . S
C452 H443 0.929 . S
C452 C444 1.378 . S
C452 C447 1.350 . S
C453 H440 0.929 . S
C453 C445 1.433 . S
C453 N455 1.384 . S
N454 C450 1.427 . S
N454 C451 1.384 . S
N455 C447 1.427 . S
N455 C453 1.384 . S
H456 C462 0.930 . S
H457 C466 0.930 . S
H458 C471 0.929 . S
H459 C469 0.929 . S
H460 C464 0.929 . S
H461 C470 0.929 . S
C462 H456 0.930 . S
C462 C463 1.367 . S
C462 C470 1.378 . S
C463 C462 1.367 . S
C463 C471 1.433 . S
C464 H460 0.929 . S
C464 C466 1.378 . S
C464 C468 1.350 . S
C465 C468 1.463 . S
C465 C470 1.350 . S
C465 N473 1.427 . S
C466 H457 0.930 . S
C466 C464 1.378 . S
C466 C467 1.367 . S
C467 C466 1.367 . S
C467 C469 1.433 . S
C468 C464 1.350 . S
C468 C465 1.463 . S
C468 N472 1.427 . S
C469 H459 0.929 . S
C469 C467 1.433 . S
C469 N472 1.384 . S
C470 H461 0.929 . S
C470 C462 1.378 . S
C470 C465 1.350 . S
C471 H458 0.929 . S
C471 C463 1.433 . S
C471 N473 1.384 . S
N472 C468 1.427 . S
N472 C469 1.384 . S
N473 C465 1.427 . S
N473 C471 1.384 . S
H474 C480 0.930 . S
H475 C484 0.930 . S
H476 C489 0.929 . S
H477 C487 0.929 . S
H478 C482 0.929 . S
H479 C488 0.929 . S
C480 H474 0.930 . S
C480 C481 1.367 . S
C480 C488 1.378 . S
C481 C480 1.367 . S
C481 C489 1.433 . S
C482 H478 0.929 . S
C482 C484 1.378 . S
C482 C486 1.350 . S
C483 C486 1.463 . S
C483 C488 1.350 . S
C483 N491 1.427 . S
C484 H475 0.930 . S
C484 C482 1.378 . S
C484 C485 1.367 . S
C485 C484 1.367 . S
C485 C487 1.433 . S
C486 C482 1.350 . S
C486 C483 1.463 . S
C486 N490 1.427 . S
C487 H477 0.929 . S
C487 C485 1.433 . S
C487 N490 1.384 . S
C488 H479 0.929 . S
C488 C480 1.378 . S
C488 C483 1.350 . S
C489 H476 0.929 . S
C489 C481 1.433 . S
C489 N491 1.384 . S
N490 C486 1.427 . S
N490 C487 1.384 . S
N491 C483 1.427 . S
N491 C489 1.384 . S
H492 C498 0.930 . S
H493 C502 0.930 . S
H494 C507 0.929 . S
H495 C505 0.929 . S
H496 C500 0.929 . S
H497 C506 0.929 . S
C498 H492 0.930 . S
C498 C499 1.367 . S
C498 C506 1.378 . S
C499 C498 1.367 . S
C499 C507 1.433 . S
C500 H496 0.929 . S
C500 C502 1.378 . S
C500 C504 1.350 . S
C501 C504 1.463 1_655 S
C501 C506 1.350 . S
C501 N509 1.427 . S
C502 H493 0.930 . S
C502 C500 1.378 . S
C502 C503 1.367 . S
C503 C502 1.367 . S
C503 C505 1.433 . S
C504 C500 1.350 . S
C504 C501 1.463 1_455 S
C504 N508 1.427 . S
C505 H495 0.929 . S
C505 C503 1.433 . S
C505 N508 1.384 . S
C506 H497 0.929 . S
C506 C498 1.378 . S
C506 C501 1.350 . S
C507 H494 0.929 . S
C507 C499 1.433 . S
C507 N509 1.384 . S
N508 C504 1.427 . S
N508 C505 1.384 . S
N509 C501 1.427 . S
N509 C507 1.384 . S
H510 C516 0.930 . S
H511 C520 0.930 . S
H512 C525 0.929 . S
H513 C523 0.929 . S
H514 C518 0.929 . S
H515 C524 0.929 . S
C516 H510 0.930 . S
C516 C517 1.367 . S
C516 C524 1.378 . S
C517 C516 1.367 . S
C517 C525 1.433 . S
C518 H514 0.929 . S
C518 C520 1.378 . S
C518 C522 1.350 . S
C519 C522 1.463 1_565 S
C519 C524 1.350 . S
C519 N527 1.427 . S
C520 H511 0.930 . S
C520 C518 1.378 . S
C520 C521 1.367 . S
C521 C520 1.367 . S
C521 C523 1.433 . S
C522 C518 1.350 . S
C522 C519 1.463 1_545 S
C522 N526 1.427 . S
C523 H513 0.929 . S
C523 C521 1.433 . S
C523 N526 1.384 . S
C524 H515 0.929 . S
C524 C516 1.378 . S
C524 C519 1.350 . S
C525 H512 0.929 . S
C525 C517 1.433 . S
C525 N527 1.384 . S
N526 C522 1.427 . S
N526 C523 1.384 . S
N527 C519 1.427 . S
N527 C525 1.384 . S
H528 C534 0.930 . S
H529 C538 0.930 . S
H530 C543 0.929 . S
H531 C541 0.929 . S
H532 C536 0.929 . S
H533 C542 0.929 . S
C534 H528 0.930 . S
C534 C535 1.367 . S
C534 C542 1.378 . S
C535 C534 1.367 . S
C535 C543 1.433 . S
C536 H532 0.929 . S
C536 C538 1.378 . S
C536 C540 1.350 . S
C537 C540 1.463 . S
C537 C542 1.350 . S
C537 N545 1.427 . S
C538 H529 0.930 . S
C538 C536 1.378 . S
C538 C539 1.367 . S
C539 C538 1.367 . S
C539 C541 1.433 . S
C540 C536 1.350 . S
C540 C537 1.463 . S
C540 N544 1.427 . S
C541 H531 0.929 . S
C541 C539 1.433 . S
C541 N544 1.384 . S
C542 H533 0.929 . S
C542 C534 1.378 . S
C542 C537 1.350 . S
C543 H530 0.929 . S
C543 C535 1.433 . S
C543 N545 1.384 . S
N544 C540 1.427 . S
N544 C541 1.384 . S
N545 C537 1.427 . S
N545 C543 1.384 . S
H546 C552 0.930 . S
H547 C556 0.930 . S
H548 C561 0.929 . S
H549 C559 0.929 . S
H550 C554 0.929 . S
H551 C560 0.929 . S
C552 H546 0.930 . S
C552 C553 1.367 . S
C552 C560 1.378 . S
C553 C552 1.367 . S
C553 C561 1.433 . S
C554 H550 0.929 . S
C554 C556 1.378 . S
C554 C558 1.350 . S
C555 C558 1.463 1_455 S
C555 C560 1.350 . S
C555 N563 1.427 . S
C556 H547 0.930 . S
C556 C554 1.378 . S
C556 C557 1.367 . S
C557 C556 1.367 . S
C557 C559 1.433 . S
C558 C554 1.350 . S
C558 C555 1.463 1_655 S
C558 N562 1.427 . S
C559 H549 0.929 . S
C559 C557 1.433 . S
C559 N562 1.384 . S
C560 H551 0.929 . S
C560 C552 1.378 . S
C560 C555 1.350 . S
C561 H548 0.929 . S
C561 C553 1.433 . S
C561 N563 1.384 . S
N562 C558 1.427 . S
N562 C559 1.384 . S
N563 C555 1.427 . S
N563 C561 1.384 . S
H564 C570 0.930 1_554 S
H565 C574 0.930 1_556 S
H566 C579 0.929 . S
H567 C577 0.929 . S
H568 C572 0.929 . S
H569 C578 0.929 . S
C570 H564 0.930 1_556 S
C570 C571 1.367 . S
C570 C578 1.378 1_556 S
C571 C570 1.367 . S
C571 C579 1.433 . S
C572 H568 0.929 . S
C572 C574 1.378 1_556 S
C572 C576 1.350 1_556 S
C573 C576 1.463 1_546 S
C573 C578 1.350 1_556 S
C573 N581 1.427 . S
C574 H565 0.930 1_554 S
C574 C572 1.378 1_554 S
C574 C575 1.367 . S
C575 C574 1.367 . S
C575 C577 1.433 . S
C576 C572 1.350 1_554 S
C576 C573 1.463 1_564 S
C576 N580 1.427 . S
C577 H567 0.929 . S
C577 C575 1.433 . S
C577 N580 1.384 . S
C578 H569 0.929 . S
C578 C570 1.378 1_554 S
C578 C573 1.350 1_554 S
C579 H566 0.929 . S
C579 C571 1.433 . S
C579 N581 1.384 . S
N580 C576 1.427 . S
N580 C577 1.384 . S
N581 C573 1.427 . S
N581 C579 1.384 . S
H582 C588 0.930 . S
H583 C592 0.930 . S
H584 C597 0.929 . S
H585 C595 0.929 . S
H586 C590 0.929 . S
H587 C596 0.929 . S
C588 H582 0.930 . S
C588 C589 1.367 . S
C588 C596 1.378 . S
C589 C588 1.367 . S
C589 C597 1.433 . S
C590 H586 0.929 . S
C590 C592 1.378 . S
C590 C594 1.350 . S
C591 C594 1.463 . S
C591 C596 1.350 . S
C591 N599 1.427 . S
C592 H583 0.930 . S
C592 C590 1.378 . S
C592 C593 1.367 . S
C593 C592 1.367 . S
C593 C595 1.433 . S
C594 C590 1.350 . S
C594 C591 1.463 . S
C594 N598 1.427 . S
C595 H585 0.929 . S
C595 C593 1.433 . S
C595 N598 1.384 . S
C596 H587 0.929 . S
C596 C588 1.378 . S
C596 C591 1.350 . S
C597 H584 0.929 . S
C597 C589 1.433 . S
C597 N599 1.384 . S
N598 C594 1.427 . S
N598 C595 1.384 . S
N599 C591 1.427 . S
N599 C597 1.384 . S
H600 C606 0.930 . S
H601 C610 0.930 . S
H602 C615 0.929 . S
H603 C613 0.929 . S
H604 C608 0.929 . S
H605 C614 0.929 . S
C606 H600 0.930 . S
C606 C607 1.367 . S
C606 C614 1.378 . S
C607 C606 1.367 . S
C607 C615 1.433 . S
C608 H604 0.929 . S
C608 C610 1.378 . S
C608 C612 1.350 . S
C609 C612 1.463 . S
C609 C614 1.350 . S
C609 N617 1.427 . S
C610 H601 0.930 . S
C610 C608 1.378 . S
C610 C611 1.367 . S
C611 C610 1.367 . S
C611 C613 1.433 . S
C612 C608 1.350 . S
C612 C609 1.463 . S
C612 N616 1.427 . S
C613 H603 0.929 . S
C613 C611 1.433 . S
C613 N616 1.384 . S
C614 H605 0.929 . S
C614 C606 1.378 . S
C614 C609 1.350 . S
C615 H602 0.929 . S
C615 C607 1.433 . S
C615 N617 1.384 . S
N616 C612 1.427 . S
N616 C613 1.384 . S
N617 C609 1.427 . S
N617 C615 1.384 . S
H618 C624 0.930 . S
H619 C628 0.930 . S
H620 C633 0.929 . S
H621 C631 0.929 . S
H622 C626 0.929 . S
H623 C632 0.929 . S
C624 H618 0.930 . S
C624 C625 1.367 . S
C624 C632 1.378 . S
C625 C624 1.367 . S
C625 C633 1.433 . S
C626 H622 0.929 . S
C626 C628 1.378 . S
C626 C630 1.350 . S
C627 C630 1.463 . S
C627 C632 1.350 . S
C627 N635 1.427 . S
C628 H619 0.930 . S
C628 C626 1.378 . S
C628 C629 1.367 . S
C629 C628 1.367 . S
C629 C631 1.433 . S
C630 C626 1.350 . S
C630 C627 1.463 . S
C630 N634 1.427 . S
C631 H621 0.929 . S
C631 C629 1.433 . S
C631 N634 1.384 . S
C632 H623 0.929 . S
C632 C624 1.378 . S
C632 C627 1.350 . S
C633 H620 0.929 . S
C633 C625 1.433 . S
C633 N635 1.384 . S
N634 C630 1.427 . S
N634 C631 1.384 . S
N635 C627 1.427 . S
N635 C633 1.384 . S
H636 C642 0.930 . S
H637 C646 0.930 . S
H638 C651 0.929 . S
H639 C649 0.929 . S
H640 C644 0.929 . S
H641 C650 0.929 . S
C642 H636 0.930 . S
C642 C643 1.367 . S
C642 C650 1.378 . S
C643 C642 1.367 . S
C643 C651 1.433 . S
C644 H640 0.929 . S
C644 C646 1.378 . S
C644 C648 1.350 . S
C645 C648 1.463 . S
C645 C650 1.350 . S
C645 N653 1.427 . S
C646 H637 0.930 . S
C646 C644 1.378 . S
C646 C647 1.367 . S
C647 C646 1.367 . S
C647 C649 1.433 . S
C648 C644 1.350 . S
C648 C645 1.463 . S
C648 N652 1.427 . S
C649 H639 0.929 . S
C649 C647 1.433 . S
C649 N652 1.384 . S
C650 H641 0.929 . S
C650 C642 1.378 . S
C650 C645 1.350 . S
C651 H638 0.929 . S
C651 C643 1.433 . S
C651 N653 1.384 . S
N652 C648 1.427 . S
N652 C649 1.384 . S
N653 C645 1.427 . S
N653 C651 1.384 . S
H654 C660 0.930 . S
H655 C664 0.930 . S
H656 C669 0.929 . S
H657 C667 0.929 . S
H658 C662 0.929 . S
H659 C668 0.929 . S
C660 H654 0.930 . S
C660 C661 1.367 . S
C660 C668 1.378 . S
C661 C660 1.367 . S
C661 C669 1.433 . S
C662 H658 0.929 . S
C662 C664 1.378 . S
C662 C666 1.350 . S
C663 C666 1.463 . S
C663 C668 1.350 . S
C663 N671 1.427 . S
C664 H655 0.930 . S
C664 C662 1.378 . S
C664 C665 1.367 . S
C665 C664 1.367 . S
C665 C667 1.433 . S
C666 C662 1.350 . S
C666 C663 1.463 . S
C666 N670 1.427 . S
C667 H657 0.929 . S
C667 C665 1.433 . S
C667 N670 1.384 . S
C668 H659 0.929 . S
C668 C660 1.378 . S
C668 C663 1.350 . S
C669 H656 0.929 . S
C669 C661 1.433 . S
C669 N671 1.384 . S
N670 C666 1.427 . S
N670 C667 1.384 . S
N671 C663 1.427 . S
N671 C669 1.384 . S
H672 C678 0.930 . S
H673 C682 0.930 . S
H674 C687 0.929 1_554 S
H675 C685 0.929 . S
H676 C680 0.929 . S
H677 C686 0.929 . S
C678 H672 0.930 . S
C678 C679 1.367 . S
C678 C686 1.378 . S
C679 C678 1.367 . S
C679 C687 1.433 . S
C680 H676 0.929 . S
C680 C682 1.378 . S
C680 C684 1.350 . S
C681 C684 1.463 . S
C681 C686 1.350 . S
C681 N689 1.427 . S
C682 H673 0.930 . S
C682 C680 1.378 . S
C682 C683 1.367 . S
C683 C682 1.367 . S
C683 C685 1.433 . S
C684 C680 1.350 . S
C684 C681 1.463 . S
C684 N688 1.427 . S
C685 H675 0.929 . S
C685 C683 1.433 . S
C685 N688 1.384 . S
C686 H677 0.929 . S
C686 C678 1.378 . S
C686 C681 1.350 . S
C687 H674 0.929 1_556 S
C687 C679 1.433 . S
C687 N689 1.384 . S
N688 C684 1.427 . S
N688 C685 1.384 . S
N689 C681 1.427 . S
N689 C687 1.384 . S
H690 C696 0.930 . S
H691 C700 0.930 1_556 S
H692 C705 0.929 . S
H693 C703 0.929 . S
H694 C698 0.929 . S
H695 C704 0.929 . S
C696 H690 0.930 . S
C696 C697 1.367 . S
C696 C704 1.378 . S
C697 C696 1.367 . S
C697 C705 1.433 . S
C698 H694 0.929 . S
C698 C700 1.378 . S
C698 C702 1.350 . S
C699 C702 1.463 . S
C699 C704 1.350 . S
C699 N707 1.427 . S
C700 H691 0.930 1_554 S
C700 C698 1.378 . S
C700 C701 1.367 . S
C701 C700 1.367 . S
C701 C703 1.433 . S
C702 C698 1.350 . S
C702 C699 1.463 . S
C702 N706 1.427 . S
C703 H693 0.929 . S
C703 C701 1.433 . S
C703 N706 1.384 . S
C704 H695 0.929 . S
C704 C696 1.378 . S
C704 C699 1.350 . S
C705 H692 0.929 . S
C705 C697 1.433 . S
C705 N707 1.384 . S
N706 C702 1.427 . S
N706 C703 1.384 . S
N707 C699 1.427 . S
N707 C705 1.384 . S
C283 N2 1.311 . S
C287 N140 1.331 . S
C301 N25 1.313 . S
C305 N163 1.330 . S
C319 N186 1.331 . S
C323 N48 1.310 . S
C337 N71 1.317 . S
C341 N209 1.327 . S
C355 N94 1.324 . S
C359 N232 1.315 . S
C373 N255 1.313 . S
C377 N117 1.327 . S
C391 C191 1.429 . S
C395 C7 1.430 . S
C409 C30 1.428 . S
C413 C214 1.439 . S
C427 C237 1.427 1_556 S
C431 C53 1.432 . S
C445 C260 1.438 . S
C449 C76 1.424 1_554 S
C463 C99 1.439 . S
C467 C145 1.425 . S
C481 C122 1.434 . S
C485 C168 1.426 . S
C499 N265 1.818 . S
C503 N12 1.819 . S
C517 N150 1.814 . S
C521 N35 1.814 . S
C535 N58 1.814 . S
C539 N173 1.815 . S
C553 N196 1.827 . S
C557 N81 1.826 . S
C571 N219 1.814 . S
C575 N104 1.814 . S
C589 N242 1.815 . S
C593 N127 1.816 . S
C607 C16 1.718 . S
C611 C246 1.717 . S
C625 C269 1.718 . S
C629 C39 1.717 . S
C643 C62 1.717 . S
C647 C154 1.719 . S
C661 C85 1.719 . S
C665 C177 1.717 . S
C679 C108 1.719 1_556 S
C683 C200 1.717 . S
C697 C131 1.713 . S
C701 C223 1.713 1_554 S
