# Generated by pormake.
# Topology ukv, (4)-cn, num edge types: 1
# Building blocks:
#     Node 0, Type 0, BuildingBlock: GALJAG_clean_sbu_0, # of connection points: 4
#     Node 1, Type 0, BuildingBlock: GALJAG_clean_sbu_0, # of connection points: 4
#     Node 2, Type 0, BuildingBlock: GALJAG_clean_sbu_0, # of connection points: 4
#     Node 3, Type 0, BuildingBlock: GALJAG_clean_sbu_0, # of connection points: 4
#     Node 4, Type 0, BuildingBlock: GALJAG_clean_sbu_0, # of connection points: 4
#     Node 5, Type 0, BuildingBlock: GALJAG_clean_sbu_0, # of connection points: 4
#     Node 6, Type 0, BuildingBlock: GALJAG_clean_sbu_0, # of connection points: 4
#     Node 7, Type 0, BuildingBlock: GALJAG_clean_sbu_0, # of connection points: 4
#     Node 8, Type 0, BuildingBlock: GALJAG_clean_sbu_0, # of connection points: 4
#     Node 9, Type 0, BuildingBlock: GALJAG_clean_sbu_0, # of connection points: 4
#     Node 10, Type 0, BuildingBlock: GALJAG_clean_sbu_0, # of connection points: 4
#     Node 11, Type 0, BuildingBlock: GALJAG_clean_sbu_0, # of connection points: 4
#     Node 12, Type 0, BuildingBlock: GALJAG_clean_sbu_0, # of connection points: 4
#     Node 13, Type 0, BuildingBlock: GALJAG_clean_sbu_0, # of connection points: 4
#     Node 14, Type 0, BuildingBlock: GALJAG_clean_sbu_0, # of connection points: 4
#     Node 15, Type 0, BuildingBlock: GALJAG_clean_sbu_0, # of connection points: 4
#     Node 16, Type 0, BuildingBlock: GALJAG_clean_sbu_0, # of connection points: 4
#     Node 17, Type 0, BuildingBlock: GALJAG_clean_sbu_0, # of connection points: 4
#     Node 18, Type 0, BuildingBlock: GALJAG_clean_sbu_0, # of connection points: 4
#     Node 19, Type 0, BuildingBlock: GALJAG_clean_sbu_0, # of connection points: 4
#     Node 20, Type 0, BuildingBlock: GALJAG_clean_sbu_0, # of connection points: 4
#     Node 21, Type 0, BuildingBlock: GALJAG_clean_sbu_0, # of connection points: 4
#     Node 22, Type 0, BuildingBlock: GALJAG_clean_sbu_0, # of connection points: 4
#     Node 23, Type 0, BuildingBlock: GALJAG_clean_sbu_0, # of connection points: 4
#     Node 24, Type 0, BuildingBlock: GALJAG_clean_sbu_0, # of connection points: 4
#     Node 25, Type 0, BuildingBlock: GALJAG_clean_sbu_0, # of connection points: 4
#     Node 26, Type 0, BuildingBlock: GALJAG_clean_sbu_0, # of connection points: 4
#     Node 27, Type 0, BuildingBlock: GALJAG_clean_sbu_0, # of connection points: 4
#     Node 28, Type 0, BuildingBlock: GALJAG_clean_sbu_0, # of connection points: 4
#     Node 29, Type 0, BuildingBlock: GALJAG_clean_sbu_0, # of connection points: 4
#     Node 30, Type 0, BuildingBlock: GALJAG_clean_sbu_0, # of connection points: 4
#     Node 31, Type 0, BuildingBlock: GALJAG_clean_sbu_0, # of connection points: 4
#     Node 32, Type 0, BuildingBlock: GALJAG_clean_sbu_0, # of connection points: 4
#     Node 33, Type 0, BuildingBlock: GALJAG_clean_sbu_0, # of connection points: 4
#     Node 34, Type 0, BuildingBlock: GALJAG_clean_sbu_0, # of connection points: 4
#     Node 35, Type 0, BuildingBlock: GALJAG_clean_sbu_0, # of connection points: 4
#     Edge 36, Type (0, 0), BuildingBlock: OJICUG_clean_linker_0, # of connection points: 2
#     Edge 37, Type (0, 0), BuildingBlock: OJICUG_clean_linker_0, # of connection points: 2
#     Edge 38, Type (0, 0), BuildingBlock: OJICUG_clean_linker_0, # of connection points: 2
#     Edge 39, Type (0, 0), BuildingBlock: OJICUG_clean_linker_0, # of connection points: 2
#     Edge 40, Type (0, 0), BuildingBlock: OJICUG_clean_linker_0, # of connection points: 2
#     Edge 41, Type (0, 0), BuildingBlock: OJICUG_clean_linker_0, # of connection points: 2
#     Edge 42, Type (0, 0), BuildingBlock: OJICUG_clean_linker_0, # of connection points: 2
#     Edge 43, Type (0, 0), BuildingBlock: OJICUG_clean_linker_0, # of connection points: 2
#     Edge 44, Type (0, 0), BuildingBlock: OJICUG_clean_linker_0, # of connection points: 2
#     Edge 45, Type (0, 0), BuildingBlock: OJICUG_clean_linker_0, # of connection points: 2
#     Edge 46, Type (0, 0), BuildingBlock: OJICUG_clean_linker_0, # of connection points: 2
#     Edge 47, Type (0, 0), BuildingBlock: OJICUG_clean_linker_0, # of connection points: 2
#     Edge 48, Type (0, 0), BuildingBlock: OJICUG_clean_linker_0, # of connection points: 2
#     Edge 49, Type (0, 0), BuildingBlock: OJICUG_clean_linker_0, # of connection points: 2
#     Edge 50, Type (0, 0), BuildingBlock: OJICUG_clean_linker_0, # of connection points: 2
#     Edge 51, Type (0, 0), BuildingBlock: OJICUG_clean_linker_0, # of connection points: 2
#     Edge 52, Type (0, 0), BuildingBlock: OJICUG_clean_linker_0, # of connection points: 2
#     Edge 53, Type (0, 0), BuildingBlock: OJICUG_clean_linker_0, # of connection points: 2
#     Edge 54, Type (0, 0), BuildingBlock: OJICUG_clean_linker_0, # of connection points: 2
#     Edge 55, Type (0, 0), BuildingBlock: OJICUG_clean_linker_0, # of connection points: 2
#     Edge 56, Type (0, 0), BuildingBlock: OJICUG_clean_linker_0, # of connection points: 2
#     Edge 57, Type (0, 0), BuildingBlock: OJICUG_clean_linker_0, # of connection points: 2
#     Edge 58, Type (0, 0), BuildingBlock: OJICUG_clean_linker_0, # of connection points: 2
#     Edge 59, Type (0, 0), BuildingBlock: OJICUG_clean_linker_0, # of connection points: 2
#     Edge 60, Type (0, 0), BuildingBlock: OJICUG_clean_linker_0, # of connection points: 2
#     Edge 61, Type (0, 0), BuildingBlock: OJICUG_clean_linker_0, # of connection points: 2
#     Edge 62, Type (0, 0), BuildingBlock: OJICUG_clean_linker_0, # of connection points: 2
#     Edge 63, Type (0, 0), BuildingBlock: OJICUG_clean_linker_0, # of connection points: 2
#     Edge 64, Type (0, 0), BuildingBlock: OJICUG_clean_linker_0, # of connection points: 2
#     Edge 65, Type (0, 0), BuildingBlock: OJICUG_clean_linker_0, # of connection points: 2
#     Edge 66, Type (0, 0), BuildingBlock: OJICUG_clean_linker_0, # of connection points: 2
#     Edge 67, Type (0, 0), BuildingBlock: OJICUG_clean_linker_0, # of connection points: 2
#     Edge 68, Type (0, 0), BuildingBlock: OJICUG_clean_linker_0, # of connection points: 2
#     Edge 69, Type (0, 0), BuildingBlock: OJICUG_clean_linker_0, # of connection points: 2
#     Edge 70, Type (0, 0), BuildingBlock: OJICUG_clean_linker_0, # of connection points: 2
#     Edge 71, Type (0, 0), BuildingBlock: OJICUG_clean_linker_0, # of connection points: 2
#     Edge 72, Type (0, 0), BuildingBlock: OJICUG_clean_linker_0, # of connection points: 2
#     Edge 73, Type (0, 0), BuildingBlock: OJICUG_clean_linker_0, # of connection points: 2
#     Edge 74, Type (0, 0), BuildingBlock: OJICUG_clean_linker_0, # of connection points: 2
#     Edge 75, Type (0, 0), BuildingBlock: OJICUG_clean_linker_0, # of connection points: 2
#     Edge 76, Type (0, 0), BuildingBlock: OJICUG_clean_linker_0, # of connection points: 2
#     Edge 77, Type (0, 0), BuildingBlock: OJICUG_clean_linker_0, # of connection points: 2
#     Edge 78, Type (0, 0), BuildingBlock: OJICUG_clean_linker_0, # of connection points: 2
#     Edge 79, Type (0, 0), BuildingBlock: OJICUG_clean_linker_0, # of connection points: 2
#     Edge 80, Type (0, 0), BuildingBlock: OJICUG_clean_linker_0, # of connection points: 2
#     Edge 81, Type (0, 0), BuildingBlock: OJICUG_clean_linker_0, # of connection points: 2
#     Edge 82, Type (0, 0), BuildingBlock: OJICUG_clean_linker_0, # of connection points: 2
#     Edge 83, Type (0, 0), BuildingBlock: OJICUG_clean_linker_0, # of connection points: 2
#     Edge 84, Type (0, 0), BuildingBlock: OJICUG_clean_linker_0, # of connection points: 2
#     Edge 85, Type (0, 0), BuildingBlock: OJICUG_clean_linker_0, # of connection points: 2
#     Edge 86, Type (0, 0), BuildingBlock: OJICUG_clean_linker_0, # of connection points: 2
#     Edge 87, Type (0, 0), BuildingBlock: OJICUG_clean_linker_0, # of connection points: 2
#     Edge 88, Type (0, 0), BuildingBlock: OJICUG_clean_linker_0, # of connection points: 2
#     Edge 89, Type (0, 0), BuildingBlock: OJICUG_clean_linker_0, # of connection points: 2
#     Edge 90, Type (0, 0), BuildingBlock: OJICUG_clean_linker_0, # of connection points: 2
#     Edge 91, Type (0, 0), BuildingBlock: OJICUG_clean_linker_0, # of connection points: 2
#     Edge 92, Type (0, 0), BuildingBlock: OJICUG_clean_linker_0, # of connection points: 2
#     Edge 93, Type (0, 0), BuildingBlock: OJICUG_clean_linker_0, # of connection points: 2
#     Edge 94, Type (0, 0), BuildingBlock: OJICUG_clean_linker_0, # of connection points: 2
#     Edge 95, Type (0, 0), BuildingBlock: OJICUG_clean_linker_0, # of connection points: 2
#     Edge 96, Type (0, 0), BuildingBlock: OJICUG_clean_linker_0, # of connection points: 2
#     Edge 97, Type (0, 0), BuildingBlock: OJICUG_clean_linker_0, # of connection points: 2
#     Edge 98, Type (0, 0), BuildingBlock: OJICUG_clean_linker_0, # of connection points: 2
#     Edge 99, Type (0, 0), BuildingBlock: OJICUG_clean_linker_0, # of connection points: 2
#     Edge 100, Type (0, 0), BuildingBlock: OJICUG_clean_linker_0, # of connection points: 2
#     Edge 101, Type (0, 0), BuildingBlock: OJICUG_clean_linker_0, # of connection points: 2
#     Edge 102, Type (0, 0), BuildingBlock: OJICUG_clean_linker_0, # of connection points: 2
#     Edge 103, Type (0, 0), BuildingBlock: OJICUG_clean_linker_0, # of connection points: 2
#     Edge 104, Type (0, 0), BuildingBlock: OJICUG_clean_linker_0, # of connection points: 2
#     Edge 105, Type (0, 0), BuildingBlock: OJICUG_clean_linker_0, # of connection points: 2
#     Edge 106, Type (0, 0), BuildingBlock: OJICUG_clean_linker_0, # of connection points: 2
#     Edge 107, Type (0, 0), BuildingBlock: OJICUG_clean_linker_0, # of connection points: 2
# Relax obj value: 0.157
# Max RMSD: 0.129
# Mean RMSD: 0.129
data_MOF--net-ukv--node1-GALJAG_clean_sbu_0--edge1-OJICUG_clean_linker_0
_symmetry_space_group_name_H-M    P1
_symmetry_Int_Tables_number       1
_symmetry_cell_setting            triclinic
loop_
_symmetry_equiv_pos_as_xyz
'x, y, z'
_cell_length_a     65.330315
_cell_length_b     65.333357
_cell_length_c     17.492349
_cell_angle_alpha  90.006033
_cell_angle_beta   90.00698
_cell_angle_gamma 119.98291
loop_
_atom_site_label
_atom_site_type_symbol
_atom_site_fract_x
_atom_site_fract_y
_atom_site_fract_z
_atom_type_partial_charge
In0 In 0.23304 0.07738 0.98889 0.0
O1 O 0.24221 0.11264 0.04255 0.0
O2 O 0.2071 0.08379 0.05551 0.0
C3 C 0.27766 0.0971 0.93721 0.0
C4 C 0.22592 0.04609 0.10042 0.0
C5 C 0.2115 0.06751 0.85146 0.0
O6 O 0.26876 0.10939 0.9593 0.0
O7 O 0.26421 0.07504 0.94294 0.0
O8 O 0.22227 0.05728 0.87528 0.0
O9 O 0.21019 0.08121 0.89915 0.0
C10 C 0.22184 0.10509 0.0706 0.0
O11 O 0.21018 0.04256 0.05188 0.0
O12 O 0.24536 0.06481 0.09085 0.0
In13 In 0.91743 0.17945 0.10365 0.0
O14 O 0.89726 0.17562 0.21336 0.0
O15 O 0.90474 0.14831 0.18366 0.0
C16 C 0.91137 0.21077 0.02197 0.0
C17 C 0.96194 0.19992 0.15591 0.0
C18 C 0.89248 0.14649 -0.00017 0.0
O19 O 0.90376 0.2052 0.08974 0.0
O20 O 0.92355 0.20195 -0.00182 0.0
O21 O 0.91488 0.15663 0.00128 0.0
O22 O 0.88321 0.15221 0.05279 0.0
C23 C 0.89542 0.15593 0.23042 0.0
O24 O 0.95261 0.18041 0.12067 0.0
O25 O 0.94932 0.20948 0.16031 0.0
In26 In 0.80921 0.7324 0.1244 0.0
O27 O 0.81152 0.76781 0.14757 0.0
O28 O 0.78186 0.73649 0.19102 0.0
C29 C 0.83965 0.73765 0.01356 0.0
C30 C 0.83335 0.73258 0.24839 0.0
C31 C 0.77371 0.69852 0.04339 0.0
O32 O 0.83246 0.75232 0.02214 0.0
O33 O 0.83233 0.7214 0.0629 0.0
O34 O 0.7805 0.69417 0.10616 0.0
O35 O 0.78367 0.72012 0.02524 0.0
C36 C 0.79289 0.75876 0.1876 0.0
O37 O 0.81377 0.71467 0.23046 0.0
O38 O 0.84068 0.74981 0.20292 0.0
In39 In 0.0961 0.26067 0.35854 0.0
O40 O 0.05921 0.2282 0.34586 0.0
O41 O 0.06457 0.26187 0.3122 0.0
C42 C 0.11837 0.25181 0.47089 0.0
C43 C 0.11255 0.25312 0.22841 0.0
C44 C 0.10983 0.30371 0.41408 0.0
O45 O 0.09608 0.24268 0.47123 0.0
O46 O 0.12864 0.26401 0.41278 0.0
O47 O 0.11931 0.30039 0.35597 0.0
O48 O 0.09253 0.28533 0.44183 0.0
C49 C 0.05064 0.2399 0.31591 0.0
O50 O 0.11147 0.27164 0.24014 0.0
O51 O 0.10539 0.23843 0.2826 0.0
In52 In 0.75823 0.83793 0.48646 0.0
O53 O 0.78362 0.82583 0.44522 0.0
O54 O 0.74825 0.80769 0.40353 0.0
C55 C 0.77848 0.86168 0.61549 0.0
C56 C 0.769 0.87218 0.38331 0.0
C57 C 0.71534 0.81039 0.54877 0.0
O58 O 0.77545 0.8413 0.60317 0.0
O59 O 0.7728 0.87043 0.56101 0.0
O60 O 0.718 0.8224 0.48892 0.0
O61 O 0.734 0.81179 0.57459 0.0
C62 C 0.76864 0.81013 0.40124 0.0
O63 O 0.7491 0.86177 0.41647 0.0
O64 O 0.78326 0.86542 0.40293 0.0
In65 In 0.19378 0.93623 0.39975 0.0
O66 O 0.19038 0.96876 0.37812 0.0
O67 O 0.22066 0.96842 0.33434 0.0
C68 C 0.16371 0.91189 0.51226 0.0
C69 C 0.16911 0.91223 0.27591 0.0
C70 C 0.22949 0.93645 0.47634 0.0
O71 O 0.17168 0.93388 0.50426 0.0
O72 O 0.17016 0.90248 0.46182 0.0
O73 O 0.22202 0.92572 0.4132 0.0
O74 O 0.22013 0.94842 0.4972 0.0
C75 C 0.20891 0.97894 0.33794 0.0
O76 O 0.18906 0.91448 0.29191 0.0
O77 O 0.16165 0.92153 0.32324 0.0
In78 In 0.75818 0.92858 0.98277 0.0
O79 O 0.7487 0.89573 0.91204 0.0
O80 O 0.78405 0.92501 0.90681 0.0
C81 C 0.7172 0.91983 0.04586 0.0
C82 C 0.76893 0.96473 0.888 0.0
C83 C 0.77613 0.92217 0.11186 0.0
O84 O 0.71783 0.90758 0.99063 0.0
O85 O 0.737 0.93653 0.06712 0.0
O86 O 0.77869 0.94218 0.09509 0.0
O87 O 0.76563 0.90622 0.06254 0.0
C88 C 0.76931 0.90447 0.88406 0.0
O89 O 0.78369 0.96532 0.93623 0.0
O90 O 0.74866 0.9466 0.89086 0.0
In91 In 0.08873 0.83289 0.89818 0.0
O92 O 0.11195 0.83938 0.79507 0.0
O93 O 0.10265 0.86556 0.82395 0.0
C94 C 0.08533 0.79527 0.9713 0.0
C95 C 0.046 0.81522 0.83406 0.0
C96 C 0.11507 0.86281 0.00887 0.0
O97 O 0.09719 0.80319 0.91036 0.0
O98 O 0.07412 0.80543 0.99184 0.0
O99 O 0.09426 0.85872 0.99524 0.0
O100 O 0.12245 0.85261 0.96478 0.0
C101 C 0.11335 0.85894 0.77878 0.0
O102 O 0.05099 0.82687 0.8959 0.0
O103 O 0.06223 0.81239 0.80657 0.0
In104 In 0.196 0.25813 0.86377 0.0
O105 O 0.19462 0.2229 0.85191 0.0
O106 O 0.22538 0.2535 0.81155 0.0
C107 C 0.16262 0.24869 0.96724 0.0
C108 C 0.17221 0.25531 0.73557 0.0
C109 C 0.22638 0.29773 0.93898 0.0
O110 O 0.17452 0.2382 0.9683 0.0
O111 O 0.16721 0.26305 0.91291 0.0
O112 O 0.22055 0.29807 0.87021 0.0
O113 O 0.21852 0.27736 0.96709 0.0
C114 C 0.21405 0.23128 0.81697 0.0
O115 O 0.19274 0.27248 0.74819 0.0
O116 O 0.16391 0.23991 0.78745 0.0
In117 In 0.91382 0.73338 0.6247 0.0
O118 O 0.89215 0.71666 0.73172 0.0
O119 O 0.89826 0.75072 0.69791 0.0
C120 C 0.91778 0.69975 0.54851 0.0
C121 C 0.95642 0.76208 0.68551 0.0
C122 C 0.88694 0.73655 0.5153 0.0
O123 O 0.90593 0.69533 0.60967 0.0
O124 O 0.92906 0.72131 0.53028 0.0
O125 O 0.90779 0.75324 0.52802 0.0
O126 O 0.87966 0.7191 0.55986 0.0
C127 C 0.88924 0.73407 0.74596 0.0
O128 O 0.94976 0.7674 0.62442 0.0
O129 O 0.94211 0.74213 0.71322 0.0
In130 In 0.24059 0.15292 0.49063 0.0
O131 O 0.24434 0.12375 0.54912 0.0
O132 O 0.21122 0.12252 0.55584 0.0
C133 C 0.28631 0.17299 0.45008 0.0
C134 C 0.23423 0.17931 0.59544 0.0
C135 C 0.22086 0.14451 0.35032 0.0
O136 O 0.27342 0.1509 0.45859 0.0
O137 O 0.27621 0.18479 0.4636 0.0
O138 O 0.23501 0.1651 0.37346 0.0
O139 O 0.21588 0.12858 0.39913 0.0
C140 C 0.22338 0.11319 0.57416 0.0
O141 O 0.21963 0.16873 0.54227 0.0
O142 O 0.25245 0.17736 0.59419 0.0
In143 In 0.81235 0.08081 0.6069 0.0
O144 O 0.8171 0.09761 0.72397 0.0
O145 O 0.84521 0.09355 0.67891 0.0
C146 C 0.78044 0.0905 0.54692 0.0
C147 C 0.79349 0.03669 0.66077 0.0
C148 C 0.84263 0.10304 0.49294 0.0
O149 O 0.79306 0.1014 0.60407 0.0
O150 O 0.78263 0.07339 0.52337 0.0
O151 O 0.83052 0.08066 0.49501 0.0
O152 O 0.83993 0.11352 0.54916 0.0
C153 C 0.83746 0.10022 0.73377 0.0
O154 O 0.8127 0.04645 0.62391 0.0
O155 O 0.78287 0.04832 0.66379 0.0
In156 In 0.92251 0.3997 0.40843 0.0
O157 O 0.93929 0.42104 0.51698 0.0
O158 O 0.9047 0.41372 0.48574 0.0
C159 C 0.95692 0.39908 0.32662 0.0
C160 C 0.89636 0.35652 0.46823 0.0
C161 C 0.91726 0.42504 0.29878 0.0
O162 O 0.96101 0.40981 0.39015 0.0
O163 O 0.93536 0.3874 0.30791 0.0
O164 O 0.90248 0.40321 0.30706 0.0
O165 O 0.93362 0.43384 0.34782 0.0
C166 C 0.92144 0.42304 0.53315 0.0
O167 O 0.88715 0.36635 0.43037 0.0
O168 O 0.91863 0.36781 0.47139 0.0
In169 In 0.56958 0.50031 0.4419 0.0
O170 O 0.60546 0.50319 0.46502 0.0
O171 O 0.59793 0.52889 0.51265 0.0
C172 C 0.54406 0.46922 0.33328 0.0
C173 C 0.54664 0.47538 0.56527 0.0
C174 C 0.5724 0.53583 0.35845 0.0
O175 O 0.5657 0.4756 0.34375 0.0
O176 O 0.53551 0.47782 0.37953 0.0
O177 O 0.56042 0.52906 0.41975 0.0
O178 O 0.58362 0.52529 0.3418 0.0
C179 C 0.61228 0.52136 0.50668 0.0
O180 O 0.54611 0.49379 0.54556 0.0
O181 O 0.55834 0.46956 0.52188 0.0
In182 In 0.48421 0.06833 0.40547 0.0
O183 O 0.46094 0.08469 0.42519 0.0
O184 O 0.46725 0.06762 0.51876 0.0
C185 C 0.4977 0.07649 0.25888 0.0
C186 C 0.52606 0.0933 0.47678 0.0
C187 C 0.45673 0.02141 0.38902 0.0
O188 O 0.48872 0.08759 0.2906 0.0
O189 O 0.50031 0.06248 0.30147 0.0
O190 O 0.47586 0.0306 0.42635 0.0
O191 O 0.45069 0.03586 0.36488 0.0
C192 C 0.45787 0.07931 0.49544 0.0
O193 O 0.51551 0.07107 0.47086 0.0
O194 O 0.51566 0.10303 0.44586 0.0
In195 In 0.74207 0.59203 0.73904 0.0
O196 O 0.70741 0.55748 0.71827 0.0
O197 O 0.71163 0.58976 0.67299 0.0
C198 C 0.76831 0.5878 0.84794 0.0
C199 C 0.76534 0.59121 0.61434 0.0
C200 C 0.73961 0.62509 0.82219 0.0
O201 O 0.74678 0.57215 0.83851 0.0
O202 O 0.77645 0.60451 0.80014 0.0
O203 O 0.75078 0.62995 0.75933 0.0
O204 O 0.72868 0.60344 0.84 0.0
C205 C 0.69881 0.56763 0.67874 0.0
O206 O 0.76427 0.6094 0.63309 0.0
O207 O 0.75504 0.57385 0.65919 0.0
In208 In 0.41918 0.15533 0.7922 0.0
O209 O 0.41406 0.1351 0.68162 0.0
O210 O 0.434 0.13079 0.76988 0.0
C211 C 0.43824 0.16654 0.93345 0.0
C212 C 0.43724 0.19445 0.70518 0.0
C213 C 0.37286 0.13723 0.82298 0.0
O214 O 0.42096 0.14658 0.91731 0.0
O215 O 0.44698 0.18015 0.87703 0.0
O216 O 0.38156 0.12454 0.80386 0.0
O217 O 0.3874 0.15913 0.82408 0.0
C218 C 0.42587 0.12565 0.7027 0.0
O219 O 0.41671 0.18502 0.73328 0.0
O220 O 0.44874 0.18424 0.7216 0.0
In221 In 0.8235 0.2413 0.76531 0.0
O222 O 0.80123 0.211 0.68392 0.0
O223 O 0.79135 0.23729 0.7042 0.0
C224 C 0.85986 0.23972 0.82863 0.0
C225 C 0.84734 0.27885 0.67591 0.0
C226 C 0.79867 0.22444 0.89297 0.0
O227 O 0.84842 0.22647 0.77272 0.0
O228 O 0.85356 0.25432 0.84927 0.0
O229 O 0.80758 0.24618 0.87569 0.0
O230 O 0.80172 0.21186 0.84454 0.0
C231 C 0.78699 0.21846 0.67021 0.0
O232 O 0.83465 0.27903 0.73072 0.0
O233 O 0.8484 0.26014 0.66865 0.0
In234 In 0.42805 0.23912 0.29666 0.0
O235 O 0.41867 0.2044 0.23891 0.0
O236 O 0.45265 0.23409 0.21695 0.0
C237 C 0.38254 0.21766 0.34135 0.0
C238 C 0.43657 0.27459 0.19972 0.0
C239 C 0.44879 0.24474 0.43474 0.0
O240 O 0.3956 0.23985 0.3396 0.0
O241 O 0.39233 0.20622 0.31912 0.0
O242 O 0.4367 0.25423 0.41801 0.0
O243 O 0.45191 0.23412 0.38003 0.0
C244 C 0.4382 0.21254 0.20451 0.0
O245 O 0.45175 0.27613 0.24762 0.0
O246 O 0.41711 0.25554 0.20206 0.0
In247 In 0.72083 0.15587 0.28779 0.0
O248 O 0.68791 0.156 0.24443 0.0
O249 O 0.69145 0.12614 0.2191 0.0
C250 C 0.72329 0.17677 0.42192 0.0
C251 C 0.74959 0.18045 0.17178 0.0
C252 C 0.7391 0.13163 0.3548 0.0
O253 O 0.70971 0.15491 0.41151 0.0
O254 O 0.73306 0.18834 0.3621 0.0
O255 O 0.75128 0.15321 0.3373 0.0
O256 O 0.7177 0.12158 0.33391 0.0
C257 C 0.67989 0.13663 0.20918 0.0
O258 O 0.74413 0.15946 0.18722 0.0
O259 O 0.74108 0.18942 0.21651 0.0
In260 In 0.84661 0.59389 0.23927 0.0
O261 O 0.84103 0.61134 0.1347 0.0
O262 O 0.81531 0.57553 0.16048 0.0
C263 C 0.88154 0.62684 0.32492 0.0
C264 C 0.86538 0.57025 0.17256 0.0
C265 C 0.81552 0.58833 0.34754 0.0
O266 O 0.87533 0.63187 0.26215 0.0
O267 O 0.87117 0.60507 0.34118 0.0
O268 O 0.82216 0.57323 0.33813 0.0
O269 O 0.82374 0.60516 0.30017 0.0
C270 C 0.82194 0.59293 0.11603 0.0
O271 O 0.84711 0.55974 0.21417 0.0
O272 O 0.87458 0.59242 0.16918 0.0
In273 In 0.57523 0.094 0.86666 0.0
O274 O 0.5461 0.07143 0.94912 0.0
O275 O 0.55492 0.10734 0.93832 0.0
C276 C 0.55718 0.05277 0.79059 0.0
C277 C 0.61193 0.10898 0.96449 0.0
C278 C 0.58158 0.11845 0.73697 0.0
O279 O 0.54546 0.06296 0.80406 0.0
O280 O 0.57795 0.06308 0.81745 0.0
O281 O 0.59422 0.10955 0.75435 0.0
O282 O 0.56788 0.11746 0.78948 0.0
C283 C 0.54237 0.08767 0.97082 0.0
O284 O 0.60596 0.12285 0.93504 0.0
O285 O 0.60044 0.088 0.94069 0.0
In286 In 0.92234 0.50319 0.90941 0.0
O287 O 0.93965 0.49674 0.01171 0.0
O288 O 0.90313 0.4723 0.98955 0.0
C289 C 0.95552 0.5379 0.8251 0.0
C290 C 0.90182 0.52493 0.97743 0.0
C291 C 0.91681 0.47221 0.8006 0.0
O292 O 0.96035 0.53132 0.88749 0.0
O293 O 0.93381 0.52776 0.80792 0.0
O294 O 0.90173 0.47892 0.80964 0.0
O295 O 0.93347 0.48025 0.84864 0.0
C296 C 0.92088 0.47826 0.03202 0.0
O297 O 0.88976 0.50646 0.93759 0.0
O298 O 0.92376 0.53251 0.97908 0.0
In299 In 0.46845 0.39409 0.94071 0.0
O300 O 0.4737 0.36248 0.95747 0.0
O301 O 0.4423 0.36041 0.00173 0.0
C302 C 0.49874 0.421 0.83229 0.0
C303 C 0.49138 0.41771 0.06715 0.0
C304 C 0.43313 0.39251 0.85789 0.0
O305 O 0.49265 0.39938 0.83968 0.0
O306 O 0.49047 0.42895 0.88181 0.0
O307 O 0.43902 0.40275 0.92234 0.0
O308 O 0.44359 0.38137 0.8395 0.0
C309 C 0.45493 0.35086 0.99572 0.0
O310 O 0.47082 0.41389 0.05138 0.0
O311 O 0.50014 0.41 0.01868 0.0
In312 In 0.58754 0.75492 0.78942 0.0
O313 O 0.60225 0.77352 0.90272 0.0
O314 O 0.56733 0.76511 0.87178 0.0
C315 C 0.62789 0.76565 0.71678 0.0
C316 C 0.56598 0.70929 0.83239 0.0
C317 C 0.57786 0.77845 0.68413 0.0
O318 O 0.62759 0.77146 0.78565 0.0
O319 O 0.60782 0.75336 0.6863 0.0
O320 O 0.56737 0.75604 0.68397 0.0
O321 O 0.5918 0.7883 0.73936 0.0
C322 C 0.58379 0.77413 0.9203 0.0
O323 O 0.55444 0.71856 0.80643 0.0
O324 O 0.58807 0.72259 0.83217 0.0
In325 In 0.26075 0.85757 0.76375 0.0
O326 O 0.23945 0.85392 0.87172 0.0
O327 O 0.24432 0.82521 0.83864 0.0
C328 C 0.26441 0.89482 0.68696 0.0
C329 C 0.30263 0.86995 0.82767 0.0
C330 C 0.23465 0.82808 0.65236 0.0
O331 O 0.25329 0.88791 0.74967 0.0
O332 O 0.27498 0.88397 0.66645 0.0
O333 O 0.25628 0.83428 0.66071 0.0
O334 O 0.22638 0.83612 0.70164 0.0
C335 C 0.23594 0.83343 0.88669 0.0
O336 O 0.29212 0.85204 0.78481 0.0
O337 O 0.29295 0.88246 0.83263 0.0
In338 In 0.17505 0.43401 0.6455 0.0
O339 O 0.19058 0.417 0.71991 0.0
O340 O 0.20729 0.45447 0.72292 0.0
C341 C 0.1533 0.39132 0.57982 0.0
C342 C 0.14803 0.44319 0.73954 0.0
C343 C 0.19056 0.45516 0.50923 0.0
O344 O 0.17549 0.40341 0.58671 0.0
O345 O 0.14192 0.40031 0.60916 0.0
O346 O 0.16895 0.44424 0.52671 0.0
O347 O 0.20428 0.45838 0.56438 0.0
C348 C 0.20666 0.43606 0.74802 0.0
O349 O 0.16491 0.45941 0.70217 0.0
O350 O 0.14431 0.42267 0.72635 0.0
In351 In 0.40229 0.88961 0.16849 0.0
O352 O 0.36886 0.86553 0.09936 0.0
O353 O 0.38604 0.90265 0.08086 0.0
C354 C 0.39305 0.8642 0.29792 0.0
C355 C 0.43457 0.89014 0.07183 0.0
C356 C 0.41827 0.93062 0.2444 0.0
O357 O 0.38085 0.87324 0.27681 0.0
O358 O 0.40767 0.86537 0.24864 0.0
O359 O 0.43081 0.92113 0.23375 0.0
O360 O 0.39796 0.9198 0.21457 0.0
C361 C 0.36961 0.88247 0.06197 0.0
O362 O 0.43717 0.90837 0.10552 0.0
O363 O 0.41597 0.87126 0.08932 0.0
In364 In 0.06487 0.47349 0.02629 0.0
O365 O 0.1012 0.47765 0.00563 0.0
O366 O 0.07104 0.44781 0.95755 0.0
C367 C 0.06927 0.50388 0.13563 0.0
C368 C 0.06477 0.49759 0.90256 0.0
C369 C 0.03133 0.43736 0.10707 0.0
O370 O 0.08437 0.49724 0.12755 0.0
O371 O 0.0528 0.49584 0.08691 0.0
O372 O 0.02685 0.44394 0.04414 0.0
O373 O 0.05293 0.44783 0.12552 0.0
C374 C 0.09326 0.45967 0.96285 0.0
O375 O 0.04745 0.47734 0.91804 0.0
O376 O 0.08142 0.50557 0.95043 0.0
In377 In 0.50775 0.57711 0.05226 0.0
O378 O 0.50783 0.61184 0.03291 0.0
O379 O 0.53574 0.60774 0.9858 0.0
C380 C 0.47709 0.55037 0.16046 0.0
C381 C 0.4842 0.55373 0.92734 0.0
C382 C 0.54257 0.57848 0.13601 0.0
O383 O 0.48312 0.57199 0.15238 0.0
O384 O 0.48548 0.54239 0.11147 0.0
O385 O 0.5365 0.56783 0.07226 0.0
O386 O 0.53228 0.58984 0.15381 0.0
C387 C 0.52641 0.62053 0.99246 0.0
O388 O 0.50361 0.55522 0.94644 0.0
O389 O 0.47674 0.56379 0.97185 0.0
In390 In 0.06431 0.57685 0.5259 0.0
O391 O 0.09857 0.61208 0.50926 0.0
O392 O 0.06633 0.60778 0.46351 0.0
C393 C 0.06928 0.55089 0.63439 0.0
C394 C 0.06593 0.55453 0.40001 0.0
C395 C 0.02969 0.57696 0.60683 0.0
O396 O 0.08423 0.57269 0.62639 0.0
O397 O 0.05291 0.54237 0.5854 0.0
O398 O 0.02577 0.56629 0.54328 0.0
O399 O 0.05117 0.58862 0.62636 0.0
C400 C 0.08836 0.6209 0.47118 0.0
O401 O 0.0476 0.55536 0.41839 0.0
O402 O 0.08313 0.56476 0.44553 0.0
In403 In 0.40603 0.47136 0.55298 0.0
O404 O 0.42788 0.47614 0.44505 0.0
O405 O 0.42029 0.50323 0.47639 0.0
C406 C 0.4027 0.43512 0.63492 0.0
C407 C 0.3635 0.45587 0.49048 0.0
C408 C 0.43151 0.50181 0.66274 0.0
O409 O 0.41432 0.44174 0.57291 0.0
O410 O 0.39176 0.44587 0.65226 0.0
O411 O 0.40986 0.49532 0.65292 0.0
O412 O 0.44013 0.49353 0.61555 0.0
C413 C 0.42975 0.49596 0.42903 0.0
O414 O 0.37333 0.47441 0.53082 0.0
O415 O 0.37443 0.44453 0.48619 0.0
In416 In 0.48779 0.91375 0.63394 0.0
O417 O 0.45559 0.91099 0.5738 0.0
O418 O 0.45645 0.87924 0.59262 0.0
C419 C 0.51373 0.96091 0.65005 0.0
C420 C 0.51602 0.90678 0.53882 0.0
C421 C 0.47739 0.90254 0.78235 0.0
O422 O 0.4929 0.95084 0.62365 0.0
O423 O 0.52175 0.94726 0.6639 0.0
O424 O 0.48158 0.88964 0.73874 0.0
O425 O 0.47796 0.92006 0.75072 0.0
C426 C 0.4455 0.88885 0.56482 0.0
O427 O 0.51626 0.90415 0.61041 0.0
O428 O 0.50172 0.91306 0.51551 0.0
In429 In 0.25543 0.42094 0.16954 0.0
O430 O 0.29253 0.44587 0.21401 0.0
O431 O 0.27083 0.41322 0.2728 0.0
C432 C 0.24658 0.43175 0.03193 0.0
C433 C 0.23042 0.43506 0.25377 0.0
C434 C 0.2526 0.3814 0.11424 0.0
O435 O 0.26682 0.4442 0.06217 0.0
O436 O 0.23129 0.41518 0.07253 0.0
O437 O 0.23818 0.38081 0.16418 0.0
O438 O 0.2688 0.40184 0.09529 0.0
C439 C 0.29023 0.43242 0.26965 0.0
O440 O 0.22281 0.4134 0.23927 0.0
O441 O 0.25026 0.44925 0.22498 0.0
In442 In 0.59186 0.85825 0.29059 0.0
O443 O 0.56116 0.86585 0.29384 0.0
O444 O 0.59164 0.88679 0.36198 0.0
C445 C 0.58209 0.82494 0.18581 0.0
C446 C 0.58533 0.83261 0.41682 0.0
C447 C 0.63202 0.88845 0.21842 0.0
O448 O 0.57072 0.836 0.18821 0.0
O449 O 0.59718 0.83003 0.23816 0.0
O450 O 0.63187 0.88122 0.28556 0.0
O451 O 0.61189 0.88185 0.19012 0.0
C452 C 0.57097 0.88181 0.34412 0.0
O453 O 0.60466 0.85116 0.40218 0.0
O454 O 0.56939 0.82673 0.36696 0.0
In455 In 0.1555 0.755 0.26359 0.0
O456 O 0.15354 0.71931 0.28125 0.0
O457 O 0.12634 0.72474 0.3274 0.0
C458 C 0.18646 0.78054 0.1547 0.0
C459 C 0.17996 0.7776 0.38854 0.0
C460 C 0.12082 0.75493 0.18247 0.0
O461 O 0.1795 0.75872 0.16333 0.0
O462 O 0.17869 0.78926 0.20323 0.0
O463 O 0.12743 0.76542 0.24637 0.0
O464 O 0.13084 0.74351 0.16235 0.0
C465 C 0.13464 0.71109 0.31984 0.0
O466 O 0.16109 0.7773 0.36971 0.0
O467 O 0.18638 0.76666 0.34398 0.0
C468 C 0.23682 0.01321 0.25808 0.0
C469 C 0.21386 -0.0014 0.28606 0.0
H470 H 0.25865 0.04004 0.17754 0.0
C471 C 0.19504 0.00046 0.25493 0.0
H472 H 0.25156 0.01192 0.28077 0.0
C473 C 0.19895 0.01586 0.19416 0.0
C474 C 0.22182 0.03007 0.16503 0.0
H475 H 0.17711 0.98912 0.27476 0.0
H476 H 0.18407 0.01656 0.16967 0.0
C477 C 0.24082 0.02911 0.19879 0.0
C478 C 0.99492 0.19592 0.21298 0.0
C479 C 0.98487 0.20999 0.19536 0.0
H480 H 0.02348 0.19423 0.26744 0.0
C481 C 0.99605 0.2335 0.22075 0.0
H482 H 0.98645 0.17762 0.19488 0.0
C483 C 0.0171 0.24294 0.26189 0.0
C484 C 0.0272 0.22894 0.27959 0.0
H485 H 0.9886 0.2447 0.20846 0.0
H486 H 0.02556 0.26128 0.27948 0.0
C487 C 0.01586 0.20529 0.25537 0.0
C488 C 0.75722 0.77543 0.31628 0.0
C489 C 0.77484 0.79705 0.34623 0.0
H490 H 0.74922 0.74625 0.24213 0.0
C491 C 0.79816 0.80672 0.31988 0.0
H492 H 0.73907 0.76771 0.33529 0.0
C493 C 0.8038 0.79486 0.26473 0.0
C494 C 0.7863 0.77288 0.23649 0.0
H495 H 0.81199 0.82356 0.34135 0.0
H496 H 0.822 0.80246 0.24628 0.0
C497 C 0.76297 0.76327 0.26264 0.0
C498 C 0.75746 0.9858 0.79368 0.0
C499 C 0.77515 0.98274 0.82829 0.0
H500 H 0.74947 0.00542 0.71264 0.0
C501 C 0.79853 0.99606 0.80232 0.0
H502 H 0.73925 0.97554 0.81229 0.0
C503 C 0.8042 0.01248 0.74343 0.0
C504 C 0.78666 0.01621 0.71094 0.0
H505 H 0.8124 0.99372 0.82729 0.0
H506 H 0.82248 0.02302 0.72584 0.0
C507 C 0.76323 0.00265 0.73624 0.0
C508 C 0.00208 0.79204 0.84029 0.0
C509 C 0.02275 0.80453 0.79704 0.0
H510 H 0.96468 0.76816 0.83787 0.0
C511 C 0.0213 0.80442 0.71686 0.0
H512 H 0.00289 0.79173 0.90212 0.0
C513 C -0.00052 0.79153 0.68023 0.0
C514 C 0.979 0.77789 0.72334 0.0
H515 H 0.03714 0.81393 0.68255 0.0
H516 H -0.00122 0.7913 0.61833 0.0
C517 C 0.98037 0.77847 0.80359 0.0
C518 C 0.2482 0.21219 0.69023 0.0
C519 C 0.22965 0.1918 0.65684 0.0
H520 H 0.25775 0.24106 0.76778 0.0
C521 C 0.20647 0.18321 0.68274 0.0
H522 H 0.26625 0.21898 0.67125 0.0
C523 C 0.20177 0.19518 0.7398 0.0
C524 C 0.22008 0.21636 0.77016 0.0
H525 H 0.19195 0.16731 0.65847 0.0
H526 H 0.18359 0.18856 0.75697 0.0
C527 C 0.24339 0.22466 0.74562 0.0
C528 C 0.87997 0.30197 0.5843 0.0
C529 C 0.85948 0.29853 0.62174 0.0
H530 H 0.90782 0.32327 0.50609 0.0
C531 C 0.85027 0.31332 0.60432 0.0
H532 H 0.88732 0.29068 0.59655 0.0
C533 C 0.86152 0.3314 0.55045 0.0
C534 C 0.88246 0.33529 0.51499 0.0
H535 H 0.83431 0.31077 0.63183 0.0
H536 H 0.8544 0.34292 0.53885 0.0
C537 C 0.89158 0.32044 0.53226 0.0
C538 C 0.64411 0.55633 0.5727 0.0
C539 C 0.6348 0.53284 0.54871 0.0
H540 H 0.67161 0.5856 0.63284 0.0
C541 C 0.6463 0.52038 0.56974 0.0
H542 H 0.63554 0.56632 0.55752 0.0
C543 C 0.66678 0.53133 0.61478 0.0
C544 C 0.67616 0.55496 0.6378 0.0
H545 H 0.63925 0.50215 0.55258 0.0
H546 H 0.67553 0.52154 0.63012 0.0
C547 C 0.66468 0.56734 0.61612 0.0
C548 C 0.44194 0.09868 0.67838 0.0
C549 C 0.43136 0.11132 0.65051 0.0
H550 H 0.45819 0.07819 0.65091 0.0
C551 C 0.42752 0.11147 0.57148 0.0
H552 H 0.445 0.09818 0.73905 0.0
C553 C 0.43529 0.10024 0.52086 0.0
C554 C 0.44672 0.08839 0.54855 0.0
H555 H 0.41938 0.12108 0.54843 0.0
H556 H 0.43297 0.10142 0.46001 0.0
C557 C 0.44941 0.08718 0.62789 0.0
C558 C 0.46434 0.30924 0.12047 0.0
C559 C 0.44119 0.29336 0.14422 0.0
H560 H 0.48673 0.3395 0.05204 0.0
C561 C 0.42237 0.29541 0.11403 0.0
H562 H 0.47911 0.30785 0.14241 0.0
C563 C 0.42674 0.31371 0.06344 0.0
C564 C 0.44993 0.32978 0.04043 0.0
H565 H 0.40434 0.28331 0.13134 0.0
H566 H 0.41204 0.31551 0.04321 0.0
C567 C 0.46865 0.32712 0.06816 0.0
C568 C 0.65243 0.10681 0.11487 0.0
C569 C 0.66099 0.12876 0.15125 0.0
H570 H 0.63033 0.08342 0.02682 0.0
C571 C 0.65329 0.14419 0.12572 0.0
H572 H 0.6582 0.09464 0.13292 0.0
C573 C 0.6377 0.13796 0.06398 0.0
C574 C 0.62934 0.1161 0.02711 0.0
H575 H 0.6598 0.16134 0.15209 0.0
H576 H 0.63212 0.15023 0.04535 0.0
C577 C 0.63666 0.10048 0.05368 0.0
C578 C 0.85984 0.53426 0.10262 0.0
C579 C 0.87448 0.55788 0.12529 0.0
H580 H 0.85684 0.50532 0.03538 0.0
C581 C 0.8976 0.57056 0.09672 0.0
H582 H 0.84182 0.52423 0.12306 0.0
C583 C 0.90609 0.55985 0.0472 0.0
C584 C 0.89155 0.53633 0.02401 0.0
H585 H 0.9092 0.58884 0.11277 0.0
H586 H 0.92415 0.57004 0.02706 0.0
C587 C 0.86828 0.5236 0.05167 0.0
C588 C 0.56843 0.67486 0.88089 0.0
C589 C 0.55488 0.68575 0.8683 0.0
H590 H 0.57001 0.64579 0.93021 0.0
C591 C 0.53171 0.67509 0.89703 0.0
H592 H 0.58638 0.68276 0.85972 0.0
C593 C 0.52245 0.65406 0.93909 0.0
C594 C 0.53613 0.64328 0.95185 0.0
H595 H 0.52101 0.68331 0.88886 0.0
H596 H 0.50459 0.64617 0.96102 0.0
C597 C 0.5591 0.65377 0.92167 0.0
C598 C 0.33976 0.8572 0.96346 0.0
C599 C 0.35325 0.87926 -0.00094 0.0
H600 H 0.3136 0.83715 0.87865 0.0
C601 C 0.35154 0.89866 0.97265 0.0
H602 H 0.34098 0.84204 0.98212 0.0
C603 C 0.33588 0.89586 0.91398 0.0
C604 C 0.32198 0.87372 0.87949 0.0
H605 H 0.36188 0.91592 -0.00132 0.0
H606 H 0.33423 0.91091 0.89684 0.0
C607 C 0.32438 0.8545 0.90359 0.0
C608 C 0.11256 0.42888 0.82269 0.0
C609 C 0.13438 0.44757 0.7978 0.0
H610 H 0.08248 0.41809 0.89516 0.0
C611 C 0.14342 0.4699 0.83183 0.0
H612 H 0.10527 0.41143 0.79779 0.0
C613 C 0.13065 0.47353 0.88924 0.0
C614 C 0.10848 0.45498 0.91232 0.0
H615 H 0.16036 0.48451 0.81433 0.0
H616 H 0.13771 0.49105 0.91341 0.0
C617 C 0.09962 0.43262 0.87882 0.0
C618 C 0.12492 0.6549 0.41537 0.0
C619 C 0.10089 0.64431 0.43484 0.0
H620 H 0.1545 0.68435 0.36115 0.0
C621 C 0.08817 0.65559 0.41492 0.0
H622 H 0.135 0.64636 0.42951 0.0
C623 C 0.09924 0.67716 0.37683 0.0
C624 C 0.12316 0.6877 0.35649 0.0
H625 H 0.0696 0.64777 0.42906 0.0
H626 H 0.08899 0.68554 0.36292 0.0
C627 C 0.13595 0.67639 0.37563 0.0
C628 C 0.3408 0.46782 0.40538 0.0
C629 C 0.34305 0.44983 0.44137 0.0
H630 H 0.32262 0.47637 0.32017 0.0
C631 C 0.32757 0.42619 0.42177 0.0
H632 H 0.35286 0.48622 0.41878 0.0
C633 C 0.31015 0.42058 0.36657 0.0
C634 C 0.30848 0.43859 0.32833 0.0
H635 H 0.32919 0.41208 0.44832 0.0
H636 H 0.29841 0.40219 0.35223 0.0
C637 C 0.32381 0.46225 0.34836 0.0
C638 C 0.52345 0.89471 0.41086 0.0
C639 C 0.53093 0.90234 0.48614 0.0
H640 H 0.53024 0.88186 0.30631 0.0
C641 C 0.55245 0.90499 0.51158 0.0
H642 H 0.50685 0.89252 0.39008 0.0
C643 C 0.56607 0.89963 0.46318 0.0
C644 C 0.55812 0.89088 0.3891 0.0
H645 H 0.55864 0.911 0.56917 0.0
H646 H 0.58236 0.90134 0.48517 0.0
C647 C 0.53679 0.88867 0.36298 0.0
C648 C 0.19588 0.0897 0.67865 0.0
C649 C 0.21515 0.09427 0.6317 0.0
H650 H 0.17926 0.07686 0.78722 0.0
C651 C 0.22875 0.08372 0.6491 0.0
H652 H 0.18491 0.0974 0.66609 0.0
C653 C 0.22501 0.07133 0.71753 0.0
C654 C 0.20803 0.06992 0.7698 0.0
H655 H 0.24352 0.08673 0.6132 0.0
H656 H 0.23728 0.06546 0.73337 0.0
C657 C 0.19249 0.0778 0.74777 0.0
C658 C 0.87526 0.11681 0.80692 0.0
C659 C 0.85125 0.11033 0.80389 0.0
H660 H 0.90732 0.13335 0.8722 0.0
C661 C 0.84057 0.1138 0.86817 0.0
H662 H 0.88386 0.11416 0.75807 0.0
C663 C 0.85384 0.12435 0.93354 0.0
C664 C 0.87811 0.13188 0.93551 0.0
H665 H 0.82204 0.10869 0.86762 0.0
H666 H 0.84522 0.12739 0.98153 0.0
C667 C 0.88864 0.12764 0.87222 0.0
C668 C 0.86961 0.71779 0.8713 0.0
C669 C 0.87691 0.7353 0.81488 0.0
H670 H 0.85245 0.70507 0.9789 0.0
C671 C 0.87274 0.75425 0.82557 0.0
H672 H 0.87271 0.70307 0.86484 0.0
C673 C 0.86109 0.75543 0.89106 0.0
C674 C 0.85359 0.73776 0.94711 0.0
H675 H 0.87828 0.76807 0.78303 0.0
H676 H 0.85772 0.76997 0.89732 0.0
C677 C 0.85813 0.71904 0.93685 0.0
C678 C 0.16976 0.2677 0.6029 0.0
C679 C 0.15855 0.25342 0.66644 0.0
H680 H 0.16579 0.27791 0.49052 0.0
C681 C 0.13407 0.23746 0.66388 0.0
H682 H 0.18861 0.28002 0.60325 0.0
C683 C 0.12088 0.23638 0.59953 0.0
C684 C 0.13207 0.25096 0.53643 0.0
H685 H 0.12502 0.22621 0.71231 0.0
H686 H 0.10195 0.22443 0.59962 0.0
C687 C 0.15667 0.26635 0.53827 0.0
C688 C 0.79509 0.8961 0.70272 0.0
C689 C 0.7814 0.87162 0.69235 0.0
H690 H 0.80236 0.92565 0.77359 0.0
C691 C 0.76586 0.85756 0.75035 0.0
H692 H 0.80685 0.90723 0.65795 0.0
C693 C 0.76251 0.86813 0.81498 0.0
C694 C 0.77523 0.89278 0.82323 0.0
H695 H 0.75473 0.83866 0.74251 0.0
H696 H 0.7493 0.85716 0.85674 0.0
C697 C 0.79235 0.90658 0.76848 0.0
C698 C 0.14539 0.87515 0.59001 0.0
C699 C 0.14974 0.89829 0.57888 0.0
H700 H 0.13076 0.84475 0.66236 0.0
C701 C 0.14185 0.90844 0.6338 0.0
H702 H 0.15138 0.86688 0.54888 0.0
C703 C 0.12988 0.89563 0.69897 0.0
C704 C 0.12591 0.87262 0.71044 0.0
H705 H 0.14508 0.92629 0.62672 0.0
H706 H 0.12397 0.90381 0.74068 0.0
C707 C 0.13371 0.8625 0.65526 0.0
C708 C 0.79313 0.90457 0.19791 0.0
C709 C 0.77979 0.91578 0.18863 0.0
H710 H 0.80059 0.88241 0.26873 0.0
C711 C 0.76496 0.91501 0.24793 0.0
H712 H 0.80421 0.90454 0.15189 0.0
C713 C 0.7621 0.90158 0.31346 0.0
C714 C 0.7745 0.88928 0.32097 0.0
H715 H 0.75404 0.92305 0.2407 0.0
H716 H 0.74947 0.89999 0.35655 0.0
C717 C 0.79085 0.89178 0.26434 0.0
C718 C 0.12035 0.88646 0.12759 0.0
C719 C 0.12932 0.87676 0.07487 0.0
H720 H 0.12594 0.90524 0.23287 0.0
C721 C 0.15168 0.87916 0.0881 0.0
H722 H 0.10316 0.88478 0.11906 0.0
C723 C 0.16464 0.89069 0.15334 0.0
C724 C 0.15554 0.90009 0.20664 0.0
H725 H 0.15906 0.8718 0.04857 0.0
H726 H 0.18172 0.89211 0.1622 0.0
C727 C 0.13336 0.89805 0.19287 0.0
C728 C 0.1426 0.23188 0.09195 0.0
C729 C 0.14678 0.24696 0.02953 0.0
H730 H 0.12806 0.22188 0.20455 0.0
C731 C 0.13768 0.26241 0.03034 0.0
H732 H 0.14942 0.2198 0.09256 0.0
C733 C 0.12586 0.26384 0.09437 0.0
C734 C 0.12265 0.24962 0.15822 0.0
H735 H 0.14058 0.2742 0.98284 0.0
H736 H 0.11978 0.27653 0.0946 0.0
C737 C 0.13044 0.2331 0.15584 0.0
C738 C 0.83776 0.71484 0.36954 0.0
C739 C 0.84671 0.73373 0.31775 0.0
H740 H 0.8434 0.70109 0.47332 0.0
C741 C 0.8686 0.75404 0.33302 0.0
H742 H 0.8209 0.69904 0.3594 0.0
C743 C 0.88148 0.75527 0.39827 0.0
C744 C 0.87267 0.73625 0.44954 0.0
H745 H 0.87591 0.76895 0.29417 0.0
H746 H 0.89846 0.77096 0.40795 0.0
C747 C 0.8506 0.7161 0.43491 0.0
C748 C 0.1977 0.1063 0.17825 0.0
C749 C 0.21707 0.11842 0.12889 0.0
H750 H 0.18358 0.10556 0.2892 0.0
C751 C 0.23405 0.14195 0.14518 0.0
H752 H 0.18418 0.08822 0.16664 0.0
C753 C 0.23336 0.15208 0.21475 0.0
C754 C 0.21595 0.13855 0.269 0.0
H755 H 0.24899 0.15178 0.10745 0.0
H756 H 0.24797 0.16936 0.22942 0.0
C757 C 0.19727 0.11624 0.24832 0.0
C758 C 0.86282 0.10537 0.36887 0.0
C759 C 0.85732 0.11648 0.42745 0.0
H760 H 0.87959 0.10941 0.26029 0.0
C761 C 0.86502 0.14073 0.4217 0.0
H762 H 0.85704 0.0867 0.37198 0.0
C763 C 0.87749 0.15357 0.35772 0.0
C764 C 0.88283 0.14248 0.29882 0.0
H765 H 0.86094 0.14976 0.46591 0.0
H766 H 0.8829 0.17215 0.3543 0.0
C767 C 0.87569 0.11836 0.30521 0.0
C768 C 0.93687 0.46147 0.21954 0.0
C769 C 0.9172 0.43898 0.23274 0.0
H770 H 0.95358 0.49137 0.14511 0.0
C771 C 0.89853 0.4296 0.17998 0.0
H772 H 0.95162 0.4691 0.25902 0.0
C773 C 0.89964 0.44248 0.11478 0.0
C774 C 0.91955 0.46477 0.101 0.0
H775 H 0.88323 0.41227 0.18866 0.0
H776 H 0.88505 0.43485 0.07468 0.0
C777 C 0.9381 0.47418 0.15409 0.0
C778 C 0.50688 0.45003 0.25643 0.0
C779 C 0.53011 0.45457 0.268 0.0
H780 H 0.47642 0.43493 0.18357 0.0
C781 C 0.54021 0.44637 0.21409 0.0
H782 H 0.49862 0.45621 0.29694 0.0
C783 C 0.52748 0.43422 0.14916 0.0
C784 C 0.50443 0.43011 0.13682 0.0
H785 H 0.55808 0.44968 0.22136 0.0
H786 H 0.53582 0.42829 0.10814 0.0
C787 C 0.49417 0.43794 0.1914 0.0
C788 C 0.51464 0.06211 0.07103 0.0
C789 C 0.52683 0.08439 0.03621 0.0
H790 H 0.49572 0.04234 0.16912 0.0
C791 C 0.52626 0.10364 0.07009 0.0
H792 H 0.51452 0.04689 0.04593 0.0
C793 C 0.51515 0.10092 0.14095 0.0
C794 C 0.50484 0.07903 0.17841 0.0
H795 H 0.53548 0.121 0.04411 0.0
H796 H 0.51604 0.11619 0.16857 0.0
C797 C 0.50389 0.0595 0.14161 0.0
C798 C 0.80484 0.60816 0.92716 0.0
C799 C 0.78248 0.58822 0.91414 0.0
H800 H 0.83473 0.62542 0.00172 0.0
C801 C 0.77335 0.56974 0.9675 0.0
H802 H 0.8123 0.62278 0.88721 0.0
C803 C 0.78627 0.57128 0.03307 0.0
C804 C 0.80843 0.59141 0.04667 0.0
H805 H 0.75614 0.55424 0.9591 0.0
H806 H 0.77876 0.55679 0.07352 0.0
C807 C 0.81765 0.60978 0.99294 0.0
C808 C 0.46115 0.19888 0.0264 0.0
C809 C 0.44318 0.17556 0.01236 0.0
H810 H 0.4738 0.22897 0.09984 0.0
C811 C 0.42662 0.16308 0.0701 0.0
H812 H 0.47424 0.20884 0.98306 0.0
C813 C 0.42614 0.17471 0.13637 0.0
C814 C 0.44241 0.19883 0.14617 0.0
H815 H 0.41264 0.14502 0.06105 0.0
H816 H 0.412 0.16526 0.17717 0.0
C817 C 0.46083 0.21043 0.09312 0.0
C818 C 0.78044 0.22657 0.01727 0.0
C819 C 0.78663 0.21407 0.96582 0.0
H820 H 0.7637 0.22563 0.12388 0.0
C821 C 0.7815 0.19107 0.9845 0.0
H822 H 0.78434 0.24438 0.00436 0.0
C823 C 0.77008 0.18056 0.05245 0.0
C824 C 0.76335 0.19271 0.10325 0.0
H825 H 0.78627 0.18104 0.94645 0.0
H826 H 0.76618 0.16269 0.06446 0.0
C827 C 0.76875 0.21589 0.08555 0.0
C828 C 0.46656 0.22976 0.52917 0.0
C829 C 0.45231 0.23977 0.51419 0.0
H830 H 0.47318 0.20769 0.60335 0.0
C831 C 0.43687 0.23916 0.5712 0.0
H832 H 0.47868 0.23011 0.48621 0.0
C833 C 0.43332 0.22586 0.63743 0.0
C834 C 0.44554 0.2135 0.64807 0.0
H835 H 0.42567 0.24674 0.5612 0.0
H836 H 0.41975 0.22384 0.67738 0.0
C837 C 0.46333 0.21684 0.59607 0.0
C838 C 0.76045 0.2206 0.57222 0.0
C839 C 0.76743 0.20694 0.61517 0.0
H840 H 0.74058 0.22155 0.47595 0.0
C841 C 0.75644 0.18254 0.60209 0.0
H842 H 0.76869 0.23948 0.58148 0.0
C843 C 0.73958 0.17216 0.54421 0.0
C844 C 0.73411 0.18617 0.49687 0.0
H845 H 0.76142 0.17165 0.63495 0.0
H846 H 0.73241 0.15352 0.53234 0.0
C847 C 0.74422 0.21036 0.5125 0.0
C848 C 0.78037 0.57041 0.5314 0.0
C849 C 0.7775 0.59006 0.5449 0.0
H850 H 0.79464 0.55435 0.45793 0.0
C851 C 0.78623 0.60847 0.49136 0.0
H852 H 0.77374 0.55591 0.57175 0.0
C853 C 0.79788 0.60742 0.42599 0.0
C854 C 0.80122 0.58802 0.41319 0.0
H855 H 0.78415 0.62375 0.50007 0.0
H856 H 0.80473 0.62209 0.38627 0.0
C857 C 0.79223 0.56944 0.46622 0.0
C858 C 0.56249 0.13108 0.63944 0.0
C859 C 0.57582 0.12021 0.65676 0.0
H860 H 0.53634 0.13125 0.56602 0.0
C861 C 0.57694 0.10478 0.60308 0.0
H862 H 0.5613 0.14298 0.68001 0.0
C863 C 0.56202 0.09741 0.53958 0.0
C864 C 0.54655 0.10611 0.52745 0.0
H865 H 0.58699 0.09604 0.61495 0.0
H866 H 0.56122 0.08355 0.50349 0.0
C867 C 0.54811 0.12426 0.57447 0.0
C868 C 0.93749 0.4428 0.65873 0.0
C869 C 0.91986 0.43499 0.60261 0.0
H870 H 0.95006 0.46029 0.76592 0.0
C871 C 0.90046 0.43847 0.61368 0.0
H872 H 0.95254 0.44023 0.65198 0.0
C873 C 0.89901 0.45002 0.67902 0.0
C874 C 0.91683 0.45811 0.73465 0.0
H875 H 0.88654 0.43253 0.57136 0.0
H876 H 0.88415 0.45292 0.68538 0.0
C877 C 0.93595 0.45416 0.72418 0.0
C878 C 0.52517 0.47048 0.68792 0.0
C879 C 0.53487 0.46173 0.63448 0.0
H880 H 0.5065 0.46457 0.79329 0.0
C881 C 0.53351 0.43986 0.64808 0.0
H882 H 0.52609 0.48733 0.67907 0.0
C883 C 0.52223 0.42675 0.71335 0.0
C884 C 0.51235 0.43543 0.76646 0.0
H885 H 0.54091 0.43272 0.60779 0.0
H886 H 0.52101 0.40976 0.72178 0.0
C887 C 0.51412 0.45751 0.75352 0.0
C888 C 0.56406 0.79503 0.49158 0.0
C889 C 0.58176 0.81892 0.48713 0.0
H890 H 0.5489 0.76317 0.55819 0.0
C891 C 0.5965 0.82971 0.55015 0.0
H892 H 0.55242 0.78638 0.44356 0.0
C893 C 0.59413 0.81669 0.61581 0.0
C894 C 0.57726 0.79249 0.61924 0.0
H895 H 0.61008 0.84818 0.54844 0.0
H896 H 0.60622 0.82545 0.66275 0.0
C897 C 0.56198 0.7818 0.55705 0.0
C898 C 0.22929 0.80434 0.53418 0.0
C899 C 0.22031 0.81401 0.58697 0.0
H900 H 0.22342 0.78508 0.4298 0.0
C901 C 0.19776 0.8112 0.57488 0.0
H902 H 0.24663 0.8063 0.54205 0.0
C903 C 0.18461 0.79932 0.51043 0.0
C904 C 0.19366 0.78985 0.45722 0.0
H905 H 0.19041 0.81856 0.61452 0.0
H906 H 0.1674 0.79764 0.50218 0.0
C907 C 0.21602 0.79225 0.46997 0.0
C908 C 0.22192 0.46993 0.40964 0.0
C909 C 0.19837 0.45459 0.4307 0.0
H910 H 0.2504 0.47592 0.33533 0.0
C911 C 0.18438 0.43459 0.3852 0.0
H912 H 0.23312 0.48524 0.4444 0.0
C913 C 0.19448 0.42872 0.32475 0.0
C914 C 0.21851 0.44313 0.30745 0.0
H915 H 0.16627 0.42218 0.40094 0.0
H916 H 0.18381 0.4123 0.29419 0.0
C917 C 0.23182 0.46443 0.3477 0.0
C918 C 0.41056 0.88557 0.49633 0.0
C919 C 0.42531 0.87626 0.51249 0.0
H920 H 0.38706 0.88761 0.41593 0.0
C921 C 0.42358 0.85762 0.46756 0.0
H922 H 0.41144 0.89981 0.53063 0.0
C923 C 0.40997 0.85093 0.40085 0.0
C924 C 0.39754 0.86241 0.3795 0.0
H925 H 0.43473 0.85007 0.47905 0.0
H926 H 0.41117 0.83862 0.36214 0.0
C927 C 0.39641 0.87837 0.43093 0.0
C928 C 0.04891 0.53355 0.27705 0.0
C929 C 0.06727 0.54242 0.33084 0.0
H930 H 0.03538 0.5147 0.1724 0.0
C931 C 0.08692 0.5395 0.3183 0.0
H932 H 0.03362 0.53566 0.28512 0.0
C933 C 0.08792 0.52741 0.25386 0.0
C934 C 0.06938 0.51824 0.20065 0.0
H935 H 0.10137 0.54622 0.3589 0.0
H936 H 0.10302 0.52497 0.24626 0.0
C937 C 0.05 0.52166 0.21238 0.0
C938 C 0.44402 0.5321 0.34824 0.0
C939 C 0.44147 0.50959 0.35946 0.0
H940 H 0.45715 0.56263 0.27616 0.0
C941 C 0.44974 0.50024 0.30317 0.0
H942 H 0.43772 0.53974 0.39059 0.0
C943 C 0.4606 0.51327 0.2373 0.0
C944 C 0.46353 0.53594 0.22667 0.0
H945 H 0.44788 0.48292 0.31005 0.0
H946 H 0.46712 0.50571 0.19537 0.0
C947 C 0.45502 0.54518 0.28258 0.0
C948 C 0.05012 0.51367 0.71076 0.0
C949 C 0.06912 0.53679 0.70043 0.0
H950 H 0.03368 0.4832 0.78328 0.0
C951 C 0.08679 0.54673 0.75646 0.0
H952 H 0.03614 0.50557 0.66866 0.0
C953 C 0.08533 0.5339 0.82208 0.0
C954 C 0.0661 0.51095 0.83304 0.0
H955 H 0.10155 0.56453 0.75019 0.0
H956 H 0.09917 0.54207 0.8646 0.0
C957 C 0.04859 0.50089 0.77657 0.0
C958 C 0.44848 0.53806 0.84398 0.0
C959 C 0.47105 0.54117 0.85827 0.0
H960 H 0.4182 0.52314 0.77043 0.0
C961 C 0.48085 0.53215 0.80619 0.0
H962 H 0.44053 0.54491 0.8832 0.0
C963 C 0.46818 0.51993 0.74145 0.0
C964 C 0.44542 0.51638 0.72791 0.0
H965 H 0.49824 0.53439 0.81564 0.0
H966 H 0.47607 0.51287 0.70278 0.0
C967 C 0.43573 0.52568 0.77943 0.0
C968 C 0.45464 0.87498 0.88882 0.0
C969 C 0.47116 0.89772 0.86349 0.0
H970 H 0.4298 0.8546 0.97658 0.0
C971 C 0.47863 0.91698 0.9133 0.0
H972 H 0.44859 0.85993 0.85094 0.0
C973 C 0.46822 0.91399 0.98485 0.0
C974 C 0.44982 0.89172 0.00729 0.0
H975 H 0.49152 0.93467 0.89491 0.0
H976 H 0.47336 0.92947 0.01997 0.0
C977 C 0.44389 0.872 0.96044 0.0
C978 C 0.21778 0.41461 0.84044 0.0
C979 C 0.22122 0.43622 0.81249 0.0
H980 H 0.22339 0.39656 0.93253 0.0
C981 C 0.23629 0.45719 0.85232 0.0
H982 H 0.20649 0.39819 0.81069 0.0
C983 C 0.24629 0.45623 0.92221 0.0
C984 C 0.24099 0.43429 0.95273 0.0
H985 H 0.23928 0.4741 0.8317 0.0
H986 H 0.25675 0.47233 0.95452 0.0
C987 C 0.22741 0.41365 0.91018 0.0
C988 C 0.59827 0.7906 0.05 0.0
C989 C 0.58188 0.78527 0.99094 0.0
H990 H 0.61074 0.80683 0.15881 0.0
C991 C 0.56419 0.7914 -0.00106 0.0
H992 H 0.61195 0.7859 0.04549 0.0
C993 C 0.56359 0.80364 0.06371 0.0
C994 C 0.58045 0.80956 0.12177 0.0
H995 H 0.5513 0.78743 0.95407 0.0
H996 H 0.55034 0.80895 0.06746 0.0
C997 C 0.59745 0.80246 0.11503 0.0
C998 C 0.21952 0.79701 0.96699 0.0
C999 C 0.22366 0.82012 0.95601 0.0
H1000 H 0.20463 0.76636 0.03891 0.0
C1001 C 0.21644 0.83041 0.0124 0.0
H1002 H 0.22501 0.78866 0.92453 0.0
C1003 C 0.20502 0.81772 0.07814 0.0
C1004 C 0.20051 0.79446 0.08855 0.0
H1005 H 0.21954 0.84822 0.00568 0.0
H1006 H 0.19934 0.82602 0.12018 0.0
C1007 C 0.20799 0.78427 0.03259 0.0
C1008 C 0.33956 0.14188 0.87343 0.0
C1009 C 0.34809 0.12712 0.84788 0.0
H1010 H 0.31053 0.14392 0.92208 0.0
C1011 C 0.33313 0.10252 0.85041 0.0
H1012 H 0.35074 0.16092 0.87231 0.0
C1013 C 0.31022 0.09283 0.87921 0.0
C1014 C 0.3018 0.10754 0.90596 0.0
H1015 H 0.33922 0.09071 0.83125 0.0
H1016 H 0.29916 0.07378 0.88099 0.0
C1017 C 0.3166 0.13216 0.90217 0.0
C1018 C 0.89338 0.23612 -0.00118 0.0
C1019 C 0.9026 0.2224 0.96976 0.0
H1020 H 0.87312 0.25295 0.97587 0.0
C1021 C 0.90013 0.21686 0.89135 0.0
H1022 H 0.89497 0.24054 0.05904 0.0
C1023 C 0.8871 0.22341 0.84406 0.0
C1024 C 0.87686 0.23612 0.87403 0.0
H1025 H 0.90688 0.20608 0.86756 0.0
H1026 H 0.88428 0.21776 0.78488 0.0
C1027 C 0.88089 0.2432 0.95112 0.0
C1028 C 0.73886 0.638 0.95575 0.0
C1029 C 0.74282 0.64353 0.87747 0.0
H1030 H 0.74565 0.65128 0.07051 0.0
C1031 C 0.75323 0.66723 0.85465 0.0
H1032 H 0.73087 0.61985 0.97506 0.0
C1033 C 0.76124 0.68519 0.90939 0.0
C1034 C 0.75943 0.67973 0.98779 0.0
H1035 H 0.7564 0.67197 0.79472 0.0
H1036 H 0.77053 0.70338 0.89012 0.0
C1037 C 0.74733 0.65597 0.01051 0.0
C1038 C 0.15445 0.36493 0.47986 0.0
C1039 C 0.14174 0.36914 0.53631 0.0
H1040 H 0.15398 0.3411 0.39525 0.0
C1041 C 0.11794 0.35229 0.54929 0.0
H1042 H 0.17273 0.37785 0.46804 0.0
C1043 C 0.10726 0.33111 0.50818 0.0
C1044 C 0.12009 0.3268 0.4523 0.0
H1045 H 0.10778 0.35526 0.5923 0.0
H1046 H 0.08908 0.31803 0.5206 0.0
C1047 C 0.14364 0.34405 0.43767 0.0
C1048 C 0.67109 0.78966 0.55225 0.0
C1049 C 0.69268 0.79722 0.5898 0.0
H1050 H 0.63344 0.77301 0.56319 0.0
C1051 C 0.69266 0.79299 0.66865 0.0
H1052 H 0.67065 0.7927 0.49155 0.0
C1053 C 0.67152 0.78222 0.70983 0.0
C1054 C 0.64996 0.77489 0.67254 0.0
H1055 H 0.7091 0.79878 0.69913 0.0
H1056 H 0.67206 0.77988 0.77097 0.0
C1057 C 0.64986 0.77829 0.59315 0.0
C1058 C 0.24288 0.93446 0.60834 0.0
C1059 C 0.24396 0.93123 0.52921 0.0
H1060 H 0.24852 0.9253 0.72099 0.0
C1061 C 0.25559 0.91941 0.50308 0.0
H1062 H 0.23396 0.94345 0.63026 0.0
C1063 C 0.26434 0.90942 0.55518 0.0
C1064 C 0.26114 0.91064 0.63426 0.0
H1065 H 0.2567 0.91669 0.44248 0.0
H1066 H 0.27193 0.89917 0.53325 0.0
C1067 C 0.25116 0.92403 0.66042 0.0
C1068 C 0.67321 0.90145 0.05159 0.0
C1069 C 0.69533 0.91409 0.08722 0.0
H1070 H 0.63562 0.88416 0.0653 0.0
C1071 C 0.6965 0.92029 0.16472 0.0
H1072 H 0.67189 0.89654 0.99188 0.0
C1073 C 0.67583 0.91284 0.20702 0.0
C1074 C 0.65369 0.8997 0.17193 0.0
H1075 H 0.71337 0.92997 0.19362 0.0
H1076 H 0.67715 0.91681 0.26757 0.0
C1077 C 0.65253 0.8946 0.09341 0.0
C1078 C 0.09336 0.77012 0.15433 0.0
C1079 C 0.10625 0.75957 0.12871 0.0
H1080 H 0.07579 0.78909 0.12348 0.0
C1081 C 0.10828 0.757 0.0497 0.0
H1082 H 0.09146 0.77222 0.2149 0.0
C1083 C 0.09974 0.76707 0.99731 0.0
C1084 C 0.08859 0.77937 0.02317 0.0
H1085 H 0.11815 0.74893 0.02833 0.0
H1086 H 0.10316 0.76649 0.93697 0.0
C1087 C 0.08435 0.77971 0.10187 0.0
C1088 C 0.25685 0.3619 -0.00244 0.0
C1089 C 0.24912 0.36009 0.0736 0.0
H1090 H 0.2555 0.34339 0.89462 0.0
C1091 C 0.23631 0.33768 0.10728 0.0
H1092 H 0.26664 0.37899 0.97004 0.0
C1093 C 0.23058 0.31738 0.06475 0.0
C1094 C 0.23697 0.31913 0.98719 0.0
H1095 H 0.23016 0.33583 0.16575 0.0
H1096 H 0.21985 0.30026 0.09124 0.0
C1097 C 0.25052 0.34158 0.95436 0.0
C1098 C 0.90964 0.66888 0.36001 0.0
C1099 C 0.89605 0.64511 0.38181 0.0
H1100 H 0.92802 0.70492 0.39655 0.0
C1101 C 0.8934 0.63938 0.46008 0.0
H1102 H 0.91202 0.67378 0.30014 0.0
C1103 C 0.90215 0.65722 0.51545 0.0
C1104 C 0.91414 0.68106 0.49345 0.0
H1105 H 0.88296 0.62118 0.47863 0.0
H1106 H 0.89828 0.65237 0.57511 0.0
C1107 C 0.91885 0.68669 0.41539 0.0
C1108 C 0.32456 0.20896 0.41728 0.0
C1109 C 0.31106 0.18425 0.42371 0.0
H1110 H 0.35771 0.23885 0.3861 0.0
C1111 C 0.32122 0.17053 0.40275 0.0
H1112 H 0.31719 0.22 0.43288 0.0
C1113 C 0.34445 0.18135 0.37548 0.0
C1114 C 0.35791 0.20607 0.36898 0.0
H1115 H 0.3112 0.15144 0.40689 0.0
H1116 H 0.35186 0.17037 0.35967 0.0
C1117 C 0.34776 0.21976 0.39034 0.0
C1118 C 0.75043 0.0859 0.44845 0.0
C1119 C 0.76767 0.09985 0.50285 0.0
H1120 H 0.72739 0.08502 0.35899 0.0
C1121 C 0.77474 0.12391 0.50916 0.0
H1122 H 0.7448 0.06733 0.44223 0.0
C1123 C 0.76553 0.13407 0.4601 0.0
C1124 C 0.74857 0.12028 0.40507 0.0
H1125 H 0.78814 0.13516 0.55002 0.0
H1126 H 0.77165 0.15278 0.46549 0.0
C1127 C 0.74062 0.09599 0.40067 0.0
C1128 C 0.97072 0.40004 0.19292 0.0
C1129 C 0.97592 0.4037 0.27151 0.0
H1130 H 0.98434 0.40796 0.07859 0.0
C1131 C -0.00037 0.41511 0.29497 0.0
H1132 H 0.9526 0.39135 0.17302 0.0
C1133 C 0.0178 0.4242 0.24075 0.0
C1134 C 0.01256 0.42248 0.16216 0.0
H1135 H 0.00414 0.41814 0.35508 0.0
H1136 H 0.0359 0.43411 0.26064 0.0
C1137 C 0.98889 0.40958 0.13871 0.0
C1138 C 0.56823 0.5617 0.17104 0.0
C1139 C 0.55602 0.57334 0.19294 0.0
H1140 H 0.5836 0.54111 0.20727 0.0
C1141 C 0.55299 0.57604 0.27119 0.0
H1142 H 0.57082 0.55941 0.11115 0.0
C1143 C 0.55983 0.56513 0.32618 0.0
C1144 C 0.57025 0.55181 0.3038 0.0
H1145 H 0.54359 0.58489 0.2898 0.0
H1146 H 0.55572 0.56599 0.38569 0.0
C1147 C 0.57551 0.55122 0.22615 0.0
C1148 C 0.44741 0.96165 0.33235 0.0
C1149 C 0.42677 0.95273 0.28805 0.0
H1150 H 0.47272 0.99019 0.4012 0.0
C1151 C 0.41458 0.96534 0.28472 0.0
H1152 H 0.45697 0.95211 0.33677 0.0
C1153 C 0.42362 0.98717 0.32143 0.0
C1154 C 0.44484 0.99661 0.36292 0.0
H1155 H 0.39851 0.95876 0.25148 0.0
H1156 H 0.41445 0.99704 0.315 0.0
C1157 C 0.45629 0.98333 0.36986 0.0
C1158 C 0.55943 0.01789 0.74237 0.0
C1159 C 0.54713 0.03034 0.74765 0.0
H1160 H 0.55856 0.98616 0.70623 0.0
C1161 C 0.52478 0.02087 0.71311 0.0
H1162 H 0.57676 0.02485 0.7679 0.0
C1163 C 0.51446 -0.00116 0.67702 0.0
C1164 C 0.52624 0.98582 0.67524 0.0
H1165 H 0.51499 0.03022 0.71552 0.0
H1166 H 0.49685 0.9916 0.65346 0.0
C1167 C 0.54905 0.99579 0.70672 0.0
C1168 C 0.98692 0.5603 0.6374 0.0
C1169 C 0.01059 0.57225 0.6612 0.0
H1170 H 0.95068 0.54051 0.67155 0.0
C1171 C 0.01574 0.57626 0.73968 0.0
H1172 H 0.98248 0.55702 0.57727 0.0
C1173 C -0.0024 0.56643 0.79366 0.0
C1174 C 0.97402 0.5529 0.76994 0.0
H1175 H 0.03386 0.58542 0.75974 0.0
H1176 H 0.00211 0.56831 0.85384 0.0
C1177 C 0.96874 0.5509 0.69142 0.0
C1178 C 0.41569 0.40605 0.66753 0.0
C1179 C 0.4052 0.41931 0.68988 0.0
H1180 H 0.43205 0.38635 0.70373 0.0
C1181 C 0.40022 0.42006 0.76778 0.0
H1182 H 0.41966 0.4051 0.60795 0.0
C1183 C 0.40767 0.40968 0.8229 0.0
C1184 C 0.41978 0.39794 0.80094 0.0
H1185 H 0.39213 0.43016 0.7868 0.0
H1186 H 0.40518 0.41204 0.88282 0.0
C1187 C 0.42269 0.39524 0.72253 0.0
loop_
_geom_bond_atom_site_label_1
_geom_bond_atom_site_label_2
_geom_bond_distance
_geom_bond_site_symmetry_2
_ccdc_geom_bond_type
In0 O1 2.294 . S
In0 O2 2.326 . S
In0 O6 2.266 . S
In0 O7 2.326 1_554 S
In0 O8 2.266 1_554 S
In0 O9 2.326 1_554 S
In0 O11 2.294 . S
In0 O12 2.326 . S
O1 In0 2.294 . S
O1 C10 1.240 . S
O2 In0 2.326 . S
O2 C10 1.252 . S
C3 O6 1.252 1_556 S
C3 O7 1.260 . S
C4 O11 1.240 . S
C4 O12 1.252 . S
C5 O8 1.252 . S
C5 O9 1.260 . S
O6 In0 2.266 . S
O6 C3 1.252 1_554 S
O7 In0 2.326 1_556 S
O7 C3 1.260 . S
O8 In0 2.266 1_556 S
O8 C5 1.252 . S
O9 In0 2.326 1_556 S
O9 C5 1.260 . S
C10 O1 1.240 . S
C10 O2 1.252 . S
O11 In0 2.294 . S
O11 C4 1.240 . S
O12 In0 2.326 . S
O12 C4 1.252 . S
In13 O14 2.294 . S
In13 O15 2.326 . S
In13 O19 2.266 . S
In13 O20 2.326 1_554 S
In13 O21 2.266 1_554 S
In13 O22 2.326 1_554 S
In13 O24 2.294 . S
In13 O25 2.326 . S
O14 In13 2.294 . S
O14 C23 1.240 . S
O15 In13 2.326 . S
O15 C23 1.252 . S
C16 O19 1.252 1_556 S
C16 O20 1.260 . S
C17 O24 1.240 . S
C17 O25 1.252 . S
C18 O21 1.252 . S
C18 O22 1.260 . S
O19 In13 2.266 . S
O19 C16 1.252 1_554 S
O20 In13 2.326 1_556 S
O20 C16 1.260 . S
O21 In13 2.266 1_556 S
O21 C18 1.252 . S
O22 In13 2.326 1_556 S
O22 C18 1.260 . S
C23 O14 1.240 . S
C23 O15 1.252 . S
O24 In13 2.294 . S
O24 C17 1.240 . S
O25 In13 2.326 . S
O25 C17 1.252 . S
In26 O27 2.294 . S
In26 O28 2.326 . S
In26 O32 2.266 1_554 S
In26 O33 2.326 1_554 S
In26 O34 2.266 . S
In26 O35 2.326 1_554 S
In26 O37 2.294 . S
In26 O38 2.326 . S
O27 In26 2.294 . S
O27 C36 1.240 . S
O28 In26 2.326 . S
O28 C36 1.252 . S
C29 O32 1.252 . S
C29 O33 1.260 . S
C30 O37 1.240 . S
C30 O38 1.252 . S
C31 O34 1.252 1_556 S
C31 O35 1.260 . S
O32 In26 2.266 1_556 S
O32 C29 1.252 . S
O33 In26 2.326 1_556 S
O33 C29 1.260 . S
O34 In26 2.266 . S
O34 C31 1.252 1_554 S
O35 In26 2.326 1_556 S
O35 C31 1.260 . S
C36 O27 1.240 . S
C36 O28 1.252 . S
O37 In26 2.294 . S
O37 C30 1.240 . S
O38 In26 2.326 . S
O38 C30 1.252 . S
In39 O40 2.294 . S
In39 O41 2.326 . S
In39 O45 2.266 . S
In39 O46 2.326 . S
In39 O47 2.266 . S
In39 O48 2.326 . S
In39 O50 2.294 . S
In39 O51 2.326 . S
O40 In39 2.294 . S
O40 C49 1.240 . S
O41 In39 2.326 . S
O41 C49 1.252 . S
C42 O45 1.252 . S
C42 O46 1.260 . S
C43 O50 1.240 . S
C43 O51 1.252 . S
C44 O47 1.252 . S
C44 O48 1.260 . S
O45 In39 2.266 . S
O45 C42 1.252 . S
O46 In39 2.326 . S
O46 C42 1.260 . S
O47 In39 2.266 . S
O47 C44 1.252 . S
O48 In39 2.326 . S
O48 C44 1.260 . S
C49 O40 1.240 . S
C49 O41 1.252 . S
O50 In39 2.294 . S
O50 C43 1.240 . S
O51 In39 2.326 . S
O51 C43 1.252 . S
In52 O53 2.294 . S
In52 O54 2.326 . S
In52 O58 2.266 . S
In52 O59 2.326 . S
In52 O60 2.266 . S
In52 O61 2.326 . S
In52 O63 2.294 . S
In52 O64 2.326 . S
O53 In52 2.294 . S
O53 C62 1.240 . S
O54 In52 2.326 . S
O54 C62 1.252 . S
C55 O58 1.252 . S
C55 O59 1.260 . S
C56 O63 1.240 . S
C56 O64 1.252 . S
C57 O60 1.252 . S
C57 O61 1.260 . S
O58 In52 2.266 . S
O58 C55 1.252 . S
O59 In52 2.326 . S
O59 C55 1.260 . S
O60 In52 2.266 . S
O60 C57 1.252 . S
O61 In52 2.326 . S
O61 C57 1.260 . S
C62 O53 1.240 . S
C62 O54 1.252 . S
O63 In52 2.294 . S
O63 C56 1.240 . S
O64 In52 2.326 . S
O64 C56 1.252 . S
In65 O66 2.294 . S
In65 O67 2.326 . S
In65 O71 2.266 . S
In65 O72 2.326 . S
In65 O73 2.266 . S
In65 O74 2.326 . S
In65 O76 2.294 . S
In65 O77 2.326 . S
O66 In65 2.294 . S
O66 C75 1.240 . S
O67 In65 2.326 . S
O67 C75 1.252 . S
C68 O71 1.252 . S
C68 O72 1.260 . S
C69 O76 1.240 . S
C69 O77 1.252 . S
C70 O73 1.252 . S
C70 O74 1.260 . S
O71 In65 2.266 . S
O71 C68 1.252 . S
O72 In65 2.326 . S
O72 C68 1.260 . S
O73 In65 2.266 . S
O73 C70 1.252 . S
O74 In65 2.326 . S
O74 C70 1.260 . S
C75 O66 1.240 . S
C75 O67 1.252 . S
O76 In65 2.294 . S
O76 C69 1.240 . S
O77 In65 2.326 . S
O77 C69 1.252 . S
In78 O79 2.294 . S
In78 O80 2.326 . S
In78 O84 2.266 . S
In78 O85 2.326 1_556 S
In78 O86 2.266 1_556 S
In78 O87 2.326 1_556 S
In78 O89 2.294 . S
In78 O90 2.326 . S
O79 In78 2.294 . S
O79 C88 1.240 . S
O80 In78 2.326 . S
O80 C88 1.252 . S
C81 O84 1.252 1_554 S
C81 O85 1.260 . S
C82 O89 1.240 . S
C82 O90 1.252 . S
C83 O86 1.252 . S
C83 O87 1.260 . S
O84 In78 2.266 . S
O84 C81 1.252 1_556 S
O85 In78 2.326 1_554 S
O85 C81 1.260 . S
O86 In78 2.266 1_554 S
O86 C83 1.252 . S
O87 In78 2.326 1_554 S
O87 C83 1.260 . S
C88 O79 1.240 . S
C88 O80 1.252 . S
O89 In78 2.294 . S
O89 C82 1.240 . S
O90 In78 2.326 . S
O90 C82 1.252 . S
In91 O92 2.294 . S
In91 O93 2.326 . S
In91 O97 2.266 . S
In91 O98 2.326 1_556 S
In91 O99 2.266 1_556 S
In91 O100 2.326 1_556 S
In91 O102 2.294 . S
In91 O103 2.326 . S
O92 In91 2.294 . S
O92 C101 1.240 . S
O93 In91 2.326 . S
O93 C101 1.252 . S
C94 O97 1.252 1_554 S
C94 O98 1.260 . S
C95 O102 1.240 . S
C95 O103 1.252 . S
C96 O99 1.252 . S
C96 O100 1.260 . S
O97 In91 2.266 . S
O97 C94 1.252 1_556 S
O98 In91 2.326 1_554 S
O98 C94 1.260 . S
O99 In91 2.266 1_554 S
O99 C96 1.252 . S
O100 In91 2.326 1_554 S
O100 C96 1.260 . S
C101 O92 1.240 . S
C101 O93 1.252 . S
O102 In91 2.294 . S
O102 C95 1.240 . S
O103 In91 2.326 . S
O103 C95 1.252 . S
In104 O105 2.294 . S
In104 O106 2.326 . S
In104 O110 2.266 1_556 S
In104 O111 2.326 1_556 S
In104 O112 2.266 . S
In104 O113 2.326 1_556 S
In104 O115 2.294 . S
In104 O116 2.326 . S
O105 In104 2.294 . S
O105 C114 1.240 . S
O106 In104 2.326 . S
O106 C114 1.252 . S
C107 O110 1.252 . S
C107 O111 1.260 . S
C108 O115 1.240 . S
C108 O116 1.252 . S
C109 O112 1.252 1_554 S
C109 O113 1.260 . S
O110 In104 2.266 1_554 S
O110 C107 1.252 . S
O111 In104 2.326 1_554 S
O111 C107 1.260 . S
O112 In104 2.266 . S
O112 C109 1.252 1_556 S
O113 In104 2.326 1_554 S
O113 C109 1.260 . S
C114 O105 1.240 . S
C114 O106 1.252 . S
O115 In104 2.294 . S
O115 C108 1.240 . S
O116 In104 2.326 . S
O116 C108 1.252 . S
In117 O118 2.294 . S
In117 O119 2.326 . S
In117 O123 2.266 . S
In117 O124 2.326 . S
In117 O125 2.266 . S
In117 O126 2.326 . S
In117 O128 2.294 . S
In117 O129 2.326 . S
O118 In117 2.294 . S
O118 C127 1.240 . S
O119 In117 2.326 . S
O119 C127 1.252 . S
C120 O123 1.252 . S
C120 O124 1.260 . S
C121 O128 1.240 . S
C121 O129 1.252 . S
C122 O125 1.252 . S
C122 O126 1.260 . S
O123 In117 2.266 . S
O123 C120 1.252 . S
O124 In117 2.326 . S
O124 C120 1.260 . S
O125 In117 2.266 . S
O125 C122 1.252 . S
O126 In117 2.326 . S
O126 C122 1.260 . S
C127 O118 1.240 . S
C127 O119 1.252 . S
O128 In117 2.294 . S
O128 C121 1.240 . S
O129 In117 2.326 . S
O129 C121 1.252 . S
In130 O131 2.294 . S
In130 O132 2.326 . S
In130 O136 2.266 . S
In130 O137 2.326 . S
In130 O138 2.266 . S
In130 O139 2.326 . S
In130 O141 2.294 . S
In130 O142 2.326 . S
O131 In130 2.294 . S
O131 C140 1.240 . S
O132 In130 2.326 . S
O132 C140 1.252 . S
C133 O136 1.252 . S
C133 O137 1.260 . S
C134 O141 1.240 . S
C134 O142 1.252 . S
C135 O138 1.252 . S
C135 O139 1.260 . S
O136 In130 2.266 . S
O136 C133 1.252 . S
O137 In130 2.326 . S
O137 C133 1.260 . S
O138 In130 2.266 . S
O138 C135 1.252 . S
O139 In130 2.326 . S
O139 C135 1.260 . S
C140 O131 1.240 . S
C140 O132 1.252 . S
O141 In130 2.294 . S
O141 C134 1.240 . S
O142 In130 2.326 . S
O142 C134 1.252 . S
In143 O144 2.294 . S
In143 O145 2.326 . S
In143 O149 2.266 . S
In143 O150 2.326 . S
In143 O151 2.266 . S
In143 O152 2.326 . S
In143 O154 2.294 . S
In143 O155 2.326 . S
O144 In143 2.294 . S
O144 C153 1.240 . S
O145 In143 2.326 . S
O145 C153 1.252 . S
C146 O149 1.252 . S
C146 O150 1.260 . S
C147 O154 1.240 . S
C147 O155 1.252 . S
C148 O151 1.252 . S
C148 O152 1.260 . S
O149 In143 2.266 . S
O149 C146 1.252 . S
O150 In143 2.326 . S
O150 C146 1.260 . S
O151 In143 2.266 . S
O151 C148 1.252 . S
O152 In143 2.326 . S
O152 C148 1.260 . S
C153 O144 1.240 . S
C153 O145 1.252 . S
O154 In143 2.294 . S
O154 C147 1.240 . S
O155 In143 2.326 . S
O155 C147 1.252 . S
In156 O157 2.294 . S
In156 O158 2.326 . S
In156 O162 2.266 . S
In156 O163 2.326 . S
In156 O164 2.266 . S
In156 O165 2.326 . S
In156 O167 2.294 . S
In156 O168 2.326 . S
O157 In156 2.294 . S
O157 C166 1.240 . S
O158 In156 2.326 . S
O158 C166 1.252 . S
C159 O162 1.252 . S
C159 O163 1.260 . S
C160 O167 1.240 . S
C160 O168 1.252 . S
C161 O164 1.252 . S
C161 O165 1.260 . S
O162 In156 2.266 . S
O162 C159 1.252 . S
O163 In156 2.326 . S
O163 C159 1.260 . S
O164 In156 2.266 . S
O164 C161 1.252 . S
O165 In156 2.326 . S
O165 C161 1.260 . S
C166 O157 1.240 . S
C166 O158 1.252 . S
O167 In156 2.294 . S
O167 C160 1.240 . S
O168 In156 2.326 . S
O168 C160 1.252 . S
In169 O170 2.294 . S
In169 O171 2.326 . S
In169 O175 2.266 . S
In169 O176 2.326 . S
In169 O177 2.266 . S
In169 O178 2.326 . S
In169 O180 2.294 . S
In169 O181 2.326 . S
O170 In169 2.294 . S
O170 C179 1.240 . S
O171 In169 2.326 . S
O171 C179 1.252 . S
C172 O175 1.252 . S
C172 O176 1.260 . S
C173 O180 1.240 . S
C173 O181 1.252 . S
C174 O177 1.252 . S
C174 O178 1.260 . S
O175 In169 2.266 . S
O175 C172 1.252 . S
O176 In169 2.326 . S
O176 C172 1.260 . S
O177 In169 2.266 . S
O177 C174 1.252 . S
O178 In169 2.326 . S
O178 C174 1.260 . S
C179 O170 1.240 . S
C179 O171 1.252 . S
O180 In169 2.294 . S
O180 C173 1.240 . S
O181 In169 2.326 . S
O181 C173 1.252 . S
In182 O183 2.294 . S
In182 O184 2.326 . S
In182 O188 2.266 . S
In182 O189 2.326 . S
In182 O190 2.266 . S
In182 O191 2.326 . S
In182 O193 2.294 . S
In182 O194 2.326 . S
O183 In182 2.294 . S
O183 C192 1.240 . S
O184 In182 2.326 . S
O184 C192 1.252 . S
C185 O188 1.252 . S
C185 O189 1.260 . S
C186 O193 1.240 . S
C186 O194 1.252 . S
C187 O190 1.252 . S
C187 O191 1.260 . S
O188 In182 2.266 . S
O188 C185 1.252 . S
O189 In182 2.326 . S
O189 C185 1.260 . S
O190 In182 2.266 . S
O190 C187 1.252 . S
O191 In182 2.326 . S
O191 C187 1.260 . S
C192 O183 1.240 . S
C192 O184 1.252 . S
O193 In182 2.294 . S
O193 C186 1.240 . S
O194 In182 2.326 . S
O194 C186 1.252 . S
In195 O196 2.294 . S
In195 O197 2.326 . S
In195 O201 2.266 . S
In195 O202 2.326 . S
In195 O203 2.266 . S
In195 O204 2.326 . S
In195 O206 2.294 . S
In195 O207 2.326 . S
O196 In195 2.294 . S
O196 C205 1.240 . S
O197 In195 2.326 . S
O197 C205 1.252 . S
C198 O201 1.252 . S
C198 O202 1.260 . S
C199 O206 1.240 . S
C199 O207 1.252 . S
C200 O203 1.252 . S
C200 O204 1.260 . S
O201 In195 2.266 . S
O201 C198 1.252 . S
O202 In195 2.326 . S
O202 C198 1.260 . S
O203 In195 2.266 . S
O203 C200 1.252 . S
O204 In195 2.326 . S
O204 C200 1.260 . S
C205 O196 1.240 . S
C205 O197 1.252 . S
O206 In195 2.294 . S
O206 C199 1.240 . S
O207 In195 2.326 . S
O207 C199 1.252 . S
In208 O209 2.294 . S
In208 O210 2.326 . S
In208 O214 2.266 . S
In208 O215 2.326 . S
In208 O216 2.266 . S
In208 O217 2.326 . S
In208 O219 2.294 . S
In208 O220 2.326 . S
O209 In208 2.294 . S
O209 C218 1.240 . S
O210 In208 2.326 . S
O210 C218 1.252 . S
C211 O214 1.252 . S
C211 O215 1.260 . S
C212 O219 1.240 . S
C212 O220 1.252 . S
C213 O216 1.252 . S
C213 O217 1.260 . S
O214 In208 2.266 . S
O214 C211 1.252 . S
O215 In208 2.326 . S
O215 C211 1.260 . S
O216 In208 2.266 . S
O216 C213 1.252 . S
O217 In208 2.326 . S
O217 C213 1.260 . S
C218 O209 1.240 . S
C218 O210 1.252 . S
O219 In208 2.294 . S
O219 C212 1.240 . S
O220 In208 2.326 . S
O220 C212 1.252 . S
In221 O222 2.294 . S
In221 O223 2.326 . S
In221 O227 2.266 . S
In221 O228 2.326 . S
In221 O229 2.266 . S
In221 O230 2.326 . S
In221 O232 2.294 . S
In221 O233 2.326 . S
O222 In221 2.294 . S
O222 C231 1.240 . S
O223 In221 2.326 . S
O223 C231 1.252 . S
C224 O227 1.252 . S
C224 O228 1.260 . S
C225 O232 1.240 . S
C225 O233 1.252 . S
C226 O229 1.252 . S
C226 O230 1.260 . S
O227 In221 2.266 . S
O227 C224 1.252 . S
O228 In221 2.326 . S
O228 C224 1.260 . S
O229 In221 2.266 . S
O229 C226 1.252 . S
O230 In221 2.326 . S
O230 C226 1.260 . S
C231 O222 1.240 . S
C231 O223 1.252 . S
O232 In221 2.294 . S
O232 C225 1.240 . S
O233 In221 2.326 . S
O233 C225 1.252 . S
In234 O235 2.294 . S
In234 O236 2.326 . S
In234 O240 2.266 . S
In234 O241 2.326 . S
In234 O242 2.266 . S
In234 O243 2.326 . S
In234 O245 2.294 . S
In234 O246 2.326 . S
O235 In234 2.294 . S
O235 C244 1.240 . S
O236 In234 2.326 . S
O236 C244 1.252 . S
C237 O240 1.252 . S
C237 O241 1.260 . S
C238 O245 1.240 . S
C238 O246 1.252 . S
C239 O242 1.252 . S
C239 O243 1.260 . S
O240 In234 2.266 . S
O240 C237 1.252 . S
O241 In234 2.326 . S
O241 C237 1.260 . S
O242 In234 2.266 . S
O242 C239 1.252 . S
O243 In234 2.326 . S
O243 C239 1.260 . S
C244 O235 1.240 . S
C244 O236 1.252 . S
O245 In234 2.294 . S
O245 C238 1.240 . S
O246 In234 2.326 . S
O246 C238 1.252 . S
In247 O248 2.294 . S
In247 O249 2.326 . S
In247 O253 2.266 . S
In247 O254 2.326 . S
In247 O255 2.266 . S
In247 O256 2.326 . S
In247 O258 2.294 . S
In247 O259 2.326 . S
O248 In247 2.294 . S
O248 C257 1.240 . S
O249 In247 2.326 . S
O249 C257 1.252 . S
C250 O253 1.252 . S
C250 O254 1.260 . S
C251 O258 1.240 . S
C251 O259 1.252 . S
C252 O255 1.252 . S
C252 O256 1.260 . S
O253 In247 2.266 . S
O253 C250 1.252 . S
O254 In247 2.326 . S
O254 C250 1.260 . S
O255 In247 2.266 . S
O255 C252 1.252 . S
O256 In247 2.326 . S
O256 C252 1.260 . S
C257 O248 1.240 . S
C257 O249 1.252 . S
O258 In247 2.294 . S
O258 C251 1.240 . S
O259 In247 2.326 . S
O259 C251 1.252 . S
In260 O261 2.294 . S
In260 O262 2.326 . S
In260 O266 2.266 . S
In260 O267 2.326 . S
In260 O268 2.266 . S
In260 O269 2.326 . S
In260 O271 2.294 . S
In260 O272 2.326 . S
O261 In260 2.294 . S
O261 C270 1.240 . S
O262 In260 2.326 . S
O262 C270 1.252 . S
C263 O266 1.252 . S
C263 O267 1.260 . S
C264 O271 1.240 . S
C264 O272 1.252 . S
C265 O268 1.252 . S
C265 O269 1.260 . S
O266 In260 2.266 . S
O266 C263 1.252 . S
O267 In260 2.326 . S
O267 C263 1.260 . S
O268 In260 2.266 . S
O268 C265 1.252 . S
O269 In260 2.326 . S
O269 C265 1.260 . S
C270 O261 1.240 . S
C270 O262 1.252 . S
O271 In260 2.294 . S
O271 C264 1.240 . S
O272 In260 2.326 . S
O272 C264 1.252 . S
In273 O274 2.294 1_556 S
In273 O275 2.326 . S
In273 O279 2.266 . S
In273 O280 2.326 . S
In273 O281 2.266 . S
In273 O282 2.326 . S
In273 O284 2.294 . S
In273 O285 2.326 1_556 S
O274 In273 2.294 1_554 S
O274 C283 1.240 . S
O275 In273 2.326 . S
O275 C283 1.252 1_556 S
C276 O279 1.252 . S
C276 O280 1.260 . S
C277 O284 1.240 . S
C277 O285 1.252 1_556 S
C278 O281 1.252 . S
C278 O282 1.260 . S
O279 In273 2.266 . S
O279 C276 1.252 . S
O280 In273 2.326 . S
O280 C276 1.260 . S
O281 In273 2.266 . S
O281 C278 1.252 . S
O282 In273 2.326 . S
O282 C278 1.260 . S
C283 O274 1.240 . S
C283 O275 1.252 1_554 S
O284 In273 2.294 . S
O284 C277 1.240 . S
O285 In273 2.326 1_554 S
O285 C277 1.252 1_554 S
In286 O287 2.294 1_556 S
In286 O288 2.326 . S
In286 O292 2.266 . S
In286 O293 2.326 . S
In286 O294 2.266 . S
In286 O295 2.326 . S
In286 O297 2.294 . S
In286 O298 2.326 1_556 S
O287 In286 2.294 1_554 S
O287 C296 1.240 . S
O288 In286 2.326 . S
O288 C296 1.252 1_556 S
C289 O292 1.252 . S
C289 O293 1.260 . S
C290 O297 1.240 . S
C290 O298 1.252 1_556 S
C291 O294 1.252 . S
C291 O295 1.260 . S
O292 In286 2.266 . S
O292 C289 1.252 . S
O293 In286 2.326 . S
O293 C289 1.260 . S
O294 In286 2.266 . S
O294 C291 1.252 . S
O295 In286 2.326 . S
O295 C291 1.260 . S
C296 O287 1.240 . S
C296 O288 1.252 1_554 S
O297 In286 2.294 . S
O297 C290 1.240 . S
O298 In286 2.326 1_554 S
O298 C290 1.252 1_554 S
In299 O300 2.294 . S
In299 O301 2.326 1_556 S
In299 O305 2.266 . S
In299 O306 2.326 . S
In299 O307 2.266 . S
In299 O308 2.326 . S
In299 O310 2.294 1_556 S
In299 O311 2.326 . S
O300 In299 2.294 . S
O300 C309 1.240 . S
O301 In299 2.326 1_554 S
O301 C309 1.252 1_554 S
C302 O305 1.252 . S
C302 O306 1.260 . S
C303 O310 1.240 . S
C303 O311 1.252 1_554 S
C304 O307 1.252 . S
C304 O308 1.260 . S
O305 In299 2.266 . S
O305 C302 1.252 . S
O306 In299 2.326 . S
O306 C302 1.260 . S
O307 In299 2.266 . S
O307 C304 1.252 . S
O308 In299 2.326 . S
O308 C304 1.260 . S
C309 O300 1.240 . S
C309 O301 1.252 1_556 S
O310 In299 2.294 1_554 S
O310 C303 1.240 . S
O311 In299 2.326 . S
O311 C303 1.252 1_556 S
In312 O313 2.294 . S
In312 O314 2.326 . S
In312 O318 2.266 . S
In312 O319 2.326 . S
In312 O320 2.266 . S
In312 O321 2.326 . S
In312 O323 2.294 . S
In312 O324 2.326 . S
O313 In312 2.294 . S
O313 C322 1.240 . S
O314 In312 2.326 . S
O314 C322 1.252 . S
C315 O318 1.252 . S
C315 O319 1.260 . S
C316 O323 1.240 . S
C316 O324 1.252 . S
C317 O320 1.252 . S
C317 O321 1.260 . S
O318 In312 2.266 . S
O318 C315 1.252 . S
O319 In312 2.326 . S
O319 C315 1.260 . S
O320 In312 2.266 . S
O320 C317 1.252 . S
O321 In312 2.326 . S
O321 C317 1.260 . S
C322 O313 1.240 . S
C322 O314 1.252 . S
O323 In312 2.294 . S
O323 C316 1.240 . S
O324 In312 2.326 . S
O324 C316 1.252 . S
In325 O326 2.294 . S
In325 O327 2.326 . S
In325 O331 2.266 . S
In325 O332 2.326 . S
In325 O333 2.266 . S
In325 O334 2.326 . S
In325 O336 2.294 . S
In325 O337 2.326 . S
O326 In325 2.294 . S
O326 C335 1.240 . S
O327 In325 2.326 . S
O327 C335 1.252 . S
C328 O331 1.252 . S
C328 O332 1.260 . S
C329 O336 1.240 . S
C329 O337 1.252 . S
C330 O333 1.252 . S
C330 O334 1.260 . S
O331 In325 2.266 . S
O331 C328 1.252 . S
O332 In325 2.326 . S
O332 C328 1.260 . S
O333 In325 2.266 . S
O333 C330 1.252 . S
O334 In325 2.326 . S
O334 C330 1.260 . S
C335 O326 1.240 . S
C335 O327 1.252 . S
O336 In325 2.294 . S
O336 C329 1.240 . S
O337 In325 2.326 . S
O337 C329 1.252 . S
In338 O339 2.294 . S
In338 O340 2.326 . S
In338 O344 2.266 . S
In338 O345 2.326 . S
In338 O346 2.266 . S
In338 O347 2.326 . S
In338 O349 2.294 . S
In338 O350 2.326 . S
O339 In338 2.294 . S
O339 C348 1.240 . S
O340 In338 2.326 . S
O340 C348 1.252 . S
C341 O344 1.252 . S
C341 O345 1.260 . S
C342 O349 1.240 . S
C342 O350 1.252 . S
C343 O346 1.252 . S
C343 O347 1.260 . S
O344 In338 2.266 . S
O344 C341 1.252 . S
O345 In338 2.326 . S
O345 C341 1.260 . S
O346 In338 2.266 . S
O346 C343 1.252 . S
O347 In338 2.326 . S
O347 C343 1.260 . S
C348 O339 1.240 . S
C348 O340 1.252 . S
O349 In338 2.294 . S
O349 C342 1.240 . S
O350 In338 2.326 . S
O350 C342 1.252 . S
In351 O352 2.294 . S
In351 O353 2.326 1_554 S
In351 O357 2.266 . S
In351 O358 2.326 . S
In351 O359 2.266 . S
In351 O360 2.326 . S
In351 O362 2.294 1_554 S
In351 O363 2.326 . S
O352 In351 2.294 . S
O352 C361 1.240 . S
O353 In351 2.326 1_556 S
O353 C361 1.252 1_556 S
C354 O357 1.252 . S
C354 O358 1.260 . S
C355 O362 1.240 . S
C355 O363 1.252 1_556 S
C356 O359 1.252 . S
C356 O360 1.260 . S
O357 In351 2.266 . S
O357 C354 1.252 . S
O358 In351 2.326 . S
O358 C354 1.260 . S
O359 In351 2.266 . S
O359 C356 1.252 . S
O360 In351 2.326 . S
O360 C356 1.260 . S
C361 O352 1.240 . S
C361 O353 1.252 1_554 S
O362 In351 2.294 1_556 S
O362 C355 1.240 . S
O363 In351 2.326 . S
O363 C355 1.252 1_554 S
In364 O365 2.294 . S
In364 O366 2.326 1_554 S
In364 O370 2.266 . S
In364 O371 2.326 . S
In364 O372 2.266 . S
In364 O373 2.326 . S
In364 O375 2.294 1_554 S
In364 O376 2.326 . S
O365 In364 2.294 . S
O365 C374 1.240 . S
O366 In364 2.326 1_556 S
O366 C374 1.252 1_556 S
C367 O370 1.252 . S
C367 O371 1.260 . S
C368 O375 1.240 . S
C368 O376 1.252 1_556 S
C369 O372 1.252 . S
C369 O373 1.260 . S
O370 In364 2.266 . S
O370 C367 1.252 . S
O371 In364 2.326 . S
O371 C367 1.260 . S
O372 In364 2.266 . S
O372 C369 1.252 . S
O373 In364 2.326 . S
O373 C369 1.260 . S
C374 O365 1.240 . S
C374 O366 1.252 1_554 S
O375 In364 2.294 1_556 S
O375 C368 1.240 . S
O376 In364 2.326 . S
O376 C368 1.252 1_554 S
In377 O378 2.294 . S
In377 O379 2.326 1_554 S
In377 O383 2.266 . S
In377 O384 2.326 . S
In377 O385 2.266 . S
In377 O386 2.326 . S
In377 O388 2.294 1_554 S
In377 O389 2.326 . S
O378 In377 2.294 . S
O378 C387 1.240 . S
O379 In377 2.326 1_556 S
O379 C387 1.252 1_556 S
C380 O383 1.252 . S
C380 O384 1.260 . S
C381 O388 1.240 . S
C381 O389 1.252 1_556 S
C382 O385 1.252 . S
C382 O386 1.260 . S
O383 In377 2.266 . S
O383 C380 1.252 . S
O384 In377 2.326 . S
O384 C380 1.260 . S
O385 In377 2.266 . S
O385 C382 1.252 . S
O386 In377 2.326 . S
O386 C382 1.260 . S
C387 O378 1.240 . S
C387 O379 1.252 1_554 S
O388 In377 2.294 1_556 S
O388 C381 1.240 . S
O389 In377 2.326 . S
O389 C381 1.252 1_554 S
In390 O391 2.294 . S
In390 O392 2.326 . S
In390 O396 2.266 . S
In390 O397 2.326 . S
In390 O398 2.266 . S
In390 O399 2.326 . S
In390 O401 2.294 . S
In390 O402 2.326 . S
O391 In390 2.294 . S
O391 C400 1.240 . S
O392 In390 2.326 . S
O392 C400 1.252 . S
C393 O396 1.252 . S
C393 O397 1.260 . S
C394 O401 1.240 . S
C394 O402 1.252 . S
C395 O398 1.252 . S
C395 O399 1.260 . S
O396 In390 2.266 . S
O396 C393 1.252 . S
O397 In390 2.326 . S
O397 C393 1.260 . S
O398 In390 2.266 . S
O398 C395 1.252 . S
O399 In390 2.326 . S
O399 C395 1.260 . S
C400 O391 1.240 . S
C400 O392 1.252 . S
O401 In390 2.294 . S
O401 C394 1.240 . S
O402 In390 2.326 . S
O402 C394 1.252 . S
In403 O404 2.294 . S
In403 O405 2.326 . S
In403 O409 2.266 . S
In403 O410 2.326 . S
In403 O411 2.266 . S
In403 O412 2.326 . S
In403 O414 2.294 . S
In403 O415 2.326 . S
O404 In403 2.294 . S
O404 C413 1.240 . S
O405 In403 2.326 . S
O405 C413 1.252 . S
C406 O409 1.252 . S
C406 O410 1.260 . S
C407 O414 1.240 . S
C407 O415 1.252 . S
C408 O411 1.252 . S
C408 O412 1.260 . S
O409 In403 2.266 . S
O409 C406 1.252 . S
O410 In403 2.326 . S
O410 C406 1.260 . S
O411 In403 2.266 . S
O411 C408 1.252 . S
O412 In403 2.326 . S
O412 C408 1.260 . S
C413 O404 1.240 . S
C413 O405 1.252 . S
O414 In403 2.294 . S
O414 C407 1.240 . S
O415 In403 2.326 . S
O415 C407 1.252 . S
In416 O417 2.294 . S
In416 O418 2.326 . S
In416 O422 2.266 . S
In416 O423 2.326 . S
In416 O424 2.266 . S
In416 O425 2.326 . S
In416 O427 2.294 . S
In416 O428 2.326 . S
O417 In416 2.294 . S
O417 C426 1.240 . S
O418 In416 2.326 . S
O418 C426 1.252 . S
C419 O422 1.252 . S
C419 O423 1.260 . S
C420 O427 1.240 . S
C420 O428 1.252 . S
C421 O424 1.252 . S
C421 O425 1.260 . S
O422 In416 2.266 . S
O422 C419 1.252 . S
O423 In416 2.326 . S
O423 C419 1.260 . S
O424 In416 2.266 . S
O424 C421 1.252 . S
O425 In416 2.326 . S
O425 C421 1.260 . S
C426 O417 1.240 . S
C426 O418 1.252 . S
O427 In416 2.294 . S
O427 C420 1.240 . S
O428 In416 2.326 . S
O428 C420 1.252 . S
In429 O430 2.294 . S
In429 O431 2.326 . S
In429 O435 2.266 . S
In429 O436 2.326 . S
In429 O437 2.266 . S
In429 O438 2.326 . S
In429 O440 2.294 . S
In429 O441 2.326 . S
O430 In429 2.294 . S
O430 C439 1.240 . S
O431 In429 2.326 . S
O431 C439 1.252 . S
C432 O435 1.252 . S
C432 O436 1.260 . S
C433 O440 1.240 . S
C433 O441 1.252 . S
C434 O437 1.252 . S
C434 O438 1.260 . S
O435 In429 2.266 . S
O435 C432 1.252 . S
O436 In429 2.326 . S
O436 C432 1.260 . S
O437 In429 2.266 . S
O437 C434 1.252 . S
O438 In429 2.326 . S
O438 C434 1.260 . S
C439 O430 1.240 . S
C439 O431 1.252 . S
O440 In429 2.294 . S
O440 C433 1.240 . S
O441 In429 2.326 . S
O441 C433 1.252 . S
In442 O443 2.294 . S
In442 O444 2.326 . S
In442 O448 2.266 . S
In442 O449 2.326 . S
In442 O450 2.266 . S
In442 O451 2.326 . S
In442 O453 2.294 . S
In442 O454 2.326 . S
O443 In442 2.294 . S
O443 C452 1.240 . S
O444 In442 2.326 . S
O444 C452 1.252 . S
C445 O448 1.252 . S
C445 O449 1.260 . S
C446 O453 1.240 . S
C446 O454 1.252 . S
C447 O450 1.252 . S
C447 O451 1.260 . S
O448 In442 2.266 . S
O448 C445 1.252 . S
O449 In442 2.326 . S
O449 C445 1.260 . S
O450 In442 2.266 . S
O450 C447 1.252 . S
O451 In442 2.326 . S
O451 C447 1.260 . S
C452 O443 1.240 . S
C452 O444 1.252 . S
O453 In442 2.294 . S
O453 C446 1.240 . S
O454 In442 2.326 . S
O454 C446 1.252 . S
In455 O456 2.294 . S
In455 O457 2.326 . S
In455 O461 2.266 . S
In455 O462 2.326 . S
In455 O463 2.266 . S
In455 O464 2.326 . S
In455 O466 2.294 . S
In455 O467 2.326 . S
O456 In455 2.294 . S
O456 C465 1.240 . S
O457 In455 2.326 . S
O457 C465 1.252 . S
C458 O461 1.252 . S
C458 O462 1.260 . S
C459 O466 1.240 . S
C459 O467 1.252 . S
C460 O463 1.252 . S
C460 O464 1.260 . S
O461 In455 2.266 . S
O461 C458 1.252 . S
O462 In455 2.326 . S
O462 C458 1.260 . S
O463 In455 2.266 . S
O463 C460 1.252 . S
O464 In455 2.326 . S
O464 C460 1.260 . S
C465 O456 1.240 . S
C465 O457 1.252 . S
O466 In455 2.294 . S
O466 C459 1.240 . S
O467 In455 2.326 . S
O467 C459 1.252 . S
C468 C469 1.387 . S
C468 H472 0.950 . S
C468 C477 1.390 1_565 S
C469 C468 1.387 . S
C469 C471 1.387 . S
H470 C477 0.950 . S
C471 C469 1.387 . S
C471 C473 1.390 1_565 S
C471 H475 0.950 . S
H472 C468 0.950 . S
C473 C471 1.390 1_545 S
C473 C474 1.387 . S
C473 H476 0.950 . S
C474 C473 1.387 . S
C474 C477 1.387 . S
H475 C471 0.950 . S
H476 C473 0.950 . S
C477 C468 1.390 1_545 S
C477 H470 0.950 . S
C477 C474 1.387 . S
C478 C479 1.387 . S
C478 H482 0.950 . S
C478 C487 1.390 1_655 S
C479 C478 1.387 . S
C479 C481 1.387 . S
H480 C487 0.950 . S
C481 C479 1.387 . S
C481 C483 1.390 1_655 S
C481 H485 0.950 . S
H482 C478 0.950 . S
C483 C481 1.390 1_455 S
C483 C484 1.387 . S
C483 H486 0.950 . S
C484 C483 1.387 . S
C484 C487 1.387 . S
H485 C481 0.950 . S
H486 C483 0.950 . S
C487 C478 1.390 1_455 S
C487 H480 0.950 . S
C487 C484 1.387 . S
C488 C489 1.387 . S
C488 H492 0.950 . S
C488 C497 1.390 . S
C489 C488 1.387 . S
C489 C491 1.387 . S
H490 C497 0.950 . S
C491 C489 1.387 . S
C491 C493 1.390 . S
C491 H495 0.950 . S
H492 C488 0.950 . S
C493 C491 1.390 . S
C493 C494 1.387 . S
C493 H496 0.950 . S
C494 C493 1.387 . S
C494 C497 1.387 . S
H495 C491 0.950 . S
H496 C493 0.950 . S
C497 C488 1.390 . S
C497 H490 0.950 . S
C497 C494 1.387 . S
C498 C499 1.387 . S
C498 H502 0.950 . S
C498 C507 1.390 1_565 S
C499 C498 1.387 . S
C499 C501 1.387 . S
H500 C507 0.950 . S
C501 C499 1.387 . S
C501 C503 1.390 1_565 S
C501 H505 0.950 . S
H502 C498 0.950 . S
C503 C501 1.390 1_545 S
C503 C504 1.387 . S
C503 H506 0.950 . S
C504 C503 1.387 . S
C504 C507 1.387 . S
H505 C501 0.950 . S
H506 C503 0.950 . S
C507 C498 1.390 1_545 S
C507 H500 0.950 . S
C507 C504 1.387 . S
C508 C509 1.387 1_655 S
C508 H512 0.950 . S
C508 C517 1.390 . S
C509 C508 1.387 1_455 S
C509 C511 1.387 . S
H510 C517 0.950 . S
C511 C509 1.387 . S
C511 C513 1.390 . S
C511 H515 0.950 . S
H512 C508 0.950 . S
C513 C511 1.390 . S
C513 C514 1.387 1_455 S
C513 H516 0.950 . S
C514 C513 1.387 1_655 S
C514 C517 1.387 . S
H515 C511 0.950 . S
H516 C513 0.950 . S
C517 C508 1.390 . S
C517 H510 0.950 . S
C517 C514 1.387 . S
C518 C519 1.387 . S
C518 H522 0.950 . S
C518 C527 1.390 . S
C519 C518 1.387 . S
C519 C521 1.387 . S
H520 C527 0.950 . S
C521 C519 1.387 . S
C521 C523 1.390 . S
C521 H525 0.950 . S
H522 C518 0.950 . S
C523 C521 1.390 . S
C523 C524 1.387 . S
C523 H526 0.950 . S
C524 C523 1.387 . S
C524 C527 1.387 . S
H525 C521 0.950 . S
H526 C523 0.950 . S
C527 C518 1.390 . S
C527 H520 0.950 . S
C527 C524 1.387 . S
C528 C529 1.387 . S
C528 H532 0.950 . S
C528 C537 1.390 . S
C529 C528 1.387 . S
C529 C531 1.387 . S
H530 C537 0.950 . S
C531 C529 1.387 . S
C531 C533 1.390 . S
C531 H535 0.950 . S
H532 C528 0.950 . S
C533 C531 1.390 . S
C533 C534 1.387 . S
C533 H536 0.950 . S
C534 C533 1.387 . S
C534 C537 1.387 . S
H535 C531 0.950 . S
H536 C533 0.950 . S
C537 C528 1.390 . S
C537 H530 0.950 . S
C537 C534 1.387 . S
C538 C539 1.387 . S
C538 H542 0.950 . S
C538 C547 1.390 . S
C539 C538 1.387 . S
C539 C541 1.387 . S
H540 C547 0.950 . S
C541 C539 1.387 . S
C541 C543 1.390 . S
C541 H545 0.950 . S
H542 C538 0.950 . S
C543 C541 1.390 . S
C543 C544 1.387 . S
C543 H546 0.950 . S
C544 C543 1.387 . S
C544 C547 1.387 . S
H545 C541 0.950 . S
H546 C543 0.950 . S
C547 C538 1.390 . S
C547 H540 0.950 . S
C547 C544 1.387 . S
C548 C549 1.387 . S
C548 H552 0.950 . S
C548 C557 1.390 . S
C549 C548 1.387 . S
C549 C551 1.387 . S
H550 C557 0.950 . S
C551 C549 1.387 . S
C551 C553 1.390 . S
C551 H555 0.950 . S
H552 C548 0.950 . S
C553 C551 1.390 . S
C553 C554 1.387 . S
C553 H556 0.950 . S
C554 C553 1.387 . S
C554 C557 1.387 . S
H555 C551 0.950 . S
H556 C553 0.950 . S
C557 C548 1.390 . S
C557 H550 0.950 . S
C557 C554 1.387 . S
C558 C559 1.387 . S
C558 H562 0.950 . S
C558 C567 1.390 . S
C559 C558 1.387 . S
C559 C561 1.387 . S
H560 C567 0.950 . S
C561 C559 1.387 . S
C561 C563 1.390 . S
C561 H565 0.950 . S
H562 C558 0.950 . S
C563 C561 1.390 . S
C563 C564 1.387 . S
C563 H566 0.950 . S
C564 C563 1.387 . S
C564 C567 1.387 . S
H565 C561 0.950 . S
H566 C563 0.950 . S
C567 C558 1.390 . S
C567 H560 0.950 . S
C567 C564 1.387 . S
C568 C569 1.387 . S
C568 H572 0.950 . S
C568 C577 1.390 . S
C569 C568 1.387 . S
C569 C571 1.387 . S
H570 C577 0.950 . S
C571 C569 1.387 . S
C571 C573 1.390 . S
C571 H575 0.950 . S
H572 C568 0.950 . S
C573 C571 1.390 . S
C573 C574 1.387 . S
C573 H576 0.956 . S
C574 C573 1.387 . S
C574 C577 1.387 . S
H575 C571 0.950 . S
H576 C573 0.956 . S
C577 C568 1.390 . S
C577 H570 0.950 . S
C577 C574 1.387 . S
C578 C579 1.387 . S
C578 H582 0.950 . S
C578 C587 1.390 . S
C579 C578 1.387 . S
C579 C581 1.387 . S
H580 C587 0.950 . S
C581 C579 1.387 . S
C581 C583 1.390 . S
C581 H585 0.950 . S
H582 C578 0.950 . S
C583 C581 1.390 . S
C583 C584 1.387 . S
C583 H586 0.950 . S
C584 C583 1.387 . S
C584 C587 1.387 . S
H585 C581 0.950 . S
H586 C583 0.950 . S
C587 C578 1.390 . S
C587 H580 0.950 . S
C587 C584 1.387 . S
C588 C589 1.387 . S
C588 H592 0.950 . S
C588 C597 1.390 . S
C589 C588 1.387 . S
C589 C591 1.387 . S
H590 C597 0.950 . S
C591 C589 1.387 . S
C591 C593 1.390 . S
C591 H595 0.950 . S
H592 C588 0.950 . S
C593 C591 1.390 . S
C593 C594 1.387 . S
C593 H596 0.950 . S
C594 C593 1.387 . S
C594 C597 1.387 . S
H595 C591 0.950 . S
H596 C593 0.950 . S
C597 C588 1.390 . S
C597 H590 0.950 . S
C597 C594 1.387 . S
C598 C599 1.387 . S
C598 H602 0.950 1_556 S
C598 C607 1.390 . S
C599 C598 1.387 . S
C599 C601 1.387 . S
H600 C607 0.950 . S
C601 C599 1.387 . S
C601 C603 1.390 . S
C601 H605 0.950 . S
H602 C598 0.950 1_554 S
C603 C601 1.390 . S
C603 C604 1.387 . S
C603 H606 0.950 . S
C604 C603 1.387 . S
C604 C607 1.387 . S
H605 C601 0.950 . S
H606 C603 0.950 . S
C607 C598 1.390 . S
C607 H600 0.950 . S
C607 C604 1.387 . S
C608 C609 1.387 . S
C608 H612 0.950 . S
C608 C617 1.390 . S
C609 C608 1.387 . S
C609 C611 1.387 . S
H610 C617 0.950 1_554 S
C611 C609 1.387 . S
C611 C613 1.390 . S
C611 H615 0.950 . S
H612 C608 0.950 . S
C613 C611 1.390 . S
C613 C614 1.387 . S
C613 H616 0.950 . S
C614 C613 1.387 . S
C614 C617 1.387 . S
H615 C611 0.950 . S
H616 C613 0.950 . S
C617 C608 1.390 . S
C617 H610 0.950 1_556 S
C617 C614 1.387 . S
C618 C619 1.387 . S
C618 H622 0.950 . S
C618 C627 1.390 . S
C619 C618 1.387 . S
C619 C621 1.387 . S
H620 C627 0.950 . S
C621 C619 1.387 . S
C621 C623 1.390 . S
C621 H625 0.950 . S
H622 C618 0.950 . S
C623 C621 1.390 . S
C623 C624 1.387 . S
C623 H626 0.950 . S
C624 C623 1.387 . S
C624 C627 1.387 . S
H625 C621 0.950 . S
H626 C623 0.950 . S
C627 C618 1.390 . S
C627 H620 0.950 . S
C627 C624 1.387 . S
C628 C629 1.387 . S
C628 H632 0.950 . S
C628 C637 1.390 . S
C629 C628 1.387 . S
C629 C631 1.387 . S
H630 C637 0.950 . S
C631 C629 1.387 . S
C631 C633 1.390 . S
C631 H635 0.950 . S
H632 C628 0.950 . S
C633 C631 1.390 . S
C633 C634 1.387 . S
C633 H636 0.950 . S
C634 C633 1.387 . S
C634 C637 1.387 . S
H635 C631 0.950 . S
H636 C633 0.950 . S
C637 C628 1.390 . S
C637 H630 0.950 . S
C637 C634 1.387 . S
C638 C639 1.387 . S
C638 H642 0.950 . S
C638 C647 1.390 . S
C639 C638 1.387 . S
C639 C641 1.387 . S
H640 C647 0.950 . S
C641 C639 1.387 . S
C641 C643 1.390 . S
C641 H645 0.950 . S
H642 C638 0.950 . S
C643 C641 1.390 . S
C643 C644 1.387 . S
C643 H646 0.950 . S
C644 C643 1.387 . S
C644 C647 1.387 . S
H645 C641 0.950 . S
H646 C643 0.950 . S
C647 C638 1.390 . S
C647 H640 0.950 . S
C647 C644 1.387 . S
C648 C649 1.387 . S
C648 H652 0.950 . S
C648 C657 1.390 . S
C649 C648 1.387 . S
C649 C651 1.387 . S
H650 C657 0.950 . S
C651 C649 1.387 . S
C651 C653 1.390 . S
C651 H655 0.950 . S
H652 C648 0.950 . S
C653 C651 1.390 . S
C653 C654 1.387 . S
C653 H656 0.950 . S
C654 C653 1.387 . S
C654 C657 1.387 . S
H655 C651 0.950 . S
H656 C653 0.950 . S
C657 C648 1.390 . S
C657 H650 0.950 . S
C657 C654 1.387 . S
C658 C659 1.387 . S
C658 H662 0.950 . S
C658 C667 1.390 . S
C659 C658 1.387 . S
C659 C661 1.387 . S
H660 C667 0.950 . S
C661 C659 1.387 . S
C661 C663 1.390 . S
C661 H665 0.950 . S
H662 C658 0.950 . S
C663 C661 1.390 . S
C663 C664 1.387 . S
C663 H666 0.950 . S
C664 C663 1.387 . S
C664 C667 1.387 . S
H665 C661 0.950 . S
H666 C663 0.950 . S
C667 C658 1.390 . S
C667 H660 0.950 . S
C667 C664 1.387 . S
C668 C669 1.387 . S
C668 H672 0.950 . S
C668 C677 1.390 . S
C669 C668 1.387 . S
C669 C671 1.387 . S
H670 C677 0.950 . S
C671 C669 1.387 . S
C671 C673 1.390 . S
C671 H675 0.950 . S
H672 C668 0.950 . S
C673 C671 1.390 . S
C673 C674 1.387 . S
C673 H676 0.950 . S
C674 C673 1.387 . S
C674 C677 1.387 . S
H675 C671 0.950 . S
H676 C673 0.950 . S
C677 C668 1.390 . S
C677 H670 0.950 . S
C677 C674 1.387 . S
C678 C679 1.387 . S
C678 H682 0.950 . S
C678 C687 1.390 . S
C679 C678 1.387 . S
C679 C681 1.387 . S
H680 C687 0.950 . S
C681 C679 1.387 . S
C681 C683 1.390 . S
C681 H685 0.950 . S
H682 C678 0.950 . S
C683 C681 1.390 . S
C683 C684 1.387 . S
C683 H686 0.950 . S
C684 C683 1.387 . S
C684 C687 1.387 . S
H685 C681 0.950 . S
H686 C683 0.950 . S
C687 C678 1.390 . S
C687 H680 0.950 . S
C687 C684 1.387 . S
C688 C689 1.387 . S
C688 H692 0.950 . S
C688 C697 1.390 . S
C689 C688 1.387 . S
C689 C691 1.387 . S
H690 C697 0.950 . S
C691 C689 1.387 . S
C691 C693 1.390 . S
C691 H695 0.950 . S
H692 C688 0.950 . S
C693 C691 1.390 . S
C693 C694 1.387 . S
C693 H696 0.950 . S
C694 C693 1.387 . S
C694 C697 1.387 . S
H695 C691 0.950 . S
H696 C693 0.950 . S
C697 C688 1.390 . S
C697 H690 0.950 . S
C697 C694 1.387 . S
C698 C699 1.387 . S
C698 H702 0.950 . S
C698 C707 1.390 . S
C699 C698 1.387 . S
C699 C701 1.387 . S
H700 C707 0.950 . S
C701 C699 1.387 . S
C701 C703 1.390 . S
C701 H705 0.950 . S
H702 C698 0.950 . S
C703 C701 1.390 . S
C703 C704 1.387 . S
C703 H706 0.950 . S
C704 C703 1.387 . S
C704 C707 1.387 . S
H705 C701 0.950 . S
H706 C703 0.950 . S
C707 C698 1.390 . S
C707 H700 0.950 . S
C707 C704 1.387 . S
C708 C709 1.387 . S
C708 H712 0.950 . S
C708 C717 1.390 . S
C709 C708 1.387 . S
C709 C711 1.387 . S
H710 C717 0.950 . S
C711 C709 1.387 . S
C711 C713 1.390 . S
C711 H715 0.950 . S
H712 C708 0.950 . S
C713 C711 1.390 . S
C713 C714 1.387 . S
C713 H716 0.950 . S
C714 C713 1.387 . S
C714 C717 1.387 . S
H715 C711 0.950 . S
H716 C713 0.950 . S
C717 C708 1.390 . S
C717 H710 0.950 . S
C717 C714 1.387 . S
C718 C719 1.387 . S
C718 H722 0.950 . S
C718 C727 1.390 . S
C719 C718 1.387 . S
C719 C721 1.387 . S
H720 C727 0.950 . S
C721 C719 1.387 . S
C721 C723 1.390 . S
C721 H725 0.950 . S
H722 C718 0.950 . S
C723 C721 1.390 . S
C723 C724 1.387 . S
C723 H726 0.950 . S
C724 C723 1.387 . S
C724 C727 1.387 . S
H725 C721 0.950 . S
H726 C723 0.950 . S
C727 C718 1.390 . S
C727 H720 0.950 . S
C727 C724 1.387 . S
C728 C729 1.387 . S
C728 H732 0.950 . S
C728 C737 1.390 . S
C729 C728 1.387 . S
C729 C731 1.387 . S
H730 C737 0.950 . S
C731 C729 1.387 . S
C731 C733 1.390 . S
C731 H735 0.950 . S
H732 C728 0.950 . S
C733 C731 1.390 . S
C733 C734 1.387 . S
C733 H736 0.950 . S
C734 C733 1.387 . S
C734 C737 1.387 . S
H735 C731 0.950 . S
H736 C733 0.950 . S
C737 C728 1.390 . S
C737 H730 0.950 . S
C737 C734 1.387 . S
C738 C739 1.387 . S
C738 H742 0.950 . S
C738 C747 1.390 . S
C739 C738 1.387 . S
C739 C741 1.387 . S
H740 C747 0.950 . S
C741 C739 1.387 . S
C741 C743 1.390 . S
C741 H745 0.950 . S
H742 C738 0.950 . S
C743 C741 1.390 . S
C743 C744 1.387 . S
C743 H746 0.950 . S
C744 C743 1.387 . S
C744 C747 1.387 . S
H745 C741 0.950 . S
H746 C743 0.950 . S
C747 C738 1.390 . S
C747 H740 0.950 . S
C747 C744 1.387 . S
C748 C749 1.387 . S
C748 H752 0.950 . S
C748 C757 1.390 . S
C749 C748 1.387 . S
C749 C751 1.387 . S
H750 C757 0.950 . S
C751 C749 1.387 . S
C751 C753 1.390 . S
C751 H755 0.950 . S
H752 C748 0.950 . S
C753 C751 1.390 . S
C753 C754 1.387 . S
C753 H756 0.950 . S
C754 C753 1.387 . S
C754 C757 1.387 . S
H755 C751 0.950 . S
H756 C753 0.950 . S
C757 C748 1.390 . S
C757 H750 0.950 . S
C757 C754 1.387 . S
C758 C759 1.387 . S
C758 H762 0.950 . S
C758 C767 1.390 . S
C759 C758 1.387 . S
C759 C761 1.387 . S
H760 C767 0.950 . S
C761 C759 1.387 . S
C761 C763 1.390 . S
C761 H765 0.950 . S
H762 C758 0.950 . S
C763 C761 1.390 . S
C763 C764 1.387 . S
C763 H766 0.950 . S
C764 C763 1.387 . S
C764 C767 1.387 . S
H765 C761 0.950 . S
H766 C763 0.950 . S
C767 C758 1.390 . S
C767 H760 0.950 . S
C767 C764 1.387 . S
C768 C769 1.387 . S
C768 H772 0.950 . S
C768 C777 1.390 . S
C769 C768 1.387 . S
C769 C771 1.387 . S
H770 C777 0.950 . S
C771 C769 1.387 . S
C771 C773 1.390 . S
C771 H775 0.950 . S
H772 C768 0.950 . S
C773 C771 1.390 . S
C773 C774 1.387 . S
C773 H776 0.950 . S
C774 C773 1.387 . S
C774 C777 1.387 . S
H775 C771 0.950 . S
H776 C773 0.950 . S
C777 C768 1.390 . S
C777 H770 0.950 . S
C777 C774 1.387 . S
C778 C779 1.387 . S
C778 H782 0.950 . S
C778 C787 1.390 . S
C779 C778 1.387 . S
C779 C781 1.387 . S
H780 C787 0.950 . S
C781 C779 1.387 . S
C781 C783 1.390 . S
C781 H785 0.950 . S
H782 C778 0.950 . S
C783 C781 1.390 . S
C783 C784 1.387 . S
C783 H786 0.950 . S
C784 C783 1.387 . S
C784 C787 1.387 . S
H785 C781 0.950 . S
H786 C783 0.950 . S
C787 C778 1.390 . S
C787 H780 0.950 . S
C787 C784 1.387 . S
C788 C789 1.387 . S
C788 H792 0.950 . S
C788 C797 1.390 . S
C789 C788 1.387 . S
C789 C791 1.387 . S
H790 C797 0.950 . S
C791 C789 1.387 . S
C791 C793 1.390 . S
C791 H795 0.950 . S
H792 C788 0.950 . S
C793 C791 1.390 . S
C793 C794 1.387 . S
C793 H796 0.950 . S
C794 C793 1.387 . S
C794 C797 1.387 . S
H795 C791 0.950 . S
H796 C793 0.950 . S
C797 C788 1.390 . S
C797 H790 0.950 . S
C797 C794 1.387 . S
C798 C799 1.387 . S
C798 H802 0.950 . S
C798 C807 1.390 1_556 S
C799 C798 1.387 . S
C799 C801 1.387 . S
H800 C807 0.950 . S
C801 C799 1.387 . S
C801 C803 1.390 1_556 S
C801 H805 0.950 . S
H802 C798 0.950 . S
C803 C801 1.390 1_554 S
C803 C804 1.387 . S
C803 H806 0.950 . S
C804 C803 1.387 . S
C804 C807 1.387 . S
H805 C801 0.950 . S
H806 C803 0.950 . S
C807 C798 1.390 1_554 S
C807 H800 0.950 . S
C807 C804 1.387 . S
C808 C809 1.387 . S
C808 H812 0.950 . S
C808 C817 1.390 . S
C809 C808 1.387 . S
C809 C811 1.387 1_556 S
H810 C817 0.950 . S
C811 C809 1.387 1_554 S
C811 C813 1.390 . S
C811 H815 0.950 . S
H812 C808 0.950 . S
C813 C811 1.390 . S
C813 C814 1.387 . S
C813 H816 0.950 . S
C814 C813 1.387 . S
C814 C817 1.387 1_554 S
H815 C811 0.950 . S
H816 C813 0.950 . S
C817 C808 1.390 . S
C817 H810 0.950 . S
C817 C814 1.387 1_556 S
C818 C819 1.387 1_554 S
C818 H822 0.950 . S
C818 C827 1.390 . S
C819 C818 1.387 1_556 S
C819 C821 1.387 . S
H820 C827 0.950 . S
C821 C819 1.387 . S
C821 C823 1.386 1_556 S
C821 H825 0.950 . S
H822 C818 0.950 . S
C823 C821 1.386 1_554 S
C823 C824 1.391 . S
C823 H826 0.950 1_554 S
C824 C823 1.391 . S
C824 C827 1.387 . S
H825 C821 0.950 . S
H826 C823 0.950 1_556 S
C827 C818 1.390 . S
C827 H820 0.950 . S
C827 C824 1.387 . S
C828 C829 1.387 . S
C828 H832 0.950 . S
C828 C837 1.390 . S
C829 C828 1.387 . S
C829 C831 1.387 . S
H830 C837 0.950 . S
C831 C829 1.387 . S
C831 C833 1.390 . S
C831 H835 0.950 . S
H832 C828 0.950 . S
C833 C831 1.390 . S
C833 C834 1.387 . S
C833 H836 0.950 . S
C834 C833 1.387 . S
C834 C837 1.387 . S
H835 C831 0.950 . S
H836 C833 0.950 . S
C837 C828 1.390 . S
C837 H830 0.950 . S
C837 C834 1.387 . S
C838 C839 1.387 . S
C838 H842 0.950 . S
C838 C847 1.390 . S
C839 C838 1.387 . S
C839 C841 1.387 . S
H840 C847 0.950 . S
C841 C839 1.387 . S
C841 C843 1.390 . S
C841 H845 0.950 . S
H842 C838 0.950 . S
C843 C841 1.390 . S
C843 C844 1.387 . S
C843 H846 0.950 . S
C844 C843 1.387 . S
C844 C847 1.387 . S
H845 C841 0.950 . S
H846 C843 0.950 . S
C847 C838 1.390 . S
C847 H840 0.950 . S
C847 C844 1.387 . S
C848 C849 1.387 . S
C848 H852 0.950 . S
C848 C857 1.390 . S
C849 C848 1.387 . S
C849 C851 1.387 . S
H850 C857 0.950 . S
C851 C849 1.387 . S
C851 C853 1.390 . S
C851 H855 0.950 . S
H852 C848 0.950 . S
C853 C851 1.390 . S
C853 C854 1.387 . S
C853 H856 0.950 . S
C854 C853 1.387 . S
C854 C857 1.387 . S
H855 C851 0.950 . S
H856 C853 0.950 . S
C857 C848 1.390 . S
C857 H850 0.950 . S
C857 C854 1.387 . S
C858 C859 1.387 . S
C858 H862 0.950 . S
C858 C867 1.390 . S
C859 C858 1.387 . S
C859 C861 1.387 . S
H860 C867 0.950 . S
C861 C859 1.387 . S
C861 C863 1.390 . S
C861 H865 0.950 . S
H862 C858 0.950 . S
C863 C861 1.390 . S
C863 C864 1.387 . S
C863 H866 0.950 . S
C864 C863 1.387 . S
C864 C867 1.387 . S
H865 C861 0.950 . S
H866 C863 0.950 . S
C867 C858 1.390 . S
C867 H860 0.950 . S
C867 C864 1.387 . S
C868 C869 1.387 . S
C868 H872 0.950 . S
C868 C877 1.390 . S
C869 C868 1.387 . S
C869 C871 1.387 . S
H870 C877 0.950 . S
C871 C869 1.387 . S
C871 C873 1.390 . S
C871 H875 0.950 . S
H872 C868 0.950 . S
C873 C871 1.390 . S
C873 C874 1.387 . S
C873 H876 0.950 . S
C874 C873 1.387 . S
C874 C877 1.387 . S
H875 C871 0.950 . S
H876 C873 0.950 . S
C877 C868 1.390 . S
C877 H870 0.950 . S
C877 C874 1.387 . S
C878 C879 1.387 . S
C878 H882 0.950 . S
C878 C887 1.390 . S
C879 C878 1.387 . S
C879 C881 1.387 . S
H880 C887 0.950 . S
C881 C879 1.387 . S
C881 C883 1.390 . S
C881 H885 0.950 . S
H882 C878 0.950 . S
C883 C881 1.390 . S
C883 C884 1.387 . S
C883 H886 0.950 . S
C884 C883 1.387 . S
C884 C887 1.387 . S
H885 C881 0.950 . S
H886 C883 0.950 . S
C887 C878 1.390 . S
C887 H880 0.950 . S
C887 C884 1.387 . S
C888 C889 1.387 . S
C888 H892 0.950 . S
C888 C897 1.390 . S
C889 C888 1.387 . S
C889 C891 1.387 . S
H890 C897 0.950 . S
C891 C889 1.387 . S
C891 C893 1.390 . S
C891 H895 0.950 . S
H892 C888 0.950 . S
C893 C891 1.390 . S
C893 C894 1.387 . S
C893 H896 0.950 . S
C894 C893 1.387 . S
C894 C897 1.387 . S
H895 C891 0.950 . S
H896 C893 0.950 . S
C897 C888 1.390 . S
C897 H890 0.950 . S
C897 C894 1.387 . S
C898 C899 1.387 . S
C898 H902 0.950 . S
C898 C907 1.390 . S
C899 C898 1.387 . S
C899 C901 1.387 . S
H900 C907 0.950 . S
C901 C899 1.387 . S
C901 C903 1.390 . S
C901 H905 0.950 . S
H902 C898 0.950 . S
C903 C901 1.390 . S
C903 C904 1.387 . S
C903 H906 0.950 . S
C904 C903 1.387 . S
C904 C907 1.387 . S
H905 C901 0.950 . S
H906 C903 0.950 . S
C907 C898 1.390 . S
C907 H900 0.950 . S
C907 C904 1.387 . S
C908 C909 1.387 . S
C908 H912 0.950 . S
C908 C917 1.390 . S
C909 C908 1.387 . S
C909 C911 1.387 . S
H910 C917 0.950 . S
C911 C909 1.387 . S
C911 C913 1.390 . S
C911 H915 0.950 . S
H912 C908 0.950 . S
C913 C911 1.390 . S
C913 C914 1.387 . S
C913 H916 0.950 . S
C914 C913 1.387 . S
C914 C917 1.387 . S
H915 C911 0.950 . S
H916 C913 0.950 . S
C917 C908 1.390 . S
C917 H910 0.950 . S
C917 C914 1.387 . S
C918 C919 1.387 . S
C918 H922 0.950 . S
C918 C927 1.390 . S
C919 C918 1.387 . S
C919 C921 1.387 . S
H920 C927 0.950 . S
C921 C919 1.387 . S
C921 C923 1.390 . S
C921 H925 0.950 . S
H922 C918 0.950 . S
C923 C921 1.390 . S
C923 C924 1.387 . S
C923 H926 0.950 . S
C924 C923 1.387 . S
C924 C927 1.387 . S
H925 C921 0.950 . S
H926 C923 0.950 . S
C927 C918 1.390 . S
C927 H920 0.950 . S
C927 C924 1.387 . S
C928 C929 1.387 . S
C928 H932 0.950 . S
C928 C937 1.390 . S
C929 C928 1.387 . S
C929 C931 1.387 . S
H930 C937 0.950 . S
C931 C929 1.387 . S
C931 C933 1.390 . S
C931 H935 0.950 . S
H932 C928 0.950 . S
C933 C931 1.390 . S
C933 C934 1.387 . S
C933 H936 0.950 . S
C934 C933 1.387 . S
C934 C937 1.387 . S
H935 C931 0.950 . S
H936 C933 0.950 . S
C937 C928 1.390 . S
C937 H930 0.950 . S
C937 C934 1.387 . S
C938 C939 1.387 . S
C938 H942 0.950 . S
C938 C947 1.390 . S
C939 C938 1.387 . S
C939 C941 1.387 . S
H940 C947 0.950 . S
C941 C939 1.387 . S
C941 C943 1.390 . S
C941 H945 0.950 . S
H942 C938 0.950 . S
C943 C941 1.390 . S
C943 C944 1.387 . S
C943 H946 0.950 . S
C944 C943 1.387 . S
C944 C947 1.387 . S
H945 C941 0.950 . S
H946 C943 0.950 . S
C947 C938 1.390 . S
C947 H940 0.950 . S
C947 C944 1.387 . S
C948 C949 1.387 . S
C948 H952 0.950 . S
C948 C957 1.390 . S
C949 C948 1.387 . S
C949 C951 1.387 . S
H950 C957 0.950 . S
C951 C949 1.387 . S
C951 C953 1.390 . S
C951 H955 0.950 . S
H952 C948 0.950 . S
C953 C951 1.390 . S
C953 C954 1.387 . S
C953 H956 0.950 . S
C954 C953 1.387 . S
C954 C957 1.387 . S
H955 C951 0.950 . S
H956 C953 0.950 . S
C957 C948 1.390 . S
C957 H950 0.950 . S
C957 C954 1.387 . S
C958 C959 1.387 . S
C958 H962 0.950 . S
C958 C967 1.390 . S
C959 C958 1.387 . S
C959 C961 1.387 . S
H960 C967 0.950 . S
C961 C959 1.387 . S
C961 C963 1.390 . S
C961 H965 0.950 . S
H962 C958 0.950 . S
C963 C961 1.390 . S
C963 C964 1.387 . S
C963 H966 0.950 . S
C964 C963 1.387 . S
C964 C967 1.387 . S
H965 C961 0.950 . S
H966 C963 0.950 . S
C967 C958 1.390 . S
C967 H960 0.950 . S
C967 C964 1.387 . S
C968 C969 1.387 . S
C968 H972 0.950 . S
C968 C977 1.390 . S
C969 C968 1.387 . S
C969 C971 1.387 . S
H970 C977 0.950 . S
C971 C969 1.387 . S
C971 C973 1.390 . S
C971 H975 0.950 . S
H972 C968 0.950 . S
C973 C971 1.390 . S
C973 C974 1.387 . S
C973 H976 0.950 . S
C974 C973 1.387 . S
C974 C977 1.387 . S
H975 C971 0.950 . S
H976 C973 0.950 . S
C977 C968 1.390 . S
C977 H970 0.950 . S
C977 C974 1.387 . S
C978 C979 1.387 . S
C978 H982 0.950 . S
C978 C987 1.390 1_556 S
C979 C978 1.387 . S
C979 C981 1.387 . S
H980 C987 0.950 . S
C981 C979 1.387 . S
C981 C983 1.390 1_556 S
C981 H985 0.950 . S
H982 C978 0.950 . S
C983 C981 1.390 1_554 S
C983 C984 1.387 . S
C983 H986 0.950 . S
C984 C983 1.387 . S
C984 C987 1.387 . S
H985 C981 0.950 . S
H986 C983 0.950 . S
C987 C978 1.390 1_554 S
C987 H980 0.950 . S
C987 C984 1.387 . S
C988 C989 1.387 . S
C988 H992 0.950 . S
C988 C997 1.390 1_556 S
C989 C988 1.387 . S
C989 C991 1.387 . S
H990 C997 0.950 . S
C991 C989 1.387 . S
C991 C993 1.390 1_556 S
C991 H995 0.950 . S
H992 C988 0.950 . S
C993 C991 1.390 1_554 S
C993 C994 1.387 . S
C993 H996 0.950 . S
C994 C993 1.387 . S
C994 C997 1.387 . S
H995 C991 0.950 . S
H996 C993 0.950 . S
C997 C988 1.390 1_554 S
C997 H990 0.950 . S
C997 C994 1.387 . S
C998 C999 1.387 . S
C998 H1002 0.950 . S
C998 C1007 1.390 . S
C999 C998 1.387 . S
C999 C1001 1.387 1_556 S
H1000 C1007 0.950 . S
C1001 C999 1.387 1_554 S
C1001 C1003 1.390 . S
C1001 H1005 0.950 . S
H1002 C998 0.950 . S
C1003 C1001 1.390 . S
C1003 C1004 1.387 . S
C1003 H1006 0.950 . S
C1004 C1003 1.387 . S
C1004 C1007 1.387 1_554 S
H1005 C1001 0.950 . S
H1006 C1003 0.950 . S
C1007 C998 1.390 . S
C1007 H1000 0.950 . S
C1007 C1004 1.387 1_556 S
C1008 C1009 1.387 . S
C1008 H1012 0.950 . S
C1008 C1017 1.390 . S
C1009 C1008 1.387 . S
C1009 C1011 1.387 . S
H1010 C1017 0.950 1_554 S
C1011 C1009 1.387 . S
C1011 C1013 1.390 . S
C1011 H1015 0.950 . S
H1012 C1008 0.950 . S
C1013 C1011 1.390 . S
C1013 C1014 1.387 . S
C1013 H1016 0.950 . S
C1014 C1013 1.387 . S
C1014 C1017 1.387 . S
H1015 C1011 0.950 . S
H1016 C1013 0.950 . S
C1017 C1008 1.390 . S
C1017 H1010 0.950 1_556 S
C1017 C1014 1.387 . S
C1018 C1019 1.387 . S
C1018 H1022 0.950 1_556 S
C1018 C1027 1.390 . S
C1019 C1018 1.387 . S
C1019 C1021 1.387 . S
H1020 C1027 0.950 . S
C1021 C1019 1.387 . S
C1021 C1023 1.390 . S
C1021 H1025 0.950 . S
H1022 C1018 0.950 1_554 S
C1023 C1021 1.390 . S
C1023 C1024 1.387 . S
C1023 H1026 0.950 . S
C1024 C1023 1.387 . S
C1024 C1027 1.387 . S
H1025 C1021 0.950 . S
H1026 C1023 0.950 . S
C1027 C1018 1.390 . S
C1027 H1020 0.950 . S
C1027 C1024 1.387 . S
C1028 C1029 1.387 . S
C1028 H1032 0.950 . S
C1028 C1037 1.390 . S
C1029 C1028 1.387 . S
C1029 C1031 1.387 . S
H1030 C1037 0.950 . S
C1031 C1029 1.387 . S
C1031 C1033 1.390 . S
C1031 H1035 0.950 . S
H1032 C1028 0.950 . S
C1033 C1031 1.390 . S
C1033 C1034 1.387 . S
C1033 H1036 0.950 . S
C1034 C1033 1.387 . S
C1034 C1037 1.387 . S
H1035 C1031 0.950 . S
H1036 C1033 0.950 . S
C1037 C1028 1.390 . S
C1037 H1030 0.950 . S
C1037 C1034 1.387 . S
C1038 C1039 1.387 . S
C1038 H1042 0.950 . S
C1038 C1047 1.390 . S
C1039 C1038 1.387 . S
C1039 C1041 1.387 . S
H1040 C1047 0.950 . S
C1041 C1039 1.387 . S
C1041 C1043 1.390 . S
C1041 H1045 0.950 . S
H1042 C1038 0.950 . S
C1043 C1041 1.390 . S
C1043 C1044 1.387 . S
C1043 H1046 0.950 . S
C1044 C1043 1.387 . S
C1044 C1047 1.387 . S
H1045 C1041 0.950 . S
H1046 C1043 0.950 . S
C1047 C1038 1.390 . S
C1047 H1040 0.950 . S
C1047 C1044 1.387 . S
C1048 C1049 1.387 . S
C1048 H1052 0.950 . S
C1048 C1057 1.390 . S
C1049 C1048 1.387 . S
C1049 C1051 1.387 . S
H1050 C1057 0.950 . S
C1051 C1049 1.387 . S
C1051 C1053 1.390 . S
C1051 H1055 0.950 . S
H1052 C1048 0.950 . S
C1053 C1051 1.390 . S
C1053 C1054 1.387 . S
C1053 H1056 0.950 . S
C1054 C1053 1.387 . S
C1054 C1057 1.387 . S
H1055 C1051 0.950 . S
H1056 C1053 0.950 . S
C1057 C1048 1.390 . S
C1057 H1050 0.950 . S
C1057 C1054 1.387 . S
C1058 C1059 1.387 . S
C1058 H1062 0.950 . S
C1058 C1067 1.390 . S
C1059 C1058 1.387 . S
C1059 C1061 1.387 . S
H1060 C1067 0.950 . S
C1061 C1059 1.387 . S
C1061 C1063 1.390 . S
C1061 H1065 0.950 . S
H1062 C1058 0.950 . S
C1063 C1061 1.390 . S
C1063 C1064 1.387 . S
C1063 H1066 0.950 . S
C1064 C1063 1.387 . S
C1064 C1067 1.387 . S
H1065 C1061 0.950 . S
H1066 C1063 0.950 . S
C1067 C1058 1.390 . S
C1067 H1060 0.950 . S
C1067 C1064 1.387 . S
C1068 C1069 1.387 . S
C1068 H1072 0.950 1_554 S
C1068 C1077 1.390 . S
C1069 C1068 1.387 . S
C1069 C1071 1.387 . S
H1070 C1077 0.950 . S
C1071 C1069 1.387 . S
C1071 C1073 1.390 . S
C1071 H1075 0.950 . S
H1072 C1068 0.950 1_556 S
C1073 C1071 1.390 . S
C1073 C1074 1.387 . S
C1073 H1076 0.950 . S
C1074 C1073 1.387 . S
C1074 C1077 1.387 . S
H1075 C1071 0.950 . S
H1076 C1073 0.950 . S
C1077 C1068 1.390 . S
C1077 H1070 0.950 . S
C1077 C1074 1.387 . S
C1078 C1079 1.387 . S
C1078 H1082 0.950 . S
C1078 C1087 1.390 . S
C1079 C1078 1.387 . S
C1079 C1081 1.387 . S
H1080 C1087 0.950 . S
C1081 C1079 1.387 . S
C1081 C1083 1.390 . S
C1081 H1085 0.950 . S
H1082 C1078 0.950 . S
C1083 C1081 1.390 . S
C1083 C1084 1.387 . S
C1083 H1086 0.950 1_554 S
C1084 C1083 1.387 . S
C1084 C1087 1.387 . S
H1085 C1081 0.950 . S
H1086 C1083 0.950 1_556 S
C1087 C1078 1.390 . S
C1087 H1080 0.950 . S
C1087 C1084 1.387 . S
C1088 C1089 1.387 . S
C1088 H1092 0.950 . S
C1088 C1097 1.390 . S
C1089 C1088 1.387 . S
C1089 C1091 1.387 . S
H1090 C1097 0.950 . S
C1091 C1089 1.387 . S
C1091 C1093 1.390 . S
C1091 H1095 0.950 . S
H1092 C1088 0.950 . S
C1093 C1091 1.390 . S
C1093 C1094 1.387 . S
C1093 H1096 0.950 . S
C1094 C1093 1.387 . S
C1094 C1097 1.387 . S
H1095 C1091 0.950 . S
H1096 C1093 0.950 . S
C1097 C1088 1.390 . S
C1097 H1090 0.950 . S
C1097 C1094 1.387 . S
C1098 C1099 1.387 . S
C1098 H1102 0.950 . S
C1098 C1107 1.390 . S
C1099 C1098 1.387 . S
C1099 C1101 1.387 . S
H1100 C1107 0.950 . S
C1101 C1099 1.387 . S
C1101 C1103 1.390 . S
C1101 H1105 0.950 . S
H1102 C1098 0.950 . S
C1103 C1101 1.390 . S
C1103 C1104 1.387 . S
C1103 H1106 0.950 . S
C1104 C1103 1.387 . S
C1104 C1107 1.387 . S
H1105 C1101 0.950 . S
H1106 C1103 0.950 . S
C1107 C1098 1.390 . S
C1107 H1100 0.950 . S
C1107 C1104 1.387 . S
C1108 C1109 1.387 . S
C1108 H1112 0.950 . S
C1108 C1117 1.390 . S
C1109 C1108 1.387 . S
C1109 C1111 1.387 . S
H1110 C1117 0.950 . S
C1111 C1109 1.387 . S
C1111 C1113 1.390 . S
C1111 H1115 0.950 . S
H1112 C1108 0.950 . S
C1113 C1111 1.390 . S
C1113 C1114 1.387 . S
C1113 H1116 0.950 . S
C1114 C1113 1.387 . S
C1114 C1117 1.387 . S
H1115 C1111 0.950 . S
H1116 C1113 0.950 . S
C1117 C1108 1.390 . S
C1117 H1110 0.950 . S
C1117 C1114 1.387 . S
C1118 C1119 1.387 . S
C1118 H1122 0.950 . S
C1118 C1127 1.390 . S
C1119 C1118 1.387 . S
C1119 C1121 1.387 . S
H1120 C1127 0.950 . S
C1121 C1119 1.387 . S
C1121 C1123 1.390 . S
C1121 H1125 0.950 . S
H1122 C1118 0.950 . S
C1123 C1121 1.390 . S
C1123 C1124 1.387 . S
C1123 H1126 0.950 . S
C1124 C1123 1.387 . S
C1124 C1127 1.387 . S
H1125 C1121 0.950 . S
H1126 C1123 0.950 . S
C1127 C1118 1.390 . S
C1127 H1120 0.950 . S
C1127 C1124 1.387 . S
C1128 C1129 1.387 . S
C1128 H1132 0.950 . S
C1128 C1137 1.374 1_655 S
C1129 C1128 1.387 . S
C1129 C1131 1.400 . S
H1130 C1137 0.947 . S
C1131 C1129 1.400 . S
C1131 C1133 1.374 1_655 S
C1131 H1135 0.947 . S
H1132 C1128 0.950 . S
C1133 C1131 1.374 1_455 S
C1133 C1134 1.387 . S
C1133 H1136 0.950 . S
C1134 C1133 1.387 . S
C1134 C1137 1.400 . S
H1135 C1131 0.947 . S
H1136 C1133 0.950 . S
C1137 C1128 1.374 1_455 S
C1137 H1130 0.947 . S
C1137 C1134 1.400 . S
C1138 C1139 1.387 . S
C1138 H1142 0.950 . S
C1138 C1147 1.390 . S
C1139 C1138 1.387 . S
C1139 C1141 1.387 . S
H1140 C1147 0.950 . S
C1141 C1139 1.387 . S
C1141 C1143 1.390 . S
C1141 H1145 0.950 . S
H1142 C1138 0.950 . S
C1143 C1141 1.390 . S
C1143 C1144 1.387 . S
C1143 H1146 0.950 . S
C1144 C1143 1.387 . S
C1144 C1147 1.387 . S
H1145 C1141 0.950 . S
H1146 C1143 0.950 . S
C1147 C1138 1.390 . S
C1147 H1140 0.950 . S
C1147 C1144 1.387 . S
C1148 C1149 1.387 . S
C1148 H1152 0.950 . S
C1148 C1157 1.390 1_565 S
C1149 C1148 1.387 . S
C1149 C1151 1.387 . S
H1150 C1157 0.950 . S
C1151 C1149 1.387 . S
C1151 C1153 1.390 1_565 S
C1151 H1155 0.950 . S
H1152 C1148 0.950 . S
C1153 C1151 1.390 1_545 S
C1153 C1154 1.387 . S
C1153 H1156 0.950 . S
C1154 C1153 1.387 . S
C1154 C1157 1.387 . S
H1155 C1151 0.950 . S
H1156 C1153 0.950 . S
C1157 C1148 1.390 1_545 S
C1157 H1150 0.950 . S
C1157 C1154 1.387 . S
C1158 C1159 1.387 . S
C1158 H1162 0.950 . S
C1158 C1167 1.390 1_545 S
C1159 C1158 1.387 . S
C1159 C1161 1.387 . S
H1160 C1167 0.950 . S
C1161 C1159 1.387 . S
C1161 C1163 1.390 1_545 S
C1161 H1165 0.950 . S
H1162 C1158 0.950 . S
C1163 C1161 1.390 1_565 S
C1163 C1164 1.387 . S
C1163 H1166 0.950 . S
C1164 C1163 1.387 . S
C1164 C1167 1.387 . S
H1165 C1161 0.950 . S
H1166 C1163 0.950 . S
C1167 C1158 1.390 1_565 S
C1167 H1160 0.950 . S
C1167 C1164 1.387 . S
C1168 C1169 1.387 . S
C1168 H1172 0.950 . S
C1168 C1177 1.390 1_455 S
C1169 C1168 1.387 . S
C1169 C1171 1.387 . S
H1170 C1177 0.950 . S
C1171 C1169 1.387 . S
C1171 C1173 1.390 1_455 S
C1171 H1175 0.950 . S
H1172 C1168 0.950 . S
C1173 C1171 1.390 1_655 S
C1173 C1174 1.387 . S
C1173 H1176 0.950 . S
C1174 C1173 1.387 . S
C1174 C1177 1.387 . S
H1175 C1171 0.950 . S
H1176 C1173 0.950 . S
C1177 C1168 1.390 1_655 S
C1177 H1170 0.950 . S
C1177 C1174 1.387 . S
C1178 C1179 1.387 . S
C1178 H1182 0.950 . S
C1178 C1187 1.390 . S
C1179 C1178 1.387 . S
C1179 C1181 1.387 . S
H1180 C1187 0.950 . S
C1181 C1179 1.387 . S
C1181 C1183 1.390 . S
C1181 H1185 0.950 . S
H1182 C1178 0.950 . S
C1183 C1181 1.390 . S
C1183 C1184 1.387 . S
C1183 H1186 0.950 . S
C1184 C1183 1.387 . S
C1184 C1187 1.387 . S
H1185 C1181 0.950 . S
H1186 C1183 0.950 . S
C1187 C1178 1.390 . S
C1187 H1180 0.950 . S
C1187 C1184 1.387 . S
C469 C75 1.265 . S
C474 C4 1.265 . S
C479 C17 1.262 . S
C484 C49 1.262 . S
C489 C62 1.265 . S
C494 C36 1.265 . S
C499 C82 1.262 . S
C504 C147 1.262 . S
C509 C95 1.263 . S
C514 C121 1.263 . S
C519 C134 1.263 . S
C524 C114 1.262 . S
C529 C225 1.265 . S
C534 C160 1.265 . S
C539 C179 1.264 . S
C544 C205 1.265 . S
C549 C218 1.264 . S
C554 C192 1.265 . S
C559 C238 1.265 . S
C564 C309 1.265 1_554 S
C569 C257 1.263 . S
C574 C277 1.262 1_554 S
C579 C264 1.265 . S
C584 C290 1.265 1_554 S
C589 C316 1.265 . S
C594 C387 1.265 1_556 S
C599 C361 1.263 1_556 S
C604 C329 1.263 . S
C609 C342 1.265 . S
C614 C374 1.265 1_556 S
C619 C400 1.265 . S
C624 C465 1.265 . S
C629 C407 1.264 . S
C634 C439 1.265 . S
C639 C420 1.264 . S
C644 C452 1.264 . S
C649 C140 1.446 . S
C654 C5 1.432 . S
C659 C153 1.447 . S
C664 C18 1.430 . S
C669 C127 1.447 . S
C674 C29 1.431 . S
C679 C108 1.446 . S
C684 C42 1.431 . S
C689 C55 1.432 . S
C694 C88 1.447 . S
C699 C68 1.430 . S
C704 C101 1.447 . S
C709 C83 1.430 . S
C714 C56 1.447 . S
C719 C96 1.430 . S
C724 C69 1.447 . S
C729 C107 1.431 . S
C734 C43 1.447 . S
C739 C30 1.447 . S
C744 C122 1.431 . S
C749 C10 1.447 . S
C754 C135 1.431 . S
C759 C148 1.431 . S
C764 C23 1.446 . S
C769 C161 1.432 . S
C774 C296 1.446 . S
C779 C172 1.431 . S
C784 C303 1.447 . S
C789 C283 1.447 . S
C794 C185 1.431 . S
C799 C198 1.431 . S
C804 C270 1.446 . S
C809 C211 1.432 . S
C814 C244 1.447 . S
C819 C226 1.431 . S
C824 C251 1.447 . S
C829 C239 1.430 . S
C834 C212 1.447 . S
C839 C231 1.447 . S
C844 C250 1.431 . S
C849 C199 1.447 . S
C854 C265 1.431 . S
C859 C278 1.432 . S
C864 C186 1.447 . S
C869 C166 1.447 . S
C874 C291 1.432 . S
C879 C173 1.447 . S
C884 C302 1.431 . S
C889 C446 1.447 . S
C894 C317 1.431 . S
C899 C330 1.432 . S
C904 C459 1.447 . S
C909 C343 1.432 . S
C914 C433 1.447 . S
C919 C426 1.446 . S
C924 C354 1.431 . S
C929 C394 1.447 . S
C934 C367 1.432 . S
C939 C413 1.447 . S
C944 C380 1.431 . S
C949 C393 1.432 . S
C954 C368 1.447 . S
C959 C381 1.446 . S
C964 C408 1.432 . S
C969 C421 1.431 . S
C974 C355 1.447 . S
C979 C348 1.447 . S
C984 C432 1.431 . S
C989 C322 1.447 . S
C994 C445 1.432 . S
C999 C335 1.447 . S
C1004 C458 1.432 . S
C1009 C213 1.462 . S
C1014 C3 1.461 . S
C1019 C16 1.461 . S
C1024 C224 1.463 . S
C1029 C200 1.462 . S
C1034 C31 1.462 . S
C1039 C341 1.462 . S
C1044 C44 1.462 . S
C1049 C57 1.462 . S
C1054 C315 1.462 . S
C1059 C70 1.463 . S
C1064 C328 1.461 . S
C1069 C81 1.462 . S
C1074 C447 1.461 . S
C1079 C460 1.462 . S
C1084 C94 1.462 . S
C1089 C434 1.462 . S
C1094 C109 1.462 . S
C1099 C263 1.462 . S
C1104 C120 1.462 . S
C1109 C133 1.462 . S
C1114 C237 1.462 . S
C1119 C146 1.462 . S
C1124 C252 1.462 . S
C1129 C159 1.463 . S
C1134 C369 1.461 . S
C1139 C382 1.461 . S
C1144 C174 1.463 . S
C1149 C356 1.462 . S
C1154 C187 1.462 . S
C1159 C276 1.462 . S
C1164 C419 1.462 . S
C1169 C395 1.463 . S
C1174 C289 1.461 . S
C1179 C406 1.463 . S
C1184 C304 1.461 . S
