# Generated by pormake.
# Topology wkb, (5)-cn, num edge types: 1
# Building blocks:
#     Node 0, Type 0, BuildingBlock: BEQFEK_clean_sbu_0, # of connection points: 5
#     Node 1, Type 0, BuildingBlock: BEQFEK_clean_sbu_0, # of connection points: 5
#     Node 2, Type 0, BuildingBlock: BEQFEK_clean_sbu_0, # of connection points: 5
#     Node 3, Type 0, BuildingBlock: BEQFEK_clean_sbu_0, # of connection points: 5
#     Node 4, Type 0, BuildingBlock: BEQFEK_clean_sbu_0, # of connection points: 5
#     Node 5, Type 0, BuildingBlock: BEQFEK_clean_sbu_0, # of connection points: 5
#     Node 6, Type 0, BuildingBlock: BEQFEK_clean_sbu_0, # of connection points: 5
#     Node 7, Type 0, BuildingBlock: BEQFEK_clean_sbu_0, # of connection points: 5
#     Node 8, Type 0, BuildingBlock: BEQFEK_clean_sbu_0, # of connection points: 5
#     Node 9, Type 0, BuildingBlock: BEQFEK_clean_sbu_0, # of connection points: 5
#     Node 10, Type 0, BuildingBlock: BEQFEK_clean_sbu_0, # of connection points: 5
#     Node 11, Type 0, BuildingBlock: BEQFEK_clean_sbu_0, # of connection points: 5
#     Edge 12, Type (0, 0), None
#     Edge 13, Type (0, 0), None
#     Edge 14, Type (0, 0), None
#     Edge 15, Type (0, 0), None
#     Edge 16, Type (0, 0), None
#     Edge 17, Type (0, 0), None
#     Edge 18, Type (0, 0), None
#     Edge 19, Type (0, 0), None
#     Edge 20, Type (0, 0), None
#     Edge 21, Type (0, 0), None
#     Edge 22, Type (0, 0), None
#     Edge 23, Type (0, 0), None
#     Edge 24, Type (0, 0), None
#     Edge 25, Type (0, 0), None
#     Edge 26, Type (0, 0), None
#     Edge 27, Type (0, 0), None
#     Edge 28, Type (0, 0), None
#     Edge 29, Type (0, 0), None
#     Edge 30, Type (0, 0), None
#     Edge 31, Type (0, 0), None
#     Edge 32, Type (0, 0), None
#     Edge 33, Type (0, 0), None
#     Edge 34, Type (0, 0), None
#     Edge 35, Type (0, 0), None
#     Edge 36, Type (0, 0), None
#     Edge 37, Type (0, 0), None
#     Edge 38, Type (0, 0), None
#     Edge 39, Type (0, 0), None
#     Edge 40, Type (0, 0), None
#     Edge 41, Type (0, 0), None
# Relax obj value: 0.241
# Max RMSD: 0.154
# Mean RMSD: 0.154
data_MOF--net-wkb--node1-BEQFEK_clean_sbu_0--edge1-none
_symmetry_space_group_name_H-M    P1
_symmetry_Int_Tables_number       1
_symmetry_cell_setting            triclinic
loop_
_symmetry_equiv_pos_as_xyz
'x, y, z'
_cell_length_a     19.992014
_cell_length_b     19.991691
_cell_length_c     23.184087
_cell_angle_alpha  90.000017
_cell_angle_beta   89.999923
_cell_angle_gamma 119.99961
loop_
_atom_site_label
_atom_site_type_symbol
_atom_site_fract_x
_atom_site_fract_y
_atom_site_fract_z
_atom_type_partial_charge
Co0 Co 0.10125 0.43926 0.98613 0.0
Co1 Co 0.16975 0.41689 0.0918 0.0
C2 C 1.01077 0.30998 0.08455 0.0
O3 O 1.01201 0.34622 0.0377 0.0
O4 O 1.07355 0.32621 0.10941 0.0
C5 C 1.07475 0.38491 0.87552 0.0
O6 O 1.07624 0.32834 0.90319 0.0
C7 C 0.23006 0.45945 0.20153 0.0
C8 C 0.35534 0.50894 0.19026 0.0
C9 C 0.29907 0.49926 0.22969 0.0
N10 N 0.24353 0.44491 0.14795 0.0
N11 N 0.31892 0.4772 0.14042 0.0
C12 C 0.15275 0.44058 0.22472 0.0
H13 H 0.10755 0.41551 0.19128 0.0
H14 H 0.13761 0.39976 0.26132 0.0
H15 H 0.15546 0.49388 0.24154 0.0
C16 C 0.24303 0.43584 0.93223 0.0
N17 N 0.1973 0.43603 0.97608 0.0
N18 N 0.21093 0.40668 0.02152 0.0
C19 C 0.25631 0.37735 1.00729 0.0
C20 C 0.28065 0.39589 0.94963 0.0
C21 C 0.25569 0.47735 0.87611 0.0
H22 H 0.22445 0.51013 0.87482 0.0
H23 H 0.23766 0.43544 0.84001 0.0
H24 H 0.31835 0.51843 0.87045 0.0
O25 O 0.11976 0.53826 0.02412 0.0
O26 O 0.15203 0.50446 0.10465 0.0
H27 H 0.22841 0.3086 0.08426 0.0
H28 H 0.32889 0.36423 0.0677 0.0
C29 C 0.27119 0.32877 0.04858 0.0
H30 H 0.26802 0.27785 0.02691 0.0
H31 H 0.34579 0.48127 0.10102 0.0
O32 O 1.0716 0.43752 0.90421 0.0
C33 C 0.13514 0.54873 0.07786 0.0
Co34 Co 0.71467 0.07493 0.1528 0.0
Co35 Co 0.80553 0.14343 0.25847 0.0
C36 C 0.75346 0.98444 0.25122 0.0
O37 O 0.71847 0.98568 0.20438 0.0
O38 O 0.80002 1.04723 0.27608 0.0
C39 C 0.74251 1.04841 0.04219 0.0
O40 O 0.80058 1.04991 0.06986 0.0
C41 C 0.82329 0.20375 0.3682 0.0
C42 C 0.89906 0.32903 0.35693 0.0
C43 C 0.85248 0.27276 0.39636 0.0
N44 N 0.85129 0.21722 0.31462 0.0
N45 N 0.89438 0.29261 0.30708 0.0
C46 C 0.76485 0.12644 0.39139 0.0
H47 H 0.74472 0.08123 0.35796 0.0
H48 H 0.79054 0.1113 0.42799 0.0
H49 H 0.71426 0.12914 0.40821 0.0
C50 C 0.85987 0.21671 0.0989 0.0
N51 N 0.81394 0.17097 0.14275 0.0
N52 N 0.85692 0.18461 0.18819 0.0
C53 C 0.93164 0.23 0.17396 0.0
C54 C 0.93742 0.25435 0.11631 0.0
C55 C 0.83102 0.22936 0.04278 0.0
H56 H 0.76699 0.19811 0.04148 0.0
H57 H 0.8549 0.21132 1.00668 0.0
H58 H 0.8526 0.29201 0.03711 0.0
O59 O 0.63418 0.09343 0.19079 0.0
O60 O 0.70024 0.1257 0.27132 0.0
H61 H 0.97247 0.20211 0.25093 0.0
H62 H 1.01733 0.30259 0.23438 0.0
C63 C 0.99509 0.24489 0.21526 0.0
H64 H 1.04284 0.24172 0.19359 0.0
H65 H 0.91719 0.31948 0.26768 0.0
O66 O 0.68676 1.04527 0.07088 0.0
C67 C 0.63909 0.10881 0.24452 0.0
Co68 Co 0.69243 0.68835 0.31947 0.0
Co69 Co 0.71479 0.7792 0.42514 0.0
C70 C 0.82171 0.72714 0.41788 0.0
O71 O 0.78547 0.69215 0.37104 0.0
O72 O 0.80548 0.7737 0.44275 0.0
C73 C 0.74679 0.71619 0.20886 0.0
O74 O 0.80336 0.77426 0.23653 0.0
C75 C 0.67223 0.79695 0.53487 0.0
C76 C 0.62272 0.87272 0.52361 0.0
C77 C 0.63242 0.82614 0.56304 0.0
N78 N 0.68676 0.82496 0.4813 0.0
N79 N 0.65446 0.86805 0.47376 0.0
C80 C 0.69111 0.73851 0.55806 0.0
H81 H 0.71618 0.71838 0.52462 0.0
H82 H 0.73193 0.7642 0.59465 0.0
H83 H 0.63782 0.68792 0.57488 0.0
C84 C 0.69584 0.83354 0.26557 0.0
N85 N 0.69565 0.78762 0.30942 0.0
N86 N 0.72499 0.83059 0.35486 0.0
C87 C 0.75431 0.90531 0.34063 0.0
C88 C 0.73575 0.9111 0.28298 0.0
C89 C 0.65435 0.8047 0.20945 0.0
H90 H 0.62157 0.74067 0.20815 0.0
H91 H 0.69628 0.82858 0.17335 0.0
H92 H 0.61327 0.82627 0.20377 0.0
O93 O 0.59343 0.60785 0.35746 0.0
O94 O 0.62722 0.67391 0.43799 0.0
H95 H 0.82304 0.94615 0.41761 0.0
H96 H 0.7674 0.991 0.40105 0.0
C97 C 0.80287 0.96877 0.38193 0.0
H98 H 0.85379 1.01652 0.36027 0.0
H99 H 0.65038 0.89085 0.43436 0.0
O100 O 0.69418 0.66044 0.23755 0.0
C101 C 0.58296 0.61276 0.41119 0.0
Co102 Co 1.05677 0.66611 0.48613 0.0
Co103 Co 0.98827 0.68847 0.5918 0.0
C104 C 0.14726 0.79538 0.58455 0.0
O105 O 0.14601 0.75915 0.53771 0.0
O106 O 0.08447 0.77916 0.60941 0.0
C107 C 0.08328 0.72046 0.37552 0.0
O108 O 0.08178 0.77703 0.40319 0.0
C109 C 0.92796 0.64591 0.70153 0.0
C110 C 0.80268 0.5964 0.69027 0.0
C111 C 0.85896 0.6061 0.7297 0.0
N112 N 0.91449 0.66044 0.64796 0.0
N113 N 0.8391 0.62815 0.64042 0.0
C114 C 1.00527 0.66479 0.72473 0.0
H115 H 1.05047 0.68986 0.69129 0.0
H116 H 1.02041 0.70561 0.76132 0.0
H117 H 1.00257 0.61149 0.74155 0.0
C118 C 0.91498 0.66952 0.43224 0.0
N119 N 0.96073 0.66933 0.47608 0.0
N120 N 0.94709 0.69868 0.52153 0.0
C121 C 0.90169 0.728 0.5073 0.0
C122 C 0.87734 0.70943 0.44964 0.0
C123 C 0.90234 0.62802 0.37611 0.0
H124 H 0.93358 0.59524 0.37482 0.0
H125 H 0.92038 0.66995 0.34002 0.0
H126 H 0.83968 0.58694 0.37044 0.0
O127 O 1.03827 0.56711 0.52413 0.0
O128 O 1.006 0.60091 0.60466 0.0
H129 H 0.92959 0.79674 0.58426 0.0
H130 H 0.82911 0.7411 0.56772 0.0
C131 C 0.8868 0.77657 0.54859 0.0
H132 H 0.88997 0.82749 0.52692 0.0
H133 H 0.81222 0.62407 0.60102 0.0
O134 O 0.08643 0.66785 0.40422 0.0
C135 C 1.02289 0.55664 0.57786 0.0
Co136 Co 0.44335 1.03044 0.6528 0.0
Co137 Co 0.35249 0.96194 0.75847 0.0
C138 C 0.40456 0.12093 0.75122 0.0
O139 O 0.43956 0.11968 0.70438 0.0
O140 O 0.358 0.05814 0.77608 0.0
C141 C 0.41551 0.05695 0.5422 0.0
O142 O 0.35744 0.05545 0.56986 0.0
C143 C 0.33474 0.90163 0.8682 0.0
C144 C 0.25896 0.77634 0.85693 0.0
C145 C 0.30554 0.83262 0.89636 0.0
N146 N 0.30673 0.88816 0.81462 0.0
N147 N 0.26364 0.81277 0.80709 0.0
C148 C 0.39317 0.97894 0.89139 0.0
H149 H 0.41331 1.02414 0.85796 0.0
H150 H 0.36749 0.99408 0.92799 0.0
H151 H 0.44377 0.97624 0.90821 0.0
C152 C 0.29815 0.88865 0.5989 0.0
N153 N 0.34408 0.93439 0.64275 0.0
N154 N 0.3011 0.92076 0.68819 0.0
C155 C 0.22639 0.87536 0.67396 0.0
C156 C 0.2206 0.85102 0.61631 0.0
C157 C 0.327 0.87601 0.54278 0.0
H158 H 0.39103 0.90725 0.54148 0.0
H159 H 0.30312 0.89405 0.50668 0.0
H160 H 0.30542 0.81335 0.53711 0.0
O161 O 0.52384 1.01193 0.69079 0.0
O162 O 0.45778 0.97966 0.77132 0.0
H163 H 0.18555 0.90327 0.75093 0.0
H164 H 0.14069 0.80278 0.73438 0.0
C165 C 0.16293 0.86048 0.71526 0.0
H166 H 0.11518 0.86365 0.69359 0.0
H167 H 0.24084 0.78589 0.76769 0.0
O168 O 0.47126 0.06009 0.57088 0.0
C169 C 0.51893 0.99655 0.74452 0.0
Co170 Co 0.46558 0.41702 0.81947 0.0
Co171 Co 0.44324 0.32617 0.92514 0.0
C172 C 0.33631 0.37822 0.91788 0.0
O173 O 0.37253 0.41321 0.87104 0.0
O174 O 0.35255 0.33167 0.94275 0.0
C175 C 0.41123 0.38918 0.70886 0.0
O176 O 0.35466 0.3311 0.73653 0.0
C177 C 0.48579 0.30842 0.03487 0.0
C178 C 0.53531 0.23265 0.02361 0.0
C179 C 0.52561 0.27923 0.06304 0.0
N180 N 0.47127 0.28041 0.9813 0.0
N181 N 0.50357 0.23732 0.97376 0.0
C182 C 0.46691 0.36685 0.05806 0.0
H183 H 0.44185 0.38698 0.02463 0.0
H184 H 0.42609 0.34116 0.09466 0.0
H185 H 0.5202 0.41744 0.07489 0.0
C186 C 0.46219 0.27183 0.76557 0.0
N187 N 0.46237 0.31775 0.80942 0.0
N188 N 0.43303 0.27478 0.85486 0.0
C189 C 0.40372 0.20006 0.84064 0.0
C190 C 0.42227 0.19427 0.78298 0.0
C191 C 0.50367 0.30067 0.70945 0.0
H192 H 0.53645 0.3647 0.70815 0.0
H193 H 0.46175 0.27679 0.67335 0.0
H194 H 0.54475 0.2791 0.70377 0.0
O195 O 0.56458 0.49752 0.85746 0.0
O196 O 0.5308 0.43146 0.93799 0.0
H197 H 0.33499 0.15922 0.91761 0.0
H198 H 0.39063 0.11437 0.90106 0.0
C199 C 0.35516 0.1366 0.88193 0.0
H200 H 0.30424 0.08885 0.86027 0.0
H201 H 0.50765 0.21452 0.93436 0.0
O202 O 0.46384 0.44493 0.73755 0.0
C203 C 0.57506 0.49261 0.91119 0.0
Co204 Co 0.69246 1.03048 0.86861 0.0
Co205 Co 0.71488 0.96198 0.76297 0.0
C206 C 0.82177 0.12095 0.77023 0.0
O207 O 0.78551 0.11972 0.81705 0.0
O208 O 0.80557 0.05816 0.74538 0.0
C209 C 0.74681 0.05702 0.9792 0.0
O210 O 0.80339 0.05555 0.95153 0.0
C211 C 0.67256 0.90159 0.65324 0.0
C212 C 0.62274 0.77624 0.66466 0.0
C213 C 0.63274 0.83253 0.62515 0.0
N214 N 0.68693 0.88815 0.70687 0.0
N215 N 0.65448 0.81275 0.71449 0.0
C216 C 0.69145 0.97888 0.62999 0.0
H217 H 0.71647 1.02409 0.66341 0.0
H218 H 0.7323 0.99398 0.59342 0.0
H219 H 0.63817 0.97617 0.61313 0.0
C220 C 0.69589 0.88872 0.92254 0.0
N221 N 0.6957 0.93445 0.87869 0.0
N222 N 0.72507 0.92083 0.83325 0.0
C223 C 0.75441 0.87546 0.84749 0.0
C224 C 0.73585 0.85112 0.90515 0.0
C225 C 0.65438 0.87606 0.97865 0.0
H226 H 0.62159 0.9073 0.97994 0.0
H227 H 0.69628 0.89409 0.01476 0.0
H228 H 0.6133 0.8134 0.98431 0.0
O229 O 0.59348 1.01194 0.83056 0.0
O230 O 0.62731 0.97968 0.75003 0.0
H231 H 0.82326 0.90346 0.77058 0.0
H232 H 0.76746 0.80294 0.78696 0.0
C233 C 0.80298 0.86057 0.80619 0.0
H234 H 0.85383 0.86359 0.82786 0.0
H235 H 0.65024 0.78592 0.75394 0.0
O236 O 0.69418 0.06014 0.95052 0.0
C237 C 0.58303 0.99656 0.77683 0.0
Co238 Co 0.71468 0.66614 0.03528 0.0
Co239 Co 0.80558 0.68854 0.92963 0.0
C240 C 0.75352 0.79546 0.9369 0.0
O241 O 0.7185 0.75921 0.98373 0.0
O242 O 0.8001 0.77924 0.91205 0.0
C243 C 0.74248 0.72049 0.14587 0.0
O244 O 0.80053 0.77707 0.1182 0.0
C245 C 0.82365 0.64623 0.8199 0.0
C246 C 0.89917 0.5964 0.83132 0.0
C247 C 0.85288 0.60641 0.79181 0.0
N248 N 0.85146 0.66059 0.87353 0.0
N249 N 0.8944 0.62813 0.88115 0.0
C250 C 0.76525 0.66512 0.79665 0.0
H251 H 0.74506 0.69015 0.83007 0.0
H252 H 0.791 0.70598 0.76008 0.0
H253 H 0.71468 0.61184 0.77979 0.0
C254 C 0.85985 0.66956 0.08921 0.0
N255 N 0.81393 0.66937 0.04535 0.0
N256 N 0.85692 0.69873 0.99992 0.0
C257 C 0.93163 0.72806 0.01415 0.0
C258 C 0.93742 0.70951 0.07181 0.0
C259 C 0.831 0.62805 0.14532 0.0
H260 H 0.76697 0.59526 0.14661 0.0
H261 H 0.85488 0.66996 0.18143 0.0
H262 H 0.85258 0.58697 0.15098 0.0
O263 O 0.63422 0.56716 0.99723 0.0
O264 O 0.70031 0.60098 0.9167 0.0
H265 H 0.97248 0.79691 0.93724 0.0
H266 H 1.01719 0.7411 0.95362 0.0
C267 C 0.99508 0.77662 0.97285 0.0
H268 H 1.04291 0.82747 0.99451 0.0
H269 H 0.91698 0.62388 0.9206 0.0
O270 O 0.68673 0.66786 0.11719 0.0
C271 C 0.63915 0.55671 0.94349 0.0
Co272 Co 0.10122 0.68834 0.20194 0.0
Co273 Co 0.16972 0.77925 0.0963 0.0
C274 C 1.01075 0.72719 0.10356 0.0
O275 O 1.01198 0.69216 0.15039 0.0
O276 O 1.07354 0.77376 0.07871 0.0
C277 C 1.07468 0.71615 0.31253 0.0
O278 O 1.07614 0.7742 0.28486 0.0
C279 C 0.2301 0.79732 0.98656 0.0
C280 C 0.35545 0.87283 0.99799 0.0
C281 C 0.29916 0.82655 0.95848 0.0
N282 N 0.24355 0.82513 0.04019 0.0
N283 N 0.31895 0.86807 0.04781 0.0
C284 C 0.15281 0.73892 0.96331 0.0
H285 H 0.1076 0.71873 0.99674 0.0
H286 H 0.13771 0.76467 0.92675 0.0
H287 H 0.15552 0.68835 0.94646 0.0
C288 C 0.24297 0.83352 0.25587 0.0
N289 N 0.19724 0.7876 0.21202 0.0
N290 N 0.21087 0.83059 0.16658 0.0
C291 C 0.25625 0.9053 0.18082 0.0
C292 C 0.28058 0.91108 0.23848 0.0
C293 C 0.25563 0.80466 0.31199 0.0
H294 H 0.22439 0.74064 0.31328 0.0
H295 H 0.2376 0.82854 0.34809 0.0
H296 H 0.31829 0.82624 0.31765 0.0
O297 O 0.11975 0.60789 0.16389 0.0
O298 O 0.15202 0.67398 0.08336 0.0
H299 H 0.22826 0.94616 0.1039 0.0
H300 H 0.32877 0.99086 0.1203 0.0
C301 C 0.27114 0.96876 0.13951 0.0
H302 H 0.26812 1.01659 0.16118 0.0
H303 H 0.34577 0.89065 0.08727 0.0
O304 O 1.07156 0.6604 0.28385 0.0
C305 C 0.13513 0.61282 0.11016 0.0
Co306 Co 0.46555 0.07488 0.36861 0.0
Co307 Co 0.44315 0.14339 0.26297 0.0
C308 C 0.33624 0.98442 0.27023 0.0
O309 O 0.37249 0.98564 0.31706 0.0
O310 O 0.35246 1.0472 0.24538 0.0
C311 C 0.41121 1.04835 0.4792 0.0
O312 O 0.35463 1.04981 0.45153 0.0
C313 C 0.48547 0.20378 0.15323 0.0
C314 C 0.53529 0.32913 0.16466 0.0
C315 C 0.52529 0.27284 0.12515 0.0
N316 N 0.4711 0.21722 0.20687 0.0
N317 N 0.50355 0.29262 0.21449 0.0
C318 C 0.46658 0.12649 0.12998 0.0
H319 H 0.44155 0.08127 0.16341 0.0
H320 H 0.42572 0.11138 0.09342 0.0
H321 H 0.51986 0.1292 0.11313 0.0
C322 C 0.46213 0.21664 0.42254 0.0
N323 N 0.46232 0.17091 0.37869 0.0
N324 N 0.43296 0.18453 0.33325 0.0
C325 C 0.40362 0.22991 0.34749 0.0
C326 C 0.42217 0.25425 0.40515 0.0
C327 C 0.50365 0.2293 0.47865 0.0
H328 H 0.53643 0.19806 0.47995 0.0
H329 H 0.46174 0.21127 0.51476 0.0
H330 H 0.54473 0.29196 0.48431 0.0
O331 O 0.56453 0.09342 0.33056 0.0
O332 O 0.53072 0.12569 0.25003 0.0
H333 H 0.33477 0.20191 0.27058 0.0
H334 H 0.39057 0.30243 0.28696 0.0
C335 C 0.35505 0.2448 0.30619 0.0
H336 H 0.30421 0.24178 0.32786 0.0
H337 H 0.5078 0.31944 0.25394 0.0
O338 O 0.46384 1.04522 0.45052 0.0
C339 C 0.57499 0.1088 0.27683 0.0
Co340 Co 0.44335 0.43922 0.53528 0.0
Co341 Co 0.35244 0.41682 0.42963 0.0
C342 C 0.4045 0.30991 0.4369 0.0
O343 O 0.43952 0.34616 0.48373 0.0
O344 O 0.35793 0.32612 0.41205 0.0
C345 C 0.41554 0.38488 0.64587 0.0
O346 O 0.35749 0.3283 0.6182 0.0
C347 C 0.33438 0.45913 0.31989 0.0
C348 C 0.25886 0.50896 0.33131 0.0
C349 C 0.30514 0.49895 0.29181 0.0
N350 N 0.30656 0.44477 0.37353 0.0
N351 N 0.26362 0.47723 0.38114 0.0
C352 C 0.39278 0.44024 0.29665 0.0
H353 H 0.41297 0.41522 0.33008 0.0
H354 H 0.36703 0.39939 0.26008 0.0
H355 H 0.44335 0.49352 0.2798 0.0
C356 C 0.29817 0.4358 0.5892 0.0
N357 N 0.34409 0.436 0.54535 0.0
N358 N 0.3011 0.40663 0.49992 0.0
C359 C 0.22639 0.3773 0.51415 0.0
C360 C 0.2206 0.39585 0.57181 0.0
C361 C 0.32702 0.47731 0.64532 0.0
H362 H 0.39105 0.5101 0.64661 0.0
H363 H 0.30314 0.4354 0.68142 0.0
H364 H 0.30544 0.51839 0.65098 0.0
O365 O 0.5238 0.5382 0.49722 0.0
O366 O 0.45772 0.50439 0.4167 0.0
H367 H 0.18554 0.30845 0.43724 0.0
H368 H 0.14083 0.36426 0.45362 0.0
C369 C 0.16294 0.32874 0.47284 0.0
H370 H 0.11511 0.27789 0.49451 0.0
H371 H 0.24104 0.48148 0.4206 0.0
O372 O 0.47129 0.43751 0.61719 0.0
C373 C 0.51887 0.54866 0.44349 0.0
Co374 Co 1.05681 0.41703 0.70194 0.0
Co375 Co 0.9883 0.32612 0.5963 0.0
C376 C 0.14727 0.37818 0.60356 0.0
O377 O 0.14604 0.4132 0.65039 0.0
O378 O 0.08448 0.3316 0.57871 0.0
C379 C 0.08335 0.38922 0.81253 0.0
O380 O 0.08188 0.33117 0.78486 0.0
C381 C 0.92792 0.30806 0.48656 0.0
C382 C 0.80257 0.23255 0.49798 0.0
C383 C 0.85887 0.27883 0.45847 0.0
N384 N 0.91447 0.28025 0.54019 0.0
N385 N 0.83907 0.23731 0.54781 0.0
C386 C 1.00521 0.36644 0.46331 0.0
H387 H 1.05043 0.38664 0.49674 0.0
H388 H 1.02032 0.34069 0.42674 0.0
H389 H 1.00252 0.41702 0.44645 0.0
C390 C 0.91504 0.27185 0.75587 0.0
N391 N 0.96078 0.31777 0.71202 0.0
N392 N 0.94715 0.27478 0.66658 0.0
C393 C 0.90175 0.20007 0.68081 0.0
C394 C 0.87741 0.19429 0.73846 0.0
C395 C 0.9024 0.3007 0.81199 0.0
H396 H 0.93364 0.36473 0.81328 0.0
H397 H 0.92044 0.27682 0.84809 0.0
H398 H 0.83974 0.27913 0.81766 0.0
O399 O 1.03828 0.49748 0.66389 0.0
O400 O 1.00601 0.43139 0.58336 0.0
H401 H 0.92974 0.15921 0.60389 0.0
H402 H 0.82923 0.11452 0.62028 0.0
C403 C 0.88685 0.13662 0.6395 0.0
H404 H 0.88987 0.08878 0.66117 0.0
H405 H 0.81225 0.21474 0.58727 0.0
O406 O 0.08647 0.44497 0.78385 0.0
C407 C 1.0229 0.49255 0.61016 0.0
loop_
_geom_bond_atom_site_label_1
_geom_bond_atom_site_label_2
_geom_bond_distance
_geom_bond_site_symmetry_2
_ccdc_geom_bond_type
Co0 O3 1.970 1_456 S
Co0 N17 1.989 . S
Co0 O25 1.967 1_556 S
Co0 O32 1.920 1_455 S
Co1 O4 1.966 1_455 S
Co1 N10 2.022 . S
Co1 N18 1.993 . S
Co1 O26 1.941 . S
C2 O3 1.258 . S
C2 O4 1.263 . S
O3 Co0 1.970 1_654 S
O3 C2 1.258 . S
O4 Co1 1.966 1_655 S
O4 C2 1.263 . S
C5 O6 1.235 . S
C5 O32 1.289 . S
O6 C5 1.235 . S
C7 C9 1.400 . S
C7 N10 1.351 . S
C7 C12 1.501 . S
C8 C9 1.387 . S
C8 N11 1.341 . S
C9 C7 1.400 . S
C9 C8 1.387 . S
N10 Co1 2.022 . S
N10 C7 1.351 . S
N10 N11 1.365 . S
N11 C8 1.341 . S
N11 N10 1.365 . S
N11 H31 0.862 . S
C12 C7 1.501 . S
C12 H13 0.961 . S
C12 H14 0.961 . S
C12 H15 0.960 . S
H13 C12 0.961 . S
H14 C12 0.961 . S
H15 C12 0.960 . S
C16 N17 1.342 . S
C16 C20 1.401 . S
C16 C21 1.499 . S
N17 Co0 1.989 . S
N17 C16 1.342 . S
N17 N18 1.388 1_556 S
N18 Co1 1.993 . S
N18 N17 1.388 1_554 S
N18 C19 1.346 . S
C19 N18 1.346 . S
C19 C20 1.396 1_554 S
C19 C29 1.510 . S
C20 C16 1.401 . S
C20 C19 1.396 1_556 S
C21 C16 1.499 . S
C21 H22 0.959 . S
C21 H23 0.960 . S
C21 H24 0.961 . S
H22 C21 0.959 . S
H23 C21 0.960 . S
H24 C21 0.961 . S
O25 Co0 1.967 1_554 S
O25 C33 1.258 . S
O26 Co1 1.941 . S
O26 C33 1.266 . S
H27 C29 0.959 . S
H28 C29 0.961 . S
C29 C19 1.510 . S
C29 H27 0.959 . S
C29 H28 0.961 . S
C29 H30 0.960 . S
H30 C29 0.960 . S
H31 N11 0.862 . S
O32 Co0 1.920 1_655 S
O32 C5 1.289 . S
C33 O25 1.258 . S
C33 O26 1.266 . S
Co34 O37 1.970 1_545 S
Co34 N51 1.989 . S
Co34 O59 1.967 . S
Co34 O66 1.920 1_545 S
Co35 O38 1.966 1_545 S
Co35 N44 2.022 . S
Co35 N52 1.993 . S
Co35 O60 1.941 . S
C36 O37 1.258 . S
C36 O38 1.263 . S
O37 Co34 1.970 1_565 S
O37 C36 1.258 . S
O38 Co35 1.966 1_565 S
O38 C36 1.263 . S
C39 O40 1.235 . S
C39 O66 1.289 . S
O40 C39 1.235 . S
C41 C43 1.400 . S
C41 N44 1.351 . S
C41 C46 1.501 . S
C42 C43 1.387 . S
C42 N45 1.341 . S
C43 C41 1.400 . S
C43 C42 1.387 . S
N44 Co35 2.022 . S
N44 C41 1.351 . S
N44 N45 1.365 . S
N45 C42 1.341 . S
N45 N44 1.365 . S
N45 H65 0.862 . S
C46 C41 1.501 . S
C46 H47 0.961 . S
C46 H48 0.961 . S
C46 H49 0.960 . S
H47 C46 0.961 . S
H48 C46 0.961 . S
H49 C46 0.960 . S
C50 N51 1.342 . S
C50 C54 1.401 . S
C50 C55 1.499 . S
N51 Co34 1.989 . S
N51 C50 1.342 . S
N51 N52 1.388 . S
N52 Co35 1.993 . S
N52 N51 1.388 . S
N52 C53 1.346 . S
C53 N52 1.346 . S
C53 C54 1.396 . S
C53 C63 1.510 . S
C54 C50 1.401 . S
C54 C53 1.396 . S
C55 C50 1.499 . S
C55 H56 0.959 . S
C55 H57 0.960 . S
C55 H58 0.961 . S
H56 C55 0.959 . S
H57 C55 0.960 . S
H58 C55 0.961 . S
O59 Co34 1.967 . S
O59 C67 1.258 . S
O60 Co35 1.941 . S
O60 C67 1.266 . S
H61 C63 0.959 . S
H62 C63 0.961 . S
C63 C53 1.510 . S
C63 H61 0.959 . S
C63 H62 0.961 . S
C63 H64 0.960 . S
H64 C63 0.960 . S
H65 N45 0.862 . S
O66 Co34 1.920 1_565 S
O66 C39 1.289 . S
C67 O59 1.258 . S
C67 O60 1.266 . S
Co68 O71 1.970 . S
Co68 N85 1.989 . S
Co68 O93 1.967 . S
Co68 O100 1.920 . S
Co69 O72 1.966 . S
Co69 N78 2.022 . S
Co69 N86 1.993 . S
Co69 O94 1.941 . S
C70 O71 1.258 . S
C70 O72 1.263 . S
O71 Co68 1.970 . S
O71 C70 1.258 . S
O72 Co69 1.966 . S
O72 C70 1.263 . S
C73 O74 1.235 . S
C73 O100 1.289 . S
O74 C73 1.235 . S
C75 C77 1.400 . S
C75 N78 1.351 . S
C75 C80 1.501 . S
C76 C77 1.387 . S
C76 N79 1.341 . S
C77 C75 1.400 . S
C77 C76 1.387 . S
N78 Co69 2.022 . S
N78 C75 1.351 . S
N78 N79 1.365 . S
N79 C76 1.341 . S
N79 N78 1.365 . S
N79 H99 0.862 . S
C80 C75 1.501 . S
C80 H81 0.961 . S
C80 H82 0.961 . S
C80 H83 0.960 . S
H81 C80 0.961 . S
H82 C80 0.961 . S
H83 C80 0.960 . S
C84 N85 1.342 . S
C84 C88 1.401 . S
C84 C89 1.499 . S
N85 Co68 1.989 . S
N85 C84 1.342 . S
N85 N86 1.388 . S
N86 Co69 1.993 . S
N86 N85 1.388 . S
N86 C87 1.346 . S
C87 N86 1.346 . S
C87 C88 1.396 . S
C87 C97 1.510 . S
C88 C84 1.401 . S
C88 C87 1.396 . S
C89 C84 1.499 . S
C89 H90 0.959 . S
C89 H91 0.960 . S
C89 H92 0.961 . S
H90 C89 0.959 . S
H91 C89 0.960 . S
H92 C89 0.961 . S
O93 Co68 1.967 . S
O93 C101 1.258 . S
O94 Co69 1.941 . S
O94 C101 1.266 . S
H95 C97 0.959 . S
H96 C97 0.961 . S
C97 C87 1.510 . S
C97 H95 0.959 . S
C97 H96 0.961 . S
C97 H98 0.960 . S
H98 C97 0.960 . S
H99 N79 0.862 . S
O100 Co68 1.920 . S
O100 C73 1.289 . S
C101 O93 1.258 . S
C101 O94 1.266 . S
Co102 O105 1.970 1_655 S
Co102 N119 1.989 . S
Co102 O127 1.967 . S
Co102 O134 1.920 1_655 S
Co103 O106 1.966 1_655 S
Co103 N112 2.022 . S
Co103 N120 1.993 . S
Co103 O128 1.941 . S
C104 O105 1.258 . S
C104 O106 1.263 . S
O105 Co102 1.970 1_455 S
O105 C104 1.258 . S
O106 Co103 1.966 1_455 S
O106 C104 1.263 . S
C107 O108 1.235 . S
C107 O134 1.289 . S
O108 C107 1.235 . S
C109 C111 1.400 . S
C109 N112 1.351 . S
C109 C114 1.501 . S
C110 C111 1.387 . S
C110 N113 1.341 . S
C111 C109 1.400 . S
C111 C110 1.387 . S
N112 Co103 2.022 . S
N112 C109 1.351 . S
N112 N113 1.365 . S
N113 C110 1.341 . S
N113 N112 1.365 . S
N113 H133 0.862 . S
C114 C109 1.501 . S
C114 H115 0.961 . S
C114 H116 0.961 . S
C114 H117 0.960 . S
H115 C114 0.961 . S
H116 C114 0.961 . S
H117 C114 0.960 . S
C118 N119 1.342 . S
C118 C122 1.401 . S
C118 C123 1.499 . S
N119 Co102 1.989 . S
N119 C118 1.342 . S
N119 N120 1.388 . S
N120 Co103 1.993 . S
N120 N119 1.388 . S
N120 C121 1.346 . S
C121 N120 1.346 . S
C121 C122 1.396 . S
C121 C131 1.510 . S
C122 C118 1.401 . S
C122 C121 1.396 . S
C123 C118 1.499 . S
C123 H124 0.959 . S
C123 H125 0.960 . S
C123 H126 0.961 . S
H124 C123 0.959 . S
H125 C123 0.960 . S
H126 C123 0.961 . S
O127 Co102 1.967 . S
O127 C135 1.258 . S
O128 Co103 1.941 . S
O128 C135 1.266 . S
H129 C131 0.959 . S
H130 C131 0.961 . S
C131 C121 1.510 . S
C131 H129 0.959 . S
C131 H130 0.961 . S
C131 H132 0.960 . S
H132 C131 0.960 . S
H133 N113 0.862 . S
O134 Co102 1.920 1_455 S
O134 C107 1.289 . S
C135 O127 1.258 . S
C135 O128 1.266 . S
Co136 O139 1.970 1_565 S
Co136 N153 1.989 . S
Co136 O161 1.967 . S
Co136 O168 1.920 1_565 S
Co137 O140 1.966 1_565 S
Co137 N146 2.022 . S
Co137 N154 1.993 . S
Co137 O162 1.941 . S
C138 O139 1.258 . S
C138 O140 1.263 . S
O139 Co136 1.970 1_545 S
O139 C138 1.258 . S
O140 Co137 1.966 1_545 S
O140 C138 1.263 . S
C141 O142 1.235 . S
C141 O168 1.289 . S
O142 C141 1.235 . S
C143 C145 1.400 . S
C143 N146 1.351 . S
C143 C148 1.501 . S
C144 C145 1.387 . S
C144 N147 1.341 . S
C145 C143 1.400 . S
C145 C144 1.387 . S
N146 Co137 2.022 . S
N146 C143 1.351 . S
N146 N147 1.365 . S
N147 C144 1.341 . S
N147 N146 1.365 . S
N147 H167 0.862 . S
C148 C143 1.501 . S
C148 H149 0.961 . S
C148 H150 0.961 . S
C148 H151 0.960 . S
H149 C148 0.961 . S
H150 C148 0.961 . S
H151 C148 0.960 . S
C152 N153 1.342 . S
C152 C156 1.401 . S
C152 C157 1.499 . S
N153 Co136 1.989 . S
N153 C152 1.342 . S
N153 N154 1.388 . S
N154 Co137 1.993 . S
N154 N153 1.388 . S
N154 C155 1.346 . S
C155 N154 1.346 . S
C155 C156 1.396 . S
C155 C165 1.510 . S
C156 C152 1.401 . S
C156 C155 1.396 . S
C157 C152 1.499 . S
C157 H158 0.959 . S
C157 H159 0.960 . S
C157 H160 0.961 . S
H158 C157 0.959 . S
H159 C157 0.960 . S
H160 C157 0.961 . S
O161 Co136 1.967 . S
O161 C169 1.258 . S
O162 Co137 1.941 . S
O162 C169 1.266 . S
H163 C165 0.959 . S
H164 C165 0.961 . S
C165 C155 1.510 . S
C165 H163 0.959 . S
C165 H164 0.961 . S
C165 H166 0.960 . S
H166 C165 0.960 . S
H167 N147 0.862 . S
O168 Co136 1.920 1_545 S
O168 C141 1.289 . S
C169 O161 1.258 . S
C169 O162 1.266 . S
Co170 O173 1.970 . S
Co170 N187 1.989 . S
Co170 O195 1.967 . S
Co170 O202 1.920 . S
Co171 O174 1.966 . S
Co171 N180 2.022 1_556 S
Co171 N188 1.993 . S
Co171 O196 1.941 . S
C172 O173 1.258 . S
C172 O174 1.263 . S
O173 Co170 1.970 . S
O173 C172 1.258 . S
O174 Co171 1.966 . S
O174 C172 1.263 . S
C175 O176 1.235 . S
C175 O202 1.289 . S
O176 C175 1.235 . S
C177 C179 1.400 . S
C177 N180 1.351 . S
C177 C182 1.501 . S
C178 C179 1.387 . S
C178 N181 1.341 . S
C179 C177 1.400 . S
C179 C178 1.387 . S
N180 Co171 2.022 1_554 S
N180 C177 1.351 . S
N180 N181 1.365 . S
N181 C178 1.341 . S
N181 N180 1.365 . S
N181 H201 0.853 1_554 S
C182 C177 1.501 . S
C182 H183 0.961 . S
C182 H184 0.961 . S
C182 H185 0.960 . S
H183 C182 0.961 . S
H184 C182 0.961 . S
H185 C182 0.960 . S
C186 N187 1.342 . S
C186 C190 1.401 . S
C186 C191 1.499 . S
N187 Co170 1.989 . S
N187 C186 1.342 . S
N187 N188 1.388 . S
N188 Co171 1.993 . S
N188 N187 1.388 . S
N188 C189 1.346 . S
C189 N188 1.346 . S
C189 C190 1.396 . S
C189 C199 1.510 . S
C190 C186 1.401 . S
C190 C189 1.396 . S
C191 C186 1.499 . S
C191 H192 0.959 . S
C191 H193 0.960 . S
C191 H194 0.961 . S
H192 C191 0.959 . S
H193 C191 0.960 . S
H194 C191 0.961 . S
O195 Co170 1.967 . S
O195 C203 1.258 . S
O196 Co171 1.941 . S
O196 C203 1.266 . S
H197 C199 0.959 . S
H198 C199 0.961 . S
C199 C189 1.510 . S
C199 H197 0.959 . S
C199 H198 0.961 . S
C199 H200 0.960 . S
H200 C199 0.960 . S
H201 N181 0.853 1_556 S
O202 Co170 1.920 . S
O202 C175 1.289 . S
C203 O195 1.258 . S
C203 O196 1.266 . S
Co204 O207 1.970 1_565 S
Co204 N221 1.989 . S
Co204 O229 1.967 . S
Co204 O236 1.920 1_565 S
Co205 O208 1.966 1_565 S
Co205 N214 2.022 . S
Co205 N222 1.993 . S
Co205 O230 1.941 . S
C206 O207 1.258 . S
C206 O208 1.263 . S
O207 Co204 1.970 1_545 S
O207 C206 1.258 . S
O208 Co205 1.966 1_545 S
O208 C206 1.263 . S
C209 O210 1.235 . S
C209 O236 1.289 . S
O210 C209 1.235 . S
C211 C213 1.400 . S
C211 N214 1.351 . S
C211 C216 1.501 . S
C212 C213 1.387 . S
C212 N215 1.341 . S
C213 C211 1.400 . S
C213 C212 1.387 . S
N214 Co205 2.022 . S
N214 C211 1.351 . S
N214 N215 1.365 . S
N215 C212 1.341 . S
N215 N214 1.365 . S
N215 H235 0.862 . S
C216 C211 1.501 . S
C216 H217 0.961 . S
C216 H218 0.961 . S
C216 H219 0.960 . S
H217 C216 0.961 . S
H218 C216 0.961 . S
H219 C216 0.960 . S
C220 N221 1.342 . S
C220 C224 1.401 . S
C220 C225 1.499 . S
N221 Co204 1.989 . S
N221 C220 1.342 . S
N221 N222 1.388 . S
N222 Co205 1.993 . S
N222 N221 1.388 . S
N222 C223 1.346 . S
C223 N222 1.346 . S
C223 C224 1.396 . S
C223 C233 1.510 . S
C224 C220 1.401 . S
C224 C223 1.396 . S
C225 C220 1.499 . S
C225 H226 0.959 . S
C225 H227 0.960 . S
C225 H228 0.961 . S
H226 C225 0.959 . S
H227 C225 0.960 . S
H228 C225 0.961 . S
O229 Co204 1.967 . S
O229 C237 1.258 . S
O230 Co205 1.941 . S
O230 C237 1.266 . S
H231 C233 0.959 . S
H232 C233 0.961 . S
C233 C223 1.510 . S
C233 H231 0.959 . S
C233 H232 0.961 . S
C233 H234 0.960 . S
H234 C233 0.960 . S
H235 N215 0.862 . S
O236 Co204 1.920 1_545 S
O236 C209 1.289 . S
C237 O229 1.258 . S
C237 O230 1.266 . S
Co238 O241 1.970 1_554 S
Co238 N255 1.989 . S
Co238 O263 1.967 1_554 S
Co238 O270 1.920 . S
Co239 O242 1.966 . S
Co239 N248 2.022 . S
Co239 N256 1.993 . S
Co239 O264 1.941 . S
C240 O241 1.258 . S
C240 O242 1.263 . S
O241 Co238 1.970 1_556 S
O241 C240 1.258 . S
O242 Co239 1.966 . S
O242 C240 1.263 . S
C243 O244 1.235 . S
C243 O270 1.289 . S
O244 C243 1.235 . S
C245 C247 1.400 . S
C245 N248 1.351 . S
C245 C250 1.501 . S
C246 C247 1.387 . S
C246 N249 1.341 . S
C247 C245 1.400 . S
C247 C246 1.387 . S
N248 Co239 2.022 . S
N248 C245 1.351 . S
N248 N249 1.365 . S
N249 C246 1.341 . S
N249 N248 1.365 . S
N249 H269 0.862 . S
C250 C245 1.501 . S
C250 H251 0.961 . S
C250 H252 0.961 . S
C250 H253 0.960 . S
H251 C250 0.961 . S
H252 C250 0.961 . S
H253 C250 0.960 . S
C254 N255 1.342 . S
C254 C258 1.401 . S
C254 C259 1.499 . S
N255 Co238 1.989 . S
N255 C254 1.342 . S
N255 N256 1.388 1_554 S
N256 Co239 1.993 . S
N256 N255 1.388 1_556 S
N256 C257 1.346 . S
C257 N256 1.346 . S
C257 C258 1.396 1_556 S
C257 C267 1.510 . S
C258 C254 1.401 . S
C258 C257 1.396 1_554 S
C259 C254 1.499 . S
C259 H260 0.959 . S
C259 H261 0.960 . S
C259 H262 0.961 . S
H260 C259 0.959 . S
H261 C259 0.960 . S
H262 C259 0.961 . S
O263 Co238 1.967 1_556 S
O263 C271 1.258 . S
O264 Co239 1.941 . S
O264 C271 1.266 . S
H265 C267 0.959 . S
H266 C267 0.961 . S
C267 C257 1.510 . S
C267 H265 0.959 . S
C267 H266 0.961 . S
C267 H268 0.960 . S
H268 C267 0.960 . S
H269 N249 0.862 . S
O270 Co238 1.920 . S
O270 C243 1.289 . S
C271 O263 1.258 . S
C271 O264 1.266 . S
Co272 O275 1.970 1_455 S
Co272 N289 1.989 . S
Co272 O297 1.967 . S
Co272 O304 1.920 1_455 S
Co273 O276 1.966 1_455 S
Co273 N282 2.022 1_554 S
Co273 N290 1.993 . S
Co273 O298 1.941 . S
C274 O275 1.258 . S
C274 O276 1.263 . S
O275 Co272 1.970 1_655 S
O275 C274 1.258 . S
O276 Co273 1.966 1_655 S
O276 C274 1.263 . S
C277 O278 1.235 . S
C277 O304 1.289 . S
O278 C277 1.235 . S
C279 C281 1.400 . S
C279 N282 1.351 . S
C279 C284 1.501 . S
C280 C281 1.387 . S
C280 N283 1.341 . S
C281 C279 1.400 . S
C281 C280 1.387 . S
N282 Co273 2.022 1_556 S
N282 C279 1.351 . S
N282 N283 1.365 . S
N283 C280 1.341 . S
N283 N282 1.365 . S
N283 H303 0.853 1_556 S
C284 C279 1.501 . S
C284 H285 0.961 . S
C284 H286 0.961 . S
C284 H287 0.960 . S
H285 C284 0.961 . S
H286 C284 0.961 . S
H287 C284 0.960 . S
C288 N289 1.342 . S
C288 C292 1.401 . S
C288 C293 1.499 . S
N289 Co272 1.989 . S
N289 C288 1.342 . S
N289 N290 1.388 . S
N290 Co273 1.993 . S
N290 N289 1.388 . S
N290 C291 1.346 . S
C291 N290 1.346 . S
C291 C292 1.396 . S
C291 C301 1.510 . S
C292 C288 1.401 . S
C292 C291 1.396 . S
C293 C288 1.499 . S
C293 H294 0.959 . S
C293 H295 0.960 . S
C293 H296 0.961 . S
H294 C293 0.959 . S
H295 C293 0.960 . S
H296 C293 0.961 . S
O297 Co272 1.967 . S
O297 C305 1.258 . S
O298 Co273 1.941 . S
O298 C305 1.266 . S
H299 C301 0.959 . S
H300 C301 0.961 . S
C301 C291 1.510 . S
C301 H299 0.959 . S
C301 H300 0.961 . S
C301 H302 0.960 . S
H302 C301 0.960 . S
H303 N283 0.853 1_554 S
O304 Co272 1.920 1_655 S
O304 C277 1.289 . S
C305 O297 1.258 . S
C305 O298 1.266 . S
Co306 O309 1.970 1_545 S
Co306 N323 1.989 . S
Co306 O331 1.967 . S
Co306 O338 1.920 1_545 S
Co307 O310 1.966 1_545 S
Co307 N316 2.022 . S
Co307 N324 1.993 . S
Co307 O332 1.941 . S
C308 O309 1.258 . S
C308 O310 1.263 . S
O309 Co306 1.970 1_565 S
O309 C308 1.258 . S
O310 Co307 1.966 1_565 S
O310 C308 1.263 . S
C311 O312 1.235 . S
C311 O338 1.289 . S
O312 C311 1.235 . S
C313 C315 1.400 . S
C313 N316 1.351 . S
C313 C318 1.501 . S
C314 C315 1.387 . S
C314 N317 1.341 . S
C315 C313 1.400 . S
C315 C314 1.387 . S
N316 Co307 2.022 . S
N316 C313 1.351 . S
N316 N317 1.365 . S
N317 C314 1.341 . S
N317 N316 1.365 . S
N317 H337 0.862 . S
C318 C313 1.501 . S
C318 H319 0.961 . S
C318 H320 0.961 . S
C318 H321 0.960 . S
H319 C318 0.961 . S
H320 C318 0.961 . S
H321 C318 0.960 . S
C322 N323 1.342 . S
C322 C326 1.401 . S
C322 C327 1.499 . S
N323 Co306 1.989 . S
N323 C322 1.342 . S
N323 N324 1.388 . S
N324 Co307 1.993 . S
N324 N323 1.388 . S
N324 C325 1.346 . S
C325 N324 1.346 . S
C325 C326 1.396 . S
C325 C335 1.510 . S
C326 C322 1.401 . S
C326 C325 1.396 . S
C327 C322 1.499 . S
C327 H328 0.959 . S
C327 H329 0.960 . S
C327 H330 0.961 . S
H328 C327 0.959 . S
H329 C327 0.960 . S
H330 C327 0.961 . S
O331 Co306 1.967 . S
O331 C339 1.258 . S
O332 Co307 1.941 . S
O332 C339 1.266 . S
H333 C335 0.959 . S
H334 C335 0.961 . S
C335 C325 1.510 . S
C335 H333 0.959 . S
C335 H334 0.961 . S
C335 H336 0.960 . S
H336 C335 0.960 . S
H337 N317 0.862 . S
O338 Co306 1.920 1_565 S
O338 C311 1.289 . S
C339 O331 1.258 . S
C339 O332 1.266 . S
Co340 O343 1.970 . S
Co340 N357 1.989 . S
Co340 O365 1.967 . S
Co340 O372 1.920 . S
Co341 O344 1.966 . S
Co341 N350 2.022 . S
Co341 N358 1.993 . S
Co341 O366 1.941 . S
C342 O343 1.258 . S
C342 O344 1.263 . S
O343 Co340 1.970 . S
O343 C342 1.258 . S
O344 Co341 1.966 . S
O344 C342 1.263 . S
C345 O346 1.235 . S
C345 O372 1.289 . S
O346 C345 1.235 . S
C347 C349 1.400 . S
C347 N350 1.351 . S
C347 C352 1.501 . S
C348 C349 1.387 . S
C348 N351 1.341 . S
C349 C347 1.400 . S
C349 C348 1.387 . S
N350 Co341 2.022 . S
N350 C347 1.351 . S
N350 N351 1.365 . S
N351 C348 1.341 . S
N351 N350 1.365 . S
N351 H371 0.862 . S
C352 C347 1.501 . S
C352 H353 0.961 . S
C352 H354 0.961 . S
C352 H355 0.960 . S
H353 C352 0.961 . S
H354 C352 0.961 . S
H355 C352 0.960 . S
C356 N357 1.342 . S
C356 C360 1.401 . S
C356 C361 1.499 . S
N357 Co340 1.989 . S
N357 C356 1.342 . S
N357 N358 1.388 . S
N358 Co341 1.993 . S
N358 N357 1.388 . S
N358 C359 1.346 . S
C359 N358 1.346 . S
C359 C360 1.396 . S
C359 C369 1.510 . S
C360 C356 1.401 . S
C360 C359 1.396 . S
C361 C356 1.499 . S
C361 H362 0.959 . S
C361 H363 0.960 . S
C361 H364 0.961 . S
H362 C361 0.959 . S
H363 C361 0.960 . S
H364 C361 0.961 . S
O365 Co340 1.967 . S
O365 C373 1.258 . S
O366 Co341 1.941 . S
O366 C373 1.266 . S
H367 C369 0.959 . S
H368 C369 0.961 . S
C369 C359 1.510 . S
C369 H367 0.959 . S
C369 H368 0.961 . S
C369 H370 0.960 . S
H370 C369 0.960 . S
H371 N351 0.862 . S
O372 Co340 1.920 . S
O372 C345 1.289 . S
C373 O365 1.258 . S
C373 O366 1.266 . S
Co374 O377 1.970 1_655 S
Co374 N391 1.989 . S
Co374 O399 1.967 . S
Co374 O406 1.920 1_655 S
Co375 O378 1.966 1_655 S
Co375 N384 2.022 . S
Co375 N392 1.993 . S
Co375 O400 1.941 . S
C376 O377 1.258 . S
C376 O378 1.263 . S
O377 Co374 1.970 1_455 S
O377 C376 1.258 . S
O378 Co375 1.966 1_455 S
O378 C376 1.263 . S
C379 O380 1.235 . S
C379 O406 1.289 . S
O380 C379 1.235 . S
C381 C383 1.400 . S
C381 N384 1.351 . S
C381 C386 1.501 . S
C382 C383 1.387 . S
C382 N385 1.341 . S
C383 C381 1.400 . S
C383 C382 1.387 . S
N384 Co375 2.022 . S
N384 C381 1.351 . S
N384 N385 1.365 . S
N385 C382 1.341 . S
N385 N384 1.365 . S
N385 H405 0.862 . S
C386 C381 1.501 . S
C386 H387 0.961 . S
C386 H388 0.961 . S
C386 H389 0.960 . S
H387 C386 0.961 . S
H388 C386 0.961 . S
H389 C386 0.960 . S
C390 N391 1.342 . S
C390 C394 1.401 . S
C390 C395 1.499 . S
N391 Co374 1.989 . S
N391 C390 1.342 . S
N391 N392 1.388 . S
N392 Co375 1.993 . S
N392 N391 1.388 . S
N392 C393 1.346 . S
C393 N392 1.346 . S
C393 C394 1.396 . S
C393 C403 1.510 . S
C394 C390 1.401 . S
C394 C393 1.396 . S
C395 C390 1.499 . S
C395 H396 0.959 . S
C395 H397 0.960 . S
C395 H398 0.961 . S
H396 C395 0.959 . S
H397 C395 0.960 . S
H398 C395 0.961 . S
O399 Co374 1.967 . S
O399 C407 1.258 . S
O400 Co375 1.941 . S
O400 C407 1.266 . S
H401 C403 0.959 . S
H402 C403 0.961 . S
C403 C393 1.510 . S
C403 H401 0.959 . S
C403 H402 0.961 . S
C403 H404 0.960 . S
H404 C403 0.960 . S
H405 N385 0.862 . S
O406 Co374 1.920 1_455 S
O406 C379 1.289 . S
C407 O399 1.258 . S
C407 O400 1.266 . S
C349 C9 0.399 . S
C43 C383 0.399 . S
C77 C213 0.399 . S
C111 C247 0.399 . S
C145 C281 0.399 . S
C179 C315 0.399 . S
C33 C305 1.776 . S
C339 C67 1.776 . S
C101 C373 1.776 . S
C135 C407 1.776 . S
C169 C237 1.776 . S
C203 C271 1.776 . S
C379 C5 2.393 1_455 S
C209 C39 2.393 1_546 S
C243 C73 2.393 . S
C107 C277 2.393 1_455 S
C141 C311 2.393 1_545 S
C345 C175 2.393 . S
C172 C20 2.721 . S
C2 C54 2.721 . S
C88 C36 2.721 . S
C70 C122 2.721 . S
C156 C104 2.721 . S
C190 C138 2.721 . S
C240 C224 2.721 . S
C258 C274 2.721 . S
C292 C308 2.721 . S
C342 C326 2.721 . S
C376 C360 2.721 . S
C394 C206 2.721 . S
