# Generated by pormake.
# Topology zfn, (5)-cn, num edge types: 1
# Building blocks:
#     Node 0, Type 0, BuildingBlock: XOMCOT_clean_sbu_1, # of connection points: 5
#     Node 1, Type 0, BuildingBlock: XOMCOT_clean_sbu_1, # of connection points: 5
#     Node 2, Type 0, BuildingBlock: XOMCOT_clean_sbu_1, # of connection points: 5
#     Node 3, Type 0, BuildingBlock: XOMCOT_clean_sbu_1, # of connection points: 5
#     Node 4, Type 0, BuildingBlock: XOMCOT_clean_sbu_1, # of connection points: 5
#     Node 5, Type 0, BuildingBlock: XOMCOT_clean_sbu_1, # of connection points: 5
#     Node 6, Type 0, BuildingBlock: XOMCOT_clean_sbu_1, # of connection points: 5
#     Node 7, Type 0, BuildingBlock: XOMCOT_clean_sbu_1, # of connection points: 5
#     Node 8, Type 0, BuildingBlock: XOMCOT_clean_sbu_1, # of connection points: 5
#     Node 9, Type 0, BuildingBlock: XOMCOT_clean_sbu_1, # of connection points: 5
#     Node 10, Type 0, BuildingBlock: XOMCOT_clean_sbu_1, # of connection points: 5
#     Node 11, Type 0, BuildingBlock: XOMCOT_clean_sbu_1, # of connection points: 5
#     Node 12, Type 0, BuildingBlock: XOMCOT_clean_sbu_1, # of connection points: 5
#     Node 13, Type 0, BuildingBlock: XOMCOT_clean_sbu_1, # of connection points: 5
#     Node 14, Type 0, BuildingBlock: XOMCOT_clean_sbu_1, # of connection points: 5
#     Node 15, Type 0, BuildingBlock: XOMCOT_clean_sbu_1, # of connection points: 5
#     Edge 16, Type (0, 0), BuildingBlock: TEMPAE_clean_linker_10, # of connection points: 2
#     Edge 17, Type (0, 0), BuildingBlock: TEMPAE_clean_linker_10, # of connection points: 2
#     Edge 18, Type (0, 0), BuildingBlock: TEMPAE_clean_linker_10, # of connection points: 2
#     Edge 19, Type (0, 0), BuildingBlock: TEMPAE_clean_linker_10, # of connection points: 2
#     Edge 20, Type (0, 0), BuildingBlock: TEMPAE_clean_linker_10, # of connection points: 2
#     Edge 21, Type (0, 0), BuildingBlock: TEMPAE_clean_linker_10, # of connection points: 2
#     Edge 22, Type (0, 0), BuildingBlock: TEMPAE_clean_linker_10, # of connection points: 2
#     Edge 23, Type (0, 0), BuildingBlock: TEMPAE_clean_linker_10, # of connection points: 2
#     Edge 24, Type (0, 0), BuildingBlock: TEMPAE_clean_linker_10, # of connection points: 2
#     Edge 25, Type (0, 0), BuildingBlock: TEMPAE_clean_linker_10, # of connection points: 2
#     Edge 26, Type (0, 0), BuildingBlock: TEMPAE_clean_linker_10, # of connection points: 2
#     Edge 27, Type (0, 0), BuildingBlock: TEMPAE_clean_linker_10, # of connection points: 2
#     Edge 28, Type (0, 0), BuildingBlock: TEMPAE_clean_linker_10, # of connection points: 2
#     Edge 29, Type (0, 0), BuildingBlock: TEMPAE_clean_linker_10, # of connection points: 2
#     Edge 30, Type (0, 0), BuildingBlock: TEMPAE_clean_linker_10, # of connection points: 2
#     Edge 31, Type (0, 0), BuildingBlock: TEMPAE_clean_linker_10, # of connection points: 2
#     Edge 32, Type (0, 0), BuildingBlock: TEMPAE_clean_linker_10, # of connection points: 2
#     Edge 33, Type (0, 0), BuildingBlock: TEMPAE_clean_linker_10, # of connection points: 2
#     Edge 34, Type (0, 0), BuildingBlock: TEMPAE_clean_linker_10, # of connection points: 2
#     Edge 35, Type (0, 0), BuildingBlock: TEMPAE_clean_linker_10, # of connection points: 2
#     Edge 36, Type (0, 0), BuildingBlock: TEMPAE_clean_linker_10, # of connection points: 2
#     Edge 37, Type (0, 0), BuildingBlock: TEMPAE_clean_linker_10, # of connection points: 2
#     Edge 38, Type (0, 0), BuildingBlock: TEMPAE_clean_linker_10, # of connection points: 2
#     Edge 39, Type (0, 0), BuildingBlock: TEMPAE_clean_linker_10, # of connection points: 2
#     Edge 40, Type (0, 0), BuildingBlock: TEMPAE_clean_linker_10, # of connection points: 2
#     Edge 41, Type (0, 0), BuildingBlock: TEMPAE_clean_linker_10, # of connection points: 2
#     Edge 42, Type (0, 0), BuildingBlock: TEMPAE_clean_linker_10, # of connection points: 2
#     Edge 43, Type (0, 0), BuildingBlock: TEMPAE_clean_linker_10, # of connection points: 2
#     Edge 44, Type (0, 0), BuildingBlock: TEMPAE_clean_linker_10, # of connection points: 2
#     Edge 45, Type (0, 0), BuildingBlock: TEMPAE_clean_linker_10, # of connection points: 2
#     Edge 46, Type (0, 0), BuildingBlock: TEMPAE_clean_linker_10, # of connection points: 2
#     Edge 47, Type (0, 0), BuildingBlock: TEMPAE_clean_linker_10, # of connection points: 2
#     Edge 48, Type (0, 0), BuildingBlock: TEMPAE_clean_linker_10, # of connection points: 2
#     Edge 49, Type (0, 0), BuildingBlock: TEMPAE_clean_linker_10, # of connection points: 2
#     Edge 50, Type (0, 0), BuildingBlock: TEMPAE_clean_linker_10, # of connection points: 2
#     Edge 51, Type (0, 0), BuildingBlock: TEMPAE_clean_linker_10, # of connection points: 2
#     Edge 52, Type (0, 0), BuildingBlock: TEMPAE_clean_linker_10, # of connection points: 2
#     Edge 53, Type (0, 0), BuildingBlock: TEMPAE_clean_linker_10, # of connection points: 2
#     Edge 54, Type (0, 0), BuildingBlock: TEMPAE_clean_linker_10, # of connection points: 2
#     Edge 55, Type (0, 0), BuildingBlock: TEMPAE_clean_linker_10, # of connection points: 2
# Relax obj value: 0.120
# Max RMSD: 0.125
# Mean RMSD: 0.125
data_MOF--net-zfn--node1-XOMCOT_clean_sbu_1--edge1-TEMPAE_clean_linker_10
_symmetry_space_group_name_H-M    P1
_symmetry_Int_Tables_number       1
_symmetry_cell_setting            triclinic
loop_
_symmetry_equiv_pos_as_xyz
'x, y, z'
_cell_length_a     75.892653
_cell_length_b     75.904196
_cell_length_c     17.733894
_cell_angle_alpha  90.014168
_cell_angle_beta   90.02027
_cell_angle_gamma 90.013066
loop_
_atom_site_label
_atom_site_type_symbol
_atom_site_fract_x
_atom_site_fract_y
_atom_site_fract_z
_atom_type_partial_charge
C0 C 0.99851 0.33358 0.08225 0.0
C1 C 0.99649 0.33168 1.00547 0.0
N2 N 0.01118 0.3377 0.97125 0.0
N3 N 0.01439 0.34074 0.09679 0.0
C4 C 0.02183 0.34302 0.02806 0.0
H5 H 0.98883 0.33035 0.1248 0.0
Co6 Co 0.02223 0.34729 0.19288 0.0
C7 C 0.05954 0.35521 0.15951 0.0
O8 O 0.0648 0.34396 0.21109 0.0
N9 N 0.02975 0.35401 0.28996 0.0
C10 C 0.03997 0.37009 0.38531 0.0
C11 C 0.03863 0.36883 0.30818 0.0
C12 C 0.02568 0.3466 0.35723 0.0
N13 N 0.03176 0.35613 0.41633 0.0
O14 O 0.0338 0.32497 0.20294 0.0
H15 H 0.0433 0.37848 0.26808 0.0
H16 H 0.01765 0.33493 0.3631 0.0
O17 O 0.04311 0.35769 0.14868 0.0
C18 C 0.02376 0.31318 0.23057 0.0
O19 O 0.00749 0.31752 0.24789 0.0
N20 N 0.00971 0.36832 0.18455 0.0
C21 C 0.98678 0.39698 0.17808 0.0
C22 C 0.00229 0.39678 0.13489 0.0
C23 C 0.01357 0.3822 0.13844 0.0
C24 C 0.9948 0.36835 0.22713 0.0
C25 C 0.98318 0.38255 0.22499 0.0
H26 H 0.02513 0.38199 0.10301 0.0
H27 H 0.99185 0.35711 0.26245 0.0
H28 H 0.03454 0.34908 0.01933 0.0
H29 H 0.98501 0.32641 0.9772 0.0
H30 H 0.04629 0.38067 0.41609 0.0
H31 H 0.00542 0.40755 0.09718 0.0
H32 H 0.97146 0.38221 0.25979 0.0
C33 C 0.16493 0.00272 0.56449 0.0
C34 C 0.16675 0.00056 0.48773 0.0
N35 N 0.16276 0.01592 0.4535 0.0
N36 N 0.1598 0.01936 0.57907 0.0
C37 C 0.15874 0.02711 0.51039 0.0
H38 H 0.16678 0.99267 0.607 0.0
Co39 Co 0.15385 0.0279 0.67494 0.0
C40 C 0.14644 0.06514 0.63531 0.0
O41 O 0.158 0.07099 0.68443 0.0
N42 N 0.14778 0.03618 0.77185 0.0
C43 C 0.13257 0.04754 0.86744 0.0
C44 C 0.13361 0.04603 0.79029 0.0
C45 C 0.15502 0.03172 0.83906 0.0
N46 N 0.14601 0.03845 0.89836 0.0
O47 O 0.17649 0.03897 0.68229 0.0
H48 H 0.12415 0.0512 0.75044 0.0
H49 H 0.16612 0.0229 0.84469 0.0
O50 O 0.14372 0.04864 0.62886 0.0
C51 C 0.18796 0.02856 0.70993 0.0
O52 O 0.18308 0.01247 0.7276 0.0
N53 N 0.1324 0.01592 0.66954 0.0
C54 C 0.10247 0.99457 0.66984 0.0
C55 C 0.10396 0.00869 0.619 0.0
C56 C 0.11911 0.01923 0.61959 0.0
C57 C 0.1313 0.00213 0.71836 0.0
C58 C 0.11643 0.99137 0.71986 0.0
H59 H 0.12023 0.02978 0.57911 0.0
H60 H 0.14219 0.99938 0.75596 0.0
H61 H 0.15449 0.04053 0.50179 0.0
H62 H 0.17056 0.98851 0.45949 0.0
H63 H 0.12247 0.05455 0.89827 0.0
H64 H 0.09352 0.01158 0.5792 0.0
H65 H 0.11607 0.98037 0.75872 0.0
C66 C 0.49796 0.16263 0.07386 0.0
C67 C 0.49993 0.16475 0.99726 0.0
N68 N 0.48437 0.16133 0.96341 0.0
N69 N 0.48121 0.15799 0.08905 0.0
C70 C 0.47322 0.15743 0.02071 0.0
H71 H 0.50823 0.1639 0.11581 0.0
Co72 Co 0.47294 0.15173 0.18528 0.0
C73 C 0.43608 0.14251 0.14652 0.0
O74 O 0.4298 0.15339 0.19747 0.0
N75 N 0.46501 0.14537 0.28175 0.0
C76 C 0.45455 0.1298 0.37787 0.0
C77 C 0.45614 0.13063 0.30076 0.0
C78 C 0.4688 0.15323 0.34839 0.0
N79 N 0.46262 0.14396 0.40816 0.0
O80 O 0.4607 0.17375 0.19342 0.0
H81 H 0.45168 0.12072 0.26133 0.0
H82 H 0.47672 0.16504 0.35299 0.0
O83 O 0.45268 0.14068 0.13895 0.0
C84 C 0.47084 0.18672 0.20716 0.0
O85 O 0.48788 0.18395 0.21235 0.0
N86 N 0.48592 0.1309 0.18003 0.0
C87 C 0.5087 0.10207 0.18151 0.0
C88 C 0.49418 0.10249 0.13234 0.0
C89 C 0.48296 0.11714 0.13205 0.0
C90 C 0.49997 0.13076 0.22771 0.0
C91 C 0.51146 0.11645 0.22976 0.0
H92 H 0.47215 0.11749 0.09247 0.0
H93 H 0.50228 0.14193 0.26432 0.0
H94 H 0.45965 0.15359 0.01277 0.0
H95 H 0.51205 0.16831 0.96898 0.0
H96 H 0.44818 0.11935 0.40913 0.0
H97 H 0.49174 0.09179 0.09328 0.0
H98 H 0.52237 0.11665 0.26913 0.0
C99 C 0.34452 0.49639 0.68257 0.0
C100 C 0.34417 0.49861 0.6055 0.0
N101 N 0.34453 0.48257 0.57304 0.0
N102 N 0.34538 0.47905 0.69854 0.0
C103 C 0.34509 0.47094 0.63058 0.0
H104 H 0.34484 0.50677 0.72434 0.0
Co105 Co 0.34886 0.46961 0.79448 0.0
C106 C 0.37363 0.44008 0.76435 0.0
O107 O 0.38325 0.44476 0.82271 0.0
N108 N 0.3518 0.46001 0.89289 0.0
C109 C 0.35185 0.44074 0.98811 0.0
C110 C 0.3511 0.44271 0.91111 0.0
C111 C 0.35192 0.46828 0.96076 0.0
N112 N 0.35229 0.45686 0.01918 0.0
O113 O 0.32605 0.45891 0.78982 0.0
H114 H 0.34931 0.43208 0.87124 0.0
H115 H 0.3509 0.48233 0.9682 0.0
O116 O 0.35958 0.44864 0.74873 0.0
C117 C 0.31463 0.46791 0.82566 0.0
O118 O 0.31986 0.48232 0.8602 0.0
N119 N 0.37076 0.48167 0.79883 0.0
C120 C 0.39945 0.50487 0.79637 0.0
C121 C 0.39876 0.49046 0.74714 0.0
C122 C 0.38407 0.47934 0.74767 0.0
C123 C 0.37099 0.49605 0.84495 0.0
C124 C 0.38529 0.50762 0.84565 0.0
H125 H 0.38306 0.46956 0.70377 0.0
H126 H 0.35949 0.49935 0.87758 0.0
H127 H 0.3461 0.45683 0.62301 0.0
H128 H 0.34398 0.51104 0.57556 0.0
H129 H 0.35113 0.42847 0.01906 0.0
H130 H 0.40901 0.48837 0.70557 0.0
H131 H 0.38501 0.51894 0.88283 0.0
C132 C 0.00268 0.16097 0.40506 0.0
C133 C 0.00058 0.16281 0.48183 0.0
N134 N 0.01576 0.15816 0.51605 0.0
N135 N 0.01911 0.1552 0.39047 0.0
C136 C 0.02679 0.15374 0.45916 0.0
H137 H 0.99272 0.16325 0.36256 0.0
Co138 Co 0.02741 0.14903 0.29451 0.0
C139 C 0.06491 0.14233 0.3306 0.0
O140 O 0.07016 0.1537 0.27945 0.0
N141 N 0.03544 0.14271 0.19754 0.0
C142 C 0.04647 0.12716 0.10223 0.0
C143 C 0.04501 0.12833 0.17937 0.0
C144 C 0.03112 0.14996 0.13021 0.0
N145 N 0.03766 0.14075 0.07112 0.0
O146 O 0.03811 0.17179 0.28523 0.0
H147 H 0.05005 0.11886 0.21948 0.0
H148 H 0.02255 0.16124 0.12427 0.0
O149 O 0.04852 0.13938 0.33971 0.0
C150 C 0.02752 0.18306 0.25745 0.0
O151 O 0.01149 0.17792 0.23999 0.0
N152 N 0.01574 0.12747 0.30211 0.0
C153 C 0.99421 0.09771 0.30809 0.0
C154 C 0.00874 0.09941 0.35671 0.0
C155 C 0.01936 0.11447 0.35299 0.0
C156 C 0.00167 0.1261 0.25485 0.0
C157 C 0.99081 0.1113 0.25651 0.0
H158 H 0.03017 0.1158 0.39213 0.0
H159 H 0.99871 0.13676 0.21642 0.0
H160 H 0.04 0.14889 0.46778 0.0
H161 H 0.98869 0.16707 0.51007 0.0
H162 H 0.05327 0.11689 0.07151 0.0
H163 H 0.01181 0.08925 0.39751 0.0
H164 H 0.97952 0.11078 0.21919 0.0
C165 C 0.34076 0.00246 0.88801 0.0
C166 C 0.33899 0.0003 0.96481 0.0
N167 N 0.34338 0.01556 0.99908 0.0
N168 N 0.34626 0.01898 0.87346 0.0
C169 C 0.34759 0.02667 0.9422 0.0
H170 H 0.33861 0.99248 0.84546 0.0
Co171 Co 0.35223 0.02751 0.77757 0.0
C172 C 0.35986 0.06461 0.81924 0.0
O173 O 0.34815 0.07066 0.77123 0.0
N174 N 0.35836 0.03577 0.6808 0.0
C175 C 0.37361 0.04712 0.58532 0.0
C176 C 0.37251 0.04566 0.66248 0.0
C177 C 0.3512 0.03122 0.61353 0.0
N178 N 0.36023 0.03796 0.55432 0.0
O179 O 0.32973 0.03886 0.77071 0.0
H180 H 0.3819 0.05092 0.70241 0.0
H181 H 0.34014 0.02236 0.60777 0.0
O182 O 0.36263 0.04809 0.8241 0.0
C183 C 0.31818 0.02859 0.74272 0.0
O184 O 0.32294 0.01248 0.72463 0.0
N185 N 0.37344 0.01518 0.78219 0.0
C186 C 0.40251 0.99272 0.78096 0.0
C187 C 0.40249 0.00797 0.82587 0.0
C188 C 0.38771 0.01902 0.82619 0.0
C189 C 0.37327 0.00051 0.73813 0.0
C190 C 0.38766 0.98912 0.73645 0.0
H191 H 0.3877 0.03039 0.8627 0.0
H192 H 0.36175 0.99758 0.70446 0.0
H193 H 0.35214 0.03999 0.95088 0.0
H194 H 0.33493 0.98834 0.99304 0.0
H195 H 0.38372 0.05414 0.55452 0.0
H196 H 0.41361 0.01108 0.86182 0.0
H197 H 0.38716 0.9776 0.70045 0.0
C198 C 0.49388 0.34335 0.46558 0.0
C199 C 0.49595 0.34305 0.54266 0.0
N200 N 0.47991 0.34442 0.57462 0.0
N201 N 0.4766 0.34482 0.449 0.0
C202 C 0.46841 0.3454 0.51661 0.0
H203 H 0.5043 0.34264 0.42412 0.0
Co204 Co 0.46714 0.34605 0.35217 0.0
C205 C 0.43627 0.36978 0.36933 0.0
O206 O 0.43996 0.37742 0.30473 0.0
N207 N 0.45746 0.34674 0.25398 0.0
C208 C 0.43829 0.34119 0.16164 0.0
C209 C 0.44082 0.34152 0.23826 0.0
C210 C 0.46484 0.34925 0.18523 0.0
N211 N 0.45344 0.34604 0.12831 0.0
O212 O 0.45673 0.32319 0.36446 0.0
H213 H 0.4312 0.33763 0.28007 0.0
H214 H 0.47853 0.35236 0.17596 0.0
O215 O 0.44597 0.35718 0.39312 0.0
C216 C 0.46753 0.31037 0.36197 0.0
O217 O 0.48446 0.31374 0.35691 0.0
N218 N 0.47875 0.36787 0.33967 0.0
C219 C 0.50176 0.39663 0.33035 0.0
C220 C 0.48675 0.39732 0.37646 0.0
C221 C 0.47563 0.38267 0.38165 0.0
C222 C 0.49365 0.36676 0.29718 0.0
C223 C 0.50508 0.38106 0.29016 0.0
H224 H 0.46522 0.383 0.42296 0.0
H225 H 0.49721 0.35435 0.27149 0.0
H226 H 0.45428 0.34634 0.5234 0.0
H227 H 0.50832 0.34223 0.57283 0.0
H228 H 0.42633 0.33736 0.13271 0.0
H229 H 0.48411 0.40873 0.41132 0.0
H230 H 0.51665 0.37973 0.25494 0.0
C231 C 0.16242 0.49721 0.94965 0.0
C232 C 0.1643 0.49929 0.0264 0.0
N233 N 0.15895 0.48436 0.06069 0.0
N234 N 0.15591 0.48106 0.93518 0.0
C235 C 0.15402 0.47351 1.00392 0.0
H236 H 0.16522 0.50701 0.90705 0.0
Co237 Co 0.14966 0.47295 0.83914 0.0
C238 C 0.14182 0.43565 0.8742 0.0
O239 O 0.15321 0.43019 0.82356 0.0
N240 N 0.14326 0.46514 0.74208 0.0
C241 C 0.12746 0.4546 0.64651 0.0
C242 C 0.12863 0.45598 0.72363 0.0
C243 C 0.15066 0.46933 0.67493 0.0
N244 N 0.1413 0.46307 0.61567 0.0
O245 O 0.17213 0.46156 0.83069 0.0
H246 H 0.11899 0.45119 0.76354 0.0
H247 H 0.16217 0.4776 0.66931 0.0
O248 O 0.13932 0.4521 0.88379 0.0
C249 C 0.18398 0.47173 0.80435 0.0
O250 O 0.17951 0.4879 0.78601 0.0
N251 N 0.12846 0.48526 0.84608 0.0
C252 C 0.09939 0.50771 0.85057 0.0
C253 C 0.1 0.49259 0.89614 0.0
C254 C 0.11478 0.48155 0.89353 0.0
C255 C 0.12805 0.49981 0.80134 0.0
C256 C 0.11363 0.51116 0.80238 0.0
H257 H 0.11531 0.47032 0.9308 0.0
H258 H 0.13915 0.50268 0.76507 0.0
H259 H 0.14856 0.46053 0.01264 0.0
H260 H 0.16913 0.51098 0.0546 0.0
H261 H 0.11702 0.44809 0.61561 0.0
H262 H 0.08939 0.48958 0.93489 0.0
H263 H 0.11365 0.52257 0.7657 0.0
C264 C 0.99377 0.66608 0.90745 0.0
C265 C 0.99555 0.668 0.98432 0.0
N266 N 0.98136 0.66076 0.018 0.0
N267 N 0.97852 0.65772 0.89236 0.0
C268 C 0.97124 0.65468 0.96087 0.0
H269 H 0.00321 0.67016 0.86528 0.0
Co270 Co 0.97112 0.65083 0.79613 0.0
C271 C 0.93344 0.64324 0.82071 0.0
O272 O 0.92878 0.65217 0.76053 0.0
N273 N 0.96401 0.64371 0.69885 0.0
C274 C 0.95458 0.62691 0.60421 0.0
C275 C 0.95598 0.62837 0.68124 0.0
C276 C 0.96751 0.65125 0.63127 0.0
N277 N 0.9619 0.64129 0.57264 0.0
O278 O 0.96036 0.67346 0.7826 0.0
H279 H 0.95185 0.61857 0.72183 0.0
H280 H 0.97479 0.66338 0.62472 0.0
O281 O 0.94961 0.64166 0.83855 0.0
C282 C 0.97072 0.68502 0.7553 0.0
O283 O 0.98682 0.68027 0.7372 0.0
N284 N 0.9827 0.62934 0.80887 0.0
C285 C 0.00381 0.59941 0.82154 0.0
C286 C 0.98864 0.60132 0.86619 0.0
C287 C 0.97822 0.61645 0.85905 0.0
C288 C 0.99742 0.62778 0.7656 0.0
C289 C 0.0081 0.61289 0.77062 0.0
H290 H 0.96678 0.61786 0.89475 0.0
H291 H 0.00097 0.63832 0.72742 0.0
H292 H 0.95911 0.64747 0.96919 0.0
H293 H 0.00653 0.67415 0.01302 0.0
H294 H 0.94882 0.61596 0.57387 0.0
H295 H 0.98488 0.59124 0.90626 0.0
H296 H 0.01987 0.61217 0.73626 0.0
C297 C 0.84301 0.99799 0.46282 0.0
C298 C 0.84254 7e-05 0.53986 0.0
N299 N 0.8446 0.98412 0.57193 0.0
N300 N 0.84527 0.98079 0.44642 0.0
C301 C 0.84617 0.97266 0.51406 0.0
H302 H 0.84194 0.00835 0.42123 0.0
Co303 Co 0.84711 0.97152 0.34962 0.0
C304 C 0.87179 0.94169 0.36647 0.0
O305 O 0.87999 0.94676 0.3049 0.0
N306 N 0.84836 0.96201 0.25124 0.0
C307 C 0.84377 0.94262 0.15879 0.0
C308 C 0.84398 0.94514 0.23538 0.0
C309 C 0.85045 0.96955 0.18253 0.0
N310 N 0.84782 0.95801 0.12556 0.0
O311 O 0.82437 0.96071 0.35974 0.0
H312 H 0.8405 0.93534 0.27706 0.0
H313 H 0.85276 0.98339 0.17332 0.0
O314 O 0.85845 0.95034 0.3903 0.0
C315 C 0.81142 0.97132 0.35525 0.0
O316 O 0.81457 0.98827 0.34897 0.0
N317 N 0.86883 0.98353 0.33951 0.0
C318 C 0.89772 0.00641 0.33201 0.0
C319 C 0.89793 0.99179 0.38035 0.0
C320 C 0.88319 0.9808 0.38475 0.0
C321 C 0.86808 0.99822 0.29548 0.0
C322 C 0.88248 0.00957 0.28938 0.0
H323 H 0.88309 0.97069 0.42747 0.0
H324 H 0.85589 0.0017 0.26785 0.0
H325 H 0.84782 0.95859 0.52095 0.0
H326 H 0.84117 0.01241 0.56994 0.0
H327 H 0.84052 0.9305 0.1298 0.0
H328 H 0.90904 0.98935 0.41722 0.0
H329 H 0.88149 0.02095 0.25279 0.0
C330 C 0.50426 0.8475 0.88825 0.0
C331 C 0.50212 0.84734 0.96529 0.0
N332 N 0.51818 0.84815 0.99749 0.0
N333 N 0.52159 0.84832 0.87196 0.0
C334 C 0.52975 0.84867 0.93969 0.0
H335 H 0.49386 0.84717 0.8466 0.0
Co336 Co 0.53106 0.8492 0.77517 0.0
C337 C 0.56312 0.87121 0.79196 0.0
O338 O 0.55964 0.87904 0.72754 0.0
N339 N 0.54068 0.84948 0.67694 0.0
C340 C 0.55948 0.84301 0.58443 0.0
C341 C 0.557 0.84339 0.66103 0.0
C342 C 0.5334 0.85243 0.60829 0.0
N343 N 0.54459 0.84866 0.55125 0.0
O344 O 0.54016 0.82578 0.78695 0.0
H345 H 0.56641 0.83895 0.70271 0.0
H346 H 0.51989 0.85624 0.59922 0.0
O347 O 0.55289 0.85906 0.81603 0.0
C348 C 0.5287 0.81355 0.78361 0.0
O349 O 0.512 0.81778 0.77651 0.0
N350 N 0.52073 0.87172 0.76382 0.0
C351 C 0.49919 0.90165 0.76096 0.0
C352 C 0.51428 0.90113 0.80647 0.0
C353 C 0.52467 0.88593 0.8083 0.0
C354 C 0.50576 0.87184 0.72133 0.0
C355 C 0.49505 0.88677 0.71761 0.0
H356 H 0.5351 0.88533 0.84944 0.0
H357 H 0.50142 0.85988 0.69409 0.0
H358 H 0.5439 0.84913 0.9467 0.0
H359 H 0.4897 0.84701 0.99525 0.0
H360 H 0.57121 0.83857 0.55539 0.0
H361 H 0.51771 0.91213 0.84252 0.0
H362 H 0.48305 0.88627 0.68457 0.0
C363 C 0.65699 0.4999 0.40755 0.0
C364 C 0.65878 0.49782 0.48427 0.0
N365 N 0.65485 0.51324 0.51813 0.0
N366 N 0.65207 0.51658 0.39245 0.0
C367 C 0.65091 0.52439 0.46102 0.0
H368 H 0.65865 0.48973 0.36544 0.0
Co369 Co 0.6462 0.52486 0.29584 0.0
C370 C 0.64108 0.56148 0.35443 0.0
O371 O 0.6572 0.56642 0.33775 0.0
N372 N 0.64024 0.53292 0.19937 0.0
C373 C 0.62567 0.54502 0.10387 0.0
C374 C 0.62658 0.54346 0.18096 0.0
C375 C 0.64742 0.52822 0.13247 0.0
N376 N 0.63873 0.53537 0.07316 0.0
O377 O 0.6689 0.53577 0.28665 0.0
H378 H 0.61746 0.5492 0.22079 0.0
H379 H 0.65833 0.51911 0.12739 0.0
O380 O 0.63594 0.54586 0.33967 0.0
C381 C 0.68133 0.52506 0.27195 0.0
O382 O 0.67769 0.50822 0.26508 0.0
N383 N 0.62466 0.51303 0.30235 0.0
C384 C 0.59476 0.49165 0.30763 0.0
C385 C 0.59672 0.50586 0.35774 0.0
C386 C 0.61186 0.51635 0.35455 0.0
C387 C 0.62306 0.49926 0.25367 0.0
C388 C 0.6082 0.48846 0.25502 0.0
H389 H 0.61345 0.52679 0.39534 0.0
H390 H 0.63359 0.49645 0.21439 0.0
H391 H 0.64646 0.53775 0.46953 0.0
H392 H 0.66246 0.48576 0.51271 0.0
H393 H 0.61596 0.55253 0.07284 0.0
H394 H 0.58671 0.50878 0.39942 0.0
H395 H 0.60753 0.47739 0.2166 0.0
C396 C 0.99719 0.83306 0.61125 0.0
C397 C 0.99888 0.83114 0.53436 0.0
N398 N 0.98509 0.83913 0.50075 0.0
N399 N 0.98239 0.84218 0.62643 0.0
C400 C 0.97529 0.84567 0.55793 0.0
H401 H 0.00641 0.82848 0.65338 0.0
Co402 Co 0.97535 0.84943 0.72263 0.0
C403 C 0.93789 0.85797 0.69794 0.0
O404 O 0.93297 0.84916 0.75805 0.0
N405 N 0.9686 0.85692 0.81979 0.0
C406 C 0.95972 0.87407 0.91424 0.0
C407 C 0.96104 0.8725 0.83721 0.0
C408 C 0.9719 0.84934 0.88747 0.0
N409 N 0.96661 0.85949 0.94598 0.0
O410 O 0.96385 0.82719 0.73699 0.0
H411 H 0.95715 0.88237 0.79648 0.0
H412 H 0.97878 0.83698 0.89416 0.0
O413 O 0.9541 0.85918 0.68029 0.0
C414 C 0.97372 0.81525 0.76445 0.0
O415 O 0.99002 0.81935 0.78234 0.0
N416 N 0.98763 0.8705 0.70901 0.0
C417 C 0.01014 0.89932 0.69292 0.0
C418 C 0.99433 0.89837 0.65189 0.0
C419 C 0.98325 0.88375 0.6604 0.0
C420 C 0.00282 0.87124 0.74964 0.0
C421 C 0.01422 0.88556 0.74282 0.0
H422 H 0.97142 0.88299 0.62668 0.0
H423 H 0.00616 0.86051 0.78713 0.0
H424 H 0.96357 0.85352 0.54964 0.0
H425 H 0.00954 0.82447 0.50556 0.0
H426 H 0.95429 0.88519 0.94448 0.0
H427 H 0.99078 0.90858 0.61204 0.0
H428 H 0.02614 0.88582 0.77635 0.0
C429 C 0.65377 0.997 0.10798 0.0
C430 C 0.65425 0.99922 0.03102 0.0
N431 N 0.65463 0.98318 0.99862 0.0
N432 N 0.65362 0.97963 0.12402 0.0
C433 C 0.65442 0.97153 0.05615 0.0
H434 H 0.65283 0.00736 0.14966 0.0
Co435 Co 0.65015 0.97022 0.22033 0.0
C436 C 0.6255 0.94075 0.18872 0.0
O437 O 0.61559 0.94571 0.24574 0.0
N438 N 0.6473 0.96072 0.31855 0.0
C439 C 0.64687 0.9415 0.41386 0.0
C440 C 0.64732 0.94341 0.33688 0.0
C441 C 0.64809 0.96899 0.38629 0.0
N442 N 0.64739 0.95762 0.44483 0.0
O443 O 0.67307 0.95964 0.21784 0.0
H444 H 0.6485 0.93268 0.2972 0.0
H445 H 0.64999 0.98298 0.39333 0.0
O446 O 0.63978 0.94906 0.17444 0.0
C447 C 0.6858 0.97049 0.22347 0.0
O448 O 0.68235 0.98743 0.2266 0.0
N449 N 0.62796 0.98191 0.22316 0.0
C450 C 0.59865 0.00436 0.21635 0.0
C451 C 0.60063 0.99053 0.16466 0.0
C452 C 0.61553 0.97976 0.16788 0.0
C453 C 0.62646 0.99566 0.27226 0.0
C454 C 0.6118 0.00679 0.2709 0.0
H455 H 0.61744 0.97036 0.12301 0.0
H456 H 0.63724 0.99895 0.309 0.0
H457 H 0.65393 0.95739 0.04866 0.0
H458 H 0.65396 0.01165 1.00109 0.0
H459 H 0.64711 0.9292 0.44479 0.0
H460 H 0.59103 0.98836 0.12042 0.0
H461 H 0.61132 0.01784 0.30949 0.0
C462 C 0.49973 0.64721 0.60091 0.0
C463 C 0.49798 0.64704 0.52368 0.0
N464 N 0.51394 0.64998 0.49316 0.0
N465 N 0.51679 0.64993 0.61895 0.0
C466 C 0.52508 0.65186 0.55199 0.0
H467 H 0.48927 0.64511 0.64132 0.0
Co468 Co 0.52646 0.6496 0.71595 0.0
C469 C 0.55774 0.62615 0.69805 0.0
O470 O 0.55432 0.61841 0.76274 0.0
N471 N 0.53634 0.64982 0.81412 0.0
C472 C 0.55601 0.65366 0.90641 0.0
C473 C 0.55343 0.65339 0.82967 0.0
C474 C 0.52866 0.64892 0.88304 0.0
N475 N 0.54037 0.65091 0.93973 0.0
O476 O 0.53653 0.6725 0.70032 0.0
H477 H 0.56343 0.65604 0.78773 0.0
H478 H 0.51474 0.64727 0.89263 0.0
O479 O 0.54774 0.63856 0.67468 0.0
C480 C 0.52586 0.68537 0.69444 0.0
O481 O 0.50884 0.68221 0.69383 0.0
N482 N 0.51534 0.62758 0.73229 0.0
C483 C 0.49373 0.59802 0.75046 0.0
C484 C 0.50805 0.59761 0.7006 0.0
C485 C 0.51854 0.61263 0.69138 0.0
C486 C 0.50083 0.62843 0.77745 0.0
C487 C 0.49015 0.61371 0.78902 0.0
H488 H 0.52855 0.61239 0.64828 0.0
H489 H 0.49684 0.64091 0.80104 0.0
H490 H 0.53909 0.65412 0.54633 0.0
H491 H 0.48593 0.64488 0.49232 0.0
H492 H 0.56826 0.65634 0.93553 0.0
H493 H 0.51088 0.58593 0.66767 0.0
H494 H 0.47865 0.6149 0.82484 0.0
C495 C 0.83992 0.50007 0.04006 0.0
C496 C 0.83955 0.49802 0.96302 0.0
N497 N 0.84108 0.51405 0.93113 0.0
N498 N 0.8416 0.51732 0.05665 0.0
C499 C 0.84226 0.52553 0.98913 0.0
H500 H 0.83918 0.48966 0.08155 0.0
Co501 Co 0.84313 0.52658 0.15352 0.0
C502 C 0.86728 0.55682 0.13816 0.0
O503 O 0.8755 0.55167 0.19958 0.0
N504 N 0.84407 0.53608 0.25199 0.0
C505 C 0.83898 0.5554 0.34422 0.0
C506 C 0.83923 0.55284 0.26768 0.0
C507 C 0.8464 0.52866 0.32079 0.0
N508 N 0.84347 0.54016 0.3776 0.0
O509 O 0.82017 0.53693 0.14281 0.0
H510 H 0.83549 0.56252 0.22588 0.0
H511 H 0.84913 0.5149 0.33019 0.0
O512 O 0.8541 0.54805 0.11348 0.0
C513 C 0.80733 0.52615 0.14505 0.0
O514 O 0.81064 0.50921 0.15005 0.0
N515 N 0.86512 0.51502 0.16393 0.0
C516 C 0.89444 0.49267 0.16954 0.0
C517 C 0.89419 0.50725 0.12104 0.0
C518 C 0.87926 0.518 0.11776 0.0
C519 C 0.86482 0.50036 0.20825 0.0
C520 C 0.87946 0.48927 0.21345 0.0
H521 H 0.87886 0.52812 0.07513 0.0
H522 H 0.85277 0.49659 0.23624 0.0
H523 H 0.84345 0.53965 0.98244 0.0
H524 H 0.8386 0.48566 0.93281 0.0
H525 H 0.83541 0.56745 0.37309 0.0
H526 H 0.90524 0.51006 0.08434 0.0
H527 H 0.87868 0.47763 0.24857 0.0
C528 C 0.95596 0.4085 0.16848 0.0
C529 C 0.9741 0.41187 0.17333 0.0
C530 C 0.94369 0.42229 0.16656 0.0
C531 C 0.94966 0.43995 0.16977 0.0
C532 C 0.96797 0.44348 0.17364 0.0
C533 C 0.97999 0.42938 0.17511 0.0
C534 C 0.92429 0.41796 0.16164 0.0
C535 C 0.97483 0.46213 0.1774 0.0
C536 C 0.91726 0.47469 0.10202 0.0
C537 C 0.90957 0.48021 0.17 0.0
C538 C 0.9307 0.46198 0.10123 0.0
C539 C 0.93662 0.45462 0.17007 0.0
C540 C 0.92928 0.46052 0.23901 0.0
C541 C 0.91581 0.4732 0.23812 0.0
C542 C 0.93811 0.45596 0.02652 0.0
C543 C 0.93532 0.45308 0.31363 0.0
H544 H 0.95135 0.39499 0.16582 0.0
H545 H 0.99398 0.43206 0.17939 0.0
H546 H 0.91733 0.42318 0.2119 0.0
H547 H 0.91842 0.42437 0.11136 0.0
H548 H 0.92184 0.40355 0.15806 0.0
H549 H 0.98945 0.46266 0.1785 0.0
H550 H 0.97006 0.46976 0.12813 0.0
H551 H 0.9697 0.46872 0.22873 0.0
H552 H 0.91235 0.47986 0.04908 0.0
H553 H 0.91005 0.47756 0.29085 0.0
H554 H 0.93471 0.44191 0.01711 0.0
H555 H 0.95269 0.45694 0.02687 0.0
H556 H 0.93293 0.4638 0.97849 0.0
H557 H 0.93202 0.43886 0.31657 0.0
H558 H 0.92909 0.45986 0.36234 0.0
H559 H 0.94984 0.45425 0.31887 0.0
C560 C 0.07963 0.9768 0.73787 0.0
C561 C 0.08682 0.98275 0.66959 0.0
C562 C 0.06604 0.96427 0.73903 0.0
C563 C 0.05943 0.95751 0.67021 0.0
C564 C 0.06609 0.96401 0.60099 0.0
C565 C 0.07972 0.97655 0.60149 0.0
C566 C 0.05925 0.95776 0.81407 0.0
C567 C 0.05935 0.95716 0.52644 0.0
C568 C 0.04078 0.91116 0.67932 0.0
C569 C 0.02258 0.9143 0.68301 0.0
C570 C 0.05284 0.9251 0.67356 0.0
C571 C 0.04659 0.94266 0.67114 0.0
C572 C 0.02822 0.94593 0.67288 0.0
C573 C 0.01642 0.93171 0.67877 0.0
C574 C 0.07231 0.92101 0.67152 0.0
C575 C 0.02106 0.96447 0.67031 0.0
H576 H 0.08484 0.98177 0.79068 0.0
H577 H 0.08529 0.98098 0.54851 0.0
H578 H 0.04468 0.95882 0.81621 0.0
H579 H 0.06265 0.94363 0.82107 0.0
H580 H 0.06489 0.96523 0.86226 0.0
H581 H 0.06467 0.96473 0.4779 0.0
H582 H 0.0632 0.94314 0.51975 0.0
H583 H 0.04475 0.95773 0.52474 0.0
H584 H 0.04563 0.89774 0.681 0.0
H585 H 0.00239 0.93424 0.68205 0.0
H586 H 0.0789 0.92693 0.72133 0.0
H587 H 0.07839 0.92692 0.62057 0.0
H588 H 0.07499 0.90663 0.67135 0.0
H589 H 0.02536 0.9718 0.72125 0.0
H590 H 0.00644 0.96475 0.66759 0.0
H591 H 0.0264 0.97157 0.62063 0.0
C592 C 0.57555 0.02387 0.27403 0.0
C593 C 0.58383 0.01713 0.20945 0.0
C594 C 0.56247 0.03689 0.26847 0.0
C595 C 0.55752 0.04333 0.19657 0.0
C596 C 0.56544 0.03622 0.13105 0.0
C597 C 0.57852 0.02325 0.13827 0.0
C598 C 0.55431 0.04411 0.33968 0.0
C599 C 0.56055 0.04275 0.05338 0.0
C600 C 0.51489 0.06952 0.17961 0.0
C601 C 0.52113 0.08691 0.18227 0.0
C602 C 0.52657 0.05516 0.18358 0.0
C603 C 0.54491 0.05829 0.19025 0.0
C604 C 0.55129 0.07582 0.19169 0.0
C605 C 0.53934 0.08988 0.18757 0.0
C606 C 0.51929 0.03666 0.18172 0.0
C607 C 0.57074 0.07973 0.19825 0.0
H608 H 0.57943 0.01905 0.32914 0.0
H609 H 0.58502 0.01835 0.08807 0.0
H610 H 0.55772 0.05826 0.34574 0.0
H611 H 0.53974 0.04321 0.33654 0.0
H612 H 0.55886 0.03701 0.39087 0.0
H613 H 0.56696 0.03497 1.00797 0.0
H614 H 0.54606 0.04216 0.0454 0.0
H615 H 0.56455 0.05674 0.04727 0.0
H616 H 0.50084 0.06712 0.17615 0.0
H617 H 0.5443 0.10328 0.18827 0.0
H618 H 0.52261 0.02975 0.23497 0.0
H619 H 0.52542 0.02911 0.13502 0.0
H620 H 0.50475 0.03645 0.17426 0.0
H621 H 0.57599 0.07406 0.25136 0.0
H622 H 0.57357 0.09409 0.19777 0.0
H623 H 0.57799 0.07347 0.15099 0.0
C624 C 0.43168 0.51211 0.78895 0.0
C625 C 0.41411 0.5178 0.79169 0.0
C626 C 0.44559 0.52428 0.78324 0.0
C627 C 0.44179 0.54252 0.77903 0.0
C628 C 0.42406 0.5483 0.78136 0.0
C629 C 0.41045 0.53588 0.78806 0.0
C630 C 0.46433 0.51763 0.78186 0.0
C631 C 0.41943 0.56762 0.77596 0.0
C632 C 0.47592 0.57724 0.82937 0.0
C633 C 0.48163 0.58274 0.75796 0.0
C634 C 0.46343 0.56371 0.83716 0.0
C635 C 0.45629 0.55566 0.7719 0.0
C636 C 0.46229 0.5609 0.69968 0.0
C637 C 0.47497 0.57431 0.6936 0.0
C638 C 0.45756 0.55834 0.91517 0.0
C639 C 0.45484 0.55281 0.6287 0.0
H640 H 0.43454 0.49814 0.79207 0.0
H641 H 0.39688 0.54031 0.78888 0.0
H642 H 0.47083 0.52165 0.72855 0.0
H643 H 0.47192 0.52361 0.82881 0.0
H644 H 0.46507 0.50306 0.78687 0.0
H645 H 0.40498 0.56992 0.778 0.0
H646 H 0.42569 0.57498 0.8229 0.0
H647 H 0.42463 0.57317 0.72254 0.0
H648 H 0.48116 0.58364 0.87924 0.0
H649 H 0.47919 0.57867 0.63827 0.0
H650 H 0.45883 0.54387 0.92222 0.0
H651 H 0.44345 0.56169 0.92293 0.0
H652 H 0.4653 0.56497 0.96013 0.0
H653 H 0.45609 0.53826 0.6307 0.0
H654 H 0.46154 0.5577 0.5771 0.0
H655 H 0.44059 0.55591 0.62438 0.0
C656 C 0.93025 0.0127 0.32968 0.0
C657 C 0.91283 0.01891 0.3298 0.0
C658 C 0.94458 0.02443 0.32761 0.0
C659 C 0.94141 0.0428 0.32565 0.0
C660 C 0.92387 0.04915 0.32637 0.0
C661 C 0.90982 0.03715 0.32856 0.0
C662 C 0.9631 0.01717 0.32689 0.0
C663 C 0.91992 0.06865 0.32461 0.0
C664 C 0.97643 0.07602 0.38318 0.0
C665 C 0.98209 0.08234 0.3129 0.0
C666 C 0.96364 0.06268 0.38825 0.0
C667 C 0.95634 0.05551 0.32146 0.0
C668 C 0.96249 0.06135 0.2504 0.0
C669 C 0.97529 0.07468 0.247 0.0
C670 C 0.95745 0.05677 0.46508 0.0
C671 C 0.95511 0.05399 0.17787 0.0
H672 H 0.93268 0.99862 0.33012 0.0
H673 H 0.89643 0.04208 0.33024 0.0
H674 H 0.96992 0.02127 0.27443 0.0
H675 H 0.97072 0.02263 0.37491 0.0
H676 H 0.96334 0.00256 0.33045 0.0
H677 H 0.90555 0.07143 0.32611 0.0
H678 H 0.92624 0.07527 0.37342 0.0
H679 H 0.92551 0.0746 0.27273 0.0
H680 H 0.98148 0.08198 0.43435 0.0
H681 H 0.97982 0.0793 0.1925 0.0
H682 H 0.95802 0.04221 0.46948 0.0
H683 H 0.9435 0.06071 0.47325 0.0
H684 H 0.96544 0.06257 0.51134 0.0
H685 H 0.95597 0.0394 0.17794 0.0
H686 H 0.96212 0.05909 0.1274 0.0
H687 H 0.94096 0.0575 0.17303 0.0
C688 C 0.48208 0.92422 0.83373 0.0
C689 C 0.48687 0.91687 0.76407 0.0
C690 C 0.46928 0.93754 0.83829 0.0
C691 C 0.46111 0.9437 0.77156 0.0
C692 C 0.46632 0.93676 0.70085 0.0
C693 C 0.47909 0.92339 0.69798 0.0
C694 C 0.46401 0.94449 0.91481 0.0
C695 C 0.45801 0.94308 0.62837 0.0
C696 C 0.4147 0.96211 0.78469 0.0
C697 C 0.41767 0.98033 0.78127 0.0
C698 C 0.42873 0.9501 0.78231 0.0
C699 C 0.44622 0.95644 0.7761 0.0
C700 C 0.44936 0.97483 0.77358 0.0
C701 C 0.43504 0.98657 0.77648 0.0
C702 C 0.42482 0.93061 0.78596 0.0
C703 C 0.46781 0.98207 0.76669 0.0
H704 H 0.48785 0.91908 0.88515 0.0
H705 H 0.48287 0.91787 0.64397 0.0
H706 H 0.46469 0.95909 0.91555 0.0
H707 H 0.45016 0.94075 0.92687 0.0
H708 H 0.47251 0.93928 0.96066 0.0
H709 H 0.46443 0.9373 0.57779 0.0
H710 H 0.44385 0.93947 0.62761 0.0
H711 H 0.4588 0.95765 0.6246 0.0
H712 H 0.40133 0.95721 0.78963 0.0
H713 H 0.4374 0.00064 0.77325 0.0
H714 H 0.43189 0.92458 0.83428 0.0
H715 H 0.42961 0.92404 0.73399 0.0
H716 H 0.41051 0.92785 0.79211 0.0
H717 H 0.47609 0.97722 0.81388 0.0
H718 H 0.46806 0.99671 0.76691 0.0
H719 H 0.47391 0.97733 0.7136 0.0
C720 C 0.57269 0.47412 0.38211 0.0
C721 C 0.57926 0.47964 0.31199 0.0
C722 C 0.55908 0.46162 0.38685 0.0
C723 C 0.55193 0.45437 0.31992 0.0
C724 C 0.55808 0.46032 0.249 0.0
C725 C 0.57161 0.47291 0.24591 0.0
C726 C 0.55282 0.45569 0.46356 0.0
C727 C 0.55079 0.45293 0.17632 0.0
C728 C 0.53271 0.40823 0.32848 0.0
C729 C 0.51452 0.41154 0.32815 0.0
C730 C 0.54497 0.42205 0.32607 0.0
C731 C 0.53894 0.43969 0.32392 0.0
C732 C 0.52061 0.44318 0.32452 0.0
C733 C 0.50861 0.42907 0.3265 0.0
C734 C 0.5644 0.41775 0.32562 0.0
C735 C 0.51368 0.46182 0.32258 0.0
H736 H 0.57862 0.47909 0.43349 0.0
H737 H 0.57638 0.47732 0.19149 0.0
H738 H 0.53825 0.45652 0.46705 0.0
H739 H 0.55649 0.4417 0.47252 0.0
H740 H 0.5586 0.46368 0.50985 0.0
H741 H 0.55623 0.4597 0.12588 0.0
H742 H 0.554 0.4387 0.17232 0.0
H743 H 0.53623 0.45412 0.17541 0.0
H744 H 0.53743 0.39478 0.3315 0.0
H745 H 0.49459 0.43175 0.32575 0.0
H746 H 0.57096 0.42399 0.37474 0.0
H747 H 0.57063 0.42319 0.27403 0.0
H748 H 0.56693 0.40334 0.32755 0.0
H749 H 0.51914 0.46945 0.37059 0.0
H750 H 0.49907 0.46233 0.32528 0.0
H751 H 0.51806 0.46844 0.27008 0.0
C752 C 0.02043 0.57764 0.901 0.0
C753 C 0.01558 0.58386 0.82943 0.0
C754 C 0.03295 0.56413 0.90905 0.0
C755 C 0.04077 0.55665 0.84397 0.0
C756 C 0.03535 0.56235 0.77158 0.0
C757 C 0.02284 0.57587 0.76522 0.0
C758 C 0.03838 0.55842 0.98719 0.0
C759 C 0.04327 0.55465 0.70076 0.0
C760 C 0.08722 0.53834 0.85433 0.0
C761 C 0.08423 0.5201 0.8538 0.0
C762 C 0.07317 0.55032 0.85305 0.0
C763 C 0.05564 0.54396 0.8512 0.0
C764 C 0.05249 0.52556 0.85275 0.0
C765 C 0.06683 0.51384 0.85417 0.0
C766 C 0.07712 0.56983 0.852 0.0
C767 C 0.03399 0.51828 0.85082 0.0
H768 H 0.01498 0.58384 0.95088 0.0
H769 H 0.01892 0.58042 0.70974 0.0
H770 H 0.03786 0.54386 0.9921 0.0
H771 H 0.05221 0.56248 0.99784 0.0
H772 H 0.02989 0.56427 0.03162 0.0
H773 H 0.03669 0.55957 0.64891 0.0
H774 H 0.05746 0.55809 0.69777 0.0
H775 H 0.04232 0.54007 0.70179 0.0
H776 H 0.10063 0.54326 0.8555 0.0
H777 H 0.06444 0.49976 0.85336 0.0
H778 H 0.07019 0.5765 0.89909 0.0
H779 H 0.0722 0.57571 0.79872 0.0
H780 H 0.09145 0.57263 0.85681 0.0
H781 H 0.02595 0.52424 0.89644 0.0
H782 H 0.03372 0.50373 0.85716 0.0
H783 H 0.02763 0.52179 0.79651 0.0
C784 C 0.06709 0.37552 0.05319 0.0
C785 C 0.07253 0.36571 0.11608 0.0
C786 C 0.07902 0.38601 0.01277 0.0
C787 C 0.09683 0.38692 0.03625 0.0
C788 C 0.10249 0.37686 0.099 0.0
C789 C 0.09029 0.36629 0.13793 0.0
C790 C 0.07247 0.39638 0.9457 0.0
C791 C 0.12134 0.37759 0.12609 0.0
C792 C 0.13014 0.40512 0.89583 0.0
C793 C 0.13109 0.42286 0.91764 0.0
C794 C 0.11925 0.39317 0.93458 0.0
C795 C 0.10925 0.39906 0.99712 0.0
C796 C 0.11053 0.41684 0.02058 0.0
C797 C 0.12133 0.42852 0.98035 0.0
C798 C 0.11811 0.37434 0.90752 0.0
C799 C 0.10025 0.42364 0.08745 0.0
H800 H 0.05344 0.3751 0.03547 0.0
H801 H 0.09461 0.35877 0.18649 0.0
H802 H 0.07372 0.4107 0.95721 0.0
H803 H 0.08063 0.39343 0.89537 0.0
H804 H 0.05848 0.39345 0.93214 0.0
H805 H 0.12382 0.36843 0.17374 0.0
H806 H 0.13045 0.37427 0.07932 0.0
H807 H 0.12456 0.39118 0.14468 0.0
H808 H 0.13759 0.40063 0.84737 0.0
H809 H 0.12205 0.44216 0.99807 0.0
H810 H 0.10447 0.37143 0.88873 0.0
H811 H 0.12119 0.36516 0.95436 0.0
H812 H 0.12726 0.37165 0.86001 0.0
H813 H 0.08592 0.42267 0.07576 0.0
H814 H 0.10346 0.43757 0.10093 0.0
H815 H 0.103 0.41544 0.1379 0.0
C816 C 0.13489 0.09547 0.60765 0.0
C817 C 0.13595 0.07755 0.58886 0.0
C818 C 0.12421 0.10705 0.56585 0.0
C819 C 0.11458 0.1006 0.50321 0.0
C820 C 0.11604 0.08264 0.48266 0.0
C821 C 0.12657 0.07134 0.52602 0.0
C822 C 0.12285 0.12608 0.58994 0.0
C823 C 0.10619 0.07524 0.41572 0.0
C824 C 0.07235 0.12296 0.44016 0.0
C825 C 0.07791 0.13239 0.37639 0.0
C826 C 0.08427 0.11306 0.48324 0.0
C827 C 0.10219 0.11228 0.46142 0.0
C828 C 0.10797 0.12193 0.39765 0.0
C829 C 0.09578 0.13198 0.35618 0.0
C830 C 0.07758 0.10316 0.55136 0.0
C831 C 0.12693 0.12125 0.37214 0.0
H832 H 0.14206 0.10038 0.65618 0.0
H833 H 0.12738 0.05756 0.51059 0.0
H834 H 0.126 0.1349 0.54193 0.0
H835 H 0.10912 0.12902 0.60746 0.0
H836 H 0.13182 0.12924 0.63756 0.0
H837 H 0.10969 0.06129 0.4042 0.0
H838 H 0.09179 0.07603 0.42607 0.0
H839 H 0.10904 0.08315 0.36454 0.0
H840 H 0.05862 0.12324 0.45658 0.0
H841 H 0.10018 0.13918 0.3069 0.0
H842 H 0.08555 0.10657 0.60175 0.0
H843 H 0.07898 0.08878 0.54196 0.0
H844 H 0.06353 0.10608 0.56363 0.0
H845 H 0.13581 0.12502 0.41914 0.0
H846 H 0.12949 0.13011 0.3235 0.0
H847 H 0.13039 0.10759 0.35557 0.0
C848 C 0.40621 0.13009 0.11667 0.0
C849 C 0.42405 0.1321 0.09791 0.0
C850 C 0.39492 0.11975 0.07185 0.0
C851 C 0.40158 0.11151 1.00606 0.0
C852 C 0.41947 0.11387 0.98592 0.0
C853 C 0.43051 0.12396 0.03244 0.0
C854 C 0.37599 0.11733 0.09575 0.0
C855 C 0.42706 0.10553 0.91572 0.0
C856 C 0.37983 0.07022 0.92895 0.0
C857 C 0.37006 0.07683 0.86794 0.0
C858 C 0.38973 0.08143 0.97541 0.0
C859 C 0.39014 0.09972 0.96 0.0
C860 C 0.38022 0.10653 0.89892 0.0
C861 C 0.3702 0.09501 0.85388 0.0
C862 C 0.39994 0.07364 0.04051 0.0
C863 C 0.38047 0.12594 0.88029 0.0
H864 H 0.40113 0.13628 0.16728 0.0
H865 H 0.44424 0.12548 0.0172 0.0
H866 H 0.367 0.12132 0.04947 0.0
H867 H 0.37343 0.10321 0.10758 0.0
H868 H 0.37269 0.1251 0.14693 0.0
H869 H 0.44092 0.10958 0.90547 0.0
H870 H 0.42661 0.09097 0.92087 0.0
H871 H 0.41905 0.10918 0.86575 0.0
H872 H 0.37975 0.05623 0.94076 0.0
H873 H 0.36271 0.10023 0.80686 0.0
H874 H 0.39634 0.08039 0.09383 0.0
H875 H 0.41426 0.07569 0.0316 0.0
H876 H 0.39748 0.05929 0.04729 0.0
H877 H 0.37643 0.13376 0.93022 0.0
H878 H 0.37161 0.12923 0.83248 0.0
H879 H 0.39407 0.13004 0.86551 0.0
C880 C 0.36979 0.41943 0.65517 0.0
C881 C 0.38076 0.4273 0.7092 0.0
C882 C 0.3768 0.40848 0.59867 0.0
C883 C 0.39525 0.40579 0.59505 0.0
C884 C 0.40632 0.41348 0.65029 0.0
C885 C 0.39892 0.42397 0.70711 0.0
C886 C 0.36453 0.40017 0.54189 0.0
C887 C 0.42612 0.41138 0.64736 0.0
C888 C 0.41778 0.3691 0.4862 0.0
C889 C 0.42347 0.37806 0.42145 0.0
C890 C 0.40759 0.37767 0.54121 0.0
C891 C 0.40327 0.39569 0.5318 0.0
C892 C 0.40828 0.40454 0.46487 0.0
C893 C 0.41819 0.39557 0.41021 0.0
C894 C 0.40207 0.36767 0.61088 0.0
C895 C 0.40415 0.42382 0.45297 0.0
H896 H 0.35573 0.42194 0.65667 0.0
H897 H 0.40751 0.43018 0.74809 0.0
H898 H 0.36649 0.40638 0.48591 0.0
H899 H 0.36749 0.38593 0.53571 0.0
H900 H 0.35047 0.40171 0.55807 0.0
H901 H 0.43269 0.41675 0.6984 0.0
H902 H 0.42978 0.39731 0.64139 0.0
H903 H 0.43132 0.4184 0.59718 0.0
H904 H 0.42165 0.35551 0.49481 0.0
H905 H 0.42255 0.4026 0.36041 0.0
H906 H 0.38763 0.3689 0.61925 0.0
H907 H 0.40854 0.37341 0.6613 0.0
H908 H 0.40555 0.35347 0.6076 0.0
H909 H 0.3899 0.42634 0.46142 0.0
H910 H 0.40788 0.42842 0.39569 0.0
H911 H 0.4114 0.43183 0.49517 0.0
C912 C 0.89363 0.57117 0.08277 0.0
C913 C 0.87529 0.5706 0.09084 0.0
C914 C 0.90166 0.58367 0.03592 0.0
C915 C 0.89113 0.59634 0.99846 0.0
C916 C 0.87258 0.59602 1.00752 0.0
C917 C 0.86482 0.58287 0.0525 0.0
C918 C 0.92143 0.58316 0.02582 0.0
C919 C 0.86099 0.6097 0.97075 0.0
C920 C 0.91764 0.63637 0.93937 0.0
C921 C 0.9204 0.63294 0.86283 0.0
C922 C 0.90704 0.62521 0.98316 0.0
C923 C 0.89972 0.60986 0.95003 0.0
C924 C 0.9022 0.6066 0.87202 0.0
C925 C 0.91235 0.61837 0.82901 0.0
C926 C 0.90437 0.62945 0.06555 0.0
C927 C 0.89518 0.59009 0.83511 0.0
H928 H 0.90168 0.56148 0.11161 0.0
H929 H 0.85062 0.58239 0.05905 0.0
H930 H 0.92475 0.58235 0.96496 0.0
H931 H 0.9274 0.59545 0.04796 0.0
H932 H 0.92756 0.57179 0.05527 0.0
H933 H 0.84686 0.60793 0.98526 0.0
H934 H 0.8652 0.62306 0.98872 0.0
H935 H 0.86241 0.60908 0.90858 0.0
H936 H 0.92403 0.64764 0.96525 0.0
H937 H 0.91483 0.61565 0.76992 0.0
H938 H 0.91276 0.62069 0.10043 0.0
H939 H 0.89046 0.62717 0.08229 0.0
H940 H 0.90792 0.64331 0.07868 0.0
H941 H 0.90195 0.57841 0.85916 0.0
H942 H 0.89721 0.59011 0.77307 0.0
H943 H 0.88091 0.58854 0.84673 0.0
C944 C 0.91769 0.88343 0.68426 0.0
C945 C 0.92504 0.86809 0.65406 0.0
C946 C 0.90763 0.8948 0.63895 0.0
C947 C 0.90455 0.89037 0.56236 0.0
C948 C 0.91121 0.87433 0.53306 0.0
C949 C 0.92172 0.86354 0.57899 0.0
C950 C 0.90128 0.91202 0.6717 0.0
C951 C 0.90792 0.86888 0.4524 0.0
C952 C 0.86949 0.91664 0.45756 0.0
C953 C 0.8799 0.92816 0.41491 0.0
C954 C 0.87731 0.90393 0.50458 0.0
C955 C 0.89591 0.90329 0.51119 0.0
C956 C 0.90642 0.91515 0.46901 0.0
C957 C 0.89829 0.92722 0.42038 0.0
C958 C 0.86572 0.89109 0.5465 0.0
C959 C 0.92626 0.91531 0.47619 0.0
H960 H 0.92061 0.88699 0.74217 0.0
H961 H 0.9276 0.85169 0.55588 0.0
H962 H 0.90808 0.92312 0.64318 0.0
H963 H 0.88696 0.91369 0.66164 0.0
H964 H 0.90381 0.91298 0.73327 0.0
H965 H 0.91093 0.85472 0.44307 0.0
H966 H 0.89401 0.87136 0.4363 0.0
H967 H 0.9164 0.87676 0.41425 0.0
H968 H 0.85526 0.91739 0.45311 0.0
H969 H 0.90633 0.93633 0.38824 0.0
H970 H 0.86747 0.89274 0.60817 0.0
H971 H 0.86962 0.87738 0.5324 0.0
H972 H 0.85154 0.89284 0.53274 0.0
H973 H 0.93008 0.91705 0.53616 0.0
H974 H 0.93243 0.92599 0.44247 0.0
H975 H 0.93175 0.90252 0.45716 0.0
C976 C 0.60036 0.92476 0.12975 0.0
C977 C 0.61855 0.92788 0.13358 0.0
C978 C 0.59314 0.91423 0.07266 0.0
C979 C 0.60441 0.90626 0.01895 0.0
C980 C 0.62287 0.90871 0.02445 0.0
C981 C 0.62972 0.91972 0.08115 0.0
C982 C 0.57334 0.91243 0.06763 0.0
C983 C 0.63535 0.9001 0.96938 0.0
C984 C 0.58151 0.87 0.90912 0.0
C985 C 0.5762 0.87906 0.84402 0.0
C986 C 0.5918 0.87834 0.96447 0.0
C987 C 0.59659 0.89624 0.95505 0.0
C988 C 0.59206 0.90514 0.88762 0.0
C989 C 0.58206 0.89638 0.83262 0.0
C990 C 0.59682 0.86828 0.03466 0.0
C991 C 0.59671 0.9243 0.87567 0.0
H992 H 0.59162 0.93119 0.16948 0.0
H993 H 0.64379 0.92207 0.08399 0.0
H994 H 0.56853 0.91959 0.0171 0.0
H995 H 0.56948 0.89843 0.06097 0.0
H996 H 0.56657 0.91785 0.11809 0.0
H997 H 0.6493 0.90125 0.98767 0.0
H998 H 0.63206 0.88594 0.96249 0.0
H999 H 0.63401 0.90641 0.91328 0.0
H1000 H 0.5772 0.85654 0.91784 0.0
H1001 H 0.57802 0.90349 0.78252 0.0
H1002 H 0.59008 0.87405 0.08432 0.0
H1003 H 0.61121 0.86939 0.04474 0.0
H1004 H 0.59325 0.85411 0.03088 0.0
H1005 H 0.58944 0.93254 0.91696 0.0
H1006 H 0.59338 0.92891 0.81793 0.0
H1007 H 0.61097 0.92651 0.88541 0.0
C1008 C 0.61135 0.56917 0.4049 0.0
C1009 C 0.62933 0.5732 0.3984 0.0
C1010 C 0.60026 0.57902 0.45201 0.0
C1011 C 0.60728 0.59329 0.49369 0.0
C1012 C 0.62529 0.59782 0.48553 0.0
C1013 C 0.63611 0.58773 0.43779 0.0
C1014 C 0.58111 0.57381 0.45874 0.0
C1015 C 0.63324 0.61295 0.52903 0.0
C1016 C 0.57381 0.6254 0.57446 0.0
C1017 C 0.57163 0.61891 0.648 0.0
C1018 C 0.58576 0.61755 0.52421 0.0
C1019 C 0.59586 0.6029 0.54818 0.0
C1020 C 0.59423 0.5967 0.62317 0.0
C1021 C 0.58213 0.60477 0.6721 0.0
C1022 C 0.58712 0.62455 0.44471 0.0
C1023 C 0.6048 0.58113 0.65098 0.0
H1024 H 0.60595 0.55813 0.3738 0.0
H1025 H 0.64999 0.5909 0.43322 0.0
H1026 H 0.57823 0.56968 0.51748 0.0
H1027 H 0.57252 0.58525 0.44593 0.0
H1028 H 0.57757 0.56282 0.42021 0.0
H1029 H 0.64713 0.61552 0.51259 0.0
H1030 H 0.62544 0.62513 0.51989 0.0
H1031 H 0.63285 0.61 0.59028 0.0
H1032 H 0.56584 0.63636 0.55532 0.0
H1033 H 0.58063 0.5997 0.72887 0.0
H1034 H 0.58242 0.61442 0.40432 0.0
H1035 H 0.60107 0.62741 0.43057 0.0
H1036 H 0.57922 0.63672 0.43639 0.0
H1037 H 0.60097 0.56913 0.61919 0.0
H1038 H 0.60279 0.5786 0.71207 0.0
H1039 H 0.61906 0.58334 0.6408 0.0
C1040 C 0.0203 0.28392 0.29131 0.0
C1041 C 0.02955 0.29473 0.24097 0.0
C1042 C 0.02362 0.26581 0.29546 0.0
C1043 C 0.03644 0.25819 0.2475 0.0
C1044 C 0.04665 0.2692 0.19994 0.0
C1045 C 0.04313 0.28742 0.19743 0.0
C1046 C 0.01254 0.25466 0.34773 0.0
C1047 C 0.06049 0.26162 0.14827 0.0
C1048 C 0.04519 0.20992 0.29195 0.0
C1049 C 0.03239 0.20177 0.24685 0.0
C1050 C 0.04762 0.22832 0.28941 0.0
C1051 C 0.0371 0.23864 0.24023 0.0
C1052 C 0.02516 0.23021 0.19062 0.0
C1053 C 0.02289 0.21193 0.19486 0.0
C1054 C 0.06056 0.23679 0.34284 0.0
C1055 C 0.01382 0.2406 0.13654 0.0
H1056 H 0.00999 0.28956 0.3261 0.0
H1057 H 0.05037 0.29575 0.1586 0.0
H1058 H 0.00346 0.24632 0.31399 0.0
H1059 H 0.02101 0.24572 0.38138 0.0
H1060 H 0.00454 0.26278 0.38702 0.0
H1061 H 0.06932 0.27199 0.12531 0.0
H1062 H 0.06858 0.25166 0.17821 0.0
H1063 H 0.05396 0.25488 0.10029 0.0
H1064 H 0.0526 0.20209 0.33205 0.0
H1065 H 0.0132 0.20563 0.1589 0.0
H1066 H 0.05327 0.24312 0.38979 0.0
H1067 H 0.06823 0.24723 0.31387 0.0
H1068 H 0.06985 0.22701 0.36717 0.0
H1069 H 0.00393 0.24831 0.16876 0.0
H1070 H 0.00671 0.23197 0.09609 0.0
H1071 H 0.02196 0.25009 0.10418 0.0
C1072 C 0.28929 0.02476 0.67928 0.0
C1073 C 0.29961 0.03394 0.73175 0.0
C1074 C 0.27109 0.02755 0.67421 0.0
C1075 C 0.26289 0.03973 0.72344 0.0
C1076 C 0.2734 0.04991 0.77321 0.0
C1077 C 0.29172 0.04695 0.77659 0.0
C1078 C 0.26049 0.01653 0.61958 0.0
C1079 C 0.26519 0.06309 0.82627 0.0
C1080 C 0.21441 0.04715 0.67788 0.0
C1081 C 0.20658 0.03379 0.721 0.0
C1082 C 0.23272 0.05016 0.68147 0.0
C1083 C 0.24329 0.03964 0.72966 0.0
C1084 C 0.23517 0.02705 0.77716 0.0
C1085 C 0.21697 0.02424 0.77196 0.0
C1086 C 0.24086 0.06378 0.63029 0.0
C1087 C 0.24583 0.01565 0.83007 0.0
H1088 H 0.29538 0.01491 0.64347 0.0
H1089 H 0.29968 0.05412 0.81705 0.0
H1090 H 0.25239 0.00689 0.6514 0.0
H1091 H 0.25136 0.02495 0.5867 0.0
H1092 H 0.26901 0.00915 0.57961 0.0
H1093 H 0.27518 0.07208 0.85112 0.0
H1094 H 0.25506 0.07107 0.79681 0.0
H1095 H 0.25852 0.05598 0.87287 0.0
H1096 H 0.2064 0.05462 0.63863 0.0
H1097 H 0.21094 0.01411 0.80648 0.0
H1098 H 0.24758 0.05707 0.58275 0.0
H1099 H 0.25093 0.0716 0.66089 0.0
H1100 H 0.23081 0.07289 0.60668 0.0
H1101 H 0.25401 0.00635 0.79681 0.0
H1102 H 0.23737 0.00789 0.86888 0.0
H1103 H 0.25491 0.02387 0.86424 0.0
C1104 C 0.44785 0.28775 0.30366 0.0
C1105 C 0.46155 0.29199 0.35349 0.0
C1106 C 0.44515 0.2702 0.28046 0.0
C1107 C 0.45623 0.25672 0.30898 0.0
C1108 C 0.46889 0.26085 0.365 0.0
C1109 C 0.47156 0.27847 0.38569 0.0
C1110 C 0.43157 0.26641 0.22054 0.0
C1111 C 0.48069 0.24687 0.39846 0.0
C1112 C 0.45067 0.20751 0.27429 0.0
C1113 C 0.46408 0.20459 0.22153 0.0
C1114 C 0.44705 0.22466 0.30054 0.0
C1115 C 0.45691 0.23907 0.27209 0.0
C1116 C 0.46944 0.23619 0.21414 0.0
C1117 C 0.47304 0.21896 0.19048 0.0
C1118 C 0.43373 0.22711 0.36274 0.0
C1119 C 0.48 0.25116 0.18084 0.0
H1120 H 0.4402 0.29824 0.27823 0.0
H1121 H 0.48209 0.28178 0.42457 0.0
H1122 H 0.43829 0.26465 0.16548 0.0
H1123 H 0.42436 0.25403 0.23307 0.0
H1124 H 0.42192 0.27733 0.21494 0.0
H1125 H 0.48793 0.25174 0.4488 0.0
H1126 H 0.4729 0.23511 0.41481 0.0
H1127 H 0.49049 0.24263 0.3557 0.0
H1128 H 0.4439 0.19632 0.29891 0.0
H1129 H 0.48339 0.21663 0.1495 0.0
H1130 H 0.42564 0.23906 0.35298 0.0
H1131 H 0.44076 0.22891 0.41709 0.0
H1132 H 0.42487 0.21553 0.36807 0.0
H1133 H 0.47122 0.26226 0.1652 0.0
H1134 H 0.4875 0.24702 0.13005 0.0
H1135 H 0.4895 0.25613 0.22343 0.0
C1136 C 0.28841 0.45193 0.77163 0.0
C1137 C 0.29565 0.4633 0.82577 0.0
C1138 C 0.27002 0.44966 0.76601 0.0
C1139 C 0.25873 0.45896 0.81575 0.0
C1140 C 0.26611 0.46951 0.87352 0.0
C1141 C 0.28443 0.47155 0.8777 0.0
C1142 C 0.26267 0.43816 0.70414 0.0
C1143 C 0.25463 0.47959 0.92815 0.0
C1144 C 0.21433 0.47669 0.756 0.0
C1145 C 0.20269 0.46633 0.79848 0.0
C1146 C 0.23252 0.4736 0.75716 0.0
C1147 C 0.23935 0.45979 0.80214 0.0
C1148 C 0.22759 0.44852 0.84129 0.0
C1149 C 0.20934 0.45191 0.83895 0.0
C1150 C 0.24451 0.48589 0.71403 0.0
C1151 C 0.23433 0.43355 0.88922 0.0
H1152 H 0.29701 0.44545 0.73151 0.0
H1153 H 0.28993 0.48014 0.9205 0.0
H1154 H 0.25182 0.42978 0.72583 0.0
H1155 H 0.25712 0.4466 0.65894 0.0
H1156 H 0.27295 0.42957 0.67892 0.0
H1157 H 0.26241 0.48582 0.97408 0.0
H1158 H 0.24742 0.4901 0.89747 0.0
H1159 H 0.24467 0.47074 0.95379 0.0
H1160 H 0.20928 0.48769 0.72354 0.0
H1161 H 0.2004 0.44379 0.8716 0.0
H1162 H 0.25409 0.47828 0.67989 0.0
H1163 H 0.25215 0.49407 0.75434 0.0
H1164 H 0.23707 0.49482 0.67593 0.0
H1165 H 0.24479 0.42614 0.85915 0.0
H1166 H 0.22363 0.42428 0.90516 0.0
H1167 H 0.24024 0.43893 0.94161 0.0
C1168 C 0.95447 0.78994 0.72479 0.0
C1169 C 0.9679 0.7967 0.7708 0.0
C1170 C 0.95111 0.77169 0.72209 0.0
C1171 C 0.96135 0.76008 0.76681 0.0
C1172 C 0.97398 0.76707 0.81743 0.0
C1173 C 0.97714 0.78525 0.81851 0.0
C1174 C 0.93746 0.76479 0.66774 0.0
C1175 C 0.98506 0.75524 0.8669 0.0
C1176 C 0.95278 0.71116 0.79628 0.0
C1177 C 0.96569 0.7038 0.7493 0.0
C1178 C 0.95029 0.72954 0.79929 0.0
C1179 C 0.96088 0.74068 0.75388 0.0
C1180 C 0.97296 0.73314 0.70233 0.0
C1181 C 0.97526 0.71483 0.70097 0.0
C1182 C 0.93721 0.73705 0.85465 0.0
C1183 C 0.98438 0.74445 0.65211 0.0
H1184 H 0.94726 0.79875 0.68788 0.0
H1185 H 0.98736 0.79044 0.85506 0.0
H1186 H 0.94417 0.75886 0.61829 0.0
H1187 H 0.9294 0.75432 0.69444 0.0
H1188 H 0.92859 0.77541 0.64733 0.0
H1189 H 0.99287 0.76281 0.90885 0.0
H1190 H 0.97661 0.74569 0.89743 0.0
H1191 H 0.99431 0.74757 0.83127 0.0
H1192 H 0.94533 0.70267 0.83371 0.0
H1193 H 0.98508 0.70918 0.6637 0.0
H1194 H 0.92954 0.7479 0.82861 0.0
H1195 H 0.94439 0.74263 0.90366 0.0
H1196 H 0.92792 0.72685 0.87563 0.0
H1197 H 0.97626 0.75439 0.62218 0.0
H1198 H 0.99166 0.73654 0.60961 0.0
H1199 H 0.99411 0.75169 0.68709 0.0
C1200 C 0.77959 0.97468 0.38214 0.0
C1201 C 0.79312 0.96506 0.34786 0.0
C1202 C 0.7619 0.97158 0.36379 0.0
C1203 C 0.75767 0.95892 0.3079 0.0
C1204 C 0.77124 0.94836 0.27664 0.0
C1205 C 0.78887 0.95145 0.29767 0.0
C1206 C 0.74786 0.98284 0.4001 0.0
C1207 C 0.76735 0.93487 0.21641 0.0
C1208 C 0.70841 0.95117 0.28421 0.0
C1209 C 0.70417 0.96461 0.23318 0.0
C1210 C 0.72602 0.94829 0.30615 0.0
C1211 C 0.73958 0.95889 0.27498 0.0
C1212 C 0.73537 0.97142 0.21858 0.0
C1213 C 0.7177 0.97431 0.1993 0.0
C1214 C 0.72989 0.93494 0.36692 0.0
C1215 C 0.7494 0.98271 0.18234 0.0
H1216 H 0.78292 0.98517 0.42118 0.0
H1217 H 0.79938 0.94414 0.27053 0.0
H1218 H 0.74283 0.99252 0.35843 0.0
H1219 H 0.73657 0.97461 0.41841 0.0
H1220 H 0.75297 0.99019 0.44969 0.0
H1221 H 0.77856 0.92566 0.20809 0.0
H1222 H 0.75539 0.92716 0.23057 0.0
H1223 H 0.76479 0.94173 0.16225 0.0
H1224 H 0.6979 0.9438 0.31097 0.0
H1225 H 0.71438 0.98465 0.15954 0.0
H1226 H 0.73241 0.94192 0.42085 0.0
H1227 H 0.74188 0.92723 0.35317 0.0
H1228 H 0.7187 0.92572 0.37544 0.0
H1229 H 0.75441 0.9924 0.22403 0.0
H1230 H 0.74431 0.99004 0.13271 0.0
H1231 H 0.76071 0.97449 0.1641 0.0
C1232 C 0.52308 0.78235 0.81656 0.0
C1233 C 0.53372 0.79481 0.78048 0.0
C1234 C 0.52543 0.76428 0.80389 0.0
C1235 C 0.53838 0.75855 0.75184 0.0
C1236 C 0.54981 0.77107 0.71822 0.0
C1237 C 0.54746 0.78912 0.73369 0.0
C1238 C 0.51325 0.7514 0.84262 0.0
C1239 C 0.56359 0.76557 0.66164 0.0
C1240 C 0.54506 0.70888 0.74913 0.0
C1241 C 0.53197 0.70379 0.69776 0.0
C1242 C 0.54816 0.72681 0.7645 0.0
C1243 C 0.5382 0.73984 0.72621 0.0
C1244 C 0.52607 0.73467 0.6696 0.0
C1245 C 0.52291 0.71671 0.65698 0.0
C1246 C 0.56102 0.73172 0.82589 0.0
C1247 C 0.5155 0.74808 0.62589 0.0
H1248 H 0.5125 0.78679 0.85302 0.0
H1249 H 0.55557 0.79881 0.70513 0.0
H1250 H 0.50388 0.74585 0.80087 0.0
H1251 H 0.52086 0.74026 0.86673 0.0
H1252 H 0.50555 0.75771 0.88852 0.0
H1253 H 0.57318 0.7763 0.65018 0.0
H1254 H 0.57085 0.75378 0.68154 0.0
H1255 H 0.55703 0.76199 0.60783 0.0
H1256 H 0.55196 0.69886 0.78122 0.0
H1257 H 0.51285 0.71275 0.61694 0.0
H1258 H 0.5536 0.73577 0.87694 0.0
H1259 H 0.5693 0.74305 0.80849 0.0
H1260 H 0.56974 0.72052 0.84119 0.0
H1261 H 0.50551 0.75414 0.6635 0.0
H1262 H 0.50856 0.74209 0.57702 0.0
H1263 H 0.52417 0.7588 0.60505 0.0
C1264 C 0.77569 0.52256 0.11442 0.0
C1265 C 0.78891 0.53215 0.15101 0.0
C1266 C 0.75786 0.52536 0.13121 0.0
C1267 C 0.75318 0.53766 0.18788 0.0
C1268 C 0.76645 0.54824 0.2214 0.0
C1269 C 0.78422 0.54548 0.2019 0.0
C1270 C 0.74416 0.51411 0.09248 0.0
C1271 C 0.76208 0.56135 0.2825 0.0
C1272 C 0.70374 0.54461 0.21106 0.0
C1273 C 0.69965 0.53094 0.26108 0.0
C1274 C 0.72133 0.54774 0.18928 0.0
C1275 C 0.73499 0.53715 0.21968 0.0
C1276 C 0.73089 0.52426 0.27473 0.0
C1277 C 0.71325 0.52114 0.29377 0.0
C1278 C 0.72508 0.56142 0.12976 0.0
C1279 C 0.74502 0.51294 0.31011 0.0
H1280 H 0.77935 0.51231 0.0748 0.0
H1281 H 0.7945 0.55278 0.23076 0.0
H1282 H 0.73916 0.50406 0.13255 0.0
H1283 H 0.73278 0.52226 0.07441 0.0
H1284 H 0.74959 0.5072 0.04238 0.0
H1285 H 0.77313 0.57064 0.29294 0.0
H1286 H 0.75012 0.56901 0.2678 0.0
H1287 H 0.75928 0.55417 0.33568 0.0
H1288 H 0.69315 0.55205 0.18522 0.0
H1289 H 0.71003 0.5106 0.33272 0.0
H1290 H 0.72777 0.55474 0.07532 0.0
H1291 H 0.73694 0.56924 0.14449 0.0
H1292 H 0.71377 0.57052 0.12172 0.0
H1293 H 0.75029 0.50364 0.26741 0.0
H1294 H 0.73995 0.50516 0.35852 0.0
H1295 H 0.75615 0.52122 0.32995 0.0
C1296 C 0.03158 0.33952 0.86228 0.0
C1297 C 0.01434 0.33927 0.89097 0.0
C1298 C 0.03481 0.34156 0.78461 0.0
C1299 C 0.02046 0.34345 0.73409 0.0
C1300 C 0.00303 0.34302 0.76252 0.0
C1301 C 0.00019 0.34092 0.84035 0.0
C1302 C 0.0536 0.34189 0.75671 0.0
C1303 C 0.98736 0.34514 0.71086 0.0
C1304 C 0.02822 0.36691 0.54718 0.0
C1305 C 0.02902 0.35284 0.49587 0.0
C1306 C 0.02554 0.36402 0.6246 0.0
C1307 C 0.02365 0.3466 0.65195 0.0
C1308 C 0.0245 0.3323 0.60061 0.0
C1309 C 0.02711 0.33559 0.52325 0.0
C1310 C 0.02456 0.37967 0.67709 0.0
C1311 C 0.02267 0.31352 0.62746 0.0
H1312 H 0.0426 0.33803 0.90054 0.0
H1313 H 0.98683 0.34101 0.86171 0.0
H1314 H 0.05552 0.33164 0.71287 0.0
H1315 H 0.05646 0.35481 0.73015 0.0
H1316 H 0.06327 0.33966 0.80278 0.0
H1317 H 0.97463 0.34393 0.74137 0.0
H1318 H 0.98784 0.35825 0.68322 0.0
H1319 H 0.98775 0.33507 0.66555 0.0
H1320 H 0.02938 0.38029 0.52664 0.0
H1321 H 0.02789 0.32464 0.48425 0.0
H1322 H 0.03476 0.37852 0.72164 0.0
H1323 H 0.01156 0.37993 0.70566 0.0
H1324 H 0.02646 0.39237 0.64708 0.0
H1325 H 0.03292 0.3106 0.67027 0.0
H1326 H 0.02387 0.30387 0.58066 0.0
H1327 H 0.00968 0.31168 0.65504 0.0
C1328 C 0.16619 0.03196 1.00505 0.0
C1329 C 0.14916 0.03548 0.97796 0.0
C1330 C 0.16932 0.02904 0.08238 0.0
C1331 C 0.15508 0.02953 0.13409 0.0
C1332 C 0.13788 0.03309 0.1071 0.0
C1333 C 0.13515 0.03601 0.0297 0.0
C1334 C 0.18787 0.02538 0.10878 0.0
C1335 C 0.12229 0.03362 0.15996 0.0
C1336 C 0.15853 0.00544 0.32221 0.0
C1337 C 0.16161 0.01929 0.37314 0.0
C1338 C 0.15671 0.00855 0.24439 0.0
C1339 C 0.158 0.02596 0.2162 0.0
C1340 C 0.16136 0.03999 0.26699 0.0
C1341 C 0.16311 0.0365 0.34462 0.0
C1342 C 0.15301 0.99321 0.19249 0.0
C1343 C 0.16286 0.05874 0.23942 0.0
H1344 H 0.17712 0.03171 0.96585 0.0
H1345 H 0.1219 0.03841 1.00956 0.0
H1346 H 0.19182 0.03526 0.15172 0.0
H1347 H 0.18849 0.01225 0.13606 0.0
H1348 H 0.19754 0.02572 0.06179 0.0
H1349 H 0.1098 0.03683 0.13031 0.0
H1350 H 0.12075 0.02067 0.18823 0.0
H1351 H 0.12452 0.04359 0.20472 0.0
H1352 H 0.15706 0.99214 0.34327 0.0
H1353 H 0.16572 0.04728 0.38298 0.0
H1354 H 0.163 0.99271 0.14688 0.0
H1355 H 0.13996 0.99498 0.16526 0.0
H1356 H 0.15305 0.9804 0.22273 0.0
H1357 H 0.17315 0.05968 0.19517 0.0
H1358 H 0.16616 0.06808 0.28557 0.0
H1359 H 0.15023 0.06292 0.21349 0.0
C1360 C 0.46356 0.16124 0.85493 0.0
C1361 C 0.48088 0.16044 0.88297 0.0
C1362 C 0.46002 0.15958 0.77726 0.0
C1363 C 0.4741 0.15712 0.72585 0.0
C1364 C 0.4916 0.15666 0.75344 0.0
C1365 C 0.49476 0.15826 0.83127 0.0
C1366 C 0.44115 0.16009 0.75035 0.0
C1367 C 0.50702 0.15397 0.70085 0.0
C1368 C 0.46553 0.13352 0.53988 0.0
C1369 C 0.46526 0.14746 0.48772 0.0
C1370 C 0.46812 0.13654 0.61726 0.0
C1371 C 0.47056 0.15396 0.64388 0.0
C1372 C 0.47022 0.16813 0.59179 0.0
C1373 C 0.46762 0.16472 0.51442 0.0
C1374 C 0.46849 0.12101 0.67049 0.0
C1375 C 0.47271 0.1869 0.61779 0.0
H1376 H 0.45271 0.16315 0.89363 0.0
H1377 H 0.50817 0.15732 0.85152 0.0
H1378 H 0.4396 0.17024 0.70583 0.0
H1379 H 0.43757 0.14722 0.72498 0.0
H1380 H 0.43176 0.16299 0.79677 0.0
H1381 H 0.51989 0.1549 0.7305 0.0
H1382 H 0.50607 0.14081 0.6739 0.0
H1383 H 0.50675 0.16393 0.6551 0.0
H1384 H 0.46406 0.12011 0.52011 0.0
H1385 H 0.46726 0.17558 0.47488 0.0
H1386 H 0.45851 0.12276 0.71557 0.0
H1387 H 0.48156 0.12017 0.6983 0.0
H1388 H 0.46588 0.10833 0.64122 0.0
H1389 H 0.46272 0.19023 0.66121 0.0
H1390 H 0.4716 0.19649 0.5707 0.0
H1391 H 0.48586 0.1884 0.64439 0.0
C1392 C 0.36226 0.45164 0.14949 0.0
C1393 C 0.35158 0.46086 0.09852 0.0
C1394 C 0.36151 0.45511 0.22732 0.0
C1395 C 0.34937 0.46774 0.255 0.0
C1396 C 0.3384 0.47693 0.20361 0.0
C1397 C 0.33982 0.47356 0.12588 0.0
C1398 C 0.3738 0.44538 0.2798 0.0
C1399 C 0.32496 0.49015 0.23086 0.0
C1400 C 0.33627 0.46474 0.46218 0.0
C1401 C 0.34577 0.47875 0.49363 0.0
C1402 C 0.33715 0.4611 0.38447 0.0
C1403 C 0.34822 0.47142 0.33758 0.0
C1404 C 0.35814 0.48535 0.36961 0.0
C1405 C 0.3566 0.489 0.44701 0.0
C1406 C 0.32606 0.44639 0.3524 0.0
C1407 C 0.37051 0.49632 0.32225 0.0
H1408 H 0.3714 0.44189 0.12805 0.0
H1409 H 0.3314 0.48049 0.08645 0.0
H1410 H 0.38179 0.45493 0.31263 0.0
H1411 H 0.3661 0.43751 0.3209 0.0
H1412 H 0.38286 0.4364 0.24906 0.0
H1413 H 0.31707 0.49576 0.18391 0.0
H1414 H 0.31588 0.48379 0.27165 0.0
H1415 H 0.33165 0.50109 0.26088 0.0
H1416 H 0.32784 0.45689 0.49828 0.0
H1417 H 0.36416 0.49966 0.47162 0.0
H1418 H 0.33464 0.43628 0.32613 0.0
H1419 H 0.31732 0.45161 0.30746 0.0
H1420 H 0.3178 0.43992 0.39604 0.0
H1421 H 0.38021 0.48767 0.29363 0.0
H1422 H 0.37777 0.50624 0.35628 0.0
H1423 H 0.36301 0.5033 0.27763 0.0
C1424 C 0.00511 0.15435 0.64728 0.0
C1425 C 0.01908 0.15683 0.59639 0.0
C1426 C 0.00815 0.15239 0.72507 0.0
C1427 C 0.02561 0.15291 0.75326 0.0
C1428 C 0.03977 0.15562 0.7025 0.0
C1429 C 0.03635 0.15754 0.6249 0.0
C1430 C 0.99267 0.14939 0.77698 0.0
C1431 C 0.05858 0.15628 0.73007 0.0
C1432 C 0.03197 0.16104 0.96418 0.0
C1433 C 0.03479 0.14392 0.99152 0.0
C1434 C 0.02917 0.16421 0.88682 0.0
C1435 C 0.02905 0.14991 0.83538 0.0
C1436 C 0.03188 0.13261 0.86266 0.0
C1437 C 0.03473 0.12984 0.94008 0.0
C1438 C 0.02633 0.18288 0.8601 0.0
C1439 C 0.03171 0.11695 0.81008 0.0
H1440 H 0.99176 0.15348 0.62622 0.0
H1441 H 0.04724 0.15968 0.58657 0.0
H1442 H 0.99388 0.13631 0.80441 0.0
H1443 H 0.99258 0.15943 0.82243 0.0
H1444 H 0.97986 0.14995 0.7467 0.0
H1445 H 0.06806 0.15906 0.68386 0.0
H1446 H 0.06 0.1666 0.774 0.0
H1447 H 0.06216 0.14352 0.75642 0.0
H1448 H 0.03218 0.17202 1.00323 0.0
H1449 H 0.03659 0.11653 0.96052 0.0
H1450 H 0.01323 0.18404 0.83274 0.0
H1451 H 0.03637 0.18635 0.81714 0.0
H1452 H 0.02708 0.19257 0.90692 0.0
H1453 H 0.01871 0.11596 0.78177 0.0
H1454 H 0.03435 0.10436 0.83997 0.0
H1455 H 0.04177 0.11868 0.76533 0.0
C1456 C 0.34351 0.03615 0.10794 0.0
C1457 C 0.34463 0.01891 0.07943 0.0
C1458 C 0.34534 0.03961 0.18557 0.0
C1459 C 0.34839 0.02553 0.23636 0.0
C1460 C 0.34933 0.00809 0.20815 0.0
C1461 C 0.34744 0.00501 0.13034 0.0
C1462 C 0.34422 0.0584 0.21312 0.0
C1463 C 0.35272 0.99269 0.26006 0.0
C1464 C 0.37122 0.03525 0.4233 0.0
C1465 C 0.35714 0.03495 0.47472 0.0
C1466 C 0.36852 0.03232 0.34586 0.0
C1467 C 0.3513 0.02904 0.31853 0.0
C1468 C 0.33699 0.02879 0.36995 0.0
C1469 C 0.34009 0.03168 0.44734 0.0
C1470 C 0.38419 0.03256 0.29333 0.0
C1471 C 0.31841 0.02547 0.34318 0.0
H1472 H 0.34113 0.04698 0.0696 0.0
H1473 H 0.34862 0.99168 0.10926 0.0
H1474 H 0.33389 0.05956 0.25709 0.0
H1475 H 0.3569 0.0623 0.23942 0.0
H1476 H 0.3412 0.06781 0.16691 0.0
H1477 H 0.3525 0.97988 0.22976 0.0
H1478 H 0.36576 0.99424 0.28759 0.0
H1479 H 0.34267 0.99234 0.30544 0.0
H1480 H 0.38447 0.03747 0.44375 0.0
H1481 H 0.32912 0.03161 0.48636 0.0
H1482 H 0.38221 0.04259 0.24862 0.0
H1483 H 0.38549 0.0196 0.26496 0.0
H1484 H 0.3967 0.03551 0.32328 0.0
H1485 H 0.31468 0.03542 0.30021 0.0
H1486 H 0.30869 0.02596 0.38998 0.0
H1487 H 0.31758 0.01235 0.31582 0.0
C1488 C 0.48637 0.33554 0.70549 0.0
C1489 C 0.47595 0.34495 0.65409 0.0
C1490 C 0.48275 0.33593 0.78309 0.0
C1491 C 0.46848 0.34615 0.81012 0.0
C1492 C 0.458 0.35581 0.75858 0.0
C1493 C 0.46178 0.35499 0.68109 0.0
C1494 C 0.49409 0.32524 0.83606 0.0
C1495 C 0.44279 0.36701 0.78529 0.0
C1496 C 0.44887 0.33411 1.00036 0.0
C1497 C 0.45709 0.34626 0.04854 0.0
C1498 C 0.45242 0.33398 0.92271 0.0
C1499 C 0.46435 0.34641 0.89223 0.0
C1500 C 0.47257 0.35883 0.94044 0.0
C1501 C 0.46892 0.35853 0.01813 0.0
C1502 C 0.44357 0.32036 0.87345 0.0
C1503 C 0.48519 0.37245 0.90992 0.0
H1504 H 0.49719 0.3276 0.68476 0.0
H1505 H 0.45382 0.36245 0.64167 0.0
H1506 H 0.50022 0.33398 0.8788 0.0
H1507 H 0.48582 0.31557 0.86685 0.0
H1508 H 0.5047 0.31801 0.80602 0.0
H1509 H 0.43662 0.37454 0.73862 0.0
H1510 H 0.4326 0.35853 0.81156 0.0
H1511 H 0.44734 0.37644 0.82899 0.0
H1512 H 0.43992 0.32443 0.02373 0.0
H1513 H 0.47514 0.36804 0.05509 0.0
H1514 H 0.45369 0.31204 0.84559 0.0
H1515 H 0.43592 0.32693 0.82823 0.0
H1516 H 0.43456 0.31167 0.90588 0.0
H1517 H 0.49663 0.36583 0.88321 0.0
H1518 H 0.49013 0.38146 0.95456 0.0
H1519 H 0.47861 0.3804 0.86563 0.0
C1520 C 0.15552 0.4952 0.19175 0.0
C1521 C 0.15757 0.48113 0.141 0.0
C1522 C 0.15358 0.49227 0.26959 0.0
C1523 C 0.15368 0.47483 0.29794 0.0
C1524 C 0.15597 0.46057 0.24731 0.0
C1525 C 0.15787 0.46388 0.16963 0.0
C1526 C 0.15102 0.50786 0.32137 0.0
C1527 C 0.1562 0.44177 0.27509 0.0
C1528 C 0.16171 0.46832 0.50879 0.0
C1529 C 0.14452 0.46594 0.53614 0.0
C1530 C 0.16494 0.47105 0.43143 0.0
C1531 C 0.15062 0.47152 0.38006 0.0
C1532 C 0.13326 0.46915 0.40738 0.0
C1533 C 0.13043 0.46638 0.48478 0.0
C1534 C 0.18366 0.47342 0.40461 0.0
C1535 C 0.11759 0.4697 0.35486 0.0
H1536 H 0.155 0.50855 0.17049 0.0
H1537 H 0.15967 0.45292 0.13133 0.0
H1538 H 0.13792 0.50702 0.34893 0.0
H1539 H 0.16109 0.50771 0.36674 0.0
H1540 H 0.15191 0.52062 0.29096 0.0
H1541 H 0.15874 0.43219 0.22898 0.0
H1542 H 0.16648 0.44014 0.319 0.0
H1543 H 0.14335 0.43851 0.30153 0.0
H1544 H 0.17269 0.46783 0.5478 0.0
H1545 H 0.11708 0.46486 0.50525 0.0
H1546 H 0.18514 0.48646 0.37712 0.0
H1547 H 0.18687 0.46327 0.36174 0.0
H1548 H 0.19335 0.47246 0.45141 0.0
H1549 H 0.11695 0.4827 0.3264 0.0
H1550 H 0.10494 0.46742 0.38483 0.0
H1551 H 0.11903 0.45956 0.31022 0.0
C1552 C 0.966 0.63057 0.44206 0.0
C1553 C 0.96429 0.64464 0.49299 0.0
C1554 C 0.96843 0.63353 0.36456 0.0
C1555 C 0.96911 0.651 0.33679 0.0
C1556 C 0.96728 0.66528 0.38772 0.0
C1557 C 0.96497 0.66193 0.46518 0.0
C1558 C 0.9705 0.61792 0.31248 0.0
C1559 C 0.96778 0.6841 0.36036 0.0
C1560 C 0.99236 0.65823 0.14903 0.0
C1561 C 0.97821 0.65888 0.0981 0.0
C1562 C 0.98957 0.65592 0.22675 0.0
C1563 C 0.97217 0.65426 0.2547 0.0
C1564 C 0.95779 0.65512 0.20383 0.0
C1565 C 0.96098 0.65737 0.12626 0.0
C1566 C 0.00529 0.65491 0.27883 0.0
C1567 C 0.93903 0.65346 0.23121 0.0
H1568 H 0.96578 0.61718 0.463 0.0
H1569 H 0.96346 0.67286 0.50393 0.0
H1570 H 0.96029 0.61832 0.26773 0.0
H1571 H 0.98352 0.61849 0.28413 0.0
H1572 H 0.96943 0.60516 0.34278 0.0
H1573 H 0.96581 0.69372 0.40684 0.0
H1574 H 0.98065 0.68684 0.33307 0.0
H1575 H 0.95741 0.68621 0.3172 0.0
H1576 H 0.00572 0.6591 0.128 0.0
H1577 H 0.94994 0.65806 0.08768 0.0
H1578 H 0.00563 0.64185 0.30689 0.0
H1579 H 0.00417 0.66501 0.32379 0.0
H1580 H 0.01794 0.65691 0.24856 0.0
H1581 H 0.93692 0.64016 0.25555 0.0
H1582 H 0.9293 0.65551 0.18526 0.0
H1583 H 0.93645 0.66318 0.27661 0.0
C1584 C 0.85942 0.97413 0.01532 0.0
C1585 C 0.84779 0.96168 0.04583 0.0
C1586 C 0.85951 0.97776 0.93762 0.0
C1587 C 0.84753 0.96888 0.88954 0.0
C1588 C 0.83572 0.95634 0.92014 0.0
C1589 C 0.83606 0.95284 0.99779 0.0
C1590 C 0.87244 0.99107 0.90695 0.0
C1591 C 0.82257 0.94678 0.87099 0.0
C1592 C 0.83543 0.99019 0.70273 0.0
C1593 C 0.84535 0.98025 0.65141 0.0
C1594 C 0.83604 0.98665 0.78035 0.0
C1595 C 0.84702 0.97296 0.80745 0.0
C1596 C 0.8572 0.96297 0.75595 0.0
C1597 C 0.85614 0.96665 0.67847 0.0
C1598 C 0.8248 0.99744 0.83329 0.0
C1599 C 0.86921 0.94838 0.78267 0.0
H1600 H 0.86861 0.98084 0.05221 0.0
H1601 H 0.82686 0.94341 0.02125 0.0
H1602 H 0.88073 0.9849 0.8627 0.0
H1603 H 0.86522 0.00213 0.88014 0.0
H1604 H 0.88118 0.9965 0.95152 0.0
H1605 H 0.81436 0.93735 0.90353 0.0
H1606 H 0.81374 0.95643 0.84306 0.0
H1607 H 0.82953 0.93945 0.82583 0.0
H1608 H 0.82692 0.00056 0.68191 0.0
H1609 H 0.86401 0.9591 0.63907 0.0
H1610 H 0.83322 0.00403 0.87594 0.0
H1611 H 0.81557 0.98869 0.86418 0.0
H1612 H 0.81702 0.00765 0.8032 0.0
H1613 H 0.87847 0.95348 0.8259 0.0
H1614 H 0.87696 0.94252 0.73585 0.0
H1615 H 0.8613 0.93782 0.80958 0.0
C1616 C 0.54862 0.83664 0.42315 0.0
C1617 C 0.54092 0.84908 0.47149 0.0
C1618 C 0.54507 0.83671 0.34551 0.0
C1619 C 0.53365 0.84964 0.31521 0.0
C1620 C 0.52595 0.86235 0.36356 0.0
C1621 C 0.5296 0.86185 0.44124 0.0
C1622 C 0.55335 0.82279 0.29606 0.0
C1623 C 0.51388 0.87647 0.33321 0.0
C1624 C 0.53661 0.85812 0.10415 0.0
C1625 C 0.52209 0.84859 0.07702 0.0
C1626 C 0.54037 0.85884 0.18168 0.0
C1627 C 0.5295 0.84958 0.23312 0.0
C1628 C 0.51486 0.8399 0.20597 0.0
C1629 C 0.51128 0.83962 0.12834 0.0
C1630 C 0.55599 0.86944 0.20853 0.0
C1631 C 0.5031 0.82967 0.25886 0.0
H1632 H 0.55716 0.82658 0.44635 0.0
H1633 H 0.52379 0.87159 0.47831 0.0
H1634 H 0.54292 0.8149 0.26811 0.0
H1635 H 0.56126 0.82909 0.25092 0.0
H1636 H 0.56203 0.81373 0.32837 0.0
H1637 H 0.5093 0.88563 0.37797 0.0
H1638 H 0.52078 0.8842 0.28906 0.0
H1639 H 0.50219 0.87033 0.30635 0.0
H1640 H 0.54487 0.86526 0.06479 0.0
H1641 H 0.50018 0.83208 0.10751 0.0
H1642 H 0.56593 0.86054 0.23401 0.0
H1643 H 0.55185 0.87889 0.25287 0.0
H1644 H 0.56234 0.87689 0.16207 0.0
H1645 H 0.51096 0.81964 0.2895 0.0
H1646 H 0.49218 0.82291 0.22877 0.0
H1647 H 0.49735 0.83863 0.30171 0.0
C1648 C 0.6588 0.52905 0.96618 0.0
C1649 C 0.6418 0.53246 0.99361 0.0
C1650 C 0.66184 0.52636 0.88866 0.0
C1651 C 0.64752 0.52692 0.83732 0.0
C1652 C 0.63034 0.53034 0.86475 0.0
C1653 C 0.62771 0.53309 0.94227 0.0
C1654 C 0.68038 0.52292 0.86164 0.0
C1655 C 0.61466 0.5309 0.81229 0.0
C1656 C 0.65509 0.5339 0.62668 0.0
C1657 C 0.6537 0.51666 0.59839 0.0
C1658 C 0.65342 0.53742 0.70431 0.0
C1659 C 0.65031 0.52338 0.75523 0.0
C1660 C 0.64908 0.50595 0.72724 0.0
C1661 C 0.65078 0.50281 0.64946 0.0
C1662 C 0.65477 0.55621 0.73168 0.0
C1663 C 0.64557 0.4906 0.77934 0.0
H1664 H 0.66976 0.52873 1.00527 0.0
H1665 H 0.61449 0.53542 0.96289 0.0
H1666 H 0.68109 0.50978 0.8344 0.0
H1667 H 0.68413 0.53282 0.81852 0.0
H1668 H 0.69014 0.52337 0.90831 0.0
H1669 H 0.60219 0.5339 0.84243 0.0
H1670 H 0.61673 0.54104 0.76811 0.0
H1671 H 0.6132 0.51803 0.78325 0.0
H1672 H 0.65755 0.54469 0.58819 0.0
H1673 H 0.64937 0.48949 0.6286 0.0
H1674 H 0.66497 0.55725 0.77628 0.0
H1675 H 0.64206 0.56033 0.75708 0.0
H1676 H 0.65808 0.56553 0.6855 0.0
H1677 H 0.65567 0.49014 0.82451 0.0
H1678 H 0.64558 0.47778 0.74914 0.0
H1679 H 0.63258 0.49232 0.80711 0.0
C1680 C 0.99624 0.84137 0.36989 0.0
C1681 C 0.98205 0.84124 0.42069 0.0
C1682 C 0.99356 0.84387 0.29219 0.0
C1683 C 0.97625 0.84623 0.2641 0.0
C1684 C 0.96184 0.84592 0.31486 0.0
C1685 C 0.96491 0.84349 0.39243 0.0
C1686 C 0.00933 0.84429 0.24027 0.0
C1687 C 0.94316 0.84833 0.28734 0.0
C1688 C 0.97105 0.8701 0.07655 0.0
C1689 C 0.96884 0.85609 0.02567 0.0
C1690 C 0.97334 0.86707 0.15411 0.0
C1691 C 0.97335 0.84959 0.18197 0.0
C1692 C 0.971 0.83538 0.13108 0.0
C1693 C 0.96886 0.83879 0.05358 0.0
C1694 C 0.97599 0.8826 0.20614 0.0
C1695 C 0.97077 0.81656 0.15853 0.0
H1696 H 0.00954 0.83993 0.39106 0.0
H1697 H 0.95384 0.84322 0.43094 0.0
H1698 H 0.00786 0.83422 0.19537 0.0
H1699 H 0.01016 0.85732 0.21212 0.0
H1700 H 0.02189 0.84185 0.27068 0.0
H1701 H 0.93334 0.8466 0.33316 0.0
H1702 H 0.94158 0.86172 0.26326 0.0
H1703 H 0.94022 0.83876 0.24173 0.0
H1704 H 0.97133 0.88348 0.05552 0.0
H1705 H 0.96697 0.82792 0.01485 0.0
H1706 H 0.98896 0.88154 0.23467 0.0
H1707 H 0.96575 0.88261 0.25074 0.0
H1708 H 0.97544 0.89539 0.17575 0.0
H1709 H 0.9835 0.81333 0.18594 0.0
H1710 H 0.96843 0.80701 0.11209 0.0
H1711 H 0.9603 0.81486 0.20162 0.0
C1712 C 0.6634 0.96554 0.88795 0.0
C1713 C 0.65359 0.97936 0.91919 0.0
C1714 C 0.6627 0.96194 0.81021 0.0
C1715 C 0.65156 0.97211 0.76308 0.0
C1716 C 0.64136 0.98586 0.79483 0.0
C1717 C 0.64267 0.98944 0.8723 0.0
C1718 C 0.67404 0.94739 0.77837 0.0
C1719 C 0.62893 0.99668 0.74711 0.0
C1720 C 0.65996 0.97431 0.55152 0.0
C1721 C 0.64824 0.96156 0.52419 0.0
C1722 C 0.66139 0.97768 0.62925 0.0
C1723 C 0.6505 0.96838 0.68061 0.0
C1724 C 0.63843 0.95568 0.65301 0.0
C1725 C 0.63762 0.95228 0.57522 0.0
C1726 C 0.67469 0.99103 0.65652 0.0
C1727 C 0.62626 0.94581 0.70555 0.0
H1728 H 0.6719 0.95782 0.92426 0.0
H1729 H 0.63486 -6e-05 0.89672 0.0
H1730 H 0.66562 0.93717 0.75189 0.0
H1731 H 0.68275 0.95274 0.73365 0.0
H1732 H 0.68234 0.94104 0.82221 0.0
H1733 H 0.62155 0.00656 0.78086 0.0
H1734 H 0.63639 0.00368 0.70246 0.0
H1735 H 0.61932 0.98791 0.71851 0.0
H1736 H 0.66832 0.98131 0.51211 0.0
H1737 H 0.62848 0.94251 0.55385 0.0
H1738 H 0.68383 0.98477 0.69739 0.0
H1739 H 0.66789 0.0019 0.68646 0.0
H1740 H 0.68254 0.99672 0.60959 0.0
H1741 H 0.63406 0.93812 0.74695 0.0
H1742 H 0.61737 0.93665 0.6749 0.0
H1743 H 0.6181 0.95527 0.73802 0.0
C1744 C 0.52216 0.65978 0.04831 0.0
C1745 C 0.53684 0.65087 0.01944 0.0
C1746 C 0.51876 0.6601 0.12618 0.0
C1747 C 0.53005 0.65085 0.17606 0.0
C1748 C 0.5448 0.64167 0.14692 0.0
C1749 C 0.54815 0.64201 0.06901 0.0
C1750 C 0.50315 0.6704 0.15511 0.0
C1751 C 0.55688 0.63124 0.19785 0.0
C1752 C 0.5301 0.66249 0.38506 0.0
C1753 C 0.51828 0.65006 0.41415 0.0
C1754 C 0.53397 0.66301 0.30755 0.0
C1755 C 0.52619 0.65047 0.25849 0.0
C1756 C 0.51456 0.63763 0.28813 0.0
C1757 C 0.51057 0.63774 0.36542 0.0
C1758 C 0.54613 0.67715 0.27796 0.0
C1759 C 0.50637 0.62373 0.23825 0.0
H1760 H 0.51355 0.6668 0.00991 0.0
H1761 H 0.55942 0.63502 0.04636 0.0
H1762 H 0.49369 0.6614 0.18316 0.0
H1763 H 0.50755 0.68012 0.19795 0.0
H1764 H 0.49615 0.67753 0.10933 0.0
H1765 H 0.56767 0.6247 0.16618 0.0
H1766 H 0.56279 0.64 0.24105 0.0
H1767 H 0.5492 0.62102 0.22824 0.0
H1768 H 0.53595 0.67207 0.42281 0.0
H1769 H 0.50162 0.62798 0.38823 0.0
H1770 H 0.53919 0.68514 0.23477 0.0
H1771 H 0.5577 0.67106 0.25011 0.0
H1772 H 0.55088 0.68607 0.32331 0.0
H1773 H 0.49796 0.63005 0.19482 0.0
H1774 H 0.49818 0.61425 0.27064 0.0
H1775 H 0.51683 0.61632 0.20817 0.0
C1776 C 0.85567 0.52457 0.48803 0.0
C1777 C 0.84359 0.53656 0.45737 0.0
C1778 C 0.85591 0.52101 0.56578 0.0
C1779 C 0.84361 0.52947 0.61371 0.0
C1780 C 0.83136 0.54156 0.58296 0.0
C1781 C 0.83157 0.54501 0.50527 0.0
C1782 C 0.8693 0.50819 0.59663 0.0
C1783 C 0.81787 0.55066 0.63196 0.0
C1784 C 0.83218 0.50772 0.80024 0.0
C1785 C 0.84173 0.51799 0.85172 0.0
C1786 C 0.83271 0.5113 0.72265 0.0
C1787 C 0.84321 0.52538 0.69578 0.0
C1788 C 0.85299 0.53573 0.74744 0.0
C1789 C 0.85204 0.53197 0.82488 0.0
C1790 C 0.82189 0.50012 0.66953 0.0
C1791 C 0.86447 0.55075 0.72093 0.0
H1792 H 0.86508 0.51816 0.45121 0.0
H1793 H 0.82204 0.55409 0.48166 0.0
H1794 H 0.87732 0.51466 0.64104 0.0
H1795 H 0.86248 0.49686 0.62326 0.0
H1796 H 0.87828 0.50311 0.55219 0.0
H1797 H 0.80937 0.55981 0.59933 0.0
H1798 H 0.80936 0.5407 0.65974 0.0
H1799 H 0.82455 0.55822 0.67724 0.0
H1800 H 0.82404 0.49704 0.82089 0.0
H1801 H 0.85962 0.53979 0.86441 0.0
H1802 H 0.83057 0.49383 0.62701 0.0
H1803 H 0.81238 0.50853 0.6385 0.0
H1804 H 0.81445 0.48963 0.69949 0.0
H1805 H 0.87425 0.54588 0.67938 0.0
H1806 H 0.87163 0.55721 0.76813 0.0
H1807 H 0.8563 0.5608 0.69199 0.0
loop_
_geom_bond_atom_site_label_1
_geom_bond_atom_site_label_2
_geom_bond_distance
_geom_bond_site_symmetry_2
_ccdc_geom_bond_type
C0 C1 1.351 . S
C0 N3 1.369 . S
C0 H5 0.896 1_456 S
C1 C0 1.351 . S
C1 N2 1.373 . S
C1 H29 0.930 1_455 S
N2 C1 1.373 . S
N2 C4 1.340 . S
N3 C0 1.369 . S
N3 C4 1.325 . S
N3 Co6 2.131 1_556 S
C4 N2 1.340 . S
C4 N3 1.325 . S
C4 H28 0.930 . S
H5 C0 0.896 1_654 S
Co6 N3 2.131 1_554 S
Co6 N9 2.121 . S
Co6 O14 2.055 . S
Co6 O17 2.039 . S
Co6 N20 2.095 1_455 S
C7 O8 1.227 . S
C7 O17 1.265 . S
O8 C7 1.227 . S
N9 Co6 2.121 . S
N9 C11 1.375 . S
N9 C12 1.313 . S
C10 C11 1.338 . S
C10 N13 1.377 . S
C10 H30 0.930 . S
C11 N9 1.375 . S
C11 C10 1.338 . S
C11 H15 0.931 . S
C12 N9 1.313 . S
C12 N13 1.344 . S
C12 H16 0.930 . S
N13 C10 1.377 . S
N13 C12 1.344 . S
O14 Co6 2.055 . S
O14 C18 1.253 . S
H15 C11 0.931 . S
H16 C12 0.930 . S
O17 Co6 2.039 . S
O17 C7 1.265 . S
C18 O14 1.253 . S
C18 O19 1.270 . S
O19 C18 1.270 . S
N20 Co6 2.095 1_655 S
N20 C23 1.358 . S
N20 C24 1.381 . S
C21 C22 1.387 . S
C21 C25 1.391 . S
C22 C21 1.387 . S
C22 C23 1.369 . S
C22 H31 0.929 . S
C23 N20 1.358 . S
C23 C22 1.369 . S
C23 H26 0.928 1_655 S
C24 N20 1.381 . S
C24 C25 1.371 . S
C24 H27 0.931 . S
C25 C21 1.391 . S
C25 C24 1.371 . S
C25 H32 0.930 . S
H26 C23 0.928 1_455 S
H27 C24 0.931 . S
H28 C4 0.930 . S
H29 C1 0.930 1_655 S
H30 C10 0.930 . S
H31 C22 0.929 . S
H32 C25 0.930 . S
C33 C34 1.351 . S
C33 N36 1.368 . S
C33 H38 0.896 1_545 S
C34 C33 1.351 . S
C34 N35 1.373 . S
C34 H62 0.930 1_545 S
N35 C34 1.373 . S
N35 C37 1.340 . S
N36 C33 1.368 . S
N36 C37 1.321 . S
N36 Co39 2.135 . S
C37 N35 1.340 . S
C37 N36 1.321 . S
C37 H61 0.930 . S
H38 C33 0.896 1_565 S
Co39 N36 2.135 . S
Co39 N42 2.121 . S
Co39 O47 2.055 . S
Co39 O50 2.039 . S
Co39 N53 2.095 1_545 S
C40 O41 1.227 . S
C40 O50 1.265 . S
O41 C40 1.227 . S
N42 Co39 2.121 . S
N42 C44 1.375 . S
N42 C45 1.313 . S
C43 C44 1.338 . S
C43 N46 1.377 . S
C43 H63 0.930 . S
C44 N42 1.375 . S
C44 C43 1.338 . S
C44 H48 0.931 . S
C45 N42 1.313 . S
C45 N46 1.344 . S
C45 H49 0.930 . S
N46 C43 1.377 . S
N46 C45 1.344 . S
O47 Co39 2.055 . S
O47 C51 1.253 . S
H48 C44 0.931 . S
H49 C45 0.930 . S
O50 Co39 2.039 . S
O50 C40 1.265 . S
C51 O47 1.253 . S
C51 O52 1.270 . S
O52 C51 1.270 . S
N53 Co39 2.095 1_565 S
N53 C56 1.358 . S
N53 C57 1.381 . S
C54 C55 1.387 . S
C54 C58 1.391 . S
C55 C54 1.387 . S
C55 C56 1.369 . S
C55 H64 0.929 . S
C56 N53 1.358 . S
C56 C55 1.369 . S
C56 H59 0.928 1_565 S
C57 N53 1.381 . S
C57 C58 1.371 . S
C57 H60 0.931 . S
C58 C54 1.391 . S
C58 C57 1.371 . S
C58 H65 0.930 . S
H59 C56 0.928 1_545 S
H60 C57 0.931 . S
H61 C37 0.930 . S
H62 C34 0.930 1_565 S
H63 C43 0.930 . S
H64 C55 0.929 . S
H65 C58 0.930 . S
C66 C67 1.351 . S
C66 N69 1.369 . S
C66 H71 0.931 1_556 S
C67 C66 1.351 . S
C67 N68 1.373 . S
C67 H95 0.930 . S
N68 C67 1.373 . S
N68 C70 1.340 . S
N69 C66 1.369 . S
N69 C70 1.325 . S
N69 Co72 2.131 1_556 S
C70 N68 1.340 . S
C70 N69 1.325 . S
C70 H94 0.930 . S
H71 C66 0.931 1_554 S
Co72 N69 2.131 1_554 S
Co72 N75 2.121 . S
Co72 O80 2.055 . S
Co72 O83 2.039 . S
Co72 N86 2.140 . S
C73 O74 1.227 . S
C73 O83 1.265 . S
O74 C73 1.227 . S
N75 Co72 2.121 . S
N75 C77 1.375 . S
N75 C78 1.313 . S
C76 C77 1.338 . S
C76 N79 1.377 . S
C76 H96 0.930 . S
C77 N75 1.375 . S
C77 C76 1.338 . S
C77 H81 0.931 . S
C78 N75 1.313 . S
C78 N79 1.344 . S
C78 H82 0.930 . S
N79 C76 1.377 . S
N79 C78 1.344 . S
O80 Co72 2.055 . S
O80 C84 1.253 . S
H81 C77 0.931 . S
H82 C78 0.930 . S
O83 Co72 2.039 . S
O83 C73 1.265 . S
C84 O80 1.253 . S
C84 O85 1.227 . S
O85 C84 1.227 . S
N86 Co72 2.140 . S
N86 C89 1.346 . S
N86 C90 1.345 . S
C87 C88 1.387 . S
C87 C91 1.391 . S
C88 C87 1.387 . S
C88 C89 1.369 . S
C88 H97 0.929 . S
C89 N86 1.346 . S
C89 C88 1.369 . S
C89 H92 0.928 . S
C90 N86 1.345 . S
C90 C91 1.371 . S
C90 H93 0.931 . S
C91 C87 1.391 . S
C91 C90 1.371 . S
C91 H98 0.930 . S
H92 C89 0.928 . S
H93 C90 0.931 . S
H94 C70 0.930 . S
H95 C67 0.930 . S
H96 C76 0.930 . S
H97 C88 0.929 . S
H98 C91 0.930 . S
C99 C100 1.351 . S
C99 N102 1.368 . S
C99 H104 0.931 . S
C100 C99 1.351 . S
C100 N101 1.373 . S
C100 H128 0.930 . S
N101 C100 1.373 . S
N101 C103 1.340 . S
N102 C99 1.368 . S
N102 C103 1.321 . S
N102 Co105 2.135 . S
C103 N101 1.340 . S
C103 N102 1.321 . S
C103 H127 0.930 . S
H104 C99 0.931 . S
Co105 N102 2.135 . S
Co105 N108 2.121 . S
Co105 O113 2.055 . S
Co105 O116 2.039 . S
Co105 N119 2.140 . S
C106 O107 1.227 . S
C106 O116 1.265 . S
O107 C106 1.227 . S
N108 Co105 2.121 . S
N108 C110 1.375 . S
N108 C111 1.313 . S
C109 C110 1.338 . S
C109 N112 1.377 . S
C109 H129 0.930 . S
C110 N108 1.375 . S
C110 C109 1.338 . S
C110 H114 0.931 . S
C111 N108 1.313 . S
C111 N112 1.344 . S
C111 H115 0.930 . S
N112 C109 1.377 . S
N112 C111 1.344 . S
O113 Co105 2.055 . S
O113 C117 1.253 . S
H114 C110 0.931 . S
H115 C111 0.930 . S
O116 Co105 2.039 . S
O116 C106 1.265 . S
C117 O113 1.253 . S
C117 O118 1.227 . S
O118 C117 1.227 . S
N119 Co105 2.140 . S
N119 C122 1.346 . S
N119 C123 1.345 . S
C120 C121 1.387 . S
C120 C124 1.391 . S
C121 C120 1.387 . S
C121 C122 1.369 . S
C121 H130 0.929 . S
C122 N119 1.346 . S
C122 C121 1.369 . S
C122 H125 0.928 . S
C123 N119 1.345 . S
C123 C124 1.371 . S
C123 H126 0.931 . S
C124 C120 1.391 . S
C124 C123 1.371 . S
C124 H131 0.930 . S
H125 C122 0.928 . S
H126 C123 0.931 . S
H127 C103 0.930 . S
H128 C100 0.930 . S
H129 C109 0.930 . S
H130 C121 0.929 . S
H131 C124 0.930 . S
C132 C133 1.351 . S
C132 N135 1.368 . S
C132 H137 0.896 1_455 S
C133 C132 1.351 . S
C133 N134 1.373 . S
C133 H161 0.930 1_455 S
N134 C133 1.373 . S
N134 C136 1.340 . S
N135 C132 1.368 . S
N135 C136 1.321 . S
N135 Co138 2.135 . S
C136 N134 1.340 . S
C136 N135 1.321 . S
C136 H160 0.930 . S
H137 C132 0.896 1_655 S
Co138 N135 2.135 . S
Co138 N141 2.121 . S
Co138 O146 2.055 . S
Co138 O149 2.039 . S
Co138 N152 2.095 1_455 S
C139 O140 1.227 . S
C139 O149 1.265 . S
O140 C139 1.227 . S
N141 Co138 2.121 . S
N141 C143 1.375 . S
N141 C144 1.313 . S
C142 C143 1.338 . S
C142 N145 1.377 . S
C142 H162 0.930 . S
C143 N141 1.375 . S
C143 C142 1.338 . S
C143 H147 0.931 . S
C144 N141 1.313 . S
C144 N145 1.344 . S
C144 H148 0.930 . S
N145 C142 1.377 . S
N145 C144 1.344 . S
O146 Co138 2.055 . S
O146 C150 1.253 . S
H147 C143 0.931 . S
H148 C144 0.930 . S
O149 Co138 2.039 . S
O149 C139 1.265 . S
C150 O146 1.253 . S
C150 O151 1.270 . S
O151 C150 1.270 . S
N152 Co138 2.095 1_655 S
N152 C155 1.358 . S
N152 C156 1.381 . S
C153 C154 1.387 . S
C153 C157 1.391 . S
C154 C153 1.387 . S
C154 C155 1.369 . S
C154 H163 0.929 . S
C155 N152 1.358 . S
C155 C154 1.369 . S
C155 H158 0.928 1_655 S
C156 N152 1.381 . S
C156 C157 1.371 . S
C156 H159 0.931 . S
C157 C153 1.391 . S
C157 C156 1.371 . S
C157 H164 0.930 . S
H158 C155 0.928 1_455 S
H159 C156 0.931 . S
H160 C136 0.930 . S
H161 C133 0.930 1_655 S
H162 C142 0.930 . S
H163 C154 0.929 . S
H164 C157 0.930 . S
C165 C166 1.351 . S
C165 N168 1.369 . S
C165 H170 0.896 1_544 S
C166 C165 1.351 . S
C166 N167 1.373 . S
C166 H194 0.930 1_545 S
N167 C166 1.373 . S
N167 C169 1.340 . S
N168 C165 1.369 . S
N168 C169 1.325 . S
N168 Co171 2.131 1_554 S
C169 N167 1.340 . S
C169 N168 1.325 . S
C169 H193 0.930 . S
H170 C165 0.896 1_566 S
Co171 N168 2.131 1_556 S
Co171 N174 2.121 . S
Co171 O179 2.055 . S
Co171 O182 2.039 . S
Co171 N185 2.095 1_545 S
C172 O173 1.227 . S
C172 O182 1.265 . S
O173 C172 1.227 . S
N174 Co171 2.121 . S
N174 C176 1.375 . S
N174 C177 1.313 . S
C175 C176 1.338 . S
C175 N178 1.377 . S
C175 H195 0.930 . S
C176 N174 1.375 . S
C176 C175 1.338 . S
C176 H180 0.931 . S
C177 N174 1.313 . S
C177 N178 1.344 . S
C177 H181 0.930 . S
N178 C175 1.377 . S
N178 C177 1.344 . S
O179 Co171 2.055 . S
O179 C183 1.253 . S
H180 C176 0.931 . S
H181 C177 0.930 . S
O182 Co171 2.039 . S
O182 C172 1.265 . S
C183 O179 1.253 . S
C183 O184 1.270 . S
O184 C183 1.270 . S
N185 Co171 2.095 1_565 S
N185 C188 1.358 . S
N185 C189 1.381 . S
C186 C187 1.387 . S
C186 C190 1.391 . S
C187 C186 1.387 . S
C187 C188 1.369 . S
C187 H196 0.929 . S
C188 N185 1.358 . S
C188 C187 1.369 . S
C188 H191 0.928 1_565 S
C189 N185 1.381 . S
C189 C190 1.371 . S
C189 H192 0.931 . S
C190 C186 1.391 . S
C190 C189 1.371 . S
C190 H197 0.930 . S
H191 C188 0.928 1_545 S
H192 C189 0.931 . S
H193 C169 0.930 . S
H194 C166 0.930 1_565 S
H195 C175 0.930 . S
H196 C187 0.929 . S
H197 C190 0.930 . S
C198 C199 1.351 . S
C198 N201 1.368 . S
C198 H203 0.931 . S
C199 C198 1.351 . S
C199 N200 1.373 . S
C199 H227 0.930 . S
N200 C199 1.373 . S
N200 C202 1.340 . S
N201 C198 1.368 . S
N201 C202 1.321 . S
N201 Co204 2.135 . S
C202 N200 1.340 . S
C202 N201 1.321 . S
C202 H226 0.930 . S
H203 C198 0.931 . S
Co204 N201 2.135 . S
Co204 N207 2.121 . S
Co204 O212 2.055 . S
Co204 O215 2.039 . S
Co204 N218 2.140 . S
C205 O206 1.227 . S
C205 O215 1.265 . S
O206 C205 1.227 . S
N207 Co204 2.121 . S
N207 C209 1.375 . S
N207 C210 1.313 . S
C208 C209 1.338 . S
C208 N211 1.377 . S
C208 H228 0.930 . S
C209 N207 1.375 . S
C209 C208 1.338 . S
C209 H213 0.931 . S
C210 N207 1.313 . S
C210 N211 1.344 . S
C210 H214 0.930 . S
N211 C208 1.377 . S
N211 C210 1.344 . S
O212 Co204 2.055 . S
O212 C216 1.253 . S
H213 C209 0.931 . S
H214 C210 0.930 . S
O215 Co204 2.039 . S
O215 C205 1.265 . S
C216 O212 1.253 . S
C216 O217 1.227 . S
O217 C216 1.227 . S
N218 Co204 2.140 . S
N218 C221 1.346 . S
N218 C222 1.345 . S
C219 C220 1.387 . S
C219 C223 1.391 . S
C220 C219 1.387 . S
C220 C221 1.369 . S
C220 H229 0.929 . S
C221 N218 1.346 . S
C221 C220 1.369 . S
C221 H224 0.928 . S
C222 N218 1.345 . S
C222 C223 1.371 . S
C222 H225 0.931 . S
C223 C219 1.391 . S
C223 C222 1.371 . S
C223 H230 0.930 . S
H224 C221 0.928 . S
H225 C222 0.931 . S
H226 C202 0.930 . S
H227 C199 0.930 . S
H228 C208 0.930 . S
H229 C220 0.929 . S
H230 C223 0.930 . S
C231 C232 1.351 . S
C231 N234 1.369 . S
C231 H236 0.931 1_554 S
C232 C231 1.351 . S
C232 N233 1.373 . S
C232 H260 0.930 . S
N233 C232 1.373 . S
N233 C235 1.340 . S
N234 C231 1.369 . S
N234 C235 1.325 . S
N234 Co237 2.131 1_554 S
C235 N233 1.340 . S
C235 N234 1.325 . S
C235 H259 0.930 . S
H236 C231 0.931 1_556 S
Co237 N234 2.131 1_556 S
Co237 N240 2.121 . S
Co237 O245 2.055 . S
Co237 O248 2.039 . S
Co237 N251 2.140 . S
C238 O239 1.227 . S
C238 O248 1.265 . S
O239 C238 1.227 . S
N240 Co237 2.121 . S
N240 C242 1.375 . S
N240 C243 1.313 . S
C241 C242 1.338 . S
C241 N244 1.377 . S
C241 H261 0.930 . S
C242 N240 1.375 . S
C242 C241 1.338 . S
C242 H246 0.931 . S
C243 N240 1.313 . S
C243 N244 1.344 . S
C243 H247 0.930 . S
N244 C241 1.377 . S
N244 C243 1.344 . S
O245 Co237 2.055 . S
O245 C249 1.253 . S
H246 C242 0.931 . S
H247 C243 0.930 . S
O248 Co237 2.039 . S
O248 C238 1.265 . S
C249 O245 1.253 . S
C249 O250 1.227 . S
O250 C249 1.227 . S
N251 Co237 2.140 . S
N251 C254 1.346 . S
N251 C255 1.345 . S
C252 C253 1.387 . S
C252 C256 1.391 . S
C253 C252 1.387 . S
C253 C254 1.369 . S
C253 H262 0.929 . S
C254 N251 1.346 . S
C254 C253 1.369 . S
C254 H257 0.928 . S
C255 N251 1.345 . S
C255 C256 1.371 . S
C255 H258 0.931 . S
C256 C252 1.391 . S
C256 C255 1.371 . S
C256 H263 0.930 . S
H257 C254 0.928 . S
H258 C255 0.931 . S
H259 C235 0.930 . S
H260 C232 0.930 . S
H261 C241 0.930 . S
H262 C253 0.929 . S
H263 C256 0.930 . S
C264 C265 1.351 . S
C264 N267 1.369 . S
C264 H269 0.896 1_654 S
C265 C264 1.351 . S
C265 N266 1.373 . S
C265 H293 0.930 1_655 S
N266 C265 1.373 . S
N266 C268 1.340 . S
N267 C264 1.369 . S
N267 C268 1.325 . S
N267 Co270 2.131 1_554 S
C268 N266 1.340 . S
C268 N267 1.325 . S
C268 H292 0.930 . S
H269 C264 0.896 1_456 S
Co270 N267 2.131 1_556 S
Co270 N273 2.121 . S
Co270 O278 2.055 . S
Co270 O281 2.039 . S
Co270 N284 2.095 1_655 S
C271 O272 1.227 . S
C271 O281 1.265 . S
O272 C271 1.227 . S
N273 Co270 2.121 . S
N273 C275 1.375 . S
N273 C276 1.313 . S
C274 C275 1.338 . S
C274 N277 1.377 . S
C274 H294 0.930 . S
C275 N273 1.375 . S
C275 C274 1.338 . S
C275 H279 0.931 . S
C276 N273 1.313 . S
C276 N277 1.344 . S
C276 H280 0.930 . S
N277 C274 1.377 . S
N277 C276 1.344 . S
O278 Co270 2.055 . S
O278 C282 1.253 . S
H279 C275 0.931 . S
H280 C276 0.930 . S
O281 Co270 2.039 . S
O281 C271 1.265 . S
C282 O278 1.253 . S
C282 O283 1.270 . S
O283 C282 1.270 . S
N284 Co270 2.095 1_455 S
N284 C287 1.358 . S
N284 C288 1.381 . S
C285 C286 1.387 . S
C285 C289 1.391 . S
C286 C285 1.387 . S
C286 C287 1.369 . S
C286 H295 0.929 . S
C287 N284 1.358 . S
C287 C286 1.369 . S
C287 H290 0.928 1_455 S
C288 N284 1.381 . S
C288 C289 1.371 . S
C288 H291 0.931 . S
C289 C285 1.391 . S
C289 C288 1.371 . S
C289 H296 0.930 . S
H290 C287 0.928 1_655 S
H291 C288 0.931 . S
H292 C268 0.930 . S
H293 C265 0.930 1_455 S
H294 C274 0.930 . S
H295 C286 0.929 . S
H296 C289 0.930 . S
C297 C298 1.351 . S
C297 N300 1.368 . S
C297 H302 0.896 1_565 S
C298 C297 1.351 . S
C298 N299 1.373 . S
C298 H326 0.930 1_565 S
N299 C298 1.373 . S
N299 C301 1.340 . S
N300 C297 1.368 . S
N300 C301 1.321 . S
N300 Co303 2.135 . S
C301 N299 1.340 . S
C301 N300 1.321 . S
C301 H325 0.930 . S
H302 C297 0.896 1_545 S
Co303 N300 2.135 . S
Co303 N306 2.121 . S
Co303 O311 2.055 . S
Co303 O314 2.039 . S
Co303 N317 2.095 1_565 S
C304 O305 1.227 . S
C304 O314 1.265 . S
O305 C304 1.227 . S
N306 Co303 2.121 . S
N306 C308 1.375 . S
N306 C309 1.313 . S
C307 C308 1.338 . S
C307 N310 1.377 . S
C307 H327 0.930 . S
C308 N306 1.375 . S
C308 C307 1.338 . S
C308 H312 0.931 . S
C309 N306 1.313 . S
C309 N310 1.344 . S
C309 H313 0.930 . S
N310 C307 1.377 . S
N310 C309 1.344 . S
O311 Co303 2.055 . S
O311 C315 1.253 . S
H312 C308 0.931 . S
H313 C309 0.930 . S
O314 Co303 2.039 . S
O314 C304 1.265 . S
C315 O311 1.253 . S
C315 O316 1.270 . S
O316 C315 1.270 . S
N317 Co303 2.095 1_545 S
N317 C320 1.358 . S
N317 C321 1.381 . S
C318 C319 1.387 . S
C318 C322 1.391 . S
C319 C318 1.387 . S
C319 C320 1.369 . S
C319 H328 0.929 . S
C320 N317 1.358 . S
C320 C319 1.369 . S
C320 H323 0.928 1_545 S
C321 N317 1.381 . S
C321 C322 1.371 . S
C321 H324 0.931 . S
C322 C318 1.391 . S
C322 C321 1.371 . S
C322 H329 0.930 . S
H323 C320 0.928 1_565 S
H324 C321 0.931 . S
H325 C301 0.930 . S
H326 C298 0.930 1_545 S
H327 C307 0.930 . S
H328 C319 0.929 . S
H329 C322 0.930 . S
C330 C331 1.351 . S
C330 N333 1.369 . S
C330 H335 0.931 1_554 S
C331 C330 1.351 . S
C331 N332 1.373 . S
C331 H359 0.930 . S
N332 C331 1.373 . S
N332 C334 1.340 . S
N333 C330 1.369 . S
N333 C334 1.325 . S
N333 Co336 2.131 1_554 S
C334 N332 1.340 . S
C334 N333 1.325 . S
C334 H358 0.930 . S
H335 C330 0.931 1_556 S
Co336 N333 2.131 1_556 S
Co336 N339 2.121 . S
Co336 O344 2.055 . S
Co336 O347 2.039 . S
Co336 N350 2.140 . S
C337 O338 1.227 . S
C337 O347 1.265 . S
O338 C337 1.227 . S
N339 Co336 2.121 . S
N339 C341 1.375 . S
N339 C342 1.313 . S
C340 C341 1.338 . S
C340 N343 1.377 . S
C340 H360 0.930 . S
C341 N339 1.375 . S
C341 C340 1.338 . S
C341 H345 0.931 . S
C342 N339 1.313 . S
C342 N343 1.344 . S
C342 H346 0.930 . S
N343 C340 1.377 . S
N343 C342 1.344 . S
O344 Co336 2.055 . S
O344 C348 1.253 . S
H345 C341 0.931 . S
H346 C342 0.930 . S
O347 Co336 2.039 . S
O347 C337 1.265 . S
C348 O344 1.253 . S
C348 O349 1.227 . S
O349 C348 1.227 . S
N350 Co336 2.140 . S
N350 C353 1.346 . S
N350 C354 1.345 . S
C351 C352 1.387 . S
C351 C355 1.391 . S
C352 C351 1.387 . S
C352 C353 1.369 . S
C352 H361 0.929 . S
C353 N350 1.346 . S
C353 C352 1.369 . S
C353 H356 0.928 . S
C354 N350 1.345 . S
C354 C355 1.371 . S
C354 H357 0.931 . S
C355 C351 1.391 . S
C355 C354 1.371 . S
C355 H362 0.930 . S
H356 C353 0.928 . S
H357 C354 0.931 . S
H358 C334 0.930 . S
H359 C331 0.930 . S
H360 C340 0.930 . S
H361 C352 0.929 . S
H362 C355 0.930 . S
C363 C364 1.351 . S
C363 N366 1.368 . S
C363 H368 0.931 . S
C364 C363 1.351 . S
C364 N365 1.373 . S
C364 H392 0.930 . S
N365 C364 1.373 . S
N365 C367 1.340 . S
N366 C363 1.368 . S
N366 C367 1.321 . S
N366 Co369 2.135 . S
C367 N365 1.340 . S
C367 N366 1.321 . S
C367 H391 0.930 . S
H368 C363 0.931 . S
Co369 N366 2.135 . S
Co369 N372 2.121 . S
Co369 O377 2.055 . S
Co369 O380 2.039 . S
Co369 N383 2.140 . S
C370 O371 1.227 . S
C370 O380 1.265 . S
O371 C370 1.227 . S
N372 Co369 2.121 . S
N372 C374 1.375 . S
N372 C375 1.313 . S
C373 C374 1.338 . S
C373 N376 1.377 . S
C373 H393 0.930 . S
C374 N372 1.375 . S
C374 C373 1.338 . S
C374 H378 0.931 . S
C375 N372 1.313 . S
C375 N376 1.344 . S
C375 H379 0.930 . S
N376 C373 1.377 . S
N376 C375 1.344 . S
O377 Co369 2.055 . S
O377 C381 1.253 . S
H378 C374 0.931 . S
H379 C375 0.930 . S
O380 Co369 2.039 . S
O380 C370 1.265 . S
C381 O377 1.253 . S
C381 O382 1.227 . S
O382 C381 1.227 . S
N383 Co369 2.140 . S
N383 C386 1.346 . S
N383 C387 1.345 . S
C384 C385 1.387 . S
C384 C388 1.391 . S
C385 C384 1.387 . S
C385 C386 1.369 . S
C385 H394 0.929 . S
C386 N383 1.346 . S
C386 C385 1.369 . S
C386 H389 0.928 . S
C387 N383 1.345 . S
C387 C388 1.371 . S
C387 H390 0.931 . S
C388 C384 1.391 . S
C388 C387 1.371 . S
C388 H395 0.930 . S
H389 C386 0.928 . S
H390 C387 0.931 . S
H391 C367 0.930 . S
H392 C364 0.930 . S
H393 C373 0.930 . S
H394 C385 0.929 . S
H395 C388 0.930 . S
C396 C397 1.351 . S
C396 N399 1.368 . S
C396 H401 0.896 1_655 S
C397 C396 1.351 . S
C397 N398 1.373 . S
C397 H425 0.930 1_655 S
N398 C397 1.373 . S
N398 C400 1.340 . S
N399 C396 1.368 . S
N399 C400 1.321 . S
N399 Co402 2.135 . S
C400 N398 1.340 . S
C400 N399 1.321 . S
C400 H424 0.930 . S
H401 C396 0.896 1_455 S
Co402 N399 2.135 . S
Co402 N405 2.121 . S
Co402 O410 2.055 . S
Co402 O413 2.039 . S
Co402 N416 2.095 1_655 S
C403 O404 1.227 . S
C403 O413 1.265 . S
O404 C403 1.227 . S
N405 Co402 2.121 . S
N405 C407 1.375 . S
N405 C408 1.313 . S
C406 C407 1.338 . S
C406 N409 1.377 . S
C406 H426 0.930 . S
C407 N405 1.375 . S
C407 C406 1.338 . S
C407 H411 0.931 . S
C408 N405 1.313 . S
C408 N409 1.344 . S
C408 H412 0.930 . S
N409 C406 1.377 . S
N409 C408 1.344 . S
O410 Co402 2.055 . S
O410 C414 1.253 . S
H411 C407 0.931 . S
H412 C408 0.930 . S
O413 Co402 2.039 . S
O413 C403 1.265 . S
C414 O410 1.253 . S
C414 O415 1.270 . S
O415 C414 1.270 . S
N416 Co402 2.095 1_455 S
N416 C419 1.358 . S
N416 C420 1.381 . S
C417 C418 1.387 . S
C417 C421 1.391 . S
C418 C417 1.387 . S
C418 C419 1.369 . S
C418 H427 0.929 . S
C419 N416 1.358 . S
C419 C418 1.369 . S
C419 H422 0.928 1_455 S
C420 N416 1.381 . S
C420 C421 1.371 . S
C420 H423 0.931 . S
C421 C417 1.391 . S
C421 C420 1.371 . S
C421 H428 0.930 . S
H422 C419 0.928 1_655 S
H423 C420 0.931 . S
H424 C400 0.930 . S
H425 C397 0.930 1_455 S
H426 C406 0.930 . S
H427 C418 0.929 . S
H428 C421 0.930 . S
C429 C430 1.351 . S
C429 N432 1.369 . S
C429 H434 0.896 1_566 S
C430 C429 1.351 . S
C430 N431 1.373 . S
C430 H458 0.930 1_565 S
N431 C430 1.373 . S
N431 C433 1.340 . S
N432 C429 1.369 . S
N432 C433 1.325 . S
N432 Co435 2.131 1_556 S
C433 N431 1.340 . S
C433 N432 1.325 . S
C433 H457 0.930 . S
H434 C429 0.896 1_544 S
Co435 N432 2.131 1_554 S
Co435 N438 2.121 . S
Co435 O443 2.055 . S
Co435 O446 2.039 . S
Co435 N449 2.095 1_565 S
C436 O437 1.227 . S
C436 O446 1.265 . S
O437 C436 1.227 . S
N438 Co435 2.121 . S
N438 C440 1.375 . S
N438 C441 1.313 . S
C439 C440 1.338 . S
C439 N442 1.377 . S
C439 H459 0.930 . S
C440 N438 1.375 . S
C440 C439 1.338 . S
C440 H444 0.931 . S
C441 N438 1.313 . S
C441 N442 1.344 . S
C441 H445 0.930 . S
N442 C439 1.377 . S
N442 C441 1.344 . S
O443 Co435 2.055 . S
O443 C447 1.253 . S
H444 C440 0.931 . S
H445 C441 0.930 . S
O446 Co435 2.039 . S
O446 C436 1.265 . S
C447 O443 1.253 . S
C447 O448 1.270 . S
O448 C447 1.270 . S
N449 Co435 2.095 1_545 S
N449 C452 1.358 . S
N449 C453 1.381 . S
C450 C451 1.387 . S
C450 C454 1.391 . S
C451 C450 1.387 . S
C451 C452 1.369 . S
C451 H460 0.929 . S
C452 N449 1.358 . S
C452 C451 1.369 . S
C452 H455 0.928 1_545 S
C453 N449 1.381 . S
C453 C454 1.371 . S
C453 H456 0.931 . S
C454 C450 1.391 . S
C454 C453 1.371 . S
C454 H461 0.930 . S
H455 C452 0.928 1_565 S
H456 C453 0.931 . S
H457 C433 0.930 . S
H458 C430 0.930 1_545 S
H459 C439 0.930 . S
H460 C451 0.929 . S
H461 C454 0.930 . S
C462 C463 1.351 . S
C462 N465 1.368 . S
C462 H467 0.931 . S
C463 C462 1.351 . S
C463 N464 1.373 . S
C463 H491 0.930 . S
N464 C463 1.373 . S
N464 C466 1.340 . S
N465 C462 1.368 . S
N465 C466 1.321 . S
N465 Co468 2.135 . S
C466 N464 1.340 . S
C466 N465 1.321 . S
C466 H490 0.930 . S
H467 C462 0.931 . S
Co468 N465 2.135 . S
Co468 N471 2.121 . S
Co468 O476 2.055 . S
Co468 O479 2.039 . S
Co468 N482 2.140 . S
C469 O470 1.227 . S
C469 O479 1.265 . S
O470 C469 1.227 . S
N471 Co468 2.121 . S
N471 C473 1.375 . S
N471 C474 1.313 . S
C472 C473 1.338 . S
C472 N475 1.377 . S
C472 H492 0.930 . S
C473 N471 1.375 . S
C473 C472 1.338 . S
C473 H477 0.931 . S
C474 N471 1.313 . S
C474 N475 1.344 . S
C474 H478 0.930 . S
N475 C472 1.377 . S
N475 C474 1.344 . S
O476 Co468 2.055 . S
O476 C480 1.253 . S
H477 C473 0.931 . S
H478 C474 0.930 . S
O479 Co468 2.039 . S
O479 C469 1.265 . S
C480 O476 1.253 . S
C480 O481 1.227 . S
O481 C480 1.227 . S
N482 Co468 2.140 . S
N482 C485 1.346 . S
N482 C486 1.345 . S
C483 C484 1.387 . S
C483 C487 1.391 . S
C484 C483 1.387 . S
C484 C485 1.369 . S
C484 H493 0.929 . S
C485 N482 1.346 . S
C485 C484 1.369 . S
C485 H488 0.928 . S
C486 N482 1.345 . S
C486 C487 1.371 . S
C486 H489 0.931 . S
C487 C483 1.391 . S
C487 C486 1.371 . S
C487 H494 0.930 . S
H488 C485 0.928 . S
H489 C486 0.931 . S
H490 C466 0.930 . S
H491 C463 0.930 . S
H492 C472 0.930 . S
H493 C484 0.929 . S
H494 C487 0.930 . S
C495 C496 1.351 . S
C495 N498 1.369 . S
C495 H500 0.931 1_556 S
C496 C495 1.351 . S
C496 N497 1.373 . S
C496 H524 0.930 . S
N497 C496 1.373 . S
N497 C499 1.340 . S
N498 C495 1.369 . S
N498 C499 1.325 . S
N498 Co501 2.131 1_556 S
C499 N497 1.340 . S
C499 N498 1.325 . S
C499 H523 0.930 . S
H500 C495 0.931 1_554 S
Co501 N498 2.131 1_554 S
Co501 N504 2.121 . S
Co501 O509 2.055 . S
Co501 O512 2.039 . S
Co501 N515 2.140 . S
C502 O503 1.227 . S
C502 O512 1.265 . S
O503 C502 1.227 . S
N504 Co501 2.121 . S
N504 C506 1.375 . S
N504 C507 1.313 . S
C505 C506 1.338 . S
C505 N508 1.377 . S
C505 H525 0.930 . S
C506 N504 1.375 . S
C506 C505 1.338 . S
C506 H510 0.931 . S
C507 N504 1.313 . S
C507 N508 1.344 . S
C507 H511 0.930 . S
N508 C505 1.377 . S
N508 C507 1.344 . S
O509 Co501 2.055 . S
O509 C513 1.253 . S
H510 C506 0.931 . S
H511 C507 0.930 . S
O512 Co501 2.039 . S
O512 C502 1.265 . S
C513 O509 1.253 . S
C513 O514 1.227 . S
O514 C513 1.227 . S
N515 Co501 2.140 . S
N515 C518 1.346 . S
N515 C519 1.345 . S
C516 C517 1.387 . S
C516 C520 1.391 . S
C517 C516 1.387 . S
C517 C518 1.369 . S
C517 H526 0.929 . S
C518 N515 1.346 . S
C518 C517 1.369 . S
C518 H521 0.928 . S
C519 N515 1.345 . S
C519 C520 1.371 . S
C519 H522 0.931 . S
C520 C516 1.391 . S
C520 C519 1.371 . S
C520 H527 0.930 . S
H521 C518 0.928 . S
H522 C519 0.931 . S
H523 C499 0.930 . S
H524 C496 0.930 . S
H525 C505 0.930 . S
H526 C517 0.929 . S
H527 C520 0.930 . S
C528 C529 1.391 . S
C528 C530 1.394 . S
C528 H544 0.931 . S
C529 C528 1.391 . S
C529 C533 1.376 . S
C530 C528 1.394 . S
C530 C531 1.369 . S
C530 C534 1.531 . S
C531 C530 1.369 . S
C531 C532 1.410 . S
C531 C539 1.503 . S
C532 C531 1.410 . S
C532 C533 1.392 . S
C532 C535 1.511 . S
C533 C529 1.376 . S
C533 C532 1.392 . S
C533 H545 0.929 . S
C534 C530 1.531 . S
C534 H546 0.960 . S
C534 H547 0.962 . S
C534 H548 0.960 . S
C535 C532 1.511 . S
C535 H549 0.961 . S
C535 H550 0.961 . S
C535 H551 0.961 . S
C536 C537 1.370 . S
C536 C538 1.363 . S
C536 H552 0.931 . S
C537 C536 1.370 . S
C537 C541 1.408 . S
C538 C536 1.363 . S
C538 C539 1.370 . S
C538 C542 1.524 1_554 S
C539 C531 1.503 . S
C539 C538 1.370 . S
C539 C540 1.403 . S
C540 C539 1.403 . S
C540 C541 1.404 . S
C540 C543 1.539 . S
C541 C537 1.408 . S
C541 C540 1.404 . S
C541 H553 0.930 . S
C542 C538 1.524 1_556 S
C542 H554 0.956 . S
C542 H555 0.961 . S
C542 H556 0.961 . S
C543 C540 1.539 . S
C543 H557 0.958 . S
C543 H558 0.961 . S
C543 H559 0.960 . S
H544 C528 0.931 . S
H545 C533 0.929 . S
H546 C534 0.960 . S
H547 C534 0.962 . S
H548 C534 0.960 . S
H549 C535 0.961 . S
H550 C535 0.961 . S
H551 C535 0.961 . S
H552 C536 0.931 . S
H553 C541 0.930 . S
H554 C542 0.956 . S
H555 C542 0.961 . S
H556 C542 0.961 . S
H557 C543 0.958 . S
H558 C543 0.961 . S
H559 C543 0.960 . S
C560 C561 1.391 . S
C560 C562 1.394 . S
C560 H576 0.931 . S
C561 C560 1.391 . S
C561 C565 1.376 . S
C562 C560 1.394 . S
C562 C563 1.369 . S
C562 C566 1.531 . S
C563 C562 1.369 . S
C563 C564 1.410 . S
C563 C571 1.503 . S
C564 C563 1.410 . S
C564 C565 1.392 . S
C564 C567 1.511 . S
C565 C561 1.376 . S
C565 C564 1.392 . S
C565 H577 0.929 . S
C566 C562 1.531 . S
C566 H578 0.960 . S
C566 H579 0.962 . S
C566 H580 0.960 . S
C567 C564 1.511 . S
C567 H581 0.961 . S
C567 H582 0.961 . S
C567 H583 0.961 . S
C568 C569 1.370 . S
C568 C570 1.363 . S
C568 H584 0.931 . S
C569 C568 1.370 . S
C569 C573 1.408 . S
C570 C568 1.363 . S
C570 C571 1.370 . S
C570 C574 1.524 . S
C571 C563 1.503 . S
C571 C570 1.370 . S
C571 C572 1.403 . S
C572 C571 1.403 . S
C572 C573 1.404 . S
C572 C575 1.539 . S
C573 C569 1.408 . S
C573 C572 1.404 . S
C573 H585 0.930 . S
C574 C570 1.524 . S
C574 H586 0.956 . S
C574 H587 0.961 . S
C574 H588 0.961 . S
C575 C572 1.539 . S
C575 H589 0.958 . S
C575 H590 0.961 . S
C575 H591 0.960 . S
H576 C560 0.931 . S
H577 C565 0.929 . S
H578 C566 0.960 . S
H579 C566 0.962 . S
H580 C566 0.960 . S
H581 C567 0.961 . S
H582 C567 0.961 . S
H583 C567 0.961 . S
H584 C568 0.931 . S
H585 C573 0.930 . S
H586 C574 0.956 . S
H587 C574 0.961 . S
H588 C574 0.961 . S
H589 C575 0.958 . S
H590 C575 0.961 . S
H591 C575 0.960 . S
C592 C593 1.391 . S
C592 C594 1.394 . S
C592 H608 0.931 . S
C593 C592 1.391 . S
C593 C597 1.376 . S
C594 C592 1.394 . S
C594 C595 1.369 . S
C594 C598 1.531 . S
C595 C594 1.369 . S
C595 C596 1.410 . S
C595 C603 1.503 . S
C596 C595 1.410 . S
C596 C597 1.392 . S
C596 C599 1.511 1_554 S
C597 C593 1.376 . S
C597 C596 1.392 . S
C597 H609 0.929 . S
C598 C594 1.531 . S
C598 H610 0.960 . S
C598 H611 0.962 . S
C598 H612 0.960 . S
C599 C596 1.511 1_556 S
C599 H613 0.961 . S
C599 H614 0.961 . S
C599 H615 0.961 . S
C600 C601 1.370 . S
C600 C602 1.363 . S
C600 H616 0.931 . S
C601 C600 1.370 . S
C601 C605 1.408 . S
C602 C600 1.363 . S
C602 C603 1.370 . S
C602 C606 1.524 . S
C603 C595 1.503 . S
C603 C602 1.370 . S
C603 C604 1.403 . S
C604 C603 1.403 . S
C604 C605 1.404 . S
C604 C607 1.539 . S
C605 C601 1.408 . S
C605 C604 1.404 . S
C605 H617 0.930 . S
C606 C602 1.524 . S
C606 H618 0.956 . S
C606 H619 0.961 . S
C606 H620 0.961 . S
C607 C604 1.539 . S
C607 H621 0.958 . S
C607 H622 0.961 . S
C607 H623 0.960 . S
H608 C592 0.931 . S
H609 C597 0.929 . S
H610 C598 0.960 . S
H611 C598 0.962 . S
H612 C598 0.960 . S
H613 C599 0.961 . S
H614 C599 0.961 . S
H615 C599 0.961 . S
H616 C600 0.931 . S
H617 C605 0.930 . S
H618 C606 0.956 . S
H619 C606 0.961 . S
H620 C606 0.961 . S
H621 C607 0.958 . S
H622 C607 0.961 . S
H623 C607 0.960 . S
C624 C625 1.391 . S
C624 C626 1.394 . S
C624 H640 0.931 . S
C625 C624 1.391 . S
C625 C629 1.376 . S
C626 C624 1.394 . S
C626 C627 1.369 . S
C626 C630 1.531 . S
C627 C626 1.369 . S
C627 C628 1.410 . S
C627 C635 1.503 . S
C628 C627 1.410 . S
C628 C629 1.392 . S
C628 C631 1.511 . S
C629 C625 1.376 . S
C629 C628 1.392 . S
C629 H641 0.929 . S
C630 C626 1.531 . S
C630 H642 0.960 . S
C630 H643 0.962 . S
C630 H644 0.960 . S
C631 C628 1.511 . S
C631 H645 0.961 . S
C631 H646 0.961 . S
C631 H647 0.961 . S
C632 C633 1.370 . S
C632 C634 1.363 . S
C632 H648 0.931 . S
C633 C632 1.370 . S
C633 C637 1.408 . S
C634 C632 1.363 . S
C634 C635 1.370 . S
C634 C638 1.524 . S
C635 C627 1.503 . S
C635 C634 1.370 . S
C635 C636 1.403 . S
C636 C635 1.403 . S
C636 C637 1.404 . S
C636 C639 1.539 . S
C637 C633 1.408 . S
C637 C636 1.404 . S
C637 H649 0.930 . S
C638 C634 1.524 . S
C638 H650 0.956 . S
C638 H651 0.961 . S
C638 H652 0.961 . S
C639 C636 1.539 . S
C639 H653 0.958 . S
C639 H654 0.961 . S
C639 H655 0.960 . S
H640 C624 0.931 . S
H641 C629 0.929 . S
H642 C630 0.960 . S
H643 C630 0.962 . S
H644 C630 0.960 . S
H645 C631 0.961 . S
H646 C631 0.961 . S
H647 C631 0.961 . S
H648 C632 0.931 . S
H649 C637 0.930 . S
H650 C638 0.956 . S
H651 C638 0.961 . S
H652 C638 0.961 . S
H653 C639 0.958 . S
H654 C639 0.961 . S
H655 C639 0.960 . S
C656 C657 1.391 . S
C656 C658 1.394 . S
C656 H672 0.931 . S
C657 C656 1.391 . S
C657 C661 1.376 . S
C658 C656 1.394 . S
C658 C659 1.369 . S
C658 C662 1.531 . S
C659 C658 1.369 . S
C659 C660 1.410 . S
C659 C667 1.503 . S
C660 C659 1.410 . S
C660 C661 1.392 . S
C660 C663 1.511 . S
C661 C657 1.376 . S
C661 C660 1.392 . S
C661 H673 0.929 . S
C662 C658 1.531 . S
C662 H674 0.960 . S
C662 H675 0.962 . S
C662 H676 0.960 . S
C663 C660 1.511 . S
C663 H677 0.961 . S
C663 H678 0.961 . S
C663 H679 0.961 . S
C664 C665 1.370 . S
C664 C666 1.363 . S
C664 H680 0.931 . S
C665 C664 1.370 . S
C665 C669 1.408 . S
C666 C664 1.363 . S
C666 C667 1.370 . S
C666 C670 1.524 . S
C667 C659 1.503 . S
C667 C666 1.370 . S
C667 C668 1.403 . S
C668 C667 1.403 . S
C668 C669 1.404 . S
C668 C671 1.539 . S
C669 C665 1.408 . S
C669 C668 1.404 . S
C669 H681 0.930 . S
C670 C666 1.524 . S
C670 H682 0.956 . S
C670 H683 0.961 . S
C670 H684 0.961 . S
C671 C668 1.539 . S
C671 H685 0.958 . S
C671 H686 0.961 . S
C671 H687 0.960 . S
H672 C656 0.931 . S
H673 C661 0.929 . S
H674 C662 0.960 . S
H675 C662 0.962 . S
H676 C662 0.960 . S
H677 C663 0.961 . S
H678 C663 0.961 . S
H679 C663 0.961 . S
H680 C664 0.931 . S
H681 C669 0.930 . S
H682 C670 0.956 . S
H683 C670 0.961 . S
H684 C670 0.961 . S
H685 C671 0.958 . S
H686 C671 0.961 . S
H687 C671 0.960 . S
C688 C689 1.391 . S
C688 C690 1.394 . S
C688 H704 0.931 . S
C689 C688 1.391 . S
C689 C693 1.376 . S
C690 C688 1.394 . S
C690 C691 1.369 . S
C690 C694 1.531 1_556 S
C691 C690 1.369 . S
C691 C692 1.410 . S
C691 C699 1.503 . S
C692 C691 1.410 . S
C692 C693 1.392 . S
C692 C695 1.511 . S
C693 C689 1.376 . S
C693 C692 1.392 . S
C693 H705 0.929 . S
C694 C690 1.531 1_554 S
C694 H706 0.960 . S
C694 H707 0.962 . S
C694 H708 0.960 . S
C695 C692 1.511 . S
C695 H709 0.961 . S
C695 H710 0.961 . S
C695 H711 0.961 . S
C696 C697 1.370 . S
C696 C698 1.363 . S
C696 H712 0.931 . S
C697 C696 1.370 . S
C697 C701 1.408 . S
C698 C696 1.363 . S
C698 C699 1.370 . S
C698 C702 1.524 . S
C699 C691 1.503 . S
C699 C698 1.370 . S
C699 C700 1.403 . S
C700 C699 1.403 . S
C700 C701 1.404 . S
C700 C703 1.539 . S
C701 C697 1.408 . S
C701 C700 1.404 . S
C701 H713 0.930 . S
C702 C698 1.524 . S
C702 H714 0.956 . S
C702 H715 0.961 . S
C702 H716 0.961 . S
C703 C700 1.539 . S
C703 H717 0.958 1_556 S
C703 H718 0.961 . S
C703 H719 0.960 . S
H704 C688 0.931 . S
H705 C693 0.929 . S
H706 C694 0.960 . S
H707 C694 0.962 . S
H708 C694 0.960 . S
H709 C695 0.961 . S
H710 C695 0.961 . S
H711 C695 0.961 . S
H712 C696 0.931 . S
H713 C701 0.930 . S
H714 C702 0.956 . S
H715 C702 0.961 . S
H716 C702 0.961 . S
H717 C703 0.958 1_554 S
H718 C703 0.961 . S
H719 C703 0.960 . S
C720 C721 1.391 . S
C720 C722 1.394 . S
C720 H736 0.931 . S
C721 C720 1.391 . S
C721 C725 1.376 . S
C722 C720 1.394 . S
C722 C723 1.369 . S
C722 C726 1.531 . S
C723 C722 1.369 . S
C723 C724 1.410 . S
C723 C731 1.503 . S
C724 C723 1.410 . S
C724 C725 1.392 . S
C724 C727 1.511 . S
C725 C721 1.376 . S
C725 C724 1.392 . S
C725 H737 0.929 . S
C726 C722 1.531 . S
C726 H738 0.960 . S
C726 H739 0.962 . S
C726 H740 0.960 . S
C727 C724 1.511 . S
C727 H741 0.961 . S
C727 H742 0.961 . S
C727 H743 0.961 . S
C728 C729 1.370 . S
C728 C730 1.363 . S
C728 H744 0.931 . S
C729 C728 1.370 . S
C729 C733 1.408 . S
C730 C728 1.363 . S
C730 C731 1.370 . S
C730 C734 1.524 . S
C731 C723 1.503 . S
C731 C730 1.370 . S
C731 C732 1.403 . S
C732 C731 1.403 . S
C732 C733 1.404 . S
C732 C735 1.539 . S
C733 C729 1.408 . S
C733 C732 1.404 . S
C733 H745 0.930 . S
C734 C730 1.524 . S
C734 H746 0.956 . S
C734 H747 0.961 . S
C734 H748 0.961 . S
C735 C732 1.539 . S
C735 H749 0.958 . S
C735 H750 0.961 . S
C735 H751 0.960 . S
H736 C720 0.931 . S
H737 C725 0.929 . S
H738 C726 0.960 . S
H739 C726 0.962 . S
H740 C726 0.960 . S
H741 C727 0.961 . S
H742 C727 0.961 . S
H743 C727 0.961 . S
H744 C728 0.931 . S
H745 C733 0.930 . S
H746 C734 0.956 . S
H747 C734 0.961 . S
H748 C734 0.961 . S
H749 C735 0.958 . S
H750 C735 0.961 . S
H751 C735 0.960 . S
C752 C753 1.391 . S
C752 C754 1.394 . S
C752 H768 0.931 . S
C753 C752 1.391 . S
C753 C757 1.376 . S
C754 C752 1.394 . S
C754 C755 1.369 . S
C754 C758 1.531 . S
C755 C754 1.369 . S
C755 C756 1.410 . S
C755 C763 1.503 . S
C756 C755 1.410 . S
C756 C757 1.392 . S
C756 C759 1.511 . S
C757 C753 1.376 . S
C757 C756 1.392 . S
C757 H769 0.929 . S
C758 C754 1.531 . S
C758 H770 0.960 1_556 S
C758 H771 0.962 . S
C758 H772 0.960 1_556 S
C759 C756 1.511 . S
C759 H773 0.961 . S
C759 H774 0.961 . S
C759 H775 0.961 . S
C760 C761 1.370 . S
C760 C762 1.363 . S
C760 H776 0.931 . S
C761 C760 1.370 . S
C761 C765 1.408 . S
C762 C760 1.363 . S
C762 C763 1.370 . S
C762 C766 1.524 . S
C763 C755 1.503 . S
C763 C762 1.370 . S
C763 C764 1.403 . S
C764 C763 1.403 . S
C764 C765 1.404 . S
C764 C767 1.539 1_556 S
C765 C761 1.408 . S
C765 C764 1.404 . S
C765 H777 0.930 . S
C766 C762 1.524 . S
C766 H778 0.956 . S
C766 H779 0.961 . S
C766 H780 0.961 . S
C767 C764 1.539 1_554 S
C767 H781 0.958 . S
C767 H782 0.961 . S
C767 H783 0.960 . S
H768 C752 0.931 . S
H769 C757 0.929 . S
H770 C758 0.960 1_554 S
H771 C758 0.962 . S
H772 C758 0.960 1_554 S
H773 C759 0.961 . S
H774 C759 0.961 . S
H775 C759 0.961 . S
H776 C760 0.931 . S
H777 C765 0.930 . S
H778 C766 0.956 . S
H779 C766 0.961 . S
H780 C766 0.961 . S
H781 C767 0.958 . S
H782 C767 0.961 . S
H783 C767 0.960 . S
C784 C785 1.391 . S
C784 C786 1.394 . S
C784 H800 0.931 . S
C785 C784 1.391 . S
C785 C789 1.376 . S
C786 C784 1.394 . S
C786 C787 1.369 . S
C786 C790 1.531 . S
C787 C786 1.369 . S
C787 C788 1.410 1_554 S
C787 C795 1.503 1_554 S
C788 C787 1.410 1_556 S
C788 C789 1.392 1_556 S
C788 C791 1.511 . S
C789 C785 1.376 . S
C789 C788 1.392 1_554 S
C789 H801 0.929 1_554 S
C790 C786 1.531 . S
C790 H802 0.960 . S
C790 H803 0.962 . S
C790 H804 0.960 . S
C791 C788 1.511 . S
C791 H805 0.961 . S
C791 H806 0.961 . S
C791 H807 0.961 . S
C792 C793 1.370 . S
C792 C794 1.363 . S
C792 H808 0.931 . S
C793 C792 1.370 . S
C793 C797 1.408 1_556 S
C794 C792 1.363 . S
C794 C795 1.370 . S
C794 C798 1.524 . S
C795 C787 1.503 1_556 S
C795 C794 1.370 . S
C795 C796 1.403 1_556 S
C796 C795 1.403 1_554 S
C796 C797 1.404 . S
C796 C799 1.539 . S
C797 C793 1.408 1_554 S
C797 C796 1.404 . S
C797 H809 0.930 . S
C798 C794 1.524 . S
C798 H810 0.956 . S
C798 H811 0.961 . S
C798 H812 0.961 . S
C799 C796 1.539 . S
C799 H813 0.958 . S
C799 H814 0.961 . S
C799 H815 0.960 . S
H800 C784 0.931 . S
H801 C789 0.929 1_556 S
H802 C790 0.960 . S
H803 C790 0.962 . S
H804 C790 0.960 . S
H805 C791 0.961 . S
H806 C791 0.961 . S
H807 C791 0.961 . S
H808 C792 0.931 . S
H809 C797 0.930 . S
H810 C798 0.956 . S
H811 C798 0.961 . S
H812 C798 0.961 . S
H813 C799 0.958 . S
H814 C799 0.961 . S
H815 C799 0.960 . S
C816 C817 1.391 . S
C816 C818 1.394 . S
C816 H832 0.931 . S
C817 C816 1.391 . S
C817 C821 1.376 . S
C818 C816 1.394 . S
C818 C819 1.369 . S
C818 C822 1.531 . S
C819 C818 1.369 . S
C819 C820 1.410 . S
C819 C827 1.503 . S
C820 C819 1.410 . S
C820 C821 1.392 . S
C820 C823 1.511 . S
C821 C817 1.376 . S
C821 C820 1.392 . S
C821 H833 0.929 . S
C822 C818 1.531 . S
C822 H834 0.960 . S
C822 H835 0.962 . S
C822 H836 0.960 . S
C823 C820 1.511 . S
C823 H837 0.961 . S
C823 H838 0.961 . S
C823 H839 0.961 . S
C824 C825 1.370 . S
C824 C826 1.363 . S
C824 H840 0.931 . S
C825 C824 1.370 . S
C825 C829 1.408 . S
C826 C824 1.363 . S
C826 C827 1.370 . S
C826 C830 1.524 . S
C827 C819 1.503 . S
C827 C826 1.370 . S
C827 C828 1.403 . S
C828 C827 1.403 . S
C828 C829 1.404 . S
C828 C831 1.539 . S
C829 C825 1.408 . S
C829 C828 1.404 . S
C829 H841 0.930 . S
C830 C826 1.524 . S
C830 H842 0.956 . S
C830 H843 0.961 . S
C830 H844 0.961 . S
C831 C828 1.539 . S
C831 H845 0.958 . S
C831 H846 0.961 . S
C831 H847 0.960 . S
H832 C816 0.931 . S
H833 C821 0.929 . S
H834 C822 0.960 . S
H835 C822 0.962 . S
H836 C822 0.960 . S
H837 C823 0.961 . S
H838 C823 0.961 . S
H839 C823 0.961 . S
H840 C824 0.931 . S
H841 C829 0.930 . S
H842 C830 0.956 . S
H843 C830 0.961 . S
H844 C830 0.961 . S
H845 C831 0.958 . S
H846 C831 0.961 . S
H847 C831 0.960 . S
C848 C849 1.391 . S
C848 C850 1.394 . S
C848 H864 0.931 . S
C849 C848 1.391 . S
C849 C853 1.376 . S
C850 C848 1.394 . S
C850 C851 1.369 . S
C850 C854 1.531 . S
C851 C850 1.369 . S
C851 C852 1.410 1_554 S
C851 C859 1.503 1_554 S
C852 C851 1.410 1_556 S
C852 C853 1.392 1_556 S
C852 C855 1.511 . S
C853 C849 1.376 . S
C853 C852 1.392 1_554 S
C853 H865 0.929 1_554 S
C854 C850 1.531 . S
C854 H866 0.960 . S
C854 H867 0.962 . S
C854 H868 0.960 . S
C855 C852 1.511 . S
C855 H869 0.961 . S
C855 H870 0.961 . S
C855 H871 0.961 . S
C856 C857 1.370 . S
C856 C858 1.363 . S
C856 H872 0.931 . S
C857 C856 1.370 . S
C857 C861 1.408 1_556 S
C858 C856 1.363 . S
C858 C859 1.370 . S
C858 C862 1.524 . S
C859 C851 1.503 1_556 S
C859 C858 1.370 . S
C859 C860 1.403 1_556 S
C860 C859 1.403 1_554 S
C860 C861 1.404 . S
C860 C863 1.539 . S
C861 C857 1.408 1_554 S
C861 C860 1.404 . S
C861 H873 0.930 . S
C862 C858 1.524 . S
C862 H874 0.956 . S
C862 H875 0.961 . S
C862 H876 0.961 . S
C863 C860 1.539 . S
C863 H877 0.958 . S
C863 H878 0.961 . S
C863 H879 0.960 . S
H864 C848 0.931 . S
H865 C853 0.929 1_556 S
H866 C854 0.960 . S
H867 C854 0.962 . S
H868 C854 0.960 . S
H869 C855 0.961 . S
H870 C855 0.961 . S
H871 C855 0.961 . S
H872 C856 0.931 . S
H873 C861 0.930 . S
H874 C862 0.956 . S
H875 C862 0.961 . S
H876 C862 0.961 . S
H877 C863 0.958 . S
H878 C863 0.961 . S
H879 C863 0.960 . S
C880 C881 1.391 . S
C880 C882 1.394 . S
C880 H896 0.931 . S
C881 C880 1.391 . S
C881 C885 1.376 . S
C882 C880 1.394 . S
C882 C883 1.369 . S
C882 C886 1.531 . S
C883 C882 1.369 . S
C883 C884 1.410 . S
C883 C891 1.503 . S
C884 C883 1.410 . S
C884 C885 1.392 . S
C884 C887 1.511 . S
C885 C881 1.376 . S
C885 C884 1.392 . S
C885 H897 0.929 . S
C886 C882 1.531 . S
C886 H898 0.960 . S
C886 H899 0.962 . S
C886 H900 0.960 . S
C887 C884 1.511 . S
C887 H901 0.961 . S
C887 H902 0.961 . S
C887 H903 0.961 . S
C888 C889 1.370 . S
C888 C890 1.363 . S
C888 H904 0.931 . S
C889 C888 1.370 . S
C889 C893 1.408 . S
C890 C888 1.363 . S
C890 C891 1.370 . S
C890 C894 1.524 . S
C891 C883 1.503 . S
C891 C890 1.370 . S
C891 C892 1.403 . S
C892 C891 1.403 . S
C892 C893 1.404 . S
C892 C895 1.539 . S
C893 C889 1.408 . S
C893 C892 1.404 . S
C893 H905 0.930 . S
C894 C890 1.524 . S
C894 H906 0.956 . S
C894 H907 0.961 . S
C894 H908 0.961 . S
C895 C892 1.539 . S
C895 H909 0.958 . S
C895 H910 0.961 . S
C895 H911 0.960 . S
H896 C880 0.931 . S
H897 C885 0.929 . S
H898 C886 0.960 . S
H899 C886 0.962 . S
H900 C886 0.960 . S
H901 C887 0.961 . S
H902 C887 0.961 . S
H903 C887 0.961 . S
H904 C888 0.931 . S
H905 C893 0.930 . S
H906 C894 0.956 . S
H907 C894 0.961 . S
H908 C894 0.961 . S
H909 C895 0.958 . S
H910 C895 0.961 . S
H911 C895 0.960 . S
C912 C913 1.391 . S
C912 C914 1.394 1_554 S
C912 H928 0.931 1_554 S
C913 C912 1.391 . S
C913 C917 1.376 . S
C914 C912 1.394 1_556 S
C914 C915 1.369 . S
C914 C918 1.531 . S
C915 C914 1.369 . S
C915 C916 1.410 1_556 S
C915 C923 1.503 . S
C916 C915 1.410 1_554 S
C916 C917 1.392 . S
C916 C919 1.511 . S
C917 C913 1.376 . S
C917 C916 1.392 . S
C917 H929 0.929 . S
C918 C914 1.531 . S
C918 H930 0.960 . S
C918 H931 0.962 . S
C918 H932 0.960 . S
C919 C916 1.511 . S
C919 H933 0.961 . S
C919 H934 0.961 . S
C919 H935 0.961 . S
C920 C921 1.370 1_554 S
C920 C922 1.363 . S
C920 H936 0.931 . S
C921 C920 1.370 1_556 S
C921 C925 1.408 . S
C922 C920 1.363 . S
C922 C923 1.370 1_554 S
C922 C926 1.524 . S
C923 C915 1.503 . S
C923 C922 1.370 1_556 S
C923 C924 1.403 . S
C924 C923 1.403 . S
C924 C925 1.404 . S
C924 C927 1.539 . S
C925 C921 1.408 . S
C925 C924 1.404 . S
C925 H937 0.930 . S
C926 C922 1.524 . S
C926 H938 0.956 . S
C926 H939 0.961 . S
C926 H940 0.961 . S
C927 C924 1.539 . S
C927 H941 0.958 . S
C927 H942 0.961 . S
C927 H943 0.960 . S
H928 C912 0.931 1_556 S
H929 C917 0.929 . S
H930 C918 0.960 . S
H931 C918 0.962 . S
H932 C918 0.960 . S
H933 C919 0.961 . S
H934 C919 0.961 . S
H935 C919 0.961 . S
H936 C920 0.931 . S
H937 C925 0.930 . S
H938 C926 0.956 . S
H939 C926 0.961 . S
H940 C926 0.961 . S
H941 C927 0.958 . S
H942 C927 0.961 . S
H943 C927 0.960 . S
C944 C945 1.391 . S
C944 C946 1.394 . S
C944 H960 0.931 . S
C945 C944 1.391 . S
C945 C949 1.376 . S
C946 C944 1.394 . S
C946 C947 1.369 . S
C946 C950 1.531 . S
C947 C946 1.369 . S
C947 C948 1.410 . S
C947 C955 1.503 . S
C948 C947 1.410 . S
C948 C949 1.392 . S
C948 C951 1.511 . S
C949 C945 1.376 . S
C949 C948 1.392 . S
C949 H961 0.929 . S
C950 C946 1.531 . S
C950 H962 0.960 . S
C950 H963 0.962 . S
C950 H964 0.960 . S
C951 C948 1.511 . S
C951 H965 0.961 . S
C951 H966 0.961 . S
C951 H967 0.961 . S
C952 C953 1.370 . S
C952 C954 1.363 . S
C952 H968 0.931 . S
C953 C952 1.370 . S
C953 C957 1.408 . S
C954 C952 1.363 . S
C954 C955 1.370 . S
C954 C958 1.524 . S
C955 C947 1.503 . S
C955 C954 1.370 . S
C955 C956 1.403 . S
C956 C955 1.403 . S
C956 C957 1.404 . S
C956 C959 1.539 . S
C957 C953 1.408 . S
C957 C956 1.404 . S
C957 H969 0.930 . S
C958 C954 1.524 . S
C958 H970 0.956 . S
C958 H971 0.961 . S
C958 H972 0.961 . S
C959 C956 1.539 . S
C959 H973 0.958 . S
C959 H974 0.961 . S
C959 H975 0.960 . S
H960 C944 0.931 . S
H961 C949 0.929 . S
H962 C950 0.960 . S
H963 C950 0.962 . S
H964 C950 0.960 . S
H965 C951 0.961 . S
H966 C951 0.961 . S
H967 C951 0.961 . S
H968 C952 0.931 . S
H969 C957 0.930 . S
H970 C958 0.956 . S
H971 C958 0.961 . S
H972 C958 0.961 . S
H973 C959 0.958 . S
H974 C959 0.961 . S
H975 C959 0.960 . S
C976 C977 1.391 . S
C976 C978 1.394 . S
C976 H992 0.931 . S
C977 C976 1.391 . S
C977 C981 1.376 . S
C978 C976 1.394 . S
C978 C979 1.369 1_554 S
C978 C982 1.531 . S
C979 C978 1.369 1_556 S
C979 C980 1.410 . S
C979 C987 1.503 . S
C980 C979 1.410 . S
C980 C981 1.391 1_556 S
C980 C983 1.512 . S
C981 C977 1.376 . S
C981 C980 1.391 1_554 S
C981 H993 0.929 . S
C982 C978 1.531 . S
C982 H994 0.960 1_554 S
C982 H995 0.962 . S
C982 H996 0.960 . S
C983 C980 1.512 . S
C983 H997 0.961 1_556 S
C983 H998 0.961 . S
C983 H999 0.961 . S
C984 C985 1.370 1_554 S
C984 C986 1.363 . S
C984 H1000 0.931 . S
C985 C984 1.370 1_556 S
C985 C989 1.408 . S
C986 C984 1.363 . S
C986 C987 1.370 1_554 S
C986 C990 1.524 . S
C987 C979 1.503 . S
C987 C986 1.370 1_556 S
C987 C988 1.403 . S
C988 C987 1.403 . S
C988 C989 1.404 . S
C988 C991 1.539 . S
C989 C985 1.408 . S
C989 C988 1.404 . S
C989 H1001 0.930 . S
C990 C986 1.524 . S
C990 H1002 0.956 . S
C990 H1003 0.961 . S
C990 H1004 0.961 . S
C991 C988 1.539 . S
C991 H1005 0.958 . S
C991 H1006 0.961 . S
C991 H1007 0.960 . S
H992 C976 0.931 . S
H993 C981 0.929 . S
H994 C982 0.960 1_556 S
H995 C982 0.962 . S
H996 C982 0.960 . S
H997 C983 0.961 1_554 S
H998 C983 0.961 . S
H999 C983 0.961 . S
H1000 C984 0.931 . S
H1001 C989 0.930 . S
H1002 C990 0.956 . S
H1003 C990 0.961 . S
H1004 C990 0.961 . S
H1005 C991 0.958 . S
H1006 C991 0.961 . S
H1007 C991 0.960 . S
C1008 C1009 1.391 . S
C1008 C1010 1.394 . S
C1008 H1024 0.931 . S
C1009 C1008 1.391 . S
C1009 C1013 1.376 . S
C1010 C1008 1.394 . S
C1010 C1011 1.369 . S
C1010 C1014 1.531 . S
C1011 C1010 1.369 . S
C1011 C1012 1.410 . S
C1011 C1019 1.503 . S
C1012 C1011 1.410 . S
C1012 C1013 1.392 . S
C1012 C1015 1.511 . S
C1013 C1009 1.376 . S
C1013 C1012 1.392 . S
C1013 H1025 0.929 . S
C1014 C1010 1.531 . S
C1014 H1026 0.960 . S
C1014 H1027 0.962 . S
C1014 H1028 0.960 . S
C1015 C1012 1.511 . S
C1015 H1029 0.961 . S
C1015 H1030 0.961 . S
C1015 H1031 0.961 . S
C1016 C1017 1.370 . S
C1016 C1018 1.363 . S
C1016 H1032 0.931 . S
C1017 C1016 1.370 . S
C1017 C1021 1.408 . S
C1018 C1016 1.363 . S
C1018 C1019 1.370 . S
C1018 C1022 1.524 . S
C1019 C1011 1.503 . S
C1019 C1018 1.370 . S
C1019 C1020 1.403 . S
C1020 C1019 1.403 . S
C1020 C1021 1.404 . S
C1020 C1023 1.539 . S
C1021 C1017 1.408 . S
C1021 C1020 1.404 . S
C1021 H1033 0.930 . S
C1022 C1018 1.524 . S
C1022 H1034 0.956 . S
C1022 H1035 0.961 . S
C1022 H1036 0.961 . S
C1023 C1020 1.539 . S
C1023 H1037 0.958 . S
C1023 H1038 0.961 . S
C1023 H1039 0.960 . S
H1024 C1008 0.931 . S
H1025 C1013 0.929 . S
H1026 C1014 0.960 . S
H1027 C1014 0.962 . S
H1028 C1014 0.960 . S
H1029 C1015 0.961 . S
H1030 C1015 0.961 . S
H1031 C1015 0.961 . S
H1032 C1016 0.931 . S
H1033 C1021 0.930 . S
H1034 C1022 0.956 . S
H1035 C1022 0.961 . S
H1036 C1022 0.961 . S
H1037 C1023 0.958 . S
H1038 C1023 0.961 . S
H1039 C1023 0.960 . S
C1040 C1041 1.391 1_655 S
C1040 C1042 1.394 . S
C1040 H1056 0.931 . S
C1041 C1040 1.391 1_455 S
C1041 C1045 1.376 . S
C1042 C1040 1.394 . S
C1042 C1043 1.369 1_655 S
C1042 C1046 1.531 . S
C1043 C1042 1.369 1_455 S
C1043 C1044 1.410 . S
C1043 C1051 1.503 . S
C1044 C1043 1.410 . S
C1044 C1045 1.392 . S
C1044 C1047 1.511 . S
C1045 C1041 1.376 . S
C1045 C1044 1.392 . S
C1045 H1057 0.929 . S
C1046 C1042 1.531 . S
C1046 H1058 0.960 . S
C1046 H1059 0.962 . S
C1046 H1060 0.960 . S
C1047 C1044 1.511 . S
C1047 H1061 0.961 . S
C1047 H1062 0.961 . S
C1047 H1063 0.961 . S
C1048 C1049 1.370 . S
C1048 C1050 1.363 . S
C1048 H1064 0.931 . S
C1049 C1048 1.370 . S
C1049 C1053 1.408 . S
C1050 C1048 1.363 . S
C1050 C1051 1.370 . S
C1050 C1054 1.524 . S
C1051 C1043 1.503 . S
C1051 C1050 1.370 . S
C1051 C1052 1.403 . S
C1052 C1051 1.403 . S
C1052 C1053 1.404 . S
C1052 C1055 1.539 . S
C1053 C1049 1.408 . S
C1053 C1052 1.404 . S
C1053 H1065 0.930 . S
C1054 C1050 1.524 . S
C1054 H1066 0.956 . S
C1054 H1067 0.961 . S
C1054 H1068 0.961 . S
C1055 C1052 1.539 . S
C1055 H1069 0.958 . S
C1055 H1070 0.961 . S
C1055 H1071 0.960 . S
H1056 C1040 0.931 . S
H1057 C1045 0.929 . S
H1058 C1046 0.960 . S
H1059 C1046 0.962 . S
H1060 C1046 0.960 . S
H1061 C1047 0.961 . S
H1062 C1047 0.961 . S
H1063 C1047 0.961 . S
H1064 C1048 0.931 . S
H1065 C1053 0.930 . S
H1066 C1054 0.956 . S
H1067 C1054 0.961 . S
H1068 C1054 0.961 . S
H1069 C1055 0.958 . S
H1070 C1055 0.961 . S
H1071 C1055 0.960 . S
C1072 C1073 1.391 . S
C1072 C1074 1.394 . S
C1072 H1088 0.931 . S
C1073 C1072 1.391 . S
C1073 C1077 1.376 . S
C1074 C1072 1.394 . S
C1074 C1075 1.369 . S
C1074 C1078 1.531 . S
C1075 C1074 1.369 . S
C1075 C1076 1.410 . S
C1075 C1083 1.503 . S
C1076 C1075 1.410 . S
C1076 C1077 1.392 . S
C1076 C1079 1.511 . S
C1077 C1073 1.376 . S
C1077 C1076 1.392 . S
C1077 H1089 0.929 . S
C1078 C1074 1.531 . S
C1078 H1090 0.954 1_545 S
C1078 H1091 0.962 . S
C1078 H1092 0.949 1_545 S
C1079 C1076 1.511 . S
C1079 H1093 0.961 . S
C1079 H1094 0.961 . S
C1079 H1095 0.961 . S
C1080 C1081 1.370 . S
C1080 C1082 1.363 . S
C1080 H1096 0.931 . S
C1081 C1080 1.370 . S
C1081 C1085 1.408 1_545 S
C1082 C1080 1.363 . S
C1082 C1083 1.370 . S
C1082 C1086 1.524 . S
C1083 C1075 1.503 . S
C1083 C1082 1.370 . S
C1083 C1084 1.403 1_545 S
C1084 C1083 1.403 1_565 S
C1084 C1085 1.404 . S
C1084 C1087 1.539 . S
C1085 C1081 1.408 1_565 S
C1085 C1084 1.404 . S
C1085 H1097 0.930 . S
C1086 C1082 1.524 . S
C1086 H1098 0.956 . S
C1086 H1099 0.961 . S
C1086 H1100 0.961 . S
C1087 C1084 1.539 . S
C1087 H1101 0.958 . S
C1087 H1102 0.961 . S
C1087 H1103 0.960 . S
H1088 C1072 0.931 . S
H1089 C1077 0.929 . S
H1090 C1078 0.954 1_565 S
H1091 C1078 0.962 . S
H1092 C1078 0.949 1_565 S
H1093 C1079 0.961 . S
H1094 C1079 0.961 . S
H1095 C1079 0.961 . S
H1096 C1080 0.931 . S
H1097 C1085 0.930 . S
H1098 C1086 0.956 . S
H1099 C1086 0.961 . S
H1100 C1086 0.961 . S
H1101 C1087 0.958 . S
H1102 C1087 0.961 . S
H1103 C1087 0.960 . S
C1104 C1105 1.391 . S
C1104 C1106 1.394 . S
C1104 H1120 0.931 . S
C1105 C1104 1.391 . S
C1105 C1109 1.376 . S
C1106 C1104 1.394 . S
C1106 C1107 1.369 . S
C1106 C1110 1.531 . S
C1107 C1106 1.369 . S
C1107 C1108 1.410 . S
C1107 C1115 1.503 . S
C1108 C1107 1.410 . S
C1108 C1109 1.392 . S
C1108 C1111 1.511 . S
C1109 C1105 1.376 . S
C1109 C1108 1.392 . S
C1109 H1121 0.929 . S
C1110 C1106 1.531 . S
C1110 H1122 0.960 . S
C1110 H1123 0.962 . S
C1110 H1124 0.960 . S
C1111 C1108 1.511 . S
C1111 H1125 0.961 . S
C1111 H1126 0.961 . S
C1111 H1127 0.961 . S
C1112 C1113 1.370 . S
C1112 C1114 1.363 . S
C1112 H1128 0.931 . S
C1113 C1112 1.370 . S
C1113 C1117 1.408 . S
C1114 C1112 1.363 . S
C1114 C1115 1.370 . S
C1114 C1118 1.524 . S
C1115 C1107 1.503 . S
C1115 C1114 1.370 . S
C1115 C1116 1.403 . S
C1116 C1115 1.403 . S
C1116 C1117 1.404 . S
C1116 C1119 1.539 . S
C1117 C1113 1.408 . S
C1117 C1116 1.404 . S
C1117 H1129 0.930 . S
C1118 C1114 1.524 . S
C1118 H1130 0.956 . S
C1118 H1131 0.961 . S
C1118 H1132 0.961 . S
C1119 C1116 1.539 . S
C1119 H1133 0.958 . S
C1119 H1134 0.961 . S
C1119 H1135 0.960 . S
H1120 C1104 0.931 . S
H1121 C1109 0.929 . S
H1122 C1110 0.960 . S
H1123 C1110 0.962 . S
H1124 C1110 0.960 . S
H1125 C1111 0.961 . S
H1126 C1111 0.961 . S
H1127 C1111 0.961 . S
H1128 C1112 0.931 . S
H1129 C1117 0.930 . S
H1130 C1118 0.956 . S
H1131 C1118 0.961 . S
H1132 C1118 0.961 . S
H1133 C1119 0.958 . S
H1134 C1119 0.961 . S
H1135 C1119 0.960 . S
C1136 C1137 1.391 . S
C1136 C1138 1.394 . S
C1136 H1152 0.931 . S
C1137 C1136 1.391 . S
C1137 C1141 1.376 . S
C1138 C1136 1.394 . S
C1138 C1139 1.369 . S
C1138 C1142 1.531 . S
C1139 C1138 1.369 . S
C1139 C1140 1.410 . S
C1139 C1147 1.503 . S
C1140 C1139 1.410 . S
C1140 C1141 1.392 . S
C1140 C1143 1.511 . S
C1141 C1137 1.376 . S
C1141 C1140 1.392 . S
C1141 H1153 0.929 . S
C1142 C1138 1.531 . S
C1142 H1154 0.960 . S
C1142 H1155 0.962 . S
C1142 H1156 0.960 . S
C1143 C1140 1.511 . S
C1143 H1157 0.961 . S
C1143 H1158 0.961 . S
C1143 H1159 0.961 . S
C1144 C1145 1.370 . S
C1144 C1146 1.363 . S
C1144 H1160 0.931 . S
C1145 C1144 1.370 . S
C1145 C1149 1.408 . S
C1146 C1144 1.363 . S
C1146 C1147 1.370 . S
C1146 C1150 1.524 . S
C1147 C1139 1.503 . S
C1147 C1146 1.370 . S
C1147 C1148 1.403 . S
C1148 C1147 1.403 . S
C1148 C1149 1.404 . S
C1148 C1151 1.539 . S
C1149 C1145 1.408 . S
C1149 C1148 1.404 . S
C1149 H1161 0.930 . S
C1150 C1146 1.524 . S
C1150 H1162 0.956 . S
C1150 H1163 0.961 . S
C1150 H1164 0.961 . S
C1151 C1148 1.539 . S
C1151 H1165 0.958 . S
C1151 H1166 0.961 . S
C1151 H1167 0.960 . S
H1152 C1136 0.931 . S
H1153 C1141 0.929 . S
H1154 C1142 0.960 . S
H1155 C1142 0.962 . S
H1156 C1142 0.960 . S
H1157 C1143 0.961 . S
H1158 C1143 0.961 . S
H1159 C1143 0.961 . S
H1160 C1144 0.931 . S
H1161 C1149 0.930 . S
H1162 C1150 0.956 . S
H1163 C1150 0.961 . S
H1164 C1150 0.961 . S
H1165 C1151 0.958 . S
H1166 C1151 0.961 . S
H1167 C1151 0.960 . S
C1168 C1169 1.391 . S
C1168 C1170 1.394 . S
C1168 H1184 0.931 . S
C1169 C1168 1.391 . S
C1169 C1173 1.376 . S
C1170 C1168 1.394 . S
C1170 C1171 1.369 . S
C1170 C1174 1.531 . S
C1171 C1170 1.369 . S
C1171 C1172 1.410 . S
C1171 C1179 1.503 . S
C1172 C1171 1.410 . S
C1172 C1173 1.392 . S
C1172 C1175 1.511 1_655 S
C1173 C1169 1.376 . S
C1173 C1172 1.392 . S
C1173 H1185 0.929 1_655 S
C1174 C1170 1.531 . S
C1174 H1186 0.960 . S
C1174 H1187 0.962 . S
C1174 H1188 0.960 . S
C1175 C1172 1.511 1_455 S
C1175 H1189 0.961 . S
C1175 H1190 0.961 . S
C1175 H1191 0.961 . S
C1176 C1177 1.370 . S
C1176 C1178 1.363 . S
C1176 H1192 0.931 . S
C1177 C1176 1.370 . S
C1177 C1181 1.421 . S
C1178 C1176 1.363 . S
C1178 C1179 1.370 . S
C1178 C1182 1.524 . S
C1179 C1171 1.503 . S
C1179 C1178 1.370 . S
C1179 C1180 1.391 1_655 S
C1180 C1179 1.391 1_455 S
C1180 C1181 1.403 1_455 S
C1180 C1183 1.553 . S
C1181 C1177 1.421 . S
C1181 C1180 1.403 1_655 S
C1181 H1193 0.919 1_655 S
C1182 C1178 1.524 . S
C1182 H1194 0.956 . S
C1182 H1195 0.961 . S
C1182 H1196 0.961 . S
C1183 C1180 1.553 . S
C1183 H1197 0.958 . S
C1183 H1198 0.961 . S
C1183 H1199 0.960 . S
H1184 C1168 0.931 . S
H1185 C1173 0.929 1_455 S
H1186 C1174 0.960 . S
H1187 C1174 0.962 . S
H1188 C1174 0.960 . S
H1189 C1175 0.961 . S
H1190 C1175 0.961 . S
H1191 C1175 0.961 . S
H1192 C1176 0.931 . S
H1193 C1181 0.919 1_455 S
H1194 C1182 0.956 . S
H1195 C1182 0.961 . S
H1196 C1182 0.961 . S
H1197 C1183 0.958 . S
H1198 C1183 0.961 . S
H1199 C1183 0.960 . S
C1200 C1201 1.391 . S
C1200 C1202 1.394 . S
C1200 H1216 0.931 . S
C1201 C1200 1.391 . S
C1201 C1205 1.376 . S
C1202 C1200 1.394 . S
C1202 C1203 1.369 . S
C1202 C1206 1.510 1_565 S
C1203 C1202 1.369 . S
C1203 C1204 1.410 . S
C1203 C1211 1.503 . S
C1204 C1203 1.410 . S
C1204 C1205 1.392 . S
C1204 C1207 1.511 . S
C1205 C1201 1.376 . S
C1205 C1204 1.392 . S
C1205 H1217 0.929 . S
C1206 C1202 1.510 1_545 S
C1206 H1218 0.992 . S
C1206 H1219 0.911 1_545 S
C1206 H1220 1.005 . S
C1207 C1204 1.511 . S
C1207 H1221 0.961 . S
C1207 H1222 0.961 . S
C1207 H1223 0.961 . S
C1208 C1209 1.370 . S
C1208 C1210 1.363 . S
C1208 H1224 0.931 . S
C1209 C1208 1.370 . S
C1209 C1213 1.408 1_565 S
C1210 C1208 1.363 . S
C1210 C1211 1.370 . S
C1210 C1214 1.524 . S
C1211 C1203 1.503 . S
C1211 C1210 1.370 . S
C1211 C1212 1.403 1_565 S
C1212 C1211 1.403 1_545 S
C1212 C1213 1.404 . S
C1212 C1215 1.539 . S
C1213 C1209 1.408 1_545 S
C1213 C1212 1.404 . S
C1213 H1225 0.930 . S
C1214 C1210 1.524 . S
C1214 H1226 0.956 . S
C1214 H1227 0.961 . S
C1214 H1228 0.961 . S
C1215 C1212 1.539 . S
C1215 H1229 0.958 . S
C1215 H1230 0.961 . S
C1215 H1231 0.960 . S
H1216 C1200 0.931 . S
H1217 C1205 0.929 . S
H1218 C1206 0.992 . S
H1219 C1206 0.911 1_565 S
H1220 C1206 1.005 . S
H1221 C1207 0.961 . S
H1222 C1207 0.961 . S
H1223 C1207 0.961 . S
H1224 C1208 0.931 . S
H1225 C1213 0.930 . S
H1226 C1214 0.956 . S
H1227 C1214 0.961 . S
H1228 C1214 0.961 . S
H1229 C1215 0.958 . S
H1230 C1215 0.961 . S
H1231 C1215 0.960 . S
C1232 C1233 1.391 . S
C1232 C1234 1.394 . S
C1232 H1248 0.931 . S
C1233 C1232 1.391 . S
C1233 C1237 1.376 . S
C1234 C1232 1.394 . S
C1234 C1235 1.369 . S
C1234 C1238 1.531 . S
C1235 C1234 1.369 . S
C1235 C1236 1.410 . S
C1235 C1243 1.503 . S
C1236 C1235 1.410 . S
C1236 C1237 1.392 . S
C1236 C1239 1.511 . S
C1237 C1233 1.376 . S
C1237 C1236 1.392 . S
C1237 H1249 0.929 . S
C1238 C1234 1.531 . S
C1238 H1250 0.960 . S
C1238 H1251 0.962 . S
C1238 H1252 0.960 . S
C1239 C1236 1.511 . S
C1239 H1253 0.961 . S
C1239 H1254 0.961 . S
C1239 H1255 0.961 . S
C1240 C1241 1.370 . S
C1240 C1242 1.363 . S
C1240 H1256 0.931 . S
C1241 C1240 1.370 . S
C1241 C1245 1.408 . S
C1242 C1240 1.363 . S
C1242 C1243 1.370 . S
C1242 C1246 1.524 . S
C1243 C1235 1.503 . S
C1243 C1242 1.370 . S
C1243 C1244 1.403 . S
C1244 C1243 1.403 . S
C1244 C1245 1.404 . S
C1244 C1247 1.539 . S
C1245 C1241 1.408 . S
C1245 C1244 1.404 . S
C1245 H1257 0.930 . S
C1246 C1242 1.524 . S
C1246 H1258 0.956 . S
C1246 H1259 0.961 . S
C1246 H1260 0.961 . S
C1247 C1244 1.539 . S
C1247 H1261 0.958 . S
C1247 H1262 0.961 . S
C1247 H1263 0.960 . S
H1248 C1232 0.931 . S
H1249 C1237 0.929 . S
H1250 C1238 0.960 . S
H1251 C1238 0.962 . S
H1252 C1238 0.960 . S
H1253 C1239 0.961 . S
H1254 C1239 0.961 . S
H1255 C1239 0.961 . S
H1256 C1240 0.931 . S
H1257 C1245 0.930 . S
H1258 C1246 0.956 . S
H1259 C1246 0.961 . S
H1260 C1246 0.961 . S
H1261 C1247 0.958 . S
H1262 C1247 0.961 . S
H1263 C1247 0.960 . S
C1264 C1265 1.391 . S
C1264 C1266 1.394 . S
C1264 H1280 0.931 . S
C1265 C1264 1.391 . S
C1265 C1269 1.376 . S
C1266 C1264 1.394 . S
C1266 C1267 1.369 . S
C1266 C1270 1.531 . S
C1267 C1266 1.369 . S
C1267 C1268 1.410 . S
C1267 C1275 1.503 . S
C1268 C1267 1.410 . S
C1268 C1269 1.392 . S
C1268 C1271 1.511 . S
C1269 C1265 1.376 . S
C1269 C1268 1.392 . S
C1269 H1281 0.929 . S
C1270 C1266 1.531 . S
C1270 H1282 0.960 . S
C1270 H1283 0.962 . S
C1270 H1284 0.960 . S
C1271 C1268 1.511 . S
C1271 H1285 0.961 . S
C1271 H1286 0.961 . S
C1271 H1287 0.961 . S
C1272 C1273 1.370 . S
C1272 C1274 1.363 . S
C1272 H1288 0.931 . S
C1273 C1272 1.370 . S
C1273 C1277 1.408 . S
C1274 C1272 1.363 . S
C1274 C1275 1.370 . S
C1274 C1278 1.524 . S
C1275 C1267 1.503 . S
C1275 C1274 1.370 . S
C1275 C1276 1.403 . S
C1276 C1275 1.403 . S
C1276 C1277 1.404 . S
C1276 C1279 1.539 . S
C1277 C1273 1.408 . S
C1277 C1276 1.404 . S
C1277 H1289 0.930 . S
C1278 C1274 1.524 . S
C1278 H1290 0.956 . S
C1278 H1291 0.961 . S
C1278 H1292 0.961 . S
C1279 C1276 1.539 . S
C1279 H1293 0.958 . S
C1279 H1294 0.961 . S
C1279 H1295 0.960 . S
H1280 C1264 0.931 . S
H1281 C1269 0.929 . S
H1282 C1270 0.960 . S
H1283 C1270 0.962 . S
H1284 C1270 0.960 . S
H1285 C1271 0.961 . S
H1286 C1271 0.961 . S
H1287 C1271 0.961 . S
H1288 C1272 0.931 . S
H1289 C1277 0.930 . S
H1290 C1278 0.956 . S
H1291 C1278 0.961 . S
H1292 C1278 0.961 . S
H1293 C1279 0.958 . S
H1294 C1279 0.961 . S
H1295 C1279 0.960 . S
C1296 C1297 1.391 . S
C1296 C1298 1.394 . S
C1296 H1312 0.931 . S
C1297 C1296 1.391 . S
C1297 C1301 1.376 . S
C1298 C1296 1.394 . S
C1298 C1299 1.369 . S
C1298 C1302 1.531 . S
C1299 C1298 1.369 . S
C1299 C1300 1.410 . S
C1299 C1307 1.503 . S
C1300 C1299 1.410 . S
C1300 C1301 1.392 . S
C1300 C1303 1.511 1_455 S
C1301 C1297 1.376 . S
C1301 C1300 1.392 . S
C1301 H1313 0.929 1_455 S
C1302 C1298 1.531 . S
C1302 H1314 0.960 . S
C1302 H1315 0.962 . S
C1302 H1316 0.960 . S
C1303 C1300 1.511 1_655 S
C1303 H1317 0.961 . S
C1303 H1318 0.961 . S
C1303 H1319 0.961 . S
C1304 C1305 1.370 . S
C1304 C1306 1.363 . S
C1304 H1320 0.931 . S
C1305 C1304 1.370 . S
C1305 C1309 1.408 . S
C1306 C1304 1.363 . S
C1306 C1307 1.370 . S
C1306 C1310 1.524 . S
C1307 C1299 1.503 . S
C1307 C1306 1.370 . S
C1307 C1308 1.403 . S
C1308 C1307 1.403 . S
C1308 C1309 1.404 . S
C1308 C1311 1.511 1_455 S
C1309 C1305 1.408 . S
C1309 C1308 1.404 . S
C1309 H1321 0.930 . S
C1310 C1306 1.524 . S
C1310 H1322 0.956 . S
C1310 H1323 0.961 . S
C1310 H1324 0.961 . S
C1311 C1308 1.511 1_655 S
C1311 H1325 0.936 1_655 S
C1311 H1326 0.996 . S
C1311 H1327 0.978 . S
H1312 C1296 0.931 . S
H1313 C1301 0.929 1_655 S
H1314 C1302 0.960 . S
H1315 C1302 0.962 . S
H1316 C1302 0.960 . S
H1317 C1303 0.961 . S
H1318 C1303 0.961 . S
H1319 C1303 0.961 . S
H1320 C1304 0.931 . S
H1321 C1309 0.930 . S
H1322 C1310 0.956 . S
H1323 C1310 0.961 . S
H1324 C1310 0.961 . S
H1325 C1311 0.936 1_455 S
H1326 C1311 0.996 . S
H1327 C1311 0.978 . S
C1328 C1329 1.391 . S
C1328 C1330 1.394 1_556 S
C1328 H1344 0.931 . S
C1329 C1328 1.391 . S
C1329 C1333 1.376 . S
C1330 C1328 1.394 1_554 S
C1330 C1331 1.369 . S
C1330 C1334 1.531 . S
C1331 C1330 1.369 . S
C1331 C1332 1.410 . S
C1331 C1339 1.503 . S
C1332 C1331 1.410 . S
C1332 C1333 1.392 1_554 S
C1332 C1335 1.511 . S
C1333 C1329 1.376 . S
C1333 C1332 1.392 1_556 S
C1333 H1345 0.929 . S
C1334 C1330 1.531 . S
C1334 H1346 0.960 . S
C1334 H1347 0.962 . S
C1334 H1348 0.960 . S
C1335 C1332 1.511 . S
C1335 H1349 1.000 . S
C1335 H1350 0.961 . S
C1335 H1351 0.961 . S
C1336 C1337 1.370 . S
C1336 C1338 1.363 . S
C1336 H1352 0.931 1_545 S
C1337 C1336 1.370 . S
C1337 C1341 1.408 . S
C1338 C1336 1.363 . S
C1338 C1339 1.370 . S
C1338 C1342 1.524 1_545 S
C1339 C1331 1.503 . S
C1339 C1338 1.370 . S
C1339 C1340 1.403 . S
C1340 C1339 1.403 . S
C1340 C1341 1.404 . S
C1340 C1343 1.539 . S
C1341 C1337 1.408 . S
C1341 C1340 1.404 . S
C1341 H1353 0.930 . S
C1342 C1338 1.524 1_565 S
C1342 H1354 0.954 . S
C1342 H1355 0.961 . S
C1342 H1356 0.961 . S
C1343 C1340 1.539 . S
C1343 H1357 0.958 . S
C1343 H1358 0.961 . S
C1343 H1359 0.960 . S
H1344 C1328 0.931 . S
H1345 C1333 0.929 . S
H1346 C1334 0.960 . S
H1347 C1334 0.962 . S
H1348 C1334 0.960 . S
H1349 C1335 1.000 . S
H1350 C1335 0.961 . S
H1351 C1335 0.961 . S
H1352 C1336 0.931 1_565 S
H1353 C1341 0.930 . S
H1354 C1342 0.954 . S
H1355 C1342 0.961 . S
H1356 C1342 0.961 . S
H1357 C1343 0.958 . S
H1358 C1343 0.961 . S
H1359 C1343 0.960 . S
C1360 C1361 1.391 . S
C1360 C1362 1.394 . S
C1360 H1376 0.931 . S
C1361 C1360 1.391 . S
C1361 C1365 1.376 . S
C1362 C1360 1.394 . S
C1362 C1363 1.369 . S
C1362 C1366 1.531 . S
C1363 C1362 1.369 . S
C1363 C1364 1.410 . S
C1363 C1371 1.503 . S
C1364 C1363 1.410 . S
C1364 C1365 1.392 . S
C1364 C1367 1.511 . S
C1365 C1361 1.376 . S
C1365 C1364 1.392 . S
C1365 H1377 0.929 . S
C1366 C1362 1.531 . S
C1366 H1378 0.960 . S
C1366 H1379 0.962 . S
C1366 H1380 0.960 . S
C1367 C1364 1.511 . S
C1367 H1381 0.961 . S
C1367 H1382 0.961 . S
C1367 H1383 0.961 . S
C1368 C1369 1.370 . S
C1368 C1370 1.363 . S
C1368 H1384 0.931 . S
C1369 C1368 1.370 . S
C1369 C1373 1.408 . S
C1370 C1368 1.363 . S
C1370 C1371 1.370 . S
C1370 C1374 1.524 . S
C1371 C1363 1.503 . S
C1371 C1370 1.370 . S
C1371 C1372 1.403 . S
C1372 C1371 1.403 . S
C1372 C1373 1.404 . S
C1372 C1375 1.539 . S
C1373 C1369 1.408 . S
C1373 C1372 1.404 . S
C1373 H1385 0.930 . S
C1374 C1370 1.524 . S
C1374 H1386 0.956 . S
C1374 H1387 0.961 . S
C1374 H1388 0.961 . S
C1375 C1372 1.539 . S
C1375 H1389 0.958 . S
C1375 H1390 0.961 . S
C1375 H1391 0.960 . S
H1376 C1360 0.931 . S
H1377 C1365 0.929 . S
H1378 C1366 0.960 . S
H1379 C1366 0.962 . S
H1380 C1366 0.960 . S
H1381 C1367 0.961 . S
H1382 C1367 0.961 . S
H1383 C1367 0.961 . S
H1384 C1368 0.931 . S
H1385 C1373 0.930 . S
H1386 C1374 0.956 . S
H1387 C1374 0.961 . S
H1388 C1374 0.961 . S
H1389 C1375 0.958 . S
H1390 C1375 0.961 . S
H1391 C1375 0.960 . S
C1392 C1393 1.391 . S
C1392 C1394 1.394 1_556 S
C1392 H1408 0.931 . S
C1393 C1392 1.391 . S
C1393 C1397 1.376 . S
C1394 C1392 1.394 1_554 S
C1394 C1395 1.369 . S
C1394 C1398 1.531 . S
C1395 C1394 1.369 . S
C1395 C1396 1.410 . S
C1395 C1403 1.503 . S
C1396 C1395 1.410 . S
C1396 C1397 1.392 1_554 S
C1396 C1399 1.511 . S
C1397 C1393 1.376 . S
C1397 C1396 1.392 1_556 S
C1397 H1409 0.929 . S
C1398 C1394 1.531 . S
C1398 H1410 0.960 . S
C1398 H1411 0.962 . S
C1398 H1412 0.960 . S
C1399 C1396 1.511 . S
C1399 H1413 0.961 . S
C1399 H1414 0.961 . S
C1399 H1415 0.961 . S
C1400 C1401 1.370 . S
C1400 C1402 1.363 . S
C1400 H1416 0.931 . S
C1401 C1400 1.370 . S
C1401 C1405 1.408 . S
C1402 C1400 1.363 . S
C1402 C1403 1.370 . S
C1402 C1406 1.524 . S
C1403 C1395 1.503 . S
C1403 C1402 1.370 . S
C1403 C1404 1.403 . S
C1404 C1403 1.403 . S
C1404 C1405 1.404 . S
C1404 C1407 1.539 . S
C1405 C1401 1.408 . S
C1405 C1404 1.404 . S
C1405 H1417 0.930 . S
C1406 C1402 1.524 . S
C1406 H1418 0.956 . S
C1406 H1419 0.961 . S
C1406 H1420 0.961 . S
C1407 C1404 1.539 . S
C1407 H1421 0.958 . S
C1407 H1422 0.961 . S
C1407 H1423 0.960 . S
H1408 C1392 0.931 . S
H1409 C1397 0.929 . S
H1410 C1398 0.960 . S
H1411 C1398 0.962 . S
H1412 C1398 0.960 . S
H1413 C1399 0.961 . S
H1414 C1399 0.961 . S
H1415 C1399 0.961 . S
H1416 C1400 0.931 . S
H1417 C1405 0.930 . S
H1418 C1406 0.956 . S
H1419 C1406 0.961 . S
H1420 C1406 0.961 . S
H1421 C1407 0.958 . S
H1422 C1407 0.961 . S
H1423 C1407 0.960 . S
C1424 C1425 1.391 . S
C1424 C1426 1.394 . S
C1424 H1440 0.931 1_455 S
C1425 C1424 1.391 . S
C1425 C1429 1.376 . S
C1426 C1424 1.394 . S
C1426 C1427 1.369 . S
C1426 C1430 1.531 1_455 S
C1427 C1426 1.369 . S
C1427 C1428 1.410 . S
C1427 C1435 1.503 . S
C1428 C1427 1.410 . S
C1428 C1429 1.392 . S
C1428 C1431 1.511 . S
C1429 C1425 1.376 . S
C1429 C1428 1.392 . S
C1429 H1441 0.929 . S
C1430 C1426 1.531 1_655 S
C1430 H1442 0.960 . S
C1430 H1443 0.962 . S
C1430 H1444 0.960 . S
C1431 C1428 1.511 . S
C1431 H1445 0.961 . S
C1431 H1446 0.961 . S
C1431 H1447 0.961 . S
C1432 C1433 1.370 . S
C1432 C1434 1.363 1_554 S
C1432 H1448 0.931 . S
C1433 C1432 1.370 . S
C1433 C1437 1.408 . S
C1434 C1432 1.363 1_556 S
C1434 C1435 1.370 . S
C1434 C1438 1.524 . S
C1435 C1427 1.503 . S
C1435 C1434 1.370 . S
C1435 C1436 1.403 . S
C1436 C1435 1.403 . S
C1436 C1437 1.404 1_556 S
C1436 C1439 1.539 . S
C1437 C1433 1.408 . S
C1437 C1436 1.404 1_554 S
C1437 H1449 0.930 . S
C1438 C1434 1.524 . S
C1438 H1450 0.956 1_455 S
C1438 H1451 0.961 . S
C1438 H1452 0.961 . S
C1439 C1436 1.539 . S
C1439 H1453 0.958 . S
C1439 H1454 0.961 . S
C1439 H1455 0.960 . S
H1440 C1424 0.931 1_655 S
H1441 C1429 0.929 . S
H1442 C1430 0.960 . S
H1443 C1430 0.962 . S
H1444 C1430 0.960 . S
H1445 C1431 0.961 . S
H1446 C1431 0.961 . S
H1447 C1431 0.961 . S
H1448 C1432 0.931 . S
H1449 C1437 0.930 . S
H1450 C1438 0.956 1_655 S
H1451 C1438 0.961 . S
H1452 C1438 0.961 . S
H1453 C1439 0.958 . S
H1454 C1439 0.961 . S
H1455 C1439 0.960 . S
C1456 C1457 1.391 . S
C1456 C1458 1.394 . S
C1456 H1472 0.931 . S
C1457 C1456 1.391 . S
C1457 C1461 1.376 . S
C1458 C1456 1.394 . S
C1458 C1459 1.369 . S
C1458 C1462 1.531 . S
C1459 C1458 1.369 . S
C1459 C1460 1.410 . S
C1459 C1467 1.503 . S
C1460 C1459 1.410 . S
C1460 C1461 1.392 . S
C1460 C1463 1.511 . S
C1461 C1457 1.376 . S
C1461 C1460 1.392 . S
C1461 H1473 0.929 . S
C1462 C1458 1.531 . S
C1462 H1474 0.960 . S
C1462 H1475 0.962 . S
C1462 H1476 0.960 . S
C1463 C1460 1.511 . S
C1463 H1477 0.961 1_545 S
C1463 H1478 0.961 . S
C1463 H1479 0.961 . S
C1464 C1465 1.370 . S
C1464 C1466 1.363 . S
C1464 H1480 0.931 . S
C1465 C1464 1.370 . S
C1465 C1469 1.408 . S
C1466 C1464 1.363 . S
C1466 C1467 1.370 . S
C1466 C1470 1.524 1_545 S
C1467 C1459 1.503 . S
C1467 C1466 1.370 . S
C1467 C1468 1.403 . S
C1468 C1467 1.403 . S
C1468 C1469 1.404 . S
C1468 C1471 1.539 . S
C1469 C1465 1.408 . S
C1469 C1468 1.404 . S
C1469 H1481 0.930 . S
C1470 C1466 1.524 1_565 S
C1470 H1482 0.955 1_565 S
C1470 H1483 0.961 . S
C1470 H1484 0.961 . S
C1471 C1468 1.539 . S
C1471 H1485 0.958 . S
C1471 H1486 0.961 . S
C1471 H1487 0.960 . S
H1472 C1456 0.931 . S
H1473 C1461 0.929 . S
H1474 C1462 0.960 . S
H1475 C1462 0.962 . S
H1476 C1462 0.960 . S
H1477 C1463 0.961 1_565 S
H1478 C1463 0.961 . S
H1479 C1463 0.961 . S
H1480 C1464 0.931 . S
H1481 C1469 0.930 . S
H1482 C1470 0.955 1_545 S
H1483 C1470 0.961 . S
H1484 C1470 0.961 . S
H1485 C1471 0.958 . S
H1486 C1471 0.961 . S
H1487 C1471 0.960 . S
C1488 C1489 1.391 . S
C1488 C1490 1.394 . S
C1488 H1504 0.931 . S
C1489 C1488 1.391 . S
C1489 C1493 1.376 . S
C1490 C1488 1.394 . S
C1490 C1491 1.369 . S
C1490 C1494 1.531 . S
C1491 C1490 1.369 . S
C1491 C1492 1.410 . S
C1491 C1499 1.503 . S
C1492 C1491 1.410 . S
C1492 C1493 1.392 . S
C1492 C1495 1.511 . S
C1493 C1489 1.376 . S
C1493 C1492 1.392 . S
C1493 H1505 0.929 . S
C1494 C1490 1.531 . S
C1494 H1506 0.960 . S
C1494 H1507 0.962 . S
C1494 H1508 0.960 . S
C1495 C1492 1.511 . S
C1495 H1509 0.961 . S
C1495 H1510 0.961 . S
C1495 H1511 0.961 . S
C1496 C1497 1.370 . S
C1496 C1498 1.363 1_554 S
C1496 H1512 0.931 . S
C1497 C1496 1.370 . S
C1497 C1501 1.408 . S
C1498 C1496 1.363 1_556 S
C1498 C1499 1.370 . S
C1498 C1502 1.524 . S
C1499 C1491 1.503 . S
C1499 C1498 1.370 . S
C1499 C1500 1.403 . S
C1500 C1499 1.403 . S
C1500 C1501 1.404 1_556 S
C1500 C1503 1.539 . S
C1501 C1497 1.408 . S
C1501 C1500 1.404 1_554 S
C1501 H1513 0.930 . S
C1502 C1498 1.524 . S
C1502 H1514 0.956 . S
C1502 H1515 0.961 . S
C1502 H1516 0.961 . S
C1503 C1500 1.539 . S
C1503 H1517 0.958 . S
C1503 H1518 0.961 . S
C1503 H1519 0.960 . S
H1504 C1488 0.931 . S
H1505 C1493 0.929 . S
H1506 C1494 0.960 . S
H1507 C1494 0.962 . S
H1508 C1494 0.960 . S
H1509 C1495 0.961 . S
H1510 C1495 0.961 . S
H1511 C1495 0.961 . S
H1512 C1496 0.931 . S
H1513 C1501 0.930 . S
H1514 C1502 0.956 . S
H1515 C1502 0.961 . S
H1516 C1502 0.961 . S
H1517 C1503 0.958 . S
H1518 C1503 0.961 . S
H1519 C1503 0.960 . S
C1520 C1521 1.391 . S
C1520 C1522 1.394 . S
C1520 H1536 0.931 . S
C1521 C1520 1.391 . S
C1521 C1525 1.376 . S
C1522 C1520 1.394 . S
C1522 C1523 1.369 . S
C1522 C1526 1.531 . S
C1523 C1522 1.369 . S
C1523 C1524 1.410 . S
C1523 C1531 1.503 . S
C1524 C1523 1.410 . S
C1524 C1525 1.392 . S
C1524 C1527 1.511 . S
C1525 C1521 1.376 . S
C1525 C1524 1.392 . S
C1525 H1537 0.929 . S
C1526 C1522 1.531 . S
C1526 H1538 0.960 . S
C1526 H1539 0.962 . S
C1526 H1540 0.960 . S
C1527 C1524 1.511 . S
C1527 H1541 0.961 . S
C1527 H1542 0.961 . S
C1527 H1543 0.961 . S
C1528 C1529 1.370 . S
C1528 C1530 1.363 . S
C1528 H1544 0.931 . S
C1529 C1528 1.370 . S
C1529 C1533 1.408 . S
C1530 C1528 1.363 . S
C1530 C1531 1.370 . S
C1530 C1534 1.524 . S
C1531 C1523 1.503 . S
C1531 C1530 1.370 . S
C1531 C1532 1.403 . S
C1532 C1531 1.403 . S
C1532 C1533 1.404 . S
C1532 C1535 1.539 . S
C1533 C1529 1.408 . S
C1533 C1532 1.404 . S
C1533 H1545 0.930 . S
C1534 C1530 1.524 . S
C1534 H1546 0.956 . S
C1534 H1547 0.961 . S
C1534 H1548 0.961 . S
C1535 C1532 1.539 . S
C1535 H1549 0.958 . S
C1535 H1550 0.961 . S
C1535 H1551 0.960 . S
H1536 C1520 0.931 . S
H1537 C1525 0.929 . S
H1538 C1526 0.960 . S
H1539 C1526 0.962 . S
H1540 C1526 0.960 . S
H1541 C1527 0.961 . S
H1542 C1527 0.961 . S
H1543 C1527 0.961 . S
H1544 C1528 0.931 . S
H1545 C1533 0.930 . S
H1546 C1534 0.956 . S
H1547 C1534 0.961 . S
H1548 C1534 0.961 . S
H1549 C1535 0.958 . S
H1550 C1535 0.961 . S
H1551 C1535 0.960 . S
C1552 C1553 1.391 . S
C1552 C1554 1.394 . S
C1552 H1568 0.931 . S
C1553 C1552 1.391 . S
C1553 C1557 1.376 . S
C1554 C1552 1.394 . S
C1554 C1555 1.369 . S
C1554 C1558 1.531 . S
C1555 C1554 1.369 . S
C1555 C1556 1.410 . S
C1555 C1563 1.503 . S
C1556 C1555 1.410 . S
C1556 C1557 1.392 . S
C1556 C1559 1.511 . S
C1557 C1553 1.376 . S
C1557 C1556 1.392 . S
C1557 H1569 0.929 . S
C1558 C1554 1.531 . S
C1558 H1570 0.960 . S
C1558 H1571 0.962 1_655 S
C1558 H1572 0.960 . S
C1559 C1556 1.511 . S
C1559 H1573 0.961 . S
C1559 H1574 0.961 . S
C1559 H1575 0.961 . S
C1560 C1561 1.370 . S
C1560 C1562 1.363 . S
C1560 H1576 0.928 . S
C1561 C1560 1.370 . S
C1561 C1565 1.408 . S
C1562 C1560 1.363 . S
C1562 C1563 1.370 . S
C1562 C1566 1.494 1_655 S
C1563 C1555 1.503 . S
C1563 C1562 1.370 . S
C1563 C1564 1.403 . S
C1564 C1563 1.403 . S
C1564 C1565 1.404 . S
C1564 C1567 1.539 . S
C1565 C1561 1.408 . S
C1565 C1564 1.404 . S
C1565 H1577 0.930 . S
C1566 C1562 1.494 1_455 S
C1566 H1578 0.990 . S
C1566 H1579 0.931 1_455 S
C1566 H1580 0.991 . S
C1567 C1564 1.539 . S
C1567 H1581 0.958 . S
C1567 H1582 0.961 . S
C1567 H1583 0.960 . S
H1568 C1552 0.931 . S
H1569 C1557 0.929 . S
H1570 C1558 0.960 . S
H1571 C1558 0.962 1_455 S
H1572 C1558 0.960 . S
H1573 C1559 0.961 . S
H1574 C1559 0.961 . S
H1575 C1559 0.961 . S
H1576 C1560 0.928 . S
H1577 C1565 0.930 . S
H1578 C1566 0.990 . S
H1579 C1566 0.931 1_655 S
H1580 C1566 0.991 . S
H1581 C1567 0.958 . S
H1582 C1567 0.961 . S
H1583 C1567 0.960 . S
C1584 C1585 1.391 . S
C1584 C1586 1.394 1_554 S
C1584 H1600 0.931 1_565 S
C1585 C1584 1.391 . S
C1585 C1589 1.376 . S
C1586 C1584 1.394 1_556 S
C1586 C1587 1.369 . S
C1586 C1590 1.531 1_565 S
C1587 C1586 1.369 . S
C1587 C1588 1.410 . S
C1587 C1595 1.503 . S
C1588 C1587 1.410 . S
C1588 C1589 1.392 1_556 S
C1588 C1591 1.511 . S
C1589 C1585 1.376 . S
C1589 C1588 1.392 1_554 S
C1589 H1601 0.929 . S
C1590 C1586 1.531 1_545 S
C1590 H1602 0.960 . S
C1590 H1603 0.962 . S
C1590 H1604 0.960 . S
C1591 C1588 1.511 . S
C1591 H1605 0.961 . S
C1591 H1606 0.961 . S
C1591 H1607 0.961 . S
C1592 C1593 1.370 . S
C1592 C1594 1.363 . S
C1592 H1608 0.931 . S
C1593 C1592 1.370 . S
C1593 C1597 1.408 . S
C1594 C1592 1.363 . S
C1594 C1595 1.370 . S
C1594 C1598 1.524 . S
C1595 C1587 1.503 . S
C1595 C1594 1.370 . S
C1595 C1596 1.403 . S
C1596 C1595 1.403 . S
C1596 C1597 1.404 . S
C1596 C1599 1.539 . S
C1597 C1593 1.408 . S
C1597 C1596 1.404 . S
C1597 H1609 0.930 . S
C1598 C1594 1.524 . S
C1598 H1610 0.956 . S
C1598 H1611 0.961 . S
C1598 H1612 0.961 . S
C1599 C1596 1.539 . S
C1599 H1613 0.958 . S
C1599 H1614 0.961 . S
C1599 H1615 0.960 . S
H1600 C1584 0.931 1_545 S
H1601 C1589 0.929 . S
H1602 C1590 0.960 . S
H1603 C1590 0.962 . S
H1604 C1590 0.960 . S
H1605 C1591 0.961 . S
H1606 C1591 0.961 . S
H1607 C1591 0.961 . S
H1608 C1592 0.931 . S
H1609 C1597 0.930 . S
H1610 C1598 0.956 . S
H1611 C1598 0.961 . S
H1612 C1598 0.961 . S
H1613 C1599 0.958 . S
H1614 C1599 0.961 . S
H1615 C1599 0.960 . S
C1616 C1617 1.391 . S
C1616 C1618 1.394 . S
C1616 H1632 0.931 . S
C1617 C1616 1.391 . S
C1617 C1621 1.376 . S
C1618 C1616 1.394 . S
C1618 C1619 1.369 . S
C1618 C1622 1.531 . S
C1619 C1618 1.369 . S
C1619 C1620 1.410 . S
C1619 C1627 1.503 . S
C1620 C1619 1.410 . S
C1620 C1621 1.392 . S
C1620 C1623 1.511 . S
C1621 C1617 1.376 . S
C1621 C1620 1.392 . S
C1621 H1633 0.929 . S
C1622 C1618 1.531 . S
C1622 H1634 0.960 . S
C1622 H1635 0.962 . S
C1622 H1636 0.960 . S
C1623 C1620 1.511 . S
C1623 H1637 0.961 . S
C1623 H1638 0.961 . S
C1623 H1639 0.961 . S
C1624 C1625 1.370 . S
C1624 C1626 1.363 . S
C1624 H1640 0.931 . S
C1625 C1624 1.370 . S
C1625 C1629 1.408 . S
C1626 C1624 1.363 . S
C1626 C1627 1.370 . S
C1626 C1630 1.524 . S
C1627 C1619 1.503 . S
C1627 C1626 1.370 . S
C1627 C1628 1.403 . S
C1628 C1627 1.403 . S
C1628 C1629 1.404 . S
C1628 C1631 1.539 . S
C1629 C1625 1.408 . S
C1629 C1628 1.404 . S
C1629 H1641 0.930 . S
C1630 C1626 1.524 . S
C1630 H1642 0.956 . S
C1630 H1643 0.961 . S
C1630 H1644 0.961 . S
C1631 C1628 1.539 . S
C1631 H1645 0.958 . S
C1631 H1646 0.961 . S
C1631 H1647 0.960 . S
H1632 C1616 0.931 . S
H1633 C1621 0.929 . S
H1634 C1622 0.960 . S
H1635 C1622 0.962 . S
H1636 C1622 0.960 . S
H1637 C1623 0.961 . S
H1638 C1623 0.961 . S
H1639 C1623 0.961 . S
H1640 C1624 0.931 . S
H1641 C1629 0.930 . S
H1642 C1630 0.956 . S
H1643 C1630 0.961 . S
H1644 C1630 0.961 . S
H1645 C1631 0.958 . S
H1646 C1631 0.961 . S
H1647 C1631 0.960 . S
C1648 C1649 1.391 . S
C1648 C1650 1.394 1_554 S
C1648 H1664 0.931 . S
C1649 C1648 1.391 . S
C1649 C1653 1.376 . S
C1650 C1648 1.394 1_556 S
C1650 C1651 1.369 . S
C1650 C1654 1.531 . S
C1651 C1650 1.369 . S
C1651 C1652 1.410 . S
C1651 C1659 1.503 . S
C1652 C1651 1.410 . S
C1652 C1653 1.392 1_556 S
C1652 C1655 1.511 . S
C1653 C1649 1.376 . S
C1653 C1652 1.392 1_554 S
C1653 H1665 0.929 . S
C1654 C1650 1.531 . S
C1654 H1666 0.960 . S
C1654 H1667 0.962 . S
C1654 H1668 0.960 . S
C1655 C1652 1.511 . S
C1655 H1669 0.961 . S
C1655 H1670 0.961 . S
C1655 H1671 0.961 . S
C1656 C1657 1.370 . S
C1656 C1658 1.363 . S
C1656 H1672 0.931 . S
C1657 C1656 1.370 . S
C1657 C1661 1.408 . S
C1658 C1656 1.363 . S
C1658 C1659 1.370 . S
C1658 C1662 1.524 . S
C1659 C1651 1.503 . S
C1659 C1658 1.370 . S
C1659 C1660 1.403 . S
C1660 C1659 1.403 . S
C1660 C1661 1.404 . S
C1660 C1663 1.539 . S
C1661 C1657 1.408 . S
C1661 C1660 1.404 . S
C1661 H1673 0.930 . S
C1662 C1658 1.524 . S
C1662 H1674 0.956 . S
C1662 H1675 0.961 . S
C1662 H1676 0.961 . S
C1663 C1660 1.539 . S
C1663 H1677 0.958 . S
C1663 H1678 0.961 . S
C1663 H1679 0.960 . S
H1664 C1648 0.931 . S
H1665 C1653 0.929 . S
H1666 C1654 0.960 . S
H1667 C1654 0.962 . S
H1668 C1654 0.960 . S
H1669 C1655 0.961 . S
H1670 C1655 0.961 . S
H1671 C1655 0.961 . S
H1672 C1656 0.931 . S
H1673 C1661 0.930 . S
H1674 C1662 0.956 . S
H1675 C1662 0.961 . S
H1676 C1662 0.961 . S
H1677 C1663 0.958 . S
H1678 C1663 0.961 . S
H1679 C1663 0.960 . S
C1680 C1681 1.391 . S
C1680 C1682 1.394 . S
C1680 H1696 0.931 . S
C1681 C1680 1.391 . S
C1681 C1685 1.376 . S
C1682 C1680 1.394 . S
C1682 C1683 1.369 . S
C1682 C1686 1.531 . S
C1683 C1682 1.369 . S
C1683 C1684 1.410 . S
C1683 C1691 1.503 . S
C1684 C1683 1.410 . S
C1684 C1685 1.392 . S
C1684 C1687 1.511 . S
C1685 C1681 1.376 . S
C1685 C1684 1.392 . S
C1685 H1697 0.929 . S
C1686 C1682 1.531 . S
C1686 H1698 0.960 . S
C1686 H1699 0.962 1_655 S
C1686 H1700 0.960 . S
C1687 C1684 1.511 . S
C1687 H1701 0.961 . S
C1687 H1702 0.961 . S
C1687 H1703 0.961 . S
C1688 C1689 1.370 . S
C1688 C1690 1.363 1_556 S
C1688 H1704 0.931 . S
C1689 C1688 1.370 . S
C1689 C1693 1.408 . S
C1690 C1688 1.363 1_554 S
C1690 C1691 1.370 . S
C1690 C1694 1.524 1_655 S
C1691 C1683 1.503 . S
C1691 C1690 1.370 . S
C1691 C1692 1.403 . S
C1692 C1691 1.403 . S
C1692 C1693 1.404 1_554 S
C1692 C1695 1.539 . S
C1693 C1689 1.408 . S
C1693 C1692 1.404 1_556 S
C1693 H1705 0.930 . S
C1694 C1690 1.524 1_455 S
C1694 H1706 0.956 . S
C1694 H1707 0.961 1_455 S
C1694 H1708 0.961 . S
C1695 C1692 1.539 . S
C1695 H1709 0.958 . S
C1695 H1710 0.961 . S
C1695 H1711 0.960 . S
H1696 C1680 0.931 . S
H1697 C1685 0.929 . S
H1698 C1686 0.960 . S
H1699 C1686 0.962 1_455 S
H1700 C1686 0.960 . S
H1701 C1687 0.961 . S
H1702 C1687 0.961 . S
H1703 C1687 0.961 . S
H1704 C1688 0.931 . S
H1705 C1693 0.930 . S
H1706 C1694 0.956 . S
H1707 C1694 0.961 1_655 S
H1708 C1694 0.961 . S
H1709 C1695 0.958 . S
H1710 C1695 0.961 . S
H1711 C1695 0.960 . S
C1712 C1713 1.391 . S
C1712 C1714 1.394 . S
C1712 H1728 0.931 . S
C1713 C1712 1.391 . S
C1713 C1717 1.376 . S
C1714 C1712 1.394 . S
C1714 C1715 1.369 . S
C1714 C1718 1.531 . S
C1715 C1714 1.369 . S
C1715 C1716 1.410 . S
C1715 C1723 1.503 . S
C1716 C1715 1.410 . S
C1716 C1717 1.392 . S
C1716 C1719 1.511 . S
C1717 C1713 1.376 . S
C1717 C1716 1.392 . S
C1717 H1729 0.929 . S
C1718 C1714 1.531 . S
C1718 H1730 0.960 . S
C1718 H1731 0.962 . S
C1718 H1732 0.960 . S
C1719 C1716 1.511 . S
C1719 H1733 0.925 1_565 S
C1719 H1734 0.961 . S
C1719 H1735 0.961 . S
C1720 C1721 1.370 . S
C1720 C1722 1.363 . S
C1720 H1736 0.931 . S
C1721 C1720 1.370 . S
C1721 C1725 1.408 . S
C1722 C1720 1.363 . S
C1722 C1723 1.370 . S
C1722 C1726 1.524 1_565 S
C1723 C1715 1.503 . S
C1723 C1722 1.370 . S
C1723 C1724 1.403 . S
C1724 C1723 1.403 . S
C1724 C1725 1.404 . S
C1724 C1727 1.539 . S
C1725 C1721 1.408 . S
C1725 C1724 1.404 . S
C1725 H1737 0.930 . S
C1726 C1722 1.524 1_545 S
C1726 H1738 0.960 . S
C1726 H1739 0.961 . S
C1726 H1740 0.961 . S
C1727 C1724 1.539 . S
C1727 H1741 0.958 . S
C1727 H1742 0.961 . S
C1727 H1743 0.960 . S
H1728 C1712 0.931 . S
H1729 C1717 0.929 . S
H1730 C1718 0.960 . S
H1731 C1718 0.962 . S
H1732 C1718 0.960 . S
H1733 C1719 0.925 1_545 S
H1734 C1719 0.961 . S
H1735 C1719 0.961 . S
H1736 C1720 0.931 . S
H1737 C1725 0.930 . S
H1738 C1726 0.960 . S
H1739 C1726 0.961 . S
H1740 C1726 0.961 . S
H1741 C1727 0.958 . S
H1742 C1727 0.961 . S
H1743 C1727 0.960 . S
C1744 C1745 1.391 . S
C1744 C1746 1.394 1_556 S
C1744 H1760 0.931 . S
C1745 C1744 1.391 . S
C1745 C1749 1.376 . S
C1746 C1744 1.394 1_554 S
C1746 C1747 1.369 . S
C1746 C1750 1.531 . S
C1747 C1746 1.369 . S
C1747 C1748 1.410 . S
C1747 C1755 1.503 . S
C1748 C1747 1.410 . S
C1748 C1749 1.392 1_554 S
C1748 C1751 1.511 . S
C1749 C1745 1.376 . S
C1749 C1748 1.392 1_556 S
C1749 H1761 0.929 . S
C1750 C1746 1.531 . S
C1750 H1762 0.960 . S
C1750 H1763 0.962 . S
C1750 H1764 0.960 . S
C1751 C1748 1.511 . S
C1751 H1765 0.961 . S
C1751 H1766 0.961 . S
C1751 H1767 0.961 . S
C1752 C1753 1.370 . S
C1752 C1754 1.363 . S
C1752 H1768 0.931 . S
C1753 C1752 1.370 . S
C1753 C1757 1.408 . S
C1754 C1752 1.363 . S
C1754 C1755 1.370 . S
C1754 C1758 1.524 . S
C1755 C1747 1.503 . S
C1755 C1754 1.370 . S
C1755 C1756 1.403 . S
C1756 C1755 1.403 . S
C1756 C1757 1.404 . S
C1756 C1759 1.539 . S
C1757 C1753 1.408 . S
C1757 C1756 1.404 . S
C1757 H1769 0.930 . S
C1758 C1754 1.524 . S
C1758 H1770 0.956 . S
C1758 H1771 0.961 . S
C1758 H1772 0.961 . S
C1759 C1756 1.539 . S
C1759 H1773 0.958 . S
C1759 H1774 0.961 . S
C1759 H1775 0.960 . S
H1760 C1744 0.931 . S
H1761 C1749 0.929 . S
H1762 C1750 0.960 . S
H1763 C1750 0.962 . S
H1764 C1750 0.960 . S
H1765 C1751 0.961 . S
H1766 C1751 0.961 . S
H1767 C1751 0.961 . S
H1768 C1752 0.931 . S
H1769 C1757 0.930 . S
H1770 C1758 0.956 . S
H1771 C1758 0.961 . S
H1772 C1758 0.961 . S
H1773 C1759 0.958 . S
H1774 C1759 0.961 . S
H1775 C1759 0.960 . S
C1776 C1777 1.391 . S
C1776 C1778 1.394 . S
C1776 H1792 0.931 . S
C1777 C1776 1.391 . S
C1777 C1781 1.376 . S
C1778 C1776 1.394 . S
C1778 C1779 1.369 . S
C1778 C1782 1.531 . S
C1779 C1778 1.369 . S
C1779 C1780 1.410 . S
C1779 C1787 1.503 . S
C1780 C1779 1.410 . S
C1780 C1781 1.392 . S
C1780 C1783 1.511 . S
C1781 C1777 1.376 . S
C1781 C1780 1.392 . S
C1781 H1793 0.929 . S
C1782 C1778 1.531 . S
C1782 H1794 0.960 . S
C1782 H1795 0.962 . S
C1782 H1796 0.960 . S
C1783 C1780 1.511 . S
C1783 H1797 0.961 . S
C1783 H1798 0.961 . S
C1783 H1799 0.961 . S
C1784 C1785 1.370 . S
C1784 C1786 1.363 . S
C1784 H1800 0.931 . S
C1785 C1784 1.370 . S
C1785 C1789 1.408 . S
C1786 C1784 1.363 . S
C1786 C1787 1.370 . S
C1786 C1790 1.524 . S
C1787 C1779 1.503 . S
C1787 C1786 1.370 . S
C1787 C1788 1.403 . S
C1788 C1787 1.403 . S
C1788 C1789 1.404 . S
C1788 C1791 1.539 . S
C1789 C1785 1.408 . S
C1789 C1788 1.404 . S
C1789 H1801 0.930 . S
C1790 C1786 1.524 . S
C1790 H1802 0.956 . S
C1790 H1803 0.961 . S
C1790 H1804 0.961 . S
C1791 C1788 1.539 . S
C1791 H1805 0.958 . S
C1791 H1806 0.961 . S
C1791 H1807 0.960 . S
H1792 C1776 0.931 . S
H1793 C1781 0.929 . S
H1794 C1782 0.960 . S
H1795 C1782 0.962 . S
H1796 C1782 0.960 . S
H1797 C1783 0.961 . S
H1798 C1783 0.961 . S
H1799 C1783 0.961 . S
H1800 C1784 0.931 . S
H1801 C1789 0.930 . S
H1802 C1790 0.956 . S
H1803 C1790 0.961 . S
H1804 C1790 0.961 . S
H1805 C1791 0.958 . S
H1806 C1791 0.961 . S
H1807 C1791 0.960 . S
C529 C21 1.483 . S
C537 C516 1.485 . S
C561 C54 1.469 . S
C569 C417 1.481 . S
C593 C450 1.493 . S
C601 C87 1.490 . S
C625 C120 1.492 . S
C633 C483 1.490 . S
C657 C318 1.472 . S
C665 C153 1.482 . S
C689 C351 1.470 . S
C697 C186 1.480 . S
C721 C384 1.469 . S
C729 C219 1.480 . S
C753 C285 1.475 . S
C761 C252 1.482 . S
C785 C7 1.421 . S
C793 C238 1.402 . S
C817 C40 1.378 . S
C825 C139 1.390 . S
C849 C73 1.421 . S
C857 C172 1.402 . S
C881 C106 1.385 . S
C889 C205 1.407 . S
C913 C502 1.393 . S
C921 C271 1.410 . S
C945 C403 1.380 . S
C953 C304 1.408 . S
C977 C436 1.377 . S
C985 C337 1.406 . S
C1009 C370 1.371 . S
C1017 C469 1.396 . S
C1041 C18 1.143 . S
C1049 C150 1.115 . S
C1073 C183 1.125 . S
C1081 C51 1.122 . S
C1105 C216 1.105 . S
C1113 C84 1.130 . S
C1137 C117 1.115 . S
C1145 C249 1.127 . S
C1169 C414 1.135 . S
C1177 C282 1.120 . S
C1201 C315 1.115 . S
C1209 C447 1.128 . S
C1233 C348 1.101 . S
C1241 C480 1.133 . S
C1265 C513 1.113 . S
C1273 C381 1.129 . S
C1297 N2 1.311 . S
C1305 N13 1.340 . S
C1329 N46 1.318 . S
C1337 N35 1.339 . S
C1361 N68 1.309 . S
C1369 N79 1.341 . S
C1393 N112 1.348 . S
C1401 N101 1.324 . S
C1425 N134 1.348 . S
C1433 N145 1.327 . S
C1457 N167 1.322 . S
C1465 N178 1.338 . S
C1489 N200 1.349 . S
C1497 N211 1.326 . S
C1521 N233 1.341 . S
C1529 N244 1.328 . S
C1553 N277 1.315 . S
C1561 N266 1.338 . S
C1585 N310 1.311 . S
C1593 N299 1.341 . S
C1617 N343 1.349 . S
C1625 N332 1.324 . S
C1649 N376 1.327 . S
C1657 N365 1.335 . S
C1681 N398 1.320 . S
C1689 N409 1.336 . S
C1713 N431 1.342 . S
C1721 N442 1.328 . S
C1745 N475 1.318 . S
C1753 N464 1.339 . S
C1777 N508 1.313 . S
C1785 N497 1.340 . S
