# Generated by pormake.
# Topology uks, (4)-cn, num edge types: 1
# Building blocks:
#     Node 0, Type 0, BuildingBlock: MUDLON_clean_sbu_0, # of connection points: 4
#     Node 1, Type 0, BuildingBlock: MUDLON_clean_sbu_0, # of connection points: 4
#     Node 2, Type 0, BuildingBlock: MUDLON_clean_sbu_0, # of connection points: 4
#     Node 3, Type 0, BuildingBlock: MUDLON_clean_sbu_0, # of connection points: 4
#     Node 4, Type 0, BuildingBlock: MUDLON_clean_sbu_0, # of connection points: 4
#     Node 5, Type 0, BuildingBlock: MUDLON_clean_sbu_0, # of connection points: 4
#     Node 6, Type 0, BuildingBlock: MUDLON_clean_sbu_0, # of connection points: 4
#     Node 7, Type 0, BuildingBlock: MUDLON_clean_sbu_0, # of connection points: 4
#     Node 8, Type 0, BuildingBlock: MUDLON_clean_sbu_0, # of connection points: 4
#     Node 9, Type 0, BuildingBlock: MUDLON_clean_sbu_0, # of connection points: 4
#     Node 10, Type 0, BuildingBlock: MUDLON_clean_sbu_0, # of connection points: 4
#     Node 11, Type 0, BuildingBlock: MUDLON_clean_sbu_0, # of connection points: 4
#     Node 12, Type 0, BuildingBlock: MUDLON_clean_sbu_0, # of connection points: 4
#     Node 13, Type 0, BuildingBlock: MUDLON_clean_sbu_0, # of connection points: 4
#     Node 14, Type 0, BuildingBlock: MUDLON_clean_sbu_0, # of connection points: 4
#     Node 15, Type 0, BuildingBlock: MUDLON_clean_sbu_0, # of connection points: 4
#     Node 16, Type 0, BuildingBlock: MUDLON_clean_sbu_0, # of connection points: 4
#     Node 17, Type 0, BuildingBlock: MUDLON_clean_sbu_0, # of connection points: 4
#     Node 18, Type 0, BuildingBlock: MUDLON_clean_sbu_0, # of connection points: 4
#     Node 19, Type 0, BuildingBlock: MUDLON_clean_sbu_0, # of connection points: 4
#     Node 20, Type 0, BuildingBlock: MUDLON_clean_sbu_0, # of connection points: 4
#     Node 21, Type 0, BuildingBlock: MUDLON_clean_sbu_0, # of connection points: 4
#     Node 22, Type 0, BuildingBlock: MUDLON_clean_sbu_0, # of connection points: 4
#     Node 23, Type 0, BuildingBlock: MUDLON_clean_sbu_0, # of connection points: 4
#     Edge 24, Type (0, 0), BuildingBlock: EZIPEK_clean_linker_0, # of connection points: 2
#     Edge 25, Type (0, 0), BuildingBlock: EZIPEK_clean_linker_0, # of connection points: 2
#     Edge 26, Type (0, 0), BuildingBlock: EZIPEK_clean_linker_0, # of connection points: 2
#     Edge 27, Type (0, 0), BuildingBlock: EZIPEK_clean_linker_0, # of connection points: 2
#     Edge 28, Type (0, 0), BuildingBlock: EZIPEK_clean_linker_0, # of connection points: 2
#     Edge 29, Type (0, 0), BuildingBlock: EZIPEK_clean_linker_0, # of connection points: 2
#     Edge 30, Type (0, 0), BuildingBlock: EZIPEK_clean_linker_0, # of connection points: 2
#     Edge 31, Type (0, 0), BuildingBlock: EZIPEK_clean_linker_0, # of connection points: 2
#     Edge 32, Type (0, 0), BuildingBlock: EZIPEK_clean_linker_0, # of connection points: 2
#     Edge 33, Type (0, 0), BuildingBlock: EZIPEK_clean_linker_0, # of connection points: 2
#     Edge 34, Type (0, 0), BuildingBlock: EZIPEK_clean_linker_0, # of connection points: 2
#     Edge 35, Type (0, 0), BuildingBlock: EZIPEK_clean_linker_0, # of connection points: 2
#     Edge 36, Type (0, 0), BuildingBlock: EZIPEK_clean_linker_0, # of connection points: 2
#     Edge 37, Type (0, 0), BuildingBlock: EZIPEK_clean_linker_0, # of connection points: 2
#     Edge 38, Type (0, 0), BuildingBlock: EZIPEK_clean_linker_0, # of connection points: 2
#     Edge 39, Type (0, 0), BuildingBlock: EZIPEK_clean_linker_0, # of connection points: 2
#     Edge 40, Type (0, 0), BuildingBlock: EZIPEK_clean_linker_0, # of connection points: 2
#     Edge 41, Type (0, 0), BuildingBlock: EZIPEK_clean_linker_0, # of connection points: 2
#     Edge 42, Type (0, 0), BuildingBlock: EZIPEK_clean_linker_0, # of connection points: 2
#     Edge 43, Type (0, 0), BuildingBlock: EZIPEK_clean_linker_0, # of connection points: 2
#     Edge 44, Type (0, 0), BuildingBlock: EZIPEK_clean_linker_0, # of connection points: 2
#     Edge 45, Type (0, 0), BuildingBlock: EZIPEK_clean_linker_0, # of connection points: 2
#     Edge 46, Type (0, 0), BuildingBlock: EZIPEK_clean_linker_0, # of connection points: 2
#     Edge 47, Type (0, 0), BuildingBlock: EZIPEK_clean_linker_0, # of connection points: 2
#     Edge 48, Type (0, 0), BuildingBlock: EZIPEK_clean_linker_0, # of connection points: 2
#     Edge 49, Type (0, 0), BuildingBlock: EZIPEK_clean_linker_0, # of connection points: 2
#     Edge 50, Type (0, 0), BuildingBlock: EZIPEK_clean_linker_0, # of connection points: 2
#     Edge 51, Type (0, 0), BuildingBlock: EZIPEK_clean_linker_0, # of connection points: 2
#     Edge 52, Type (0, 0), BuildingBlock: EZIPEK_clean_linker_0, # of connection points: 2
#     Edge 53, Type (0, 0), BuildingBlock: EZIPEK_clean_linker_0, # of connection points: 2
#     Edge 54, Type (0, 0), BuildingBlock: EZIPEK_clean_linker_0, # of connection points: 2
#     Edge 55, Type (0, 0), BuildingBlock: EZIPEK_clean_linker_0, # of connection points: 2
#     Edge 56, Type (0, 0), BuildingBlock: EZIPEK_clean_linker_0, # of connection points: 2
#     Edge 57, Type (0, 0), BuildingBlock: EZIPEK_clean_linker_0, # of connection points: 2
#     Edge 58, Type (0, 0), BuildingBlock: EZIPEK_clean_linker_0, # of connection points: 2
#     Edge 59, Type (0, 0), BuildingBlock: EZIPEK_clean_linker_0, # of connection points: 2
#     Edge 60, Type (0, 0), BuildingBlock: EZIPEK_clean_linker_0, # of connection points: 2
#     Edge 61, Type (0, 0), BuildingBlock: EZIPEK_clean_linker_0, # of connection points: 2
#     Edge 62, Type (0, 0), BuildingBlock: EZIPEK_clean_linker_0, # of connection points: 2
#     Edge 63, Type (0, 0), BuildingBlock: EZIPEK_clean_linker_0, # of connection points: 2
#     Edge 64, Type (0, 0), BuildingBlock: EZIPEK_clean_linker_0, # of connection points: 2
#     Edge 65, Type (0, 0), BuildingBlock: EZIPEK_clean_linker_0, # of connection points: 2
#     Edge 66, Type (0, 0), BuildingBlock: EZIPEK_clean_linker_0, # of connection points: 2
#     Edge 67, Type (0, 0), BuildingBlock: EZIPEK_clean_linker_0, # of connection points: 2
#     Edge 68, Type (0, 0), BuildingBlock: EZIPEK_clean_linker_0, # of connection points: 2
#     Edge 69, Type (0, 0), BuildingBlock: EZIPEK_clean_linker_0, # of connection points: 2
#     Edge 70, Type (0, 0), BuildingBlock: EZIPEK_clean_linker_0, # of connection points: 2
#     Edge 71, Type (0, 0), BuildingBlock: EZIPEK_clean_linker_0, # of connection points: 2
# Relax obj value: 0.065
# Max RMSD: 0.062
# Mean RMSD: 0.062
data_MOF--net-uks--node1-MUDLON_clean_sbu_0--edge1-EZIPEK_clean_linker_0
_symmetry_space_group_name_H-M    P1
_symmetry_Int_Tables_number       1
_symmetry_cell_setting            triclinic
loop_
_symmetry_equiv_pos_as_xyz
'x, y, z'
_cell_length_a     40.828455
_cell_length_b     40.771487
_cell_length_c     40.76774
_cell_angle_alpha  89.862972
_cell_angle_beta   89.153038
_cell_angle_gamma 89.25305
loop_
_atom_site_label
_atom_site_type_symbol
_atom_site_fract_x
_atom_site_fract_y
_atom_site_fract_z
_atom_type_partial_charge
Mg0 Mg 0.16871 0.38142 0.71504 0.0
C1 C 0.24232 0.36391 0.69086 0.0
O2 O 0.23718 0.37476 0.661 0.0
C3 C 0.10157 0.36983 0.69434 0.0
O4 O 0.09868 0.38421 0.72304 0.0
C5 C 0.19893 0.44901 0.71234 0.0
O6 O 0.22508 0.43162 0.7197 0.0
O7 O 0.1713 0.43495 0.71079 0.0
O8 O 0.21898 0.36307 0.71177 0.0
O9 O 0.15689 0.35976 0.76272 0.0
C10 C 0.16187 0.32892 0.76052 0.0
O11 O 0.17094 0.31656 0.73203 0.0
O12 O 0.13019 0.36398 0.68262 0.0
Mg13 Mg 0.6427 0.68248 0.21983 0.0
C14 C 0.67843 0.74075 0.18515 0.0
O15 O 0.69775 0.75272 0.16217 0.0
C16 C 0.6736 0.62041 0.19038 0.0
O17 O 0.69578 0.64138 0.18044 0.0
C18 C 0.58116 0.70289 0.18524 0.0
O19 O 0.60158 0.69874 0.16035 0.0
O20 O 0.59145 0.69803 0.21424 0.0
O21 O 0.67347 0.70999 0.18589 0.0
O22 O 0.66425 0.69096 0.2676 0.0
C23 C 0.6754 0.6677 0.28522 0.0
O24 O 0.6685 0.63733 0.27755 0.0
O25 O 0.64876 0.63053 0.20693 0.0
Mg26 Mg 0.39754 0.14745 0.70935 0.0
C27 C 0.38255 0.17719 0.77831 0.0
O28 O 0.36338 0.15179 0.78196 0.0
C29 C 0.40528 0.07276 0.73362 0.0
O30 O 0.40986 0.08283 0.76377 0.0
C31 C 0.46342 0.17064 0.68814 0.0
O32 O 0.46615 0.16797 0.7201 0.0
O33 O 0.43594 0.16449 0.67516 0.0
O34 O 0.40083 0.17919 0.75285 0.0
O35 O 0.34662 0.1549 0.69444 0.0
C36 C 0.32622 0.13667 0.70954 0.0
O37 O 0.33771 0.1148 0.73024 0.0
O38 O 0.40171 0.09357 0.7106 0.0
Mg39 Mg 0.87607 0.90346 0.17756 0.0
C40 C 0.80655 0.9117 0.18781 0.0
O41 O 0.82101 0.92042 0.21496 0.0
C42 C 0.94339 0.88331 0.16513 0.0
O43 O 0.94105 0.8916 0.19621 0.0
C44 C 0.87856 0.97177 0.15669 0.0
O45 O 0.87383 0.95537 0.1295 0.0
O46 O 0.88225 0.95595 0.18342 0.0
O47 O 0.82438 0.90154 0.16383 0.0
O48 O 0.88026 0.87137 0.22023 0.0
C49 C 0.867 0.8435 0.21675 0.0
O50 O 0.84988 0.83821 0.19029 0.0
O51 O 0.91792 0.88639 0.14747 0.0
Mg52 Mg 0.16563 0.13762 0.82632 0.0
C53 C 0.15593 0.20865 0.82153 0.0
O54 O 0.13448 0.19593 0.80172 0.0
C55 C 0.18441 0.07058 0.84772 0.0
O56 O 0.17539 0.06696 0.81715 0.0
C57 C 0.09637 0.13026 0.8489 0.0
O58 O 0.11217 0.11663 0.87334 0.0
O59 O 0.11218 0.13682 0.82262 0.0
O60 O 0.17344 0.18926 0.8388 0.0
O61 O 0.1969 0.13098 0.78269 0.0
C62 C 0.19587 0.14647 0.75558 0.0
O63 O 0.17072 0.16567 0.74908 0.0
O64 O 0.18306 0.09922 0.86026 0.0
Mg65 Mg 0.87393 0.66976 0.34202 0.0
C66 C 0.87138 0.73412 0.30794 0.0
O67 O 0.85161 0.73814 0.33332 0.0
C68 C 0.87456 0.59938 0.35515 0.0
O69 O 0.86527 0.61325 0.38287 0.0
C70 C 0.91448 0.70845 0.39257 0.0
O71 O 0.89343 0.73255 0.38798 0.0
O72 O 0.90863 0.6802 0.38104 0.0
O73 O 0.88577 0.70637 0.3042 0.0
O74 O 0.82024 0.6698 0.34277 0.0
C75 C 0.79672 0.68727 0.35422 0.0
O76 O 0.80249 0.71143 0.37448 0.0
O77 O 0.88254 0.61769 0.33098 0.0
Mg78 Mg 0.38595 0.34614 0.8401 0.0
C79 C 0.34003 0.35573 0.78444 0.0
O80 O 0.32759 0.37606 0.80636 0.0
C81 C 0.4538 0.34143 0.86807 0.0
O82 O 0.43852 0.35733 0.89188 0.0
C83 C 0.38187 0.42313 0.84286 0.0
O84 O 0.40009 0.4212 0.81608 0.0
O85 O 0.3736 0.39673 0.8576 0.0
O86 O 0.36572 0.33924 0.79123 0.0
O87 O 0.36429 0.31075 0.87442 0.0
C88 C 0.35952 0.27981 0.87436 0.0
O89 O 0.34609 0.26645 0.90055 0.0
O90 O 0.43833 0.33511 0.84198 0.0
Mg91 Mg 0.62724 0.91499 0.28195 0.0
C92 C 0.62182 0.84407 0.26598 0.0
O93 O 0.59142 0.85404 0.26205 0.0
C94 C 0.65325 0.97825 0.30685 0.0
O95 O 0.63983 0.98688 0.279 0.0
C96 C 0.56452 0.90706 0.31945 0.0
O97 O 0.58705 0.90035 0.34122 0.0
O98 O 0.57363 0.91586 0.29067 0.0
O99 O 0.64168 0.8631 0.28017 0.0
O100 O 0.6506 0.9267 0.23458 0.0
C101 C 0.68087 0.919 0.23731 0.0
O102 O 0.69131 0.9084 0.2658 0.0
O103 O 0.65182 0.94833 0.31604 0.0
Mg104 Mg 0.75949 0.14447 0.3853 0.0
C105 C 0.83497 0.14491 0.36097 0.0
O106 O 0.84517 0.15333 0.39011 0.0
C107 C 0.76019 0.14665 0.46398 0.0
O108 O 0.78889 0.16072 0.46258 0.0
C109 C 0.72125 0.08325 0.37257 0.0
O110 O 0.7352 0.07592 0.4005 0.0
O111 O 0.72575 0.11155 0.3599 0.0
O112 O 0.80522 0.13702 0.35685 0.0
O113 O 0.75366 0.19768 0.37737 0.0
C114 C 0.77689 0.21377 0.39003 0.0
O115 O 0.79862 0.19782 0.40744 0.0
O116 O 0.74706 0.1366 0.43775 0.0
Mg117 Mg 0.90947 0.2219 0.90345 0.0
C118 C 0.90031 0.26182 0.84327 0.0
O119 O 0.88933 0.23279 0.83542 0.0
C120 C 0.9207 0.25084 0.97461 0.0
O121 O 0.92238 0.28004 0.96106 0.0
C122 C 0.97491 0.20045 0.87842 0.0
O123 O 0.97817 0.23225 0.88184 0.0
O124 O 0.9473 0.18774 0.88517 0.0
O125 O 0.91082 0.26623 0.87224 0.0
O126 O 0.85962 0.20376 0.90041 0.0
C127 C 0.83851 0.222 0.91503 0.0
O128 O 0.84846 0.24838 0.93017 0.0
O129 O 0.91672 0.22573 0.95671 0.0
Mg130 Mg 0.78689 0.42349 0.40643 0.0
C131 C 0.80642 0.35225 0.37709 0.0
O132 O 0.82523 0.36465 0.35391 0.0
C133 C 0.84639 0.46341 0.37397 0.0
O134 O 0.86508 0.43695 0.37416 0.0
C135 C 0.82174 0.42131 0.46938 0.0
O136 O 0.84499 0.41734 0.44709 0.0
O137 O 0.79243 0.42655 0.45998 0.0
O138 O 0.79258 0.37092 0.39816 0.0
O139 O 0.73964 0.43001 0.3824 0.0
C140 C 0.74403 0.42363 0.35202 0.0
O141 O 0.77376 0.41644 0.34138 0.0
O142 O 0.81689 0.46218 0.3843 0.0
Mg143 Mg 0.65543 0.29222 0.9052 0.0
C144 C 0.66195 0.26635 0.84068 0.0
O145 O 0.65216 0.24312 0.86076 0.0
C146 C 0.66728 0.32476 0.96893 0.0
O147 O 0.67709 0.29431 0.97355 0.0
C148 C 0.58918 0.3076 0.89203 0.0
O149 O 0.60727 0.33306 0.88458 0.0
O150 O 0.60319 0.28206 0.90373 0.0
O151 O 0.66586 0.29507 0.85237 0.0
O152 O 0.69536 0.25873 0.91819 0.0
C153 C 0.69959 0.22786 0.91967 0.0
O154 O 0.67499 0.20793 0.91558 0.0
O155 O 0.65802 0.3332 0.94031 0.0
Mg156 Mg 0.69228 0.41051 0.15963 0.0
C157 C 0.69467 0.41562 0.22891 0.0
O158 O 0.72364 0.4224 0.21644 0.0
C159 C 0.68073 0.39816 0.08906 0.0
O160 O 0.70899 0.41316 0.08905 0.0
C161 C 0.68094 0.48116 0.16436 0.0
O162 O 0.65238 0.4679 0.1707 0.0
O163 O 0.70506 0.46249 0.15636 0.0
O164 O 0.67172 0.4081 0.2095 0.0
O165 O 0.72998 0.37228 0.16413 0.0
C166 C 0.75387 0.36453 0.14526 0.0
O167 O 0.76078 0.38271 0.11953 0.0
O168 O 0.66481 0.39579 0.11614 0.0
Mg169 Mg 0.66199 0.21375 0.6365 0.0
C170 C 0.7171 0.25589 0.61119 0.0
O171 O 0.72018 0.23234 0.58948 0.0
C172 C 0.59373 0.19221 0.64102 0.0
O173 O 0.61074 0.16821 0.65433 0.0
C174 C 0.67583 0.16895 0.57865 0.0
O175 O 0.6447 0.1754 0.57357 0.0
O176 O 0.68801 0.17694 0.60606 0.0
O177 O 0.69182 0.25716 0.62982 0.0
O178 O 0.66196 0.21356 0.68994 0.0
C179 C 0.68661 0.21853 0.70791 0.0
O180 O 0.71618 0.21588 0.69502 0.0
O181 O 0.60906 0.21601 0.62778 0.0
Mg182 Mg 0.86718 0.18465 0.16439 0.0
C183 C 0.83033 0.24604 0.16645 0.0
O184 O 0.85904 0.25272 0.17874 0.0
C185 C 0.88385 0.1141 0.15021 0.0
O186 O 0.91051 0.12843 0.13928 0.0
C187 C 0.91137 0.22552 0.11481 0.0
O188 O 0.91644 0.24655 0.13849 0.0
O189 O 0.89636 0.19898 0.12093 0.0
O190 O 0.8243 0.2165 0.15865 0.0
O191 O 0.87726 0.19022 0.21682 0.0
C192 C 0.89328 0.16878 0.23296 0.0
O193 O 0.91324 0.14869 0.21722 0.0
O194 O 0.8598 0.13181 0.16032 0.0
Mg195 Mg 0.8967 0.35318 0.65435 0.0
C196 C 0.83288 0.32556 0.64997 0.0
O197 O 0.82901 0.3531 0.66633 0.0
C198 C 0.96826 0.36127 0.66067 0.0
O199 O 0.95573 0.38565 0.67793 0.0
C200 C 0.88274 0.38324 0.59012 0.0
O201 O 0.90349 0.35923 0.58329 0.0
O202 O 0.8772 0.39037 0.62021 0.0
O203 O 0.86177 0.31589 0.64213 0.0
O204 O 0.89114 0.3554 0.70809 0.0
C205 C 0.89998 0.3282 0.72102 0.0
O206 O 0.91072 0.30449 0.7018 0.0
O207 O 0.949 0.34244 0.64544 0.0
Mg208 Mg 0.37146 0.71221 0.15848 0.0
C209 C 0.33727 0.77906 0.16216 0.0
O210 O 0.35492 0.78261 0.18858 0.0
C211 C 0.44471 0.73527 0.15829 0.0
O212 O 0.43322 0.76526 0.1545 0.0
C213 C 0.35126 0.68212 0.09642 0.0
O214 O 0.35949 0.71216 0.08841 0.0
O215 O 0.35338 0.67322 0.12636 0.0
O216 O 0.34363 0.75532 0.14278 0.0
O217 O 0.3594 0.71266 0.21061 0.0
C218 C 0.37721 0.69961 0.23253 0.0
O219 O 0.39877 0.67682 0.22419 0.0
O220 O 0.42511 0.71126 0.15829 0.0
Mg221 Mg 0.37192 0.84355 0.38536 0.0
C222 C 0.37074 0.79112 0.33685 0.0
O223 O 0.35803 0.81676 0.32192 0.0
C224 C 0.37076 0.87095 0.45499 0.0
O225 O 0.3669 0.89857 0.43874 0.0
C226 C 0.43606 0.87891 0.37359 0.0
O227 O 0.43855 0.87187 0.40492 0.0
O228 O 0.40954 0.87223 0.35907 0.0
O229 O 0.37998 0.79407 0.36638 0.0
O230 O 0.31997 0.84963 0.37291 0.0
C231 C 0.29802 0.85735 0.39413 0.0
O232 O 0.30664 0.87181 0.42126 0.0
O233 O 0.37594 0.84452 0.43903 0.0
Mg234 Mg 0.2324 0.86928 0.89332 0.0
C235 C 0.21386 0.88073 0.82217 0.0
O236 O 0.19945 0.90744 0.83332 0.0
C237 C 0.18865 0.82409 0.93641 0.0
O238 O 0.19372 0.80236 0.91311 0.0
C239 C 0.21251 0.94105 0.89557 0.0
O240 O 0.184 0.92689 0.89963 0.0
O241 O 0.23829 0.92305 0.89505 0.0
O242 O 0.22137 0.85793 0.8422 0.0
O243 O 0.27773 0.84069 0.90063 0.0
C244 C 0.27715 0.81148 0.88954 0.0
O245 O 0.25131 0.8021 0.87342 0.0
O246 O 0.19932 0.85312 0.9329 0.0
Mg247 Mg 0.12234 0.74135 0.40677 0.0
C248 C 0.11929 0.70912 0.33478 0.0
O249 O 0.10644 0.68232 0.34706 0.0
C250 C 0.13484 0.71671 0.47427 0.0
O251 O 0.11676 0.74317 0.47919 0.0
C252 C 0.05261 0.72323 0.41784 0.0
O253 O 0.06757 0.69465 0.42051 0.0
O254 O 0.06971 0.74894 0.41421 0.0
O255 O 0.12802 0.73205 0.35376 0.0
O256 O 0.15365 0.78406 0.41147 0.0
C257 C 0.1811 0.77906 0.39692 0.0
O258 O 0.18632 0.75089 0.38206 0.0
O259 O 0.14112 0.70771 0.44482 0.0
Mg260 Mg 0.30931 0.61988 0.90191 0.0
C261 C 0.27074 0.63462 0.84375 0.0
O262 O 0.30139 0.63885 0.83461 0.0
C263 C 0.32725 0.6231 0.97271 0.0
O264 O 0.35606 0.62198 0.95797 0.0
C265 C 0.32917 0.54862 0.8901 0.0
O266 O 0.30212 0.54518 0.90751 0.0
O267 O 0.33942 0.57754 0.88397 0.0
O268 O 0.26478 0.62349 0.87249 0.0
O269 O 0.32331 0.671 0.893 0.0
C270 C 0.34457 0.69038 0.90419 0.0
O271 O 0.36883 0.67903 0.92188 0.0
O272 O 0.3018 0.61893 0.95552 0.0
Mg273 Mg 0.13607 0.79213 0.13929 0.0
C274 C 0.13326 0.76275 0.20539 0.0
O275 O 0.14649 0.79159 0.20968 0.0
C276 C 0.14238 0.80431 0.06887 0.0
O277 O 0.1384 0.8335 0.08197 0.0
C278 C 0.06799 0.81775 0.1453 0.0
O279 O 0.06488 0.78582 0.14798 0.0
O280 O 0.09674 0.82932 0.14211 0.0
O281 O 0.12528 0.75431 0.17647 0.0
O282 O 0.18671 0.80366 0.15073 0.0
C283 C 0.20579 0.82618 0.1409 0.0
O284 O 0.19427 0.851 0.12381 0.0
O285 O 0.14035 0.77911 0.08736 0.0
Mg286 Mg 0.21562 0.65461 0.66233 0.0
C287 C 0.28535 0.68099 0.67894 0.0
O288 O 0.28869 0.65522 0.69805 0.0
C289 C 0.22477 0.58561 0.6857 0.0
O290 O 0.23103 0.60206 0.71248 0.0
C291 C 0.18886 0.6589 0.59295 0.0
O292 O 0.2075 0.63255 0.59001 0.0
O293 O 0.18605 0.67286 0.62089 0.0
O294 O 0.26022 0.68391 0.66098 0.0
O295 O 0.19598 0.65992 0.71257 0.0
C296 C 0.20739 0.681 0.73218 0.0
O297 O 0.22541 0.70441 0.7195 0.0
O298 O 0.22044 0.6012 0.65896 0.0
Mg299 Mg 0.34982 0.87738 0.66885 0.0
C300 C 0.33867 0.80763 0.66827 0.0
O301 O 0.31762 0.82081 0.64793 0.0
C302 C 0.3747 0.94464 0.68477 0.0
O303 O 0.35891 0.95013 0.65743 0.0
C304 C 0.33925 0.87947 0.59421 0.0
O305 O 0.30812 0.8783 0.60269 0.0
O306 O 0.36081 0.88048 0.61633 0.0
O307 O 0.35934 0.8261 0.68203 0.0
O308 O 0.29832 0.87968 0.68405 0.0
C309 C 0.28731 0.90278 0.70206 0.0
O310 O 0.30359 0.93024 0.7032 0.0
O311 O 0.37665 0.91535 0.69571 0.0
C312 C 0.1312 0.26467 0.81968 0.0
C313 C 0.16012 0.24493 0.82049 0.0
C314 C 0.19114 0.29108 0.7979 0.0
C315 C 0.16133 0.30663 0.78926 0.0
N316 N 0.10273 0.31069 0.7943 0.0
N317 N 0.21884 0.24052 0.81246 0.0
C318 C 0.13126 0.29463 0.80165 0.0
C319 C 0.19067 0.25882 0.81127 0.0
N320 N 0.10365 0.25413 0.83566 0.0
N321 N 0.21989 0.30716 0.79266 0.0
H322 H 0.22039 0.21758 0.82355 0.0
H323 H 0.24047 0.24757 0.80078 0.0
H324 H 0.22054 0.33072 0.78257 0.0
H325 H 0.24232 0.29874 0.80141 0.0
H326 H 0.08225 0.26814 0.83806 0.0
H327 H 0.1035 0.23237 0.84921 0.0
H328 H 0.0796 0.30119 0.79906 0.0
H329 H 0.10241 0.33326 0.78218 0.0
C330 C 0.70516 0.67464 0.3387 0.0
C331 C 0.70558 0.67379 0.3039 0.0
C332 C 0.76356 0.68796 0.30304 0.0
C333 C 0.76446 0.68497 0.33776 0.0
N334 N 0.73677 0.67254 0.38882 0.0
N335 N 0.7367 0.6731 0.25303 0.0
C336 C 0.73534 0.67775 0.35576 0.0
C337 C 0.73522 0.67856 0.28613 0.0
N338 N 0.67594 0.67286 0.35531 0.0
N339 N 0.78934 0.70121 0.28614 0.0
H340 H 0.71646 0.66663 0.23929 0.0
H341 H 0.75863 0.67226 0.23964 0.0
H342 H 0.81016 0.70964 0.29757 0.0
H343 H 0.78852 0.70729 0.26131 0.0
H344 H 0.67342 0.67659 0.38048 0.0
H345 H 0.65372 0.66989 0.34341 0.0
H346 H 0.71722 0.66384 0.40286 0.0
H347 H 0.75835 0.67481 0.40195 0.0
C348 C 0.34006 0.24433 0.82877 0.0
C349 C 0.3667 0.25827 0.84554 0.0
C350 C 0.40464 0.21944 0.81766 0.0
C351 C 0.37793 0.20628 0.80024 0.0
N352 N 0.32181 0.21189 0.78301 0.0
N353 N 0.42467 0.26151 0.85432 0.0
C354 C 0.34609 0.22036 0.80405 0.0
C355 C 0.39919 0.24681 0.83909 0.0
N356 N 0.3087 0.25346 0.83706 0.0
N357 N 0.43477 0.20452 0.81524 0.0
H358 H 0.42109 0.27987 0.87177 0.0
H359 H 0.44922 0.25708 0.84848 0.0
H360 H 0.43952 0.18432 0.80018 0.0
H361 H 0.45465 0.21056 0.82958 0.0
H362 H 0.28837 0.24022 0.83005 0.0
H363 H 0.30307 0.27304 0.85267 0.0
H364 H 0.29875 0.22304 0.78291 0.0
H365 H 0.32559 0.19586 0.76339 0.0
C366 C 0.72182 0.94829 0.20291 0.0
C367 C 0.70486 0.91909 0.20957 0.0
C368 C 0.75043 0.88697 0.18521 0.0
C369 C 0.7702 0.91531 0.18635 0.0
N370 N 0.77449 0.97379 0.19381 0.0
N371 N 0.69996 0.86095 0.20338 0.0
C372 C 0.75557 0.9464 0.1937 0.0
C373 C 0.71802 0.88856 0.19873 0.0
N374 N 0.70572 0.97764 0.20638 0.0
N375 N 0.763 0.85846 0.17243 0.0
H376 H 0.67571 0.86227 0.21171 0.0
H377 H 0.70885 0.83716 0.1999 0.0
H378 H 0.7867 0.85654 0.16278 0.0
H379 H 0.74928 0.83746 0.16889 0.0
H380 H 0.71576 1.00009 0.19979 0.0
H381 H 0.681 0.97897 0.21324 0.0
H382 H 0.76643 0.9965 0.20255 0.0
H383 H 0.79906 0.97334 0.1865 0.0
C384 C 0.88346 0.1865 0.29151 0.0
C385 C 0.88302 0.16143 0.26749 0.0
C386 C 0.86018 0.12355 0.30875 0.0
C387 C 0.85591 0.14987 0.33107 0.0
N388 N 0.8596 0.20812 0.34174 0.0
N389 N 0.86504 0.10726 0.25194 0.0
C390 C 0.86685 0.18179 0.32214 0.0
C391 C 0.87016 0.13008 0.2758 0.0
N392 N 0.90009 0.21474 0.28519 0.0
N393 N 0.85469 0.09217 0.3191 0.0
H394 H 0.87009 0.11122 0.22716 0.0
H395 H 0.85248 0.08555 0.25621 0.0
H396 H 0.84752 0.08661 0.34314 0.0
H397 H 0.86047 0.0716 0.30492 0.0
H398 H 0.90415 0.23253 0.30292 0.0
H399 H 0.91257 0.2189 0.26308 0.0
H400 H 0.86317 0.23232 0.33438 0.0
H401 H 0.84754 0.20624 0.36429 0.0
C402 C 0.9284 0.31867 0.77407 0.0
C403 C 0.89853 0.32189 0.75699 0.0
C404 C 0.86932 0.29709 0.80374 0.0
C405 C 0.89979 0.28828 0.81786 0.0
N406 N 0.95876 0.29097 0.81701 0.0
N407 N 0.84018 0.3148 0.75511 0.0
C408 C 0.92947 0.29983 0.8036 0.0
C409 C 0.86874 0.3119 0.77201 0.0
N410 N 0.95577 0.3335 0.76169 0.0
N411 N 0.84097 0.29124 0.8209 0.0
H412 H 0.83882 0.32657 0.73241 0.0
H413 H 0.81824 0.3043 0.76273 0.0
H414 H 0.84092 0.28095 0.84438 0.0
H415 H 0.81795 0.29925 0.8134 0.0
H416 H 0.97789 0.33454 0.77397 0.0
H417 H 0.95536 0.34744 0.74018 0.0
H418 H 0.98137 0.29492 0.80565 0.0
H419 H 0.96047 0.2781 0.83901 0.0
C420 C 0.70505 0.44962 0.31241 0.0
C421 C 0.71688 0.42106 0.32841 0.0
C422 C 0.69911 0.3869 0.28274 0.0
C423 C 0.69097 0.41578 0.26513 0.0
N424 N 0.67611 0.47281 0.26572 0.0
N425 N 0.71602 0.36253 0.33447 0.0
C426 C 0.6902 0.44656 0.28114 0.0
C427 C 0.71039 0.38961 0.3155 0.0
N428 N 0.71016 0.47962 0.32611 0.0
N429 N 0.69835 0.35729 0.2672 0.0
H430 H 0.72438 0.36437 0.35849 0.0
H431 H 0.71 0.3388 0.32765 0.0
H432 H 0.68899 0.35477 0.24366 0.0
H433 H 0.70775 0.3356 0.277 0.0
H434 H 0.70557 0.5018 0.31425 0.0
H435 H 0.71999 0.48215 0.34944 0.0
H436 H 0.67289 0.49581 0.27639 0.0
H437 H 0.66518 0.47053 0.24284 0.0
C438 C 0.65463 0.2194 0.76134 0.0
C439 C 0.68125 0.23119 0.74208 0.0
C440 C 0.6966 0.26643 0.78822 0.0
C441 C 0.66749 0.25776 0.80544 0.0
N442 N 0.61407 0.23309 0.80292 0.0
N443 N 0.7214 0.27421 0.73472 0.0
C444 C 0.64502 0.23647 0.79026 0.0
C445 C 0.7006 0.25707 0.75473 0.0
N446 N 0.63928 0.1911 0.75302 0.0
N447 N 0.72113 0.28231 0.80382 0.0
H448 H 0.72309 0.27073 0.70946 0.0
H449 H 0.73383 0.29485 0.74263 0.0
H450 H 0.71989 0.28875 0.82852 0.0
H451 H 0.74406 0.28605 0.79293 0.0
H452 H 0.62148 0.18028 0.76797 0.0
H453 H 0.64705 0.17632 0.7335 0.0
H454 H 0.596 0.21997 0.79104 0.0
H455 H 0.60538 0.24656 0.82304 0.0
C456 C 0.2817 0.79723 0.18419 0.0
C457 C 0.3057 0.7974 0.15847 0.0
C458 C 0.26491 0.82085 0.12106 0.0
C459 C 0.24149 0.82208 0.14728 0.0
N460 N 0.23107 0.82094 0.20556 0.0
N461 N 0.32235 0.81711 0.10513 0.0
C462 C 0.25119 0.81356 0.17945 0.0
C463 C 0.298 0.81186 0.1278 0.0
N464 N 0.28658 0.77929 0.21213 0.0
N465 N 0.25541 0.82593 0.08943 0.0
H466 H 0.34683 0.81108 0.10948 0.0
H467 H 0.3188 0.83037 0.08356 0.0
H468 H 0.23158 0.83219 0.08295 0.0
H469 H 0.27067 0.82127 0.06923 0.0
H470 H 0.26826 0.77564 0.22979 0.0
H471 H 0.30743 0.76502 0.21631 0.0
H472 H 0.23813 0.81791 0.22985 0.0
H473 H 0.20879 0.83345 0.20289 0.0
C474 C 0.23706 0.853 0.38576 0.0
C475 C 0.26729 0.83834 0.39495 0.0
C476 C 0.23845 0.7891 0.41327 0.0
C477 C 0.20901 0.80176 0.39999 0.0
N478 N 0.18034 0.84464 0.37091 0.0
N479 N 0.29754 0.79035 0.41312 0.0
C480 C 0.20817 0.8336 0.38576 0.0
C481 C 0.26821 0.80578 0.40746 0.0
N482 N 0.236 0.88539 0.37716 0.0
N483 N 0.23775 0.76154 0.43247 0.0
H484 H 0.32013 0.80157 0.40985 0.0
H485 H 0.29962 0.76541 0.41845 0.0
H486 H 0.21615 0.74916 0.43805 0.0
H487 H 0.25779 0.75307 0.44571 0.0
H488 H 0.21428 0.89846 0.37349 0.0
H489 H 0.25691 0.89981 0.37586 0.0
H490 H 0.17923 0.866 0.3569 0.0
H491 H 0.15872 0.83129 0.37085 0.0
C492 C 0.31207 0.77581 0.92613 0.0
C493 C 0.30441 0.78723 0.89419 0.0
C494 C 0.33537 0.74074 0.87009 0.0
C495 C 0.33752 0.72629 0.90166 0.0
N496 N 0.32871 0.72993 0.96029 0.0
N497 N 0.31234 0.7839 0.83571 0.0
C498 C 0.32694 0.74418 0.92995 0.0
C499 C 0.31763 0.77084 0.86614 0.0
N500 N 0.30452 0.79481 0.95284 0.0
N501 N 0.35035 0.72538 0.84402 0.0
H502 H 0.30181 0.80712 0.8324 0.0
H503 H 0.31778 0.7719 0.81379 0.0
H504 H 0.36384 0.70362 0.84665 0.0
H505 H 0.35159 0.73498 0.82039 0.0
H506 H 0.31242 0.78958 0.97646 0.0
H507 H 0.29272 0.81751 0.95124 0.0
H508 H 0.31756 0.7396 0.9813 0.0
H509 H 0.33991 0.70727 0.96452 0.0
C510 C 0.3249 0.7186 0.65061 0.0
C511 C 0.30871 0.70876 0.68 0.0
C512 C 0.32178 0.76147 0.70562 0.0
C513 C 0.33597 0.77203 0.67548 0.0
N514 N 0.35907 0.75872 0.62262 0.0
N515 N 0.29977 0.71681 0.73824 0.0
C516 C 0.34029 0.74974 0.64911 0.0
C517 C 0.31015 0.72874 0.70854 0.0
N518 N 0.32457 0.69847 0.62385 0.0
N519 N 0.31708 0.78347 0.73057 0.0
H520 H 0.29017 0.69349 0.74141 0.0
H521 H 0.30318 0.72892 0.76036 0.0
H522 H 0.32615 0.80724 0.72975 0.0
H523 H 0.30272 0.7789 0.75135 0.0
H524 H 0.33226 0.70548 0.60045 0.0
H525 H 0.31553 0.67465 0.62493 0.0
H526 H 0.36542 0.74308 0.60336 0.0
H527 H 0.37073 0.78134 0.62134 0.0
C528 C 0.879 0.78401 0.22842 0.0
C529 C 0.87247 0.81616 0.24048 0.0
C530 C 0.87605 0.79456 0.29638 0.0
C531 C 0.87536 0.76185 0.28423 0.0
N532 N 0.86941 0.7264 0.23702 0.0
N533 N 0.85916 0.85076 0.28706 0.0
C534 C 0.87523 0.75669 0.24976 0.0
C535 C 0.86965 0.82122 0.27481 0.0
N536 N 0.88974 0.77945 0.19684 0.0
N537 N 0.8836 0.80041 0.32834 0.0
H538 H 0.85253 0.87059 0.27232 0.0
H539 H 0.85367 0.85436 0.31186 0.0
H540 H 0.89019 0.78181 0.3446 0.0
H541 H 0.88717 0.82393 0.33748 0.0
H542 H 0.89735 0.75662 0.18789 0.0
H543 H 0.89494 0.7989 0.18102 0.0
H544 H 0.86606 0.72257 0.21202 0.0
H545 H 0.86418 0.70587 0.25128 0.0
C546 C 0.28055 0.32683 0.72037 0.0
C547 C 0.27576 0.35682 0.70338 0.0
C548 C 0.32357 0.37964 0.73068 0.0
C549 C 0.32352 0.35254 0.75243 0.0
N550 N 0.30523 0.29842 0.76649 0.0
N551 N 0.29487 0.41086 0.6891 0.0
C552 C 0.3035 0.32515 0.74632 0.0
C553 C 0.2985 0.38266 0.70689 0.0
N554 N 0.2624 0.30036 0.71184 0.0
N555 N 0.34776 0.40235 0.73295 0.0
H556 H 0.27884 0.41295 0.66962 0.0
H557 H 0.30728 0.43242 0.69389 0.0
H558 H 0.36647 0.40022 0.75004 0.0
H559 H 0.3511 0.42148 0.71635 0.0
H560 H 0.26535 0.27708 0.72184 0.0
H561 H 0.2459 0.30131 0.69251 0.0
H562 H 0.2891 0.27894 0.76582 0.0
H563 H 0.32259 0.29621 0.78486 0.0
C564 C 0.65588 0.79193 0.26078 0.0
C565 C 0.6346 0.81561 0.24649 0.0
C566 C 0.63662 0.78477 0.19478 0.0
C567 C 0.66107 0.76378 0.20772 0.0
N568 N 0.69862 0.75109 0.25114 0.0
N569 N 0.61232 0.83885 0.19653 0.0
C570 C 0.67194 0.76823 0.24029 0.0
C571 C 0.62664 0.81306 0.21265 0.0
N572 N 0.66024 0.79157 0.29392 0.0
N573 N 0.6231 0.77794 0.16514 0.0
H574 H 0.60786 0.86168 0.20723 0.0
H575 H 0.60894 0.83917 0.17125 0.0
H576 H 0.63037 0.7578 0.15093 0.0
H577 H 0.60258 0.79038 0.1563 0.0
H578 H 0.67303 0.77294 0.30596 0.0
H579 H 0.64843 0.80817 0.30969 0.0
H580 H 0.70982 0.75581 0.27341 0.0
H581 H 0.71099 0.7337 0.23671 0.0
C582 C 0.27506 0.17227 0.71225 0.0
C583 C 0.28982 0.14094 0.70754 0.0
C584 C 0.23713 0.11522 0.72138 0.0
C585 C 0.22543 0.14573 0.73375 0.0
N586 N 0.2336 0.20383 0.74158 0.0
N587 N 0.28342 0.08283 0.7007 0.0
C588 C 0.24412 0.17457 0.72869 0.0
C589 C 0.2701 0.1125 0.70955 0.0
N590 N 0.29021 0.19979 0.70088 0.0
N591 N 0.21651 0.08908 0.7209 0.0
H592 H 0.30629 0.08083 0.689 0.0
H593 H 0.27234 0.06039 0.70515 0.0
H594 H 0.19217 0.09081 0.729 0.0
H595 H 0.22241 0.06655 0.71031 0.0
H596 H 0.27913 0.22292 0.70124 0.0
H597 H 0.31176 0.19906 0.68697 0.0
H598 H 0.24835 0.22442 0.74263 0.0
H599 H 0.2111 0.2071 0.75353 0.0
C600 C 0.23292 0.89655 0.73158 0.0
C601 C 0.26755 0.89364 0.73135 0.0
C602 C 0.26692 0.88235 0.79029 0.0
C603 C 0.23206 0.88289 0.79042 0.0
N604 N 0.18164 0.88585 0.76056 0.0
N605 N 0.31688 0.87567 0.75847 0.0
C606 C 0.21495 0.88862 0.7608 0.0
C607 C 0.28427 0.88375 0.76002 0.0
N608 N 0.21738 0.9076 0.70415 0.0
N609 N 0.28373 0.88317 0.81908 0.0
H610 H 0.33096 0.87706 0.73698 0.0
H611 H 0.32923 0.86458 0.77784 0.0
H612 H 0.27253 0.88443 0.84214 0.0
H613 H 0.30896 0.88648 0.82005 0.0
H614 H 0.19256 0.91367 0.70363 0.0
H615 H 0.22991 0.91253 0.68222 0.0
H616 H 0.16787 0.88673 0.73928 0.0
H617 H 0.16794 0.88002 0.78154 0.0
C618 C 0.09484 0.71811 0.27875 0.0
C619 C 0.12304 0.71414 0.29857 0.0
C620 C 0.15786 0.73142 0.25199 0.0
C621 C 0.12944 0.7407 0.23442 0.0
N622 N 0.07065 0.74393 0.23094 0.0
N623 N 0.18168 0.71521 0.30394 0.0
C624 C 0.09785 0.73366 0.24743 0.0
C625 C 0.15468 0.71998 0.28496 0.0
N626 N 0.0651 0.70754 0.29 0.0
N627 N 0.18787 0.7332 0.23678 0.0
H628 H 0.18046 0.70428 0.32709 0.0
H629 H 0.20506 0.72299 0.29738 0.0
H630 H 0.19076 0.74099 0.21251 0.0
H631 H 0.20951 0.72438 0.24691 0.0
H632 H 0.04435 0.70659 0.27552 0.0
H633 H 0.06154 0.69708 0.31307 0.0
H634 H 0.04704 0.74364 0.2409 0.0
H635 H 0.07182 0.75472 0.20777 0.0
C636 C 0.22275 0.62804 0.80597 0.0
C637 C 0.24453 0.64873 0.82275 0.0
C638 C 0.22631 0.69548 0.78902 0.0
C639 C 0.21016 0.67328 0.76824 0.0
N640 N 0.17699 0.62502 0.76886 0.0
N641 N 0.26303 0.70325 0.8347 0.0
C642 C 0.20327 0.64146 0.78039 0.0
C643 C 0.24459 0.683 0.81596 0.0
N644 N 0.22214 0.59529 0.81298 0.0
N645 N 0.22274 0.72839 0.78359 0.0
H646 H 0.27442 0.69522 0.85605 0.0
H647 H 0.26751 0.72769 0.82907 0.0
H648 H 0.20685 0.73757 0.76585 0.0
H649 H 0.23246 0.74649 0.79836 0.0
H650 H 0.20981 0.57837 0.79874 0.0
H651 H 0.23551 0.58484 0.83204 0.0
H652 H 0.16912 0.60279 0.77862 0.0
H653 H 0.1605 0.636 0.75274 0.0
C654 C 0.40449 0.7488 0.30695 0.0
C655 C 0.37343 0.7597 0.31862 0.0
C656 C 0.34685 0.72066 0.28213 0.0
C657 C 0.37727 0.71511 0.26564 0.0
N658 N 0.43551 0.72604 0.26133 0.0
N659 N 0.31474 0.755 0.31948 0.0
C660 C 0.40643 0.72901 0.27822 0.0
C661 C 0.34451 0.74496 0.30711 0.0
N662 N 0.43215 0.75824 0.32264 0.0
N663 N 0.32034 0.70244 0.27392 0.0
H664 H 0.31245 0.77101 0.33937 0.0
H665 H 0.29246 0.74851 0.30943 0.0
H666 H 0.32169 0.68405 0.25616 0.0
H667 H 0.29804 0.70331 0.28661 0.0
H668 H 0.45533 0.74846 0.31743 0.0
H669 H 0.43154 0.7734 0.34318 0.0
H670 H 0.45652 0.73864 0.26758 0.0
H671 H 0.43849 0.71335 0.2394 0.0
C672 C 0.75007 0.21126 0.88848 0.0
C673 C 0.73391 0.21557 0.91924 0.0
C674 C 0.78674 0.21223 0.94686 0.0
C675 C 0.80304 0.2142 0.9159 0.0
N676 N 0.80031 0.21728 0.85682 0.0
N677 N 0.73603 0.22002 0.97794 0.0
C678 C 0.78481 0.21343 0.8865 0.0
C679 C 0.75201 0.21555 0.94858 0.0
N680 N 0.73207 0.20571 0.86108 0.0
N681 N 0.80459 0.20687 0.97452 0.0
H682 H 0.71051 0.2208 0.98 0.0
H683 H 0.74791 0.22441 0.99989 0.0
H684 H 0.83 0.20372 0.97386 0.0
H685 H 0.79413 0.20247 0.99753 0.0
H686 H 0.74238 0.19956 0.83837 0.0
H687 H 0.70662 0.20411 0.8618 0.0
H688 H 0.788 0.22131 0.83496 0.0
H689 H 0.82564 0.21879 0.85413 0.0
C690 C 0.79956 0.27432 0.64889 0.0
C691 C 0.80356 0.3075 0.63944 0.0
C692 C 0.7492 0.30781 0.61415 0.0
C693 C 0.7467 0.27386 0.62084 0.0
N694 N 0.77073 0.22348 0.64157 0.0
N695 N 0.78439 0.35496 0.6092 0.0
C696 C 0.77234 0.2567 0.63716 0.0
C697 C 0.7789 0.3241 0.62114 0.0
N698 N 0.82063 0.26022 0.67076 0.0
N699 N 0.72308 0.32452 0.60135 0.0
H700 H 0.80585 0.36778 0.61334 0.0
H701 H 0.76912 0.3668 0.5926 0.0
H702 H 0.70147 0.31307 0.59469 0.0
H703 H 0.72185 0.34998 0.59947 0.0
H704 H 0.81679 0.23744 0.68165 0.0
H705 H 0.84045 0.27251 0.68059 0.0
H706 H 0.79051 0.20915 0.64921 0.0
H707 H 0.75029 0.2097 0.63586 0.0
C708 C 0.77344 0.30891 0.1259 0.0
C709 C 0.7718 0.33309 0.15096 0.0
C710 C 0.79991 0.29511 0.1882 0.0
C711 C 0.80641 0.27341 0.16164 0.0
N712 N 0.80246 0.26166 0.10369 0.0
N713 N 0.78711 0.35075 0.20507 0.0
C714 C 0.79381 0.28066 0.13009 0.0
C715 C 0.78583 0.32654 0.18198 0.0
N716 N 0.75453 0.31219 0.09865 0.0
N717 N 0.80647 0.2853 0.21954 0.0
H718 H 0.77797 0.37442 0.20122 0.0
H719 H 0.80002 0.34831 0.22681 0.0
H720 H 0.81582 0.26202 0.22505 0.0
H721 H 0.79936 0.29876 0.2402 0.0
H722 H 0.75221 0.29368 0.08129 0.0
H723 H 0.73845 0.33191 0.09505 0.0
H724 H 0.79718 0.26823 0.07961 0.0
H725 H 0.81738 0.24083 0.10533 0.0
C726 C 0.80095 0.30057 0.4101 0.0
C727 C 0.7998 0.31638 0.37905 0.0
C728 C 0.78351 0.26427 0.3541 0.0
C729 C 0.78084 0.24982 0.38578 0.0
N730 N 0.77963 0.25725 0.44452 0.0
N731 N 0.78252 0.3146 0.32252 0.0
C732 C 0.78728 0.26896 0.41395 0.0
C733 C 0.78901 0.29864 0.35125 0.0
N734 N 0.81638 0.31511 0.43571 0.0
N735 N 0.78244 0.24516 0.32667 0.0
H736 H 0.78499 0.33983 0.31949 0.0
H737 H 0.77141 0.30327 0.30275 0.0
H738 H 0.77908 0.21988 0.32749 0.0
H739 H 0.78797 0.25402 0.30325 0.0
H740 H 0.82048 0.30329 0.45799 0.0
H741 H 0.82839 0.33745 0.43352 0.0
H742 H 0.78088 0.27149 0.46565 0.0
H743 H 0.76863 0.2346 0.44835 0.0
C744 C 0.18879 0.54217 0.70951 0.0
C745 C 0.21562 0.5506 0.68873 0.0
C746 C 0.22538 0.49235 0.67737 0.0
C747 C 0.20264 0.48399 0.70272 0.0
N748 N 0.16501 0.50148 0.74565 0.0
N749 N 0.2612 0.53372 0.65429 0.0
C750 C 0.18474 0.50903 0.71941 0.0
C751 C 0.23433 0.52569 0.67284 0.0
N752 N 0.16644 0.56572 0.71878 0.0
N753 N 0.2373 0.46858 0.65669 0.0
H754 H 0.26809 0.55793 0.65001 0.0
H755 H 0.2779 0.51636 0.64517 0.0
H756 H 0.22969 0.4443 0.65809 0.0
H757 H 0.25174 0.47356 0.63605 0.0
H758 H 0.14477 0.5605 0.73143 0.0
H759 H 0.16782 0.58993 0.7106 0.0
H760 H 0.15432 0.51923 0.76089 0.0
H761 H 0.16158 0.47756 0.75397 0.0
C762 C 0.49724 0.7461 0.18894 0.0
C763 C 0.48032 0.72888 0.16411 0.0
C764 C 0.52815 0.69234 0.15668 0.0
C765 C 0.54618 0.71152 0.17897 0.0
N766 N 0.54967 0.76068 0.21156 0.0
N767 N 0.48308 0.69081 0.11886 0.0
C768 C 0.53125 0.73959 0.19374 0.0
C769 C 0.4968 0.7035 0.14638 0.0
N770 N 0.48065 0.76742 0.20921 0.0
N771 N 0.54026 0.66263 0.14636 0.0
H772 H 0.46084 0.69929 0.10962 0.0
H773 H 0.49546 0.67454 0.10322 0.0
H774 H 0.56248 0.6528 0.15431 0.0
H775 H 0.52664 0.64618 0.13279 0.0
H776 H 0.49108 0.77795 0.22976 0.0
H777 H 0.45558 0.77207 0.20776 0.0
H778 H 0.54105 0.7835 0.21954 0.0
H779 H 0.57449 0.75676 0.21591 0.0
C780 C 0.41314 0.99231 0.68673 0.0
C781 C 0.3887 0.97316 0.70248 0.0
C782 C 0.37753 1.01792 0.7415 0.0
C783 C 0.40212 0.03712 0.72587 0.0
N784 N 0.44896 0.03932 0.68934 0.0
N785 N 0.35487 0.9639 0.75052 0.0
C786 C 0.42171 0.02322 0.70024 0.0
C787 C 0.37348 0.98462 0.73189 0.0
N788 N 0.42774 0.98117 0.65843 0.0
N789 N 0.3563 0.03202 0.76374 0.0
H790 H 0.35163 0.93937 0.74448 0.0
H791 H 0.34562 0.97 0.77369 0.0
H792 H 0.35756 0.05644 0.77098 0.0
H793 H 0.33551 1.02034 0.77282 0.0
H794 H 0.44253 0.99559 0.64337 0.0
H795 H 0.42385 0.9577 0.64922 0.0
H796 H 0.46598 0.02928 0.67284 0.0
H797 H 0.45629 0.06159 0.69925 0.0
C798 C 1.01025 0.82792 0.12684 0.0
C799 C 0.03776 0.83891 0.14458 0.0
C800 C 1.0046 0.88598 0.16337 0.0
C801 C 0.97568 0.8706 0.15245 0.0
N802 N 0.9513 0.82377 0.12622 0.0
N803 N 0.05947 0.87761 0.18339 0.0
C804 C 0.9785 0.84091 0.13441 0.0
C805 C 0.03473 0.86803 0.1635 0.0
N806 N 1.01448 0.80552 0.10222 0.0
N807 N 1.00332 0.91791 0.17342 0.0
H808 H 0.08147 0.86469 0.18564 0.0
H809 H 0.05681 0.89675 0.20015 0.0
H810 H 0.9819 0.93212 0.17234 0.0
H811 H 0.02415 0.93118 0.17904 0.0
H812 H 0.99562 0.79877 0.08675 0.0
H813 H 0.03756 0.79685 0.09476 0.0
H814 H 0.95259 0.8002 0.11639 0.0
H815 H 0.9275 0.83155 0.13178 0.0
C816 C 0.22867 0.98947 0.85921 0.0
C817 C 0.21311 0.97709 0.88816 0.0
C818 C 0.18298 0.02951 0.89471 0.0
C819 C 0.198 0.04146 0.86551 0.0
N820 N 0.24293 0.03737 0.82683 0.0
N821 N 0.18418 0.98922 0.93865 0.0
C822 C 0.22346 1.02287 0.8501 0.0
C823 C 0.19314 0.9985 0.90761 0.0
N824 N 0.24657 0.96917 0.839 0.0
N825 N 0.15772 0.04668 0.90914 0.0
H826 H 0.192 0.96707 0.949 0.0
H827 H 0.17212 1.00479 0.95521 0.0
H828 H 0.14989 0.06961 0.90088 0.0
H829 H 0.14314 0.03724 0.928 0.0
H830 H 0.25435 0.97597 0.81553 0.0
H831 H 0.25197 0.9448 0.84433 0.0
H832 H 0.26393 0.02622 0.81693 0.0
H833 H 0.24008 0.06196 0.82011 0.0
C834 C 0.96194 0.70588 0.4315 0.0
C835 C 0.94893 0.71601 0.40099 0.0
C836 C 1.00369 0.73313 0.38225 0.0
C837 C 1.01653 0.72411 0.41324 0.0
N838 N 1.00751 0.7073 0.46923 0.0
N839 N 0.95619 0.74345 0.34879 0.0
C840 C 0.99548 0.71206 0.43844 0.0
C841 C 0.96939 0.73127 0.37702 0.0
N842 N 0.94238 0.68969 0.45352 0.0
N843 N 0.02449 0.74105 0.35688 0.0
H844 H 0.93204 0.73973 0.34214 0.0
H845 H 0.96865 0.75898 0.33275 0.0
H846 H 0.04982 0.74228 0.35911 0.0
H847 H 1.0171 0.74381 0.33269 0.0
H848 H 0.95106 0.67827 0.47459 0.0
H849 H 0.91747 0.68604 0.44973 0.0
H850 H 0.99302 0.70149 0.48959 0.0
H851 H 0.03183 0.71189 0.47506 0.0
C852 C 0.36281 0.49692 0.899 0.0
C853 C 0.34633 0.51852 0.87712 0.0
C854 C 0.35158 0.47697 0.83347 0.0
C855 C 0.36975 0.45605 0.85477 0.0
N856 N 0.39803 0.44895 0.90583 0.0
N857 N 0.32966 0.53148 0.82211 0.0
C858 C 0.37679 0.4668 0.88704 0.0
C859 C 0.34241 0.50933 0.84385 0.0
N860 N 0.36479 0.50505 0.93142 0.0
N861 N 0.34122 0.46522 0.80404 0.0
H862 H 0.32156 0.55487 0.82897 0.0
H863 H 0.32956 0.52773 0.79686 0.0
H864 H 0.34637 0.44148 0.79591 0.0
H865 H 0.32491 0.47778 0.789 0.0
H866 H 0.37266 0.48877 0.94946 0.0
H867 H 0.3568 0.52767 0.94065 0.0
H868 H 0.40697 0.45707 0.92813 0.0
H869 H 0.40913 0.42716 0.89782 0.0
C870 C 0.4903 0.85988 0.35055 0.0
C871 C 0.46662 0.88549 0.35427 0.0
C872 C 0.50564 0.92497 0.3306 0.0
C873 C 0.52961 0.89948 0.32768 0.0
N874 N 0.54299 0.84171 0.32856 0.0
N875 N 0.44879 0.94057 0.34223 0.0
C876 C 0.52132 0.86663 0.33576 0.0
C877 C 0.47334 0.91746 0.34229 0.0
N878 N 0.4833 0.8291 0.36194 0.0
N879 N 0.51431 0.95659 0.32392 0.0
H880 H 0.42527 0.93585 0.35127 0.0
H881 H 0.45085 0.96348 0.33116 0.0
H882 H 0.53746 0.96282 0.31492 0.0
H883 H 0.49938 0.97689 0.32891 0.0
H884 H 0.50063 0.81036 0.36434 0.0
H885 H 0.46008 0.82245 0.37041 0.0
H886 H 0.53733 0.81694 0.33007 0.0
H887 H 0.56625 0.84565 0.31863 0.0
C888 C 0.71968 0.13516 0.54881 0.0
C889 C 0.6981 0.1628 0.54978 0.0
C890 C 0.71581 0.17805 0.4939 0.0
C891 C 0.73889 0.15167 0.49364 0.0
N892 N 0.76614 0.10761 0.5221 0.0
N893 N 0.68217 0.21515 0.52647 0.0
C894 C 0.74189 0.131 0.52157 0.0
C895 C 0.69787 0.18544 0.52316 0.0
N896 N 0.71811 0.11232 0.57334 0.0
N897 N 0.71079 0.19616 0.46608 0.0
H898 H 0.66981 0.22252 0.54779 0.0
H899 H 0.68443 0.23411 0.50945 0.0
H900 H 0.72451 0.19309 0.44453 0.0
H901 H 0.69133 0.2127 0.46355 0.0
H902 H 0.73065 0.08994 0.57264 0.0
H903 H 0.70227 0.11472 0.59353 0.0
H904 H 0.77201 0.09396 0.54286 0.0
H905 H 0.78197 0.10334 0.50219 0.0
C906 C 0.94041 0.2179 0.06015 0.0
C907 C 0.9169 0.23508 0.0798 0.0
C908 C 0.89584 0.26267 0.03048 0.0
C909 C 0.92059 0.24697 1.01107 0.0
N910 N 0.9703 0.21453 1.00825 0.0
N911 N 0.87608 0.27839 0.08454 0.0
C912 C 0.944 0.22594 0.02618 0.0
C913 C 0.89606 0.25911 0.06526 0.0
N914 N 0.95906 0.19356 0.0739 0.0
N915 N 0.87064 0.27908 1.01563 0.0
H916 H 0.87376 0.27556 0.10984 0.0
H917 H 0.86347 0.29888 0.07572 0.0
H918 H 0.86888 0.28168 0.99028 0.0
H919 H 0.84976 0.28745 0.02817 0.0
H920 H 0.97376 0.1774 0.06028 0.0
H921 H 0.95843 0.1883 0.09896 0.0
H922 H 0.98995 0.20178 1.01841 0.0
H923 H 0.97396 0.2204 0.98357 0.0
C924 C 0.84059 0.3737 0.54673 0.0
C925 C 0.8613 0.39592 0.56332 0.0
C926 C 0.85027 0.43776 0.52113 0.0
C927 C 0.83003 0.41533 0.50443 0.0
N928 N 0.79984 0.36498 0.50496 0.0
N929 N 0.88081 0.45087 0.57018 0.0
C930 C 0.82306 0.38437 0.5186 0.0
C931 C 0.86425 0.42867 0.55188 0.0
N932 N 0.83862 0.34185 0.55715 0.0
N933 N 0.85703 0.46733 0.50686 0.0
H934 H 0.89206 0.44466 0.59218 0.0
H935 H 0.88146 0.47585 0.56495 0.0
H936 H 0.84579 0.47532 0.48538 0.0
H937 H 0.8746 0.48336 0.51537 0.0
H938 H 0.82792 0.32328 0.54369 0.0
H939 H 0.84887 0.33347 0.57891 0.0
H940 H 0.79094 0.34378 0.51601 0.0
H941 H 0.78724 0.37145 0.48382 0.0
C942 C 0.6763 0.37938 0.99795 0.0
C943 C 0.66415 0.34689 0.99813 0.0
C944 C 0.65957 0.34864 0.05825 0.0
C945 C 0.67023 0.38171 0.05818 0.0
N946 N 0.67835 0.43126 0.02676 0.0
N947 N 0.63232 0.3066 0.02759 0.0
C948 C 0.67518 0.39796 0.02758 0.0
C949 C 0.65184 0.33355 0.02802 0.0
N950 N 0.69067 0.39201 0.97031 0.0
N951 N 0.6591 0.33047 0.08646 0.0
H952 H 0.62466 0.29593 1.0058 0.0
H953 H 0.62061 0.29756 0.04857 0.0
H954 H 0.66658 0.33919 0.10906 0.0
H955 H 0.65469 0.30534 0.08661 0.0
H956 H 0.70306 0.41419 0.9701 0.0
H957 H 0.69276 0.37919 0.94831 0.0
H958 H 0.67923 0.44468 1.00498 0.0
H959 H 0.67627 0.44571 0.0478 0.0
C960 C 0.84967 0.54737 0.33369 0.0
C961 C 0.87371 0.56293 0.35288 0.0
C962 C 0.88381 0.51137 0.38267 0.0
C963 C 0.85958 0.49584 0.3637 0.0
N964 N 0.82573 0.49625 0.31587 0.0
N965 N 0.91964 0.55799 0.38885 0.0
C966 C 0.84463 0.51299 0.3374 0.0
C967 C 0.89281 0.5442 0.37507 0.0
N968 N 0.8302 0.5657 0.31351 0.0
N969 N 0.89663 0.49569 0.40934 0.0
H970 H 0.92684 0.58191 0.38345 0.0
H971 H 0.93644 0.54486 0.40287 0.0
H972 H 0.89075 0.47174 0.4159 0.0
H973 H 0.91127 0.50721 0.42642 0.0
H974 H 0.80958 0.55656 0.30211 0.0
H975 H 0.8334 0.59074 0.30966 0.0
H976 H 0.81657 0.50652 0.29441 0.0
H977 H 0.82181 0.47108 0.3179 0.0
C978 C 0.49605 0.31207 0.90242 0.0
C979 C 0.48786 0.32876 0.87284 0.0
C980 C 0.54428 0.32013 0.85295 0.0
C981 C 0.55364 0.30937 0.88463 0.0
N982 N 0.53863 0.29822 0.94101 0.0
N983 N 0.50607 0.35272 0.8215 0.0
C984 C 0.52955 0.30582 0.90974 0.0
C985 C 0.51239 0.33357 0.84829 0.0
N986 N 0.47187 0.30118 0.9231 0.0
N987 N 0.56588 0.31722 0.82716 0.0
H988 H 0.48362 0.36447 0.81771 0.0
H989 H 0.52415 0.35972 0.8047 0.0
H990 H 0.58922 0.30684 0.82963 0.0
H991 H 0.55941 0.32175 0.80292 0.0
H992 H 0.47644 0.28608 0.94322 0.0
H993 H 0.44701 0.30416 0.91829 0.0
H994 H 0.52245 0.29927 0.961 0.0
H995 H 0.5628 0.29333 0.94749 0.0
C996 C 0.67266 0.04629 0.36753 0.0
C997 C 0.70332 0.05714 0.35496 0.0
C998 C 0.70207 1.01476 0.31211 0.0
C999 C 0.67194 1.00319 0.32537 0.0
N1000 N 0.6304 1.0047 0.36784 0.0
N1001 N 0.74976 0.04911 0.31853 0.0
C1002 C 0.65785 1.01796 0.35383 0.0
C1003 C 0.71866 0.04076 0.328 0.0
N1004 N 0.6572 0.06391 0.39187 0.0
N1005 N 0.71479 1.00081 0.28415 0.0
H1006 H 0.76249 0.06829 0.32913 0.0
H1007 H 0.76396 0.03585 0.30167 0.0
H1008 H 0.70507 0.97981 0.27373 0.0
H1009 H 0.7341 1.01058 0.27053 0.0
H1010 H 0.63342 0.05957 0.40014 0.0
H1011 H 0.66733 0.08473 0.4023 0.0
H1012 H 0.62057 1.01198 0.3904 0.0
H1013 H 0.61855 0.98457 0.35795 0.0
C1014 C 0.06287 0.17051 0.88188 0.0
C1015 C 0.0646 0.14736 0.8559 0.0
C1016 C 1.00681 0.15921 0.84356 0.0
C1017 C 1.00456 0.17981 0.87162 0.0
N1018 N 0.02838 0.19795 0.92216 0.0
N1019 N 0.03727 0.11632 0.81448 0.0
C1020 C 0.03198 0.18328 0.89218 0.0
C1021 C 0.03626 0.14073 0.83739 0.0
N1022 N 0.09089 0.18184 0.89565 0.0
N1023 N 0.98144 0.15836 0.82211 0.0
H1024 H 0.05849 0.10267 0.80923 0.0
H1025 H 1.01662 0.10796 0.80256 0.0
H1026 H 0.95961 0.17146 0.82588 0.0
H1027 H 0.98292 0.14666 0.79945 0.0
H1028 H 0.09098 0.20118 0.91232 0.0
H1029 H 0.11431 0.17483 0.88763 0.0
H1030 H 0.0469 0.19817 0.93948 0.0
H1031 H 1.00587 0.20665 0.93119 0.0
C1032 C 0.90764 0.05943 0.16802 0.0
C1033 C 0.88252 0.0776 0.15187 0.0
C1034 C 0.85332 0.0264 0.14175 0.0
C1035 C 0.87969 1.00818 0.15561 0.0
N1036 N 0.93518 1.007 0.1751 0.0
N1037 N 0.8351 0.07754 0.11726 0.0
C1038 C 0.9077 0.02459 0.16697 0.0
C1039 C 0.85627 0.06086 0.13715 0.0
N1040 N 0.93102 0.07527 0.18536 0.0
N1041 N 0.82503 1.01099 0.13366 0.0
H1042 H 0.83695 0.10257 0.11237 0.0
H1043 H 0.81773 0.06607 0.10294 0.0
H1044 H 0.82192 0.98575 0.13577 0.0
H1045 H 0.80361 0.02352 0.12743 0.0
H1046 H 0.94708 0.06325 0.20111 0.0
H1047 H 0.93286 0.10062 0.18623 0.0
H1048 H 0.95762 1.01778 0.17979 0.0
H1049 H 0.93666 0.98148 0.17397 0.0
C1050 C 0.05157 0.3351 0.69132 0.0
C1051 C 0.07118 0.36016 0.67733 0.0
C1052 C 0.02476 0.37935 0.64447 0.0
C1053 C 1.00445 0.3561 0.66053 0.0
N1054 N 0.99946 0.30677 0.69262 0.0
N1055 N 0.07961 0.40065 0.63521 0.0
C1056 C 1.01831 0.33208 0.68161 0.0
C1057 C 0.05881 0.38029 0.65184 0.0
N1058 N 0.0646 0.31511 0.71489 0.0
N1059 N 1.01099 0.40132 0.62319 0.0
H1060 H 0.10449 0.40192 0.64046 0.0
H1061 H 0.07307 0.4144 0.61476 0.0
H1062 H 0.98661 0.39988 0.61602 0.0
H1063 H 0.02314 0.42138 0.61326 0.0
H1064 H 0.05103 0.29893 0.72923 0.0
H1065 H 0.08939 0.31541 0.72076 0.0
H1066 H 1.0083 0.28707 0.70626 0.0
H1067 H 0.97511 0.30414 0.68591 0.0
C1068 C 0.70307 0.53117 0.1926 0.0
C1069 C 0.68392 0.51739 0.16739 0.0
C1070 C 0.65806 0.57122 0.15728 0.0
C1071 C 0.6776 0.5851 0.18205 0.0
N1072 N 0.7225 0.5801 0.2196 0.0
N1073 N 0.64901 0.52521 0.12092 0.0
C1074 C 0.70146 0.56564 0.19838 0.0
C1075 C 0.66312 0.53777 0.14831 0.0
N1076 N 0.72133 0.51112 0.2123 0.0
N1077 N 0.63434 0.58992 0.14264 0.0
H1078 H 0.65292 0.50103 0.11331 0.0
H1079 H 0.63609 0.53931 0.10403 0.0
H1080 H 0.63094 0.61487 0.14738 0.0
H1081 H 0.61669 0.58039 0.1273 0.0
H1082 H 0.73225 0.51887 0.2338 0.0
H1083 H 0.72394 0.48601 0.20838 0.0
H1084 H 0.74288 0.56818 0.22931 0.0
H1085 H 0.72089 0.60482 0.22597 0.0
C1086 C 0.50834 0.15774 0.64652 0.0
C1087 C 0.49276 0.18035 0.66835 0.0
C1088 C 0.54154 0.21509 0.66659 0.0
C1089 C 0.55738 0.1922 0.64521 0.0
N1090 N 0.55313 0.14695 0.60791 0.0
N1091 N 0.49048 0.23459 0.6914 0.0
C1092 C 0.53972 0.16528 0.63283 0.0
C1093 C 0.50809 0.21043 0.6757 0.0
N1094 N 0.49428 0.12814 0.64057 0.0
N1095 N 0.55895 0.23994 0.68011 0.0
H1096 H 0.46587 0.23188 0.69806 0.0
H1097 H 0.49914 0.25823 0.69481 0.0
H1098 H 0.58334 0.24453 0.67403 0.0
H1099 H 0.54989 0.25473 0.69904 0.0
H1100 H 0.50626 0.10905 0.62821 0.0
H1101 H 0.4713 0.12176 0.64982 0.0
H1102 H 0.54047 0.1288 0.59563 0.0
H1103 H 0.57595 0.15218 0.59739 0.0
C1104 C 0.34311 0.84838 0.50633 0.0
C1105 C 0.36545 0.87063 0.49134 0.0
C1106 C 0.36985 0.89966 0.5439 0.0
C1107 C 0.34939 0.87603 0.55916 0.0
N1108 N 0.32472 0.82263 0.55667 0.0
N1109 N 0.40634 0.91215 0.49825 0.0
C1110 C 0.3385 0.84879 0.54092 0.0
C1111 C 0.38071 0.89471 0.51088 0.0
N1112 N 0.32467 0.82806 0.4877 0.0
N1113 N 0.37785 0.92752 0.56037 0.0
H1114 H 0.41578 0.90832 0.47463 0.0
H1115 H 0.42042 0.92778 0.51229 0.0
H1116 H 0.37002 0.93234 0.58436 0.0
H1117 H 0.38974 0.94718 0.54925 0.0
H1118 H 0.30539 0.81437 0.49733 0.0
H1119 H 0.3262 0.82711 0.46229 0.0
H1120 H 0.31958 0.80067 0.54488 0.0
H1121 H 0.3218 0.82141 0.58208 0.0
C1122 C 0.18314 0.79061 0.02362 0.0
C1123 C 0.15149 0.80215 0.03344 0.0
C1124 C 0.1429 0.82535 0.97845 0.0
C1125 C 0.17448 0.81389 0.96862 0.0
N1126 N 0.22224 0.78015 0.97931 0.0
N1127 N 0.09842 0.82321 1.01866 0.0
C1128 C 0.19365 0.79445 0.99032 0.0
C1129 C 0.13049 0.81725 1.01026 0.0
N1130 N 0.20411 0.77816 0.04651 0.0
N1131 N 0.12507 0.84461 0.9576 0.0
H1132 H 0.0886 0.81692 0.04158 0.0
H1133 H 0.08088 0.83144 1.00219 0.0
H1134 H 0.13264 0.8496 0.93356 0.0
H1135 H 0.10367 0.85708 0.96454 0.0
H1136 H 0.22882 0.77325 0.04185 0.0
H1137 H 0.19757 0.77477 0.07106 0.0
H1138 H 0.23532 0.76266 0.9926 0.0
H1139 H 0.2319 0.7839 0.95583 0.0
C1140 C 0.14973 0.6574 0.54559 0.0
C1141 C 0.17461 0.67397 0.5628 0.0
C1142 C 0.17447 0.71768 0.52099 0.0
C1143 C 0.15049 0.70046 0.50308 0.0
N1144 N 0.11819 0.65215 0.49568 0.0
N1145 N 0.21488 0.71666 0.56412 0.0
C1146 C 0.13912 0.66967 0.51454 0.0
C1147 C 0.18804 0.70333 0.5498 0.0
N1148 N 0.13536 0.63059 0.55964 0.0
N1149 N 0.18418 0.74798 0.51049 0.0
H1150 H 0.22547 0.70709 0.58527 0.0
H1151 H 0.22834 0.73567 0.5538 0.0
H1152 H 0.17699 0.75823 0.48822 0.0
H1153 H 0.19809 0.76376 0.52449 0.0
H1154 H 0.11487 0.61916 0.55031 0.0
H1155 H 0.14245 0.6211 0.58228 0.0
H1156 H 0.1115 0.6281 0.5007 0.0
H1157 H 0.10913 0.6609 0.47348 0.0
C1158 C 0.31134 0.67164 0.05192 0.0
C1159 C 0.33854 0.66039 0.07024 0.0
C1160 C 0.34771 0.61637 0.03004 0.0
C1161 C 0.32556 0.63212 1.0083 0.0
N1162 N 0.28621 0.67608 0.99872 0.0
N1163 N 0.38319 0.62181 0.07688 0.0
C1164 C 0.30671 0.65968 1.0195 0.0
C1165 C 0.3565 0.63223 0.05972 0.0
N1166 N 0.29002 0.69398 0.06565 0.0
N1167 N 0.36015 0.58606 1.02225 0.0
H1168 H 0.39004 0.63236 0.09896 0.0
H1169 H 0.39965 0.604 0.06823 0.0
H1170 H 0.35345 0.57362 1.00107 0.0
H1171 H 0.37418 0.57195 0.03824 0.0
H1172 H 0.26796 0.70099 0.05502 0.0
H1173 H 0.29282 0.70289 0.08942 0.0
H1174 H 0.275 0.69846 1.00448 0.0
H1175 H 0.2821 0.669 0.97467 0.0
loop_
_geom_bond_atom_site_label_1
_geom_bond_atom_site_label_2
_geom_bond_distance
_geom_bond_site_symmetry_2
_ccdc_geom_bond_type
Mg0 O7 2.141 . S
Mg0 O8 2.048 . S
Mg0 O9 2.048 . S
Mg0 O12 2.141 . S
C1 O2 1.313 . S
C1 O8 1.195 . S
O2 C1 1.313 . S
C3 O4 1.245 . S
C3 O12 1.289 . S
O4 C3 1.245 . S
C5 O6 1.245 . S
C5 O7 1.289 . S
O6 C5 1.245 . S
O7 Mg0 2.141 . S
O7 C5 1.289 . S
O8 Mg0 2.048 . S
O8 C1 1.195 . S
O9 Mg0 2.048 . S
O9 C10 1.195 . S
C10 O9 1.195 . S
C10 O11 1.313 . S
O11 C10 1.313 . S
O12 Mg0 2.141 . S
O12 C3 1.289 . S
Mg13 O20 2.141 . S
Mg13 O21 2.048 . S
Mg13 O22 2.048 . S
Mg13 O25 2.141 . S
C14 O15 1.313 . S
C14 O21 1.195 . S
O15 C14 1.313 . S
C16 O17 1.245 . S
C16 O25 1.289 . S
O17 C16 1.245 . S
C18 O19 1.245 . S
C18 O20 1.289 . S
O19 C18 1.245 . S
O20 Mg13 2.141 . S
O20 C18 1.289 . S
O21 Mg13 2.048 . S
O21 C14 1.195 . S
O22 Mg13 2.048 . S
O22 C23 1.195 . S
C23 O22 1.195 . S
C23 O24 1.313 . S
O24 C23 1.313 . S
O25 Mg13 2.141 . S
O25 C16 1.289 . S
Mg26 O33 2.141 . S
Mg26 O34 2.048 . S
Mg26 O35 2.048 . S
Mg26 O38 2.141 . S
C27 O28 1.313 . S
C27 O34 1.195 . S
O28 C27 1.313 . S
C29 O30 1.245 . S
C29 O38 1.289 . S
O30 C29 1.245 . S
C31 O32 1.245 . S
C31 O33 1.289 . S
O32 C31 1.245 . S
O33 Mg26 2.141 . S
O33 C31 1.289 . S
O34 Mg26 2.048 . S
O34 C27 1.195 . S
O35 Mg26 2.048 . S
O35 C36 1.195 . S
C36 O35 1.195 . S
C36 O37 1.313 . S
O37 C36 1.313 . S
O38 Mg26 2.141 . S
O38 C29 1.289 . S
Mg39 O46 2.141 . S
Mg39 O47 2.048 . S
Mg39 O48 2.048 . S
Mg39 O51 2.141 . S
C40 O41 1.313 . S
C40 O47 1.195 . S
O41 C40 1.313 . S
C42 O43 1.245 . S
C42 O51 1.289 . S
O43 C42 1.245 . S
C44 O45 1.245 . S
C44 O46 1.289 . S
O45 C44 1.245 . S
O46 Mg39 2.141 . S
O46 C44 1.289 . S
O47 Mg39 2.048 . S
O47 C40 1.195 . S
O48 Mg39 2.048 . S
O48 C49 1.195 . S
C49 O48 1.195 . S
C49 O50 1.313 . S
O50 C49 1.313 . S
O51 Mg39 2.141 . S
O51 C42 1.289 . S
Mg52 O59 2.141 . S
Mg52 O60 2.048 . S
Mg52 O61 2.048 . S
Mg52 O64 2.141 . S
C53 O54 1.313 . S
C53 O60 1.195 . S
O54 C53 1.313 . S
C55 O56 1.245 . S
C55 O64 1.289 . S
O56 C55 1.245 . S
C57 O58 1.245 . S
C57 O59 1.289 . S
O58 C57 1.245 . S
O59 Mg52 2.141 . S
O59 C57 1.289 . S
O60 Mg52 2.048 . S
O60 C53 1.195 . S
O61 Mg52 2.048 . S
O61 C62 1.195 . S
C62 O61 1.195 . S
C62 O63 1.313 . S
O63 C62 1.313 . S
O64 Mg52 2.141 . S
O64 C55 1.289 . S
Mg65 O72 2.141 . S
Mg65 O73 2.048 . S
Mg65 O74 2.048 . S
Mg65 O77 2.141 . S
C66 O67 1.313 . S
C66 O73 1.195 . S
O67 C66 1.313 . S
C68 O69 1.245 . S
C68 O77 1.289 . S
O69 C68 1.245 . S
C70 O71 1.245 . S
C70 O72 1.289 . S
O71 C70 1.245 . S
O72 Mg65 2.141 . S
O72 C70 1.289 . S
O73 Mg65 2.048 . S
O73 C66 1.195 . S
O74 Mg65 2.048 . S
O74 C75 1.195 . S
C75 O74 1.195 . S
C75 O76 1.313 . S
O76 C75 1.313 . S
O77 Mg65 2.141 . S
O77 C68 1.289 . S
Mg78 O85 2.141 . S
Mg78 O86 2.048 . S
Mg78 O87 2.048 . S
Mg78 O90 2.141 . S
C79 O80 1.313 . S
C79 O86 1.195 . S
O80 C79 1.313 . S
C81 O82 1.245 . S
C81 O90 1.289 . S
O82 C81 1.245 . S
C83 O84 1.245 . S
C83 O85 1.289 . S
O84 C83 1.245 . S
O85 Mg78 2.141 . S
O85 C83 1.289 . S
O86 Mg78 2.048 . S
O86 C79 1.195 . S
O87 Mg78 2.048 . S
O87 C88 1.195 . S
C88 O87 1.195 . S
C88 O89 1.313 . S
O89 C88 1.313 . S
O90 Mg78 2.141 . S
O90 C81 1.289 . S
Mg91 O98 2.141 . S
Mg91 O99 2.048 . S
Mg91 O100 2.048 . S
Mg91 O103 2.141 . S
C92 O93 1.313 . S
C92 O99 1.195 . S
O93 C92 1.313 . S
C94 O95 1.245 . S
C94 O103 1.289 . S
O95 C94 1.245 . S
C96 O97 1.245 . S
C96 O98 1.289 . S
O97 C96 1.245 . S
O98 Mg91 2.141 . S
O98 C96 1.289 . S
O99 Mg91 2.048 . S
O99 C92 1.195 . S
O100 Mg91 2.048 . S
O100 C101 1.195 . S
C101 O100 1.195 . S
C101 O102 1.313 . S
O102 C101 1.313 . S
O103 Mg91 2.141 . S
O103 C94 1.289 . S
Mg104 O111 2.141 . S
Mg104 O112 2.048 . S
Mg104 O113 2.048 . S
Mg104 O116 2.141 . S
C105 O106 1.313 . S
C105 O112 1.195 . S
O106 C105 1.313 . S
C107 O108 1.245 . S
C107 O116 1.289 . S
O108 C107 1.245 . S
C109 O110 1.245 . S
C109 O111 1.289 . S
O110 C109 1.245 . S
O111 Mg104 2.141 . S
O111 C109 1.289 . S
O112 Mg104 2.048 . S
O112 C105 1.195 . S
O113 Mg104 2.048 . S
O113 C114 1.195 . S
C114 O113 1.195 . S
C114 O115 1.313 . S
O115 C114 1.313 . S
O116 Mg104 2.141 . S
O116 C107 1.289 . S
Mg117 O124 2.141 . S
Mg117 O125 2.048 . S
Mg117 O126 2.048 . S
Mg117 O129 2.141 . S
C118 O119 1.313 . S
C118 O125 1.195 . S
O119 C118 1.313 . S
C120 O121 1.245 . S
C120 O129 1.289 . S
O121 C120 1.245 . S
C122 O123 1.245 . S
C122 O124 1.289 . S
O123 C122 1.245 . S
O124 Mg117 2.141 . S
O124 C122 1.289 . S
O125 Mg117 2.048 . S
O125 C118 1.195 . S
O126 Mg117 2.048 . S
O126 C127 1.195 . S
C127 O126 1.195 . S
C127 O128 1.313 . S
O128 C127 1.313 . S
O129 Mg117 2.141 . S
O129 C120 1.289 . S
Mg130 O137 2.141 . S
Mg130 O138 2.048 . S
Mg130 O139 2.048 . S
Mg130 O142 2.141 . S
C131 O132 1.313 . S
C131 O138 1.195 . S
O132 C131 1.313 . S
C133 O134 1.245 . S
C133 O142 1.289 . S
O134 C133 1.245 . S
C135 O136 1.245 . S
C135 O137 1.289 . S
O136 C135 1.245 . S
O137 Mg130 2.141 . S
O137 C135 1.289 . S
O138 Mg130 2.048 . S
O138 C131 1.195 . S
O139 Mg130 2.048 . S
O139 C140 1.195 . S
C140 O139 1.195 . S
C140 O141 1.313 . S
O141 C140 1.313 . S
O142 Mg130 2.141 . S
O142 C133 1.289 . S
Mg143 O150 2.141 . S
Mg143 O151 2.048 . S
Mg143 O152 2.048 . S
Mg143 O155 2.141 . S
C144 O145 1.313 . S
C144 O151 1.195 . S
O145 C144 1.313 . S
C146 O147 1.245 . S
C146 O155 1.289 . S
O147 C146 1.245 . S
C148 O149 1.245 . S
C148 O150 1.289 . S
O149 C148 1.245 . S
O150 Mg143 2.141 . S
O150 C148 1.289 . S
O151 Mg143 2.048 . S
O151 C144 1.195 . S
O152 Mg143 2.048 . S
O152 C153 1.195 . S
C153 O152 1.195 . S
C153 O154 1.313 . S
O154 C153 1.313 . S
O155 Mg143 2.141 . S
O155 C146 1.289 . S
Mg156 O163 2.141 . S
Mg156 O164 2.048 . S
Mg156 O165 2.048 . S
Mg156 O168 2.141 . S
C157 O158 1.313 . S
C157 O164 1.195 . S
O158 C157 1.313 . S
C159 O160 1.245 . S
C159 O168 1.289 . S
O160 C159 1.245 . S
C161 O162 1.245 . S
C161 O163 1.289 . S
O162 C161 1.245 . S
O163 Mg156 2.141 . S
O163 C161 1.289 . S
O164 Mg156 2.048 . S
O164 C157 1.195 . S
O165 Mg156 2.048 . S
O165 C166 1.195 . S
C166 O165 1.195 . S
C166 O167 1.313 . S
O167 C166 1.313 . S
O168 Mg156 2.141 . S
O168 C159 1.289 . S
Mg169 O176 2.141 . S
Mg169 O177 2.048 . S
Mg169 O178 2.048 . S
Mg169 O181 2.141 . S
C170 O171 1.313 . S
C170 O177 1.195 . S
O171 C170 1.313 . S
C172 O173 1.245 . S
C172 O181 1.289 . S
O173 C172 1.245 . S
C174 O175 1.245 . S
C174 O176 1.289 . S
O175 C174 1.245 . S
O176 Mg169 2.141 . S
O176 C174 1.289 . S
O177 Mg169 2.048 . S
O177 C170 1.195 . S
O178 Mg169 2.048 . S
O178 C179 1.195 . S
C179 O178 1.195 . S
C179 O180 1.313 . S
O180 C179 1.313 . S
O181 Mg169 2.141 . S
O181 C172 1.289 . S
Mg182 O189 2.141 . S
Mg182 O190 2.048 . S
Mg182 O191 2.048 . S
Mg182 O194 2.141 . S
C183 O184 1.313 . S
C183 O190 1.195 . S
O184 C183 1.313 . S
C185 O186 1.245 . S
C185 O194 1.289 . S
O186 C185 1.245 . S
C187 O188 1.245 . S
C187 O189 1.289 . S
O188 C187 1.245 . S
O189 Mg182 2.141 . S
O189 C187 1.289 . S
O190 Mg182 2.048 . S
O190 C183 1.195 . S
O191 Mg182 2.048 . S
O191 C192 1.195 . S
C192 O191 1.195 . S
C192 O193 1.313 . S
O193 C192 1.313 . S
O194 Mg182 2.141 . S
O194 C185 1.289 . S
Mg195 O202 2.141 . S
Mg195 O203 2.048 . S
Mg195 O204 2.048 . S
Mg195 O207 2.141 . S
C196 O197 1.313 . S
C196 O203 1.195 . S
O197 C196 1.313 . S
C198 O199 1.245 . S
C198 O207 1.289 . S
O199 C198 1.245 . S
C200 O201 1.245 . S
C200 O202 1.289 . S
O201 C200 1.245 . S
O202 Mg195 2.141 . S
O202 C200 1.289 . S
O203 Mg195 2.048 . S
O203 C196 1.195 . S
O204 Mg195 2.048 . S
O204 C205 1.195 . S
C205 O204 1.195 . S
C205 O206 1.313 . S
O206 C205 1.313 . S
O207 Mg195 2.141 . S
O207 C198 1.289 . S
Mg208 O215 2.141 . S
Mg208 O216 2.048 . S
Mg208 O217 2.048 . S
Mg208 O220 2.141 . S
C209 O210 1.313 . S
C209 O216 1.195 . S
O210 C209 1.313 . S
C211 O212 1.245 . S
C211 O220 1.289 . S
O212 C211 1.245 . S
C213 O214 1.245 . S
C213 O215 1.289 . S
O214 C213 1.245 . S
O215 Mg208 2.141 . S
O215 C213 1.289 . S
O216 Mg208 2.048 . S
O216 C209 1.195 . S
O217 Mg208 2.048 . S
O217 C218 1.195 . S
C218 O217 1.195 . S
C218 O219 1.313 . S
O219 C218 1.313 . S
O220 Mg208 2.141 . S
O220 C211 1.289 . S
Mg221 O228 2.141 . S
Mg221 O229 2.048 . S
Mg221 O230 2.048 . S
Mg221 O233 2.141 . S
C222 O223 1.313 . S
C222 O229 1.195 . S
O223 C222 1.313 . S
C224 O225 1.245 . S
C224 O233 1.289 . S
O225 C224 1.245 . S
C226 O227 1.245 . S
C226 O228 1.289 . S
O227 C226 1.245 . S
O228 Mg221 2.141 . S
O228 C226 1.289 . S
O229 Mg221 2.048 . S
O229 C222 1.195 . S
O230 Mg221 2.048 . S
O230 C231 1.195 . S
C231 O230 1.195 . S
C231 O232 1.313 . S
O232 C231 1.313 . S
O233 Mg221 2.141 . S
O233 C224 1.289 . S
Mg234 O241 2.141 . S
Mg234 O242 2.048 . S
Mg234 O243 2.048 . S
Mg234 O246 2.141 . S
C235 O236 1.313 . S
C235 O242 1.195 . S
O236 C235 1.313 . S
C237 O238 1.245 . S
C237 O246 1.289 . S
O238 C237 1.245 . S
C239 O240 1.245 . S
C239 O241 1.289 . S
O240 C239 1.245 . S
O241 Mg234 2.141 . S
O241 C239 1.289 . S
O242 Mg234 2.048 . S
O242 C235 1.195 . S
O243 Mg234 2.048 . S
O243 C244 1.195 . S
C244 O243 1.195 . S
C244 O245 1.313 . S
O245 C244 1.313 . S
O246 Mg234 2.141 . S
O246 C237 1.289 . S
Mg247 O254 2.141 . S
Mg247 O255 2.048 . S
Mg247 O256 2.048 . S
Mg247 O259 2.141 . S
C248 O249 1.313 . S
C248 O255 1.195 . S
O249 C248 1.313 . S
C250 O251 1.245 . S
C250 O259 1.289 . S
O251 C250 1.245 . S
C252 O253 1.245 . S
C252 O254 1.289 . S
O253 C252 1.245 . S
O254 Mg247 2.141 . S
O254 C252 1.289 . S
O255 Mg247 2.048 . S
O255 C248 1.195 . S
O256 Mg247 2.048 . S
O256 C257 1.195 . S
C257 O256 1.195 . S
C257 O258 1.313 . S
O258 C257 1.313 . S
O259 Mg247 2.141 . S
O259 C250 1.289 . S
Mg260 O267 2.141 . S
Mg260 O268 2.048 . S
Mg260 O269 2.048 . S
Mg260 O272 2.141 . S
C261 O262 1.313 . S
C261 O268 1.195 . S
O262 C261 1.313 . S
C263 O264 1.245 . S
C263 O272 1.289 . S
O264 C263 1.245 . S
C265 O266 1.245 . S
C265 O267 1.289 . S
O266 C265 1.245 . S
O267 Mg260 2.141 . S
O267 C265 1.289 . S
O268 Mg260 2.048 . S
O268 C261 1.195 . S
O269 Mg260 2.048 . S
O269 C270 1.195 . S
C270 O269 1.195 . S
C270 O271 1.313 . S
O271 C270 1.313 . S
O272 Mg260 2.141 . S
O272 C263 1.289 . S
Mg273 O280 2.141 . S
Mg273 O281 2.048 . S
Mg273 O282 2.048 . S
Mg273 O285 2.141 . S
C274 O275 1.313 . S
C274 O281 1.195 . S
O275 C274 1.313 . S
C276 O277 1.245 . S
C276 O285 1.289 . S
O277 C276 1.245 . S
C278 O279 1.245 . S
C278 O280 1.289 . S
O279 C278 1.245 . S
O280 Mg273 2.141 . S
O280 C278 1.289 . S
O281 Mg273 2.048 . S
O281 C274 1.195 . S
O282 Mg273 2.048 . S
O282 C283 1.195 . S
C283 O282 1.195 . S
C283 O284 1.313 . S
O284 C283 1.313 . S
O285 Mg273 2.141 . S
O285 C276 1.289 . S
Mg286 O293 2.141 . S
Mg286 O294 2.048 . S
Mg286 O295 2.048 . S
Mg286 O298 2.141 . S
C287 O288 1.313 . S
C287 O294 1.195 . S
O288 C287 1.313 . S
C289 O290 1.245 . S
C289 O298 1.289 . S
O290 C289 1.245 . S
C291 O292 1.245 . S
C291 O293 1.289 . S
O292 C291 1.245 . S
O293 Mg286 2.141 . S
O293 C291 1.289 . S
O294 Mg286 2.048 . S
O294 C287 1.195 . S
O295 Mg286 2.048 . S
O295 C296 1.195 . S
C296 O295 1.195 . S
C296 O297 1.313 . S
O297 C296 1.313 . S
O298 Mg286 2.141 . S
O298 C289 1.289 . S
Mg299 O306 2.141 . S
Mg299 O307 2.048 . S
Mg299 O308 2.048 . S
Mg299 O311 2.141 . S
C300 O301 1.313 . S
C300 O307 1.195 . S
O301 C300 1.313 . S
C302 O303 1.245 . S
C302 O311 1.289 . S
O303 C302 1.245 . S
C304 O305 1.245 . S
C304 O306 1.289 . S
O305 C304 1.245 . S
O306 Mg299 2.141 . S
O306 C304 1.289 . S
O307 Mg299 2.048 . S
O307 C300 1.195 . S
O308 Mg299 2.048 . S
O308 C309 1.195 . S
C309 O308 1.195 . S
C309 O310 1.313 . S
O310 C309 1.313 . S
O311 Mg299 2.141 . S
O311 C302 1.289 . S
C312 C313 1.363 . S
C312 C318 1.379 . S
C312 N320 1.356 . S
C313 C312 1.363 . S
C313 C319 1.363 . S
C314 C315 1.363 . S
C314 C319 1.379 . S
C314 N321 1.356 . S
C315 C314 1.363 . S
C315 C318 1.363 . S
N316 C318 1.356 . S
N316 H328 0.984 . S
N316 H329 0.985 . S
N317 C319 1.356 . S
N317 H322 0.984 . S
N317 H323 0.985 . S
C318 C312 1.379 . S
C318 C315 1.363 . S
C318 N316 1.356 . S
C319 C313 1.363 . S
C319 C314 1.379 . S
C319 N317 1.356 . S
N320 C312 1.356 . S
N320 H326 0.984 . S
N320 H327 0.984 . S
N321 C314 1.356 . S
N321 H324 0.984 . S
N321 H325 0.985 . S
H322 N317 0.984 . S
H323 N317 0.985 . S
H324 N321 0.984 . S
H325 N321 0.985 . S
H326 N320 0.984 . S
H327 N320 0.984 . S
H328 N316 0.984 . S
H329 N316 0.985 . S
C330 C331 1.363 . S
C330 C336 1.379 . S
C330 N338 1.356 . S
C331 C330 1.363 . S
C331 C337 1.363 . S
C332 C333 1.363 . S
C332 C337 1.379 . S
C332 N339 1.356 . S
C333 C332 1.363 . S
C333 C336 1.363 . S
N334 C336 1.356 . S
N334 H346 0.984 . S
N334 H347 0.985 . S
N335 C337 1.356 . S
N335 H340 0.984 . S
N335 H341 0.985 . S
C336 C330 1.379 . S
C336 C333 1.363 . S
C336 N334 1.356 . S
C337 C331 1.363 . S
C337 C332 1.379 . S
C337 N335 1.356 . S
N338 C330 1.356 . S
N338 H344 0.984 . S
N338 H345 0.984 . S
N339 C332 1.356 . S
N339 H342 0.984 . S
N339 H343 0.985 . S
H340 N335 0.984 . S
H341 N335 0.985 . S
H342 N339 0.984 . S
H343 N339 0.985 . S
H344 N338 0.984 . S
H345 N338 0.984 . S
H346 N334 0.984 . S
H347 N334 0.985 . S
C348 C349 1.363 . S
C348 C354 1.379 . S
C348 N356 1.356 . S
C349 C348 1.363 . S
C349 C355 1.363 . S
C350 C351 1.363 . S
C350 C355 1.379 . S
C350 N357 1.356 . S
C351 C350 1.363 . S
C351 C354 1.363 . S
N352 C354 1.356 . S
N352 H364 0.984 . S
N352 H365 0.985 . S
N353 C355 1.356 . S
N353 H358 0.984 . S
N353 H359 0.985 . S
C354 C348 1.379 . S
C354 C351 1.363 . S
C354 N352 1.356 . S
C355 C349 1.363 . S
C355 C350 1.379 . S
C355 N353 1.356 . S
N356 C348 1.356 . S
N356 H362 0.984 . S
N356 H363 0.984 . S
N357 C350 1.356 . S
N357 H360 0.984 . S
N357 H361 0.985 . S
H358 N353 0.984 . S
H359 N353 0.985 . S
H360 N357 0.984 . S
H361 N357 0.985 . S
H362 N356 0.984 . S
H363 N356 0.984 . S
H364 N352 0.984 . S
H365 N352 0.985 . S
C366 C367 1.363 . S
C366 C372 1.379 . S
C366 N374 1.356 . S
C367 C366 1.363 . S
C367 C373 1.363 . S
C368 C369 1.363 . S
C368 C373 1.379 . S
C368 N375 1.356 . S
C369 C368 1.363 . S
C369 C372 1.363 . S
N370 C372 1.356 . S
N370 H382 0.984 . S
N370 H383 0.985 . S
N371 C373 1.356 . S
N371 H376 0.984 . S
N371 H377 0.985 . S
C372 C366 1.379 . S
C372 C369 1.363 . S
C372 N370 1.356 . S
C373 C367 1.363 . S
C373 C368 1.379 . S
C373 N371 1.356 . S
N374 C366 1.356 . S
N374 H380 0.984 . S
N374 H381 0.984 . S
N375 C368 1.356 . S
N375 H378 0.984 . S
N375 H379 0.985 . S
H376 N371 0.984 . S
H377 N371 0.985 . S
H378 N375 0.984 . S
H379 N375 0.985 . S
H380 N374 0.984 . S
H381 N374 0.984 . S
H382 N370 0.984 . S
H383 N370 0.985 . S
C384 C385 1.363 . S
C384 C390 1.379 . S
C384 N392 1.356 . S
C385 C384 1.363 . S
C385 C391 1.363 . S
C386 C387 1.363 . S
C386 C391 1.379 . S
C386 N393 1.356 . S
C387 C386 1.363 . S
C387 C390 1.363 . S
N388 C390 1.356 . S
N388 H400 0.984 . S
N388 H401 0.985 . S
N389 C391 1.356 . S
N389 H394 0.984 . S
N389 H395 0.985 . S
C390 C384 1.379 . S
C390 C387 1.363 . S
C390 N388 1.356 . S
C391 C385 1.363 . S
C391 C386 1.379 . S
C391 N389 1.356 . S
N392 C384 1.356 . S
N392 H398 0.984 . S
N392 H399 0.984 . S
N393 C386 1.356 . S
N393 H396 0.984 . S
N393 H397 0.985 . S
H394 N389 0.984 . S
H395 N389 0.985 . S
H396 N393 0.984 . S
H397 N393 0.985 . S
H398 N392 0.984 . S
H399 N392 0.984 . S
H400 N388 0.984 . S
H401 N388 0.985 . S
C402 C403 1.363 . S
C402 C408 1.379 . S
C402 N410 1.356 . S
C403 C402 1.363 . S
C403 C409 1.363 . S
C404 C405 1.363 . S
C404 C409 1.379 . S
C404 N411 1.356 . S
C405 C404 1.363 . S
C405 C408 1.363 . S
N406 C408 1.356 . S
N406 H418 0.984 . S
N406 H419 0.985 . S
N407 C409 1.356 . S
N407 H412 0.984 . S
N407 H413 0.985 . S
C408 C402 1.379 . S
C408 C405 1.363 . S
C408 N406 1.356 . S
C409 C403 1.363 . S
C409 C404 1.379 . S
C409 N407 1.356 . S
N410 C402 1.356 . S
N410 H416 0.984 . S
N410 H417 0.984 . S
N411 C404 1.356 . S
N411 H414 0.984 . S
N411 H415 0.985 . S
H412 N407 0.984 . S
H413 N407 0.985 . S
H414 N411 0.984 . S
H415 N411 0.985 . S
H416 N410 0.984 . S
H417 N410 0.984 . S
H418 N406 0.984 . S
H419 N406 0.985 . S
C420 C421 1.363 . S
C420 C426 1.379 . S
C420 N428 1.356 . S
C421 C420 1.363 . S
C421 C427 1.363 . S
C422 C423 1.363 . S
C422 C427 1.379 . S
C422 N429 1.356 . S
C423 C422 1.363 . S
C423 C426 1.363 . S
N424 C426 1.356 . S
N424 H436 0.984 . S
N424 H437 0.985 . S
N425 C427 1.356 . S
N425 H430 0.984 . S
N425 H431 0.985 . S
C426 C420 1.379 . S
C426 C423 1.363 . S
C426 N424 1.356 . S
C427 C421 1.363 . S
C427 C422 1.379 . S
C427 N425 1.356 . S
N428 C420 1.356 . S
N428 H434 0.984 . S
N428 H435 0.984 . S
N429 C422 1.356 . S
N429 H432 0.984 . S
N429 H433 0.985 . S
H430 N425 0.984 . S
H431 N425 0.985 . S
H432 N429 0.984 . S
H433 N429 0.985 . S
H434 N428 0.984 . S
H435 N428 0.984 . S
H436 N424 0.984 . S
H437 N424 0.985 . S
C438 C439 1.363 . S
C438 C444 1.379 . S
C438 N446 1.356 . S
C439 C438 1.363 . S
C439 C445 1.363 . S
C440 C441 1.363 . S
C440 C445 1.379 . S
C440 N447 1.356 . S
C441 C440 1.363 . S
C441 C444 1.363 . S
N442 C444 1.356 . S
N442 H454 0.984 . S
N442 H455 0.985 . S
N443 C445 1.356 . S
N443 H448 0.984 . S
N443 H449 0.985 . S
C444 C438 1.379 . S
C444 C441 1.363 . S
C444 N442 1.356 . S
C445 C439 1.363 . S
C445 C440 1.379 . S
C445 N443 1.356 . S
N446 C438 1.356 . S
N446 H452 0.984 . S
N446 H453 0.984 . S
N447 C440 1.356 . S
N447 H450 0.984 . S
N447 H451 0.985 . S
H448 N443 0.984 . S
H449 N443 0.985 . S
H450 N447 0.984 . S
H451 N447 0.985 . S
H452 N446 0.984 . S
H453 N446 0.984 . S
H454 N442 0.984 . S
H455 N442 0.985 . S
C456 C457 1.363 . S
C456 C462 1.379 . S
C456 N464 1.356 . S
C457 C456 1.363 . S
C457 C463 1.363 . S
C458 C459 1.363 . S
C458 C463 1.379 . S
C458 N465 1.356 . S
C459 C458 1.363 . S
C459 C462 1.363 . S
N460 C462 1.356 . S
N460 H472 0.984 . S
N460 H473 0.985 . S
N461 C463 1.356 . S
N461 H466 0.984 . S
N461 H467 0.985 . S
C462 C456 1.379 . S
C462 C459 1.363 . S
C462 N460 1.356 . S
C463 C457 1.363 . S
C463 C458 1.379 . S
C463 N461 1.356 . S
N464 C456 1.356 . S
N464 H470 0.984 . S
N464 H471 0.984 . S
N465 C458 1.356 . S
N465 H468 0.984 . S
N465 H469 0.985 . S
H466 N461 0.984 . S
H467 N461 0.985 . S
H468 N465 0.984 . S
H469 N465 0.985 . S
H470 N464 0.984 . S
H471 N464 0.984 . S
H472 N460 0.984 . S
H473 N460 0.985 . S
C474 C475 1.363 . S
C474 C480 1.379 . S
C474 N482 1.356 . S
C475 C474 1.363 . S
C475 C481 1.363 . S
C476 C477 1.363 . S
C476 C481 1.379 . S
C476 N483 1.356 . S
C477 C476 1.363 . S
C477 C480 1.363 . S
N478 C480 1.356 . S
N478 H490 0.984 . S
N478 H491 0.985 . S
N479 C481 1.356 . S
N479 H484 0.984 . S
N479 H485 0.985 . S
C480 C474 1.379 . S
C480 C477 1.363 . S
C480 N478 1.356 . S
C481 C475 1.363 . S
C481 C476 1.379 . S
C481 N479 1.356 . S
N482 C474 1.356 . S
N482 H488 0.984 . S
N482 H489 0.984 . S
N483 C476 1.356 . S
N483 H486 0.984 . S
N483 H487 0.985 . S
H484 N479 0.984 . S
H485 N479 0.985 . S
H486 N483 0.984 . S
H487 N483 0.985 . S
H488 N482 0.984 . S
H489 N482 0.984 . S
H490 N478 0.984 . S
H491 N478 0.985 . S
C492 C493 1.363 . S
C492 C498 1.379 . S
C492 N500 1.356 . S
C493 C492 1.363 . S
C493 C499 1.363 . S
C494 C495 1.363 . S
C494 C499 1.379 . S
C494 N501 1.356 . S
C495 C494 1.363 . S
C495 C498 1.363 . S
N496 C498 1.356 . S
N496 H508 0.984 . S
N496 H509 0.985 . S
N497 C499 1.356 . S
N497 H502 0.984 . S
N497 H503 0.985 . S
C498 C492 1.379 . S
C498 C495 1.363 . S
C498 N496 1.356 . S
C499 C493 1.363 . S
C499 C494 1.379 . S
C499 N497 1.356 . S
N500 C492 1.356 . S
N500 H506 0.984 . S
N500 H507 0.984 . S
N501 C494 1.356 . S
N501 H504 0.984 . S
N501 H505 0.985 . S
H502 N497 0.984 . S
H503 N497 0.985 . S
H504 N501 0.984 . S
H505 N501 0.985 . S
H506 N500 0.984 . S
H507 N500 0.984 . S
H508 N496 0.984 . S
H509 N496 0.985 . S
C510 C511 1.363 . S
C510 C516 1.379 . S
C510 N518 1.356 . S
C511 C510 1.363 . S
C511 C517 1.363 . S
C512 C513 1.363 . S
C512 C517 1.379 . S
C512 N519 1.356 . S
C513 C512 1.363 . S
C513 C516 1.363 . S
N514 C516 1.356 . S
N514 H526 0.984 . S
N514 H527 0.985 . S
N515 C517 1.356 . S
N515 H520 0.984 . S
N515 H521 0.985 . S
C516 C510 1.379 . S
C516 C513 1.363 . S
C516 N514 1.356 . S
C517 C511 1.363 . S
C517 C512 1.379 . S
C517 N515 1.356 . S
N518 C510 1.356 . S
N518 H524 0.984 . S
N518 H525 0.984 . S
N519 C512 1.356 . S
N519 H522 0.984 . S
N519 H523 0.985 . S
H520 N515 0.984 . S
H521 N515 0.985 . S
H522 N519 0.984 . S
H523 N519 0.985 . S
H524 N518 0.984 . S
H525 N518 0.984 . S
H526 N514 0.984 . S
H527 N514 0.985 . S
C528 C529 1.363 . S
C528 C534 1.379 . S
C528 N536 1.356 . S
C529 C528 1.363 . S
C529 C535 1.363 . S
C530 C531 1.363 . S
C530 C535 1.379 . S
C530 N537 1.356 . S
C531 C530 1.363 . S
C531 C534 1.363 . S
N532 C534 1.356 . S
N532 H544 0.984 . S
N532 H545 0.985 . S
N533 C535 1.356 . S
N533 H538 0.984 . S
N533 H539 0.985 . S
C534 C528 1.379 . S
C534 C531 1.363 . S
C534 N532 1.356 . S
C535 C529 1.363 . S
C535 C530 1.379 . S
C535 N533 1.356 . S
N536 C528 1.356 . S
N536 H542 0.984 . S
N536 H543 0.984 . S
N537 C530 1.356 . S
N537 H540 0.984 . S
N537 H541 0.985 . S
H538 N533 0.984 . S
H539 N533 0.985 . S
H540 N537 0.984 . S
H541 N537 0.985 . S
H542 N536 0.984 . S
H543 N536 0.984 . S
H544 N532 0.984 . S
H545 N532 0.985 . S
C546 C547 1.363 . S
C546 C552 1.379 . S
C546 N554 1.356 . S
C547 C546 1.363 . S
C547 C553 1.363 . S
C548 C549 1.363 . S
C548 C553 1.379 . S
C548 N555 1.356 . S
C549 C548 1.363 . S
C549 C552 1.363 . S
N550 C552 1.356 . S
N550 H562 0.984 . S
N550 H563 0.985 . S
N551 C553 1.356 . S
N551 H556 0.984 . S
N551 H557 0.985 . S
C552 C546 1.379 . S
C552 C549 1.363 . S
C552 N550 1.356 . S
C553 C547 1.363 . S
C553 C548 1.379 . S
C553 N551 1.356 . S
N554 C546 1.356 . S
N554 H560 0.984 . S
N554 H561 0.984 . S
N555 C548 1.356 . S
N555 H558 0.984 . S
N555 H559 0.985 . S
H556 N551 0.984 . S
H557 N551 0.985 . S
H558 N555 0.984 . S
H559 N555 0.985 . S
H560 N554 0.984 . S
H561 N554 0.984 . S
H562 N550 0.984 . S
H563 N550 0.985 . S
C564 C565 1.363 . S
C564 C570 1.379 . S
C564 N572 1.356 . S
C565 C564 1.363 . S
C565 C571 1.363 . S
C566 C567 1.363 . S
C566 C571 1.379 . S
C566 N573 1.356 . S
C567 C566 1.363 . S
C567 C570 1.363 . S
N568 C570 1.356 . S
N568 H580 0.984 . S
N568 H581 0.985 . S
N569 C571 1.356 . S
N569 H574 0.984 . S
N569 H575 0.985 . S
C570 C564 1.379 . S
C570 C567 1.363 . S
C570 N568 1.356 . S
C571 C565 1.363 . S
C571 C566 1.379 . S
C571 N569 1.356 . S
N572 C564 1.356 . S
N572 H578 0.984 . S
N572 H579 0.984 . S
N573 C566 1.356 . S
N573 H576 0.984 . S
N573 H577 0.985 . S
H574 N569 0.984 . S
H575 N569 0.985 . S
H576 N573 0.984 . S
H577 N573 0.985 . S
H578 N572 0.984 . S
H579 N572 0.984 . S
H580 N568 0.984 . S
H581 N568 0.985 . S
C582 C583 1.363 . S
C582 C588 1.379 . S
C582 N590 1.356 . S
C583 C582 1.363 . S
C583 C589 1.363 . S
C584 C585 1.363 . S
C584 C589 1.379 . S
C584 N591 1.356 . S
C585 C584 1.363 . S
C585 C588 1.363 . S
N586 C588 1.356 . S
N586 H598 0.984 . S
N586 H599 0.985 . S
N587 C589 1.356 . S
N587 H592 0.984 . S
N587 H593 0.985 . S
C588 C582 1.379 . S
C588 C585 1.363 . S
C588 N586 1.356 . S
C589 C583 1.363 . S
C589 C584 1.379 . S
C589 N587 1.356 . S
N590 C582 1.356 . S
N590 H596 0.984 . S
N590 H597 0.984 . S
N591 C584 1.356 . S
N591 H594 0.984 . S
N591 H595 0.985 . S
H592 N587 0.984 . S
H593 N587 0.985 . S
H594 N591 0.984 . S
H595 N591 0.985 . S
H596 N590 0.984 . S
H597 N590 0.984 . S
H598 N586 0.984 . S
H599 N586 0.985 . S
C600 C601 1.363 . S
C600 C606 1.379 . S
C600 N608 1.356 . S
C601 C600 1.363 . S
C601 C607 1.363 . S
C602 C603 1.363 . S
C602 C607 1.379 . S
C602 N609 1.356 . S
C603 C602 1.363 . S
C603 C606 1.363 . S
N604 C606 1.356 . S
N604 H616 0.984 . S
N604 H617 0.985 . S
N605 C607 1.356 . S
N605 H610 0.984 . S
N605 H611 0.985 . S
C606 C600 1.379 . S
C606 C603 1.363 . S
C606 N604 1.356 . S
C607 C601 1.363 . S
C607 C602 1.379 . S
C607 N605 1.356 . S
N608 C600 1.356 . S
N608 H614 0.984 . S
N608 H615 0.984 . S
N609 C602 1.356 . S
N609 H612 0.984 . S
N609 H613 0.985 . S
H610 N605 0.984 . S
H611 N605 0.985 . S
H612 N609 0.984 . S
H613 N609 0.985 . S
H614 N608 0.984 . S
H615 N608 0.984 . S
H616 N604 0.984 . S
H617 N604 0.985 . S
C618 C619 1.363 . S
C618 C624 1.379 . S
C618 N626 1.356 . S
C619 C618 1.363 . S
C619 C625 1.363 . S
C620 C621 1.363 . S
C620 C625 1.379 . S
C620 N627 1.356 . S
C621 C620 1.363 . S
C621 C624 1.363 . S
N622 C624 1.356 . S
N622 H634 0.984 . S
N622 H635 0.985 . S
N623 C625 1.356 . S
N623 H628 0.984 . S
N623 H629 0.985 . S
C624 C618 1.379 . S
C624 C621 1.363 . S
C624 N622 1.356 . S
C625 C619 1.363 . S
C625 C620 1.379 . S
C625 N623 1.356 . S
N626 C618 1.356 . S
N626 H632 0.984 . S
N626 H633 0.984 . S
N627 C620 1.356 . S
N627 H630 0.984 . S
N627 H631 0.985 . S
H628 N623 0.984 . S
H629 N623 0.985 . S
H630 N627 0.984 . S
H631 N627 0.985 . S
H632 N626 0.984 . S
H633 N626 0.984 . S
H634 N622 0.984 . S
H635 N622 0.985 . S
C636 C637 1.363 . S
C636 C642 1.379 . S
C636 N644 1.356 . S
C637 C636 1.363 . S
C637 C643 1.363 . S
C638 C639 1.363 . S
C638 C643 1.379 . S
C638 N645 1.356 . S
C639 C638 1.363 . S
C639 C642 1.363 . S
N640 C642 1.356 . S
N640 H652 0.984 . S
N640 H653 0.985 . S
N641 C643 1.356 . S
N641 H646 0.984 . S
N641 H647 0.985 . S
C642 C636 1.379 . S
C642 C639 1.363 . S
C642 N640 1.356 . S
C643 C637 1.363 . S
C643 C638 1.379 . S
C643 N641 1.356 . S
N644 C636 1.356 . S
N644 H650 0.984 . S
N644 H651 0.984 . S
N645 C638 1.356 . S
N645 H648 0.984 . S
N645 H649 0.985 . S
H646 N641 0.984 . S
H647 N641 0.985 . S
H648 N645 0.984 . S
H649 N645 0.985 . S
H650 N644 0.984 . S
H651 N644 0.984 . S
H652 N640 0.984 . S
H653 N640 0.985 . S
C654 C655 1.363 . S
C654 C660 1.379 . S
C654 N662 1.356 . S
C655 C654 1.363 . S
C655 C661 1.363 . S
C656 C657 1.363 . S
C656 C661 1.379 . S
C656 N663 1.356 . S
C657 C656 1.363 . S
C657 C660 1.363 . S
N658 C660 1.356 . S
N658 H670 0.984 . S
N658 H671 0.985 . S
N659 C661 1.356 . S
N659 H664 0.984 . S
N659 H665 0.985 . S
C660 C654 1.379 . S
C660 C657 1.363 . S
C660 N658 1.356 . S
C661 C655 1.363 . S
C661 C656 1.379 . S
C661 N659 1.356 . S
N662 C654 1.356 . S
N662 H668 0.984 . S
N662 H669 0.984 . S
N663 C656 1.356 . S
N663 H666 0.984 . S
N663 H667 0.985 . S
H664 N659 0.984 . S
H665 N659 0.985 . S
H666 N663 0.984 . S
H667 N663 0.985 . S
H668 N662 0.984 . S
H669 N662 0.984 . S
H670 N658 0.984 . S
H671 N658 0.985 . S
C672 C673 1.363 . S
C672 C678 1.379 . S
C672 N680 1.356 . S
C673 C672 1.363 . S
C673 C679 1.363 . S
C674 C675 1.363 . S
C674 C679 1.379 . S
C674 N681 1.356 . S
C675 C674 1.363 . S
C675 C678 1.363 . S
N676 C678 1.356 . S
N676 H688 0.984 . S
N676 H689 0.985 . S
N677 C679 1.356 . S
N677 H682 0.984 . S
N677 H683 0.985 . S
C678 C672 1.379 . S
C678 C675 1.363 . S
C678 N676 1.356 . S
C679 C673 1.363 . S
C679 C674 1.379 . S
C679 N677 1.356 . S
N680 C672 1.356 . S
N680 H686 0.984 . S
N680 H687 0.984 . S
N681 C674 1.356 . S
N681 H684 0.984 . S
N681 H685 0.985 . S
H682 N677 0.984 . S
H683 N677 0.985 . S
H684 N681 0.984 . S
H685 N681 0.985 . S
H686 N680 0.984 . S
H687 N680 0.984 . S
H688 N676 0.984 . S
H689 N676 0.985 . S
C690 C691 1.363 . S
C690 C696 1.379 . S
C690 N698 1.356 . S
C691 C690 1.363 . S
C691 C697 1.363 . S
C692 C693 1.363 . S
C692 C697 1.379 . S
C692 N699 1.356 . S
C693 C692 1.363 . S
C693 C696 1.363 . S
N694 C696 1.356 . S
N694 H706 0.984 . S
N694 H707 0.985 . S
N695 C697 1.356 . S
N695 H700 0.984 . S
N695 H701 0.985 . S
C696 C690 1.379 . S
C696 C693 1.363 . S
C696 N694 1.356 . S
C697 C691 1.363 . S
C697 C692 1.379 . S
C697 N695 1.356 . S
N698 C690 1.356 . S
N698 H704 0.984 . S
N698 H705 0.984 . S
N699 C692 1.356 . S
N699 H702 0.984 . S
N699 H703 0.985 . S
H700 N695 0.984 . S
H701 N695 0.985 . S
H702 N699 0.984 . S
H703 N699 0.985 . S
H704 N698 0.984 . S
H705 N698 0.984 . S
H706 N694 0.984 . S
H707 N694 0.985 . S
C708 C709 1.363 . S
C708 C714 1.379 . S
C708 N716 1.356 . S
C709 C708 1.363 . S
C709 C715 1.363 . S
C710 C711 1.363 . S
C710 C715 1.379 . S
C710 N717 1.356 . S
C711 C710 1.363 . S
C711 C714 1.363 . S
N712 C714 1.356 . S
N712 H724 0.984 . S
N712 H725 0.985 . S
N713 C715 1.356 . S
N713 H718 0.984 . S
N713 H719 0.985 . S
C714 C708 1.379 . S
C714 C711 1.363 . S
C714 N712 1.356 . S
C715 C709 1.363 . S
C715 C710 1.379 . S
C715 N713 1.356 . S
N716 C708 1.356 . S
N716 H722 0.984 . S
N716 H723 0.984 . S
N717 C710 1.356 . S
N717 H720 0.984 . S
N717 H721 0.985 . S
H718 N713 0.984 . S
H719 N713 0.985 . S
H720 N717 0.984 . S
H721 N717 0.985 . S
H722 N716 0.984 . S
H723 N716 0.984 . S
H724 N712 0.984 . S
H725 N712 0.985 . S
C726 C727 1.363 . S
C726 C732 1.379 . S
C726 N734 1.356 . S
C727 C726 1.363 . S
C727 C733 1.363 . S
C728 C729 1.363 . S
C728 C733 1.379 . S
C728 N735 1.356 . S
C729 C728 1.363 . S
C729 C732 1.363 . S
N730 C732 1.356 . S
N730 H742 0.984 . S
N730 H743 0.985 . S
N731 C733 1.356 . S
N731 H736 0.984 . S
N731 H737 0.985 . S
C732 C726 1.379 . S
C732 C729 1.363 . S
C732 N730 1.356 . S
C733 C727 1.363 . S
C733 C728 1.379 . S
C733 N731 1.356 . S
N734 C726 1.356 . S
N734 H740 0.984 . S
N734 H741 0.984 . S
N735 C728 1.356 . S
N735 H738 0.984 . S
N735 H739 0.985 . S
H736 N731 0.984 . S
H737 N731 0.985 . S
H738 N735 0.984 . S
H739 N735 0.985 . S
H740 N734 0.984 . S
H741 N734 0.984 . S
H742 N730 0.984 . S
H743 N730 0.985 . S
C744 C745 1.363 . S
C744 C750 1.379 . S
C744 N752 1.356 . S
C745 C744 1.363 . S
C745 C751 1.363 . S
C746 C747 1.363 . S
C746 C751 1.379 . S
C746 N753 1.356 . S
C747 C746 1.363 . S
C747 C750 1.363 . S
N748 C750 1.356 . S
N748 H760 0.984 . S
N748 H761 0.985 . S
N749 C751 1.356 . S
N749 H754 0.984 . S
N749 H755 0.985 . S
C750 C744 1.379 . S
C750 C747 1.363 . S
C750 N748 1.356 . S
C751 C745 1.363 . S
C751 C746 1.379 . S
C751 N749 1.356 . S
N752 C744 1.356 . S
N752 H758 0.984 . S
N752 H759 0.984 . S
N753 C746 1.356 . S
N753 H756 0.984 . S
N753 H757 0.985 . S
H754 N749 0.984 . S
H755 N749 0.985 . S
H756 N753 0.984 . S
H757 N753 0.985 . S
H758 N752 0.984 . S
H759 N752 0.984 . S
H760 N748 0.984 . S
H761 N748 0.985 . S
C762 C763 1.363 . S
C762 C768 1.379 . S
C762 N770 1.356 . S
C763 C762 1.363 . S
C763 C769 1.363 . S
C764 C765 1.363 . S
C764 C769 1.379 . S
C764 N771 1.356 . S
C765 C764 1.363 . S
C765 C768 1.363 . S
N766 C768 1.356 . S
N766 H778 0.984 . S
N766 H779 0.985 . S
N767 C769 1.356 . S
N767 H772 0.984 . S
N767 H773 0.985 . S
C768 C762 1.379 . S
C768 C765 1.363 . S
C768 N766 1.356 . S
C769 C763 1.363 . S
C769 C764 1.379 . S
C769 N767 1.356 . S
N770 C762 1.356 . S
N770 H776 0.984 . S
N770 H777 0.984 . S
N771 C764 1.356 . S
N771 H774 0.984 . S
N771 H775 0.985 . S
H772 N767 0.984 . S
H773 N767 0.985 . S
H774 N771 0.984 . S
H775 N771 0.985 . S
H776 N770 0.984 . S
H777 N770 0.984 . S
H778 N766 0.984 . S
H779 N766 0.985 . S
C780 C781 1.363 . S
C780 C786 1.379 1_565 S
C780 N788 1.356 . S
C781 C780 1.363 . S
C781 C787 1.363 . S
C782 C783 1.363 . S
C782 C787 1.379 1_545 S
C782 N789 1.356 . S
C783 C782 1.363 . S
C783 C786 1.363 . S
N784 C786 1.356 . S
N784 H796 0.984 . S
N784 H797 0.985 . S
N785 C787 1.356 . S
N785 H790 0.984 . S
N785 H791 0.985 . S
C786 C780 1.379 1_545 S
C786 C783 1.363 . S
C786 N784 1.356 . S
C787 C781 1.363 . S
C787 C782 1.379 1_565 S
C787 N785 1.356 . S
N788 C780 1.356 . S
N788 H794 0.984 . S
N788 H795 0.984 . S
N789 C782 1.356 . S
N789 H792 0.984 . S
N789 H793 0.985 . S
H790 N785 0.984 . S
H791 N785 0.985 . S
H792 N789 0.984 . S
H793 N789 0.985 . S
H794 N788 0.984 . S
H795 N788 0.984 . S
H796 N784 0.984 . S
H797 N784 0.985 . S
C798 C799 1.363 . S
C798 C804 1.379 1_455 S
C798 N806 1.356 . S
C799 C798 1.363 . S
C799 C805 1.363 . S
C800 C801 1.363 . S
C800 C805 1.379 1_655 S
C800 N807 1.356 . S
C801 C800 1.363 . S
C801 C804 1.363 . S
N802 C804 1.356 . S
N802 H814 0.984 . S
N802 H815 0.985 . S
N803 C805 1.356 . S
N803 H808 0.984 . S
N803 H809 0.985 . S
C804 C798 1.379 1_655 S
C804 C801 1.363 . S
C804 N802 1.356 . S
C805 C799 1.363 . S
C805 C800 1.379 1_455 S
C805 N803 1.356 . S
N806 C798 1.356 . S
N806 H812 0.984 . S
N806 H813 0.984 . S
N807 C800 1.356 . S
N807 H810 0.984 . S
N807 H811 0.985 . S
H808 N803 0.984 . S
H809 N803 0.985 . S
H810 N807 0.984 . S
H811 N807 0.985 . S
H812 N806 0.984 . S
H813 N806 0.984 . S
H814 N802 0.984 . S
H815 N802 0.985 . S
C816 C817 1.363 . S
C816 C822 1.379 1_565 S
C816 N824 1.356 . S
C817 C816 1.363 . S
C817 C823 1.363 . S
C818 C819 1.363 . S
C818 C823 1.379 1_545 S
C818 N825 1.356 . S
C819 C818 1.363 . S
C819 C822 1.363 . S
N820 C822 1.356 . S
N820 H832 0.984 . S
N820 H833 0.985 . S
N821 C823 1.356 . S
N821 H826 0.984 . S
N821 H827 0.985 . S
C822 C816 1.379 1_545 S
C822 C819 1.363 . S
C822 N820 1.356 . S
C823 C817 1.363 . S
C823 C818 1.379 1_565 S
C823 N821 1.356 . S
N824 C816 1.356 . S
N824 H830 0.984 . S
N824 H831 0.984 . S
N825 C818 1.356 . S
N825 H828 0.984 . S
N825 H829 0.985 . S
H826 N821 0.984 . S
H827 N821 0.985 . S
H828 N825 0.984 . S
H829 N825 0.985 . S
H830 N824 0.984 . S
H831 N824 0.984 . S
H832 N820 0.984 . S
H833 N820 0.985 . S
C834 C835 1.363 . S
C834 C840 1.379 1_655 S
C834 N842 1.356 . S
C835 C834 1.363 . S
C835 C841 1.363 . S
C836 C837 1.363 . S
C836 C841 1.379 1_455 S
C836 N843 1.356 . S
C837 C836 1.363 . S
C837 C840 1.363 . S
N838 C840 1.356 . S
N838 H850 0.984 . S
N838 H851 0.985 . S
N839 C841 1.356 . S
N839 H844 0.984 . S
N839 H845 0.985 . S
C840 C834 1.379 1_455 S
C840 C837 1.363 . S
C840 N838 1.356 . S
C841 C835 1.363 . S
C841 C836 1.379 1_655 S
C841 N839 1.356 . S
N842 C834 1.356 . S
N842 H848 0.984 . S
N842 H849 0.984 . S
N843 C836 1.356 . S
N843 H846 0.984 . S
N843 H847 0.985 . S
H844 N839 0.984 . S
H845 N839 0.985 . S
H846 N843 0.984 . S
H847 N843 0.985 . S
H848 N842 0.984 . S
H849 N842 0.984 . S
H850 N838 0.984 . S
H851 N838 0.985 . S
C852 C853 1.363 . S
C852 C858 1.379 . S
C852 N860 1.356 . S
C853 C852 1.363 . S
C853 C859 1.363 . S
C854 C855 1.363 . S
C854 C859 1.379 . S
C854 N861 1.356 . S
C855 C854 1.363 . S
C855 C858 1.363 . S
N856 C858 1.356 . S
N856 H868 0.984 . S
N856 H869 0.985 . S
N857 C859 1.356 . S
N857 H862 0.984 . S
N857 H863 0.985 . S
C858 C852 1.379 . S
C858 C855 1.363 . S
C858 N856 1.356 . S
C859 C853 1.363 . S
C859 C854 1.379 . S
C859 N857 1.356 . S
N860 C852 1.356 . S
N860 H866 0.984 . S
N860 H867 0.984 . S
N861 C854 1.356 . S
N861 H864 0.984 . S
N861 H865 0.985 . S
H862 N857 0.984 . S
H863 N857 0.985 . S
H864 N861 0.984 . S
H865 N861 0.985 . S
H866 N860 0.984 . S
H867 N860 0.984 . S
H868 N856 0.984 . S
H869 N856 0.985 . S
C870 C871 1.363 . S
C870 C876 1.379 . S
C870 N878 1.356 . S
C871 C870 1.363 . S
C871 C877 1.363 . S
C872 C873 1.363 . S
C872 C877 1.379 . S
C872 N879 1.356 . S
C873 C872 1.363 . S
C873 C876 1.363 . S
N874 C876 1.356 . S
N874 H886 0.984 . S
N874 H887 0.985 . S
N875 C877 1.356 . S
N875 H880 0.984 . S
N875 H881 0.985 . S
C876 C870 1.379 . S
C876 C873 1.363 . S
C876 N874 1.356 . S
C877 C871 1.363 . S
C877 C872 1.379 . S
C877 N875 1.356 . S
N878 C870 1.356 . S
N878 H884 0.984 . S
N878 H885 0.984 . S
N879 C872 1.356 . S
N879 H882 0.984 . S
N879 H883 0.985 . S
H880 N875 0.984 . S
H881 N875 0.985 . S
H882 N879 0.984 . S
H883 N879 0.985 . S
H884 N878 0.984 . S
H885 N878 0.984 . S
H886 N874 0.984 . S
H887 N874 0.985 . S
C888 C889 1.363 . S
C888 C894 1.379 . S
C888 N896 1.356 . S
C889 C888 1.363 . S
C889 C895 1.363 . S
C890 C891 1.363 . S
C890 C895 1.379 . S
C890 N897 1.356 . S
C891 C890 1.363 . S
C891 C894 1.363 . S
N892 C894 1.356 . S
N892 H904 0.984 . S
N892 H905 0.985 . S
N893 C895 1.356 . S
N893 H898 0.984 . S
N893 H899 0.985 . S
C894 C888 1.379 . S
C894 C891 1.363 . S
C894 N892 1.356 . S
C895 C889 1.363 . S
C895 C890 1.379 . S
C895 N893 1.356 . S
N896 C888 1.356 . S
N896 H902 0.984 . S
N896 H903 0.984 . S
N897 C890 1.356 . S
N897 H900 0.984 . S
N897 H901 0.985 . S
H898 N893 0.984 . S
H899 N893 0.985 . S
H900 N897 0.984 . S
H901 N897 0.985 . S
H902 N896 0.984 . S
H903 N896 0.984 . S
H904 N892 0.984 . S
H905 N892 0.985 . S
C906 C907 1.363 . S
C906 C912 1.379 1_554 S
C906 N914 1.356 . S
C907 C906 1.363 . S
C907 C913 1.363 . S
C908 C909 1.363 . S
C908 C913 1.379 1_556 S
C908 N915 1.356 . S
C909 C908 1.363 . S
C909 C912 1.363 . S
N910 C912 1.356 . S
N910 H922 0.984 . S
N910 H923 0.985 . S
N911 C913 1.356 . S
N911 H916 0.984 . S
N911 H917 0.985 . S
C912 C906 1.379 1_556 S
C912 C909 1.363 . S
C912 N910 1.356 . S
C913 C907 1.363 . S
C913 C908 1.379 1_554 S
C913 N911 1.356 . S
N914 C906 1.356 . S
N914 H920 0.984 . S
N914 H921 0.984 . S
N915 C908 1.356 . S
N915 H918 0.984 . S
N915 H919 0.985 . S
H916 N911 0.984 . S
H917 N911 0.985 . S
H918 N915 0.984 . S
H919 N915 0.985 . S
H920 N914 0.984 . S
H921 N914 0.984 . S
H922 N910 0.984 . S
H923 N910 0.985 . S
C924 C925 1.363 . S
C924 C930 1.379 . S
C924 N932 1.356 . S
C925 C924 1.363 . S
C925 C931 1.363 . S
C926 C927 1.363 . S
C926 C931 1.379 . S
C926 N933 1.356 . S
C927 C926 1.363 . S
C927 C930 1.363 . S
N928 C930 1.356 . S
N928 H940 0.984 . S
N928 H941 0.985 . S
N929 C931 1.356 . S
N929 H934 0.984 . S
N929 H935 0.985 . S
C930 C924 1.379 . S
C930 C927 1.363 . S
C930 N928 1.356 . S
C931 C925 1.363 . S
C931 C926 1.379 . S
C931 N929 1.356 . S
N932 C924 1.356 . S
N932 H938 0.984 . S
N932 H939 0.984 . S
N933 C926 1.356 . S
N933 H936 0.984 . S
N933 H937 0.985 . S
H934 N929 0.984 . S
H935 N929 0.985 . S
H936 N933 0.984 . S
H937 N933 0.985 . S
H938 N932 0.984 . S
H939 N932 0.984 . S
H940 N928 0.984 . S
H941 N928 0.985 . S
C942 C943 1.363 . S
C942 C948 1.379 1_556 S
C942 N950 1.356 . S
C943 C942 1.363 . S
C943 C949 1.363 . S
C944 C945 1.363 . S
C944 C949 1.379 1_554 S
C944 N951 1.356 . S
C945 C944 1.363 . S
C945 C948 1.363 . S
N946 C948 1.356 . S
N946 H958 0.984 . S
N946 H959 0.985 . S
N947 C949 1.356 . S
N947 H952 0.984 . S
N947 H953 0.985 . S
C948 C942 1.379 1_554 S
C948 C945 1.363 . S
C948 N946 1.356 . S
C949 C943 1.363 . S
C949 C944 1.379 1_556 S
C949 N947 1.356 . S
N950 C942 1.356 . S
N950 H956 0.984 . S
N950 H957 0.984 . S
N951 C944 1.356 . S
N951 H954 0.984 . S
N951 H955 0.985 . S
H952 N947 0.984 . S
H953 N947 0.985 . S
H954 N951 0.984 . S
H955 N951 0.985 . S
H956 N950 0.984 . S
H957 N950 0.984 . S
H958 N946 0.984 . S
H959 N946 0.985 . S
C960 C961 1.363 . S
C960 C966 1.379 . S
C960 N968 1.356 . S
C961 C960 1.363 . S
C961 C967 1.363 . S
C962 C963 1.363 . S
C962 C967 1.379 . S
C962 N969 1.356 . S
C963 C962 1.363 . S
C963 C966 1.363 . S
N964 C966 1.356 . S
N964 H976 0.984 . S
N964 H977 0.985 . S
N965 C967 1.356 . S
N965 H970 0.984 . S
N965 H971 0.985 . S
C966 C960 1.379 . S
C966 C963 1.363 . S
C966 N964 1.356 . S
C967 C961 1.363 . S
C967 C962 1.379 . S
C967 N965 1.356 . S
N968 C960 1.356 . S
N968 H974 0.984 . S
N968 H975 0.984 . S
N969 C962 1.356 . S
N969 H972 0.984 . S
N969 H973 0.985 . S
H970 N965 0.984 . S
H971 N965 0.985 . S
H972 N969 0.984 . S
H973 N969 0.985 . S
H974 N968 0.984 . S
H975 N968 0.984 . S
H976 N964 0.984 . S
H977 N964 0.985 . S
C978 C979 1.363 . S
C978 C984 1.379 . S
C978 N986 1.356 . S
C979 C978 1.363 . S
C979 C985 1.363 . S
C980 C981 1.363 . S
C980 C985 1.379 . S
C980 N987 1.356 . S
C981 C980 1.363 . S
C981 C984 1.363 . S
N982 C984 1.356 . S
N982 H994 0.984 . S
N982 H995 0.985 . S
N983 C985 1.356 . S
N983 H988 0.984 . S
N983 H989 0.985 . S
C984 C978 1.379 . S
C984 C981 1.363 . S
C984 N982 1.356 . S
C985 C979 1.363 . S
C985 C980 1.379 . S
C985 N983 1.356 . S
N986 C978 1.356 . S
N986 H992 0.984 . S
N986 H993 0.984 . S
N987 C980 1.356 . S
N987 H990 0.984 . S
N987 H991 0.985 . S
H988 N983 0.984 . S
H989 N983 0.985 . S
H990 N987 0.984 . S
H991 N987 0.985 . S
H992 N986 0.984 . S
H993 N986 0.984 . S
H994 N982 0.984 . S
H995 N982 0.985 . S
C996 C997 1.363 . S
C996 C1002 1.379 1_545 S
C996 N1004 1.356 . S
C997 C996 1.363 . S
C997 C1003 1.363 . S
C998 C999 1.363 . S
C998 C1003 1.379 1_565 S
C998 N1005 1.356 . S
C999 C998 1.363 . S
C999 C1002 1.363 . S
N1000 C1002 1.356 . S
N1000 H1012 0.984 . S
N1000 H1013 0.985 . S
N1001 C1003 1.356 . S
N1001 H1006 0.984 . S
N1001 H1007 0.985 . S
C1002 C996 1.379 1_565 S
C1002 C999 1.363 . S
C1002 N1000 1.356 . S
C1003 C997 1.363 . S
C1003 C998 1.379 1_545 S
C1003 N1001 1.356 . S
N1004 C996 1.356 . S
N1004 H1010 0.984 . S
N1004 H1011 0.984 . S
N1005 C998 1.356 . S
N1005 H1008 0.984 . S
N1005 H1009 0.985 . S
H1006 N1001 0.984 . S
H1007 N1001 0.985 . S
H1008 N1005 0.984 . S
H1009 N1005 0.985 . S
H1010 N1004 0.984 . S
H1011 N1004 0.984 . S
H1012 N1000 0.984 . S
H1013 N1000 0.985 . S
C1014 C1015 1.363 . S
C1014 C1020 1.379 1_455 S
C1014 N1022 1.356 . S
C1015 C1014 1.363 . S
C1015 C1021 1.363 . S
C1016 C1017 1.363 . S
C1016 C1021 1.379 1_655 S
C1016 N1023 1.356 . S
C1017 C1016 1.363 . S
C1017 C1020 1.363 . S
N1018 C1020 1.356 . S
N1018 H1030 0.984 . S
N1018 H1031 0.985 . S
N1019 C1021 1.356 . S
N1019 H1024 0.984 . S
N1019 H1025 0.985 . S
C1020 C1014 1.379 1_655 S
C1020 C1017 1.363 . S
C1020 N1018 1.356 . S
C1021 C1015 1.363 . S
C1021 C1016 1.379 1_455 S
C1021 N1019 1.356 . S
N1022 C1014 1.356 . S
N1022 H1028 0.984 . S
N1022 H1029 0.984 . S
N1023 C1016 1.356 . S
N1023 H1026 0.984 . S
N1023 H1027 0.985 . S
H1024 N1019 0.984 . S
H1025 N1019 0.985 . S
H1026 N1023 0.984 . S
H1027 N1023 0.985 . S
H1028 N1022 0.984 . S
H1029 N1022 0.984 . S
H1030 N1018 0.984 . S
H1031 N1018 0.985 . S
C1032 C1033 1.363 . S
C1032 C1038 1.379 1_545 S
C1032 N1040 1.356 . S
C1033 C1032 1.363 . S
C1033 C1039 1.363 . S
C1034 C1035 1.363 . S
C1034 C1039 1.379 1_565 S
C1034 N1041 1.356 . S
C1035 C1034 1.363 . S
C1035 C1038 1.363 . S
N1036 C1038 1.356 . S
N1036 H1048 0.984 . S
N1036 H1049 0.985 . S
N1037 C1039 1.356 . S
N1037 H1042 0.984 . S
N1037 H1043 0.985 . S
C1038 C1032 1.379 1_565 S
C1038 C1035 1.363 . S
C1038 N1036 1.356 . S
C1039 C1033 1.363 . S
C1039 C1034 1.379 1_545 S
C1039 N1037 1.356 . S
N1040 C1032 1.356 . S
N1040 H1046 0.984 . S
N1040 H1047 0.984 . S
N1041 C1034 1.356 . S
N1041 H1044 0.984 . S
N1041 H1045 0.985 . S
H1042 N1037 0.984 . S
H1043 N1037 0.985 . S
H1044 N1041 0.984 . S
H1045 N1041 0.985 . S
H1046 N1040 0.984 . S
H1047 N1040 0.984 . S
H1048 N1036 0.984 . S
H1049 N1036 0.985 . S
C1050 C1051 1.363 . S
C1050 C1056 1.379 1_455 S
C1050 N1058 1.356 . S
C1051 C1050 1.363 . S
C1051 C1057 1.363 . S
C1052 C1053 1.363 . S
C1052 C1057 1.379 1_655 S
C1052 N1059 1.356 . S
C1053 C1052 1.363 . S
C1053 C1056 1.363 . S
N1054 C1056 1.356 . S
N1054 H1066 0.984 . S
N1054 H1067 0.985 . S
N1055 C1057 1.356 . S
N1055 H1060 0.984 . S
N1055 H1061 0.985 . S
C1056 C1050 1.379 1_655 S
C1056 C1053 1.363 . S
C1056 N1054 1.356 . S
C1057 C1051 1.363 . S
C1057 C1052 1.379 1_455 S
C1057 N1055 1.356 . S
N1058 C1050 1.356 . S
N1058 H1064 0.984 . S
N1058 H1065 0.984 . S
N1059 C1052 1.356 . S
N1059 H1062 0.984 . S
N1059 H1063 0.985 . S
H1060 N1055 0.984 . S
H1061 N1055 0.985 . S
H1062 N1059 0.984 . S
H1063 N1059 0.985 . S
H1064 N1058 0.984 . S
H1065 N1058 0.984 . S
H1066 N1054 0.984 . S
H1067 N1054 0.985 . S
C1068 C1069 1.363 . S
C1068 C1074 1.379 . S
C1068 N1076 1.356 . S
C1069 C1068 1.363 . S
C1069 C1075 1.363 . S
C1070 C1071 1.363 . S
C1070 C1075 1.379 . S
C1070 N1077 1.356 . S
C1071 C1070 1.363 . S
C1071 C1074 1.363 . S
N1072 C1074 1.356 . S
N1072 H1084 0.984 . S
N1072 H1085 0.985 . S
N1073 C1075 1.356 . S
N1073 H1078 0.984 . S
N1073 H1079 0.985 . S
C1074 C1068 1.379 . S
C1074 C1071 1.363 . S
C1074 N1072 1.356 . S
C1075 C1069 1.363 . S
C1075 C1070 1.379 . S
C1075 N1073 1.356 . S
N1076 C1068 1.356 . S
N1076 H1082 0.984 . S
N1076 H1083 0.984 . S
N1077 C1070 1.356 . S
N1077 H1080 0.984 . S
N1077 H1081 0.985 . S
H1078 N1073 0.984 . S
H1079 N1073 0.985 . S
H1080 N1077 0.984 . S
H1081 N1077 0.985 . S
H1082 N1076 0.984 . S
H1083 N1076 0.984 . S
H1084 N1072 0.984 . S
H1085 N1072 0.985 . S
C1086 C1087 1.363 . S
C1086 C1092 1.379 . S
C1086 N1094 1.356 . S
C1087 C1086 1.363 . S
C1087 C1093 1.363 . S
C1088 C1089 1.363 . S
C1088 C1093 1.379 . S
C1088 N1095 1.356 . S
C1089 C1088 1.363 . S
C1089 C1092 1.363 . S
N1090 C1092 1.356 . S
N1090 H1102 0.984 . S
N1090 H1103 0.985 . S
N1091 C1093 1.356 . S
N1091 H1096 0.984 . S
N1091 H1097 0.985 . S
C1092 C1086 1.379 . S
C1092 C1089 1.363 . S
C1092 N1090 1.356 . S
C1093 C1087 1.363 . S
C1093 C1088 1.379 . S
C1093 N1091 1.356 . S
N1094 C1086 1.356 . S
N1094 H1100 0.984 . S
N1094 H1101 0.984 . S
N1095 C1088 1.356 . S
N1095 H1098 0.984 . S
N1095 H1099 0.985 . S
H1096 N1091 0.984 . S
H1097 N1091 0.985 . S
H1098 N1095 0.984 . S
H1099 N1095 0.985 . S
H1100 N1094 0.984 . S
H1101 N1094 0.984 . S
H1102 N1090 0.984 . S
H1103 N1090 0.985 . S
C1104 C1105 1.363 . S
C1104 C1110 1.379 . S
C1104 N1112 1.356 . S
C1105 C1104 1.363 . S
C1105 C1111 1.363 . S
C1106 C1107 1.363 . S
C1106 C1111 1.379 . S
C1106 N1113 1.356 . S
C1107 C1106 1.363 . S
C1107 C1110 1.363 . S
N1108 C1110 1.356 . S
N1108 H1120 0.984 . S
N1108 H1121 0.985 . S
N1109 C1111 1.356 . S
N1109 H1114 0.984 . S
N1109 H1115 0.985 . S
C1110 C1104 1.379 . S
C1110 C1107 1.363 . S
C1110 N1108 1.356 . S
C1111 C1105 1.363 . S
C1111 C1106 1.379 . S
C1111 N1109 1.356 . S
N1112 C1104 1.356 . S
N1112 H1118 0.984 . S
N1112 H1119 0.984 . S
N1113 C1106 1.356 . S
N1113 H1116 0.984 . S
N1113 H1117 0.985 . S
H1114 N1109 0.984 . S
H1115 N1109 0.985 . S
H1116 N1113 0.984 . S
H1117 N1113 0.985 . S
H1118 N1112 0.984 . S
H1119 N1112 0.984 . S
H1120 N1108 0.984 . S
H1121 N1108 0.985 . S
C1122 C1123 1.363 . S
C1122 C1128 1.379 1_554 S
C1122 N1130 1.356 . S
C1123 C1122 1.363 . S
C1123 C1129 1.363 . S
C1124 C1125 1.363 . S
C1124 C1129 1.379 1_556 S
C1124 N1131 1.356 . S
C1125 C1124 1.363 . S
C1125 C1128 1.363 . S
N1126 C1128 1.356 . S
N1126 H1138 0.984 . S
N1126 H1139 0.985 . S
N1127 C1129 1.356 . S
N1127 H1132 0.984 . S
N1127 H1133 0.985 . S
C1128 C1122 1.379 1_556 S
C1128 C1125 1.363 . S
C1128 N1126 1.356 . S
C1129 C1123 1.363 . S
C1129 C1124 1.379 1_554 S
C1129 N1127 1.356 . S
N1130 C1122 1.356 . S
N1130 H1136 0.984 . S
N1130 H1137 0.984 . S
N1131 C1124 1.356 . S
N1131 H1134 0.984 . S
N1131 H1135 0.985 . S
H1132 N1127 0.984 . S
H1133 N1127 0.985 . S
H1134 N1131 0.984 . S
H1135 N1131 0.985 . S
H1136 N1130 0.984 . S
H1137 N1130 0.984 . S
H1138 N1126 0.984 . S
H1139 N1126 0.985 . S
C1140 C1141 1.363 . S
C1140 C1146 1.379 . S
C1140 N1148 1.356 . S
C1141 C1140 1.363 . S
C1141 C1147 1.363 . S
C1142 C1143 1.363 . S
C1142 C1147 1.379 . S
C1142 N1149 1.356 . S
C1143 C1142 1.363 . S
C1143 C1146 1.363 . S
N1144 C1146 1.356 . S
N1144 H1156 0.984 . S
N1144 H1157 0.985 . S
N1145 C1147 1.356 . S
N1145 H1150 0.984 . S
N1145 H1151 0.985 . S
C1146 C1140 1.379 . S
C1146 C1143 1.363 . S
C1146 N1144 1.356 . S
C1147 C1141 1.363 . S
C1147 C1142 1.379 . S
C1147 N1145 1.356 . S
N1148 C1140 1.356 . S
N1148 H1154 0.984 . S
N1148 H1155 0.984 . S
N1149 C1142 1.356 . S
N1149 H1152 0.984 . S
N1149 H1153 0.985 . S
H1150 N1145 0.984 . S
H1151 N1145 0.985 . S
H1152 N1149 0.984 . S
H1153 N1149 0.985 . S
H1154 N1148 0.984 . S
H1155 N1148 0.984 . S
H1156 N1144 0.984 . S
H1157 N1144 0.985 . S
C1158 C1159 1.363 . S
C1158 C1164 1.379 1_554 S
C1158 N1166 1.356 . S
C1159 C1158 1.363 . S
C1159 C1165 1.363 . S
C1160 C1161 1.363 . S
C1160 C1165 1.379 1_556 S
C1160 N1167 1.356 . S
C1161 C1160 1.363 . S
C1161 C1164 1.363 . S
N1162 C1164 1.356 . S
N1162 H1174 0.984 . S
N1162 H1175 0.985 . S
N1163 C1165 1.356 . S
N1163 H1168 0.984 . S
N1163 H1169 0.985 . S
C1164 C1158 1.379 1_556 S
C1164 C1161 1.363 . S
C1164 N1162 1.356 . S
C1165 C1159 1.363 . S
C1165 C1160 1.379 1_554 S
C1165 N1163 1.356 . S
N1166 C1158 1.356 . S
N1166 H1172 0.984 . S
N1166 H1173 0.984 . S
N1167 C1160 1.356 . S
N1167 H1170 0.984 . S
N1167 H1171 0.985 . S
H1168 N1163 0.984 . S
H1169 N1163 0.985 . S
H1170 N1167 0.984 . S
H1171 N1167 0.985 . S
H1172 N1166 0.984 . S
H1173 N1166 0.984 . S
H1174 N1162 0.984 . S
H1175 N1162 0.985 . S
C313 C53 1.535 . S
C315 C10 1.594 . S
C331 C23 1.594 . S
C333 C75 1.594 . S
C349 C88 1.594 . S
C351 C27 1.535 . S
C367 C101 1.594 . S
C369 C40 1.535 . S
C385 C192 1.594 . S
C387 C105 1.535 . S
C403 C205 1.594 . S
C405 C118 1.535 . S
C421 C140 1.594 . S
C423 C157 1.535 . S
C439 C179 1.594 . S
C441 C144 1.535 . S
C457 C209 1.535 . S
C459 C283 1.594 . S
C475 C231 1.594 . S
C477 C257 1.594 . S
C493 C244 1.594 . S
C495 C270 1.594 . S
C511 C287 1.535 . S
C513 C300 1.535 . S
C529 C49 1.535 . S
C531 C66 1.594 . S
C547 C1 1.594 . S
C549 C79 1.594 . S
C565 C92 1.594 . S
C567 C14 1.594 . S
C583 C36 1.535 . S
C585 C62 1.535 . S
C601 C309 1.535 . S
C603 C235 1.594 . S
C619 C248 1.594 . S
C621 C274 1.594 . S
C637 C261 1.594 . S
C639 C296 1.535 . S
C655 C222 1.594 . S
C657 C218 1.535 . S
C673 C153 1.535 . S
C675 C127 1.535 . S
C691 C196 1.594 . S
C693 C170 1.594 . S
C709 C166 1.535 . S
C711 C183 1.594 . S
C727 C131 1.594 . S
C729 C114 1.535 . S
C745 C289 1.577 . S
C747 C5 1.627 . S
C763 C211 1.577 . S
C765 C18 1.627 . S
C781 C302 1.577 . S
C783 C29 1.577 . S
C799 C278 1.627 . S
C801 C42 1.577 . S
C817 C239 1.627 . S
C819 C55 1.577 . S
C835 C70 1.627 . S
C837 C252 1.627 . S
C853 C265 1.627 . S
C855 C83 1.627 . S
C871 C226 1.627 . S
C873 C96 1.627 . S
C889 C174 1.627 . S
C891 C107 1.577 . S
C907 C187 1.627 . S
C909 C120 1.577 . S
C925 C200 1.627 . S
C927 C135 1.627 . S
C943 C146 1.577 . S
C945 C159 1.577 . S
C961 C68 1.627 . S
C963 C133 1.627 . S
C979 C81 1.627 . S
C981 C148 1.577 . S
C997 C109 1.577 . S
C999 C94 1.627 . S
C1015 C57 1.577 . S
C1017 C122 1.577 . S
C1033 C185 1.627 . S
C1035 C44 1.577 . S
C1051 C3 1.627 . S
C1053 C198 1.627 . S
C1069 C161 1.577 . S
C1071 C16 1.627 . S
C1087 C31 1.577 . S
C1089 C172 1.627 . S
C1105 C224 1.627 . S
C1107 C304 1.577 . S
C1123 C276 1.627 . S
C1125 C237 1.627 . S
C1141 C291 1.577 . S
C1143 C250 1.627 . S
C1159 C213 1.577 . S
C1161 C263 1.627 . S
