# Generated by pormake.
# Topology snk, (6)-cn, num edge types: 1
# Building blocks:
#     Node 0, Type 0, BuildingBlock: KUMBUR_clean_sbu_1, # of connection points: 6
#     Node 1, Type 0, BuildingBlock: KUMBUR_clean_sbu_1, # of connection points: 6
#     Node 2, Type 0, BuildingBlock: KUMBUR_clean_sbu_1, # of connection points: 6
#     Node 3, Type 0, BuildingBlock: KUMBUR_clean_sbu_1, # of connection points: 6
#     Node 4, Type 0, BuildingBlock: KUMBUR_clean_sbu_1, # of connection points: 6
#     Node 5, Type 0, BuildingBlock: KUMBUR_clean_sbu_1, # of connection points: 6
#     Node 6, Type 0, BuildingBlock: KUMBUR_clean_sbu_1, # of connection points: 6
#     Node 7, Type 0, BuildingBlock: KUMBUR_clean_sbu_1, # of connection points: 6
#     Edge 8, Type (0, 0), BuildingBlock: XIVTED_clean_linker_0, # of connection points: 2
#     Edge 9, Type (0, 0), BuildingBlock: XIVTED_clean_linker_0, # of connection points: 2
#     Edge 10, Type (0, 0), BuildingBlock: XIVTED_clean_linker_0, # of connection points: 2
#     Edge 11, Type (0, 0), BuildingBlock: XIVTED_clean_linker_0, # of connection points: 2
#     Edge 12, Type (0, 0), BuildingBlock: XIVTED_clean_linker_0, # of connection points: 2
#     Edge 13, Type (0, 0), BuildingBlock: XIVTED_clean_linker_0, # of connection points: 2
#     Edge 14, Type (0, 0), BuildingBlock: XIVTED_clean_linker_0, # of connection points: 2
#     Edge 15, Type (0, 0), BuildingBlock: XIVTED_clean_linker_0, # of connection points: 2
#     Edge 16, Type (0, 0), BuildingBlock: XIVTED_clean_linker_0, # of connection points: 2
#     Edge 17, Type (0, 0), BuildingBlock: XIVTED_clean_linker_0, # of connection points: 2
#     Edge 18, Type (0, 0), BuildingBlock: XIVTED_clean_linker_0, # of connection points: 2
#     Edge 19, Type (0, 0), BuildingBlock: XIVTED_clean_linker_0, # of connection points: 2
#     Edge 20, Type (0, 0), BuildingBlock: XIVTED_clean_linker_0, # of connection points: 2
#     Edge 21, Type (0, 0), BuildingBlock: XIVTED_clean_linker_0, # of connection points: 2
#     Edge 22, Type (0, 0), BuildingBlock: XIVTED_clean_linker_0, # of connection points: 2
#     Edge 23, Type (0, 0), BuildingBlock: XIVTED_clean_linker_0, # of connection points: 2
#     Edge 24, Type (0, 0), BuildingBlock: XIVTED_clean_linker_0, # of connection points: 2
#     Edge 25, Type (0, 0), BuildingBlock: XIVTED_clean_linker_0, # of connection points: 2
#     Edge 26, Type (0, 0), BuildingBlock: XIVTED_clean_linker_0, # of connection points: 2
#     Edge 27, Type (0, 0), BuildingBlock: XIVTED_clean_linker_0, # of connection points: 2
#     Edge 28, Type (0, 0), BuildingBlock: XIVTED_clean_linker_0, # of connection points: 2
#     Edge 29, Type (0, 0), BuildingBlock: XIVTED_clean_linker_0, # of connection points: 2
#     Edge 30, Type (0, 0), BuildingBlock: XIVTED_clean_linker_0, # of connection points: 2
#     Edge 31, Type (0, 0), BuildingBlock: XIVTED_clean_linker_0, # of connection points: 2
# Relax obj value: 0.008
# Max RMSD: 0.072
# Mean RMSD: 0.071
data_MOF--net-snk--node1-KUMBUR_clean_sbu_1--edge1-XIVTED_clean_linker_0
_symmetry_space_group_name_H-M    P1
_symmetry_Int_Tables_number       1
_symmetry_cell_setting            triclinic
loop_
_symmetry_equiv_pos_as_xyz
'x, y, z'
_cell_length_a     38.513262
_cell_length_b     38.422632
_cell_length_c     24.727634
_cell_angle_alpha  90.286011
_cell_angle_beta   89.823764
_cell_angle_gamma 90.059183
loop_
_atom_site_label
_atom_site_type_symbol
_atom_site_fract_x
_atom_site_fract_y
_atom_site_fract_z
_atom_type_partial_charge
Tb0 Tb 0.0046 0.02884 0.58673 0.0
C1 C 0.9532 0.90785 0.45087 0.0
N2 N 0.98673 0.91755 0.45865 0.0
C3 C 1.00228 0.85858 0.4782 0.0
C4 C 0.9425 0.8732 0.45893 0.0
C5 C 0.01155 0.89341 0.47026 0.0
C6 C 0.96754 0.84848 0.47311 0.0
C7 C 0.89455 0.92419 0.4272 0.0
C8 C 0.92965 0.93309 0.43554 0.0
C9 C 0.88338 0.8899 0.43678 0.0
C10 C 0.90733 0.86444 0.45252 0.0
Tb11 Tb 0.99925 0.97487 0.44593 0.0
N12 N 0.9415 0.96599 0.42676 0.0
C13 C 0.87195 0.94976 0.40807 0.0
C14 C 0.92016 0.99 0.40338 0.0
C15 C 0.88499 0.9826 0.39511 0.0
H16 H 0.03844 0.90105 0.47371 0.0
H17 H 0.86809 1.00205 0.37779 0.0
H18 H 0.9403 0.08745 0.58394 0.0
H19 H 0.13984 0.04769 0.63354 0.0
H20 H 0.93006 0.01464 0.38954 0.0
H21 H 0.84477 0.94401 0.40115 0.0
H22 H 0.08491 0.01434 0.6251 0.0
H23 H 0.02191 0.83956 0.48826 0.0
H24 H 0.85643 0.88265 0.43109 0.0
H25 H 0.89846 0.83801 0.45903 0.0
H26 H 0.93443 0.15028 0.56686 0.0
H27 H 0.96041 0.82153 0.4796 0.0
H28 H 0.14115 0.11031 0.61016 0.0
N29 N 0.99549 0.08754 0.57693 0.0
C30 C 0.02443 0.10772 0.57567 0.0
C31 C 0.95996 0.13857 0.56838 0.0
C32 C 0.02241 0.14401 0.56819 0.0
C33 C 0.96341 0.10277 0.577 0.0
C34 C 0.98962 0.15921 0.56286 0.0
N35 N 0.05621 0.05754 0.59588 0.0
C36 C 0.08545 0.04169 0.61507 0.0
C37 C 0.08642 0.11231 0.59053 0.0
C38 C 0.0559 0.09227 0.58659 0.0
C39 C 0.11711 0.09583 0.60655 0.0
C40 C 0.11647 0.06048 0.61983 0.0
H41 H 0.98689 0.187 0.55699 0.0
H42 H 0.05206 0.19188 0.56248 0.0
H43 H 0.10822 0.16405 0.5821 0.0
O44 O 0.01415 1.00246 0.65933 0.0
O45 O 0.04677 0.03189 0.52603 0.0
O46 O 0.01993 0.02796 0.44373 0.0
O47 O 0.9873 0.05111 0.66038 0.0
O48 O 0.02906 0.97747 0.58368 0.0
O49 O 0.04633 0.96593 0.49482 0.0
O50 O 0.99131 0.96675 0.36248 0.0
O51 O 0.9813 0.9526 0.52302 0.0
O52 O 0.9576 0.99828 0.56996 0.0
O53 O 0.0415 0.95902 0.39769 0.0
O54 O 0.97727 0.02763 0.44812 0.0
O55 O 0.95793 0.03555 0.53601 0.0
C56 C 0.04423 0.04088 0.47505 0.0
C57 C 0.97486 0.01115 0.73062 0.0
C58 C 0.96415 0.99635 0.8254 0.0
C59 C 0.93312 0.97976 0.80985 0.0
C60 C 0.94367 0.99486 0.71611 0.0
C61 C 0.92296 0.97918 0.75558 0.0
C62 C 0.98491 0.01199 0.78521 0.0
C63 C 0.04914 0.96171 0.54777 0.0
C64 C 0.99843 0.02534 0.68929 0.0
C65 C 0.05301 0.16401 0.56875 0.0
C66 C 0.08498 0.14818 0.58003 0.0
C67 C 0.95738 0.96532 0.55543 0.0
C68 C 0.03944 0.98364 0.30982 0.0
C69 C 0.0402 1.0031 0.21543 0.0
C70 C 0.06676 0.02683 0.2288 0.0
C71 C 0.06577 0.00779 0.32189 0.0
C72 C 0.02677 0.9814 0.25647 0.0
C73 C 0.0793 0.02915 0.28158 0.0
C74 C 0.95717 0.04318 0.4841 0.0
C75 C 0.02408 0.96177 0.35286 0.0
H76 H 0.91645 0.96766 0.83971 0.0
H77 H 0.93557 0.99405 0.67432 0.0
H78 H 0.89898 0.96646 0.74407 0.0
H79 H 0.00934 0.02414 0.79615 0.0
H80 H 0.07822 0.04344 0.19833 0.0
H81 H 0.07587 0.01033 0.36254 0.0
H82 H 0.00598 0.96329 0.24737 0.0
H83 H 0.09962 0.04762 0.29129 0.0
Tb84 Tb 0.22213 0.7483 0.83512 0.0
C85 C 0.3577 0.73054 0.69597 0.0
N86 N 0.33897 0.76012 0.7037 0.0
C87 C 0.39147 0.79298 0.71464 0.0
C88 C 0.39426 0.73101 0.69758 0.0
C89 C 0.35522 0.79122 0.71251 0.0
C90 C 0.41109 0.76275 0.70721 0.0
C91 C 0.35841 0.66834 0.67873 0.0
C92 C 0.33995 0.69959 0.68684 0.0
C93 C 0.39487 0.66865 0.68029 0.0
C94 C 0.41275 0.69989 0.68971 0.0
Tb95 Tb 0.28021 0.75402 0.69873 0.0
N96 N 0.30456 0.70016 0.68692 0.0
C97 C 0.33966 0.63776 0.66905 0.0
C98 C 0.2863 0.67069 0.6748 0.0
C99 C 0.30348 0.63903 0.66657 0.0
H100 H 0.34031 0.81485 0.71668 0.0
H101 H 0.28879 0.61569 0.65757 0.0
H102 H 0.16169 0.68781 0.81793 0.0
H103 H 0.2143 0.88654 0.87771 0.0
H104 H 0.25864 0.67126 0.6699 0.0
H105 H 0.35285 0.61319 0.66253 0.0
H106 H 0.24408 0.83078 0.86546 0.0
H107 H 0.40426 0.81769 0.7216 0.0
H108 H 0.4095 0.64487 0.6742 0.0
H109 H 0.44087 0.69971 0.69081 0.0
H110 H 0.09771 0.68531 0.81302 0.0
H111 H 0.43917 0.76422 0.70876 0.0
H112 H 0.15028 0.88949 0.87217 0.0
N113 N 0.16332 0.74254 0.83062 0.0
C114 C 0.14477 0.77222 0.83838 0.0
C115 C 0.11064 0.70996 0.81988 0.0
C116 C 0.1082 0.77196 0.83678 0.0
C117 C 0.14689 0.71152 0.82196 0.0
C118 C 0.09119 0.74031 0.82721 0.0
N119 N 0.19807 0.80226 0.84755 0.0
C120 C 0.21648 0.83157 0.86012 0.0
C121 C 0.14441 0.83441 0.85571 0.0
C122 C 0.16269 0.80306 0.84753 0.0
C123 C 0.16333 0.86485 0.86561 0.0
C124 C 0.19949 0.86332 0.8684 0.0
H125 H 0.06311 0.73901 0.82566 0.0
H126 H 0.06178 0.80355 0.84342 0.0
H127 H 0.09346 0.85819 0.86012 0.0
O128 O 0.24096 0.75643 0.91409 0.0
O129 O 0.19896 0.77344 0.76371 0.0
O130 O 0.24525 0.79708 0.71808 0.0
O131 O 0.2011 0.71857 0.89855 0.0
O132 O 0.27224 0.77593 0.83819 0.0
O133 O 0.28129 0.79914 0.75306 0.0
O134 O 0.26184 0.74553 0.61957 0.0
O135 O 0.30336 0.72902 0.77031 0.0
O136 O 0.25698 0.70522 0.81532 0.0
O137 O 0.30133 0.78372 0.63535 0.0
O138 O 0.23006 0.7264 0.69533 0.0
O139 O 0.2207 0.70333 0.78048 0.0
C140 C 0.21174 0.79439 0.7267 0.0
C141 C 0.20008 0.74701 0.98379 0.0
C142 C 0.1992 0.75803 0.08128 0.0
C143 C 0.16495 0.77034 0.07673 0.0
C144 C 0.16573 0.75894 0.98046 0.0
C145 C 0.14842 0.77077 0.02661 0.0
C146 C 0.21668 0.74659 0.03429 0.0
C147 C 0.28807 0.79765 0.80516 0.0
C148 C 0.21901 0.73466 0.93545 0.0
C149 C 0.0899 0.80319 0.84457 0.0
C150 C 0.10795 0.83432 0.85403 0.0
C151 C 0.29053 0.70805 0.80724 0.0
C152 C 0.30287 0.75526 0.55015 0.0
C153 C 0.30424 0.74454 0.45258 0.0
C154 C 0.33851 0.73234 0.45742 0.0
C155 C 0.33725 0.74346 0.55376 0.0
C156 C 0.2865 0.75576 0.49946 0.0
C157 C 0.35482 0.73183 0.50771 0.0
C158 C 0.21389 0.7049 0.72836 0.0
C159 C 0.28368 0.76746 0.59834 0.0
H160 H 0.1506 0.7789 0.11209 0.0
H161 H 0.15208 0.75884 0.94253 0.0
H162 H 0.12192 0.77991 0.02363 0.0
H163 H 0.24325 0.73746 0.03687 0.0
H164 H 0.35305 0.72394 0.42215 0.0
H165 H 0.35074 0.74352 0.59182 0.0
H166 H 0.25992 0.76482 0.49665 0.0
H167 H 0.38134 0.72279 0.51092 0.0
Tb168 Tb 0.50307 0.97293 0.07898 0.0
C169 C 0.52309 0.11187 0.94912 0.0
N170 N 0.49367 0.09239 0.95201 0.0
C171 C 0.45936 0.14427 0.95974 0.0
C172 C 0.52182 0.14848 0.95243 0.0
C173 C 0.46195 0.10802 0.95642 0.0
C174 C 0.48942 0.1646 0.95799 0.0
C175 C 0.58587 0.11409 0.9415 0.0
C176 C 0.5547 0.09489 0.94378 0.0
C177 C 0.58477 0.15058 0.94491 0.0
C178 C 0.55283 0.16773 0.95035 0.0
Tb179 Tb 0.50125 0.03358 0.94669 0.0
N180 N 0.55483 0.05944 0.9425 0.0
C181 C 0.61719 0.09602 0.93591 0.0
C182 C 0.58518 0.04189 0.93404 0.0
C183 C 0.61678 0.05979 0.93155 0.0
H184 H 0.43857 0.0926 0.95578 0.0
H185 H 0.64079 0.04564 0.92567 0.0
H186 H 0.56528 0.91345 0.07316 0.0
H187 H 0.36335 0.96174 0.09907 0.0
H188 H 0.58538 0.01425 0.92806 0.0
H189 H 0.64173 0.1098 0.93402 0.0
H190 H 0.41899 0.99266 0.09787 0.0
H191 H 0.43414 0.15651 0.96323 0.0
H192 H 0.60846 0.16577 0.94338 0.0
H193 H 0.55239 0.19588 0.95294 0.0
H194 H 0.56945 0.84949 0.06568 0.0
H195 H 0.48733 0.19268 0.96059 0.0
H196 H 0.36198 0.89762 0.09001 0.0
N197 N 0.51024 0.91402 0.07455 0.0
C198 C 0.48067 0.89475 0.07676 0.0
C199 C 0.54428 0.8619 0.06822 0.0
C200 C 0.48172 0.85813 0.0736 0.0
C201 C 0.54187 0.89817 0.07138 0.0
C202 C 0.51406 0.84177 0.06899 0.0
N203 N 0.44928 0.94739 0.08293 0.0
C204 C 0.41902 0.9651 0.09135 0.0
C205 C 0.41784 0.89295 0.08329 0.0
C206 C 0.44916 0.91194 0.08151 0.0
C207 C 0.38662 0.91122 0.08853 0.0
C208 C 0.38727 0.94743 0.09327 0.0
H209 H 0.516 0.81368 0.06655 0.0
H210 H 0.45084 0.81093 0.07248 0.0
H211 H 0.3949 0.84143 0.0809 0.0
O212 O 0.48763 0.98902 0.15691 0.0
O213 O 0.47973 0.9522 1.00426 0.0
O214 O 0.45665 0.99891 0.95839 0.0
O215 O 0.52805 0.95116 0.14636 0.0
O216 O 0.47703 0.0238 0.08236 0.0
O217 O 0.45464 0.03569 0.99762 0.0
O218 O 0.51636 0.01754 0.8686 0.0
O219 O 0.52481 0.05421 0.02117 0.0
O220 O 0.54781 0.00756 0.06735 0.0
O221 O 0.47631 0.05577 0.87961 0.0
O222 O 0.52778 0.98294 0.94308 0.0
O223 O 0.54968 0.97033 0.02804 0.0
C224 C 0.4575 0.96553 0.96985 0.0
C225 C 0.53146 0.98792 0.22284 0.0
C226 C 0.53879 0.00534 0.31734 0.0
C227 C 0.5698 0.02247 0.30306 0.0
C228 C 0.56262 0.00471 0.20975 0.0
C229 C 0.58157 0.02211 0.24958 0.0
C230 C 0.5196 0.98828 0.27659 0.0
C231 C 0.45456 0.03952 0.05068 0.0
C232 C 0.51094 0.97014 0.1809 0.0
C233 C 0.45057 0.83909 0.07501 0.0
C234 C 0.41871 0.85646 0.07981 0.0
C235 C 0.54704 0.04092 0.0556 0.0
C236 C 0.47246 0.01928 0.80284 0.0
C237 C 0.46495 1.0022 0.70825 0.0
C238 C 0.43375 0.98538 0.72241 0.0
C239 C 0.44113 1.00278 0.81586 0.0
C240 C 0.4843 0.01896 0.74909 0.0
C241 C 0.422 0.98571 0.7759 0.0
C242 C 0.54996 0.96684 0.97488 0.0
C243 C 0.49319 0.03673 0.84486 0.0
H244 H 0.5854 0.03551 0.33339 0.0
H245 H 0.57231 1.00402 0.16882 0.0
H246 H 0.60561 0.03507 0.23907 0.0
H247 H 0.49534 0.97545 0.2865 0.0
H248 H 0.41803 0.97258 0.69199 0.0
H249 H 0.43147 1.0034 0.85682 0.0
H250 H 0.5087 0.03157 0.73925 0.0
H251 H 0.39781 0.97298 0.78633 0.0
Tb252 Tb 0.22492 0.25678 0.19824 0.0
C253 C 0.35408 0.29499 0.32335 0.0
N254 N 0.3418 0.26195 0.31828 0.0
C255 C 0.39911 0.24114 0.29854 0.0
C256 C 0.38948 0.30252 0.31472 0.0
C257 C 0.3637 0.235 0.30687 0.0
C258 C 0.41205 0.27506 0.30226 0.0
C259 C 0.34234 0.35616 0.33939 0.0
C260 C 0.33062 0.32146 0.33506 0.0
C261 C 0.37753 0.36388 0.33017 0.0
C262 C 0.40104 0.33713 0.31796 0.0
Tb263 Tb 0.28405 0.25485 0.33425 0.0
N264 N 0.29655 0.3131 0.34295 0.0
C265 C 0.31849 0.38196 0.35406 0.0
C266 C 0.27424 0.33772 0.3627 0.0
C267 C 0.28446 0.37257 0.36684 0.0
H268 H 0.35391 0.20876 0.30478 0.0
H269 H 0.26632 0.39201 0.38135 0.0
H270 H 0.17614 0.32803 0.20493 0.0
H271 H 0.19341 0.12135 0.16571 0.0
H272 H 0.2491 0.3307 0.37804 0.0
H273 H 0.32643 0.40892 0.35785 0.0
H274 H 0.23256 0.17173 0.17726 0.0
H275 H 0.4164 0.21971 0.28933 0.0
H276 H 0.38692 0.39042 0.33301 0.0
H277 H 0.42812 0.34349 0.31113 0.0
H278 H 0.11354 0.34196 0.20721 0.0
H279 H 0.43946 0.27976 0.29543 0.0
H280 H 0.12971 0.12983 0.1677 0.0
N281 N 0.16805 0.27336 0.19874 0.0
C282 C 0.14453 0.24723 0.19279 0.0
C283 C 0.12192 0.31517 0.20347 0.0
C284 C 0.10859 0.254 0.19284 0.0
C285 C 0.15735 0.30716 0.20283 0.0
C286 C 0.09742 0.28848 0.19875 0.0
N287 N 0.1915 0.20809 0.18802 0.0
C288 C 0.20489 0.17568 0.17873 0.0
C289 C 0.13329 0.18561 0.17958 0.0
C290 C 0.15664 0.21353 0.1862 0.0
C291 C 0.14678 0.15203 0.17281 0.0
C292 C 0.18274 0.14712 0.17187 0.0
H293 H 0.07 0.29479 0.19907 0.0
H294 H 0.05734 0.2309 0.18682 0.0
H295 H 0.07899 0.17101 0.17528 0.0
O296 O 0.25005 0.2444 0.12494 0.0
O297 O 0.20491 0.22366 0.26346 0.0
O298 O 0.24425 0.2139 0.33396 0.0
O299 O 0.20619 0.27885 0.1262 0.0
O300 O 0.2714 0.22386 0.19923 0.0
O301 O 0.28778 0.20685 0.28625 0.0
O302 O 0.28106 0.26782 0.41708 0.0
O303 O 0.3046 0.27176 0.25486 0.0
O304 O 0.25909 0.30064 0.21688 0.0
O305 O 0.31097 0.22405 0.39051 0.0
O306 O 0.23092 0.27531 0.33917 0.0
O307 O 0.22417 0.30004 0.25571 0.0
C308 C 0.21479 0.20801 0.30819 0.0
C309 C 0.2468 0.28589 0.05515 0.0
C310 C 0.26461 0.29453 0.96095 0.0
C311 C 0.2794 0.32667 0.97603 0.0
C312 C 0.26115 0.31819 0.06892 0.0
C313 C 0.27763 0.33834 0.02962 0.0
C314 C 0.24852 0.27415 1.00123 0.0
C315 C 0.28695 0.20248 0.23313 0.0
C316 C 0.2298 0.26409 0.09625 0.0
C317 C 0.08508 0.22624 0.18673 0.0
C318 C 0.09741 0.19213 0.18009 0.0
C319 C 0.29259 0.29695 0.22438 0.0
C320 C 0.28326 0.22008 0.4762 0.0
C321 C 0.26605 0.21451 0.57139 0.0
C322 C 0.25194 0.18156 0.5594 0.0
C323 C 0.26928 0.18702 0.46567 0.0
C324 C 0.2817 0.23369 0.52921 0.0
C325 C 0.25359 0.16801 0.50697 0.0
C326 C 0.21392 0.29562 0.30584 0.0
C327 C 0.29881 0.24089 0.43215 0.0
H328 H 0.29167 0.34322 0.94623 0.0
H329 H 0.25927 0.32782 0.10991 0.0
H330 H 0.28876 0.36326 0.04061 0.0
H331 H 0.23746 0.24905 0.99083 0.0
H332 H 0.24017 0.16588 0.59078 0.0
H333 H 0.27062 0.17586 0.42552 0.0
H334 H 0.29225 0.25934 0.53734 0.0
H335 H 0.24283 0.14254 0.49838 0.0
Tb336 Tb 0.72463 0.24828 0.33328 0.0
C337 C 0.85752 0.22179 0.19572 0.0
N338 N 0.84196 0.25318 0.20309 0.0
C339 C 0.8975 0.28019 0.2159 0.0
C340 C 0.89388 0.21829 0.19889 0.0
C341 C 0.86133 0.28231 0.21253 0.0
C342 C 0.91387 0.24802 0.20924 0.0
C343 C 0.85182 0.16005 0.17757 0.0
C344 C 0.83665 0.19306 0.1857 0.0
C345 C 0.88803 0.15628 0.18135 0.0
C346 C 0.909 0.18533 0.19197 0.0
Tb347 Tb 0.78293 0.25385 0.19663 0.0
N348 N 0.80161 0.19768 0.18293 0.0
C349 C 0.83024 0.13198 0.16463 0.0
C350 C 0.78104 0.17095 0.16538 0.0
C351 C 0.79478 0.13761 0.15753 0.0
H352 H 0.84894 0.3073 0.21618 0.0
H353 H 0.77811 0.11646 0.14466 0.0
H354 H 0.6694 0.18238 0.32045 0.0
H355 H 0.70534 0.38583 0.36985 0.0
H356 H 0.75438 0.1751 0.15483 0.0
H357 H 0.84085 0.10619 0.15799 0.0
H358 H 0.73971 0.33253 0.35824 0.0
H359 H 0.91274 0.30341 0.22332 0.0
H360 H 0.90009 0.13107 0.17548 0.0
H361 H 0.93689 0.18206 0.19446 0.0
H362 H 0.60587 0.17441 0.31564 0.0
H363 H 0.9419 0.24645 0.21191 0.0
H364 H 0.64121 0.38324 0.36585 0.0
N365 N 0.66645 0.23734 0.32982 0.0
C366 C 0.64543 0.26545 0.33619 0.0
C367 C 0.61667 0.20019 0.32113 0.0
C368 C 0.60902 0.26207 0.33483 0.0
C369 C 0.65267 0.20485 0.32313 0.0
C370 C 0.59473 0.22893 0.32683 0.0
N371 N 0.69593 0.29995 0.3442 0.0
C372 C 0.71198 0.33093 0.3547 0.0
C373 C 0.63986 0.32761 0.35159 0.0
C374 C 0.66064 0.29779 0.34442 0.0
C375 C 0.65624 0.35968 0.36011 0.0
C376 C 0.69244 0.36127 0.36212 0.0
H377 H 0.56685 0.22522 0.32549 0.0
H378 H 0.5601 0.28971 0.34065 0.0
H379 H 0.5871 0.34708 0.35535 0.0
O380 O 0.7449 0.25843 0.41095 0.0
O381 O 0.70211 0.27534 0.26304 0.0
O382 O 0.74806 0.29745 0.21384 0.0
O383 O 0.70594 0.21917 0.39912 0.0
O384 O 0.77283 0.27895 0.33574 0.0
O385 O 0.78644 0.29972 0.24974 0.0
O386 O 0.76655 0.24724 0.11596 0.0
O387 O 0.80664 0.23237 0.27045 0.0
O388 O 0.76058 0.20632 0.31255 0.0
O389 O 0.80628 0.28421 0.13582 0.0
O390 O 0.73165 0.22834 0.19426 0.0
O391 O 0.72492 0.20359 0.27836 0.0
C392 C 0.71479 0.29603 0.22546 0.0
C393 C 0.70576 0.24881 0.48328 0.0
C394 C 0.7043 0.2577 0.58141 0.0
C395 C 0.67057 0.27137 0.57667 0.0
C396 C 0.67193 0.26211 0.47995 0.0
C397 C 0.6546 0.27353 0.52628 0.0
C398 C 0.72192 0.24676 0.53416 0.0
C399 C 0.7891 0.30069 0.30307 0.0
C400 C 0.7242 0.23633 0.43443 0.0
C401 C 0.58815 0.29176 0.34164 0.0
C402 C 0.60353 0.32444 0.35004 0.0
C403 C 0.79412 0.21046 0.30624 0.0
C404 C 0.80934 0.25737 0.04933 0.0
C405 C 0.81267 0.24785 0.95143 0.0
C406 C 0.84687 0.23571 0.95767 0.0
C407 C 0.84364 0.24555 0.05428 0.0
C408 C 0.79395 0.25841 0.99782 0.0
C409 C 0.86215 0.2346 1.00873 0.0
C410 C 0.71656 0.20596 0.22703 0.0
C411 C 0.78928 0.26907 0.09702 0.0
H412 H 0.65655 0.28062 0.61195 0.0
H413 H 0.65868 0.26338 0.44179 0.0
H414 H 0.62857 0.28393 0.52315 0.0
H415 H 0.74783 0.23593 0.53701 0.0
H416 H 0.86179 0.2268 0.92309 0.0
H417 H 0.8563 0.24499 0.09309 0.0
H418 H 0.76767 0.26811 0.99386 0.0
H419 H 0.88853 0.22534 1.013 0.0
Tb420 Tb 0.7285 0.74863 0.69816 0.0
C421 C 0.85239 0.79679 0.83102 0.0
N422 N 0.84109 0.76365 0.82326 0.0
C423 C 0.89896 0.74541 0.80137 0.0
C424 C 0.88733 0.80593 0.8218 0.0
C425 C 0.86392 0.73771 0.81059 0.0
C426 C 0.91066 0.77973 0.8064 0.0
C427 C 0.83899 0.85631 0.85567 0.0
C428 C 0.82847 0.82153 0.84742 0.0
C429 C 0.87357 0.86592 0.845 0.0
C430 C 0.89771 0.84076 0.82819 0.0
Tb431 Tb 0.78345 0.75377 0.83773 0.0
N432 N 0.79524 0.81117 0.85715 0.0
C433 C 0.81468 0.88013 0.87572 0.0
C434 C 0.77245 0.83368 0.88126 0.0
C435 C 0.78146 0.86858 0.88957 0.0
H436 H 0.85514 0.7111 0.80744 0.0
H437 H 0.76295 0.8864 0.90761 0.0
H438 H 0.66799 0.81085 0.70188 0.0
H439 H 0.71458 0.612 0.65265 0.0
H440 H 0.74767 0.82481 0.89585 0.0
H441 H 0.82167 0.90711 0.88263 0.0
H442 H 0.74585 0.66822 0.66025 0.0
H443 H 0.91691 0.72488 0.79043 0.0
H444 H 0.88206 0.8926 0.8506 0.0
H445 H 0.92438 0.84843 0.82077 0.0
H446 H 0.60513 0.81482 0.71986 0.0
H447 H 0.93776 0.78565 0.79895 0.0
H448 H 0.65202 0.60879 0.67579 0.0
N449 N 0.6697 0.75572 0.7088 0.0
C450 C 0.65051 0.72606 0.70976 0.0
C451 C 0.61765 0.78963 0.71814 0.0
C452 C 0.61425 0.72689 0.71757 0.0
C453 C 0.65348 0.78733 0.70931 0.0
C454 C 0.59801 0.75925 0.72341 0.0
N455 N 0.7017 0.69581 0.6893 0.0
C456 C 0.71859 0.66686 0.67051 0.0
C457 C 0.64805 0.66373 0.69481 0.0
C458 C 0.66699 0.69502 0.69851 0.0
C459 C 0.66563 0.6334 0.67917 0.0
C460 C 0.70095 0.6351 0.66609 0.0
H461 H 0.57019 0.76108 0.72947 0.0
H462 H 0.56748 0.69561 0.72342 0.0
H463 H 0.59717 0.64019 0.70353 0.0
O464 O 0.7539 0.73847 0.62451 0.0
O465 O 0.72518 0.70723 0.75964 0.0
O466 O 0.72985 0.73474 0.84155 0.0
O467 O 0.70593 0.76638 0.62552 0.0
O468 O 0.78012 0.72506 0.69997 0.0
O469 O 0.79065 0.70639 0.78798 0.0
O470 O 0.79167 0.76164 0.92121 0.0
O471 O 0.80497 0.77208 0.76047 0.0
O472 O 0.75922 0.79575 0.71454 0.0
O473 O 0.79846 0.71117 0.8853 0.0
O474 O 0.73172 0.77786 0.8371 0.0
O475 O 0.72077 0.7956 0.74903 0.0
C476 C 0.716 0.71071 0.8105 0.0
C477 C 0.74549 0.77817 0.55418 0.0
C478 C 0.76056 0.78855 0.45933 0.0
C479 C 0.77717 0.81965 0.47495 0.0
C480 C 0.76184 0.80941 0.56874 0.0
C481 C 0.77765 0.82999 0.52926 0.0
C482 C 0.74476 0.76792 0.49953 0.0
C483 C 0.79446 0.70371 0.73491 0.0
C484 C 0.73116 0.75475 0.59556 0.0
C485 C 0.59532 0.69557 0.71692 0.0
C486 C 0.6122 0.66402 0.70547 0.0
C487 C 0.79206 0.79619 0.72898 0.0
C488 C 0.77376 0.71366 0.97339 0.0
C489 C 0.75412 0.71301 0.06794 0.0
C490 C 0.7301 0.68675 0.05427 0.0
C491 C 0.74929 0.68766 0.96106 0.0
C492 C 0.77606 0.72623 0.02695 0.0
C493 C 0.7277 0.67435 1.0013 0.0
C494 C 0.71559 0.79781 0.80184 0.0
C495 C 0.79597 0.72869 0.93038 0.0
H496 H 0.78936 0.83624 0.44511 0.0
H497 H 0.7626 0.81765 0.61056 0.0
H498 H 0.79041 0.85401 0.54082 0.0
H499 H 0.73257 0.74345 0.48853 0.0
H500 H 0.7133 0.67542 0.08466 0.0
H501 H 0.74669 0.67763 0.92028 0.0
H502 H 0.79442 0.74678 0.03627 0.0
H503 H 0.70899 0.65427 0.99137 0.0
Tb504 Tb 0.50549 0.53088 0.09264 0.0
C505 C 0.4782 0.40138 0.96096 0.0
N506 N 0.50816 0.42013 0.96143 0.0
C507 C 0.54082 0.36743 0.97272 0.0
C508 C 0.47823 0.3651 0.96915 0.0
C509 C 0.5394 0.4033 0.96351 0.0
C510 C 0.51006 0.34833 0.97667 0.0
C511 C 0.41622 0.39981 0.94397 0.0
C512 C 0.44766 0.41832 0.94841 0.0
C513 C 0.41574 0.36396 0.95481 0.0
C514 C 0.4467 0.34663 0.96746 0.0
Tb515 Tb 0.50195 0.47906 0.94979 0.0
N516 N 0.44902 0.45312 0.93951 0.0
C517 C 0.38643 0.41783 0.92782 0.0
C518 C 0.42064 0.47046 0.92038 0.0
C519 C 0.38879 0.45321 0.91515 0.0
H520 H 0.56341 0.41728 0.9574 0.0
H521 H 0.3661 0.46717 0.90143 0.0
H522 H 0.46589 0.6048 0.06727 0.0
H523 H 0.63393 0.50403 0.17223 0.0
H524 H 0.42251 0.49779 0.91058 0.0
H525 H 0.36173 0.40455 0.92388 0.0
H526 H 0.57288 0.49072 0.15295 0.0
H527 H 0.56566 0.35446 0.97584 0.0
H528 H 0.39176 0.34927 0.9523 0.0
H529 H 0.44614 0.3188 0.97425 0.0
H530 H 0.48152 0.66702 0.0597 0.0
H531 H 0.51124 0.32048 0.98311 0.0
H532 H 0.65698 0.56315 0.15569 0.0
N533 N 0.51733 0.58872 0.08541 0.0
C534 C 0.55027 0.59877 0.09702 0.0
C535 C 0.50118 0.64804 0.06977 0.0
C536 C 0.56044 0.6339 0.09322 0.0
C537 C 0.49245 0.61277 0.07369 0.0
C538 C 0.53542 0.65862 0.07899 0.0
N539 N 0.56209 0.54025 0.11818 0.0
C540 C 0.58287 0.51593 0.142 0.0
C541 C 0.60808 0.58283 0.12566 0.0
C542 C 0.57365 0.57353 0.11281 0.0
C543 C 0.63031 0.55712 0.14537 0.0
C544 C 0.61743 0.52369 0.15452 0.0
H545 H 0.54214 0.68592 0.07571 0.0
H546 H 0.60352 0.66992 0.10073 0.0
H547 H 0.6453 0.62519 0.12924 0.0
O548 O 0.50999 0.53665 0.17765 0.0
O549 O 0.52572 0.5552 0.0183 0.0
O550 O 0.54843 0.51024 0.96767 0.0
O551 O 0.46026 0.54308 0.13713 0.0
O552 O 0.52919 0.47891 0.08767 0.0
O553 O 0.54894 0.47157 0.99967 0.0
O554 O 0.49547 0.50517 0.87575 0.0
O555 O 0.4597 0.47624 1.01039 0.0
O556 O 0.48698 0.47706 0.09199 0.0
O557 O 0.51799 0.45437 0.87764 0.0
O558 O 0.47872 0.53092 0.9524 0.0
O559 O 0.45987 0.54122 0.04082 0.0
C560 C 0.54862 0.54304 0.98341 0.0
C561 C 0.46 0.5501 0.23545 0.0
C562 C 0.45843 0.54603 0.33436 0.0
C563 C 0.4245 0.55945 0.33388 0.0
C564 C 0.42613 0.5636 0.23636 0.0
C565 C 0.40864 0.56838 0.28528 0.0
C566 C 0.47634 0.54182 0.28486 0.0
C567 C 0.55048 0.46475 0.05191 0.0
C568 C 0.47701 0.54291 0.18278 0.0
C569 C 0.59504 0.64312 0.10398 0.0
C570 C 0.61885 0.61761 0.12005 0.0
C571 C 0.46286 0.46473 0.05994 0.0
C572 C 0.53495 0.4913 0.80596 0.0
C573 C 0.54771 0.50628 0.71158 0.0
C574 C 0.58272 0.51135 0.72606 0.0
C575 C 0.5699 0.49651 0.81921 0.0
C576 C 0.52393 0.49638 0.75235 0.0
C577 C 0.59359 0.50662 0.77943 0.0
C578 C 0.45834 0.54653 0.98796 0.0
C579 C 0.50956 0.48048 0.84728 0.0
H580 H 0.41027 0.56325 0.37131 0.0
H581 H 0.41298 0.57023 0.19914 0.0
H582 H 0.38252 0.57876 0.28549 0.0
H583 H 0.50233 0.53102 0.28475 0.0
H584 H 0.60196 0.5184 0.69603 0.0
H585 H 0.57882 0.49251 0.86018 0.0
H586 H 0.49672 0.49286 0.74272 0.0
H587 H 0.6206 0.51052 0.78989 0.0
Tb588 Tb 1.00232 0.47394 0.59282 0.0
C589 C 0.03783 0.59644 0.43855 0.0
N590 N 0.00626 0.58235 0.44945 0.0
C591 C 0.98167 0.63934 0.45884 0.0
C592 C 0.04287 0.63276 0.43927 0.0
C593 C 0.97804 0.60311 0.45795 0.0
C594 C 0.01429 0.65425 0.44995 0.0
C595 C 0.09842 0.58769 0.41595 0.0
C596 C 0.06517 0.57414 0.42729 0.0
C597 C 0.10387 0.62386 0.41787 0.0
C598 C 0.07615 0.64635 0.42942 0.0
Tb599 Tb 1.00308 0.52325 0.44687 0.0
N600 N 0.05885 0.53929 0.42585 0.0
C601 C 0.12495 0.56454 0.40174 0.0
C602 C 0.08398 0.517 0.40777 0.0
C603 C 0.11753 0.52911 0.39674 0.0
H604 H 0.9526 0.59189 0.46356 0.0
H605 H 0.13746 0.51116 0.38337 0.0
H606 H 0.06712 0.41517 0.58498 0.0
H607 H 0.87044 0.45707 0.65973 0.0
H608 H 0.07824 0.49006 0.39981 0.0
H609 H 0.15088 0.57387 0.39271 0.0
H610 H 0.92418 0.4902 0.63933 0.0
H611 H 0.95929 0.65573 0.46615 0.0
H612 H 0.1293 0.63473 0.40963 0.0
H613 H 0.08064 0.67419 0.43019 0.0
H614 H 0.07223 0.35188 0.57305 0.0
H615 H 0.01705 0.68231 0.45081 0.0
H616 H 0.86876 0.39334 0.64419 0.0
N617 N 0.01164 0.41505 0.58539 0.0
C618 C 0.98283 0.39483 0.59073 0.0
C619 C 0.04683 0.36366 0.57701 0.0
C620 C 0.98471 0.35825 0.58683 0.0
C621 C 0.04369 0.39978 0.58248 0.0
C622 C 0.01713 0.34283 0.57801 0.0
N623 N 0.9515 0.44586 0.6103 0.0
C624 C 0.92331 0.46247 0.63197 0.0
C625 C 0.92204 0.3907 0.61607 0.0
C626 C 0.95188 0.41069 0.605 0.0
C627 C 0.89222 0.40777 0.63503 0.0
C628 C 0.89305 0.44377 0.6438 0.0
H629 H 0.01971 0.31482 0.57468 0.0
H630 H 0.95541 0.3101 0.59112 0.0
H631 H 0.9005 0.33857 0.61688 0.0
O632 O 0.99895 0.50406 0.66439 0.0
O633 O 0.9585 0.46608 0.53646 0.0
O634 O 0.98668 0.46943 0.45588 0.0
O635 O 0.01852 0.45198 0.66619 0.0
O636 O 0.97587 0.52413 0.58681 0.0
O637 O 0.95673 0.53174 0.49787 0.0
O638 O 0.01077 0.52143 0.36267 0.0
O639 O 0.02312 0.54997 0.51953 0.0
O640 O 0.04705 0.50566 0.56916 0.0
O641 O 0.96006 0.53148 0.39605 0.0
O642 O 0.02906 0.47239 0.45264 0.0
O643 O 0.04874 0.46657 0.54099 0.0
C644 C 0.95985 0.45972 0.48429 0.0
C645 C 0.03773 0.48999 0.7352 0.0
C646 C 0.05054 0.50612 0.82928 0.0
C647 C 0.08625 0.50396 0.81678 0.0
C648 C 0.07334 0.48827 0.72391 0.0
C649 C 0.09741 0.49549 0.76449 0.0
C650 C 0.02647 0.49939 0.78745 0.0
C651 C 0.95461 0.53733 0.55063 0.0
C652 C 0.01182 0.47971 0.69445 0.0
C653 C 0.95454 0.33822 0.59451 0.0
C654 C 0.92328 0.35441 0.60931 0.0
C655 C 0.04561 0.53863 0.55534 0.0
C656 C 0.97222 0.55295 0.30713 0.0
C657 C 0.97556 0.56464 0.21002 0.0
C658 C 0.95555 0.59476 0.21799 0.0
C659 C 0.95257 0.5834 0.31432 0.0
C660 C 0.98404 0.54399 0.25489 0.0
C661 C 0.94447 0.60421 0.26992 0.0
C662 C 0.05012 0.45886 0.48891 0.0
C663 C 0.97858 0.52858 0.35204 0.0
H664 H 0.10579 0.508 0.84751 0.0
H665 H 0.08245 0.48066 0.68411 0.0
H666 H 0.12491 0.4938 0.75569 0.0
H667 H 0.99884 0.50114 0.79524 0.0
H668 H 0.94873 0.6111 0.18407 0.0
H669 H 0.943 0.59083 0.35392 0.0
H670 H 0.99892 0.52032 0.24886 0.0
H671 H 0.92917 0.62756 0.27568 0.0
H672 H 0.11254 0.04975 0.50291 0.0
H673 H 0.14407 0.20761 0.29918 0.0
H674 H 0.0349 0.08614 0.39162 0.0
H675 H 0.22828 0.15114 0.37223 0.0
H676 H 0.10301 0.16642 0.33844 0.0
H677 H 0.1545 0.09031 0.46284 0.0
C678 C 0.10424 0.06656 0.47046 0.0
C679 C 0.07005 0.065 0.45118 0.0
C680 C 0.13048 0.16298 0.34593 0.0
C681 C 0.11799 0.11101 0.40444 0.0
C682 C 0.15403 0.18637 0.32311 0.0
C683 C 0.18984 0.18287 0.33224 0.0
C684 C 0.14261 0.13601 0.37897 0.0
C685 C 0.20097 0.15534 0.36505 0.0
C686 C 0.12827 0.08943 0.44721 0.0
C687 C 0.06095 0.08662 0.40792 0.0
N688 N 0.17747 0.13304 0.38739 0.0
N689 N 0.08467 0.10885 0.38624 0.0
H690 H 0.11234 0.94077 0.50615 0.0
H691 H 0.14073 0.79662 0.73313 0.0
H692 H 0.04095 0.9226 0.63783 0.0
H693 H 0.22739 0.84397 0.65026 0.0
H694 H 0.10156 0.83606 0.68692 0.0
H695 H 0.15275 0.89858 0.54682 0.0
C696 C 0.10512 0.92777 0.54329 0.0
C697 C 0.07346 0.93537 0.56894 0.0
C698 C 0.12917 0.83791 0.67893 0.0
C699 C 0.11898 0.88717 0.61498 0.0
C700 C 0.15167 0.81551 0.70571 0.0
C701 C 0.18763 0.81752 0.69695 0.0
C702 C 0.14248 0.86214 0.64198 0.0
C703 C 0.19992 0.84179 0.65898 0.0
C704 C 0.12817 0.90392 0.56655 0.0
C705 C 0.06529 0.91787 0.61704 0.0
N706 N 0.17738 0.86318 0.63283 0.0
N707 N 0.0878 0.89457 0.63831 0.0
H708 H 0.33251 0.7862 0.88829 0.0
H709 H 0.39446 0.98153 0.92417 0.0
H710 H 0.30034 0.86532 0.77604 0.0
H711 H 0.46159 0.89482 0.95998 0.0
H712 H 0.35337 0.941 0.88155 0.0
H713 H 0.37376 0.82753 0.92829 0.0
C714 C 0.3341 0.81234 0.87223 0.0
C715 C 0.31315 0.82244 0.82881 0.0
C716 C 0.37721 0.93102 0.89863 0.0
C717 C 0.35973 0.86981 0.87473 0.0
C718 C 0.40077 0.95409 0.92257 0.0
C719 C 0.43186 0.94167 0.94476 0.0
C720 C 0.38433 0.89521 0.89848 0.0
C721 C 0.43798 0.90563 0.94345 0.0
C722 C 0.35769 0.83578 0.89485 0.0
C723 C 0.31628 0.85654 0.80928 0.0
N724 N 0.41435 0.88366 0.92104 0.0
N725 N 0.33897 0.87919 0.83272 0.0
H726 H 0.39446 0.06624 1.00715 0.0
H727 H 0.32858 0.15368 0.28332 0.0
H728 H 0.45324 0.06273 0.15544 0.0
H729 H 0.2947 0.1871 0.12546 0.0
H730 H 0.36838 0.11252 0.23936 0.0
H731 H 0.35184 0.10374 0.05228 0.0
C732 C 0.39869 0.07365 0.04891 0.0
C733 C 0.428 0.06196 0.07702 0.0
C734 C 0.35212 0.12893 0.21455 0.0
C735 C 0.37856 0.10372 0.12954 0.0
C736 C 0.32942 0.15248 0.23959 0.0
C737 C 0.30872 0.17466 0.20827 0.0
C738 C 0.35361 0.12699 0.15781 0.0
C739 C 0.31038 0.17106 0.15161 0.0
C740 C 0.37416 0.09479 0.07479 0.0
C741 C 0.43125 0.07132 0.13187 0.0
N742 N 0.33243 0.14782 0.12832 0.0
N743 N 0.40687 0.0916 0.1563 0.0
H744 H 0.89134 0.97939 0.59101 0.0
H745 H 0.86073 0.78705 0.706 0.0
H746 H 0.96631 0.89651 0.57814 0.0
H747 H 0.77822 0.86226 0.69299 0.0
H748 H 0.90065 0.82852 0.66464 0.0
H749 H 0.85035 0.93864 0.63334 0.0
C750 C 0.89914 0.95262 0.59713 0.0
C751 C 0.9322 0.94125 0.58094 0.0
C752 C 0.87382 0.83604 0.67064 0.0
C753 C 0.88559 0.89456 0.6292 0.0
C754 C 0.85104 0.81241 0.69461 0.0
C755 C 0.81612 0.82127 0.70315 0.0
C756 C 0.86174 0.86897 0.65503 0.0
C757 C 0.80493 0.85436 0.6869 0.0
C758 C 0.87572 0.92937 0.62106 0.0
C759 C 0.94096 0.90629 0.58953 0.0
N760 N 0.82768 0.87707 0.66372 0.0
N761 N 0.91788 0.88426 0.61315 0.0
H762 H 0.89092 0.05826 0.51895 0.0
H763 H 0.86528 0.21286 0.30725 0.0
H764 H 0.96872 0.08883 0.40278 0.0
H765 H 0.77857 0.15733 0.3765 0.0
H766 H 0.90492 0.17361 0.35341 0.0
H767 H 0.85069 0.1008 0.47907 0.0
C768 C 0.89959 0.0742 0.48551 0.0
C769 C 0.93309 0.0701 0.464 0.0
C770 C 0.87721 0.16996 0.35844 0.0
C771 C 0.88758 0.11855 0.41853 0.0
C772 C 0.8545 0.19222 0.33166 0.0
C773 C 0.81844 0.18786 0.33656 0.0
C774 C 0.86391 0.14349 0.39154 0.0
C775 C 0.80616 0.16143 0.37085 0.0
C776 C 0.87665 0.09823 0.4626 0.0
C777 C 0.94304 0.09109 0.42035 0.0
N778 N 0.82884 0.14023 0.39702 0.0
N779 N 0.92046 0.11443 0.39918 0.0
H780 H 0.70589 0.13782 0.25455 0.0
H781 H 0.54181 0.11145 0.06569 0.0
H782 H 0.67038 0.21773 0.14618 0.0
H783 H 0.61008 0.0258 0.10243 0.0
H784 H 0.58335 0.15146 0.10696 0.0
H785 H 0.6649 0.09675 0.21246 0.0
C786 C 0.68928 0.14671 0.22217 0.0
C787 C 0.69135 0.18113 0.20376 0.0
C788 C 0.58913 0.12388 0.10621 0.0
C789 C 0.64463 0.13464 0.15594 0.0
C790 C 0.5655 0.10097 0.08253 0.0
C791 C 0.57222 0.06506 0.08118 0.0
C792 C 0.61946 0.11081 0.12978 0.0
C793 C 0.60335 0.05312 0.10394 0.0
C794 C 0.66618 0.12328 0.198 0.0
C795 C 0.66959 0.19135 0.16136 0.0
N796 N 0.62571 0.07592 0.12785 0.0
N797 N 0.64692 0.16828 0.13914 0.0
H798 H 0.68989 0.85747 0.75432 0.0
H799 H 0.60762 0.93602 0.02 0.0
H800 H 0.6847 0.79728 0.90115 0.0
H801 H 0.55286 0.946 0.86873 0.0
H802 H 0.64719 0.89448 0.97659 0.0
H803 H 0.64929 0.89965 0.79491 0.0
C804 C 0.68 0.85287 0.79467 0.0
C805 C 0.69049 0.82354 0.82406 0.0
C806 C 0.62637 0.9058 0.95319 0.0
C807 C 0.64571 0.87242 0.87132 0.0
C808 C 0.6035 0.92916 0.97804 0.0
C809 C 0.57588 0.9435 0.94874 0.0
C810 C 0.62248 0.89781 0.89812 0.0
C811 C 0.57335 0.9352 0.89334 0.0
C812 C 0.65713 0.87706 0.81787 0.0
C813 C 0.67753 0.81953 0.87694 0.0
N814 N 0.59641 0.91299 0.86975 0.0
N815 N 0.65619 0.84386 0.89906 0.0
H816 H 0.54449 0.61412 0.97982 0.0
H817 H 0.70778 0.64165 0.78567 0.0
H818 H 0.60848 0.52849 0.92648 0.0
H819 H 0.66925 0.72219 0.89182 0.0
H820 H 0.66691 0.60042 0.82689 0.0
H821 H 0.58567 0.65471 0.93917 0.0
C822 C 0.56738 0.6038 0.96009 0.0
C823 C 0.57321 0.56776 0.95744 0.0
C824 C 0.66742 0.62711 0.84115 0.0
C825 C 0.61992 0.61425 0.90861 0.0
C826 C 0.69048 0.6507 0.81731 0.0
C827 C 0.69157 0.68544 0.83494 0.0
C828 C 0.64507 0.63844 0.88264 0.0
C829 C 0.66918 0.69563 0.87698 0.0
C830 C 0.59076 0.62704 0.93645 0.0
C831 C 0.60275 0.556 0.92932 0.0
N832 N 0.64669 0.67232 0.89914 0.0
N833 N 0.62492 0.57914 0.90581 0.0
H834 H 0.64374 0.29774 0.23193 0.0
H835 H 0.61633 0.44907 1.01493 0.0
H836 H 0.73013 0.34774 0.15215 0.0
H837 H 0.54056 0.42043 0.1355 0.0
H838 H 0.65711 0.40687 0.05454 0.0
H839 H 0.60428 0.33758 0.18723 0.0
C840 C 0.65457 0.31733 0.20555 0.0
C841 C 0.69055 0.31983 0.19711 0.0
C842 C 0.63148 0.40984 0.07207 0.0
C843 C 0.645 0.36509 0.14387 0.0
C844 C 0.60822 0.4337 0.04933 0.0
C845 C 0.57509 0.43825 0.07208 0.0
C846 C 0.62123 0.39016 0.11725 0.0
C847 C 0.56588 0.41788 0.11684 0.0
C848 C 0.63188 0.33997 0.17959 0.0
C849 C 0.70266 0.34506 0.16052 0.0
N850 N 0.58873 0.39476 0.1378 0.0
N851 N 0.67994 0.36672 0.13523 0.0
H852 H 0.89908 0.43474 0.52791 0.0
H853 H 0.82306 0.35598 0.25516 0.0
H854 H 0.95633 0.43954 0.37801 0.0
H855 H 0.80607 0.30727 0.41012 0.0
H856 H 0.86361 0.39663 0.29841 0.0
H857 H 0.85596 0.39752 0.48389 0.0
C858 C 0.90284 0.42771 0.48606 0.0
C859 C 0.93205 0.43932 0.45738 0.0
C860 C 0.85092 0.37695 0.32268 0.0
C861 C 0.88188 0.39825 0.40585 0.0
C862 C 0.82796 0.35357 0.29804 0.0
C863 C 0.81181 0.32738 0.32859 0.0
C864 C 0.85689 0.37483 0.37852 0.0
C865 C 0.81815 0.32665 0.38459 0.0
C866 C 0.87803 0.40675 0.46078 0.0
C867 C 0.93455 0.43075 0.40213 0.0
N868 N 0.84011 0.35001 0.4077 0.0
N869 N 0.90978 0.41076 0.37812 0.0
H870 H 0.85331 0.71953 0.6812 0.0
H871 H 0.88566 0.52738 0.57003 0.0
H872 H 0.79197 0.63264 0.73569 0.0
H873 H 0.96749 0.60351 0.58146 0.0
H874 H 0.84653 0.56772 0.61839 0.0
H875 H 0.89216 0.67915 0.63363 0.0
C876 C 0.84843 0.6918 0.6836 0.0
C877 C 0.81995 0.67911 0.7128 0.0
C878 C 0.87296 0.57566 0.60979 0.0
C879 C 0.86325 0.63302 0.65716 0.0
C880 C 0.89501 0.55292 0.58175 0.0
C881 C 0.92939 0.56268 0.57119 0.0
C882 C 0.88548 0.60833 0.62661 0.0
C883 C 0.94085 0.59551 0.58821 0.0
C884 C 0.87042 0.66884 0.65639 0.0
C885 C 0.81416 0.64314 0.71425 0.0
N886 N 0.91888 0.61731 0.61485 0.0
N887 N 0.83549 0.62123 0.68623 0.0
H888 H 0.27964 0.36292 0.1877 0.0
H889 H 0.47635 0.41163 0.12913 0.0
H890 H 0.36174 0.28734 0.20241 0.0
H891 H 0.39294 0.45946 0.04081 0.0
H892 H 0.43485 0.36999 0.16759 0.0
H893 H 0.32073 0.40294 0.14429 0.0
C894 C 0.30626 0.35468 0.18164 0.0
C895 C 0.3172 0.32162 0.19849 0.0
C896 C 0.42567 0.38948 0.13957 0.0
C897 C 0.36452 0.3677 0.1504 0.0
C898 C 0.44927 0.41331 0.11785 0.0
C899 C 0.43801 0.4389 0.08169 0.0
C900 C 0.39037 0.3918 0.12608 0.0
C901 C 0.40266 0.43991 0.06823 0.0
C902 C 0.32967 0.37756 0.15699 0.0
C903 C 0.3522 0.31265 0.19053 0.0
N904 N 0.37997 0.4169 0.09085 0.0
N905 N 0.37466 0.33563 0.16749 0.0
H906 H 0.46816 0.58723 0.90009 0.0
H907 H 0.27482 0.65861 0.88389 0.0
H908 H 0.39348 0.56544 0.02582 0.0
H909 H 0.36163 0.70667 0.80241 0.0
H910 H 0.31563 0.6211 0.93255 0.0
H911 H 0.42737 0.62771 0.85946 0.0
C912 C 0.4431 0.59104 0.91925 0.0
C913 C 0.4341 0.57282 0.96628 0.0
C914 C 0.32561 0.63991 0.90396 0.0
C915 C 0.38697 0.61912 0.91949 0.0
C916 C 0.30237 0.66123 0.87595 0.0
C917 C 0.31467 0.68543 0.83792 0.0
C918 C 0.36137 0.64256 0.89345 0.0
C919 C 0.35071 0.6879 0.83003 0.0
C920 C 0.41986 0.6143 0.89611 0.0
C921 C 0.40141 0.57908 0.98962 0.0
N922 N 0.37266 0.66657 0.85708 0.0
N923 N 0.37877 0.60147 0.96561 0.0
H924 H 0.1981 0.63886 0.76205 0.0
H925 H 0.04457 0.61005 0.5511 0.0
H926 H 0.1724 0.71477 0.6407 0.0
H927 H 0.10146 0.52448 0.6201 0.0
H928 H 0.08553 0.65064 0.59289 0.0
H929 H 0.15651 0.59828 0.72069 0.0
C930 C 0.18359 0.647 0.72685 0.0
C931 C 0.18868 0.68014 0.70464 0.0
C932 C 0.08903 0.62295 0.59876 0.0
C933 C 0.14108 0.63411 0.6575 0.0
C934 C 0.06581 0.59972 0.57455 0.0
C935 C 0.06979 0.56368 0.58135 0.0
C936 C 0.11599 0.61015 0.63115 0.0
C937 C 0.09721 0.55198 0.6139 0.0
C938 C 0.16004 0.62382 0.70316 0.0
C939 C 0.16939 0.68934 0.65883 0.0
N940 N 0.11915 0.57513 0.63778 0.0
N941 N 0.14628 0.66653 0.63695 0.0
H942 H 0.20711 0.36572 0.29144 0.0
H943 H 0.03389 0.39544 0.44871 0.0
H944 H 0.16213 0.27857 0.37565 0.0
H945 H 0.12079 0.46275 0.4823 0.0
H946 H 0.07354 0.35406 0.40397 0.0
H947 H 0.16768 0.40499 0.34119 0.0
C948 C 0.18848 0.35488 0.31965 0.0
C949 C 0.18767 0.31901 0.32968 0.0
C950 C 0.08386 0.37776 0.42159 0.0
C951 C 0.14278 0.36334 0.38573 0.0
C952 C 0.06144 0.40117 0.44712 0.0
C953 C 0.07441 0.43212 0.46947 0.0
C954 C 0.11911 0.38623 0.41647 0.0
C955 C 0.11009 0.43883 0.46604 0.0
C956 C 0.16643 0.37722 0.34832 0.0
C957 C 0.16347 0.30616 0.36709 0.0
N958 N 0.13126 0.41631 0.43898 0.0
N959 N 0.14165 0.3283 0.3935 0.0
H960 H 0.99118 0.05138 0.88234 0.0
H961 H 0.02012 0.94527 0.15655 0.0
H962 H 0.96139 0.94378 0.90053 0.0
H963 H 0.02946 0.05696 0.14467 0.0
H964 H 1.00058 0.94328 0.06243 0.0
H965 H 0.00849 0.05283 0.97732 0.0
C966 C 0.98844 0.02799 0.90625 0.0
C967 C 0.97482 0.99742 0.8833 0.0
C968 C 0.00684 0.96821 0.08054 0.0
C969 C 0.99446 0.99893 0.99253 0.0
C970 C 0.01783 0.96941 0.13446 0.0
C971 C 0.02676 1.00132 0.15882 0.0
C972 C 0.00489 0.9991 0.0505 0.0
C973 C 0.02363 0.03165 0.12758 0.0
C974 C 0.99811 0.02889 0.96064 0.0
C975 C 0.97144 0.96803 0.9166 0.0
N976 N 0.01315 0.02976 0.0752 0.0
N977 N 0.98131 0.96947 0.96941 0.0
H978 H 0.26346 0.79669 0.41193 0.0
H979 H 0.24006 0.7059 0.12184 0.0
H980 H 0.30723 0.69677 0.36973 0.0
H981 H 0.19666 0.80601 0.16387 0.0
H982 H 0.26551 0.70242 0.21202 0.0
H983 H 0.23822 0.80026 0.32162 0.0
C984 C 0.26752 0.77535 0.38386 0.0
C985 C 0.28755 0.7464 0.39851 0.0
C986 C 0.25046 0.72518 0.20151 0.0
C987 C 0.25912 0.75056 0.29459 0.0
C988 C 0.23613 0.72731 0.14983 0.0
C989 C 0.21611 0.75627 0.13519 0.0
C990 C 0.24479 0.75222 0.23896 0.0
C991 C 0.21148 0.78296 0.17358 0.0
C992 C 0.25331 0.77753 0.33211 0.0
C993 C 0.29237 0.7198 0.36003 0.0
N994 N 0.22566 0.78027 0.22364 0.0
N995 N 0.27829 0.72253 0.3099 0.0
H996 H 0.49392 0.0566 0.65242 0.0
H997 H 0.51028 0.9508 0.37339 0.0
H998 H 0.46283 0.9493 0.63312 0.0
H999 H 0.54056 0.05836 0.39231 0.0
H1000 H 0.4924 0.94987 0.46822 0.0
H1001 H 0.51186 0.05752 0.55761 0.0
C1002 C 0.49111 0.03313 0.6284 0.0
C1003 C 0.47681 1.00283 0.65091 0.0
C1004 C 0.50292 0.9737 0.45165 0.0
C1005 C 0.4969 1.00384 0.54187 0.0
C1006 C 0.51292 0.97433 0.39733 0.0
C1007 C 0.52697 0.00471 0.37469 0.0
C1008 C 0.50696 1.00368 0.48378 0.0
C1009 C 0.5303 0.03421 0.40811 0.0
C1010 C 0.50114 0.03375 0.57409 0.0
C1011 C 0.47328 0.97339 0.61741 0.0
N1012 N 0.52039 0.03295 0.46088 0.0
N1013 N 0.48324 0.97464 0.56466 0.0
H1014 H 0.31782 0.3007 0.88697 0.0
H1015 H 0.21243 0.21028 0.6447 0.0
H1016 H 0.2132 0.26161 0.90296 0.0
H1017 H 0.31674 0.24993 0.62757 0.0
H1018 H 0.21211 0.22953 0.73896 0.0
H1019 H 0.31779 0.2829 0.79191 0.0
C1020 C 0.29477 0.2885 0.87053 0.0
C1021 C 0.26544 0.28274 0.90329 0.0
C1022 C 0.23506 0.23411 0.71462 0.0
C1023 C 0.26535 0.262 0.79411 0.0
C1024 C 0.23533 0.22299 0.66072 0.0
C1025 C 0.26476 0.22825 0.62798 0.0
C1026 C 0.26446 0.25067 0.73635 0.0
C1027 C 0.29337 0.24553 0.65096 0.0
C1028 C 0.29484 0.2782 0.8162 0.0
C1029 C 0.23658 0.26623 0.87968 0.0
N1030 N 0.29255 0.25595 0.70369 0.0
N1031 N 0.23726 0.25653 0.82667 0.0
H1032 H 0.84331 0.26884 0.85669 0.0
H1033 H 0.67398 0.23624 0.67595 0.0
H1034 H 0.74605 0.23104 0.92082 0.0
H1035 H 0.77162 0.27235 0.61096 0.0
H1036 H 0.70002 0.23404 0.76572 0.0
H1037 H 0.81764 0.27016 0.76655 0.0
C1038 C 0.81658 0.26063 0.85183 0.0
C1039 C 0.79689 0.24964 0.89655 0.0
C1040 C 0.7158 0.24242 0.73188 0.0
C1041 C 0.76717 0.25142 0.79314 0.0
C1042 C 0.7009 0.24383 0.68057 0.0
C1043 C 0.72056 0.25473 0.63576 0.0
C1044 C 0.75071 0.252 0.73878 0.0
C1045 C 0.75553 0.26356 0.64417 0.0
C1046 C 0.80189 0.26155 0.80029 0.0
C1047 C 0.76216 0.24 0.88775 0.0
N1048 N 0.76943 0.26213 0.69466 0.0
N1049 N 0.74846 0.24105 0.83712 0.0
H1050 H 0.70577 0.76133 0.40253 0.0
H1051 H 0.8119 0.7325 0.12678 0.0
H1052 H 0.81316 0.79115 0.3838 0.0
H1053 H 0.70037 0.72405 0.13941 0.0
H1054 H 0.81388 0.75175 0.22131 0.0
H1055 H 0.70447 0.74404 0.30731 0.0
C1056 C 0.72916 0.76408 0.37847 0.0
C1057 C 0.75962 0.77773 0.40134 0.0
C1058 C 0.78899 0.74573 0.20327 0.0
C1059 C 0.75826 0.75813 0.2918 0.0
C1060 C 0.78779 0.73493 0.14911 0.0
C1061 C 0.75593 0.72632 0.12482 0.0
C1062 C 0.75813 0.74783 0.23362 0.0
C1063 C 0.72564 0.72961 0.1564 0.0
C1064 C 0.72833 0.75443 0.32393 0.0
C1065 C 0.78899 0.7811 0.36782 0.0
N1066 N 0.72753 0.7399 0.20899 0.0
N1067 N 0.78763 0.77126 0.31486 0.0
H1068 H 0.57107 0.55394 0.6364 0.0
H1069 H 0.43081 0.50427 0.41231 0.0
H1070 H 0.49807 0.46938 0.65495 0.0
H1071 H 0.52153 0.5658 0.37634 0.0
H1072 H 0.45387 0.49288 0.50258 0.0
H1073 H 0.55222 0.56062 0.54277 0.0
C1074 C 0.55128 0.53654 0.62092 0.0
C1075 C 0.53621 0.511 0.65423 0.0
C1076 C 0.46893 0.50866 0.47492 0.0
C1077 C 0.51402 0.51911 0.54668 0.0
C1078 C 0.45575 0.5152 0.42341 0.0
C1079 C 0.47424 0.53612 0.3869 0.0
C1080 C 0.50066 0.5236 0.49061 0.0
C1081 C 0.50654 0.54943 0.40321 0.0
C1082 C 0.54045 0.54052 0.56733 0.0
C1083 C 0.51011 0.48986 0.63159 0.0
N1084 N 0.51855 0.54328 0.4541 0.0
N1085 N 0.4998 0.4945 0.57952 0.0
H1086 H 0.9908 0.48429 0.8822 0.0
H1087 H 0.04185 0.55456 0.17333 0.0
H1088 H 0.08291 0.54678 0.90711 0.0
H1089 H 0.93516 0.55183 0.12147 0.0
H1090 H 0.06021 0.53998 0.08048 0.0
H1091 H 0.97231 0.4982 0.9743 0.0
C1092 C 0.00713 0.50114 0.9064 0.0
C1093 C 0.03862 0.5144 0.88583 0.0
C1094 C 0.0328 0.54254 0.08958 0.0
C1095 C 0.0179 0.52912 0.99273 0.0
C1096 C 0.02235 0.55066 0.1424 0.0
C1097 C 0.98701 0.55455 0.15476 0.0
C1098 C 0.00766 0.53742 0.04926 0.0
C1099 C 0.96269 0.54929 0.11332 0.0
C1100 C 0.99656 0.50878 0.95932 0.0
C1101 C 0.05885 0.53521 0.92075 0.0
N1102 N 0.97343 0.54073 0.06246 0.0
N1103 N 0.04829 0.54167 0.97242 0.0
loop_
_geom_bond_atom_site_label_1
_geom_bond_atom_site_label_2
_geom_bond_distance
_geom_bond_site_symmetry_2
_ccdc_geom_bond_type
Tb0 N29 2.619 . S
Tb0 N35 2.547 1_655 S
Tb0 O44 2.460 1_655 S
Tb0 O45 2.371 1_655 S
Tb0 O47 2.444 . S
Tb0 O48 2.289 1_645 S
Tb0 O52 2.367 1_545 S
Tb0 O55 2.416 . S
Tb0 C64 2.808 . S
C1 N2 1.379 1_655 S
C1 C4 1.416 . S
C1 C8 1.424 . S
N2 C1 1.379 1_455 S
N2 C5 1.334 . S
N2 Tb11 2.617 . S
C3 C5 1.390 . S
C3 C6 1.339 . S
C3 H23 0.930 . S
C4 C1 1.416 . S
C4 C6 1.416 1_655 S
C4 C10 1.448 . S
C5 N2 1.334 . S
C5 C3 1.390 . S
C5 H16 0.930 . S
C6 C3 1.339 . S
C6 C4 1.416 1_455 S
C6 H27 0.930 . S
C7 C8 1.413 . S
C7 C9 1.427 . S
C7 C13 1.416 . S
C8 C1 1.424 . S
C8 C7 1.413 . S
C8 N12 1.361 . S
C9 C7 1.427 . S
C9 C10 1.328 . S
C9 H24 0.929 . S
C10 C4 1.448 . S
C10 C9 1.328 . S
C10 H25 0.930 . S
Tb11 N2 2.617 . S
Tb11 N12 2.572 1_455 S
Tb11 O46 2.349 1_565 S
Tb11 O49 2.393 . S
Tb11 O50 2.465 1_455 S
Tb11 O51 2.387 1_455 S
Tb11 O53 2.428 . S
Tb11 O54 2.308 1_465 S
Tb11 C75 2.802 . S
N12 C8 1.361 . S
N12 Tb11 2.572 1_655 S
N12 C14 1.340 . S
C13 C7 1.416 . S
C13 C15 1.332 . S
C13 H21 0.931 . S
C14 N12 1.340 . S
C14 C15 1.407 . S
C14 H20 0.930 . S
C15 C13 1.332 . S
C15 C14 1.407 . S
C15 H17 0.929 . S
H16 C5 0.930 . S
H17 C15 0.929 . S
H18 C33 0.930 . S
H19 C40 0.929 . S
H20 C14 0.930 . S
H21 C13 0.931 . S
H22 C36 0.930 . S
H23 C3 0.930 . S
H24 C9 0.929 . S
H25 C10 0.930 . S
H26 C31 0.930 . S
H27 C6 0.930 . S
H28 C39 0.931 . S
N29 Tb0 2.619 . S
N29 C30 1.379 1_655 S
N29 C33 1.334 . S
C30 N29 1.379 1_455 S
C30 C32 1.416 . S
C30 C38 1.424 . S
C31 H26 0.930 . S
C31 C33 1.390 . S
C31 C34 1.339 . S
C32 C30 1.416 . S
C32 C34 1.416 1_455 S
C32 C65 1.448 . S
C33 H18 0.930 . S
C33 N29 1.334 . S
C33 C31 1.390 . S
C34 C31 1.339 . S
C34 C32 1.416 1_655 S
C34 H41 0.930 . S
N35 Tb0 2.547 1_455 S
N35 C36 1.340 . S
N35 C38 1.361 . S
C36 H22 0.930 . S
C36 N35 1.340 . S
C36 C40 1.407 . S
C37 C38 1.413 . S
C37 C39 1.416 . S
C37 C66 1.427 . S
C38 C30 1.424 . S
C38 N35 1.361 . S
C38 C37 1.413 . S
C39 H28 0.931 . S
C39 C37 1.416 . S
C39 C40 1.332 . S
C40 H19 0.929 . S
C40 C36 1.407 . S
C40 C39 1.332 . S
H41 C34 0.930 . S
H42 C65 0.930 . S
H43 C66 0.929 . S
O44 Tb0 2.460 1_455 S
O44 C64 1.264 1_455 S
O45 Tb0 2.371 1_455 S
O45 C56 1.264 . S
O46 Tb11 2.349 1_545 S
O46 C56 1.243 . S
O47 Tb0 2.444 . S
O47 C64 1.256 . S
O48 Tb0 2.289 1_465 S
O48 C63 1.266 . S
O49 Tb11 2.393 . S
O49 C63 1.248 . S
O50 Tb11 2.465 1_655 S
O50 C75 1.264 1_655 S
O51 Tb11 2.387 1_655 S
O51 C67 1.264 . S
O52 Tb0 2.367 1_565 S
O52 C67 1.243 . S
O53 Tb11 2.428 . S
O53 C75 1.256 . S
O54 Tb11 2.308 1_645 S
O54 C74 1.266 . S
O55 Tb0 2.416 . S
O55 C74 1.248 . S
C56 O45 1.264 . S
C56 O46 1.243 . S
C57 C60 1.399 . S
C57 C62 1.383 . S
C57 C64 1.496 . S
C58 C59 1.399 . S
C58 C62 1.389 . S
C59 C58 1.399 . S
C59 C61 1.380 . S
C59 H76 0.929 . S
C60 C57 1.399 . S
C60 C61 1.392 . S
C60 H77 0.929 . S
C61 C59 1.380 . S
C61 C60 1.392 . S
C61 H78 0.929 . S
C62 C57 1.383 . S
C62 C58 1.389 . S
C62 H79 0.931 1_645 S
C63 O48 1.266 . S
C63 O49 1.248 . S
C64 Tb0 2.808 . S
C64 O44 1.264 1_655 S
C64 O47 1.256 . S
C64 C57 1.496 . S
C65 C32 1.448 . S
C65 H42 0.930 . S
C65 C66 1.328 . S
C66 C37 1.427 . S
C66 H43 0.929 . S
C66 C65 1.328 . S
C67 O51 1.264 . S
C67 O52 1.243 . S
C68 C71 1.399 . S
C68 C72 1.383 . S
C68 C75 1.496 . S
C69 C70 1.399 . S
C69 C72 1.389 . S
C70 C69 1.399 . S
C70 C73 1.380 . S
C70 H80 0.929 . S
C71 C68 1.399 . S
C71 C73 1.392 . S
C71 H81 0.929 . S
C72 C68 1.383 . S
C72 C69 1.389 . S
C72 H82 0.931 1_465 S
C73 C70 1.380 . S
C73 C71 1.392 . S
C73 H83 0.929 . S
C74 O54 1.266 . S
C74 O55 1.248 . S
C75 Tb11 2.802 . S
C75 O50 1.264 1_455 S
C75 O53 1.256 . S
C75 C68 1.496 . S
H76 C59 0.929 . S
H77 C60 0.929 . S
H78 C61 0.929 . S
H79 C62 0.931 1_465 S
H80 C70 0.929 . S
H81 C71 0.929 . S
H82 C72 0.931 1_645 S
H83 C73 0.929 . S
Tb84 N113 2.617 . S
Tb84 N119 2.572 . S
Tb84 O128 2.465 . S
Tb84 O129 2.387 . S
Tb84 O131 2.428 . S
Tb84 O132 2.308 . S
Tb84 O136 2.349 . S
Tb84 O139 2.393 . S
Tb84 C148 2.802 . S
C85 N86 1.379 . S
C85 C88 1.416 . S
C85 C92 1.424 . S
N86 C85 1.379 . S
N86 C89 1.334 . S
N86 Tb95 2.617 . S
C87 C89 1.390 . S
C87 C90 1.339 . S
C87 H107 0.930 . S
C88 C85 1.416 . S
C88 C90 1.416 . S
C88 C94 1.448 . S
C89 N86 1.334 . S
C89 C87 1.390 . S
C89 H100 0.930 . S
C90 C87 1.339 . S
C90 C88 1.416 . S
C90 H111 0.930 . S
C91 C92 1.413 . S
C91 C93 1.427 . S
C91 C97 1.416 . S
C92 C85 1.424 . S
C92 C91 1.413 . S
C92 N96 1.361 . S
C93 C91 1.427 . S
C93 C94 1.328 . S
C93 H108 0.929 . S
C94 C88 1.448 . S
C94 C93 1.328 . S
C94 H109 0.930 . S
Tb95 N86 2.617 . S
Tb95 N96 2.572 . S
Tb95 O130 2.349 . S
Tb95 O133 2.393 . S
Tb95 O134 2.465 . S
Tb95 O135 2.387 . S
Tb95 O137 2.428 . S
Tb95 O138 2.308 . S
Tb95 C159 2.802 . S
N96 C92 1.361 . S
N96 Tb95 2.572 . S
N96 C98 1.340 . S
C97 C91 1.416 . S
C97 C99 1.332 . S
C97 H105 0.931 . S
C98 N96 1.340 . S
C98 C99 1.407 . S
C98 H104 0.930 . S
C99 C97 1.332 . S
C99 C98 1.407 . S
C99 H101 0.929 . S
H100 C89 0.930 . S
H101 C99 0.929 . S
H102 C117 0.930 . S
H103 C124 0.929 . S
H104 C98 0.930 . S
H105 C97 0.931 . S
H106 C120 0.930 . S
H107 C87 0.930 . S
H108 C93 0.929 . S
H109 C94 0.930 . S
H110 C115 0.930 . S
H111 C90 0.930 . S
H112 C123 0.931 . S
N113 Tb84 2.617 . S
N113 C114 1.379 . S
N113 C117 1.334 . S
C114 N113 1.379 . S
C114 C116 1.416 . S
C114 C122 1.424 . S
C115 H110 0.930 . S
C115 C117 1.390 . S
C115 C118 1.339 . S
C116 C114 1.416 . S
C116 C118 1.416 . S
C116 C149 1.448 . S
C117 H102 0.930 . S
C117 N113 1.334 . S
C117 C115 1.390 . S
C118 C115 1.339 . S
C118 C116 1.416 . S
C118 H125 0.930 . S
N119 Tb84 2.572 . S
N119 C120 1.340 . S
N119 C122 1.361 . S
C120 H106 0.930 . S
C120 N119 1.340 . S
C120 C124 1.407 . S
C121 C122 1.413 . S
C121 C123 1.416 . S
C121 C150 1.427 . S
C122 C114 1.424 . S
C122 N119 1.361 . S
C122 C121 1.413 . S
C123 H112 0.931 . S
C123 C121 1.416 . S
C123 C124 1.332 . S
C124 H103 0.929 . S
C124 C120 1.407 . S
C124 C123 1.332 . S
H125 C118 0.930 . S
H126 C149 0.930 . S
H127 C150 0.929 . S
O128 Tb84 2.465 . S
O128 C148 1.264 . S
O129 Tb84 2.387 . S
O129 C140 1.264 . S
O130 Tb95 2.349 . S
O130 C140 1.243 . S
O131 Tb84 2.428 . S
O131 C148 1.256 . S
O132 Tb84 2.308 . S
O132 C147 1.266 . S
O133 Tb95 2.393 . S
O133 C147 1.248 . S
O134 Tb95 2.465 . S
O134 C159 1.264 . S
O135 Tb95 2.387 . S
O135 C151 1.264 . S
O136 Tb84 2.349 . S
O136 C151 1.243 . S
O137 Tb95 2.428 . S
O137 C159 1.256 . S
O138 Tb95 2.308 . S
O138 C158 1.266 . S
O139 Tb84 2.393 . S
O139 C158 1.248 . S
C140 O129 1.264 . S
C140 O130 1.243 . S
C141 C144 1.399 1_556 S
C141 C146 1.383 1_556 S
C141 C148 1.496 . S
C142 C143 1.399 . S
C142 C146 1.389 . S
C143 C142 1.399 . S
C143 C145 1.380 . S
C143 H160 0.929 . S
C144 C141 1.399 1_554 S
C144 C145 1.392 . S
C144 H161 0.929 1_554 S
C145 C143 1.380 . S
C145 C144 1.392 . S
C145 H162 0.929 . S
C146 C141 1.383 1_554 S
C146 C142 1.389 . S
C146 H163 0.933 . S
C147 O132 1.266 . S
C147 O133 1.248 . S
C148 Tb84 2.802 . S
C148 O128 1.264 . S
C148 O131 1.256 . S
C148 C141 1.496 . S
C149 C116 1.448 . S
C149 H126 0.930 . S
C149 C150 1.328 . S
C150 C121 1.427 . S
C150 H127 0.929 . S
C150 C149 1.328 . S
C151 O135 1.264 . S
C151 O136 1.243 . S
C152 C155 1.399 . S
C152 C156 1.383 . S
C152 C159 1.496 . S
C153 C154 1.399 . S
C153 C156 1.389 . S
C154 C153 1.399 . S
C154 C157 1.380 . S
C154 H164 0.929 . S
C155 C152 1.399 . S
C155 C157 1.392 . S
C155 H165 0.929 . S
C156 C152 1.383 . S
C156 C153 1.389 . S
C156 H166 0.931 . S
C157 C154 1.380 . S
C157 C155 1.392 . S
C157 H167 0.929 . S
C158 O138 1.266 . S
C158 O139 1.248 . S
C159 Tb95 2.802 . S
C159 O134 1.264 . S
C159 O137 1.256 . S
C159 C152 1.496 . S
H160 C143 0.929 . S
H161 C144 0.929 1_556 S
H162 C145 0.929 . S
H163 C146 0.933 . S
H164 C154 0.929 . S
H165 C155 0.929 . S
H166 C156 0.931 . S
H167 C157 0.929 . S
Tb168 N197 2.617 . S
Tb168 N203 2.572 . S
Tb168 O212 2.465 . S
Tb168 O213 2.387 1_554 S
Tb168 O215 2.428 . S
Tb168 O216 2.308 1_565 S
Tb168 O220 2.349 1_565 S
Tb168 O223 2.393 . S
Tb168 C232 2.802 . S
C169 N170 1.379 . S
C169 C172 1.416 . S
C169 C176 1.424 . S
N170 C169 1.379 . S
N170 C173 1.334 . S
N170 Tb179 2.617 . S
C171 C173 1.390 . S
C171 C174 1.339 . S
C171 H191 0.930 . S
C172 C169 1.416 . S
C172 C174 1.416 . S
C172 C178 1.448 . S
C173 N170 1.334 . S
C173 C171 1.390 . S
C173 H184 0.930 . S
C174 C171 1.339 . S
C174 C172 1.416 . S
C174 H195 0.930 . S
C175 C176 1.413 . S
C175 C177 1.427 . S
C175 C181 1.416 . S
C176 C169 1.424 . S
C176 C175 1.413 . S
C176 N180 1.361 . S
C177 C175 1.427 . S
C177 C178 1.328 . S
C177 H192 0.929 . S
C178 C172 1.448 . S
C178 C177 1.328 . S
C178 H193 0.930 . S
Tb179 N170 2.617 . S
Tb179 N180 2.572 . S
Tb179 O214 2.349 1_545 S
Tb179 O217 2.393 . S
Tb179 O218 2.465 . S
Tb179 O219 2.387 1_556 S
Tb179 O221 2.428 . S
Tb179 O222 2.308 1_545 S
Tb179 C243 2.802 . S
N180 C176 1.361 . S
N180 Tb179 2.572 . S
N180 C182 1.340 . S
C181 C175 1.416 . S
C181 C183 1.332 . S
C181 H189 0.931 . S
C182 N180 1.340 . S
C182 C183 1.407 . S
C182 H188 0.930 . S
C183 C181 1.332 . S
C183 C182 1.407 . S
C183 H185 0.929 . S
H184 C173 0.930 . S
H185 C183 0.929 . S
H186 C201 0.930 . S
H187 C208 0.929 . S
H188 C182 0.930 . S
H189 C181 0.931 . S
H190 C204 0.930 . S
H191 C171 0.930 . S
H192 C177 0.929 . S
H193 C178 0.930 . S
H194 C199 0.930 . S
H195 C174 0.930 . S
H196 C207 0.931 . S
N197 Tb168 2.617 . S
N197 C198 1.379 . S
N197 C201 1.334 . S
C198 N197 1.379 . S
C198 C200 1.416 . S
C198 C206 1.424 . S
C199 H194 0.930 . S
C199 C201 1.390 . S
C199 C202 1.339 . S
C200 C198 1.416 . S
C200 C202 1.416 . S
C200 C233 1.448 . S
C201 H186 0.930 . S
C201 N197 1.334 . S
C201 C199 1.390 . S
C202 C199 1.339 . S
C202 C200 1.416 . S
C202 H209 0.930 . S
N203 Tb168 2.572 . S
N203 C204 1.340 . S
N203 C206 1.361 . S
C204 H190 0.930 . S
C204 N203 1.340 . S
C204 C208 1.407 . S
C205 C206 1.413 . S
C205 C207 1.416 . S
C205 C234 1.427 . S
C206 C198 1.424 . S
C206 N203 1.361 . S
C206 C205 1.413 . S
C207 H196 0.931 . S
C207 C205 1.416 . S
C207 C208 1.332 . S
C208 H187 0.929 . S
C208 C204 1.407 . S
C208 C207 1.332 . S
H209 C202 0.930 . S
H210 C233 0.930 . S
H211 C234 0.929 . S
O212 Tb168 2.465 . S
O212 C232 1.264 . S
O213 Tb168 2.387 1_556 S
O213 C224 1.264 . S
O214 Tb179 2.349 1_565 S
O214 C224 1.243 . S
O215 Tb168 2.428 . S
O215 C232 1.256 . S
O216 Tb168 2.308 1_545 S
O216 C231 1.266 . S
O217 Tb179 2.393 . S
O217 C231 1.248 1_556 S
O218 Tb179 2.465 . S
O218 C243 1.264 . S
O219 Tb179 2.387 1_554 S
O219 C235 1.264 . S
O220 Tb168 2.349 1_545 S
O220 C235 1.243 . S
O221 Tb179 2.428 . S
O221 C243 1.256 . S
O222 Tb179 2.308 1_565 S
O222 C242 1.266 . S
O223 Tb168 2.393 . S
O223 C242 1.248 1_554 S
C224 O213 1.264 . S
C224 O214 1.243 . S
C225 C228 1.399 . S
C225 C230 1.383 . S
C225 C232 1.496 . S
C226 C227 1.399 . S
C226 C230 1.389 . S
C227 C226 1.399 . S
C227 C229 1.380 . S
C227 H244 0.929 . S
C228 C225 1.399 . S
C228 C229 1.392 . S
C228 H245 0.929 . S
C229 C227 1.380 . S
C229 C228 1.392 . S
C229 H246 0.929 . S
C230 C225 1.383 . S
C230 C226 1.389 . S
C230 H247 0.931 1_565 S
C231 O216 1.266 . S
C231 O217 1.248 1_554 S
C232 Tb168 2.802 . S
C232 O212 1.264 . S
C232 O215 1.256 . S
C232 C225 1.496 . S
C233 C200 1.448 . S
C233 H210 0.930 . S
C233 C234 1.328 . S
C234 C205 1.427 . S
C234 H211 0.929 . S
C234 C233 1.328 . S
C235 O219 1.264 . S
C235 O220 1.243 . S
C236 C239 1.399 . S
C236 C240 1.383 . S
C236 C243 1.496 . S
C237 C238 1.399 . S
C237 C240 1.389 . S
C238 C237 1.399 . S
C238 C241 1.380 . S
C238 H248 0.929 . S
C239 C236 1.399 . S
C239 C241 1.392 . S
C239 H249 0.929 . S
C240 C236 1.383 . S
C240 C237 1.389 . S
C240 H250 0.931 1_545 S
C241 C238 1.380 . S
C241 C239 1.392 . S
C241 H251 0.929 . S
C242 O222 1.266 . S
C242 O223 1.248 1_556 S
C243 Tb179 2.802 . S
C243 O218 1.264 . S
C243 O221 1.256 . S
C243 C236 1.496 . S
H244 C227 0.929 . S
H245 C228 0.929 . S
H246 C229 0.929 . S
H247 C230 0.931 1_545 S
H248 C238 0.929 . S
H249 C239 0.929 . S
H250 C240 0.931 1_565 S
H251 C241 0.929 . S
Tb252 N281 2.617 . S
Tb252 N287 2.572 . S
Tb252 O296 2.465 . S
Tb252 O297 2.387 . S
Tb252 O299 2.428 . S
Tb252 O300 2.308 . S
Tb252 O304 2.349 . S
Tb252 O307 2.393 . S
Tb252 C316 2.802 . S
C253 N254 1.379 . S
C253 C256 1.416 . S
C253 C260 1.424 . S
N254 C253 1.379 . S
N254 C257 1.334 . S
N254 Tb263 2.617 . S
C255 C257 1.390 . S
C255 C258 1.339 . S
C255 H275 0.930 . S
C256 C253 1.416 . S
C256 C258 1.416 . S
C256 C262 1.448 . S
C257 N254 1.334 . S
C257 C255 1.390 . S
C257 H268 0.930 . S
C258 C255 1.339 . S
C258 C256 1.416 . S
C258 H279 0.930 . S
C259 C260 1.413 . S
C259 C261 1.427 . S
C259 C265 1.416 . S
C260 C253 1.424 . S
C260 C259 1.413 . S
C260 N264 1.361 . S
C261 C259 1.427 . S
C261 C262 1.328 . S
C261 H276 0.929 . S
C262 C256 1.448 . S
C262 C261 1.328 . S
C262 H277 0.930 . S
Tb263 N254 2.617 . S
Tb263 N264 2.572 . S
Tb263 O298 2.349 . S
Tb263 O301 2.393 . S
Tb263 O302 2.465 . S
Tb263 O303 2.387 . S
Tb263 O305 2.428 . S
Tb263 O306 2.308 . S
Tb263 C327 2.802 . S
N264 C260 1.361 . S
N264 Tb263 2.572 . S
N264 C266 1.340 . S
C265 C259 1.416 . S
C265 C267 1.332 . S
C265 H273 0.931 . S
C266 N264 1.340 . S
C266 C267 1.407 . S
C266 H272 0.930 . S
C267 C265 1.332 . S
C267 C266 1.407 . S
C267 H269 0.929 . S
H268 C257 0.930 . S
H269 C267 0.929 . S
H270 C285 0.930 . S
H271 C292 0.929 . S
H272 C266 0.930 . S
H273 C265 0.931 . S
H274 C288 0.930 . S
H275 C255 0.930 . S
H276 C261 0.929 . S
H277 C262 0.930 . S
H278 C283 0.930 . S
H279 C258 0.930 . S
H280 C291 0.931 . S
N281 Tb252 2.617 . S
N281 C282 1.379 . S
N281 C285 1.334 . S
C282 N281 1.379 . S
C282 C284 1.416 . S
C282 C290 1.424 . S
C283 H278 0.930 . S
C283 C285 1.390 . S
C283 C286 1.339 . S
C284 C282 1.416 . S
C284 C286 1.416 . S
C284 C317 1.448 . S
C285 H270 0.930 . S
C285 N281 1.334 . S
C285 C283 1.390 . S
C286 C283 1.339 . S
C286 C284 1.416 . S
C286 H293 0.930 . S
N287 Tb252 2.572 . S
N287 C288 1.340 . S
N287 C290 1.361 . S
C288 H274 0.930 . S
C288 N287 1.340 . S
C288 C292 1.407 . S
C289 C290 1.413 . S
C289 C291 1.416 . S
C289 C318 1.427 . S
C290 C282 1.424 . S
C290 N287 1.361 . S
C290 C289 1.413 . S
C291 H280 0.931 . S
C291 C289 1.416 . S
C291 C292 1.332 . S
C292 H271 0.929 . S
C292 C288 1.407 . S
C292 C291 1.332 . S
H293 C286 0.930 . S
H294 C317 0.930 . S
H295 C318 0.929 . S
O296 Tb252 2.465 . S
O296 C316 1.264 . S
O297 Tb252 2.387 . S
O297 C308 1.264 . S
O298 Tb263 2.349 . S
O298 C308 1.243 . S
O299 Tb252 2.428 . S
O299 C316 1.256 . S
O300 Tb252 2.308 . S
O300 C315 1.266 . S
O301 Tb263 2.393 . S
O301 C315 1.248 . S
O302 Tb263 2.465 . S
O302 C327 1.264 . S
O303 Tb263 2.387 . S
O303 C319 1.264 . S
O304 Tb252 2.349 . S
O304 C319 1.243 . S
O305 Tb263 2.428 . S
O305 C327 1.256 . S
O306 Tb263 2.308 . S
O306 C326 1.266 . S
O307 Tb252 2.393 . S
O307 C326 1.248 . S
C308 O297 1.264 . S
C308 O298 1.243 . S
C309 C312 1.399 1_554 S
C309 C314 1.383 1_554 S
C309 C316 1.496 . S
C310 C311 1.399 . S
C310 C314 1.389 . S
C311 C310 1.399 . S
C311 C313 1.380 . S
C311 H328 0.929 . S
C312 C309 1.399 1_556 S
C312 C313 1.392 . S
C312 H329 0.929 1_556 S
C313 C311 1.380 . S
C313 C312 1.392 . S
C313 H330 0.929 . S
C314 C309 1.383 1_556 S
C314 C310 1.389 . S
C314 H331 0.933 . S
C315 O300 1.266 . S
C315 O301 1.248 . S
C316 Tb252 2.802 . S
C316 O296 1.264 . S
C316 O299 1.256 . S
C316 C309 1.496 . S
C317 C284 1.448 . S
C317 H294 0.930 . S
C317 C318 1.328 . S
C318 C289 1.427 . S
C318 H295 0.929 . S
C318 C317 1.328 . S
C319 O303 1.264 . S
C319 O304 1.243 . S
C320 C323 1.399 . S
C320 C324 1.383 . S
C320 C327 1.496 . S
C321 C322 1.399 . S
C321 C324 1.389 . S
C322 C321 1.399 . S
C322 C325 1.380 . S
C322 H332 0.929 . S
C323 C320 1.399 . S
C323 C325 1.392 . S
C323 H333 0.929 . S
C324 C320 1.383 . S
C324 C321 1.389 . S
C324 H334 0.931 . S
C325 C322 1.380 . S
C325 C323 1.392 . S
C325 H335 0.929 . S
C326 O306 1.266 . S
C326 O307 1.248 . S
C327 Tb263 2.802 . S
C327 O302 1.264 . S
C327 O305 1.256 . S
C327 C320 1.496 . S
H328 C311 0.929 . S
H329 C312 0.929 1_554 S
H330 C313 0.929 . S
H331 C314 0.933 . S
H332 C322 0.929 . S
H333 C323 0.929 . S
H334 C324 0.931 . S
H335 C325 0.929 . S
Tb336 N365 2.617 . S
Tb336 N371 2.572 . S
Tb336 O380 2.465 . S
Tb336 O381 2.387 . S
Tb336 O383 2.428 . S
Tb336 O384 2.308 . S
Tb336 O388 2.349 . S
Tb336 O391 2.393 . S
Tb336 C400 2.802 . S
C337 N338 1.379 . S
C337 C340 1.416 . S
C337 C344 1.424 . S
N338 C337 1.379 . S
N338 C341 1.334 . S
N338 Tb347 2.617 . S
C339 C341 1.390 . S
C339 C342 1.339 . S
C339 H359 0.930 . S
C340 C337 1.416 . S
C340 C342 1.416 . S
C340 C346 1.448 . S
C341 N338 1.334 . S
C341 C339 1.390 . S
C341 H352 0.930 . S
C342 C339 1.339 . S
C342 C340 1.416 . S
C342 H363 0.930 . S
C343 C344 1.413 . S
C343 C345 1.427 . S
C343 C349 1.416 . S
C344 C337 1.424 . S
C344 C343 1.413 . S
C344 N348 1.361 . S
C345 C343 1.427 . S
C345 C346 1.328 . S
C345 H360 0.929 . S
C346 C340 1.448 . S
C346 C345 1.328 . S
C346 H361 0.930 . S
Tb347 N338 2.617 . S
Tb347 N348 2.572 . S
Tb347 O382 2.349 . S
Tb347 O385 2.393 . S
Tb347 O386 2.465 . S
Tb347 O387 2.387 . S
Tb347 O389 2.428 . S
Tb347 O390 2.308 . S
Tb347 C411 2.802 . S
N348 C344 1.361 . S
N348 Tb347 2.572 . S
N348 C350 1.340 . S
C349 C343 1.416 . S
C349 C351 1.332 . S
C349 H357 0.931 . S
C350 N348 1.340 . S
C350 C351 1.407 . S
C350 H356 0.930 . S
C351 C349 1.332 . S
C351 C350 1.407 . S
C351 H353 0.929 . S
H352 C341 0.930 . S
H353 C351 0.929 . S
H354 C369 0.930 . S
H355 C376 0.929 . S
H356 C350 0.930 . S
H357 C349 0.931 . S
H358 C372 0.930 . S
H359 C339 0.930 . S
H360 C345 0.929 . S
H361 C346 0.930 . S
H362 C367 0.930 . S
H363 C342 0.930 . S
H364 C375 0.931 . S
N365 Tb336 2.617 . S
N365 C366 1.379 . S
N365 C369 1.334 . S
C366 N365 1.379 . S
C366 C368 1.416 . S
C366 C374 1.424 . S
C367 H362 0.930 . S
C367 C369 1.390 . S
C367 C370 1.339 . S
C368 C366 1.416 . S
C368 C370 1.416 . S
C368 C401 1.448 . S
C369 H354 0.930 . S
C369 N365 1.334 . S
C369 C367 1.390 . S
C370 C367 1.339 . S
C370 C368 1.416 . S
C370 H377 0.930 . S
N371 Tb336 2.572 . S
N371 C372 1.340 . S
N371 C374 1.361 . S
C372 H358 0.930 . S
C372 N371 1.340 . S
C372 C376 1.407 . S
C373 C374 1.413 . S
C373 C375 1.416 . S
C373 C402 1.427 . S
C374 C366 1.424 . S
C374 N371 1.361 . S
C374 C373 1.413 . S
C375 H364 0.931 . S
C375 C373 1.416 . S
C375 C376 1.332 . S
C376 H355 0.929 . S
C376 C372 1.407 . S
C376 C375 1.332 . S
H377 C370 0.930 . S
H378 C401 0.930 . S
H379 C402 0.929 . S
O380 Tb336 2.465 . S
O380 C400 1.264 . S
O381 Tb336 2.387 . S
O381 C392 1.264 . S
O382 Tb347 2.349 . S
O382 C392 1.243 . S
O383 Tb336 2.428 . S
O383 C400 1.256 . S
O384 Tb336 2.308 . S
O384 C399 1.266 . S
O385 Tb347 2.393 . S
O385 C399 1.248 . S
O386 Tb347 2.465 . S
O386 C411 1.264 . S
O387 Tb347 2.387 . S
O387 C403 1.264 . S
O388 Tb336 2.349 . S
O388 C403 1.243 . S
O389 Tb347 2.428 . S
O389 C411 1.256 . S
O390 Tb347 2.308 . S
O390 C410 1.266 . S
O391 Tb336 2.393 . S
O391 C410 1.248 . S
C392 O381 1.264 . S
C392 O382 1.243 . S
C393 C396 1.399 . S
C393 C398 1.383 . S
C393 C400 1.496 . S
C394 C395 1.399 . S
C394 C398 1.389 . S
C395 C394 1.399 . S
C395 C397 1.380 . S
C395 H412 0.929 . S
C396 C393 1.399 . S
C396 C397 1.392 . S
C396 H413 0.929 . S
C397 C395 1.380 . S
C397 C396 1.392 . S
C397 H414 0.929 . S
C398 C393 1.383 . S
C398 C394 1.389 . S
C398 H415 0.931 . S
C399 O384 1.266 . S
C399 O385 1.248 . S
C400 Tb336 2.802 . S
C400 O380 1.264 . S
C400 O383 1.256 . S
C400 C393 1.496 . S
C401 C368 1.448 . S
C401 H378 0.930 . S
C401 C402 1.328 . S
C402 C373 1.427 . S
C402 H379 0.929 . S
C402 C401 1.328 . S
C403 O387 1.264 . S
C403 O388 1.243 . S
C404 C407 1.399 1_554 S
C404 C408 1.383 1_554 S
C404 C411 1.496 . S
C405 C406 1.399 . S
C405 C408 1.389 . S
C406 C405 1.399 . S
C406 C409 1.380 . S
C406 H416 0.929 . S
C407 C404 1.399 1_556 S
C407 C409 1.392 . S
C407 H417 0.929 1_556 S
C408 C404 1.383 1_556 S
C408 C405 1.389 . S
C408 H418 0.933 . S
C409 C406 1.380 . S
C409 C407 1.392 . S
C409 H419 0.929 . S
C410 O390 1.266 . S
C410 O391 1.248 . S
C411 Tb347 2.802 . S
C411 O386 1.264 . S
C411 O389 1.256 . S
C411 C404 1.496 . S
H412 C395 0.929 . S
H413 C396 0.929 . S
H414 C397 0.929 . S
H415 C398 0.931 . S
H416 C406 0.929 . S
H417 C407 0.929 1_554 S
H418 C408 0.933 . S
H419 C409 0.929 . S
Tb420 N449 2.617 . S
Tb420 N455 2.572 . S
Tb420 O464 2.465 . S
Tb420 O465 2.387 . S
Tb420 O467 2.428 . S
Tb420 O468 2.308 . S
Tb420 O472 2.349 . S
Tb420 O475 2.393 . S
Tb420 C484 2.802 . S
C421 N422 1.379 . S
C421 C424 1.416 . S
C421 C428 1.424 . S
N422 C421 1.379 . S
N422 C425 1.334 . S
N422 Tb431 2.617 . S
C423 C425 1.390 . S
C423 C426 1.339 . S
C423 H443 0.930 . S
C424 C421 1.416 . S
C424 C426 1.416 . S
C424 C430 1.448 . S
C425 N422 1.334 . S
C425 C423 1.390 . S
C425 H436 0.930 . S
C426 C423 1.339 . S
C426 C424 1.416 . S
C426 H447 0.930 . S
C427 C428 1.413 . S
C427 C429 1.427 . S
C427 C433 1.416 . S
C428 C421 1.424 . S
C428 C427 1.413 . S
C428 N432 1.361 . S
C429 C427 1.427 . S
C429 C430 1.328 . S
C429 H444 0.929 . S
C430 C424 1.448 . S
C430 C429 1.328 . S
C430 H445 0.930 . S
Tb431 N422 2.617 . S
Tb431 N432 2.572 . S
Tb431 O466 2.349 . S
Tb431 O469 2.393 . S
Tb431 O470 2.465 . S
Tb431 O471 2.387 . S
Tb431 O473 2.428 . S
Tb431 O474 2.308 . S
Tb431 C495 2.802 . S
N432 C428 1.361 . S
N432 Tb431 2.572 . S
N432 C434 1.340 . S
C433 C427 1.416 . S
C433 C435 1.332 . S
C433 H441 0.931 . S
C434 N432 1.340 . S
C434 C435 1.407 . S
C434 H440 0.930 . S
C435 C433 1.332 . S
C435 C434 1.407 . S
C435 H437 0.929 . S
H436 C425 0.930 . S
H437 C435 0.929 . S
H438 C453 0.930 . S
H439 C460 0.929 . S
H440 C434 0.930 . S
H441 C433 0.931 . S
H442 C456 0.930 . S
H443 C423 0.930 . S
H444 C429 0.929 . S
H445 C430 0.930 . S
H446 C451 0.930 . S
H447 C426 0.930 . S
H448 C459 0.931 . S
N449 Tb420 2.617 . S
N449 C450 1.379 . S
N449 C453 1.334 . S
C450 N449 1.379 . S
C450 C452 1.416 . S
C450 C458 1.424 . S
C451 H446 0.930 . S
C451 C453 1.390 . S
C451 C454 1.339 . S
C452 C450 1.416 . S
C452 C454 1.416 . S
C452 C485 1.448 . S
C453 H438 0.930 . S
C453 N449 1.334 . S
C453 C451 1.390 . S
C454 C451 1.339 . S
C454 C452 1.416 . S
C454 H461 0.930 . S
N455 Tb420 2.572 . S
N455 C456 1.340 . S
N455 C458 1.361 . S
C456 H442 0.930 . S
C456 N455 1.340 . S
C456 C460 1.407 . S
C457 C458 1.413 . S
C457 C459 1.416 . S
C457 C486 1.427 . S
C458 C450 1.424 . S
C458 N455 1.361 . S
C458 C457 1.413 . S
C459 H448 0.931 . S
C459 C457 1.416 . S
C459 C460 1.332 . S
C460 H439 0.929 . S
C460 C456 1.407 . S
C460 C459 1.332 . S
H461 C454 0.930 . S
H462 C485 0.930 . S
H463 C486 0.929 . S
O464 Tb420 2.465 . S
O464 C484 1.264 . S
O465 Tb420 2.387 . S
O465 C476 1.264 . S
O466 Tb431 2.349 . S
O466 C476 1.243 . S
O467 Tb420 2.428 . S
O467 C484 1.256 . S
O468 Tb420 2.308 . S
O468 C483 1.266 . S
O469 Tb431 2.393 . S
O469 C483 1.248 . S
O470 Tb431 2.465 . S
O470 C495 1.264 . S
O471 Tb431 2.387 . S
O471 C487 1.264 . S
O472 Tb420 2.349 . S
O472 C487 1.243 . S
O473 Tb431 2.428 . S
O473 C495 1.256 . S
O474 Tb431 2.308 . S
O474 C494 1.266 . S
O475 Tb420 2.393 . S
O475 C494 1.248 . S
C476 O465 1.264 . S
C476 O466 1.243 . S
C477 C480 1.399 . S
C477 C482 1.383 . S
C477 C484 1.496 . S
C478 C479 1.399 . S
C478 C482 1.389 . S
C479 C478 1.399 . S
C479 C481 1.380 . S
C479 H496 0.929 . S
C480 C477 1.399 . S
C480 C481 1.392 . S
C480 H497 0.929 . S
C481 C479 1.380 . S
C481 C480 1.392 . S
C481 H498 0.929 . S
C482 C477 1.383 . S
C482 C478 1.389 . S
C482 H499 0.931 . S
C483 O468 1.266 . S
C483 O469 1.248 . S
C484 Tb420 2.802 . S
C484 O464 1.264 . S
C484 O467 1.256 . S
C484 C477 1.496 . S
C485 C452 1.448 . S
C485 H462 0.930 . S
C485 C486 1.328 . S
C486 C457 1.427 . S
C486 H463 0.929 . S
C486 C485 1.328 . S
C487 O471 1.264 . S
C487 O472 1.243 . S
C488 C491 1.399 1_556 S
C488 C492 1.383 1_556 S
C488 C495 1.496 . S
C489 C490 1.399 . S
C489 C492 1.389 . S
C490 C489 1.399 . S
C490 C493 1.380 . S
C490 H500 0.929 . S
C491 C488 1.399 1_554 S
C491 C493 1.392 . S
C491 H501 0.929 1_554 S
C492 C488 1.383 1_554 S
C492 C489 1.389 . S
C492 H502 0.933 . S
C493 C490 1.380 . S
C493 C491 1.392 . S
C493 H503 0.929 . S
C494 O474 1.266 . S
C494 O475 1.248 . S
C495 Tb431 2.802 . S
C495 O470 1.264 . S
C495 O473 1.256 . S
C495 C488 1.496 . S
H496 C479 0.929 . S
H497 C480 0.929 . S
H498 C481 0.929 . S
H499 C482 0.931 . S
H500 C490 0.929 . S
H501 C491 0.929 1_556 S
H502 C492 0.933 . S
H503 C493 0.929 . S
Tb504 N533 2.617 . S
Tb504 N539 2.572 . S
Tb504 O548 2.465 . S
Tb504 O549 2.387 1_554 S
Tb504 O551 2.428 . S
Tb504 O552 2.308 . S
Tb504 O556 2.349 . S
Tb504 O559 2.393 . S
Tb504 C568 2.802 . S
C505 N506 1.379 . S
C505 C508 1.416 . S
C505 C512 1.424 . S
N506 C505 1.379 . S
N506 C509 1.334 . S
N506 Tb515 2.617 . S
C507 C509 1.390 . S
C507 C510 1.339 . S
C507 H527 0.930 . S
C508 C505 1.416 . S
C508 C510 1.416 . S
C508 C514 1.448 . S
C509 N506 1.334 . S
C509 C507 1.390 . S
C509 H520 0.930 . S
C510 C507 1.339 . S
C510 C508 1.416 . S
C510 H531 0.930 . S
C511 C512 1.413 . S
C511 C513 1.427 . S
C511 C517 1.416 . S
C512 C505 1.424 . S
C512 C511 1.413 . S
C512 N516 1.361 . S
C513 C511 1.427 . S
C513 C514 1.328 . S
C513 H528 0.929 . S
C514 C508 1.448 . S
C514 C513 1.328 . S
C514 H529 0.930 . S
Tb515 N506 2.617 . S
Tb515 N516 2.572 . S
Tb515 O550 2.349 . S
Tb515 O553 2.393 . S
Tb515 O554 2.465 . S
Tb515 O555 2.387 1_556 S
Tb515 O557 2.428 . S
Tb515 O558 2.308 . S
Tb515 C579 2.802 . S
N516 C512 1.361 . S
N516 Tb515 2.572 . S
N516 C518 1.340 . S
C517 C511 1.416 . S
C517 C519 1.332 . S
C517 H525 0.931 . S
C518 N516 1.340 . S
C518 C519 1.407 . S
C518 H524 0.930 . S
C519 C517 1.332 . S
C519 C518 1.407 . S
C519 H521 0.929 . S
H520 C509 0.930 . S
H521 C519 0.929 . S
H522 C537 0.930 . S
H523 C544 0.929 . S
H524 C518 0.930 . S
H525 C517 0.931 . S
H526 C540 0.930 . S
H527 C507 0.930 . S
H528 C513 0.929 . S
H529 C514 0.930 . S
H530 C535 0.930 . S
H531 C510 0.930 . S
H532 C543 0.931 . S
N533 Tb504 2.617 . S
N533 C534 1.379 . S
N533 C537 1.334 . S
C534 N533 1.379 . S
C534 C536 1.416 . S
C534 C542 1.424 . S
C535 H530 0.930 . S
C535 C537 1.390 . S
C535 C538 1.339 . S
C536 C534 1.416 . S
C536 C538 1.416 . S
C536 C569 1.448 . S
C537 H522 0.930 . S
C537 N533 1.334 . S
C537 C535 1.390 . S
C538 C535 1.339 . S
C538 C536 1.416 . S
C538 H545 0.930 . S
N539 Tb504 2.572 . S
N539 C540 1.340 . S
N539 C542 1.361 . S
C540 H526 0.930 . S
C540 N539 1.340 . S
C540 C544 1.407 . S
C541 C542 1.413 . S
C541 C543 1.416 . S
C541 C570 1.427 . S
C542 C534 1.424 . S
C542 N539 1.361 . S
C542 C541 1.413 . S
C543 H532 0.931 . S
C543 C541 1.416 . S
C543 C544 1.332 . S
C544 H523 0.929 . S
C544 C540 1.407 . S
C544 C543 1.332 . S
H545 C538 0.930 . S
H546 C569 0.930 . S
H547 C570 0.929 . S
O548 Tb504 2.465 . S
O548 C568 1.264 . S
O549 Tb504 2.387 1_556 S
O549 C560 1.264 . S
O550 Tb515 2.349 . S
O550 C560 1.243 . S
O551 Tb504 2.428 . S
O551 C568 1.256 . S
O552 Tb504 2.308 . S
O552 C567 1.266 . S
O553 Tb515 2.393 . S
O553 C567 1.248 1_556 S
O554 Tb515 2.465 . S
O554 C579 1.264 . S
O555 Tb515 2.387 1_554 S
O555 C571 1.264 . S
O556 Tb504 2.349 . S
O556 C571 1.243 . S
O557 Tb515 2.428 . S
O557 C579 1.256 . S
O558 Tb515 2.308 . S
O558 C578 1.266 . S
O559 Tb504 2.393 . S
O559 C578 1.248 1_554 S
C560 O549 1.264 . S
C560 O550 1.243 . S
C561 C564 1.399 . S
C561 C566 1.383 . S
C561 C568 1.496 . S
C562 C563 1.399 . S
C562 C566 1.389 . S
C563 C562 1.399 . S
C563 C565 1.380 . S
C563 H580 0.929 . S
C564 C561 1.399 . S
C564 C565 1.392 . S
C564 H581 0.929 . S
C565 C563 1.380 . S
C565 C564 1.392 . S
C565 H582 0.929 . S
C566 C561 1.383 . S
C566 C562 1.389 . S
C566 H583 0.931 . S
C567 O552 1.266 . S
C567 O553 1.248 1_554 S
C568 Tb504 2.802 . S
C568 O548 1.264 . S
C568 O551 1.256 . S
C568 C561 1.496 . S
C569 C536 1.448 . S
C569 H546 0.930 . S
C569 C570 1.328 . S
C570 C541 1.427 . S
C570 H547 0.929 . S
C570 C569 1.328 . S
C571 O555 1.264 . S
C571 O556 1.243 . S
C572 C575 1.399 . S
C572 C576 1.383 . S
C572 C579 1.496 . S
C573 C574 1.399 . S
C573 C576 1.389 . S
C574 C573 1.399 . S
C574 C577 1.380 . S
C574 H584 0.929 . S
C575 C572 1.399 . S
C575 C577 1.392 . S
C575 H585 0.929 . S
C576 C572 1.383 . S
C576 C573 1.389 . S
C576 H586 0.931 . S
C577 C574 1.380 . S
C577 C575 1.392 . S
C577 H587 0.929 . S
C578 O558 1.266 . S
C578 O559 1.248 1_556 S
C579 Tb515 2.802 . S
C579 O554 1.264 . S
C579 O557 1.256 . S
C579 C572 1.496 . S
H580 C563 0.929 . S
H581 C564 0.929 . S
H582 C565 0.929 . S
H583 C566 0.931 . S
H584 C574 0.929 . S
H585 C575 0.929 . S
H586 C576 0.931 . S
H587 C577 0.929 . S
Tb588 N617 2.617 . S
Tb588 N623 2.572 1_455 S
Tb588 O632 2.465 1_455 S
Tb588 O633 2.387 1_455 S
Tb588 O635 2.428 . S
Tb588 O636 2.308 1_455 S
Tb588 O640 2.349 . S
Tb588 O643 2.393 . S
Tb588 C652 2.802 . S
C589 N590 1.379 1_455 S
C589 C592 1.416 . S
C589 C596 1.424 . S
N590 C589 1.379 1_655 S
N590 C593 1.334 . S
N590 Tb599 2.619 . S
C591 C593 1.390 . S
C591 C594 1.339 . S
C591 H611 0.930 . S
C592 C589 1.416 . S
C592 C594 1.416 1_455 S
C592 C598 1.448 . S
C593 N590 1.334 . S
C593 C591 1.390 . S
C593 H604 0.930 . S
C594 C591 1.339 . S
C594 C592 1.416 1_655 S
C594 H615 0.930 . S
C595 C596 1.413 . S
C595 C597 1.427 . S
C595 C601 1.416 . S
C596 C589 1.424 . S
C596 C595 1.413 . S
C596 N600 1.361 . S
C597 C595 1.427 . S
C597 C598 1.328 . S
C597 H612 0.929 . S
C598 C592 1.448 . S
C598 C597 1.328 . S
C598 H613 0.930 . S
Tb599 N590 2.619 . S
Tb599 N600 2.547 1_655 S
Tb599 O634 2.367 . S
Tb599 O637 2.416 . S
Tb599 O638 2.460 1_655 S
Tb599 O639 2.371 1_655 S
Tb599 O641 2.443 . S
Tb599 O642 2.289 1_655 S
Tb599 C663 2.808 . S
N600 C596 1.361 . S
N600 Tb599 2.547 1_455 S
N600 C602 1.340 . S
C601 C595 1.416 . S
C601 C603 1.332 . S
C601 H609 0.931 . S
C602 N600 1.340 . S
C602 C603 1.407 . S
C602 H608 0.930 . S
C603 C601 1.332 . S
C603 C602 1.407 . S
C603 H605 0.929 . S
H604 C593 0.930 . S
H605 C603 0.929 . S
H606 C621 0.930 . S
H607 C628 0.929 . S
H608 C602 0.930 . S
H609 C601 0.931 . S
H610 C624 0.930 . S
H611 C591 0.930 . S
H612 C597 0.929 . S
H613 C598 0.930 . S
H614 C619 0.930 . S
H615 C594 0.930 . S
H616 C627 0.931 . S
N617 Tb588 2.617 . S
N617 C618 1.379 1_455 S
N617 C621 1.334 . S
C618 N617 1.379 1_655 S
C618 C620 1.416 . S
C618 C626 1.424 . S
C619 H614 0.930 . S
C619 C621 1.390 . S
C619 C622 1.339 . S
C620 C618 1.416 . S
C620 C622 1.416 1_655 S
C620 C653 1.448 . S
C621 H606 0.930 . S
C621 N617 1.334 . S
C621 C619 1.390 . S
C622 C619 1.339 . S
C622 C620 1.416 1_455 S
C622 H629 0.930 . S
N623 Tb588 2.572 1_655 S
N623 C624 1.340 . S
N623 C626 1.361 . S
C624 H610 0.930 . S
C624 N623 1.340 . S
C624 C628 1.407 . S
C625 C626 1.413 . S
C625 C627 1.416 . S
C625 C654 1.427 . S
C626 C618 1.424 . S
C626 N623 1.361 . S
C626 C625 1.413 . S
C627 H616 0.931 . S
C627 C625 1.416 . S
C627 C628 1.332 . S
C628 H607 0.929 . S
C628 C624 1.407 . S
C628 C627 1.332 . S
H629 C622 0.930 . S
H630 C653 0.930 . S
H631 C654 0.929 . S
O632 Tb588 2.465 1_655 S
O632 C652 1.264 1_655 S
O633 Tb588 2.387 1_655 S
O633 C644 1.264 . S
O634 Tb599 2.367 . S
O634 C644 1.243 . S
O635 Tb588 2.428 . S
O635 C652 1.256 . S
O636 Tb588 2.308 1_655 S
O636 C651 1.266 . S
O637 Tb599 2.416 . S
O637 C651 1.248 . S
O638 Tb599 2.460 1_455 S
O638 C663 1.264 1_455 S
O639 Tb599 2.371 1_455 S
O639 C655 1.264 . S
O640 Tb588 2.349 . S
O640 C655 1.243 . S
O641 Tb599 2.443 . S
O641 C663 1.256 . S
O642 Tb599 2.289 1_455 S
O642 C662 1.266 . S
O643 Tb588 2.393 . S
O643 C662 1.248 . S
C644 O633 1.264 . S
C644 O634 1.243 . S
C645 C648 1.399 . S
C645 C650 1.383 . S
C645 C652 1.496 . S
C646 C647 1.399 . S
C646 C650 1.389 . S
C647 C646 1.399 . S
C647 C649 1.380 . S
C647 H664 0.929 . S
C648 C645 1.399 . S
C648 C649 1.392 . S
C648 H665 0.929 . S
C649 C647 1.380 . S
C649 C648 1.392 . S
C649 H666 0.929 . S
C650 C645 1.383 . S
C650 C646 1.389 . S
C650 H667 0.931 1_455 S
C651 O636 1.266 . S
C651 O637 1.248 . S
C652 Tb588 2.802 . S
C652 O632 1.264 1_455 S
C652 O635 1.256 . S
C652 C645 1.496 . S
C653 C620 1.448 . S
C653 H630 0.930 . S
C653 C654 1.328 . S
C654 C625 1.427 . S
C654 H631 0.929 . S
C654 C653 1.328 . S
C655 O639 1.264 . S
C655 O640 1.243 . S
C656 C659 1.399 . S
C656 C660 1.383 . S
C656 C663 1.496 . S
C657 C658 1.399 . S
C657 C660 1.389 . S
C658 C657 1.399 . S
C658 C661 1.380 . S
C658 H668 0.929 . S
C659 C656 1.399 . S
C659 C661 1.392 . S
C659 H669 0.929 . S
C660 C656 1.383 . S
C660 C657 1.389 . S
C660 H670 0.931 1_655 S
C661 C658 1.380 . S
C661 C659 1.392 . S
C661 H671 0.929 . S
C662 O642 1.266 . S
C662 O643 1.248 . S
C663 Tb599 2.808 . S
C663 O638 1.264 1_655 S
C663 O641 1.256 . S
C663 C656 1.496 . S
H664 C647 0.929 . S
H665 C648 0.929 . S
H666 C649 0.929 . S
H667 C650 0.931 1_655 S
H668 C658 0.929 . S
H669 C659 0.929 . S
H670 C660 0.931 1_455 S
H671 C661 0.929 . S
H672 C678 0.930 . S
H673 C682 0.930 . S
H674 C687 0.929 . S
H675 C685 0.929 . S
H676 C680 0.929 . S
H677 C686 0.929 . S
C678 H672 0.930 . S
C678 C679 1.367 . S
C678 C686 1.378 . S
C679 C678 1.367 . S
C679 C687 1.433 . S
C680 H676 0.929 . S
C680 C682 1.378 . S
C680 C684 1.350 . S
C681 C684 1.463 . S
C681 C686 1.350 . S
C681 N689 1.427 . S
C682 H673 0.930 . S
C682 C680 1.378 . S
C682 C683 1.367 . S
C683 C682 1.367 . S
C683 C685 1.433 . S
C684 C680 1.350 . S
C684 C681 1.463 . S
C684 N688 1.427 . S
C685 H675 0.929 . S
C685 C683 1.433 . S
C685 N688 1.384 . S
C686 H677 0.929 . S
C686 C678 1.378 . S
C686 C681 1.350 . S
C687 H674 0.929 . S
C687 C679 1.433 . S
C687 N689 1.384 . S
N688 C684 1.427 . S
N688 C685 1.384 . S
N689 C681 1.427 . S
N689 C687 1.384 . S
H690 C696 0.930 . S
H691 C700 0.930 . S
H692 C705 0.929 . S
H693 C703 0.929 . S
H694 C698 0.929 . S
H695 C704 0.929 . S
C696 H690 0.930 . S
C696 C697 1.367 . S
C696 C704 1.378 . S
C697 C696 1.367 . S
C697 C705 1.433 . S
C698 H694 0.929 . S
C698 C700 1.378 . S
C698 C702 1.350 . S
C699 C702 1.463 . S
C699 C704 1.350 . S
C699 N707 1.427 . S
C700 H691 0.930 . S
C700 C698 1.378 . S
C700 C701 1.367 . S
C701 C700 1.367 . S
C701 C703 1.433 . S
C702 C698 1.350 . S
C702 C699 1.463 . S
C702 N706 1.427 . S
C703 H693 0.929 . S
C703 C701 1.433 . S
C703 N706 1.384 . S
C704 H695 0.929 . S
C704 C696 1.378 . S
C704 C699 1.350 . S
C705 H692 0.929 . S
C705 C697 1.433 . S
C705 N707 1.384 . S
N706 C702 1.427 . S
N706 C703 1.384 . S
N707 C699 1.427 . S
N707 C705 1.384 . S
H708 C714 0.930 . S
H709 C718 0.930 . S
H710 C723 0.929 . S
H711 C721 0.929 . S
H712 C716 0.929 . S
H713 C722 0.929 . S
C714 H708 0.930 . S
C714 C715 1.367 . S
C714 C722 1.378 . S
C715 C714 1.367 . S
C715 C723 1.433 . S
C716 H712 0.929 . S
C716 C718 1.378 . S
C716 C720 1.350 . S
C717 C720 1.463 . S
C717 C722 1.350 . S
C717 N725 1.427 . S
C718 H709 0.930 . S
C718 C716 1.378 . S
C718 C719 1.367 . S
C719 C718 1.367 . S
C719 C721 1.433 . S
C720 C716 1.350 . S
C720 C717 1.463 . S
C720 N724 1.427 . S
C721 H711 0.929 . S
C721 C719 1.433 . S
C721 N724 1.384 . S
C722 H713 0.929 . S
C722 C714 1.378 . S
C722 C717 1.350 . S
C723 H710 0.929 . S
C723 C715 1.433 . S
C723 N725 1.384 . S
N724 C720 1.427 . S
N724 C721 1.384 . S
N725 C717 1.427 . S
N725 C723 1.384 . S
H726 C732 0.910 1_556 S
H727 C736 0.930 . S
H728 C741 0.929 . S
H729 C739 0.929 . S
H730 C734 0.929 . S
H731 C740 0.929 . S
C732 H726 0.910 1_554 S
C732 C733 1.367 . S
C732 C740 1.378 . S
C733 C732 1.367 . S
C733 C741 1.433 . S
C734 H730 0.929 . S
C734 C736 1.378 . S
C734 C738 1.350 . S
C735 C738 1.463 . S
C735 C740 1.350 . S
C735 N743 1.427 . S
C736 H727 0.930 . S
C736 C734 1.378 . S
C736 C737 1.367 . S
C737 C736 1.367 . S
C737 C739 1.433 . S
C738 C734 1.350 . S
C738 C735 1.463 . S
C738 N742 1.427 . S
C739 H729 0.929 . S
C739 C737 1.433 . S
C739 N742 1.384 . S
C740 H731 0.929 . S
C740 C732 1.378 . S
C740 C735 1.350 . S
C741 H728 0.929 . S
C741 C733 1.433 . S
C741 N743 1.384 . S
N742 C738 1.427 . S
N742 C739 1.384 . S
N743 C735 1.427 . S
N743 C741 1.384 . S
H744 C750 0.930 . S
H745 C754 0.930 . S
H746 C759 0.929 . S
H747 C757 0.929 . S
H748 C752 0.929 . S
H749 C758 0.929 . S
C750 H744 0.930 . S
C750 C751 1.367 . S
C750 C758 1.378 . S
C751 C750 1.367 . S
C751 C759 1.433 . S
C752 H748 0.929 . S
C752 C754 1.378 . S
C752 C756 1.350 . S
C753 C756 1.463 . S
C753 C758 1.350 . S
C753 N761 1.427 . S
C754 H745 0.930 . S
C754 C752 1.378 . S
C754 C755 1.367 . S
C755 C754 1.367 . S
C755 C757 1.433 . S
C756 C752 1.350 . S
C756 C753 1.463 . S
C756 N760 1.427 . S
C757 H747 0.929 . S
C757 C755 1.433 . S
C757 N760 1.384 . S
C758 H749 0.929 . S
C758 C750 1.378 . S
C758 C753 1.350 . S
C759 H746 0.929 . S
C759 C751 1.433 . S
C759 N761 1.384 . S
N760 C756 1.427 . S
N760 C757 1.384 . S
N761 C753 1.427 . S
N761 C759 1.384 . S
H762 C768 0.930 . S
H763 C772 0.930 . S
H764 C777 0.929 . S
H765 C775 0.929 . S
H766 C770 0.929 . S
H767 C776 0.929 . S
C768 H762 0.930 . S
C768 C769 1.367 . S
C768 C776 1.378 . S
C769 C768 1.367 . S
C769 C777 1.433 . S
C770 H766 0.929 . S
C770 C772 1.378 . S
C770 C774 1.350 . S
C771 C774 1.463 . S
C771 C776 1.350 . S
C771 N779 1.427 . S
C772 H763 0.930 . S
C772 C770 1.378 . S
C772 C773 1.367 . S
C773 C772 1.367 . S
C773 C775 1.433 . S
C774 C770 1.350 . S
C774 C771 1.463 . S
C774 N778 1.427 . S
C775 H765 0.929 . S
C775 C773 1.433 . S
C775 N778 1.384 . S
C776 H767 0.929 . S
C776 C768 1.378 . S
C776 C771 1.350 . S
C777 H764 0.929 . S
C777 C769 1.433 . S
C777 N779 1.384 . S
N778 C774 1.427 . S
N778 C775 1.384 . S
N779 C771 1.427 . S
N779 C777 1.384 . S
H780 C786 0.930 . S
H781 C790 0.930 . S
H782 C795 0.929 . S
H783 C793 0.929 . S
H784 C788 0.929 . S
H785 C794 0.929 . S
C786 H780 0.930 . S
C786 C787 1.367 . S
C786 C794 1.378 . S
C787 C786 1.367 . S
C787 C795 1.433 . S
C788 H784 0.929 . S
C788 C790 1.378 . S
C788 C792 1.350 . S
C789 C792 1.463 . S
C789 C794 1.350 . S
C789 N797 1.427 . S
C790 H781 0.930 . S
C790 C788 1.378 . S
C790 C791 1.367 . S
C791 C790 1.367 . S
C791 C793 1.433 . S
C792 C788 1.350 . S
C792 C789 1.463 . S
C792 N796 1.427 . S
C793 H783 0.929 . S
C793 C791 1.433 . S
C793 N796 1.384 . S
C794 H785 0.929 . S
C794 C786 1.378 . S
C794 C789 1.350 . S
C795 H782 0.929 . S
C795 C787 1.433 . S
C795 N797 1.384 . S
N796 C792 1.427 . S
N796 C793 1.384 . S
N797 C789 1.427 . S
N797 C795 1.384 . S
H798 C804 0.930 . S
H799 C808 0.930 . S
H800 C813 0.929 . S
H801 C811 0.929 . S
H802 C806 0.929 . S
H803 C812 0.929 . S
C804 H798 0.930 . S
C804 C805 1.367 . S
C804 C812 1.378 . S
C805 C804 1.367 . S
C805 C813 1.433 . S
C806 H802 0.929 . S
C806 C808 1.378 . S
C806 C810 1.350 . S
C807 C810 1.463 . S
C807 C812 1.350 . S
C807 N815 1.427 . S
C808 H799 0.930 . S
C808 C806 1.378 . S
C808 C809 1.367 . S
C809 C808 1.367 . S
C809 C811 1.433 . S
C810 C806 1.350 . S
C810 C807 1.463 . S
C810 N814 1.427 . S
C811 H801 0.929 . S
C811 C809 1.433 . S
C811 N814 1.384 . S
C812 H803 0.929 . S
C812 C804 1.378 . S
C812 C807 1.350 . S
C813 H800 0.929 . S
C813 C805 1.433 . S
C813 N815 1.384 . S
N814 C810 1.427 . S
N814 C811 1.384 . S
N815 C807 1.427 . S
N815 C813 1.384 . S
H816 C822 0.930 . S
H817 C826 0.930 . S
H818 C831 0.929 . S
H819 C829 0.929 . S
H820 C824 0.929 . S
H821 C830 0.929 . S
C822 H816 0.930 . S
C822 C823 1.367 . S
C822 C830 1.378 . S
C823 C822 1.367 . S
C823 C831 1.433 . S
C824 H820 0.929 . S
C824 C826 1.378 . S
C824 C828 1.350 . S
C825 C828 1.463 . S
C825 C830 1.350 . S
C825 N833 1.427 . S
C826 H817 0.930 . S
C826 C824 1.378 . S
C826 C827 1.367 . S
C827 C826 1.367 . S
C827 C829 1.433 . S
C828 C824 1.350 . S
C828 C825 1.463 . S
C828 N832 1.427 . S
C829 H819 0.929 . S
C829 C827 1.433 . S
C829 N832 1.384 . S
C830 H821 0.929 . S
C830 C822 1.378 . S
C830 C825 1.350 . S
C831 H818 0.929 . S
C831 C823 1.433 . S
C831 N833 1.384 . S
N832 C828 1.427 . S
N832 C829 1.384 . S
N833 C825 1.427 . S
N833 C831 1.384 . S
H834 C840 0.930 . S
H835 C844 0.930 1_556 S
H836 C849 0.929 . S
H837 C847 0.929 . S
H838 C842 0.929 . S
H839 C848 0.929 . S
C840 H834 0.930 . S
C840 C841 1.367 . S
C840 C848 1.378 . S
C841 C840 1.367 . S
C841 C849 1.433 . S
C842 H838 0.929 . S
C842 C844 1.378 . S
C842 C846 1.350 . S
C843 C846 1.463 . S
C843 C848 1.350 . S
C843 N851 1.427 . S
C844 H835 0.930 1_554 S
C844 C842 1.378 . S
C844 C845 1.367 . S
C845 C844 1.367 . S
C845 C847 1.433 . S
C846 C842 1.350 . S
C846 C843 1.463 . S
C846 N850 1.427 . S
C847 H837 0.929 . S
C847 C845 1.433 . S
C847 N850 1.384 . S
C848 H839 0.929 . S
C848 C840 1.378 . S
C848 C843 1.350 . S
C849 H836 0.929 . S
C849 C841 1.433 . S
C849 N851 1.384 . S
N850 C846 1.427 . S
N850 C847 1.384 . S
N851 C843 1.427 . S
N851 C849 1.384 . S
H852 C858 0.930 . S
H853 C862 0.930 . S
H854 C867 0.929 . S
H855 C865 0.929 . S
H856 C860 0.929 . S
H857 C866 0.929 . S
C858 H852 0.930 . S
C858 C859 1.367 . S
C858 C866 1.378 . S
C859 C858 1.367 . S
C859 C867 1.433 . S
C860 H856 0.929 . S
C860 C862 1.378 . S
C860 C864 1.350 . S
C861 C864 1.463 . S
C861 C866 1.350 . S
C861 N869 1.427 . S
C862 H853 0.930 . S
C862 C860 1.378 . S
C862 C863 1.367 . S
C863 C862 1.367 . S
C863 C865 1.433 . S
C864 C860 1.350 . S
C864 C861 1.463 . S
C864 N868 1.427 . S
C865 H855 0.929 . S
C865 C863 1.433 . S
C865 N868 1.384 . S
C866 H857 0.929 . S
C866 C858 1.378 . S
C866 C861 1.350 . S
C867 H854 0.929 . S
C867 C859 1.433 . S
C867 N869 1.384 . S
N868 C864 1.427 . S
N868 C865 1.384 . S
N869 C861 1.427 . S
N869 C867 1.384 . S
H870 C876 0.930 . S
H871 C880 0.930 . S
H872 C885 0.929 . S
H873 C883 0.929 . S
H874 C878 0.929 . S
H875 C884 0.929 . S
C876 H870 0.930 . S
C876 C877 1.367 . S
C876 C884 1.378 . S
C877 C876 1.367 . S
C877 C885 1.433 . S
C878 H874 0.929 . S
C878 C880 1.378 . S
C878 C882 1.350 . S
C879 C882 1.463 . S
C879 C884 1.350 . S
C879 N887 1.427 . S
C880 H871 0.930 . S
C880 C878 1.378 . S
C880 C881 1.367 . S
C881 C880 1.367 . S
C881 C883 1.433 . S
C882 C878 1.350 . S
C882 C879 1.463 . S
C882 N886 1.427 . S
C883 H873 0.929 . S
C883 C881 1.433 . S
C883 N886 1.384 . S
C884 H875 0.929 . S
C884 C876 1.378 . S
C884 C879 1.350 . S
C885 H872 0.929 . S
C885 C877 1.433 . S
C885 N887 1.384 . S
N886 C882 1.427 . S
N886 C883 1.384 . S
N887 C879 1.427 . S
N887 C885 1.384 . S
H888 C894 0.930 . S
H889 C898 0.930 . S
H890 C903 0.929 . S
H891 C901 0.929 . S
H892 C896 0.929 . S
H893 C902 0.929 . S
C894 H888 0.930 . S
C894 C895 1.367 . S
C894 C902 1.378 . S
C895 C894 1.367 . S
C895 C903 1.433 . S
C896 H892 0.929 . S
C896 C898 1.378 . S
C896 C900 1.350 . S
C897 C900 1.463 . S
C897 C902 1.350 . S
C897 N905 1.427 . S
C898 H889 0.930 . S
C898 C896 1.378 . S
C898 C899 1.367 . S
C899 C898 1.367 . S
C899 C901 1.433 . S
C900 C896 1.350 . S
C900 C897 1.463 . S
C900 N904 1.427 . S
C901 H891 0.929 . S
C901 C899 1.433 . S
C901 N904 1.384 . S
C902 H893 0.929 . S
C902 C894 1.378 . S
C902 C897 1.350 . S
C903 H890 0.929 . S
C903 C895 1.433 . S
C903 N905 1.384 . S
N904 C900 1.427 . S
N904 C901 1.384 . S
N905 C897 1.427 . S
N905 C903 1.384 . S
H906 C912 0.930 . S
H907 C916 0.930 . S
H908 C921 0.929 1_554 S
H909 C919 0.929 . S
H910 C914 0.929 . S
H911 C920 0.929 . S
C912 H906 0.930 . S
C912 C913 1.367 . S
C912 C920 1.378 . S
C913 C912 1.367 . S
C913 C921 1.433 . S
C914 H910 0.929 . S
C914 C916 1.378 . S
C914 C918 1.350 . S
C915 C918 1.463 . S
C915 C920 1.350 . S
C915 N923 1.427 . S
C916 H907 0.930 . S
C916 C914 1.378 . S
C916 C917 1.367 . S
C917 C916 1.367 . S
C917 C919 1.433 . S
C918 C914 1.350 . S
C918 C915 1.463 . S
C918 N922 1.427 . S
C919 H909 0.929 . S
C919 C917 1.433 . S
C919 N922 1.384 . S
C920 H911 0.929 . S
C920 C912 1.378 . S
C920 C915 1.350 . S
C921 H908 0.929 1_556 S
C921 C913 1.433 . S
C921 N923 1.384 . S
N922 C918 1.427 . S
N922 C919 1.384 . S
N923 C915 1.427 . S
N923 C921 1.384 . S
H924 C930 0.930 . S
H925 C934 0.930 . S
H926 C939 0.929 . S
H927 C937 0.929 . S
H928 C932 0.929 . S
H929 C938 0.929 . S
C930 H924 0.930 . S
C930 C931 1.367 . S
C930 C938 1.378 . S
C931 C930 1.367 . S
C931 C939 1.433 . S
C932 H928 0.929 . S
C932 C934 1.378 . S
C932 C936 1.350 . S
C933 C936 1.463 . S
C933 C938 1.350 . S
C933 N941 1.427 . S
C934 H925 0.930 . S
C934 C932 1.378 . S
C934 C935 1.367 . S
C935 C934 1.367 . S
C935 C937 1.433 . S
C936 C932 1.350 . S
C936 C933 1.463 . S
C936 N940 1.427 . S
C937 H927 0.929 . S
C937 C935 1.433 . S
C937 N940 1.384 . S
C938 H929 0.929 . S
C938 C930 1.378 . S
C938 C933 1.350 . S
C939 H926 0.929 . S
C939 C931 1.433 . S
C939 N941 1.384 . S
N940 C936 1.427 . S
N940 C937 1.384 . S
N941 C933 1.427 . S
N941 C939 1.384 . S
H942 C948 0.930 . S
H943 C952 0.930 . S
H944 C957 0.929 . S
H945 C955 0.929 . S
H946 C950 0.929 . S
H947 C956 0.929 . S
C948 H942 0.930 . S
C948 C949 1.367 . S
C948 C956 1.378 . S
C949 C948 1.367 . S
C949 C957 1.433 . S
C950 H946 0.929 . S
C950 C952 1.378 . S
C950 C954 1.350 . S
C951 C954 1.463 . S
C951 C956 1.350 . S
C951 N959 1.427 . S
C952 H943 0.930 . S
C952 C950 1.378 . S
C952 C953 1.367 . S
C953 C952 1.367 . S
C953 C955 1.433 . S
C954 C950 1.350 . S
C954 C951 1.463 . S
C954 N958 1.427 . S
C955 H945 0.929 . S
C955 C953 1.433 . S
C955 N958 1.384 . S
C956 H947 0.929 . S
C956 C948 1.378 . S
C956 C951 1.350 . S
C957 H944 0.929 . S
C957 C949 1.433 . S
C957 N959 1.384 . S
N958 C954 1.427 . S
N958 C955 1.384 . S
N959 C951 1.427 . S
N959 C957 1.384 . S
H960 C966 0.930 . S
H961 C970 0.930 . S
H962 C975 0.929 . S
H963 C973 0.929 . S
H964 C968 0.929 . S
H965 C974 0.929 . S
C966 H960 0.930 . S
C966 C967 1.367 1_545 S
C966 C974 1.378 . S
C967 C966 1.367 1_565 S
C967 C975 1.433 1_655 S
C968 H964 0.929 . S
C968 C970 1.378 . S
C968 C972 1.341 1_565 S
C969 C972 1.461 1_666 S
C969 C974 1.365 1_565 S
C969 N977 1.414 1_655 S
C970 H961 0.930 . S
C970 C968 1.378 . S
C970 C971 1.367 1_565 S
C971 C970 1.367 1_545 S
C971 C973 1.433 1_455 S
C972 C968 1.341 1_545 S
C972 C969 1.461 1_444 S
C972 N976 1.437 1_455 S
C973 H963 0.929 . S
C973 C971 1.433 1_655 S
C973 N976 1.384 . S
C974 H965 0.929 . S
C974 C966 1.378 . S
C974 C969 1.365 1_545 S
C975 H962 0.929 . S
C975 C967 1.433 1_455 S
C975 N977 1.384 . S
N976 C972 1.437 1_655 S
N976 C973 1.384 . S
N977 C969 1.414 1_455 S
N977 C975 1.384 . S
H978 C984 0.930 . S
H979 C988 0.930 . S
H980 C993 0.929 . S
H981 C991 0.929 . S
H982 C986 0.929 . S
H983 C992 0.929 . S
C984 H978 0.930 . S
C984 C985 1.367 . S
C984 C992 1.378 . S
C985 C984 1.367 . S
C985 C993 1.433 . S
C986 H982 0.929 . S
C986 C988 1.378 . S
C986 C990 1.350 . S
C987 C990 1.463 . S
C987 C992 1.350 . S
C987 N995 1.427 . S
C988 H979 0.930 . S
C988 C986 1.378 . S
C988 C989 1.367 . S
C989 C988 1.367 . S
C989 C991 1.433 . S
C990 C986 1.350 . S
C990 C987 1.463 . S
C990 N994 1.427 . S
C991 H981 0.929 . S
C991 C989 1.433 . S
C991 N994 1.384 . S
C992 H983 0.929 . S
C992 C984 1.378 . S
C992 C987 1.350 . S
C993 H980 0.929 . S
C993 C985 1.433 . S
C993 N995 1.384 . S
N994 C990 1.427 . S
N994 C991 1.384 . S
N995 C987 1.427 . S
N995 C993 1.384 . S
H996 C1002 0.930 . S
H997 C1006 0.930 . S
H998 C1011 0.929 . S
H999 C1009 0.929 . S
H1000 C1004 0.929 . S
H1001 C1010 0.929 . S
C1002 H996 0.930 . S
C1002 C1003 1.367 1_545 S
C1002 C1010 1.378 . S
C1003 C1002 1.367 1_565 S
C1003 C1011 1.433 . S
C1004 H1000 0.929 . S
C1004 C1006 1.378 . S
C1004 C1008 1.333 1_565 S
C1005 C1008 1.461 1_565 S
C1005 C1010 1.338 1_565 S
C1005 N1013 1.442 . S
C1006 H997 0.930 . S
C1006 C1004 1.378 . S
C1006 C1007 1.367 1_565 S
C1007 C1006 1.367 1_545 S
C1007 C1009 1.433 . S
C1008 C1004 1.333 1_545 S
C1008 C1005 1.461 1_545 S
C1008 N1012 1.447 . S
C1009 H999 0.929 . S
C1009 C1007 1.433 . S
C1009 N1012 1.384 . S
C1010 H1001 0.929 . S
C1010 C1002 1.378 . S
C1010 C1005 1.338 1_545 S
C1011 H998 0.929 . S
C1011 C1003 1.433 . S
C1011 N1013 1.384 . S
N1012 C1008 1.447 . S
N1012 C1009 1.384 . S
N1013 C1005 1.442 . S
N1013 C1011 1.384 . S
H1014 C1020 0.930 . S
H1015 C1024 0.930 . S
H1016 C1029 0.929 . S
H1017 C1027 0.929 . S
H1018 C1022 0.929 . S
H1019 C1028 0.929 . S
C1020 H1014 0.930 . S
C1020 C1021 1.367 . S
C1020 C1028 1.378 . S
C1021 C1020 1.367 . S
C1021 C1029 1.433 . S
C1022 H1018 0.929 . S
C1022 C1024 1.378 . S
C1022 C1026 1.350 . S
C1023 C1026 1.463 . S
C1023 C1028 1.350 . S
C1023 N1031 1.427 . S
C1024 H1015 0.930 . S
C1024 C1022 1.378 . S
C1024 C1025 1.367 . S
C1025 C1024 1.367 . S
C1025 C1027 1.433 . S
C1026 C1022 1.350 . S
C1026 C1023 1.463 . S
C1026 N1030 1.427 . S
C1027 H1017 0.929 . S
C1027 C1025 1.433 . S
C1027 N1030 1.384 . S
C1028 H1019 0.929 . S
C1028 C1020 1.378 . S
C1028 C1023 1.350 . S
C1029 H1016 0.929 . S
C1029 C1021 1.433 . S
C1029 N1031 1.384 . S
N1030 C1026 1.427 . S
N1030 C1027 1.384 . S
N1031 C1023 1.427 . S
N1031 C1029 1.384 . S
H1032 C1038 0.930 . S
H1033 C1042 0.930 . S
H1034 C1047 0.929 . S
H1035 C1045 0.929 . S
H1036 C1040 0.929 . S
H1037 C1046 0.929 . S
C1038 H1032 0.930 . S
C1038 C1039 1.367 . S
C1038 C1046 1.378 . S
C1039 C1038 1.367 . S
C1039 C1047 1.433 . S
C1040 H1036 0.929 . S
C1040 C1042 1.378 . S
C1040 C1044 1.350 . S
C1041 C1044 1.463 . S
C1041 C1046 1.350 . S
C1041 N1049 1.427 . S
C1042 H1033 0.930 . S
C1042 C1040 1.378 . S
C1042 C1043 1.367 . S
C1043 C1042 1.367 . S
C1043 C1045 1.433 . S
C1044 C1040 1.350 . S
C1044 C1041 1.463 . S
C1044 N1048 1.427 . S
C1045 H1035 0.929 . S
C1045 C1043 1.433 . S
C1045 N1048 1.384 . S
C1046 H1037 0.929 . S
C1046 C1038 1.378 . S
C1046 C1041 1.350 . S
C1047 H1034 0.929 . S
C1047 C1039 1.433 . S
C1047 N1049 1.384 . S
N1048 C1044 1.427 . S
N1048 C1045 1.384 . S
N1049 C1041 1.427 . S
N1049 C1047 1.384 . S
H1050 C1056 0.930 . S
H1051 C1060 0.930 . S
H1052 C1065 0.929 . S
H1053 C1063 0.929 . S
H1054 C1058 0.929 . S
H1055 C1064 0.929 . S
C1056 H1050 0.930 . S
C1056 C1057 1.367 . S
C1056 C1064 1.378 . S
C1057 C1056 1.367 . S
C1057 C1065 1.433 . S
C1058 H1054 0.929 . S
C1058 C1060 1.378 . S
C1058 C1062 1.350 . S
C1059 C1062 1.463 . S
C1059 C1064 1.350 . S
C1059 N1067 1.427 . S
C1060 H1051 0.930 . S
C1060 C1058 1.378 . S
C1060 C1061 1.367 . S
C1061 C1060 1.367 . S
C1061 C1063 1.433 . S
C1062 C1058 1.350 . S
C1062 C1059 1.463 . S
C1062 N1066 1.427 . S
C1063 H1053 0.929 . S
C1063 C1061 1.433 . S
C1063 N1066 1.384 . S
C1064 H1055 0.929 . S
C1064 C1056 1.378 . S
C1064 C1059 1.350 . S
C1065 H1052 0.929 . S
C1065 C1057 1.433 . S
C1065 N1067 1.384 . S
N1066 C1062 1.427 . S
N1066 C1063 1.384 . S
N1067 C1059 1.427 . S
N1067 C1065 1.384 . S
H1068 C1074 0.930 . S
H1069 C1078 0.930 . S
H1070 C1083 0.929 . S
H1071 C1081 0.929 . S
H1072 C1076 0.929 . S
H1073 C1082 0.929 . S
C1074 H1068 0.930 . S
C1074 C1075 1.367 . S
C1074 C1082 1.378 . S
C1075 C1074 1.367 . S
C1075 C1083 1.433 . S
C1076 H1072 0.929 . S
C1076 C1078 1.378 . S
C1076 C1080 1.350 . S
C1077 C1080 1.463 . S
C1077 C1082 1.350 . S
C1077 N1085 1.427 . S
C1078 H1069 0.930 . S
C1078 C1076 1.378 . S
C1078 C1079 1.367 . S
C1079 C1078 1.367 . S
C1079 C1081 1.433 . S
C1080 C1076 1.350 . S
C1080 C1077 1.463 . S
C1080 N1084 1.427 . S
C1081 H1071 0.929 . S
C1081 C1079 1.433 . S
C1081 N1084 1.384 . S
C1082 H1073 0.929 . S
C1082 C1074 1.378 . S
C1082 C1077 1.350 . S
C1083 H1070 0.929 . S
C1083 C1075 1.433 . S
C1083 N1085 1.384 . S
N1084 C1080 1.427 . S
N1084 C1081 1.384 . S
N1085 C1077 1.427 . S
N1085 C1083 1.384 . S
H1086 C1092 0.930 . S
H1087 C1096 0.930 . S
H1088 C1101 0.929 . S
H1089 C1099 0.929 . S
H1090 C1094 0.929 . S
H1091 C1100 0.929 . S
C1092 H1086 0.930 . S
C1092 C1093 1.367 1_655 S
C1092 C1100 1.378 . S
C1093 C1092 1.367 1_455 S
C1093 C1101 1.433 . S
C1094 H1090 0.929 . S
C1094 C1096 1.378 . S
C1094 C1098 1.361 . S
C1095 C1098 1.462 1_656 S
C1095 C1100 1.356 . S
C1095 N1103 1.421 1_655 S
C1096 H1087 0.930 . S
C1096 C1094 1.378 . S
C1096 C1097 1.367 1_455 S
C1097 C1096 1.367 1_655 S
C1097 C1099 1.433 . S
C1098 C1094 1.361 . S
C1098 C1095 1.462 1_454 S
C1098 N1102 1.415 1_455 S
C1099 H1089 0.929 . S
C1099 C1097 1.433 . S
C1099 N1102 1.384 . S
C1100 H1091 0.929 . S
C1100 C1092 1.378 . S
C1100 C1095 1.356 . S
C1101 H1088 0.929 . S
C1101 C1093 1.433 . S
C1101 N1103 1.384 . S
N1102 C1098 1.415 1_655 S
N1102 C1099 1.384 . S
N1103 C1095 1.421 1_455 S
N1103 C1101 1.384 . S
C679 C56 1.504 . S
C683 C308 1.497 . S
C697 C63 1.496 . S
C701 C140 1.506 . S
C715 C147 1.495 . S
C719 C224 1.506 . S
C733 C231 1.491 . S
C737 C315 1.488 . S
C751 C67 1.505 . S
C755 C487 1.505 . S
C769 C74 1.495 . S
C773 C403 1.501 . S
C787 C410 1.490 . S
C791 C235 1.496 . S
C805 C494 1.492 . S
C809 C242 1.495 . S
C823 C560 1.502 . S
C827 C476 1.505 . S
C841 C392 1.504 . S
C845 C567 1.494 . S
C859 C644 1.502 . S
C863 C399 1.493 . S
C877 C483 1.497 . S
C881 C651 1.498 . S
C895 C319 1.502 . S
C899 C571 1.498 . S
C913 C578 1.502 . S
C917 C151 1.502 . S
C931 C158 1.494 . S
C935 C655 1.494 . S
C949 C326 1.495 . S
C953 C662 1.494 . S
C967 C58 1.337 1_565 S
C971 C69 1.337 1_545 S
C985 C153 1.331 . S
C989 C142 1.331 . S
C1003 C237 1.349 1_565 S
C1007 C226 1.349 1_545 S
C1021 C310 1.352 . S
C1025 C321 1.352 . S
C1039 C405 1.332 . S
C1043 C394 1.332 . S
C1057 C478 1.346 . S
C1061 C489 1.346 . S
C1075 C573 1.351 . S
C1079 C562 1.351 . S
C1093 C646 1.362 . S
C1097 C657 1.362 . S
