# Generated by pormake.
# Topology dft, (4)-cn, num edge types: 1
# Building blocks:
#     Node 0, Type 0, BuildingBlock: ICAMEG_clean_sbu_1, # of connection points: 4
#     Node 1, Type 0, BuildingBlock: ICAMEG_clean_sbu_1, # of connection points: 4
#     Node 2, Type 0, BuildingBlock: ICAMEG_clean_sbu_1, # of connection points: 4
#     Node 3, Type 0, BuildingBlock: ICAMEG_clean_sbu_1, # of connection points: 4
#     Node 4, Type 0, BuildingBlock: ICAMEG_clean_sbu_1, # of connection points: 4
#     Node 5, Type 0, BuildingBlock: ICAMEG_clean_sbu_1, # of connection points: 4
#     Node 6, Type 0, BuildingBlock: ICAMEG_clean_sbu_1, # of connection points: 4
#     Node 7, Type 0, BuildingBlock: ICAMEG_clean_sbu_1, # of connection points: 4
#     Edge 8, Type (0, 0), BuildingBlock: EZIPEK_clean_linker_0, # of connection points: 2
#     Edge 9, Type (0, 0), BuildingBlock: EZIPEK_clean_linker_0, # of connection points: 2
#     Edge 10, Type (0, 0), BuildingBlock: EZIPEK_clean_linker_0, # of connection points: 2
#     Edge 11, Type (0, 0), BuildingBlock: EZIPEK_clean_linker_0, # of connection points: 2
#     Edge 12, Type (0, 0), BuildingBlock: EZIPEK_clean_linker_0, # of connection points: 2
#     Edge 13, Type (0, 0), BuildingBlock: EZIPEK_clean_linker_0, # of connection points: 2
#     Edge 14, Type (0, 0), BuildingBlock: EZIPEK_clean_linker_0, # of connection points: 2
#     Edge 15, Type (0, 0), BuildingBlock: EZIPEK_clean_linker_0, # of connection points: 2
#     Edge 16, Type (0, 0), BuildingBlock: EZIPEK_clean_linker_0, # of connection points: 2
#     Edge 17, Type (0, 0), BuildingBlock: EZIPEK_clean_linker_0, # of connection points: 2
#     Edge 18, Type (0, 0), BuildingBlock: EZIPEK_clean_linker_0, # of connection points: 2
#     Edge 19, Type (0, 0), BuildingBlock: EZIPEK_clean_linker_0, # of connection points: 2
#     Edge 20, Type (0, 0), BuildingBlock: EZIPEK_clean_linker_0, # of connection points: 2
#     Edge 21, Type (0, 0), BuildingBlock: EZIPEK_clean_linker_0, # of connection points: 2
#     Edge 22, Type (0, 0), BuildingBlock: EZIPEK_clean_linker_0, # of connection points: 2
#     Edge 23, Type (0, 0), BuildingBlock: EZIPEK_clean_linker_0, # of connection points: 2
# Relax obj value: 0.222
# Max RMSD: 0.218
# Mean RMSD: 0.218
data_MOF--net-dft--node1-ICAMEG_clean_sbu_1--edge1-EZIPEK_clean_linker_0
_symmetry_space_group_name_H-M    P1
_symmetry_Int_Tables_number       1
_symmetry_cell_setting            triclinic
loop_
_symmetry_equiv_pos_as_xyz
'x, y, z'
_cell_length_a     25.332673
_cell_length_b     25.346456
_cell_length_c     35.475984
_cell_angle_alpha  90.130362
_cell_angle_beta   89.98077
_cell_angle_gamma 89.997931
loop_
_atom_site_label
_atom_site_type_symbol
_atom_site_fract_x
_atom_site_fract_y
_atom_site_fract_z
_atom_type_partial_charge
Co0 Co 0.28592 0.12751 0.15637 0.0
Co1 Co 0.36928 0.05773 0.21463 0.0
O2 O 0.35026 0.08672 0.1655 0.0
C3 C 0.31175 0.07309 0.08325 0.0
O4 O 0.35751 0.05798 0.09653 0.0
C5 C 0.48403 0.08717 0.21791 0.0
O6 O 0.47386 0.11968 0.24586 0.0
O7 O 0.36664 0.13122 0.23667 0.0
O8 O 0.29502 0.16311 0.20622 0.0
H9 H 0.35106 0.02916 0.35438 0.0
H10 H 0.39581 0.13802 0.12181 0.0
O11 O 0.27722 0.09461 0.10459 0.0
H12 H 0.31959 0.31614 0.11604 0.0
H13 H 0.14246 0.2145 0.07887 0.0
H14 H 0.19852 0.16218 0.20645 0.0
H15 H 0.27128 0.24536 0.1471 0.0
H16 H 0.22854 0.1726 0.08875 0.0
O17 O 0.44631 0.06428 0.20052 0.0
H18 H 0.32864 0.06796 0.29289 0.0
H19 H 0.45141 0.9812 0.2403 0.0
H20 H 0.11286 0.20661 0.19761 0.0
H21 H 0.4459 0.2086 0.09257 0.0
H22 H 0.08387 0.23201 0.13358 0.0
H23 H 0.40785 0.29857 0.08844 0.0
O24 O 0.24247 0.07027 0.18026 0.0
H25 H 0.41459 0.92128 0.1166 0.0
H26 H 0.32025 0.95462 0.23587 0.0
H27 H 0.3163 0.86632 0.20696 0.0
H28 H 0.3637 0.8491 0.14687 0.0
H29 H 0.41723 0.0092 0.14633 0.0
H30 H 0.4755 0.94138 0.30117 0.0
H31 H 0.42523 0.96532 0.35886 0.0
O32 O 0.29385 0.04854 0.22906 0.0
C33 C 0.33018 0.166 0.23206 0.0
C34 C 0.37364 0.01873 0.32956 0.0
C35 C 0.4434 0.96947 0.29969 0.0
N36 N 0.38943 0.02824 0.26316 0.0
C37 C 0.3612 0.04087 0.29467 0.0
C38 C 0.42979 0.99252 0.26531 0.0
C39 C 0.41517 0.98289 0.33203 0.0
C40 C 0.37758 0.17618 0.12037 0.0
N41 N 0.32769 0.18513 0.13406 0.0
C42 C 0.40687 0.21653 0.10365 0.0
C43 C 0.38558 0.26696 0.10134 0.0
C44 C 0.33596 0.2767 0.11655 0.0
C45 C 0.308 0.23554 0.13344 0.0
C46 C 0.15462 0.20335 0.10699 0.0
C47 C 0.18707 0.17437 0.17847 0.0
C48 C 0.20345 0.17912 0.11282 0.0
N49 N 0.21952 0.1652 0.14831 0.0
C50 C 0.13807 0.19881 0.17365 0.0
C51 C 0.12176 0.21314 0.13766 0.0
C52 C 0.24936 0.04855 0.21239 0.0
C53 C 0.39375 0.92829 0.14277 0.0
C54 C 0.34078 0.9477 0.2096 0.0
C55 C 0.33854 0.89746 0.19344 0.0
C56 C 0.36516 0.88782 0.15975 0.0
N57 N 0.36872 0.98734 0.1927 0.0
C58 C 0.39514 0.97803 0.15977 0.0
Co59 Co 0.03426 0.28116 0.63907 0.0
Co60 Co 0.06161 0.36488 0.71399 0.0
O61 O 0.05566 0.35063 0.65915 0.0
C62 C 0.1031 0.32611 0.5768 0.0
O63 O 0.11349 0.36926 0.5958 0.0
C64 C 0.01287 0.46299 0.68034 0.0
O65 O 0.98556 0.43705 0.655 0.0
O66 O 0.98816 0.33673 0.72325 0.0
O67 O 0.98752 0.27003 0.68205 0.0
H68 H 0.04612 0.31585 0.85074 0.0
H69 H 0.01867 0.38002 0.59236 0.0
O70 O 0.08002 0.288 0.59332 0.0
H71 H 0.84453 0.29489 0.59785 0.0
H72 H 0.97845 0.15228 0.5378 0.0
H73 H 0.01312 0.17602 0.67314 0.0
H74 H 0.92012 0.25599 0.63107 0.0
H75 H 1.00533 0.239 0.56285 0.0
O76 O 0.03517 0.43875 0.70732 0.0
H77 H 0.0423 0.30067 0.78225 0.0
H78 H 0.08919 0.45916 0.76215 0.0
H79 H 0.9864 0.08862 0.64949 0.0
H80 H 0.94503 0.41883 0.55766 0.0
H81 H 0.96927 0.07622 0.58117 0.0
H82 H 0.85669 0.37653 0.56027 0.0
O83 O 0.09359 0.24636 0.66792 0.0
H84 H 0.19892 0.46903 0.64368 0.0
H85 H 0.16341 0.36431 0.7577 0.0
H86 H 0.2515 0.4029 0.74839 0.0
H87 H 0.27001 0.45549 0.69089 0.0
H88 H 0.11138 0.43022 0.65434 0.0
H89 H 0.09226 0.47624 0.83038 0.0
H90 H 0.07116 0.40422 0.87529 0.0
O91 O 0.09301 0.29248 0.72222 0.0
C92 C 0.96842 0.29413 0.71013 0.0
C93 C 0.05566 0.3475 0.83146 0.0
C94 C 0.08137 0.43753 0.82003 0.0
N95 N 0.06599 0.37865 0.76797 0.0
C96 C 0.05386 0.33904 0.79258 0.0
C97 C 0.07916 0.42764 0.78132 0.0
C98 C 0.0696 0.3971 0.84521 0.0
C99 C 0.98154 0.35984 0.59269 0.0
N100 N 0.97513 0.3142 0.61262 0.0
C101 C 0.93935 0.38272 0.57339 0.0
C102 C 0.88979 0.35914 0.575 0.0
C103 C 0.88296 0.31339 0.59608 0.0
C104 C 0.92613 0.29156 0.61489 0.0
C105 C 0.9868 0.15701 0.56751 0.0
C106 C 1.00603 0.17099 0.64352 0.0
C107 C 1.00262 0.20592 0.58185 0.0
N108 N 0.01277 0.21237 0.61946 0.0
C109 C 0.99079 0.12137 0.63022 0.0
C110 C 0.98129 0.11439 0.59189 0.0
C111 C 0.10728 0.25234 0.70256 0.0
C112 C 0.19166 0.44558 0.66861 0.0
C113 C 0.171 0.38667 0.73242 0.0
C114 C 0.22107 0.40865 0.72738 0.0
C115 C 0.23144 0.43813 0.69514 0.0
N116 N 0.13235 0.39315 0.70597 0.0
C117 C 0.14213 0.42294 0.67464 0.0
Co118 Co 0.88958 0.04342 0.14443 0.0
Co119 Co 0.80781 0.0562 0.22167 0.0
O120 O 0.82027 0.06118 0.16685 0.0
C121 C 0.83283 0.10703 0.0874 0.0
O122 O 0.79091 0.11379 0.1085 0.0
C123 C 0.70147 0.03155 0.18456 0.0
O124 O 0.72173 0.03989 0.15114 0.0
O125 O 0.83052 0.98111 0.21927 0.0
O126 O 0.9028 0.98612 0.18339 0.0
H127 H 0.85486 0.99346 0.35157 0.0
H128 H 0.79863 0.96819 0.15116 0.0
O129 O 0.8773 0.09568 0.10241 0.0
H130 H 0.87122 0.9382 0.02417 0.0
H131 H 0.06557 0.10227 0.09511 0.0
H132 H 0.95834 0.94824 0.12914 0.0
H133 H 0.90866 1.00692 0.06516 0.0
H134 H 0.97351 0.11319 0.11605 0.0
O135 O 0.73161 0.03416 0.21343 0.0
H136 H 0.87096 0.01213 0.28433 0.0
H137 H 0.7181 0.07973 0.2745 0.0
H138 H 0.05039 0.93488 0.10938 0.0
H139 H 0.75911 0.90038 0.11064 0.0
H140 H 0.10493 0.0126 0.09203 0.0
H141 H 0.79593 0.88413 0.04679 0.0
O142 O 0.92221 0.09791 0.17769 0.0
H143 H 0.71344 0.22 0.17675 0.0
H144 H 0.8235 0.14355 0.27719 0.0
H145 H 0.79096 0.23449 0.28376 0.0
H146 H 0.73569 0.27358 0.23323 0.0
H147 H 0.74527 0.12895 0.17191 0.0
H148 H 0.70098 0.06277 0.34171 0.0
H149 H 0.76975 0.01945 0.3808 0.0
O150 O 0.88252 0.08089 0.23294 0.0
C151 C 0.87235 0.96053 0.20582 0.0
C152 C 0.82505 0.01322 0.33498 0.0
C153 C 0.73847 0.05166 0.32938 0.0
N154 N 0.79575 0.04732 0.27546 0.0
C155 C 0.8339 0.0239 0.29689 0.0
C156 C 0.74839 0.06104 0.29126 0.0
C157 C 0.77708 0.02744 0.3513 0.0
C158 C 0.81522 0.96173 0.12362 0.0
N159 N 0.8578 0.99026 0.11156 0.0
C160 C 0.79251 0.92304 0.10068 0.0
C161 C 0.81318 0.91391 0.06489 0.0
C162 C 0.85556 0.94407 0.05226 0.0
C163 C 0.87699 0.98267 0.07587 0.0
C164 C 0.04225 0.06803 0.10249 0.0
C165 C 0.98162 0.98176 0.12219 0.0
C166 C 0.98988 0.07389 0.11418 0.0
N167 N 0.96011 0.031 0.12399 0.0
C168 C 0.03381 0.97421 0.11062 0.0
C169 C 0.06434 0.01777 0.10084 0.0
C170 C 0.91931 0.10229 0.21341 0.0
C171 C 0.73719 0.20333 0.19911 0.0
C172 C 0.79844 0.15955 0.25538 0.0
C173 C 0.78043 0.21138 0.2592 0.0
C174 C 0.74962 0.23335 0.2308 0.0
N175 N 0.78531 0.12979 0.22451 0.0
C176 C 0.75544 0.15144 0.19648 0.0
Co177 Co 0.11207 0.87474 0.65719 0.0
Co178 Co 0.04516 0.78693 0.71418 0.0
O179 O 0.07358 0.80777 0.6645 0.0
C180 C 0.04623 0.86283 0.58609 0.0
O181 O 1.00703 0.83897 0.60318 0.0
C182 C 0.07863 0.68244 0.67751 0.0
O183 O 0.09553 0.7066 0.64721 0.0
O184 O 0.11761 0.79371 0.73702 0.0
O185 O 0.14536 0.86753 0.7079 0.0
H186 H 1.00697 0.81067 0.8528 0.0
H187 H 0.12196 0.78612 0.60288 0.0
O188 O 0.08406 0.88263 0.60475 0.0
H189 H 0.30459 0.83354 0.63619 0.0
H190 H 0.2087 0.01229 0.5813 0.0
H191 H 0.14035 0.96521 0.70694 0.0
H192 H 0.2295 0.8802 0.66532 0.0
H193 H 0.16581 0.92668 0.59165 0.0
O194 O 0.05848 0.70976 0.70405 0.0
H195 H 0.04225 0.83614 0.79102 0.0
H196 H 0.98067 0.69607 0.74207 0.0
H197 H 0.18775 0.04934 0.69813 0.0
H198 H 0.19563 0.73773 0.57362 0.0
H199 H 0.21876 0.07487 0.63468 0.0
H200 H 0.28793 0.76152 0.59013 0.0
O201 O 0.05087 0.91555 0.67944 0.0
H202 H 0.91242 0.73239 0.6156 0.0
H203 H 0.9383 0.82515 0.73642 0.0
H204 H 0.84944 0.82063 0.70871 0.0
H205 H 0.83586 0.77377 0.64792 0.0
H206 H 1.00071 0.73874 0.64388 0.0
H207 H 0.94524 0.6688 0.80347 0.0
H208 H 0.95831 0.72615 0.85955 0.0
O209 O 0.02988 0.86185 0.72721 0.0
C210 C 0.15099 0.83117 0.73242 0.0
C211 C 1.00187 0.7848 0.82876 0.0
C212 C 0.96727 0.70523 0.8011 0.0
N213 N 0.01652 0.76638 0.76308 0.0
C214 C 0.02236 0.79879 0.79363 0.0
C215 C 0.98823 0.72061 0.7664 0.0
C216 C 0.97447 0.73747 0.83251 0.0
C217 C 0.16182 0.7964 0.61048 0.0
N218 N 0.17118 0.83583 0.63591 0.0
C219 C 0.20348 0.76893 0.59373 0.0
C220 C 0.25521 0.78231 0.60299 0.0
C221 C 0.26457 0.82269 0.62883 0.0
C222 C 0.22185 0.84896 0.64527 0.0
C223 C 0.19398 1.00216 0.609 0.0
C224 C 0.15565 0.97501 0.67944 0.0
C225 C 0.16895 0.95387 0.61503 0.0
N226 N 0.14942 0.94104 0.64984 0.0
C227 C 0.18187 0.02299 0.6746 0.0
C228 C 0.20004 0.03705 0.639 0.0
C229 C 0.02692 0.90597 0.71052 0.0
C230 C 0.91773 0.75258 0.64225 0.0
C231 C 0.93298 0.80463 0.70996 0.0
C232 C 0.88241 0.8022 0.69442 0.0
C233 C 0.87482 0.77591 0.66034 0.0
N234 N 0.97499 0.78149 0.69215 0.0
C235 C 0.96776 0.75589 0.65863 0.0
Co236 Co 0.23351 0.01875 0.85607 0.0
Co237 Co 0.3289 0.06801 0.78498 0.0
O238 O 0.30789 0.03522 0.83582 0.0
C239 C 0.3066 0.04337 0.92171 0.0
O240 O 0.34639 0.0169 0.90777 0.0
C241 C 0.43484 0.03042 0.81701 0.0
O242 O 0.41138 0.01088 0.84672 0.0
O243 O 0.31728 0.99721 0.76053 0.0
O244 O 0.29026 1.00689 0.81694 0.0
H245 H 0.30759 0.0941 0.64536 0.0
H246 H 0.33431 0.95006 0.8609 0.0
O247 O 0.26632 0.0546 0.90155 0.0
H248 H 0.19127 0.83603 0.90594 0.0
H249 H 0.12468 1.00324 0.97543 0.0
H250 H 0.12067 0.04408 0.8398 0.0
H251 H 0.17169 0.92475 0.88456 0.0
H252 H 0.20579 0.99978 0.93785 0.0
O253 O 0.40668 0.05214 0.79166 0.0
H254 H 0.28298 0.06068 0.70847 0.0
H255 H 0.41607 0.13727 0.7564 0.0
H256 H 0.03757 0.04272 0.87602 0.0
H257 H 0.35454 0.86123 0.88093 0.0
H258 H 0.03931 0.02362 0.94433 0.0
H259 H 0.28333 0.80293 0.90455 0.0
O260 O 0.21195 0.08934 0.83268 0.0
H261 H 0.39109 0.18802 0.88905 0.0
H262 H 0.30391 0.18016 0.76498 0.0
H263 H 0.32188 0.26664 0.79419 0.0
H264 H 0.36537 0.27099 0.8568 0.0
H265 H 0.37434 0.10274 0.85827 0.0
H266 H 0.44172 0.17142 0.69415 0.0
H267 H 0.38703 0.15005 0.63806 0.0
O268 O 0.25254 0.087 0.77582 0.0
C269 C 0.29017 0.97673 0.78627 0.0
C270 C 0.33117 0.10404 0.66972 0.0
C271 C 0.4067 0.14728 0.697 0.0
N272 N 0.34768 0.09726 0.73614 0.0
C273 C 0.31746 0.08532 0.70544 0.0
C274 C 0.39201 0.12763 0.73219 0.0
C275 C 0.37601 0.13532 0.66557 0.0
C276 C 0.30242 0.92733 0.87224 0.0
N277 N 0.25212 0.94731 0.87529 0.0
C278 C 0.31447 0.87577 0.88311 0.0
C279 C 0.2746 0.84304 0.89621 0.0
C280 C 0.22314 0.86175 0.89729 0.0
C281 C 0.21255 0.91343 0.88601 0.0
C282 C 0.12335 0.0118 0.94556 0.0
C283 C 0.12175 0.0338 0.86923 0.0
C284 C 0.1695 0.01068 0.92405 0.0
N285 N 0.16834 0.02026 0.886 0.0
C286 C 0.07461 0.03408 0.88973 0.0
C287 C 0.07553 0.02318 0.92814 0.0
C288 C 0.21527 0.10254 0.7976 0.0
C289 C 0.37243 0.1867 0.86162 0.0
C290 C 0.32378 0.18163 0.79192 0.0
C291 C 0.3336 0.23078 0.8084 0.0
C292 C 0.35796 0.23321 0.84354 0.0
N293 N 0.33937 0.13615 0.80934 0.0
C294 C 0.36283 0.13834 0.84398 0.0
Co295 Co 0.11614 0.27174 0.36779 0.0
Co296 Co 0.09991 0.35319 0.29127 0.0
O297 O 0.09464 0.33978 0.34577 0.0
C298 C 0.03834 0.31747 0.42203 0.0
O299 O 0.02906 0.35879 0.40096 0.0
C300 C 0.13461 0.45864 0.32596 0.0
O301 O 0.16939 0.4366 0.34836 0.0
O302 O 0.17724 0.33839 0.29455 0.0
O303 O 0.177 0.26584 0.3307 0.0
H304 H 0.16621 0.31546 0.16047 0.0
H305 H 0.12301 0.37985 0.40288 0.0
O306 O 0.05835 0.27638 0.40673 0.0
H307 H 0.27362 0.2833 0.45589 0.0
H308 H 0.13242 0.13212 0.4689 0.0
H309 H 0.14471 0.1697 0.33312 0.0
H310 H 0.21729 0.24161 0.40853 0.0
H311 H 0.1241 0.22308 0.44525 0.0
O312 O 0.10965 0.43109 0.30174 0.0
H313 H 0.15135 0.29701 0.22785 0.0
H314 H 0.06673 0.44084 0.2397 0.0
H315 H 0.15017 0.07781 0.35523 0.0
H316 H 0.17925 0.42327 0.44925 0.0
H317 H 0.14538 0.05856 0.42358 0.0
H318 H 0.25507 0.37492 0.47688 0.0
O319 O 0.06611 0.23597 0.33261 0.0
H320 H 0.92912 0.43386 0.33466 0.0
H321 H 0.01425 0.32445 0.23693 0.0
H322 H 0.91978 0.34629 0.23116 0.0
H323 H 0.8764 0.40079 0.2805 0.0
H324 H 0.02399 0.41294 0.33848 0.0
H325 H 0.08033 0.46048 0.17245 0.0
H326 H 0.13023 0.39744 0.13227 0.0
O327 O 0.08501 0.27649 0.27829 0.0
C328 C 0.2003 0.29757 0.30782 0.0
C329 C 0.14387 0.34289 0.1776 0.0
C330 C 0.096 0.42447 0.18437 0.0
N331 N 0.1081 0.36765 0.23779 0.0
C332 C 0.13529 0.33266 0.21578 0.0
C333 C 0.0886 0.41318 0.22253 0.0
C334 C 0.12392 0.38906 0.16183 0.0
C335 C 0.15546 0.35794 0.41417 0.0
N336 N 0.16465 0.30697 0.40322 0.0
C337 C 0.18752 0.38309 0.44071 0.0
C338 C 0.22996 0.356 0.4562 0.0
C339 C 0.2402 0.30461 0.44456 0.0
C340 C 0.20731 0.28087 0.41784 0.0
C341 C 0.13488 0.14001 0.439 0.0
C342 C 0.14218 0.16177 0.36286 0.0
C343 C 0.12973 0.19146 0.42544 0.0
N344 N 0.13328 0.20201 0.38772 0.0
C345 C 0.14581 0.10963 0.37525 0.0
C346 C 0.14241 0.09878 0.4136 0.0
C347 C 0.06335 0.23906 0.29686 0.0
C348 C 0.94747 0.40978 0.31309 0.0
C349 C 0.99584 0.34862 0.25836 0.0
C350 C 0.94227 0.3608 0.25495 0.0
C351 C 0.91795 0.39133 0.28266 0.0
N352 N 0.02461 0.36702 0.28824 0.0
C353 C 1.00111 0.39742 0.3153 0.0
Co354 Co 0.8529 0.10557 0.84498 0.0
Co355 Co 0.75255 0.06107 0.7888 0.0
O356 O 0.77771 0.08643 0.83858 0.0
C357 C 0.81259 0.08488 0.92431 0.0
O358 O 0.7644 0.07898 0.91167 0.0
C359 C 0.65303 0.10151 0.82666 0.0
O360 O 0.67679 0.12016 0.85666 0.0
O361 O 0.77755 0.12997 0.7663 0.0
O362 O 0.85749 0.12372 0.79153 0.0
H363 H 0.77424 0.03209 0.64941 0.0
H364 H 0.76097 0.16263 0.88166 0.0
O365 O 0.85135 0.08972 0.90138 0.0
H366 H 0.87743 0.30234 0.83383 0.0
H367 H 0.01505 0.18245 0.90809 0.0
H368 H 0.94765 0.08773 0.79675 0.0
H369 H 0.90058 0.20943 0.82464 0.0
H370 H 0.92163 0.15775 0.90387 0.0
O371 O 0.67954 0.09063 0.79709 0.0
H372 H 0.80251 0.05643 0.71343 0.0
H373 H 0.64975 0.02115 0.7559 0.0
H374 H 0.04162 0.11109 0.80011 0.0
H375 H 0.73603 0.25486 0.89089 0.0
H376 H 0.07579 0.16039 0.85537 0.0
H377 H 0.79465 0.32599 0.86731 0.0
O378 O 0.8724 0.03128 0.83067 0.0
H379 H 0.68543 0.94641 0.89481 0.0
H380 H 0.73552 0.94791 0.761 0.0
H381 H 0.70758 0.86543 0.78983 0.0
H382 H 0.68187 0.8637 0.85732 0.0
H383 H 0.71433 0.02806 0.86505 0.0
H384 H 0.61942 0.99833 0.69218 0.0
H385 H 0.68193 1.00293 0.63834 0.0
O386 O 0.82368 0.02701 0.7783 0.0
C387 C 0.82509 0.14628 0.76972 0.0
C388 C 0.74668 0.02963 0.67266 0.0
C389 C 0.65978 0.01089 0.69663 0.0
N390 N 0.72842 0.03973 0.73877 0.0
C391 C 0.76265 0.04305 0.70911 0.0
C392 C 0.6772 0.02448 0.73271 0.0
C393 C 0.69487 0.01339 0.66646 0.0
C394 C 0.78744 0.19246 0.87185 0.0
N395 N 0.83411 0.17942 0.85484 0.0
C396 C 0.77282 0.24514 0.87698 0.0
C397 C 0.80563 0.28502 0.86372 0.0
C398 C 0.85217 0.27179 0.84517 0.0
C399 C 0.86549 0.21871 0.84061 0.0
C400 C 1.00052 0.16164 0.88352 0.0
C401 C 0.9619 0.10843 0.8213 0.0
C402 C 0.94742 0.14706 0.88115 0.0
N403 N 0.92821 0.12172 0.84995 0.0
C404 C 0.01532 0.12198 0.82283 0.0
C405 C 0.03452 0.14947 0.85392 0.0
C406 C 0.86364 0.01174 0.79772 0.0
C407 C 0.69701 0.9464 0.86544 0.0
C408 C 0.72608 0.94845 0.79048 0.0
C409 C 0.70948 0.90106 0.80665 0.0
C410 C 0.69496 0.90009 0.84444 0.0
N411 N 0.72858 0.99412 0.81117 0.0
C412 C 0.7139 0.99297 0.84828 0.0
Co413 Co 0.03743 0.87576 0.35456 0.0
Co414 Co 0.10901 0.78883 0.29859 0.0
O415 O 0.07773 0.80907 0.348 0.0
C416 C 0.0993 0.86311 0.42687 0.0
O417 O 0.13772 0.83687 0.41062 0.0
C418 C 0.0764 0.68207 0.33306 0.0
O419 O 0.05638 0.70533 0.36279 0.0
O420 O 0.03723 0.79286 0.27483 0.0
O421 O 1.00497 0.86546 0.30374 0.0
H422 H 0.14539 0.81068 0.15982 0.0
H423 H 0.02877 0.78417 0.40609 0.0
O424 O 0.06442 0.88623 0.40721 0.0
H425 H 0.84553 0.83948 0.38264 0.0
H426 H 0.94112 0.02016 0.42524 0.0
H427 H 0.01313 0.96361 0.30254 0.0
H428 H 0.91934 0.88441 0.35099 0.0
H429 H 0.98139 0.93234 0.41808 0.0
O430 O 0.0986 0.71056 0.30804 0.0
H431 H 0.10618 0.83401 0.22101 0.0
H432 H 0.18067 0.70241 0.27225 0.0
H433 H 0.97214 0.05129 0.30845 0.0
H434 H 0.95626 0.73694 0.43737 0.0
H435 H 0.93652 0.08048 0.37026 0.0
H436 H 0.86361 0.7648 0.42597 0.0
O437 O 0.09685 0.91744 0.3324 0.0
H438 H 0.24051 0.73676 0.39823 0.0
H439 H 0.21459 0.83304 0.2791 0.0
H440 H 0.30264 0.83146 0.30839 0.0
H441 H 0.31621 0.7828 0.36831 0.0
H442 H 0.15292 0.74025 0.36838 0.0
H443 H 0.21983 0.67697 0.21142 0.0
H444 H 0.20249 0.73132 0.15458 0.0
O445 O 0.12141 0.86453 0.28519 0.0
C446 C 1.0027 0.8295 0.27845 0.0
C447 C 0.153 0.78642 0.1843 0.0
C448 C 0.19465 0.71138 0.21323 0.0
N449 N 0.13982 0.76913 0.25021 0.0
C450 C 0.1308 0.7995 0.21913 0.0
C451 C 0.17184 0.72577 0.2476 0.0
C452 C 0.18501 0.74193 0.18138 0.0
C453 C 0.98879 0.79598 0.40042 0.0
N454 N 0.97871 0.83689 0.37649 0.0
C455 C 0.94775 0.76927 0.41843 0.0
C456 C 0.89584 0.78497 0.41209 0.0
C457 C 0.8857 0.82689 0.38784 0.0
C458 C 0.92781 0.85231 0.37005 0.0
C459 C 0.95677 1.00797 0.39819 0.0
C460 C 0.99684 0.97542 0.32942 0.0
C461 C 0.97983 0.95823 0.39394 0.0
N462 N 0.99973 0.94247 0.35985 0.0
C463 C 0.97407 0.02541 0.33264 0.0
C464 C 0.95422 0.04182 0.36735 0.0
C465 C 0.11989 0.90962 0.30093 0.0
C466 C 0.23519 0.75784 0.372 0.0
C467 C 0.21993 0.81197 0.30527 0.0
C468 C 0.27002 0.81111 0.32167 0.0
C469 C 0.27761 0.78378 0.35526 0.0
N470 N 0.17846 0.78627 0.32179 0.0
C471 C 0.18563 0.7596 0.35479 0.0
C472 C 0.30452 0.11125 0.01782 0.0
C473 C 0.30186 0.06684 0.04227 0.0
C474 C 0.3013 1.00743 0.98783 0.0
C475 C 0.30371 0.05183 0.96319 0.0
N476 N 0.29824 0.14587 0.95419 0.0
N477 N 0.28623 0.9743 0.05117 0.0
C478 C 0.30199 0.10372 0.97806 0.0
C479 C 0.29689 0.01539 0.02738 0.0
N480 N 0.31234 0.16046 0.0325 0.0
N481 N 0.30343 0.95742 0.97351 0.0
H482 H 0.28238 0.97912 0.08028 0.0
H483 H 0.27645 0.93647 0.04212 0.0
H484 H 0.30135 0.94928 0.94492 0.0
H485 H 0.30955 0.92389 0.98981 0.0
H486 H 0.32193 0.19343 0.01646 0.0
H487 H 0.31206 0.16794 0.06125 0.0
H488 H 0.29031 0.18418 0.96316 0.0
H489 H 0.29973 0.14225 0.92493 0.0
C490 C 0.08917 0.37353 0.51432 0.0
C491 C 0.09836 0.32609 0.53452 0.0
C492 C 0.0533 0.27619 0.4849 0.0
C493 C 0.04495 0.32289 0.46405 0.0
N494 N 0.03558 0.41769 0.46752 0.0
N495 N 0.10869 0.23198 0.53036 0.0
C496 C 0.05737 0.3723 0.48109 0.0
C497 C 0.08653 0.27729 0.51692 0.0
N498 N 0.11391 0.41896 0.52507 0.0
N499 N 0.02777 0.23096 0.47463 0.0
H500 H 0.13633 0.23246 0.5522 0.0
H501 H 0.10407 0.19539 0.51737 0.0
H502 H 1.00019 0.23028 0.45276 0.0
H503 H 0.03004 0.19609 0.49 0.0
H504 H 0.11194 0.45385 0.50967 0.0
H505 H 0.14313 0.41953 0.54572 0.0
H506 H 0.04039 0.4543 0.48045 0.0
H507 H 1.00582 0.41763 0.44728 0.0
C508 C 0.84595 0.13472 0.98197 0.0
C509 C 0.82066 0.08971 0.96599 0.0
C510 C 0.79476 0.06216 0.0296 0.0
C511 C 0.82687 0.10267 0.04564 0.0
N512 N 0.88921 0.17342 0.03623 0.0
N513 N 0.78014 1.00486 0.97588 0.0
C514 C 0.85499 0.13716 0.02152 0.0
C515 C 0.79759 0.05184 0.99022 0.0
N516 N 0.85694 0.17752 0.96015 0.0
N517 N 0.76128 0.03328 0.05157 0.0
H518 H 0.78334 0.99495 0.94741 0.0
H519 H 0.76779 0.97359 0.99273 0.0
H520 H 0.75923 0.03662 0.0807 0.0
H521 H 0.73268 1.00816 0.04041 0.0
H522 H 0.87059 0.21324 0.97098 0.0
H523 H 0.84627 0.17951 0.93198 0.0
H524 H 0.91507 0.19526 0.01955 0.0
H525 H 0.89422 0.17926 0.06512 0.0
C526 C 0.08245 0.91019 0.48799 0.0
C527 C 0.09032 0.86172 0.46857 0.0
C528 C 0.06163 0.81285 0.52526 0.0
C529 C 0.05299 0.86165 0.54427 0.0
N530 N 0.04573 0.95617 0.54217 0.0
N531 N 0.09246 0.76629 0.46941 0.0
C532 C 0.0609 0.91013 0.52512 0.0
C533 C 0.08122 0.81282 0.48738 0.0
N534 N 0.0982 0.95628 0.47141 0.0
N535 N 0.05021 0.76646 0.54323 0.0
H536 H 0.10472 0.76363 0.44153 0.0
H537 H 0.09257 0.72951 0.48226 0.0
H538 H 0.03814 0.76422 0.5712 0.0
H539 H 0.04965 0.72963 0.53035 0.0
H540 H 0.09866 0.99265 0.48506 0.0
H541 H 0.11576 0.95758 0.44481 0.0
H542 H 0.04526 0.99265 0.52878 0.0
H543 H 0.02872 0.95728 0.56896 0.0
C544 C 0.57152 0.04634 0.23726 0.0
C545 C 0.53951 0.07061 0.2091 0.0
C546 C 0.60732 0.04951 0.16153 0.0
C547 C 0.64224 0.03267 0.19049 0.0
N548 N 0.64655 0.98988 0.25075 0.0
N549 N 0.52975 0.10046 0.14497 0.0
C550 C 0.62126 0.02402 0.22706 0.0
C551 C 0.55806 0.07317 0.17132 0.0
N552 N 0.55505 0.04488 0.27394 0.0
N553 N 0.61864 0.0383 0.12473 0.0
H554 H 0.49421 0.11942 0.15109 0.0
H555 H 0.54405 0.10882 0.11811 0.0
H556 H 0.64938 0.01322 0.11697 0.0
H557 H 0.5929 0.04615 0.10256 0.0
H558 H 0.57967 0.03466 0.29625 0.0
H559 H 0.5179 0.05706 0.28285 0.0
H560 H 0.63151 0.97779 0.27663 0.0
H561 H 0.67923 0.96783 0.24217 0.0
C562 C 0.05193 0.54052 0.64421 0.0
C563 C 0.02537 0.52048 0.67671 0.0
C564 C 0.05137 0.59962 0.71199 0.0
C565 C 0.07119 0.62319 0.67859 0.0
N566 N 0.11334 0.60511 0.61906 0.0
N567 N 0.99135 0.53631 0.73917 0.0
C568 C 0.07753 0.59091 0.64602 0.0
C569 C 0.02264 0.55177 0.70982 0.0
N570 N 0.05339 0.51157 0.61167 0.0
N571 N 0.06472 0.62006 0.74635 0.0
H572 H 0.96818 0.50228 0.73817 0.0
H573 H 0.98404 0.56019 0.76257 0.0
H574 H 0.09205 0.6506 0.74928 0.0
H575 H 0.05504 0.60193 0.77177 0.0
H576 H 0.06531 0.52681 0.58581 0.0
H577 H 0.03947 0.47317 0.60939 0.0
H578 H 0.12295 0.58204 0.59577 0.0
H579 H 0.14005 0.63587 0.62293 0.0
C580 C 0.57445 0.05204 0.85499 0.0
C581 C 0.59563 0.08632 0.82679 0.0
C582 C 0.51805 0.06805 0.78708 0.0
C583 C 0.49401 0.0394 0.81682 0.0
N584 N 0.51241 0.98187 0.86897 0.0
N585 N 0.58118 0.13499 0.76937 0.0
C586 C 0.52564 0.02529 0.84824 0.0
C587 C 0.56549 0.09647 0.79381 0.0
N588 N 0.59995 0.04504 0.88855 0.0
N589 N 0.49893 0.06339 0.75125 0.0
H590 H 0.6143 0.15854 0.7742 0.0
H591 H 0.55804 0.14751 0.7468 0.0
H592 H 0.46933 0.03649 0.74426 0.0
H593 H 0.51755 0.07979 0.72785 0.0
H594 H 0.58267 0.02633 0.91156 0.0
H595 H 0.63617 0.06158 0.8953 0.0
H596 H 0.53617 0.96611 0.89007 0.0
H597 H 0.48212 0.95635 0.86098 0.0
C598 C 0.12383 0.5482 0.29629 0.0
C599 C 0.12089 0.51621 0.32901 0.0
C600 C 0.07428 0.58864 0.3621 0.0
C601 C 0.08203 0.62231 0.3304 0.0
N602 N 0.08833 0.62293 0.26254 0.0
N603 N 0.09597 0.50713 0.39437 0.0
C604 C 0.09969 0.59899 0.29606 0.0
C605 C 0.09717 0.53692 0.36235 0.0
N606 N 0.15161 0.53085 0.26563 0.0
N607 N 0.03972 0.60306 0.38987 0.0
H608 H 0.10809 0.46801 0.39523 0.0
H609 H 0.08644 0.5222 0.42084 0.0
H610 H 0.01393 0.63475 0.38719 0.0
H611 H 0.02954 0.5791 0.41251 0.0
H612 H 0.1602 0.5547 0.24254 0.0
H613 H 0.17084 0.49445 0.2649 0.0
H614 H 0.09615 0.60591 0.23638 0.0
H615 H 0.06388 0.65593 0.26075 0.0
C616 C 0.28468 0.24584 0.31495 0.0
C617 C 0.25432 0.28175 0.29339 0.0
C618 C 0.31241 0.26163 0.24019 0.0
C619 C 0.32485 0.21291 0.2573 0.0
N620 N 0.34057 0.16826 0.3158 0.0
N621 N 0.25636 0.33892 0.23859 0.0
C622 C 0.31669 0.2078 0.29641 0.0
C623 C 0.27374 0.29507 0.25697 0.0
N624 N 0.28741 0.2529 0.35281 0.0
N625 N 0.34005 0.27635 0.20904 0.0
H626 H 0.23705 0.36978 0.25219 0.0
H627 H 0.26303 0.3454 0.20999 0.0
H628 H 0.37015 0.25246 0.19828 0.0
H629 H 0.33702 0.31343 0.19665 0.0
H630 H 0.31073 0.23013 0.37067 0.0
H631 H 0.27276 0.2877 0.36446 0.0
H632 H 0.33065 0.15845 0.34342 0.0
H633 H 0.37161 0.14689 0.30406 0.0
C634 C 0.94166 0.20911 0.73534 0.0
C635 C 0.92834 0.26275 0.73075 0.0
C636 C 0.83629 0.23963 0.74526 0.0
C637 C 0.85022 0.18521 0.74421 0.0
N638 N 0.91339 0.12011 0.72357 0.0
N639 N 0.8603 0.32883 0.72615 0.0
C640 C 0.90181 0.17103 0.73302 0.0
C641 C 0.87465 0.27825 0.73408 0.0
N642 N 0.99264 0.19474 0.74209 0.0
N643 N 0.78791 0.25447 0.75832 0.0
H644 H 0.88793 0.35766 0.71903 0.0
H645 H 0.82104 0.34097 0.72482 0.0
H646 H 0.75896 0.22703 0.76553 0.0
H647 H 0.77784 0.29369 0.76351 0.0
H648 H 1.00414 0.15575 0.74635 0.0
H649 H 0.0221 0.22269 0.74664 0.0
H650 H 0.95056 0.1084 0.71409 0.0
H651 H 0.88434 0.09103 0.72237 0.0
C652 C 0.96311 0.84455 0.21404 0.0
C653 C 0.95674 0.83356 0.2526 0.0
C654 C 0.87453 0.88378 0.25393 0.0
C655 C 0.88892 0.90609 0.21848 0.0
N656 N 0.91777 0.87412 0.15822 0.0
N657 N 0.89058 0.81153 0.2975 0.0
C658 C 0.92492 0.87672 0.19609 0.0
C659 C 0.90713 0.84337 0.26905 0.0
N660 N 1.00427 0.82363 0.19454 0.0
N661 N 0.83083 0.90005 0.27314 0.0
H662 H 0.91451 0.78095 0.30742 0.0
H663 H 0.85235 0.81242 0.30834 0.0
H664 H 0.79999 0.9207 0.2607 0.0
H665 H 0.82443 0.89068 0.30138 0.0
H666 H 0.01433 0.83574 0.1674 0.0
H667 H 0.02674 0.79305 0.20575 0.0
H668 H 0.93962 0.84932 0.14066 0.0
H669 H 0.88618 0.89314 0.14539 0.0
C670 C 0.1805 0.87231 0.79034 0.0
C671 C 0.19421 0.84037 0.75993 0.0
C672 C 0.28097 0.88376 0.7594 0.0
C673 C 0.25896 0.92671 0.78029 0.0
N674 N 0.1806 0.96249 0.80884 0.0
N675 N 0.26272 0.80551 0.7211 0.0
C676 C 0.20712 0.92076 0.79475 0.0
C677 C 0.24669 0.84251 0.74653 0.0
N678 N 0.13994 0.85765 0.81306 0.0
N679 N 0.33395 0.88206 0.75246 0.0
H680 H 0.23773 0.77467 0.71302 0.0
H681 H 0.29921 0.8062 0.70763 0.0
H682 H 0.36008 0.91006 0.76327 0.0
H683 H 0.3526 0.85044 0.73926 0.0
H684 H 0.12713 0.87986 0.83605 0.0
H685 H 0.12464 0.81954 0.8111 0.0
H686 H 0.14217 0.95914 0.81859 0.0
H687 H 0.19494 1.00039 0.806 0.0
C688 C 0.8958 0.96025 0.73979 0.0
C689 C 0.90604 0.97973 0.77697 0.0
C690 C 1.00031 0.96045 0.76625 0.0
C691 C 0.98988 0.94437 0.72869 0.0
N692 N 0.92857 0.93886 0.67732 0.0
N693 N 0.96658 0.97322 0.82936 0.0
C694 C 0.93797 0.9482 0.71464 0.0
C695 C 0.9581 0.97356 0.79134 0.0
N696 N 0.84591 0.94522 0.7306 0.0
N697 N 0.05133 0.96418 0.77789 0.0
H698 H 0.93604 0.9732 0.84897 0.0
H699 H 1.00279 0.96365 0.84143 0.0
H700 H 0.08297 0.95394 0.7605 0.0
H701 H 0.06156 0.98361 0.80268 0.0
H702 H 0.83548 0.92752 0.70515 0.0
H703 H 0.81764 0.94129 0.75147 0.0
H704 H 0.89225 0.94611 0.66456 0.0
H705 H 0.95852 0.92903 0.65839 0.0
C706 C 0.20405 0.02942 0.2735 0.0
C707 C 0.20473 0.02337 0.23362 0.0
C708 C 0.13302 0.95916 0.24024 0.0
C709 C 0.14374 0.95457 0.2795 0.0
N710 N 0.19519 0.98402 0.33299 0.0
N711 N 0.16961 0.97791 0.17884 0.0
C712 C 0.18036 0.98983 0.29625 0.0
C713 C 0.16856 0.98759 0.21671 0.0
N714 N 0.22573 0.0734 0.28948 0.0
N715 N 0.08814 0.93752 0.22557 0.0
H716 H 0.19536 0.99645 0.16028 0.0
H717 H 0.14747 0.94794 0.16633 0.0
H718 H 0.06004 0.91884 0.24241 0.0
H719 H 0.07618 0.94355 0.19779 0.0
H720 H 0.2256 0.08071 0.31836 0.0
H721 H 0.23943 0.1049 0.27326 0.0
H722 H 0.22591 1.00567 0.34499 0.0
H723 H 0.18023 0.95469 0.35052 0.0
C724 C 0.17543 0.22747 0.75102 0.0
C725 C 0.13893 0.21053 0.72329 0.0
C726 C 0.14237 0.12167 0.75136 0.0
C727 C 0.17701 0.1402 0.77994 0.0
N728 N 0.21159 0.21477 0.8134 0.0
N729 N 0.106 0.13535 0.68904 0.0
C730 C 0.18847 0.19447 0.78188 0.0
C731 C 0.12668 0.15586 0.72133 0.0
N732 N 0.20359 0.27219 0.74468 0.0
N733 N 0.1234 0.0715 0.7536 0.0
H734 H 0.10612 0.15636 0.66393 0.0
H735 H 0.0967 0.09573 0.68524 0.0
H736 H 0.13395 0.04654 0.7755 0.0
H737 H 0.09349 0.05679 0.73643 0.0
H738 H 0.23398 0.28503 0.76226 0.0
H739 H 0.20143 0.2911 0.71862 0.0
H740 H 0.21666 0.25521 0.8175 0.0
H741 H 0.22094 0.19127 0.83659 0.0
C742 C 0.04731 0.15499 0.25864 0.0
C743 C 0.02781 0.2016 0.27629 0.0
C744 C 0.94232 0.18697 0.2462 0.0
C745 C 0.9585 0.13679 0.23321 0.0
N746 N 0.02607 0.07004 0.23003 0.0
N747 N 0.95108 0.2512 0.29586 0.0
C748 C 0.01105 0.11976 0.24033 0.0
C749 C 0.97356 0.21419 0.27296 0.0
N750 N 0.10024 0.14494 0.25868 0.0
N751 N 0.89905 0.21069 0.231 0.0
H752 H 0.97221 0.27139 0.3166 0.0
H753 H 0.91047 0.25811 0.2962 0.0
H754 H 0.87794 0.19381 0.20878 0.0
H755 H 0.88834 0.24938 0.23754 0.0
H756 H 0.11741 0.11382 0.24391 0.0
H757 H 0.12751 0.17097 0.27048 0.0
H758 H 0.06201 0.05339 0.23779 0.0
H759 H 1.00085 0.04412 0.2159 0.0
loop_
_geom_bond_atom_site_label_1
_geom_bond_atom_site_label_2
_geom_bond_distance
_geom_bond_site_symmetry_2
_ccdc_geom_bond_type
Co0 O2 2.143 . S
Co0 O8 2.074 . S
Co0 O11 2.093 . S
Co0 O24 2.097 . S
Co0 N41 2.151 . S
Co0 N49 2.214 . S
Co1 O2 2.160 . S
Co1 O7 2.058 . S
Co1 O17 2.057 . S
Co1 O32 2.037 . S
Co1 N36 2.145 . S
Co1 N57 2.257 1_545 S
O2 Co0 2.143 . S
O2 Co1 2.160 . S
C3 O4 1.278 . S
C3 O11 1.224 . S
O4 C3 1.278 . S
C5 O6 1.245 . S
C5 O17 1.232 . S
O6 C5 1.245 . S
O7 Co1 2.058 . S
O7 C33 1.269 . S
O8 Co0 2.074 . S
O8 C33 1.257 . S
H9 C34 0.932 . S
H10 C40 0.930 . S
O11 Co0 2.093 . S
O11 C3 1.224 . S
H12 C44 0.929 . S
H13 C46 0.930 . S
H14 C47 0.930 . S
H15 C45 0.929 . S
H16 C48 0.928 . S
O17 Co1 2.057 . S
O17 C5 1.232 . S
H18 C37 0.929 . S
H19 C38 0.929 . S
H20 C50 0.931 . S
H21 C42 0.929 . S
H22 C51 0.930 . S
H23 C43 0.931 . S
O24 Co0 2.097 . S
O24 C52 1.214 . S
H25 C53 0.929 . S
H26 C54 0.929 . S
H27 C55 0.930 . S
H28 C56 0.929 . S
H29 C58 0.930 1_545 S
H30 C35 0.930 . S
H31 C39 0.930 . S
O32 Co1 2.037 . S
O32 C52 1.234 . S
C33 O7 1.269 . S
C33 O8 1.257 . S
C34 H9 0.932 . S
C34 C37 1.388 . S
C34 C39 1.418 1_545 S
C35 H30 0.930 . S
C35 C38 1.404 . S
C35 C39 1.353 1_545 S
N36 Co1 2.145 . S
N36 C37 1.397 . S
N36 C38 1.334 . S
C37 H18 0.929 . S
C37 C34 1.388 . S
C37 N36 1.397 . S
C38 H19 0.929 . S
C38 C35 1.404 . S
C38 N36 1.334 . S
C39 H31 0.930 . S
C39 C34 1.418 1_565 S
C39 C35 1.353 1_565 S
C40 H10 0.930 . S
C40 N41 1.330 . S
C40 C42 1.446 . S
N41 Co0 2.151 . S
N41 C40 1.330 . S
N41 C45 1.418 . S
C42 H21 0.929 . S
C42 C40 1.446 . S
C42 C43 1.332 . S
C43 H23 0.931 . S
C43 C42 1.332 . S
C43 C44 1.267 . S
C44 H12 0.929 . S
C44 C43 1.267 . S
C44 C45 1.251 . S
C45 H15 0.929 . S
C45 N41 1.418 . S
C45 C44 1.251 . S
C46 H13 0.930 . S
C46 C48 1.406 . S
C46 C51 1.261 . S
C47 H14 0.930 . S
C47 N49 1.325 . S
C47 C50 1.357 . S
C48 H16 0.928 . S
C48 C46 1.406 . S
C48 N49 1.261 . S
N49 Co0 2.214 . S
N49 C47 1.325 . S
N49 C48 1.261 . S
C50 H20 0.931 . S
C50 C47 1.357 . S
C50 C51 1.312 . S
C51 H22 0.930 . S
C51 C46 1.261 . S
C51 C50 1.312 . S
C52 O24 1.214 . S
C52 O32 1.234 . S
C53 H25 0.929 . S
C53 C56 1.391 . S
C53 C58 1.391 . S
C54 H26 0.929 . S
C54 C55 1.390 . S
C54 N57 1.391 . S
C55 H27 0.930 . S
C55 C54 1.390 . S
C55 C56 1.392 . S
C56 H28 0.929 . S
C56 C53 1.391 . S
C56 C55 1.392 . S
N57 Co1 2.257 1_565 S
N57 C54 1.391 . S
N57 C58 1.388 . S
C58 H29 0.930 1_565 S
C58 C53 1.391 . S
C58 N57 1.388 . S
Co59 O61 2.143 . S
Co59 O67 2.074 1_455 S
Co59 O70 2.093 . S
Co59 O83 2.097 . S
Co59 N100 2.151 1_455 S
Co59 N108 2.214 1_455 S
Co60 O61 2.160 . S
Co60 O66 2.058 1_455 S
Co60 O76 2.057 . S
Co60 O91 2.037 . S
Co60 N95 2.145 . S
Co60 N116 2.257 . S
O61 Co59 2.143 . S
O61 Co60 2.160 . S
C62 O63 1.278 . S
C62 O70 1.224 . S
O63 C62 1.278 . S
C64 O65 1.245 1_455 S
C64 O76 1.232 . S
O65 C64 1.245 1_655 S
O66 Co60 2.058 1_655 S
O66 C92 1.269 . S
O67 Co59 2.074 1_655 S
O67 C92 1.257 . S
H68 C93 0.930 . S
H69 C99 0.930 . S
O70 Co59 2.093 . S
O70 C62 1.224 . S
H71 C103 0.929 . S
H72 C105 0.930 . S
H73 C106 0.930 1_455 S
H74 C104 0.929 . S
H75 C107 0.928 . S
O76 Co60 2.057 . S
O76 C64 1.232 . S
H77 C96 0.929 . S
H78 C97 0.929 . S
H79 C109 0.931 . S
H80 C101 0.929 . S
H81 C110 0.930 . S
H82 C102 0.931 . S
O83 Co59 2.097 . S
O83 C111 1.214 . S
H84 C112 0.929 . S
H85 C113 0.929 . S
H86 C114 0.930 . S
H87 C115 0.929 . S
H88 C117 0.930 . S
H89 C94 0.930 . S
H90 C98 0.930 . S
O91 Co60 2.037 . S
O91 C111 1.234 . S
C92 O66 1.269 . S
C92 O67 1.257 . S
C93 H68 0.930 . S
C93 C96 1.388 . S
C93 C98 1.418 . S
C94 H89 0.930 . S
C94 C97 1.404 . S
C94 C98 1.353 . S
N95 Co60 2.145 . S
N95 C96 1.397 . S
N95 C97 1.334 . S
C96 H77 0.929 . S
C96 C93 1.388 . S
C96 N95 1.397 . S
C97 H78 0.929 . S
C97 C94 1.404 . S
C97 N95 1.334 . S
C98 H90 0.930 . S
C98 C93 1.418 . S
C98 C94 1.353 . S
C99 H69 0.930 . S
C99 N100 1.330 . S
C99 C101 1.446 . S
N100 Co59 2.151 1_655 S
N100 C99 1.330 . S
N100 C104 1.418 . S
C101 H80 0.929 . S
C101 C99 1.446 . S
C101 C102 1.332 . S
C102 H82 0.931 . S
C102 C101 1.332 . S
C102 C103 1.267 . S
C103 H71 0.929 . S
C103 C102 1.267 . S
C103 C104 1.251 . S
C104 H74 0.929 . S
C104 N100 1.418 . S
C104 C103 1.251 . S
C105 H72 0.930 . S
C105 C107 1.406 . S
C105 C110 1.261 . S
C106 H73 0.930 1_655 S
C106 N108 1.325 . S
C106 C109 1.357 . S
C107 H75 0.928 . S
C107 C105 1.406 . S
C107 N108 1.261 . S
N108 Co59 2.214 1_655 S
N108 C106 1.325 . S
N108 C107 1.261 . S
C109 H79 0.931 . S
C109 C106 1.357 . S
C109 C110 1.312 . S
C110 H81 0.930 . S
C110 C105 1.261 . S
C110 C109 1.312 . S
C111 O83 1.214 . S
C111 O91 1.234 . S
C112 H84 0.929 . S
C112 C115 1.391 . S
C112 C117 1.391 . S
C113 H85 0.929 . S
C113 C114 1.390 . S
C113 N116 1.391 . S
C114 H86 0.930 . S
C114 C113 1.390 . S
C114 C115 1.392 . S
C115 H87 0.929 . S
C115 C112 1.391 . S
C115 C114 1.392 . S
N116 Co60 2.257 . S
N116 C113 1.391 . S
N116 C117 1.388 . S
C117 H88 0.930 . S
C117 C112 1.391 . S
C117 N116 1.388 . S
Co118 O120 2.143 . S
Co118 O126 2.074 1_545 S
Co118 O129 2.093 . S
Co118 O142 2.097 . S
Co118 N159 2.151 1_545 S
Co118 N167 2.214 1_545 S
Co119 O120 2.160 . S
Co119 O125 2.058 1_545 S
Co119 O135 2.057 . S
Co119 O150 2.037 . S
Co119 N154 2.145 . S
Co119 N175 2.257 . S
O120 Co118 2.143 . S
O120 Co119 2.160 . S
C121 O122 1.278 . S
C121 O129 1.224 . S
O122 C121 1.278 . S
C123 O124 1.245 1_545 S
C123 O135 1.232 . S
O124 C123 1.245 1_565 S
O125 Co119 2.058 1_565 S
O125 C151 1.269 . S
O126 Co118 2.074 1_565 S
O126 C151 1.257 . S
H127 C152 0.930 . S
H128 C158 0.930 . S
O129 Co118 2.093 . S
O129 C121 1.224 . S
H130 C162 0.929 . S
H131 C164 0.930 . S
H132 C165 0.930 1_545 S
H133 C163 0.929 . S
H134 C166 0.928 . S
O135 Co119 2.057 . S
O135 C123 1.232 . S
H136 C155 0.929 . S
H137 C156 0.929 . S
H138 C168 0.931 . S
H139 C160 0.929 . S
H140 C169 0.930 . S
H141 C161 0.931 . S
O142 Co118 2.097 . S
O142 C170 1.214 . S
H143 C171 0.929 . S
H144 C172 0.929 . S
H145 C173 0.930 . S
H146 C174 0.929 . S
H147 C176 0.930 . S
H148 C153 0.930 . S
H149 C157 0.930 . S
O150 Co119 2.037 . S
O150 C170 1.234 . S
C151 O125 1.269 . S
C151 O126 1.257 . S
C152 H127 0.930 . S
C152 C155 1.388 . S
C152 C157 1.418 . S
C153 H148 0.930 . S
C153 C156 1.404 . S
C153 C157 1.353 . S
N154 Co119 2.145 . S
N154 C155 1.397 . S
N154 C156 1.334 . S
C155 H136 0.929 . S
C155 C152 1.388 . S
C155 N154 1.397 . S
C156 H137 0.929 . S
C156 C153 1.404 . S
C156 N154 1.334 . S
C157 H149 0.930 . S
C157 C152 1.418 . S
C157 C153 1.353 . S
C158 H128 0.930 . S
C158 N159 1.330 . S
C158 C160 1.446 . S
N159 Co118 2.151 1_565 S
N159 C158 1.330 . S
N159 C163 1.418 . S
C160 H139 0.929 . S
C160 C158 1.446 . S
C160 C161 1.332 . S
C161 H141 0.931 . S
C161 C160 1.332 . S
C161 C162 1.267 . S
C162 H130 0.929 . S
C162 C161 1.267 . S
C162 C163 1.251 . S
C163 H133 0.929 . S
C163 N159 1.418 . S
C163 C162 1.251 . S
C164 H131 0.930 . S
C164 C166 1.406 1_455 S
C164 C169 1.261 . S
C165 H132 0.930 1_565 S
C165 N167 1.325 . S
C165 C168 1.357 1_655 S
C166 H134 0.928 . S
C166 C164 1.406 1_655 S
C166 N167 1.261 . S
N167 Co118 2.214 1_565 S
N167 C165 1.325 . S
N167 C166 1.261 . S
C168 H138 0.931 . S
C168 C165 1.357 1_455 S
C168 C169 1.312 . S
C169 H140 0.930 . S
C169 C164 1.261 . S
C169 C168 1.312 . S
C170 O142 1.214 . S
C170 O150 1.234 . S
C171 H143 0.929 . S
C171 C174 1.391 . S
C171 C176 1.391 . S
C172 H144 0.929 . S
C172 C173 1.390 . S
C172 N175 1.391 . S
C173 H145 0.930 . S
C173 C172 1.390 . S
C173 C174 1.392 . S
C174 H146 0.929 . S
C174 C171 1.391 . S
C174 C173 1.392 . S
N175 Co119 2.257 . S
N175 C172 1.391 . S
N175 C176 1.388 . S
C176 H147 0.930 . S
C176 C171 1.391 . S
C176 N175 1.388 . S
Co177 O179 2.143 . S
Co177 O185 2.074 . S
Co177 O188 2.093 . S
Co177 O201 2.097 . S
Co177 N218 2.151 . S
Co177 N226 2.214 . S
Co178 O179 2.160 . S
Co178 O184 2.058 . S
Co178 O194 2.057 . S
Co178 O209 2.037 . S
Co178 N213 2.145 . S
Co178 N234 2.257 1_455 S
O179 Co177 2.143 . S
O179 Co178 2.160 . S
C180 O181 1.278 . S
C180 O188 1.224 . S
O181 C180 1.278 . S
C182 O183 1.245 . S
C182 O194 1.232 . S
O183 C182 1.245 . S
O184 Co178 2.058 . S
O184 C210 1.269 . S
O185 Co177 2.074 . S
O185 C210 1.257 . S
H186 C211 0.932 . S
H187 C217 0.930 . S
O188 Co177 2.093 . S
O188 C180 1.224 . S
H189 C221 0.929 . S
H190 C223 0.930 . S
H191 C224 0.930 . S
H192 C222 0.929 . S
H193 C225 0.928 . S
O194 Co178 2.057 . S
O194 C182 1.232 . S
H195 C214 0.929 . S
H196 C215 0.929 . S
H197 C227 0.931 . S
H198 C219 0.929 . S
H199 C228 0.930 . S
H200 C220 0.931 . S
O201 Co177 2.097 . S
O201 C229 1.214 . S
H202 C230 0.929 . S
H203 C231 0.929 . S
H204 C232 0.930 . S
H205 C233 0.929 . S
H206 C235 0.930 1_455 S
H207 C212 0.930 . S
H208 C216 0.930 . S
O209 Co178 2.037 . S
O209 C229 1.234 . S
C210 O184 1.269 . S
C210 O185 1.257 . S
C211 H186 0.932 . S
C211 C214 1.388 . S
C211 C216 1.418 1_455 S
C212 H207 0.930 . S
C212 C215 1.404 . S
C212 C216 1.353 1_455 S
N213 Co178 2.145 . S
N213 C214 1.397 . S
N213 C215 1.334 . S
C214 H195 0.929 . S
C214 C211 1.388 . S
C214 N213 1.397 . S
C215 H196 0.929 . S
C215 C212 1.404 . S
C215 N213 1.334 . S
C216 H208 0.930 . S
C216 C211 1.418 1_655 S
C216 C212 1.353 1_655 S
C217 H187 0.930 . S
C217 N218 1.330 . S
C217 C219 1.446 . S
N218 Co177 2.151 . S
N218 C217 1.330 . S
N218 C222 1.418 . S
C219 H198 0.929 . S
C219 C217 1.446 . S
C219 C220 1.332 . S
C220 H200 0.931 . S
C220 C219 1.332 . S
C220 C221 1.267 . S
C221 H189 0.929 . S
C221 C220 1.267 . S
C221 C222 1.251 . S
C222 H192 0.929 . S
C222 N218 1.418 . S
C222 C221 1.251 . S
C223 H190 0.930 . S
C223 C225 1.406 1_545 S
C223 C228 1.261 . S
C224 H191 0.930 . S
C224 N226 1.325 . S
C224 C227 1.357 1_565 S
C225 H193 0.928 . S
C225 C223 1.406 1_565 S
C225 N226 1.261 . S
N226 Co177 2.214 . S
N226 C224 1.325 . S
N226 C225 1.261 . S
C227 H197 0.931 . S
C227 C224 1.357 1_545 S
C227 C228 1.312 . S
C228 H199 0.930 . S
C228 C223 1.261 . S
C228 C227 1.312 . S
C229 O201 1.214 . S
C229 O209 1.234 . S
C230 H202 0.929 . S
C230 C233 1.391 . S
C230 C235 1.391 . S
C231 H203 0.929 . S
C231 C232 1.390 . S
C231 N234 1.391 . S
C232 H204 0.930 . S
C232 C231 1.390 . S
C232 C233 1.392 . S
C233 H205 0.929 . S
C233 C230 1.391 . S
C233 C232 1.392 . S
N234 Co178 2.257 1_655 S
N234 C231 1.391 . S
N234 C235 1.388 . S
C235 H206 0.930 1_655 S
C235 C230 1.391 . S
C235 N234 1.388 . S
Co236 O238 2.143 . S
Co236 O244 2.074 1_545 S
Co236 O247 2.093 . S
Co236 O260 2.097 . S
Co236 N277 2.151 1_545 S
Co236 N285 2.214 1_545 S
Co237 O238 2.160 . S
Co237 O243 2.058 1_545 S
Co237 O253 2.057 . S
Co237 O268 2.037 . S
Co237 N272 2.145 . S
Co237 N293 2.257 . S
O238 Co236 2.143 . S
O238 Co237 2.160 . S
C239 O240 1.278 . S
C239 O247 1.224 . S
O240 C239 1.278 . S
C241 O242 1.245 1_545 S
C241 O253 1.232 . S
O242 C241 1.245 1_565 S
O243 Co237 2.058 1_565 S
O243 C269 1.269 . S
O244 Co236 2.074 1_565 S
O244 C269 1.257 . S
H245 C270 0.930 . S
H246 C276 0.930 . S
O247 Co236 2.093 . S
O247 C239 1.224 . S
H248 C280 0.929 . S
H249 C282 0.930 . S
H250 C283 0.930 1_545 S
H251 C281 0.929 . S
H252 C284 0.928 . S
O253 Co237 2.057 . S
O253 C241 1.232 . S
H254 C273 0.929 . S
H255 C274 0.929 . S
H256 C286 0.931 . S
H257 C278 0.929 . S
H258 C287 0.930 . S
H259 C279 0.931 . S
O260 Co236 2.097 . S
O260 C288 1.214 . S
H261 C289 0.929 . S
H262 C290 0.929 . S
H263 C291 0.930 . S
H264 C292 0.929 . S
H265 C294 0.930 . S
H266 C271 0.930 . S
H267 C275 0.930 . S
O268 Co237 2.037 . S
O268 C288 1.234 . S
C269 O243 1.269 . S
C269 O244 1.257 . S
C270 H245 0.930 . S
C270 C273 1.388 . S
C270 C275 1.418 . S
C271 H266 0.930 . S
C271 C274 1.404 . S
C271 C275 1.353 . S
N272 Co237 2.145 . S
N272 C273 1.397 . S
N272 C274 1.334 . S
C273 H254 0.929 . S
C273 C270 1.388 . S
C273 N272 1.397 . S
C274 H255 0.929 . S
C274 C271 1.404 . S
C274 N272 1.334 . S
C275 H267 0.930 . S
C275 C270 1.418 . S
C275 C271 1.353 . S
C276 H246 0.930 . S
C276 N277 1.330 . S
C276 C278 1.446 . S
N277 Co236 2.151 1_565 S
N277 C276 1.330 . S
N277 C281 1.418 . S
C278 H257 0.929 . S
C278 C276 1.446 . S
C278 C279 1.332 . S
C279 H259 0.931 . S
C279 C278 1.332 . S
C279 C280 1.267 . S
C280 H248 0.929 . S
C280 C279 1.267 . S
C280 C281 1.251 . S
C281 H251 0.929 . S
C281 N277 1.418 . S
C281 C280 1.251 . S
C282 H249 0.930 . S
C282 C284 1.406 . S
C282 C287 1.261 . S
C283 H250 0.930 1_565 S
C283 N285 1.325 . S
C283 C286 1.357 . S
C284 H252 0.928 . S
C284 C282 1.406 . S
C284 N285 1.261 . S
N285 Co236 2.214 1_565 S
N285 C283 1.325 . S
N285 C284 1.261 . S
C286 H256 0.931 . S
C286 C283 1.357 . S
C286 C287 1.312 . S
C287 H258 0.930 . S
C287 C282 1.261 . S
C287 C286 1.312 . S
C288 O260 1.214 . S
C288 O268 1.234 . S
C289 H261 0.929 . S
C289 C292 1.391 . S
C289 C294 1.391 . S
C290 H262 0.929 . S
C290 C291 1.390 . S
C290 N293 1.391 . S
C291 H263 0.930 . S
C291 C290 1.390 . S
C291 C292 1.392 . S
C292 H264 0.929 . S
C292 C289 1.391 . S
C292 C291 1.392 . S
N293 Co237 2.257 . S
N293 C290 1.391 . S
N293 C294 1.388 . S
C294 H265 0.930 . S
C294 C289 1.391 . S
C294 N293 1.388 . S
Co295 O297 2.143 . S
Co295 O303 2.074 . S
Co295 O306 2.093 . S
Co295 O319 2.097 . S
Co295 N336 2.151 . S
Co295 N344 2.214 . S
Co296 O297 2.160 . S
Co296 O302 2.058 . S
Co296 O312 2.057 . S
Co296 O327 2.037 . S
Co296 N331 2.145 . S
Co296 N352 2.257 1_455 S
O297 Co295 2.143 . S
O297 Co296 2.160 . S
C298 O299 1.278 . S
C298 O306 1.224 . S
O299 C298 1.278 . S
C300 O301 1.245 . S
C300 O312 1.232 . S
O301 C300 1.245 . S
O302 Co296 2.058 . S
O302 C328 1.269 . S
O303 Co295 2.074 . S
O303 C328 1.257 . S
H304 C329 0.932 . S
H305 C335 0.930 . S
O306 Co295 2.093 . S
O306 C298 1.224 . S
H307 C339 0.929 . S
H308 C341 0.930 . S
H309 C342 0.930 . S
H310 C340 0.929 . S
H311 C343 0.928 . S
O312 Co296 2.057 . S
O312 C300 1.232 . S
H313 C332 0.929 . S
H314 C333 0.929 . S
H315 C345 0.931 . S
H316 C337 0.929 . S
H317 C346 0.930 . S
H318 C338 0.931 . S
O319 Co295 2.097 . S
O319 C347 1.214 . S
H320 C348 0.929 . S
H321 C349 0.929 . S
H322 C350 0.930 . S
H323 C351 0.929 . S
H324 C353 0.930 1_455 S
H325 C330 0.930 . S
H326 C334 0.930 . S
O327 Co296 2.037 . S
O327 C347 1.234 . S
C328 O302 1.269 . S
C328 O303 1.257 . S
C329 H304 0.932 . S
C329 C332 1.388 . S
C329 C334 1.418 1_455 S
C330 H325 0.930 . S
C330 C333 1.404 . S
C330 C334 1.353 1_455 S
N331 Co296 2.145 . S
N331 C332 1.397 . S
N331 C333 1.334 . S
C332 H313 0.929 . S
C332 C329 1.388 . S
C332 N331 1.397 . S
C333 H314 0.929 . S
C333 C330 1.404 . S
C333 N331 1.334 . S
C334 H326 0.930 . S
C334 C329 1.418 1_655 S
C334 C330 1.353 1_655 S
C335 H305 0.930 . S
C335 N336 1.330 . S
C335 C337 1.446 . S
N336 Co295 2.151 . S
N336 C335 1.330 . S
N336 C340 1.418 . S
C337 H316 0.929 . S
C337 C335 1.446 . S
C337 C338 1.332 . S
C338 H318 0.931 . S
C338 C337 1.332 . S
C338 C339 1.267 . S
C339 H307 0.929 . S
C339 C338 1.267 . S
C339 C340 1.251 . S
C340 H310 0.929 . S
C340 N336 1.418 . S
C340 C339 1.251 . S
C341 H308 0.930 . S
C341 C343 1.406 . S
C341 C346 1.261 . S
C342 H309 0.930 . S
C342 N344 1.325 . S
C342 C345 1.357 . S
C343 H311 0.928 . S
C343 C341 1.406 . S
C343 N344 1.261 . S
N344 Co295 2.214 . S
N344 C342 1.325 . S
N344 C343 1.261 . S
C345 H315 0.931 . S
C345 C342 1.357 . S
C345 C346 1.312 . S
C346 H317 0.930 . S
C346 C341 1.261 . S
C346 C345 1.312 . S
C347 O319 1.214 . S
C347 O327 1.234 . S
C348 H320 0.929 . S
C348 C351 1.391 . S
C348 C353 1.391 . S
C349 H321 0.929 . S
C349 C350 1.390 . S
C349 N352 1.391 . S
C350 H322 0.930 . S
C350 C349 1.390 . S
C350 C351 1.392 . S
C351 H323 0.929 . S
C351 C348 1.391 . S
C351 C350 1.392 . S
N352 Co296 2.257 1_655 S
N352 C349 1.391 . S
N352 C353 1.388 . S
C353 H324 0.930 1_655 S
C353 C348 1.391 . S
C353 N352 1.388 . S
Co354 O356 2.143 . S
Co354 O362 2.074 . S
Co354 O365 2.093 . S
Co354 O378 2.097 . S
Co354 N395 2.151 . S
Co354 N403 2.214 . S
Co355 O356 2.160 . S
Co355 O361 2.058 . S
Co355 O371 2.057 . S
Co355 O386 2.037 . S
Co355 N390 2.145 . S
Co355 N411 2.257 1_545 S
O356 Co354 2.143 . S
O356 Co355 2.160 . S
C357 O358 1.278 . S
C357 O365 1.224 . S
O358 C357 1.278 . S
C359 O360 1.245 . S
C359 O371 1.232 . S
O360 C359 1.245 . S
O361 Co355 2.058 . S
O361 C387 1.269 . S
O362 Co354 2.074 . S
O362 C387 1.257 . S
H363 C388 0.932 . S
H364 C394 0.930 . S
O365 Co354 2.093 . S
O365 C357 1.224 . S
H366 C398 0.929 . S
H367 C400 0.930 . S
H368 C401 0.930 . S
H369 C399 0.929 . S
H370 C402 0.928 . S
O371 Co355 2.057 . S
O371 C359 1.232 . S
H372 C391 0.929 . S
H373 C392 0.929 . S
H374 C404 0.931 . S
H375 C396 0.929 . S
H376 C405 0.930 . S
H377 C397 0.931 . S
O378 Co354 2.097 . S
O378 C406 1.214 . S
H379 C407 0.929 . S
H380 C408 0.929 . S
H381 C409 0.930 . S
H382 C410 0.929 . S
H383 C412 0.930 1_545 S
H384 C389 0.930 . S
H385 C393 0.930 . S
O386 Co355 2.037 . S
O386 C406 1.234 . S
C387 O361 1.269 . S
C387 O362 1.257 . S
C388 H363 0.932 . S
C388 C391 1.388 . S
C388 C393 1.418 1_545 S
C389 H384 0.930 . S
C389 C392 1.404 . S
C389 C393 1.353 1_545 S
N390 Co355 2.145 . S
N390 C391 1.397 . S
N390 C392 1.334 . S
C391 H372 0.929 . S
C391 C388 1.388 . S
C391 N390 1.397 . S
C392 H373 0.929 . S
C392 C389 1.404 . S
C392 N390 1.334 . S
C393 H385 0.930 . S
C393 C388 1.418 1_565 S
C393 C389 1.353 1_565 S
C394 H364 0.930 . S
C394 N395 1.330 . S
C394 C396 1.446 . S
N395 Co354 2.151 . S
N395 C394 1.330 . S
N395 C399 1.418 . S
C396 H375 0.929 . S
C396 C394 1.446 . S
C396 C397 1.332 . S
C397 H377 0.931 . S
C397 C396 1.332 . S
C397 C398 1.267 . S
C398 H366 0.929 . S
C398 C397 1.267 . S
C398 C399 1.251 . S
C399 H369 0.929 . S
C399 N395 1.418 . S
C399 C398 1.251 . S
C400 H367 0.930 . S
C400 C402 1.406 1_455 S
C400 C405 1.261 . S
C401 H368 0.930 . S
C401 N403 1.325 . S
C401 C404 1.357 1_655 S
C402 H370 0.928 . S
C402 C400 1.406 1_655 S
C402 N403 1.261 . S
N403 Co354 2.214 . S
N403 C401 1.325 . S
N403 C402 1.261 . S
C404 H374 0.931 . S
C404 C401 1.357 1_455 S
C404 C405 1.312 . S
C405 H376 0.930 . S
C405 C400 1.261 . S
C405 C404 1.312 . S
C406 O378 1.214 . S
C406 O386 1.234 . S
C407 H379 0.929 . S
C407 C410 1.391 . S
C407 C412 1.391 . S
C408 H380 0.929 . S
C408 C409 1.390 . S
C408 N411 1.391 . S
C409 H381 0.930 . S
C409 C408 1.390 . S
C409 C410 1.392 . S
C410 H382 0.929 . S
C410 C407 1.391 . S
C410 C409 1.392 . S
N411 Co355 2.257 1_565 S
N411 C408 1.391 . S
N411 C412 1.388 . S
C412 H383 0.930 1_565 S
C412 C407 1.391 . S
C412 N411 1.388 . S
Co413 O415 2.143 . S
Co413 O421 2.074 1_455 S
Co413 O424 2.093 . S
Co413 O437 2.097 . S
Co413 N454 2.151 1_455 S
Co413 N462 2.214 1_455 S
Co414 O415 2.160 . S
Co414 O420 2.058 1_455 S
Co414 O430 2.057 . S
Co414 O445 2.037 . S
Co414 N449 2.145 . S
Co414 N470 2.257 . S
O415 Co413 2.143 . S
O415 Co414 2.160 . S
C416 O417 1.278 . S
C416 O424 1.224 . S
O417 C416 1.278 . S
C418 O419 1.245 1_455 S
C418 O430 1.232 . S
O419 C418 1.245 1_655 S
O420 Co414 2.058 1_655 S
O420 C446 1.269 . S
O421 Co413 2.074 1_655 S
O421 C446 1.257 . S
H422 C447 0.930 . S
H423 C453 0.930 . S
O424 Co413 2.093 . S
O424 C416 1.224 . S
H425 C457 0.929 . S
H426 C459 0.930 . S
H427 C460 0.930 1_455 S
H428 C458 0.929 . S
H429 C461 0.928 . S
O430 Co414 2.057 . S
O430 C418 1.232 . S
H431 C450 0.929 . S
H432 C451 0.929 . S
H433 C463 0.931 . S
H434 C455 0.929 . S
H435 C464 0.930 . S
H436 C456 0.931 . S
O437 Co413 2.097 . S
O437 C465 1.214 . S
H438 C466 0.929 . S
H439 C467 0.929 . S
H440 C468 0.930 . S
H441 C469 0.929 . S
H442 C471 0.930 . S
H443 C448 0.930 . S
H444 C452 0.930 . S
O445 Co414 2.037 . S
O445 C465 1.234 . S
C446 O420 1.269 . S
C446 O421 1.257 . S
C447 H422 0.930 . S
C447 C450 1.388 . S
C447 C452 1.418 . S
C448 H443 0.930 . S
C448 C451 1.404 . S
C448 C452 1.353 . S
N449 Co414 2.145 . S
N449 C450 1.397 . S
N449 C451 1.334 . S
C450 H431 0.929 . S
C450 C447 1.388 . S
C450 N449 1.397 . S
C451 H432 0.929 . S
C451 C448 1.404 . S
C451 N449 1.334 . S
C452 H444 0.930 . S
C452 C447 1.418 . S
C452 C448 1.353 . S
C453 H423 0.930 . S
C453 N454 1.330 . S
C453 C455 1.446 . S
N454 Co413 2.151 1_655 S
N454 C453 1.330 . S
N454 C458 1.418 . S
C455 H434 0.929 . S
C455 C453 1.446 . S
C455 C456 1.332 . S
C456 H436 0.931 . S
C456 C455 1.332 . S
C456 C457 1.267 . S
C457 H425 0.929 . S
C457 C456 1.267 . S
C457 C458 1.251 . S
C458 H428 0.929 . S
C458 N454 1.418 . S
C458 C457 1.251 . S
C459 H426 0.930 . S
C459 C461 1.406 1_545 S
C459 C464 1.261 . S
C460 H427 0.930 1_655 S
C460 N462 1.325 . S
C460 C463 1.357 1_565 S
C461 H429 0.928 . S
C461 C459 1.406 1_565 S
C461 N462 1.261 . S
N462 Co413 2.214 1_655 S
N462 C460 1.325 . S
N462 C461 1.261 . S
C463 H433 0.931 . S
C463 C460 1.357 1_545 S
C463 C464 1.312 . S
C464 H435 0.930 . S
C464 C459 1.261 . S
C464 C463 1.312 . S
C465 O437 1.214 . S
C465 O445 1.234 . S
C466 H438 0.929 . S
C466 C469 1.391 . S
C466 C471 1.391 . S
C467 H439 0.929 . S
C467 C468 1.390 . S
C467 N470 1.391 . S
C468 H440 0.930 . S
C468 C467 1.390 . S
C468 C469 1.392 . S
C469 H441 0.929 . S
C469 C466 1.391 . S
C469 C468 1.392 . S
N470 Co414 2.257 . S
N470 C467 1.391 . S
N470 C471 1.388 . S
C471 H442 0.930 . S
C471 C466 1.391 . S
C471 N470 1.388 . S
C472 C473 1.363 . S
C472 C478 1.379 1_554 S
C472 N480 1.356 . S
C473 C472 1.363 . S
C473 C479 1.363 . S
C474 C475 1.363 . S
C474 C479 1.379 1_556 S
C474 N481 1.356 . S
C475 C474 1.363 . S
C475 C478 1.363 . S
N476 C478 1.356 . S
N476 H488 0.984 . S
N476 H489 0.985 . S
N477 C479 1.356 1_565 S
N477 H482 0.984 . S
N477 H483 0.985 . S
C478 C472 1.379 1_556 S
C478 C475 1.363 . S
C478 N476 1.356 . S
C479 C473 1.363 . S
C479 C474 1.379 1_554 S
C479 N477 1.356 1_545 S
N480 C472 1.356 . S
N480 H486 0.984 . S
N480 H487 0.984 . S
N481 C474 1.356 . S
N481 H484 0.984 . S
N481 H485 0.985 1_545 S
H482 N477 0.984 . S
H483 N477 0.985 . S
H484 N481 0.984 . S
H485 N481 0.985 1_565 S
H486 N480 0.984 . S
H487 N480 0.984 . S
H488 N476 0.984 . S
H489 N476 0.985 . S
C490 C491 1.363 . S
C490 C496 1.379 . S
C490 N498 1.356 . S
C491 C490 1.363 . S
C491 C497 1.363 . S
C492 C493 1.363 . S
C492 C497 1.379 . S
C492 N499 1.356 . S
C493 C492 1.363 . S
C493 C496 1.363 . S
N494 C496 1.356 . S
N494 H506 0.984 1_455 S
N494 H507 0.985 . S
N495 C497 1.356 . S
N495 H500 0.984 . S
N495 H501 0.985 . S
C496 C490 1.379 . S
C496 C493 1.363 . S
C496 N494 1.356 . S
C497 C491 1.363 . S
C497 C492 1.379 . S
C497 N495 1.356 . S
N498 C490 1.356 . S
N498 H504 0.984 . S
N498 H505 0.984 . S
N499 C492 1.356 . S
N499 H502 0.984 . S
N499 H503 0.985 . S
H500 N495 0.984 . S
H501 N495 0.985 . S
H502 N499 0.984 . S
H503 N499 0.985 . S
H504 N498 0.984 . S
H505 N498 0.984 . S
H506 N494 0.984 1_655 S
H507 N494 0.985 . S
C508 C509 1.363 . S
C508 C514 1.379 1_556 S
C508 N516 1.356 . S
C509 C508 1.363 . S
C509 C515 1.363 . S
C510 C511 1.363 . S
C510 C515 1.379 1_554 S
C510 N517 1.356 . S
C511 C510 1.363 . S
C511 C514 1.363 . S
N512 C514 1.356 . S
N512 H524 0.984 . S
N512 H525 0.985 . S
N513 C515 1.356 1_565 S
N513 H518 0.984 . S
N513 H519 0.985 . S
C514 C508 1.379 1_554 S
C514 C511 1.363 . S
C514 N512 1.356 . S
C515 C509 1.363 . S
C515 C510 1.379 1_556 S
C515 N513 1.356 1_545 S
N516 C508 1.356 . S
N516 H522 0.984 . S
N516 H523 0.984 . S
N517 C510 1.356 . S
N517 H520 0.984 . S
N517 H521 0.985 1_545 S
H518 N513 0.984 . S
H519 N513 0.985 . S
H520 N517 0.984 . S
H521 N517 0.985 1_565 S
H522 N516 0.984 . S
H523 N516 0.984 . S
H524 N512 0.984 . S
H525 N512 0.985 . S
C526 C527 1.363 . S
C526 C532 1.379 . S
C526 N534 1.356 . S
C527 C526 1.363 . S
C527 C533 1.363 . S
C528 C529 1.363 . S
C528 C533 1.379 . S
C528 N535 1.356 . S
C529 C528 1.363 . S
C529 C532 1.363 . S
N530 C532 1.356 . S
N530 H542 0.984 . S
N530 H543 0.985 . S
N531 C533 1.356 . S
N531 H536 0.984 . S
N531 H537 0.985 . S
C532 C526 1.379 . S
C532 C529 1.363 . S
C532 N530 1.356 . S
C533 C527 1.363 . S
C533 C528 1.379 . S
C533 N531 1.356 . S
N534 C526 1.356 . S
N534 H540 0.984 . S
N534 H541 0.984 . S
N535 C528 1.356 . S
N535 H538 0.984 . S
N535 H539 0.985 1_455 S
H536 N531 0.984 . S
H537 N531 0.985 . S
H538 N535 0.984 . S
H539 N535 0.985 1_655 S
H540 N534 0.984 . S
H541 N534 0.984 . S
H542 N530 0.984 . S
H543 N530 0.985 . S
C544 C545 1.363 . S
C544 C550 1.379 . S
C544 N552 1.356 . S
C545 C544 1.363 . S
C545 C551 1.363 . S
C546 C547 1.363 . S
C546 C551 1.379 . S
C546 N553 1.356 1_545 S
C547 C546 1.363 . S
C547 C550 1.363 . S
N548 C550 1.356 . S
N548 H560 0.984 . S
N548 H561 0.985 . S
N549 C551 1.356 . S
N549 H554 0.984 . S
N549 H555 0.985 . S
C550 C544 1.379 . S
C550 C547 1.363 . S
C550 N548 1.356 . S
C551 C545 1.363 . S
C551 C546 1.379 . S
C551 N549 1.356 . S
N552 C544 1.356 . S
N552 H558 0.984 . S
N552 H559 0.984 . S
N553 C546 1.356 1_565 S
N553 H556 0.984 . S
N553 H557 0.985 . S
H554 N549 0.984 . S
H555 N549 0.985 . S
H556 N553 0.984 . S
H557 N553 0.985 . S
H558 N552 0.984 . S
H559 N552 0.984 . S
H560 N548 0.984 . S
H561 N548 0.985 . S
C562 C563 1.363 . S
C562 C568 1.379 . S
C562 N570 1.356 . S
C563 C562 1.363 . S
C563 C569 1.363 . S
C564 C565 1.363 . S
C564 C569 1.379 . S
C564 N571 1.356 . S
C565 C564 1.363 . S
C565 C568 1.363 . S
N566 C568 1.356 . S
N566 H578 0.984 . S
N566 H579 0.985 . S
N567 C569 1.356 1_655 S
N567 H572 0.984 . S
N567 H573 0.985 . S
C568 C562 1.379 . S
C568 C565 1.363 . S
C568 N566 1.356 . S
C569 C563 1.363 . S
C569 C564 1.379 . S
C569 N567 1.356 1_455 S
N570 C562 1.356 . S
N570 H576 0.984 . S
N570 H577 0.984 . S
N571 C564 1.356 . S
N571 H574 0.984 . S
N571 H575 0.985 . S
H572 N567 0.984 . S
H573 N567 0.985 . S
H574 N571 0.984 . S
H575 N571 0.985 . S
H576 N570 0.984 . S
H577 N570 0.984 . S
H578 N566 0.984 . S
H579 N566 0.985 . S
C580 C581 1.363 . S
C580 C586 1.379 . S
C580 N588 1.356 . S
C581 C580 1.363 . S
C581 C587 1.363 . S
C582 C583 1.363 . S
C582 C587 1.379 . S
C582 N589 1.356 . S
C583 C582 1.363 . S
C583 C586 1.363 . S
N584 C586 1.356 1_565 S
N584 H596 0.984 . S
N584 H597 0.985 . S
N585 C587 1.356 . S
N585 H590 0.984 . S
N585 H591 0.985 . S
C586 C580 1.379 . S
C586 C583 1.363 . S
C586 N584 1.356 1_545 S
C587 C581 1.363 . S
C587 C582 1.379 . S
C587 N585 1.356 . S
N588 C580 1.356 . S
N588 H594 0.984 . S
N588 H595 0.984 . S
N589 C582 1.356 . S
N589 H592 0.984 . S
N589 H593 0.985 . S
H590 N585 0.984 . S
H591 N585 0.985 . S
H592 N589 0.984 . S
H593 N589 0.985 . S
H594 N588 0.984 . S
H595 N588 0.984 . S
H596 N584 0.984 . S
H597 N584 0.985 . S
C598 C599 1.363 . S
C598 C604 1.379 . S
C598 N606 1.356 . S
C599 C598 1.363 . S
C599 C605 1.363 . S
C600 C601 1.363 . S
C600 C605 1.379 . S
C600 N607 1.356 1_455 S
C601 C600 1.363 . S
C601 C604 1.363 . S
N602 C604 1.356 . S
N602 H614 0.984 . S
N602 H615 0.985 . S
N603 C605 1.356 . S
N603 H608 0.984 . S
N603 H609 0.985 . S
C604 C598 1.379 . S
C604 C601 1.363 . S
C604 N602 1.356 . S
C605 C599 1.363 . S
C605 C600 1.379 . S
C605 N603 1.356 . S
N606 C598 1.356 . S
N606 H612 0.984 . S
N606 H613 0.984 . S
N607 C600 1.356 1_655 S
N607 H610 0.984 . S
N607 H611 0.985 . S
H608 N603 0.984 . S
H609 N603 0.985 . S
H610 N607 0.984 . S
H611 N607 0.985 . S
H612 N606 0.984 . S
H613 N606 0.984 . S
H614 N602 0.984 . S
H615 N602 0.985 . S
C616 C617 1.363 . S
C616 C622 1.379 . S
C616 N624 1.356 . S
C617 C616 1.363 . S
C617 C623 1.363 . S
C618 C619 1.363 . S
C618 C623 1.379 . S
C618 N625 1.356 . S
C619 C618 1.363 . S
C619 C622 1.363 . S
N620 C622 1.356 . S
N620 H632 0.984 . S
N620 H633 0.985 . S
N621 C623 1.356 . S
N621 H626 0.984 . S
N621 H627 0.985 . S
C622 C616 1.379 . S
C622 C619 1.363 . S
C622 N620 1.356 . S
C623 C617 1.363 . S
C623 C618 1.379 . S
C623 N621 1.356 . S
N624 C616 1.356 . S
N624 H630 0.984 . S
N624 H631 0.984 . S
N625 C618 1.356 . S
N625 H628 0.984 . S
N625 H629 0.985 . S
H626 N621 0.984 . S
H627 N621 0.985 . S
H628 N625 0.984 . S
H629 N625 0.985 . S
H630 N624 0.984 . S
H631 N624 0.984 . S
H632 N620 0.984 . S
H633 N620 0.985 . S
C634 C635 1.363 . S
C634 C640 1.379 . S
C634 N642 1.356 . S
C635 C634 1.363 . S
C635 C641 1.363 . S
C636 C637 1.363 . S
C636 C641 1.379 . S
C636 N643 1.356 . S
C637 C636 1.363 . S
C637 C640 1.363 . S
N638 C640 1.356 . S
N638 H650 0.984 . S
N638 H651 0.985 . S
N639 C641 1.356 . S
N639 H644 0.984 . S
N639 H645 0.985 . S
C640 C634 1.379 . S
C640 C637 1.363 . S
C640 N638 1.356 . S
C641 C635 1.363 . S
C641 C636 1.379 . S
C641 N639 1.356 . S
N642 C634 1.356 . S
N642 H648 0.984 1_655 S
N642 H649 0.984 1_655 S
N643 C636 1.356 . S
N643 H646 0.984 . S
N643 H647 0.985 . S
H644 N639 0.984 . S
H645 N639 0.985 . S
H646 N643 0.984 . S
H647 N643 0.985 . S
H648 N642 0.984 1_455 S
H649 N642 0.984 1_455 S
H650 N638 0.984 . S
H651 N638 0.985 . S
C652 C653 1.363 . S
C652 C658 1.379 . S
C652 N660 1.356 . S
C653 C652 1.363 . S
C653 C659 1.363 . S
C654 C655 1.363 . S
C654 C659 1.379 . S
C654 N661 1.356 . S
C655 C654 1.363 . S
C655 C658 1.363 . S
N656 C658 1.356 . S
N656 H668 0.984 . S
N656 H669 0.985 . S
N657 C659 1.356 . S
N657 H662 0.984 . S
N657 H663 0.985 . S
C658 C652 1.379 . S
C658 C655 1.363 . S
C658 N656 1.356 . S
C659 C653 1.363 . S
C659 C654 1.379 . S
C659 N657 1.356 . S
N660 C652 1.356 . S
N660 H666 0.984 . S
N660 H667 0.984 . S
N661 C654 1.356 . S
N661 H664 0.984 . S
N661 H665 0.985 . S
H662 N657 0.984 . S
H663 N657 0.985 . S
H664 N661 0.984 . S
H665 N661 0.985 . S
H666 N660 0.984 . S
H667 N660 0.984 . S
H668 N656 0.984 . S
H669 N656 0.985 . S
C670 C671 1.363 . S
C670 C676 1.379 . S
C670 N678 1.356 . S
C671 C670 1.363 . S
C671 C677 1.363 . S
C672 C673 1.363 . S
C672 C677 1.379 . S
C672 N679 1.356 . S
C673 C672 1.363 . S
C673 C676 1.363 . S
N674 C676 1.356 . S
N674 H686 0.984 . S
N674 H687 0.985 . S
N675 C677 1.356 . S
N675 H680 0.984 . S
N675 H681 0.985 . S
C676 C670 1.379 . S
C676 C673 1.363 . S
C676 N674 1.356 . S
C677 C671 1.363 . S
C677 C672 1.379 . S
C677 N675 1.356 . S
N678 C670 1.356 . S
N678 H684 0.984 . S
N678 H685 0.984 . S
N679 C672 1.356 . S
N679 H682 0.984 . S
N679 H683 0.985 . S
H680 N675 0.984 . S
H681 N675 0.985 . S
H682 N679 0.984 . S
H683 N679 0.985 . S
H684 N678 0.984 . S
H685 N678 0.984 . S
H686 N674 0.984 . S
H687 N674 0.985 . S
C688 C689 1.363 . S
C688 C694 1.379 . S
C688 N696 1.356 . S
C689 C688 1.363 . S
C689 C695 1.363 . S
C690 C691 1.363 1_455 S
C690 C695 1.379 1_455 S
C690 N697 1.356 . S
C691 C690 1.363 1_655 S
C691 C694 1.363 . S
N692 C694 1.356 . S
N692 H704 0.984 . S
N692 H705 0.985 . S
N693 C695 1.356 1_545 S
N693 H698 0.984 . S
N693 H699 0.985 1_655 S
C694 C688 1.379 . S
C694 C691 1.363 . S
C694 N692 1.356 . S
C695 C689 1.363 . S
C695 C690 1.379 1_655 S
C695 N693 1.356 1_565 S
N696 C688 1.356 . S
N696 H702 0.984 . S
N696 H703 0.984 1_565 S
N697 C690 1.356 . S
N697 H700 0.984 . S
N697 H701 0.985 . S
H698 N693 0.984 . S
H699 N693 0.985 1_455 S
H700 N697 0.984 . S
H701 N697 0.985 . S
H702 N696 0.984 . S
H703 N696 0.984 1_545 S
H704 N692 0.984 . S
H705 N692 0.985 . S
C706 C707 1.363 . S
C706 C712 1.379 . S
C706 N714 1.356 1_565 S
C707 C706 1.363 . S
C707 C713 1.363 . S
C708 C709 1.363 . S
C708 C713 1.379 . S
C708 N715 1.356 . S
C709 C708 1.363 . S
C709 C712 1.363 . S
N710 C712 1.356 . S
N710 H722 0.984 . S
N710 H723 0.985 . S
N711 C713 1.356 . S
N711 H716 0.984 . S
N711 H717 0.985 . S
C712 C706 1.379 . S
C712 C709 1.363 . S
C712 N710 1.356 . S
C713 C707 1.363 . S
C713 C708 1.379 . S
C713 N711 1.356 . S
N714 C706 1.356 1_545 S
N714 H720 0.984 . S
N714 H721 0.984 . S
N715 C708 1.356 . S
N715 H718 0.984 . S
N715 H719 0.985 . S
H716 N711 0.984 . S
H717 N711 0.985 . S
H718 N715 0.984 . S
H719 N715 0.985 . S
H720 N714 0.984 . S
H721 N714 0.984 . S
H722 N710 0.984 . S
H723 N710 0.985 . S
C724 C725 1.363 . S
C724 C730 1.379 . S
C724 N732 1.356 . S
C725 C724 1.363 . S
C725 C731 1.363 . S
C726 C727 1.363 . S
C726 C731 1.379 . S
C726 N733 1.356 . S
C727 C726 1.363 . S
C727 C730 1.363 . S
N728 C730 1.356 . S
N728 H740 0.984 . S
N728 H741 0.985 . S
N729 C731 1.356 . S
N729 H734 0.984 . S
N729 H735 0.985 . S
C730 C724 1.379 . S
C730 C727 1.363 . S
C730 N728 1.356 . S
C731 C725 1.363 . S
C731 C726 1.379 . S
C731 N729 1.356 . S
N732 C724 1.356 . S
N732 H738 0.984 . S
N732 H739 0.984 . S
N733 C726 1.356 . S
N733 H736 0.984 . S
N733 H737 0.985 . S
H734 N729 0.984 . S
H735 N729 0.985 . S
H736 N733 0.984 . S
H737 N733 0.985 . S
H738 N732 0.984 . S
H739 N732 0.984 . S
H740 N728 0.984 . S
H741 N728 0.985 . S
C742 C743 1.363 . S
C742 C748 1.379 . S
C742 N750 1.356 1_655 S
C743 C742 1.363 . S
C743 C749 1.363 . S
C744 C745 1.363 . S
C744 C749 1.379 . S
C744 N751 1.356 . S
C745 C744 1.363 . S
C745 C748 1.363 . S
N746 C748 1.356 . S
N746 H758 0.984 . S
N746 H759 0.985 . S
N747 C749 1.356 . S
N747 H752 0.984 . S
N747 H753 0.985 . S
C748 C742 1.379 . S
C748 C745 1.363 . S
C748 N746 1.356 . S
C749 C743 1.363 . S
C749 C744 1.379 . S
C749 N747 1.356 . S
N750 C742 1.356 1_455 S
N750 H756 0.984 . S
N750 H757 0.984 . S
N751 C744 1.356 . S
N751 H754 0.984 . S
N751 H755 0.985 . S
H752 N747 0.984 . S
H753 N747 0.985 . S
H754 N751 0.984 . S
H755 N751 0.985 . S
H756 N750 0.984 . S
H757 N750 0.984 . S
H758 N746 0.984 . S
H759 N746 0.985 . S
C473 C3 1.578 . S
C475 C239 1.578 . S
C491 C62 1.578 . S
C493 C298 1.578 . S
C509 C357 1.578 . S
C511 C121 1.578 . S
C527 C416 1.578 . S
C529 C180 1.578 . S
C545 C5 1.701 . S
C547 C123 1.701 . S
C563 C64 1.701 . S
C565 C182 1.701 . S
C581 C359 1.701 . S
C583 C241 1.701 . S
C599 C300 1.701 . S
C601 C418 1.701 . S
C617 C328 1.148 . S
C619 C33 1.148 . S
C635 C92 1.148 . S
C637 C387 1.148 . S
C653 C446 1.148 . S
C655 C151 1.148 . S
C671 C210 1.148 . S
C673 C269 1.148 . S
C689 C406 1.721 1_565 S
C691 C229 1.721 1_655 S
C707 C52 1.722 1_565 S
C709 C465 1.722 . S
C725 C111 1.722 . S
C727 C288 1.722 . S
C743 C347 1.722 1_655 S
C745 C170 1.722 . S
