# Generated by pormake.
# Topology umx, (4)-cn, num edge types: 1
# Building blocks:
#     Node 0, Type 0, BuildingBlock: QUQFOY_clean_sbu_3, # of connection points: 4
#     Node 1, Type 0, BuildingBlock: QUQFOY_clean_sbu_3, # of connection points: 4
#     Node 2, Type 0, BuildingBlock: QUQFOY_clean_sbu_3, # of connection points: 4
#     Node 3, Type 0, BuildingBlock: QUQFOY_clean_sbu_3, # of connection points: 4
#     Node 4, Type 0, BuildingBlock: QUQFOY_clean_sbu_3, # of connection points: 4
#     Node 5, Type 0, BuildingBlock: QUQFOY_clean_sbu_3, # of connection points: 4
#     Node 6, Type 0, BuildingBlock: QUQFOY_clean_sbu_3, # of connection points: 4
#     Node 7, Type 0, BuildingBlock: QUQFOY_clean_sbu_3, # of connection points: 4
#     Edge 8, Type (0, 0), BuildingBlock: UVAHIK_clean_linker_0, # of connection points: 2
#     Edge 9, Type (0, 0), BuildingBlock: UVAHIK_clean_linker_0, # of connection points: 2
#     Edge 10, Type (0, 0), BuildingBlock: UVAHIK_clean_linker_0, # of connection points: 2
#     Edge 11, Type (0, 0), BuildingBlock: UVAHIK_clean_linker_0, # of connection points: 2
#     Edge 12, Type (0, 0), BuildingBlock: UVAHIK_clean_linker_0, # of connection points: 2
#     Edge 13, Type (0, 0), BuildingBlock: UVAHIK_clean_linker_0, # of connection points: 2
#     Edge 14, Type (0, 0), BuildingBlock: UVAHIK_clean_linker_0, # of connection points: 2
#     Edge 15, Type (0, 0), BuildingBlock: UVAHIK_clean_linker_0, # of connection points: 2
#     Edge 16, Type (0, 0), BuildingBlock: UVAHIK_clean_linker_0, # of connection points: 2
#     Edge 17, Type (0, 0), BuildingBlock: UVAHIK_clean_linker_0, # of connection points: 2
#     Edge 18, Type (0, 0), BuildingBlock: UVAHIK_clean_linker_0, # of connection points: 2
#     Edge 19, Type (0, 0), BuildingBlock: UVAHIK_clean_linker_0, # of connection points: 2
#     Edge 20, Type (0, 0), BuildingBlock: UVAHIK_clean_linker_0, # of connection points: 2
#     Edge 21, Type (0, 0), BuildingBlock: UVAHIK_clean_linker_0, # of connection points: 2
#     Edge 22, Type (0, 0), BuildingBlock: UVAHIK_clean_linker_0, # of connection points: 2
#     Edge 23, Type (0, 0), BuildingBlock: UVAHIK_clean_linker_0, # of connection points: 2
# Relax obj value: 0.078
# Max RMSD: 0.191
# Mean RMSD: 0.191
data_MOF--net-umx--node1-QUQFOY_clean_sbu_3--edge1-UVAHIK_clean_linker_0
_symmetry_space_group_name_H-M    P1
_symmetry_Int_Tables_number       1
_symmetry_cell_setting            triclinic
loop_
_symmetry_equiv_pos_as_xyz
'x, y, z'
_cell_length_a     51.034867
_cell_length_b     36.585003
_cell_length_c     0.67121272
_cell_angle_alpha  89.975639
_cell_angle_beta   90.001026
_cell_angle_gamma 51.026105
loop_
_atom_site_label
_atom_site_type_symbol
_atom_site_fract_x
_atom_site_fract_y
_atom_site_fract_z
_atom_type_partial_charge
C0 C -0.18401 0.85435 51.63898 0.0
O1 O -0.19772 0.88791 52.88396 0.0
Cd2 Cd -0.2001 0.87934 1.91509 0.0
O3 O -0.17021 0.81264 52.21943 0.0
Cd4 Cd -0.16023 0.76969 0.82505 0.0
C5 C -0.2439 0.83704 1.90563 0.0
O6 O -0.1447 0.81008 2.74301 0.0
O7 O -0.14531 0.75976 4.36324 0.0
O8 O -0.10842 0.7049 53.67008 0.0
C9 C -0.13976 0.78897 4.36684 0.0
O10 O -0.24275 0.8696 2.40149 0.0
C11 C -0.11038 0.67355 -0.26256 0.0
O12 O -0.21818 0.79853 1.17451 0.0
O13 O -0.13587 0.68673 0.76652 0.0
C14 C 0.34079 0.38866 24.01848 0.0
O15 O 0.31862 0.39443 25.16512 0.0
Cd16 Cd 0.32273 0.38699 28.7275 0.0
O17 O 0.36766 0.37915 24.72575 0.0
Cd18 Cd 0.39495 0.36713 27.98384 0.0
C19 C 0.39733 0.27337 28.95622 0.0
O20 O 0.34307 0.42775 29.69491 0.0
O21 O 0.38759 0.3887 31.51896 0.0
O22 O 0.41528 0.40559 26.49584 0.0
C23 C 0.35599 0.42078 31.40192 0.0
O24 O 0.36555 0.30234 29.2219 0.0
C25 C 0.44527 0.37623 27.13789 0.0
O26 O 0.41363 0.28754 28.43703 0.0
O27 O 0.45222 0.34157 28.13433 0.0
C28 C 0.37565 0.92628 51.24233 0.0
O29 O 0.38925 0.89066 52.37244 0.0
Cd30 Cd 0.39149 0.89337 1.4424 0.0
O31 O 0.362 0.96682 51.96889 0.0
Cd32 Cd 0.3505 1.00634 0.70209 0.0
C33 C 0.43457 0.93704 1.72318 0.0
O34 O 0.33686 0.96173 2.40493 0.0
O35 O 0.33686 1.00995 4.23598 0.0
O36 O 0.29928 1.07147 53.6434 0.0
C37 C 0.33273 0.97932 4.11218 0.0
O38 O 0.43373 0.90351 2.05862 0.0
C39 C 0.29996 1.10335 -0.20098 0.0
O40 O 0.40854 0.97687 1.10382 0.0
O41 O 0.3254 1.08954 0.85126 0.0
C42 C -0.17667 1.44927 24.31639 0.0
O43 O -0.1559 1.44531 25.53005 0.0
Cd44 Cd -0.16569 1.45738 29.05429 0.0
O45 O -0.20419 1.45951 24.93702 0.0
Cd46 Cd -0.23532 1.47543 28.06401 0.0
C47 C -0.2404 1.57093 29.03028 0.0
O48 O -0.18504 1.41461 29.94285 0.0
O49 O -0.2317 1.45587 31.5892 0.0
O50 O -0.25155 1.43444 26.32811 0.0
C51 C -0.20025 1.42246 31.57404 0.0
O52 O -0.20897 1.54215 29.40909 0.0
C53 C -0.28184 1.46062 26.93418 0.0
O54 O -0.2561 1.55631 28.43962 0.0
O55 O -0.29119 1.49537 28.0217 0.0
C56 C -0.20256 0.92919 30.51069 0.0
O57 O -0.18407 0.89378 29.37093 0.0
Cd58 Cd -0.18876 0.89549 25.79753 0.0
O59 O -0.22576 0.96979 29.79679 0.0
Cd60 Cd -0.25046 1.00854 26.54683 0.0
C61 C -0.2708 0.93753 25.55068 0.0
O62 O -0.19685 0.96454 24.82475 0.0
O63 O -0.24053 1.01218 22.99931 0.0
O64 O -0.25937 1.07611 28.02153 0.0
C65 C -0.20875 0.98182 23.11567 0.0
O66 O -0.2397 0.90437 25.2034 0.0
C67 C -0.28929 1.10624 27.38053 0.0
O68 O -0.28095 0.97751 26.16558 0.0
O69 O -0.30165 1.09073 26.38748 0.0
C70 C 0.31548 0.35415 2.87831 0.0
O71 O 0.33332 0.35677 1.66046 0.0
Cd72 Cd 0.33388 0.34649 52.61632 0.0
O73 O 0.29627 0.34547 2.26299 0.0
Cd74 Cd 0.28004 0.32946 53.63733 0.0
C75 C 0.36073 0.23382 52.56124 0.0
O76 O 0.27578 0.3902 51.76552 0.0
O77 O 0.26616 0.34909 50.1194 0.0
O78 O 0.22566 0.36988 0.7924 0.0
C79 C 0.26752 0.38247 50.13621 0.0
O80 O 0.36624 0.26221 52.09757 0.0
C81 C 0.22038 0.34212 0.18903 0.0
O82 O 0.3324 0.24879 53.27372 0.0
O83 O 0.24389 0.30682 53.65022 0.0
C84 C 0.42173 0.85733 30.08823 0.0
O85 O 0.40521 0.89102 28.84734 0.0
Cd86 Cd 0.41563 0.88125 25.31348 0.0
O87 O 0.44533 0.81562 29.50152 0.0
Cd88 Cd 0.47382 0.7713 26.41638 0.0
C89 C 0.49826 0.83669 25.33557 0.0
O90 O 0.42178 0.81261 24.49905 0.0
O91 O 0.46766 0.76121 22.88962 0.0
O92 O 0.47816 0.7098 28.16798 0.0
C93 C 0.43579 0.79102 22.88242 0.0
O94 O 0.46778 0.86968 24.84726 0.0
C95 C 0.50779 0.67628 27.58547 0.0
O96 O 0.50696 0.7983 26.06387 0.0
O97 O 0.52247 0.6871 26.5065 0.0
C98 C -0.12499 1.41804 3.15483 0.0
O99 O -0.14271 1.41369 2.00768 0.0
Cd100 Cd -0.14324 1.41967 52.93685 0.0
O101 O -0.10594 1.42619 2.44837 0.0
Cd102 Cd -0.08837 1.43761 53.73936 0.0
C103 C -0.16965 1.53228 52.67209 0.0
O104 O -0.08568 1.37708 52.0221 0.0
O105 O -0.07582 1.41571 50.21064 0.0
O106 O -0.03459 1.3986 0.82202 0.0
C107 C -0.07857 1.38369 50.32273 0.0
O108 O -0.17539 1.50367 52.31991 0.0
C109 C -0.02977 1.42664 0.18459 0.0
O110 O -0.14102 1.51777 53.31186 0.0
O111 O -0.05255 1.4607 53.64018 0.0
C112 C -0.14381 0.8481 6.4988 0.0
C113 C -0.13252 0.80221 6.23117 0.0
C114 C -0.14095 0.86246 8.35715 0.0
C115 C -0.13287 0.82952 13.67253 0.0
H116 H -0.13556 0.93702 14.39076 0.0
C117 C -0.15758 0.91445 21.32962 0.0
C118 C -0.188 0.96081 21.30259 0.0
C119 C -0.14102 0.89171 19.5484 0.0
C120 C -0.13438 0.90659 14.20954 0.0
H121 H -0.10695 0.73415 7.62432 0.0
H122 H -0.10009 0.75822 10.83613 0.0
H123 H -0.12258 0.90033 11.1102 0.0
H124 H -0.22346 1.02105 19.4276 0.0
H125 H -0.19408 0.98156 16.31773 0.0
H126 H -0.14479 0.83607 16.77128 0.0
C127 C -0.11263 0.78397 9.65117 0.0
C128 C -0.1273 0.8858 12.33012 0.0
C129 C -0.11631 0.77001 7.80783 0.0
C130 C -0.20015 0.9852 19.48579 0.0
C131 C -0.18325 0.96276 17.71069 0.0
C132 C -0.1392 0.84965 15.55342 0.0
C133 C -0.12603 0.83088 9.97444 0.0
C134 C -0.12764 0.84801 12.02106 0.0
C135 C -0.15424 0.91534 17.72175 0.0
C136 C -0.14107 0.88923 15.82451 0.0
H137 H -0.15651 0.87362 5.30485 0.0
H138 H -0.15208 0.89903 8.54183 0.0
H139 H -0.13405 0.80117 13.504 0.0
H140 H -0.14766 0.89482 22.71083 0.0
H141 H -0.11867 0.8551 19.5885 0.0
C142 C 0.34977 0.43934 35.02563 0.0
C143 C 0.33519 0.44116 33.21578 0.0
C144 C 0.33192 0.4514 36.806 0.0
C145 C 0.27493 0.4381 38.97671 0.0
H146 H 0.27278 0.50682 43.45442 0.0
C147 C 0.24363 0.41116 46.73074 0.0
C148 C 0.26361 0.40711 48.28859 0.0
C149 C 0.24267 0.43007 44.89963 0.0
C150 C 0.27335 0.48722 42.22408 0.0
H151 H 0.28987 0.45977 31.82367 0.0
H152 H 0.25901 0.47953 34.95545 0.0
H153 H 0.28932 0.51465 40.16434 0.0
H154 H 0.29727 0.42108 49.1979 0.0
H155 H 0.29739 0.45134 45.97621 0.0
H156 H 0.262 0.40731 41.02177 0.0
C157 C 0.28408 0.46926 34.98649 0.0
C158 C 0.2825 0.49213 40.33963 0.0
C159 C 0.30171 0.45801 33.19967 0.0
C160 C 0.28157 0.42398 48.0169 0.0
C161 C 0.28136 0.44174 46.16905 0.0
C162 C 0.26649 0.43241 40.86115 0.0
C163 C 0.29942 0.46476 36.80764 0.0
C164 C 0.28407 0.46678 38.71196 0.0
C165 C 0.26253 0.44398 44.56808 0.0
C166 C 0.26642 0.45593 42.52397 0.0
H167 H 0.37548 0.42672 35.07534 0.0
H168 H 0.3444 0.44724 38.19358 0.0
H169 H 0.27646 0.41759 37.74973 0.0
H170 H 0.22914 0.39902 46.91842 0.0
H171 H 0.22706 0.43251 43.72814 0.0
C172 C 0.38659 0.84974 20.73397 0.0
C173 C 0.41654 0.80381 21.02357 0.0
C174 C 0.37072 0.86354 18.87673 0.0
C175 C 0.39224 0.82861 13.58336 0.0
H176 H 0.29821 0.9366 12.83321 0.0
C177 C 0.34168 0.91238 5.90119 0.0
C178 C 0.3304 0.95868 5.92081 0.0
C179 C 0.34515 0.88998 7.68461 0.0
C180 C 0.32441 0.90602 13.02322 0.0
H181 H 0.45199 0.73514 19.67557 0.0
H182 H 0.42333 0.75826 16.46734 0.0
H183 H 0.31809 0.90076 16.13133 0.0
H184 H 0.31118 1.01922 7.78158 0.0
H185 H 0.31666 0.98032 10.89396 0.0
H186 H 0.39846 0.83423 10.47841 0.0
C187 C 0.41281 0.78445 17.63269 0.0
C188 C 0.33594 0.88571 14.91232 0.0
C189 C 0.42914 0.77104 19.47357 0.0
C190 C 0.32015 0.98339 7.72939 0.0
C191 C 0.32303 0.96129 9.50607 0.0
C192 C 0.38056 0.84828 11.69375 0.0
C193 C 0.38408 0.83134 17.28424 0.0
C194 C 0.3703 0.8478 15.23216 0.0
C195 C 0.33673 0.91389 9.50546 0.0
C196 C 0.34683 0.88806 11.41056 0.0
H197 H 0.37646 0.87569 21.90786 0.0
H198 H 0.34901 0.9001 18.67091 0.0
H199 H 0.41895 0.80012 13.75983 0.0
H200 H 0.34975 0.89252 4.52602 0.0
H201 H 0.35576 0.85339 7.65201 0.0
C202 C -0.0987 1.34586 48.51292 0.0
C203 C -0.08063 1.36302 48.50598 0.0
C204 C -0.10591 1.33437 46.72235 0.0
C205 C -0.0866 1.31171 41.37069 0.0
H206 H -0.18357 1.3963 40.67837 0.0
C207 C -0.14879 1.38063 33.69577 0.0
C208 C -0.18195 1.39756 33.41745 0.0
C209 C -0.13301 1.36258 35.5423 0.0
C210 C -0.15646 1.37126 40.84128 0.0
H211 H -0.05337 1.3777 46.6595 0.0
H212 H -0.06549 1.3568 43.53413 0.0
H213 H -0.15998 1.38586 43.95526 0.0
H214 H -0.22375 1.40546 34.7706 0.0
H215 H -0.19568 1.37145 37.9569 0.0
H216 H -0.08295 1.29725 38.25278 0.0
C217 C -0.07426 1.35257 44.91777 0.0
C218 C -0.14296 1.36547 42.72874 0.0
C219 C -0.06757 1.36486 46.70212 0.0
C220 C -0.19831 1.39328 34.96465 0.0
C221 C -0.18224 1.37406 36.7934 0.0
C222 C -0.10011 1.31671 39.48281 0.0
C223 C -0.09456 1.33895 44.90642 0.0
C224 C -0.10798 1.33691 42.9977 0.0
C225 C -0.14986 1.36011 37.13368 0.0
C226 C -0.13525 1.34793 39.1793 0.0
H227 H -0.10905 1.34406 49.8841 0.0
H228 H -0.1216 1.32389 46.74593 0.0
H229 H -0.05949 1.28929 41.5493 0.0
H230 H -0.13569 1.38371 32.5221 0.0
H231 H -0.10833 1.35295 35.74229 0.0
C232 C 0.42955 0.82857 33.58905 0.0
C233 C 0.41367 0.8663 32.23717 0.0
C234 C 0.42235 0.83676 35.62066 0.0
C235 C 0.3917 0.92643 39.45515 0.0
H236 H 0.38018 0.84814 42.57482 0.0
C237 C 0.3589 0.96032 47.80385 0.0
C238 C 0.37634 0.92067 49.05574 0.0
C239 C 0.36067 0.95511 45.73684 0.0
C240 C 0.38364 0.87002 41.72728 0.0
H241 H 0.37758 0.94226 31.9611 0.0
H242 H 0.3651 0.95649 35.51854 0.0
H243 H 0.38842 0.83657 38.98007 0.0
H244 H 0.4089 0.84446 49.11541 0.0
H245 H 0.41245 0.83536 45.50802 0.0
H246 H 0.38765 0.95926 42.19931 0.0
C247 C 0.38323 0.92061 34.99963 0.0
C248 C 0.38829 0.86344 39.66971 0.0
C249 C 0.39028 0.91242 32.96279 0.0
C250 C 0.3951 0.87573 48.19425 0.0
C251 C 0.39698 0.87053 46.12532 0.0
C252 C 0.3872 0.93287 41.51305 0.0
C253 C 0.39925 0.88284 36.3484 0.0
C254 C 0.39263 0.89134 38.51549 0.0
C255 C 0.38002 0.91015 44.87292 0.0
C256 C 0.38336 0.90452 42.67515 0.0
H257 H 0.44767 0.79258 33.08169 0.0
H258 H 0.43539 0.80699 36.62772 0.0
H259 H 0.39544 0.94802 38.6073 0.0
H260 H 0.344 0.99548 48.4181 0.0
H261 H 0.34685 0.98637 44.81497 0.0
C262 C -0.10513 1.41488 6.60618 0.0
C263 C -0.12715 1.41509 5.3388 0.0
C264 C -0.10814 1.41447 8.6707 0.0
C265 C -0.14594 1.39103 12.66701 0.0
H266 H -0.13773 1.47292 15.76085 0.0
C267 C -0.19006 1.44153 20.82999 0.0
C268 C -0.16897 1.44194 22.16078 0.0
C269 C -0.18306 1.4351 18.79233 0.0
C270 C -0.13968 1.44945 14.92024 0.0
H271 H -0.16924 1.41418 5.24807 0.0
H272 H -0.17489 1.41436 8.85284 0.0
H273 H -0.12892 1.46708 12.17214 0.0
H274 H -0.12383 1.43559 22.39341 0.0
H275 H -0.11172 1.42451 18.83001 0.0
H276 H -0.15738 1.37422 15.42096 0.0
C277 C -0.15494 1.41377 8.24966 0.0
C278 C -0.13458 1.44602 12.86419 0.0
C279 C -0.15182 1.41392 6.18236 0.0
C280 C -0.14062 1.43554 21.40892 0.0
C281 C -0.13375 1.4294 19.36811 0.0
C282 C -0.15121 1.39466 14.72383 0.0
C283 C -0.13335 1.41452 9.51722 0.0
C284 C -0.13777 1.41691 11.71185 0.0
C285 C -0.15495 1.42923 18.03965 0.0
C286 C -0.14827 1.42406 15.86894 0.0
H287 H -0.08564 1.41535 6.00574 0.0
H288 H -0.0907 1.41419 9.60438 0.0
H289 H -0.14808 1.36775 11.82713 0.0
H290 H -0.21208 1.4463 21.35885 0.0
H291 H -0.20006 1.43566 17.80055 0.0
C292 C -0.20239 0.90991 48.78094 0.0
C293 C -0.18415 0.86364 49.49174 0.0
C294 C -0.20296 0.91854 46.74713 0.0
C295 C -0.15711 0.86269 42.05408 0.0
H296 H -0.24319 0.95931 39.57041 0.0
C297 C -0.17587 0.87788 33.53525 0.0
C298 C -0.1979 0.92305 32.69536 0.0
C299 C -0.17281 0.87203 35.60102 0.0
C300 C -0.21886 0.93271 40.24374 0.0
H301 H -0.15184 0.79012 48.62313 0.0
H302 H -0.15293 0.8053 45.07881 0.0
H303 H -0.2404 0.94682 43.15485 0.0
H304 H -0.23324 0.99763 33.36945 0.0
H305 H -0.22743 0.98742 36.96969 0.0
H306 H -0.13554 0.84847 39.14448 0.0
C307 C -0.1666 0.83484 46.09686 0.0
C308 C -0.21729 0.92553 42.29743 0.0
C309 C -0.16618 0.8262 48.12694 0.0
C310 C -0.21622 0.9623 33.96689 0.0
C311 C -0.21303 0.95645 36.03205 0.0
C312 C -0.15863 0.87002 40.00087 0.0
C313 C -0.18513 0.88109 45.38475 0.0
C314 C -0.18646 0.89016 43.22066 0.0
C315 C -0.19158 0.91123 36.87382 0.0
C316 C -0.18958 0.90484 39.06894 0.0
H317 H -0.21645 0.93954 49.79209 0.0
H318 H -0.21722 0.95454 46.24108 0.0
H319 H -0.13291 0.8356 42.73106 0.0
H320 H -0.16146 0.84688 32.59932 0.0
H321 H -0.15638 0.83667 36.1994 0.0
C322 C 0.35933 0.38701 20.53613 0.0
C323 C 0.33602 0.39097 21.83397 0.0
C324 C 0.35586 0.38638 18.47418 0.0
C325 C 0.31963 0.35675 14.7431 0.0
H326 H 0.33288 0.42611 11.09728 0.0
C327 C 0.29421 0.36432 6.35543 0.0
C328 C 0.31697 0.36106 5.03475 0.0
C329 C 0.29576 0.37015 8.39432 0.0
C330 C 0.3295 0.40611 12.09498 0.0
H331 H 0.29027 0.39862 21.97755 0.0
H332 H 0.28432 0.39748 18.38233 0.0
H333 H 0.33677 0.43304 14.68572 0.0
H334 H 0.35915 0.36161 4.82185 0.0
H335 H 0.3623 0.37082 8.39038 0.0
H336 H 0.31293 0.32913 12.16844 0.0
C337 C 0.30542 0.39444 18.9634 0.0
C338 C 0.33164 0.41019 14.14813 0.0
C339 C 0.30876 0.39535 21.02271 0.0
C340 C 0.34118 0.36413 5.79857 0.0
C341 C 0.34286 0.36968 7.84307 0.0
C342 C 0.31769 0.35245 12.69445 0.0
C343 C 0.32914 0.38941 17.66944 0.0
C344 C 0.32663 0.38564 15.49154 0.0
C345 C 0.32026 0.37253 9.16553 0.0
C346 C 0.32249 0.37717 11.34489 0.0
H347 H 0.38058 0.38366 21.11123 0.0
H348 H 0.37464 0.38215 17.51186 0.0
H349 H 0.31626 0.33675 15.74253 0.0
H350 H 0.27505 0.36251 5.81608 0.0
H351 H 0.27757 0.37308 9.36568 0.0
C352 C 0.49317 0.88974 3.08236 0.0
C353 C 0.46672 0.9287 1.98544 0.0
C354 C 0.52418 0.8803 3.24591 0.0
C355 C 0.56609 0.93345 2.47728 0.0
H356 H -0.35298 0.80301 2.30059 0.0
C357 C -0.28151 0.81724 1.06553 0.0
C358 C -0.276 0.84504 2.11737 0.0
C359 C -0.31265 0.82682 1.17135 0.0
C360 C -0.37524 0.83965 2.33365 0.0
H361 H 0.45196 0.98858 0.21452 0.0
H362 H 0.50635 0.97134 0.44426 0.0
H363 H 0.5919 0.82202 2.2012 0.0
H364 H -0.29837 0.90357 4.16557 0.0
H365 H -0.35218 0.91925 4.40597 0.0
H366 H -0.40107 0.95118 2.50613 0.0
C367 C 0.50297 0.94865 1.22221 0.0
C368 C 0.59299 0.85057 2.30855 0.0
C369 C 0.47178 0.95845 1.08079 0.0
C370 C -0.30194 0.88178 3.32052 0.0
C371 C -0.3329 0.89097 3.44733 0.0
C372 C -0.40214 0.92255 2.47951 0.0
C373 C 0.52967 0.90922 2.29403 0.0
C374 C 0.56331 0.89763 2.37485 0.0
C375 C -0.33885 0.86405 2.35261 0.0
C376 C -0.37246 0.87551 2.40258 0.0
H377 H 0.48995 0.8664 3.81413 0.0
H378 H 0.54387 0.85024 4.11972 0.0
H379 H 0.54385 0.97004 2.55769 0.0
H380 H -0.26208 0.78885 0.1155 0.0
H381 H -0.31641 0.80576 0.28361 0.0
C382 C -0.24015 1.63852 29.50758 0.0
C383 C -0.2584 1.62201 29.21399 0.0
C384 C -0.25672 1.68665 29.59803 0.0
C385 C 0.47073 0.00694 30.59646 0.0
H386 H 0.50594 0.05532 27.37182 0.0
C387 C 0.39701 0.20557 29.33199 0.0
C388 C 0.41524 0.2224 29.18098 0.0
C389 C 0.41375 0.15738 29.44378 0.0
C390 C 0.49606 0.04239 28.30839 0.0
H391 H -0.30848 1.64321 28.82912 0.0
H392 H -0.33748 1.72754 29.00604 0.0
H393 H -0.2745 1.76567 27.38199 0.0
H394 H 0.46543 0.2018 29.09025 0.0
H395 H 0.49469 0.11777 29.33981 0.0
H396 H 0.43248 0.07781 31.54583 0.0
C397 C -0.31031 1.70301 29.1635 0.0
C398 C -0.29665 1.78859 28.30616 0.0
C399 C -0.29369 1.65477 29.05253 0.0
C400 C 0.45063 0.18998 29.18912 0.0
C401 C 0.46739 0.14176 29.31999 0.0
C402 C 0.45454 0.05507 30.61472 0.0
C403 C -0.29192 1.71937 29.41585 0.0
C404 C -0.30921 1.77042 29.44366 0.0
C405 C 0.44916 0.12482 29.42627 0.0
C406 C 0.46692 0.07344 29.46306 0.0
H407 H -0.21295 1.61431 29.63902 0.0
H408 H -0.24197 1.69831 29.81503 0.0
H409 H -0.3483 1.78806 31.50464 0.0
H410 H 0.36971 0.22956 29.31894 0.0
H411 H 0.39886 0.14566 29.49303 0.0
C412 C -0.32707 0.95825 26.20436 0.0
C413 C -0.29515 0.92864 25.30385 0.0
C414 C -0.34923 0.94812 26.06977 0.0
C415 C -0.35045 0.84964 25.00013 0.0
H416 H 0.55289 0.95005 24.75201 0.0
C417 C 0.5165 0.88069 23.91336 0.0
C418 C 0.52341 0.84419 25.12388 0.0
C419 C 0.53927 0.88971 23.79622 0.0
C420 C 0.57977 0.92146 24.7929 0.0
H421 H -0.26192 0.86611 23.49467 0.0
H422 H -0.30094 0.84934 23.20162 0.0
H423 H -0.40914 0.96906 24.71749 0.0
H424 H 0.55983 0.78815 27.14428 0.0
H425 H 0.59911 0.80477 26.99233 0.0
H426 H -0.36133 0.80196 25.00484 0.0
C427 C -0.30853 0.87959 24.06589 0.0
C428 C -0.39835 0.93246 24.80528 0.0
C429 C -0.28622 0.88939 24.22217 0.0
C430 C 0.55387 0.81636 26.18886 0.0
C431 C 0.57647 0.82579 26.0928 0.0
C432 C -0.37215 0.83862 24.9652 0.0
C433 C -0.34016 0.90847 25.00922 0.0
C434 C -0.36327 0.89672 24.92485 0.0
C435 C 0.56931 0.86288 24.90864 0.0
C436 C 0.59257 0.8744 24.87591 0.0
H437 H -0.33462 0.98861 27.05959 0.0
H438 H -0.37314 0.97078 26.84165 0.0
H439 H -0.32362 0.82117 25.12036 0.0
H440 H 0.49339 0.90247 23.05735 0.0
H441 H 0.53323 0.91785 22.83343 0.0
C442 C -0.22599 1.59929 51.29633 0.0
C443 C -0.1972 1.58324 52.40856 0.0
C444 C -0.25285 1.64734 51.13279 0.0
C445 C -0.27646 1.76541 51.93994 0.0
H446 H 0.44205 0.0107 52.06947 0.0
C447 C 0.38711 0.1502 53.35802 0.0
C448 C 0.38816 0.18272 52.33241 0.0
C449 C 0.41408 0.10207 53.23787 0.0
C450 C 0.46714 0.00033 52.04966 0.0
H451 H -0.1744 1.60546 -0.29859 0.0
H452 H -0.22112 1.68869 53.97756 0.0
H453 H -0.31896 1.72176 52.15756 0.0
H454 H 0.41772 0.1902 50.31391 0.0
H455 H 0.46415 0.10633 50.04753 0.0
H456 H 0.50968 0.044 51.9373 0.0
C457 C -0.2227 1.66434 53.18724 0.0
C458 C -0.31428 1.74676 52.06815 0.0
C459 C -0.19563 1.61629 53.32868 0.0
C460 C 0.4163 0.16605 51.13933 0.0
C461 C 0.44305 0.11792 50.99762 0.0
C462 C 0.50497 0.01898 51.9447 0.0
C463 C -0.25178 1.68048 52.09982 0.0
C464 C -0.28118 1.7315 52.01995 0.0
C465 C 0.44252 0.08532 52.06754 0.0
C466 C 0.47188 0.03426 52.00569 0.0
H467 H -0.22783 1.57471 50.55294 0.0
H468 H -0.27448 1.65844 50.24741 0.0
H469 H -0.25139 1.75504 51.87329 0.0
H470 H 0.36535 0.1624 -0.20623 0.0
H471 H 0.41295 0.07815 54.10693 0.0
C472 C -0.07826 0.58844 0.5675 0.0
C473 C -0.0813 0.62291 53.91433 0.0
C474 C -0.048 0.54224 0.5446 0.0
C475 C 0.03566 0.4611 52.49891 0.0
H476 H 0.07069 0.42548 3.36927 0.0
C477 C 0.16406 0.38919 1.82445 0.0
C478 C 0.18739 0.35328 0.49833 0.0
C479 C 0.13069 0.40654 1.8424 0.0
C480 C 0.06105 0.43456 1.85938 0.0
H481 H -0.05733 0.63608 51.69016 0.0
H482 H -0.00481 0.55594 51.6474 0.0
H483 H 0.0104 0.48667 2.85555 0.0
H484 H 0.19536 0.30425 52.77069 0.0
H485 H 0.13673 0.33501 52.79066 0.0
H486 H 0.08664 0.41176 51.50494 0.0
C487 C -0.02519 0.56389 52.57419 0.0
C488 C 0.02645 0.46933 1.56273 0.0
C489 C -0.05523 0.61001 52.61015 0.0
C490 C 0.17786 0.33212 53.80382 0.0
C491 C 0.1443 0.34981 53.80882 0.0
C492 C 0.07026 0.42629 52.79556 0.0
C493 C -0.02049 0.52971 53.85124 0.0
C494 C 0.0134 0.4849 -0.37233 0.0
C495 C 0.11986 0.38856 0.52488 0.0
C496 C 0.08322 0.41469 0.22763 0.0
H497 H -0.09801 0.59734 1.58256 0.0
H498 H -0.04518 0.51653 1.53123 0.0
H499 H 0.02623 0.47192 50.99041 0.0
H500 H 0.17113 0.40564 2.77608 0.0
H501 H 0.11288 0.43638 2.78836 0.0
C502 C 0.5487 0.59063 26.74369 0.0
C503 C 0.52242 0.62694 27.94695 0.0
C504 C 0.55718 0.54606 26.77858 0.0
C505 C 0.53995 0.47287 29.37963 0.0
H506 H 0.52989 0.44395 24.01474 0.0
C507 C 0.46243 0.4205 25.61649 0.0
C508 C 0.46985 0.38464 26.88961 0.0
C509 C 0.48266 0.4339 25.61021 0.0
C510 C 0.53323 0.45104 25.52054 0.0
H511 H 0.48685 0.64395 30.27208 0.0
H512 H 0.50148 0.56672 30.33414 0.0
H513 H 0.54195 0.49795 24.51326 0.0
H514 H 0.50557 0.33244 29.05752 0.0
H515 H 0.54088 0.3563 29.05938 0.0
H516 H 0.52841 0.429 30.38813 0.0
C517 C 0.51565 0.57225 29.3619 0.0
C518 C 0.5405 0.48162 25.80819 0.0
C519 C 0.50702 0.61675 29.31543 0.0
C520 C 0.49916 0.36036 28.06509 0.0
C521 C 0.51931 0.37407 28.07179 0.0
C522 C 0.53269 0.44226 29.0916 0.0
C523 C 0.53975 0.53704 28.0319 0.0
C524 C 0.54214 0.4948 27.74303 0.0
C525 C 0.51068 0.41191 26.88605 0.0
C526 C 0.52748 0.43304 27.16075 0.0
H527 H 0.56113 0.59744 25.67949 0.0
H528 H 0.57611 0.51944 25.7521 0.0
H529 H 0.54159 0.48184 30.88739 0.0
H530 H 0.44011 0.43968 24.68602 0.0
H531 H 0.47504 0.46356 24.69638 0.0
C532 C 0.24613 1.16684 52.67232 0.0
C533 C 0.27185 1.15327 54.02122 0.0
C534 C 0.21612 1.21296 52.64894 0.0
C535 C 0.16258 1.30671 1.68825 0.0
H536 H 0.10418 1.36371 51.59684 0.0
C537 C 0.01259 1.43827 53.82453 0.0
C538 C 0.00283 1.41663 0.49444 0.0
C539 C 0.04572 1.42231 53.86085 0.0
C540 C 0.1203 1.34917 52.89896 0.0
H541 H 0.28698 1.17854 1.78814 0.0
H542 H 0.23416 1.25943 1.75797 0.0
H543 H 0.16478 1.30523 51.11546 0.0
H544 H 0.02002 1.36355 2.75608 0.0
H545 H 0.07751 1.33567 2.81542 0.0
H546 H 0.11795 1.34895 3.47012 0.0
C547 C 0.23724 1.23422 0.7265 0.0
C548 C 0.15504 1.31528 52.62075 0.0
C549 C 0.26748 1.18799 0.73863 0.0
C550 C 0.02648 1.381 1.82137 0.0
C551 C 0.05941 1.36533 1.86847 0.0
C552 C 0.12785 1.34066 1.96648 0.0
C553 C 0.21107 1.24652 53.98216 0.0
C554 C 0.17604 1.29199 -0.24272 0.0
C555 C 0.0695 1.38478 0.58192 0.0
C556 C 0.10596 1.36043 0.32038 0.0
H557 H 0.24848 1.14127 51.70124 0.0
H558 H 0.196 1.22133 51.68216 0.0
H559 H 0.17843 1.28916 2.98748 0.0
H560 H -0.00519 1.46601 52.79347 0.0
H561 H 0.0527 1.43824 52.8659 0.0
C562 C -0.3314 1.46492 27.81681 0.0
C563 C -0.30347 1.44739 26.58646 0.0
C564 C -0.34699 1.4443 27.79011 0.0
C565 C -0.34801 1.35504 25.17514 0.0
H566 H -0.34428 1.31233 30.53382 0.0
C567 C -0.29447 1.17269 28.8999 0.0
C568 C -0.30751 1.15712 27.63165 0.0
C569 C -0.30831 1.21986 28.9138 0.0
C570 C -0.34592 1.32439 29.02997 0.0
H571 H -0.27221 1.39808 24.22305 0.0
H572 H -0.29916 1.36222 24.17607 0.0
H573 H -0.34374 1.37776 30.04122 0.0
H574 H -0.3467 1.17921 25.47962 0.0
H575 H -0.37076 1.26191 25.49192 0.0
H576 H -0.34728 1.29903 24.16053 0.0
C577 C -0.3092 1.39175 25.16316 0.0
C578 C -0.34599 1.36226 28.74599 0.0
C579 C -0.2935 1.41205 25.2009 0.0
C580 C -0.33603 1.1902 26.46784 0.0
C581 C -0.34975 1.23748 26.46931 0.0
C582 C -0.34793 1.31714 25.45949 0.0
C583 C -0.33511 1.40618 26.51876 0.0
C584 C -0.3452 1.37632 26.81183 0.0
C585 C -0.33539 1.25251 27.65123 0.0
C586 C -0.34505 1.29987 27.38684 0.0
H587 H -0.33973 1.49232 28.89464 0.0
H588 H -0.36715 1.45649 28.83636 0.0
H589 H -0.34795 1.36559 23.66809 0.0
H590 H -0.27262 1.14808 29.82158 0.0
H591 H -0.29633 1.23007 29.82384 0.0
loop_
_geom_bond_atom_site_label_1
_geom_bond_atom_site_label_2
_geom_bond_distance
_geom_bond_site_symmetry_2
_ccdc_geom_bond_type
C0 O1 1.306 . S
C0 O3 1.160 . S
O1 C0 1.306 . S
O1 Cd2 2.228 1_556 S
Cd2 O1 2.228 1_554 S
Cd2 O6 2.273 . S
Cd2 O10 2.277 . S
O3 C0 1.160 . S
O3 Cd4 2.203 1_556 S
Cd4 O3 2.203 1_554 S
Cd4 O6 2.411 . S
Cd4 O7 2.333 . S
Cd4 O8 2.352 . S
Cd4 O12 2.277 . S
Cd4 O13 2.356 . S
C5 O10 1.209 . S
C5 O12 1.226 . S
O6 Cd2 2.273 . S
O6 Cd4 2.411 . S
O6 C9 1.320 . S
O7 Cd4 2.333 . S
O7 C9 1.214 . S
O8 Cd4 2.352 . S
O8 C11 1.258 . S
C9 O6 1.320 . S
C9 O7 1.214 . S
O10 Cd2 2.277 . S
O10 C5 1.209 . S
C11 O8 1.258 . S
C11 O13 1.282 . S
O12 Cd4 2.277 . S
O12 C5 1.226 . S
O13 Cd4 2.356 . S
O13 C11 1.282 . S
C14 O15 1.306 . S
C14 O17 1.160 . S
O15 C14 1.306 . S
O15 Cd16 2.228 . S
Cd16 O15 2.228 . S
Cd16 O20 2.273 . S
Cd16 O24 2.277 . S
O17 C14 1.160 . S
O17 Cd18 2.203 . S
Cd18 O17 2.203 . S
Cd18 O20 2.411 . S
Cd18 O21 2.333 . S
Cd18 O22 2.352 . S
Cd18 O26 2.277 . S
Cd18 O27 2.356 . S
C19 O24 1.209 . S
C19 O26 1.226 . S
O20 Cd16 2.273 . S
O20 Cd18 2.411 . S
O20 C23 1.320 . S
O21 Cd18 2.333 . S
O21 C23 1.214 . S
O22 Cd18 2.352 . S
O22 C25 1.258 . S
C23 O20 1.320 . S
C23 O21 1.214 . S
O24 Cd16 2.277 . S
O24 C19 1.209 . S
C25 O22 1.258 . S
C25 O27 1.282 . S
O26 Cd18 2.277 . S
O26 C19 1.226 . S
O27 Cd18 2.356 . S
O27 C25 1.282 . S
C28 O29 1.306 . S
C28 O31 1.160 . S
O29 C28 1.306 . S
O29 Cd30 2.228 1_556 S
Cd30 O29 2.228 1_554 S
Cd30 O34 2.273 . S
Cd30 O38 2.277 . S
O31 C28 1.160 . S
O31 Cd32 2.203 1_556 S
Cd32 O31 2.203 1_554 S
Cd32 O34 2.411 . S
Cd32 O35 2.333 . S
Cd32 O36 2.352 . S
Cd32 O40 2.277 . S
Cd32 O41 2.356 . S
C33 O38 1.209 . S
C33 O40 1.226 . S
O34 Cd30 2.273 . S
O34 Cd32 2.411 . S
O34 C37 1.320 . S
O35 Cd32 2.333 . S
O35 C37 1.214 . S
O36 Cd32 2.352 . S
O36 C39 1.258 . S
C37 O34 1.320 . S
C37 O35 1.214 . S
O38 Cd30 2.277 . S
O38 C33 1.209 . S
C39 O36 1.258 . S
C39 O41 1.282 . S
O40 Cd32 2.277 . S
O40 C33 1.226 . S
O41 Cd32 2.356 . S
O41 C39 1.282 . S
C42 O43 1.306 . S
C42 O45 1.160 . S
O43 C42 1.306 . S
O43 Cd44 2.228 . S
Cd44 O43 2.228 . S
Cd44 O48 2.273 . S
Cd44 O52 2.277 . S
O45 C42 1.160 . S
O45 Cd46 2.203 . S
Cd46 O45 2.203 . S
Cd46 O48 2.411 . S
Cd46 O49 2.333 . S
Cd46 O50 2.352 . S
Cd46 O54 2.277 . S
Cd46 O55 2.356 . S
C47 O52 1.209 . S
C47 O54 1.226 . S
O48 Cd44 2.273 . S
O48 Cd46 2.411 . S
O48 C51 1.320 . S
O49 Cd46 2.333 . S
O49 C51 1.214 . S
O50 Cd46 2.352 . S
O50 C53 1.258 . S
C51 O48 1.320 . S
C51 O49 1.214 . S
O52 Cd44 2.277 . S
O52 C47 1.209 . S
C53 O50 1.258 . S
C53 O55 1.282 . S
O54 Cd46 2.277 . S
O54 C47 1.226 . S
O55 Cd46 2.356 . S
O55 C53 1.282 . S
C56 O57 1.306 . S
C56 O59 1.160 . S
O57 C56 1.306 . S
O57 Cd58 2.228 . S
Cd58 O57 2.228 . S
Cd58 O62 2.273 . S
Cd58 O66 2.277 . S
O59 C56 1.160 . S
O59 Cd60 2.203 . S
Cd60 O59 2.203 . S
Cd60 O62 2.411 . S
Cd60 O63 2.333 . S
Cd60 O64 2.352 . S
Cd60 O68 2.277 . S
Cd60 O69 2.356 . S
C61 O66 1.209 . S
C61 O68 1.226 . S
O62 Cd58 2.273 . S
O62 Cd60 2.411 . S
O62 C65 1.320 . S
O63 Cd60 2.333 . S
O63 C65 1.214 . S
O64 Cd60 2.352 . S
O64 C67 1.258 . S
C65 O62 1.320 . S
C65 O63 1.214 . S
O66 Cd58 2.277 . S
O66 C61 1.209 . S
C67 O64 1.258 . S
C67 O69 1.282 . S
O68 Cd60 2.277 . S
O68 C61 1.226 . S
O69 Cd60 2.356 . S
O69 C67 1.282 . S
C70 O71 1.306 . S
C70 O73 1.160 . S
O71 C70 1.306 . S
O71 Cd72 2.253 . S
Cd72 O71 2.253 . S
Cd72 O76 2.260 1_554 S
Cd72 O80 2.278 . S
O73 C70 1.160 . S
O73 Cd74 2.203 . S
Cd74 O73 2.203 . S
Cd74 O76 2.411 1_554 S
Cd74 O77 2.333 1_554 S
Cd74 O78 2.352 . S
Cd74 O82 2.277 . S
Cd74 O83 2.356 1_554 S
C75 O80 1.209 . S
C75 O82 1.226 . S
O76 Cd72 2.260 1_556 S
O76 Cd74 2.411 1_556 S
O76 C79 1.320 . S
O77 Cd74 2.333 1_556 S
O77 C79 1.214 . S
O78 Cd74 2.352 . S
O78 C81 1.258 . S
C79 O76 1.320 . S
C79 O77 1.214 . S
O80 Cd72 2.278 . S
O80 C75 1.209 . S
C81 O78 1.258 . S
C81 O83 1.282 1_554 S
O82 Cd74 2.277 . S
O82 C75 1.226 . S
O83 Cd74 2.356 1_556 S
O83 C81 1.282 1_556 S
C84 O85 1.306 . S
C84 O87 1.160 . S
O85 C84 1.306 . S
O85 Cd86 2.228 . S
Cd86 O85 2.228 . S
Cd86 O90 2.273 . S
Cd86 O94 2.277 . S
O87 C84 1.160 . S
O87 Cd88 2.203 . S
Cd88 O87 2.203 . S
Cd88 O90 2.411 . S
Cd88 O91 2.333 . S
Cd88 O92 2.352 . S
Cd88 O96 2.277 . S
Cd88 O97 2.356 . S
C89 O94 1.209 . S
C89 O96 1.226 . S
O90 Cd86 2.273 . S
O90 Cd88 2.411 . S
O90 C93 1.320 . S
O91 Cd88 2.333 . S
O91 C93 1.214 . S
O92 Cd88 2.352 . S
O92 C95 1.258 . S
C93 O90 1.320 . S
C93 O91 1.214 . S
O94 Cd86 2.277 . S
O94 C89 1.209 . S
C95 O92 1.258 . S
C95 O97 1.282 . S
O96 Cd88 2.277 . S
O96 C89 1.226 . S
O97 Cd88 2.356 . S
O97 C95 1.282 . S
C98 O99 1.306 . S
C98 O101 1.160 . S
O99 C98 1.306 . S
O99 Cd100 2.253 . S
Cd100 O99 2.253 . S
Cd100 O104 2.260 1_554 S
Cd100 O108 2.278 . S
O101 C98 1.160 . S
O101 Cd102 2.203 . S
Cd102 O101 2.203 . S
Cd102 O104 2.411 1_554 S
Cd102 O105 2.333 1_554 S
Cd102 O106 2.352 . S
Cd102 O110 2.277 . S
Cd102 O111 2.356 1_554 S
C103 O108 1.209 . S
C103 O110 1.226 . S
O104 Cd100 2.260 1_556 S
O104 Cd102 2.411 1_556 S
O104 C107 1.320 . S
O105 Cd102 2.333 1_556 S
O105 C107 1.214 . S
O106 Cd102 2.352 . S
O106 C109 1.258 . S
C107 O104 1.320 . S
C107 O105 1.214 . S
O108 Cd100 2.278 . S
O108 C103 1.209 . S
C109 O106 1.258 . S
C109 O111 1.282 1_554 S
O110 Cd102 2.277 . S
O110 C103 1.226 . S
O111 Cd102 2.356 1_556 S
O111 C109 1.282 1_556 S
C112 C113 1.349 . S
C112 C114 1.327 . S
C112 H137 0.950 . S
C113 C112 1.349 . S
C113 C129 1.349 . S
C114 C112 1.327 . S
C114 C133 1.429 . S
C114 H138 0.950 . S
C115 C132 1.574 . S
C115 C134 1.368 . S
C115 H139 0.949 . S
H116 C120 0.949 . S
C117 C118 1.349 . S
C117 C119 1.327 . S
C117 H140 0.950 . S
C118 C117 1.349 . S
C118 C130 1.349 . S
C119 C117 1.327 . S
C119 C135 1.429 . S
C119 H141 0.950 . S
C120 H116 0.949 . S
C120 C128 1.574 . S
C120 C136 1.368 . S
H121 C129 0.950 . S
H122 C127 0.950 . S
H123 C128 0.949 . S
H124 C130 0.950 . S
H125 C131 0.950 . S
H126 C132 0.949 . S
C127 H122 0.950 . S
C127 C129 1.327 . S
C127 C133 1.429 . S
C128 C120 1.574 . S
C128 H123 0.949 . S
C128 C134 1.368 . S
C129 C113 1.349 . S
C129 H121 0.950 . S
C129 C127 1.327 . S
C130 C118 1.349 . S
C130 H124 0.950 . S
C130 C131 1.327 . S
C131 H125 0.950 . S
C131 C130 1.327 . S
C131 C135 1.429 . S
C132 C115 1.574 . S
C132 H126 0.949 . S
C132 C136 1.368 . S
C133 C114 1.429 . S
C133 C127 1.429 . S
C133 C134 1.523 . S
C134 C115 1.368 . S
C134 C128 1.368 . S
C134 C133 1.523 . S
C135 C119 1.429 . S
C135 C131 1.429 . S
C135 C136 1.523 . S
C136 C120 1.368 . S
C136 C132 1.368 . S
C136 C135 1.523 . S
H137 C112 0.950 . S
H138 C114 0.950 . S
H139 C115 0.949 . S
H140 C117 0.950 . S
H141 C119 0.950 . S
C142 C143 1.349 . S
C142 C144 1.327 . S
C142 H167 0.950 . S
C143 C142 1.349 . S
C143 C159 1.349 . S
C144 C142 1.327 . S
C144 C163 1.429 . S
C144 H168 0.950 . S
C145 C162 1.574 . S
C145 C164 1.368 . S
C145 H169 0.949 . S
H146 C150 0.949 . S
C147 C148 1.349 . S
C147 C149 1.327 . S
C147 H170 0.950 . S
C148 C147 1.349 . S
C148 C160 1.349 . S
C149 C147 1.327 . S
C149 C165 1.429 . S
C149 H171 0.950 . S
C150 H146 0.949 . S
C150 C158 1.574 . S
C150 C166 1.368 . S
H151 C159 0.950 . S
H152 C157 0.950 . S
H153 C158 0.949 . S
H154 C160 0.950 . S
H155 C161 0.950 . S
H156 C162 0.949 . S
C157 H152 0.950 . S
C157 C159 1.327 . S
C157 C163 1.429 . S
C158 C150 1.574 . S
C158 H153 0.949 . S
C158 C164 1.368 . S
C159 C143 1.349 . S
C159 H151 0.950 . S
C159 C157 1.327 . S
C160 C148 1.349 . S
C160 H154 0.950 . S
C160 C161 1.327 . S
C161 H155 0.950 . S
C161 C160 1.327 . S
C161 C165 1.429 . S
C162 C145 1.574 . S
C162 H156 0.949 . S
C162 C166 1.368 . S
C163 C144 1.429 . S
C163 C157 1.429 . S
C163 C164 1.523 . S
C164 C145 1.368 . S
C164 C158 1.368 . S
C164 C163 1.523 . S
C165 C149 1.429 . S
C165 C161 1.429 . S
C165 C166 1.523 . S
C166 C150 1.368 . S
C166 C162 1.368 . S
C166 C165 1.523 . S
H167 C142 0.950 . S
H168 C144 0.950 . S
H169 C145 0.949 . S
H170 C147 0.950 . S
H171 C149 0.950 . S
C172 C173 1.349 . S
C172 C174 1.327 . S
C172 H197 0.950 . S
C173 C172 1.349 . S
C173 C189 1.349 . S
C174 C172 1.327 . S
C174 C193 1.429 . S
C174 H198 0.950 . S
C175 C192 1.574 . S
C175 C194 1.368 . S
C175 H199 0.949 . S
H176 C180 0.949 . S
C177 C178 1.349 . S
C177 C179 1.327 . S
C177 H200 0.950 . S
C178 C177 1.349 . S
C178 C190 1.349 . S
C179 C177 1.327 . S
C179 C195 1.429 . S
C179 H201 0.950 . S
C180 H176 0.949 . S
C180 C188 1.574 . S
C180 C196 1.368 . S
H181 C189 0.950 . S
H182 C187 0.950 . S
H183 C188 0.949 . S
H184 C190 0.950 . S
H185 C191 0.950 . S
H186 C192 0.949 . S
C187 H182 0.950 . S
C187 C189 1.327 . S
C187 C193 1.429 . S
C188 C180 1.574 . S
C188 H183 0.949 . S
C188 C194 1.368 . S
C189 C173 1.349 . S
C189 H181 0.950 . S
C189 C187 1.327 . S
C190 C178 1.349 . S
C190 H184 0.950 . S
C190 C191 1.327 . S
C191 H185 0.950 . S
C191 C190 1.327 . S
C191 C195 1.429 . S
C192 C175 1.574 . S
C192 H186 0.949 . S
C192 C196 1.368 . S
C193 C174 1.429 . S
C193 C187 1.429 . S
C193 C194 1.523 . S
C194 C175 1.368 . S
C194 C188 1.368 . S
C194 C193 1.523 . S
C195 C179 1.429 . S
C195 C191 1.429 . S
C195 C196 1.523 . S
C196 C180 1.368 . S
C196 C192 1.368 . S
C196 C195 1.523 . S
H197 C172 0.950 . S
H198 C174 0.950 . S
H199 C175 0.949 . S
H200 C177 0.950 . S
H201 C179 0.950 . S
C202 C203 1.349 . S
C202 C204 1.327 . S
C202 H227 0.950 . S
C203 C202 1.349 . S
C203 C219 1.349 . S
C204 C202 1.327 . S
C204 C223 1.429 . S
C204 H228 0.950 . S
C205 C222 1.574 . S
C205 C224 1.368 . S
C205 H229 0.949 . S
H206 C210 0.949 . S
C207 C208 1.349 . S
C207 C209 1.327 . S
C207 H230 0.950 . S
C208 C207 1.349 . S
C208 C220 1.349 . S
C209 C207 1.327 . S
C209 C225 1.429 . S
C209 H231 0.950 . S
C210 H206 0.949 . S
C210 C218 1.574 . S
C210 C226 1.368 . S
H211 C219 0.950 . S
H212 C217 0.950 . S
H213 C218 0.949 . S
H214 C220 0.950 . S
H215 C221 0.950 . S
H216 C222 0.949 . S
C217 H212 0.950 . S
C217 C219 1.327 . S
C217 C223 1.429 . S
C218 C210 1.574 . S
C218 H213 0.949 . S
C218 C224 1.368 . S
C219 C203 1.349 . S
C219 H211 0.950 . S
C219 C217 1.327 . S
C220 C208 1.349 . S
C220 H214 0.950 . S
C220 C221 1.327 . S
C221 H215 0.950 . S
C221 C220 1.327 . S
C221 C225 1.429 . S
C222 C205 1.574 . S
C222 H216 0.949 . S
C222 C226 1.368 . S
C223 C204 1.429 . S
C223 C217 1.429 . S
C223 C224 1.523 . S
C224 C205 1.368 . S
C224 C218 1.368 . S
C224 C223 1.523 . S
C225 C209 1.429 . S
C225 C221 1.429 . S
C225 C226 1.523 . S
C226 C210 1.368 . S
C226 C222 1.368 . S
C226 C225 1.523 . S
H227 C202 0.950 . S
H228 C204 0.950 . S
H229 C205 0.949 . S
H230 C207 0.950 . S
H231 C209 0.950 . S
C232 C233 1.349 . S
C232 C234 1.327 . S
C232 H257 0.950 . S
C233 C232 1.349 . S
C233 C249 1.349 . S
C234 C232 1.327 . S
C234 C253 1.429 . S
C234 H258 0.950 . S
C235 C252 1.574 . S
C235 C254 1.368 . S
C235 H259 0.949 . S
H236 C240 0.949 . S
C237 C238 1.349 . S
C237 C239 1.327 . S
C237 H260 0.950 . S
C238 C237 1.349 . S
C238 C250 1.349 . S
C239 C237 1.327 . S
C239 C255 1.429 . S
C239 H261 0.950 . S
C240 H236 0.949 . S
C240 C248 1.574 . S
C240 C256 1.368 . S
H241 C249 0.950 . S
H242 C247 0.950 . S
H243 C248 0.949 . S
H244 C250 0.950 . S
H245 C251 0.950 . S
H246 C252 0.949 . S
C247 H242 0.950 . S
C247 C249 1.327 . S
C247 C253 1.429 . S
C248 C240 1.574 . S
C248 H243 0.949 . S
C248 C254 1.368 . S
C249 C233 1.349 . S
C249 H241 0.950 . S
C249 C247 1.327 . S
C250 C238 1.349 . S
C250 H244 0.950 . S
C250 C251 1.327 . S
C251 H245 0.950 . S
C251 C250 1.327 . S
C251 C255 1.429 . S
C252 C235 1.574 . S
C252 H246 0.949 . S
C252 C256 1.368 . S
C253 C234 1.429 . S
C253 C247 1.429 . S
C253 C254 1.523 . S
C254 C235 1.368 . S
C254 C248 1.368 . S
C254 C253 1.523 . S
C255 C239 1.429 . S
C255 C251 1.429 . S
C255 C256 1.523 . S
C256 C240 1.368 . S
C256 C252 1.368 . S
C256 C255 1.523 . S
H257 C232 0.950 . S
H258 C234 0.950 . S
H259 C235 0.949 . S
H260 C237 0.950 . S
H261 C239 0.950 . S
C262 C263 1.349 . S
C262 C264 1.327 . S
C262 H287 0.950 . S
C263 C262 1.349 . S
C263 C279 1.349 . S
C264 C262 1.327 . S
C264 C283 1.429 . S
C264 H288 0.950 . S
C265 C282 1.574 . S
C265 C284 1.368 . S
C265 H289 0.949 . S
H266 C270 0.949 . S
C267 C268 1.349 . S
C267 C269 1.327 . S
C267 H290 0.950 . S
C268 C267 1.349 . S
C268 C280 1.349 . S
C269 C267 1.327 . S
C269 C285 1.429 . S
C269 H291 0.950 . S
C270 H266 0.949 . S
C270 C278 1.574 . S
C270 C286 1.368 . S
H271 C279 0.950 . S
H272 C277 0.950 . S
H273 C278 0.949 . S
H274 C280 0.950 . S
H275 C281 0.950 . S
H276 C282 0.949 . S
C277 H272 0.950 . S
C277 C279 1.327 . S
C277 C283 1.429 . S
C278 C270 1.574 . S
C278 H273 0.949 . S
C278 C284 1.368 . S
C279 C263 1.349 . S
C279 H271 0.950 . S
C279 C277 1.327 . S
C280 C268 1.349 . S
C280 H274 0.950 . S
C280 C281 1.327 . S
C281 H275 0.950 . S
C281 C280 1.327 . S
C281 C285 1.429 . S
C282 C265 1.574 . S
C282 H276 0.949 . S
C282 C286 1.368 . S
C283 C264 1.429 . S
C283 C277 1.429 . S
C283 C284 1.523 . S
C284 C265 1.368 . S
C284 C278 1.368 . S
C284 C283 1.523 . S
C285 C269 1.429 . S
C285 C281 1.429 . S
C285 C286 1.523 . S
C286 C270 1.368 . S
C286 C282 1.368 . S
C286 C285 1.523 . S
H287 C262 0.950 . S
H288 C264 0.950 . S
H289 C265 0.949 . S
H290 C267 0.950 . S
H291 C269 0.950 . S
C292 C293 1.349 . S
C292 C294 1.327 . S
C292 H317 0.950 . S
C293 C292 1.349 . S
C293 C309 1.349 . S
C294 C292 1.327 . S
C294 C313 1.429 . S
C294 H318 0.950 . S
C295 C312 1.574 . S
C295 C314 1.368 . S
C295 H319 0.949 . S
H296 C300 0.949 . S
C297 C298 1.349 . S
C297 C299 1.327 . S
C297 H320 0.950 . S
C298 C297 1.349 . S
C298 C310 1.349 . S
C299 C297 1.327 . S
C299 C315 1.429 . S
C299 H321 0.950 . S
C300 H296 0.949 . S
C300 C308 1.574 . S
C300 C316 1.368 . S
H301 C309 0.950 . S
H302 C307 0.950 . S
H303 C308 0.949 . S
H304 C310 0.950 . S
H305 C311 0.950 . S
H306 C312 0.949 . S
C307 H302 0.950 . S
C307 C309 1.327 . S
C307 C313 1.429 . S
C308 C300 1.574 . S
C308 H303 0.949 . S
C308 C314 1.368 . S
C309 C293 1.349 . S
C309 H301 0.950 . S
C309 C307 1.327 . S
C310 C298 1.349 . S
C310 H304 0.950 . S
C310 C311 1.327 . S
C311 H305 0.950 . S
C311 C310 1.327 . S
C311 C315 1.429 . S
C312 C295 1.574 . S
C312 H306 0.949 . S
C312 C316 1.368 . S
C313 C294 1.429 . S
C313 C307 1.429 . S
C313 C314 1.523 . S
C314 C295 1.368 . S
C314 C308 1.368 . S
C314 C313 1.523 . S
C315 C299 1.429 . S
C315 C311 1.429 . S
C315 C316 1.523 . S
C316 C300 1.368 . S
C316 C312 1.368 . S
C316 C315 1.523 . S
H317 C292 0.950 . S
H318 C294 0.950 . S
H319 C295 0.949 . S
H320 C297 0.950 . S
H321 C299 0.950 . S
C322 C323 1.349 . S
C322 C324 1.327 . S
C322 H347 0.950 . S
C323 C322 1.349 . S
C323 C339 1.349 . S
C324 C322 1.327 . S
C324 C343 1.429 . S
C324 H348 0.950 . S
C325 C342 1.574 . S
C325 C344 1.368 . S
C325 H349 0.949 . S
H326 C330 0.949 . S
C327 C328 1.349 . S
C327 C329 1.327 . S
C327 H350 0.950 . S
C328 C327 1.349 . S
C328 C340 1.349 . S
C329 C327 1.327 . S
C329 C345 1.429 . S
C329 H351 0.950 . S
C330 H326 0.949 . S
C330 C338 1.574 . S
C330 C346 1.368 . S
H331 C339 0.950 . S
H332 C337 0.950 . S
H333 C338 0.949 . S
H334 C340 0.950 . S
H335 C341 0.950 . S
H336 C342 0.949 . S
C337 H332 0.950 . S
C337 C339 1.327 . S
C337 C343 1.429 . S
C338 C330 1.574 . S
C338 H333 0.949 . S
C338 C344 1.368 . S
C339 C323 1.349 . S
C339 H331 0.950 . S
C339 C337 1.327 . S
C340 C328 1.349 . S
C340 H334 0.950 . S
C340 C341 1.327 . S
C341 H335 0.950 . S
C341 C340 1.327 . S
C341 C345 1.429 . S
C342 C325 1.574 . S
C342 H336 0.949 . S
C342 C346 1.368 . S
C343 C324 1.429 . S
C343 C337 1.429 . S
C343 C344 1.523 . S
C344 C325 1.368 . S
C344 C338 1.368 . S
C344 C343 1.523 . S
C345 C329 1.429 . S
C345 C341 1.429 . S
C345 C346 1.523 . S
C346 C330 1.368 . S
C346 C342 1.368 . S
C346 C345 1.523 . S
H347 C322 0.950 . S
H348 C324 0.950 . S
H349 C325 0.949 . S
H350 C327 0.950 . S
H351 C329 0.950 . S
C352 C353 1.349 . S
C352 C354 1.327 . S
C352 H377 0.950 . S
C353 C352 1.349 . S
C353 C369 1.349 1_554 S
C354 C352 1.327 . S
C354 C373 1.429 . S
C354 H378 0.950 . S
C355 C372 1.574 1_655 S
C355 C374 1.368 1_556 S
C355 H379 0.949 . S
H356 C360 0.949 . S
C357 C358 1.349 1_556 S
C357 C359 1.327 . S
C357 H380 0.950 . S
C358 C357 1.349 1_554 S
C358 C370 1.349 . S
C359 C357 1.327 . S
C359 C375 1.429 1_556 S
C359 H381 0.950 . S
C360 H356 0.949 . S
C360 C368 1.574 1_455 S
C360 C376 1.368 . S
H361 C369 0.950 . S
H362 C367 0.950 . S
H363 C368 0.949 . S
H364 C370 0.950 . S
H365 C371 0.950 . S
H366 C372 0.949 . S
C367 H362 0.950 . S
C367 C369 1.327 . S
C367 C373 1.429 1_556 S
C368 C360 1.574 1_655 S
C368 H363 0.949 . S
C368 C374 1.368 . S
C369 C353 1.349 1_556 S
C369 H361 0.950 . S
C369 C367 1.327 . S
C370 C358 1.349 . S
C370 H364 0.950 . S
C370 C371 1.327 . S
C371 H365 0.950 . S
C371 C370 1.327 . S
C371 C375 1.429 . S
C372 C355 1.574 1_455 S
C372 H366 0.949 . S
C372 C376 1.368 1_556 S
C373 C354 1.429 . S
C373 C367 1.429 1_554 S
C373 C374 1.523 . S
C374 C355 1.368 1_554 S
C374 C368 1.368 . S
C374 C373 1.523 . S
C375 C359 1.429 1_554 S
C375 C371 1.429 . S
C375 C376 1.523 . S
C376 C360 1.368 . S
C376 C372 1.368 1_554 S
C376 C375 1.523 . S
H377 C352 0.950 . S
H378 C354 0.950 . S
H379 C355 0.949 . S
H380 C357 0.950 . S
H381 C359 0.950 . S
C382 C383 1.349 . S
C382 C384 1.327 . S
C382 H407 0.950 . S
C383 C382 1.349 . S
C383 C399 1.349 . S
C384 C382 1.327 . S
C384 C403 1.429 . S
C384 H408 0.950 . S
C385 C402 1.574 1_565 S
C385 C404 1.368 . S
C385 H409 0.949 . S
H386 C390 0.949 . S
C387 C388 1.349 . S
C387 C389 1.327 . S
C387 H410 0.950 . S
C388 C387 1.349 . S
C388 C400 1.349 . S
C389 C387 1.327 . S
C389 C405 1.429 . S
C389 H411 0.950 . S
C390 H386 0.949 . S
C390 C398 1.574 1_545 S
C390 C406 1.368 . S
H391 C399 0.950 . S
H392 C397 0.950 . S
H393 C398 0.949 . S
H394 C400 0.950 . S
H395 C401 0.950 . S
H396 C402 0.949 . S
C397 H392 0.950 . S
C397 C399 1.327 . S
C397 C403 1.429 . S
C398 C390 1.574 1_565 S
C398 H393 0.949 . S
C398 C404 1.368 . S
C399 C383 1.349 . S
C399 H391 0.950 . S
C399 C397 1.327 . S
C400 C388 1.349 . S
C400 H394 0.950 . S
C400 C401 1.327 . S
C401 H395 0.950 . S
C401 C400 1.327 . S
C401 C405 1.429 . S
C402 C385 1.574 1_545 S
C402 H396 0.949 . S
C402 C406 1.368 . S
C403 C384 1.429 . S
C403 C397 1.429 . S
C403 C404 1.523 . S
C404 C385 1.368 . S
C404 C398 1.368 . S
C404 C403 1.523 . S
C405 C389 1.429 . S
C405 C401 1.429 . S
C405 C406 1.523 . S
C406 C390 1.368 . S
C406 C402 1.368 . S
C406 C405 1.523 . S
H407 C382 0.950 . S
H408 C384 0.950 . S
H409 C385 0.949 . S
H410 C387 0.950 . S
H411 C389 0.950 . S
C412 C413 1.349 . S
C412 C414 1.327 . S
C412 H437 0.950 . S
C413 C412 1.349 . S
C413 C429 1.349 . S
C414 C412 1.327 . S
C414 C433 1.429 . S
C414 H438 0.950 . S
C415 C432 1.574 1_455 S
C415 C434 1.368 . S
C415 H439 0.949 . S
H416 C420 0.949 . S
C417 C418 1.349 . S
C417 C419 1.327 . S
C417 H440 0.950 . S
C418 C417 1.349 . S
C418 C430 1.349 . S
C419 C417 1.327 . S
C419 C435 1.429 . S
C419 H441 0.950 . S
C420 H416 0.949 . S
C420 C428 1.574 1_655 S
C420 C436 1.368 . S
H421 C429 0.950 . S
H422 C427 0.950 . S
H423 C428 0.949 . S
H424 C430 0.950 . S
H425 C431 0.950 . S
H426 C432 0.949 . S
C427 H422 0.950 . S
C427 C429 1.327 . S
C427 C433 1.429 . S
C428 C420 1.574 1_455 S
C428 H423 0.949 . S
C428 C434 1.368 . S
C429 C413 1.349 . S
C429 H421 0.950 . S
C429 C427 1.327 . S
C430 C418 1.349 . S
C430 H424 0.950 . S
C430 C431 1.327 . S
C431 H425 0.950 . S
C431 C430 1.327 . S
C431 C435 1.429 . S
C432 C415 1.574 1_655 S
C432 H426 0.949 . S
C432 C436 1.368 . S
C433 C414 1.429 . S
C433 C427 1.429 . S
C433 C434 1.523 . S
C434 C415 1.368 . S
C434 C428 1.368 . S
C434 C433 1.523 . S
C435 C419 1.429 . S
C435 C431 1.429 . S
C435 C436 1.523 . S
C436 C420 1.368 . S
C436 C432 1.368 . S
C436 C435 1.523 . S
H437 C412 0.950 . S
H438 C414 0.950 . S
H439 C415 0.949 . S
H440 C417 0.950 . S
H441 C419 0.950 . S
C442 C443 1.349 1_556 S
C442 C444 1.327 . S
C442 H467 0.950 . S
C443 C442 1.349 1_554 S
C443 C459 1.349 . S
C444 C442 1.327 . S
C444 C463 1.429 1_556 S
C444 H468 0.950 . S
C445 C462 1.574 1_565 S
C445 C464 1.368 . S
C445 H469 0.949 . S
H446 C450 0.949 . S
C447 C448 1.349 . S
C447 C449 1.327 . S
C447 H470 0.950 . S
C448 C447 1.349 . S
C448 C460 1.349 1_554 S
C449 C447 1.327 . S
C449 C465 1.429 . S
C449 H471 0.950 . S
C450 H446 0.949 . S
C450 C458 1.574 1_545 S
C450 C466 1.368 1_556 S
H451 C459 0.950 . S
H452 C457 0.950 . S
H453 C458 0.949 . S
H454 C460 0.950 . S
H455 C461 0.950 . S
H456 C462 0.949 . S
C457 H452 0.950 . S
C457 C459 1.327 . S
C457 C463 1.429 . S
C458 C450 1.574 1_565 S
C458 H453 0.949 . S
C458 C464 1.368 1_556 S
C459 C443 1.349 . S
C459 H451 0.950 . S
C459 C457 1.327 . S
C460 C448 1.349 1_556 S
C460 H454 0.950 . S
C460 C461 1.327 . S
C461 H455 0.950 . S
C461 C460 1.327 . S
C461 C465 1.429 1_556 S
C462 C445 1.574 1_545 S
C462 H456 0.949 . S
C462 C466 1.368 . S
C463 C444 1.429 1_554 S
C463 C457 1.429 . S
C463 C464 1.523 . S
C464 C445 1.368 . S
C464 C458 1.368 1_554 S
C464 C463 1.523 . S
C465 C449 1.429 . S
C465 C461 1.429 1_554 S
C465 C466 1.523 . S
C466 C450 1.368 1_554 S
C466 C462 1.368 . S
C466 C465 1.523 . S
H467 C442 0.950 . S
H468 C444 0.950 . S
H469 C445 0.949 . S
H470 C447 0.950 . S
H471 C449 0.950 . S
C472 C473 1.349 . S
C472 C474 1.327 . S
C472 H497 0.950 . S
C473 C472 1.349 . S
C473 C489 1.349 1_554 S
C474 C472 1.327 . S
C474 C493 1.429 . S
C474 H498 0.950 . S
C475 C492 1.574 . S
C475 C494 1.368 1_556 S
C475 H499 0.949 . S
H476 C480 0.949 . S
C477 C478 1.349 1_556 S
C477 C479 1.327 . S
C477 H500 0.950 . S
C478 C477 1.349 1_554 S
C478 C490 1.349 . S
C479 C477 1.327 . S
C479 C495 1.429 1_556 S
C479 H501 0.950 . S
C480 H476 0.949 . S
C480 C488 1.574 . S
C480 C496 1.368 . S
H481 C489 0.950 . S
H482 C487 0.950 . S
H483 C488 0.949 . S
H484 C490 0.950 . S
H485 C491 0.950 . S
H486 C492 0.949 . S
C487 H482 0.950 . S
C487 C489 1.327 . S
C487 C493 1.429 1_556 S
C488 C480 1.574 . S
C488 H483 0.949 . S
C488 C494 1.368 . S
C489 C473 1.349 1_556 S
C489 H481 0.950 . S
C489 C487 1.327 . S
C490 C478 1.349 . S
C490 H484 0.950 . S
C490 C491 1.327 . S
C491 H485 0.950 . S
C491 C490 1.327 . S
C491 C495 1.429 . S
C492 C475 1.574 . S
C492 H486 0.949 . S
C492 C496 1.368 1_556 S
C493 C474 1.429 . S
C493 C487 1.429 1_554 S
C493 C494 1.523 . S
C494 C475 1.368 1_554 S
C494 C488 1.368 . S
C494 C493 1.523 . S
C495 C479 1.429 1_554 S
C495 C491 1.429 . S
C495 C496 1.523 . S
C496 C480 1.368 . S
C496 C492 1.368 1_554 S
C496 C495 1.523 . S
H497 C472 0.950 . S
H498 C474 0.950 . S
H499 C475 0.949 . S
H500 C477 0.950 . S
H501 C479 0.950 . S
C502 C503 1.349 . S
C502 C504 1.327 . S
C502 H527 0.950 . S
C503 C502 1.349 . S
C503 C519 1.349 . S
C504 C502 1.327 . S
C504 C523 1.429 . S
C504 H528 0.950 . S
C505 C522 1.574 . S
C505 C524 1.368 . S
C505 H529 0.949 . S
H506 C510 0.949 . S
C507 C508 1.349 . S
C507 C509 1.327 . S
C507 H530 0.950 . S
C508 C507 1.349 . S
C508 C520 1.349 . S
C509 C507 1.327 . S
C509 C525 1.429 . S
C509 H531 0.950 . S
C510 H506 0.949 . S
C510 C518 1.574 . S
C510 C526 1.368 . S
H511 C519 0.950 . S
H512 C517 0.950 . S
H513 C518 0.949 . S
H514 C520 0.950 . S
H515 C521 0.950 . S
H516 C522 0.949 . S
C517 H512 0.950 . S
C517 C519 1.327 . S
C517 C523 1.429 . S
C518 C510 1.574 . S
C518 H513 0.949 . S
C518 C524 1.368 . S
C519 C503 1.349 . S
C519 H511 0.950 . S
C519 C517 1.327 . S
C520 C508 1.349 . S
C520 H514 0.950 . S
C520 C521 1.327 . S
C521 H515 0.950 . S
C521 C520 1.327 . S
C521 C525 1.429 . S
C522 C505 1.574 . S
C522 H516 0.949 . S
C522 C526 1.368 . S
C523 C504 1.429 . S
C523 C517 1.429 . S
C523 C524 1.523 . S
C524 C505 1.368 . S
C524 C518 1.368 . S
C524 C523 1.523 . S
C525 C509 1.429 . S
C525 C521 1.429 . S
C525 C526 1.523 . S
C526 C510 1.368 . S
C526 C522 1.368 . S
C526 C525 1.523 . S
H527 C502 0.950 . S
H528 C504 0.950 . S
H529 C505 0.949 . S
H530 C507 0.950 . S
H531 C509 0.950 . S
C532 C533 1.349 1_556 S
C532 C534 1.327 . S
C532 H557 0.950 . S
C533 C532 1.349 1_554 S
C533 C549 1.349 . S
C534 C532 1.327 . S
C534 C553 1.429 1_556 S
C534 H558 0.950 . S
C535 C552 1.574 . S
C535 C554 1.368 . S
C535 H559 0.949 . S
H536 C540 0.949 . S
C537 C538 1.349 . S
C537 C539 1.327 . S
C537 H560 0.950 . S
C538 C537 1.349 . S
C538 C550 1.349 1_554 S
C539 C537 1.327 . S
C539 C555 1.429 . S
C539 H561 0.950 . S
C540 H536 0.949 . S
C540 C548 1.574 . S
C540 C556 1.368 1_556 S
H541 C549 0.950 . S
H542 C547 0.950 . S
H543 C548 0.949 . S
H544 C550 0.950 . S
H545 C551 0.950 . S
H546 C552 0.949 . S
C547 H542 0.950 . S
C547 C549 1.327 . S
C547 C553 1.429 . S
C548 C540 1.574 . S
C548 H543 0.949 . S
C548 C554 1.368 1_556 S
C549 C533 1.349 . S
C549 H541 0.950 . S
C549 C547 1.327 . S
C550 C538 1.349 1_556 S
C550 H544 0.950 . S
C550 C551 1.327 . S
C551 H545 0.950 . S
C551 C550 1.327 . S
C551 C555 1.429 1_556 S
C552 C535 1.574 . S
C552 H546 0.949 . S
C552 C556 1.368 . S
C553 C534 1.429 1_554 S
C553 C547 1.429 . S
C553 C554 1.523 . S
C554 C535 1.368 . S
C554 C548 1.368 1_554 S
C554 C553 1.523 . S
C555 C539 1.429 . S
C555 C551 1.429 1_554 S
C555 C556 1.523 . S
C556 C540 1.368 1_554 S
C556 C552 1.368 . S
C556 C555 1.523 . S
H557 C532 0.950 . S
H558 C534 0.950 . S
H559 C535 0.949 . S
H560 C537 0.950 . S
H561 C539 0.950 . S
C562 C563 1.349 . S
C562 C564 1.327 . S
C562 H587 0.950 . S
C563 C562 1.349 . S
C563 C579 1.349 . S
C564 C562 1.327 . S
C564 C583 1.429 . S
C564 H588 0.950 . S
C565 C582 1.574 . S
C565 C584 1.368 . S
C565 H589 0.949 . S
H566 C570 0.949 . S
C567 C568 1.349 . S
C567 C569 1.327 . S
C567 H590 0.950 . S
C568 C567 1.349 . S
C568 C580 1.349 . S
C569 C567 1.327 . S
C569 C585 1.429 . S
C569 H591 0.950 . S
C570 H566 0.949 . S
C570 C578 1.574 . S
C570 C586 1.368 . S
H571 C579 0.950 . S
H572 C577 0.950 . S
H573 C578 0.949 . S
H574 C580 0.950 . S
H575 C581 0.950 . S
H576 C582 0.949 . S
C577 H572 0.950 . S
C577 C579 1.327 . S
C577 C583 1.429 . S
C578 C570 1.574 . S
C578 H573 0.949 . S
C578 C584 1.368 . S
C579 C563 1.349 . S
C579 H571 0.950 . S
C579 C577 1.327 . S
C580 C568 1.349 . S
C580 H574 0.950 . S
C580 C581 1.327 . S
C581 H575 0.950 . S
C581 C580 1.327 . S
C581 C585 1.429 . S
C582 C565 1.574 . S
C582 H576 0.949 . S
C582 C586 1.368 . S
C583 C564 1.429 . S
C583 C577 1.429 . S
C583 C584 1.523 . S
C584 C565 1.368 . S
C584 C578 1.368 . S
C584 C583 1.523 . S
C585 C569 1.429 . S
C585 C581 1.429 . S
C585 C586 1.523 . S
C586 C570 1.368 . S
C586 C582 1.368 . S
C586 C585 1.523 . S
H587 C562 0.950 . S
H588 C564 0.950 . S
H589 C565 0.949 . S
H590 C567 0.950 . S
H591 C569 0.950 . S
C113 C9 1.197 . S
C118 C65 1.197 . S
C143 C23 1.197 . S
C148 C79 1.197 . S
C173 C93 1.197 . S
C178 C37 1.197 . S
C203 C107 1.197 . S
C208 C51 1.197 . S
C233 C84 1.096 . S
C238 C28 1.096 . S
C263 C98 1.096 . S
C268 C42 1.096 . S
C293 C0 1.096 . S
C298 C56 1.096 . S
C323 C14 1.096 . S
C328 C70 1.096 . S
C353 C33 1.300 . S
C358 C5 1.300 . S
C383 C47 1.300 . S
C388 C19 1.300 . S
C413 C61 1.300 . S
C418 C89 1.300 . S
C443 C103 1.300 . S
C448 C75 1.300 . S
C473 C11 1.288 . S
C478 C81 1.288 . S
C503 C95 1.288 . S
C508 C25 1.288 . S
C533 C39 1.288 . S
C538 C109 1.288 . S
C563 C53 1.288 . S
C568 C67 1.288 . S
