# Generated by pormake.
# Topology gsi, (4)-cn, num edge types: 1
# Building blocks:
#     Node 0, Type 0, BuildingBlock: KUFVIS_clean_sbu_0, # of connection points: 4
#     Node 1, Type 0, BuildingBlock: KUFVIS_clean_sbu_0, # of connection points: 4
#     Node 2, Type 0, BuildingBlock: KUFVIS_clean_sbu_0, # of connection points: 4
#     Node 3, Type 0, BuildingBlock: KUFVIS_clean_sbu_0, # of connection points: 4
#     Node 4, Type 0, BuildingBlock: KUFVIS_clean_sbu_0, # of connection points: 4
#     Node 5, Type 0, BuildingBlock: KUFVIS_clean_sbu_0, # of connection points: 4
#     Node 6, Type 0, BuildingBlock: KUFVIS_clean_sbu_0, # of connection points: 4
#     Node 7, Type 0, BuildingBlock: KUFVIS_clean_sbu_0, # of connection points: 4
#     Node 8, Type 0, BuildingBlock: KUFVIS_clean_sbu_0, # of connection points: 4
#     Node 9, Type 0, BuildingBlock: KUFVIS_clean_sbu_0, # of connection points: 4
#     Node 10, Type 0, BuildingBlock: KUFVIS_clean_sbu_0, # of connection points: 4
#     Node 11, Type 0, BuildingBlock: KUFVIS_clean_sbu_0, # of connection points: 4
#     Node 12, Type 0, BuildingBlock: KUFVIS_clean_sbu_0, # of connection points: 4
#     Node 13, Type 0, BuildingBlock: KUFVIS_clean_sbu_0, # of connection points: 4
#     Node 14, Type 0, BuildingBlock: KUFVIS_clean_sbu_0, # of connection points: 4
#     Node 15, Type 0, BuildingBlock: KUFVIS_clean_sbu_0, # of connection points: 4
#     Edge 16, Type (0, 0), BuildingBlock: CIFDUS_clean_linker_0, # of connection points: 2
#     Edge 17, Type (0, 0), BuildingBlock: CIFDUS_clean_linker_0, # of connection points: 2
#     Edge 18, Type (0, 0), BuildingBlock: CIFDUS_clean_linker_0, # of connection points: 2
#     Edge 19, Type (0, 0), BuildingBlock: CIFDUS_clean_linker_0, # of connection points: 2
#     Edge 20, Type (0, 0), BuildingBlock: CIFDUS_clean_linker_0, # of connection points: 2
#     Edge 21, Type (0, 0), BuildingBlock: CIFDUS_clean_linker_0, # of connection points: 2
#     Edge 22, Type (0, 0), BuildingBlock: CIFDUS_clean_linker_0, # of connection points: 2
#     Edge 23, Type (0, 0), BuildingBlock: CIFDUS_clean_linker_0, # of connection points: 2
#     Edge 24, Type (0, 0), BuildingBlock: CIFDUS_clean_linker_0, # of connection points: 2
#     Edge 25, Type (0, 0), BuildingBlock: CIFDUS_clean_linker_0, # of connection points: 2
#     Edge 26, Type (0, 0), BuildingBlock: CIFDUS_clean_linker_0, # of connection points: 2
#     Edge 27, Type (0, 0), BuildingBlock: CIFDUS_clean_linker_0, # of connection points: 2
#     Edge 28, Type (0, 0), BuildingBlock: CIFDUS_clean_linker_0, # of connection points: 2
#     Edge 29, Type (0, 0), BuildingBlock: CIFDUS_clean_linker_0, # of connection points: 2
#     Edge 30, Type (0, 0), BuildingBlock: CIFDUS_clean_linker_0, # of connection points: 2
#     Edge 31, Type (0, 0), BuildingBlock: CIFDUS_clean_linker_0, # of connection points: 2
#     Edge 32, Type (0, 0), BuildingBlock: CIFDUS_clean_linker_0, # of connection points: 2
#     Edge 33, Type (0, 0), BuildingBlock: CIFDUS_clean_linker_0, # of connection points: 2
#     Edge 34, Type (0, 0), BuildingBlock: CIFDUS_clean_linker_0, # of connection points: 2
#     Edge 35, Type (0, 0), BuildingBlock: CIFDUS_clean_linker_0, # of connection points: 2
#     Edge 36, Type (0, 0), BuildingBlock: CIFDUS_clean_linker_0, # of connection points: 2
#     Edge 37, Type (0, 0), BuildingBlock: CIFDUS_clean_linker_0, # of connection points: 2
#     Edge 38, Type (0, 0), BuildingBlock: CIFDUS_clean_linker_0, # of connection points: 2
#     Edge 39, Type (0, 0), BuildingBlock: CIFDUS_clean_linker_0, # of connection points: 2
#     Edge 40, Type (0, 0), BuildingBlock: CIFDUS_clean_linker_0, # of connection points: 2
#     Edge 41, Type (0, 0), BuildingBlock: CIFDUS_clean_linker_0, # of connection points: 2
#     Edge 42, Type (0, 0), BuildingBlock: CIFDUS_clean_linker_0, # of connection points: 2
#     Edge 43, Type (0, 0), BuildingBlock: CIFDUS_clean_linker_0, # of connection points: 2
#     Edge 44, Type (0, 0), BuildingBlock: CIFDUS_clean_linker_0, # of connection points: 2
#     Edge 45, Type (0, 0), BuildingBlock: CIFDUS_clean_linker_0, # of connection points: 2
#     Edge 46, Type (0, 0), BuildingBlock: CIFDUS_clean_linker_0, # of connection points: 2
#     Edge 47, Type (0, 0), BuildingBlock: CIFDUS_clean_linker_0, # of connection points: 2
# Relax obj value: 0.111
# Max RMSD: 0.170
# Mean RMSD: 0.121
data_MOF--net-gsi--node1-KUFVIS_clean_sbu_0--edge1-CIFDUS_clean_linker_0
_symmetry_space_group_name_H-M    P1
_symmetry_Int_Tables_number       1
_symmetry_cell_setting            triclinic
loop_
_symmetry_equiv_pos_as_xyz
'x, y, z'
_cell_length_a     37.383267
_cell_length_b     35.502649
_cell_length_c     35.26521
_cell_angle_alpha  92.367097
_cell_angle_beta   91.548839
_cell_angle_gamma 97.212753
loop_
_atom_site_label
_atom_site_type_symbol
_atom_site_fract_x
_atom_site_fract_y
_atom_site_fract_z
_atom_type_partial_charge
Mn0 Mn 0.16615 0.16973 0.14174 0.0
Mn1 Mn 0.12962 0.18033 0.22772 0.0
C2 C 0.19235 0.21836 0.18534 0.0
C3 C 0.20331 0.1472 0.09488 0.0
C4 C 0.0948 0.2017 0.15483 0.0
O5 O 0.14046 0.11589 0.15009 0.0
O6 O 0.11936 0.12691 0.20821 0.0
C7 C 0.16173 0.12952 0.27859 0.0
N8 N 0.15636 0.16555 0.27019 0.0
C9 C 0.16044 0.18567 0.33635 0.0
C10 C 0.16463 0.14839 0.34564 0.0
C11 C 0.16622 0.12046 0.3166 0.0
C12 C 0.15675 0.19319 0.2979 0.0
H13 H 0.16079 0.10735 0.2566 0.0
C14 C 0.12518 0.10438 0.18041 0.0
O15 O 0.17228 0.15774 0.08718 0.0
O16 O 0.21319 0.14855 0.13067 0.0
N17 N 0.13799 0.23044 0.25047 0.0
C18 C 0.12765 0.26311 0.23739 0.0
C19 C 0.12828 0.29511 0.26226 0.0
C20 C 0.13757 0.29247 0.3008 0.0
C21 C 0.1468 0.25806 0.31384 0.0
C22 C 0.14824 0.22801 0.28715 0.0
H23 H 0.11918 0.26468 0.20823 0.0
O24 O 0.19417 0.22151 0.14879 0.0
O25 O 0.17315 0.18755 0.19577 0.0
O26 O 0.11901 0.19305 0.13289 0.0
O27 O 0.09629 0.197 0.19007 0.0
C28 C 0.15205 0.25158 0.35254 0.0
C29 C 0.15744 0.21506 0.36383 0.0
H30 H 0.16664 0.14081 0.37499 0.0
H31 H 0.16963 0.09169 0.32357 0.0
H32 H 0.12049 0.32131 0.252 0.0
H33 H 0.13649 0.31665 0.32031 0.0
H34 H 0.15015 0.27393 0.37398 0.0
H35 H 0.1589 0.20985 0.39383 0.0
Mn36 Mn 0.86658 0.35341 0.15531 0.0
Mn37 Mn 0.89788 0.33376 0.2416 0.0
C38 C 0.84131 0.29887 0.18511 0.0
C39 C 0.82629 0.38062 0.11572 0.0
C40 C 0.9406 0.329 0.1703 0.0
O41 O 0.89117 0.40535 0.17808 0.0
O42 O 0.90071 0.38953 0.23863 0.0
C43 C 0.83846 0.35937 0.28449 0.0
N44 N 0.86037 0.33234 0.27702 0.0
C45 C 0.82565 0.28771 0.31528 0.0
C46 C 0.80239 0.31475 0.32263 0.0
C47 C 0.80862 0.35066 0.30707 0.0
C48 C 0.85377 0.29724 0.29081 0.0
H49 H 0.84255 0.38653 0.27151 0.0
C50 C 0.8989 0.41425 0.21341 0.0
O51 O 0.85761 0.37373 0.10432 0.0
O52 O 0.8193 0.37394 0.15084 0.0
N53 N 0.8956 0.28011 0.248 0.0
C54 C 0.91514 0.25457 0.23107 0.0
C55 C 0.9109 0.21674 0.24202 0.0
C56 C 0.88675 0.2055 0.27043 0.0
C57 C 0.86712 0.23227 0.28767 0.0
C58 C 0.87297 0.26977 0.27601 0.0
H59 H 0.93413 0.26294 0.20968 0.0
O60 O 0.83878 0.30048 0.14842 0.0
O61 O 0.86025 0.32802 0.20176 0.0
O62 O 0.91487 0.33284 0.14695 0.0
O63 O 0.93825 0.3331 0.20626 0.0
C64 C 0.84102 0.22292 0.31496 0.0
C65 C 0.81991 0.25055 0.32839 0.0
H66 H 0.77805 0.30684 0.33743 0.0
H67 H 0.78959 0.37088 0.31081 0.0
H68 H 0.92624 0.19629 0.22858 0.0
H69 H 0.88319 0.17618 0.27846 0.0
H70 H 0.83583 0.19418 0.32447 0.0
H71 H 0.79845 0.24258 0.34766 0.0
Mn72 Mn 0.1664 0.89245 0.35449 0.0
Mn73 Mn 0.16332 0.80641 0.39416 0.0
C74 C 0.2096 0.85288 0.3395 0.0
C75 C 0.14788 0.93366 0.30922 0.0
C76 C 0.19301 0.88015 0.43627 0.0
O77 O 0.11461 0.88285 0.3724 0.0
O78 O 0.11634 0.82553 0.3964 0.0
C79 C 0.1114 0.76128 0.33962 0.0
N80 N 0.14378 0.76622 0.35902 0.0
C81 C 0.15568 0.70334 0.33976 0.0
C82 C 0.12244 0.6975 0.31963 0.0
C83 C 0.10034 0.72674 0.3193 0.0
C84 C 0.16552 0.7386 0.35889 0.0
H85 H 0.09401 0.78337 0.33992 0.0
C86 C 0.09949 0.85303 0.38725 0.0
O87 O 0.15947 0.94554 0.34309 0.0
O88 O 0.14742 0.89758 0.30091 0.0
N89 N 0.20627 0.78252 0.39397 0.0
C90 C 0.23835 0.79363 0.41287 0.0
C91 C 0.26381 0.76789 0.41543 0.0
C92 C 0.25571 0.73092 0.39903 0.0
C93 C 0.22286 0.72038 0.37918 0.0
C94 C 0.19854 0.74715 0.37765 0.0
H95 H 0.24408 0.82159 0.4266 0.0
O96 O 0.2156 0.88931 0.33524 0.0
O97 O 0.17807 0.84007 0.35205 0.0
O98 O 0.18812 0.90194 0.4092 0.0
O99 O 0.18393 0.84435 0.43371 0.0
C100 C 0.21313 0.68419 0.36119 0.0
C101 C 0.1796 0.67572 0.34136 0.0
H102 H 0.11369 0.67078 0.30418 0.0
H103 H 0.07465 0.72248 0.30382 0.0
H104 H 0.28917 0.7762 0.43085 0.0
H105 H 0.27448 0.71047 0.40232 0.0
H106 H 0.23145 0.66287 0.362 0.0
H107 H 0.17268 0.64807 0.32706 0.0
Mn108 Mn 0.85194 0.66655 0.37829 0.0
Mn109 Mn 0.86791 0.68886 0.28698 0.0
C110 C 0.82432 0.7138 0.34998 0.0
C111 C 0.82103 0.63644 0.42826 0.0
C112 C 0.91958 0.71599 0.35254 0.0
O113 O 0.87155 0.61867 0.35655 0.0
O114 O 0.88244 0.63832 0.29744 0.0
C115 C 0.81443 0.62891 0.24989 0.0
N116 N 0.82823 0.66622 0.25489 0.0
C117 C 0.78629 0.68433 0.20809 0.0
C118 C 0.77185 0.64607 0.20224 0.0
C119 C 0.78588 0.61828 0.22337 0.0
C120 C 0.8146 0.69325 0.23506 0.0
H121 H 0.82507 0.6074 0.26601 0.0
C122 C 0.88215 0.61328 0.32262 0.0
O123 O 0.85463 0.65064 0.43163 0.0
O124 O 0.80588 0.63681 0.39463 0.0
N125 N 0.8546 0.73652 0.27164 0.0
C126 C 0.87034 0.77236 0.28184 0.0
C127 C 0.85926 0.80349 0.26346 0.0
C128 C 0.8323 0.79749 0.23459 0.0
C129 C 0.81661 0.76037 0.22439 0.0
C130 C 0.82897 0.73042 0.24349 0.0
H131 H 0.89091 0.77723 0.3041 0.0
O132 O 0.82894 0.71435 0.38662 0.0
O133 O 0.83629 0.68627 0.3309 0.0
O134 O 0.90155 0.69753 0.37731 0.0
O135 O 0.90975 0.71496 0.31755 0.0
C136 C 0.78872 0.75198 0.1965 0.0
C137 C 0.77341 0.71401 0.18854 0.0
H138 H 0.74984 0.63775 0.1818 0.0
H139 H 0.77475 0.58871 0.21916 0.0
H140 H 0.87134 0.83207 0.27169 0.0
H141 H 0.82351 0.8216 0.22079 0.0
H142 H 0.77844 0.77457 0.18146 0.0
H143 H 0.75159 0.70797 0.16748 0.0
Mn144 Mn 0.35598 0.86152 0.66196 0.0
Mn145 Mn 0.39837 0.84519 0.74435 0.0
C146 C 0.33097 0.81435 0.70158 0.0
C147 C 0.31419 0.8878 0.62316 0.0
C148 C 0.42783 0.83004 0.66687 0.0
O149 O 0.38659 0.91313 0.67702 0.0
O150 O 0.40579 0.90081 0.73662 0.0
C151 C 0.37275 0.88446 0.81089 0.0
N152 N 0.37172 0.85192 0.7889 0.0
C153 C 0.34407 0.81491 0.83838 0.0
C154 C 0.34355 0.84837 0.86049 0.0
C155 C 0.35781 0.88334 0.8468 0.0
C156 C 0.35991 0.81786 0.803 0.0
H157 H 0.38778 0.91042 0.80261 0.0
C158 C 0.40034 0.92379 0.71031 0.0
O159 O 0.34321 0.87661 0.61003 0.0
O160 O 0.31027 0.88616 0.65962 0.0
N161 N 0.38874 0.79174 0.75267 0.0
C162 C 0.39892 0.76182 0.73203 0.0
C163 C 0.38798 0.72456 0.74265 0.0
C164 C 0.36717 0.71835 0.77485 0.0
C165 C 0.35756 0.74951 0.79613 0.0
C166 C 0.36834 0.78599 0.78344 0.0
H167 H 0.41533 0.76624 0.70774 0.0
O168 O 0.32415 0.81113 0.66513 0.0
O169 O 0.35436 0.84287 0.7124 0.0
O170 O 0.3998 0.83495 0.64765 0.0
O171 O 0.43077 0.83634 0.70256 0.0
C172 C 0.33844 0.74586 0.82992 0.0
C173 C 0.3323 0.77862 0.85146 0.0
H174 H 0.33529 0.8472 0.88926 0.0
H175 H 0.35921 0.909 0.86474 0.0
H176 H 0.39588 0.70069 0.72624 0.0
H177 H 0.35921 0.68959 0.78331 0.0
H178 H 0.32963 0.71806 0.84036 0.0
H179 H 0.31935 0.77559 0.87847 0.0
Mn180 Mn 0.8517 0.86034 0.87339 0.0
Mn181 Mn 0.83052 0.76988 0.89943 0.0
C182 C 0.8266 0.81232 0.82879 0.0
C183 C 0.84604 0.9237 0.8588 0.0
C184 C 0.90689 0.80643 0.89317 0.0
O185 O 0.84249 0.86761 0.93066 0.0
O186 O 0.82939 0.80557 0.94402 0.0
C187 C 0.75744 0.76376 0.92867 0.0
N188 N 0.78028 0.753 0.902 0.0
C189 C 0.74405 0.69237 0.89073 0.0
C190 C 0.72087 0.70245 0.91899 0.0
C191 C 0.72698 0.73868 0.93721 0.0
C192 C 0.7735 0.71891 0.88274 0.0
H193 H 0.76342 0.79044 0.94479 0.0
C194 C 0.83295 0.84113 0.95357 0.0
O195 O 0.8761 0.91283 0.8696 0.0
O196 O 0.81772 0.89821 0.85829 0.0
N197 N 0.83046 0.73314 0.85843 0.0
C198 C 0.85842 0.72549 0.83657 0.0
C199 C 0.85494 0.69197 0.81349 0.0
C200 C 0.82354 0.66586 0.81467 0.0
C201 C 0.7957 0.67392 0.83839 0.0
C202 C 0.79963 0.70903 0.85864 0.0
H203 H 0.88323 0.74472 0.83691 0.0
O204 O 0.84893 0.84107 0.81881 0.0
O205 O 0.82178 0.81089 0.86501 0.0
O206 O 0.89892 0.83833 0.88352 0.0
O207 O 0.88307 0.77926 0.89968 0.0
C208 C 0.76554 0.6474 0.84489 0.0
C209 C 0.74061 0.65605 0.87217 0.0
H210 H 0.69839 0.68255 0.92725 0.0
H211 H 0.70911 0.74663 0.95896 0.0
H212 H 0.87684 0.68572 0.79578 0.0
H213 H 0.82155 0.63924 0.79812 0.0
H214 H 0.7623 0.61951 0.83064 0.0
H215 H 0.71939 0.63411 0.87922 0.0
Mn216 Mn 0.15693 0.6816 0.88277 0.0
Mn217 Mn 0.17822 0.77255 0.91499 0.0
C218 C 0.1776 0.72753 0.83989 0.0
C219 C 0.16416 0.61879 0.86426 0.0
C220 C 0.10195 0.73597 0.90352 0.0
O221 O 0.17028 0.67499 0.93855 0.0
O222 O 0.1783 0.73702 0.957 0.0
C223 C 0.25199 0.77331 0.94714 0.0
N224 N 0.22879 0.78731 0.92252 0.0
C225 C 0.26892 0.84531 0.91824 0.0
C226 C 0.29264 0.83198 0.94459 0.0
C227 C 0.2846 0.79543 0.95828 0.0
C228 C 0.23711 0.82172 0.90774 0.0
H229 H 0.24516 0.74607 0.95929 0.0
C230 C 0.17788 0.70186 0.96384 0.0
O231 O 0.13399 0.62823 0.87595 0.0
O232 O 0.19139 0.64555 0.86476 0.0
N233 N 0.17986 0.8111 0.87889 0.0
C234 C 0.15259 0.82101 0.85643 0.0
C235 C 0.15779 0.85524 0.83754 0.0
C236 C 0.19031 0.87961 0.84326 0.0
C237 C 0.21752 0.86927 0.86741 0.0
C238 C 0.21144 0.83403 0.88407 0.0
H239 H 0.12712 0.80294 0.85299 0.0
O240 O 0.15379 0.6986 0.83001 0.0
O241 O 0.18598 0.73152 0.87625 0.0
O242 O 0.10998 0.70296 0.89577 0.0
O243 O 0.12571 0.76424 0.9098 0.0
C244 C 0.2499 0.89305 0.87663 0.0
C245 C 0.27516 0.88146 0.90273 0.0
H246 H 0.31732 0.84945 0.95424 0.0
H247 H 0.30296 0.78484 0.9783 0.0
H248 H 0.13649 0.86324 0.81934 0.0
H249 H 0.19387 0.90645 0.82943 0.0
H250 H 0.25523 0.92069 0.86458 0.0
H251 H 0.29944 0.9005 0.91051 0.0
Mn252 Mn 0.85303 0.17608 0.69385 0.0
Mn253 Mn 0.90483 0.19739 0.774 0.0
C254 C 0.82837 0.20158 0.74717 0.0
C255 C 0.82598 0.19064 0.63648 0.0
C256 C 0.87547 0.11646 0.74697 0.0
O257 O 0.90414 0.18363 0.67362 0.0
O258 O 0.93583 0.20151 0.72843 0.0
C259 C 0.93862 0.27717 0.76824 0.0
N260 N 0.91657 0.25072 0.78641 0.0
C261 C 0.90945 0.29621 0.83745 0.0
C262 C 0.93088 0.32415 0.81838 0.0
C263 C 0.94571 0.3145 0.78373 0.0
C264 C 0.90334 0.25941 0.82061 0.0
H265 H 0.95142 0.26974 0.74264 0.0
C266 C 0.93312 0.1978 0.69195 0.0
O267 O 0.83048 0.15604 0.64384 0.0
O268 O 0.83923 0.21702 0.66141 0.0
N269 N 0.87673 0.19647 0.81878 0.0
C270 C 0.85459 0.16705 0.83258 0.0
C271 C 0.83814 0.172 0.86742 0.0
C272 C 0.84422 0.20726 0.88756 0.0
C273 C 0.86599 0.23751 0.87223 0.0
C274 C 0.88208 0.23076 0.8376 0.0
H275 H 0.84933 0.14004 0.81712 0.0
O276 O 0.80851 0.17935 0.72256 0.0
O277 O 0.86289 0.20604 0.74141 0.0
O278 O 0.85862 0.12507 0.71743 0.0
O279 O 0.89533 0.14131 0.76777 0.0
C280 C 0.87206 0.27419 0.88981 0.0
C281 C 0.89371 0.30354 0.8724 0.0
H282 H 0.93639 0.353 0.83024 0.0
H283 H 0.96296 0.33568 0.76919 0.0
H284 H 0.82073 0.14871 0.87869 0.0
H285 H 0.83152 0.21097 0.91448 0.0
H286 H 0.85998 0.28021 0.91661 0.0
H287 H 0.89797 0.33171 0.88605 0.0
Mn288 Mn 0.18391 0.37224 0.67925 0.0
Mn289 Mn 0.14336 0.34088 0.75922 0.0
C290 C 0.21683 0.3531 0.73005 0.0
C291 C 0.21013 0.36683 0.61972 0.0
C292 C 0.15473 0.42388 0.74008 0.0
O293 O 0.1318 0.35315 0.66006 0.0
O294 O 0.10811 0.33247 0.71532 0.0
C295 C 0.12594 0.25794 0.74197 0.0
N296 N 0.14381 0.28728 0.76375 0.0
C297 C 0.16725 0.24377 0.80577 0.0
C298 C 0.14968 0.21321 0.78322 0.0
C299 C 0.12883 0.22034 0.75124 0.0
C300 C 0.1633 0.28068 0.79514 0.0
H301 H 0.10928 0.26313 0.71804 0.0
C302 C 0.10612 0.33643 0.67926 0.0
O303 O 0.19784 0.39755 0.63155 0.0
O304 O 0.20476 0.33784 0.64117 0.0
N305 N 0.17616 0.34645 0.80253 0.0
C306 C 0.19345 0.37892 0.82001 0.0
C307 C 0.21611 0.37658 0.852 0.0
C308 C 0.22082 0.34094 0.86575 0.0
C309 C 0.2029 0.30791 0.84728 0.0
C310 C 0.18054 0.31199 0.81557 0.0
H311 H 0.19032 0.40644 0.80949 0.0
O312 O 0.23208 0.37791 0.70749 0.0
O313 O 0.18287 0.3424 0.72356 0.0
O314 O 0.1697 0.41875 0.70867 0.0
O315 O 0.14208 0.39643 0.75994 0.0
C316 C 0.20702 0.27108 0.85863 0.0
C317 C 0.18915 0.23903 0.83794 0.0
H318 H 0.152 0.18416 0.79019 0.0
H319 H 0.11485 0.19693 0.73386 0.0
H320 H 0.23007 0.40222 0.86591 0.0
H321 H 0.23858 0.33924 0.89023 0.0
H322 H 0.22427 0.26707 0.88293 0.0
H323 H 0.19286 0.21085 0.84668 0.0
Mn324 Mn 0.6723 0.19464 0.37259 0.0
Mn325 Mn 0.69849 0.28329 0.4102 0.0
C326 C 0.68863 0.24425 0.33205 0.0
C327 C 0.67873 0.13328 0.3483 0.0
C328 C 0.62081 0.24862 0.40348 0.0
O329 O 0.68841 0.18357 0.42654 0.0
O330 O 0.70211 0.24419 0.44802 0.0
C331 C 0.77546 0.27733 0.42809 0.0
N332 N 0.74961 0.29606 0.41216 0.0
C333 C 0.79202 0.35206 0.4057 0.0
C334 C 0.81913 0.33345 0.42216 0.0
C335 C 0.8109 0.29574 0.43291 0.0
C336 C 0.75748 0.33183 0.40056 0.0
H337 H 0.76898 0.24878 0.43744 0.0
C338 C 0.70005 0.20847 0.45264 0.0
O339 O 0.64909 0.14156 0.36267 0.0
O340 O 0.70575 0.16032 0.34965 0.0
N341 N 0.69773 0.3254 0.37835 0.0
C342 C 0.66869 0.33889 0.36208 0.0
C343 C 0.67288 0.37528 0.34732 0.0
C344 C 0.70647 0.39805 0.35093 0.0
C345 C 0.73563 0.38412 0.36907 0.0
C346 C 0.7301 0.34722 0.38216 0.0
H347 H 0.64259 0.32192 0.36018 0.0
O348 O 0.66529 0.21515 0.32178 0.0
O349 O 0.70077 0.24508 0.36725 0.0
O350 O 0.62728 0.21613 0.39124 0.0
O351 O 0.64556 0.27598 0.41072 0.0
C352 C 0.76978 0.40566 0.37537 0.0
C353 C 0.79802 0.38956 0.39348 0.0
H354 H 0.8464 0.3477 0.42631 0.0
H355 H 0.83168 0.28114 0.44551 0.0
H356 H 0.65012 0.38602 0.33382 0.0
H357 H 0.70944 0.42635 0.34011 0.0
H358 H 0.77479 0.4344 0.36584 0.0
H359 H 0.82438 0.40605 0.39731 0.0
Mn360 Mn 0.64476 0.66313 0.63901 0.0
Mn361 Mn 0.61077 0.67592 0.72554 0.0
C362 C 0.67308 0.71088 0.68198 0.0
C363 C 0.67973 0.6375 0.59199 0.0
C364 C 0.57341 0.69378 0.65278 0.0
O365 O 0.61716 0.6105 0.64961 0.0
O366 O 0.6018 0.62119 0.71053 0.0
C367 C 0.64707 0.63223 0.78022 0.0
N368 N 0.64089 0.6667 0.7677 0.0
C369 C 0.65651 0.69689 0.82929 0.0
C370 C 0.66075 0.66131 0.84316 0.0
C371 C 0.65731 0.62908 0.81834 0.0
C372 C 0.64584 0.69825 0.79114 0.0
H373 H 0.6421 0.60689 0.7619 0.0
C374 C 0.60511 0.59903 0.68157 0.0
O375 O 0.64941 0.64975 0.58452 0.0
O376 O 0.69006 0.63892 0.62767 0.0
N377 N 0.61942 0.72826 0.74246 0.0
C378 C 0.60814 0.75915 0.7264 0.0
C379 C 0.61297 0.79447 0.7465 0.0
C380 C 0.62836 0.79741 0.78341 0.0
C381 C 0.63929 0.7651 0.79952 0.0
C382 C 0.63545 0.73109 0.77733 0.0
H383 H 0.59548 0.75687 0.69859 0.0
O384 O 0.67565 0.71391 0.64546 0.0
O385 O 0.65258 0.68099 0.69194 0.0
O386 O 0.59916 0.68914 0.63126 0.0
O387 O 0.57439 0.68685 0.68765 0.0
C388 C 0.65219 0.76486 0.83731 0.0
C389 C 0.65967 0.73052 0.8525 0.0
H390 H 0.66547 0.65817 0.8731 0.0
H391 H 0.66084 0.60158 0.82899 0.0
H392 H 0.60417 0.81916 0.73387 0.0
H393 H 0.6311 0.82443 0.79933 0.0
H394 H 0.65482 0.7905 0.85544 0.0
H395 H 0.66686 0.73025 0.88232 0.0
Mn396 Mn 0.66901 0.39312 0.85322 0.0
Mn397 Mn 0.66137 0.30915 0.89748 0.0
C398 C 0.70362 0.34617 0.83493 0.0
C399 C 0.65234 0.43331 0.80601 0.0
C400 C 0.70122 0.38223 0.93271 0.0
O401 O 0.62001 0.39134 0.87813 0.0
O402 O 0.61726 0.33354 0.90318 0.0
C403 C 0.60225 0.26524 0.85051 0.0
N404 N 0.63636 0.26868 0.86589 0.0
C405 C 0.64449 0.20599 0.84187 0.0
C406 C 0.60936 0.20175 0.82592 0.0
C407 C 0.58819 0.23157 0.83017 0.0
C408 C 0.65694 0.24014 0.86203 0.0
H409 H 0.58588 0.28795 0.85381 0.0
C410 C 0.6035 0.3636 0.8954 0.0
O411 O 0.66832 0.44654 0.83773 0.0
O412 O 0.645 0.39663 0.80178 0.0
N413 N 0.70221 0.28188 0.89345 0.0
C414 C 0.73666 0.292 0.90716 0.0
C415 C 0.76195 0.2661 0.90328 0.0
C416 C 0.75141 0.22999 0.88581 0.0
C417 C 0.71582 0.22015 0.87213 0.0
C418 C 0.69181 0.24709 0.87677 0.0
H419 H 0.7448 0.31967 0.92077 0.0
O420 O 0.71381 0.38149 0.82802 0.0
O421 O 0.67361 0.33911 0.85254 0.0
O422 O 0.69732 0.4031 0.90464 0.0
O423 O 0.68777 0.34751 0.93308 0.0
C424 C 0.70357 0.18512 0.85292 0.0
C425 C 0.66792 0.17805 0.83779 0.0
H426 H 0.59851 0.17588 0.81003 0.0
H427 H 0.56109 0.22861 0.81785 0.0
H428 H 0.78945 0.27393 0.91376 0.0
H429 H 0.77084 0.21009 0.88257 0.0
H430 H 0.72159 0.16376 0.84887 0.0
H431 H 0.65903 0.15132 0.82241 0.0
Mn432 Mn 0.36804 0.18327 0.8729 0.0
Mn433 Mn 0.37372 0.19835 0.77843 0.0
C434 C 0.34091 0.23144 0.84673 0.0
C435 C 0.34076 0.15603 0.92653 0.0
C436 C 0.43212 0.22936 0.83622 0.0
O437 O 0.38334 0.13329 0.85124 0.0
O438 O 0.3879 0.14799 0.78992 0.0
C439 C 0.31503 0.13839 0.75156 0.0
N440 N 0.33054 0.17525 0.75226 0.0
C441 C 0.28739 0.19094 0.70549 0.0
C442 C 0.27103 0.15311 0.70413 0.0
C443 C 0.28475 0.1268 0.72749 0.0
C444 C 0.31704 0.20097 0.73057 0.0
H445 H 0.32577 0.11796 0.76907 0.0
C446 C 0.38999 0.12504 0.81662 0.0
O447 O 0.37471 0.16931 0.9268 0.0
O448 O 0.3232 0.15597 0.89421 0.0
N449 N 0.36084 0.24531 0.76084 0.0
C450 C 0.37885 0.28103 0.76652 0.0
C451 C 0.36792 0.31091 0.74599 0.0
C452 C 0.3393 0.30362 0.71901 0.0
C453 C 0.32172 0.26651 0.71295 0.0
C454 C 0.33348 0.23796 0.73463 0.0
H455 H 0.40134 0.28675 0.78665 0.0
O456 O 0.3488 0.23237 0.88281 0.0
O457 O 0.34797 0.20178 0.82659 0.0
O458 O 0.4178 0.21325 0.8648 0.0
O459 O 0.41844 0.22442 0.80262 0.0
C460 C 0.29272 0.25681 0.68654 0.0
C461 C 0.27538 0.21909 0.68303 0.0
H462 H 0.24788 0.14398 0.68537 0.0
H463 H 0.27223 0.09758 0.72667 0.0
H464 H 0.38173 0.33944 0.75073 0.0
H465 H 0.33097 0.32673 0.7032 0.0
H466 H 0.28303 0.27828 0.66939 0.0
H467 H 0.25264 0.21214 0.6632 0.0
Mn468 Mn 0.36981 0.37154 0.37536 0.0
Mn469 Mn 0.35009 0.27915 0.39528 0.0
C470 C 0.34661 0.32545 0.32819 0.0
C471 C 0.3607 0.43462 0.36414 0.0
C472 C 0.42599 0.31894 0.39548 0.0
O473 O 0.35861 0.37416 0.4326 0.0
O474 O 0.3441 0.31105 0.44158 0.0
C475 C 0.27458 0.26671 0.41729 0.0
N476 N 0.30004 0.26066 0.3916 0.0
C477 C 0.26331 0.20522 0.36428 0.0
C478 C 0.23791 0.20965 0.392 0.0
C479 C 0.24287 0.24115 0.41777 0.0
C480 C 0.29473 0.23111 0.36568 0.0
H481 H 0.27934 0.28951 0.43875 0.0
C482 C 0.3472 0.34613 0.45313 0.0
O483 O 0.39158 0.42545 0.37481 0.0
O484 O 0.33373 0.4075 0.36215 0.0
N485 N 0.35474 0.24712 0.35123 0.0
C486 C 0.38461 0.2432 0.33082 0.0
C487 C 0.38282 0.21496 0.30152 0.0
C488 C 0.35063 0.19048 0.29419 0.0
C489 C 0.32045 0.1949 0.3159 0.0
C490 C 0.32338 0.22468 0.34355 0.0
H491 H 0.40963 0.26143 0.33683 0.0
O492 O 0.36797 0.35543 0.31941 0.0
O493 O 0.34227 0.32216 0.36412 0.0
O494 O 0.41779 0.35057 0.38506 0.0
O495 O 0.40238 0.29114 0.40089 0.0
C496 C 0.28806 0.17002 0.31226 0.0
C497 C 0.25997 0.17451 0.33722 0.0
H498 H 0.21533 0.1881 0.39493 0.0
H499 H 0.22314 0.24465 0.43911 0.0
H500 H 0.40633 0.21166 0.28506 0.0
H501 H 0.34956 0.1681 0.27221 0.0
H502 H 0.28507 0.14637 0.29152 0.0
H503 H 0.23635 0.15366 0.33579 0.0
Mn504 Mn 0.34966 0.67646 0.18918 0.0
Mn505 Mn 0.39566 0.71001 0.27015 0.0
C506 C 0.31878 0.69841 0.24035 0.0
C507 C 0.32092 0.6799 0.12971 0.0
C508 C 0.37668 0.6259 0.24974 0.0
O509 O 0.4008 0.69064 0.17 0.0
O510 O 0.42843 0.71017 0.22638 0.0
C511 C 0.41821 0.78968 0.24996 0.0
N512 N 0.40244 0.76438 0.27432 0.0
C513 C 0.39679 0.81446 0.32109 0.0
C514 C 0.4132 0.841 0.29653 0.0
C515 C 0.42372 0.82856 0.26067 0.0
C516 C 0.39168 0.77615 0.30863 0.0
H517 H 0.42658 0.78023 0.22269 0.0
C518 C 0.42867 0.70431 0.19028 0.0
O519 O 0.33242 0.64902 0.14042 0.0
O520 O 0.32843 0.70989 0.15232 0.0
N521 N 0.36829 0.71291 0.31497 0.0
C522 C 0.35102 0.68399 0.3344 0.0
C523 C 0.33926 0.69149 0.37107 0.0
C524 C 0.3452 0.72864 0.38728 0.0
C525 C 0.36185 0.75816 0.36628 0.0
C526 C 0.37376 0.74882 0.33025 0.0
H527 H 0.34698 0.65525 0.32241 0.0
O528 O 0.30352 0.67251 0.21597 0.0
O529 O 0.35283 0.7099 0.23544 0.0
O530 O 0.36332 0.63029 0.21692 0.0
O531 O 0.39021 0.6539 0.27143 0.0
C532 C 0.36756 0.79637 0.37992 0.0
C533 C 0.38479 0.82457 0.35722 0.0
H534 H 0.41759 0.87099 0.30477 0.0
H535 H 0.43628 0.84884 0.24145 0.0
H536 H 0.3261 0.6686 0.38702 0.0
H537 H 0.33683 0.7342 0.4159 0.0
H538 H 0.35851 0.80443 0.40768 0.0
H539 H 0.38849 0.85395 0.36771 0.0
Mn540 Mn 0.68387 0.87505 0.1904 0.0
Mn541 Mn 0.64404 0.84019 0.26933 0.0
C542 C 0.71824 0.8585 0.24164 0.0
C543 C 0.70895 0.87013 0.13015 0.0
C544 C 0.65104 0.92347 0.2508 0.0
O545 O 0.63137 0.85605 0.17141 0.0
O546 O 0.61007 0.82894 0.22483 0.0
C547 C 0.63485 0.75713 0.25136 0.0
N548 N 0.64833 0.78746 0.27454 0.0
C549 C 0.67046 0.74644 0.32002 0.0
C550 C 0.65649 0.71479 0.29669 0.0
C551 C 0.6388 0.7202 0.26209 0.0
C552 C 0.66561 0.78257 0.30783 0.0
H553 H 0.62118 0.76115 0.22499 0.0
C554 C 0.60696 0.83598 0.18958 0.0
O555 O 0.69657 0.90069 0.14239 0.0
O556 O 0.70469 0.84125 0.15183 0.0
N557 N 0.675 0.84859 0.31393 0.0
C558 C 0.68933 0.8821 0.33177 0.0
C559 C 0.70994 0.8817 0.3656 0.0
C560 C 0.71537 0.84691 0.38094 0.0
C561 C 0.70025 0.81279 0.3622 0.0
C562 C 0.67998 0.81495 0.32855 0.0
H563 H 0.68528 0.90898 0.32025 0.0
O564 O 0.73233 0.88282 0.218 0.0
O565 O 0.68474 0.84511 0.23493 0.0
O566 O 0.66883 0.92048 0.22085 0.0
O567 O 0.63819 0.89488 0.2691 0.0
C568 C 0.70502 0.77673 0.37528 0.0
C569 C 0.68999 0.74357 0.3543 0.0
H570 H 0.65973 0.68627 0.30476 0.0
H571 H 0.62817 0.69595 0.24375 0.0
H572 H 0.72161 0.90816 0.37983 0.0
H573 H 0.73142 0.84672 0.40695 0.0
H574 H 0.72061 0.77419 0.40118 0.0
H575 H 0.69432 0.71602 0.36433 0.0
H576 H 0.19797 0.27649 0.24038 0.0
H577 H 0.2598 0.19948 0.18166 0.0
H578 H 0.31429 0.22699 0.21804 0.0
H579 H 0.34441 0.2733 0.26749 0.0
H580 H 0.27947 0.34338 0.33165 0.0
H581 H 0.22605 0.31801 0.29298 0.0
C582 C 0.22281 0.26473 0.23639 0.0
C583 C 0.22437 0.23528 0.20898 0.0
C584 C 0.25375 0.27987 0.2583 0.0
C585 C 0.25778 0.22202 0.20286 0.0
C586 C 0.28898 0.23776 0.22363 0.0
C587 C 0.31855 0.28285 0.27289 0.0
C588 C 0.31587 0.31026 0.30224 0.0
C589 C 0.28738 0.26681 0.2515 0.0
C590 C 0.28216 0.32242 0.30903 0.0
C591 C 0.25157 0.30784 0.28703 0.0
H592 H 0.7855 0.33084 0.2114 0.0
H593 H 0.82867 0.22401 0.20411 0.0
H594 H 0.78316 0.19708 0.24802 0.0
H595 H 0.73651 0.2074 0.29478 0.0
H596 H 0.69098 0.31288 0.29798 0.0
H597 H 0.73236 0.33749 0.24982 0.0
C598 C 0.78447 0.30142 0.21896 0.0
C599 C 0.81079 0.27956 0.20554 0.0
C600 C 0.75844 0.28645 0.2441 0.0
C601 C 0.80889 0.24135 0.21461 0.0
C602 C 0.78298 0.22612 0.23976 0.0
C603 C 0.73574 0.23581 0.28489 0.0
C604 C 0.71247 0.25946 0.30192 0.0
C605 C 0.75865 0.24898 0.25591 0.0
C606 C 0.71042 0.29536 0.28761 0.0
C607 C 0.7335 0.30899 0.25927 0.0
H608 H 0.33362 0.77195 0.26728 0.0
H609 H 0.24839 0.67852 0.25634 0.0
H610 H 0.20603 0.71989 0.28045 0.0
H611 H 0.19372 0.78272 0.3056 0.0
H612 H 0.28232 0.86951 0.33433 0.0
H613 H 0.32392 0.83049 0.304 0.0
C614 C 0.30694 0.75936 0.2738 0.0
C615 C 0.29524 0.72134 0.26234 0.0
C616 C 0.28343 0.7821 0.29129 0.0
C617 C 0.25866 0.70729 0.26604 0.0
C618 C 0.23435 0.73087 0.28 0.0
C619 C 0.2224 0.79196 0.30767 0.0
C620 C 0.2351 0.82789 0.32428 0.0
C621 C 0.24653 0.76814 0.29322 0.0
C622 C 0.27199 0.84136 0.32282 0.0
C623 C 0.29582 0.819 0.30569 0.0
H624 H 0.82438 0.79095 0.35582 0.0
H625 H 0.7675 0.68726 0.3048 0.0
H626 H 0.73041 0.72343 0.2661 0.0
H627 H 0.71712 0.78383 0.24342 0.0
H628 H 0.77154 0.88884 0.29353 0.0
H629 H 0.80767 0.85312 0.33529 0.0
C630 C 0.80334 0.77656 0.33672 0.0
C631 C 0.79916 0.73673 0.33206 0.0
C632 C 0.78222 0.7977 0.31416 0.0
C633 C 0.77162 0.71801 0.30788 0.0
C634 C 0.75047 0.73861 0.28579 0.0
C635 C 0.73647 0.79889 0.264 0.0
C636 C 0.74114 0.83863 0.26642 0.0
C637 C 0.75616 0.77834 0.28803 0.0
C638 C 0.76733 0.85807 0.29178 0.0
C639 C 0.78764 0.83768 0.31576 0.0
H640 H 0.30032 0.74189 0.71749 0.0
H641 H 0.2966 0.86086 0.74477 0.0
H642 H 0.24845 0.84523 0.7886 0.0
H643 H 0.206 0.79819 0.81702 0.0
H644 H 0.21215 0.67911 0.79688 0.0
H645 H 0.2595 0.69398 0.75126 0.0
C646 C 0.2888 0.76418 0.73305 0.0
C647 C 0.30198 0.80243 0.72793 0.0
C648 C 0.26134 0.75498 0.75919 0.0
C649 C 0.28703 0.83117 0.74841 0.0
C650 C 0.25942 0.8223 0.77346 0.0
C651 C 0.21841 0.77552 0.80434 0.0
C652 C 0.2059 0.73779 0.81172 0.0
C653 C 0.24635 0.78436 0.7791 0.0
C654 C 0.22117 0.70866 0.79198 0.0
C655 C 0.24841 0.71709 0.76591 0.0
H656 H 0.68407 0.77774 0.72552 0.0
H657 H 0.73305 0.67818 0.69369 0.0
H658 H 0.78606 0.70081 0.73449 0.0
H659 H 0.81878 0.74955 0.77914 0.0
H660 H 0.76566 0.84383 0.81865 0.0
H661 H 0.71405 0.82295 0.77538 0.0
C662 C 0.70602 0.76077 0.72811 0.0
C663 C 0.70451 0.7262 0.70696 0.0
C664 C 0.73577 0.77317 0.75301 0.0
C665 C 0.73366 0.70491 0.70982 0.0
C666 C 0.76394 0.7178 0.73317 0.0
C667 C 0.79565 0.76498 0.7789 0.0
C668 C 0.79592 0.79794 0.80237 0.0
C669 C 0.76533 0.75188 0.75502 0.0
C670 C 0.76602 0.81829 0.80082 0.0
C671 C 0.73649 0.80638 0.7761 0.0
H672 H 0.77539 0.3459 0.82757 0.0
H673 H 0.67244 0.28143 0.79824 0.0
H674 H 0.70216 0.22796 0.77438 0.0
H675 H 0.75785 0.19908 0.76414 0.0
H676 H 0.85763 0.27371 0.76827 0.0
H677 H 0.83009 0.32259 0.80279 0.0
C678 C 0.75961 0.31994 0.81624 0.0
C679 C 0.72193 0.31587 0.81761 0.0
C680 C 0.77684 0.29054 0.80016 0.0
C681 C 0.70158 0.2836 0.80019 0.0
C682 C 0.71853 0.25331 0.78617 0.0
C683 C 0.77369 0.22579 0.77326 0.0
C684 C 0.81118 0.23085 0.76851 0.0
C685 C 0.75624 0.25609 0.78704 0.0
C686 C 0.83041 0.26686 0.77723 0.0
C687 C 0.81405 0.29561 0.79516 0.0
H688 H 0.2735 0.37065 0.78163 0.0
H689 H 0.20758 0.27768 0.72111 0.0
H690 H 0.2366 0.23197 0.75623 0.0
H691 H 0.28213 0.2178 0.80173 0.0
H692 H 0.35281 0.30849 0.85927 0.0
H693 H 0.32031 0.3558 0.82862 0.0
C694 C 0.26597 0.34039 0.77609 0.0
C695 C 0.23795 0.32737 0.74973 0.0
C696 C 0.28349 0.31393 0.79587 0.0
C697 C 0.22852 0.28821 0.74214 0.0
C698 C 0.24503 0.26202 0.76214 0.0
C699 C 0.29047 0.24797 0.80727 0.0
C700 C 0.32038 0.26 0.83116 0.0
C701 C 0.2726 0.27452 0.78883 0.0
C702 C 0.33016 0.29893 0.83995 0.0
C703 C 0.31179 0.32584 0.82234 0.0
H704 H 0.16508 0.94848 0.23519 0.0
H705 H 0.09793 0.97911 0.32604 0.0
H706 H 0.0778 0.02943 0.28894 0.0
H707 H 0.08543 0.07006 0.23535 0.0
H708 H 0.15862 0.04651 0.14753 0.0
H709 H 0.16879 0.98745 0.17744 0.0
C710 C 0.14548 0.96575 0.24634 0.0
C711 C 0.13295 0.96013 0.28334 0.0
C712 C 0.135 0.99593 0.22523 0.0
C713 C 0.108 0.983 0.29775 0.0
C714 C 0.09645 1.01176 0.27651 0.0
C715 C 0.10295 0.05162 0.22202 0.0
C716 C 0.12146 0.06322 0.18928 0.0
C717 C 0.11059 1.01924 0.24078 0.0
C718 C 0.14378 0.03851 0.17252 0.0
C719 C 0.15012 1.00494 0.19008 0.0
H720 H 0.90149 0.44104 0.2872 0.0
H721 H 0.90198 0.47902 0.17234 0.0
H722 H 0.90007 0.54429 0.19676 0.0
H723 H 0.89392 0.58934 0.25 0.0
H724 H 0.88937 0.55055 0.36453 0.0
H725 H 0.89749 0.48654 0.34063 0.0
C726 C 0.90169 0.46351 0.26727 0.0
C727 C 0.90197 0.4548 0.22771 0.0
C728 C 0.89964 0.50078 0.28147 0.0
C729 C 0.90186 0.48462 0.20275 0.0
C730 C 0.90065 0.52198 0.21676 0.0
C731 C 0.89513 0.56715 0.27005 0.0
C732 C 0.89101 0.5751 0.30929 0.0
C733 C 0.8989 0.53023 0.256 0.0
C734 C 0.89246 0.54555 0.33436 0.0
C735 C 0.89701 0.50886 0.32064 0.0
H736 H 0.27032 0.12738 0.93498 0.0
H737 H 0.36882 0.16548 0.99938 0.0
H738 H 0.33605 0.1617 0.05845 0.0
H739 H 0.27765 0.155 0.09141 0.0
H740 H 0.17968 0.11776 1.02569 0.0
H741 H 0.21383 0.11325 0.96828 0.0
C742 C 0.28479 0.13418 0.96195 0.0
C743 C 0.32199 0.14701 0.96249 0.0
C744 C 0.26569 0.13235 0.99591 0.0
C745 C 0.34019 0.15557 0.99791 0.0
C746 C 0.3214 0.15359 0.03183 0.0
C747 C 0.26399 0.14494 0.06471 0.0
C748 C 0.22607 0.13699 0.06294 0.0
C749 C 0.28389 0.14305 0.03119 0.0
C750 C 0.20878 0.12435 0.02792 0.0
C751 C 0.22829 0.12186 0.99491 0.0
H752 H 0.8348 0.41059 0.04576 0.0
H753 H 0.75372 0.36937 0.12403 0.0
H754 H 0.70663 0.37079 0.07505 0.0
H755 H 0.6895 0.37505 1.00757 0.0
H756 H 0.76951 0.41871 0.92957 0.0
H757 H 0.81584 0.42569 0.98079 0.0
C758 C 0.80674 0.40273 0.05229 0.0
C759 C 0.79788 0.38943 0.0884 0.0
C760 C 0.7796 0.40385 1.02393 0.0
C761 C 0.76136 0.37969 0.09653 0.0
C762 C 0.73436 0.38027 0.06843 0.0
C763 C 0.71688 0.38721 1.00214 0.0
C764 C 0.72614 0.39639 0.96493 0.0
C765 C 0.74329 0.39108 0.03171 0.0
C766 C 0.76168 0.41194 0.9581 0.0
C767 C 0.78825 0.41549 0.98731 0.0
H768 H 0.32012 0.92269 0.55594 0.0
H769 H 0.24219 0.86674 0.62963 0.0
H770 H 0.19574 0.86251 0.5788 0.0
H771 H 0.18 0.86637 0.51043 0.0
H772 H 0.25674 0.92617 0.43807 0.0
H773 H 0.30073 0.93778 0.49126 0.0
C774 C 0.29267 0.91061 0.56117 0.0
C775 C 0.28464 0.89487 0.59644 0.0
C776 C 0.266 0.90861 0.53185 0.0
C777 C 0.249 0.87934 0.60288 0.0
C778 C 0.2225 0.87656 0.57365 0.0
C779 C 0.20598 0.88293 0.50669 0.0
C780 C 0.21515 0.89536 0.47036 0.0
C781 C 0.23103 0.88988 0.5376 0.0
C782 C 0.24891 0.9167 0.46581 0.0
C783 C 0.27421 0.923 0.49617 0.0
H784 H 0.75317 0.63484 0.5903 0.0
H785 H 0.65531 0.6148 0.52082 0.0
H786 H 0.69007 0.60798 0.4642 0.0
H787 H 0.7483 0.6159 0.43298 0.0
H788 H 0.84661 0.6367 0.50159 0.0
H789 H 0.81197 0.63439 0.55929 0.0
C790 C 0.7395 0.62804 0.5629 0.0
C791 C 0.70165 0.62578 0.55993 0.0
C792 C 0.75983 0.62469 0.52991 0.0
C793 C 0.68442 0.61713 0.52404 0.0
C794 C 0.7043 0.61328 0.49146 0.0
C795 C 0.7622 0.61905 0.46053 0.0
C796 C 0.80005 0.62683 0.4627 0.0
C797 C 0.74205 0.61826 0.49381 0.0
C798 C 0.81749 0.63086 0.49885 0.0
C799 C 0.79766 0.62972 0.53203 0.0
H800 H 0.9446 0.25972 0.13743 0.0
H801 H 1.00954 0.36426 0.17447 0.0
H802 H 0.06463 0.33502 0.16361 0.0
H803 H 0.09371 0.27738 0.15251 0.0
H804 H 0.0283 0.17 0.12823 0.0
H805 H 0.97416 0.20237 0.12348 0.0
C806 C 0.97091 0.27627 0.14202 0.0
C807 C 0.97322 0.31419 0.1562 0.0
C808 C 1.00232 0.25847 0.13808 0.0
C809 C 1.00727 0.33519 0.16314 0.0
C810 C 0.03869 0.31838 0.15714 0.0
C811 C 0.06764 0.26118 0.14572 0.0
C812 C 0.0649 0.2214 0.14069 0.0
C813 C 0.0365 0.27968 0.14597 0.0
C814 C 0.03107 0.20071 0.13156 0.0
C815 C 1.00011 0.2192 0.12937 0.0
H816 H 0.95243 0.77896 0.31899 0.0
H817 H 0.95944 0.71158 0.41751 0.0
H818 H 0.01151 0.7547 0.44198 0.0
H819 H 0.05815 0.80771 0.43267 0.0
H820 H 0.05264 0.87459 0.33388 0.0
H821 H 0.99536 0.83718 0.31369 0.0
C822 C 0.96518 0.77377 0.34588 0.0
C823 C 0.95216 0.74172 0.3661 0.0
C824 C 0.9948 0.7992 0.36029 0.0
C825 C 0.96899 0.73577 0.40112 0.0
C826 C 0.99863 0.76059 0.41534 0.0
C827 C 0.04374 0.81499 0.40741 0.0
C828 C 0.05981 0.84365 0.38467 0.0
C829 C 0.01198 0.79209 0.39497 0.0
C830 C 0.04079 0.85291 0.35213 0.0
C831 C 1.00842 0.83089 0.34008 0.0
H832 H 0.57407 0.76783 0.63759 0.0
H833 H 0.50385 0.66223 0.6405 0.0
H834 H 0.4509 0.69629 0.63556 0.0
H835 H 0.42505 0.75667 0.64211 0.0
H836 H 0.49612 0.86198 0.65437 0.0
H837 H 0.54808 0.82825 0.64115 0.0
C838 C 0.54713 0.75231 0.63624 0.0
C839 C 0.54273 0.71261 0.63911 0.0
C840 C 0.51695 0.7724 0.63659 0.0
C841 C 0.50778 0.69275 0.63779 0.0
C842 C 0.47756 0.71229 0.63537 0.0
C843 C 0.45186 0.77223 0.64093 0.0
C844 C 0.45687 0.81173 0.64889 0.0
C845 C 0.48182 0.75221 0.63644 0.0
C846 C 0.49169 0.83163 0.64784 0.0
C847 C 0.52138 0.81226 0.64067 0.0
H848 H 0.89316 0.09208 0.81659 0.0
H849 H 0.83875 0.0522 0.71029 0.0
H850 H 0.82068 0.99015 0.73669 0.0
H851 H 0.82136 0.94634 0.79033 0.0
H852 H 0.87552 0.98814 0.89599 0.0
H853 H 0.89129 0.0505 0.87004 0.0
C854 C 0.8775 0.0699 0.79891 0.0
C855 C 0.86772 0.07711 0.7612 0.0
C856 C 0.86626 0.03469 0.81463 0.0
C857 C 0.84709 0.04768 0.73922 0.0
C858 C 0.83641 1.01217 0.75447 0.0
C859 C 0.83558 0.96953 0.80794 0.0
C860 C 0.84653 0.96285 0.84542 0.0
C861 C 0.84562 1.00534 0.79229 0.0
C862 C 0.86615 0.99278 0.86741 0.0
C863 C 0.87561 0.02832 0.85239 0.0
H864 H 0.18921 0.59753 0.79581 0.0
H865 H 0.13835 0.55329 0.89568 0.0
H866 H 0.12922 0.48938 0.86556 0.0
H867 H 0.13363 0.44647 0.81018 0.0
H868 H 0.18223 0.49063 0.70877 0.0
H869 H 0.19332 0.55403 0.73964 0.0
C870 C 0.17696 0.57363 0.81117 0.0
C871 C 0.16524 0.57983 0.84824 0.0
C872 C 0.17044 0.5371 0.79301 0.0
C873 C 0.14818 0.54898 0.8674 0.0
C874 C 0.1426 0.51254 0.85003 0.0
C875 C 0.14631 0.46993 0.79454 0.0
C876 C 0.15685 0.46344 0.75697 0.0
C877 C 0.15306 0.50635 0.81262 0.0
C878 C 0.1735 0.49451 0.73755 0.0
C879 C 0.1802 0.53086 0.75533 0.0
H880 H 0.76274 0.82767 0.11295 0.0
H881 H 0.70363 0.91397 0.06906 0.0
H882 H 0.74032 0.91698 1.01256 0.0
H883 H 0.78753 0.89258 0.97379 0.0
H884 H 0.84682 0.80685 1.01854 0.0
H885 H 0.81282 0.80701 0.07669 0.0
C886 C 0.75772 0.8469 0.09086 0.0
C887 C 0.72998 0.87001 0.09491 0.0
C888 C 0.77959 0.8492 0.05882 0.0
C889 C 0.72449 0.89551 0.06645 0.0
C890 C 0.74565 0.89744 0.03421 0.0
C891 C 0.79384 0.87498 0.99686 0.0
C892 C 0.82011 0.85016 0.992 0.0
C893 C 0.7733 0.87438 0.02997 0.0
C894 C 0.82714 0.82662 1.02176 0.0
C895 C 0.80733 0.8263 0.05484 0.0
H896 H 0.22475 0.65103 0.97827 0.0
H897 H 0.17104 0.7388 0.03172 0.0
H898 H 0.21189 0.74124 0.08723 0.0
H899 H 0.26613 0.72222 0.11852 0.0
H900 H 0.31958 0.63389 0.06582 0.0
H901 H 0.27629 0.62844 1.01191 0.0
C902 C 0.22117 0.66967 1.00266 0.0
C903 C 0.19453 0.69436 1.00099 0.0
C904 C 0.24561 0.67182 0.0341 0.0
C905 C 0.19099 0.71916 0.03246 0.0
C906 C 0.21471 0.72098 0.064 0.0
C907 C 0.2685 0.70209 0.09501 0.0
C908 C 0.2965 0.67909 0.09575 0.0
C909 C 0.24284 0.69833 0.06463 0.0
C910 C 0.29858 0.65233 0.06563 0.0
C911 C 0.27364 0.64897 0.03495 0.0
H912 H 0.73206 0.25524 0.50983 0.0
H913 H 0.70941 0.13636 0.47496 0.0
H914 H 0.74695 0.12025 0.52858 0.0
H915 H 0.78866 0.14065 0.58374 0.0
H916 H 0.81236 0.26026 0.61513 0.0
H917 H 0.77253 0.2753 0.56366 0.0
C918 C 0.73481 0.22561 0.51389 0.0
C919 C 0.71765 0.19706 0.48813 0.0
C920 C 0.75732 0.21677 0.54379 0.0
C921 C 0.72196 0.15897 0.49431 0.0
C922 C 0.74375 0.14979 0.5248 0.0
C923 C 0.78529 0.17002 0.57913 0.0
C924 C 0.80373 0.19933 0.60323 0.0
C925 C 0.7621 0.17856 0.54934 0.0
C926 C 0.79877 0.23717 0.597 0.0
C927 C 0.7758 0.2458 0.56767 0.0
H928 H 0.26499 0.3248 0.60537 0.0
H929 H 0.20781 0.41145 0.55902 0.0
H930 H 0.24859 0.41702 0.5059 0.0
H931 H 0.29939 0.39546 0.471 0.0
H932 H 0.35645 0.30891 0.51754 0.0
H933 H 0.31791 0.30602 0.57251 0.0
C934 C 0.26122 0.34455 0.58337 0.0
C935 C 0.23292 0.36714 0.5858 0.0
C936 C 0.28543 0.34834 0.55332 0.0
C937 C 0.22906 0.39336 0.55759 0.0
C938 C 0.25258 0.39679 0.52733 0.0
C939 C 0.30415 0.37698 0.49385 0.0
C940 C 0.33125 0.35297 0.4905 0.0
C941 C 0.28096 0.37451 0.52487 0.0
C942 C 0.33623 0.32818 0.51977 0.0
C943 C 0.31383 0.3261 0.55096 0.0
H944 H 0.07554 0.80393 0.90296 0.0
H945 H 0.04172 0.68306 0.9033 0.0
H946 H 0.97856 0.69448 0.90095 0.0
H947 H 0.93315 0.73859 0.89761 0.0
H948 H 0.96712 0.85928 0.89496 0.0
H949 H 0.03023 0.84795 0.8993 0.0
C950 C 0.05444 0.77998 0.90276 0.0
C951 C 0.0635 0.74262 0.90346 0.0
C952 C 0.01823 0.78672 0.90083 0.0
C953 C 0.03563 0.71207 0.90279 0.0
C954 C 0.99949 0.71859 0.90144 0.0
C955 C 0.95429 0.76252 0.89817 0.0
C956 C 0.94529 0.79982 0.8961 0.0
C957 C 0.9905 0.75578 0.90027 0.0
C958 C 0.97318 0.83033 0.89646 0.0
C959 C 1.00929 0.82386 0.899 0.0
H960 H 0.03451 0.34554 0.66978 0.0
H961 H 0.11158 0.26771 0.64715 0.0
H962 H 0.06374 0.21402 0.64633 0.0
H963 H 1.00165 0.18937 0.66657 0.0
H964 H 0.92261 0.26762 0.67374 0.0
H965 H 0.9691 0.32095 0.6651 0.0
C966 C 0.04053 0.3171 0.66246 0.0
C967 C 0.07667 0.31056 0.65938 0.0
C968 C 0.01254 0.2863 0.66016 0.0
C969 C 0.08393 0.27348 0.64968 0.0
C970 C 0.05661 0.24259 0.64981 0.0
C971 C 0.99439 0.21785 0.66449 0.0
C972 C 0.95893 0.2247 0.6719 0.0
C973 C 0.02103 0.24853 0.65722 0.0
C974 C 0.94984 0.26172 0.66842 0.0
C975 C 0.97649 0.29238 0.66383 0.0
H976 H 0.59491 0.31716 0.40737 0.0
H977 H 0.56078 0.19625 0.40574 0.0
H978 H 0.49778 0.2078 0.40493 0.0
H979 H 0.45258 0.25165 0.40133 0.0
H980 H 0.48608 0.37244 0.39912 0.0
H981 H 0.54932 0.36136 0.40446 0.0
C982 C 0.57376 0.29328 0.40712 0.0
C983 C 0.5827 0.25582 0.40652 0.0
C984 C 0.5375 0.30007 0.40561 0.0
C985 C 0.55478 0.22533 0.40609 0.0
C986 C 0.51871 0.2319 0.40555 0.0
C987 C 0.47361 0.27571 0.4023 0.0
C988 C 0.46446 0.3129 0.39987 0.0
C989 C 0.50979 0.2691 0.40476 0.0
C990 C 0.49226 0.34354 0.40082 0.0
C991 C 0.52843 0.33721 0.40394 0.0
H992 H 0.66212 0.56105 0.68683 0.0
H993 H 0.54761 0.54951 0.70229 0.0
H994 H 0.55143 0.49312 0.73948 0.0
H995 H 0.58916 0.45307 0.7759 0.0
H996 H 0.70464 0.47181 0.76698 0.0
H997 H 0.69901 0.5192 0.7195 0.0
C998 C 0.6378 0.54506 0.69686 0.0
C999 C 0.60443 0.5586 0.69063 0.0
C1000 C 0.64072 0.51454 0.72059 0.0
C1001 C 0.57338 0.53887 0.70557 0.0
C1002 C 0.57573 0.50704 0.72747 0.0
C1003 C 0.6129 0.46713 0.76294 0.0
C1004 C 0.6473 0.45892 0.77468 0.0
C1005 C 0.60947 0.49551 0.73648 0.0
C1006 C 0.67795 0.4777 0.75827 0.0
C1007 C 0.67472 0.50476 0.7311 0.0
H1008 H 0.42601 0.10058 0.75544 0.0
H1009 H 0.36196 0.06013 0.84906 0.0
H1010 H 0.35737 0.99533 0.82178 0.0
H1011 H 0.36643 0.95172 0.7686 0.0
H1012 H 0.43705 0.98783 0.67926 0.0
H1013 H 0.44196 0.05385 0.70573 0.0
C1014 C 0.41174 0.07743 0.77031 0.0
C1015 C 0.39445 0.0853 0.80449 0.0
C1016 C 0.40945 0.03996 0.75452 0.0
C1017 C 0.37595 0.05498 0.82321 0.0
C1018 C 0.37288 1.01796 0.8073 0.0
C1019 C 0.38467 0.97347 0.75614 0.0
C1020 C 0.40281 0.96446 0.72317 0.0
C1021 C 0.38898 1.01034 0.77277 0.0
C1022 C 0.42318 0.99391 0.70493 0.0
C1023 C 0.4262 0.0315 0.72032 0.0
H1024 H 0.46225 0.26022 0.90399 0.0
H1025 H 0.471 0.26803 0.78251 0.0
H1026 H 0.51786 0.32178 0.79194 0.0
H1027 H 0.56099 0.36162 0.83391 0.0
H1028 H 0.55922 0.34772 0.95449 0.0
H1029 H 0.50337 0.30369 0.94651 0.0
C1030 C 0.47455 0.27347 0.87955 0.0
C1031 C 0.46329 0.25949 0.84259 0.0
C1032 C 0.5019 0.30441 0.88509 0.0
C1033 C 0.47929 0.27762 0.81133 0.0
C1034 C 0.50585 0.30879 0.81664 0.0
C1035 C 0.54723 0.35054 0.85861 0.0
C1036 C 0.56394 0.35806 0.89472 0.0
C1037 C 0.51763 0.32217 0.85333 0.0
C1038 C 0.54646 0.34278 0.92647 0.0
C1039 C 0.51517 0.3167 0.92174 0.0
H1040 H 0.39285 0.60567 0.3218 0.0
H1041 H 0.34895 0.55819 0.21317 0.0
H1042 H 0.3356 0.49594 0.24019 0.0
H1043 H 0.33744 0.45408 0.29467 0.0
H1044 H 0.38376 0.50134 0.40203 0.0
H1045 H 0.39397 0.56449 0.37597 0.0
C1046 C 0.38059 0.58175 0.30382 0.0
C1047 C 0.37223 0.58698 0.26525 0.0
C1048 C 0.37258 0.54593 0.31966 0.0
C1049 C 0.35607 0.55531 0.24279 0.0
C1050 C 0.3481 0.5196 0.25833 0.0
C1051 C 0.34876 0.47849 0.31256 0.0
C1052 C 0.35888 0.47331 0.35057 0.0
C1053 C 0.35603 0.51455 0.2968 0.0
C1054 C 0.37495 0.50485 0.373 0.0
C1055 C 0.38122 0.54086 0.35794 0.0
H1056 H 0.62785 0.07155 0.34769 0.0
H1057 H 0.73195 0.11064 0.30378 0.0
H1058 H 0.73116 0.05025 0.26731 0.0
H1059 H 0.70083 0.98612 0.24809 0.0
H1060 H 0.59803 0.94651 0.29458 0.0
H1061 H 0.59808 1.00758 0.32933 0.0
C1062 C 0.65051 0.06687 0.33029 0.0
C1063 C 0.68 0.09565 0.32859 0.0
C1064 C 0.64983 0.03213 0.30944 0.0
C1065 C 0.70906 0.08895 0.30589 0.0
C1066 C 0.70849 0.05449 0.28481 0.0
C1067 C 0.67813 0.99112 0.2653 0.0
C1068 C 0.64912 0.96196 0.26821 0.0
C1069 C 0.67891 0.02595 0.28619 0.0
C1070 C 0.62046 0.96854 0.29153 0.0
C1071 C 0.62059 1.00339 0.31158 0.0
H1072 H 0.59083 0.7613 0.17046 0.0
H1073 H 0.54725 0.86768 0.16694 0.0
H1074 H 0.48627 0.8334 0.15657 0.0
H1075 H 0.44489 0.7738 0.16181 0.0
H1076 H 0.48896 0.66959 0.18103 0.0
H1077 H 0.5499 0.70153 0.17158 0.0
C1078 C 0.56802 0.77696 0.16705 0.0
C1079 C 0.57354 0.817 0.16985 0.0
C1080 C 0.53295 0.75705 0.16432 0.0
C1081 C 0.54382 0.83692 0.16434 0.0
C1082 C 0.50889 0.81724 0.15901 0.0
C1083 C 0.46784 0.75798 0.16317 0.0
C1084 C 0.46248 0.71932 0.17206 0.0
C1085 C 0.503 0.77739 0.16092 0.0
C1086 C 0.49235 0.69912 0.17363 0.0
C1087 C 0.52722 0.71757 0.16872 0.0
loop_
_geom_bond_atom_site_label_1
_geom_bond_atom_site_label_2
_geom_bond_distance
_geom_bond_site_symmetry_2
_ccdc_geom_bond_type
Mn0 O5 2.095 . S
Mn0 O15 2.162 . S
Mn0 O16 2.297 . S
Mn0 O24 2.385 . S
Mn0 O25 2.209 . S
Mn0 O26 2.094 . S
Mn1 O6 2.121 . S
Mn1 N8 2.257 . S
Mn1 N17 2.282 . S
Mn1 O25 2.215 . S
Mn1 O27 2.117 . S
C2 O24 1.234 . S
C2 O25 1.283 . S
C3 O15 1.281 . S
C3 O16 1.236 . S
C4 O26 1.240 . S
C4 O27 1.264 . S
O5 Mn0 2.095 . S
O5 C14 1.250 . S
O6 Mn1 2.121 . S
O6 C14 1.258 . S
C7 N8 1.326 . S
C7 C11 1.460 . S
C7 H13 0.929 . S
N8 Mn1 2.257 . S
N8 C7 1.326 . S
N8 C12 1.362 . S
C9 C10 1.258 . S
C9 C12 1.431 . S
C9 C29 1.449 . S
C10 C9 1.258 . S
C10 C11 1.477 . S
C10 H30 0.931 . S
C11 C7 1.460 . S
C11 C10 1.477 . S
C11 H31 0.930 . S
C12 N8 1.362 . S
C12 C9 1.431 . S
C12 C22 1.476 . S
H13 C7 0.929 . S
C14 O5 1.250 . S
C14 O6 1.258 . S
O15 Mn0 2.162 . S
O15 C3 1.281 . S
O16 Mn0 2.297 . S
O16 C3 1.236 . S
N17 Mn1 2.282 . S
N17 C18 1.328 . S
N17 C22 1.318 . S
C18 N17 1.328 . S
C18 C19 1.457 . S
C18 H23 0.929 . S
C19 C18 1.457 . S
C19 C20 1.291 . S
C19 H32 0.931 . S
C20 C19 1.291 . S
C20 C21 1.373 . S
C20 H33 0.929 . S
C21 C20 1.373 . S
C21 C22 1.396 . S
C21 C28 1.403 . S
C22 C12 1.476 . S
C22 N17 1.318 . S
C22 C21 1.396 . S
H23 C18 0.929 . S
O24 Mn0 2.385 . S
O24 C2 1.234 . S
O25 Mn0 2.209 . S
O25 Mn1 2.215 . S
O25 C2 1.283 . S
O26 Mn0 2.094 . S
O26 C4 1.240 . S
O27 Mn1 2.117 . S
O27 C4 1.264 . S
C28 C21 1.403 . S
C28 C29 1.399 . S
C28 H34 0.929 . S
C29 C9 1.449 . S
C29 C28 1.399 . S
C29 H35 0.930 . S
H30 C10 0.931 . S
H31 C11 0.930 . S
H32 C19 0.931 . S
H33 C20 0.929 . S
H34 C28 0.929 . S
H35 C29 0.930 . S
Mn36 O41 2.095 . S
Mn36 O51 2.162 . S
Mn36 O52 2.297 . S
Mn36 O60 2.385 . S
Mn36 O61 2.209 . S
Mn36 O62 2.094 . S
Mn37 O42 2.121 . S
Mn37 N44 2.257 . S
Mn37 N53 2.282 . S
Mn37 O61 2.215 . S
Mn37 O63 2.117 . S
C38 O60 1.234 . S
C38 O61 1.283 . S
C39 O51 1.281 . S
C39 O52 1.236 . S
C40 O62 1.240 . S
C40 O63 1.264 . S
O41 Mn36 2.095 . S
O41 C50 1.250 . S
O42 Mn37 2.121 . S
O42 C50 1.258 . S
C43 N44 1.326 . S
C43 C47 1.460 . S
C43 H49 0.929 . S
N44 Mn37 2.257 . S
N44 C43 1.326 . S
N44 C48 1.362 . S
C45 C46 1.258 . S
C45 C48 1.431 . S
C45 C65 1.449 . S
C46 C45 1.258 . S
C46 C47 1.477 . S
C46 H66 0.931 . S
C47 C43 1.460 . S
C47 C46 1.477 . S
C47 H67 0.930 . S
C48 N44 1.362 . S
C48 C45 1.431 . S
C48 C58 1.476 . S
H49 C43 0.929 . S
C50 O41 1.250 . S
C50 O42 1.258 . S
O51 Mn36 2.162 . S
O51 C39 1.281 . S
O52 Mn36 2.297 . S
O52 C39 1.236 . S
N53 Mn37 2.282 . S
N53 C54 1.328 . S
N53 C58 1.318 . S
C54 N53 1.328 . S
C54 C55 1.457 . S
C54 H59 0.929 . S
C55 C54 1.457 . S
C55 C56 1.291 . S
C55 H68 0.931 . S
C56 C55 1.291 . S
C56 C57 1.373 . S
C56 H69 0.929 . S
C57 C56 1.373 . S
C57 C58 1.396 . S
C57 C64 1.403 . S
C58 C48 1.476 . S
C58 N53 1.318 . S
C58 C57 1.396 . S
H59 C54 0.929 . S
O60 Mn36 2.385 . S
O60 C38 1.234 . S
O61 Mn36 2.209 . S
O61 Mn37 2.215 . S
O61 C38 1.283 . S
O62 Mn36 2.094 . S
O62 C40 1.240 . S
O63 Mn37 2.117 . S
O63 C40 1.264 . S
C64 C57 1.403 . S
C64 C65 1.399 . S
C64 H70 0.929 . S
C65 C45 1.449 . S
C65 C64 1.399 . S
C65 H71 0.930 . S
H66 C46 0.931 . S
H67 C47 0.930 . S
H68 C55 0.931 . S
H69 C56 0.929 . S
H70 C64 0.929 . S
H71 C65 0.930 . S
Mn72 O77 2.095 . S
Mn72 O87 2.162 . S
Mn72 O88 2.297 . S
Mn72 O96 2.385 . S
Mn72 O97 2.209 . S
Mn72 O98 2.094 . S
Mn73 O78 2.121 . S
Mn73 N80 2.257 . S
Mn73 N89 2.282 . S
Mn73 O97 2.215 . S
Mn73 O99 2.117 . S
C74 O96 1.234 . S
C74 O97 1.283 . S
C75 O87 1.281 . S
C75 O88 1.236 . S
C76 O98 1.240 . S
C76 O99 1.264 . S
O77 Mn72 2.095 . S
O77 C86 1.250 . S
O78 Mn73 2.121 . S
O78 C86 1.258 . S
C79 N80 1.326 . S
C79 C83 1.460 . S
C79 H85 0.929 . S
N80 Mn73 2.257 . S
N80 C79 1.326 . S
N80 C84 1.362 . S
C81 C82 1.258 . S
C81 C84 1.431 . S
C81 C101 1.449 . S
C82 C81 1.258 . S
C82 C83 1.477 . S
C82 H102 0.931 . S
C83 C79 1.460 . S
C83 C82 1.477 . S
C83 H103 0.930 . S
C84 N80 1.362 . S
C84 C81 1.431 . S
C84 C94 1.476 . S
H85 C79 0.929 . S
C86 O77 1.250 . S
C86 O78 1.258 . S
O87 Mn72 2.162 . S
O87 C75 1.281 . S
O88 Mn72 2.297 . S
O88 C75 1.236 . S
N89 Mn73 2.282 . S
N89 C90 1.328 . S
N89 C94 1.318 . S
C90 N89 1.328 . S
C90 C91 1.457 . S
C90 H95 0.929 . S
C91 C90 1.457 . S
C91 C92 1.291 . S
C91 H104 0.931 . S
C92 C91 1.291 . S
C92 C93 1.373 . S
C92 H105 0.929 . S
C93 C92 1.373 . S
C93 C94 1.396 . S
C93 C100 1.403 . S
C94 C84 1.476 . S
C94 N89 1.318 . S
C94 C93 1.396 . S
H95 C90 0.929 . S
O96 Mn72 2.385 . S
O96 C74 1.234 . S
O97 Mn72 2.209 . S
O97 Mn73 2.215 . S
O97 C74 1.283 . S
O98 Mn72 2.094 . S
O98 C76 1.240 . S
O99 Mn73 2.117 . S
O99 C76 1.264 . S
C100 C93 1.403 . S
C100 C101 1.399 . S
C100 H106 0.929 . S
C101 C81 1.449 . S
C101 C100 1.399 . S
C101 H107 0.930 . S
H102 C82 0.931 . S
H103 C83 0.930 . S
H104 C91 0.931 . S
H105 C92 0.929 . S
H106 C100 0.929 . S
H107 C101 0.930 . S
Mn108 O113 2.095 . S
Mn108 O123 2.162 . S
Mn108 O124 2.297 . S
Mn108 O132 2.385 . S
Mn108 O133 2.209 . S
Mn108 O134 2.094 . S
Mn109 O114 2.121 . S
Mn109 N116 2.257 . S
Mn109 N125 2.282 . S
Mn109 O133 2.215 . S
Mn109 O135 2.117 . S
C110 O132 1.234 . S
C110 O133 1.283 . S
C111 O123 1.281 . S
C111 O124 1.236 . S
C112 O134 1.240 . S
C112 O135 1.264 . S
O113 Mn108 2.095 . S
O113 C122 1.250 . S
O114 Mn109 2.121 . S
O114 C122 1.258 . S
C115 N116 1.326 . S
C115 C119 1.460 . S
C115 H121 0.929 . S
N116 Mn109 2.257 . S
N116 C115 1.326 . S
N116 C120 1.362 . S
C117 C118 1.258 . S
C117 C120 1.431 . S
C117 C137 1.449 . S
C118 C117 1.258 . S
C118 C119 1.477 . S
C118 H138 0.931 . S
C119 C115 1.460 . S
C119 C118 1.477 . S
C119 H139 0.930 . S
C120 N116 1.362 . S
C120 C117 1.431 . S
C120 C130 1.476 . S
H121 C115 0.929 . S
C122 O113 1.250 . S
C122 O114 1.258 . S
O123 Mn108 2.162 . S
O123 C111 1.281 . S
O124 Mn108 2.297 . S
O124 C111 1.236 . S
N125 Mn109 2.282 . S
N125 C126 1.328 . S
N125 C130 1.318 . S
C126 N125 1.328 . S
C126 C127 1.457 . S
C126 H131 0.929 . S
C127 C126 1.457 . S
C127 C128 1.291 . S
C127 H140 0.931 . S
C128 C127 1.291 . S
C128 C129 1.373 . S
C128 H141 0.929 . S
C129 C128 1.373 . S
C129 C130 1.396 . S
C129 C136 1.403 . S
C130 C120 1.476 . S
C130 N125 1.318 . S
C130 C129 1.396 . S
H131 C126 0.929 . S
O132 Mn108 2.385 . S
O132 C110 1.234 . S
O133 Mn108 2.209 . S
O133 Mn109 2.215 . S
O133 C110 1.283 . S
O134 Mn108 2.094 . S
O134 C112 1.240 . S
O135 Mn109 2.117 . S
O135 C112 1.264 . S
C136 C129 1.403 . S
C136 C137 1.399 . S
C136 H142 0.929 . S
C137 C117 1.449 . S
C137 C136 1.399 . S
C137 H143 0.930 . S
H138 C118 0.931 . S
H139 C119 0.930 . S
H140 C127 0.931 . S
H141 C128 0.929 . S
H142 C136 0.929 . S
H143 C137 0.930 . S
Mn144 O149 2.095 . S
Mn144 O159 2.162 . S
Mn144 O160 2.297 . S
Mn144 O168 2.385 . S
Mn144 O169 2.209 . S
Mn144 O170 2.094 . S
Mn145 O150 2.121 . S
Mn145 N152 2.257 . S
Mn145 N161 2.282 . S
Mn145 O169 2.215 . S
Mn145 O171 2.117 . S
C146 O168 1.234 . S
C146 O169 1.283 . S
C147 O159 1.281 . S
C147 O160 1.236 . S
C148 O170 1.240 . S
C148 O171 1.264 . S
O149 Mn144 2.095 . S
O149 C158 1.250 . S
O150 Mn145 2.121 . S
O150 C158 1.258 . S
C151 N152 1.326 . S
C151 C155 1.460 . S
C151 H157 0.929 . S
N152 Mn145 2.257 . S
N152 C151 1.326 . S
N152 C156 1.362 . S
C153 C154 1.258 . S
C153 C156 1.431 . S
C153 C173 1.449 . S
C154 C153 1.258 . S
C154 C155 1.477 . S
C154 H174 0.931 . S
C155 C151 1.460 . S
C155 C154 1.477 . S
C155 H175 0.930 . S
C156 N152 1.362 . S
C156 C153 1.431 . S
C156 C166 1.476 . S
H157 C151 0.929 . S
C158 O149 1.250 . S
C158 O150 1.258 . S
O159 Mn144 2.162 . S
O159 C147 1.281 . S
O160 Mn144 2.297 . S
O160 C147 1.236 . S
N161 Mn145 2.282 . S
N161 C162 1.328 . S
N161 C166 1.318 . S
C162 N161 1.328 . S
C162 C163 1.457 . S
C162 H167 0.929 . S
C163 C162 1.457 . S
C163 C164 1.291 . S
C163 H176 0.931 . S
C164 C163 1.291 . S
C164 C165 1.373 . S
C164 H177 0.929 . S
C165 C164 1.373 . S
C165 C166 1.396 . S
C165 C172 1.403 . S
C166 C156 1.476 . S
C166 N161 1.318 . S
C166 C165 1.396 . S
H167 C162 0.929 . S
O168 Mn144 2.385 . S
O168 C146 1.234 . S
O169 Mn144 2.209 . S
O169 Mn145 2.215 . S
O169 C146 1.283 . S
O170 Mn144 2.094 . S
O170 C148 1.240 . S
O171 Mn145 2.117 . S
O171 C148 1.264 . S
C172 C165 1.403 . S
C172 C173 1.399 . S
C172 H178 0.929 . S
C173 C153 1.449 . S
C173 C172 1.399 . S
C173 H179 0.930 . S
H174 C154 0.931 . S
H175 C155 0.930 . S
H176 C163 0.931 . S
H177 C164 0.929 . S
H178 C172 0.929 . S
H179 C173 0.930 . S
Mn180 O185 2.095 . S
Mn180 O195 2.162 . S
Mn180 O196 2.297 . S
Mn180 O204 2.385 . S
Mn180 O205 2.209 . S
Mn180 O206 2.094 . S
Mn181 O186 2.121 . S
Mn181 N188 2.257 . S
Mn181 N197 2.282 . S
Mn181 O205 2.215 . S
Mn181 O207 2.117 . S
C182 O204 1.234 . S
C182 O205 1.283 . S
C183 O195 1.281 . S
C183 O196 1.236 . S
C184 O206 1.240 . S
C184 O207 1.264 . S
O185 Mn180 2.095 . S
O185 C194 1.250 . S
O186 Mn181 2.121 . S
O186 C194 1.258 . S
C187 N188 1.326 . S
C187 C191 1.460 . S
C187 H193 0.929 . S
N188 Mn181 2.257 . S
N188 C187 1.326 . S
N188 C192 1.362 . S
C189 C190 1.258 . S
C189 C192 1.431 . S
C189 C209 1.449 . S
C190 C189 1.258 . S
C190 C191 1.477 . S
C190 H210 0.931 . S
C191 C187 1.460 . S
C191 C190 1.477 . S
C191 H211 0.930 . S
C192 N188 1.362 . S
C192 C189 1.431 . S
C192 C202 1.476 . S
H193 C187 0.929 . S
C194 O185 1.250 . S
C194 O186 1.258 . S
O195 Mn180 2.162 . S
O195 C183 1.281 . S
O196 Mn180 2.297 . S
O196 C183 1.236 . S
N197 Mn181 2.282 . S
N197 C198 1.328 . S
N197 C202 1.318 . S
C198 N197 1.328 . S
C198 C199 1.457 . S
C198 H203 0.929 . S
C199 C198 1.457 . S
C199 C200 1.291 . S
C199 H212 0.931 . S
C200 C199 1.291 . S
C200 C201 1.373 . S
C200 H213 0.929 . S
C201 C200 1.373 . S
C201 C202 1.396 . S
C201 C208 1.403 . S
C202 C192 1.476 . S
C202 N197 1.318 . S
C202 C201 1.396 . S
H203 C198 0.929 . S
O204 Mn180 2.385 . S
O204 C182 1.234 . S
O205 Mn180 2.209 . S
O205 Mn181 2.215 . S
O205 C182 1.283 . S
O206 Mn180 2.094 . S
O206 C184 1.240 . S
O207 Mn181 2.117 . S
O207 C184 1.264 . S
C208 C201 1.403 . S
C208 C209 1.399 . S
C208 H214 0.929 . S
C209 C189 1.449 . S
C209 C208 1.399 . S
C209 H215 0.930 . S
H210 C190 0.931 . S
H211 C191 0.930 . S
H212 C199 0.931 . S
H213 C200 0.929 . S
H214 C208 0.929 . S
H215 C209 0.930 . S
Mn216 O221 2.095 . S
Mn216 O231 2.162 . S
Mn216 O232 2.297 . S
Mn216 O240 2.385 . S
Mn216 O241 2.209 . S
Mn216 O242 2.094 . S
Mn217 O222 2.121 . S
Mn217 N224 2.257 . S
Mn217 N233 2.282 . S
Mn217 O241 2.215 . S
Mn217 O243 2.117 . S
C218 O240 1.234 . S
C218 O241 1.283 . S
C219 O231 1.281 . S
C219 O232 1.236 . S
C220 O242 1.240 . S
C220 O243 1.264 . S
O221 Mn216 2.095 . S
O221 C230 1.250 . S
O222 Mn217 2.121 . S
O222 C230 1.258 . S
C223 N224 1.326 . S
C223 C227 1.460 . S
C223 H229 0.929 . S
N224 Mn217 2.257 . S
N224 C223 1.326 . S
N224 C228 1.362 . S
C225 C226 1.258 . S
C225 C228 1.431 . S
C225 C245 1.449 . S
C226 C225 1.258 . S
C226 C227 1.477 . S
C226 H246 0.931 . S
C227 C223 1.460 . S
C227 C226 1.477 . S
C227 H247 0.930 . S
C228 N224 1.362 . S
C228 C225 1.431 . S
C228 C238 1.476 . S
H229 C223 0.929 . S
C230 O221 1.250 . S
C230 O222 1.258 . S
O231 Mn216 2.162 . S
O231 C219 1.281 . S
O232 Mn216 2.297 . S
O232 C219 1.236 . S
N233 Mn217 2.282 . S
N233 C234 1.328 . S
N233 C238 1.318 . S
C234 N233 1.328 . S
C234 C235 1.457 . S
C234 H239 0.929 . S
C235 C234 1.457 . S
C235 C236 1.291 . S
C235 H248 0.931 . S
C236 C235 1.291 . S
C236 C237 1.373 . S
C236 H249 0.929 . S
C237 C236 1.373 . S
C237 C238 1.396 . S
C237 C244 1.403 . S
C238 C228 1.476 . S
C238 N233 1.318 . S
C238 C237 1.396 . S
H239 C234 0.929 . S
O240 Mn216 2.385 . S
O240 C218 1.234 . S
O241 Mn216 2.209 . S
O241 Mn217 2.215 . S
O241 C218 1.283 . S
O242 Mn216 2.094 . S
O242 C220 1.240 . S
O243 Mn217 2.117 . S
O243 C220 1.264 . S
C244 C237 1.403 . S
C244 C245 1.399 . S
C244 H250 0.929 . S
C245 C225 1.449 . S
C245 C244 1.399 . S
C245 H251 0.930 . S
H246 C226 0.931 . S
H247 C227 0.930 . S
H248 C235 0.931 . S
H249 C236 0.929 . S
H250 C244 0.929 . S
H251 C245 0.930 . S
Mn252 O257 2.095 . S
Mn252 O267 2.162 . S
Mn252 O268 2.297 . S
Mn252 O276 2.385 . S
Mn252 O277 2.209 . S
Mn252 O278 2.094 . S
Mn253 O258 2.121 . S
Mn253 N260 2.257 . S
Mn253 N269 2.282 . S
Mn253 O277 2.215 . S
Mn253 O279 2.117 . S
C254 O276 1.234 . S
C254 O277 1.283 . S
C255 O267 1.281 . S
C255 O268 1.236 . S
C256 O278 1.240 . S
C256 O279 1.264 . S
O257 Mn252 2.095 . S
O257 C266 1.250 . S
O258 Mn253 2.121 . S
O258 C266 1.258 . S
C259 N260 1.326 . S
C259 C263 1.460 . S
C259 H265 0.929 . S
N260 Mn253 2.257 . S
N260 C259 1.326 . S
N260 C264 1.362 . S
C261 C262 1.258 . S
C261 C264 1.431 . S
C261 C281 1.449 . S
C262 C261 1.258 . S
C262 C263 1.477 . S
C262 H282 0.931 . S
C263 C259 1.460 . S
C263 C262 1.477 . S
C263 H283 0.930 . S
C264 N260 1.362 . S
C264 C261 1.431 . S
C264 C274 1.476 . S
H265 C259 0.929 . S
C266 O257 1.250 . S
C266 O258 1.258 . S
O267 Mn252 2.162 . S
O267 C255 1.281 . S
O268 Mn252 2.297 . S
O268 C255 1.236 . S
N269 Mn253 2.282 . S
N269 C270 1.328 . S
N269 C274 1.318 . S
C270 N269 1.328 . S
C270 C271 1.457 . S
C270 H275 0.929 . S
C271 C270 1.457 . S
C271 C272 1.291 . S
C271 H284 0.931 . S
C272 C271 1.291 . S
C272 C273 1.373 . S
C272 H285 0.929 . S
C273 C272 1.373 . S
C273 C274 1.396 . S
C273 C280 1.403 . S
C274 C264 1.476 . S
C274 N269 1.318 . S
C274 C273 1.396 . S
H275 C270 0.929 . S
O276 Mn252 2.385 . S
O276 C254 1.234 . S
O277 Mn252 2.209 . S
O277 Mn253 2.215 . S
O277 C254 1.283 . S
O278 Mn252 2.094 . S
O278 C256 1.240 . S
O279 Mn253 2.117 . S
O279 C256 1.264 . S
C280 C273 1.403 . S
C280 C281 1.399 . S
C280 H286 0.929 . S
C281 C261 1.449 . S
C281 C280 1.399 . S
C281 H287 0.930 . S
H282 C262 0.931 . S
H283 C263 0.930 . S
H284 C271 0.931 . S
H285 C272 0.929 . S
H286 C280 0.929 . S
H287 C281 0.930 . S
Mn288 O293 2.095 . S
Mn288 O303 2.162 . S
Mn288 O304 2.297 . S
Mn288 O312 2.385 . S
Mn288 O313 2.209 . S
Mn288 O314 2.094 . S
Mn289 O294 2.121 . S
Mn289 N296 2.257 . S
Mn289 N305 2.282 . S
Mn289 O313 2.215 . S
Mn289 O315 2.117 . S
C290 O312 1.234 . S
C290 O313 1.283 . S
C291 O303 1.281 . S
C291 O304 1.236 . S
C292 O314 1.240 . S
C292 O315 1.264 . S
O293 Mn288 2.095 . S
O293 C302 1.250 . S
O294 Mn289 2.121 . S
O294 C302 1.258 . S
C295 N296 1.326 . S
C295 C299 1.460 . S
C295 H301 0.929 . S
N296 Mn289 2.257 . S
N296 C295 1.326 . S
N296 C300 1.362 . S
C297 C298 1.258 . S
C297 C300 1.431 . S
C297 C317 1.449 . S
C298 C297 1.258 . S
C298 C299 1.477 . S
C298 H318 0.931 . S
C299 C295 1.460 . S
C299 C298 1.477 . S
C299 H319 0.930 . S
C300 N296 1.362 . S
C300 C297 1.431 . S
C300 C310 1.476 . S
H301 C295 0.929 . S
C302 O293 1.250 . S
C302 O294 1.258 . S
O303 Mn288 2.162 . S
O303 C291 1.281 . S
O304 Mn288 2.297 . S
O304 C291 1.236 . S
N305 Mn289 2.282 . S
N305 C306 1.328 . S
N305 C310 1.318 . S
C306 N305 1.328 . S
C306 C307 1.457 . S
C306 H311 0.929 . S
C307 C306 1.457 . S
C307 C308 1.291 . S
C307 H320 0.931 . S
C308 C307 1.291 . S
C308 C309 1.373 . S
C308 H321 0.929 . S
C309 C308 1.373 . S
C309 C310 1.396 . S
C309 C316 1.403 . S
C310 C300 1.476 . S
C310 N305 1.318 . S
C310 C309 1.396 . S
H311 C306 0.929 . S
O312 Mn288 2.385 . S
O312 C290 1.234 . S
O313 Mn288 2.209 . S
O313 Mn289 2.215 . S
O313 C290 1.283 . S
O314 Mn288 2.094 . S
O314 C292 1.240 . S
O315 Mn289 2.117 . S
O315 C292 1.264 . S
C316 C309 1.403 . S
C316 C317 1.399 . S
C316 H322 0.929 . S
C317 C297 1.449 . S
C317 C316 1.399 . S
C317 H323 0.930 . S
H318 C298 0.931 . S
H319 C299 0.930 . S
H320 C307 0.931 . S
H321 C308 0.929 . S
H322 C316 0.929 . S
H323 C317 0.930 . S
Mn324 O329 2.095 . S
Mn324 O339 2.162 . S
Mn324 O340 2.297 . S
Mn324 O348 2.385 . S
Mn324 O349 2.209 . S
Mn324 O350 2.094 . S
Mn325 O330 2.121 . S
Mn325 N332 2.257 . S
Mn325 N341 2.282 . S
Mn325 O349 2.215 . S
Mn325 O351 2.117 . S
C326 O348 1.234 . S
C326 O349 1.283 . S
C327 O339 1.281 . S
C327 O340 1.236 . S
C328 O350 1.240 . S
C328 O351 1.264 . S
O329 Mn324 2.095 . S
O329 C338 1.250 . S
O330 Mn325 2.121 . S
O330 C338 1.258 . S
C331 N332 1.326 . S
C331 C335 1.460 . S
C331 H337 0.929 . S
N332 Mn325 2.257 . S
N332 C331 1.326 . S
N332 C336 1.362 . S
C333 C334 1.258 . S
C333 C336 1.431 . S
C333 C353 1.449 . S
C334 C333 1.258 . S
C334 C335 1.477 . S
C334 H354 0.931 . S
C335 C331 1.460 . S
C335 C334 1.477 . S
C335 H355 0.930 . S
C336 N332 1.362 . S
C336 C333 1.431 . S
C336 C346 1.476 . S
H337 C331 0.929 . S
C338 O329 1.250 . S
C338 O330 1.258 . S
O339 Mn324 2.162 . S
O339 C327 1.281 . S
O340 Mn324 2.297 . S
O340 C327 1.236 . S
N341 Mn325 2.282 . S
N341 C342 1.328 . S
N341 C346 1.318 . S
C342 N341 1.328 . S
C342 C343 1.457 . S
C342 H347 0.929 . S
C343 C342 1.457 . S
C343 C344 1.291 . S
C343 H356 0.931 . S
C344 C343 1.291 . S
C344 C345 1.373 . S
C344 H357 0.929 . S
C345 C344 1.373 . S
C345 C346 1.396 . S
C345 C352 1.403 . S
C346 C336 1.476 . S
C346 N341 1.318 . S
C346 C345 1.396 . S
H347 C342 0.929 . S
O348 Mn324 2.385 . S
O348 C326 1.234 . S
O349 Mn324 2.209 . S
O349 Mn325 2.215 . S
O349 C326 1.283 . S
O350 Mn324 2.094 . S
O350 C328 1.240 . S
O351 Mn325 2.117 . S
O351 C328 1.264 . S
C352 C345 1.403 . S
C352 C353 1.399 . S
C352 H358 0.929 . S
C353 C333 1.449 . S
C353 C352 1.399 . S
C353 H359 0.930 . S
H354 C334 0.931 . S
H355 C335 0.930 . S
H356 C343 0.931 . S
H357 C344 0.929 . S
H358 C352 0.929 . S
H359 C353 0.930 . S
Mn360 O365 2.095 . S
Mn360 O375 2.162 . S
Mn360 O376 2.297 . S
Mn360 O384 2.385 . S
Mn360 O385 2.209 . S
Mn360 O386 2.094 . S
Mn361 O366 2.121 . S
Mn361 N368 2.257 . S
Mn361 N377 2.282 . S
Mn361 O385 2.215 . S
Mn361 O387 2.117 . S
C362 O384 1.234 . S
C362 O385 1.283 . S
C363 O375 1.281 . S
C363 O376 1.236 . S
C364 O386 1.240 . S
C364 O387 1.264 . S
O365 Mn360 2.095 . S
O365 C374 1.250 . S
O366 Mn361 2.121 . S
O366 C374 1.258 . S
C367 N368 1.326 . S
C367 C371 1.460 . S
C367 H373 0.929 . S
N368 Mn361 2.257 . S
N368 C367 1.326 . S
N368 C372 1.362 . S
C369 C370 1.258 . S
C369 C372 1.431 . S
C369 C389 1.449 . S
C370 C369 1.258 . S
C370 C371 1.477 . S
C370 H390 0.931 . S
C371 C367 1.460 . S
C371 C370 1.477 . S
C371 H391 0.930 . S
C372 N368 1.362 . S
C372 C369 1.431 . S
C372 C382 1.476 . S
H373 C367 0.929 . S
C374 O365 1.250 . S
C374 O366 1.258 . S
O375 Mn360 2.162 . S
O375 C363 1.281 . S
O376 Mn360 2.297 . S
O376 C363 1.236 . S
N377 Mn361 2.282 . S
N377 C378 1.328 . S
N377 C382 1.318 . S
C378 N377 1.328 . S
C378 C379 1.457 . S
C378 H383 0.929 . S
C379 C378 1.457 . S
C379 C380 1.291 . S
C379 H392 0.931 . S
C380 C379 1.291 . S
C380 C381 1.373 . S
C380 H393 0.929 . S
C381 C380 1.373 . S
C381 C382 1.396 . S
C381 C388 1.403 . S
C382 C372 1.476 . S
C382 N377 1.318 . S
C382 C381 1.396 . S
H383 C378 0.929 . S
O384 Mn360 2.385 . S
O384 C362 1.234 . S
O385 Mn360 2.209 . S
O385 Mn361 2.215 . S
O385 C362 1.283 . S
O386 Mn360 2.094 . S
O386 C364 1.240 . S
O387 Mn361 2.117 . S
O387 C364 1.264 . S
C388 C381 1.403 . S
C388 C389 1.399 . S
C388 H394 0.929 . S
C389 C369 1.449 . S
C389 C388 1.399 . S
C389 H395 0.930 . S
H390 C370 0.931 . S
H391 C371 0.930 . S
H392 C379 0.931 . S
H393 C380 0.929 . S
H394 C388 0.929 . S
H395 C389 0.930 . S
Mn396 O401 2.095 . S
Mn396 O411 2.162 . S
Mn396 O412 2.297 . S
Mn396 O420 2.385 . S
Mn396 O421 2.209 . S
Mn396 O422 2.094 . S
Mn397 O402 2.121 . S
Mn397 N404 2.257 . S
Mn397 N413 2.282 . S
Mn397 O421 2.215 . S
Mn397 O423 2.117 . S
C398 O420 1.234 . S
C398 O421 1.283 . S
C399 O411 1.281 . S
C399 O412 1.236 . S
C400 O422 1.240 . S
C400 O423 1.264 . S
O401 Mn396 2.095 . S
O401 C410 1.250 . S
O402 Mn397 2.121 . S
O402 C410 1.258 . S
C403 N404 1.326 . S
C403 C407 1.460 . S
C403 H409 0.929 . S
N404 Mn397 2.257 . S
N404 C403 1.326 . S
N404 C408 1.362 . S
C405 C406 1.258 . S
C405 C408 1.431 . S
C405 C425 1.449 . S
C406 C405 1.258 . S
C406 C407 1.477 . S
C406 H426 0.931 . S
C407 C403 1.460 . S
C407 C406 1.477 . S
C407 H427 0.930 . S
C408 N404 1.362 . S
C408 C405 1.431 . S
C408 C418 1.476 . S
H409 C403 0.929 . S
C410 O401 1.250 . S
C410 O402 1.258 . S
O411 Mn396 2.162 . S
O411 C399 1.281 . S
O412 Mn396 2.297 . S
O412 C399 1.236 . S
N413 Mn397 2.282 . S
N413 C414 1.328 . S
N413 C418 1.318 . S
C414 N413 1.328 . S
C414 C415 1.457 . S
C414 H419 0.929 . S
C415 C414 1.457 . S
C415 C416 1.291 . S
C415 H428 0.931 . S
C416 C415 1.291 . S
C416 C417 1.373 . S
C416 H429 0.929 . S
C417 C416 1.373 . S
C417 C418 1.396 . S
C417 C424 1.403 . S
C418 C408 1.476 . S
C418 N413 1.318 . S
C418 C417 1.396 . S
H419 C414 0.929 . S
O420 Mn396 2.385 . S
O420 C398 1.234 . S
O421 Mn396 2.209 . S
O421 Mn397 2.215 . S
O421 C398 1.283 . S
O422 Mn396 2.094 . S
O422 C400 1.240 . S
O423 Mn397 2.117 . S
O423 C400 1.264 . S
C424 C417 1.403 . S
C424 C425 1.399 . S
C424 H430 0.929 . S
C425 C405 1.449 . S
C425 C424 1.399 . S
C425 H431 0.930 . S
H426 C406 0.931 . S
H427 C407 0.930 . S
H428 C415 0.931 . S
H429 C416 0.929 . S
H430 C424 0.929 . S
H431 C425 0.930 . S
Mn432 O437 2.095 . S
Mn432 O447 2.162 . S
Mn432 O448 2.297 . S
Mn432 O456 2.385 . S
Mn432 O457 2.209 . S
Mn432 O458 2.094 . S
Mn433 O438 2.121 . S
Mn433 N440 2.257 . S
Mn433 N449 2.282 . S
Mn433 O457 2.215 . S
Mn433 O459 2.117 . S
C434 O456 1.234 . S
C434 O457 1.283 . S
C435 O447 1.281 . S
C435 O448 1.236 . S
C436 O458 1.240 . S
C436 O459 1.264 . S
O437 Mn432 2.095 . S
O437 C446 1.250 . S
O438 Mn433 2.121 . S
O438 C446 1.258 . S
C439 N440 1.326 . S
C439 C443 1.460 . S
C439 H445 0.929 . S
N440 Mn433 2.257 . S
N440 C439 1.326 . S
N440 C444 1.362 . S
C441 C442 1.258 . S
C441 C444 1.431 . S
C441 C461 1.449 . S
C442 C441 1.258 . S
C442 C443 1.477 . S
C442 H462 0.931 . S
C443 C439 1.460 . S
C443 C442 1.477 . S
C443 H463 0.930 . S
C444 N440 1.362 . S
C444 C441 1.431 . S
C444 C454 1.476 . S
H445 C439 0.929 . S
C446 O437 1.250 . S
C446 O438 1.258 . S
O447 Mn432 2.162 . S
O447 C435 1.281 . S
O448 Mn432 2.297 . S
O448 C435 1.236 . S
N449 Mn433 2.282 . S
N449 C450 1.328 . S
N449 C454 1.318 . S
C450 N449 1.328 . S
C450 C451 1.457 . S
C450 H455 0.929 . S
C451 C450 1.457 . S
C451 C452 1.291 . S
C451 H464 0.931 . S
C452 C451 1.291 . S
C452 C453 1.373 . S
C452 H465 0.929 . S
C453 C452 1.373 . S
C453 C454 1.396 . S
C453 C460 1.403 . S
C454 C444 1.476 . S
C454 N449 1.318 . S
C454 C453 1.396 . S
H455 C450 0.929 . S
O456 Mn432 2.385 . S
O456 C434 1.234 . S
O457 Mn432 2.209 . S
O457 Mn433 2.215 . S
O457 C434 1.283 . S
O458 Mn432 2.094 . S
O458 C436 1.240 . S
O459 Mn433 2.117 . S
O459 C436 1.264 . S
C460 C453 1.403 . S
C460 C461 1.399 . S
C460 H466 0.929 . S
C461 C441 1.449 . S
C461 C460 1.399 . S
C461 H467 0.930 . S
H462 C442 0.931 . S
H463 C443 0.930 . S
H464 C451 0.931 . S
H465 C452 0.929 . S
H466 C460 0.929 . S
H467 C461 0.930 . S
Mn468 O473 2.095 . S
Mn468 O483 2.162 . S
Mn468 O484 2.297 . S
Mn468 O492 2.385 . S
Mn468 O493 2.209 . S
Mn468 O494 2.094 . S
Mn469 O474 2.121 . S
Mn469 N476 2.257 . S
Mn469 N485 2.282 . S
Mn469 O493 2.215 . S
Mn469 O495 2.117 . S
C470 O492 1.234 . S
C470 O493 1.283 . S
C471 O483 1.281 . S
C471 O484 1.236 . S
C472 O494 1.240 . S
C472 O495 1.264 . S
O473 Mn468 2.095 . S
O473 C482 1.250 . S
O474 Mn469 2.121 . S
O474 C482 1.258 . S
C475 N476 1.326 . S
C475 C479 1.460 . S
C475 H481 0.929 . S
N476 Mn469 2.257 . S
N476 C475 1.326 . S
N476 C480 1.362 . S
C477 C478 1.258 . S
C477 C480 1.431 . S
C477 C497 1.449 . S
C478 C477 1.258 . S
C478 C479 1.477 . S
C478 H498 0.931 . S
C479 C475 1.460 . S
C479 C478 1.477 . S
C479 H499 0.930 . S
C480 N476 1.362 . S
C480 C477 1.431 . S
C480 C490 1.476 . S
H481 C475 0.929 . S
C482 O473 1.250 . S
C482 O474 1.258 . S
O483 Mn468 2.162 . S
O483 C471 1.281 . S
O484 Mn468 2.297 . S
O484 C471 1.236 . S
N485 Mn469 2.282 . S
N485 C486 1.328 . S
N485 C490 1.318 . S
C486 N485 1.328 . S
C486 C487 1.457 . S
C486 H491 0.929 . S
C487 C486 1.457 . S
C487 C488 1.291 . S
C487 H500 0.931 . S
C488 C487 1.291 . S
C488 C489 1.373 . S
C488 H501 0.929 . S
C489 C488 1.373 . S
C489 C490 1.396 . S
C489 C496 1.403 . S
C490 C480 1.476 . S
C490 N485 1.318 . S
C490 C489 1.396 . S
H491 C486 0.929 . S
O492 Mn468 2.385 . S
O492 C470 1.234 . S
O493 Mn468 2.209 . S
O493 Mn469 2.215 . S
O493 C470 1.283 . S
O494 Mn468 2.094 . S
O494 C472 1.240 . S
O495 Mn469 2.117 . S
O495 C472 1.264 . S
C496 C489 1.403 . S
C496 C497 1.399 . S
C496 H502 0.929 . S
C497 C477 1.449 . S
C497 C496 1.399 . S
C497 H503 0.930 . S
H498 C478 0.931 . S
H499 C479 0.930 . S
H500 C487 0.931 . S
H501 C488 0.929 . S
H502 C496 0.929 . S
H503 C497 0.930 . S
Mn504 O509 2.095 . S
Mn504 O519 2.162 . S
Mn504 O520 2.297 . S
Mn504 O528 2.385 . S
Mn504 O529 2.209 . S
Mn504 O530 2.094 . S
Mn505 O510 2.121 . S
Mn505 N512 2.257 . S
Mn505 N521 2.282 . S
Mn505 O529 2.215 . S
Mn505 O531 2.117 . S
C506 O528 1.234 . S
C506 O529 1.283 . S
C507 O519 1.281 . S
C507 O520 1.236 . S
C508 O530 1.240 . S
C508 O531 1.264 . S
O509 Mn504 2.095 . S
O509 C518 1.250 . S
O510 Mn505 2.121 . S
O510 C518 1.258 . S
C511 N512 1.326 . S
C511 C515 1.460 . S
C511 H517 0.929 . S
N512 Mn505 2.257 . S
N512 C511 1.326 . S
N512 C516 1.362 . S
C513 C514 1.258 . S
C513 C516 1.431 . S
C513 C533 1.449 . S
C514 C513 1.258 . S
C514 C515 1.477 . S
C514 H534 0.931 . S
C515 C511 1.460 . S
C515 C514 1.477 . S
C515 H535 0.930 . S
C516 N512 1.362 . S
C516 C513 1.431 . S
C516 C526 1.476 . S
H517 C511 0.929 . S
C518 O509 1.250 . S
C518 O510 1.258 . S
O519 Mn504 2.162 . S
O519 C507 1.281 . S
O520 Mn504 2.297 . S
O520 C507 1.236 . S
N521 Mn505 2.282 . S
N521 C522 1.328 . S
N521 C526 1.318 . S
C522 N521 1.328 . S
C522 C523 1.457 . S
C522 H527 0.929 . S
C523 C522 1.457 . S
C523 C524 1.291 . S
C523 H536 0.931 . S
C524 C523 1.291 . S
C524 C525 1.373 . S
C524 H537 0.929 . S
C525 C524 1.373 . S
C525 C526 1.396 . S
C525 C532 1.403 . S
C526 C516 1.476 . S
C526 N521 1.318 . S
C526 C525 1.396 . S
H527 C522 0.929 . S
O528 Mn504 2.385 . S
O528 C506 1.234 . S
O529 Mn504 2.209 . S
O529 Mn505 2.215 . S
O529 C506 1.283 . S
O530 Mn504 2.094 . S
O530 C508 1.240 . S
O531 Mn505 2.117 . S
O531 C508 1.264 . S
C532 C525 1.403 . S
C532 C533 1.399 . S
C532 H538 0.929 . S
C533 C513 1.449 . S
C533 C532 1.399 . S
C533 H539 0.930 . S
H534 C514 0.931 . S
H535 C515 0.930 . S
H536 C523 0.931 . S
H537 C524 0.929 . S
H538 C532 0.929 . S
H539 C533 0.930 . S
Mn540 O545 2.095 . S
Mn540 O555 2.162 . S
Mn540 O556 2.297 . S
Mn540 O564 2.385 . S
Mn540 O565 2.209 . S
Mn540 O566 2.094 . S
Mn541 O546 2.121 . S
Mn541 N548 2.257 . S
Mn541 N557 2.282 . S
Mn541 O565 2.215 . S
Mn541 O567 2.117 . S
C542 O564 1.234 . S
C542 O565 1.283 . S
C543 O555 1.281 . S
C543 O556 1.236 . S
C544 O566 1.240 . S
C544 O567 1.264 . S
O545 Mn540 2.095 . S
O545 C554 1.250 . S
O546 Mn541 2.121 . S
O546 C554 1.258 . S
C547 N548 1.326 . S
C547 C551 1.460 . S
C547 H553 0.929 . S
N548 Mn541 2.257 . S
N548 C547 1.326 . S
N548 C552 1.362 . S
C549 C550 1.258 . S
C549 C552 1.431 . S
C549 C569 1.449 . S
C550 C549 1.258 . S
C550 C551 1.477 . S
C550 H570 0.931 . S
C551 C547 1.460 . S
C551 C550 1.477 . S
C551 H571 0.930 . S
C552 N548 1.362 . S
C552 C549 1.431 . S
C552 C562 1.476 . S
H553 C547 0.929 . S
C554 O545 1.250 . S
C554 O546 1.258 . S
O555 Mn540 2.162 . S
O555 C543 1.281 . S
O556 Mn540 2.297 . S
O556 C543 1.236 . S
N557 Mn541 2.282 . S
N557 C558 1.328 . S
N557 C562 1.318 . S
C558 N557 1.328 . S
C558 C559 1.457 . S
C558 H563 0.929 . S
C559 C558 1.457 . S
C559 C560 1.291 . S
C559 H572 0.931 . S
C560 C559 1.291 . S
C560 C561 1.373 . S
C560 H573 0.929 . S
C561 C560 1.373 . S
C561 C562 1.396 . S
C561 C568 1.403 . S
C562 C552 1.476 . S
C562 N557 1.318 . S
C562 C561 1.396 . S
H563 C558 0.929 . S
O564 Mn540 2.385 . S
O564 C542 1.234 . S
O565 Mn540 2.209 . S
O565 Mn541 2.215 . S
O565 C542 1.283 . S
O566 Mn540 2.094 . S
O566 C544 1.240 . S
O567 Mn541 2.117 . S
O567 C544 1.264 . S
C568 C561 1.403 . S
C568 C569 1.399 . S
C568 H574 0.929 . S
C569 C549 1.449 . S
C569 C568 1.399 . S
C569 H575 0.930 . S
H570 C550 0.931 . S
H571 C551 0.930 . S
H572 C559 0.931 . S
H573 C560 0.929 . S
H574 C568 0.929 . S
H575 C569 0.930 . S
H576 C582 0.930 . S
H577 C585 0.930 . S
H578 C586 0.930 . S
H579 C587 0.930 . S
H580 C590 0.930 . S
H581 C591 0.930 . S
C582 H576 0.930 . S
C582 C583 1.355 . S
C582 C584 1.415 . S
C583 C582 1.355 . S
C583 C585 1.419 . S
C584 C582 1.415 . S
C584 C589 1.425 . S
C584 C591 1.409 . S
C585 H577 0.930 . S
C585 C583 1.419 . S
C585 C586 1.362 . S
C586 H578 0.930 . S
C586 C585 1.362 . S
C586 C589 1.409 . S
C587 H579 0.930 . S
C587 C588 1.355 . S
C587 C589 1.415 . S
C588 C587 1.355 . S
C588 C590 1.419 . S
C589 C584 1.425 . S
C589 C586 1.409 . S
C589 C587 1.415 . S
C590 H580 0.930 . S
C590 C588 1.419 . S
C590 C591 1.362 . S
C591 H581 0.930 . S
C591 C584 1.409 . S
C591 C590 1.362 . S
H592 C598 0.930 . S
H593 C601 0.930 . S
H594 C602 0.930 . S
H595 C603 0.930 . S
H596 C606 0.930 . S
H597 C607 0.930 . S
C598 H592 0.930 . S
C598 C599 1.355 . S
C598 C600 1.415 . S
C599 C598 1.355 . S
C599 C601 1.419 . S
C600 C598 1.415 . S
C600 C605 1.425 . S
C600 C607 1.409 . S
C601 H593 0.930 . S
C601 C599 1.419 . S
C601 C602 1.362 . S
C602 H594 0.930 . S
C602 C601 1.362 . S
C602 C605 1.409 . S
C603 H595 0.930 . S
C603 C604 1.355 . S
C603 C605 1.415 . S
C604 C603 1.355 . S
C604 C606 1.419 . S
C605 C600 1.425 . S
C605 C602 1.409 . S
C605 C603 1.415 . S
C606 H596 0.930 . S
C606 C604 1.419 . S
C606 C607 1.362 . S
C607 H597 0.930 . S
C607 C600 1.409 . S
C607 C606 1.362 . S
H608 C614 0.930 . S
H609 C617 0.930 . S
H610 C618 0.930 . S
H611 C619 0.930 . S
H612 C622 0.930 . S
H613 C623 0.930 . S
C614 H608 0.930 . S
C614 C615 1.355 . S
C614 C616 1.415 . S
C615 C614 1.355 . S
C615 C617 1.419 . S
C616 C614 1.415 . S
C616 C621 1.425 . S
C616 C623 1.409 . S
C617 H609 0.930 . S
C617 C615 1.419 . S
C617 C618 1.362 . S
C618 H610 0.930 . S
C618 C617 1.362 . S
C618 C621 1.409 . S
C619 H611 0.930 . S
C619 C620 1.355 . S
C619 C621 1.415 . S
C620 C619 1.355 . S
C620 C622 1.419 . S
C621 C616 1.425 . S
C621 C618 1.409 . S
C621 C619 1.415 . S
C622 H612 0.930 . S
C622 C620 1.419 . S
C622 C623 1.362 . S
C623 H613 0.930 . S
C623 C616 1.409 . S
C623 C622 1.362 . S
H624 C630 0.930 . S
H625 C633 0.930 . S
H626 C634 0.930 . S
H627 C635 0.930 . S
H628 C638 0.930 . S
H629 C639 0.930 . S
C630 H624 0.930 . S
C630 C631 1.355 . S
C630 C632 1.415 . S
C631 C630 1.355 . S
C631 C633 1.419 . S
C632 C630 1.415 . S
C632 C637 1.425 . S
C632 C639 1.409 . S
C633 H625 0.930 . S
C633 C631 1.419 . S
C633 C634 1.362 . S
C634 H626 0.930 . S
C634 C633 1.362 . S
C634 C637 1.409 . S
C635 H627 0.930 . S
C635 C636 1.355 . S
C635 C637 1.415 . S
C636 C635 1.355 . S
C636 C638 1.419 . S
C637 C632 1.425 . S
C637 C634 1.409 . S
C637 C635 1.415 . S
C638 H628 0.930 . S
C638 C636 1.419 . S
C638 C639 1.362 . S
C639 H629 0.930 . S
C639 C632 1.409 . S
C639 C638 1.362 . S
H640 C646 0.930 . S
H641 C649 0.930 . S
H642 C650 0.930 . S
H643 C651 0.930 . S
H644 C654 0.930 . S
H645 C655 0.930 . S
C646 H640 0.930 . S
C646 C647 1.355 . S
C646 C648 1.415 . S
C647 C646 1.355 . S
C647 C649 1.419 . S
C648 C646 1.415 . S
C648 C653 1.425 . S
C648 C655 1.409 . S
C649 H641 0.930 . S
C649 C647 1.419 . S
C649 C650 1.362 . S
C650 H642 0.930 . S
C650 C649 1.362 . S
C650 C653 1.409 . S
C651 H643 0.930 . S
C651 C652 1.355 . S
C651 C653 1.415 . S
C652 C651 1.355 . S
C652 C654 1.419 . S
C653 C648 1.425 . S
C653 C650 1.409 . S
C653 C651 1.415 . S
C654 H644 0.930 . S
C654 C652 1.419 . S
C654 C655 1.362 . S
C655 H645 0.930 . S
C655 C648 1.409 . S
C655 C654 1.362 . S
H656 C662 0.930 . S
H657 C665 0.930 . S
H658 C666 0.930 . S
H659 C667 0.930 . S
H660 C670 0.930 . S
H661 C671 0.930 . S
C662 H656 0.930 . S
C662 C663 1.355 . S
C662 C664 1.415 . S
C663 C662 1.355 . S
C663 C665 1.419 . S
C664 C662 1.415 . S
C664 C669 1.425 . S
C664 C671 1.409 . S
C665 H657 0.930 . S
C665 C663 1.419 . S
C665 C666 1.362 . S
C666 H658 0.930 . S
C666 C665 1.362 . S
C666 C669 1.409 . S
C667 H659 0.930 . S
C667 C668 1.355 . S
C667 C669 1.415 . S
C668 C667 1.355 . S
C668 C670 1.419 . S
C669 C664 1.425 . S
C669 C666 1.409 . S
C669 C667 1.415 . S
C670 H660 0.930 . S
C670 C668 1.419 . S
C670 C671 1.362 . S
C671 H661 0.930 . S
C671 C664 1.409 . S
C671 C670 1.362 . S
H672 C678 0.930 . S
H673 C681 0.930 . S
H674 C682 0.930 . S
H675 C683 0.930 . S
H676 C686 0.930 . S
H677 C687 0.930 . S
C678 H672 0.930 . S
C678 C679 1.355 . S
C678 C680 1.415 . S
C679 C678 1.355 . S
C679 C681 1.419 . S
C680 C678 1.415 . S
C680 C685 1.425 . S
C680 C687 1.409 . S
C681 H673 0.930 . S
C681 C679 1.419 . S
C681 C682 1.362 . S
C682 H674 0.930 . S
C682 C681 1.362 . S
C682 C685 1.409 . S
C683 H675 0.930 . S
C683 C684 1.355 . S
C683 C685 1.415 . S
C684 C683 1.355 . S
C684 C686 1.419 . S
C685 C680 1.425 . S
C685 C682 1.409 . S
C685 C683 1.415 . S
C686 H676 0.930 . S
C686 C684 1.419 . S
C686 C687 1.362 . S
C687 H677 0.930 . S
C687 C680 1.409 . S
C687 C686 1.362 . S
H688 C694 0.930 . S
H689 C697 0.930 . S
H690 C698 0.930 . S
H691 C699 0.930 . S
H692 C702 0.930 . S
H693 C703 0.930 . S
C694 H688 0.930 . S
C694 C695 1.355 . S
C694 C696 1.415 . S
C695 C694 1.355 . S
C695 C697 1.419 . S
C696 C694 1.415 . S
C696 C701 1.425 . S
C696 C703 1.409 . S
C697 H689 0.930 . S
C697 C695 1.419 . S
C697 C698 1.362 . S
C698 H690 0.930 . S
C698 C697 1.362 . S
C698 C701 1.409 . S
C699 H691 0.930 . S
C699 C700 1.355 . S
C699 C701 1.415 . S
C700 C699 1.355 . S
C700 C702 1.419 . S
C701 C696 1.425 . S
C701 C698 1.409 . S
C701 C699 1.415 . S
C702 H692 0.930 . S
C702 C700 1.419 . S
C702 C703 1.362 . S
C703 H693 0.930 . S
C703 C696 1.409 . S
C703 C702 1.362 . S
H704 C710 0.930 . S
H705 C713 0.930 . S
H706 C714 0.930 . S
H707 C715 0.930 . S
H708 C718 0.930 . S
H709 C719 0.930 . S
C710 H704 0.930 . S
C710 C711 1.355 . S
C710 C712 1.419 . S
C711 C710 1.355 . S
C711 C713 1.419 . S
C712 C710 1.419 . S
C712 C717 1.426 . S
C712 C719 1.405 1_565 S
C713 H705 0.930 . S
C713 C711 1.419 . S
C713 C714 1.362 . S
C714 H706 0.930 . S
C714 C713 1.362 . S
C714 C717 1.409 . S
C715 H707 0.930 . S
C715 C716 1.355 . S
C715 C717 1.415 1_545 S
C716 C715 1.355 . S
C716 C718 1.419 . S
C717 C712 1.426 . S
C717 C714 1.409 . S
C717 C715 1.415 1_565 S
C718 H708 0.930 . S
C718 C716 1.419 . S
C718 C719 1.362 . S
C719 H709 0.930 . S
C719 C712 1.405 1_545 S
C719 C718 1.362 . S
H720 C726 0.930 . S
H721 C729 0.930 . S
H722 C730 0.930 . S
H723 C731 0.930 . S
H724 C734 0.930 . S
H725 C735 0.930 . S
C726 H720 0.930 . S
C726 C727 1.355 . S
C726 C728 1.415 . S
C727 C726 1.355 . S
C727 C729 1.419 . S
C728 C726 1.415 . S
C728 C733 1.425 . S
C728 C735 1.409 . S
C729 H721 0.930 . S
C729 C727 1.419 . S
C729 C730 1.362 . S
C730 H722 0.930 . S
C730 C729 1.362 . S
C730 C733 1.409 . S
C731 H723 0.930 . S
C731 C732 1.355 . S
C731 C733 1.415 . S
C732 C731 1.355 . S
C732 C734 1.419 . S
C733 C728 1.425 . S
C733 C730 1.409 . S
C733 C731 1.415 . S
C734 H724 0.930 . S
C734 C732 1.419 . S
C734 C735 1.362 . S
C735 H725 0.930 . S
C735 C728 1.409 . S
C735 C734 1.362 . S
H736 C742 0.930 . S
H737 C745 0.930 . S
H738 C746 0.930 . S
H739 C747 0.930 . S
H740 C750 0.930 . S
H741 C751 0.930 . S
C742 H736 0.930 . S
C742 C743 1.355 . S
C742 C744 1.415 . S
C743 C742 1.355 . S
C743 C745 1.419 . S
C744 C742 1.415 . S
C744 C749 1.425 1_556 S
C744 C751 1.409 . S
C745 H737 0.930 . S
C745 C743 1.419 . S
C745 C746 1.362 1_556 S
C746 H738 0.930 . S
C746 C745 1.362 1_554 S
C746 C749 1.409 . S
C747 H739 0.930 . S
C747 C748 1.355 . S
C747 C749 1.415 . S
C748 C747 1.355 . S
C748 C750 1.419 . S
C749 C744 1.425 1_554 S
C749 C746 1.409 . S
C749 C747 1.415 . S
C750 H740 0.930 . S
C750 C748 1.419 . S
C750 C751 1.362 1_554 S
C751 H741 0.930 . S
C751 C744 1.409 . S
C751 C750 1.362 1_556 S
H752 C758 0.930 . S
H753 C761 0.930 . S
H754 C762 0.930 . S
H755 C763 0.930 . S
H756 C766 0.930 . S
H757 C767 0.930 . S
C758 H752 0.930 . S
C758 C759 1.355 . S
C758 C760 1.415 1_554 S
C759 C758 1.355 . S
C759 C761 1.419 . S
C760 C758 1.415 1_556 S
C760 C765 1.425 1_556 S
C760 C767 1.409 . S
C761 H753 0.930 . S
C761 C759 1.419 . S
C761 C762 1.362 . S
C762 H754 0.930 . S
C762 C761 1.362 . S
C762 C765 1.409 . S
C763 H755 0.930 . S
C763 C764 1.355 . S
C763 C765 1.415 1_556 S
C764 C763 1.355 . S
C764 C766 1.419 . S
C765 C760 1.425 1_554 S
C765 C762 1.409 . S
C765 C763 1.415 1_554 S
C766 H756 0.930 . S
C766 C764 1.419 . S
C766 C767 1.362 . S
C767 H757 0.930 . S
C767 C760 1.409 . S
C767 C766 1.362 . S
H768 C774 0.930 . S
H769 C777 0.930 . S
H770 C778 0.930 . S
H771 C779 0.930 . S
H772 C782 0.930 . S
H773 C783 0.930 . S
C774 H768 0.930 . S
C774 C775 1.355 . S
C774 C776 1.415 . S
C775 C774 1.355 . S
C775 C777 1.419 . S
C776 C774 1.415 . S
C776 C781 1.425 . S
C776 C783 1.409 . S
C777 H769 0.930 . S
C777 C775 1.419 . S
C777 C778 1.362 . S
C778 H770 0.930 . S
C778 C777 1.362 . S
C778 C781 1.409 . S
C779 H771 0.930 . S
C779 C780 1.355 . S
C779 C781 1.415 . S
C780 C779 1.355 . S
C780 C782 1.419 . S
C781 C776 1.425 . S
C781 C778 1.409 . S
C781 C779 1.415 . S
C782 H772 0.930 . S
C782 C780 1.419 . S
C782 C783 1.362 . S
C783 H773 0.930 . S
C783 C776 1.409 . S
C783 C782 1.362 . S
H784 C790 0.930 . S
H785 C793 0.930 . S
H786 C794 0.930 . S
H787 C795 0.930 . S
H788 C798 0.930 . S
H789 C799 0.930 . S
C790 H784 0.930 . S
C790 C791 1.355 . S
C790 C792 1.415 . S
C791 C790 1.355 . S
C791 C793 1.419 . S
C792 C790 1.415 . S
C792 C797 1.425 . S
C792 C799 1.409 . S
C793 H785 0.930 . S
C793 C791 1.419 . S
C793 C794 1.362 . S
C794 H786 0.930 . S
C794 C793 1.362 . S
C794 C797 1.409 . S
C795 H787 0.930 . S
C795 C796 1.355 . S
C795 C797 1.415 . S
C796 C795 1.355 . S
C796 C798 1.419 . S
C797 C792 1.425 . S
C797 C794 1.409 . S
C797 C795 1.415 . S
C798 H788 0.930 . S
C798 C796 1.419 . S
C798 C799 1.362 . S
C799 H789 0.930 . S
C799 C792 1.409 . S
C799 C798 1.362 . S
H800 C806 0.930 . S
H801 C809 0.930 . S
H802 C810 0.930 . S
H803 C811 0.930 . S
H804 C814 0.930 . S
H805 C815 0.930 . S
C806 H800 0.930 . S
C806 C807 1.355 . S
C806 C808 1.415 . S
C807 C806 1.355 . S
C807 C809 1.419 . S
C808 C806 1.415 . S
C808 C813 1.425 1_655 S
C808 C815 1.409 . S
C809 H801 0.930 . S
C809 C807 1.419 . S
C809 C810 1.362 1_655 S
C810 H802 0.930 . S
C810 C809 1.362 1_455 S
C810 C813 1.409 . S
C811 H803 0.930 . S
C811 C812 1.355 . S
C811 C813 1.415 . S
C812 C811 1.355 . S
C812 C814 1.419 . S
C813 C808 1.425 1_455 S
C813 C810 1.409 . S
C813 C811 1.415 . S
C814 H804 0.930 . S
C814 C812 1.419 . S
C814 C815 1.362 1_455 S
C815 H805 0.930 . S
C815 C808 1.409 . S
C815 C814 1.362 1_655 S
H816 C822 0.930 . S
H817 C825 0.930 . S
H818 C826 0.930 . S
H819 C827 0.930 . S
H820 C830 0.930 . S
H821 C831 0.930 1_655 S
C822 H816 0.930 . S
C822 C823 1.355 . S
C822 C824 1.415 . S
C823 C822 1.355 . S
C823 C825 1.419 . S
C824 C822 1.415 . S
C824 C829 1.425 1_655 S
C824 C831 1.409 1_655 S
C825 H817 0.930 . S
C825 C823 1.419 . S
C825 C826 1.362 1_655 S
C826 H818 0.930 . S
C826 C825 1.362 1_455 S
C826 C829 1.409 . S
C827 H819 0.930 . S
C827 C828 1.355 . S
C827 C829 1.415 . S
C828 C827 1.355 . S
C828 C830 1.419 . S
C829 C824 1.425 1_455 S
C829 C826 1.409 . S
C829 C827 1.415 . S
C830 H820 0.930 . S
C830 C828 1.419 . S
C830 C831 1.362 . S
C831 H821 0.930 1_455 S
C831 C824 1.409 1_455 S
C831 C830 1.362 . S
H832 C838 0.930 . S
H833 C841 0.930 . S
H834 C842 0.930 . S
H835 C843 0.930 . S
H836 C846 0.930 . S
H837 C847 0.930 . S
C838 H832 0.930 . S
C838 C839 1.355 . S
C838 C840 1.415 . S
C839 C838 1.355 . S
C839 C841 1.419 . S
C840 C838 1.415 . S
C840 C845 1.425 . S
C840 C847 1.409 . S
C841 H833 0.930 . S
C841 C839 1.419 . S
C841 C842 1.362 . S
C842 H834 0.930 . S
C842 C841 1.362 . S
C842 C845 1.409 . S
C843 H835 0.930 . S
C843 C844 1.355 . S
C843 C845 1.415 . S
C844 C843 1.355 . S
C844 C846 1.419 . S
C845 C840 1.425 . S
C845 C842 1.409 . S
C845 C843 1.415 . S
C846 H836 0.930 . S
C846 C844 1.419 . S
C846 C847 1.362 . S
C847 H837 0.930 . S
C847 C840 1.409 . S
C847 C846 1.362 . S
H848 C854 0.930 . S
H849 C857 0.930 . S
H850 C858 0.930 1_565 S
H851 C859 0.930 . S
H852 C862 0.930 . S
H853 C863 0.930 . S
C854 H848 0.930 . S
C854 C855 1.355 . S
C854 C856 1.415 . S
C855 C854 1.355 . S
C855 C857 1.419 . S
C856 C854 1.415 . S
C856 C861 1.425 . S
C856 C863 1.409 . S
C857 H849 0.930 . S
C857 C855 1.419 . S
C857 C858 1.362 . S
C858 H850 0.930 1_545 S
C858 C857 1.362 . S
C858 C861 1.409 . S
C859 H851 0.930 . S
C859 C860 1.355 . S
C859 C861 1.415 1_565 S
C860 C859 1.355 . S
C860 C862 1.419 . S
C861 C856 1.425 . S
C861 C858 1.409 . S
C861 C859 1.415 1_545 S
C862 H852 0.930 . S
C862 C860 1.419 . S
C862 C863 1.362 1_565 S
C863 H853 0.930 . S
C863 C856 1.409 . S
C863 C862 1.362 1_545 S
H864 C870 0.930 . S
H865 C873 0.930 . S
H866 C874 0.930 . S
H867 C875 0.930 . S
H868 C878 0.930 . S
H869 C879 0.930 . S
C870 H864 0.930 . S
C870 C871 1.355 . S
C870 C872 1.415 . S
C871 C870 1.355 . S
C871 C873 1.419 . S
C872 C870 1.415 . S
C872 C877 1.425 . S
C872 C879 1.409 . S
C873 H865 0.930 . S
C873 C871 1.419 . S
C873 C874 1.362 . S
C874 H866 0.930 . S
C874 C873 1.362 . S
C874 C877 1.409 . S
C875 H867 0.930 . S
C875 C876 1.355 . S
C875 C877 1.415 . S
C876 C875 1.355 . S
C876 C878 1.419 . S
C877 C872 1.425 . S
C877 C874 1.409 . S
C877 C875 1.415 . S
C878 H868 0.930 . S
C878 C876 1.419 . S
C878 C879 1.362 . S
C879 H869 0.930 . S
C879 C872 1.409 . S
C879 C878 1.362 . S
H880 C886 0.930 . S
H881 C889 0.930 . S
H882 C890 0.930 1_556 S
H883 C891 0.930 . S
H884 C894 0.930 . S
H885 C895 0.930 . S
C886 H880 0.930 . S
C886 C887 1.355 . S
C886 C888 1.415 . S
C887 C886 1.355 . S
C887 C889 1.419 . S
C888 C886 1.415 . S
C888 C893 1.425 1_554 S
C888 C895 1.409 . S
C889 H881 0.930 . S
C889 C887 1.419 . S
C889 C890 1.362 . S
C890 H882 0.930 1_554 S
C890 C889 1.362 . S
C890 C893 1.409 1_554 S
C891 H883 0.930 . S
C891 C892 1.355 . S
C891 C893 1.415 . S
C892 C891 1.355 . S
C892 C894 1.419 . S
C893 C888 1.425 1_556 S
C893 C890 1.409 1_556 S
C893 C891 1.415 . S
C894 H884 0.930 . S
C894 C892 1.419 . S
C894 C895 1.362 1_556 S
C895 H885 0.930 . S
C895 C888 1.409 . S
C895 C894 1.362 1_554 S
H896 C902 0.930 . S
H897 C905 0.930 . S
H898 C906 0.930 . S
H899 C907 0.930 . S
H900 C910 0.930 . S
H901 C911 0.930 . S
C902 H896 0.930 . S
C902 C903 1.355 . S
C902 C904 1.415 . S
C903 C902 1.355 . S
C903 C905 1.419 . S
C904 C902 1.415 . S
C904 C909 1.425 1_556 S
C904 C911 1.409 . S
C905 H897 0.930 . S
C905 C903 1.419 . S
C905 C906 1.362 1_556 S
C906 H898 0.930 . S
C906 C905 1.362 1_554 S
C906 C909 1.409 . S
C907 H899 0.930 . S
C907 C908 1.355 . S
C907 C909 1.415 . S
C908 C907 1.355 . S
C908 C910 1.419 . S
C909 C904 1.425 1_554 S
C909 C906 1.409 . S
C909 C907 1.415 . S
C910 H900 0.930 . S
C910 C908 1.419 . S
C910 C911 1.362 1_554 S
C911 H901 0.930 . S
C911 C904 1.409 . S
C911 C910 1.362 1_556 S
H912 C918 0.930 . S
H913 C921 0.930 . S
H914 C922 0.930 . S
H915 C923 0.930 . S
H916 C926 0.930 . S
H917 C927 0.930 . S
C918 H912 0.930 . S
C918 C919 1.355 . S
C918 C920 1.415 . S
C919 C918 1.355 . S
C919 C921 1.419 . S
C920 C918 1.415 . S
C920 C925 1.425 . S
C920 C927 1.409 . S
C921 H913 0.930 . S
C921 C919 1.419 . S
C921 C922 1.362 . S
C922 H914 0.930 . S
C922 C921 1.362 . S
C922 C925 1.409 . S
C923 H915 0.930 . S
C923 C924 1.355 . S
C923 C925 1.415 . S
C924 C923 1.355 . S
C924 C926 1.419 . S
C925 C920 1.425 . S
C925 C922 1.409 . S
C925 C923 1.415 . S
C926 H916 0.930 . S
C926 C924 1.419 . S
C926 C927 1.362 . S
C927 H917 0.930 . S
C927 C920 1.409 . S
C927 C926 1.362 . S
H928 C934 0.930 . S
H929 C937 0.930 . S
H930 C938 0.930 . S
H931 C939 0.930 . S
H932 C942 0.930 . S
H933 C943 0.930 . S
C934 H928 0.930 . S
C934 C935 1.355 . S
C934 C936 1.415 . S
C935 C934 1.355 . S
C935 C937 1.419 . S
C936 C934 1.415 . S
C936 C941 1.425 . S
C936 C943 1.409 . S
C937 H929 0.930 . S
C937 C935 1.419 . S
C937 C938 1.362 . S
C938 H930 0.930 . S
C938 C937 1.362 . S
C938 C941 1.409 . S
C939 H931 0.930 . S
C939 C940 1.355 . S
C939 C941 1.415 . S
C940 C939 1.355 . S
C940 C942 1.419 . S
C941 C936 1.425 . S
C941 C938 1.409 . S
C941 C939 1.415 . S
C942 H932 0.930 . S
C942 C940 1.419 . S
C942 C943 1.362 . S
C943 H933 0.930 . S
C943 C936 1.409 . S
C943 C942 1.362 . S
H944 C950 0.930 . S
H945 C953 0.930 . S
H946 C954 0.930 . S
H947 C955 0.930 . S
H948 C958 0.930 . S
H949 C959 0.930 . S
C950 H944 0.930 . S
C950 C951 1.355 . S
C950 C952 1.415 1_455 S
C951 C950 1.355 . S
C951 C953 1.419 . S
C952 C950 1.415 1_655 S
C952 C957 1.425 1_655 S
C952 C959 1.409 . S
C953 H945 0.930 . S
C953 C951 1.419 . S
C953 C954 1.362 . S
C954 H946 0.930 . S
C954 C953 1.362 . S
C954 C957 1.417 . S
C955 H947 0.930 . S
C955 C956 1.355 . S
C955 C957 1.407 1_655 S
C956 C955 1.355 . S
C956 C958 1.419 . S
C957 C952 1.425 1_455 S
C957 C954 1.417 . S
C957 C955 1.407 1_455 S
C958 H948 0.930 . S
C958 C956 1.419 . S
C958 C959 1.362 . S
C959 H949 0.930 . S
C959 C952 1.409 . S
C959 C958 1.362 . S
H960 C966 0.930 . S
H961 C969 0.930 . S
H962 C970 0.930 . S
H963 C971 0.930 . S
H964 C974 0.930 . S
H965 C975 0.930 . S
C966 H960 0.930 . S
C966 C967 1.355 . S
C966 C968 1.415 . S
C967 C966 1.355 . S
C967 C969 1.419 . S
C968 C966 1.415 . S
C968 C973 1.425 . S
C968 C975 1.409 1_455 S
C969 H961 0.930 . S
C969 C967 1.419 . S
C969 C970 1.362 . S
C970 H962 0.930 . S
C970 C969 1.362 . S
C970 C973 1.409 . S
C971 H963 0.930 . S
C971 C972 1.355 . S
C971 C973 1.415 1_655 S
C972 C971 1.355 . S
C972 C974 1.419 . S
C973 C968 1.425 . S
C973 C970 1.409 . S
C973 C971 1.415 1_455 S
C974 H964 0.930 . S
C974 C972 1.419 . S
C974 C975 1.362 . S
C975 H965 0.930 . S
C975 C968 1.409 1_655 S
C975 C974 1.362 . S
H976 C982 0.930 . S
H977 C985 0.930 . S
H978 C986 0.930 . S
H979 C987 0.930 . S
H980 C990 0.930 . S
H981 C991 0.930 . S
C982 H976 0.930 . S
C982 C983 1.355 . S
C982 C984 1.415 . S
C983 C982 1.355 . S
C983 C985 1.419 . S
C984 C982 1.415 . S
C984 C989 1.425 . S
C984 C991 1.409 . S
C985 H977 0.930 . S
C985 C983 1.419 . S
C985 C986 1.362 . S
C986 H978 0.930 . S
C986 C985 1.362 . S
C986 C989 1.409 . S
C987 H979 0.930 . S
C987 C988 1.355 . S
C987 C989 1.415 . S
C988 C987 1.355 . S
C988 C990 1.419 . S
C989 C984 1.425 . S
C989 C986 1.409 . S
C989 C987 1.415 . S
C990 H980 0.930 . S
C990 C988 1.419 . S
C990 C991 1.362 . S
C991 H981 0.930 . S
C991 C984 1.409 . S
C991 C990 1.362 . S
H992 C998 0.930 . S
H993 C1001 0.930 . S
H994 C1002 0.930 . S
H995 C1003 0.930 . S
H996 C1006 0.930 . S
H997 C1007 0.930 . S
C998 H992 0.930 . S
C998 C999 1.355 . S
C998 C1000 1.415 . S
C999 C998 1.355 . S
C999 C1001 1.419 . S
C1000 C998 1.415 . S
C1000 C1005 1.425 . S
C1000 C1007 1.409 . S
C1001 H993 0.930 . S
C1001 C999 1.419 . S
C1001 C1002 1.362 . S
C1002 H994 0.930 . S
C1002 C1001 1.362 . S
C1002 C1005 1.409 . S
C1003 H995 0.930 . S
C1003 C1004 1.355 . S
C1003 C1005 1.415 . S
C1004 C1003 1.355 . S
C1004 C1006 1.419 . S
C1005 C1000 1.425 . S
C1005 C1002 1.409 . S
C1005 C1003 1.415 . S
C1006 H996 0.930 . S
C1006 C1004 1.419 . S
C1006 C1007 1.362 . S
C1007 H997 0.930 . S
C1007 C1000 1.409 . S
C1007 C1006 1.362 . S
H1008 C1014 0.930 . S
H1009 C1017 0.930 . S
H1010 C1018 0.930 . S
H1011 C1019 0.930 . S
H1012 C1022 0.930 . S
H1013 C1023 0.930 . S
C1014 H1008 0.930 . S
C1014 C1015 1.355 . S
C1014 C1016 1.415 1_545 S
C1015 C1014 1.355 . S
C1015 C1017 1.419 . S
C1016 C1014 1.415 1_565 S
C1016 C1021 1.425 . S
C1016 C1023 1.409 . S
C1017 H1009 0.930 . S
C1017 C1015 1.419 . S
C1017 C1018 1.362 . S
C1018 H1010 0.930 . S
C1018 C1017 1.362 . S
C1018 C1021 1.409 1_545 S
C1019 H1011 0.930 . S
C1019 C1020 1.355 . S
C1019 C1021 1.415 . S
C1020 C1019 1.355 . S
C1020 C1022 1.419 . S
C1021 C1016 1.425 . S
C1021 C1018 1.409 1_565 S
C1021 C1019 1.415 . S
C1022 H1012 0.930 . S
C1022 C1020 1.419 . S
C1022 C1023 1.362 . S
C1023 H1013 0.930 . S
C1023 C1016 1.409 . S
C1023 C1022 1.362 . S
H1024 C1030 0.930 . S
H1025 C1033 0.930 . S
H1026 C1034 0.930 . S
H1027 C1035 0.930 . S
H1028 C1038 0.930 . S
H1029 C1039 0.930 . S
C1030 H1024 0.930 . S
C1030 C1031 1.355 . S
C1030 C1032 1.415 . S
C1031 C1030 1.355 . S
C1031 C1033 1.419 . S
C1032 C1030 1.415 . S
C1032 C1037 1.425 . S
C1032 C1039 1.409 . S
C1033 H1025 0.930 . S
C1033 C1031 1.419 . S
C1033 C1034 1.362 . S
C1034 H1026 0.930 . S
C1034 C1033 1.362 . S
C1034 C1037 1.409 . S
C1035 H1027 0.930 . S
C1035 C1036 1.355 . S
C1035 C1037 1.415 . S
C1036 C1035 1.355 . S
C1036 C1038 1.419 . S
C1037 C1032 1.425 . S
C1037 C1034 1.409 . S
C1037 C1035 1.415 . S
C1038 H1028 0.930 . S
C1038 C1036 1.419 . S
C1038 C1039 1.362 . S
C1039 H1029 0.930 . S
C1039 C1032 1.409 . S
C1039 C1038 1.362 . S
H1040 C1046 0.930 . S
H1041 C1049 0.930 . S
H1042 C1050 0.930 . S
H1043 C1051 0.930 . S
H1044 C1054 0.930 . S
H1045 C1055 0.930 . S
C1046 H1040 0.930 . S
C1046 C1047 1.355 . S
C1046 C1048 1.415 . S
C1047 C1046 1.355 . S
C1047 C1049 1.419 . S
C1048 C1046 1.415 . S
C1048 C1053 1.425 . S
C1048 C1055 1.409 . S
C1049 H1041 0.930 . S
C1049 C1047 1.419 . S
C1049 C1050 1.362 . S
C1050 H1042 0.930 . S
C1050 C1049 1.362 . S
C1050 C1053 1.409 . S
C1051 H1043 0.930 . S
C1051 C1052 1.355 . S
C1051 C1053 1.415 . S
C1052 C1051 1.355 . S
C1052 C1054 1.419 . S
C1053 C1048 1.425 . S
C1053 C1050 1.409 . S
C1053 C1051 1.415 . S
C1054 H1044 0.930 . S
C1054 C1052 1.419 . S
C1054 C1055 1.362 . S
C1055 H1045 0.930 . S
C1055 C1048 1.409 . S
C1055 C1054 1.362 . S
H1056 C1062 0.930 . S
H1057 C1065 0.930 . S
H1058 C1066 0.930 1_565 S
H1059 C1067 0.930 . S
H1060 C1070 0.930 . S
H1061 C1071 0.930 . S
C1062 H1056 0.930 . S
C1062 C1063 1.355 . S
C1062 C1064 1.415 1_545 S
C1063 C1062 1.355 . S
C1063 C1065 1.419 . S
C1064 C1062 1.415 1_565 S
C1064 C1069 1.425 . S
C1064 C1071 1.409 . S
C1065 H1057 0.930 . S
C1065 C1063 1.419 . S
C1065 C1066 1.362 . S
C1066 H1058 0.930 1_545 S
C1066 C1065 1.362 . S
C1066 C1069 1.409 1_545 S
C1067 H1059 0.930 . S
C1067 C1068 1.355 . S
C1067 C1069 1.415 . S
C1068 C1067 1.355 . S
C1068 C1070 1.419 . S
C1069 C1064 1.425 . S
C1069 C1066 1.409 1_565 S
C1069 C1067 1.415 . S
C1070 H1060 0.930 . S
C1070 C1068 1.419 . S
C1070 C1071 1.362 . S
C1071 H1061 0.930 . S
C1071 C1064 1.409 . S
C1071 C1070 1.362 . S
H1072 C1078 0.930 . S
H1073 C1081 0.930 . S
H1074 C1082 0.930 . S
H1075 C1083 0.930 . S
H1076 C1086 0.930 . S
H1077 C1087 0.930 . S
C1078 H1072 0.930 . S
C1078 C1079 1.355 . S
C1078 C1080 1.415 . S
C1079 C1078 1.355 . S
C1079 C1081 1.419 . S
C1080 C1078 1.415 . S
C1080 C1085 1.425 . S
C1080 C1087 1.409 . S
C1081 H1073 0.930 . S
C1081 C1079 1.419 . S
C1081 C1082 1.362 . S
C1082 H1074 0.930 . S
C1082 C1081 1.362 . S
C1082 C1085 1.409 . S
C1083 H1075 0.930 . S
C1083 C1084 1.355 . S
C1083 C1085 1.415 . S
C1084 C1083 1.355 . S
C1084 C1086 1.419 . S
C1085 C1080 1.425 . S
C1085 C1082 1.409 . S
C1085 C1083 1.415 . S
C1086 H1076 0.930 . S
C1086 C1084 1.419 . S
C1086 C1087 1.362 . S
C1087 H1077 0.930 . S
C1087 C1080 1.409 . S
C1087 C1086 1.362 . S
C583 C2 1.278 . S
C588 C470 1.288 . S
C599 C38 1.075 . S
C604 C326 1.066 . S
C615 C506 1.090 . S
C620 C74 1.087 . S
C631 C110 1.280 . S
C636 C542 1.270 . S
C647 C146 1.066 . S
C652 C218 1.066 . S
C663 C362 1.278 . S
C668 C182 1.284 . S
C679 C398 1.112 . S
C684 C254 1.107 . S
C695 C290 1.274 . S
C700 C434 1.272 . S
C711 C75 1.622 . S
C716 C14 1.500 . S
C727 C50 1.637 . S
C732 C122 1.640 . S
C743 C435 1.621 . S
C748 C3 1.623 . S
C759 C39 1.701 . S
C764 C400 1.675 . S
C775 C147 1.699 . S
C780 C76 1.684 . S
C791 C363 1.625 . S
C796 C111 1.620 . S
C807 C40 1.756 . S
C812 C4 1.751 . S
C823 C112 1.103 . S
C828 C86 1.068 . S
C839 C364 1.723 . S
C844 C148 1.748 . S
C855 C256 1.650 . S
C860 C183 1.651 . S
C871 C219 1.305 . S
C876 C292 1.306 . S
C887 C543 1.665 . S
C892 C194 1.520 . S
C903 C230 1.450 . S
C908 C507 1.514 . S
C919 C338 1.356 . S
C924 C255 1.467 . S
C935 C291 1.684 . S
C940 C482 1.561 . S
C951 C220 1.643 . S
C956 C184 1.660 . S
C967 C302 1.654 . S
C972 C266 1.710 . S
C983 C328 1.658 . S
C988 C472 1.645 . S
C999 C374 1.539 . S
C1004 C399 1.617 . S
C1015 C446 1.595 . S
C1020 C158 1.599 . S
C1031 C436 1.036 . S
C1036 C410 0.937 . S
C1047 C508 1.631 . S
C1052 C471 1.636 . S
C1063 C327 1.301 . S
C1068 C544 1.300 . S
C1079 C554 1.689 . S
C1084 C518 1.692 . S
