# Generated by pormake.
# Topology smm, (6)-cn, num edge types: 1
# Building blocks:
#     Node 0, Type 0, BuildingBlock: CIFDUS_clean_sbu_1, # of connection points: 6
#     Node 1, Type 0, BuildingBlock: CIFDUS_clean_sbu_1, # of connection points: 6
#     Node 2, Type 0, BuildingBlock: CIFDUS_clean_sbu_1, # of connection points: 6
#     Node 3, Type 0, BuildingBlock: CIFDUS_clean_sbu_1, # of connection points: 6
#     Node 4, Type 0, BuildingBlock: CIFDUS_clean_sbu_1, # of connection points: 6
#     Node 5, Type 0, BuildingBlock: CIFDUS_clean_sbu_1, # of connection points: 6
#     Node 6, Type 0, BuildingBlock: CIFDUS_clean_sbu_1, # of connection points: 6
#     Node 7, Type 0, BuildingBlock: CIFDUS_clean_sbu_1, # of connection points: 6
#     Node 8, Type 0, BuildingBlock: CIFDUS_clean_sbu_1, # of connection points: 6
#     Edge 9, Type (0, 0), BuildingBlock: KIFKEQ_clean_linker_1, # of connection points: 2
#     Edge 10, Type (0, 0), BuildingBlock: KIFKEQ_clean_linker_1, # of connection points: 2
#     Edge 11, Type (0, 0), BuildingBlock: KIFKEQ_clean_linker_1, # of connection points: 2
#     Edge 12, Type (0, 0), BuildingBlock: KIFKEQ_clean_linker_1, # of connection points: 2
#     Edge 13, Type (0, 0), BuildingBlock: KIFKEQ_clean_linker_1, # of connection points: 2
#     Edge 14, Type (0, 0), BuildingBlock: KIFKEQ_clean_linker_1, # of connection points: 2
#     Edge 15, Type (0, 0), BuildingBlock: KIFKEQ_clean_linker_1, # of connection points: 2
#     Edge 16, Type (0, 0), BuildingBlock: KIFKEQ_clean_linker_1, # of connection points: 2
#     Edge 17, Type (0, 0), BuildingBlock: KIFKEQ_clean_linker_1, # of connection points: 2
#     Edge 18, Type (0, 0), BuildingBlock: KIFKEQ_clean_linker_1, # of connection points: 2
#     Edge 19, Type (0, 0), BuildingBlock: KIFKEQ_clean_linker_1, # of connection points: 2
#     Edge 20, Type (0, 0), BuildingBlock: KIFKEQ_clean_linker_1, # of connection points: 2
#     Edge 21, Type (0, 0), BuildingBlock: KIFKEQ_clean_linker_1, # of connection points: 2
#     Edge 22, Type (0, 0), BuildingBlock: KIFKEQ_clean_linker_1, # of connection points: 2
#     Edge 23, Type (0, 0), BuildingBlock: KIFKEQ_clean_linker_1, # of connection points: 2
#     Edge 24, Type (0, 0), BuildingBlock: KIFKEQ_clean_linker_1, # of connection points: 2
#     Edge 25, Type (0, 0), BuildingBlock: KIFKEQ_clean_linker_1, # of connection points: 2
#     Edge 26, Type (0, 0), BuildingBlock: KIFKEQ_clean_linker_1, # of connection points: 2
#     Edge 27, Type (0, 0), BuildingBlock: KIFKEQ_clean_linker_1, # of connection points: 2
#     Edge 28, Type (0, 0), BuildingBlock: KIFKEQ_clean_linker_1, # of connection points: 2
#     Edge 29, Type (0, 0), BuildingBlock: KIFKEQ_clean_linker_1, # of connection points: 2
#     Edge 30, Type (0, 0), BuildingBlock: KIFKEQ_clean_linker_1, # of connection points: 2
#     Edge 31, Type (0, 0), BuildingBlock: KIFKEQ_clean_linker_1, # of connection points: 2
#     Edge 32, Type (0, 0), BuildingBlock: KIFKEQ_clean_linker_1, # of connection points: 2
#     Edge 33, Type (0, 0), BuildingBlock: KIFKEQ_clean_linker_1, # of connection points: 2
#     Edge 34, Type (0, 0), BuildingBlock: KIFKEQ_clean_linker_1, # of connection points: 2
#     Edge 35, Type (0, 0), BuildingBlock: KIFKEQ_clean_linker_1, # of connection points: 2
# Relax obj value: 0.216
# Max RMSD: 0.238
# Mean RMSD: 0.216
data_MOF--net-smm--node1-CIFDUS_clean_sbu_1--edge1-KIFKEQ_clean_linker_1
_symmetry_space_group_name_H-M    P1
_symmetry_Int_Tables_number       1
_symmetry_cell_setting            triclinic
loop_
_symmetry_equiv_pos_as_xyz
'x, y, z'
_cell_length_a     52.041024
_cell_length_b     51.981227
_cell_length_c     15.79623
_cell_angle_alpha  94.143161
_cell_angle_beta   93.909159
_cell_angle_gamma 119.96936
loop_
_atom_site_label
_atom_site_type_symbol
_atom_site_fract_x
_atom_site_fract_y
_atom_site_fract_z
_atom_type_partial_charge
O0 O 0.01954 0.20374 0.18502 0.0
Mn1 Mn 0.01082 0.1956 0.05339 0.0
O2 O 0.97522 0.16947 0.22122 0.0
Mn3 Mn 0.95091 0.1647 0.12229 0.0
O4 O 0.00337 0.18769 0.9207 0.0
O5 O 0.04993 0.19721 0.05013 0.0
Mn6 Mn 0.07302 0.22412 0.98777 0.0
O7 O 0.02986 0.24158 0.04073 0.0
O8 O 0.05026 0.2099 0.88146 0.0
O9 O 0.99058 0.14847 0.05693 0.0
O10 O 0.94153 0.13164 0.04957 0.0
O11 O 0.09364 0.20579 0.02529 0.0
O12 O 0.07876 0.26018 0.03713 0.0
C13 C 0.95729 0.20599 0.09243 0.0
C14 C 0.00295 0.1885 0.23955 0.0
C15 C 0.02177 0.1949 0.86432 0.0
C16 C 0.06947 0.18899 0.05819 0.0
C17 C 0.05632 0.26372 0.03741 0.0
C18 C 0.96304 0.127 0.04099 0.0
O19 O 0.97127 0.19356 0.05983 0.0
O20 O 0.93443 0.18848 0.12953 0.0
O21 O 0.8367 0.83699 0.93968 0.0
Mn22 Mn 0.83488 0.84166 0.06969 0.0
O23 O 0.82743 0.87279 0.9032 0.0
Mn24 Mn 0.80654 0.87431 -0.00718 0.0
O25 O 0.83384 0.84672 0.20081 0.0
O26 O 0.87316 0.84077 0.09117 0.0
Mn27 Mn 0.86695 0.81171 0.15273 0.0
O28 O 0.80766 0.79526 0.07077 0.0
O29 O 0.85605 0.82219 0.25326 0.0
O30 O 0.86187 0.88885 0.074 0.0
O31 O 0.83013 0.90573 0.07546 0.0
O32 O 0.90691 0.83068 0.13796 0.0
O33 O 0.83741 0.7763 0.09072 0.0
C34 C 0.77049 0.8315 0.00302 0.0
C35 C 0.83644 0.85443 0.88684 0.0
C36 C 0.84273 0.83708 0.26238 0.0
C37 C 0.90114 0.84856 0.09873 0.0
C38 C 0.81149 0.77283 0.07609 0.0
C39 C 0.85662 0.91049 0.08716 0.0
O40 O 0.79654 0.84284 0.04789 0.0
O41 O 0.76613 0.85068 0.96609 0.0
O42 O 0.16923 0.01045 0.11706 0.0
Mn43 Mn 0.16797 0.01224 0.98551 0.0
O44 O 0.19811 0.05873 0.17417 0.0
Mn45 Mn 0.20788 0.07615 0.07448 0.0
O46 O 0.16603 0.01364 0.85372 0.0
O47 O 0.12745 0.97396 0.96746 0.0
Mn48 Mn 0.13094 0.94786 0.89806 0.0
O49 O 0.19176 0.98967 0.97051 0.0
O50 O 0.14036 0.96489 0.7975 0.0
O51 O 0.14488 0.03641 -0.00214 0.0
O52 O 0.18083 0.08453 0.02491 0.0
O53 O 0.09204 0.92812 0.92044 0.0
O54 O 0.1597 0.94087 0.94787 0.0
C55 C 0.2374 0.06879 0.00605 0.0
C56 C 0.18112 0.03106 0.18133 0.0
C57 C 0.15518 0.99277 0.79006 0.0
C58 C 0.09962 0.95325 0.96519 0.0
C59 C 0.18637 0.96268 0.95929 0.0
C60 C 0.15348 0.06458 0.00801 0.0
O61 O 0.20901 0.04966 0.0029 0.0
O62 O 0.24628 0.0945 0.04956 0.0
O63 O 0.66 0.51526 0.16813 0.0
Mn64 Mn 0.66972 0.51898 0.29921 0.0
O65 O 0.7061 0.53285 0.12637 0.0
Mn66 Mn 0.72951 0.55024 0.23126 0.0
O67 O 0.68026 0.52267 0.43006 0.0
O68 O 0.63171 0.47916 0.30256 0.0
Mn69 Mn 0.6108 0.48554 0.37554 0.0
O70 O 0.649 0.54477 0.32512 0.0
O71 O 0.63514 0.49785 0.47855 0.0
O72 O 0.69075 0.49289 0.28098 0.0
O73 O 0.73904 0.52648 0.28896 0.0
O74 O 0.58839 0.44562 0.33662 0.0
O75 O 0.6013 0.5129 0.33865 0.0
C76 C 0.72756 0.58683 0.28968 0.0
C77 C 0.6777 0.52045 0.11055 0.0
C78 C 0.66366 0.513 0.49009 0.0
C79 C 0.61068 0.45119 0.29425 0.0
C80 C 0.62247 0.53933 0.33602 0.0
C81 C 0.71837 0.49986 0.29093 0.0
O82 O 0.70726 0.55897 0.29171 0.0
O83 O 0.7511 0.59077 0.25612 0.0
O84 O 0.49614 0.15602 0.11405 0.0
Mn85 Mn 0.49554 0.16719 0.24237 0.0
O86 O 0.4854 0.18771 0.05517 0.0
Mn87 Mn 0.46559 0.193 0.14155 0.0
O88 O 0.49608 0.17721 0.37258 0.0
O89 O 0.53405 0.16739 0.26471 0.0
Mn90 Mn 0.53117 0.14268 0.33772 0.0
O91 O 0.46937 0.12103 0.2605 0.0
O92 O 0.52251 0.15801 0.43398 0.0
O93 O 0.52169 0.21497 0.23326 0.0
O94 O 0.48771 0.22864 0.20717 0.0
O95 O 0.56999 0.16057 0.31241 0.0
O96 O 0.50142 0.10516 0.29021 0.0
C97 C 0.43077 0.15319 0.16999 0.0
C98 C 0.49436 0.16912 0.05068 0.0
C99 C 0.50786 0.17171 0.43797 0.0
C100 C 0.56197 0.17568 0.26701 0.0
C101 C 0.47487 0.10005 0.27611 0.0
C102 C 0.51439 0.23554 0.23096 0.0
O103 O 0.45656 0.16704 0.21752 0.0
O104 O 0.42587 0.16869 0.11711 0.0
O105 O 0.84596 0.35371 0.16701 0.0
Mn106 Mn 0.8404 0.34411 0.29072 0.0
O107 O 0.80883 0.31076 0.09732 0.0
Mn108 Mn 0.80778 0.28595 0.17817 0.0
O109 O 0.83548 0.33546 0.41673 0.0
O110 O 0.84097 0.3828 0.31884 0.0
Mn111 Mn 0.86927 0.40505 0.40274 0.0
O112 O 0.88717 0.36409 0.3244 0.0
O113 O 0.85868 0.38171 0.49189 0.0
O114 O 0.79307 0.3234 0.26548 0.0
O115 O 0.77584 0.27437 0.23789 0.0
O116 O 0.85109 0.42657 0.37585 0.0
O117 O 0.90479 0.41257 0.36426 0.0
C118 C 0.84994 0.29151 0.21487 0.0
C119 C 0.82831 0.33827 0.09976 0.0
C120 C 0.84484 0.35315 0.48712 0.0
C121 C 0.83404 0.40348 0.32042 0.0
C122 C 0.90913 0.3908 0.34911 0.0
C123 C 0.77185 0.29587 0.26094 0.0
O124 O 0.83872 0.30459 0.2601 0.0
O125 O 0.83111 0.27001 0.15704 0.0
O126 O 0.35284 0.87001 0.78551 0.0
Mn127 Mn 0.34195 0.86233 0.65357 0.0
O128 O 0.3066 0.83976 0.82069 0.0
Mn129 Mn 0.28456 0.83589 0.71837 0.0
O130 O 0.33015 0.85366 0.52185 0.0
O131 O 0.37802 0.85779 0.63995 0.0
Mn132 Mn 0.39965 0.8825 0.56969 0.0
O133 O 0.36489 0.90858 0.63535 0.0
O134 O 0.37429 0.86931 0.46865 0.0
O135 O 0.31956 0.81525 0.66254 0.0
O136 O 0.27233 0.80201 0.64528 0.0
O137 O 0.41953 0.86308 0.5995 0.0
O138 O 0.41143 0.92084 0.61643 0.0
C139 C 0.28402 0.87296 0.6836 0.0
C140 C 0.33489 0.85612 0.83983 0.0
C141 C 0.34602 0.85822 0.45969 0.0
C142 C 0.39728 0.84886 0.64254 0.0
C143 C 0.39145 0.92792 0.62033 0.0
C144 C 0.29197 0.79468 0.64515 0.0
O145 O 0.30649 0.86881 0.67196 0.0
O146 O 0.26138 0.85215 0.71471 0.0
O147 O 0.17422 0.50773 0.6004 0.0
Mn148 Mn 0.16949 0.51158 0.72885 0.0
O149 O 0.15723 0.53744 0.55479 0.0
Mn150 Mn 0.13829 0.54006 0.64788 0.0
O151 O 0.1647 0.51627 0.85737 0.0
O152 O 0.20951 0.51472 0.76105 0.0
Mn153 Mn 0.20349 0.4864 0.82564 0.0
O154 O 0.14496 0.4647 0.73082 0.0
O155 O 0.18853 0.49484 0.91997 0.0
O156 O 0.19476 0.55909 0.73226 0.0
O157 O 0.16075 0.57261 0.72798 0.0
O158 O 0.24384 0.50676 0.8191 0.0
O159 O 0.1776 0.44995 0.76268 0.0
C160 C 0.10109 0.50035 0.67266 0.0
C161 C 0.16999 0.52206 0.54325 0.0
C162 C 0.17287 0.50744 0.92234 0.0
C163 C 0.23769 0.52313 0.77345 0.0
C164 C 0.15102 0.44392 0.74204 0.0
C165 C 0.18769 0.57946 0.74265 0.0
O166 O 0.12864 0.50704 0.69371 0.0
O167 O 0.09787 0.52081 0.63963 0.0
O168 O 0.50642 0.67316 0.83285 0.0
Mn169 Mn 0.50758 0.67816 0.70477 0.0
O170 O 0.51204 0.71687 0.88171 0.0
Mn171 Mn 0.53455 0.73724 0.79666 0.0
O172 O 0.50773 0.68045 0.5733 0.0
O173 O 0.4682 0.63896 0.68162 0.0
Mn174 Mn 0.47361 0.61331 0.61787 0.0
O175 O 0.53354 0.65744 0.69137 0.0
O176 O 0.48509 0.63145 0.51969 0.0
O177 O 0.48137 0.69985 0.70946 0.0
O178 O 0.51452 0.74847 0.72432 0.0
O179 O 0.43383 0.59316 0.63359 0.0
O180 O 0.50264 0.60826 0.67514 0.0
C181 C 0.57184 0.7334 0.78809 0.0
C182 C 0.50493 0.69027 0.89169 0.0
C183 C 0.49881 0.65932 0.51076 0.0
C184 C 0.44019 0.61844 0.67497 0.0
C185 C 0.52897 0.63061 0.68281 0.0
C186 C 0.4878 0.72726 0.70612 0.0
O187 O 0.54806 0.71801 0.73104 0.0
O188 O 0.57336 0.75565 0.8358 0.0
H189 H 0.04344 0.26194 0.87001 0.0
H190 H 0.07863 0.32248 0.1042 0.0
H191 H 0.06079 0.3042 0.78698 0.0
H192 H 0.09504 0.36518 0.02068 0.0
H193 H 0.10447 0.43313 0.83141 0.0
H194 H 0.07553 0.38888 0.9035 0.0
H195 H 0.1167 0.34492 0.7772 0.0
H196 H 0.1463 0.38945 0.7073 0.0
C197 C 0.05376 0.28433 0.90377 0.0
C198 C 0.05921 0.28899 -0.00645 0.0
C199 C 0.06395 0.30851 0.85614 0.0
C200 C 0.07929 0.33797 0.89721 0.0
C201 C 0.08305 0.34266 0.98736 0.0
C202 C 0.07354 0.31833 0.03523 0.0
C203 C 0.10646 0.41358 0.81637 0.0
C204 C 0.12725 0.41455 0.76213 0.0
C205 C 0.09026 0.38846 0.85885 0.0
C206 C 0.09392 0.36351 0.84622 0.0
C207 C 0.11322 0.36373 0.78769 0.0
C208 C 0.12997 0.3891 0.74698 0.0
H209 H 0.72283 0.81248 0.08896 0.0
H210 H 0.75926 0.78339 0.8922 0.0
H211 H 0.67241 0.77704 0.02063 0.0
H212 H 0.70845 0.7476 0.82345 0.0
H213 H 0.58506 0.69131 0.83796 0.0
H214 H 0.63528 0.70374 0.90059 0.0
H215 H 0.67276 0.7902 0.81086 0.0
H216 H 0.62329 0.77784 0.74819 0.0
C217 C 0.72004 0.79684 0.03493 0.0
C218 C 0.7451 0.80055 -0.00321 0.0
C219 C 0.69108 0.77676 -0.00499 0.0
C220 C 0.68652 0.75964 0.91659 0.0
C221 C 0.71134 0.76038 0.8842 0.0
C222 C 0.74045 0.7806 0.92435 0.0
C223 C 0.60429 0.71217 0.82708 0.0
C224 C 0.60025 0.73336 0.78652 0.0
C225 C 0.63294 0.71946 0.86411 0.0
C226 C 0.65781 0.74798 0.86074 0.0
C227 C 0.65406 0.76793 0.8134 0.0
C228 C 0.62572 0.76067 0.77648 0.0
H229 H 0.23553 0.95943 0.026 0.0
H230 H 0.18618 0.95619 0.79218 0.0
H231 H 0.26788 0.9484 0.9432 0.0
H232 H 0.21968 0.94895 0.7091 0.0
H233 H 0.24701 0.8851 0.59277 0.0
H234 H 0.22739 0.9135 0.65863 0.0
H235 H 0.30328 0.95493 0.8556 0.0
H236 H 0.32153 0.92396 0.79069 0.0
C237 C 0.23197 0.95681 0.95682 0.0
C238 C 0.20808 0.95806 0.91492 0.0
C239 C 0.25077 0.95097 0.9088 0.0
C240 C 0.24641 0.94704 0.81809 0.0
C241 C 0.2235 0.95045 0.77788 0.0
C242 C 0.20435 0.95512 0.82552 0.0
C243 C 0.26044 0.90159 0.6472 0.0
C244 C 0.28556 0.90203 0.68677 0.0
C245 C 0.24896 0.91792 0.68658 0.0
C246 C 0.26294 0.93607 0.76558 0.0
C247 C 0.29098 0.94029 0.79723 0.0
C248 C 0.30214 0.92331 0.75826 0.0
H249 H 0.38658 0.14957 0.25421 0.0
H250 H 0.41467 0.09615 0.11117 0.0
H251 H 0.33511 0.11558 0.19218 0.0
H252 H 0.36264 0.06138 0.05034 0.0
H253 H 0.24367 0.02376 0.06235 0.0
H254 H 0.293 0.03373 0.12015 0.0
H255 H 0.33416 0.11072 0.98371 0.0
H256 H 0.28507 0.10034 0.92416 0.0
C257 C 0.38142 0.12916 0.21519 0.0
C258 C 0.40457 0.12559 0.18687 0.0
C259 C 0.352 0.11 0.17832 0.0
C260 C 0.34524 0.08629 0.11552 0.0
C261 C 0.36752 0.07969 0.09831 0.0
C262 C 0.39717 0.09925 0.13448 0.0
C263 C 0.26314 0.04125 0.03883 0.0
C264 C 0.26053 0.06143 -0.01071 0.0
C265 C 0.29142 0.04734 0.07365 0.0
C266 C 0.31709 0.07328 0.05761 0.0
C267 C 0.31456 0.09054 -0.00315 0.0
C268 C 0.28642 0.08429 0.96162 0.0
H269 H 0.90574 0.33769 0.1971 0.0
H270 H 0.85835 0.24858 0.26947 0.0
H271 H 0.94718 0.32997 0.16407 0.0
H272 H 0.89915 0.24087 0.23591 0.0
H273 H 0.93113 0.22495 0.98202 0.0
H274 H 0.91439 0.25855 0.0352 0.0
H275 H 0.97816 0.28806 0.26056 0.0
H276 H 0.995 0.25422 0.20683 0.0
C277 C 0.90501 0.31726 0.21111 0.0
C278 C 0.87904 0.29385 0.23694 0.0
C279 C 0.92849 0.31271 0.19106 0.0
C280 C 0.92611 0.28479 0.19702 0.0
C281 C 0.90164 0.26272 0.23183 0.0
C282 C 0.87841 0.26725 0.25188 0.0
C283 C 0.94339 0.24045 0.03923 0.0
C284 C 0.96432 0.23695 0.09017 0.0
C285 C 0.93347 0.25939 0.07043 0.0
C286 C 0.94488 0.27566 0.15219 0.0
C287 C 0.96916 0.27583 0.19716 0.0
C288 C 0.97911 0.25679 0.16564 0.0
H289 H 0.79004 0.76957 0.22598 0.0
H290 H 0.78063 0.71524 -0.00624 0.0
H291 H 0.75918 0.7247 0.29241 0.0
H292 H 0.74887 0.66993 0.0592 0.0
H293 H 0.68802 0.59175 0.18193 0.0
H294 H 0.70102 0.63906 0.12677 0.0
H295 H 0.77126 0.68658 0.33699 0.0
H296 H 0.75839 0.63944 0.3908 0.0
C297 C 0.78024 0.74793 0.18803 0.0
C298 C 0.78714 0.74576 0.10432 0.0
C299 C 0.76278 0.72224 0.22628 0.0
C300 C 0.75138 0.69371 0.18111 0.0
C301 C 0.7569 0.69159 0.09533 0.0
C302 C 0.77505 0.71743 0.05768 0.0
C303 C 0.70484 0.6125 0.21949 0.0
C304 C 0.72204 0.61195 0.2912 0.0
C305 C 0.7128 0.63955 0.18666 0.0
C306 C 0.73761 0.6665 0.22632 0.0
C307 C 0.75198 0.66629 0.3048 0.0
C308 C 0.74428 0.63926 0.33674 0.0
H309 H 0.09176 0.45109 0.5705 0.0
H310 H 0.04989 0.48342 0.7397 0.0
H311 H 0.04269 0.41436 0.49391 0.0
H312 H 0.0015 0.44823 0.6631 0.0
H313 H 0.91589 0.39057 0.51581 0.0
H314 H 0.96035 0.40381 0.61087 0.0
H315 H 0.00974 0.41874 0.39239 0.0
H316 H 0.96352 0.40228 0.29711 0.0
C317 C 0.07193 0.44917 0.59447 0.0
C318 C 0.07461 0.47 0.66154 0.0
C319 C 0.0438 0.42868 0.54902 0.0
C320 C 0.01788 0.42868 0.56997 0.0
C321 C 0.02052 0.44705 0.64421 0.0
C322 C 0.04846 0.46726 0.68943 0.0
C323 C 0.93584 0.3949 0.48823 0.0
C324 C 0.93597 0.39433 0.39945 0.0
C325 C 0.96173 0.40338 0.54276 0.0
C326 C 0.98917 0.41298 0.5103 0.0
C327 C 0.9891 0.4112 0.42035 0.0
C328 C 0.96269 0.40193 0.36535 0.0
H329 H 0.54787 0.59162 0.72347 0.0
H330 H 0.55805 0.65516 0.54866 0.0
H331 H 0.57609 0.57542 0.63742 0.0
H332 H 0.58489 0.63809 0.46085 0.0
H333 H 0.58362 0.55757 0.28152 0.0
H334 H 0.56601 0.58481 0.37136 0.0
H335 H 0.62996 0.59712 0.58182 0.0
H336 H 0.6484 0.57116 0.49083 0.0
C337 C 0.55689 0.60271 0.66819 0.0
C338 C 0.55151 0.6253 0.64447 0.0
C339 C 0.57284 0.59332 0.6185 0.0
C340 C 0.58274 0.60548 0.54215 0.0
C341 C 0.57772 0.62838 0.51933 0.0
C342 C 0.56269 0.63843 0.5704 0.0
C343 C 0.59485 0.5674 0.3456 0.0
C344 C 0.61809 0.56312 0.37802 0.0
C345 C 0.58457 0.58268 0.39747 0.0
C346 C 0.59649 0.59299 0.484 0.0
C347 C 0.62034 0.58949 0.51557 0.0
C348 C 0.63124 0.57508 0.46294 0.0
H349 H 0.4308 0.09079 0.37745 0.0
H350 H 0.46906 0.04543 0.24341 0.0
H351 H 0.40507 0.04813 0.45836 0.0
H352 H 0.44487 0.00379 0.32502 0.0
H353 H 0.39263 0.92463 0.45132 0.0
H354 H 0.40438 0.9627 0.35784 0.0
H355 H 0.41316 0.02453 0.5717 0.0
H356 H 0.3994 0.98479 0.66538 0.0
C357 C 0.43273 0.07119 0.36268 0.0
C358 C 0.45156 0.07132 0.30249 0.0
C359 C 0.41856 0.04694 0.41073 0.0
C360 C 0.42278 0.02215 0.39969 0.0
C361 C 0.44025 0.02181 0.33547 0.0
C362 C 0.45424 0.04584 0.28778 0.0
C363 C 0.39639 0.94612 0.47838 0.0
C364 C 0.395 0.95155 0.56597 0.0
C365 C 0.40368 0.96836 0.42461 0.0
C366 C 0.41066 0.99739 0.45649 0.0
C367 C 0.40796 0.00258 0.54395 0.0
C368 C 0.40016 0.97986 0.59813 0.0
H369 H 0.16757 0.12244 0.02394 0.0
H370 H 0.09149 0.03269 0.00878 0.0
H371 H 0.13691 0.14305 0.05863 0.0
H372 H 0.05981 0.05437 0.04103 0.0
H373 H 0.03391 0.13433 0.96775 0.0
H374 H 0.04678 0.09494 0.96391 0.0
H375 H 0.10835 0.14051 0.19326 0.0
H376 H 0.09601 0.18 0.19564 0.0
C377 C 0.14412 0.10687 0.02705 0.0
C378 C 0.13217 0.07566 0.01405 0.0
C379 C 0.12656 0.1189 0.04794 0.0
C380 C 0.09619 0.10034 0.05511 0.0
C381 C 0.08338 0.06911 0.03745 0.0
C382 C 0.10139 0.05677 0.01809 0.0
C383 C 0.04864 0.13479 0.0205 0.0
C384 C 0.06395 0.16008 0.08231 0.0
C385 C 0.05611 0.11229 0.018 0.0
C386 C 0.07891 0.11499 0.0774 0.0
C387 C 0.09075 0.13796 0.14649 0.0
C388 C 0.08352 0.16047 0.14841 0.0
H389 H 0.89945 0.95525 0.20713 0.0
H390 H 0.86489 0.93389 0.93988 0.0
H391 H 0.9312 0.00809 0.18566 0.0
H392 H 0.89663 0.98582 0.91752 0.0
H393 H 0.91323 0.08137 0.95122 0.0
H394 H 0.8925 0.02849 0.95959 0.0
H395 H 0.97272 0.04718 0.1162 0.0
H396 H 0.9933 0.10101 0.10978 0.0
C397 C 0.89938 0.96179 0.14359 0.0
C398 C 0.87998 0.94077 0.07508 0.0
C399 C 0.91753 0.9919 0.13104 0.0
C400 C 0.91624 0.00122 0.04994 0.0
C401 C 0.89792 0.97956 0.98093 0.0
C402 C 0.87992 0.94976 -0.00649 0.0
C403 C 0.92684 0.07421 0.98564 0.0
C404 C 0.95494 0.09531 0.02943 0.0
C405 C 0.91496 0.0438 -0.00964 0.0
C406 C 0.93094 0.03352 0.03863 0.0
C407 C 0.9598 0.05447 0.07904 0.0
C408 C 0.97179 0.08519 0.0742 0.0
H409 H 0.9178 0.86812 0.94442 0.0
H410 H 0.94238 0.89247 0.21638 0.0
H411 H 0.96849 0.90539 0.92077 0.0
H412 H 0.99258 0.93054 0.19379 0.0
H413 H 0.0824 0.94113 0.12108 0.0
H414 H 0.03232 0.92477 0.15701 0.0
H415 H 0.01189 0.9534 0.92428 0.0
H416 H 0.06216 0.96884 0.88779 0.0
C417 C 0.93363 0.88256 -0.00116 0.0
C418 C 0.92619 0.87754 0.08204 0.0
C419 C 0.96284 0.90394 0.98562 0.0
C420 C 0.98511 0.92068 0.05554 0.0
C421 C 0.97645 0.91765 0.13838 0.0
C422 C 0.94748 0.89614 0.1514 0.0
C423 C 0.06772 0.94541 0.08011 0.0
C424 C 0.07634 0.95682 0.00282 0.0
C425 C 0.03875 0.93581 0.10018 0.0
C426 C 0.01759 0.93734 0.04309 0.0
C427 C 0.02727 0.95138 0.9692 0.0
C428 C 0.05629 0.96083 0.94905 0.0
H429 H 0.77236 0.5095 0.35264 0.0
H430 H 0.68649 0.43927 0.22711 0.0
H431 H 0.79301 0.47735 0.33 0.0
H432 H 0.70756 0.40614 0.20667 0.0
H433 H 0.77502 0.36857 0.34004 0.0
H434 H 0.73896 0.38562 0.31869 0.0
H435 H 0.79987 0.45465 0.17829 0.0
H436 H 0.83566 0.43785 0.20014 0.0
C437 C 0.75765 0.48693 0.32125 0.0
C438 C 0.72774 0.4771 0.29125 0.0
C439 C 0.76964 0.46856 0.30776 0.0
C440 C 0.75211 0.43952 0.26477 0.0
C441 C 0.72161 0.42862 0.23918 0.0
C442 C 0.70951 0.44742 0.25177 0.0
C443 C 0.77977 0.38609 0.29984 0.0
C444 C 0.80807 0.40189 0.27143 0.0
C445 C 0.75922 0.396 0.2882 0.0
C446 C 0.7669 0.42178 0.24824 0.0
C447 C 0.79343 0.43479 0.20967 0.0
C448 C 0.81384 0.42498 0.22142 0.0
H449 H 0.64442 0.42749 0.34816 0.0
H450 H 0.57595 0.41525 0.15319 0.0
H451 H 0.62679 0.37372 0.32474 0.0
H452 H 0.55854 0.36195 0.12918 0.0
H453 H 0.50243 0.27987 0.26288 0.0
H454 H 0.53362 0.33256 0.25512 0.0
H455 H 0.60854 0.32067 0.21767 0.0
H456 H 0.57628 0.26616 0.22223 0.0
C457 C 0.62694 0.41369 0.29632 0.0
C458 C 0.61178 0.42562 0.2516 0.0
C459 C 0.61665 0.38281 0.28351 0.0
C460 C 0.59094 0.3635 0.22624 0.0
C461 C 0.57829 0.37619 0.1742 0.0
C462 C 0.58852 0.40685 0.18703 0.0
C463 C 0.52555 0.28809 0.25314 0.0
C464 C 0.5366 0.26837 0.24228 0.0
C465 C 0.54343 0.31851 0.24804 0.0
C466 C 0.57335 0.33076 0.23343 0.0
C467 C 0.58537 0.31171 0.22776 0.0
C468 C 0.56702 0.28061 0.23132 0.0
H469 H 0.58768 0.18497 0.11973 0.0
H470 H 0.5905 0.22805 0.36651 0.0
H471 H 0.64005 0.22301 0.11389 0.0
H472 H 0.64284 0.26545 0.36204 0.0
H473 H 0.73542 0.2653 0.37494 0.0
H474 H 0.68124 0.24384 0.36373 0.0
H475 H 0.68355 0.28438 0.1332 0.0
H476 H 0.73825 0.30677 0.14636 0.0
C477 C 0.59897 0.20364 0.17007 0.0
C478 C 0.58512 0.204 0.24288 0.0
C479 C 0.62897 0.2252 0.16724 0.0
C480 C 0.6454 0.24686 0.23807 0.0
C481 C 0.63055 0.24899 0.3067 0.0
C482 C 0.60054 0.22784 0.3087 0.0
C483 C 0.72442 0.27053 0.32392 0.0
C484 C 0.74082 0.28838 0.26321 0.0
C485 C 0.69353 0.25822 0.31716 0.0
C486 C 0.67842 0.26291 0.24825 0.0
C487 C 0.69484 0.28089 0.18745 0.0
C488 C 0.72598 0.29386 0.19546 0.0
H489 H 0.43724 0.7109 0.59464 0.0
H490 H 0.48683 0.7635 0.8336 0.0
H491 H 0.40656 0.73397 0.59682 0.0
H492 H 0.45537 0.78457 0.84201 0.0
H493 H 0.42746 0.85114 0.78947 0.0
H494 H 0.44331 0.81646 0.81786 0.0
H495 H 0.37842 0.75304 0.60961 0.0
H496 H 0.36467 0.78992 0.57907 0.0
C497 C 0.44102 0.72695 0.64867 0.0
C498 C 0.46481 0.73593 0.7127 0.0
C499 C 0.4233 0.74041 0.65074 0.0
C500 C 0.42854 0.76277 0.71811 0.0
C501 C 0.45083 0.76918 0.78589 0.0
C502 C 0.46892 0.75653 0.78222 0.0
C503 C 0.41577 0.82921 0.75234 0.0
C504 C 0.39471 0.82319 0.68286 0.0
C505 C 0.42511 0.80883 0.76769 0.0
C506 C 0.41346 0.78138 0.71406 0.0
C507 C 0.38946 0.77406 0.6507 0.0
C508 C 0.38065 0.79493 0.63437 0.0
H509 H 0.18229 0.62587 0.8077 0.0
H510 H 0.24307 0.60623 0.68409 0.0
H511 H 0.21121 0.67776 0.78136 0.0
H512 H 0.27239 0.65885 0.65776 0.0
H513 H 0.32414 0.76832 0.7004 0.0
H514 H 0.30348 0.71628 0.73114 0.0
H515 H 0.21519 0.69688 0.6356 0.0
H516 H 0.23551 0.74778 0.60276 0.0
C517 C 0.20236 0.63284 0.77696 0.0
C518 C 0.21027 0.61183 0.7478 0.0
C519 C 0.2188 0.66257 0.76117 0.0
C520 C 0.24374 0.67228 0.71592 0.0
C521 C 0.25324 0.65198 0.69268 0.0
C522 C 0.23658 0.62192 0.70833 0.0
C523 C 0.30051 0.75267 0.68348 0.0
C524 C 0.28159 0.7624 0.64911 0.0
C525 C 0.28864 0.72295 0.70181 0.0
C526 C 0.25763 0.70268 0.68749 0.0
C527 C 0.2391 0.71207 0.64899 0.0
C528 C 0.25088 0.74133 0.62963 0.0
H529 H 0.40372 0.62754 0.56805 0.0
H530 H 0.41916 0.61505 0.82912 0.0
H531 H 0.35252 0.61419 0.58746 0.0
H532 H 0.36787 0.60115 0.84904 0.0
H533 H 0.27482 0.57448 0.87581 0.0
H534 H 0.32645 0.60968 0.85475 0.0
H535 H 0.31007 0.56574 0.59773 0.0
H536 H 0.25841 0.5312 0.61908 0.0
C537 C 0.39654 0.62336 0.63095 0.0
C538 C 0.41556 0.62291 0.69768 0.0
C539 C 0.36702 0.61518 0.6417 0.0
C540 C 0.35572 0.60609 0.71939 0.0
C541 C 0.3757 0.60827 0.78847 0.0
C542 C 0.40527 0.61646 0.77751 0.0
C543 C 0.28191 0.57351 0.8133 0.0
C544 C 0.2625 0.55055 0.74835 0.0
C545 C 0.31167 0.59332 0.8017 0.0
C546 C 0.32276 0.59038 0.72503 0.0
C547 C 0.30243 0.56904 0.6574 0.0
C548 C 0.27263 0.5493 0.66911 0.0
H549 H 0.98875 0.21126 0.7651 0.0
H550 H 0.03256 0.15947 0.76097 0.0
H551 H 0.98706 0.20996 0.60951 0.0
H552 H 0.03296 0.15968 0.60803 0.0
H553 H 0.01073 0.14886 0.31963 0.0
H554 H 0.01043 0.14564 0.4719 0.0
H555 H 0.021 0.2339 0.51253 0.0
H556 H 0.01944 0.23591 0.35824 0.0
C557 C 0.99706 0.19876 0.7302 0.0
C558 C 0.01073 0.18541 0.77378 0.0
C559 C 0.99693 0.19869 0.64163 0.0
C560 C 0.01088 0.18565 0.59628 0.0
C561 C 0.02204 0.17 0.64002 0.0
C562 C 0.02173 0.16972 0.72779 0.0
C563 C 0.01399 0.16791 0.36189 0.0
C564 C 0.01513 0.19259 0.32837 0.0
C565 C 0.01363 0.16607 0.44925 0.0
C566 C 0.01471 0.18912 0.50471 0.0
C567 C 0.01893 0.21522 0.47139 0.0
C568 C 0.01894 0.21685 0.38354 0.0
H569 H 0.82382 0.80471 0.78023 0.0
H570 H 0.86747 0.901 0.8002 0.0
H571 H 0.82608 0.80255 0.62576 0.0
H572 H 0.86847 0.89904 0.64693 0.0
H573 H 0.88248 0.88542 0.36936 0.0
H574 H 0.886 0.88984 0.52476 0.0
H575 H 0.79977 0.80878 0.50797 0.0
H576 H 0.79734 0.80394 0.35228 0.0
C577 C 0.83454 0.82538 0.75169 0.0
C578 C 0.845 0.85296 0.80105 0.0
C579 C 0.83531 0.82419 0.66325 0.0
C580 C 0.84651 0.85057 0.62352 0.0
C581 C 0.8595 0.87827 0.67482 0.0
C582 C 0.85888 0.87942 0.76274 0.0
C583 C 0.86396 0.86918 0.39942 0.0
C584 C 0.83953 0.8446 0.35001 0.0
C585 C 0.866 0.87149 0.48832 0.0
C586 C 0.84348 0.84926 0.52907 0.0
C587 C 0.81797 0.82575 0.47875 0.0
C588 C 0.81616 0.8233 0.38976 0.0
H589 H 0.17166 0.96686 0.66804 0.0
H590 H 0.14778 0.03462 0.71516 0.0
H591 H 0.17392 0.97442 0.51885 0.0
H592 H 0.14794 0.04096 0.56313 0.0
H593 H 0.19036 0.07008 0.31854 0.0
H594 H 0.18175 0.06059 0.46329 0.0
H595 H 0.14386 0.96582 0.38749 0.0
H596 H 0.15378 0.97561 0.24019 0.0
C597 C 0.16695 0.98347 0.64626 0.0
C598 C 0.1598 0.00039 0.70288 0.0
C599 C 0.16763 0.98736 0.56025 0.0
C600 C 0.16054 0.00783 0.52854 0.0
C601 C 0.15373 0.02511 0.58567 0.0
C602 C 0.15376 0.02168 0.67258 0.0
C603 C 0.18038 0.04712 0.33216 0.0
C604 C 0.1737 0.02369 0.26814 0.0
C605 C 0.17493 0.04165 0.41547 0.0
C606 C 0.16245 0.01254 0.4374 0.0
C607 C 0.15419 0.98867 0.37275 0.0
C608 C 0.15977 0.9942 0.28852 0.0
H609 H 0.66545 0.47071 0.57028 0.0
H610 H 0.68841 0.56302 0.60514 0.0
H611 H 0.66339 0.46828 0.72159 0.0
H612 H 0.68936 0.562 0.75967 0.0
H613 H 0.65447 0.54596 0.01046 0.0
H614 H 0.65514 0.54471 0.8558 0.0
H615 H 0.68133 0.47757 0.85812 0.0
H616 H 0.67788 0.47731 0.00957 0.0
C617 C 0.67181 0.49102 0.61182 0.0
C618 C 0.67698 0.51695 0.57722 0.0
C619 C 0.67046 0.48969 0.69895 0.0
C620 C 0.67515 0.51467 0.75347 0.0
C621 C 0.6842 0.54188 0.71935 0.0
C622 C 0.68468 0.54288 0.63133 0.0
C623 C 0.65868 0.52986 0.97623 0.0
C624 C 0.66596 0.51158 0.02058 0.0
C625 C 0.6601 0.52978 0.88823 0.0
C626 C 0.66951 0.51191 0.84428 0.0
C627 C 0.67401 0.49169 0.88858 0.0
C628 C 0.67186 0.49131 0.97566 0.0
H629 H 0.55162 0.21145 0.55593 0.0
H630 H 0.45703 0.14864 0.5142 0.0
H631 H 0.55212 0.20732 0.70582 0.0
H632 H 0.45602 0.1465 0.66709 0.0
H633 H 0.46013 0.12292 0.92723 0.0
H634 H 0.46359 0.12629 0.77558 0.0
H635 H 0.54776 0.21017 0.83826 0.0
H636 H 0.5451 0.20432 0.98704 0.0
C637 C 0.53052 0.19801 0.58052 0.0
C638 C 0.50439 0.1803 0.52434 0.0
C639 C 0.53064 0.19528 0.6674 0.0
C640 C 0.50427 0.17537 0.70081 0.0
C641 C 0.47726 0.16073 0.64476 0.0
C642 C 0.47743 0.1628 0.55701 0.0
C643 C 0.48009 0.14101 0.9072 0.0
C644 C 0.50242 0.16335 0.96786 0.0
C645 C 0.48166 0.14376 0.82009 0.0
C646 C 0.50511 0.16952 0.79236 0.0
C647 C 0.52898 0.19005 0.85421 0.0
C648 C 0.52776 0.1867 0.94072 0.0
H649 H 0.88858 0.35996 0.60232 0.0
H650 H 0.79318 0.32034 0.55698 0.0
H651 H 0.88727 0.36298 0.7521 0.0
H652 H 0.79029 0.31843 0.7093 0.0
H653 H 0.78868 0.33962 0.9827 0.0
H654 H 0.79289 0.3412 0.8315 0.0
H655 H 0.88378 0.35856 0.88184 0.0
H656 H 0.87988 0.36057 0.03164 0.0
C657 C 0.86704 0.35089 0.62525 0.0
C658 C 0.84122 0.34117 0.5689 0.0
C659 C 0.86602 0.35236 0.71277 0.0
C660 C 0.8387 0.34265 0.74649 0.0
C661 C 0.81217 0.3284 0.68811 0.0
C662 C 0.8135 0.32831 0.59995 0.0
C663 C 0.80985 0.34508 0.96033 0.0
C664 C 0.83391 0.34976 0.01758 0.0
C665 C 0.81212 0.34494 0.87295 0.0
C666 C 0.83801 0.34791 0.84078 0.0
C667 C 0.86303 0.35556 0.90054 0.0
C668 C 0.8611 0.35706 0.98799 0.0
H669 H 0.33152 0.8919 0.36751 0.0
H670 H 0.33407 0.8102 0.35457 0.0
H671 H 0.33226 0.89147 0.21321 0.0
H672 H 0.3376 0.81069 0.20329 0.0
H673 H 0.32519 0.80902 0.91776 0.0
H674 H 0.32122 0.80598 0.06782 0.0
H675 H 0.36548 0.90273 0.11483 0.0
H676 H 0.36639 0.90499 0.96079 0.0
C677 C 0.33091 0.87316 0.33058 0.0
C678 C 0.33227 0.8508 0.37161 0.0
C679 C 0.33248 0.87341 0.2427 0.0
C680 C 0.33618 0.85168 0.19527 0.0
C681 C 0.33468 0.82785 0.23624 0.0
C682 C 0.33232 0.82725 0.32328 0.0
C683 C 0.33491 0.82968 0.96079 0.0
C684 C 0.34581 0.85716 0.92835 0.0
C685 C 0.33257 0.82802 0.04743 0.0
C686 C 0.34213 0.85404 0.10438 0.0
C687 C 0.35657 0.88204 0.07268 0.0
C688 C 0.35808 0.88356 0.98485 0.0
H689 H 0.12933 0.46986 0.0104 0.0
H690 H 0.20557 0.55874 0.0249 0.0
H691 H 0.13255 0.47426 0.16602 0.0
H692 H 0.21106 0.56254 0.17916 0.0
H693 H 0.1999 0.56906 0.4593 0.0
H694 H 0.19793 0.56775 0.30646 0.0
H695 H 0.15997 0.47154 0.28127 0.0
H696 H 0.15956 0.47309 0.43631 0.0
C697 C 0.14614 0.49073 0.04748 0.0
C698 C 0.16695 0.51421 0.00699 0.0
C699 C 0.1487 0.49296 0.13652 0.0
C700 C 0.17275 0.51833 0.18602 0.0
C701 C 0.19211 0.54266 0.14431 0.0
C702 C 0.18891 0.54072 0.05558 0.0
C703 C 0.19177 0.54772 0.42088 0.0
C704 C 0.17927 0.52115 0.45851 0.0
C705 C 0.19064 0.54688 0.33276 0.0
C706 C 0.17777 0.51939 0.2803 0.0
C707 C 0.16873 0.49302 0.31927 0.0
C708 C 0.16923 0.49386 0.40811 0.0
H709 H 0.50686 0.70941 0.43923 0.0
H710 H 0.50168 0.62427 0.38215 0.0
H711 H 0.50731 0.71546 0.28711 0.0
H712 H 0.49909 0.62858 0.23229 0.0
H713 H 0.51928 0.65341 0.96852 0.0
H714 H 0.52107 0.64808 0.11923 0.0
H715 H 0.47765 0.69993 0.15857 0.0
H716 H 0.47849 0.70731 0.00816 0.0
C717 C 0.50594 0.69212 0.39432 0.0
C718 C 0.50364 0.66616 0.42233 0.0
C719 C 0.50559 0.69521 0.30689 0.0
C720 C 0.50256 0.6722 0.2462 0.0
C721 C 0.50172 0.64701 0.27579 0.0
C722 C 0.50279 0.64431 0.36244 0.0
C723 C 0.50976 0.66327 0.00938 0.0
C724 C 0.49921 0.68113 0.9774 0.0
C725 C 0.51068 0.66023 0.09628 0.0
C726 C 0.50006 0.67412 0.1526 0.0
C727 C 0.4872 0.68995 0.11847 0.0
C728 C 0.48716 0.69375 0.03196 0.0
loop_
_geom_bond_atom_site_label_1
_geom_bond_atom_site_label_2
_geom_bond_distance
_geom_bond_site_symmetry_2
_ccdc_geom_bond_type
O0 Mn1 2.163 . S
O0 C14 1.244 . S
Mn1 O0 2.163 . S
Mn1 O4 2.160 1_454 S
Mn1 O5 2.221 . S
Mn1 O7 2.163 . S
Mn1 O9 2.160 1_455 S
Mn1 O19 2.221 1_455 S
O2 Mn3 2.087 . S
O2 C14 1.256 1_655 S
Mn3 O2 2.087 . S
Mn3 O10 2.089 . S
Mn3 O19 2.290 . S
Mn3 O20 2.251 . S
O4 Mn1 2.160 1_656 S
O4 C15 1.239 1_655 S
O5 Mn1 2.221 . S
O5 Mn6 2.290 1_554 S
O5 C16 1.278 . S
Mn6 O5 2.290 1_556 S
Mn6 O8 2.089 . S
Mn6 O11 2.251 1_556 S
Mn6 O12 2.087 1_556 S
O7 Mn1 2.163 . S
O7 C17 1.244 . S
O8 Mn6 2.089 . S
O8 C15 1.256 . S
O9 Mn1 2.160 1_655 S
O9 C18 1.239 . S
O10 Mn3 2.089 . S
O10 C18 1.256 . S
O11 Mn6 2.251 1_554 S
O11 C16 1.241 . S
O12 Mn6 2.087 1_554 S
O12 C17 1.256 . S
C13 O19 1.278 . S
C13 O20 1.241 . S
C14 O0 1.244 . S
C14 O2 1.256 1_455 S
C15 O4 1.239 1_455 S
C15 O8 1.256 . S
C16 O5 1.278 . S
C16 O11 1.241 . S
C17 O7 1.244 . S
C17 O12 1.256 . S
C18 O9 1.239 . S
C18 O10 1.256 . S
O19 Mn1 2.221 1_655 S
O19 Mn3 2.290 . S
O19 C13 1.278 . S
O20 Mn3 2.251 . S
O20 C13 1.241 . S
O21 Mn22 2.163 1_556 S
O21 C35 1.244 . S
Mn22 O21 2.163 1_554 S
Mn22 O25 2.160 . S
Mn22 O26 2.221 . S
Mn22 O28 2.163 . S
Mn22 O30 2.160 . S
Mn22 O40 2.221 . S
O23 Mn24 2.087 . S
O23 C35 1.256 . S
Mn24 O23 2.087 . S
Mn24 O31 2.089 . S
Mn24 O40 2.290 1_556 S
Mn24 O41 2.251 . S
O25 Mn22 2.160 . S
O25 C36 1.239 . S
O26 Mn22 2.221 . S
O26 Mn27 2.290 . S
O26 C37 1.278 . S
Mn27 O26 2.290 . S
Mn27 O29 2.089 . S
Mn27 O32 2.251 . S
Mn27 O33 2.087 . S
O28 Mn22 2.163 . S
O28 C38 1.244 . S
O29 Mn27 2.089 . S
O29 C36 1.256 . S
O30 Mn22 2.160 . S
O30 C39 1.239 . S
O31 Mn24 2.089 . S
O31 C39 1.256 1_556 S
O32 Mn27 2.251 . S
O32 C37 1.241 . S
O33 Mn27 2.087 . S
O33 C38 1.256 . S
C34 O40 1.278 . S
C34 O41 1.241 1_554 S
C35 O21 1.244 . S
C35 O23 1.256 . S
C36 O25 1.239 . S
C36 O29 1.256 . S
C37 O26 1.278 . S
C37 O32 1.241 . S
C38 O28 1.244 . S
C38 O33 1.256 . S
C39 O30 1.239 . S
C39 O31 1.256 1_554 S
O40 Mn22 2.221 . S
O40 Mn24 2.290 1_554 S
O40 C34 1.278 . S
O41 Mn24 2.251 . S
O41 C34 1.241 1_556 S
O42 Mn43 2.163 1_554 S
O42 C56 1.244 . S
Mn43 O42 2.163 1_556 S
Mn43 O46 2.160 . S
Mn43 O47 2.221 1_545 S
Mn43 O49 2.163 1_545 S
Mn43 O51 2.159 1_556 S
Mn43 O61 2.221 1_556 S
O44 Mn45 2.087 . S
O44 C56 1.256 . S
Mn45 O44 2.087 . S
Mn45 O52 2.089 . S
Mn45 O61 2.290 . S
Mn45 O62 2.251 . S
O46 Mn43 2.160 . S
O46 C57 1.239 . S
O47 Mn43 2.221 1_565 S
O47 Mn48 2.290 . S
O47 C58 1.278 . S
Mn48 O47 2.290 . S
Mn48 O50 2.089 . S
Mn48 O53 2.251 . S
Mn48 O54 2.087 . S
O49 Mn43 2.163 1_565 S
O49 C59 1.244 . S
O50 Mn48 2.089 . S
O50 C57 1.256 1_565 S
O51 Mn43 2.159 1_554 S
O51 C60 1.245 . S
O52 Mn45 2.089 . S
O52 C60 1.256 . S
O53 Mn48 2.251 . S
O53 C58 1.241 . S
O54 Mn48 2.087 . S
O54 C59 1.256 . S
C55 O61 1.278 . S
C55 O62 1.241 . S
C56 O42 1.244 . S
C56 O44 1.256 . S
C57 O46 1.239 . S
C57 O50 1.256 1_545 S
C58 O47 1.278 . S
C58 O53 1.241 . S
C59 O49 1.244 . S
C59 O54 1.256 . S
C60 O51 1.245 . S
C60 O52 1.256 . S
O61 Mn43 2.221 1_554 S
O61 Mn45 2.290 . S
O61 C55 1.278 . S
O62 Mn45 2.251 . S
O62 C55 1.241 . S
O63 Mn64 2.163 . S
O63 C77 1.244 . S
Mn64 O63 2.163 . S
Mn64 O67 2.160 . S
Mn64 O68 2.221 . S
Mn64 O70 2.163 . S
Mn64 O72 2.160 . S
Mn64 O82 2.221 . S
O65 Mn66 2.087 . S
O65 C77 1.256 . S
Mn66 O65 2.087 . S
Mn66 O73 2.089 . S
Mn66 O82 2.290 . S
Mn66 O83 2.251 . S
O67 Mn64 2.160 . S
O67 C78 1.239 . S
O68 Mn64 2.221 . S
O68 Mn69 2.290 . S
O68 C79 1.278 . S
Mn69 O68 2.290 . S
Mn69 O71 2.089 . S
Mn69 O74 2.251 . S
Mn69 O75 2.087 . S
O70 Mn64 2.163 . S
O70 C80 1.244 . S
O71 Mn69 2.089 . S
O71 C78 1.256 . S
O72 Mn64 2.160 . S
O72 C81 1.239 . S
O73 Mn66 2.089 . S
O73 C81 1.256 . S
O74 Mn69 2.251 . S
O74 C79 1.241 . S
O75 Mn69 2.087 . S
O75 C80 1.256 . S
C76 O82 1.278 . S
C76 O83 1.241 . S
C77 O63 1.244 . S
C77 O65 1.256 . S
C78 O67 1.239 . S
C78 O71 1.256 . S
C79 O68 1.278 . S
C79 O74 1.241 . S
C80 O70 1.244 . S
C80 O75 1.256 . S
C81 O72 1.239 . S
C81 O73 1.256 . S
O82 Mn64 2.221 . S
O82 Mn66 2.290 . S
O82 C76 1.278 . S
O83 Mn66 2.251 . S
O83 C76 1.241 . S
O84 Mn85 2.163 . S
O84 C98 1.244 . S
Mn85 O84 2.163 . S
Mn85 O88 2.160 . S
Mn85 O89 2.221 . S
Mn85 O91 2.163 . S
Mn85 O93 2.160 . S
Mn85 O103 2.221 . S
O86 Mn87 2.087 . S
O86 C98 1.256 . S
Mn87 O86 2.087 . S
Mn87 O94 2.089 . S
Mn87 O103 2.290 . S
Mn87 O104 2.251 . S
O88 Mn85 2.160 . S
O88 C99 1.239 . S
O89 Mn85 2.221 . S
O89 Mn90 2.290 . S
O89 C100 1.278 . S
Mn90 O89 2.290 . S
Mn90 O92 2.089 . S
Mn90 O95 2.251 . S
Mn90 O96 2.087 . S
O91 Mn85 2.163 . S
O91 C101 1.244 . S
O92 Mn90 2.089 . S
O92 C99 1.256 . S
O93 Mn85 2.160 . S
O93 C102 1.239 . S
O94 Mn87 2.089 . S
O94 C102 1.256 . S
O95 Mn90 2.251 . S
O95 C100 1.241 . S
O96 Mn90 2.087 . S
O96 C101 1.256 . S
C97 O103 1.278 . S
C97 O104 1.241 . S
C98 O84 1.244 . S
C98 O86 1.256 . S
C99 O88 1.239 . S
C99 O92 1.256 . S
C100 O89 1.278 . S
C100 O95 1.241 . S
C101 O91 1.244 . S
C101 O96 1.256 . S
C102 O93 1.239 . S
C102 O94 1.256 . S
O103 Mn85 2.221 . S
O103 Mn87 2.290 . S
O103 C97 1.278 . S
O104 Mn87 2.251 . S
O104 C97 1.241 . S
O105 Mn106 2.163 . S
O105 C119 1.244 . S
Mn106 O105 2.163 . S
Mn106 O109 2.160 . S
Mn106 O110 2.221 . S
Mn106 O112 2.163 . S
Mn106 O114 2.160 . S
Mn106 O124 2.221 . S
O107 Mn108 2.087 . S
O107 C119 1.256 . S
Mn108 O107 2.087 . S
Mn108 O115 2.089 . S
Mn108 O124 2.290 . S
Mn108 O125 2.251 . S
O109 Mn106 2.160 . S
O109 C120 1.239 . S
O110 Mn106 2.221 . S
O110 Mn111 2.290 . S
O110 C121 1.278 . S
Mn111 O110 2.290 . S
Mn111 O113 2.089 . S
Mn111 O116 2.251 . S
Mn111 O117 2.087 . S
O112 Mn106 2.163 . S
O112 C122 1.244 . S
O113 Mn111 2.089 . S
O113 C120 1.256 . S
O114 Mn106 2.160 . S
O114 C123 1.239 . S
O115 Mn108 2.089 . S
O115 C123 1.256 . S
O116 Mn111 2.251 . S
O116 C121 1.241 . S
O117 Mn111 2.087 . S
O117 C122 1.256 . S
C118 O124 1.278 . S
C118 O125 1.241 . S
C119 O105 1.244 . S
C119 O107 1.256 . S
C120 O109 1.239 . S
C120 O113 1.256 . S
C121 O110 1.278 . S
C121 O116 1.241 . S
C122 O112 1.244 . S
C122 O117 1.256 . S
C123 O114 1.239 . S
C123 O115 1.256 . S
O124 Mn106 2.221 . S
O124 Mn108 2.290 . S
O124 C118 1.278 . S
O125 Mn108 2.251 . S
O125 C118 1.241 . S
O126 Mn127 2.163 . S
O126 C140 1.244 . S
Mn127 O126 2.163 . S
Mn127 O130 2.160 . S
Mn127 O131 2.221 . S
Mn127 O133 2.163 . S
Mn127 O135 2.160 . S
Mn127 O145 2.221 . S
O128 Mn129 2.087 . S
O128 C140 1.256 . S
Mn129 O128 2.087 . S
Mn129 O136 2.089 . S
Mn129 O145 2.290 . S
Mn129 O146 2.251 . S
O130 Mn127 2.160 . S
O130 C141 1.239 . S
O131 Mn127 2.221 . S
O131 Mn132 2.290 . S
O131 C142 1.278 . S
Mn132 O131 2.290 . S
Mn132 O134 2.089 . S
Mn132 O137 2.251 . S
Mn132 O138 2.087 . S
O133 Mn127 2.163 . S
O133 C143 1.244 . S
O134 Mn132 2.089 . S
O134 C141 1.256 . S
O135 Mn127 2.160 . S
O135 C144 1.239 . S
O136 Mn129 2.089 . S
O136 C144 1.256 . S
O137 Mn132 2.251 . S
O137 C142 1.241 . S
O138 Mn132 2.087 . S
O138 C143 1.256 . S
C139 O145 1.278 . S
C139 O146 1.241 . S
C140 O126 1.244 . S
C140 O128 1.256 . S
C141 O130 1.239 . S
C141 O134 1.256 . S
C142 O131 1.278 . S
C142 O137 1.241 . S
C143 O133 1.244 . S
C143 O138 1.256 . S
C144 O135 1.239 . S
C144 O136 1.256 . S
O145 Mn127 2.221 . S
O145 Mn129 2.290 . S
O145 C139 1.278 . S
O146 Mn129 2.251 . S
O146 C139 1.241 . S
O147 Mn148 2.163 . S
O147 C161 1.244 . S
Mn148 O147 2.163 . S
Mn148 O151 2.160 . S
Mn148 O152 2.221 . S
Mn148 O154 2.163 . S
Mn148 O156 2.160 . S
Mn148 O166 2.221 . S
O149 Mn150 2.087 . S
O149 C161 1.256 . S
Mn150 O149 2.087 . S
Mn150 O157 2.089 . S
Mn150 O166 2.290 . S
Mn150 O167 2.251 . S
O151 Mn148 2.160 . S
O151 C162 1.239 . S
O152 Mn148 2.221 . S
O152 Mn153 2.290 . S
O152 C163 1.278 . S
Mn153 O152 2.290 . S
Mn153 O155 2.089 . S
Mn153 O158 2.251 . S
Mn153 O159 2.087 . S
O154 Mn148 2.163 . S
O154 C164 1.244 . S
O155 Mn153 2.089 . S
O155 C162 1.256 . S
O156 Mn148 2.160 . S
O156 C165 1.239 . S
O157 Mn150 2.089 . S
O157 C165 1.256 . S
O158 Mn153 2.251 . S
O158 C163 1.241 . S
O159 Mn153 2.087 . S
O159 C164 1.256 . S
C160 O166 1.278 . S
C160 O167 1.241 . S
C161 O147 1.244 . S
C161 O149 1.256 . S
C162 O151 1.239 . S
C162 O155 1.256 . S
C163 O152 1.278 . S
C163 O158 1.241 . S
C164 O154 1.244 . S
C164 O159 1.256 . S
C165 O156 1.239 . S
C165 O157 1.256 . S
O166 Mn148 2.221 . S
O166 Mn150 2.290 . S
O166 C160 1.278 . S
O167 Mn150 2.251 . S
O167 C160 1.241 . S
O168 Mn169 2.163 . S
O168 C182 1.244 . S
Mn169 O168 2.163 . S
Mn169 O172 2.160 . S
Mn169 O173 2.221 . S
Mn169 O175 2.163 . S
Mn169 O177 2.160 . S
Mn169 O187 2.221 . S
O170 Mn171 2.087 . S
O170 C182 1.256 . S
Mn171 O170 2.087 . S
Mn171 O178 2.089 . S
Mn171 O187 2.290 . S
Mn171 O188 2.251 . S
O172 Mn169 2.160 . S
O172 C183 1.239 . S
O173 Mn169 2.221 . S
O173 Mn174 2.290 . S
O173 C184 1.278 . S
Mn174 O173 2.290 . S
Mn174 O176 2.089 . S
Mn174 O179 2.251 . S
Mn174 O180 2.087 . S
O175 Mn169 2.163 . S
O175 C185 1.244 . S
O176 Mn174 2.089 . S
O176 C183 1.256 . S
O177 Mn169 2.160 . S
O177 C186 1.239 . S
O178 Mn171 2.089 . S
O178 C186 1.256 . S
O179 Mn174 2.251 . S
O179 C184 1.241 . S
O180 Mn174 2.087 . S
O180 C185 1.256 . S
C181 O187 1.278 . S
C181 O188 1.241 . S
C182 O168 1.244 . S
C182 O170 1.256 . S
C183 O172 1.239 . S
C183 O176 1.256 . S
C184 O173 1.278 . S
C184 O179 1.241 . S
C185 O175 1.244 . S
C185 O180 1.256 . S
C186 O177 1.239 . S
C186 O178 1.256 . S
O187 Mn169 2.221 . S
O187 Mn171 2.290 . S
O187 C181 1.278 . S
O188 Mn171 2.251 . S
O188 C181 1.241 . S
H189 C197 0.950 . S
H190 C202 0.950 . S
H191 C199 0.950 . S
H192 C201 0.950 . S
H193 C203 0.950 . S
H194 C205 0.950 . S
H195 C207 0.950 . S
H196 C208 0.950 . S
C197 H189 0.950 . S
C197 C198 1.386 1_556 S
C197 C199 1.391 . S
C198 C197 1.386 1_554 S
C198 C202 1.393 . S
C199 H191 0.950 . S
C199 C197 1.391 . S
C199 C200 1.400 . S
C200 C199 1.400 . S
C200 C201 1.398 1_556 S
C200 C206 1.491 . S
C201 H192 0.950 . S
C201 C200 1.398 1_554 S
C201 C202 1.391 . S
C202 H190 0.950 . S
C202 C198 1.393 . S
C202 C201 1.391 . S
C203 H193 0.950 . S
C203 C204 1.386 . S
C203 C205 1.391 . S
C204 C203 1.386 . S
C204 C208 1.393 . S
C205 H194 0.950 . S
C205 C203 1.391 . S
C205 C206 1.400 . S
C206 C200 1.491 . S
C206 C205 1.400 . S
C206 C207 1.398 . S
C207 H195 0.950 . S
C207 C206 1.398 . S
C207 C208 1.391 . S
C208 H196 0.950 . S
C208 C204 1.393 . S
C208 C207 1.391 . S
H209 C217 0.950 . S
H210 C222 0.950 . S
H211 C219 0.950 1_554 S
H212 C221 0.950 . S
H213 C223 0.950 . S
H214 C225 0.950 . S
H215 C227 0.950 . S
H216 C228 0.950 . S
C217 H209 0.950 . S
C217 C218 1.386 . S
C217 C219 1.391 1_554 S
C218 C217 1.386 . S
C218 C222 1.393 1_554 S
C219 H211 0.950 1_556 S
C219 C217 1.391 1_556 S
C219 C220 1.400 . S
C220 C219 1.400 . S
C220 C221 1.398 . S
C220 C226 1.491 . S
C221 H212 0.950 . S
C221 C220 1.398 . S
C221 C222 1.391 . S
C222 H210 0.950 . S
C222 C218 1.393 1_556 S
C222 C221 1.391 . S
C223 H213 0.950 . S
C223 C224 1.386 . S
C223 C225 1.391 . S
C224 C223 1.386 . S
C224 C228 1.393 . S
C225 H214 0.950 . S
C225 C223 1.391 . S
C225 C226 1.400 . S
C226 C220 1.491 . S
C226 C225 1.400 . S
C226 C227 1.398 . S
C227 H215 0.950 . S
C227 C226 1.398 . S
C227 C228 1.391 . S
C228 H216 0.950 . S
C228 C224 1.393 . S
C228 C227 1.391 . S
H229 C237 0.950 1_554 S
H230 C242 0.950 . S
H231 C239 0.950 . S
H232 C241 0.950 . S
H233 C243 0.950 . S
H234 C245 0.950 . S
H235 C247 0.950 . S
H236 C248 0.950 . S
C237 H229 0.950 1_556 S
C237 C238 1.386 . S
C237 C239 1.391 . S
C238 C237 1.386 . S
C238 C242 1.393 . S
C239 H231 0.950 . S
C239 C237 1.391 . S
C239 C240 1.400 . S
C240 C239 1.400 . S
C240 C241 1.398 . S
C240 C246 1.491 . S
C241 H232 0.950 . S
C241 C240 1.398 . S
C241 C242 1.391 . S
C242 H230 0.950 . S
C242 C238 1.393 . S
C242 C241 1.391 . S
C243 H233 0.950 . S
C243 C244 1.386 . S
C243 C245 1.391 . S
C244 C243 1.386 . S
C244 C248 1.393 . S
C245 H234 0.950 . S
C245 C243 1.391 . S
C245 C246 1.400 . S
C246 C240 1.491 . S
C246 C245 1.400 . S
C246 C247 1.398 . S
C247 H235 0.950 . S
C247 C246 1.398 . S
C247 C248 1.391 . S
C248 H236 0.950 . S
C248 C244 1.393 . S
C248 C247 1.391 . S
H249 C257 0.950 . S
H250 C262 0.950 . S
H251 C259 0.950 . S
H252 C261 0.950 . S
H253 C263 0.950 . S
H254 C265 0.950 . S
H255 C267 0.950 . S
H256 C268 0.950 . S
C257 H249 0.950 . S
C257 C258 1.386 . S
C257 C259 1.391 . S
C258 C257 1.386 . S
C258 C262 1.393 . S
C259 H251 0.950 . S
C259 C257 1.391 . S
C259 C260 1.400 . S
C260 C259 1.400 . S
C260 C261 1.398 . S
C260 C266 1.491 . S
C261 H252 0.950 . S
C261 C260 1.398 . S
C261 C262 1.391 . S
C262 H250 0.950 . S
C262 C258 1.393 . S
C262 C261 1.391 . S
C263 H253 0.950 . S
C263 C264 1.386 . S
C263 C265 1.391 . S
C264 C263 1.386 . S
C264 C268 1.393 . S
C265 H254 0.950 . S
C265 C263 1.391 . S
C265 C266 1.400 . S
C266 C260 1.491 . S
C266 C265 1.400 . S
C266 C267 1.398 . S
C267 H255 0.950 . S
C267 C266 1.398 . S
C267 C268 1.391 . S
C268 H256 0.950 . S
C268 C264 1.393 . S
C268 C267 1.391 . S
H269 C277 0.950 . S
H270 C282 0.950 . S
H271 C279 0.950 . S
H272 C281 0.950 . S
H273 C283 0.950 . S
H274 C285 0.950 . S
H275 C287 0.950 . S
H276 C288 0.950 . S
C277 H269 0.950 . S
C277 C278 1.386 . S
C277 C279 1.391 . S
C278 C277 1.386 . S
C278 C282 1.393 . S
C279 H271 0.950 . S
C279 C277 1.391 . S
C279 C280 1.400 . S
C280 C279 1.400 . S
C280 C281 1.398 . S
C280 C286 1.491 . S
C281 H272 0.950 . S
C281 C280 1.398 . S
C281 C282 1.391 . S
C282 H270 0.950 . S
C282 C278 1.393 . S
C282 C281 1.391 . S
C283 H273 0.950 . S
C283 C284 1.386 . S
C283 C285 1.391 . S
C284 C283 1.386 . S
C284 C288 1.393 . S
C285 H274 0.950 . S
C285 C283 1.391 . S
C285 C286 1.400 . S
C286 C280 1.491 . S
C286 C285 1.400 . S
C286 C287 1.398 . S
C287 H275 0.950 . S
C287 C286 1.398 . S
C287 C288 1.391 . S
C288 H276 0.950 . S
C288 C284 1.393 . S
C288 C287 1.391 . S
H289 C297 0.950 . S
H290 C302 0.950 . S
H291 C299 0.950 . S
H292 C301 0.950 . S
H293 C303 0.950 . S
H294 C305 0.950 . S
H295 C307 0.950 . S
H296 C308 0.950 . S
C297 H289 0.950 . S
C297 C298 1.386 . S
C297 C299 1.391 . S
C298 C297 1.386 . S
C298 C302 1.393 . S
C299 H291 0.950 . S
C299 C297 1.391 . S
C299 C300 1.400 . S
C300 C299 1.400 . S
C300 C301 1.398 . S
C300 C306 1.491 . S
C301 H292 0.950 . S
C301 C300 1.398 . S
C301 C302 1.391 . S
C302 H290 0.950 . S
C302 C298 1.393 . S
C302 C301 1.391 . S
C303 H293 0.950 . S
C303 C304 1.386 . S
C303 C305 1.391 . S
C304 C303 1.386 . S
C304 C308 1.393 . S
C305 H294 0.950 . S
C305 C303 1.391 . S
C305 C306 1.400 . S
C306 C300 1.491 . S
C306 C305 1.400 . S
C306 C307 1.398 . S
C307 H295 0.950 . S
C307 C306 1.398 . S
C307 C308 1.391 . S
C308 H296 0.950 . S
C308 C304 1.393 . S
C308 C307 1.391 . S
H309 C317 0.950 . S
H310 C322 0.950 . S
H311 C319 0.950 . S
H312 C321 0.950 . S
H313 C323 0.950 . S
H314 C325 0.950 . S
H315 C327 0.950 1_455 S
H316 C328 0.950 . S
C317 H309 0.950 . S
C317 C318 1.386 . S
C317 C319 1.391 . S
C318 C317 1.386 . S
C318 C322 1.393 . S
C319 H311 0.950 . S
C319 C317 1.391 . S
C319 C320 1.400 . S
C320 C319 1.400 . S
C320 C321 1.398 . S
C320 C326 1.491 1_455 S
C321 H312 0.950 . S
C321 C320 1.398 . S
C321 C322 1.391 . S
C322 H310 0.950 . S
C322 C318 1.393 . S
C322 C321 1.391 . S
C323 H313 0.950 . S
C323 C324 1.386 . S
C323 C325 1.391 . S
C324 C323 1.386 . S
C324 C328 1.393 . S
C325 H314 0.950 . S
C325 C323 1.391 . S
C325 C326 1.400 . S
C326 C320 1.491 1_655 S
C326 C325 1.400 . S
C326 C327 1.398 . S
C327 H315 0.950 1_655 S
C327 C326 1.398 . S
C327 C328 1.391 . S
C328 H316 0.950 . S
C328 C324 1.393 . S
C328 C327 1.391 . S
H329 C337 0.950 . S
H330 C342 0.950 . S
H331 C339 0.950 . S
H332 C341 0.950 . S
H333 C343 0.950 . S
H334 C345 0.950 . S
H335 C347 0.950 . S
H336 C348 0.950 . S
C337 H329 0.950 . S
C337 C338 1.386 . S
C337 C339 1.391 . S
C338 C337 1.386 . S
C338 C342 1.393 . S
C339 H331 0.950 . S
C339 C337 1.391 . S
C339 C340 1.400 . S
C340 C339 1.400 . S
C340 C341 1.398 . S
C340 C346 1.491 . S
C341 H332 0.950 . S
C341 C340 1.398 . S
C341 C342 1.391 . S
C342 H330 0.950 . S
C342 C338 1.393 . S
C342 C341 1.391 . S
C343 H333 0.950 . S
C343 C344 1.386 . S
C343 C345 1.391 . S
C344 C343 1.386 . S
C344 C348 1.393 . S
C345 H334 0.950 . S
C345 C343 1.391 . S
C345 C346 1.400 . S
C346 C340 1.491 . S
C346 C345 1.400 . S
C346 C347 1.398 . S
C347 H335 0.950 . S
C347 C346 1.398 . S
C347 C348 1.391 . S
C348 H336 0.950 . S
C348 C344 1.393 . S
C348 C347 1.391 . S
H349 C357 0.950 . S
H350 C362 0.950 . S
H351 C359 0.950 . S
H352 C361 0.950 . S
H353 C363 0.950 . S
H354 C365 0.950 . S
H355 C367 0.950 . S
H356 C368 0.950 . S
C357 H349 0.950 . S
C357 C358 1.386 . S
C357 C359 1.391 . S
C358 C357 1.386 . S
C358 C362 1.393 . S
C359 H351 0.950 . S
C359 C357 1.391 . S
C359 C360 1.400 . S
C360 C359 1.400 . S
C360 C361 1.398 . S
C360 C366 1.520 . S
C361 H352 0.950 . S
C361 C360 1.398 . S
C361 C362 1.391 . S
C362 H350 0.950 . S
C362 C358 1.393 . S
C362 C361 1.391 . S
C363 H353 0.950 . S
C363 C364 1.386 . S
C363 C365 1.391 . S
C364 C363 1.386 . S
C364 C368 1.393 . S
C365 H354 0.950 . S
C365 C363 1.391 . S
C365 C366 1.358 1_565 S
C366 C360 1.520 . S
C366 C365 1.358 1_545 S
C366 C367 1.410 . S
C367 H355 0.950 . S
C367 C366 1.410 . S
C367 C368 1.391 1_545 S
C368 H356 0.950 . S
C368 C364 1.393 . S
C368 C367 1.391 1_565 S
H369 C377 0.950 . S
H370 C382 0.950 1_556 S
H371 C379 0.950 . S
H372 C381 0.950 1_556 S
H373 C383 0.950 . S
H374 C385 0.950 . S
H375 C387 0.950 . S
H376 C388 0.950 . S
C377 H369 0.950 . S
C377 C378 1.386 . S
C377 C379 1.391 . S
C378 C377 1.386 . S
C378 C382 1.393 . S
C379 H371 0.950 . S
C379 C377 1.391 . S
C379 C380 1.400 . S
C380 C379 1.400 . S
C380 C381 1.398 . S
C380 C386 1.491 . S
C381 H372 0.950 1_554 S
C381 C380 1.398 . S
C381 C382 1.391 . S
C382 H370 0.950 1_554 S
C382 C378 1.393 . S
C382 C381 1.391 . S
C383 H373 0.950 . S
C383 C384 1.386 . S
C383 C385 1.391 . S
C384 C383 1.386 . S
C384 C388 1.393 . S
C385 H374 0.950 . S
C385 C383 1.391 . S
C385 C386 1.400 . S
C386 C380 1.491 . S
C386 C385 1.400 . S
C386 C387 1.398 . S
C387 H375 0.950 . S
C387 C386 1.398 . S
C387 C388 1.391 . S
C388 H376 0.950 . S
C388 C384 1.393 . S
C388 C387 1.391 . S
H389 C397 0.950 . S
H390 C402 0.950 1_556 S
H391 C399 0.950 . S
H392 C401 0.950 1_556 S
H393 C403 0.950 1_556 S
H394 C405 0.950 1_556 S
H395 C407 0.950 . S
H396 C408 0.950 . S
C397 H389 0.950 . S
C397 C398 1.386 . S
C397 C399 1.391 . S
C398 C397 1.386 . S
C398 C402 1.393 . S
C399 H391 0.950 . S
C399 C397 1.391 . S
C399 C400 1.400 1_565 S
C400 C399 1.400 1_545 S
C400 C401 1.398 1_545 S
C400 C406 1.491 . S
C401 H392 0.950 1_554 S
C401 C400 1.398 1_565 S
C401 C402 1.391 . S
C402 H390 0.950 1_554 S
C402 C398 1.393 . S
C402 C401 1.391 . S
C403 H393 0.950 1_554 S
C403 C404 1.386 . S
C403 C405 1.391 . S
C404 C403 1.386 . S
C404 C408 1.393 . S
C405 H394 0.950 1_554 S
C405 C403 1.391 . S
C405 C406 1.400 . S
C406 C400 1.491 . S
C406 C405 1.400 . S
C406 C407 1.398 . S
C407 H395 0.950 . S
C407 C406 1.398 . S
C407 C408 1.391 . S
C408 H396 0.950 . S
C408 C404 1.393 . S
C408 C407 1.391 . S
H409 C417 0.950 1_556 S
H410 C422 0.950 . S
H411 C419 0.950 . S
H412 C421 0.950 . S
H413 C423 0.950 . S
H414 C425 0.950 . S
H415 C427 0.950 . S
H416 C428 0.950 . S
C417 H409 0.950 1_554 S
C417 C418 1.386 . S
C417 C419 1.391 1_554 S
C418 C417 1.386 . S
C418 C422 1.393 . S
C419 H411 0.950 . S
C419 C417 1.391 1_556 S
C419 C420 1.400 1_556 S
C420 C419 1.400 1_554 S
C420 C421 1.398 . S
C420 C426 1.491 1_655 S
C421 H412 0.950 . S
C421 C420 1.398 . S
C421 C422 1.391 . S
C422 H410 0.950 . S
C422 C418 1.393 . S
C422 C421 1.391 . S
C423 H413 0.950 . S
C423 C424 1.386 . S
C423 C425 1.391 . S
C424 C423 1.386 . S
C424 C428 1.393 1_554 S
C425 H414 0.950 . S
C425 C423 1.391 . S
C425 C426 1.400 . S
C426 C420 1.491 1_455 S
C426 C425 1.400 . S
C426 C427 1.398 1_554 S
C427 H415 0.950 . S
C427 C426 1.398 1_556 S
C427 C428 1.391 . S
C428 H416 0.950 . S
C428 C424 1.393 1_556 S
C428 C427 1.391 . S
H429 C437 0.950 . S
H430 C442 0.950 . S
H431 C439 0.950 . S
H432 C441 0.950 . S
H433 C443 0.950 . S
H434 C445 0.950 . S
H435 C447 0.950 . S
H436 C448 0.950 . S
C437 H429 0.950 . S
C437 C438 1.386 . S
C437 C439 1.391 . S
C438 C437 1.386 . S
C438 C442 1.393 . S
C439 H431 0.950 . S
C439 C437 1.391 . S
C439 C440 1.400 . S
C440 C439 1.400 . S
C440 C441 1.398 . S
C440 C446 1.491 . S
C441 H432 0.950 . S
C441 C440 1.398 . S
C441 C442 1.391 . S
C442 H430 0.950 . S
C442 C438 1.393 . S
C442 C441 1.391 . S
C443 H433 0.950 . S
C443 C444 1.386 . S
C443 C445 1.391 . S
C444 C443 1.386 . S
C444 C448 1.393 . S
C445 H434 0.950 . S
C445 C443 1.391 . S
C445 C446 1.400 . S
C446 C440 1.491 . S
C446 C445 1.400 . S
C446 C447 1.398 . S
C447 H435 0.950 . S
C447 C446 1.398 . S
C447 C448 1.391 . S
C448 H436 0.950 . S
C448 C444 1.393 . S
C448 C447 1.391 . S
H449 C457 0.950 . S
H450 C462 0.950 . S
H451 C459 0.950 . S
H452 C461 0.950 . S
H453 C463 0.950 . S
H454 C465 0.950 . S
H455 C467 0.950 . S
H456 C468 0.950 . S
C457 H449 0.950 . S
C457 C458 1.386 . S
C457 C459 1.391 . S
C458 C457 1.386 . S
C458 C462 1.393 . S
C459 H451 0.950 . S
C459 C457 1.391 . S
C459 C460 1.400 . S
C460 C459 1.400 . S
C460 C461 1.398 . S
C460 C466 1.491 . S
C461 H452 0.950 . S
C461 C460 1.398 . S
C461 C462 1.391 . S
C462 H450 0.950 . S
C462 C458 1.393 . S
C462 C461 1.391 . S
C463 H453 0.950 . S
C463 C464 1.386 . S
C463 C465 1.391 . S
C464 C463 1.386 . S
C464 C468 1.393 . S
C465 H454 0.950 . S
C465 C463 1.391 . S
C465 C466 1.400 . S
C466 C460 1.491 . S
C466 C465 1.400 . S
C466 C467 1.398 . S
C467 H455 0.950 . S
C467 C466 1.398 . S
C467 C468 1.391 . S
C468 H456 0.950 . S
C468 C464 1.393 . S
C468 C467 1.391 . S
H469 C477 0.950 . S
H470 C482 0.950 . S
H471 C479 0.950 . S
H472 C481 0.950 . S
H473 C483 0.950 . S
H474 C485 0.950 . S
H475 C487 0.950 . S
H476 C488 0.950 . S
C477 H469 0.950 . S
C477 C478 1.386 . S
C477 C479 1.391 . S
C478 C477 1.386 . S
C478 C482 1.393 . S
C479 H471 0.950 . S
C479 C477 1.391 . S
C479 C480 1.400 . S
C480 C479 1.400 . S
C480 C481 1.398 . S
C480 C486 1.491 . S
C481 H472 0.950 . S
C481 C480 1.398 . S
C481 C482 1.391 . S
C482 H470 0.950 . S
C482 C478 1.393 . S
C482 C481 1.391 . S
C483 H473 0.950 . S
C483 C484 1.386 . S
C483 C485 1.391 . S
C484 C483 1.386 . S
C484 C488 1.393 . S
C485 H474 0.950 . S
C485 C483 1.391 . S
C485 C486 1.400 . S
C486 C480 1.491 . S
C486 C485 1.400 . S
C486 C487 1.398 . S
C487 H475 0.950 . S
C487 C486 1.398 . S
C487 C488 1.391 . S
C488 H476 0.950 . S
C488 C484 1.393 . S
C488 C487 1.391 . S
H489 C497 0.950 . S
H490 C502 0.950 . S
H491 C499 0.950 . S
H492 C501 0.950 . S
H493 C503 0.950 . S
H494 C505 0.950 . S
H495 C507 0.950 . S
H496 C508 0.950 . S
C497 H489 0.950 . S
C497 C498 1.386 . S
C497 C499 1.391 . S
C498 C497 1.386 . S
C498 C502 1.393 . S
C499 H491 0.950 . S
C499 C497 1.391 . S
C499 C500 1.400 . S
C500 C499 1.400 . S
C500 C501 1.398 . S
C500 C506 1.491 . S
C501 H492 0.950 . S
C501 C500 1.398 . S
C501 C502 1.391 . S
C502 H490 0.950 . S
C502 C498 1.393 . S
C502 C501 1.391 . S
C503 H493 0.950 . S
C503 C504 1.386 . S
C503 C505 1.391 . S
C504 C503 1.386 . S
C504 C508 1.393 . S
C505 H494 0.950 . S
C505 C503 1.391 . S
C505 C506 1.400 . S
C506 C500 1.491 . S
C506 C505 1.400 . S
C506 C507 1.398 . S
C507 H495 0.950 . S
C507 C506 1.398 . S
C507 C508 1.391 . S
C508 H496 0.950 . S
C508 C504 1.393 . S
C508 C507 1.391 . S
H509 C517 0.950 . S
H510 C522 0.950 . S
H511 C519 0.950 . S
H512 C521 0.950 . S
H513 C523 0.950 . S
H514 C525 0.950 . S
H515 C527 0.950 . S
H516 C528 0.950 . S
C517 H509 0.950 . S
C517 C518 1.386 . S
C517 C519 1.391 . S
C518 C517 1.386 . S
C518 C522 1.393 . S
C519 H511 0.950 . S
C519 C517 1.391 . S
C519 C520 1.400 . S
C520 C519 1.400 . S
C520 C521 1.398 . S
C520 C526 1.491 . S
C521 H512 0.950 . S
C521 C520 1.398 . S
C521 C522 1.391 . S
C522 H510 0.950 . S
C522 C518 1.393 . S
C522 C521 1.391 . S
C523 H513 0.950 . S
C523 C524 1.386 . S
C523 C525 1.391 . S
C524 C523 1.386 . S
C524 C528 1.393 . S
C525 H514 0.950 . S
C525 C523 1.391 . S
C525 C526 1.400 . S
C526 C520 1.491 . S
C526 C525 1.400 . S
C526 C527 1.398 . S
C527 H515 0.950 . S
C527 C526 1.398 . S
C527 C528 1.391 . S
C528 H516 0.950 . S
C528 C524 1.393 . S
C528 C527 1.391 . S
H529 C537 0.950 . S
H530 C542 0.950 . S
H531 C539 0.950 . S
H532 C541 0.950 . S
H533 C543 0.950 . S
H534 C545 0.950 . S
H535 C547 0.950 . S
H536 C548 0.950 . S
C537 H529 0.950 . S
C537 C538 1.386 . S
C537 C539 1.391 . S
C538 C537 1.386 . S
C538 C542 1.393 . S
C539 H531 0.950 . S
C539 C537 1.391 . S
C539 C540 1.400 . S
C540 C539 1.400 . S
C540 C541 1.398 . S
C540 C546 1.491 . S
C541 H532 0.950 . S
C541 C540 1.398 . S
C541 C542 1.391 . S
C542 H530 0.950 . S
C542 C538 1.393 . S
C542 C541 1.391 . S
C543 H533 0.950 . S
C543 C544 1.386 . S
C543 C545 1.391 . S
C544 C543 1.386 . S
C544 C548 1.393 . S
C545 H534 0.950 . S
C545 C543 1.391 . S
C545 C546 1.400 . S
C546 C540 1.491 . S
C546 C545 1.400 . S
C546 C547 1.398 . S
C547 H535 0.950 . S
C547 C546 1.398 . S
C547 C548 1.391 . S
C548 H536 0.950 . S
C548 C544 1.393 . S
C548 C547 1.391 . S
H549 C557 0.950 . S
H550 C562 0.950 . S
H551 C559 0.950 . S
H552 C561 0.950 . S
H553 C563 0.950 . S
H554 C565 0.950 . S
H555 C567 0.950 . S
H556 C568 0.950 1_655 S
C557 H549 0.950 . S
C557 C558 1.386 . S
C557 C559 1.391 . S
C558 C557 1.386 . S
C558 C562 1.393 1_655 S
C559 H551 0.950 . S
C559 C557 1.391 . S
C559 C560 1.400 1_655 S
C560 C559 1.400 1_455 S
C560 C561 1.398 . S
C560 C566 1.491 . S
C561 H552 0.950 . S
C561 C560 1.398 . S
C561 C562 1.391 . S
C562 H550 0.950 . S
C562 C558 1.393 1_455 S
C562 C561 1.391 . S
C563 H553 0.950 . S
C563 C564 1.386 . S
C563 C565 1.391 . S
C564 C563 1.386 . S
C564 C568 1.393 . S
C565 H554 0.950 . S
C565 C563 1.391 . S
C565 C566 1.400 . S
C566 C560 1.491 . S
C566 C565 1.400 . S
C566 C567 1.398 1_455 S
C567 H555 0.950 . S
C567 C566 1.398 1_655 S
C567 C568 1.391 1_655 S
C568 H556 0.950 1_455 S
C568 C564 1.393 . S
C568 C567 1.391 1_455 S
H569 C577 0.950 . S
H570 C582 0.950 . S
H571 C579 0.950 . S
H572 C581 0.950 . S
H573 C583 0.950 . S
H574 C585 0.950 . S
H575 C587 0.950 . S
H576 C588 0.950 . S
C577 H569 0.950 . S
C577 C578 1.386 . S
C577 C579 1.391 . S
C578 C577 1.386 . S
C578 C582 1.393 . S
C579 H571 0.950 . S
C579 C577 1.391 . S
C579 C580 1.400 . S
C580 C579 1.400 . S
C580 C581 1.398 . S
C580 C586 1.491 . S
C581 H572 0.950 . S
C581 C580 1.398 . S
C581 C582 1.391 . S
C582 H570 0.950 . S
C582 C578 1.393 . S
C582 C581 1.391 . S
C583 H573 0.950 . S
C583 C584 1.386 . S
C583 C585 1.391 . S
C584 C583 1.386 . S
C584 C588 1.393 . S
C585 H574 0.950 . S
C585 C583 1.391 . S
C585 C586 1.400 . S
C586 C580 1.491 . S
C586 C585 1.400 . S
C586 C587 1.398 . S
C587 H575 0.950 . S
C587 C586 1.398 . S
C587 C588 1.391 . S
C588 H576 0.950 . S
C588 C584 1.393 . S
C588 C587 1.391 . S
H589 C597 0.950 . S
H590 C602 0.950 . S
H591 C599 0.950 . S
H592 C601 0.950 . S
H593 C603 0.950 . S
H594 C605 0.950 . S
H595 C607 0.950 . S
H596 C608 0.950 . S
C597 H589 0.950 . S
C597 C598 1.386 1_565 S
C597 C599 1.391 . S
C598 C597 1.386 1_545 S
C598 C602 1.393 . S
C599 H591 0.950 . S
C599 C597 1.391 . S
C599 C600 1.400 1_565 S
C600 C599 1.400 1_545 S
C600 C601 1.398 . S
C600 C606 1.491 . S
C601 H592 0.950 . S
C601 C600 1.398 . S
C601 C602 1.391 . S
C602 H590 0.950 . S
C602 C598 1.393 . S
C602 C601 1.391 . S
C603 H593 0.950 . S
C603 C604 1.386 . S
C603 C605 1.391 . S
C604 C603 1.386 . S
C604 C608 1.393 1_545 S
C605 H594 0.950 . S
C605 C603 1.391 . S
C605 C606 1.400 . S
C606 C600 1.491 . S
C606 C605 1.400 . S
C606 C607 1.398 1_545 S
C607 H595 0.950 . S
C607 C606 1.398 1_565 S
C607 C608 1.391 . S
C608 H596 0.950 . S
C608 C604 1.393 1_565 S
C608 C607 1.391 . S
H609 C617 0.950 . S
H610 C622 0.950 . S
H611 C619 0.950 . S
H612 C621 0.950 . S
H613 C623 0.950 . S
H614 C625 0.950 . S
H615 C627 0.950 . S
H616 C628 0.950 . S
C617 H609 0.950 . S
C617 C618 1.386 . S
C617 C619 1.391 . S
C618 C617 1.386 . S
C618 C622 1.393 . S
C619 H611 0.950 . S
C619 C617 1.391 . S
C619 C620 1.400 . S
C620 C619 1.400 . S
C620 C621 1.398 . S
C620 C626 1.491 . S
C621 H612 0.950 . S
C621 C620 1.398 . S
C621 C622 1.391 . S
C622 H610 0.950 . S
C622 C618 1.393 . S
C622 C621 1.391 . S
C623 H613 0.950 . S
C623 C624 1.386 . S
C623 C625 1.391 1_554 S
C624 C623 1.386 . S
C624 C628 1.393 1_554 S
C625 H614 0.950 . S
C625 C623 1.391 1_556 S
C625 C626 1.400 . S
C626 C620 1.491 . S
C626 C625 1.400 . S
C626 C627 1.398 . S
C627 H615 0.950 . S
C627 C626 1.398 . S
C627 C628 1.391 . S
C628 H616 0.950 . S
C628 C624 1.393 1_556 S
C628 C627 1.391 . S
H629 C637 0.950 . S
H630 C642 0.950 . S
H631 C639 0.950 . S
H632 C641 0.950 . S
H633 C643 0.950 . S
H634 C645 0.950 . S
H635 C647 0.950 . S
H636 C648 0.950 . S
C637 H629 0.950 . S
C637 C638 1.386 . S
C637 C639 1.391 . S
C638 C637 1.386 . S
C638 C642 1.393 . S
C639 H631 0.950 . S
C639 C637 1.391 . S
C639 C640 1.400 . S
C640 C639 1.400 . S
C640 C641 1.398 . S
C640 C646 1.491 . S
C641 H632 0.950 . S
C641 C640 1.398 . S
C641 C642 1.391 . S
C642 H630 0.950 . S
C642 C638 1.393 . S
C642 C641 1.391 . S
C643 H633 0.950 . S
C643 C644 1.386 . S
C643 C645 1.391 . S
C644 C643 1.386 . S
C644 C648 1.393 . S
C645 H634 0.950 . S
C645 C643 1.391 . S
C645 C646 1.400 . S
C646 C640 1.491 . S
C646 C645 1.400 . S
C646 C647 1.398 . S
C647 H635 0.950 . S
C647 C646 1.398 . S
C647 C648 1.391 . S
C648 H636 0.950 . S
C648 C644 1.393 . S
C648 C647 1.391 . S
H649 C657 0.950 . S
H650 C662 0.950 . S
H651 C659 0.950 . S
H652 C661 0.950 . S
H653 C663 0.950 . S
H654 C665 0.950 . S
H655 C667 0.950 . S
H656 C668 0.950 . S
C657 H649 0.950 . S
C657 C658 1.386 . S
C657 C659 1.391 . S
C658 C657 1.386 . S
C658 C662 1.393 . S
C659 H651 0.950 . S
C659 C657 1.391 . S
C659 C660 1.400 . S
C660 C659 1.400 . S
C660 C661 1.398 . S
C660 C666 1.491 . S
C661 H652 0.950 . S
C661 C660 1.398 . S
C661 C662 1.391 . S
C662 H650 0.950 . S
C662 C658 1.393 . S
C662 C661 1.391 . S
C663 H653 0.950 . S
C663 C664 1.386 1_556 S
C663 C665 1.391 . S
C664 C663 1.386 1_554 S
C664 C668 1.393 . S
C665 H654 0.950 . S
C665 C663 1.391 . S
C665 C666 1.400 . S
C666 C660 1.491 . S
C666 C665 1.400 . S
C666 C667 1.398 . S
C667 H655 0.950 . S
C667 C666 1.398 . S
C667 C668 1.391 1_556 S
C668 H656 0.950 . S
C668 C664 1.393 . S
C668 C667 1.391 1_554 S
H669 C677 0.950 . S
H670 C682 0.950 . S
H671 C679 0.950 . S
H672 C681 0.950 . S
H673 C683 0.950 . S
H674 C685 0.950 . S
H675 C687 0.950 . S
H676 C688 0.950 . S
C677 H669 0.950 . S
C677 C678 1.386 . S
C677 C679 1.391 . S
C678 C677 1.386 . S
C678 C682 1.393 . S
C679 H671 0.950 . S
C679 C677 1.391 . S
C679 C680 1.400 . S
C680 C679 1.400 . S
C680 C681 1.398 . S
C680 C686 1.491 . S
C681 H672 0.950 . S
C681 C680 1.398 . S
C681 C682 1.391 . S
C682 H670 0.950 . S
C682 C678 1.393 . S
C682 C681 1.391 . S
C683 H673 0.950 . S
C683 C684 1.386 . S
C683 C685 1.391 1_556 S
C684 C683 1.386 . S
C684 C688 1.393 . S
C685 H674 0.950 . S
C685 C683 1.391 1_554 S
C685 C686 1.400 . S
C686 C680 1.491 . S
C686 C685 1.400 . S
C686 C687 1.398 . S
C687 H675 0.950 . S
C687 C686 1.398 . S
C687 C688 1.391 1_554 S
C688 H676 0.950 . S
C688 C684 1.393 . S
C688 C687 1.391 1_556 S
H689 C697 0.950 . S
H690 C702 0.950 . S
H691 C699 0.950 . S
H692 C701 0.950 . S
H693 C703 0.950 . S
H694 C705 0.950 . S
H695 C707 0.950 . S
H696 C708 0.950 . S
C697 H689 0.950 . S
C697 C698 1.386 . S
C697 C699 1.391 . S
C698 C697 1.386 . S
C698 C702 1.393 . S
C699 H691 0.950 . S
C699 C697 1.391 . S
C699 C700 1.400 . S
C700 C699 1.400 . S
C700 C701 1.398 . S
C700 C706 1.491 . S
C701 H692 0.950 . S
C701 C700 1.398 . S
C701 C702 1.391 . S
C702 H690 0.950 . S
C702 C698 1.393 . S
C702 C701 1.391 . S
C703 H693 0.950 . S
C703 C704 1.386 . S
C703 C705 1.391 . S
C704 C703 1.386 . S
C704 C708 1.393 . S
C705 H694 0.950 . S
C705 C703 1.391 . S
C705 C706 1.400 . S
C706 C700 1.491 . S
C706 C705 1.400 . S
C706 C707 1.398 . S
C707 H695 0.950 . S
C707 C706 1.398 . S
C707 C708 1.391 . S
C708 H696 0.950 . S
C708 C704 1.393 . S
C708 C707 1.391 . S
H709 C717 0.950 . S
H710 C722 0.950 . S
H711 C719 0.950 . S
H712 C721 0.950 . S
H713 C723 0.950 1_556 S
H714 C725 0.950 . S
H715 C727 0.950 . S
H716 C728 0.950 . S
C717 H709 0.950 . S
C717 C718 1.386 . S
C717 C719 1.391 . S
C718 C717 1.386 . S
C718 C722 1.393 . S
C719 H711 0.950 . S
C719 C717 1.391 . S
C719 C720 1.400 . S
C720 C719 1.400 . S
C720 C721 1.398 . S
C720 C726 1.491 . S
C721 H712 0.950 . S
C721 C720 1.398 . S
C721 C722 1.391 . S
C722 H710 0.950 . S
C722 C718 1.393 . S
C722 C721 1.391 . S
C723 H713 0.950 1_554 S
C723 C724 1.386 1_554 S
C723 C725 1.391 . S
C724 C723 1.386 1_556 S
C724 C728 1.393 1_556 S
C725 H714 0.950 . S
C725 C723 1.391 . S
C725 C726 1.400 . S
C726 C720 1.491 . S
C726 C725 1.400 . S
C726 C727 1.398 . S
C727 H715 0.950 . S
C727 C726 1.398 . S
C727 C728 1.391 . S
C728 H716 0.950 . S
C728 C724 1.393 1_554 S
C728 C727 1.391 . S
C198 C17 1.526 . S
C204 C164 1.518 . S
C218 C34 1.121 . S
C224 C181 1.143 . S
C238 C59 1.494 . S
C244 C139 1.200 . S
C258 C97 0.920 . S
C264 C55 0.917 . S
C278 C118 1.054 . S
C284 C13 1.049 . S
C298 C38 1.437 . S
C304 C76 1.145 . S
C318 C160 1.252 . S
C324 C122 1.535 . S
C338 C185 1.690 . S
C344 C80 1.691 . S
C358 C101 1.852 . S
C364 C143 1.843 . S
C378 C60 1.087 . S
C384 C16 1.022 . S
C398 C39 1.078 . S
C404 C18 1.071 . S
C418 C37 1.173 . S
C424 C58 1.138 1_554 S
C438 C81 1.202 . S
C444 C121 1.112 . S
C458 C79 1.132 . S
C464 C102 1.272 . S
C478 C100 1.077 . S
C484 C123 1.156 . S
C498 C186 1.339 . S
C504 C142 1.223 . S
C518 C165 1.115 . S
C524 C144 1.114 . S
C538 C184 1.169 . S
C544 C163 1.191 . S
C558 C15 1.078 1_655 S
C564 C14 1.077 . S
C578 C35 1.031 . S
C584 C36 1.033 . S
C598 C57 1.043 . S
C604 C56 1.033 . S
C618 C78 1.130 . S
C624 C77 1.118 . S
C638 C99 1.081 . S
C644 C98 1.077 1_556 S
C658 C120 1.067 . S
C664 C119 1.056 . S
C678 C141 1.071 . S
C684 C140 1.069 . S
C698 C162 1.057 1_554 S
C704 C161 1.051 . S
C718 C183 1.077 . S
C724 C182 1.076 . S
