# Generated by pormake.
# Topology vbp, (6)-cn, num edge types: 1
# Building blocks:
#     Node 0, Type 0, BuildingBlock: OJICUG_clean_sbu_0, # of connection points: 6
#     Node 1, Type 0, BuildingBlock: OJICUG_clean_sbu_0, # of connection points: 6
#     Node 2, Type 0, BuildingBlock: OJICUG_clean_sbu_0, # of connection points: 6
#     Node 3, Type 0, BuildingBlock: OJICUG_clean_sbu_0, # of connection points: 6
#     Node 4, Type 0, BuildingBlock: OJICUG_clean_sbu_0, # of connection points: 6
#     Node 5, Type 0, BuildingBlock: OJICUG_clean_sbu_0, # of connection points: 6
#     Node 6, Type 0, BuildingBlock: OJICUG_clean_sbu_0, # of connection points: 6
#     Node 7, Type 0, BuildingBlock: OJICUG_clean_sbu_0, # of connection points: 6
#     Node 8, Type 0, BuildingBlock: OJICUG_clean_sbu_0, # of connection points: 6
#     Node 9, Type 0, BuildingBlock: OJICUG_clean_sbu_0, # of connection points: 6
#     Node 10, Type 0, BuildingBlock: OJICUG_clean_sbu_0, # of connection points: 6
#     Node 11, Type 0, BuildingBlock: OJICUG_clean_sbu_0, # of connection points: 6
#     Node 12, Type 0, BuildingBlock: OJICUG_clean_sbu_0, # of connection points: 6
#     Node 13, Type 0, BuildingBlock: OJICUG_clean_sbu_0, # of connection points: 6
#     Node 14, Type 0, BuildingBlock: OJICUG_clean_sbu_0, # of connection points: 6
#     Node 15, Type 0, BuildingBlock: OJICUG_clean_sbu_0, # of connection points: 6
#     Edge 16, Type (0, 0), BuildingBlock: XUDNAN_clean_linker_2, # of connection points: 2
#     Edge 17, Type (0, 0), BuildingBlock: XUDNAN_clean_linker_2, # of connection points: 2
#     Edge 18, Type (0, 0), BuildingBlock: XUDNAN_clean_linker_2, # of connection points: 2
#     Edge 19, Type (0, 0), BuildingBlock: XUDNAN_clean_linker_2, # of connection points: 2
#     Edge 20, Type (0, 0), BuildingBlock: XUDNAN_clean_linker_2, # of connection points: 2
#     Edge 21, Type (0, 0), BuildingBlock: XUDNAN_clean_linker_2, # of connection points: 2
#     Edge 22, Type (0, 0), BuildingBlock: XUDNAN_clean_linker_2, # of connection points: 2
#     Edge 23, Type (0, 0), BuildingBlock: XUDNAN_clean_linker_2, # of connection points: 2
#     Edge 24, Type (0, 0), BuildingBlock: XUDNAN_clean_linker_2, # of connection points: 2
#     Edge 25, Type (0, 0), BuildingBlock: XUDNAN_clean_linker_2, # of connection points: 2
#     Edge 26, Type (0, 0), BuildingBlock: XUDNAN_clean_linker_2, # of connection points: 2
#     Edge 27, Type (0, 0), BuildingBlock: XUDNAN_clean_linker_2, # of connection points: 2
#     Edge 28, Type (0, 0), BuildingBlock: XUDNAN_clean_linker_2, # of connection points: 2
#     Edge 29, Type (0, 0), BuildingBlock: XUDNAN_clean_linker_2, # of connection points: 2
#     Edge 30, Type (0, 0), BuildingBlock: XUDNAN_clean_linker_2, # of connection points: 2
#     Edge 31, Type (0, 0), BuildingBlock: XUDNAN_clean_linker_2, # of connection points: 2
#     Edge 32, Type (0, 0), BuildingBlock: XUDNAN_clean_linker_2, # of connection points: 2
#     Edge 33, Type (0, 0), BuildingBlock: XUDNAN_clean_linker_2, # of connection points: 2
#     Edge 34, Type (0, 0), BuildingBlock: XUDNAN_clean_linker_2, # of connection points: 2
#     Edge 35, Type (0, 0), BuildingBlock: XUDNAN_clean_linker_2, # of connection points: 2
#     Edge 36, Type (0, 0), BuildingBlock: XUDNAN_clean_linker_2, # of connection points: 2
#     Edge 37, Type (0, 0), BuildingBlock: XUDNAN_clean_linker_2, # of connection points: 2
#     Edge 38, Type (0, 0), BuildingBlock: XUDNAN_clean_linker_2, # of connection points: 2
#     Edge 39, Type (0, 0), BuildingBlock: XUDNAN_clean_linker_2, # of connection points: 2
#     Edge 40, Type (0, 0), BuildingBlock: XUDNAN_clean_linker_2, # of connection points: 2
#     Edge 41, Type (0, 0), BuildingBlock: XUDNAN_clean_linker_2, # of connection points: 2
#     Edge 42, Type (0, 0), BuildingBlock: XUDNAN_clean_linker_2, # of connection points: 2
#     Edge 43, Type (0, 0), BuildingBlock: XUDNAN_clean_linker_2, # of connection points: 2
#     Edge 44, Type (0, 0), BuildingBlock: XUDNAN_clean_linker_2, # of connection points: 2
#     Edge 45, Type (0, 0), BuildingBlock: XUDNAN_clean_linker_2, # of connection points: 2
#     Edge 46, Type (0, 0), BuildingBlock: XUDNAN_clean_linker_2, # of connection points: 2
#     Edge 47, Type (0, 0), BuildingBlock: XUDNAN_clean_linker_2, # of connection points: 2
#     Edge 48, Type (0, 0), BuildingBlock: XUDNAN_clean_linker_2, # of connection points: 2
#     Edge 49, Type (0, 0), BuildingBlock: XUDNAN_clean_linker_2, # of connection points: 2
#     Edge 50, Type (0, 0), BuildingBlock: XUDNAN_clean_linker_2, # of connection points: 2
#     Edge 51, Type (0, 0), BuildingBlock: XUDNAN_clean_linker_2, # of connection points: 2
#     Edge 52, Type (0, 0), BuildingBlock: XUDNAN_clean_linker_2, # of connection points: 2
#     Edge 53, Type (0, 0), BuildingBlock: XUDNAN_clean_linker_2, # of connection points: 2
#     Edge 54, Type (0, 0), BuildingBlock: XUDNAN_clean_linker_2, # of connection points: 2
#     Edge 55, Type (0, 0), BuildingBlock: XUDNAN_clean_linker_2, # of connection points: 2
#     Edge 56, Type (0, 0), BuildingBlock: XUDNAN_clean_linker_2, # of connection points: 2
#     Edge 57, Type (0, 0), BuildingBlock: XUDNAN_clean_linker_2, # of connection points: 2
#     Edge 58, Type (0, 0), BuildingBlock: XUDNAN_clean_linker_2, # of connection points: 2
#     Edge 59, Type (0, 0), BuildingBlock: XUDNAN_clean_linker_2, # of connection points: 2
#     Edge 60, Type (0, 0), BuildingBlock: XUDNAN_clean_linker_2, # of connection points: 2
#     Edge 61, Type (0, 0), BuildingBlock: XUDNAN_clean_linker_2, # of connection points: 2
#     Edge 62, Type (0, 0), BuildingBlock: XUDNAN_clean_linker_2, # of connection points: 2
#     Edge 63, Type (0, 0), BuildingBlock: XUDNAN_clean_linker_2, # of connection points: 2
# Relax obj value: 0.262
# Max RMSD: 0.268
# Mean RMSD: 0.268
data_MOF--net-vbp--node1-OJICUG_clean_sbu_0--edge1-XUDNAN_clean_linker_2
_symmetry_space_group_name_H-M    P1
_symmetry_Int_Tables_number       1
_symmetry_cell_setting            triclinic
loop_
_symmetry_equiv_pos_as_xyz
'x, y, z'
_cell_length_a     29.540052
_cell_length_b     42.602958
_cell_length_c     55.397982
_cell_angle_alpha  90.002947
_cell_angle_beta   89.994074
_cell_angle_gamma 89.995422
loop_
_atom_site_label
_atom_site_type_symbol
_atom_site_fract_x
_atom_site_fract_y
_atom_site_fract_z
_atom_type_partial_charge
Sc0 Sc 0.32595 0.10381 0.14248 0.0
Sc1 Sc 0.39397 0.03665 0.14104 0.0
Sc2 Sc 0.41801 0.09973 0.10345 0.0
O3 O 0.37911 0.07984 0.12892 0.0
C4 C 0.32265 0.12041 0.08547 0.0
C5 C 0.28587 0.03625 0.13683 0.0
C6 C 0.41633 0.02824 0.08654 0.0
C7 C 0.36088 0.06504 0.18918 0.0
C8 C 0.40153 0.15573 0.13994 0.0
C9 C 0.49198 0.06749 0.1351 0.0
O10 O 0.30888 0.12526 0.10712 0.0
O11 O 0.32371 0.02354 0.1419 0.0
O12 O 0.42781 0.05677 0.08444 0.0
O13 O 0.33226 0.08298 0.17873 0.0
O14 O 0.41325 0.14538 0.11937 0.0
O15 O 0.46528 0.04534 0.14087 0.0
O16 O 0.37108 0.14234 0.15269 0.0
O17 O 0.39275 0.05182 0.17779 0.0
O18 O 0.47901 0.0918 0.12371 0.0
O19 O 0.28085 0.06573 0.13369 0.0
O20 O 0.36062 0.10784 0.08106 0.0
O21 O 0.39832 0.01706 0.10547 0.0
Sc22 Sc 0.65915 0.39574 0.14473 0.0
Sc23 Sc 0.58821 0.4623 0.14239 0.0
Sc24 Sc 0.55848 0.39442 0.11045 0.0
O25 O 0.60196 0.41746 0.13263 0.0
C26 C 0.6538 0.37348 0.08883 0.0
C27 C 0.69594 0.46444 0.13542 0.0
C28 C 0.55822 0.46325 0.08795 0.0
C29 C 0.62678 0.43574 0.19142 0.0
C30 C 0.58524 0.34107 0.14808 0.0
C31 C 0.48852 0.4327 0.14188 0.0
O32 O 0.6756 0.37688 0.10862 0.0
O33 O 0.65744 0.47718 0.13835 0.0
O34 O 0.54971 0.43407 0.0873 0.0
O35 O 0.65193 0.41503 0.18137 0.0
O36 O 0.56118 0.35244 0.13131 0.0
O37 O 0.51694 0.45405 0.14707 0.0
O38 O 0.62145 0.35394 0.15578 0.0
O39 O 0.59864 0.45241 0.17979 0.0
O40 O 0.49944 0.4079 0.13057 0.0
O41 O 0.70184 0.43489 0.13576 0.0
O42 O 0.61176 0.37908 0.08713 0.0
O43 O 0.57555 0.4769 0.10609 0.0
Sc44 Sc 0.32994 0.90076 0.38102 0.0
Sc45 Sc 0.39802 0.96649 0.39256 0.0
Sc46 Sc 0.41798 0.89619 0.42261 0.0
O47 O 0.3825 0.92112 0.39809 0.0
C48 C 0.31902 0.87536 0.43478 0.0
C49 C 0.29225 0.97016 0.39165 0.0
C50 C 0.40824 0.95924 0.44971 0.0
C51 C 0.36824 0.94371 0.33928 0.0
C52 C 0.40945 0.84808 0.38057 0.0
C53 C 0.49465 0.93932 0.39849 0.0
O54 O 0.30182 0.88809 0.41616 0.0
O55 O 0.32992 0.98126 0.39862 0.0
O56 O 0.40374 0.92966 0.4499 0.0
O57 O 0.35123 0.91729 0.34556 0.0
O58 O 0.43335 0.86214 0.39619 0.0
O59 O 0.46752 0.95574 0.38599 0.0
O60 O 0.36887 0.85665 0.37541 0.0
O61 O 0.3847 0.96323 0.35432 0.0
O62 O 0.48129 0.91921 0.41389 0.0
O63 O 0.2878 0.94228 0.38362 0.0
O64 O 0.36093 0.86907 0.43575 0.0
O65 O 0.41238 0.97516 0.43037 0.0
Sc66 Sc 0.56537 0.61684 0.41819 0.0
Sc67 Sc 0.59273 0.54267 0.39492 0.0
Sc68 Sc 0.65937 0.60892 0.37955 0.0
O69 O 0.60563 0.58943 0.39726 0.0
C70 C 0.58222 0.6615 0.37322 0.0
C71 C 0.4933 0.57104 0.39335 0.0
C72 C 0.62529 0.55819 0.34091 0.0
C73 C 0.57029 0.5558 0.4502 0.0
C74 C 0.66442 0.64079 0.43227 0.0
C75 C 0.70006 0.54336 0.39782 0.0
O76 O 0.56016 0.65234 0.39146 0.0
O77 O 0.52217 0.54997 0.38819 0.0
O78 O 0.64518 0.58398 0.34601 0.0
O79 O 0.56537 0.58494 0.4472 0.0
O80 O 0.68238 0.63307 0.41217 0.0
O81 O 0.66188 0.53055 0.40156 0.0
O82 O 0.6223 0.63792 0.43627 0.0
O83 O 0.57908 0.53693 0.43307 0.0
O84 O 0.70438 0.57118 0.38972 0.0
O85 O 0.5038 0.59661 0.40388 0.0
O86 O 0.61943 0.64901 0.3665 0.0
O87 O 0.6047 0.54164 0.35655 0.0
Sc88 Sc 0.56427 0.88855 0.91659 0.0
Sc89 Sc 0.59357 0.96059 0.89291 0.0
Sc90 Sc 0.65593 0.89311 0.87826 0.0
O91 O 0.60405 0.91423 0.89504 0.0
C92 C 0.65802 0.86084 0.92957 0.0
C93 C 0.5774 0.94558 0.94897 0.0
C94 C 0.69931 0.95895 0.89429 0.0
C95 C 0.4944 0.93906 0.89533 0.0
C96 C 0.57076 0.84506 0.87256 0.0
C97 C 0.62593 0.94255 0.83883 0.0
O98 O 0.61608 0.8555 0.92708 0.0
O99 O 0.57498 0.96421 0.93094 0.0
O100 O 0.70163 0.93227 0.88393 0.0
O101 O 0.5053 0.91728 0.90992 0.0
O102 O 0.61318 0.85117 0.8699 0.0
O103 O 0.61108 0.96142 0.8549 0.0
O104 O 0.54577 0.86051 0.88687 0.0
O105 O 0.52367 0.95458 0.88354 0.0
O106 O 0.63849 0.91438 0.8436 0.0
O107 O 0.58302 0.91629 0.9466 0.0
O108 O 0.67978 0.87545 0.91323 0.0
O109 O 0.66239 0.97047 0.90207 0.0
Sc110 Sc 0.31939 0.60648 0.88022 0.0
Sc111 Sc 0.38811 0.54067 0.89346 0.0
Sc112 Sc 0.41433 0.61424 0.91828 0.0
O113 O 0.37402 0.58709 0.89707 0.0
C114 C 0.39519 0.66005 0.87421 0.0
C115 C 0.35673 0.5579 0.84004 0.0
C116 C 0.48718 0.57073 0.89305 0.0
C117 C 0.28039 0.53956 0.89538 0.0
C118 C 0.31538 0.63634 0.93395 0.0
C119 C 0.40807 0.55158 0.94892 0.0
O120 O 0.35912 0.64652 0.86694 0.0
O121 O 0.3807 0.54223 0.85482 0.0
O122 O 0.47604 0.59685 0.90242 0.0
O123 O 0.2749 0.56844 0.89027 0.0
O124 O 0.35743 0.63276 0.93765 0.0
O125 O 0.39646 0.5335 0.93178 0.0
O126 O 0.29704 0.63027 0.91355 0.0
O127 O 0.31902 0.5268 0.89718 0.0
O128 O 0.417 0.58035 0.94606 0.0
O129 O 0.33293 0.58166 0.84631 0.0
O130 O 0.4168 0.65146 0.89277 0.0
O131 O 0.45903 0.54878 0.88926 0.0
Sc132 Sc 0.57442 0.10681 0.61008 0.0
Sc133 Sc 0.60889 0.03973 0.64032 0.0
Sc134 Sc 0.67328 0.1084 0.64529 0.0
O135 O 0.6188 0.08526 0.63222 0.0
C136 C 0.66862 0.13333 0.59061 0.0
C137 C 0.57066 0.04212 0.58649 0.0
C138 C 0.71274 0.04136 0.62885 0.0
C139 C 0.51089 0.06426 0.64407 0.0
C140 C 0.59228 0.159 0.64928 0.0
C141 C 0.65188 0.06415 0.68978 0.0
O142 O 0.62569 0.13161 0.58999 0.0
O143 O 0.57724 0.02856 0.60654 0.0
O144 O 0.71728 0.06875 0.63793 0.0
O145 O 0.51725 0.08324 0.6266 0.0
O146 O 0.63308 0.15059 0.65362 0.0
O147 O 0.6364 0.0432 0.67586 0.0
O148 O 0.56617 0.1444 0.635 0.0
O149 O 0.54308 0.0499 0.65462 0.0
O150 O 0.66279 0.09157 0.68241 0.0
O151 O 0.579 0.07095 0.5833 0.0
O152 O 0.69141 0.12491 0.60908 0.0
O153 O 0.67439 0.02813 0.62602 0.0
Sc154 Sc 0.4184 0.40327 0.60373 0.0
Sc155 Sc 0.387 0.46654 0.63989 0.0
Sc156 Sc 0.32814 0.39478 0.64399 0.0
O157 O 0.37765 0.4216 0.62929 0.0
C158 C 0.32335 0.37789 0.58687 0.0
C159 C 0.40413 0.47341 0.58483 0.0
C160 C 0.27867 0.4599 0.64078 0.0
C161 C 0.48925 0.44278 0.6322 0.0
C162 C 0.40898 0.34572 0.64017 0.0
C163 C 0.3637 0.43606 0.68963 0.0
O164 O 0.36193 0.38948 0.58236 0.0
O165 O 0.38542 0.48428 0.60368 0.0
O166 O 0.27749 0.43023 0.63835 0.0
O167 O 0.47853 0.41677 0.62258 0.0
O168 O 0.37573 0.35689 0.65212 0.0
O169 O 0.39 0.45316 0.67715 0.0
O170 O 0.42343 0.3585 0.62098 0.0
O171 O 0.46006 0.4635 0.63789 0.0
O172 O 0.33838 0.41488 0.68025 0.0
O173 O 0.41981 0.44576 0.58344 0.0
O174 O 0.30861 0.37458 0.60852 0.0
O175 O 0.31515 0.47551 0.64295 0.0
Sc176 Sc 0.8258 0.61193 0.64001 0.0
Sc177 Sc 0.89142 0.54324 0.63842 0.0
Sc178 Sc 0.92825 0.60931 0.60745 0.0
O179 O 0.88172 0.58832 0.62879 0.0
C180 C 0.83487 0.63473 0.58505 0.0
C181 C 0.78742 0.54305 0.62744 0.0
C182 C 0.93106 0.54302 0.58482 0.0
C183 C 0.84642 0.57081 0.68645 0.0
C184 C 0.90549 0.66366 0.64429 0.0
C185 C 0.98997 0.56817 0.64332 0.0
O186 O 0.81037 0.62687 0.60306 0.0
O187 O 0.82599 0.53007 0.6252 0.0
O188 O 0.92744 0.57233 0.5815 0.0
O189 O 0.83351 0.59716 0.67779 0.0
O190 O 0.93331 0.64812 0.63155 0.0
O191 O 0.95695 0.55344 0.65263 0.0
O192 O 0.86447 0.65496 0.6476 0.0
O193 O 0.86463 0.54963 0.67373 0.0
O194 O 0.98518 0.58732 0.62581 0.0
O195 O 0.78244 0.57158 0.63396 0.0
O196 O 0.87784 0.63255 0.5855 0.0
O197 O 0.92179 0.52992 0.60477 0.0
Sc198 Sc 0.15573 0.90253 0.64642 0.0
Sc199 Sc 0.11686 0.97021 0.61814 0.0
Sc200 Sc 0.08547 0.89684 0.59636 0.0
O201 O 0.11807 0.9235 0.62083 0.0
C202 C 0.18046 0.86909 0.59757 0.0
C203 C 0.21604 0.96299 0.63503 0.0
C204 C 0.12063 0.94913 0.56251 0.0
C205 C 0.11274 0.95762 0.67581 0.0
C206 C 0.06821 0.85799 0.64243 0.0
C207 C 0.01632 0.95327 0.60538 0.0
O208 O 0.19468 0.88265 0.61663 0.0
O209 O 0.18976 0.97431 0.61907 0.0
O210 O 0.11746 0.91994 0.56673 0.0
O211 O 0.12107 0.92798 0.67552 0.0
O212 O 0.05131 0.87279 0.62475 0.0
O213 O 0.04403 0.97007 0.61733 0.0
O214 O 0.10888 0.86238 0.64961 0.0
O215 O 0.11389 0.9746 0.65683 0.0
O216 O 0.02808 0.92815 0.59462 0.0
O217 O 0.20569 0.93907 0.64752 0.0
O218 O 0.13888 0.86217 0.59564 0.0
O219 O 0.11817 0.96972 0.57916 0.0
Sc220 Sc 0.81987 0.40231 0.8783 0.0
Sc221 Sc 0.89131 0.46732 0.88197 0.0
Sc222 Sc 0.91511 0.40023 0.91566 0.0
O223 O 0.87541 0.42338 0.89202 0.0
C224 C 0.81887 0.38071 0.93433 0.0
C225 C 0.78339 0.47004 0.88732 0.0
C226 C 0.91688 0.47013 0.9364 0.0
C227 C 0.85374 0.44458 0.83311 0.0
C228 C 0.89186 0.34778 0.87666 0.0
C229 C 0.989 0.43476 0.88537 0.0
O230 O 0.8031 0.37883 0.91282 0.0
O231 O 0.82165 0.48227 0.88253 0.0
O232 O 0.92734 0.44124 0.93702 0.0
O233 O 0.82539 0.42595 0.84306 0.0
O234 O 0.90858 0.35631 0.89676 0.0
O235 O 0.9625 0.45754 0.88089 0.0
O236 O 0.86139 0.36334 0.86556 0.0
O237 O 0.88726 0.45574 0.84451 0.0
O238 O 0.97568 0.40947 0.8953 0.0
O239 O 0.77736 0.44055 0.88951 0.0
O240 O 0.85853 0.39063 0.93857 0.0
O241 O 0.89785 0.48304 0.91844 0.0
Sc242 Sc 0.06176 0.10335 0.91685 0.0
Sc243 Sc 0.09118 0.03823 0.88321 0.0
Sc244 Sc 0.15268 0.10811 0.8766 0.0
O245 O 0.10174 0.08358 0.89186 0.0
C246 C 0.06983 0.15789 0.87859 0.0
C247 C 0.99291 0.06229 0.88465 0.0
C248 C 0.12517 0.06507 0.83268 0.0
C249 C 0.06259 0.03788 0.9385 0.0
C250 C 0.15764 0.13119 0.93176 0.0
C251 C 0.19598 0.0404 0.88911 0.0
O252 O 0.04811 0.14177 0.89392 0.0
O253 O 0.02268 0.04766 0.87237 0.0
O254 O 0.13374 0.09286 0.84009 0.0
O255 O 0.07291 0.0663 0.94199 0.0
O256 O 0.17757 0.12368 0.91211 0.0
O257 O 0.15838 0.02743 0.89428 0.0
O258 O 0.11531 0.12808 0.93464 0.0
O259 O 0.06481 0.02536 0.91782 0.0
O260 O 0.19894 0.06811 0.88025 0.0
O261 O 0.00275 0.08042 0.90218 0.0
O262 O 0.1097 0.15033 0.87144 0.0
O263 O 0.11417 0.04306 0.84685 0.0
Sc264 Sc 0.0689 0.39255 0.41693 0.0
Sc265 Sc 0.0928 0.46325 0.38898 0.0
Sc266 Sc 0.1602 0.39674 0.37798 0.0
O267 O 0.10697 0.41762 0.39391 0.0
C268 C 0.16435 0.36699 0.43029 0.0
C269 C 0.08205 0.45335 0.44601 0.0
C270 C 0.19947 0.46512 0.39056 0.0
C271 C -0.00495 0.43899 0.39448 0.0
C272 C 0.07761 0.3461 0.37458 0.0
C273 C 0.12419 0.44122 0.33591 0.0
O274 O 0.12224 0.36179 0.42894 0.0
O275 O 0.07825 0.47028 0.42709 0.0
O276 O 0.20434 0.43717 0.38269 0.0
O277 O 0.00787 0.41847 0.4096 0.0
O278 O 0.11939 0.35349 0.37109 0.0
O279 O 0.10655 0.46055 0.35074 0.0
O280 O 0.05213 0.36138 0.38878 0.0
O281 O 0.02275 0.45443 0.38166 0.0
O282 O 0.14204 0.41512 0.34241 0.0
O283 O 0.08582 0.4237 0.44534 0.0
O284 O 0.18501 0.38124 0.41337 0.0
O285 O 0.16115 0.47676 0.39577 0.0
Sc286 Sc 0.83246 0.10323 0.38 0.0
Sc287 Sc 0.90256 0.03734 0.3844 0.0
Sc288 Sc 0.92882 0.10569 0.41591 0.0
O289 O 0.88772 0.08179 0.39347 0.0
C290 C 0.90448 0.15718 0.37721 0.0
C291 C 0.86323 0.05977 0.33502 0.0
C292 C -0.00051 0.07174 0.38348 0.0
C293 C 0.79468 0.03607 0.39182 0.0
C294 C 0.8341 0.12448 0.43615 0.0
C295 C 0.93775 0.03605 0.43695 0.0
O296 O 0.87488 0.14095 0.36609 0.0
O297 O 0.89466 0.04635 0.34666 0.0
O298 O 0.98648 0.09736 0.39312 0.0
O299 O 0.78935 0.06577 0.39205 0.0
O300 O 0.87351 0.11374 0.44019 0.0
O301 O 0.91368 0.02282 0.42096 0.0
O302 O 0.81832 0.12727 0.41467 0.0
O303 O 0.83264 0.02282 0.38773 0.0
O304 O 0.94711 0.06509 0.43641 0.0
O305 O 0.83638 0.07955 0.34481 0.0
O306 O 0.91859 0.1501 0.39813 0.0
O307 O 0.97349 0.0481 0.38081 0.0
Sc308 Sc 0.06402 0.61513 0.10798 0.0
Sc309 Sc 0.09231 0.54154 0.13025 0.0
Sc310 Sc 0.15946 0.60736 0.1435 0.0
O311 O 0.1049 0.58773 0.12785 0.0
C312 C 0.15907 0.63949 0.09213 0.0
C313 C 0.07332 0.55746 0.07455 0.0
C314 C 0.19832 0.53988 0.12814 0.0
C315 C 0.99315 0.56613 0.13002 0.0
C316 C 0.07904 0.65754 0.15209 0.0
C317 C 0.12618 0.55988 0.18388 0.0
O318 O 0.11756 0.64584 0.09553 0.0
O319 O 0.07421 0.53825 0.09225 0.0
O320 O 0.20248 0.56702 0.1375 0.0
O321 O 0.00354 0.58908 0.11651 0.0
O322 O 0.12133 0.6507 0.15268 0.0
O323 O 0.10938 0.54119 0.16826 0.0
O324 O 0.05114 0.64346 0.13855 0.0
O325 O 0.02268 0.54859 0.13974 0.0
O326 O 0.14243 0.58694 0.17857 0.0
O327 O 0.07569 0.58699 0.07714 0.0
O328 O 0.18147 0.62432 0.10796 0.0
O329 O 0.16048 0.52899 0.12123 0.0
Sc330 Sc 0.91631 0.89422 0.10119 0.0
Sc331 Sc 0.88957 0.96284 0.13287 0.0
Sc332 Sc 0.82368 0.89424 0.14132 0.0
O333 O 0.87658 0.91707 0.12535 0.0
C334 C 0.81845 0.86947 0.08612 0.0
C335 C 0.90406 0.96054 0.07641 0.0
C336 C 0.78196 0.9617 0.13079 0.0
C337 C 0.98941 0.93575 0.12861 0.0
C338 C 0.9037 0.843 0.1425 0.0
C339 C 0.85997 0.93851 0.18465 0.0
O340 O 0.85963 0.8756 0.08186 0.0
O341 O 0.89574 0.97586 0.09552 0.0
O342 O 0.77698 0.93222 0.13374 0.0
O343 O 0.97855 0.91156 0.11652 0.0
O344 O 0.86697 0.85417 0.15126 0.0
O345 O 0.88396 0.95579 0.17105 0.0
O346 O 0.92289 0.85457 0.12408 0.0
O347 O 0.96077 0.95589 0.1357 0.0
O348 O 0.83633 0.91556 0.17671 0.0
O349 O 0.91317 0.93155 0.07609 0.0
O350 O 0.8011 0.87287 0.10711 0.0
O351 O 0.82014 0.9752 0.13064 0.0
H352 H 0.42089 0.04051 0.03868 0.0
H353 H 0.45078 0.96953 0.09251 0.0
H354 H 0.49896 0.94158 0.06304 0.0
H355 H 0.42077 0.98634 0.98557 0.0
H356 H 0.44582 0.01596 0.96656 0.0
H357 H 0.40911 0.02727 0.99102 0.0
H358 H 0.47287 0.06321 1.00744 0.0
H359 H 0.51052 0.05096 0.9837 0.0
H360 H 0.52718 0.04642 0.01481 0.0
H361 H 0.55178 0.9261 0.03002 0.0
H362 H 0.59295 0.91653 0.99204 0.0
H363 H 0.52784 0.99785 0.95984 0.0
C364 C 0.43626 0.01844 0.04392 0.0
C365 C 0.4322 0.00695 0.06767 0.0
C366 C 0.45301 0.97829 0.07419 0.0
C367 C 0.48087 0.96256 0.05771 0.0
C368 C 0.48665 0.97571 0.03489 0.0
C369 C 0.46378 1.00241 0.02771 0.0
C370 C 0.47675 0.0122 1.00242 0.0
C371 C 0.43568 0.01031 0.98538 0.0
C372 C 0.49809 0.04515 1.0021 0.0
C373 C 0.51137 0.98724 0.9967 0.0
C374 C 0.51681 0.96659 0.01574 0.0
C375 C 0.54731 0.94178 0.01483 0.0
C376 C 0.57082 0.93676 0.99329 0.0
C377 C 0.56331 0.95637 0.97299 0.0
C378 C 0.53459 0.98264 0.9751 0.0
H379 H 0.54385 0.44655 0.041 0.0
H380 H 0.5264 0.52278 0.09224 0.0
H381 H 0.47747 0.55042 0.0632 0.0
H382 H 0.54854 0.49662 0.98759 0.0
H383 H 0.51928 0.46838 0.96907 0.0
H384 H 0.5535 0.45527 0.99398 0.0
H385 H 0.48407 0.42519 1.01094 0.0
H386 H 0.44923 0.43921 0.98653 0.0
H387 H 0.43256 0.44631 0.01735 0.0
H388 H 0.42756 0.5681 0.03033 0.0
H389 H 0.39337 0.58151 0.99117 0.0
H390 H 0.44421 0.4946 0.96058 0.0
C391 C 0.53042 0.46936 0.04586 0.0
C392 C 0.53879 0.48262 0.06876 0.0
C393 C 0.52081 0.51245 0.07462 0.0
C394 C 0.49241 0.52807 0.05844 0.0
C395 C 0.48301 0.51361 0.03649 0.0
C396 C 0.50251 0.48546 0.02982 0.0
C397 C 0.48848 0.47587 1.00463 0.0
C398 C 0.5299 0.47394 0.98782 0.0
C399 C 0.46201 0.4448 1.0049 0.0
C400 C 0.45809 0.50316 0.99818 0.0
C401 C 0.45475 0.52426 0.01708 0.0
C402 C 0.42998 0.55188 0.01535 0.0
C403 C 0.41048 0.55917 0.99313 0.0
C404 C 0.41631 0.539 0.97305 0.0
C405 C 0.43863 0.51003 0.97584 0.0
H406 H 0.45903 0.01138 0.45843 0.0
H407 H 0.37806 0.93969 0.49355 0.0
H408 H 0.40786 0.95606 0.53303 0.0
H409 H 0.55381 0.99913 0.49026 0.0
H410 H 0.57201 0.03933 0.49322 0.0
H411 H 0.5371 0.02792 0.46813 0.0
H412 H 0.47706 0.06972 0.47945 0.0
H413 H 0.51255 0.0822 0.50411 0.0
H414 H 0.45473 0.07082 0.50972 0.0
H415 H 0.45659 0.97209 0.56663 0.0
H416 H 0.51304 0.99358 0.59467 0.0
H417 H 0.56324 0.05524 0.53818 0.0
C418 C 0.44598 1.00018 0.47454 0.0
C419 C 0.41613 0.97444 0.47306 0.0
C420 C 0.40075 0.9596 0.49441 0.0
C421 C 0.41756 0.96867 0.51688 0.0
C422 C 0.44942 0.99267 0.51758 0.0
C423 C 0.46275 0.00881 0.49712 0.0
C424 C 0.50081 0.0315 0.50262 0.0
C425 C 0.54342 0.02399 0.48767 0.0
C426 C 0.48535 0.06558 0.49876 0.0
C427 C 0.50805 0.02445 0.52907 0.0
C428 C 0.4779 1.00209 0.5373 0.0
C429 C 0.47985 0.99008 0.56059 0.0
C430 C 0.51256 1.00208 0.57624 0.0
C431 C 0.54265 0.02596 0.5685 0.0
C432 C 0.5406 0.03702 0.54453 0.0
H433 H 0.52324 0.50235 0.46014 0.0
H434 H 0.58456 0.58432 0.4932 0.0
H435 H 0.54082 0.57489 0.5304 0.0
H436 H 0.41488 0.51351 0.48264 0.0
H437 H 0.40254 0.47276 0.48841 0.0
H438 H 0.44203 0.48333 0.46502 0.0
H439 H 0.50482 0.44919 0.48462 0.0
H440 H 0.46473 0.43727 0.50731 0.0
H441 H 0.518 0.45444 0.51614 0.0
H442 H 0.48457 0.56048 0.56177 0.0
H443 H 0.43418 0.53311 0.59038 0.0
H444 H 0.40965 0.46057 0.537 0.0
C445 C 0.52887 0.51745 0.47558 0.0
C446 C 0.55717 0.54396 0.47398 0.0
C447 C 0.56302 0.56378 0.49428 0.0
C448 C 0.53793 0.55889 0.5153 0.0
C449 C 0.50753 0.534 0.51564 0.0
C450 C 0.50398 0.51296 0.49671 0.0
C451 C 0.46868 0.48816 0.50179 0.0
C452 C 0.42975 0.48955 0.48336 0.0
C453 C 0.49036 0.45533 0.50253 0.0
C454 C 0.45306 0.49863 0.5265 0.0
C455 C 0.47523 0.52549 0.53393 0.0
C456 C 0.46705 0.53934 0.55627 0.0
C457 C 0.43779 0.52398 0.57223 0.0
C458 C 0.41809 0.49494 0.56571 0.0
C459 C 0.42402 0.48298 0.54219 0.0
H460 H 0.93915 0.55604 0.53662 0.0
H461 H 0.97878 0.48923 0.592 0.0
H462 H 0.03004 0.46339 0.56318 0.0
H463 H 0.93809 0.50014 0.48781 0.0
H464 H 0.95902 0.52799 0.46601 0.0
H465 H 0.92635 0.5414 0.4914 0.0
H466 H 0.99176 0.57922 0.50291 0.0
H467 H 0.02516 0.56515 0.47793 0.0
H468 H 0.04763 0.56361 0.50816 0.0
H469 H 0.07734 0.44537 0.52921 0.0
H470 H 0.10763 0.42974 0.48958 0.0
H471 H 0.03656 0.50758 0.45597 0.0
C472 C 0.95826 0.53576 0.54257 0.0
C473 C 0.95503 0.5246 0.56647 0.0
C474 C 0.98038 0.49795 0.57365 0.0
C475 C 0.01008 0.4834 0.55755 0.0
C476 C 0.01364 0.49566 0.53438 0.0
C477 C 0.98771 0.52072 0.52667 0.0
C478 C -0.00396 0.52799 0.50034 0.0
C479 C 0.95229 0.52413 0.48552 0.0
C480 C 0.01636 0.56096 0.49716 0.0
C481 C 0.0303 0.50278 0.49442 0.0
C482 C 0.04061 0.48484 0.51446 0.0
C483 C 0.06967 0.45921 0.51334 0.0
C484 C 0.08676 0.4506 0.4908 0.0
C485 C 0.07422 0.46744 0.46979 0.0
C486 C 0.04724 0.49461 0.47179 0.0
H487 H 0.1016 0.00831 0.54705 0.0
H488 H 0.12017 0.91281 0.52148 0.0
H489 H 0.07669 0.92552 0.48481 0.0
H490 H 0.99319 0.01334 0.53416 0.0
H491 H 0.99143 0.05367 0.52439 0.0
H492 H 0.03448 0.04105 0.54512 0.0
H493 H 0.09818 0.06014 0.5165 0.0
H494 H 0.05538 0.07456 0.49614 0.0
H495 H 0.09812 0.0478 0.48536 0.0
H496 H 0.0167 0.94493 0.45624 0.0
H497 H 0.95868 0.97355 0.43278 0.0
H498 H 0.9778 0.05515 0.47862 0.0
C499 C 0.09864 0.99043 0.53324 0.0
C500 C 0.11352 0.95943 0.53737 0.0
C501 C 0.10866 0.93671 0.51883 0.0
C502 C 0.08373 0.94364 0.49798 0.0
C503 C 0.06492 0.97349 0.49586 0.0
C504 C 0.07344 0.99686 0.51259 0.0
C505 C 0.0455 0.02587 0.50767 0.0
C506 C 0.01433 0.03392 0.52911 0.0
C507 C 0.07612 0.05374 0.50101 0.0
C508 C 0.01853 0.0147 0.48623 0.0
C509 C 0.03023 0.98453 0.47955 0.0
C510 C 0.00793 0.96882 0.46097 0.0
C511 C 0.97444 0.98504 0.44806 0.0
C512 C 0.96376 0.01656 0.45392 0.0
C513 C 0.98533 0.03111 0.47367 0.0
H514 H 0.9308 0.45422 0.98341 0.0
H515 H 0.94669 0.53018 0.93185 0.0
H516 H 0.99441 0.55882 0.961 0.0
H517 H 0.92577 0.50488 0.03725 0.0
H518 H 0.95574 0.47669 0.0555 0.0
H519 H 0.92076 0.46352 0.03089 0.0
H520 H 0.9897 0.43353 0.0133 0.0
H521 H 0.02532 0.44758 0.03737 0.0
H522 H 0.04092 0.45473 1.00639 0.0
H523 H 0.04571 0.57649 0.99367 0.0
H524 H 0.08417 0.58855 0.03195 0.0
H525 H 0.03302 0.50169 0.06278 0.0
C526 C 0.94346 0.47723 0.97854 0.0
C527 C 0.9352 0.49011 0.95552 0.0
C528 C 0.95224 0.52018 0.94959 0.0
C529 C 0.97984 0.53639 0.96585 0.0
C530 C 0.98928 0.52228 0.98794 0.0
C531 C 0.97053 0.49388 0.99463 0.0
C532 C 0.98536 0.48423 0.01967 0.0
C533 C 0.94449 0.48223 0.03684 0.0
C534 C 0.0119 0.45317 0.01912 0.0
C535 C 0.01583 0.51153 0.02587 0.0
C536 C 0.0181 0.53293 1.00716 0.0
C537 C 0.04385 0.56015 1.00859 0.0
C538 C 0.06575 0.56665 0.03035 0.0
C539 C 0.06117 0.54616 0.05037 0.0
C540 C 0.03744 0.51765 0.04774 0.0
H541 H 0.05816 0.05164 0.98672 0.0
H542 H 0.00428 0.98921 0.93167 0.0
H543 H 0.94698 0.97028 0.96025 0.0
H544 H 0.04587 0.99744 0.03556 0.0
H545 H 0.03152 0.02751 0.05714 0.0
H546 H 0.06662 0.03691 0.03164 0.0
H547 H 0.01016 0.08114 0.02009 0.0
H548 H 0.97401 0.07089 0.04509 0.0
H549 H 0.95153 0.07157 0.01484 0.0
H550 H 0.89707 0.95734 0.99398 0.0
H551 H 0.86814 0.9423 0.03406 0.0
H552 H 0.95305 0.01287 0.06754 0.0
C553 C 0.03461 0.03374 0.9808 0.0
C554 C 0.0356 0.02198 0.95702 0.0
C555 C 0.00446 0.9984 0.94991 0.0
C556 C 0.97121 0.9879 0.96584 0.0
C557 C 0.96984 1.00105 0.98878 0.0
C558 C 0.00138 0.02276 0.99653 0.0
C559 C 0.99472 0.03099 0.02282 0.0
C560 C 0.03718 0.02269 0.03766 0.0
C561 C 0.98183 0.06572 0.02587 0.0
C562 C 0.95528 0.00973 0.02878 0.0
C563 C 0.9407 0.99338 1.00863 0.0
C564 C 0.90761 0.97023 1.00985 0.0
C565 C 0.89119 0.96199 0.03257 0.0
C566 C 0.90817 0.97686 0.05349 0.0
C567 C 0.93867 1.00206 0.05158 0.0
H568 H 0.42224 0.05203 0.22501 0.0
H569 H 0.2794 0.04718 0.20755 0.0
H570 H 0.26678 0.01257 0.24278 0.0
H571 H 0.4372 0.97481 0.24374 0.0
H572 H 0.47442 0.98321 0.26869 0.0
H573 H 0.47228 0.00943 0.24322 0.0
H574 H 0.45267 0.05619 0.27123 0.0
H575 H 0.45628 0.03033 0.29688 0.0
H576 H 0.40558 0.05293 0.29178 0.0
H577 H 0.27207 0.97256 0.27676 0.0
H578 H 0.29064 0.94107 0.31298 0.0
H579 H 0.42853 0.97565 0.31062 0.0
C580 C 0.38806 0.04457 0.22914 0.0
C581 C 0.35166 0.05265 0.21372 0.0
C582 C 0.30755 0.04193 0.21942 0.0
C583 C 0.30022 0.02183 0.23918 0.0
C584 C 0.3372 0.01318 0.25339 0.0
C585 C 0.37996 0.02515 0.24915 0.0
C586 C 0.41376 0.01271 0.26745 0.0
C587 C 0.45165 0.99393 0.25502 0.0
C588 C 0.43321 0.03964 0.28275 0.0
C589 C 0.38355 0.99142 0.28237 0.0
C590 C 0.33971 0.9915 0.27365 0.0
C591 C 0.30617 0.97266 0.2839 0.0
C592 C 0.31719 0.95443 0.30424 0.0
C593 C 0.36112 0.95561 0.31442 0.0
C594 C 0.39481 0.97402 0.30305 0.0
H595 H 0.5651 0.4515 0.22634 0.0
H596 H 0.70906 0.44657 0.21181 0.0
H597 H 0.72408 0.47916 0.24792 0.0
H598 H 0.56 0.52849 0.24547 0.0
H599 H 0.51993 0.52271 0.26961 0.0
H600 H 0.52013 0.49649 0.24412 0.0
H601 H 0.53079 0.44859 0.27232 0.0
H602 H 0.52911 0.47454 0.29798 0.0
H603 H 0.57658 0.4485 0.29383 0.0
H604 H 0.72198 0.51938 0.28172 0.0
H605 H 0.70512 0.55329 0.31687 0.0
H606 H 0.56328 0.52805 0.31196 0.0
C607 C 0.59987 0.45626 0.23135 0.0
C608 C 0.63601 0.44613 0.21647 0.0
C609 C 0.681 0.45341 0.22326 0.0
C610 C 0.68977 0.47232 0.24354 0.0
C611 C 0.65322 0.48317 0.25717 0.0
C612 C 0.60927 0.47442 0.25189 0.0
C613 C 0.57607 0.48913 0.26952 0.0
C614 C 0.54203 0.51046 0.25638 0.0
C615 C 0.55171 0.46367 0.2843 0.0
C616 C 0.60806 0.50817 0.28515 0.0
C617 C 0.65232 0.50489 0.27744 0.0
C618 C 0.68754 0.52166 0.28816 0.0
C619 C 0.67757 0.54125 0.30788 0.0
C620 C 0.6329 0.54348 0.317 0.0
C621 C 0.5977 0.52691 0.30528 0.0
H622 H 0.57432 0.98478 0.81309 0.0
H623 H 0.70055 0.93295 0.81078 0.0
H624 H 0.7244 0.96372 0.77509 0.0
H625 H 0.56008 0.98797 0.74719 0.0
H626 H 0.53455 0.02638 0.74804 0.0
H627 H 0.52822 1.00019 0.77332 0.0
H628 H 0.56103 0.04317 0.80138 0.0
H629 H 0.56878 0.06913 0.77604 0.0
H630 H 0.6162 0.05932 0.79508 0.0
H631 H 0.73659 1.00268 0.74113 0.0
H632 H 0.72921 0.03795 0.70587 0.0
H633 H 0.593 0.06188 0.72801 0.0
C634 C 0.60661 0.97952 0.80476 0.0
C635 C 0.63549 0.95626 0.81466 0.0
C636 C 0.67755 0.9502 0.80331 0.0
C637 C 0.69165 0.96792 0.78322 0.0
C638 C 0.66301 0.99132 0.77438 0.0
C639 C 0.62072 0.99644 0.78429 0.0
C640 C 0.59536 0.02173 0.77043 0.0
C641 C 0.552 0.00826 0.75906 0.0
C642 C 0.58473 0.05001 0.78671 0.0
C643 C 0.63012 0.03025 0.75129 0.0
C644 C 0.66929 0.01289 0.75425 0.0
C645 C 0.70609 0.01639 0.73869 0.0
C646 C 0.70194 0.0369 0.71893 0.0
C647 C 0.66122 0.05351 0.71469 0.0
C648 C 0.62517 0.05049 0.73136 0.0
H649 H 0.42124 0.5344 0.80892 0.0
H650 H 0.27657 0.54708 0.81758 0.0
H651 H 0.26288 0.51277 0.78229 0.0
H652 H 0.41818 0.53629 0.74219 0.0
H653 H 0.46345 0.50815 0.73942 0.0
H654 H 0.46116 0.53382 0.76522 0.0
H655 H 0.46355 0.48524 0.79329 0.0
H656 H 0.46447 0.45939 0.76756 0.0
H657 H 0.42104 0.45515 0.79018 0.0
H658 H 0.26498 0.47256 0.7485 0.0
H659 H 0.28229 0.44072 0.71237 0.0
H660 H 0.42549 0.45852 0.72266 0.0
C661 C 0.38676 0.53054 0.80297 0.0
C662 C 0.34992 0.54366 0.81585 0.0
C663 C 0.30527 0.53781 0.80771 0.0
C664 C 0.29717 0.51795 0.7879 0.0
C665 C 0.33414 0.50459 0.77604 0.0
C666 C 0.3781 0.51153 0.78272 0.0
C667 C 0.41178 0.49547 0.76607 0.0
C668 C 0.44032 0.51989 0.75241 0.0
C669 C 0.44199 0.47245 0.78012 0.0
C670 C 0.37992 0.47811 0.74918 0.0
C671 C 0.3353 0.48306 0.75564 0.0
C672 C 0.2998 0.46882 0.74314 0.0
C673 C 0.30999 0.45035 0.72281 0.0
C674 C 0.35523 0.44685 0.71476 0.0
C675 C 0.39062 0.46044 0.72852 0.0
H676 H 0.91331 0.47007 0.80062 0.0
H677 H 0.77003 0.45501 0.81313 0.0
H678 H 0.75201 0.49094 0.77933 0.0
H679 H 0.90781 0.55061 0.7867 0.0
H680 H 0.94998 0.54937 0.7632 0.0
H681 H 0.95189 0.52135 0.78753 0.0
H682 H 0.94988 0.47514 0.75709 0.0
H683 H 0.9497 0.50305 0.7327 0.0
H684 H 0.90579 0.47378 0.73462 0.0
H685 H 0.75013 0.53194 0.74527 0.0
H686 H 0.76482 0.56508 0.70925 0.0
H687 H 0.90894 0.55205 0.71907 0.0
C688 C 0.87812 0.47372 0.7959 0.0
C689 C 0.84311 0.45945 0.80946 0.0
C690 C 0.7975 0.46514 0.80278 0.0
C691 C 0.78693 0.48594 0.78382 0.0
C692 C 0.82232 0.50068 0.77153 0.0
C693 C 0.86702 0.4941 0.77693 0.0
C694 C 0.89894 0.51226 0.7607 0.0
C695 C 0.92891 0.53472 0.77542 0.0
C696 C 0.92776 0.48972 0.74536 0.0
C697 C 0.86534 0.53023 0.74534 0.0
C698 C 0.82126 0.52371 0.75204 0.0
C699 C 0.78455 0.53724 0.73997 0.0
C700 C 0.79314 0.55652 0.71979 0.0
C701 C 0.83799 0.56184 0.71182 0.0
C702 C 0.87437 0.54918 0.72524 0.0
H703 H 0.15723 0.0113 0.81255 0.0
H704 H 0.09104 0.09906 0.79458 0.0
H705 H 0.07709 0.07924 0.75309 0.0
H706 H 0.21171 0.99969 0.75324 0.0
H707 H 0.20472 0.95769 0.75448 0.0
H708 H 0.2113 0.97981 0.78197 0.0
H709 H 0.1364 0.95599 0.79794 0.0
H710 H 0.12892 0.93447 0.77024 0.0
H711 H 0.08518 0.9607 0.78062 0.0
H712 H 0.06394 0.04771 0.71525 0.0
H713 H 0.06483 0.01152 0.68073 0.0
H714 H 0.14314 0.94444 0.72241 0.0
C715 C 0.14068 0.02663 0.79968 0.0
C716 C 0.12535 0.05684 0.80668 0.0
C717 C 0.10363 0.07613 0.78947 0.0
C718 C 0.09513 0.06486 0.766 0.0
C719 C 0.10915 0.03446 0.76003 0.0
C720 C 0.13256 0.01593 0.77617 0.0
C721 C 0.14448 0.98428 0.76517 0.0
C722 C 0.19612 0.98013 0.76362 0.0
C723 C 0.12242 0.95727 0.77935 0.0
C724 C 0.12354 0.9876 0.7403 0.0
C725 C 0.10289 0.01663 0.73791 0.0
C726 C 0.08056 0.02517 0.71684 0.0
C727 C 0.08111 0.00425 0.69735 0.0
C728 C 0.10428 0.97505 0.6987 0.0
C729 C 0.12474 0.96632 0.7208 0.0
H730 H 0.06171 0.46968 0.30622 0.0
H731 H 0.20233 0.44111 0.31008 0.0
H732 H 0.21867 0.4714 0.27296 0.0
H733 H 0.0549 0.46457 0.2392 0.0
H734 H 0.01658 0.49739 0.23726 0.0
H735 H 0.01624 0.47262 0.26361 0.0
H736 H 0.02897 0.52163 0.2904 0.0
H737 H 0.03062 0.54645 0.2641 0.0
H738 H 0.07741 0.54639 0.28498 0.0
H739 H 0.22133 0.51002 0.23825 0.0
H740 H 0.20715 0.54386 0.20271 0.0
H741 H 0.06347 0.54286 0.21834 0.0
C742 C 0.09563 0.46911 0.29881 0.0
C743 C 0.13073 0.45277 0.31088 0.0
C744 C 0.17482 0.45291 0.30086 0.0
C745 C 0.1845 0.47041 0.27997 0.0
C746 C 0.1495 0.4871 0.26895 0.0
C747 C 0.10559 0.48568 0.2775 0.0
C748 C 0.07391 0.50485 0.26168 0.0
C749 C 0.03831 0.48359 0.24972 0.0
C750 C 0.05141 0.5314 0.27616 0.0
C751 C 0.10699 0.51784 0.24321 0.0
C752 C 0.15058 0.50782 0.24807 0.0
C753 C 0.18727 0.5177 0.23414 0.0
C754 C 0.17902 0.53727 0.2142 0.0
C755 C 0.13441 0.54639 0.20809 0.0
C756 C 0.09799 0.53667 0.22289 0.0
H757 H 0.92373 0.0414 0.30023 0.0
H758 H 0.78021 0.04625 0.31609 0.0
H759 H 0.76426 0.01221 0.28088 0.0
H760 H 0.91028 0.04305 0.23371 0.0
H761 H 0.95774 0.01711 0.22916 0.0
H762 H 0.95666 0.04299 0.25486 0.0
H763 H 0.9682 0.99501 0.28293 0.0
H764 H 0.96782 0.96889 0.25737 0.0
H765 H 0.92844 0.96293 0.2818 0.0
H766 H 0.76525 0.97246 0.24644 0.0
H767 H 0.7808 0.9407 0.20996 0.0
H768 H 0.92302 0.96498 0.21482 0.0
C769 C 0.88885 0.03603 0.29585 0.0
C770 C 0.85314 0.04675 0.31077 0.0
C771 C 0.80799 0.03888 0.30465 0.0
C772 C 0.79869 0.01914 0.28488 0.0
C773 C 0.83486 0.00792 0.27114 0.0
C774 C 0.87891 0.01696 0.27588 0.0
C775 C 0.91158 1.00236 0.25797 0.0
C776 C 0.93546 0.02789 0.24304 0.0
C777 C 0.94604 0.98104 0.2708 0.0
C778 C 0.87917 0.98331 0.2426 0.0
C779 C 0.83517 0.98632 0.25076 0.0
C780 C 0.79953 0.97022 0.23978 0.0
C781 C 0.80879 0.95181 0.21927 0.0
C782 C 0.85317 0.95007 0.20967 0.0
C783 C 0.88883 0.96559 0.22187 0.0
H784 H 0.33251 0.10041 0.03866 0.0
H785 H 0.24783 0.15954 0.08377 0.0
H786 H 0.20181 0.17338 0.04788 0.0
H787 H 0.33063 0.14875 0.98452 0.0
H788 H 0.32785 0.11552 0.96443 0.0
H789 H 0.35574 0.11187 0.99323 0.0
H790 H 0.30406 0.06499 1.00429 0.0
H791 H 0.27637 0.06825 0.97547 0.0
H792 H 0.24345 0.06962 1.00284 0.0
H793 H 0.16335 0.17903 1.0072 0.0
H794 H 0.13119 0.17246 0.96642 0.0
H795 H 0.24056 0.10912 0.94768 0.0
C796 C 0.30462 0.11661 0.04107 0.0
C797 C 0.29418 0.12916 0.06418 0.0
C798 C 0.25671 0.1497 0.06638 0.0
C799 C 0.23054 0.15781 0.04602 0.0
C800 C 0.24207 0.14512 0.02355 0.0
C801 C 0.27803 0.12472 0.02103 0.0
C802 C 0.28169 0.11266 0.99526 0.0
C803 C 0.32665 0.12282 0.98368 0.0
C804 C 0.27603 0.07676 0.99443 0.0
C805 C 0.24182 0.12924 0.98357 0.0
C806 C 0.21975 0.14811 1.00019 0.0
C807 C 0.18065 0.16455 0.99406 0.0
C808 C 0.16274 0.16077 0.97076 0.0
C809 C 0.18368 0.14069 0.95363 0.0
C810 C 0.22449 0.12537 0.96003 0.0
H811 H 0.8337 0.39553 0.98207 0.0
H812 H 0.73795 0.34809 0.93514 0.0
H813 H 0.68963 0.33654 0.97058 0.0
H814 H 0.82124 0.34441 0.03471 0.0
H815 H 0.82517 0.37639 0.05592 0.0
H816 H 0.8539 0.37883 0.02728 0.0
H817 H 0.81271 0.43102 0.01793 0.0
H818 H 0.78407 0.42887 0.04655 0.0
H819 H 0.75174 0.43243 0.01909 0.0
H820 H 0.6499 0.3325 1.01086 0.0
H821 H 0.61918 0.33905 0.05192 0.0
H822 H 0.74008 0.38979 0.07311 0.0
C823 C 0.80293 0.38224 0.97919 0.0
C824 C 0.79002 0.37239 0.95563 0.0
C825 C 0.74886 0.35574 0.95285 0.0
C826 C 0.72125 0.34899 0.97295 0.0
C827 C 0.73502 0.35913 0.99581 0.0
C828 C 0.77482 0.37556 0.999 0.0
C829 C 0.7805 0.38562 0.02521 0.0
C830 C 0.82271 0.37039 0.03644 0.0
C831 C 0.78235 0.42161 0.02731 0.0
C832 C 0.73739 0.37254 0.03632 0.0
C833 C 0.71192 0.3571 0.01902 0.0
C834 C 0.66979 0.3443 0.02453 0.0
C835 C 0.65265 0.3481 0.04799 0.0
C836 C 0.67734 0.36458 0.06595 0.0
C837 C 0.72084 0.37636 0.06006 0.0
H838 H 0.27211 0.83098 0.46272 0.0
H839 H 0.31347 0.92853 0.46016 0.0
H840 H 0.28623 0.9362 0.50181 0.0
H841 H 0.16653 0.84784 0.49734 0.0
H842 H 0.16934 0.81171 0.5142 0.0
H843 H 0.19244 0.81357 0.48412 0.0
H844 H 0.26957 0.79406 0.50051 0.0
H845 H 0.24689 0.79268 0.53069 0.0
H846 H 0.29697 0.81547 0.52449 0.0
H847 H 0.26245 0.93227 0.54483 0.0
H848 H 0.22812 0.92052 0.58431 0.0
H849 H 0.19098 0.82767 0.55891 0.0
C850 C 0.27466 0.85399 0.47089 0.0
C851 C 0.29532 0.87919 0.45829 0.0
C852 C 0.29805 0.90895 0.46953 0.0
C853 C 0.28278 0.9135 0.49323 0.0
C854 C 0.26364 0.88821 0.50545 0.0
C855 C 0.25802 0.85929 0.49451 0.0
C856 C 0.23388 0.83677 0.51162 0.0
C857 C 0.18781 0.82689 0.5012 0.0
C858 C 0.26361 0.80804 0.51715 0.0
C859 C 0.22801 0.85735 0.53394 0.0
C860 C 0.24633 0.88673 0.52998 0.0
C861 C 0.24744 0.90948 0.54805 0.0
C862 C 0.22829 0.90241 0.57057 0.0
C863 C 0.20713 0.87309 0.57489 0.0
C864 C 0.20708 0.85023 0.55623 0.0
H865 H 0.64686 0.63175 0.48045 0.0
H866 H 0.75063 0.66572 0.43158 0.0
H867 H 0.80267 0.67267 0.46624 0.0
H868 H 0.67514 0.68117 0.53301 0.0
H869 H 0.66456 0.64996 0.55424 0.0
H870 H 0.63382 0.65132 0.52616 0.0
H871 H 0.66049 0.59498 0.51615 0.0
H872 H 0.69138 0.5934 0.54411 0.0
H873 H 0.72019 0.58622 0.51596 0.0
H874 H 0.84507 0.67249 0.50589 0.0
H875 H 0.876 0.66301 0.54649 0.0
H876 H 0.74566 0.627 0.56984 0.0
C877 C 0.68008 0.64157 0.47706 0.0
C878 C 0.69423 0.64889 0.45319 0.0
C879 C 0.73869 0.66041 0.44961 0.0
C880 C 0.76848 0.66442 0.46924 0.0
C881 C 0.75363 0.65649 0.49241 0.0
C882 C 0.71047 0.64518 0.49639 0.0
C883 C 0.70416 0.63574 0.52269 0.0
C884 C 0.66723 0.65575 0.53473 0.0
C885 C 0.69343 0.6005 0.52484 0.0
C886 C 0.75065 0.64328 0.53293 0.0
C887 C 0.77846 0.65551 0.51517 0.0
C888 C 0.82344 0.66314 0.51992 0.0
C889 C 0.84072 0.65762 0.54316 0.0
C890 C 0.81341 0.64437 0.56165 0.0
C891 C 0.7674 0.63763 0.55639 0.0
H892 H 0.74271 0.87837 0.94707 0.0
H893 H 0.62103 0.82745 0.96699 0.0
H894 H 0.64951 0.82213 1.00855 0.0
H895 H 0.82119 0.83302 0.98596 0.0
H896 H 0.85435 0.86719 0.99344 0.0
H897 H 0.82592 0.86491 0.96471 0.0
H898 H 0.78551 0.91762 0.97368 0.0
H899 H 0.81373 0.91986 1.0024 0.0
H900 H 0.75283 0.92165 1.001 0.0
H901 H 0.68783 0.82711 0.04965 0.0
H902 H 0.73612 0.83821 0.08532 0.0
H903 H 0.83411 0.88351 0.03852 0.0
C904 C 0.72256 0.86535 0.95996 0.0
C905 C 0.67958 0.85316 0.95341 0.0
C906 C 0.65412 0.8369 0.97124 0.0
C907 C 0.66996 0.83381 0.99506 0.0
C908 C 0.71174 0.84682 1.00107 0.0
C909 C 0.73804 0.86187 0.98393 0.0
C910 C 0.7811 0.8746 0.99531 0.0
C911 C 0.82313 0.85899 0.98419 0.0
C912 C 0.78339 0.91056 0.99296 0.0
C913 C 0.77462 0.86466 0.02147 0.0
C914 C 0.73429 0.84882 0.0245 0.0
C915 C 0.71989 0.83903 0.04738 0.0
C916 C 0.74748 0.84547 0.06759 0.0
C917 C 0.7894 0.8612 0.06487 0.0
C918 C 0.80285 0.87074 0.04133 0.0
H919 H 0.33362 0.62294 0.98134 0.0
H920 H 0.23114 0.66505 0.93559 0.0
H921 H 0.18317 0.67426 0.97172 0.0
H922 H 0.25601 0.58157 0.01882 0.0
H923 H 0.28915 0.58602 0.04592 0.0
H924 H 0.31667 0.58547 0.01693 0.0
H925 H 0.35381 0.63905 0.02628 0.0
H926 H 0.32624 0.63994 0.05529 0.0
H927 H 0.31868 0.67201 0.03445 0.0
H928 H 0.1459 0.67789 0.01318 0.0
H929 H 0.11904 0.67156 0.05493 0.0
H930 H 0.24419 0.62394 0.07364 0.0
C931 C 0.30145 0.6347 0.97888 0.0
C932 C 0.28666 0.64392 0.9555 0.0
C933 C 0.24357 0.65816 0.9532 0.0
C934 C 0.21614 0.66349 0.97368 0.0
C935 C 0.23184 0.654 0.99639 0.0
C936 C 0.27335 0.63956 0.99902 0.0
C937 C 0.28102 0.62937 0.02506 0.0
C938 C 0.28599 0.59348 0.02677 0.0
C939 C 0.3224 0.6461 0.0359 0.0
C940 C 0.23737 0.64046 0.03685 0.0
C941 C 0.20972 0.6549 0.02001 0.0
C942 C 0.16739 0.66665 0.02643 0.0
C943 C 0.15249 0.663 0.05039 0.0
C944 C 0.17939 0.64738 0.06796 0.0
C945 C 0.22283 0.63637 0.06095 0.0
H946 H 0.84787 0.10868 0.48387 0.0
H947 H 0.75474 0.15875 0.43706 0.0
H948 H 0.70649 0.1708 0.4724 0.0
H949 H 0.76364 0.07307 0.52043 0.0
H950 H 0.79589 0.07559 0.54799 0.0
H951 H 0.82464 0.07313 0.51941 0.0
H952 H 0.86813 0.12431 0.52927 0.0
H953 H 0.83921 0.12698 0.55785 0.0
H954 H 0.83695 0.15932 0.53689 0.0
H955 H 0.66632 0.17517 0.51266 0.0
H956 H 0.63508 0.1689 0.55366 0.0
H957 H 0.75374 0.11541 0.57459 0.0
C958 C 0.8177 0.12262 0.48101 0.0
C959 C 0.80552 0.13306 0.45751 0.0
C960 C 0.7651 0.15061 0.45473 0.0
C961 C 0.73752 0.15765 0.47478 0.0
C962 C 0.75052 0.14691 0.49759 0.0
C963 C 0.78959 0.12962 0.50078 0.0
C964 C 0.7945 0.11914 0.52692 0.0
C965 C 0.79466 0.0831 0.52879 0.0
C966 C 0.83724 0.13329 0.53841 0.0
C967 C 0.75187 0.13303 0.53797 0.0
C968 C 0.72721 0.14917 0.52075 0.0
C969 C 0.68559 0.1628 0.52628 0.0
C970 C 0.66814 0.15916 0.54972 0.0
C971 C 0.69204 0.14199 0.5676 0.0
C972 C 0.73503 0.12934 0.56164 0.0
H973 H 0.33399 0.39819 0.54028 0.0
H974 H 0.24732 0.33961 0.58471 0.0
H975 H 0.2012 0.32691 0.54852 0.0
H976 H 0.24573 0.43057 0.50429 0.0
H977 H 0.27928 0.43194 0.47713 0.0
H978 H 0.30639 0.43469 0.50614 0.0
H979 H 0.35755 0.38751 0.49518 0.0
H980 H 0.33034 0.38438 0.46617 0.0
H981 H 0.33205 0.35092 0.48607 0.0
H982 H 0.16386 0.32159 0.50715 0.0
H983 H 0.13453 0.3273 0.46574 0.0
H984 H 0.24501 0.39061 0.44854 0.0
C985 C 0.30564 0.38233 0.5425 0.0
C986 C 0.29475 0.36955 0.56549 0.0
C987 C 0.25661 0.34957 0.56742 0.0
C988 C 0.23034 0.34216 0.5469 0.0
C989 C 0.24235 0.35509 0.52456 0.0
C990 C 0.27893 0.37501 0.52235 0.0
C991 C 0.28344 0.3873 0.49668 0.0
C992 C 0.27839 0.42325 0.49603 0.0
C993 C 0.32853 0.37689 0.48536 0.0
C994 C 0.24358 0.3712 0.48461 0.0
C995 C 0.22055 0.35253 0.50097 0.0
C996 C 0.18181 0.33607 0.49426 0.0
C997 C 0.16548 0.33942 0.47056 0.0
C998 C 0.18753 0.35921 0.45359 0.0
C999 C 0.22774 0.37479 0.46076 0.0
H1000 H 0.53133 0.01756 0.15751 0.0
H1001 H 0.56292 0.10358 0.11884 0.0
H1002 H 0.64244 0.08646 0.11529 0.0
H1003 H 0.643 0.00805 0.18851 0.0
H1004 H 0.64082 0.96605 0.18481 0.0
H1005 H 0.5892 0.98809 0.18846 0.0
H1006 H 0.55895 0.96392 0.14868 0.0
H1007 H 0.6109 0.94265 0.14438 0.0
H1008 H 0.59087 0.9689 0.1212 0.0
H1009 H 0.71458 0.05672 0.11064 0.0
H1010 H 0.77764 0.0189 0.10915 0.0
H1011 H 0.69728 0.95141 0.14933 0.0
C1012 C 0.55513 0.03338 0.14897 0.0
C1013 C 0.54083 0.06186 0.13834 0.0
C1014 C 0.57311 0.0817 0.12719 0.0
C1015 C 0.6183 0.07212 0.12499 0.0
C1016 C 0.63041 0.04287 0.13422 0.0
C1017 C 0.59999 0.02406 0.1464 0.0
C1018 C 0.62028 0.99252 0.15274 0.0
C1019 C 0.62353 0.98845 0.18027 0.0
C1020 C 0.59366 0.96542 0.14104 0.0
C1021 C 0.66649 0.99608 0.14148 0.0
C1022 C 0.67179 0.0254 0.13112 0.0
C1023 C 0.71111 0.03389 0.119 0.0
C1024 C 0.74653 0.01217 0.11812 0.0
C1025 C 0.74216 0.98226 0.12912 0.0
C1026 C 0.70134 0.97398 0.14059 0.0
H1027 H 0.45079 0.48773 0.15765 0.0
H1028 H 0.41592 0.39486 0.13109 0.0
H1029 H 0.33688 0.41201 0.12561 0.0
H1030 H 0.34067 0.50438 0.18825 0.0
H1031 H 0.34291 0.5451 0.1795 0.0
H1032 H 0.39457 0.52377 0.18499 0.0
H1033 H 0.42281 0.53927 0.14232 0.0
H1034 H 0.37078 0.55977 0.13634 0.0
H1035 H 0.3893 0.52902 0.11629 0.0
H1036 H 0.26474 0.44133 0.11753 0.0
H1037 H 0.20167 0.47867 0.11272 0.0
H1038 H 0.28451 0.55246 0.1441 0.0
C1039 C 0.42635 0.47056 0.15149 0.0
C1040 C 0.43977 0.43991 0.14478 0.0
C1041 C 0.40659 0.41844 0.13644 0.0
C1042 C 0.36159 0.428 0.13314 0.0
C1043 C 0.35028 0.45898 0.13848 0.0
C1044 C 0.38147 0.47974 0.14797 0.0
C1045 C 0.36153 0.51228 0.15072 0.0
C1046 C 0.35981 0.52194 0.17746 0.0
C1047 C 0.38767 0.53649 0.13551 0.0
C1048 C 0.3146 0.50677 0.14071 0.0
C1049 C 0.30873 0.47588 0.13379 0.0
C1050 C 0.2687 0.46547 0.12323 0.0
C1051 C 0.2332 0.48698 0.12038 0.0
C1052 C 0.23796 0.51859 0.12806 0.0
C1053 C 0.2796 0.52854 0.13802 0.0
H1054 H 0.53299 0.99462 0.38504 0.0
H1055 H 0.56598 0.90063 0.40959 0.0
H1056 H 0.64728 0.91488 0.41037 0.0
H1057 H 0.63155 0.00736 0.3474 0.0
H1058 H 0.63647 0.04801 0.35603 0.0
H1059 H 0.58179 0.02932 0.35576 0.0
H1060 H 0.56996 0.04528 0.4005 0.0
H1061 H 0.62484 0.06364 0.40104 0.0
H1062 H 0.61112 0.03363 0.42279 0.0
H1063 H 0.72491 0.94008 0.40877 0.0
H1064 H 0.79232 0.97428 0.40566 0.0
H1065 H 0.70632 0.05222 0.38453 0.0
C1066 C 0.55735 0.9768 0.39012 0.0
C1067 C 0.54339 0.9464 0.39695 0.0
C1068 C 0.57615 0.92401 0.40415 0.0
C1069 C 0.62228 0.93189 0.40466 0.0
C1070 C 0.63477 0.96232 0.39821 0.0
C1071 C 0.60318 0.98441 0.39114 0.0
C1072 C 0.62481 0.01591 0.3863 0.0
C1073 C 0.61827 0.02571 0.3598 0.0
C1074 C 0.6066 0.04109 0.4037 0.0
C1075 C 0.67367 0.00815 0.39163 0.0
C1076 C 0.67887 0.9771 0.39831 0.0
C1077 C 0.72121 0.96445 0.40363 0.0
C1078 C 0.75924 0.98404 0.40182 0.0
C1079 C 0.75448 0.01595 0.39504 0.0
C1080 C 0.71101 0.02806 0.39009 0.0
H1081 H 0.45754 0.51617 0.37596 0.0
H1082 H 0.41931 0.60769 0.40403 0.0
H1083 H 0.33946 0.59075 0.40518 0.0
H1084 H 0.35499 0.5027 0.33927 0.0
H1085 H 0.35417 0.46143 0.34642 0.0
H1086 H 0.40726 0.48219 0.34508 0.0
H1087 H 0.42556 0.4637 0.38857 0.0
H1088 H 0.3722 0.44345 0.3903 0.0
H1089 H 0.38654 0.47253 0.41266 0.0
H1090 H 0.26566 0.56219 0.40734 0.0
H1091 H 0.20124 0.52569 0.40702 0.0
H1092 H 0.28792 0.45247 0.37782 0.0
C1093 C 0.43239 0.53304 0.38179 0.0
C1094 C 0.44485 0.56334 0.38989 0.0
C1095 C 0.4107 0.58442 0.39763 0.0
C1096 C 0.36525 0.57497 0.39843 0.0
C1097 C 0.35456 0.54449 0.3913 0.0
C1098 C 0.38703 0.52398 0.3828 0.0
C1099 C 0.3671 0.49197 0.37746 0.0
C1100 C 0.37111 0.48412 0.35045 0.0
C1101 C 0.38917 0.46642 0.39319 0.0
C1102 C 0.31839 0.4975 0.38469 0.0
C1103 C 0.31191 0.52796 0.39257 0.0
C1104 C 0.27017 0.5384 0.40092 0.0
C1105 C 0.23382 0.51735 0.40076 0.0
C1106 C 0.23933 0.48611 0.3923 0.0
C1107 C 0.28244 0.47612 0.38436 0.0
H1108 H 0.28421 0.05489 0.87637 0.0
H1109 H 0.20153 0.98219 0.90946 0.0
H1110 H 0.2682 0.94823 0.91285 0.0
H1111 H 0.35498 0.00351 0.84172 0.0
H1112 H 0.40609 0.02579 0.84647 0.0
H1113 H 0.35196 0.04528 0.84671 0.0
H1114 H 0.36859 0.06753 0.88936 0.0
H1115 H 0.42299 0.04843 0.88911 0.0
H1116 H 0.3838 0.041 0.91339 0.0
H1117 H 0.34218 0.92154 0.91231 0.0
H1118 H 0.42178 0.90475 0.91032 0.0
H1119 H 0.45805 0.99411 0.87778 0.0
C1120 C 0.28018 0.03193 0.88446 0.0
C1121 C 0.2374 0.02129 0.89251 0.0
C1122 C 0.23373 0.99099 0.90301 0.0
C1123 C 0.27143 0.97139 0.90501 0.0
C1124 C 0.31275 0.98233 0.89652 0.0
C1125 C 0.31764 0.01193 0.88667 0.0
C1126 C 0.36633 0.01782 0.87926 0.0
C1127 C 0.37004 0.02343 0.85191 0.0
C1128 C 0.38662 0.04532 0.89364 0.0
C1129 C 0.38774 0.98684 0.88643 0.0
C1130 C 0.35605 0.96676 0.89629 0.0
C1131 C 0.36744 0.93701 0.90466 0.0
C1132 C 0.41275 0.9277 0.90341 0.0
C1133 C 0.44618 0.94807 0.89387 0.0
C1134 C 0.43324 0.97786 0.88493 0.0
H1135 H 0.69454 0.45467 0.88084 0.0
H1136 H 0.78349 0.53313 0.89667 0.0
H1137 H 0.71765 0.56891 0.89692 0.0
H1138 H 0.62041 0.49693 0.8407 0.0
H1139 H 0.57035 0.47662 0.85079 0.0
H1140 H 0.62454 0.45727 0.85181 0.0
H1141 H 0.61424 0.44648 0.89761 0.0
H1142 H 0.55978 0.46533 0.8966 0.0
H1143 H 0.60208 0.47876 0.91764 0.0
H1144 H 0.64119 0.59562 0.89697 0.0
H1145 H 0.56026 0.61054 0.89791 0.0
H1146 H 0.52366 0.51453 0.87997 0.0
C1147 C 0.70018 0.47933 0.88455 0.0
C1148 C 0.74399 0.49112 0.88888 0.0
C1149 C 0.75008 0.52363 0.89331 0.0
C1150 C 0.71298 0.54413 0.89341 0.0
C1151 C 0.67025 0.53177 0.88875 0.0
C1152 C 0.66376 0.50013 0.88439 0.0
C1153 C 0.61452 0.49262 0.88005 0.0
C1154 C 0.60704 0.48013 0.8543 0.0
C1155 C 0.59661 0.46944 0.89912 0.0
C1156 C 0.59417 0.52487 0.88316 0.0
C1157 C 0.62672 0.54723 0.88806 0.0
C1158 C 0.61539 0.57838 0.8929 0.0
C1159 C 0.56939 0.58665 0.89334 0.0
C1160 C 0.53555 0.56378 0.88894 0.0
C1161 C 0.54851 0.53275 0.88317 0.0
H1162 H 0.26747 1.00267 0.6066 0.0
H1163 H 0.26041 0.96031 0.67784 0.0
H1164 H 0.33089 0.98693 0.68936 0.0
H1165 H 0.38655 0.9942 0.60015 0.0
H1166 H 0.39446 0.03076 0.58436 0.0
H1167 H 0.34125 0.0104 0.58225 0.0
H1168 H 0.29968 0.06041 0.59727 0.0
H1169 H 0.353 0.08074 0.59968 0.0
H1170 H 0.31614 0.07801 0.62553 0.0
H1171 H 0.40427 0.01445 0.6926 0.0
H1172 H 0.47873 0.03952 0.68628 0.0
H1173 H 0.43873 0.06488 0.61343 0.0
C1174 C 0.28058 0.99932 0.62467 0.0
C1175 C 0.25848 0.97939 0.64128 0.0
C1176 C 0.27696 0.97524 0.6647 0.0
C1177 C 0.31679 0.99048 0.67154 0.0
C1178 C 0.33792 0.00981 0.65478 0.0
C1179 C 0.32077 0.01418 0.63179 0.0
C1180 C 0.35214 0.03445 0.61679 0.0
C1181 C 0.36963 0.01637 0.59459 0.0
C1182 C 0.32884 0.06523 0.60939 0.0
C1183 C 0.38966 0.04033 0.63491 0.0
C1184 C 0.38055 0.0261 0.65676 0.0
C1185 C 0.41161 0.02615 0.67571 0.0
C1186 C 0.45374 0.04043 0.67199 0.0
C1187 C 0.46417 0.05452 0.64955 0.0
C1188 C 0.43121 0.05509 0.63103 0.0
H1189 H 0.52636 0.50047 0.64151 0.0
H1190 H 0.56206 0.40379 0.62527 0.0
H1191 H 0.64217 0.41929 0.62132 0.0
H1192 H 0.60006 0.53542 0.59962 0.0
H1193 H 0.6148 0.56831 0.61852 0.0
H1194 H 0.56061 0.54949 0.62197 0.0
H1195 H 0.57688 0.53953 0.66733 0.0
H1196 H 0.63073 0.55892 0.66415 0.0
H1197 H 0.62818 0.51956 0.676 0.0
H1198 H 0.71738 0.44583 0.61659 0.0
H1199 H 0.78397 0.48059 0.61545 0.0
H1200 H 0.6986 0.55995 0.63448 0.0
C1201 C 0.55104 0.48236 0.63766 0.0
C1202 C 0.53783 0.45088 0.63376 0.0
C1203 C 0.5713 0.42806 0.62838 0.0
C1204 C 0.61688 0.43664 0.62599 0.0
C1205 C 0.62839 0.46808 0.62908 0.0
C1206 C 0.59657 0.49051 0.6351 0.0
C1207 C 0.61761 0.52281 0.63688 0.0
C1208 C 0.59704 0.54532 0.61813 0.0
C1209 C 0.61309 0.53597 0.66262 0.0
C1210 C 0.66627 0.51504 0.63086 0.0
C1211 C 0.67173 0.48338 0.62631 0.0
C1212 C 0.71361 0.47064 0.62027 0.0
C1213 C 0.7512 0.49066 0.61955 0.0
C1214 C 0.74668 0.52308 0.62492 0.0
C1215 C 0.70335 0.53536 0.63021 0.0
H1216 H 0.23744 0.50627 0.61418 0.0
H1217 H 0.22453 0.44987 0.67891 0.0
H1218 H 0.15455 0.47831 0.68981 0.0
H1219 H 0.19021 0.57972 0.63799 0.0
H1220 H 0.15929 0.58855 0.61077 0.0
H1221 H 0.21125 0.56645 0.60919 0.0
H1222 H 0.16974 0.52135 0.58681 0.0
H1223 H 0.11804 0.54361 0.58795 0.0
H1224 H 0.11968 0.5044 0.6001 0.0
H1225 H 0.08535 0.51061 0.69295 0.0
H1226 H 0.01426 0.53901 0.6852 0.0
H1227 H 0.06872 0.57307 0.61725 0.0
C1228 C 0.21981 0.50022 0.63068 0.0
C1229 C 0.236 0.47614 0.64586 0.0
C1230 C 0.2122 0.46829 0.66714 0.0
C1231 C 0.17282 0.48449 0.67356 0.0
C1232 C 0.15753 0.50822 0.65832 0.0
C1233 C 0.17968 0.51571 0.63708 0.0
C1234 C 0.15317 0.53979 0.62271 0.0
C1235 C 0.1801 0.57045 0.62002 0.0
C1236 C 0.13933 0.52648 0.59794 0.0
C1237 C 0.11245 0.54424 0.63905 0.0
C1238 C 0.11628 0.52629 0.65972 0.0
C1239 C 0.08199 0.52495 0.67692 0.0
C1240 C 0.04176 0.54122 0.67237 0.0
C1241 C 0.03595 0.55833 0.65065 0.0
C1242 C 0.07246 0.56074 0.63423 0.0
H1243 H 0.80122 0.05896 0.63567 0.0
H1244 H 0.71788 0.98462 0.6055 0.0
H1245 H 0.7868 0.95546 0.59417 0.0
H1246 H 0.89141 0.05474 0.59082 0.0
H1247 H 0.9353 0.06228 0.61267 0.0
H1248 H 0.87942 0.07824 0.61712 0.0
H1249 H 0.87514 0.05161 0.65915 0.0
H1250 H 0.93093 0.03558 0.65486 0.0
H1251 H 0.88412 0.00987 0.66155 0.0
H1252 H 0.86444 0.93352 0.5875 0.0
H1253 H 0.94533 0.9195 0.58697 0.0
H1254 H 0.97783 0.00795 0.622 0.0
C1255 C 0.79731 0.03668 0.6265 0.0
C1256 C 0.75401 0.02413 0.62148 0.0
C1257 C 0.7506 0.99476 0.60958 0.0
C1258 C 0.78956 0.97805 0.60299 0.0
C1259 C 0.83163 0.99103 0.60837 0.0
C1260 C 0.83576 0.01966 0.61985 0.0
C1261 C 0.88488 0.02784 0.62443 0.0
C1262 C 0.89855 0.05753 0.61042 0.0
C1263 C 0.8943 0.03142 0.65161 0.0
C1264 C 0.90771 0.99897 0.6142 0.0
C1265 C 0.87643 0.97822 0.60476 0.0
C1266 C 0.8893 0.94964 0.59472 0.0
C1267 C 0.93539 0.94192 0.59451 0.0
C1268 C 0.96807 0.96259 0.60448 0.0
C1269 C 0.95383 0.99161 0.61424 0.0
H1270 H 0.19552 0.55107 0.87773 0.0
H1271 H 0.27576 0.48055 0.91481 0.0
H1272 H 0.21206 0.44325 0.912 0.0
H1273 H 0.08952 0.5322 0.9054 0.0
H1274 H 0.05747 0.53954 0.87829 0.0
H1275 H 0.10979 0.56007 0.88342 0.0
H1276 H 0.13953 0.53989 0.84213 0.0
H1277 H 0.08765 0.51858 0.83724 0.0
H1278 H 0.14116 0.49827 0.83632 0.0
H1279 H 0.13895 0.41402 0.90578 0.0
H1280 H 0.0595 0.39736 0.90057 0.0
H1281 H 0.02939 0.48649 0.86596 0.0
C1282 C 0.19956 0.52794 0.88556 0.0
C1283 C 0.24052 0.51877 0.89656 0.0
C1284 C 0.2446 0.4881 0.90629 0.0
C1285 C 0.20878 0.46667 0.90464 0.0
C1286 C 0.16934 0.47619 0.89302 0.0
C1287 C 0.16441 0.50618 0.88385 0.0
C1288 C 0.11824 0.51084 0.87274 0.0
C1289 C 0.09222 0.53721 0.88575 0.0
C1290 C 0.12189 0.51727 0.84549 0.0
C1291 C 0.09759 0.47902 0.87758 0.0
C1292 C 0.12767 0.45919 0.88905 0.0
C1293 C 0.11514 0.42923 0.89663 0.0
C1294 C 0.06999 0.41989 0.89345 0.0
C1295 C 0.03808 0.44061 0.8829 0.0
C1296 C 0.05284 0.46995 0.87397 0.0
H1297 H 0.95658 0.00653 0.86971 0.0
H1298 H 0.92103 0.10018 0.89405 0.0
H1299 H 0.8414 0.08381 0.89834 0.0
H1300 H 0.84838 0.98985 0.83695 0.0
H1301 H 0.84865 0.94938 0.84644 0.0
H1302 H 0.90136 0.96983 0.84189 0.0
H1303 H 0.9254 0.95532 0.88547 0.0
H1304 H 0.87232 0.93564 0.89047 0.0
H1305 H 0.88989 0.96674 0.91044 0.0
H1306 H 0.76899 0.05602 0.90521 0.0
H1307 H 0.7043 0.02012 0.90906 0.0
H1308 H 0.78618 0.94405 0.88017 0.0
C1309 C 0.93168 0.0239 0.87497 0.0
C1310 C 0.94473 0.05468 0.88135 0.0
C1311 C 0.91153 0.07652 0.88896 0.0
C1312 C 0.86632 0.06743 0.89153 0.0
C1313 C 0.85495 0.03646 0.88634 0.0
C1314 C 0.88636 0.01514 0.87779 0.0
C1315 C 0.86568 0.98279 0.87507 0.0
C1316 C 0.86603 0.97235 0.8485 0.0
C1317 C 0.88976 0.95872 0.89134 0.0
C1318 C 0.81802 0.98922 0.88383 0.0
C1319 C 0.81271 0.02031 0.89029 0.0
C1320 C 0.77242 0.03171 0.89985 0.0
C1321 C 0.73597 0.01099 0.90215 0.0
C1322 C 0.73996 0.9792 0.89481 0.0
C1323 C 0.78188 0.96819 0.88586 0.0
H1324 H 0.95711 0.4933 0.37733 0.0
H1325 H 0.92408 0.40467 0.41188 0.0
H1326 H 0.84512 0.42223 0.41696 0.0
H1327 H 0.89147 0.54083 0.41561 0.0
H1328 H 0.87327 0.56765 0.39238 0.0
H1329 H 0.92652 0.54743 0.38945 0.0
H1330 H 0.90182 0.52484 0.34804 0.0
H1331 H 0.84884 0.54551 0.35058 0.0
H1332 H 0.84915 0.50367 0.34574 0.0
H1333 H 0.77147 0.45031 0.42048 0.0
H1334 H 0.70554 0.48564 0.41931 0.0
H1335 H 0.78684 0.55636 0.38298 0.0
C1336 C 0.93306 0.47728 0.38546 0.0
C1337 C 0.94669 0.44757 0.39414 0.0
C1338 C 0.91436 0.42754 0.40508 0.0
C1339 C 0.86948 0.43731 0.40811 0.0
C1340 C 0.85758 0.46715 0.40011 0.0
C1341 C 0.88822 0.48672 0.38878 0.0
C1342 C 0.86699 0.51803 0.38257 0.0
C1343 C 0.891 0.54507 0.3958 0.0
C1344 C 0.86667 0.52331 0.3551 0.0
C1345 C 0.81968 0.51299 0.39226 0.0
C1346 C 0.81504 0.48351 0.40233 0.0
C1347 C 0.77454 0.47341 0.41252 0.0
C1348 C 0.73734 0.49372 0.41183 0.0
C1349 C 0.74093 0.52381 0.40103 0.0
C1350 C 0.78297 0.53364 0.3915 0.0
H1351 H 0.2079 0.95833 0.3731 0.0
H1352 H 0.28785 0.03081 0.40816 0.0
H1353 H 0.22412 0.06777 0.40418 0.0
H1354 H 0.14974 0.00955 0.33059 0.0
H1355 H 0.09704 0.98846 0.33305 0.0
H1356 H 0.14998 0.96813 0.33722 0.0
H1357 H 0.1238 0.94884 0.37945 0.0
H1358 H 0.07057 0.96849 0.3751 0.0
H1359 H 0.10441 0.97714 0.40134 0.0
H1360 H 0.15042 0.09597 0.39838 0.0
H1361 H 0.06995 0.11097 0.39546 0.0
H1362 H 0.03959 0.0204 0.36325 0.0
C1363 C 0.21215 0.98195 0.37996 0.0
C1364 C 0.25297 0.99161 0.39091 0.0
C1365 C 0.25693 0.02279 0.39966 0.0
C1366 C 0.22107 0.04409 0.39731 0.0
C1367 C 0.18162 0.03392 0.38604 0.0
C1368 C 0.17685 0.00352 0.3777 0.0
C1369 C 0.13001 0.99784 0.36769 0.0
C1370 C 0.13183 0.99057 0.34052 0.0
C1371 C 0.10578 0.97154 0.38174 0.0
C1372 C 0.10875 0.02953 0.37237 0.0
C1373 C 0.13922 0.05022 0.38258 0.0
C1374 C 0.12632 0.08012 0.39014 0.0
C1375 C 0.08054 0.08849 0.38829 0.0
C1376 C 0.04834 0.06684 0.37921 0.0
C1377 C 0.06327 0.03761 0.37015 0.0
H1378 H 0.9575 0.50896 0.14201 0.0
H1379 H 0.9198 0.60416 0.12253 0.0
H1380 H 0.83927 0.58857 0.12206 0.0
H1381 H 0.87909 0.47139 0.10381 0.0
H1382 H 0.86682 0.4397 0.12435 0.0
H1383 H 0.92118 0.45876 0.12528 0.0
H1384 H 0.91013 0.47139 0.17069 0.0
H1385 H 0.85601 0.45193 0.17002 0.0
H1386 H 0.85995 0.49196 0.18032 0.0
H1387 H 0.7633 0.56216 0.12231 0.0
H1388 H 0.69696 0.527 0.12397 0.0
H1389 H 0.78515 0.44873 0.14171 0.0
C1390 C 0.93228 0.52671 0.13815 0.0
C1391 C 0.94485 0.55784 0.13251 0.0
C1392 C 0.91087 0.58019 0.127 0.0
C1393 C 0.86508 0.57157 0.12666 0.0
C1394 C 0.85397 0.54049 0.13173 0.0
C1395 C 0.88655 0.51844 0.13744 0.0
C1396 C 0.86589 0.48629 0.14108 0.0
C1397 C 0.88434 0.46265 0.12252 0.0
C1398 C 0.87344 0.47472 0.16708 0.0
C1399 C 0.81659 0.49369 0.13645 0.0
C1400 C 0.81038 0.5251 0.13121 0.0
C1401 C 0.76771 0.53753 0.12644 0.0
C1402 C 0.73027 0.51735 0.12739 0.0
C1403 C 0.73586 0.48508 0.13288 0.0
C1404 C 0.77974 0.47319 0.13723 0.0
H1405 H 0.19665 0.05222 0.14197 0.0
H1406 H 0.28577 0.97315 0.1282 0.0
H1407 H 0.21979 0.9377 0.12686 0.0
H1408 H 0.11941 0.01068 0.18083 0.0
H1409 H 0.07014 0.03095 0.16964 0.0
H1410 H 0.12445 0.05018 0.16947 0.0
H1411 H 0.11713 0.06032 0.12342 0.0
H1412 H 0.0626 0.0415 0.12356 0.0
H1413 H 0.10628 0.02777 0.10344 0.0
H1414 H 0.14358 0.91125 0.12538 0.0
H1415 H 0.06266 0.89621 0.12382 0.0
H1416 H 0.02525 0.9924 0.14057 0.0
C1417 C 0.20226 0.02749 0.13854 0.0
C1418 C 0.2462 0.01544 0.13513 0.0
C1419 C 0.25228 0.98286 0.13095 0.0
C1420 C 0.21509 0.96253 0.13017 0.0
C1421 C 0.17221 0.97512 0.13387 0.0
C1422 C 0.16565 0.00682 0.13801 0.0
C1423 C 0.11617 0.01444 0.14137 0.0
C1424 C 0.10703 0.02731 0.16684 0.0
C1425 C 0.09959 0.03735 0.12178 0.0
C1426 C 0.09593 0.98216 0.13813 0.0
C1427 C 0.12866 0.95974 0.1338 0.0
C1428 C 0.11759 0.92853 0.129 0.0
C1429 C 0.07165 0.9202 0.12816 0.0
C1430 C 0.03769 0.94303 0.13228 0.0
C1431 C 0.05031 0.97421 0.13775 0.0
H1432 H 0.47967 0.17866 0.12128 0.0
H1433 H 0.38366 0.19477 0.1793 0.0
H1434 H 0.42956 0.24058 0.19269 0.0
H1435 H 0.58184 0.20125 0.15399 0.0
H1436 H 0.60649 0.21891 0.12751 0.0
H1437 H 0.56845 0.18606 0.12447 0.0
H1438 H 0.51721 0.21852 0.09573 0.0
H1439 H 0.55546 0.25108 0.09835 0.0
H1440 H 0.4964 0.25621 0.10553 0.0
H1441 H 0.48307 0.28834 0.1964 0.0
H1442 H 0.53369 0.33364 0.18838 0.0
H1443 H 0.59369 0.28371 0.12848 0.0
C1444 C 0.46795 0.19156 0.13693 0.0
C1445 C 0.42757 0.18319 0.14909 0.0
C1446 C 0.41429 0.20076 0.16961 0.0
C1447 C 0.44036 0.22667 0.1774 0.0
C1448 C 0.47992 0.23424 0.16473 0.0
C1449 C 0.49345 0.21698 0.14492 0.0
C1450 C 0.5351 0.23062 0.13307 0.0
C1451 C 0.57534 0.20785 0.13488 0.0
C1452 C 0.52543 0.23966 0.10663 0.0
C1453 C 0.54239 0.2592 0.14869 0.0
C1454 C 0.51083 0.26077 0.16717 0.0
C1455 C 0.50854 0.28685 0.1824 0.0
C1456 C 0.53774 0.31233 0.17793 0.0
C1457 C 0.56866 0.31146 0.15842 0.0
C1458 C 0.57181 0.28422 0.14418 0.0
H1459 H 0.60474 0.72315 0.3756 0.0
H1460 H 0.50868 0.65827 0.34448 0.0
H1461 H 0.45609 0.70206 0.33614 0.0
H1462 H 0.53104 0.76348 0.40754 0.0
H1463 H 0.55521 0.80207 0.40412 0.0
H1464 H 0.59053 0.76805 0.40113 0.0
H1465 H 0.6156 0.7858 0.35847 0.0
H1466 H 0.58102 0.82046 0.36151 0.0
H1467 H 0.57341 0.79476 0.33598 0.0
H1468 H 0.40702 0.75073 0.34033 0.0
H1469 H 0.36968 0.79983 0.35409 0.0
H1470 H 0.49874 0.83263 0.38175 0.0
C1471 C 0.57404 0.71863 0.3655 0.0
C1472 C 0.56144 0.68763 0.35979 0.0
C1473 C 0.51959 0.6821 0.34809 0.0
C1474 C 0.48933 0.70683 0.34349 0.0
C1475 C 0.5015 0.73706 0.35061 0.0
C1476 C 0.54345 0.74314 0.36086 0.0
C1477 C 0.54601 0.77657 0.37002 0.0
C1478 C 0.55627 0.77756 0.3973 0.0
C1479 C 0.58108 0.79552 0.35563 0.0
C1480 C 0.49835 0.78768 0.36467 0.0
C1481 C 0.47317 0.76491 0.35313 0.0
C1482 C 0.42683 0.76905 0.34879 0.0
C1483 C 0.40577 0.79698 0.3567 0.0
C1484 C 0.43101 0.82019 0.36906 0.0
C1485 C 0.47814 0.81552 0.37235 0.0
H1486 H 0.48066 0.83187 0.87149 0.0
H1487 H 0.61058 0.79442 0.84895 0.0
H1488 H 0.57277 0.74451 0.83767 0.0
H1489 H 0.44774 0.76768 0.90195 0.0
H1490 H 0.38828 0.77076 0.895 0.0
H1491 H 0.42295 0.80531 0.89503 0.0
H1492 H 0.39857 0.81736 0.85107 0.0
H1493 H 0.3637 0.78262 0.85089 0.0
H1494 H 0.4063 0.78806 0.82796 0.0
H1495 H 0.52316 0.69611 0.836 0.0
H1496 H 0.46991 0.65373 0.84692 0.0
H1497 H 0.37377 0.72239 0.87288 0.0
C1498 C 0.50131 0.81362 0.86351 0.0
C1499 C 0.54884 0.81726 0.86106 0.0
C1500 C 0.57419 0.79246 0.85076 0.0
C1501 C 0.55287 0.76402 0.8443 0.0
C1502 C 0.50619 0.76086 0.8481 0.0
C1503 C 0.4808 0.78518 0.85743 0.0
C1504 C 0.43299 0.77482 0.86348 0.0
C1505 C 0.42243 0.77993 0.89045 0.0
C1506 C 0.39835 0.79172 0.84738 0.0
C1507 C 0.43574 0.74029 0.85726 0.0
C1508 C 0.47779 0.73287 0.84768 0.0
C1509 C 0.48986 0.70187 0.84285 0.0
C1510 C 0.45924 0.67794 0.84893 0.0
C1511 C 0.41715 0.68497 0.85992 0.0
C1512 C 0.40475 0.71657 0.86343 0.0
H1513 H 0.48944 0.32364 0.62297 0.0
H1514 H 0.38705 0.30441 0.67721 0.0
H1515 H 0.43092 0.25772 0.69038 0.0
H1516 H 0.50813 0.24642 0.6054 0.0
H1517 H 0.568 0.25158 0.60049 0.0
H1518 H 0.53034 0.28446 0.59746 0.0
H1519 H 0.57802 0.31527 0.62884 0.0
H1520 H 0.61545 0.28215 0.63224 0.0
H1521 H 0.58767 0.29859 0.6583 0.0
H1522 H 0.48267 0.20974 0.69419 0.0
H1523 H 0.53405 0.16472 0.68695 0.0
H1524 H 0.60307 0.21739 0.63133 0.0
C1525 C 0.47605 0.30988 0.63777 0.0
C1526 C 0.43444 0.31775 0.64896 0.0
C1527 C 0.41871 0.29893 0.66831 0.0
C1528 C 0.44359 0.27247 0.67598 0.0
C1529 C 0.48443 0.26544 0.66437 0.0
C1530 C 0.50043 0.28377 0.64569 0.0
C1531 C 0.54349 0.27047 0.63496 0.0
C1532 C 0.53708 0.26277 0.608 0.0
C1533 C 0.58352 0.29297 0.63882 0.0
C1534 C 0.54875 0.24104 0.64995 0.0
C1535 C 0.51473 0.23866 0.66708 0.0
C1536 C 0.51008 0.21184 0.68133 0.0
C1537 C 0.53968 0.18649 0.6773 0.0
C1538 C 0.57366 0.18825 0.65934 0.0
C1539 C 0.57891 0.21617 0.64602 0.0
H1540 H 0.09082 0.79657 0.65022 0.0
H1541 H 0.98045 0.86294 0.65616 0.0
H1542 H 0.92748 0.81959 0.66506 0.0
H1543 H 0.03265 0.74346 0.61734 0.0
H1544 H 0.05724 0.70855 0.63023 0.0
H1545 H 0.08836 0.74475 0.63061 0.0
H1546 H 0.09664 0.74098 0.67708 0.0
H1547 H 0.06569 0.70449 0.67682 0.0
H1548 H 0.04683 0.73651 0.69557 0.0
H1549 H 0.88438 0.76872 0.66634 0.0
H1550 H 0.85532 0.71519 0.65836 0.0
H1551 H 0.99331 0.68188 0.65037 0.0
C1552 C 0.05595 0.80197 0.65461 0.0
C1553 C 0.03982 0.83307 0.65315 0.0
C1554 C 0.9935 0.83926 0.65769 0.0
C1555 C 0.9632 0.81478 0.66278 0.0
C1556 C 0.97964 0.78412 0.66313 0.0
C1557 C 0.02506 0.77764 0.65929 0.0
C1558 C 0.0329 0.74263 0.65697 0.0
C1559 C 0.054 0.73439 0.63233 0.0
C1560 C 0.06225 0.73044 0.67786 0.0
C1561 C 0.98473 0.73062 0.65896 0.0
C1562 C 0.95454 0.75475 0.6631 0.0
C1563 C 0.90781 0.74953 0.66357 0.0
C1564 C 0.89153 0.71902 0.65906 0.0
C1565 C 0.92191 0.69427 0.65375 0.0
C1566 C 0.96909 0.7002 0.65448 0.0
H1567 H 0.87959 0.28745 0.89033 0.0
H1568 H 0.9548 0.34615 0.84092 0.0
H1569 H 0.00672 0.30182 0.83208 0.0
H1570 H 0.96905 0.25239 0.91647 0.0
H1571 H 0.94436 0.21396 0.91989 0.0
H1572 H 0.90847 0.24793 0.91853 0.0
H1573 H 0.86449 0.2241 0.88243 0.0
H1574 H 0.8997 0.18961 0.88398 0.0
H1575 H 0.89506 0.21114 0.85608 0.0
H1576 H 0.0586 0.25284 0.8348 0.0
H1577 H 0.09923 0.20373 0.84595 0.0
H1578 H 0.98654 0.17836 0.89238 0.0
C1579 C 0.90553 0.29035 0.87668 0.0
C1580 C 0.91244 0.31972 0.86567 0.0
C1581 C 0.9481 0.32336 0.84883 0.0
C1582 C 0.97799 0.2984 0.84391 0.0
C1583 C 0.97135 0.26987 0.85582 0.0
C1584 C 0.93517 0.26563 0.87142 0.0
C1585 C 0.93721 0.23394 0.88357 0.0
C1586 C 0.93996 0.23728 0.91123 0.0
C1587 C 0.89672 0.21348 0.87605 0.0
C1588 C 0.98098 0.22146 0.87319 0.0
C1589 C 0.00043 0.24219 0.85713 0.0
C1590 C 0.04304 0.23617 0.84698 0.0
C1591 C 0.06603 0.20828 0.85346 0.0
C1592 C 0.04637 0.18687 0.86999 0.0
C1593 C 0.00295 0.19377 0.87954 0.0
H1594 H 0.88439 0.21977 0.37655 0.0
H1595 H 0.98312 0.15135 0.35305 0.0
H1596 H 0.03664 0.19401 0.34286 0.0
H1597 H 0.91731 0.28384 0.33121 0.0
H1598 H 0.9075 0.3139 0.3535 0.0
H1599 H 0.87402 0.27851 0.35378 0.0
H1600 H 0.89701 0.2689 0.39831 0.0
H1601 H 0.93079 0.30391 0.3981 0.0
H1602 H 0.95622 0.26688 0.40609 0.0
H1603 H 0.08473 0.24356 0.34351 0.0
H1604 H 0.12011 0.29495 0.35307 0.0
H1605 H 0.98819 0.33093 0.37367 0.0
C1606 C 0.91631 0.21403 0.368 0.0
C1607 C 0.92923 0.18249 0.36479 0.0
C1608 C 0.9722 0.17553 0.35484 0.0
C1609 C 0.00289 0.19961 0.34912 0.0
C1610 C 0.98989 0.23061 0.35324 0.0
C1611 C 0.94715 0.23788 0.36198 0.0
C1612 C 0.94311 0.27259 0.36731 0.0
C1613 C 0.90843 0.28813 0.35043 0.0
C1614 C 0.93111 0.27838 0.39403 0.0
C1615 C 0.99079 0.28337 0.36155 0.0
C1616 C 0.01735 0.25906 0.35319 0.0
C1617 C 0.0639 0.26299 0.34941 0.0
C1618 C 0.08381 0.29229 0.35484 0.0
C1619 C 0.05717 0.31715 0.36408 0.0
C1620 C 0.00981 0.31262 0.36652 0.0
H1621 H 0.99184 0.82679 0.13636 0.0
H1622 H 0.87007 0.79793 0.17413 0.0
H1623 H 0.9105 0.75048 0.1888 0.0
H1624 H 0.01949 0.75522 0.114 0.0
H1625 H 0.07991 0.76021 0.1165 0.0
H1626 H 0.04407 0.79395 0.11334 0.0
H1627 H 0.07779 0.81728 0.15264 0.0
H1628 H 0.11351 0.78325 0.15605 0.0
H1629 H 0.07601 0.79473 0.18016 0.0
H1630 H 0.96028 0.70236 0.19315 0.0
H1631 H 0.01124 0.65769 0.18482 0.0
H1632 H 0.1005 0.71871 0.14455 0.0
C1633 C 0.9736 0.81087 0.1481 0.0
C1634 C 0.92751 0.81606 0.15399 0.0
C1635 C 0.90532 0.79457 0.16944 0.0
C1636 C 0.92817 0.76764 0.17791 0.0
C1637 C 0.97334 0.76292 0.17111 0.0
C1638 C -0.00424 0.78418 0.15662 0.0
C1639 C 0.04222 0.7724 0.14937 0.0
C1640 C 0.04663 0.7703 0.12168 0.0
C1641 C 0.07959 0.79315 0.16021 0.0
C1642 C 0.04187 0.74025 0.16095 0.0
C1643 C 0.00229 0.73547 0.17392 0.0
C1644 C 0.99184 0.70621 0.18369 0.0
C1645 C 0.0212 0.681 0.17905 0.0
C1646 C 0.06055 0.68511 0.16478 0.0
C1647 C 0.0719 0.71536 0.15652 0.0
loop_
_geom_bond_atom_site_label_1
_geom_bond_atom_site_label_2
_geom_bond_distance
_geom_bond_site_symmetry_2
_ccdc_geom_bond_type
Sc0 O3 2.025 . S
Sc0 O10 2.105 . S
Sc0 O13 2.105 . S
Sc0 O16 2.105 . S
Sc0 O19 2.105 . S
Sc1 O3 2.025 . S
Sc1 O11 2.105 . S
Sc1 O15 2.105 . S
Sc1 O17 2.105 . S
Sc1 O21 2.105 . S
Sc2 O3 2.025 . S
Sc2 O12 2.105 . S
Sc2 O14 2.105 . S
Sc2 O18 2.105 . S
Sc2 O20 2.105 . S
O3 Sc0 2.025 . S
O3 Sc1 2.025 . S
O3 Sc2 2.025 . S
C4 O10 1.268 . S
C4 O20 1.268 . S
C5 O11 1.268 . S
C5 O19 1.268 . S
C6 O12 1.268 . S
C6 O21 1.268 . S
C7 O13 1.268 . S
C7 O17 1.268 . S
C8 O14 1.268 . S
C8 O16 1.268 . S
C9 O15 1.268 . S
C9 O18 1.268 . S
O10 Sc0 2.105 . S
O10 C4 1.268 . S
O11 Sc1 2.105 . S
O11 C5 1.268 . S
O12 Sc2 2.105 . S
O12 C6 1.268 . S
O13 Sc0 2.105 . S
O13 C7 1.268 . S
O14 Sc2 2.105 . S
O14 C8 1.268 . S
O15 Sc1 2.105 . S
O15 C9 1.268 . S
O16 Sc0 2.105 . S
O16 C8 1.268 . S
O17 Sc1 2.105 . S
O17 C7 1.268 . S
O18 Sc2 2.105 . S
O18 C9 1.268 . S
O19 Sc0 2.105 . S
O19 C5 1.268 . S
O20 Sc2 2.105 . S
O20 C4 1.268 . S
O21 Sc1 2.105 . S
O21 C6 1.268 . S
Sc22 O25 2.025 . S
Sc22 O32 2.105 . S
Sc22 O35 2.105 . S
Sc22 O38 2.105 . S
Sc22 O41 2.105 . S
Sc23 O25 2.025 . S
Sc23 O33 2.105 . S
Sc23 O37 2.105 . S
Sc23 O39 2.105 . S
Sc23 O43 2.105 . S
Sc24 O25 2.025 . S
Sc24 O34 2.105 . S
Sc24 O36 2.105 . S
Sc24 O40 2.105 . S
Sc24 O42 2.105 . S
O25 Sc22 2.025 . S
O25 Sc23 2.025 . S
O25 Sc24 2.025 . S
C26 O32 1.268 . S
C26 O42 1.268 . S
C27 O33 1.268 . S
C27 O41 1.268 . S
C28 O34 1.268 . S
C28 O43 1.268 . S
C29 O35 1.268 . S
C29 O39 1.268 . S
C30 O36 1.268 . S
C30 O38 1.268 . S
C31 O37 1.268 . S
C31 O40 1.268 . S
O32 Sc22 2.105 . S
O32 C26 1.268 . S
O33 Sc23 2.105 . S
O33 C27 1.268 . S
O34 Sc24 2.105 . S
O34 C28 1.268 . S
O35 Sc22 2.105 . S
O35 C29 1.268 . S
O36 Sc24 2.105 . S
O36 C30 1.268 . S
O37 Sc23 2.105 . S
O37 C31 1.268 . S
O38 Sc22 2.105 . S
O38 C30 1.268 . S
O39 Sc23 2.105 . S
O39 C29 1.268 . S
O40 Sc24 2.105 . S
O40 C31 1.268 . S
O41 Sc22 2.105 . S
O41 C27 1.268 . S
O42 Sc24 2.105 . S
O42 C26 1.268 . S
O43 Sc23 2.105 . S
O43 C28 1.268 . S
Sc44 O47 2.025 . S
Sc44 O54 2.105 . S
Sc44 O57 2.105 . S
Sc44 O60 2.105 . S
Sc44 O63 2.105 . S
Sc45 O47 2.025 . S
Sc45 O55 2.105 . S
Sc45 O59 2.105 . S
Sc45 O61 2.105 . S
Sc45 O65 2.105 . S
Sc46 O47 2.025 . S
Sc46 O56 2.105 . S
Sc46 O58 2.105 . S
Sc46 O62 2.105 . S
Sc46 O64 2.105 . S
O47 Sc44 2.025 . S
O47 Sc45 2.025 . S
O47 Sc46 2.025 . S
C48 O54 1.268 . S
C48 O64 1.268 . S
C49 O55 1.268 . S
C49 O63 1.268 . S
C50 O56 1.268 . S
C50 O65 1.268 . S
C51 O57 1.268 . S
C51 O61 1.268 . S
C52 O58 1.268 . S
C52 O60 1.268 . S
C53 O59 1.268 . S
C53 O62 1.268 . S
O54 Sc44 2.105 . S
O54 C48 1.268 . S
O55 Sc45 2.105 . S
O55 C49 1.268 . S
O56 Sc46 2.105 . S
O56 C50 1.268 . S
O57 Sc44 2.105 . S
O57 C51 1.268 . S
O58 Sc46 2.105 . S
O58 C52 1.268 . S
O59 Sc45 2.105 . S
O59 C53 1.268 . S
O60 Sc44 2.105 . S
O60 C52 1.268 . S
O61 Sc45 2.105 . S
O61 C51 1.268 . S
O62 Sc46 2.105 . S
O62 C53 1.268 . S
O63 Sc44 2.105 . S
O63 C49 1.268 . S
O64 Sc46 2.105 . S
O64 C48 1.268 . S
O65 Sc45 2.105 . S
O65 C50 1.268 . S
Sc66 O69 2.025 . S
Sc66 O76 2.105 . S
Sc66 O79 2.105 . S
Sc66 O82 2.105 . S
Sc66 O85 2.105 . S
Sc67 O69 2.025 . S
Sc67 O77 2.105 . S
Sc67 O81 2.105 . S
Sc67 O83 2.105 . S
Sc67 O87 2.105 . S
Sc68 O69 2.025 . S
Sc68 O78 2.105 . S
Sc68 O80 2.105 . S
Sc68 O84 2.105 . S
Sc68 O86 2.105 . S
O69 Sc66 2.025 . S
O69 Sc67 2.025 . S
O69 Sc68 2.025 . S
C70 O76 1.268 . S
C70 O86 1.268 . S
C71 O77 1.268 . S
C71 O85 1.268 . S
C72 O78 1.268 . S
C72 O87 1.268 . S
C73 O79 1.268 . S
C73 O83 1.268 . S
C74 O80 1.268 . S
C74 O82 1.268 . S
C75 O81 1.268 . S
C75 O84 1.268 . S
O76 Sc66 2.105 . S
O76 C70 1.268 . S
O77 Sc67 2.105 . S
O77 C71 1.268 . S
O78 Sc68 2.105 . S
O78 C72 1.268 . S
O79 Sc66 2.105 . S
O79 C73 1.268 . S
O80 Sc68 2.105 . S
O80 C74 1.268 . S
O81 Sc67 2.105 . S
O81 C75 1.268 . S
O82 Sc66 2.105 . S
O82 C74 1.268 . S
O83 Sc67 2.105 . S
O83 C73 1.268 . S
O84 Sc68 2.105 . S
O84 C75 1.268 . S
O85 Sc66 2.105 . S
O85 C71 1.268 . S
O86 Sc68 2.105 . S
O86 C70 1.268 . S
O87 Sc67 2.105 . S
O87 C72 1.268 . S
Sc88 O91 2.025 . S
Sc88 O98 2.105 . S
Sc88 O101 2.105 . S
Sc88 O104 2.105 . S
Sc88 O107 2.105 . S
Sc89 O91 2.025 . S
Sc89 O99 2.105 . S
Sc89 O103 2.105 . S
Sc89 O105 2.105 . S
Sc89 O109 2.105 . S
Sc90 O91 2.025 . S
Sc90 O100 2.105 . S
Sc90 O102 2.105 . S
Sc90 O106 2.105 . S
Sc90 O108 2.105 . S
O91 Sc88 2.025 . S
O91 Sc89 2.025 . S
O91 Sc90 2.025 . S
C92 O98 1.268 . S
C92 O108 1.268 . S
C93 O99 1.268 . S
C93 O107 1.268 . S
C94 O100 1.268 . S
C94 O109 1.268 . S
C95 O101 1.268 . S
C95 O105 1.268 . S
C96 O102 1.268 . S
C96 O104 1.268 . S
C97 O103 1.268 . S
C97 O106 1.268 . S
O98 Sc88 2.105 . S
O98 C92 1.268 . S
O99 Sc89 2.105 . S
O99 C93 1.268 . S
O100 Sc90 2.105 . S
O100 C94 1.268 . S
O101 Sc88 2.105 . S
O101 C95 1.268 . S
O102 Sc90 2.105 . S
O102 C96 1.268 . S
O103 Sc89 2.105 . S
O103 C97 1.268 . S
O104 Sc88 2.105 . S
O104 C96 1.268 . S
O105 Sc89 2.105 . S
O105 C95 1.268 . S
O106 Sc90 2.105 . S
O106 C97 1.268 . S
O107 Sc88 2.105 . S
O107 C93 1.268 . S
O108 Sc90 2.105 . S
O108 C92 1.268 . S
O109 Sc89 2.105 . S
O109 C94 1.268 . S
Sc110 O113 2.025 . S
Sc110 O120 2.105 . S
Sc110 O123 2.105 . S
Sc110 O126 2.105 . S
Sc110 O129 2.105 . S
Sc111 O113 2.025 . S
Sc111 O121 2.105 . S
Sc111 O125 2.105 . S
Sc111 O127 2.105 . S
Sc111 O131 2.105 . S
Sc112 O113 2.025 . S
Sc112 O122 2.105 . S
Sc112 O124 2.105 . S
Sc112 O128 2.105 . S
Sc112 O130 2.105 . S
O113 Sc110 2.025 . S
O113 Sc111 2.025 . S
O113 Sc112 2.025 . S
C114 O120 1.268 . S
C114 O130 1.268 . S
C115 O121 1.268 . S
C115 O129 1.268 . S
C116 O122 1.268 . S
C116 O131 1.268 . S
C117 O123 1.268 . S
C117 O127 1.268 . S
C118 O124 1.268 . S
C118 O126 1.268 . S
C119 O125 1.268 . S
C119 O128 1.268 . S
O120 Sc110 2.105 . S
O120 C114 1.268 . S
O121 Sc111 2.105 . S
O121 C115 1.268 . S
O122 Sc112 2.105 . S
O122 C116 1.268 . S
O123 Sc110 2.105 . S
O123 C117 1.268 . S
O124 Sc112 2.105 . S
O124 C118 1.268 . S
O125 Sc111 2.105 . S
O125 C119 1.268 . S
O126 Sc110 2.105 . S
O126 C118 1.268 . S
O127 Sc111 2.105 . S
O127 C117 1.268 . S
O128 Sc112 2.105 . S
O128 C119 1.268 . S
O129 Sc110 2.105 . S
O129 C115 1.268 . S
O130 Sc112 2.105 . S
O130 C114 1.268 . S
O131 Sc111 2.105 . S
O131 C116 1.268 . S
Sc132 O135 2.025 . S
Sc132 O142 2.105 . S
Sc132 O145 2.105 . S
Sc132 O148 2.105 . S
Sc132 O151 2.105 . S
Sc133 O135 2.025 . S
Sc133 O143 2.105 . S
Sc133 O147 2.105 . S
Sc133 O149 2.105 . S
Sc133 O153 2.105 . S
Sc134 O135 2.025 . S
Sc134 O144 2.105 . S
Sc134 O146 2.105 . S
Sc134 O150 2.105 . S
Sc134 O152 2.105 . S
O135 Sc132 2.025 . S
O135 Sc133 2.025 . S
O135 Sc134 2.025 . S
C136 O142 1.268 . S
C136 O152 1.268 . S
C137 O143 1.268 . S
C137 O151 1.268 . S
C138 O144 1.268 . S
C138 O153 1.268 . S
C139 O145 1.268 . S
C139 O149 1.268 . S
C140 O146 1.268 . S
C140 O148 1.268 . S
C141 O147 1.268 . S
C141 O150 1.268 . S
O142 Sc132 2.105 . S
O142 C136 1.268 . S
O143 Sc133 2.105 . S
O143 C137 1.268 . S
O144 Sc134 2.105 . S
O144 C138 1.268 . S
O145 Sc132 2.105 . S
O145 C139 1.268 . S
O146 Sc134 2.105 . S
O146 C140 1.268 . S
O147 Sc133 2.105 . S
O147 C141 1.268 . S
O148 Sc132 2.105 . S
O148 C140 1.268 . S
O149 Sc133 2.105 . S
O149 C139 1.268 . S
O150 Sc134 2.105 . S
O150 C141 1.268 . S
O151 Sc132 2.105 . S
O151 C137 1.268 . S
O152 Sc134 2.105 . S
O152 C136 1.268 . S
O153 Sc133 2.105 . S
O153 C138 1.268 . S
Sc154 O157 2.025 . S
Sc154 O164 2.105 . S
Sc154 O167 2.105 . S
Sc154 O170 2.105 . S
Sc154 O173 2.105 . S
Sc155 O157 2.025 . S
Sc155 O165 2.105 . S
Sc155 O169 2.105 . S
Sc155 O171 2.105 . S
Sc155 O175 2.105 . S
Sc156 O157 2.025 . S
Sc156 O166 2.105 . S
Sc156 O168 2.105 . S
Sc156 O172 2.105 . S
Sc156 O174 2.105 . S
O157 Sc154 2.025 . S
O157 Sc155 2.025 . S
O157 Sc156 2.025 . S
C158 O164 1.268 . S
C158 O174 1.268 . S
C159 O165 1.268 . S
C159 O173 1.268 . S
C160 O166 1.268 . S
C160 O175 1.268 . S
C161 O167 1.268 . S
C161 O171 1.268 . S
C162 O168 1.268 . S
C162 O170 1.268 . S
C163 O169 1.268 . S
C163 O172 1.268 . S
O164 Sc154 2.105 . S
O164 C158 1.268 . S
O165 Sc155 2.105 . S
O165 C159 1.268 . S
O166 Sc156 2.105 . S
O166 C160 1.268 . S
O167 Sc154 2.105 . S
O167 C161 1.268 . S
O168 Sc156 2.105 . S
O168 C162 1.268 . S
O169 Sc155 2.105 . S
O169 C163 1.268 . S
O170 Sc154 2.105 . S
O170 C162 1.268 . S
O171 Sc155 2.105 . S
O171 C161 1.268 . S
O172 Sc156 2.105 . S
O172 C163 1.268 . S
O173 Sc154 2.105 . S
O173 C159 1.268 . S
O174 Sc156 2.105 . S
O174 C158 1.268 . S
O175 Sc155 2.105 . S
O175 C160 1.268 . S
Sc176 O179 2.025 . S
Sc176 O186 2.105 . S
Sc176 O189 2.105 . S
Sc176 O192 2.105 . S
Sc176 O195 2.105 . S
Sc177 O179 2.025 . S
Sc177 O187 2.105 . S
Sc177 O191 2.105 1_655 S
Sc177 O193 2.105 . S
Sc177 O197 2.105 . S
Sc178 O179 2.025 . S
Sc178 O188 2.105 . S
Sc178 O190 2.105 . S
Sc178 O194 2.105 1_655 S
Sc178 O196 2.105 . S
O179 Sc176 2.025 . S
O179 Sc177 2.025 . S
O179 Sc178 2.025 . S
C180 O186 1.268 . S
C180 O196 1.268 . S
C181 O187 1.268 . S
C181 O195 1.268 . S
C182 O188 1.268 . S
C182 O197 1.268 . S
C183 O189 1.268 . S
C183 O193 1.268 . S
C184 O190 1.268 . S
C184 O192 1.268 . S
C185 O191 1.268 . S
C185 O194 1.268 . S
O186 Sc176 2.105 . S
O186 C180 1.268 . S
O187 Sc177 2.105 . S
O187 C181 1.268 . S
O188 Sc178 2.105 . S
O188 C182 1.268 . S
O189 Sc176 2.105 . S
O189 C183 1.268 . S
O190 Sc178 2.105 . S
O190 C184 1.268 . S
O191 Sc177 2.105 1_455 S
O191 C185 1.268 . S
O192 Sc176 2.105 . S
O192 C184 1.268 . S
O193 Sc177 2.105 . S
O193 C183 1.268 . S
O194 Sc178 2.105 1_455 S
O194 C185 1.268 . S
O195 Sc176 2.105 . S
O195 C181 1.268 . S
O196 Sc178 2.105 . S
O196 C180 1.268 . S
O197 Sc177 2.105 . S
O197 C182 1.268 . S
Sc198 O201 2.025 . S
Sc198 O208 2.105 . S
Sc198 O211 2.105 . S
Sc198 O214 2.105 . S
Sc198 O217 2.105 . S
Sc199 O201 2.025 . S
Sc199 O209 2.105 . S
Sc199 O213 2.105 1_455 S
Sc199 O215 2.105 . S
Sc199 O219 2.105 . S
Sc200 O201 2.025 . S
Sc200 O210 2.105 . S
Sc200 O212 2.105 . S
Sc200 O216 2.105 1_455 S
Sc200 O218 2.105 . S
O201 Sc198 2.025 . S
O201 Sc199 2.025 . S
O201 Sc200 2.025 . S
C202 O208 1.268 . S
C202 O218 1.268 . S
C203 O209 1.268 . S
C203 O217 1.268 . S
C204 O210 1.268 . S
C204 O219 1.268 . S
C205 O211 1.268 . S
C205 O215 1.268 . S
C206 O212 1.268 . S
C206 O214 1.268 . S
C207 O213 1.268 . S
C207 O216 1.268 . S
O208 Sc198 2.105 . S
O208 C202 1.268 . S
O209 Sc199 2.105 . S
O209 C203 1.268 . S
O210 Sc200 2.105 . S
O210 C204 1.268 . S
O211 Sc198 2.105 . S
O211 C205 1.268 . S
O212 Sc200 2.105 . S
O212 C206 1.268 . S
O213 Sc199 2.105 1_655 S
O213 C207 1.268 . S
O214 Sc198 2.105 . S
O214 C206 1.268 . S
O215 Sc199 2.105 . S
O215 C205 1.268 . S
O216 Sc200 2.105 1_655 S
O216 C207 1.268 . S
O217 Sc198 2.105 . S
O217 C203 1.268 . S
O218 Sc200 2.105 . S
O218 C202 1.268 . S
O219 Sc199 2.105 . S
O219 C204 1.268 . S
Sc220 O223 2.025 . S
Sc220 O230 2.105 . S
Sc220 O233 2.105 . S
Sc220 O236 2.105 . S
Sc220 O239 2.105 . S
Sc221 O223 2.025 . S
Sc221 O231 2.105 . S
Sc221 O235 2.105 1_655 S
Sc221 O237 2.105 . S
Sc221 O241 2.105 . S
Sc222 O223 2.025 . S
Sc222 O232 2.105 . S
Sc222 O234 2.105 . S
Sc222 O238 2.105 1_655 S
Sc222 O240 2.105 . S
O223 Sc220 2.025 . S
O223 Sc221 2.025 . S
O223 Sc222 2.025 . S
C224 O230 1.268 . S
C224 O240 1.268 . S
C225 O231 1.268 . S
C225 O239 1.268 . S
C226 O232 1.268 . S
C226 O241 1.268 . S
C227 O233 1.268 . S
C227 O237 1.268 . S
C228 O234 1.268 . S
C228 O236 1.268 . S
C229 O235 1.268 . S
C229 O238 1.268 . S
O230 Sc220 2.105 . S
O230 C224 1.268 . S
O231 Sc221 2.105 . S
O231 C225 1.268 . S
O232 Sc222 2.105 . S
O232 C226 1.268 . S
O233 Sc220 2.105 . S
O233 C227 1.268 . S
O234 Sc222 2.105 . S
O234 C228 1.268 . S
O235 Sc221 2.105 1_455 S
O235 C229 1.268 . S
O236 Sc220 2.105 . S
O236 C228 1.268 . S
O237 Sc221 2.105 . S
O237 C227 1.268 . S
O238 Sc222 2.105 1_455 S
O238 C229 1.268 . S
O239 Sc220 2.105 . S
O239 C225 1.268 . S
O240 Sc222 2.105 . S
O240 C224 1.268 . S
O241 Sc221 2.105 . S
O241 C226 1.268 . S
Sc242 O245 2.025 . S
Sc242 O252 2.105 . S
Sc242 O255 2.105 . S
Sc242 O258 2.105 . S
Sc242 O261 2.105 1_455 S
Sc243 O245 2.025 . S
Sc243 O253 2.105 1_455 S
Sc243 O257 2.105 . S
Sc243 O259 2.105 . S
Sc243 O263 2.105 . S
Sc244 O245 2.025 . S
Sc244 O254 2.105 . S
Sc244 O256 2.105 . S
Sc244 O260 2.105 . S
Sc244 O262 2.105 . S
O245 Sc242 2.025 . S
O245 Sc243 2.025 . S
O245 Sc244 2.025 . S
C246 O252 1.268 . S
C246 O262 1.268 . S
C247 O253 1.268 . S
C247 O261 1.268 . S
C248 O254 1.268 . S
C248 O263 1.268 . S
C249 O255 1.268 . S
C249 O259 1.268 . S
C250 O256 1.268 . S
C250 O258 1.268 . S
C251 O257 1.268 . S
C251 O260 1.268 . S
O252 Sc242 2.105 . S
O252 C246 1.268 . S
O253 Sc243 2.105 1_655 S
O253 C247 1.268 . S
O254 Sc244 2.105 . S
O254 C248 1.268 . S
O255 Sc242 2.105 . S
O255 C249 1.268 . S
O256 Sc244 2.105 . S
O256 C250 1.268 . S
O257 Sc243 2.105 . S
O257 C251 1.268 . S
O258 Sc242 2.105 . S
O258 C250 1.268 . S
O259 Sc243 2.105 . S
O259 C249 1.268 . S
O260 Sc244 2.105 . S
O260 C251 1.268 . S
O261 Sc242 2.105 1_655 S
O261 C247 1.268 . S
O262 Sc244 2.105 . S
O262 C246 1.268 . S
O263 Sc243 2.105 . S
O263 C248 1.268 . S
Sc264 O267 2.025 . S
Sc264 O274 2.105 . S
Sc264 O277 2.105 1_455 S
Sc264 O280 2.105 . S
Sc264 O283 2.105 . S
Sc265 O267 2.025 . S
Sc265 O275 2.105 . S
Sc265 O279 2.105 . S
Sc265 O281 2.105 1_455 S
Sc265 O285 2.105 . S
Sc266 O267 2.025 . S
Sc266 O276 2.105 . S
Sc266 O278 2.105 . S
Sc266 O282 2.105 . S
Sc266 O284 2.105 . S
O267 Sc264 2.025 . S
O267 Sc265 2.025 . S
O267 Sc266 2.025 . S
C268 O274 1.268 . S
C268 O284 1.268 . S
C269 O275 1.268 . S
C269 O283 1.268 . S
C270 O276 1.268 . S
C270 O285 1.268 . S
C271 O277 1.268 . S
C271 O281 1.268 . S
C272 O278 1.268 . S
C272 O280 1.268 . S
C273 O279 1.268 . S
C273 O282 1.268 . S
O274 Sc264 2.105 . S
O274 C268 1.268 . S
O275 Sc265 2.105 . S
O275 C269 1.268 . S
O276 Sc266 2.105 . S
O276 C270 1.268 . S
O277 Sc264 2.105 1_655 S
O277 C271 1.268 . S
O278 Sc266 2.105 . S
O278 C272 1.268 . S
O279 Sc265 2.105 . S
O279 C273 1.268 . S
O280 Sc264 2.105 . S
O280 C272 1.268 . S
O281 Sc265 2.105 1_655 S
O281 C271 1.268 . S
O282 Sc266 2.105 . S
O282 C273 1.268 . S
O283 Sc264 2.105 . S
O283 C269 1.268 . S
O284 Sc266 2.105 . S
O284 C268 1.268 . S
O285 Sc265 2.105 . S
O285 C270 1.268 . S
Sc286 O289 2.025 . S
Sc286 O296 2.105 . S
Sc286 O299 2.105 . S
Sc286 O302 2.105 . S
Sc286 O305 2.105 . S
Sc287 O289 2.025 . S
Sc287 O297 2.105 . S
Sc287 O301 2.105 . S
Sc287 O303 2.105 . S
Sc287 O307 2.105 1_655 S
Sc288 O289 2.025 . S
Sc288 O298 2.105 1_655 S
Sc288 O300 2.105 . S
Sc288 O304 2.105 . S
Sc288 O306 2.105 . S
O289 Sc286 2.025 . S
O289 Sc287 2.025 . S
O289 Sc288 2.025 . S
C290 O296 1.268 . S
C290 O306 1.268 . S
C291 O297 1.268 . S
C291 O305 1.268 . S
C292 O298 1.268 . S
C292 O307 1.268 . S
C293 O299 1.268 . S
C293 O303 1.268 . S
C294 O300 1.268 . S
C294 O302 1.268 . S
C295 O301 1.268 . S
C295 O304 1.268 . S
O296 Sc286 2.105 . S
O296 C290 1.268 . S
O297 Sc287 2.105 . S
O297 C291 1.268 . S
O298 Sc288 2.105 1_455 S
O298 C292 1.268 . S
O299 Sc286 2.105 . S
O299 C293 1.268 . S
O300 Sc288 2.105 . S
O300 C294 1.268 . S
O301 Sc287 2.105 . S
O301 C295 1.268 . S
O302 Sc286 2.105 . S
O302 C294 1.268 . S
O303 Sc287 2.105 . S
O303 C293 1.268 . S
O304 Sc288 2.105 . S
O304 C295 1.268 . S
O305 Sc286 2.105 . S
O305 C291 1.268 . S
O306 Sc288 2.105 . S
O306 C290 1.268 . S
O307 Sc287 2.105 1_455 S
O307 C292 1.268 . S
Sc308 O311 2.025 . S
Sc308 O318 2.105 . S
Sc308 O321 2.105 1_455 S
Sc308 O324 2.105 . S
Sc308 O327 2.105 . S
Sc309 O311 2.025 . S
Sc309 O319 2.105 . S
Sc309 O323 2.105 . S
Sc309 O325 2.105 1_455 S
Sc309 O329 2.105 . S
Sc310 O311 2.025 . S
Sc310 O320 2.105 . S
Sc310 O322 2.105 . S
Sc310 O326 2.105 . S
Sc310 O328 2.105 . S
O311 Sc308 2.025 . S
O311 Sc309 2.025 . S
O311 Sc310 2.025 . S
C312 O318 1.268 . S
C312 O328 1.268 . S
C313 O319 1.268 . S
C313 O327 1.268 . S
C314 O320 1.268 . S
C314 O329 1.268 . S
C315 O321 1.268 . S
C315 O325 1.268 . S
C316 O322 1.268 . S
C316 O324 1.268 . S
C317 O323 1.268 . S
C317 O326 1.268 . S
O318 Sc308 2.105 . S
O318 C312 1.268 . S
O319 Sc309 2.105 . S
O319 C313 1.268 . S
O320 Sc310 2.105 . S
O320 C314 1.268 . S
O321 Sc308 2.105 1_655 S
O321 C315 1.268 . S
O322 Sc310 2.105 . S
O322 C316 1.268 . S
O323 Sc309 2.105 . S
O323 C317 1.268 . S
O324 Sc308 2.105 . S
O324 C316 1.268 . S
O325 Sc309 2.105 1_655 S
O325 C315 1.268 . S
O326 Sc310 2.105 . S
O326 C317 1.268 . S
O327 Sc308 2.105 . S
O327 C313 1.268 . S
O328 Sc310 2.105 . S
O328 C312 1.268 . S
O329 Sc309 2.105 . S
O329 C314 1.268 . S
Sc330 O333 2.025 . S
Sc330 O340 2.105 . S
Sc330 O343 2.105 1_655 S
Sc330 O346 2.105 . S
Sc330 O349 2.105 . S
Sc331 O333 2.025 . S
Sc331 O341 2.105 . S
Sc331 O345 2.105 . S
Sc331 O347 2.105 1_655 S
Sc331 O351 2.105 . S
Sc332 O333 2.025 . S
Sc332 O342 2.105 . S
Sc332 O344 2.105 . S
Sc332 O348 2.105 . S
Sc332 O350 2.105 . S
O333 Sc330 2.025 . S
O333 Sc331 2.025 . S
O333 Sc332 2.025 . S
C334 O340 1.268 . S
C334 O350 1.268 . S
C335 O341 1.268 . S
C335 O349 1.268 . S
C336 O342 1.268 . S
C336 O351 1.268 . S
C337 O343 1.268 . S
C337 O347 1.268 . S
C338 O344 1.268 . S
C338 O346 1.268 . S
C339 O345 1.268 . S
C339 O348 1.268 . S
O340 Sc330 2.105 . S
O340 C334 1.268 . S
O341 Sc331 2.105 . S
O341 C335 1.268 . S
O342 Sc332 2.105 . S
O342 C336 1.268 . S
O343 Sc330 2.105 1_455 S
O343 C337 1.268 . S
O344 Sc332 2.105 . S
O344 C338 1.268 . S
O345 Sc331 2.105 . S
O345 C339 1.268 . S
O346 Sc330 2.105 . S
O346 C338 1.268 . S
O347 Sc331 2.105 1_455 S
O347 C337 1.268 . S
O348 Sc332 2.105 . S
O348 C339 1.268 . S
O349 Sc330 2.105 . S
O349 C335 1.268 . S
O350 Sc332 2.105 . S
O350 C334 1.268 . S
O351 Sc331 2.105 . S
O351 C336 1.268 . S
H352 C364 0.930 . S
H353 C366 0.930 . S
H354 C367 0.930 . S
H355 C371 0.959 . S
H356 C371 0.959 . S
H357 C371 0.961 . S
H358 C372 0.960 1_554 S
H359 C372 0.961 . S
H360 C372 0.959 1_554 S
H361 C375 0.929 . S
H362 C376 0.931 . S
H363 C378 0.930 . S
C364 H352 0.930 . S
C364 C365 1.399 . S
C364 C369 1.399 . S
C365 C364 1.399 . S
C365 C366 1.376 1_545 S
C366 H353 0.930 . S
C366 C365 1.376 1_565 S
C366 C367 1.388 . S
C367 H354 0.930 . S
C367 C366 1.388 . S
C367 C368 1.390 . S
C368 C367 1.390 . S
C368 C369 1.394 1_565 S
C368 C374 1.465 1_554 S
C369 C364 1.399 . S
C369 C368 1.394 1_545 S
C369 C370 1.516 1_554 S
C370 C369 1.516 1_556 S
C370 C371 1.502 . S
C370 C372 1.561 . S
C370 C373 1.526 . S
C371 H355 0.959 . S
C371 H356 0.959 . S
C371 H357 0.961 . S
C371 C370 1.502 . S
C372 H358 0.960 1_556 S
C372 H359 0.961 . S
C372 H360 0.959 1_556 S
C372 C370 1.561 . S
C373 C370 1.526 . S
C373 C374 1.396 1_545 S
C373 C378 1.390 . S
C374 C368 1.465 1_556 S
C374 C373 1.396 1_565 S
C374 C375 1.399 . S
C375 H361 0.929 . S
C375 C374 1.399 . S
C375 C376 1.385 . S
C376 H362 0.931 . S
C376 C375 1.385 . S
C376 C377 1.389 . S
C377 C376 1.389 . S
C377 C378 1.387 1_565 S
C378 H363 0.930 . S
C378 C373 1.390 . S
C378 C377 1.387 1_545 S
H379 C391 0.930 . S
H380 C393 0.930 . S
H381 C394 0.930 . S
H382 C398 0.959 . S
H383 C398 0.959 . S
H384 C398 0.961 1_554 S
H385 C399 0.960 . S
H386 C399 0.961 . S
H387 C399 0.959 . S
H388 C402 0.929 . S
H389 C403 0.931 . S
H390 C405 0.930 . S
C391 H379 0.930 . S
C391 C392 1.399 . S
C391 C396 1.399 . S
C392 C391 1.399 . S
C392 C393 1.376 . S
C393 H380 0.930 . S
C393 C392 1.376 . S
C393 C394 1.388 . S
C394 H381 0.930 . S
C394 C393 1.388 . S
C394 C395 1.390 . S
C395 C394 1.390 . S
C395 C396 1.394 . S
C395 C401 1.465 1_554 S
C396 C391 1.399 . S
C396 C395 1.394 . S
C396 C397 1.516 1_554 S
C397 C396 1.516 1_556 S
C397 C398 1.502 . S
C397 C399 1.561 . S
C397 C400 1.526 . S
C398 H382 0.959 . S
C398 H383 0.959 . S
C398 H384 0.961 1_556 S
C398 C397 1.502 . S
C399 H385 0.960 . S
C399 H386 0.961 . S
C399 H387 0.959 . S
C399 C397 1.561 . S
C400 C397 1.526 . S
C400 C401 1.396 . S
C400 C405 1.390 . S
C401 C395 1.465 1_556 S
C401 C400 1.396 . S
C401 C402 1.399 . S
C402 H388 0.929 . S
C402 C401 1.399 . S
C402 C403 1.385 . S
C403 H389 0.931 . S
C403 C402 1.385 . S
C403 C404 1.389 . S
C404 C403 1.389 . S
C404 C405 1.387 . S
C405 H390 0.930 . S
C405 C400 1.390 . S
C405 C404 1.387 . S
H406 C418 0.930 . S
H407 C420 0.930 . S
H408 C421 0.930 . S
H409 C425 0.959 . S
H410 C425 0.959 . S
H411 C425 0.961 . S
H412 C426 0.960 . S
H413 C426 0.961 . S
H414 C426 0.959 . S
H415 C429 0.929 . S
H416 C430 0.931 . S
H417 C432 0.930 . S
C418 H406 0.930 . S
C418 C419 1.399 1_545 S
C418 C423 1.399 . S
C419 C418 1.399 1_565 S
C419 C420 1.376 . S
C420 H407 0.930 . S
C420 C419 1.376 . S
C420 C421 1.388 . S
C421 H408 0.930 . S
C421 C420 1.388 . S
C421 C422 1.390 . S
C422 C421 1.390 . S
C422 C423 1.394 1_565 S
C422 C428 1.465 . S
C423 C418 1.399 . S
C423 C422 1.394 1_545 S
C423 C424 1.516 . S
C424 C423 1.516 . S
C424 C425 1.502 . S
C424 C426 1.561 . S
C424 C427 1.526 . S
C425 H409 0.959 . S
C425 H410 0.959 . S
C425 H411 0.961 . S
C425 C424 1.502 . S
C426 H412 0.960 . S
C426 H413 0.961 . S
C426 H414 0.959 . S
C426 C424 1.561 . S
C427 C424 1.526 . S
C427 C428 1.396 1_545 S
C427 C432 1.390 . S
C428 C422 1.465 . S
C428 C427 1.396 1_565 S
C428 C429 1.399 . S
C429 H415 0.929 . S
C429 C428 1.399 . S
C429 C430 1.385 . S
C430 H416 0.931 . S
C430 C429 1.385 . S
C430 C431 1.389 1_565 S
C431 C430 1.389 1_545 S
C431 C432 1.387 . S
C432 H417 0.930 . S
C432 C427 1.390 . S
C432 C431 1.387 . S
H433 C445 0.930 . S
H434 C447 0.930 . S
H435 C448 0.930 . S
H436 C452 0.959 . S
H437 C452 0.959 . S
H438 C452 0.961 . S
H439 C453 0.960 . S
H440 C453 0.961 . S
H441 C453 0.959 . S
H442 C456 0.929 . S
H443 C457 0.931 . S
H444 C459 0.930 . S
C445 H433 0.930 . S
C445 C446 1.399 . S
C445 C450 1.399 . S
C446 C445 1.399 . S
C446 C447 1.376 . S
C447 H434 0.930 . S
C447 C446 1.376 . S
C447 C448 1.388 . S
C448 H435 0.930 . S
C448 C447 1.388 . S
C448 C449 1.390 . S
C449 C448 1.390 . S
C449 C450 1.394 . S
C449 C455 1.465 . S
C450 C445 1.399 . S
C450 C449 1.394 . S
C450 C451 1.516 . S
C451 C450 1.516 . S
C451 C452 1.502 . S
C451 C453 1.561 . S
C451 C454 1.526 . S
C452 H436 0.959 . S
C452 H437 0.959 . S
C452 H438 0.961 . S
C452 C451 1.502 . S
C453 H439 0.960 . S
C453 H440 0.961 . S
C453 H441 0.959 . S
C453 C451 1.561 . S
C454 C451 1.526 . S
C454 C455 1.396 . S
C454 C459 1.390 . S
C455 C449 1.465 . S
C455 C454 1.396 . S
C455 C456 1.399 . S
C456 H442 0.929 . S
C456 C455 1.399 . S
C456 C457 1.385 . S
C457 H443 0.931 . S
C457 C456 1.385 . S
C457 C458 1.389 . S
C458 C457 1.389 . S
C458 C459 1.387 . S
C459 H444 0.930 . S
C459 C454 1.390 . S
C459 C458 1.387 . S
H460 C472 0.930 . S
H461 C474 0.930 . S
H462 C475 0.930 1_455 S
H463 C479 0.959 . S
H464 C479 0.959 . S
H465 C479 0.961 . S
H466 C480 0.960 . S
H467 C480 0.961 . S
H468 C480 0.959 . S
H469 C483 0.929 . S
H470 C484 0.931 . S
H471 C486 0.930 . S
C472 H460 0.930 . S
C472 C473 1.399 . S
C472 C477 1.399 . S
C473 C472 1.399 . S
C473 C474 1.376 . S
C474 H461 0.930 . S
C474 C473 1.376 . S
C474 C475 1.388 . S
C475 H462 0.930 1_655 S
C475 C474 1.388 . S
C475 C476 1.390 . S
C476 C475 1.390 . S
C476 C477 1.394 . S
C476 C482 1.465 1_655 S
C477 C472 1.399 . S
C477 C476 1.394 . S
C477 C478 1.516 . S
C478 C477 1.516 . S
C478 C479 1.502 . S
C478 C480 1.561 1_655 S
C478 C481 1.526 1_655 S
C479 H463 0.959 . S
C479 H464 0.959 . S
C479 H465 0.961 . S
C479 C478 1.502 . S
C480 H466 0.960 . S
C480 H467 0.961 . S
C480 H468 0.959 . S
C480 C478 1.561 1_455 S
C481 C478 1.526 1_455 S
C481 C482 1.396 . S
C481 C486 1.390 . S
C482 C476 1.465 1_455 S
C482 C481 1.396 . S
C482 C483 1.399 . S
C483 H469 0.929 . S
C483 C482 1.399 . S
C483 C484 1.385 . S
C484 H470 0.931 . S
C484 C483 1.385 . S
C484 C485 1.389 . S
C485 C484 1.389 . S
C485 C486 1.387 . S
C486 H471 0.930 . S
C486 C481 1.390 . S
C486 C485 1.387 . S
H487 C499 0.930 . S
H488 C501 0.930 . S
H489 C502 0.935 . S
H490 C506 0.959 1_655 S
H491 C506 0.959 . S
H492 C506 0.961 . S
H493 C507 0.960 . S
H494 C507 0.961 . S
H495 C507 0.959 . S
H496 C510 0.929 . S
H497 C511 0.931 . S
H498 C513 0.930 . S
C499 H487 0.930 . S
C499 C500 1.399 1_545 S
C499 C504 1.399 . S
C500 C499 1.399 1_565 S
C500 C501 1.376 . S
C501 H488 0.930 . S
C501 C500 1.376 . S
C501 C502 1.384 1_455 S
C502 H489 0.935 . S
C502 C501 1.384 1_655 S
C502 C503 1.389 1_655 S
C503 C502 1.389 1_455 S
C503 C504 1.394 1_565 S
C503 C509 1.465 1_455 S
C504 C499 1.399 . S
C504 C503 1.394 1_545 S
C504 C505 1.516 . S
C505 C504 1.516 . S
C505 C506 1.502 . S
C505 C507 1.561 . S
C505 C508 1.526 1_455 S
C506 H490 0.959 1_455 S
C506 H491 0.959 . S
C506 H492 0.961 . S
C506 C505 1.502 . S
C507 H493 0.960 . S
C507 H494 0.961 . S
C507 H495 0.959 . S
C507 C505 1.561 . S
C508 C505 1.526 1_655 S
C508 C509 1.396 1_545 S
C508 C513 1.390 . S
C509 C503 1.465 1_655 S
C509 C508 1.396 1_565 S
C509 C510 1.399 . S
C510 H496 0.929 . S
C510 C509 1.399 . S
C510 C511 1.385 . S
C511 H497 0.931 . S
C511 C510 1.385 . S
C511 C512 1.389 1_565 S
C512 C511 1.389 1_545 S
C512 C513 1.387 . S
C513 H498 0.930 . S
C513 C508 1.390 . S
C513 C512 1.387 . S
H514 C526 0.930 . S
H515 C528 0.930 . S
H516 C529 0.930 . S
H517 C533 0.959 . S
H518 C533 0.959 . S
H519 C533 0.961 . S
H520 C534 0.966 1_556 S
H521 C534 0.961 . S
H522 C534 0.959 1_556 S
H523 C537 0.929 . S
H524 C538 0.931 . S
H525 C540 0.930 . S
C526 H514 0.930 . S
C526 C527 1.399 . S
C526 C531 1.399 . S
C527 C526 1.399 . S
C527 C528 1.376 . S
C528 H515 0.930 . S
C528 C527 1.376 . S
C528 C529 1.388 1_655 S
C529 H516 0.930 . S
C529 C528 1.388 1_455 S
C529 C530 1.390 . S
C530 C529 1.390 . S
C530 C531 1.394 1_455 S
C530 C536 1.465 1_556 S
C531 C526 1.399 . S
C531 C530 1.394 1_655 S
C531 C532 1.516 1_556 S
C532 C531 1.516 1_554 S
C532 C533 1.502 . S
C532 C534 1.561 1_655 S
C532 C535 1.526 1_655 S
C533 H517 0.959 . S
C533 H518 0.959 . S
C533 H519 0.961 . S
C533 C532 1.502 . S
C534 H520 0.966 1_554 S
C534 H521 0.961 . S
C534 H522 0.959 1_554 S
C534 C532 1.561 1_455 S
C535 C532 1.526 1_455 S
C535 C536 1.396 . S
C535 C540 1.390 . S
C536 C530 1.465 1_554 S
C536 C535 1.396 . S
C536 C537 1.399 . S
C537 H523 0.929 . S
C537 C536 1.399 . S
C537 C538 1.385 . S
C538 H524 0.931 . S
C538 C537 1.385 . S
C538 C539 1.389 . S
C539 C538 1.389 . S
C539 C540 1.387 . S
C540 H525 0.930 . S
C540 C535 1.390 . S
C540 C539 1.387 . S
H541 C553 0.930 . S
H542 C555 0.930 . S
H543 C556 0.930 1_655 S
H544 C560 0.959 . S
H545 C560 0.959 . S
H546 C560 0.961 . S
H547 C561 0.970 . S
H548 C561 0.949 1_554 S
H549 C561 0.964 . S
H550 C564 0.929 . S
H551 C565 0.931 . S
H552 C567 0.930 . S
C553 H541 0.930 . S
C553 C554 1.399 . S
C553 C558 1.399 . S
C554 C553 1.399 . S
C554 C555 1.376 1_545 S
C555 H542 0.930 . S
C555 C554 1.376 1_565 S
C555 C556 1.388 . S
C556 H543 0.930 1_455 S
C556 C555 1.388 . S
C556 C557 1.393 . S
C557 C556 1.393 . S
C557 C558 1.403 1_565 S
C557 C563 1.455 1_456 S
C558 C553 1.399 . S
C558 C557 1.403 1_545 S
C558 C559 1.516 1_556 S
C559 C558 1.516 1_554 S
C559 C560 1.502 . S
C559 C561 1.558 1_454 S
C559 C562 1.526 1_455 S
C560 H544 0.959 . S
C560 H545 0.959 . S
C560 H546 0.961 . S
C560 C559 1.502 . S
C561 H547 0.970 . S
C561 H548 0.949 1_556 S
C561 H549 0.964 . S
C561 C559 1.558 1_656 S
C562 C559 1.526 1_655 S
C562 C563 1.396 1_545 S
C562 C567 1.390 . S
C563 C557 1.455 1_654 S
C563 C562 1.396 1_565 S
C563 C564 1.399 . S
C564 H550 0.929 . S
C564 C563 1.399 . S
C564 C565 1.385 . S
C565 H551 0.931 . S
C565 C564 1.385 . S
C565 C566 1.389 . S
C566 C565 1.389 . S
C566 C567 1.387 1_565 S
C567 H552 0.930 . S
C567 C562 1.390 . S
C567 C566 1.387 1_545 S
H568 C580 0.930 . S
H569 C582 0.930 . S
H570 C583 0.930 . S
H571 C587 0.959 . S
H572 C587 0.959 . S
H573 C587 0.961 . S
H574 C588 0.960 . S
H575 C588 0.961 . S
H576 C588 0.959 . S
H577 C591 0.929 . S
H578 C592 0.931 . S
H579 C594 0.930 . S
C580 H568 0.930 . S
C580 C581 1.399 . S
C580 C585 1.399 . S
C581 C580 1.399 . S
C581 C582 1.376 . S
C582 H569 0.930 . S
C582 C581 1.376 . S
C582 C583 1.388 1_545 S
C583 H570 0.930 . S
C583 C582 1.388 1_565 S
C583 C584 1.390 . S
C584 C583 1.390 . S
C584 C585 1.394 1_565 S
C584 C590 1.465 . S
C585 C580 1.399 . S
C585 C584 1.394 1_545 S
C585 C586 1.516 . S
C586 C585 1.516 . S
C586 C587 1.502 . S
C586 C588 1.561 . S
C586 C589 1.526 1_545 S
C587 H571 0.959 . S
C587 H572 0.959 . S
C587 H573 0.961 . S
C587 C586 1.502 . S
C588 H574 0.960 . S
C588 H575 0.961 . S
C588 H576 0.959 . S
C588 C586 1.561 . S
C589 C586 1.526 1_565 S
C589 C590 1.396 . S
C589 C594 1.390 . S
C590 C584 1.465 . S
C590 C589 1.396 . S
C590 C591 1.399 . S
C591 H577 0.929 . S
C591 C590 1.399 . S
C591 C592 1.385 . S
C592 H578 0.931 . S
C592 C591 1.385 . S
C592 C593 1.389 . S
C593 C592 1.389 . S
C593 C594 1.387 . S
C594 H579 0.930 . S
C594 C589 1.390 . S
C594 C593 1.387 . S
H595 C607 0.930 . S
H596 C609 0.930 . S
H597 C610 0.930 . S
H598 C614 0.959 . S
H599 C614 0.959 . S
H600 C614 0.961 . S
H601 C615 0.960 . S
H602 C615 0.961 . S
H603 C615 0.959 . S
H604 C618 0.929 . S
H605 C619 0.931 . S
H606 C621 0.930 . S
C607 H595 0.930 . S
C607 C608 1.399 . S
C607 C612 1.399 . S
C608 C607 1.399 . S
C608 C609 1.376 . S
C609 H596 0.930 . S
C609 C608 1.376 . S
C609 C610 1.388 . S
C610 H597 0.930 . S
C610 C609 1.388 . S
C610 C611 1.390 . S
C611 C610 1.390 . S
C611 C612 1.394 . S
C611 C617 1.465 . S
C612 C607 1.399 . S
C612 C611 1.394 . S
C612 C613 1.516 . S
C613 C612 1.516 . S
C613 C614 1.502 . S
C613 C615 1.561 . S
C613 C616 1.526 . S
C614 H598 0.959 . S
C614 H599 0.959 . S
C614 H600 0.961 . S
C614 C613 1.502 . S
C615 H601 0.960 . S
C615 H602 0.961 . S
C615 H603 0.959 . S
C615 C613 1.561 . S
C616 C613 1.526 . S
C616 C617 1.396 . S
C616 C621 1.390 . S
C617 C611 1.465 . S
C617 C616 1.396 . S
C617 C618 1.399 . S
C618 H604 0.929 . S
C618 C617 1.399 . S
C618 C619 1.385 . S
C619 H605 0.931 . S
C619 C618 1.385 . S
C619 C620 1.389 . S
C620 C619 1.389 . S
C620 C621 1.387 . S
C621 H606 0.930 . S
C621 C616 1.390 . S
C621 C620 1.387 . S
H622 C634 0.930 . S
H623 C636 0.930 . S
H624 C637 0.930 . S
H625 C641 0.959 . S
H626 C641 0.959 . S
H627 C641 0.961 . S
H628 C642 0.960 . S
H629 C642 0.961 . S
H630 C642 0.959 . S
H631 C645 0.929 . S
H632 C646 0.931 . S
H633 C648 0.930 . S
C634 H622 0.930 . S
C634 C635 1.399 . S
C634 C639 1.399 . S
C635 C634 1.399 . S
C635 C636 1.376 . S
C636 H623 0.930 . S
C636 C635 1.376 . S
C636 C637 1.388 . S
C637 H624 0.930 . S
C637 C636 1.388 . S
C637 C638 1.390 . S
C638 C637 1.390 . S
C638 C639 1.394 . S
C638 C644 1.465 . S
C639 C634 1.399 . S
C639 C638 1.394 . S
C639 C640 1.516 1_565 S
C640 C639 1.516 1_545 S
C640 C641 1.502 . S
C640 C642 1.561 . S
C640 C643 1.526 . S
C641 H625 0.959 . S
C641 H626 0.959 . S
C641 H627 0.961 . S
C641 C640 1.502 . S
C642 H628 0.960 . S
C642 H629 0.961 . S
C642 H630 0.959 . S
C642 C640 1.561 . S
C643 C640 1.526 . S
C643 C644 1.396 1_545 S
C643 C648 1.390 . S
C644 C638 1.465 . S
C644 C643 1.396 1_565 S
C644 C645 1.399 . S
C645 H631 0.929 . S
C645 C644 1.399 . S
C645 C646 1.385 1_565 S
C646 H632 0.931 . S
C646 C645 1.385 1_545 S
C646 C647 1.389 . S
C647 C646 1.389 . S
C647 C648 1.387 . S
C648 H633 0.930 . S
C648 C643 1.390 . S
C648 C647 1.387 . S
H649 C661 0.930 . S
H650 C663 0.930 . S
H651 C664 0.930 . S
H652 C668 0.959 . S
H653 C668 0.959 . S
H654 C668 0.961 . S
H655 C669 0.960 . S
H656 C669 0.961 . S
H657 C669 0.959 . S
H658 C672 0.929 . S
H659 C673 0.931 . S
H660 C675 0.930 . S
C661 H649 0.930 . S
C661 C662 1.399 . S
C661 C666 1.399 . S
C662 C661 1.399 . S
C662 C663 1.376 . S
C663 H650 0.930 . S
C663 C662 1.376 . S
C663 C664 1.388 . S
C664 H651 0.930 . S
C664 C663 1.388 . S
C664 C665 1.390 . S
C665 C664 1.390 . S
C665 C666 1.394 . S
C665 C671 1.465 . S
C666 C661 1.399 . S
C666 C665 1.394 . S
C666 C667 1.516 . S
C667 C666 1.516 . S
C667 C668 1.502 . S
C667 C669 1.561 . S
C667 C670 1.526 . S
C668 H652 0.959 . S
C668 H653 0.959 . S
C668 H654 0.961 . S
C668 C667 1.502 . S
C669 H655 0.960 . S
C669 H656 0.961 . S
C669 H657 0.959 . S
C669 C667 1.561 . S
C670 C667 1.526 . S
C670 C671 1.396 . S
C670 C675 1.390 . S
C671 C665 1.465 . S
C671 C670 1.396 . S
C671 C672 1.399 . S
C672 H658 0.929 . S
C672 C671 1.399 . S
C672 C673 1.385 . S
C673 H659 0.931 . S
C673 C672 1.385 . S
C673 C674 1.389 . S
C674 C673 1.389 . S
C674 C675 1.387 . S
C675 H660 0.930 . S
C675 C670 1.390 . S
C675 C674 1.387 . S
H676 C688 0.930 . S
H677 C690 0.930 . S
H678 C691 0.930 . S
H679 C695 0.959 . S
H680 C695 0.959 . S
H681 C695 0.961 . S
H682 C696 0.960 . S
H683 C696 0.961 . S
H684 C696 0.959 . S
H685 C699 0.929 . S
H686 C700 0.931 . S
H687 C702 0.930 . S
C688 H676 0.930 . S
C688 C689 1.399 . S
C688 C693 1.399 . S
C689 C688 1.399 . S
C689 C690 1.376 . S
C690 H677 0.930 . S
C690 C689 1.376 . S
C690 C691 1.388 . S
C691 H678 0.930 . S
C691 C690 1.388 . S
C691 C692 1.390 . S
C692 C691 1.390 . S
C692 C693 1.394 . S
C692 C698 1.465 . S
C693 C688 1.399 . S
C693 C692 1.394 . S
C693 C694 1.516 . S
C694 C693 1.516 . S
C694 C695 1.502 . S
C694 C696 1.561 . S
C694 C697 1.526 . S
C695 H679 0.959 . S
C695 H680 0.959 . S
C695 H681 0.961 . S
C695 C694 1.502 . S
C696 H682 0.960 . S
C696 H683 0.961 . S
C696 H684 0.959 . S
C696 C694 1.561 . S
C697 C694 1.526 . S
C697 C698 1.396 . S
C697 C702 1.390 . S
C698 C692 1.465 . S
C698 C697 1.396 . S
C698 C699 1.399 . S
C699 H685 0.929 . S
C699 C698 1.399 . S
C699 C700 1.385 . S
C700 H686 0.931 . S
C700 C699 1.385 . S
C700 C701 1.389 . S
C701 C700 1.389 . S
C701 C702 1.387 . S
C702 H687 0.930 . S
C702 C697 1.390 . S
C702 C701 1.387 . S
H703 C715 0.930 . S
H704 C717 0.930 . S
H705 C718 0.930 1_655 S
H706 C722 0.959 . S
H707 C722 0.959 . S
H708 C722 0.961 . S
H709 C723 0.960 . S
H710 C723 0.961 . S
H711 C723 0.959 . S
H712 C726 0.929 1_655 S
H713 C727 0.941 . S
H714 C729 0.930 . S
C715 H703 0.930 . S
C715 C716 1.399 . S
C715 C720 1.399 . S
C716 C715 1.399 . S
C716 C717 1.376 . S
C717 H704 0.930 . S
C717 C716 1.376 . S
C717 C718 1.388 . S
C718 H705 0.930 1_455 S
C718 C717 1.388 . S
C718 C719 1.390 . S
C719 C718 1.390 . S
C719 C720 1.394 . S
C719 C725 1.465 1_545 S
C720 C715 1.399 . S
C720 C719 1.394 . S
C720 C721 1.505 1_545 S
C721 C720 1.505 1_565 S
C721 C722 1.485 1_565 S
C721 C723 1.580 . S
C721 C724 1.538 . S
C722 H706 0.959 . S
C722 H707 0.959 . S
C722 H708 0.961 . S
C722 C721 1.485 1_545 S
C723 H709 0.960 . S
C723 H710 0.961 . S
C723 H711 0.959 . S
C723 C721 1.580 . S
C724 C721 1.538 . S
C724 C725 1.396 . S
C724 C729 1.390 . S
C725 C719 1.465 1_565 S
C725 C724 1.396 . S
C725 C726 1.399 . S
C726 H712 0.929 1_455 S
C726 C725 1.399 . S
C726 C727 1.385 . S
C727 H713 0.941 . S
C727 C726 1.385 . S
C727 C728 1.389 . S
C728 C727 1.389 . S
C728 C729 1.387 . S
C729 H714 0.930 . S
C729 C724 1.390 . S
C729 C728 1.387 . S
H730 C742 0.930 . S
H731 C744 0.930 . S
H732 C745 0.930 . S
H733 C749 0.959 . S
H734 C749 0.959 . S
H735 C749 0.961 . S
H736 C750 0.960 . S
H737 C750 0.961 . S
H738 C750 0.959 . S
H739 C753 0.929 . S
H740 C754 0.931 . S
H741 C756 0.930 . S
C742 H730 0.930 . S
C742 C743 1.399 . S
C742 C747 1.399 . S
C743 C742 1.399 . S
C743 C744 1.376 . S
C744 H731 0.930 . S
C744 C743 1.376 . S
C744 C745 1.388 . S
C745 H732 0.930 . S
C745 C744 1.388 . S
C745 C746 1.390 . S
C746 C745 1.390 . S
C746 C747 1.394 . S
C746 C752 1.465 . S
C747 C742 1.399 . S
C747 C746 1.394 . S
C747 C748 1.516 . S
C748 C747 1.516 . S
C748 C749 1.502 . S
C748 C750 1.561 . S
C748 C751 1.526 . S
C749 H733 0.959 . S
C749 H734 0.959 . S
C749 H735 0.961 . S
C749 C748 1.502 . S
C750 H736 0.960 . S
C750 H737 0.961 . S
C750 H738 0.959 . S
C750 C748 1.561 . S
C751 C748 1.526 . S
C751 C752 1.396 . S
C751 C756 1.390 . S
C752 C746 1.465 . S
C752 C751 1.396 . S
C752 C753 1.399 . S
C753 H739 0.929 . S
C753 C752 1.399 . S
C753 C754 1.385 . S
C754 H740 0.931 . S
C754 C753 1.385 . S
C754 C755 1.389 . S
C755 C754 1.389 . S
C755 C756 1.387 . S
C756 H741 0.930 . S
C756 C751 1.390 . S
C756 C755 1.387 . S
H757 C769 0.930 . S
H758 C771 0.930 . S
H759 C772 0.930 . S
H760 C776 0.959 . S
H761 C776 0.959 . S
H762 C776 0.961 . S
H763 C777 0.960 . S
H764 C777 0.961 . S
H765 C777 0.959 . S
H766 C780 0.929 . S
H767 C781 0.931 . S
H768 C783 0.930 . S
C769 H757 0.930 . S
C769 C770 1.399 . S
C769 C774 1.399 . S
C770 C769 1.399 . S
C770 C771 1.376 . S
C771 H758 0.930 . S
C771 C770 1.376 . S
C771 C772 1.388 . S
C772 H759 0.930 . S
C772 C771 1.388 . S
C772 C773 1.390 . S
C773 C772 1.390 . S
C773 C774 1.394 . S
C773 C779 1.465 1_545 S
C774 C769 1.399 . S
C774 C773 1.394 . S
C774 C775 1.516 1_545 S
C775 C774 1.516 1_565 S
C775 C776 1.502 1_655 S
C775 C777 1.561 . S
C775 C778 1.526 . S
C776 H760 0.959 . S
C776 H761 0.959 . S
C776 H762 0.961 . S
C776 C775 1.502 1_455 S
C777 H763 0.960 . S
C777 H764 0.961 . S
C777 H765 0.959 . S
C777 C775 1.561 . S
C778 C775 1.526 . S
C778 C779 1.396 . S
C778 C783 1.390 . S
C779 C773 1.465 1_565 S
C779 C778 1.396 . S
C779 C780 1.399 1_565 S
C780 H766 0.929 . S
C780 C779 1.399 1_545 S
C780 C781 1.385 1_545 S
C781 H767 0.931 . S
C781 C780 1.385 1_565 S
C781 C782 1.389 . S
C782 C781 1.389 . S
C782 C783 1.387 . S
C783 H768 0.930 . S
C783 C778 1.390 . S
C783 C782 1.387 . S
H784 C796 0.930 . S
H785 C798 0.930 . S
H786 C799 0.930 . S
H787 C803 0.959 . S
H788 C803 0.959 . S
H789 C803 0.961 . S
H790 C804 0.960 . S
H791 C804 0.961 1_556 S
H792 C804 0.959 . S
H793 C807 0.929 . S
H794 C808 0.931 . S
H795 C810 0.930 . S
C796 H784 0.930 . S
C796 C797 1.399 . S
C796 C801 1.399 . S
C797 C796 1.399 . S
C797 C798 1.376 . S
C798 H785 0.930 . S
C798 C797 1.376 . S
C798 C799 1.388 . S
C799 H786 0.930 . S
C799 C798 1.388 . S
C799 C800 1.390 . S
C800 C799 1.390 . S
C800 C801 1.394 . S
C800 C806 1.465 1_554 S
C801 C796 1.399 . S
C801 C800 1.394 . S
C801 C802 1.516 1_554 S
C802 C801 1.516 1_556 S
C802 C803 1.502 . S
C802 C804 1.561 1_556 S
C802 C805 1.526 . S
C803 H787 0.959 . S
C803 H788 0.959 . S
C803 H789 0.961 . S
C803 C802 1.502 . S
C804 H790 0.960 . S
C804 H791 0.961 1_554 S
C804 H792 0.959 . S
C804 C802 1.561 1_554 S
C805 C802 1.526 . S
C805 C806 1.396 . S
C805 C810 1.390 . S
C806 C800 1.465 1_556 S
C806 C805 1.396 . S
C806 C807 1.399 . S
C807 H793 0.929 . S
C807 C806 1.399 . S
C807 C808 1.385 . S
C808 H794 0.931 . S
C808 C807 1.385 . S
C808 C809 1.389 . S
C809 C808 1.389 . S
C809 C810 1.387 . S
C810 H795 0.930 . S
C810 C805 1.390 . S
C810 C809 1.387 . S
H811 C823 0.930 . S
H812 C825 0.930 . S
H813 C826 0.930 . S
H814 C830 0.959 . S
H815 C830 0.959 . S
H816 C830 0.961 . S
H817 C831 0.960 1_556 S
H818 C831 0.961 . S
H819 C831 0.959 . S
H820 C834 0.929 . S
H821 C835 0.931 . S
H822 C837 0.930 . S
C823 H811 0.930 . S
C823 C824 1.399 . S
C823 C828 1.399 . S
C824 C823 1.399 . S
C824 C825 1.376 . S
C825 H812 0.930 . S
C825 C824 1.376 . S
C825 C826 1.388 . S
C826 H813 0.930 . S
C826 C825 1.388 . S
C826 C827 1.390 . S
C827 C826 1.390 . S
C827 C828 1.394 . S
C827 C833 1.465 1_556 S
C828 C823 1.399 . S
C828 C827 1.394 . S
C828 C829 1.516 . S
C829 C828 1.516 . S
C829 C830 1.502 . S
C829 C831 1.561 1_556 S
C829 C832 1.526 1_556 S
C830 H814 0.959 . S
C830 H815 0.959 . S
C830 H816 0.961 . S
C830 C829 1.502 . S
C831 H817 0.960 1_554 S
C831 H818 0.961 . S
C831 H819 0.959 . S
C831 C829 1.561 1_554 S
C832 C829 1.526 1_554 S
C832 C833 1.396 . S
C832 C837 1.390 . S
C833 C827 1.465 1_554 S
C833 C832 1.396 . S
C833 C834 1.399 . S
C834 H820 0.929 . S
C834 C833 1.399 . S
C834 C835 1.385 . S
C835 H821 0.931 . S
C835 C834 1.385 . S
C835 C836 1.389 . S
C836 C835 1.389 . S
C836 C837 1.387 . S
C837 H822 0.930 . S
C837 C832 1.390 . S
C837 C836 1.387 . S
H838 C850 0.930 . S
H839 C852 0.930 . S
H840 C853 0.930 . S
H841 C857 0.959 . S
H842 C857 0.959 . S
H843 C857 0.961 . S
H844 C858 0.960 . S
H845 C858 0.961 . S
H846 C858 0.959 . S
H847 C861 0.929 . S
H848 C862 0.931 . S
H849 C864 0.930 . S
C850 H838 0.930 . S
C850 C851 1.399 . S
C850 C855 1.399 . S
C851 C850 1.399 . S
C851 C852 1.376 . S
C852 H839 0.930 . S
C852 C851 1.376 . S
C852 C853 1.388 . S
C853 H840 0.930 . S
C853 C852 1.388 . S
C853 C854 1.390 . S
C854 C853 1.390 . S
C854 C855 1.394 . S
C854 C860 1.465 . S
C855 C850 1.399 . S
C855 C854 1.394 . S
C855 C856 1.516 . S
C856 C855 1.516 . S
C856 C857 1.502 . S
C856 C858 1.561 . S
C856 C859 1.526 . S
C857 H841 0.959 . S
C857 H842 0.959 . S
C857 H843 0.961 . S
C857 C856 1.502 . S
C858 H844 0.960 . S
C858 H845 0.961 . S
C858 H846 0.959 . S
C858 C856 1.561 . S
C859 C856 1.526 . S
C859 C860 1.396 . S
C859 C864 1.390 . S
C860 C854 1.465 . S
C860 C859 1.396 . S
C860 C861 1.399 . S
C861 H847 0.929 . S
C861 C860 1.399 . S
C861 C862 1.385 . S
C862 H848 0.931 . S
C862 C861 1.385 . S
C862 C863 1.389 . S
C863 C862 1.389 . S
C863 C864 1.387 . S
C864 H849 0.930 . S
C864 C859 1.390 . S
C864 C863 1.387 . S
H865 C877 0.930 . S
H866 C879 0.930 . S
H867 C880 0.930 . S
H868 C884 0.959 . S
H869 C884 0.959 . S
H870 C884 0.961 . S
H871 C885 0.960 . S
H872 C885 0.961 . S
H873 C885 0.959 . S
H874 C888 0.929 . S
H875 C889 0.931 . S
H876 C891 0.930 . S
C877 H865 0.930 . S
C877 C878 1.399 . S
C877 C882 1.399 . S
C878 C877 1.399 . S
C878 C879 1.376 . S
C879 H866 0.930 . S
C879 C878 1.376 . S
C879 C880 1.388 . S
C880 H867 0.930 . S
C880 C879 1.388 . S
C880 C881 1.390 . S
C881 C880 1.390 . S
C881 C882 1.394 . S
C881 C887 1.465 . S
C882 C877 1.399 . S
C882 C881 1.394 . S
C882 C883 1.516 . S
C883 C882 1.516 . S
C883 C884 1.502 . S
C883 C885 1.561 . S
C883 C886 1.526 . S
C884 H868 0.959 . S
C884 H869 0.959 . S
C884 H870 0.961 . S
C884 C883 1.502 . S
C885 H871 0.960 . S
C885 H872 0.961 . S
C885 H873 0.959 . S
C885 C883 1.561 . S
C886 C883 1.526 . S
C886 C887 1.396 . S
C886 C891 1.390 . S
C887 C881 1.465 . S
C887 C886 1.396 . S
C887 C888 1.399 . S
C888 H874 0.929 . S
C888 C887 1.399 . S
C888 C889 1.385 . S
C889 H875 0.931 . S
C889 C888 1.385 . S
C889 C890 1.389 . S
C890 C889 1.389 . S
C890 C891 1.387 . S
C891 H876 0.930 . S
C891 C886 1.390 . S
C891 C890 1.387 . S
H892 C904 0.930 . S
H893 C906 0.930 . S
H894 C907 0.930 . S
H895 C911 0.959 . S
H896 C911 0.959 1_554 S
H897 C911 0.961 . S
H898 C912 0.960 . S
H899 C912 0.961 . S
H900 C912 0.959 . S
H901 C915 0.929 . S
H902 C916 0.931 . S
H903 C918 0.930 . S
C904 H892 0.930 . S
C904 C905 1.399 . S
C904 C909 1.399 . S
C905 C904 1.399 . S
C905 C906 1.376 . S
C906 H893 0.930 . S
C906 C905 1.376 . S
C906 C907 1.388 . S
C907 H894 0.930 . S
C907 C906 1.388 . S
C907 C908 1.390 . S
C908 C907 1.390 . S
C908 C909 1.394 . S
C908 C914 1.465 1_556 S
C909 C904 1.399 . S
C909 C908 1.394 . S
C909 C910 1.516 1_556 S
C910 C909 1.516 1_554 S
C910 C911 1.502 1_554 S
C910 C912 1.561 . S
C910 C913 1.526 . S
C911 H895 0.959 . S
C911 H896 0.959 1_556 S
C911 H897 0.961 . S
C911 C910 1.502 1_556 S
C912 H898 0.960 . S
C912 H899 0.961 . S
C912 H900 0.959 . S
C912 C910 1.561 . S
C913 C910 1.526 . S
C913 C914 1.396 . S
C913 C918 1.390 . S
C914 C908 1.465 1_554 S
C914 C913 1.396 . S
C914 C915 1.399 . S
C915 H901 0.929 . S
C915 C914 1.399 . S
C915 C916 1.385 . S
C916 H902 0.931 . S
C916 C915 1.385 . S
C916 C917 1.389 . S
C917 C916 1.389 . S
C917 C918 1.387 . S
C918 H903 0.930 . S
C918 C913 1.390 . S
C918 C917 1.387 . S
H919 C931 0.930 . S
H920 C933 0.930 . S
H921 C934 0.930 . S
H922 C938 0.959 . S
H923 C938 0.959 . S
H924 C938 0.961 . S
H925 C939 0.960 . S
H926 C939 0.961 . S
H927 C939 0.959 . S
H928 C942 0.929 . S
H929 C943 0.931 . S
H930 C945 0.930 . S
C931 H919 0.930 . S
C931 C932 1.399 . S
C931 C936 1.399 . S
C932 C931 1.399 . S
C932 C933 1.376 . S
C933 H920 0.930 . S
C933 C932 1.376 . S
C933 C934 1.388 . S
C934 H921 0.930 . S
C934 C933 1.388 . S
C934 C935 1.390 . S
C935 C934 1.390 . S
C935 C936 1.394 . S
C935 C941 1.465 1_556 S
C936 C931 1.399 . S
C936 C935 1.394 . S
C936 C937 1.533 . S
C937 C936 1.533 . S
C937 C938 1.516 . S
C937 C939 1.547 1_556 S
C937 C940 1.507 1_556 S
C938 H922 0.959 . S
C938 H923 0.959 . S
C938 H924 0.961 . S
C938 C937 1.516 . S
C939 H925 0.960 . S
C939 H926 0.961 . S
C939 H927 0.959 . S
C939 C937 1.547 1_554 S
C940 C937 1.507 1_554 S
C940 C941 1.396 . S
C940 C945 1.390 . S
C941 C935 1.465 1_554 S
C941 C940 1.396 . S
C941 C942 1.399 . S
C942 H928 0.929 . S
C942 C941 1.399 . S
C942 C943 1.385 . S
C943 H929 0.931 . S
C943 C942 1.385 . S
C943 C944 1.389 . S
C944 C943 1.389 . S
C944 C945 1.387 . S
C945 H930 0.930 . S
C945 C940 1.390 . S
C945 C944 1.387 . S
H946 C958 0.930 . S
H947 C960 0.930 . S
H948 C961 0.930 . S
H949 C965 0.959 . S
H950 C965 0.959 . S
H951 C965 0.961 . S
H952 C966 0.960 . S
H953 C966 0.961 . S
H954 C966 0.959 . S
H955 C969 0.929 . S
H956 C970 0.931 . S
H957 C972 0.930 . S
C958 H946 0.930 . S
C958 C959 1.399 . S
C958 C963 1.399 . S
C959 C958 1.399 . S
C959 C960 1.376 . S
C960 H947 0.930 . S
C960 C959 1.376 . S
C960 C961 1.388 . S
C961 H948 0.930 . S
C961 C960 1.388 . S
C961 C962 1.390 . S
C962 C961 1.390 . S
C962 C963 1.394 . S
C962 C968 1.465 . S
C963 C958 1.399 . S
C963 C962 1.394 . S
C963 C964 1.516 . S
C964 C963 1.516 . S
C964 C965 1.502 . S
C964 C966 1.561 . S
C964 C967 1.526 . S
C965 H949 0.959 . S
C965 H950 0.959 . S
C965 H951 0.961 . S
C965 C964 1.502 . S
C966 H952 0.960 . S
C966 H953 0.961 . S
C966 H954 0.959 . S
C966 C964 1.561 . S
C967 C964 1.526 . S
C967 C968 1.396 . S
C967 C972 1.390 . S
C968 C962 1.465 . S
C968 C967 1.396 . S
C968 C969 1.399 . S
C969 H955 0.929 . S
C969 C968 1.399 . S
C969 C970 1.385 . S
C970 H956 0.931 . S
C970 C969 1.385 . S
C970 C971 1.389 . S
C971 C970 1.389 . S
C971 C972 1.387 . S
C972 H957 0.930 . S
C972 C967 1.390 . S
C972 C971 1.387 . S
H973 C985 0.930 . S
H974 C987 0.930 . S
H975 C988 0.930 . S
H976 C992 0.959 . S
H977 C992 0.959 . S
H978 C992 0.961 . S
H979 C993 0.960 . S
H980 C993 0.961 . S
H981 C993 0.959 . S
H982 C996 0.929 . S
H983 C997 0.931 . S
H984 C999 0.930 . S
C985 H973 0.930 . S
C985 C986 1.399 . S
C985 C990 1.399 . S
C986 C985 1.399 . S
C986 C987 1.376 . S
C987 H974 0.930 . S
C987 C986 1.376 . S
C987 C988 1.388 . S
C988 H975 0.930 . S
C988 C987 1.388 . S
C988 C989 1.390 . S
C989 C988 1.390 . S
C989 C990 1.394 . S
C989 C995 1.465 . S
C990 C985 1.399 . S
C990 C989 1.394 . S
C990 C991 1.516 . S
C991 C990 1.516 . S
C991 C992 1.502 . S
C991 C993 1.561 . S
C991 C994 1.526 . S
C992 H976 0.959 . S
C992 H977 0.959 . S
C992 H978 0.961 . S
C992 C991 1.502 . S
C993 H979 0.960 . S
C993 H980 0.961 . S
C993 H981 0.959 . S
C993 C991 1.561 . S
C994 C991 1.526 . S
C994 C995 1.396 . S
C994 C999 1.390 . S
C995 C989 1.465 . S
C995 C994 1.396 . S
C995 C996 1.399 . S
C996 H982 0.929 . S
C996 C995 1.399 . S
C996 C997 1.385 . S
C997 H983 0.931 . S
C997 C996 1.385 . S
C997 C998 1.389 . S
C998 C997 1.389 . S
C998 C999 1.387 . S
C999 H984 0.930 . S
C999 C994 1.390 . S
C999 C998 1.387 . S
H1000 C1012 0.930 . S
H1001 C1014 0.930 . S
H1002 C1015 0.930 . S
H1003 C1019 0.959 . S
H1004 C1019 0.959 . S
H1005 C1019 0.961 . S
H1006 C1020 0.960 . S
H1007 C1020 0.961 . S
H1008 C1020 0.959 . S
H1009 C1023 0.929 . S
H1010 C1024 0.931 . S
H1011 C1026 0.930 . S
C1012 H1000 0.930 . S
C1012 C1013 1.399 . S
C1012 C1017 1.399 . S
C1013 C1012 1.399 . S
C1013 C1014 1.376 . S
C1014 H1001 0.930 . S
C1014 C1013 1.376 . S
C1014 C1015 1.388 1_545 S
C1015 H1002 0.930 . S
C1015 C1014 1.388 1_565 S
C1015 C1016 1.390 1_565 S
C1016 C1015 1.390 1_545 S
C1016 C1017 1.394 . S
C1016 C1022 1.465 1_545 S
C1017 C1012 1.399 . S
C1017 C1016 1.394 . S
C1017 C1018 1.516 . S
C1018 C1017 1.516 . S
C1018 C1019 1.502 . S
C1018 C1020 1.561 . S
C1018 C1021 1.526 . S
C1019 H1003 0.959 . S
C1019 H1004 0.959 . S
C1019 H1005 0.961 . S
C1019 C1018 1.502 . S
C1020 H1006 0.960 . S
C1020 H1007 0.961 . S
C1020 H1008 0.959 . S
C1020 C1018 1.561 . S
C1021 C1018 1.526 . S
C1021 C1022 1.396 1_545 S
C1021 C1026 1.390 . S
C1022 C1016 1.465 1_565 S
C1022 C1021 1.396 1_565 S
C1022 C1023 1.399 . S
C1023 H1009 0.929 . S
C1023 C1022 1.399 . S
C1023 C1024 1.385 . S
C1024 H1010 0.931 . S
C1024 C1023 1.385 . S
C1024 C1025 1.389 . S
C1025 C1024 1.389 . S
C1025 C1026 1.387 1_565 S
C1026 H1011 0.930 . S
C1026 C1021 1.390 . S
C1026 C1025 1.387 1_545 S
H1027 C1039 0.930 . S
H1028 C1041 0.930 . S
H1029 C1042 0.930 . S
H1030 C1046 0.959 . S
H1031 C1046 0.959 . S
H1032 C1046 0.961 . S
H1033 C1047 0.960 . S
H1034 C1047 0.961 . S
H1035 C1047 0.959 . S
H1036 C1050 0.929 . S
H1037 C1051 0.931 . S
H1038 C1053 0.930 . S
C1039 H1027 0.930 . S
C1039 C1040 1.399 . S
C1039 C1044 1.399 . S
C1040 C1039 1.399 . S
C1040 C1041 1.376 . S
C1041 H1028 0.930 . S
C1041 C1040 1.376 . S
C1041 C1042 1.388 . S
C1042 H1029 0.930 . S
C1042 C1041 1.388 . S
C1042 C1043 1.390 . S
C1043 C1042 1.390 . S
C1043 C1044 1.394 . S
C1043 C1049 1.465 . S
C1044 C1039 1.399 . S
C1044 C1043 1.394 . S
C1044 C1045 1.516 . S
C1045 C1044 1.516 . S
C1045 C1046 1.502 . S
C1045 C1047 1.561 . S
C1045 C1048 1.526 . S
C1046 H1030 0.959 . S
C1046 H1031 0.959 . S
C1046 H1032 0.961 . S
C1046 C1045 1.502 . S
C1047 H1033 0.960 . S
C1047 H1034 0.961 . S
C1047 H1035 0.959 . S
C1047 C1045 1.561 . S
C1048 C1045 1.526 . S
C1048 C1049 1.396 . S
C1048 C1053 1.390 . S
C1049 C1043 1.465 . S
C1049 C1048 1.396 . S
C1049 C1050 1.399 . S
C1050 H1036 0.929 . S
C1050 C1049 1.399 . S
C1050 C1051 1.385 . S
C1051 H1037 0.931 . S
C1051 C1050 1.385 . S
C1051 C1052 1.389 . S
C1052 C1051 1.389 . S
C1052 C1053 1.387 . S
C1053 H1038 0.930 . S
C1053 C1048 1.390 . S
C1053 C1052 1.387 . S
H1054 C1066 0.930 . S
H1055 C1068 0.930 . S
H1056 C1069 0.930 . S
H1057 C1073 0.959 1_565 S
H1058 C1073 0.959 . S
H1059 C1073 0.961 . S
H1060 C1074 0.960 . S
H1061 C1074 0.961 . S
H1062 C1074 0.959 . S
H1063 C1077 0.929 . S
H1064 C1078 0.931 . S
H1065 C1080 0.930 . S
C1066 H1054 0.930 . S
C1066 C1067 1.399 . S
C1066 C1071 1.399 . S
C1067 C1066 1.399 . S
C1067 C1068 1.376 . S
C1068 H1055 0.930 . S
C1068 C1067 1.376 . S
C1068 C1069 1.388 . S
C1069 H1056 0.930 . S
C1069 C1068 1.388 . S
C1069 C1070 1.390 . S
C1070 C1069 1.390 . S
C1070 C1071 1.394 . S
C1070 C1076 1.465 . S
C1071 C1066 1.399 . S
C1071 C1070 1.394 . S
C1071 C1072 1.516 1_565 S
C1072 C1071 1.516 1_545 S
C1072 C1073 1.502 . S
C1072 C1074 1.561 . S
C1072 C1075 1.526 . S
C1073 H1057 0.959 1_545 S
C1073 H1058 0.959 . S
C1073 H1059 0.961 . S
C1073 C1072 1.502 . S
C1074 H1060 0.960 . S
C1074 H1061 0.961 . S
C1074 H1062 0.959 . S
C1074 C1072 1.561 . S
C1075 C1072 1.526 . S
C1075 C1076 1.396 1_545 S
C1075 C1080 1.390 . S
C1076 C1070 1.465 . S
C1076 C1075 1.396 1_565 S
C1076 C1077 1.399 . S
C1077 H1063 0.929 . S
C1077 C1076 1.399 . S
C1077 C1078 1.385 . S
C1078 H1064 0.931 . S
C1078 C1077 1.385 . S
C1078 C1079 1.389 1_565 S
C1079 C1078 1.389 1_545 S
C1079 C1080 1.387 . S
C1080 H1065 0.930 . S
C1080 C1075 1.390 . S
C1080 C1079 1.387 . S
H1081 C1093 0.930 . S
H1082 C1095 0.930 . S
H1083 C1096 0.930 . S
H1084 C1100 0.959 . S
H1085 C1100 0.959 . S
H1086 C1100 0.961 . S
H1087 C1101 0.960 . S
H1088 C1101 0.961 . S
H1089 C1101 0.959 . S
H1090 C1104 0.929 . S
H1091 C1105 0.931 . S
H1092 C1107 0.930 . S
C1093 H1081 0.930 . S
C1093 C1094 1.399 . S
C1093 C1098 1.399 . S
C1094 C1093 1.399 . S
C1094 C1095 1.376 . S
C1095 H1082 0.930 . S
C1095 C1094 1.376 . S
C1095 C1096 1.388 . S
C1096 H1083 0.930 . S
C1096 C1095 1.388 . S
C1096 C1097 1.390 . S
C1097 C1096 1.390 . S
C1097 C1098 1.394 . S
C1097 C1103 1.465 . S
C1098 C1093 1.399 . S
C1098 C1097 1.394 . S
C1098 C1099 1.516 . S
C1099 C1098 1.516 . S
C1099 C1100 1.502 . S
C1099 C1101 1.561 . S
C1099 C1102 1.526 . S
C1100 H1084 0.959 . S
C1100 H1085 0.959 . S
C1100 H1086 0.961 . S
C1100 C1099 1.502 . S
C1101 H1087 0.960 . S
C1101 H1088 0.961 . S
C1101 H1089 0.959 . S
C1101 C1099 1.561 . S
C1102 C1099 1.526 . S
C1102 C1103 1.396 . S
C1102 C1107 1.390 . S
C1103 C1097 1.465 . S
C1103 C1102 1.396 . S
C1103 C1104 1.399 . S
C1104 H1090 0.929 . S
C1104 C1103 1.399 . S
C1104 C1105 1.385 . S
C1105 H1091 0.931 . S
C1105 C1104 1.385 . S
C1105 C1106 1.389 . S
C1106 C1105 1.389 . S
C1106 C1107 1.387 . S
C1107 H1092 0.930 . S
C1107 C1102 1.390 . S
C1107 C1106 1.387 . S
H1108 C1120 0.930 . S
H1109 C1122 0.930 . S
H1110 C1123 0.930 . S
H1111 C1127 0.959 . S
H1112 C1127 0.959 . S
H1113 C1127 0.961 . S
H1114 C1128 0.960 . S
H1115 C1128 0.961 . S
H1116 C1128 0.959 . S
H1117 C1131 0.929 . S
H1118 C1132 0.931 . S
H1119 C1134 0.930 . S
C1120 H1108 0.930 . S
C1120 C1121 1.399 . S
C1120 C1125 1.399 1_545 S
C1121 C1120 1.399 . S
C1121 C1122 1.376 1_545 S
C1122 H1109 0.930 . S
C1122 C1121 1.376 1_565 S
C1122 C1123 1.388 . S
C1123 H1110 0.930 . S
C1123 C1122 1.388 . S
C1123 C1124 1.390 . S
C1124 C1123 1.390 . S
C1124 C1125 1.394 . S
C1124 C1130 1.465 . S
C1125 C1120 1.399 1_565 S
C1125 C1124 1.394 . S
C1125 C1126 1.516 . S
C1126 C1125 1.516 . S
C1126 C1127 1.502 1_565 S
C1126 C1128 1.561 . S
C1126 C1129 1.526 . S
C1127 H1111 0.959 . S
C1127 H1112 0.959 . S
C1127 H1113 0.961 . S
C1127 C1126 1.502 1_545 S
C1128 H1114 0.960 . S
C1128 H1115 0.961 . S
C1128 H1116 0.959 . S
C1128 C1126 1.561 . S
C1129 C1126 1.526 . S
C1129 C1130 1.396 . S
C1129 C1134 1.390 . S
C1130 C1124 1.465 . S
C1130 C1129 1.396 . S
C1130 C1131 1.399 . S
C1131 H1117 0.929 . S
C1131 C1130 1.399 . S
C1131 C1132 1.385 . S
C1132 H1118 0.931 . S
C1132 C1131 1.385 . S
C1132 C1133 1.389 . S
C1133 C1132 1.389 . S
C1133 C1134 1.387 . S
C1134 H1119 0.930 . S
C1134 C1129 1.390 . S
C1134 C1133 1.387 . S
H1135 C1147 0.930 . S
H1136 C1149 0.930 . S
H1137 C1150 0.930 . S
H1138 C1154 0.959 . S
H1139 C1154 0.959 . S
H1140 C1154 0.961 . S
H1141 C1155 0.960 . S
H1142 C1155 0.961 . S
H1143 C1155 0.959 . S
H1144 C1158 0.929 . S
H1145 C1159 0.931 . S
H1146 C1161 0.930 . S
C1147 H1135 0.930 . S
C1147 C1148 1.399 . S
C1147 C1152 1.399 . S
C1148 C1147 1.399 . S
C1148 C1149 1.376 . S
C1149 H1136 0.930 . S
C1149 C1148 1.376 . S
C1149 C1150 1.388 . S
C1150 H1137 0.930 . S
C1150 C1149 1.388 . S
C1150 C1151 1.390 . S
C1151 C1150 1.390 . S
C1151 C1152 1.394 . S
C1151 C1157 1.465 . S
C1152 C1147 1.399 . S
C1152 C1151 1.394 . S
C1152 C1153 1.516 . S
C1153 C1152 1.516 . S
C1153 C1154 1.502 . S
C1153 C1155 1.561 . S
C1153 C1156 1.526 . S
C1154 H1138 0.959 . S
C1154 H1139 0.959 . S
C1154 H1140 0.961 . S
C1154 C1153 1.502 . S
C1155 H1141 0.960 . S
C1155 H1142 0.961 . S
C1155 H1143 0.959 . S
C1155 C1153 1.561 . S
C1156 C1153 1.526 . S
C1156 C1157 1.396 . S
C1156 C1161 1.390 . S
C1157 C1151 1.465 . S
C1157 C1156 1.396 . S
C1157 C1158 1.399 . S
C1158 H1144 0.929 . S
C1158 C1157 1.399 . S
C1158 C1159 1.385 . S
C1159 H1145 0.931 . S
C1159 C1158 1.385 . S
C1159 C1160 1.389 . S
C1160 C1159 1.389 . S
C1160 C1161 1.387 . S
C1161 H1146 0.930 . S
C1161 C1156 1.390 . S
C1161 C1160 1.387 . S
H1162 C1174 0.930 . S
H1163 C1176 0.930 . S
H1164 C1177 0.930 . S
H1165 C1181 0.959 . S
H1166 C1181 0.959 . S
H1167 C1181 0.961 . S
H1168 C1182 0.960 . S
H1169 C1182 0.961 . S
H1170 C1182 0.959 . S
H1171 C1185 0.929 . S
H1172 C1186 0.931 . S
H1173 C1188 0.930 . S
C1174 H1162 0.930 . S
C1174 C1175 1.399 . S
C1174 C1179 1.399 1_565 S
C1175 C1174 1.399 . S
C1175 C1176 1.376 1_565 S
C1176 H1163 0.930 . S
C1176 C1175 1.376 1_545 S
C1176 C1177 1.388 . S
C1177 H1164 0.930 . S
C1177 C1176 1.388 . S
C1177 C1178 1.390 . S
C1178 C1177 1.390 . S
C1178 C1179 1.394 . S
C1178 C1184 1.465 . S
C1179 C1174 1.399 1_545 S
C1179 C1178 1.394 . S
C1179 C1180 1.516 . S
C1180 C1179 1.516 . S
C1180 C1181 1.502 1_545 S
C1180 C1182 1.561 . S
C1180 C1183 1.526 . S
C1181 H1165 0.959 . S
C1181 H1166 0.959 . S
C1181 H1167 0.961 . S
C1181 C1180 1.502 1_565 S
C1182 H1168 0.960 . S
C1182 H1169 0.961 . S
C1182 H1170 0.959 . S
C1182 C1180 1.561 . S
C1183 C1180 1.526 . S
C1183 C1184 1.396 . S
C1183 C1188 1.390 . S
C1184 C1178 1.465 . S
C1184 C1183 1.396 . S
C1184 C1185 1.399 . S
C1185 H1171 0.929 . S
C1185 C1184 1.399 . S
C1185 C1186 1.385 . S
C1186 H1172 0.931 . S
C1186 C1185 1.385 . S
C1186 C1187 1.389 . S
C1187 C1186 1.389 . S
C1187 C1188 1.387 . S
C1188 H1173 0.930 . S
C1188 C1183 1.390 . S
C1188 C1187 1.387 . S
H1189 C1201 0.930 . S
H1190 C1203 0.930 . S
H1191 C1204 0.930 . S
H1192 C1208 0.959 . S
H1193 C1208 0.959 . S
H1194 C1208 0.961 . S
H1195 C1209 0.960 . S
H1196 C1209 0.961 . S
H1197 C1209 0.959 . S
H1198 C1212 0.929 . S
H1199 C1213 0.931 . S
H1200 C1215 0.930 . S
C1201 H1189 0.930 . S
C1201 C1202 1.399 . S
C1201 C1206 1.399 . S
C1202 C1201 1.399 . S
C1202 C1203 1.376 . S
C1203 H1190 0.930 . S
C1203 C1202 1.376 . S
C1203 C1204 1.388 . S
C1204 H1191 0.930 . S
C1204 C1203 1.388 . S
C1204 C1205 1.390 . S
C1205 C1204 1.390 . S
C1205 C1206 1.394 . S
C1205 C1211 1.465 . S
C1206 C1201 1.399 . S
C1206 C1205 1.394 . S
C1206 C1207 1.516 . S
C1207 C1206 1.516 . S
C1207 C1208 1.502 . S
C1207 C1209 1.561 . S
C1207 C1210 1.526 . S
C1208 H1192 0.959 . S
C1208 H1193 0.959 . S
C1208 H1194 0.961 . S
C1208 C1207 1.502 . S
C1209 H1195 0.960 . S
C1209 H1196 0.961 . S
C1209 H1197 0.959 . S
C1209 C1207 1.561 . S
C1210 C1207 1.526 . S
C1210 C1211 1.396 . S
C1210 C1215 1.390 . S
C1211 C1205 1.465 . S
C1211 C1210 1.396 . S
C1211 C1212 1.399 . S
C1212 H1198 0.929 . S
C1212 C1211 1.399 . S
C1212 C1213 1.385 . S
C1213 H1199 0.931 . S
C1213 C1212 1.385 . S
C1213 C1214 1.389 . S
C1214 C1213 1.389 . S
C1214 C1215 1.387 . S
C1215 H1200 0.930 . S
C1215 C1210 1.390 . S
C1215 C1214 1.387 . S
H1216 C1228 0.930 . S
H1217 C1230 0.930 . S
H1218 C1231 0.930 . S
H1219 C1235 0.959 . S
H1220 C1235 0.959 . S
H1221 C1235 0.961 . S
H1222 C1236 0.960 . S
H1223 C1236 0.961 . S
H1224 C1236 0.959 . S
H1225 C1239 0.929 . S
H1226 C1240 0.931 . S
H1227 C1242 0.930 . S
C1228 H1216 0.930 . S
C1228 C1229 1.399 . S
C1228 C1233 1.399 . S
C1229 C1228 1.399 . S
C1229 C1230 1.376 . S
C1230 H1217 0.930 . S
C1230 C1229 1.376 . S
C1230 C1231 1.388 . S
C1231 H1218 0.930 . S
C1231 C1230 1.388 . S
C1231 C1232 1.390 . S
C1232 C1231 1.390 . S
C1232 C1233 1.394 . S
C1232 C1238 1.465 . S
C1233 C1228 1.399 . S
C1233 C1232 1.394 . S
C1233 C1234 1.516 . S
C1234 C1233 1.516 . S
C1234 C1235 1.502 . S
C1234 C1236 1.561 . S
C1234 C1237 1.526 . S
C1235 H1219 0.959 . S
C1235 H1220 0.959 . S
C1235 H1221 0.961 . S
C1235 C1234 1.502 . S
C1236 H1222 0.960 . S
C1236 H1223 0.961 . S
C1236 H1224 0.959 . S
C1236 C1234 1.561 . S
C1237 C1234 1.526 . S
C1237 C1238 1.396 . S
C1237 C1242 1.390 . S
C1238 C1232 1.465 . S
C1238 C1237 1.396 . S
C1238 C1239 1.399 . S
C1239 H1225 0.929 . S
C1239 C1238 1.399 . S
C1239 C1240 1.385 . S
C1240 H1226 0.931 . S
C1240 C1239 1.385 . S
C1240 C1241 1.389 . S
C1241 C1240 1.389 . S
C1241 C1242 1.387 . S
C1242 H1227 0.930 . S
C1242 C1237 1.390 . S
C1242 C1241 1.387 . S
H1243 C1255 0.930 . S
H1244 C1257 0.930 . S
H1245 C1258 0.930 . S
H1246 C1262 0.959 . S
H1247 C1262 0.959 . S
H1248 C1262 0.961 . S
H1249 C1263 0.960 . S
H1250 C1263 0.961 . S
H1251 C1263 0.959 . S
H1252 C1266 0.929 . S
H1253 C1267 0.931 . S
H1254 C1269 0.930 . S
C1255 H1243 0.930 . S
C1255 C1256 1.399 . S
C1255 C1260 1.399 1_545 S
C1256 C1255 1.399 . S
C1256 C1257 1.376 1_545 S
C1257 H1244 0.930 . S
C1257 C1256 1.376 1_565 S
C1257 C1258 1.388 . S
C1258 H1245 0.930 . S
C1258 C1257 1.388 . S
C1258 C1259 1.390 . S
C1259 C1258 1.390 . S
C1259 C1260 1.394 . S
C1259 C1265 1.465 . S
C1260 C1255 1.399 1_565 S
C1260 C1259 1.394 . S
C1260 C1261 1.516 . S
C1261 C1260 1.516 . S
C1261 C1262 1.502 1_565 S
C1261 C1263 1.561 . S
C1261 C1264 1.526 . S
C1262 H1246 0.959 . S
C1262 H1247 0.959 . S
C1262 H1248 0.961 . S
C1262 C1261 1.502 1_545 S
C1263 H1249 0.960 . S
C1263 H1250 0.961 . S
C1263 H1251 0.959 . S
C1263 C1261 1.561 . S
C1264 C1261 1.526 . S
C1264 C1265 1.396 . S
C1264 C1269 1.390 . S
C1265 C1259 1.465 . S
C1265 C1264 1.396 . S
C1265 C1266 1.399 . S
C1266 H1252 0.929 . S
C1266 C1265 1.399 . S
C1266 C1267 1.385 . S
C1267 H1253 0.931 . S
C1267 C1266 1.385 . S
C1267 C1268 1.389 . S
C1268 C1267 1.389 . S
C1268 C1269 1.387 . S
C1269 H1254 0.930 . S
C1269 C1264 1.390 . S
C1269 C1268 1.387 . S
H1270 C1282 0.930 . S
H1271 C1284 0.930 . S
H1272 C1285 0.930 . S
H1273 C1289 0.959 . S
H1274 C1289 0.959 . S
H1275 C1289 0.961 . S
H1276 C1290 0.960 . S
H1277 C1290 0.961 . S
H1278 C1290 0.959 . S
H1279 C1293 0.929 . S
H1280 C1294 0.931 . S
H1281 C1296 0.930 . S
C1282 H1270 0.930 . S
C1282 C1283 1.399 . S
C1282 C1287 1.399 . S
C1283 C1282 1.399 . S
C1283 C1284 1.376 . S
C1284 H1271 0.930 . S
C1284 C1283 1.376 . S
C1284 C1285 1.388 . S
C1285 H1272 0.930 . S
C1285 C1284 1.388 . S
C1285 C1286 1.390 . S
C1286 C1285 1.390 . S
C1286 C1287 1.394 . S
C1286 C1292 1.465 . S
C1287 C1282 1.399 . S
C1287 C1286 1.394 . S
C1287 C1288 1.516 . S
C1288 C1287 1.516 . S
C1288 C1289 1.502 . S
C1288 C1290 1.561 . S
C1288 C1291 1.526 . S
C1289 H1273 0.959 . S
C1289 H1274 0.959 . S
C1289 H1275 0.961 . S
C1289 C1288 1.502 . S
C1290 H1276 0.960 . S
C1290 H1277 0.961 . S
C1290 H1278 0.959 . S
C1290 C1288 1.561 . S
C1291 C1288 1.526 . S
C1291 C1292 1.396 . S
C1291 C1296 1.390 . S
C1292 C1286 1.465 . S
C1292 C1291 1.396 . S
C1292 C1293 1.399 . S
C1293 H1279 0.929 . S
C1293 C1292 1.399 . S
C1293 C1294 1.385 . S
C1294 H1280 0.931 . S
C1294 C1293 1.385 . S
C1294 C1295 1.389 . S
C1295 C1294 1.389 . S
C1295 C1296 1.387 . S
C1296 H1281 0.930 . S
C1296 C1291 1.390 . S
C1296 C1295 1.387 . S
H1297 C1309 0.930 . S
H1298 C1311 0.930 . S
H1299 C1312 0.930 . S
H1300 C1316 0.959 . S
H1301 C1316 0.959 . S
H1302 C1316 0.961 . S
H1303 C1317 0.960 . S
H1304 C1317 0.961 . S
H1305 C1317 0.959 . S
H1306 C1320 0.932 . S
H1307 C1321 0.931 . S
H1308 C1323 0.930 . S
C1309 H1297 0.930 . S
C1309 C1310 1.399 . S
C1309 C1314 1.399 . S
C1310 C1309 1.399 . S
C1310 C1311 1.376 . S
C1311 H1298 0.930 . S
C1311 C1310 1.376 . S
C1311 C1312 1.388 . S
C1312 H1299 0.930 . S
C1312 C1311 1.388 . S
C1312 C1313 1.390 . S
C1313 C1312 1.390 . S
C1313 C1314 1.394 . S
C1313 C1319 1.465 . S
C1314 C1309 1.399 . S
C1314 C1313 1.394 . S
C1314 C1315 1.516 . S
C1315 C1314 1.516 . S
C1315 C1316 1.502 . S
C1315 C1317 1.561 1_545 S
C1315 C1318 1.526 . S
C1316 H1300 0.959 . S
C1316 H1301 0.959 . S
C1316 H1302 0.961 . S
C1316 C1315 1.502 . S
C1317 H1303 0.960 . S
C1317 H1304 0.961 . S
C1317 H1305 0.959 . S
C1317 C1315 1.561 1_565 S
C1318 C1315 1.526 . S
C1318 C1319 1.396 . S
C1318 C1323 1.390 1_545 S
C1319 C1313 1.465 . S
C1319 C1318 1.396 . S
C1319 C1320 1.408 . S
C1320 H1306 0.932 . S
C1320 C1319 1.408 . S
C1320 C1321 1.375 1_545 S
C1321 H1307 0.931 . S
C1321 C1320 1.375 1_565 S
C1321 C1322 1.389 . S
C1322 C1321 1.389 . S
C1322 C1323 1.387 . S
C1323 H1308 0.930 . S
C1323 C1318 1.390 1_565 S
C1323 C1322 1.387 . S
H1324 C1336 0.930 . S
H1325 C1338 0.930 . S
H1326 C1339 0.930 . S
H1327 C1343 0.959 . S
H1328 C1343 0.959 . S
H1329 C1343 0.961 . S
H1330 C1344 0.960 . S
H1331 C1344 0.961 . S
H1332 C1344 0.959 . S
H1333 C1347 0.929 . S
H1334 C1348 0.931 . S
H1335 C1350 0.930 . S
C1336 H1324 0.930 . S
C1336 C1337 1.399 . S
C1336 C1341 1.399 . S
C1337 C1336 1.399 . S
C1337 C1338 1.376 . S
C1338 H1325 0.930 . S
C1338 C1337 1.376 . S
C1338 C1339 1.388 . S
C1339 H1326 0.930 . S
C1339 C1338 1.388 . S
C1339 C1340 1.390 . S
C1340 C1339 1.390 . S
C1340 C1341 1.394 . S
C1340 C1346 1.465 . S
C1341 C1336 1.399 . S
C1341 C1340 1.394 . S
C1341 C1342 1.516 . S
C1342 C1341 1.516 . S
C1342 C1343 1.502 . S
C1342 C1344 1.561 . S
C1342 C1345 1.526 . S
C1343 H1327 0.959 . S
C1343 H1328 0.959 . S
C1343 H1329 0.961 . S
C1343 C1342 1.502 . S
C1344 H1330 0.960 . S
C1344 H1331 0.961 . S
C1344 H1332 0.959 . S
C1344 C1342 1.561 . S
C1345 C1342 1.526 . S
C1345 C1346 1.396 . S
C1345 C1350 1.390 . S
C1346 C1340 1.465 . S
C1346 C1345 1.396 . S
C1346 C1347 1.399 . S
C1347 H1333 0.929 . S
C1347 C1346 1.399 . S
C1347 C1348 1.385 . S
C1348 H1334 0.931 . S
C1348 C1347 1.385 . S
C1348 C1349 1.389 . S
C1349 C1348 1.389 . S
C1349 C1350 1.387 . S
C1350 H1335 0.930 . S
C1350 C1345 1.390 . S
C1350 C1349 1.387 . S
H1351 C1363 0.930 . S
H1352 C1365 0.930 . S
H1353 C1366 0.930 . S
H1354 C1370 0.959 . S
H1355 C1370 0.959 . S
H1356 C1370 0.961 . S
H1357 C1371 0.960 . S
H1358 C1371 0.961 . S
H1359 C1371 0.959 . S
H1360 C1374 0.929 . S
H1361 C1375 0.931 . S
H1362 C1377 0.930 . S
C1363 H1351 0.930 . S
C1363 C1364 1.399 . S
C1363 C1368 1.399 1_565 S
C1364 C1363 1.399 . S
C1364 C1365 1.376 1_565 S
C1365 H1352 0.930 . S
C1365 C1364 1.376 1_545 S
C1365 C1366 1.388 . S
C1366 H1353 0.930 . S
C1366 C1365 1.388 . S
C1366 C1367 1.390 . S
C1367 C1366 1.390 . S
C1367 C1368 1.394 . S
C1367 C1373 1.465 . S
C1368 C1363 1.399 1_545 S
C1368 C1367 1.394 . S
C1368 C1369 1.516 . S
C1369 C1368 1.516 . S
C1369 C1370 1.502 1_545 S
C1369 C1371 1.561 . S
C1369 C1372 1.526 . S
C1370 H1354 0.959 . S
C1370 H1355 0.959 . S
C1370 H1356 0.961 . S
C1370 C1369 1.502 1_565 S
C1371 H1357 0.960 . S
C1371 H1358 0.961 . S
C1371 H1359 0.959 . S
C1371 C1369 1.561 . S
C1372 C1369 1.526 . S
C1372 C1373 1.396 . S
C1372 C1377 1.390 . S
C1373 C1367 1.465 . S
C1373 C1372 1.396 . S
C1373 C1374 1.399 . S
C1374 H1360 0.929 . S
C1374 C1373 1.399 . S
C1374 C1375 1.385 . S
C1375 H1361 0.931 . S
C1375 C1374 1.385 . S
C1375 C1376 1.389 . S
C1376 C1375 1.389 . S
C1376 C1377 1.387 . S
C1377 H1362 0.930 . S
C1377 C1372 1.390 . S
C1377 C1376 1.387 . S
H1378 C1390 0.930 . S
H1379 C1392 0.930 . S
H1380 C1393 0.930 . S
H1381 C1397 0.959 . S
H1382 C1397 0.959 . S
H1383 C1397 0.961 . S
H1384 C1398 0.960 . S
H1385 C1398 0.961 . S
H1386 C1398 0.959 . S
H1387 C1401 0.929 . S
H1388 C1402 0.931 . S
H1389 C1404 0.930 . S
C1390 H1378 0.930 . S
C1390 C1391 1.399 . S
C1390 C1395 1.399 . S
C1391 C1390 1.399 . S
C1391 C1392 1.376 . S
C1392 H1379 0.930 . S
C1392 C1391 1.376 . S
C1392 C1393 1.388 . S
C1393 H1380 0.930 . S
C1393 C1392 1.388 . S
C1393 C1394 1.390 . S
C1394 C1393 1.390 . S
C1394 C1395 1.394 . S
C1394 C1400 1.465 . S
C1395 C1390 1.399 . S
C1395 C1394 1.394 . S
C1395 C1396 1.516 . S
C1396 C1395 1.516 . S
C1396 C1397 1.502 . S
C1396 C1398 1.561 . S
C1396 C1399 1.526 . S
C1397 H1381 0.959 . S
C1397 H1382 0.959 . S
C1397 H1383 0.961 . S
C1397 C1396 1.502 . S
C1398 H1384 0.960 . S
C1398 H1385 0.961 . S
C1398 H1386 0.959 . S
C1398 C1396 1.561 . S
C1399 C1396 1.526 . S
C1399 C1400 1.396 . S
C1399 C1404 1.390 . S
C1400 C1394 1.465 . S
C1400 C1399 1.396 . S
C1400 C1401 1.399 . S
C1401 H1387 0.929 . S
C1401 C1400 1.399 . S
C1401 C1402 1.385 . S
C1402 H1388 0.931 . S
C1402 C1401 1.385 . S
C1402 C1403 1.389 . S
C1403 C1402 1.389 . S
C1403 C1404 1.387 . S
C1404 H1389 0.930 . S
C1404 C1399 1.390 . S
C1404 C1403 1.387 . S
H1405 C1417 0.930 . S
H1406 C1419 0.930 . S
H1407 C1420 0.930 . S
H1408 C1424 0.959 . S
H1409 C1424 0.959 . S
H1410 C1424 0.961 . S
H1411 C1425 0.960 . S
H1412 C1425 0.961 . S
H1413 C1425 0.959 . S
H1414 C1428 0.929 . S
H1415 C1429 0.931 . S
H1416 C1431 0.930 . S
C1417 H1405 0.930 . S
C1417 C1418 1.399 . S
C1417 C1422 1.399 1_545 S
C1418 C1417 1.399 . S
C1418 C1419 1.376 1_545 S
C1419 H1406 0.930 . S
C1419 C1418 1.376 1_565 S
C1419 C1420 1.388 . S
C1420 H1407 0.930 . S
C1420 C1419 1.388 . S
C1420 C1421 1.390 . S
C1421 C1420 1.390 . S
C1421 C1422 1.394 . S
C1421 C1427 1.465 . S
C1422 C1417 1.399 1_565 S
C1422 C1421 1.394 . S
C1422 C1423 1.516 . S
C1423 C1422 1.516 . S
C1423 C1424 1.502 1_565 S
C1423 C1425 1.561 . S
C1423 C1426 1.526 . S
C1424 H1408 0.959 . S
C1424 H1409 0.959 . S
C1424 H1410 0.961 . S
C1424 C1423 1.502 1_545 S
C1425 H1411 0.960 . S
C1425 H1412 0.961 . S
C1425 H1413 0.959 . S
C1425 C1423 1.561 . S
C1426 C1423 1.526 . S
C1426 C1427 1.396 . S
C1426 C1431 1.390 . S
C1427 C1421 1.465 . S
C1427 C1426 1.396 . S
C1427 C1428 1.399 . S
C1428 H1414 0.929 . S
C1428 C1427 1.399 . S
C1428 C1429 1.385 . S
C1429 H1415 0.931 . S
C1429 C1428 1.385 . S
C1429 C1430 1.389 . S
C1430 C1429 1.389 . S
C1430 C1431 1.387 . S
C1431 H1416 0.930 . S
C1431 C1426 1.390 . S
C1431 C1430 1.387 . S
H1432 C1444 0.930 . S
H1433 C1446 0.930 . S
H1434 C1447 0.930 . S
H1435 C1451 0.959 . S
H1436 C1451 0.959 . S
H1437 C1451 0.961 . S
H1438 C1452 0.960 . S
H1439 C1452 0.961 . S
H1440 C1452 0.959 . S
H1441 C1455 0.929 . S
H1442 C1456 0.931 . S
H1443 C1458 0.930 . S
C1444 H1432 0.930 . S
C1444 C1445 1.399 . S
C1444 C1449 1.399 . S
C1445 C1444 1.399 . S
C1445 C1446 1.376 . S
C1446 H1433 0.930 . S
C1446 C1445 1.376 . S
C1446 C1447 1.388 . S
C1447 H1434 0.930 . S
C1447 C1446 1.388 . S
C1447 C1448 1.390 . S
C1448 C1447 1.390 . S
C1448 C1449 1.394 . S
C1448 C1454 1.465 . S
C1449 C1444 1.399 . S
C1449 C1448 1.394 . S
C1449 C1450 1.516 . S
C1450 C1449 1.516 . S
C1450 C1451 1.502 . S
C1450 C1452 1.561 . S
C1450 C1453 1.526 . S
C1451 H1435 0.959 . S
C1451 H1436 0.959 . S
C1451 H1437 0.961 . S
C1451 C1450 1.502 . S
C1452 H1438 0.960 . S
C1452 H1439 0.961 . S
C1452 H1440 0.959 . S
C1452 C1450 1.561 . S
C1453 C1450 1.526 . S
C1453 C1454 1.396 . S
C1453 C1458 1.390 . S
C1454 C1448 1.465 . S
C1454 C1453 1.396 . S
C1454 C1455 1.399 . S
C1455 H1441 0.929 . S
C1455 C1454 1.399 . S
C1455 C1456 1.385 . S
C1456 H1442 0.931 . S
C1456 C1455 1.385 . S
C1456 C1457 1.389 . S
C1457 C1456 1.389 . S
C1457 C1458 1.387 . S
C1458 H1443 0.930 . S
C1458 C1453 1.390 . S
C1458 C1457 1.387 . S
H1459 C1471 0.930 . S
H1460 C1473 0.930 . S
H1461 C1474 0.930 . S
H1462 C1478 0.959 . S
H1463 C1478 0.959 . S
H1464 C1478 0.961 . S
H1465 C1479 0.960 . S
H1466 C1479 0.961 . S
H1467 C1479 0.959 . S
H1468 C1482 0.929 . S
H1469 C1483 0.931 . S
H1470 C1485 0.930 . S
C1471 H1459 0.930 . S
C1471 C1472 1.399 . S
C1471 C1476 1.399 . S
C1472 C1471 1.399 . S
C1472 C1473 1.376 . S
C1473 H1460 0.930 . S
C1473 C1472 1.376 . S
C1473 C1474 1.388 . S
C1474 H1461 0.930 . S
C1474 C1473 1.388 . S
C1474 C1475 1.390 . S
C1475 C1474 1.390 . S
C1475 C1476 1.394 . S
C1475 C1481 1.465 . S
C1476 C1471 1.399 . S
C1476 C1475 1.394 . S
C1476 C1477 1.516 . S
C1477 C1476 1.516 . S
C1477 C1478 1.502 . S
C1477 C1479 1.561 . S
C1477 C1480 1.526 . S
C1478 H1462 0.959 . S
C1478 H1463 0.959 . S
C1478 H1464 0.961 . S
C1478 C1477 1.502 . S
C1479 H1465 0.960 . S
C1479 H1466 0.961 . S
C1479 H1467 0.959 . S
C1479 C1477 1.561 . S
C1480 C1477 1.526 . S
C1480 C1481 1.396 . S
C1480 C1485 1.390 . S
C1481 C1475 1.465 . S
C1481 C1480 1.396 . S
C1481 C1482 1.399 . S
C1482 H1468 0.929 . S
C1482 C1481 1.399 . S
C1482 C1483 1.385 . S
C1483 H1469 0.931 . S
C1483 C1482 1.385 . S
C1483 C1484 1.389 . S
C1484 C1483 1.389 . S
C1484 C1485 1.387 . S
C1485 H1470 0.930 . S
C1485 C1480 1.390 . S
C1485 C1484 1.387 . S
H1486 C1498 0.930 . S
H1487 C1500 0.930 . S
H1488 C1501 0.930 . S
H1489 C1505 0.959 . S
H1490 C1505 0.959 . S
H1491 C1505 0.961 . S
H1492 C1506 0.960 . S
H1493 C1506 0.961 . S
H1494 C1506 0.959 . S
H1495 C1509 0.929 . S
H1496 C1510 0.931 . S
H1497 C1512 0.930 . S
C1498 H1486 0.930 . S
C1498 C1499 1.399 . S
C1498 C1503 1.399 . S
C1499 C1498 1.399 . S
C1499 C1500 1.376 . S
C1500 H1487 0.930 . S
C1500 C1499 1.376 . S
C1500 C1501 1.388 . S
C1501 H1488 0.930 . S
C1501 C1500 1.388 . S
C1501 C1502 1.390 . S
C1502 C1501 1.390 . S
C1502 C1503 1.394 . S
C1502 C1508 1.465 . S
C1503 C1498 1.399 . S
C1503 C1502 1.394 . S
C1503 C1504 1.516 . S
C1504 C1503 1.516 . S
C1504 C1505 1.502 . S
C1504 C1506 1.561 . S
C1504 C1507 1.526 . S
C1505 H1489 0.959 . S
C1505 H1490 0.959 . S
C1505 H1491 0.961 . S
C1505 C1504 1.502 . S
C1506 H1492 0.960 . S
C1506 H1493 0.961 . S
C1506 H1494 0.959 . S
C1506 C1504 1.561 . S
C1507 C1504 1.526 . S
C1507 C1508 1.396 . S
C1507 C1512 1.390 . S
C1508 C1502 1.465 . S
C1508 C1507 1.396 . S
C1508 C1509 1.399 . S
C1509 H1495 0.929 . S
C1509 C1508 1.399 . S
C1509 C1510 1.385 . S
C1510 H1496 0.931 . S
C1510 C1509 1.385 . S
C1510 C1511 1.389 . S
C1511 C1510 1.389 . S
C1511 C1512 1.387 . S
C1512 H1497 0.930 . S
C1512 C1507 1.390 . S
C1512 C1511 1.387 . S
H1513 C1525 0.930 . S
H1514 C1527 0.930 . S
H1515 C1528 0.930 . S
H1516 C1532 0.959 . S
H1517 C1532 0.959 . S
H1518 C1532 0.961 . S
H1519 C1533 0.960 . S
H1520 C1533 0.961 . S
H1521 C1533 0.959 . S
H1522 C1536 0.929 . S
H1523 C1537 0.931 . S
H1524 C1539 0.930 . S
C1525 H1513 0.930 . S
C1525 C1526 1.399 . S
C1525 C1530 1.399 . S
C1526 C1525 1.399 . S
C1526 C1527 1.376 . S
C1527 H1514 0.930 . S
C1527 C1526 1.376 . S
C1527 C1528 1.388 . S
C1528 H1515 0.930 . S
C1528 C1527 1.388 . S
C1528 C1529 1.390 . S
C1529 C1528 1.390 . S
C1529 C1530 1.394 . S
C1529 C1535 1.465 . S
C1530 C1525 1.399 . S
C1530 C1529 1.394 . S
C1530 C1531 1.516 . S
C1531 C1530 1.516 . S
C1531 C1532 1.502 . S
C1531 C1533 1.561 . S
C1531 C1534 1.526 . S
C1532 H1516 0.959 . S
C1532 H1517 0.959 . S
C1532 H1518 0.961 . S
C1532 C1531 1.502 . S
C1533 H1519 0.960 . S
C1533 H1520 0.961 . S
C1533 H1521 0.959 . S
C1533 C1531 1.561 . S
C1534 C1531 1.526 . S
C1534 C1535 1.396 . S
C1534 C1539 1.390 . S
C1535 C1529 1.465 . S
C1535 C1534 1.396 . S
C1535 C1536 1.399 . S
C1536 H1522 0.929 . S
C1536 C1535 1.399 . S
C1536 C1537 1.385 . S
C1537 H1523 0.931 . S
C1537 C1536 1.385 . S
C1537 C1538 1.389 . S
C1538 C1537 1.389 . S
C1538 C1539 1.387 . S
C1539 H1524 0.930 . S
C1539 C1534 1.390 . S
C1539 C1538 1.387 . S
H1540 C1552 0.930 . S
H1541 C1554 0.930 . S
H1542 C1555 0.930 . S
H1543 C1559 0.959 . S
H1544 C1559 0.959 . S
H1545 C1559 0.961 . S
H1546 C1560 0.960 . S
H1547 C1560 0.961 . S
H1548 C1560 0.959 . S
H1549 C1563 0.929 . S
H1550 C1564 0.931 . S
H1551 C1566 0.930 . S
C1552 H1540 0.930 . S
C1552 C1553 1.399 . S
C1552 C1557 1.399 . S
C1553 C1552 1.399 . S
C1553 C1554 1.376 . S
C1554 H1541 0.930 . S
C1554 C1553 1.376 . S
C1554 C1555 1.388 1_455 S
C1555 H1542 0.930 . S
C1555 C1554 1.388 1_655 S
C1555 C1556 1.390 . S
C1556 C1555 1.390 . S
C1556 C1557 1.394 1_655 S
C1556 C1562 1.465 . S
C1557 C1552 1.399 . S
C1557 C1556 1.394 1_455 S
C1557 C1558 1.516 . S
C1558 C1557 1.516 . S
C1558 C1559 1.502 . S
C1558 C1560 1.561 1_455 S
C1558 C1561 1.526 1_455 S
C1559 H1543 0.959 . S
C1559 H1544 0.959 . S
C1559 H1545 0.961 . S
C1559 C1558 1.502 . S
C1560 H1546 0.960 . S
C1560 H1547 0.961 . S
C1560 H1548 0.959 . S
C1560 C1558 1.561 1_655 S
C1561 C1558 1.526 1_655 S
C1561 C1562 1.396 . S
C1561 C1566 1.390 . S
C1562 C1556 1.465 . S
C1562 C1561 1.396 . S
C1562 C1563 1.399 . S
C1563 H1549 0.929 . S
C1563 C1562 1.399 . S
C1563 C1564 1.385 . S
C1564 H1550 0.931 . S
C1564 C1563 1.385 . S
C1564 C1565 1.389 . S
C1565 C1564 1.389 . S
C1565 C1566 1.387 . S
C1566 H1551 0.930 . S
C1566 C1561 1.390 . S
C1566 C1565 1.387 . S
H1567 C1579 0.930 . S
H1568 C1581 0.930 . S
H1569 C1582 0.930 . S
H1570 C1586 0.959 . S
H1571 C1586 0.959 . S
H1572 C1586 0.961 . S
H1573 C1587 0.960 . S
H1574 C1587 0.961 . S
H1575 C1587 0.959 . S
H1576 C1590 0.929 . S
H1577 C1591 0.931 . S
H1578 C1593 0.930 . S
C1579 H1567 0.930 . S
C1579 C1580 1.399 . S
C1579 C1584 1.399 . S
C1580 C1579 1.399 . S
C1580 C1581 1.376 . S
C1581 H1568 0.930 . S
C1581 C1580 1.376 . S
C1581 C1582 1.388 1_655 S
C1582 H1569 0.930 . S
C1582 C1581 1.388 1_455 S
C1582 C1583 1.390 . S
C1583 C1582 1.390 . S
C1583 C1584 1.394 1_455 S
C1583 C1589 1.465 . S
C1584 C1579 1.399 . S
C1584 C1583 1.394 1_655 S
C1584 C1585 1.516 . S
C1585 C1584 1.516 . S
C1585 C1586 1.502 . S
C1585 C1587 1.561 1_655 S
C1585 C1588 1.526 1_655 S
C1586 H1570 0.959 . S
C1586 H1571 0.959 . S
C1586 H1572 0.961 . S
C1586 C1585 1.502 . S
C1587 H1573 0.960 . S
C1587 H1574 0.961 . S
C1587 H1575 0.959 . S
C1587 C1585 1.561 1_455 S
C1588 C1585 1.526 1_455 S
C1588 C1589 1.396 . S
C1588 C1593 1.390 . S
C1589 C1583 1.465 . S
C1589 C1588 1.396 . S
C1589 C1590 1.399 . S
C1590 H1576 0.929 . S
C1590 C1589 1.399 . S
C1590 C1591 1.385 . S
C1591 H1577 0.931 . S
C1591 C1590 1.385 . S
C1591 C1592 1.389 . S
C1592 C1591 1.389 . S
C1592 C1593 1.387 . S
C1593 H1578 0.930 . S
C1593 C1588 1.390 . S
C1593 C1592 1.387 . S
H1594 C1606 0.930 . S
H1595 C1608 0.930 . S
H1596 C1609 0.930 . S
H1597 C1613 0.959 . S
H1598 C1613 0.959 . S
H1599 C1613 0.961 . S
H1600 C1614 0.960 . S
H1601 C1614 0.961 . S
H1602 C1614 0.959 . S
H1603 C1617 0.929 . S
H1604 C1618 0.931 . S
H1605 C1620 0.930 . S
C1606 H1594 0.930 . S
C1606 C1607 1.399 . S
C1606 C1611 1.399 . S
C1607 C1606 1.399 . S
C1607 C1608 1.376 . S
C1608 H1595 0.930 . S
C1608 C1607 1.376 . S
C1608 C1609 1.388 . S
C1609 H1596 0.930 . S
C1609 C1608 1.388 . S
C1609 C1610 1.390 . S
C1610 C1609 1.390 . S
C1610 C1611 1.394 . S
C1610 C1616 1.465 1_655 S
C1611 C1606 1.399 . S
C1611 C1610 1.394 . S
C1611 C1612 1.516 . S
C1612 C1611 1.516 . S
C1612 C1613 1.502 1_655 S
C1612 C1614 1.561 . S
C1612 C1615 1.526 1_655 S
C1613 H1597 0.959 . S
C1613 H1598 0.959 . S
C1613 H1599 0.961 . S
C1613 C1612 1.502 1_455 S
C1614 H1600 0.960 . S
C1614 H1601 0.961 . S
C1614 H1602 0.959 . S
C1614 C1612 1.561 . S
C1615 C1612 1.526 1_455 S
C1615 C1616 1.396 . S
C1615 C1620 1.390 . S
C1616 C1610 1.465 1_455 S
C1616 C1615 1.396 . S
C1616 C1617 1.399 . S
C1617 H1603 0.929 . S
C1617 C1616 1.399 . S
C1617 C1618 1.385 . S
C1618 H1604 0.931 . S
C1618 C1617 1.385 . S
C1618 C1619 1.389 . S
C1619 C1618 1.389 . S
C1619 C1620 1.387 . S
C1620 H1605 0.930 . S
C1620 C1615 1.390 . S
C1620 C1619 1.387 . S
H1621 C1633 0.926 1_455 S
H1622 C1635 0.930 . S
H1623 C1636 0.930 . S
H1624 C1640 0.959 1_655 S
H1625 C1640 0.959 . S
H1626 C1640 0.961 . S
H1627 C1641 0.960 . S
H1628 C1641 0.961 . S
H1629 C1641 0.959 . S
H1630 C1644 0.929 . S
H1631 C1645 0.931 . S
H1632 C1647 0.930 . S
C1633 H1621 0.926 1_655 S
C1633 C1634 1.399 . S
C1633 C1638 1.399 1_655 S
C1634 C1633 1.399 . S
C1634 C1635 1.376 . S
C1635 H1622 0.930 . S
C1635 C1634 1.376 . S
C1635 C1636 1.388 . S
C1636 H1623 0.930 . S
C1636 C1635 1.388 . S
C1636 C1637 1.390 . S
C1637 C1636 1.390 . S
C1637 C1638 1.394 1_655 S
C1637 C1643 1.463 1_655 S
C1638 C1633 1.399 1_455 S
C1638 C1637 1.394 1_455 S
C1638 C1639 1.516 . S
C1639 C1638 1.516 . S
C1639 C1640 1.502 . S
C1639 C1641 1.561 . S
C1639 C1642 1.526 . S
C1640 H1624 0.959 1_455 S
C1640 H1625 0.959 . S
C1640 H1626 0.961 . S
C1640 C1639 1.502 . S
C1641 H1627 0.960 . S
C1641 H1628 0.961 . S
C1641 H1629 0.959 . S
C1641 C1639 1.561 . S
C1642 C1639 1.526 . S
C1642 C1643 1.400 . S
C1642 C1647 1.390 . S
C1643 C1637 1.463 1_455 S
C1643 C1642 1.400 . S
C1643 C1644 1.397 1_455 S
C1644 H1630 0.929 . S
C1644 C1643 1.397 1_655 S
C1644 C1645 1.385 1_655 S
C1645 H1631 0.931 . S
C1645 C1644 1.385 1_455 S
C1645 C1646 1.389 . S
C1646 C1645 1.389 . S
C1646 C1647 1.387 . S
C1647 H1632 0.930 . S
C1647 C1642 1.390 . S
C1647 C1646 1.387 . S
C365 C6 0.878 . S
C377 C93 0.864 . S
C392 C28 0.799 . S
C404 C119 0.964 . S
C419 C50 0.890 . S
C431 C137 0.904 . S
C446 C73 0.894 . S
C458 C159 0.900 . S
C473 C182 0.887 . S
C485 C269 0.855 . S
C500 C204 0.818 . S
C512 C295 0.957 . S
C527 C226 0.871 . S
C539 C313 0.871 . S
C554 C249 0.885 . S
C566 C335 0.858 . S
C581 C7 1.762 . S
C593 C51 1.827 . S
C608 C29 1.833 . S
C620 C72 1.761 . S
C635 C97 1.828 . S
C647 C141 1.762 . S
C662 C115 1.798 . S
C674 C163 1.766 . S
C689 C227 1.841 . S
C701 C183 1.772 . S
C716 C248 1.796 . S
C728 C205 1.825 . S
C743 C273 1.827 . S
C755 C317 1.762 . S
C770 C291 1.800 . S
C782 C339 1.766 . S
C797 C4 1.906 . S
C809 C250 1.905 . S
C824 C224 1.892 . S
C836 C26 1.893 . S
C851 C48 1.891 . S
C863 C202 1.892 . S
C878 C74 1.890 . S
C890 C180 1.890 . S
C905 C92 1.906 . S
C917 C334 1.907 . S
C932 C118 1.905 . S
C944 C312 1.908 . S
C959 C294 1.897 . S
C971 C136 1.892 . S
C986 C158 1.893 . S
C998 C268 1.890 . S
C1013 C9 1.198 . S
C1025 C336 1.266 . S
C1040 C31 1.281 . S
C1052 C314 1.265 . S
C1067 C53 1.207 . S
C1079 C293 1.302 . S
C1094 C71 1.178 . S
C1106 C270 1.289 . S
C1121 C251 1.273 . S
C1133 C95 1.282 . S
C1148 C225 1.290 . S
C1160 C116 1.276 . S
C1175 C203 1.272 . S
C1187 C139 1.281 . S
C1202 C161 1.231 . S
C1214 C181 1.247 . S
C1229 C160 1.246 . S
C1241 C185 1.250 . S
C1256 C138 1.302 . S
C1268 C207 1.215 . S
C1283 C117 1.246 . S
C1295 C229 1.253 . S
C1310 C247 1.180 . S
C1322 C94 1.295 . S
C1337 C271 1.272 . S
C1349 C75 1.259 . S
C1364 C49 1.265 . S
C1376 C292 1.278 . S
C1391 C315 1.182 . S
C1403 C27 1.262 . S
C1418 C5 1.270 . S
C1430 C337 1.281 . S
C1445 C8 1.431 . S
C1457 C30 1.465 . S
C1472 C70 1.404 . S
C1484 C52 1.393 . S
C1499 C96 1.390 . S
C1511 C114 1.399 . S
C1526 C162 1.466 . S
C1538 C140 1.455 . S
C1553 C206 1.418 . S
C1565 C184 1.391 . S
C1580 C228 1.419 . S
C1592 C246 1.391 . S
C1607 C290 1.390 . S
C1619 C272 1.396 . S
C1634 C338 1.463 . S
C1646 C316 1.467 . S
