# Generated by pormake.
# Topology yfr, (5)-cn, num edge types: 1
# Building blocks:
#     Node 0, Type 0, BuildingBlock: XOMCOT_clean_sbu_1, # of connection points: 5
#     Node 1, Type 0, BuildingBlock: XOMCOT_clean_sbu_1, # of connection points: 5
#     Node 2, Type 0, BuildingBlock: XOMCOT_clean_sbu_1, # of connection points: 5
#     Node 3, Type 0, BuildingBlock: XOMCOT_clean_sbu_1, # of connection points: 5
#     Node 4, Type 0, BuildingBlock: XOMCOT_clean_sbu_1, # of connection points: 5
#     Node 5, Type 0, BuildingBlock: XOMCOT_clean_sbu_1, # of connection points: 5
#     Node 6, Type 0, BuildingBlock: XOMCOT_clean_sbu_1, # of connection points: 5
#     Node 7, Type 0, BuildingBlock: XOMCOT_clean_sbu_1, # of connection points: 5
#     Node 8, Type 0, BuildingBlock: XOMCOT_clean_sbu_1, # of connection points: 5
#     Node 9, Type 0, BuildingBlock: XOMCOT_clean_sbu_1, # of connection points: 5
#     Node 10, Type 0, BuildingBlock: XOMCOT_clean_sbu_1, # of connection points: 5
#     Node 11, Type 0, BuildingBlock: XOMCOT_clean_sbu_1, # of connection points: 5
#     Node 12, Type 0, BuildingBlock: XOMCOT_clean_sbu_1, # of connection points: 5
#     Node 13, Type 0, BuildingBlock: XOMCOT_clean_sbu_1, # of connection points: 5
#     Node 14, Type 0, BuildingBlock: XOMCOT_clean_sbu_1, # of connection points: 5
#     Node 15, Type 0, BuildingBlock: XOMCOT_clean_sbu_1, # of connection points: 5
#     Node 16, Type 0, BuildingBlock: XOMCOT_clean_sbu_1, # of connection points: 5
#     Node 17, Type 0, BuildingBlock: XOMCOT_clean_sbu_1, # of connection points: 5
#     Node 18, Type 0, BuildingBlock: XOMCOT_clean_sbu_1, # of connection points: 5
#     Node 19, Type 0, BuildingBlock: XOMCOT_clean_sbu_1, # of connection points: 5
#     Node 20, Type 0, BuildingBlock: XOMCOT_clean_sbu_1, # of connection points: 5
#     Node 21, Type 0, BuildingBlock: XOMCOT_clean_sbu_1, # of connection points: 5
#     Node 22, Type 0, BuildingBlock: XOMCOT_clean_sbu_1, # of connection points: 5
#     Node 23, Type 0, BuildingBlock: XOMCOT_clean_sbu_1, # of connection points: 5
#     Node 24, Type 0, BuildingBlock: XOMCOT_clean_sbu_1, # of connection points: 5
#     Node 25, Type 0, BuildingBlock: XOMCOT_clean_sbu_1, # of connection points: 5
#     Node 26, Type 0, BuildingBlock: XOMCOT_clean_sbu_1, # of connection points: 5
#     Node 27, Type 0, BuildingBlock: XOMCOT_clean_sbu_1, # of connection points: 5
#     Node 28, Type 0, BuildingBlock: XOMCOT_clean_sbu_1, # of connection points: 5
#     Node 29, Type 0, BuildingBlock: XOMCOT_clean_sbu_1, # of connection points: 5
#     Node 30, Type 0, BuildingBlock: XOMCOT_clean_sbu_1, # of connection points: 5
#     Node 31, Type 0, BuildingBlock: XOMCOT_clean_sbu_1, # of connection points: 5
#     Edge 32, Type (0, 0), BuildingBlock: XIVTED_clean_linker_0, # of connection points: 2
#     Edge 33, Type (0, 0), BuildingBlock: XIVTED_clean_linker_0, # of connection points: 2
#     Edge 34, Type (0, 0), BuildingBlock: XIVTED_clean_linker_0, # of connection points: 2
#     Edge 35, Type (0, 0), BuildingBlock: XIVTED_clean_linker_0, # of connection points: 2
#     Edge 36, Type (0, 0), BuildingBlock: XIVTED_clean_linker_0, # of connection points: 2
#     Edge 37, Type (0, 0), BuildingBlock: XIVTED_clean_linker_0, # of connection points: 2
#     Edge 38, Type (0, 0), BuildingBlock: XIVTED_clean_linker_0, # of connection points: 2
#     Edge 39, Type (0, 0), BuildingBlock: XIVTED_clean_linker_0, # of connection points: 2
#     Edge 40, Type (0, 0), BuildingBlock: XIVTED_clean_linker_0, # of connection points: 2
#     Edge 41, Type (0, 0), BuildingBlock: XIVTED_clean_linker_0, # of connection points: 2
#     Edge 42, Type (0, 0), BuildingBlock: XIVTED_clean_linker_0, # of connection points: 2
#     Edge 43, Type (0, 0), BuildingBlock: XIVTED_clean_linker_0, # of connection points: 2
#     Edge 44, Type (0, 0), BuildingBlock: XIVTED_clean_linker_0, # of connection points: 2
#     Edge 45, Type (0, 0), BuildingBlock: XIVTED_clean_linker_0, # of connection points: 2
#     Edge 46, Type (0, 0), BuildingBlock: XIVTED_clean_linker_0, # of connection points: 2
#     Edge 47, Type (0, 0), BuildingBlock: XIVTED_clean_linker_0, # of connection points: 2
#     Edge 48, Type (0, 0), BuildingBlock: XIVTED_clean_linker_0, # of connection points: 2
#     Edge 49, Type (0, 0), BuildingBlock: XIVTED_clean_linker_0, # of connection points: 2
#     Edge 50, Type (0, 0), BuildingBlock: XIVTED_clean_linker_0, # of connection points: 2
#     Edge 51, Type (0, 0), BuildingBlock: XIVTED_clean_linker_0, # of connection points: 2
#     Edge 52, Type (0, 0), BuildingBlock: XIVTED_clean_linker_0, # of connection points: 2
#     Edge 53, Type (0, 0), BuildingBlock: XIVTED_clean_linker_0, # of connection points: 2
#     Edge 54, Type (0, 0), BuildingBlock: XIVTED_clean_linker_0, # of connection points: 2
#     Edge 55, Type (0, 0), BuildingBlock: XIVTED_clean_linker_0, # of connection points: 2
#     Edge 56, Type (0, 0), BuildingBlock: XIVTED_clean_linker_0, # of connection points: 2
#     Edge 57, Type (0, 0), BuildingBlock: XIVTED_clean_linker_0, # of connection points: 2
#     Edge 58, Type (0, 0), BuildingBlock: XIVTED_clean_linker_0, # of connection points: 2
#     Edge 59, Type (0, 0), BuildingBlock: XIVTED_clean_linker_0, # of connection points: 2
#     Edge 60, Type (0, 0), BuildingBlock: XIVTED_clean_linker_0, # of connection points: 2
#     Edge 61, Type (0, 0), BuildingBlock: XIVTED_clean_linker_0, # of connection points: 2
#     Edge 62, Type (0, 0), BuildingBlock: XIVTED_clean_linker_0, # of connection points: 2
#     Edge 63, Type (0, 0), BuildingBlock: XIVTED_clean_linker_0, # of connection points: 2
#     Edge 64, Type (0, 0), BuildingBlock: XIVTED_clean_linker_0, # of connection points: 2
#     Edge 65, Type (0, 0), BuildingBlock: XIVTED_clean_linker_0, # of connection points: 2
#     Edge 66, Type (0, 0), BuildingBlock: XIVTED_clean_linker_0, # of connection points: 2
#     Edge 67, Type (0, 0), BuildingBlock: XIVTED_clean_linker_0, # of connection points: 2
#     Edge 68, Type (0, 0), BuildingBlock: XIVTED_clean_linker_0, # of connection points: 2
#     Edge 69, Type (0, 0), BuildingBlock: XIVTED_clean_linker_0, # of connection points: 2
#     Edge 70, Type (0, 0), BuildingBlock: XIVTED_clean_linker_0, # of connection points: 2
#     Edge 71, Type (0, 0), BuildingBlock: XIVTED_clean_linker_0, # of connection points: 2
#     Edge 72, Type (0, 0), BuildingBlock: XIVTED_clean_linker_0, # of connection points: 2
#     Edge 73, Type (0, 0), BuildingBlock: XIVTED_clean_linker_0, # of connection points: 2
#     Edge 74, Type (0, 0), BuildingBlock: XIVTED_clean_linker_0, # of connection points: 2
#     Edge 75, Type (0, 0), BuildingBlock: XIVTED_clean_linker_0, # of connection points: 2
#     Edge 76, Type (0, 0), BuildingBlock: XIVTED_clean_linker_0, # of connection points: 2
#     Edge 77, Type (0, 0), BuildingBlock: XIVTED_clean_linker_0, # of connection points: 2
#     Edge 78, Type (0, 0), BuildingBlock: XIVTED_clean_linker_0, # of connection points: 2
#     Edge 79, Type (0, 0), BuildingBlock: XIVTED_clean_linker_0, # of connection points: 2
#     Edge 80, Type (0, 0), BuildingBlock: XIVTED_clean_linker_0, # of connection points: 2
#     Edge 81, Type (0, 0), BuildingBlock: XIVTED_clean_linker_0, # of connection points: 2
#     Edge 82, Type (0, 0), BuildingBlock: XIVTED_clean_linker_0, # of connection points: 2
#     Edge 83, Type (0, 0), BuildingBlock: XIVTED_clean_linker_0, # of connection points: 2
#     Edge 84, Type (0, 0), BuildingBlock: XIVTED_clean_linker_0, # of connection points: 2
#     Edge 85, Type (0, 0), BuildingBlock: XIVTED_clean_linker_0, # of connection points: 2
#     Edge 86, Type (0, 0), BuildingBlock: XIVTED_clean_linker_0, # of connection points: 2
#     Edge 87, Type (0, 0), BuildingBlock: XIVTED_clean_linker_0, # of connection points: 2
#     Edge 88, Type (0, 0), BuildingBlock: XIVTED_clean_linker_0, # of connection points: 2
#     Edge 89, Type (0, 0), BuildingBlock: XIVTED_clean_linker_0, # of connection points: 2
#     Edge 90, Type (0, 0), BuildingBlock: XIVTED_clean_linker_0, # of connection points: 2
#     Edge 91, Type (0, 0), BuildingBlock: XIVTED_clean_linker_0, # of connection points: 2
#     Edge 92, Type (0, 0), BuildingBlock: XIVTED_clean_linker_0, # of connection points: 2
#     Edge 93, Type (0, 0), BuildingBlock: XIVTED_clean_linker_0, # of connection points: 2
#     Edge 94, Type (0, 0), BuildingBlock: XIVTED_clean_linker_0, # of connection points: 2
#     Edge 95, Type (0, 0), BuildingBlock: XIVTED_clean_linker_0, # of connection points: 2
#     Edge 96, Type (0, 0), BuildingBlock: XIVTED_clean_linker_0, # of connection points: 2
#     Edge 97, Type (0, 0), BuildingBlock: XIVTED_clean_linker_0, # of connection points: 2
#     Edge 98, Type (0, 0), BuildingBlock: XIVTED_clean_linker_0, # of connection points: 2
#     Edge 99, Type (0, 0), BuildingBlock: XIVTED_clean_linker_0, # of connection points: 2
#     Edge 100, Type (0, 0), BuildingBlock: XIVTED_clean_linker_0, # of connection points: 2
#     Edge 101, Type (0, 0), BuildingBlock: XIVTED_clean_linker_0, # of connection points: 2
#     Edge 102, Type (0, 0), BuildingBlock: XIVTED_clean_linker_0, # of connection points: 2
#     Edge 103, Type (0, 0), BuildingBlock: XIVTED_clean_linker_0, # of connection points: 2
#     Edge 104, Type (0, 0), BuildingBlock: XIVTED_clean_linker_0, # of connection points: 2
#     Edge 105, Type (0, 0), BuildingBlock: XIVTED_clean_linker_0, # of connection points: 2
#     Edge 106, Type (0, 0), BuildingBlock: XIVTED_clean_linker_0, # of connection points: 2
#     Edge 107, Type (0, 0), BuildingBlock: XIVTED_clean_linker_0, # of connection points: 2
#     Edge 108, Type (0, 0), BuildingBlock: XIVTED_clean_linker_0, # of connection points: 2
#     Edge 109, Type (0, 0), BuildingBlock: XIVTED_clean_linker_0, # of connection points: 2
#     Edge 110, Type (0, 0), BuildingBlock: XIVTED_clean_linker_0, # of connection points: 2
#     Edge 111, Type (0, 0), BuildingBlock: XIVTED_clean_linker_0, # of connection points: 2
# Relax obj value: 0.555
# Max RMSD: 0.321
# Mean RMSD: 0.321
data_MOF--net-yfr--node1-XOMCOT_clean_sbu_1--edge1-XIVTED_clean_linker_0
_symmetry_space_group_name_H-M    P1
_symmetry_Int_Tables_number       1
_symmetry_cell_setting            triclinic
loop_
_symmetry_equiv_pos_as_xyz
'x, y, z'
_cell_length_a     53.017879
_cell_length_b     53.019631
_cell_length_c     60.120217
_cell_angle_alpha  90.008088
_cell_angle_beta   90.030318
_cell_angle_gamma 89.964233
loop_
_atom_site_label
_atom_site_type_symbol
_atom_site_fract_x
_atom_site_fract_y
_atom_site_fract_z
_atom_type_partial_charge
C0 C 0.09411 0.0935 0.2964 0.0
C1 C 0.08313 0.07899 0.31272 0.0
N2 N 0.05844 0.08491 0.31366 0.0
N3 N 0.07644 0.10868 0.28742 0.0
C4 C 0.0549 0.10294 0.29813 0.0
H5 H 0.11368 0.0931 0.29135 0.0
Co6 Co 0.08164 0.13073 0.26413 0.0
C7 C 0.03369 0.15893 0.2606 0.0
O8 O 0.02881 0.14816 0.2414 0.0
N9 N 0.08708 0.15276 0.24017 0.0
C10 C 0.08982 0.18801 0.22026 0.0
C11 C 0.08769 0.17822 0.24129 0.0
C12 C 0.08916 0.14756 0.21824 0.0
N13 N 0.09068 0.16869 0.20579 0.0
O14 O 0.06151 0.10859 0.24628 0.0
H15 H 0.08614 0.18908 0.25643 0.0
H16 H 0.08849 0.12877 0.21134 0.0
O17 O 0.05253 0.15146 0.27206 0.0
C18 C 0.07325 0.08973 0.23822 0.0
O19 O 0.09803 0.09008 0.23821 0.0
N20 N 0.10176 0.1509 0.28279 0.0
C21 C 0.1303 0.18038 0.31165 0.0
C22 C 0.10592 0.17285 0.31739 0.0
C23 C 0.09199 0.15823 0.30279 0.0
C24 C 0.12593 0.15711 0.27719 0.0
C25 C 0.14045 0.17245 0.29126 0.0
H26 H 0.0732 0.15274 0.30773 0.0
H27 H 0.13376 0.15064 0.26159 0.0
H28 H 0.03704 0.11209 0.29483 0.0
H29 H 0.09256 0.06518 0.32306 0.0
H30 H 0.09041 0.20782 0.21595 0.0
H31 H 0.09731 0.17884 0.33287 0.0
H32 H 0.15928 0.17802 0.28633 0.0
C33 C 0.15702 0.85094 0.56022 0.0
C34 C 0.16387 0.83518 0.57724 0.0
N35 N 0.15165 0.81311 0.57456 0.0
N36 N 0.14045 0.83899 0.54694 0.0
C37 C 0.13756 0.8159 0.55595 0.0
H38 H 0.16402 0.86982 0.55734 0.0
Co39 Co 0.12916 0.85385 0.52131 0.0
C40 C 0.07954 0.83128 0.50973 0.0
O41 O 0.07243 0.85442 0.505 0.0
N42 N 0.11931 0.86989 0.49473 0.0
C43 C 0.11198 0.89772 0.46778 0.0
C44 C 0.11792 0.89474 0.48983 0.0
C45 C 0.11483 0.85824 0.4751 0.0
N46 N 0.10997 0.87472 0.45857 0.0
O47 O 0.15354 0.83419 0.50517 0.0
H48 H 0.12167 0.91009 0.50103 0.0
H49 H 0.11555 0.83798 0.47294 0.0
O50 O 0.10225 0.82738 0.51666 0.0
C51 C 0.1732 0.84664 0.49986 0.0
O52 O 0.17334 0.87114 0.50312 0.0
N53 N 0.10726 0.8738 0.5388 0.0
C54 C 0.07851 0.90391 0.56693 0.0
C55 C 0.07301 0.87832 0.5645 0.0
C56 C 0.08818 0.8634 0.55103 0.0
C57 C 0.11438 0.89814 0.54286 0.0
C58 C 0.09988 0.91383 0.55656 0.0
H59 H 0.0849 0.84334 0.55112 0.0
H60 H 0.13183 0.90523 0.53602 0.0
H61 H 0.12547 0.8015 0.54897 0.0
H62 H 0.1773 0.83948 0.59026 0.0
H63 H 0.10937 0.91549 0.45921 0.0
H64 H 0.0575 0.86977 0.57349 0.0
H65 H 0.10544 0.93325 0.55923 0.0
C66 C 0.42843 0.91693 0.79785 0.0
C67 C 0.44696 0.92391 0.81254 0.0
N68 N 0.46785 0.91031 0.80807 0.0
N69 N 0.43749 0.89891 0.78428 0.0
C70 C 0.46158 0.8953 0.79073 0.0
H71 H 0.40945 0.92438 0.7971 0.0
Co72 Co 0.41845 0.88539 0.76173 0.0
C73 C 0.43782 0.83441 0.7522 0.0
O74 O 0.414 0.82756 0.75204 0.0
N75 N 0.3985 0.87283 0.7381 0.0
C76 C 0.36855 0.8597 0.71482 0.0
C77 C 0.3737 0.86723 0.73623 0.0
C78 C 0.40779 0.86874 0.71749 0.0
N79 N 0.39009 0.86066 0.70303 0.0
O80 O 0.43569 0.90764 0.74186 0.0
H81 H 0.3598 0.86854 0.74921 0.0
H82 H 0.4273 0.87208 0.71316 0.0
O83 O 0.44348 0.85765 0.75598 0.0
C84 C 0.42316 0.9267 0.73521 0.0
O85 O 0.39849 0.92635 0.73716 0.0
N86 N 0.40146 0.86603 0.78325 0.0
C87 C 0.37863 0.84596 0.82096 0.0
C88 C 0.40334 0.83938 0.81542 0.0
C89 C 0.41457 0.84998 0.79681 0.0
C90 C 0.37786 0.8738 0.78925 0.0
C91 C 0.36564 0.86327 0.80766 0.0
H92 H 0.43436 0.84631 0.79424 0.0
H93 H 0.36892 0.88911 0.78038 0.0
H94 H 0.47421 0.88203 0.78282 0.0
H95 H 0.44489 0.93744 0.82589 0.0
H96 H 0.35033 0.85391 0.70852 0.0
H97 H 0.41415 0.82654 0.82572 0.0
H98 H 0.3468 0.86941 0.81204 0.0
C99 C 0.3631 0.16393 0.04482 0.0
C100 C 0.34696 0.17021 0.06188 0.0
N101 N 0.34377 0.19542 0.06171 0.0
N102 N 0.3705 0.18515 0.03433 0.0
C103 C 0.35808 0.2039 0.04473 0.0
H104 H 0.36888 0.14508 0.04018 0.0
Co105 Co 0.38962 0.18664 0.0085 0.0
C106 C 0.41507 0.23384 0.03113 0.0
O107 O 0.40299 0.23678 0.05001 0.0
N108 N 0.40819 0.18782 0.98218 0.0
C109 C 0.43963 0.19104 0.95786 0.0
C110 C 0.43341 0.19057 0.98005 0.0
C111 C 0.39954 0.18659 0.96111 0.0
N112 N 0.41822 0.18866 0.94602 0.0
O113 O 0.36394 0.2077 -0.00404 0.0
H114 H 0.44649 0.1922 -0.00621 0.0
H115 H 0.37996 0.18395 0.95681 0.0
O116 O 0.40899 0.216 0.01793 0.0
C117 C 0.34505 0.1957 0.98832 0.0
O118 O 0.34669 0.17106 0.98637 0.0
N119 N 0.41407 0.16555 0.02151 0.0
C120 C 0.45241 0.13719 0.04051 0.0
C121 C 0.44309 0.15852 0.05131 0.0
C122 C 0.42378 0.17226 0.04168 0.0
C123 C 0.42186 0.14387 0.01129 0.0
C124 C 0.44136 0.12933 0.02053 0.0
H125 H 0.41657 0.18833 0.05063 0.0
H126 H 0.41342 0.13823 -0.00432 0.0
H127 H 0.35944 0.22344 0.03983 0.0
H128 H 0.33818 0.15721 0.07338 0.0
H129 H 0.45835 0.19338 0.951 0.0
H130 H 0.45082 0.16461 0.06712 0.0
H131 H 0.44799 0.11258 0.01204 0.0
C132 C 0.08628 0.88158 0.20263 0.0
C133 C 0.08388 0.89438 0.18292 0.0
N134 N 0.05915 0.89604 0.178 0.0
N135 N 0.06323 0.87499 0.21002 0.0
C136 C 0.04701 0.88412 0.19475 0.0
H137 H 0.1037 0.87771 0.21135 0.0
Co138 Co 0.05914 0.85996 0.23736 0.0
C139 C 1.00335 0.84172 0.22449 0.0
O140 O 0.98929 0.85911 0.21511 0.0
N141 N 0.05634 0.84513 0.26529 0.0
C142 C 0.05525 0.81701 0.29269 0.0
C143 C 0.0527 0.82055 0.27015 0.0
C144 C 0.06132 0.85606 0.28505 0.0
N145 N 0.06085 0.8394 0.30202 0.0
O146 O 0.04398 0.89069 0.24765 0.0
H147 H 0.04975 0.80584 0.25798 0.0
H148 H 0.06598 0.87575 0.2869 0.0
O149 O 0.02594 0.84687 0.23019 0.0
C150 C 0.05871 0.90876 0.25272 0.0
O151 O 0.08306 0.90442 0.25396 0.0
N152 N 0.07445 0.83078 0.22611 0.0
C153 C 0.10042 0.79169 0.20544 0.0
C154 C 0.0758 0.79776 0.19904 0.0
C155 C 0.06339 0.81764 0.2092 0.0
C156 C 0.09827 0.82491 0.23299 0.0
C157 C 0.11179 0.80541 0.22269 0.0
H158 H 0.04547 0.82322 0.20233 0.0
H159 H 0.10713 0.83605 0.24589 0.0
H160 H 0.02679 0.88229 0.19598 0.0
H161 H 0.09915 0.90228 0.17324 0.0
H162 H 0.05444 0.7991 0.30129 0.0
H163 H 0.06677 0.78834 0.18516 0.0
H164 H 0.13103 0.80154 0.2277 0.0
C165 C 0.38159 0.84829 0.43695 0.0
C166 C 0.36987 0.84132 0.41749 0.0
N167 N 0.36851 0.81596 0.41699 0.0
N168 N 0.38789 0.82739 0.44846 0.0
C169 C 0.3796 0.808 0.43596 0.0
H170 H 0.38487 0.86738 0.4426 0.0
Co171 Co 0.40164 0.82659 0.47673 0.0
C172 C 0.4234 0.77557 0.48096 0.0
O173 O 0.4084 0.77159 0.49799 0.0
N174 N 0.41547 0.82629 0.5052 0.0
C175 C 0.44323 0.82374 0.53272 0.0
C176 C 0.43986 0.82172 0.5102 0.0
C177 C 0.40444 0.83143 0.52491 0.0
N178 N 0.42095 0.82996 0.54202 0.0
O179 O 0.37253 0.80776 0.48648 0.0
H180 H 0.45437 0.81723 0.49819 0.0
H181 H 0.38483 0.83667 0.52657 0.0
O182 O 0.42096 0.7959 0.46978 0.0
C183 C 0.35433 0.82328 0.48881 0.0
O184 O 0.35919 0.8475 0.48704 0.0
N185 N 0.42816 0.84673 0.46695 0.0
C186 C 0.46208 0.88137 0.44975 0.0
C187 C 0.46269 0.85619 0.44283 0.0
C188 C 0.44523 0.8392 0.45133 0.0
C189 C 0.42766 0.87108 0.47428 0.0
C190 C 0.44442 0.88892 0.46568 0.0
H191 H 0.44473 0.82044 0.44446 0.0
H192 H 0.41348 0.87685 0.48617 0.0
H193 H 0.38162 0.78843 0.44076 0.0
H194 H 0.3625 0.85393 0.4049 0.0
H195 H 0.46079 0.82066 0.54147 0.0
H196 H 0.4757 0.85003 0.43002 0.0
H197 H 0.44325 0.90841 0.47099 0.0
C198 C 0.42032 0.1081 0.69205 0.0
C199 C 0.4373 0.09775 0.6775 0.0
N200 N 0.45863 0.11157 0.67816 0.0
N201 N 0.43078 0.12836 0.70184 0.0
C202 C 0.45415 0.13008 0.69318 0.0
H203 H 0.40171 0.10094 0.69583 0.0
Co204 Co 0.4142 0.14466 0.72438 0.0
C205 C 0.43529 0.19569 0.72949 0.0
O206 O 0.41164 0.2031 0.73015 0.0
N207 N 0.39663 0.15971 0.74816 0.0
C208 C 0.36855 0.17343 0.77288 0.0
C209 C 0.37198 0.16511 0.75142 0.0
C210 C 0.40762 0.1649 0.76791 0.0
N211 N 0.39103 0.17314 0.78327 0.0
O212 O 0.43274 0.12393 0.74462 0.0
H213 H 0.357 0.16249 0.73956 0.0
H214 H 0.42755 0.16229 0.77096 0.0
O215 O 0.44027 0.17209 0.72674 0.0
C216 C 0.421 0.10505 0.75259 0.0
O217 O 0.39622 0.10537 0.75243 0.0
N218 N 0.39589 0.16248 0.70261 0.0
C219 C 0.37144 0.17856 0.66411 0.0
C220 C 0.39639 0.18552 0.66829 0.0
C221 C 0.40841 0.17687 0.6873 0.0
C222 C 0.37184 0.15466 0.69827 0.0
C223 C 0.35887 0.16318 0.6794 0.0
H224 H 0.42836 0.18042 0.68871 0.0
H225 H 0.36318 0.1405 0.7087 0.0
H226 H 0.46754 0.14449 0.69792 0.0
H227 H 0.43426 0.08096 0.66764 0.0
H228 H 0.35065 0.17815 0.78046 0.0
H229 H 0.40686 0.1969 0.65651 0.0
H230 H 0.33982 0.15677 0.6762 0.0
C231 C 0.1529 0.15971 0.94531 0.0
C232 C 0.16845 0.16616 0.92793 0.0
N233 N 0.16982 0.19153 0.92693 0.0
N234 N 0.1441 0.18089 0.95497 0.0
C235 C 0.15524 0.19989 0.94382 0.0
H236 H 0.14809 0.14079 0.95051 0.0
Co237 Co 0.12336 0.18146 0.97983 0.0
C238 C 0.09809 0.22959 0.95785 0.0
O239 O 0.10995 0.23358 0.93901 0.0
N240 N 0.10319 0.18148 0.00527 0.0
C241 C 0.07015 0.18433 0.02789 0.0
C242 C 0.07803 0.18537 0.00616 0.0
C243 C 0.1101 0.17767 0.02662 0.0
N244 N 0.09038 0.17947 0.04072 0.0
O245 O 0.1479 0.20235 -0.00595 0.0
H246 H 0.06609 0.18859 0.99184 0.0
H247 H 0.12925 0.17408 0.03187 0.0
O248 O 0.10444 0.21112 0.97027 0.0
C249 C 0.16676 0.19116 0.00263 0.0
O250 O 0.16617 0.16647 0.0045 0.0
N251 N 0.09977 0.16086 0.96497 0.0
C252 C 0.06128 0.135 0.94354 0.0
C253 C 0.07249 0.15593 0.93358 0.0
C254 C 0.0918 0.16842 0.94443 0.0
C255 C 0.09037 0.13931 0.97428 0.0
C256 C 0.07077 0.12603 0.96381 0.0
H257 H 0.10015 0.18447 0.93629 0.0
H258 H 0.09738 0.13295 0.99023 0.0
H259 H 0.15261 0.2195 0.948 0.0
H260 H 0.17775 0.15312 0.91678 0.0
H261 H 0.051 0.18668 0.03377 0.0
H262 H 0.06601 0.16287 0.9176 0.0
H263 H 0.06265 0.10957 0.9717 0.0
C264 C 0.91119 0.88843 0.68369 0.0
C265 C 0.92181 0.90359 0.66775 0.0
N266 N 0.94689 0.90462 0.67138 0.0
N267 N 0.92946 0.87946 0.69713 0.0
C268 C 0.95087 0.89007 0.68952 0.0
H269 H 0.89128 0.88465 0.68573 0.0
Co270 Co 0.92309 0.86173 0.72318 0.0
C271 C 0.97148 0.83107 0.70927 0.0
O272 O 0.97842 0.84287 0.69109 0.0
N273 N 0.91593 0.84464 0.74961 0.0
C274 C 0.90989 0.81418 0.77448 0.0
C275 C 0.91567 0.8194 0.75267 0.0
C276 C 0.91 0.85431 0.76969 0.0
N277 N 0.90631 0.83622 0.78514 0.0
O278 O 0.94296 0.88657 0.7387 0.0
H279 H 0.91943 0.80562 0.73983 0.0
H280 H 0.90896 0.87425 0.77316 0.0
O281 O 0.95214 0.83865 0.7201 0.0
C282 C 0.92996 0.90624 0.74301 0.0
O283 O 0.90543 0.9053 0.73999 0.0
N284 N 0.90287 0.83898 0.70715 0.0
C285 C 0.87162 0.81099 0.67951 0.0
C286 C 0.8972 0.81367 0.67461 0.0
C287 C 0.91245 0.82779 0.68854 0.0
C288 C 0.87793 0.8364 0.71239 0.0
C289 C 0.86186 0.82207 0.69881 0.0
H290 H 0.9316 0.83099 0.68343 0.0
H291 H 0.87035 0.84601 0.72678 0.0
H292 H 0.96891 0.88771 0.69761 0.0
H293 H 0.91164 0.91335 0.65474 0.0
H294 H 0.90832 0.79562 0.78184 0.0
H295 H 0.90523 0.80541 0.65971 0.0
H296 H 0.84205 0.82034 0.70291 0.0
C297 C 0.86167 0.15031 0.43579 0.0
C298 C 0.85232 0.16232 0.41738 0.0
N299 N 0.86225 0.18567 0.41665 0.0
N300 N 0.87762 0.16585 0.44656 0.0
C301 C 0.87753 0.18741 0.43464 0.0
H302 H 0.85673 0.13157 0.44138 0.0
Co303 Co 0.8915 0.15609 0.47322 0.0
C304 C 0.9401 0.18242 0.47943 0.0
O305 O 0.94888 0.16049 0.48605 0.0
N306 N 0.90428 0.14514 0.50109 0.0
C307 C 0.92041 0.12276 0.52904 0.0
C308 C 0.91358 0.12234 0.50709 0.0
C309 C 0.90537 0.15892 0.52007 0.0
N310 N 0.91525 0.14574 0.53722 0.0
O311 O 0.86741 0.17753 0.48761 0.0
H312 H 0.91534 0.10598 0.49668 0.0
H313 H 0.8991 0.1783 0.52127 0.0
O314 O 0.91692 0.18419 0.47314 0.0
C315 C 0.84793 0.16731 0.49609 0.0
O316 O 0.84801 0.14286 0.49956 0.0
N317 N 0.91307 0.13437 0.45712 0.0
C318 C 0.93916 0.10133 0.42952 0.0
C319 C 0.94465 0.12707 0.42934 0.0
C320 C 0.93079 0.14338 0.44265 0.0
C321 C 0.90606 0.10959 0.45599 0.0
C322 C 0.91929 0.0925 0.44261 0.0
H323 H 0.9337 0.16333 0.44041 0.0
H324 H 0.88993 0.10312 0.4654 0.0
H325 H 0.8882 0.20403 0.43916 0.0
H326 H 0.8387 0.15468 0.40578 0.0
H327 H 0.92777 0.10699 0.53848 0.0
H328 H 0.95895 0.13462 0.41831 0.0
H329 H 0.91383 0.07283 0.44221 0.0
C330 C 0.57921 0.09871 0.19771 0.0
C331 C 0.56929 0.09037 0.17796 0.0
N332 N 0.55621 0.10948 0.16884 0.0
N333 N 0.57216 0.12283 0.20115 0.0
C334 C 0.55811 0.12897 0.18324 0.0
H335 H 0.59116 0.088 0.20882 0.0
Co336 Co 0.58323 0.13987 0.22599 0.0
C337 C 0.55874 0.19002 0.22782 0.0
O338 O 0.581 0.19869 0.23361 0.0
N339 N 0.59534 0.15587 0.25211 0.0
C340 C 0.61882 0.17412 0.2783 0.0
C341 C 0.61813 0.16622 0.2566 0.0
C342 C 0.5826 0.15785 0.27155 0.0
N343 N 0.59652 0.16867 0.28773 0.0
O344 O 0.56119 0.11875 0.24322 0.0
H345 H 0.63375 0.16785 0.2453 0.0
H346 H 0.56356 0.15109 0.27397 0.0
O347 O 0.55616 0.16634 0.22351 0.0
C348 C 0.57139 0.10085 0.25415 0.0
O349 O 0.59592 0.10129 0.25727 0.0
N350 N 0.60564 0.15793 0.2076 0.0
C351 C 0.64064 0.17855 0.17841 0.0
C352 C 0.61545 0.18616 0.17772 0.0
C353 C 0.59812 0.17522 0.19209 0.0
C354 C 0.62975 0.14883 0.20714 0.0
C355 C 0.64789 0.15942 0.19305 0.0
H356 H 0.57859 0.18024 0.19001 0.0
H357 H 0.63499 0.13347 0.21807 0.0
H358 H 0.54959 0.14728 0.18068 0.0
H359 H 0.57215 0.072 0.17051 0.0
H360 H 0.63497 0.18208 0.28679 0.0
H361 H 0.60914 0.20022 0.16586 0.0
H362 H 0.66714 0.15259 0.19339 0.0
C363 C 0.66894 0.83701 0.96085 0.0
C364 C 0.67817 0.8205 0.94536 0.0
N365 N 0.66105 0.802 0.94241 0.0
N366 N 0.64621 0.829 0.96782 0.0
C367 C 0.64189 0.8075 0.95648 0.0
H368 H 0.67813 0.85398 0.96667 0.0
Co369 Co 0.62895 0.84726 0.98879 0.0
C370 C 0.57966 0.82336 -0.00258 0.0
O371 O 0.571 0.84659 -0.00263 0.0
N372 N 0.61304 0.86682 0.01095 0.0
C373 C 0.59769 0.89715 0.03273 0.0
C374 C 0.60617 0.89138 0.01169 0.0
C375 C 0.60868 0.85827 0.03177 0.0
N376 N 0.59928 0.87622 0.04528 0.0
O377 O 0.65178 0.8336 0.01052 0.0
H378 H 0.60771 0.90472 -0.00174 0.0
H379 H 0.61312 0.83928 0.03709 0.0
O380 O 0.60341 0.81954 -0.00604 0.0
C381 C 0.66883 0.84928 0.01622 0.0
O382 O 0.66567 0.87318 0.01113 0.0
N383 N 0.60928 0.86124 0.96565 0.0
C384 C 0.58959 0.88052 0.92609 0.0
C385 C 0.58373 0.85607 0.933 0.0
C386 C 0.59413 0.84663 0.95248 0.0
C387 C 0.61596 0.88482 0.95869 0.0
C388 C 0.60572 0.89518 0.93924 0.0
H389 H 0.59098 0.82698 0.95598 0.0
H390 H 0.63027 0.8952 0.96765 0.0
H391 H 0.62473 0.79664 0.95799 0.0
H392 H 0.69601 0.82226 0.93679 0.0
H393 H 0.59119 0.91541 0.03839 0.0
H394 H 0.57166 0.84399 0.92309 0.0
H395 H 0.61128 0.91391 0.934 0.0
C396 C 0.92114 0.0908 0.79359 0.0
C397 C 0.93278 0.08478 0.81328 0.0
N398 N 0.94728 0.10444 0.8193 0.0
N399 N 0.92848 0.11399 0.78712 0.0
C400 C 0.94444 0.12192 0.80314 0.0
H401 H 0.90788 0.07915 0.78457 0.0
Co402 Co 0.91567 0.12824 0.76161 0.0
C403 C 0.94084 0.17742 0.75415 0.0
O404 O 0.91847 0.18602 0.74854 0.0
N405 N 0.90176 0.14135 0.73506 0.0
C406 C 0.87601 0.1554 0.70856 0.0
C407 C 0.87766 0.14772 0.7303 0.0
C408 C 0.91424 0.14491 0.71567 0.0
N409 N 0.89905 0.15365 0.69934 0.0
O410 O 0.9361 0.1049 0.74497 0.0
H411 H 0.86183 0.14644 0.74142 0.0
H412 H 0.93417 0.14118 0.71365 0.0
O413 O 0.94317 0.15425 0.76028 0.0
C414 C 0.92516 0.08642 0.73544 0.0
O415 O 0.90055 0.08709 0.733 0.0
N416 N 0.89496 0.14888 0.77962 0.0
C417 C 0.86294 0.17342 0.80922 0.0
C418 C 0.88803 0.18092 0.80711 0.0
C419 C 0.90393 0.16794 0.79277 0.0
C420 C 0.87098 0.14018 0.7828 0.0
C421 C 0.85436 0.15252 0.79727 0.0
H422 H 0.92362 0.17275 0.7932 0.0
H423 H 0.8648 0.12336 0.7742 0.0
H424 H 0.95366 0.14012 0.80308 0.0
H425 H 0.93017 0.06765 0.8228 0.0
H426 H 0.8589 0.16085 0.69999 0.0
H427 H 0.89552 0.19621 0.8171 0.0
H428 H 0.83528 0.14563 0.79935 0.0
C429 C 0.66366 0.18073 0.54215 0.0
C430 C 0.67261 0.19754 0.55757 0.0
N431 N 0.65778 0.21823 0.55722 0.0
N432 N 0.64332 0.19066 0.53206 0.0
C433 C 0.64016 0.21355 0.54142 0.0
H434 H 0.67165 0.16249 0.53821 0.0
Co435 Co 0.62752 0.1738 0.50932 0.0
C436 C 0.57666 0.19498 0.5033 0.0
O437 O 0.5695 0.17126 0.50294 0.0
N438 N 0.61276 0.1561 0.48532 0.0
C439 C 0.598 0.12852 0.46059 0.0
C440 C 0.60672 0.13161 0.48198 0.0
C441 C 0.6077 0.16729 0.46563 0.0
N442 N 0.59872 0.15104 0.45031 0.0
O443 O 0.64966 0.19125 0.48925 0.0
H444 H 0.60898 0.1165 0.49376 0.0
H445 H 0.61072 0.18717 0.46264 0.0
O446 O 0.60025 0.20025 0.50597 0.0
C447 C 0.66769 0.17809 0.48134 0.0
O448 O 0.66586 0.1534 0.48202 0.0
N449 N 0.60864 0.15627 0.53091 0.0
C450 C 0.58861 0.13177 0.56784 0.0
C451 C 0.58369 0.1573 0.56416 0.0
C452 C 0.59425 0.16929 0.54592 0.0
C453 C 0.61502 0.13178 0.53517 0.0
C454 C 0.60442 0.11879 0.55316 0.0
H455 H 0.59169 0.1894 0.54458 0.0
H456 H 0.62931 0.12259 0.52524 0.0
H457 H 0.62507 0.22628 0.53691 0.0
H458 H 0.68897 0.19469 0.56803 0.0
H459 H 0.59261 0.11082 0.45298 0.0
H460 H 0.57205 0.16805 0.57556 0.0
H461 H 0.60932 0.09924 0.55609 0.0
C462 C 0.59886 0.90349 0.30742 0.0
C463 C 0.59321 0.91664 0.32643 0.0
N464 N 0.568 0.91632 0.32917 0.0
N465 N 0.57741 0.8944 0.29843 0.0
C466 C 0.55886 0.9032 0.31165 0.0
H467 H 0.6175 0.90045 0.30063 0.0
Co468 Co 0.57728 0.87643 0.27192 0.0
C469 C 0.53157 0.84545 0.29254 0.0
O470 O 0.52719 0.85604 0.31189 0.0
N471 N 0.57803 0.85928 0.24481 0.0
C472 C 0.5788 0.82908 0.21918 0.0
C473 C 0.5778 0.83408 0.24159 0.0
C474 C 0.57934 0.86915 0.22416 0.0
N475 N 0.57975 0.85122 0.20821 0.0
O476 O 0.55469 0.90142 0.26013 0.0
H477 H 0.57719 0.82018 0.25474 0.0
H478 H 0.57976 0.88913 0.22082 0.0
O479 O 0.54913 0.85397 0.28005 0.0
C480 C 0.56609 0.92125 0.25364 0.0
O481 O 0.59085 0.9211 0.2529 0.0
N482 N 0.6 0.85304 0.28443 0.0
C483 C 0.63373 0.82108 0.30591 0.0
C484 C 0.61059 0.8271 0.31562 0.0
C485 C 0.59406 0.843 0.30467 0.0
C486 C 0.62274 0.84785 0.27478 0.0
C487 C 0.63983 0.83133 0.2851 0.0
H488 H 0.57677 0.84794 0.31299 0.0
H489 H 0.62763 0.85648 0.25906 0.0
H490 H 0.53907 0.90012 0.30848 0.0
H491 H 0.60668 0.9254 0.33753 0.0
H492 H 0.57924 0.81056 0.21164 0.0
H493 H 0.60517 0.81935 0.33161 0.0
H494 H 0.6576 0.82689 0.27715 0.0
C495 C 0.90031 0.86059 0.05967 0.0
C496 C 0.89413 0.8452 0.07718 0.0
N497 N 0.89051 0.82172 0.06927 0.0
N498 N 0.90088 0.84682 0.04081 0.0
C499 C 0.89498 0.82315 0.0472 0.0
H500 H 0.90264 0.8808 0.06052 0.0
Co501 Co 0.90183 0.85964 0.01212 0.0
C502 C 0.94234 0.83099 0.98917 0.0
O503 O 0.94814 0.85211 0.97895 0.0
N504 N 0.90143 0.87287 0.98308 0.0
C505 C 0.89955 0.89773 0.95331 0.0
C506 C 0.90254 0.89703 0.97596 0.0
C507 C 0.89701 0.85938 0.96437 0.0
N508 N 0.89614 0.874 0.94602 0.0
O509 O 0.87084 0.84199 0.00578 0.0
H510 H 0.90489 0.91348 0.98621 0.0
H511 H 0.89434 0.83914 0.96428 0.0
O512 O 0.92324 0.83061 0.00237 0.0
C513 C 0.85341 0.85595 0.01373 0.0
O514 O 0.85982 0.87818 0.02162 0.0
N515 N 0.93055 0.87868 0.0202 0.0
C516 C 0.96589 0.9075 0.04347 0.0
C517 C 0.97081 0.88225 0.0382 0.0
C518 C 0.95262 0.86799 0.02729 0.0
C519 C 0.92562 0.90335 0.02504 0.0
C520 C 0.94315 0.91823 0.03636 0.0
H521 H 0.95547 0.8479 0.02688 0.0
H522 H 0.90692 0.91085 0.02232 0.0
H523 H 0.89207 0.80776 0.03564 0.0
H524 H 0.89158 0.85108 0.09427 0.0
H525 H 0.90016 0.91444 0.94298 0.0
H526 H 0.98742 0.87276 0.04457 0.0
H527 H 0.93817 0.93735 0.04097 0.0
C528 C 0.59116 0.63239 0.7981 0.0
C529 C 0.57409 0.62267 0.81288 0.0
N530 N 0.55076 0.62621 0.80456 0.0
N531 N 0.5787 0.64235 0.78065 0.0
C532 C 0.55406 0.63833 0.78499 0.0
H533 H 0.61145 0.63125 0.79952 0.0
Co534 Co 0.59482 0.65236 0.75495 0.0
C535 C 0.569 0.69775 0.73801 0.0
O536 O 0.59166 0.70581 0.73281 0.0
N537 N 0.61196 0.66106 0.72848 0.0
C538 C 0.63957 0.6726 0.7025 0.0
C539 C 0.63549 0.6701 0.72493 0.0
C540 C 0.60234 0.65805 0.7078 0.0
N541 N 0.61869 0.66498 0.69172 0.0
O542 O 0.57933 0.62413 0.74038 0.0
H543 H 0.64923 0.67462 0.73747 0.0
H544 H 0.5835 0.65109 0.70465 0.0
O545 O 0.5665 0.67575 0.74684 0.0
C546 C 0.59433 0.60573 0.74377 0.0
O547 O 0.61745 0.61103 0.75014 0.0
N548 N 0.61096 0.67769 0.77159 0.0
C549 C 0.63237 0.70209 0.80795 0.0
C550 C 0.60808 0.70832 0.80083 0.0
C551 C 0.59751 0.69557 0.78294 0.0
C552 C 0.6349 0.67178 0.77818 0.0
C553 C 0.64625 0.6842 0.79605 0.0
H554 H 0.57763 0.69829 0.78013 0.0
H555 H 0.64437 0.65569 0.77094 0.0
H556 H 0.53902 0.64303 0.77355 0.0
H557 H 0.57858 0.61354 0.82849 0.0
H558 H 0.65689 0.67885 0.69474 0.0
H559 H 0.59664 0.72164 0.81006 0.0
H560 H 0.66478 0.67837 0.80165 0.0
C561 C 0.66335 0.33864 0.05217 0.0
C562 C 0.67606 0.3257 0.06859 0.0
N563 N 0.6685 0.30145 0.068 0.0
N564 N 0.64766 0.32262 0.04162 0.0
C565 C 0.65124 0.30015 0.05155 0.0
H566 H 0.66553 0.35836 0.048 0.0
Co567 Co 0.62809 0.33008 0.0171 0.0
C568 C 0.59527 0.28625 0.01062 0.0
O569 O 0.60518 0.28303 0.99079 0.0
N570 N 0.60871 0.33785 0.9919 0.0
C571 C 0.57646 0.34454 0.96892 0.0
C572 C 0.58339 0.3406 0.9907 0.0
C573 C 0.61668 0.34037 0.97071 0.0
N574 N 0.59748 0.34419 0.95638 0.0
O575 O 0.64937 0.30797 0.00043 0.0
H576 H 0.57068 0.33908 0.00471 0.0
H577 H 0.63618 0.33918 0.96571 0.0
O578 O 0.60452 0.30288 0.0236 0.0
C579 C 0.66966 0.31811 -0.00641 0.0
O580 O 0.67191 0.34275 -0.00514 0.0
N581 N 0.60858 0.35198 0.03451 0.0
C582 C 0.58036 0.38379 0.06156 0.0
C583 C 0.58467 0.35873 0.06772 0.0
C584 C 0.59873 0.34315 0.05399 0.0
C585 C 0.60546 0.37663 0.02856 0.0
C586 C 0.59083 0.39285 0.0417 0.0
H587 H 0.60187 0.32392 0.05923 0.0
H588 H 0.61396 0.3836 0.01341 0.0
H589 H 0.64135 0.28314 0.04677 0.0
H590 H 0.68994 0.33346 0.07988 0.0
H591 H 0.55739 0.34654 0.96272 0.0
H592 H 0.57664 0.35097 0.08281 0.0
H593 H 0.58775 0.41216 0.03647 0.0
C594 C 0.90797 0.39895 0.29267 0.0
C595 C 0.917 0.41324 0.31002 0.0
N596 N 0.94187 0.40856 0.31214 0.0
N597 N 0.927 0.38514 0.28418 0.0
C598 C 0.94744 0.39144 0.29626 0.0
H599 H 0.88881 0.39871 0.28648 0.0
Co600 Co 0.92427 0.3645 0.2596 0.0
C601 C 0.97257 0.33646 0.2579 0.0
O602 O 0.97871 0.34719 0.23897 0.0
N603 N 0.92116 0.34408 0.23423 0.0
C604 C 0.91861 0.31098 0.21154 0.0
C605 C 0.92005 0.31863 0.23337 0.0
C606 C 0.92044 0.3514 0.21273 0.0
N607 N 0.91901 0.33169 0.19862 0.0
O608 O 0.94516 0.38818 0.24413 0.0
H609 H 0.92053 0.30632 0.2477 0.0
H610 H 0.92092 0.3708 0.20733 0.0
O611 O 0.95307 0.34397 0.26838 0.0
C612 C 0.9329 0.40691 0.23643 0.0
O613 O 0.90816 0.40564 0.23591 0.0
N614 N 0.90327 0.34277 0.27599 0.0
C615 C 0.87246 0.31357 0.3031 0.0
C616 C 0.89673 0.32012 0.30993 0.0
C617 C 0.91179 0.33465 0.29622 0.0
C618 C 0.87941 0.33699 0.2691 0.0
C619 C 0.86371 0.32182 0.28232 0.0
H620 H 0.93023 0.33987 0.30228 0.0
H621 H 0.87257 0.34409 0.25334 0.0
H622 H 0.96599 0.38352 0.29353 0.0
H623 H 0.90619 0.42621 0.32014 0.0
H624 H 0.91798 0.29171 0.20563 0.0
H625 H 0.90414 0.31389 0.32582 0.0
H626 H 0.84496 0.31694 0.27661 0.0
C627 C 0.86527 0.65961 0.53897 0.0
C628 C 0.8538 0.67078 0.55687 0.0
N629 N 0.86247 0.69458 0.55854 0.0
N630 N 0.88129 0.67613 0.52953 0.0
C631 C 0.87911 0.69741 0.54166 0.0
H632 H 0.86186 0.64072 0.53288 0.0
Co633 Co 0.89817 0.66801 0.50381 0.0
C634 C 0.94651 0.69552 0.50308 0.0
O635 O 0.9562 0.67371 0.49728 0.0
N636 N 0.91423 0.65886 0.4766 0.0
C637 C 0.93435 0.63923 0.44899 0.0
C638 C 0.92841 0.63848 0.47116 0.0
C639 C 0.91218 0.67172 0.45721 0.0
N640 N 0.92391 0.66003 0.44019 0.0
O641 O 0.874 0.68848 0.48823 0.0
H642 H 0.93442 0.6237 0.4822 0.0
H643 H 0.90185 0.68918 0.45538 0.0
O644 O 0.92258 0.69716 0.50674 0.0
C645 C 0.85651 0.67575 0.47893 0.0
O646 O 0.85947 0.65127 0.47683 0.0
N647 N 0.91885 0.64659 0.52089 0.0
C648 C 0.94051 0.61339 0.55117 0.0
C649 C 0.94426 0.63935 0.55326 0.0
C650 C 0.93281 0.65568 0.53827 0.0
C651 C 0.91369 0.62139 0.5196 0.0
C652 C 0.92504 0.60425 0.53418 0.0
H653 H 0.9341 0.67565 0.54149 0.0
H654 H 0.90037 0.61461 0.50733 0.0
H655 H 0.88944 0.71455 0.53818 0.0
H656 H 0.83977 0.66222 0.56752 0.0
H657 H 0.94453 0.62488 0.43984 0.0
H658 H 0.95532 0.64699 0.56684 0.0
H659 H 0.92107 0.58428 0.53273 0.0
C660 C 0.57853 0.42152 0.70286 0.0
C661 C 0.5631 0.42855 0.68562 0.0
N662 N 0.54707 0.40945 0.68165 0.0
N663 N 0.57207 0.39822 0.70978 0.0
C664 C 0.55276 0.3913 0.69655 0.0
H665 H 0.59386 0.43248 0.70974 0.0
Co666 Co 0.58916 0.38288 0.73263 0.0
C667 C 0.56544 0.33364 0.74227 0.0
O668 O 0.58861 0.32531 0.74481 0.0
N669 N 0.60735 0.36886 0.75663 0.0
C670 C 0.63651 0.35509 0.78036 0.0
C671 C 0.63179 0.36192 0.75869 0.0
C672 C 0.59781 0.36621 0.77734 0.0
N673 N 0.61509 0.35793 0.7921 0.0
O674 O 0.57294 0.40631 0.75237 0.0
H675 H 0.64577 0.36235 0.74571 0.0
H676 H 0.57841 0.37046 0.78149 0.0
O677 O 0.56186 0.357 0.73715 0.0
C678 C 0.58735 0.42404 0.75894 0.0
O679 O 0.61179 0.42162 0.75599 0.0
N680 N 0.60571 0.36245 0.71143 0.0
C681 C 0.62928 0.34148 0.67438 0.0
C682 C 0.60479 0.33443 0.6801 0.0
C683 C 0.59321 0.34536 0.69841 0.0
C684 C 0.62931 0.37025 0.70549 0.0
C685 C 0.64184 0.35942 0.68734 0.0
H686 H 0.57363 0.341 0.70097 0.0
H687 H 0.63809 0.38567 0.71435 0.0
H688 H 0.54333 0.37324 0.69746 0.0
H689 H 0.56438 0.44577 0.676 0.0
H690 H 0.6546 0.34947 0.78708 0.0
H691 H 0.59435 0.32104 0.67005 0.0
H692 H 0.66058 0.36578 0.6829 0.0
C693 C 0.84914 0.33302 0.94015 0.0
C694 C 0.83606 0.32023 0.92391 0.0
N695 N 0.84409 0.2961 0.92382 0.0
N696 N 0.86547 0.31708 0.94999 0.0
C697 C 0.8619 0.29472 0.93982 0.0
H698 H 0.84686 0.35265 0.94463 0.0
Co699 Co 0.88603 0.32519 0.97372 0.0
C700 C 0.91814 0.28111 0.98155 0.0
O701 O 0.90893 0.27931 0.00177 0.0
N702 N 0.90644 0.33373 -0.00179 0.0
C703 C 0.93976 0.3406 0.01996 0.0
C704 C 0.93174 0.33701 -0.00158 0.0
C705 C 0.8996 0.33549 0.01979 0.0
N706 N 0.91948 0.33939 0.03335 0.0
O707 O 0.86461 0.30469 0.99171 0.0
H708 H 0.94378 0.33575 0.98395 0.0
H709 H 0.88054 0.33325 0.0257 0.0
O710 O 0.90856 0.29695 0.968 0.0
C711 C 0.84487 0.3157 -0.00123 0.0
O712 O 0.84351 0.34039 -0.00274 0.0
N713 N 0.90569 0.34541 0.95481 0.0
C714 C 0.93351 0.37436 0.92507 0.0
C715 C 0.92849 0.34901 0.92061 0.0
C716 C 0.91465 0.33489 0.93563 0.0
C717 C 0.9096 0.37038 0.95918 0.0
C718 C 0.92408 0.38519 0.94466 0.0
H719 H 0.91088 0.31542 0.93157 0.0
H720 H 0.90181 0.37871 0.9741 0.0
H721 H 0.87236 0.27783 0.94394 0.0
H722 H 0.8217 0.32803 0.91312 0.0
H723 H 0.95911 0.34258 0.02545 0.0
H724 H 0.9357 0.33993 0.90576 0.0
H725 H 0.92773 0.40478 0.94859 0.0
C726 C 0.91319 0.59105 0.18403 0.0
C727 C 0.92988 0.58383 0.16774 0.0
N728 N 0.94799 0.60154 0.16636 0.0
N729 N 0.92051 0.61339 0.19259 0.0
C730 C 0.94177 0.61932 0.18147 0.0
H731 H 0.8975 0.58005 0.1902 0.0
Co732 Co 0.90694 0.62671 0.21838 0.0
C733 C 0.95353 0.6588 0.22753 0.0
O734 O 0.96537 0.64241 0.24017 0.0
N735 N 0.89319 0.63899 0.24462 0.0
C736 C 0.86617 0.64948 0.27124 0.0
C737 C 0.86851 0.64111 0.24966 0.0
C738 C 0.90544 0.64589 0.26328 0.0
N739 N 0.8895 0.6524 0.2798 0.0
O740 O 0.92814 0.60383 0.23441 0.0
H741 H 0.85324 0.6363 0.2385 0.0
H742 H 0.92569 0.64554 0.26488 0.0
O743 O 0.93226 0.65324 0.219 0.0
C744 C 0.91868 0.58524 0.24486 0.0
O745 O 0.89426 0.58479 0.2485 0.0
N746 N 0.88603 0.64847 0.20181 0.0
C747 C 0.86401 0.68139 0.17149 0.0
C748 C 0.87549 0.69061 0.19085 0.0
C749 C 0.8863 0.67383 0.20586 0.0
C750 C 0.87222 0.63905 0.18456 0.0
C751 C 0.86142 0.65524 0.16888 0.0
H752 H 0.89609 0.68139 0.22015 0.0
H753 H 0.87073 0.61893 0.18214 0.0
H754 H 0.9531 0.63579 0.18492 0.0
H755 H 0.92958 0.56621 0.15864 0.0
H756 H 0.84865 0.65217 0.28016 0.0
H757 H 0.87783 0.71066 0.19362 0.0
H758 H 0.85214 0.64742 0.15438 0.0
C759 C 0.64587 0.64296 0.41995 0.0
C760 C 0.65301 0.65666 0.40171 0.0
N761 N 0.64808 0.68115 0.40575 0.0
N762 N 0.63613 0.6586 0.43537 0.0
C763 C 0.63787 0.68185 0.42639 0.0
H764 H 0.64859 0.62292 0.42224 0.0
Co765 Co 0.62861 0.64715 0.46347 0.0
C766 C 0.58263 0.673 0.47966 0.0
O767 O 0.57614 0.65085 0.4876 0.0
N768 N 0.62275 0.63443 0.49238 0.0
C769 C 0.61661 0.60957 0.5217 0.0
C770 C 0.61973 0.61028 0.49909 0.0
C771 C 0.62243 0.6479 0.51154 0.0
N772 N 0.61816 0.63326 0.52951 0.0
O773 O 0.65594 0.66752 0.47465 0.0
H774 H 0.62029 0.59381 0.48869 0.0
H775 H 0.62471 0.66817 0.51217 0.0
O776 O 0.60358 0.67529 0.46894 0.0
C777 C 0.67589 0.65643 0.48134 0.0
O778 O 0.67589 0.63175 0.48322 0.0
N779 N 0.60309 0.62657 0.4507 0.0
C780 C 0.56864 0.5962 0.42814 0.0
C781 C 0.56474 0.62216 0.42989 0.0
C782 C 0.58265 0.63708 0.44035 0.0
C783 C 0.60819 0.60155 0.44751 0.0
C784 C 0.59099 0.58584 0.43649 0.0
H785 H 0.58042 0.65722 0.43906 0.0
H786 H 0.62618 0.59392 0.45262 0.0
H787 H 0.63239 0.6989 0.43503 0.0
H788 H 0.66213 0.64923 0.387 0.0
H789 H 0.61401 0.59278 0.53169 0.0
H790 H 0.54857 0.63107 0.42212 0.0
H791 H 0.59531 0.56605 0.43411 0.0
C792 C 0.39756 0.39655 0.1698 0.0
C793 C 0.41281 0.40552 0.15317 0.0
N794 N 0.43673 0.3986 0.1577 0.0
N795 N 0.4117 0.38377 0.18461 0.0
C796 C 0.43552 0.38541 0.17693 0.0
H797 H 0.37754 0.39992 0.17148 0.0
Co798 Co 0.39907 0.37247 0.21122 0.0
C799 C 0.42364 0.32371 0.22193 0.0
O800 O 0.40115 0.31619 0.22827 0.0
N801 N 0.38552 0.36235 0.23884 0.0
C802 C 0.36073 0.35131 0.26707 0.0
C803 C 0.36152 0.35699 0.24485 0.0
C804 C 0.39878 0.36039 0.25801 0.0
N805 N 0.38418 0.35346 0.2753 0.0
O806 O 0.41975 0.39726 0.22587 0.0
H807 H 0.34514 0.35769 0.23435 0.0
H808 H 0.41884 0.36391 0.2592 0.0
O809 O 0.42642 0.34631 0.21441 0.0
C810 C 0.40908 0.41634 0.23469 0.0
O811 O 0.38438 0.41678 0.23627 0.0
N812 N 0.37824 0.3499 0.19521 0.0
C813 C 0.34645 0.31872 0.17081 0.0
C814 C 0.37242 0.31428 0.17126 0.0
C815 C 0.38809 0.33068 0.18279 0.0
C816 C 0.35339 0.35615 0.19274 0.0
C817 C 0.33691 0.34046 0.18091 0.0
H818 H 0.40818 0.32806 0.18125 0.0
H819 H 0.34633 0.37348 0.1999 0.0
H820 H 0.45164 0.37757 0.18555 0.0
H821 H 0.40682 0.41704 0.13928 0.0
H822 H 0.34399 0.34695 0.27663 0.0
H823 H 0.38062 0.29861 0.16221 0.0
H824 H 0.31709 0.34522 0.17969 0.0
C825 C 0.35846 0.67741 0.94364 0.0
C826 C 0.3486 0.6948 0.92921 0.0
N827 N 0.36149 0.71657 0.93157 0.0
N828 N 0.37752 0.68802 0.95503 0.0
C829 C 0.379 0.71189 0.94747 0.0
H830 H 0.35166 0.65842 0.94629 0.0
Co831 Co 0.39216 0.67107 0.97819 0.0
C832 C 0.44293 0.69172 0.9862 0.0
O833 O 0.44991 0.66796 0.98729 0.0
N834 N 0.40544 0.65309 0.00255 0.0
C835 C 0.41721 0.62456 0.02765 0.0
C836 C 0.41072 0.6284 0.00575 0.0
C837 C 0.4089 0.66369 0.02275 0.0
N838 N 0.41587 0.64681 0.03835 0.0
O839 O 0.36988 0.68927 -0.00253 0.0
H840 H 0.40922 0.61368 -0.0065 0.0
H841 H 0.40592 0.68354 0.02594 0.0
O842 O 0.41959 0.69703 0.98228 0.0
C843 C 0.35064 0.67705 0.00412 0.0
O844 O 0.35102 0.65232 0.00285 0.0
N845 N 0.41146 0.65306 0.95717 0.0
C846 C 0.42918 0.62968 0.91871 0.0
C847 C 0.43624 0.65436 0.92383 0.0
C848 C 0.42679 0.66587 0.94278 0.0
C849 C 0.40377 0.62916 0.95202 0.0
C850 C 0.41305 0.61674 0.93313 0.0
H851 H 0.43032 0.68576 0.9447 0.0
H852 H 0.38904 0.62031 0.96165 0.0
H853 H 0.39238 0.72551 0.95377 0.0
H854 H 0.33268 0.69166 0.91831 0.0
H855 H 0.42137 0.60653 0.03526 0.0
H856 H 0.44818 0.66512 0.91269 0.0
H857 H 0.40656 0.59791 0.92916 0.0
C858 C 0.0865 0.58678 0.69089 0.0
C859 C 0.07506 0.57409 0.67366 0.0
N860 N 0.05066 0.58119 0.67291 0.0
N861 N 0.06944 0.60194 0.70072 0.0
C862 C 0.04775 0.598 0.68959 0.0
H863 H 0.10606 0.58529 0.69586 0.0
Co864 Co 0.07604 0.6225 0.72479 0.0
C865 C 0.0298 0.65204 0.73325 0.0
O866 O 0.0288 0.64287 0.75354 0.0
N867 N 0.08314 0.64314 0.74947 0.0
C868 C 0.08834 0.6769 0.77103 0.0
C869 C 0.0844 0.66862 0.74965 0.0
C870 C 0.08643 0.63645 0.77093 0.0
N871 N 0.08944 0.65659 0.78439 0.0
O872 O 0.05798 0.59858 0.74267 0.0
H873 H 0.08174 0.68055 0.73524 0.0
H874 H 0.08623 0.61721 0.77679 0.0
O875 O 0.04587 0.64307 0.71954 0.0
C876 C 0.07223 0.58049 0.74884 0.0
O877 O 0.09672 0.58308 0.7465 0.0
N878 N 0.09446 0.64399 0.7062 0.0
C879 C 0.12245 0.67314 0.6768 0.0
C880 C 0.09712 0.66777 0.67247 0.0
C881 C 0.08348 0.65317 0.68731 0.0
C882 C 0.11934 0.64844 0.7105 0.0
C883 C 0.13367 0.66351 0.69614 0.0
H884 H 0.06415 0.64878 0.68326 0.0
H885 H 0.12804 0.64036 0.72514 0.0
H886 H 0.03037 0.60788 0.69319 0.0
H887 H 0.08405 0.5609 0.66245 0.0
H888 H 0.08925 0.69636 0.77643 0.0
H889 H 0.08778 0.67505 0.65776 0.0
H890 H 0.15328 0.66731 0.69992 0.0
C891 C 0.13601 0.35674 0.43147 0.0
C892 C 0.14452 0.34291 0.41372 0.0
N893 N 0.13767 0.31869 0.41679 0.0
N894 N 0.1236 0.34143 0.44558 0.0
C895 C 0.12501 0.31829 0.43633 0.0
H896 H 0.13944 0.37657 0.43437 0.0
Co897 Co 0.1128 0.3523 0.473 0.0
C898 C 0.06621 0.32439 0.48453 0.0
O899 O 0.05785 0.34599 0.49231 0.0
N900 N 0.1032 0.36418 0.50144 0.0
C901 C 0.09169 0.38756 0.53048 0.0
C902 C 0.09627 0.38757 0.50804 0.0
C903 C 0.10321 0.35048 0.52045 0.0
N904 N 0.09602 0.3642 0.53828 0.0
O905 O 0.13956 0.33275 0.48592 0.0
H906 H 0.09499 0.40406 0.4977 0.0
H907 H 0.10822 0.33071 0.52112 0.0
O908 O 0.08853 0.32334 0.47607 0.0
C909 C 0.15876 0.34488 0.49287 0.0
O910 O 0.15717 0.36948 0.49501 0.0
N911 N 0.0884 0.37238 0.4584 0.0
C912 C 0.05764 0.40307 0.43238 0.0
C913 C 0.05298 0.37723 0.43397 0.0
C914 C 0.06915 0.36208 0.44628 0.0
C915 C 0.09421 0.3973 0.45571 0.0
C916 C 0.07884 0.41317 0.44294 0.0
H917 H 0.06678 0.34197 0.44491 0.0
H918 H 0.11136 0.40473 0.46291 0.0
H919 H 0.11738 0.3015 0.444 0.0
H920 H 0.1557 0.35003 0.40004 0.0
H921 H 0.08645 0.40377 0.5404 0.0
H922 H 0.03772 0.36858 0.4247 0.0
H923 H 0.08373 0.43287 0.44095 0.0
C924 C 0.40696 0.60915 0.30072 0.0
C925 C 0.41567 0.59482 0.31821 0.0
N926 N 0.44099 0.59686 0.31887 0.0
N927 N 0.4267 0.62039 0.29071 0.0
C928 C 0.44716 0.61251 0.30203 0.0
H929 H 0.38756 0.61099 0.29538 0.0
Co930 Co 0.42543 0.63937 0.26499 0.0
C931 C 0.47345 0.66757 0.26263 0.0
O932 O 0.47792 0.65786 0.24291 0.0
N933 N 0.42383 0.65818 0.23864 0.0
C934 C 0.42393 0.68978 0.21427 0.0
C935 C 0.42435 0.68356 0.23647 0.0
C936 C 0.42293 0.64947 0.21757 0.0
N937 N 0.4232 0.66824 0.20245 0.0
O938 O 0.44594 0.61387 0.25113 0.0
H939 H 0.42556 0.69673 0.25018 0.0
H940 H 0.42213 0.62973 0.21327 0.0
O941 O 0.45479 0.65942 0.27395 0.0
C942 C 0.43241 0.59544 0.24453 0.0
O943 O 0.40776 0.59785 0.24504 0.0
N944 N 0.4044 0.66272 0.27931 0.0
C945 C 0.37262 0.69536 0.30206 0.0
C946 C 0.39623 0.6891 0.31076 0.0
C947 C 0.41183 0.67275 0.29918 0.0
C948 C 0.38112 0.66809 0.27078 0.0
C949 C 0.36495 0.68489 0.28179 0.0
H950 H 0.42969 0.66765 0.30655 0.0
H951 H 0.37514 0.65941 0.25538 0.0
H952 H 0.46622 0.61809 0.29789 0.0
H953 H 0.40431 0.58347 0.32931 0.0
H954 H 0.42485 0.70862 0.20739 0.0
H955 H 0.4026 0.69687 0.32647 0.0
H956 H 0.34668 0.68938 0.27476 0.0
C957 C 0.16708 0.6882 0.04025 0.0
C958 C 0.17192 0.6997 0.06023 0.0
N959 N 0.15086 0.71179 0.06664 0.0
N960 N 0.14323 0.69329 0.03391 0.0
C961 C 0.13378 0.70787 0.05031 0.0
H962 H 0.17973 0.6757 0.03144 0.0
Co963 Co 0.1296 0.67708 0.00954 0.0
C964 C 0.08048 0.70059 -0.00181 0.0
O965 O 0.07252 0.67751 -0.00556 0.0
N966 N 0.11745 0.65953 0.98443 0.0
C967 C 0.10548 0.62983 0.96054 0.0
C968 C 0.11192 0.63478 0.98218 0.0
C969 C 0.11463 0.66906 0.96368 0.0
N970 N 0.10718 0.65141 0.94889 0.0
O971 O 0.15343 0.69507 0.99134 0.0
H972 H 0.11309 0.62068 -0.005 0.0
H973 H 0.11801 0.68864 0.95958 0.0
O974 O 0.10337 0.70411 0.00477 0.0
C975 C 0.17198 0.68233 0.98381 0.0
O976 O 0.17036 0.6576 0.98386 0.0
N977 N 0.10849 0.65877 0.02913 0.0
C978 C 0.08399 0.63084 0.06179 0.0
C979 C 0.07585 0.65512 0.05654 0.0
C980 C 0.0886 0.66895 0.04052 0.0
C981 C 0.11762 0.63566 0.03519 0.0
C982 C 0.10519 0.62096 0.05112 0.0
H983 H 0.08294 0.68825 0.03838 0.0
H984 H 0.13486 0.62872 0.02776 0.0
H985 H 0.11453 0.71456 0.05087 0.0
H986 H 0.18892 0.69774 0.07007 0.0
H987 H 0.10084 0.61149 0.95377 0.0
H988 H 0.06005 0.66361 0.06521 0.0
H989 H 0.11243 0.60249 0.05546 0.0
C990 C 0.10875 0.38016 0.80531 0.0
C991 C 0.09467 0.38905 0.82274 0.0
N992 N 0.0706 0.38163 0.81975 0.0
N993 N 0.09378 0.36692 0.7915 0.0
C994 C 0.07057 0.36822 0.80059 0.0
H995 H 0.1285 0.38396 0.80237 0.0
Co996 Co 0.10503 0.35574 0.76432 0.0
C997 C 0.07898 0.30787 0.75367 0.0
O998 O 0.10091 0.29991 0.74628 0.0
N999 N 0.1173 0.34579 0.7361 0.0
C1000 C 0.14115 0.33442 0.70731 0.0
C1001 C 0.14086 0.33914 0.72973 0.0
C1002 C 0.10378 0.34535 0.71697 0.0
N1003 N 0.11782 0.33835 0.69928 0.0
O1004 O 0.08405 0.381 0.75082 0.0
H1005 H 0.15727 0.33821 0.74019 0.0
H1006 H 0.08396 0.3501 0.71608 0.0
O1007 O 0.07719 0.3303 0.76176 0.0
C1008 C 0.09432 0.40067 0.74273 0.0
O1009 O 0.11891 0.40116 0.74018 0.0
N1010 N 0.12623 0.33266 0.77947 0.0
C1011 C 0.15823 0.30354 0.80582 0.0
C1012 C 0.13254 0.29793 0.80441 0.0
C1013 C 0.11673 0.31328 0.79192 0.0
C1014 C 0.15091 0.33949 0.78204 0.0
C1015 C 0.16743 0.32496 0.79496 0.0
H1016 H 0.09673 0.31012 0.79331 0.0
H1017 H 0.15768 0.3567 0.77445 0.0
H1018 H 0.05396 0.36006 0.79301 0.0
H1019 H 0.10149 0.40095 0.83607 0.0
H1020 H 0.15757 0.3295 0.69754 0.0
H1021 H 0.12451 0.28249 0.81387 0.0
H1022 H 0.18697 0.33057 0.79669 0.0
C1023 C 0.36269 0.33969 0.54167 0.0
C1024 C 0.35322 0.32248 0.55648 0.0
N1025 N 0.35876 0.29914 0.54901 0.0
N1026 N 0.37445 0.32731 0.5251 0.0
C1027 C 0.37172 0.30264 0.5299 0.0
H1028 H 0.36068 0.35996 0.54259 0.0
Co1029 Co 0.38602 0.34328 0.50008 0.0
C1030 C 0.43335 0.31844 0.48597 0.0
O1031 O 0.44119 0.34137 0.48143 0.0
N1032 N 0.39626 0.36025 0.47405 0.0
C1033 C 0.40756 0.38767 0.44783 0.0
C1034 C 0.40272 0.38453 0.4701 0.0
C1035 C 0.39682 0.3493 0.45375 0.0
N1036 N 0.40383 0.36545 0.43759 0.0
O1037 O 0.35935 0.32693 0.48392 0.0
H1038 H 0.4034 0.39951 0.48213 0.0
H1039 H 0.39231 0.32965 0.45097 0.0
O1040 O 0.41068 0.31525 0.4933 0.0
C1041 C 0.34046 0.34079 0.47916 0.0
O1042 O 0.34245 0.36531 0.48171 0.0
N1043 N 0.41033 0.35967 0.51794 0.0
C1044 C 0.44223 0.38282 0.54865 0.0
C1045 C 0.4439 0.35693 0.54452 0.0
C1046 C 0.42737 0.34566 0.52973 0.0
C1047 C 0.40688 0.38447 0.52324 0.0
C1048 C 0.42305 0.39666 0.5382 0.0
H1049 H 0.42759 0.32536 0.52879 0.0
H1050 H 0.39087 0.39461 0.51661 0.0
H1051 H 0.3783 0.28762 0.51918 0.0
H1052 H 0.34319 0.32689 0.57166 0.0
H1053 H 0.41249 0.40521 0.43973 0.0
H1054 H 0.45708 0.34509 0.55353 0.0
H1055 H 0.42024 0.41645 0.54189 0.0
H1056 H 0.12126 0.15008 0.06569 0.0
H1057 H 0.06954 0.20518 0.18048 0.0
H1058 H 0.06074 0.20423 0.07009 0.0
H1059 H 0.11224 0.13606 0.17669 0.0
H1060 H 0.06985 0.20781 0.13995 0.0
H1061 H 0.12185 0.1472 0.1064 0.0
C1062 C 0.10818 0.16141 0.07525 0.0
C1063 C 0.09089 0.17739 0.06456 0.0
C1064 C 0.07915 0.19204 0.14796 0.0
C1065 C 0.09146 0.17423 0.11094 0.0
C1066 C 0.07915 0.19065 0.17109 0.0
C1067 C 0.09095 0.17041 0.18192 0.0
C1068 C 0.09127 0.1732 0.13553 0.0
C1069 C 0.10277 0.15186 0.16894 0.0
C1070 C 0.10841 0.15964 0.09842 0.0
C1071 C 0.07415 0.19147 0.07767 0.0
N1072 N 0.10274 0.15375 0.14638 0.0
N1073 N 0.07494 0.18966 0.10018 0.0
H1074 H 0.12036 0.90321 0.4224 0.0
H1075 H 0.04714 0.81214 0.33835 0.0
H1076 H 0.0854 0.83353 0.44287 0.0
H1077 H 0.0903 0.87723 0.31804 0.0
H1078 H 0.05976 0.81996 0.37686 0.0
H1079 H 0.10816 0.89443 0.3841 0.0
C1080 C 0.11005 0.88607 0.41881 0.0
C1081 C 0.1038 0.86911 0.43582 0.0
C1082 C 0.06642 0.83251 0.36393 0.0
C1083 C 0.08985 0.85882 0.39197 0.0
C1084 C 0.05929 0.82802 0.34194 0.0
C1085 C 0.06756 0.84408 0.32487 0.0
C1086 C 0.08191 0.85323 0.36889 0.0
C1087 C 0.08304 0.86457 0.33058 0.0
C1088 C 0.10319 0.88099 0.39692 0.0
C1089 C 0.09079 0.84697 0.43019 0.0
N1090 N 0.08969 0.86853 0.35207 0.0
N1091 N 0.08412 0.8425 0.40872 0.0
H1092 H 0.35431 0.85988 0.67045 0.0
H1093 H 0.45536 0.84116 0.57408 0.0
H1094 H 0.43388 0.84837 0.68219 0.0
H1095 H 0.37562 0.82925 0.56353 0.0
H1096 H 0.44733 0.8475 0.61339 0.0
H1097 H 0.36121 0.85175 0.6309 0.0
C1098 C 0.37318 0.8555 0.66483 0.0
C1099 C 0.39357 0.85504 0.67977 0.0
C1100 C 0.43158 0.84341 0.60249 0.0
C1101 C 0.40159 0.84614 0.63447 0.0
C1102 C 0.43615 0.83966 0.57996 0.0
C1103 C 0.41618 0.83441 0.56531 0.0
C1104 C 0.40682 0.84217 0.61057 0.0
C1105 C 0.39161 0.83343 0.57406 0.0
C1106 C 0.3771 0.85097 0.64221 0.0
C1107 C 0.41765 0.84951 0.67136 0.0
N1108 N 0.38761 0.83731 0.59614 0.0
N1109 N 0.42099 0.84542 0.64929 0.0
H1110 H 0.36284 0.20125 0.81181 0.0
H1111 H 0.45244 0.17225 0.91584 0.0
H1112 H 0.43044 0.15592 0.80804 0.0
H1113 H 0.37812 0.20471 0.92189 0.0
H1114 H 0.44703 0.17079 0.87548 0.0
H1115 H 0.3703 0.20701 0.85158 0.0
C1116 C 0.37924 0.19251 0.81927 0.0
C1117 C 0.39594 0.17798 0.80646 0.0
C1118 C 0.43192 0.17827 0.88565 0.0
C1119 C 0.40474 0.18474 0.85193 0.0
C1120 C 0.43506 0.17923 0.90865 0.0
C1121 C 0.41562 0.18843 0.92222 0.0
C1122 C 0.40922 0.18672 0.87615 0.0
C1123 C 0.39339 0.19706 0.91206 0.0
C1124 C 0.38353 0.1959 0.84197 0.0
C1125 C 0.41716 0.16752 0.81704 0.0
N1126 N 0.39078 0.19597 0.88962 0.0
N1127 N 0.42088 0.17105 0.83915 0.0
H1128 H 0.9104 0.82922 0.92805 0.0
H1129 H 0.88192 0.87574 0.80405 0.0
H1130 H 0.87622 0.90078 0.91189 0.0
H1131 H 0.91854 0.80516 0.81944 0.0
H1132 H 0.87598 0.88328 0.84371 0.0
H1133 H 0.90942 0.81787 0.88862 0.0
C1134 C 0.90237 0.8424 0.91626 0.0
C1135 C 0.8936 0.86609 0.92323 0.0
C1136 C 0.8852 0.86606 0.83843 0.0
C1137 C 0.8927 0.85338 0.87811 0.0
C1138 C 0.88872 0.86182 0.81577 0.0
C1139 C 0.90101 0.83993 0.8084 0.0
C1140 C 0.89411 0.84833 0.8539 0.0
C1141 C 0.90889 0.82224 0.82435 0.0
C1142 C 0.90196 0.83598 0.89373 0.0
C1143 C 0.88364 0.88253 0.90719 0.0
N1144 N 0.90549 0.82693 0.84637 0.0
N1145 N 0.88359 0.87593 0.88539 0.0
H1146 H 0.87524 0.18504 0.67048 0.0
H1147 H 0.95089 0.13052 0.56638 0.0
H1148 H 0.93708 0.13237 0.67548 0.0
H1149 H 0.88486 0.17752 0.56042 0.0
H1150 H 0.95067 0.13728 0.60653 0.0
H1151 H 0.8828 0.18839 0.63053 0.0
C1152 C 0.89048 0.17426 0.66321 0.0
C1153 C 0.90527 0.15806 0.67634 0.0
C1154 C 0.93637 0.14637 0.59646 0.0
C1155 C 0.91417 0.162 0.63061 0.0
C1156 C 0.93647 0.14248 0.57356 0.0
C1157 C 0.91761 0.15313 0.56015 0.0
C1158 C 0.91714 0.16091 0.6061 0.0
C1159 C 0.89971 0.16894 0.57018 0.0
C1160 C 0.89487 0.17629 0.64041 0.0
C1161 C 0.92519 0.14508 0.66608 0.0
N1162 N 0.89968 0.17207 0.59264 0.0
N1163 N 0.92887 0.14712 0.6438 0.0
H1164 H 0.61278 0.20406 0.31667 0.0
H1165 H 0.5684 0.12444 0.42231 0.0
H1166 H 0.56764 0.13664 0.31201 0.0
H1167 H 0.61714 0.18958 0.42533 0.0
H1168 H 0.56274 0.13176 0.38246 0.0
H1169 H 0.60881 0.20267 0.3571 0.0
C1170 C 0.6018 0.18912 0.3242 0.0
C1171 C 0.5908 0.17028 0.31105 0.0
C1172 C 0.57446 0.14458 0.39194 0.0
C1173 C 0.5863 0.16836 0.35727 0.0
C1174 C 0.57783 0.14032 0.41467 0.0
C1175 C 0.59347 0.15625 0.42724 0.0
C1176 C 0.58687 0.16488 0.3817 0.0
C1177 C 0.60478 0.17685 0.41648 0.0
C1178 C 0.59951 0.18831 0.34726 0.0
C1179 C 0.57638 0.15156 0.32155 0.0
N1180 N 0.60142 0.18042 0.39435 0.0
N1181 N 0.57483 0.15087 0.34411 0.0
H1182 H 0.60304 0.91243 0.07699 0.0
H1183 H 0.5654 0.81854 0.17569 0.0
H1184 H 0.58372 0.83423 0.06692 0.0
H1185 H 0.59708 0.89263 0.18622 0.0
H1186 H 0.56842 0.82513 0.13565 0.0
H1187 H 0.5966 0.90693 0.11696 0.0
C1188 C 0.59719 0.89418 0.08317 0.0
C1189 C 0.59406 0.87371 0.06865 0.0
C1190 C 0.57466 0.83995 0.14675 0.0
C1191 C 0.58689 0.8672 0.11433 0.0
C1192 C 0.57309 0.83615 0.16966 0.0
C1193 C 0.58107 0.855 0.18448 0.0
C1194 C 0.58422 0.86281 0.13854 0.0
C1195 C 0.59041 0.87764 0.17555 0.0
C1196 C 0.59371 0.89099 0.106 0.0
C1197 C 0.58673 0.85039 0.07758 0.0
N1198 N 0.59174 0.88088 0.15318 0.0
N1199 N 0.58343 0.84775 0.09985 0.0
H1200 H 0.64038 0.67325 0.54989 0.0
H1201 H 0.5877 0.63301 0.66942 0.0
H1202 H 0.58995 0.61076 0.56122 0.0
H1203 H 0.64212 0.69251 0.65973 0.0
H1204 H 0.58464 0.628 0.62924 0.0
H1205 H 0.63776 0.68391 0.5895 0.0
C1206 C 0.62858 0.66195 0.56066 0.0
C1207 C 0.61563 0.6409 0.55235 0.0
C1208 C 0.59716 0.64226 0.63588 0.0
C1209 C 0.61262 0.65283 0.59755 0.0
C1210 C 0.59879 0.64524 0.65886 0.0
C1211 C 0.61536 0.66307 0.66801 0.0
C1212 C 0.61223 0.65717 0.62188 0.0
C1213 C 0.62947 0.6782 0.65343 0.0
C1214 C 0.62718 0.66794 0.58326 0.0
C1215 C 0.60069 0.6268 0.56704 0.0
N1216 N 0.6277 0.67481 0.63108 0.0
N1217 N 0.59969 0.63295 0.58891 0.0
H1218 H 0.56576 0.36896 0.92847 0.0
H1219 H 0.64246 0.32791 0.81962 0.0
H1220 H 0.63279 0.32278 0.92976 0.0
H1221 H 0.58032 0.38058 0.81872 0.0
H1222 H 0.63767 0.32392 0.85983 0.0
H1223 H 0.56905 0.37138 0.88793 0.0
C1224 C 0.5811 0.35928 0.92023 0.0
C1225 C 0.59911 0.34581 0.93253 0.0
C1226 C 0.62505 0.33631 0.85081 0.0
C1227 C 0.60307 0.34853 0.88623 0.0
C1228 C 0.62784 0.33867 0.82785 0.0
C1229 C 0.61183 0.35464 0.81571 0.0
C1230 C 0.60608 0.35001 0.86177 0.0
C1231 C 0.59292 0.3678 0.82728 0.0
C1232 C 0.58305 0.36074 0.89711 0.0
C1233 C 0.61875 0.33377 0.92101 0.0
N1234 N 0.59062 0.36524 0.84965 0.0
N1235 N 0.62019 0.3354 0.89852 0.0
H1236 H 0.8957 0.29941 0.17042 0.0
H1237 H 0.95056 0.36509 0.06103 0.0
H1238 H 0.9421 0.36615 0.17232 0.0
H1239 H 0.88836 0.31271 0.0602 0.0
H1240 H 0.95062 0.36339 0.1018 0.0
H1241 H 0.89572 0.30145 0.12973 0.0
C1242 C 0.90595 0.31442 0.16224 0.0
C1243 C 0.91884 0.33267 0.17471 0.0
C1244 C 0.93689 0.35237 0.09267 0.0
C1245 C 0.91898 0.33517 0.12829 0.0
C1246 C 0.93694 0.35326 0.06946 0.0
C1247 C 0.91935 0.33915 0.05727 0.0
C1248 C 0.91936 0.33697 0.10372 0.0
C1249 C 0.90198 0.32421 0.06895 0.0
C1250 C 0.90584 0.31569 0.13907 0.0
C1251 C 0.93165 0.3519 0.16333 0.0
N1252 N 0.90251 0.3234 0.09152 0.0
N1253 N 0.9315 0.35259 0.14074 0.0
H1254 H 0.86116 0.67813 0.30997 0.0
H1255 H 0.95851 0.65027 0.40836 0.0
H1256 H 0.93302 0.64092 0.30157 0.0
H1257 H 0.88465 0.68222 0.41881 0.0
H1258 H 0.95204 0.65328 0.36824 0.0
H1259 H 0.87162 0.68561 0.34904 0.0
C1260 C 0.87914 0.6716 0.31626 0.0
C1261 C 0.89609 0.65865 0.30241 0.0
C1262 C 0.93733 0.65993 0.37928 0.0
C1263 C 0.9083 0.66741 0.34702 0.0
C1264 C 0.94104 0.65819 0.40216 0.0
C1265 C 0.92198 0.6657 0.41688 0.0
C1266 C 0.91427 0.66905 0.37104 0.0
C1267 C 0.89986 0.67627 0.40803 0.0
C1268 C 0.88517 0.67603 0.33853 0.0
C1269 C 0.91936 0.65112 0.31141 0.0
N1270 N 0.89645 0.67731 0.38565 0.0
N1271 N 0.92466 0.65544 0.33315 0.0
H1272 H 0.43283 0.38955 0.40712 0.0
H1273 H 0.36416 0.32164 0.30551 0.0
H1274 H 0.37783 0.33014 0.41436 0.0
H1275 H 0.42031 0.37968 0.2973 0.0
H1276 H 0.37267 0.32117 0.34539 0.0
H1277 H 0.43205 0.38327 0.36686 0.0
C1278 C 0.42065 0.37514 0.40025 0.0
C1279 C 0.40516 0.36054 0.4141 0.0
C1280 C 0.38334 0.33386 0.33488 0.0
C1281 C 0.40429 0.35313 0.36813 0.0
C1282 C 0.37841 0.33418 0.31215 0.0
C1283 C 0.39132 0.35095 0.29822 0.0
C1284 C 0.40115 0.35065 0.34378 0.0
C1285 C 0.40997 0.36646 0.30751 0.0
C1286 C 0.42034 0.37145 0.37729 0.0
C1287 C 0.39016 0.34175 0.40437 0.0
N1288 N 0.41412 0.36617 0.32981 0.0
N1289 N 0.38993 0.33876 0.38197 0.0
H1290 H 0.39563 0.68518 0.06257 0.0
H1291 H 0.44272 0.62945 0.17862 0.0
H1292 H 0.442 0.61848 0.06821 0.0
H1293 H 0.4048 0.70107 0.17192 0.0
H1294 H 0.44234 0.62484 0.13824 0.0
H1295 H 0.39901 0.69138 0.1025 0.0
C1296 C 0.4068 0.67197 0.07209 0.0
C1297 C 0.41859 0.65124 0.06188 0.0
C1298 C 0.43416 0.64161 0.14559 0.0
C1299 C 0.42209 0.65804 0.1079 0.0
C1300 C 0.43419 0.64415 0.16865 0.0
C1301 C 0.42358 0.6656 0.17865 0.0
C1302 C 0.42332 0.66058 0.1324 0.0
C1303 C 0.4133 0.68432 0.16489 0.0
C1304 C 0.40857 0.67545 0.095 0.0
C1305 C 0.43233 0.63451 0.07534 0.0
N1306 N 0.4133 0.68131 0.14245 0.0
N1307 N 0.43363 0.63823 0.09767 0.0
H1308 H 0.12808 0.68642 0.92137 0.0
H1309 H 0.06971 0.62211 0.81269 0.0
H1310 H 0.07716 0.62294 0.92249 0.0
H1311 H 0.11309 0.6909 0.81063 0.0
H1312 H 0.07299 0.62206 0.85308 0.0
H1313 H 0.12288 0.68895 0.88098 0.0
C1314 C 0.11562 0.67318 0.91319 0.0
C1315 C 0.1032 0.65429 0.92534 0.0
C1316 C 0.08179 0.63722 0.84384 0.0
C1317 C 0.09745 0.65686 0.87916 0.0
C1318 C 0.08011 0.63712 0.82074 0.0
C1319 C 0.09132 0.65644 0.80826 0.0
C1320 C 0.09489 0.65671 0.85463 0.0
C1321 C 0.10406 0.67573 0.81964 0.0
C1322 C 0.11278 0.67454 0.89012 0.0
C1323 C 0.08751 0.63748 0.91379 0.0
N1324 N 0.10561 0.67533 0.84222 0.0
N1325 N 0.08518 0.63909 0.89138 0.0
H1326 H 0.13755 0.30876 0.66696 0.0
H1327 H 0.06568 0.38308 0.57046 0.0
H1328 H 0.0815 0.36617 0.6789 0.0
H1329 H 0.12368 0.32763 0.5585 0.0
H1330 H 0.06723 0.37315 0.61006 0.0
H1331 H 0.12873 0.31135 0.62717 0.0
C1332 C 0.12328 0.32182 0.6612 0.0
C1333 C 0.1105 0.33753 0.67623 0.0
C1334 C 0.07948 0.36298 0.59878 0.0
C1335 C 0.10022 0.34057 0.6307 0.0
C1336 C 0.07869 0.36873 0.57617 0.0
C1337 C 0.09485 0.35643 0.5612 0.0
C1338 C 0.09666 0.34486 0.60654 0.0
C1339 C 0.11088 0.33756 0.56944 0.0
C1340 C 0.11817 0.32322 0.63849 0.0
C1341 C 0.09177 0.35369 0.66793 0.0
N1342 N 0.11159 0.33254 0.5916 0.0
N1343 N 0.0874 0.355 0.64568 0.0
H1344 H 0.05929 0.94473 0.2851 0.0
H1345 H 0.08201 0.05359 0.20701 0.0
H1346 H 0.04089 0.93267 0.21612 0.0
H1347 H 0.03732 0.06927 0.26526 0.0
H1348 H 0.06983 0.009 0.20964 0.0
H1349 H 0.05404 0.99044 0.27947 0.0
C1350 C 0.05343 0.95172 0.26896 0.0
C1351 C 0.05011 0.93507 0.25112 0.0
C1352 C 0.06219 0.02238 0.22148 0.0
C1353 C 0.04531 0.98694 0.24434 0.0
C1354 C 0.06904 0.04775 0.21995 0.0
C1355 C 0.06059 0.06509 0.23589 0.0
C1356 C 0.04768 0.0142 0.23961 0.0
C1357 C 0.04416 0.05652 0.25258 0.0
C1358 C 0.05048 0.97767 0.26575 0.0
C1359 C 0.04318 0.94496 0.23035 0.0
N1360 N 0.03883 0.03149 0.25443 0.0
N1361 N 0.04163 0.97035 0.22735 0.0
H1362 H 0.19331 0.80257 0.51629 0.0
H1363 H 0.32577 0.79726 0.51949 0.0
H1364 H 0.20802 0.86322 0.47041 0.0
H1365 H 0.32238 0.83332 0.45539 0.0
H1366 H 0.27938 0.79529 0.51997 0.0
H1367 H 0.23719 0.7882 0.51181 0.0
C1368 C 0.20561 0.81243 0.50484 0.0
C1369 C 0.19713 0.83414 0.49372 0.0
C1370 C 0.28874 0.80277 0.50542 0.0
C1371 C 0.24731 0.81833 0.48893 0.0
C1372 C 0.31524 0.80383 0.50517 0.0
C1373 C 0.32773 0.81537 0.48734 0.0
C1374 C 0.27493 0.81355 0.48775 0.0
C1375 C 0.31334 0.82425 0.46943 0.0
C1376 C 0.23076 0.80449 0.50257 0.0
C1377 C 0.21385 0.84647 0.47935 0.0
N1378 N 0.28777 0.82352 0.47025 0.0
N1379 N 0.23808 0.83844 0.47743 0.0
H1380 H 0.45894 0.08742 0.72595 0.0
H1381 H 0.41466 0.96352 0.70461 0.0
H1382 H 0.41018 0.06565 0.78003 0.0
H1383 H 0.45722 0.94698 0.76394 0.0
H1384 H 0.42453 0.00849 0.70947 0.0
H1385 H 0.46869 0.04272 0.71938 0.0
C1386 C 0.45112 0.07338 0.73704 0.0
C1387 C 0.43353 0.08018 0.75347 0.0
C1388 C 0.4324 0.99483 0.72094 0.0
C1389 C 0.44507 0.02946 0.74631 0.0
C1390 C 0.42688 0.96927 0.71814 0.0
C1391 C 0.43538 0.95159 0.73375 0.0
C1392 C 0.44564 1.0027 0.73991 0.0
C1393 C 0.45059 0.96004 0.75139 0.0
C1394 C 0.45662 0.04795 0.73317 0.0
C1395 C 0.42377 0.06115 0.76718 0.0
N1396 N 0.45453 0.98517 0.75447 0.0
N1397 N 0.42951 0.03657 0.76318 0.0
H1398 H 0.32593 0.23331 0.01468 0.0
H1399 H 0.20357 0.18303 0.03333 0.0
H1400 H 0.30649 0.18375 0.96049 0.0
H1401 H 0.18634 0.22706 0.97498 0.0
H1402 H 0.24807 0.19514 0.0296 0.0
H1403 H 0.28079 0.24164 0.02074 0.0
C1404 C 0.31228 0.22491 0.00358 0.0
C1405 C 0.31982 0.2074 0.98736 0.0
C1406 C 0.23431 0.20276 0.01809 0.0
C1407 C 0.26875 0.21757 -0.00636 0.0
C1408 C 0.20903 0.19588 0.02018 0.0
C1409 C 0.19134 0.20399 0.00439 0.0
C1410 C 0.24194 0.21709 -0.00031 0.0
C1411 C 0.1994 0.22039 0.98747 0.0
C1412 C 0.28663 0.22969 0.00706 0.0
C1413 C 0.30138 0.19715 0.97331 0.0
N1414 N 0.22436 0.22567 0.98504 0.0
N1415 N 0.2766 0.2022 0.97691 0.0
H1416 H 0.92018 0.05132 0.70265 0.0
H1417 H 0.96774 0.92767 0.71831 0.0
H1418 H 0.95707 0.06455 0.76548 0.0
H1419 H 0.91692 0.94255 0.77265 0.0
H1420 H 0.97523 0.97327 0.71467 0.0
H1421 H 0.93155 0.00645 0.7054 0.0
C1422 C 0.93137 0.04492 0.71664 0.0
C1423 C 0.93782 0.06164 0.73379 0.0
C1424 C 0.96319 0.96633 0.72788 0.0
C1425 C 0.94989 0.01048 0.73741 0.0
C1426 C 0.959 0.94037 0.73006 0.0
C1427 C 0.94158 0.93137 0.74575 0.0
C1428 C 0.95047 0.98315 0.74196 0.0
C1429 C 0.93053 0.94876 0.7604 0.0
C1430 C 0.93779 0.01941 0.7182 0.0
C1431 C 0.95191 0.0523 0.75182 0.0
N1432 N 0.93502 0.97387 0.75807 0.0
N1433 N 0.95673 0.02713 0.75356 0.0
H1434 H 0.82902 0.19451 0.46149 0.0
H1435 H 0.69063 0.21138 0.50947 0.0
H1436 H 0.81033 0.16767 0.52711 0.0
H1437 H 0.70352 0.16733 0.45029 0.0
H1438 H 0.73647 0.21668 0.51362 0.0
H1439 H 0.78449 0.20576 0.45565 0.0
C1440 C 0.81575 0.19195 0.47499 0.0
C1441 C 0.8233 0.18028 0.49489 0.0
C1442 C 0.7291 0.20664 0.49933 0.0
C1443 C 0.77276 0.19344 0.48839 0.0
C1444 C 0.70301 0.20375 0.49683 0.0
C1445 C 0.69333 0.18881 0.47952 0.0
C1446 C 0.74542 0.19527 0.48397 0.0
C1447 C 0.71027 0.17905 0.4638 0.0
C1448 C 0.79041 0.1982 0.47156 0.0
C1449 C 0.80523 0.17678 0.51162 0.0
N1450 N 0.73554 0.18234 0.46644 0.0
N1451 N 0.78073 0.18329 0.508 0.0
H1452 H 0.53636 0.07942 0.22657 0.0
H1453 H 0.56137 0.95158 0.21746 0.0
H1454 H 0.57766 0.06639 0.2873 0.0
H1455 H 0.5446 0.94743 0.28743 0.0
H1456 H 0.55227 0.99696 0.21828 0.0
H1457 H 0.525 0.03451 0.22562 0.0
C1458 C 0.54227 0.06732 0.24012 0.0
C1459 C 0.55817 0.07653 0.25696 0.0
C1460 C 0.54959 0.98595 0.23326 0.0
C1461 C 0.54534 0.0254 0.2559 0.0
C1462 C 0.55473 0.96009 0.23277 0.0
C1463 C 0.55322 0.94578 0.2523 0.0
C1464 C 0.5439 0.99764 0.25364 0.0
C1465 C 0.54545 0.95778 0.27194 0.0
C1466 C 0.53601 0.04169 0.23942 0.0
C1467 C 0.5655 0.05997 0.27397 0.0
N1468 N 0.54179 0.98319 0.27227 0.0
N1469 N 0.55916 0.03515 0.27294 0.0
H1470 H 0.82672 0.81928 0.99048 0.0
H1471 H 0.69482 0.808 0.00061 0.0
H1472 H 0.81982 0.87337 0.04371 0.0
H1473 H 0.70197 0.87282 0.04337 0.0
H1474 H 0.74075 0.8026 0.00161 0.0
H1475 H 0.78144 0.81008 -0.00601 0.0
C1476 C 0.81576 0.8289 0.00309 0.0
C1477 C 0.82695 0.84747 0.0165 0.0
C1478 C 0.73237 0.81782 0.01101 0.0
C1479 C 0.77529 0.83687 0.02101 0.0
C1480 C 0.70603 0.8206 0.01079 0.0
C1481 C 0.69463 0.84095 0.02191 0.0
C1482 C 0.74726 0.83556 0.0225 0.0
C1483 C 0.71 0.85694 0.03453 0.0
C1484 C 0.78986 0.8236 0.0052 0.0
C1485 C 0.81195 0.85932 0.03264 0.0
N1486 N 0.73542 0.85402 0.03431 0.0
N1487 N 0.78704 0.85398 0.03428 0.0
H1488 H 0.54935 0.44884 0.73694 0.0
H1489 H 0.6027 0.58018 0.78154 0.0
H1490 H 0.60462 0.45795 0.78889 0.0
H1491 H 0.56405 0.5737 0.71871 0.0
H1492 H 0.59256 0.53653 0.78978 0.0
H1493 H 0.54408 0.49494 0.73557 0.0
C1494 C 0.55963 0.46047 0.74865 0.0
C1495 C 0.57755 0.44967 0.76302 0.0
C1496 C 0.58604 0.54455 0.77424 0.0
C1497 C 0.57176 0.50212 0.76142 0.0
C1498 C 0.59184 0.56952 0.7695 0.0
C1499 C 0.58461 0.58037 0.74921 0.0
C1500 C 0.57323 0.52993 0.75843 0.0
C1501 C 0.57016 0.56587 0.73444 0.0
C1502 C 0.55683 0.48676 0.74767 0.0
C1503 C 0.59064 0.46555 0.77758 0.0
N1504 N 0.56529 0.54111 0.73915 0.0
N1505 N 0.58765 0.49093 0.77627 0.0
H1506 H 0.82553 0.27989 0.97125 0.0
H1507 H 0.68798 0.28272 0.02209 0.0
H1508 H 0.80982 0.32128 0.03137 0.0
H1509 H 0.70468 0.3213 0.96077 0.0
H1510 H 0.73257 0.27064 0.02519 0.0
H1511 H 0.78063 0.26891 0.96848 0.0
C1512 C 0.81288 0.28562 0.98443 0.0
C1513 C 0.82121 0.30163 0.00151 0.0
C1514 C 0.72612 0.28075 0.01059 0.0
C1515 C 0.77045 0.2886 -0.00128 0.0
C1516 C 0.70075 0.28758 0.00874 0.0
C1517 C 0.69282 0.30314 0.9912 0.0
C1518 C 0.74323 0.28887 -0.00563 0.0
C1519 C 0.71017 0.30927 0.9745 0.0
C1520 C 0.78735 0.27941 0.98276 0.0
C1521 C 0.80402 0.30889 0.01799 0.0
N1522 N 0.73472 0.30231 0.9766 0.0
N1523 N 0.7793 0.30251 0.01608 0.0
H1524 H 0.91677 0.55015 0.27796 0.0
H1525 H 0.92876 0.44038 0.20243 0.0
H1526 H 0.95121 0.56543 0.21443 0.0
H1527 H 0.96106 0.43106 0.26767 0.0
H1528 H 0.93583 0.48603 0.20527 0.0
H1529 H 0.93146 0.5063 0.2754 0.0
C1530 C 0.92805 0.54443 0.26381 0.0
C1531 C 0.93282 0.56134 0.24641 0.0
C1532 C 0.94214 0.47386 0.21864 0.0
C1533 C 0.94866 0.51129 0.24296 0.0
C1534 C 0.93821 0.44788 0.21698 0.0
C1535 C 0.94451 0.43203 0.23477 0.0
C1536 C 0.95134 0.48401 0.23862 0.0
C1537 C 0.95614 0.44267 0.25354 0.0
C1538 C 0.93642 0.5195 0.26235 0.0
C1539 C 0.94726 0.55297 0.22825 0.0
N1540 N 0.95843 0.46815 0.25532 0.0
N1541 N 0.954 0.52827 0.22664 0.0
H1542 H 0.69526 0.69078 0.45209 0.0
H1543 H 0.82575 0.67504 0.44269 0.0
H1544 H 0.71226 0.65134 0.51296 0.0
H1545 H 0.82808 0.69629 0.5118 0.0
H1546 H 0.77962 0.67933 0.44327 0.0
H1547 H 0.73955 0.7047 0.4501 0.0
C1548 C 0.70811 0.68578 0.4654 0.0
C1549 C 0.70022 0.6699 0.48273 0.0
C1550 C 0.7903 0.68397 0.45808 0.0
C1551 C 0.75052 0.68566 0.48054 0.0
C1552 C 0.81658 0.6816 0.45772 0.0
C1553 C 0.83067 0.6858 0.4771 0.0
C1554 C 0.77805 0.68957 0.47821 0.0
C1555 C 0.81787 0.69342 0.4964 0.0
C1556 C 0.73334 0.6935 0.46412 0.0
C1557 C 0.71768 0.66355 0.49934 0.0
N1558 N 0.7922 0.69432 0.49666 0.0
N1559 N 0.74203 0.67143 0.49784 0.0
H1560 H 0.43474 0.56732 0.20676 0.0
H1561 H 0.40648 0.44681 0.27098 0.0
H1562 H 0.4503 0.56493 0.27702 0.0
H1563 H 0.44201 0.43999 0.20682 0.0
H1564 H 0.42232 0.49017 0.27381 0.0
H1565 H 0.43805 0.52111 0.20538 0.0
C1566 C 0.4399 0.55709 0.22169 0.0
C1567 C 0.44273 0.56985 0.24194 0.0
C1568 C 0.42722 0.47897 0.25938 0.0
C1569 C 0.44509 0.51719 0.24078 0.0
C1570 C 0.4182 0.45429 0.25778 0.0
C1571 C 0.42316 0.43987 0.23876 0.0
C1572 C 0.4404 0.48961 0.24142 0.0
C1573 C 0.43808 0.45048 0.22189 0.0
C1574 C 0.44162 0.53077 0.22095 0.0
C1575 C 0.4485 0.55576 0.26101 0.0
N1576 N 0.44565 0.47499 0.22334 0.0
N1577 N 0.44884 0.53011 0.26011 0.0
H1578 H 0.31183 0.66599 0.03198 0.0
H1579 H 0.19102 0.72184 0.00815 0.0
H1580 H 0.3323 0.71449 0.97735 0.0
H1581 H 0.21143 0.66702 0.95828 0.0
H1582 H 0.23612 0.72929 0.01536 0.0
H1583 H 0.26735 0.6772 0.02605 0.0
C1584 C 0.30704 0.67969 0.01929 0.0
C1585 C 0.32573 0.68946 0.00525 0.0
C1586 C 0.23054 0.71637 0.0023 0.0
C1587 C 0.27514 0.70154 -0.00203 0.0
C1588 C 0.2049 0.71217 -0.00194 0.0
C1589 C 0.19751 0.69352 0.98274 0.0
C1590 C 0.24866 0.70238 0.99065 0.0
C1591 C 0.21634 0.68142 0.9703 0.0
C1592 C 0.28176 0.68599 0.01589 0.0
C1593 C 0.31848 0.70676 0.98869 0.0
N1594 N 0.24109 0.6858 0.97473 0.0
N1595 N 0.29359 0.71165 0.985 0.0
H1596 H 0.09336 0.43519 0.70917 0.0
H1597 H 0.07903 0.54865 0.78379 0.0
H1598 H 0.06554 0.42146 0.7754 0.0
H1599 H 0.04615 0.55313 0.7184 0.0
H1600 H 0.07555 0.50246 0.78221 0.0
H1601 H 0.07804 0.47887 0.71169 0.0
C1602 C 0.0834 0.44123 0.72398 0.0
C1603 C 0.0804 0.42475 0.74198 0.0
C1604 C 0.06833 0.51362 0.76853 0.0
C1605 C 0.06394 0.4747 0.74537 0.0
C1606 C 0.07015 0.53992 0.76949 0.0
C1607 C 0.06248 0.55464 0.75135 0.0
C1608 C 0.05987 0.50206 0.74888 0.0
C1609 C 0.05187 0.54243 0.73287 0.0
C1610 C 0.0747 0.46607 0.72542 0.0
C1611 C 0.06784 0.43356 0.76103 0.0
N1612 N 0.05156 0.51678 0.7318 0.0
N1613 N 0.06065 0.45817 0.76248 0.0
H1614 H 0.30636 0.3444 0.44535 0.0
H1615 H 0.17886 0.31488 0.46056 0.0
H1616 H 0.316 0.3155 0.51175 0.0
H1617 H 0.19665 0.35053 0.52306 0.0
H1618 H 0.22399 0.30578 0.45514 0.0
H1619 H 0.26075 0.33662 0.4483 0.0
C1620 C 0.29893 0.33556 0.46021 0.0
C1621 C 0.31488 0.33004 0.47814 0.0
C1622 C 0.21784 0.31501 0.47027 0.0
C1623 C 0.26291 0.32222 0.48204 0.0
C1624 C 0.19215 0.31993 0.47351 0.0
C1625 C 0.18412 0.33338 0.49235 0.0
C1626 C 0.23541 0.32316 0.48621 0.0
C1627 C 0.20215 0.34006 0.50837 0.0
C1628 C 0.27298 0.33118 0.46192 0.0
C1629 C 0.3043 0.31944 0.49739 0.0
N1630 N 0.22699 0.33489 0.50494 0.0
N1631 N 0.27886 0.31651 0.49908 0.0
H1632 H 0.01968 0.31772 0.24816 0.0
H1633 H 0.98795 0.17776 0.24703 0.0
H1634 H 0.94935 0.29746 0.2795 0.0
H1635 H 0.05436 0.19773 0.28465 0.0
H1636 H 0.97328 0.22169 0.25022 0.0
H1637 H 0.03415 0.27383 0.25283 0.0
C1638 C 0.00745 0.3042 0.25627 0.0
C1639 C 0.98331 0.31135 0.2635 0.0
C1640 C 0.99092 0.21622 0.25793 0.0
C1641 C 0.99932 0.26123 0.26803 0.0
C1642 C 0.99927 0.19123 0.25619 0.0
C1643 C 0.02244 0.184 0.26554 0.0
C1644 C 0.00627 0.23422 0.26839 0.0
C1645 C 0.03641 0.20238 0.27714 0.0
C1646 C 0.01569 0.27926 0.25888 0.0
C1647 C 0.96814 0.29291 0.27376 0.0
N1648 N 0.02841 0.22678 0.27779 0.0
N1649 N 0.97616 0.26859 0.27527 0.0
H1650 H 0.03025 0.8359 0.4972 0.0
H1651 H 0.99519 0.69103 0.51608 0.0
H1652 H 0.08337 0.78082 0.52179 0.0
H1653 H 0.93965 0.74747 0.49957 0.0
H1654 H 0.02721 0.72372 0.51875 0.0
H1655 H 0.9972 0.80409 0.49784 0.0
C1656 C 0.03509 0.81706 0.50271 0.0
C1657 C 0.05987 0.81113 0.50942 0.0
C1658 C 0.00805 0.72911 0.51469 0.0
C1659 C 0.02156 0.77432 0.51021 0.0
C1660 C 0.98963 0.71042 0.51313 0.0
C1661 C 0.9646 0.71644 0.5074 0.0
C1662 C 1.00168 0.75426 0.51027 0.0
C1663 C 0.95863 0.74194 0.50407 0.0
C1664 C 0.01603 0.79889 0.50314 0.0
C1665 C 0.06468 0.78632 0.51638 0.0
N1666 N 0.97711 0.7599 0.50532 0.0
N1667 N 0.04574 0.76885 0.51654 0.0
H1668 H 0.43092 0.78384 0.75699 0.0
H1669 H 0.57033 0.74536 0.72105 0.0
H1670 H 0.48887 0.83869 0.74296 0.0
H1671 H 0.52052 0.69392 0.75519 0.0
H1672 H 0.53893 0.77855 0.72475 0.0
H1673 H 0.4618 0.75016 0.7528 0.0
C1674 C 0.45018 0.78887 0.75298 0.0
C1675 C 0.45725 0.81428 0.75023 0.0
C1676 C 0.53479 0.76001 0.73138 0.0
C1677 C 0.49282 0.77539 0.74525 0.0
C1678 C 0.55267 0.74088 0.72918 0.0
C1679 C 0.5482 0.71665 0.73791 0.0
C1680 C 0.51194 0.75504 0.74219 0.0
C1681 C 0.52482 0.7122 0.74814 0.0
C1682 C 0.46783 0.76952 0.75067 0.0
C1683 C 0.48256 0.81945 0.74524 0.0
N1684 N 0.50757 0.73123 0.75001 0.0
N1685 N 0.4994 0.80016 0.74276 0.0
H1686 H 0.44044 0.2413 0.99218 0.0
H1687 H 0.56786 0.28985 0.04934 0.0
H1688 H 0.44718 0.25276 0.06294 0.0
H1689 H 0.5637 0.2609 0.98231 0.0
H1690 H 0.52332 0.27917 0.05456 0.0
H1691 H 0.48477 0.25277 0.98782 0.0
C1692 C 0.45123 0.24636 0.0068 0.0
C1693 C 0.44018 0.24561 0.02798 0.0
C1694 C 0.53224 0.27498 0.03878 0.0
C1695 C 0.49104 0.25897 0.02314 0.0
C1696 C 0.55773 0.28094 0.03581 0.0
C1697 C 0.56965 0.27627 0.01534 0.0
C1698 C 0.51845 0.26452 0.02108 0.0
C1699 C 0.55543 0.26479 -0.00159 0.0
C1700 C 0.47657 0.25287 0.00431 0.0
C1701 C 0.4549 0.25306 0.04628 0.0
N1702 N 0.5306 0.25952 0.00161 0.0
N1703 N 0.47963 0.25927 0.04346 0.0
H1704 H 0.94053 0.69383 0.19615 0.0
H1705 H 0.00488 0.80928 0.25968 0.0
H1706 H 0.98672 0.68417 0.25464 0.0
H1707 H 0.98083 0.81425 0.19147 0.0
H1708 H 0.99497 0.76415 0.2596 0.0
H1709 H 0.95209 0.73849 0.19524 0.0
C1710 C 0.95326 0.70106 0.20873 0.0
C1711 C 0.96267 0.68518 0.22552 0.0
C1712 C 0.99203 0.77502 0.24457 0.0
C1713 C 0.97567 0.7365 0.22474 0.0
C1714 C 0.99798 0.8007 0.24456 0.0
C1715 C 0.99458 0.81523 0.22535 0.0
C1716 C 0.98205 0.76386 0.22529 0.0
C1717 C 0.98389 0.80363 0.20661 0.0
C1718 C 0.95985 0.72658 0.20818 0.0
C1719 C 0.97914 0.69563 0.24132 0.0
N1720 N 0.97805 0.77859 0.20702 0.0
N1721 N 0.98492 0.72066 0.24066 0.0
H1722 H 0.55081 0.68192 0.51361 0.0
H1723 H 0.46053 0.77834 0.44859 0.0
H1724 H 0.56904 0.70856 0.44785 0.0
H1725 H 0.44039 0.738 0.50832 0.0
H1726 H 0.50138 0.75639 0.4484 0.0
H1727 H 0.51255 0.70723 0.51315 0.0
C1728 C 0.54696 0.69356 0.49918 0.0
C1729 C 0.56319 0.69313 0.48077 0.0
C1730 C 0.48793 0.75231 0.46146 0.0
C1731 C 0.51867 0.7219 0.47982 0.0
C1732 C 0.46452 0.76478 0.46157 0.0
C1733 C 0.44683 0.76016 0.47856 0.0
C1734 C 0.49382 0.73524 0.47857 0.0
C1735 C 0.45321 0.74226 0.49484 0.0
C1736 C 0.52492 0.70785 0.49883 0.0
C1737 C 0.55718 0.70857 0.4625 0.0
N1738 N 0.4761 0.73068 0.4945 0.0
N1739 N 0.53523 0.72217 0.46238 0.0
H1740 H 0.48679 0.19017 0.73585 0.0
H1741 H 0.51531 0.33921 0.72975 0.0
H1742 H 0.42905 0.24652 0.72607 0.0
H1743 H 0.56896 0.28393 0.75311 0.0
H1744 H 0.48373 0.30543 0.72621 0.0
H1745 H 0.51807 0.22419 0.73946 0.0
C1746 C 0.4807 0.2096 0.73436 0.0
C1747 C 0.45522 0.2154 0.73077 0.0
C1748 C 0.50243 0.30079 0.7322 0.0
C1749 C 0.49081 0.25445 0.73484 0.0
C1750 C 0.5204 0.32011 0.73432 0.0
C1751 C 0.54488 0.31451 0.74171 0.0
C1752 C 0.50906 0.27569 0.73735 0.0
C1753 C 0.55041 0.28927 0.74723 0.0
C1754 C 0.49852 0.22905 0.73651 0.0
C1755 C 0.44843 0.24103 0.729 0.0
N1756 N 0.53278 0.2709 0.74483 0.0
N1757 N 0.46604 0.2595 0.73102 0.0
H1758 H 0.07399 0.2374 -0.0026 0.0
H1759 H 0.94391 0.28167 0.9419 0.0
H1760 H 0.06466 0.24725 0.92669 0.0
H1761 H 0.95098 0.25815 0.01037 0.0
H1762 H 0.98832 0.27109 0.93601 0.0
H1763 H 0.0296 0.24841 0.00276 0.0
C1764 C 0.06261 0.24203 0.98302 0.0
C1765 C 0.07293 0.24098 0.96156 0.0
C1766 C 0.98009 0.26806 0.95227 0.0
C1767 C 0.02208 0.25377 0.96752 0.0
C1768 C 0.95466 0.27395 0.95563 0.0
C1769 C 0.94359 0.27081 0.97669 0.0
C1770 C 0.99468 0.25914 0.97012 0.0
C1771 C 0.95858 0.26081 -0.00617 0.0
C1772 C 0.03725 0.24828 0.98607 0.0
C1773 C 0.0575 0.24783 0.94354 0.0
N1774 N 0.98335 0.25553 0.99021 0.0
N1775 N 0.0328 0.25376 0.94691 0.0
H1776 H 0.9667 0.80266 0.74735 0.0
H1777 H 0.03153 0.67956 0.69445 0.0
H1778 H 0.99907 0.80046 0.68157 0.0
H1779 H 1.002 0.6822 0.76129 0.0
H1780 H 0.01808 0.72318 0.68895 0.0
H1781 H 0.9788 0.7585 0.75266 0.0
C1782 C 0.97638 0.79294 0.73402 0.0
C1783 C 0.9816 0.80535 0.7139 0.0
C1784 C 0.01438 0.71419 0.70479 0.0
C1785 C 0.9956 0.75457 0.71987 0.0
C1786 C 0.02194 0.68914 0.70791 0.0
C1787 C 0.01802 0.67701 0.72842 0.0
C1788 C 1.00275 0.72742 0.72227 0.0
C1789 C 0.00544 0.69062 0.74518 0.0
C1790 C 0.98332 0.76768 0.73707 0.0
C1791 C 0.99465 0.7918 0.6974 0.0
N1792 N 0.99841 0.71505 0.74178 0.0
N1793 N 1.00105 0.76719 0.7007 0.0
H1794 H 0.99117 0.1792 0.47639 0.0
H1795 H 0.01558 0.32611 0.4921 0.0
H1796 H 0.93091 0.23388 0.47805 0.0
H1797 H 0.07443 0.27457 0.47211 0.0
H1798 H 0.98483 0.29238 0.48863 0.0
H1799 H 0.02187 0.21336 0.476 0.0
C1800 C 0.98432 0.19845 0.47662 0.0
C1801 C 0.9583 0.20364 0.47744 0.0
C1802 C 1.00441 0.28838 0.48492 0.0
C1803 C 0.99372 0.24305 0.47715 0.0
C1804 C 0.02216 0.30764 0.48703 0.0
C1805 C 0.04785 0.30324 0.48253 0.0
C1806 C 0.01222 0.26422 0.47851 0.0
C1807 C 0.05492 0.27887 0.47584 0.0
C1808 C 1.00197 0.21797 0.47631 0.0
C1809 C 0.95072 0.22899 0.47743 0.0
N1810 N 0.03723 0.26023 0.47419 0.0
N1811 N 0.96836 0.24775 0.47755 0.0
H1812 H 0.4746 0.3302 0.21314 0.0
H1813 H 0.50715 0.18216 0.22444 0.0
H1814 H 0.41938 0.27308 0.22873 0.0
H1815 H 0.56347 0.24088 0.22355 0.0
H1816 H 0.47424 0.21479 0.2214 0.0
H1817 H 0.5073 0.29721 0.21257 0.0
C1818 C 0.46933 0.31082 0.21641 0.0
C1819 C 0.4442 0.30455 0.22116 0.0
C1820 C 0.49385 0.22045 0.2218 0.0
C1821 C 0.48139 0.26665 0.22031 0.0
C1822 C 0.51261 0.20181 0.22345 0.0
C1823 C 0.53811 0.20871 0.22447 0.0
C1824 C 0.50069 0.24615 0.22091 0.0
C1825 C 0.54407 0.23457 0.2231 0.0
C1826 C 0.48797 0.29197 0.21609 0.0
C1827 C 0.43849 0.27899 0.22517 0.0
N1828 N 0.52559 0.25224 0.22142 0.0
N1829 N 0.45684 0.26109 0.22463 0.0
H1830 H 0.53051 0.82733 0.0096 0.0
H1831 H 0.4937 0.68435 0.98401 0.0
H1832 H 0.58473 0.77258 0.98641 0.0
H1833 H 0.4385 0.74354 0.9919 0.0
H1834 H 0.52729 0.71532 0.98767 0.0
H1835 H 0.49739 0.79586 0.00669 0.0
C1836 C 0.53558 0.80858 0.00401 0.0
C1837 C 0.56062 0.80272 -0.00188 0.0
C1838 C 0.50788 0.72161 0.98857 0.0
C1839 C 0.52224 0.76631 -0.00527 0.0
C1840 C 0.48854 0.70391 0.98654 0.0
C1841 C 0.46304 0.71127 0.98773 0.0
C1842 C 0.50192 0.74703 0.99207 0.0
C1843 C 0.45779 0.73696 0.99086 0.0
C1844 C 0.51649 0.79062 0.00228 0.0
C1845 C 0.56581 0.77797 0.99121 0.0
N1846 N 0.47706 0.75388 0.99305 0.0
N1847 N 0.54676 0.76069 0.98965 0.0
H1848 H 0.99217 0.16859 0.75808 0.0
H1849 H 0.02848 0.31592 0.76317 0.0
H1850 H 0.93735 0.22866 0.7543 0.0
H1851 H 0.08195 0.25697 0.74796 0.0
H1852 H 0.99498 0.28385 0.76491 0.0
H1853 H 0.02585 0.20051 0.75943 0.0
C1854 C 0.9872 0.1884 0.75763 0.0
C1855 C 0.96189 0.19587 0.75586 0.0
C1856 C 0.0141 0.27801 0.76121 0.0
C1857 C 1.00019 0.23248 0.75761 0.0
C1858 C 0.03319 0.29632 0.76024 0.0
C1859 C 0.05805 0.28925 0.75521 0.0
C1860 C 0.01999 0.25243 0.75745 0.0
C1861 C 0.06306 0.26346 0.75167 0.0
C1862 C 0.00639 0.20663 0.75835 0.0
C1863 C 0.95658 0.2219 0.75541 0.0
N1864 N 0.04429 0.24608 0.75289 0.0
N1865 N 0.97547 0.23918 0.75629 0.0
H1866 H 0.43103 0.27103 0.50548 0.0
H1867 H 0.57985 0.24519 0.49042 0.0
H1868 H 0.48091 0.32034 0.46909 0.0
H1869 H 0.52712 0.18887 0.51315 0.0
H1870 H 0.54433 0.27472 0.48556 0.0
H1871 H 0.46634 0.24143 0.51052 0.0
C1872 C 0.44922 0.27548 0.49829 0.0
C1873 C 0.4529 0.29825 0.48685 0.0
C1874 C 0.54062 0.25587 0.49167 0.0
C1875 C 0.49357 0.26483 0.49302 0.0
C1876 C 0.56093 0.23913 0.49459 0.0
C1877 C 0.5565 0.21447 0.50204 0.0
C1878 C 0.5158 0.24796 0.49649 0.0
C1879 C 0.53149 0.2076 0.50711 0.0
C1880 C 0.46945 0.2587 0.50132 0.0
C1881 C 0.47709 0.30311 0.47813 0.0
N1882 N 0.51219 0.22416 0.50425 0.0
N1883 N 0.49643 0.28672 0.48152 0.0
H1884 H 0.52908 0.82067 0.25245 0.0
H1885 H 0.46923 0.69373 0.30204 0.0
H1886 H 0.50973 0.81193 0.32166 0.0
H1887 H 0.50263 0.6987 0.23676 0.0
H1888 H 0.48239 0.73721 0.30937 0.0
H1889 H 0.51701 0.77677 0.24589 0.0
C1890 C 0.5224 0.80951 0.2663 0.0
C1891 C 0.52097 0.81998 0.28772 0.0
C1892 C 0.48703 0.72871 0.29351 0.0
C1893 C 0.5066 0.76957 0.28027 0.0
C1894 C 0.4796 0.7038 0.28934 0.0
C1895 C 0.4848 0.69237 0.26873 0.0
C1896 C 0.49956 0.74254 0.27691 0.0
C1897 C 0.49828 0.70654 0.25293 0.0
C1898 C 0.51542 0.78442 0.26254 0.0
C1899 C 0.51125 0.80476 0.30486 0.0
N1900 N 0.50498 0.73085 0.25728 0.0
N1901 N 0.50454 0.78036 0.30079 0.0
H1902 H 0.08637 0.75188 0.99065 0.0
H1903 H 0.93978 0.78411 0.00926 0.0
H1904 H 0.03038 0.69553 0.00603 0.0
H1905 H 0.98969 0.83172 0.97116 0.0
H1906 H 0.97395 0.753 0.01259 0.0
H1907 H 0.05241 0.78367 0.98842 0.0
C1908 C 0.06705 0.74626 -0.00626 0.0
C1909 C 0.06122 0.72099 -0.00168 0.0
C1910 C 0.97732 0.77025 0.00342 0.0
C1911 C 0.02241 0.75707 -0.00403 0.0
C1912 C 0.95776 0.78795 0.00143 0.0
C1913 C 0.96168 0.81056 0.98979 0.0
C1914 C 1.00112 0.77533 -0.00598 0.0
C1915 C 0.9856 0.81455 0.98019 0.0
C1916 C 0.04767 0.76431 0.99234 0.0
C1917 C 0.03579 0.71472 0.00215 0.0
N1918 N 1.00438 0.79727 0.98265 0.0
N1919 N 0.01743 0.73256 0.00095 0.0
H1920 H 0.14157 0.26912 0.42797 0.0
H1921 H 0.15006 0.22634 0.30121 0.0
H1922 H 0.14716 0.32045 0.37247 0.0
H1923 H 0.13909 0.17513 0.35602 0.0
H1924 H 0.15922 0.26015 0.32777 0.0
H1925 H 0.14902 0.23391 0.4026 0.0
C1926 C 0.14436 0.27301 0.41048 0.0
C1927 C 0.14335 0.29779 0.40232 0.0
C1928 C 0.15538 0.24138 0.334 0.0
C1929 C 0.15227 0.2576 0.37321 0.0
C1930 C 0.15047 0.22205 0.31883 0.0
C1931 C 0.14351 0.19813 0.32654 0.0
C1932 C 0.15315 0.23663 0.35694 0.0
C1933 C 0.14408 0.1935 0.34951 0.0
C1934 C 0.14887 0.25292 0.39602 0.0
C1935 C 0.1478 0.30172 0.37955 0.0
N1936 N 0.14832 0.21271 0.36394 0.0
N1937 N 0.1518 0.28184 0.36578 0.0
H1938 H 0.08786 0.91826 0.60954 0.0
H1939 H 0.9411 0.92248 0.62913 0.0
H1940 H 0.03198 0.92185 0.55765 0.0
H1941 H 0.99605 0.9149 0.68185 0.0
H1942 H 0.97444 0.93534 0.60409 0.0
H1943 H 0.05553 0.93012 0.63678 0.0
C1944 C 0.06896 0.9226 0.60384 0.0
C1945 C 0.06233 0.91908 0.58152 0.0
C1946 C 0.97918 0.93119 0.62123 0.0
C1947 C 0.02529 0.93173 0.61235 0.0
C1948 C 0.96003 0.92385 0.63568 0.0
C1949 C 0.9657 0.91661 0.65761 0.0
C1950 C 1.0043 0.93101 0.62859 0.0
C1951 C 0.99077 0.91921 0.66491 0.0
C1952 C 0.05047 0.92912 0.61935 0.0
C1953 C 0.03764 0.92443 0.57482 0.0
N1954 N 0.00921 0.92568 0.65032 0.0
N1955 N 0.01986 0.93006 0.59024 0.0
H1956 H 0.33636 0.81697 0.82352 0.0
H1957 H 0.37917 0.76366 0.94147 0.0
H1958 H 0.39592 0.84891 0.86335 0.0
H1959 H 0.33429 0.72274 0.89346 0.0
H1960 H 0.37586 0.80111 0.91813 0.0
H1961 H 0.32506 0.78936 0.8547 0.0
C1962 C 0.34647 0.81868 0.83911 0.0
C1963 C 0.36726 0.83478 0.84095 0.0
C1964 C 0.36646 0.78395 0.91295 0.0
C1965 C 0.35493 0.80327 0.87626 0.0
C1966 C 0.36854 0.76243 0.92617 0.0
C1967 C 0.35753 0.73962 0.9193 0.0
C1968 C 0.35324 0.7827 0.89275 0.0
C1969 C 0.34328 0.73965 0.89956 0.0
C1970 C 0.34021 0.80285 0.8568 0.0
C1971 C 0.37995 0.83638 0.86135 0.0
N1972 N 0.34181 0.76074 0.88688 0.0
N1973 N 0.37384 0.82048 0.87816 0.0
H1974 H 0.53044 0.07113 0.14988 0.0
H1975 H 0.50074 0.15278 0.04161 0.0
H1976 H 0.5557 0.14735 0.13888 0.0
H1977 H 0.45145 0.09381 0.06468 0.0
H1978 H 0.53108 0.14158 0.07065 0.0
H1979 H 0.51012 0.07149 0.11311 0.0
C1980 C 0.53181 0.08784 0.1396 0.0
C1981 C 0.54437 0.10938 0.14739 0.0
C1982 C 0.51399 0.13057 0.06893 0.0
C1983 C 0.5219 0.10971 0.10546 0.0
C1984 C 0.49692 0.13668 0.0522 0.0
C1985 C 0.47376 0.12409 0.05089 0.0
C1986 C 0.50767 0.11187 0.08446 0.0
C1987 C 0.46928 0.10374 0.06518 0.0
C1988 C 0.52032 0.08801 0.11872 0.0
C1989 C 0.54574 0.13058 0.13358 0.0
N1990 N 0.48595 0.09848 0.08174 0.0
N1991 N 0.53461 0.13022 0.11325 0.0
H1992 H 0.18321 0.73881 0.0919 0.0
H1993 H 0.08611 0.74439 0.19325 0.0
H1994 H 0.10863 0.7065 0.09126 0.0
H1995 H 0.14588 0.79871 0.18509 0.0
H1996 H 0.10176 0.72146 0.16081 0.0
H1997 H 0.17586 0.75367 0.13011 0.0
C1998 C 0.1653 0.73495 0.09985 0.0
C1999 C 0.14632 0.72184 0.08843 0.0
C2000 C 0.11178 0.73809 0.1664 0.0
C2001 C 0.13809 0.738 0.13197 0.0
C2002 C 0.10304 0.75099 0.18501 0.0
C2003 C 0.11455 0.77361 0.19156 0.0
C2004 C 0.13215 0.74792 0.1543 0.0
C2005 C 0.13648 0.78135 0.18048 0.0
C2006 C 0.16118 0.74328 0.12157 0.0
C2007 C 0.12349 0.71706 0.09935 0.0
N2008 N 0.14436 0.76875 0.16205 0.0
N2009 N 0.12003 0.7251 0.12055 0.0
H2010 H 0.44739 0.91734 0.42043 0.0
H2011 H 0.58605 0.9206 0.37128 0.0
H2012 H 0.51305 0.88534 0.45184 0.0
H2013 H 0.51843 0.9292 0.33197 0.0
H2014 H 0.56089 0.92423 0.40494 0.0
H2015 H 0.47477 0.93773 0.39287 0.0
C2016 C 0.46767 0.91551 0.422 0.0
C2017 C 0.47817 0.89967 0.43819 0.0
C2018 C 0.55163 0.92586 0.38893 0.0
C2019 C 0.50931 0.92236 0.40683 0.0
C2020 C 0.56601 0.92392 0.36964 0.0
C2021 C 0.55424 0.92389 0.3487 0.0
C2022 C 0.52532 0.92771 0.38731 0.0
C2023 C 0.52815 0.92827 0.34777 0.0
C2024 C 0.48323 0.92693 0.40623 0.0
C2025 C 0.50441 0.89744 0.43949 0.0
N2026 N 0.51446 0.92955 0.36683 0.0
N2027 N 0.51913 0.90838 0.42377 0.0
H2028 H 0.38317 0.25434 0.54447 0.0
H2029 H 0.32914 0.20733 0.65891 0.0
H2030 H 0.32104 0.29006 0.57855 0.0
H2031 H 0.38775 0.1695 0.62216 0.0
H2032 H 0.31814 0.23122 0.62536 0.0
H2033 H 0.37771 0.21726 0.56784 0.0
C2034 C 0.36808 0.25426 0.55658 0.0
C2035 C 0.35308 0.2757 0.56001 0.0
C2036 C 0.33296 0.2172 0.62444 0.0
C2037 C 0.34698 0.23341 0.58716 0.0
C2038 C 0.33907 0.20348 0.64354 0.0
C2039 C 0.35963 0.18694 0.64322 0.0
C2040 C 0.34777 0.21437 0.60516 0.0
C2041 C 0.37203 0.18252 0.62302 0.0
C2042 C 0.36499 0.23305 0.57 0.0
C2043 C 0.33371 0.27436 0.57591 0.0
N2044 N 0.36626 0.19655 0.60488 0.0
N2045 N 0.33153 0.25378 0.58919 0.0
H2046 H 0.95299 0.1464 0.84418 0.0
H2047 H 0.05822 0.08985 0.92181 0.0
H2048 H 0.9729 0.06766 0.84083 0.0
H2049 H 0.01556 0.15636 0.93852 0.0
H2050 H 0.02663 0.07945 0.89328 0.0
H2051 H 0.97647 0.14998 0.87903 0.0
C2052 C 0.96245 0.12991 0.85079 0.0
C2053 C 0.96126 0.10678 0.83963 0.0
C2054 C 0.02381 0.09591 0.90365 0.0
C2055 C 0.98796 0.11056 0.87948 0.0
C2056 C 0.04165 0.10165 0.92003 0.0
C2057 C 0.03927 0.1239 0.93239 0.0
C2058 C 1.00395 0.11289 0.89953 0.0
C2059 C 0.01787 0.13899 0.92926 0.0
C2060 C 0.97556 0.13184 0.87079 0.0
C2061 C 0.97341 0.08581 0.84905 0.0
N2062 N 1.00125 0.13347 0.91283 0.0
N2063 N 0.98656 0.08824 0.86835 0.0
H2064 H 0.85134 0.76423 0.68457 0.0
H2065 H 0.86202 0.74556 0.55462 0.0
H2066 H 0.85875 0.8254 0.63793 0.0
H2067 H 0.84704 0.68499 0.60065 0.0
H2068 H 0.85335 0.77594 0.58422 0.0
H2069 H 0.84038 0.73598 0.65379 0.0
C2070 C 0.84955 0.77187 0.66793 0.0
C2071 C 0.85598 0.79697 0.66359 0.0
C2072 C 0.85162 0.75599 0.58779 0.0
C2073 C 0.84464 0.76487 0.62835 0.0
C2074 C 0.85683 0.73867 0.57093 0.0
C2075 C 0.85565 0.71273 0.57527 0.0
C2076 C 0.84552 0.74729 0.60922 0.0
C2077 C 0.8482 0.70482 0.59657 0.0
C2078 C 0.84363 0.75574 0.65032 0.0
C2079 C 0.85389 0.80604 0.64178 0.0
N2080 N 0.84377 0.72201 0.61283 0.0
N2081 N 0.84892 0.78987 0.62487 0.0
H2082 H 0.98527 0.08084 0.43653 0.0
H2083 H 0.00811 0.08007 0.30728 0.0
H2084 H 0.92576 0.08651 0.38805 0.0
H2085 H 0.06688 0.0695 0.356 0.0
H2086 H 0.97658 0.07239 0.3361 0.0
H2087 H 0.01386 0.0658 0.40748 0.0
C2088 C 0.97807 0.07794 0.41986 0.0
C2089 C 0.95332 0.08478 0.41449 0.0
C2090 C 0.99638 0.07129 0.34044 0.0
C2091 C 0.98592 0.06878 0.38107 0.0
C2092 C 0.01435 0.07585 0.32402 0.0
C2093 C 0.04008 0.07606 0.32942 0.0
C2094 C 1.00421 0.06728 0.36249 0.0
C2095 C 0.04723 0.06974 0.35118 0.0
C2096 C 0.99437 0.06958 0.40323 0.0
C2097 C 0.94478 0.08123 0.39269 0.0
N2098 N 0.02937 0.0661 0.36703 0.0
N2099 N 0.96123 0.07394 0.37662 0.0
H2100 H 0.67027 0.25151 0.05861 0.0
H2101 H 0.67095 0.2185 0.18698 0.0
H2102 H 0.68339 0.30548 0.11102 0.0
H2103 H 0.64877 0.16708 0.13513 0.0
H2104 H 0.68884 0.24672 0.15882 0.0
H2105 H 0.67504 0.21736 0.08554 0.0
C2106 C 0.67439 0.25614 0.07577 0.0
C2107 C 0.67569 0.28135 0.08275 0.0
C2108 C 0.68077 0.22891 0.15361 0.0
C2109 C 0.68129 0.24244 0.11362 0.0
C2110 C 0.67082 0.21276 0.16968 0.0
C2111 C 0.65851 0.19063 0.16317 0.0
C2112 C 0.6779 0.22292 0.13097 0.0
C2113 C 0.65827 0.18404 0.14064 0.0
C2114 C 0.6773 0.23666 0.0911 0.0
C2115 C 0.68196 0.28631 0.10499 0.0
N2116 N 0.66742 0.20036 0.12525 0.0
N2117 N 0.68404 0.26703 0.11975 0.0
H2118 H 0.59066 0.85695 0.88594 0.0
H2119 H 0.48614 0.94777 0.83447 0.0
H2120 H 0.56477 0.92492 0.91806 0.0
H2121 H 0.50269 0.87272 0.81065 0.0
H2122 H 0.52185 0.94469 0.85998 0.0
H2123 H 0.5662 0.86805 0.85296 0.0
C2124 C 0.58006 0.87444 0.88587 0.0
C2125 C 0.57922 0.88982 0.90483 0.0
C2126 C 0.51781 0.92905 0.84895 0.0
C2127 C 0.55106 0.90252 0.8673 0.0
C2128 C 0.49732 0.9307 0.83447 0.0
C2129 C 0.49095 0.91023 0.82071 0.0
C2130 C 0.53211 0.90681 0.84963 0.0
C2131 C 0.5067 0.88895 0.82095 0.0
C2132 C 0.56612 0.88075 0.86707 0.0
C2133 C 0.56569 0.9125 0.90378 0.0
N2134 N 0.52635 0.88768 0.83539 0.0
N2135 N 0.55173 0.91799 0.88543 0.0
H2136 H 0.83771 0.21718 0.80261 0.0
H2137 H 0.84442 0.2457 0.93152 0.0
H2138 H 0.85419 0.16105 0.85226 0.0
H2139 H 0.82716 0.30142 0.8815 0.0
H2140 H 0.83849 0.21253 0.90381 0.0
H2141 H 0.82327 0.24581 0.8319 0.0
C2142 C 0.83734 0.21064 0.81968 0.0
C2143 C 0.84696 0.18689 0.82521 0.0
C2144 C 0.83561 0.23199 0.89895 0.0
C2145 C 0.83165 0.21964 0.8588 0.0
C2146 C 0.83918 0.25093 0.91474 0.0
C2147 C 0.83689 0.27638 0.90866 0.0
C2148 C 0.82995 0.23857 0.87687 0.0
C2149 C 0.8293 0.28207 0.88688 0.0
C2150 C 0.82935 0.227 0.83642 0.0
C2151 C 0.84666 0.17925 0.84748 0.0
N2152 N 0.82653 0.26334 0.87167 0.0
N2153 N 0.83959 0.19579 0.86357 0.0
H2154 H 0.59477 0.14418 0.61127 0.0
H2155 H 0.46303 0.0841 0.64009 0.0
H2156 H 0.55544 0.09264 0.56807 0.0
H2157 H 0.50592 0.12966 0.68615 0.0
H2158 H 0.49995 0.08065 0.61653 0.0
H2159 H 0.56676 0.13229 0.64176 0.0
C2160 C 0.58062 0.12978 0.60847 0.0
C2161 C 0.57707 0.1195 0.58724 0.0
C2162 C 0.50141 0.09115 0.63193 0.0
C2163 C 0.54454 0.10641 0.62164 0.0
C2164 C 0.48024 0.09313 0.64551 0.0
C2165 C 0.48106 0.10763 0.66507 0.0
C2166 C 0.52356 0.104 0.63773 0.0
C2167 C 0.50407 0.11891 0.67096 0.0
C2168 C 0.56456 0.12308 0.6258 0.0
C2169 C 0.55862 0.10096 0.58428 0.0
N2170 N 0.52429 0.11714 0.6572 0.0
N2171 N 0.54262 0.09537 0.60122 0.0
H2172 H 0.64895 0.77487 0.29149 0.0
H2173 H 0.65746 0.72993 0.41713 0.0
H2174 H 0.65348 0.82551 0.34739 0.0
H2175 H 0.65163 0.67978 0.36081 0.0
H2176 H 0.66481 0.76503 0.39158 0.0
H2177 H 0.6609 0.73989 0.31591 0.0
C2178 C 0.65352 0.77874 0.30873 0.0
C2179 C 0.64998 0.80287 0.31761 0.0
C2180 C 0.66223 0.74627 0.38483 0.0
C2181 C 0.66259 0.76311 0.34574 0.0
C2182 C 0.65774 0.72629 0.39942 0.0
C2183 C 0.65355 0.70193 0.39111 0.0
C2184 C 0.66232 0.74189 0.36176 0.0
C2185 C 0.65479 0.6982 0.368 0.0
C2186 C 0.65999 0.75876 0.32275 0.0
C2187 C 0.65583 0.80699 0.34007 0.0
N2188 N 0.65878 0.71799 0.35415 0.0
N2189 N 0.6613 0.78719 0.35351 0.0
H2190 H 0.08147 0.90289 0.13784 0.0
H2191 H 0.95025 0.93207 0.08085 0.0
H2192 H 0.0119 0.91532 0.17347 0.0
H2193 H 0.01744 0.91008 0.04533 0.0
H2194 H 0.97567 0.93937 0.11402 0.0
H2195 H 0.06129 0.91774 0.10391 0.0
C2196 C 0.06206 0.90912 0.13865 0.0
C2197 C 0.04819 0.90731 0.15848 0.0
C2198 C 0.98498 0.93358 0.09882 0.0
C2199 C 0.02488 0.92411 0.11953 0.0
C2200 C 0.97051 0.92971 0.07977 0.0
C2201 C 0.98174 0.91997 0.06045 0.0
C2202 C 0.01075 0.9275 0.09853 0.0
C2203 C 0.00803 0.9171 0.06007 0.0
C2204 C 0.05052 0.91756 0.11921 0.0
C2205 C 0.02307 0.91565 0.15844 0.0
N2206 N 0.0216 0.9203 0.079 0.0
N2207 N 0.01211 0.92337 0.13918 0.0
H2208 H 0.67658 0.72679 0.81695 0.0
H2209 H 0.63352 0.75867 0.94122 0.0
H2210 H 0.60866 0.6988 0.84765 0.0
H2211 H 0.69015 0.80056 0.9051 0.0
H2212 H 0.63082 0.72919 0.91016 0.0
H2213 H 0.6884 0.74653 0.85247 0.0
C2214 C 0.66439 0.72459 0.83127 0.0
C2215 C 0.64143 0.71176 0.82944 0.0
C2216 C 0.64403 0.74472 0.90922 0.0
C2217 C 0.65468 0.73386 0.86977 0.0
C2218 C 0.64548 0.76166 0.92689 0.0
C2219 C 0.66167 0.78255 0.92568 0.0
C2220 C 0.65889 0.74867 0.89021 0.0
C2221 C 0.6773 0.7849 0.9069 0.0
C2222 C 0.67106 0.73581 0.85145 0.0
C2223 C 0.62627 0.70911 0.84839 0.0
N2224 N 0.6753 0.76835 0.8898 0.0
N2225 N 0.63306 0.72027 0.86775 0.0
H2226 H 0.48526 0.40179 0.17216 0.0
H2227 H 0.53753 0.40799 0.04845 0.0
H2228 H 0.43868 0.40935 0.11361 0.0
H2229 H 0.58354 0.39279 0.10604 0.0
H2230 H 0.50287 0.42038 0.07303 0.0
H2231 H 0.52258 0.40859 0.14916 0.0
C2232 C 0.48284 0.40491 0.1545 0.0
C2233 C 0.45879 0.4045 0.14476 0.0
C2234 C 0.52075 0.41495 0.0803 0.0
C2235 C 0.50141 0.41268 0.11838 0.0
C2236 C 0.54059 0.40818 0.06627 0.0
C2237 C 0.56314 0.39902 0.07533 0.0
C2238 C 0.5236 0.41233 0.10345 0.0
C2239 C 0.5662 0.39942 0.0985 0.0
C2240 C 0.50415 0.40907 0.14141 0.0
C2241 C 0.45679 0.40945 0.12187 0.0
N2242 N 0.54646 0.40546 0.11181 0.0
N2243 N 0.47783 0.41302 0.10943 0.0
H2244 H 0.84922 0.17791 0.37361 0.0
H2245 H 0.85661 0.3242 0.34489 0.0
H2246 H 0.86311 0.23655 0.42184 0.0
H2247 H 0.85688 0.26544 0.29542 0.0
H2248 H 0.84688 0.29286 0.37344 0.0
H2249 H 0.84157 0.21006 0.34538 0.0
C2250 C 0.8504 0.19757 0.37834 0.0
C2251 C 0.85708 0.20457 0.40009 0.0
C2252 C 0.8484 0.28686 0.35628 0.0
C2253 C 0.84836 0.24147 0.36779 0.0
C2254 C 0.85362 0.30476 0.33998 0.0
C2255 C 0.85763 0.29722 0.31791 0.0
C2256 C 0.84748 0.26125 0.35043 0.0
C2257 C 0.85382 0.27189 0.31229 0.0
C2258 C 0.84605 0.2159 0.36218 0.0
C2259 C 0.85853 0.23033 0.40519 0.0
N2260 N 0.84944 0.25465 0.32857 0.0
N2261 N 0.85434 0.24785 0.38911 0.0
H2262 H 0.99981 0.58046 0.67743 0.0
H2263 H 0.98155 0.58311 0.54633 0.0
H2264 H 0.05954 0.56788 0.63001 0.0
H2265 H 0.92573 0.60715 0.59383 0.0
H2266 H 0.00646 0.56489 0.57681 0.0
H2267 H 0.96909 0.57791 0.64725 0.0
C2268 C 0.00643 0.57689 0.6607 0.0
C2269 C 0.03231 0.57507 0.65613 0.0
C2270 C 0.98843 0.57354 0.58051 0.0
C2271 C 0.99732 0.57205 0.62154 0.0
C2272 C 0.97422 0.58373 0.56314 0.0
C2273 C 0.9518 0.5966 0.56782 0.0
C2274 C 0.98011 0.57655 0.60257 0.0
C2275 C 0.94304 0.59733 0.58975 0.0
C2276 C 0.98889 0.57529 0.64349 0.0
C2277 C 0.03981 0.56962 0.63427 0.0
N2278 N 0.95741 0.58777 0.60641 0.0
N2279 N 0.02242 0.56878 0.61769 0.0
H2280 H 0.61269 0.346 0.63197 0.0
H2281 H 0.68418 0.2222 0.59603 0.0
H2282 H 0.67073 0.31122 0.67167 0.0
H2283 H 0.63564 0.26431 0.55174 0.0
H2284 H 0.6838 0.25738 0.62175 0.0
H2285 H 0.62521 0.31987 0.60035 0.0
C2286 C 0.62853 0.33322 0.63376 0.0
C2287 C 0.64068 0.33049 0.65431 0.0
C2288 C 0.67347 0.25906 0.60628 0.0
C2289 C 0.65465 0.3001 0.6186 0.0
C2290 C 0.67368 0.23889 0.59144 0.0
C2291 C 0.65954 0.23991 0.57167 0.0
C2292 C 0.65879 0.28039 0.60153 0.0
C2293 C 0.64628 0.26223 0.56696 0.0
C2294 C 0.63563 0.31827 0.61579 0.0
C2295 C 0.661 0.31377 0.65599 0.0
N2296 N 0.64596 0.28143 0.58192 0.0
N2297 N 0.66708 0.2988 0.63844 0.0
H2298 H 0.97799 0.3977 0.93457 0.0
H2299 H 0.02095 0.38378 0.80829 0.0
H2300 H 0.92742 0.38062 0.8805 0.0
H2301 H 0.07195 0.39353 0.86364 0.0
H2302 H 0.98549 0.3917 0.83327 0.0
H2303 H 0.01119 0.40722 0.90752 0.0
C2304 C 0.97365 0.39689 0.91697 0.0
C2305 C 0.95018 0.38809 0.90965 0.0
C2306 C 0.00448 0.39238 0.83988 0.0
C2307 C 0.98801 0.39809 0.87874 0.0
C2308 C 0.02473 0.38759 0.82566 0.0
C2309 C 0.0495 0.38759 0.83391 0.0
C2310 C 0.00901 0.39708 0.86254 0.0
C2311 C 0.05324 0.39336 0.85648 0.0
C2312 C 0.99264 0.402 0.90153 0.0
C2313 C 0.94547 0.3871 0.88671 0.0
N2314 N 0.03322 0.3976 0.87003 0.0
N2315 N 0.96438 0.39155 0.87204 0.0
H2316 H 0.85969 0.82268 0.10518 0.0
H2317 H 0.87563 0.67565 0.12757 0.0
H2318 H 0.89896 0.77214 0.06087 0.0
H2319 H 0.8408 0.72755 0.17355 0.0
H2320 H 0.87634 0.70886 0.09944 0.0
H2321 H 0.84587 0.78665 0.12712 0.0
C2322 C 0.86547 0.80397 0.1001 0.0
C2323 C 0.88097 0.80042 0.08145 0.0
C2324 C 0.8681 0.71286 0.11554 0.0
C2325 C 0.86493 0.75897 0.10637 0.0
C2326 C 0.86742 0.69382 0.13154 0.0
C2327 C 0.85845 0.69899 0.15302 0.0
C2328 C 0.85982 0.7372 0.12112 0.0
C2329 C 0.84831 0.72294 0.1573 0.0
C2330 C 0.85736 0.78337 0.11252 0.0
C2331 C 0.88716 0.77569 0.07521 0.0
N2332 N 0.84961 0.74127 0.1416 0.0
N2333 N 0.87937 0.75589 0.08782 0.0
H2334 H 0.57679 0.57223 0.38878 0.0
H2335 H 0.43083 0.58452 0.3617 0.0
H2336 H 0.51914 0.58848 0.43717 0.0
H2337 H 0.48987 0.58365 0.31237 0.0
H2338 H 0.46151 0.57174 0.38984 0.0
H2339 H 0.54391 0.56151 0.36169 0.0
C2340 C 0.55721 0.57248 0.39393 0.0
C2341 C 0.55047 0.5814 0.41503 0.0
C2342 C 0.46768 0.57394 0.37278 0.0
C2343 C 0.51297 0.56995 0.38423 0.0
C2344 C 0.45015 0.58118 0.3567 0.0
C2345 C 0.45796 0.5858 0.33479 0.0
C2346 C 0.49319 0.57135 0.3669 0.0
C2347 C 0.48324 0.5811 0.32923 0.0
C2348 C 0.53846 0.56666 0.37845 0.0
C2349 C 0.52492 0.58178 0.42094 0.0
N2350 N 0.50004 0.57449 0.34525 0.0
N2351 N 0.50703 0.57661 0.40547 0.0
H2352 H 0.3203 0.32794 0.13264 0.0
H2353 H 0.33313 0.18349 0.10463 0.0
H2354 H 0.33772 0.26957 0.18004 0.0
H2355 H 0.32405 0.2423 0.05566 0.0
H2356 H 0.31958 0.21286 0.13338 0.0
H2357 H 0.30642 0.29556 0.10618 0.0
C2358 C 0.32021 0.30834 0.13773 0.0
C2359 C 0.33039 0.30118 0.15827 0.0
C2360 C 0.32008 0.21923 0.11627 0.0
C2361 C 0.31533 0.26423 0.1282 0.0
C2362 C 0.32774 0.20239 0.09979 0.0
C2363 C 0.33062 0.21068 0.07778 0.0
C2364 C 0.31553 0.24457 0.11072 0.0
C2365 C 0.32312 0.23538 0.07254 0.0
C2366 C 0.3125 0.28986 0.12263 0.0
C2367 C 0.33016 0.27564 0.16418 0.0
N2368 N 0.31644 0.25163 0.08897 0.0
N2369 N 0.32325 0.25801 0.14904 0.0
H2370 H 0.50478 0.64803 0.79951 0.0
H2371 H 0.4593 0.58852 0.91252 0.0
H2372 H 0.54335 0.58742 0.83323 0.0
H2373 H 0.41963 0.64708 0.87722 0.0
H2374 H 0.48372 0.57958 0.8788 0.0
H2375 H 0.46761 0.64008 0.82239 0.0
C2376 C 0.50528 0.63274 0.81143 0.0
C2377 C 0.52746 0.61893 0.81499 0.0
C2378 C 0.46919 0.59392 0.87821 0.0
C2379 C 0.48519 0.60993 0.84148 0.0
C2380 C 0.45517 0.59884 0.8974 0.0
C2381 C 0.4379 0.61879 0.89756 0.0
C2382 C 0.46596 0.60933 0.85934 0.0
C2383 C 0.43316 0.63177 0.87769 0.0
C2384 C 0.48407 0.62822 0.82456 0.0
C2385 C 0.52697 0.59919 0.83056 0.0
N2386 N 0.4475 0.62717 0.85948 0.0
N2387 N 0.50636 0.59559 0.84353 0.0
H2388 H 0.12653 0.66827 0.63192 0.0
H2389 H 0.16496 0.81217 0.61817 0.0
H2390 H 0.14854 0.71608 0.68658 0.0
H2391 H 0.1424 0.76421 0.56363 0.0
H2392 H 0.1659 0.77552 0.64249 0.0
H2393 H 0.13988 0.70096 0.60585 0.0
C2394 C 0.13472 0.68552 0.63836 0.0
C2395 C 0.13617 0.68976 0.66134 0.0
C2396 C 0.16097 0.77295 0.62516 0.0
C2397 C 0.15096 0.72736 0.63176 0.0
C2398 C 0.16049 0.7939 0.61119 0.0
C2399 C 0.15332 0.79136 0.58881 0.0
C2400 C 0.15411 0.74925 0.61675 0.0
C2401 C 0.14748 0.76718 0.58085 0.0
C2402 C 0.14224 0.70419 0.62352 0.0
C2403 C 0.1471 0.7122 0.66894 0.0
N2404 N 0.14781 0.7471 0.59486 0.0
N2405 N 0.15367 0.73042 0.65416 0.0
H2406 H 0.00834 0.41513 0.43767 0.0
H2407 H 0.99211 0.41674 0.30825 0.0
H2408 H 0.07077 0.4229 0.39242 0.0
H2409 H 0.92992 0.42263 0.35415 0.0
H2410 H 0.02119 0.427 0.33846 0.0
H2411 H 0.97939 0.42699 0.40781 0.0
C2412 C 0.01593 0.42028 0.42157 0.0
C2413 C 0.04178 0.41805 0.41731 0.0
C2414 C 1.00114 0.42651 0.34187 0.0
C2415 C 0.00895 0.43045 0.38288 0.0
C2416 C 0.98459 0.42043 0.32466 0.0
C2417 C 0.95866 0.41825 0.32885 0.0
C2418 C 0.99171 0.43004 0.36349 0.0
C2419 C 0.94978 0.42393 0.35024 0.0
C2420 C 0.99946 0.42686 0.40447 0.0
C2421 C 0.05087 0.42455 0.39623 0.0
N2422 N 0.96633 0.42909 0.36686 0.0
N2423 N 0.03438 0.4299 0.37958 0.0
H2424 H 0.36328 0.74449 0.29228 0.0
H2425 H 0.34729 0.76971 0.42105 0.0
H2426 H 0.34865 0.6869 0.34107 0.0
H2427 H 0.36645 0.82692 0.37297 0.0
H2428 H 0.33601 0.7413 0.39068 0.0
H2429 H 0.35171 0.77672 0.31968 0.0
C2430 C 0.35653 0.73867 0.30849 0.0
C2431 C 0.35695 0.71321 0.31462 0.0
C2432 C 0.34232 0.7602 0.38674 0.0
C2433 C 0.3447 0.74965 0.34616 0.0
C2434 C 0.34896 0.77634 0.40408 0.0
C2435 C 0.35845 0.80045 0.39948 0.0
C2436 C 0.34551 0.76813 0.36462 0.0
C2437 C 0.35944 0.8084 0.37724 0.0
C2438 C 0.35023 0.75701 0.32421 0.0
C2439 C 0.34853 0.70646 0.33586 0.0
N2440 N 0.35352 0.79211 0.3606 0.0
N2441 N 0.34321 0.72461 0.35105 0.0
H2442 H 0.99374 0.62093 0.17689 0.0
H2443 H 0.04991 0.59305 0.05659 0.0
H2444 H 0.95419 0.57891 0.12629 0.0
H2445 H 0.08636 0.63911 0.10607 0.0
H2446 H 0.01891 0.57973 0.08454 0.0
H2447 H 0.03134 0.62083 0.15363 0.0
C2448 C 0.99295 0.61175 0.16083 0.0
C2449 C 0.97065 0.60039 0.15328 0.0
C2450 C 0.03406 0.59224 0.08945 0.0
C2451 C 0.01377 0.59988 0.12664 0.0
C2452 C 0.05183 0.59958 0.07359 0.0
C2453 C 0.07053 0.61704 0.07926 0.0
C2454 C 0.03504 0.60274 0.11091 0.0
C2455 C 0.07216 0.62548 0.10126 0.0
C2456 C 0.01451 0.61146 0.14764 0.0
C2457 C 0.97096 0.58801 0.13266 0.0
N2458 N 0.05439 0.61851 0.11625 0.0
N2459 N 0.99211 0.58835 0.1199 0.0
H2460 H 0.18243 0.31836 0.84362 0.0
H2461 H 0.18141 0.17662 0.88484 0.0
H2462 H 0.16849 0.25363 0.80211 0.0
H2463 H 0.18334 0.2411 0.92871 0.0
H2464 H 0.19115 0.20411 0.8537 0.0
H2465 H 0.19695 0.29014 0.87337 0.0
C2466 C 0.18338 0.29825 0.84053 0.0
C2467 C 0.17411 0.28813 0.82062 0.0
C2468 C 0.18985 0.21221 0.8702 0.0
C2469 C 0.19006 0.2559 0.85442 0.0
C2470 C 0.18439 0.19645 0.8881 0.0
C2471 C 0.1807 0.20661 0.90943 0.0
C2472 C 0.19143 0.23836 0.87356 0.0
C2473 C 0.18503 0.23254 0.91245 0.0
C2474 C 0.19143 0.28215 0.85752 0.0
C2475 C 0.17537 0.26201 0.81737 0.0
N2476 N 0.18966 0.24761 0.89464 0.0
N2477 N 0.18278 0.24674 0.83425 0.0
H2478 H 0.42997 0.41565 0.58242 0.0
H2479 H 0.54273 0.36934 0.65466 0.0
H2480 H 0.49253 0.37475 0.55387 0.0
H2481 H 0.51542 0.44492 0.66546 0.0
H2482 H 0.51809 0.36723 0.62024 0.0
H2483 H 0.45624 0.42522 0.61505 0.0
C2484 C 0.44938 0.40926 0.58273 0.0
C2485 C 0.45899 0.39398 0.56565 0.0
C2486 C 0.51747 0.38426 0.6302 0.0
C2487 C 0.48844 0.40407 0.6029 0.0
C2488 C 0.53118 0.38531 0.64988 0.0
C2489 C 0.53085 0.40727 0.66275 0.0
C2490 C 0.50297 0.40513 0.62367 0.0
C2491 C 0.51601 0.42772 0.65578 0.0
C2492 C 0.46421 0.41456 0.60138 0.0
C2493 C 0.4842 0.38604 0.56696 0.0
N2494 N 0.50237 0.42612 0.63668 0.0
N2495 N 0.49789 0.39069 0.58552 0.0
loop_
_geom_bond_atom_site_label_1
_geom_bond_atom_site_label_2
_geom_bond_distance
_geom_bond_site_symmetry_2
_ccdc_geom_bond_type
C0 C1 1.351 . S
C0 N3 1.368 . S
C0 H5 0.931 . S
C1 C0 1.351 . S
C1 N2 1.373 . S
C1 H29 0.930 . S
N2 C1 1.373 . S
N2 C4 1.340 . S
N3 C0 1.368 . S
N3 C4 1.321 . S
N3 Co6 2.135 . S
C4 N2 1.340 . S
C4 N3 1.321 . S
C4 H28 0.930 . S
H5 C0 0.931 . S
Co6 N3 2.135 . S
Co6 N9 2.121 . S
Co6 O14 2.055 . S
Co6 O17 2.039 . S
Co6 N20 2.140 . S
C7 O8 1.227 . S
C7 O17 1.265 . S
O8 C7 1.227 . S
N9 Co6 2.121 . S
N9 C11 1.375 . S
N9 C12 1.313 . S
C10 C11 1.338 . S
C10 N13 1.377 . S
C10 H30 0.930 . S
C11 N9 1.375 . S
C11 C10 1.338 . S
C11 H15 0.931 . S
C12 N9 1.313 . S
C12 N13 1.344 . S
C12 H16 0.930 . S
N13 C10 1.377 . S
N13 C12 1.344 . S
O14 Co6 2.055 . S
O14 C18 1.253 . S
H15 C11 0.931 . S
H16 C12 0.930 . S
O17 Co6 2.039 . S
O17 C7 1.265 . S
C18 O14 1.253 . S
C18 O19 1.227 . S
O19 C18 1.227 . S
N20 Co6 2.140 . S
N20 C23 1.346 . S
N20 C24 1.345 . S
C21 C22 1.387 . S
C21 C25 1.391 . S
C22 C21 1.387 . S
C22 C23 1.369 . S
C22 H31 0.929 . S
C23 N20 1.346 . S
C23 C22 1.369 . S
C23 H26 0.928 . S
C24 N20 1.345 . S
C24 C25 1.371 . S
C24 H27 0.931 . S
C25 C21 1.391 . S
C25 C24 1.371 . S
C25 H32 0.930 . S
H26 C23 0.928 . S
H27 C24 0.931 . S
H28 C4 0.930 . S
H29 C1 0.930 . S
H30 C10 0.930 . S
H31 C22 0.929 . S
H32 C25 0.930 . S
C33 C34 1.351 . S
C33 N36 1.368 . S
C33 H38 0.931 . S
C34 C33 1.351 . S
C34 N35 1.373 . S
C34 H62 0.930 . S
N35 C34 1.373 . S
N35 C37 1.340 . S
N36 C33 1.368 . S
N36 C37 1.321 . S
N36 Co39 2.135 . S
C37 N35 1.340 . S
C37 N36 1.321 . S
C37 H61 0.930 . S
H38 C33 0.931 . S
Co39 N36 2.135 . S
Co39 N42 2.121 . S
Co39 O47 2.055 . S
Co39 O50 2.039 . S
Co39 N53 2.140 . S
C40 O41 1.227 . S
C40 O50 1.265 . S
O41 C40 1.227 . S
N42 Co39 2.121 . S
N42 C44 1.375 . S
N42 C45 1.313 . S
C43 C44 1.338 . S
C43 N46 1.377 . S
C43 H63 0.930 . S
C44 N42 1.375 . S
C44 C43 1.338 . S
C44 H48 0.931 . S
C45 N42 1.313 . S
C45 N46 1.344 . S
C45 H49 0.930 . S
N46 C43 1.377 . S
N46 C45 1.344 . S
O47 Co39 2.055 . S
O47 C51 1.253 . S
H48 C44 0.931 . S
H49 C45 0.930 . S
O50 Co39 2.039 . S
O50 C40 1.265 . S
C51 O47 1.253 . S
C51 O52 1.227 . S
O52 C51 1.227 . S
N53 Co39 2.140 . S
N53 C56 1.346 . S
N53 C57 1.345 . S
C54 C55 1.387 . S
C54 C58 1.391 . S
C55 C54 1.387 . S
C55 C56 1.369 . S
C55 H64 0.929 . S
C56 N53 1.346 . S
C56 C55 1.369 . S
C56 H59 0.928 . S
C57 N53 1.345 . S
C57 C58 1.371 . S
C57 H60 0.931 . S
C58 C54 1.391 . S
C58 C57 1.371 . S
C58 H65 0.930 . S
H59 C56 0.928 . S
H60 C57 0.931 . S
H61 C37 0.930 . S
H62 C34 0.930 . S
H63 C43 0.930 . S
H64 C55 0.929 . S
H65 C58 0.930 . S
C66 C67 1.351 . S
C66 N69 1.368 . S
C66 H71 0.931 . S
C67 C66 1.351 . S
C67 N68 1.373 . S
C67 H95 0.930 . S
N68 C67 1.373 . S
N68 C70 1.340 . S
N69 C66 1.368 . S
N69 C70 1.321 . S
N69 Co72 2.135 . S
C70 N68 1.340 . S
C70 N69 1.321 . S
C70 H94 0.930 . S
H71 C66 0.931 . S
Co72 N69 2.135 . S
Co72 N75 2.121 . S
Co72 O80 2.055 . S
Co72 O83 2.039 . S
Co72 N86 2.140 . S
C73 O74 1.227 . S
C73 O83 1.265 . S
O74 C73 1.227 . S
N75 Co72 2.121 . S
N75 C77 1.375 . S
N75 C78 1.313 . S
C76 C77 1.338 . S
C76 N79 1.377 . S
C76 H96 0.930 . S
C77 N75 1.375 . S
C77 C76 1.338 . S
C77 H81 0.931 . S
C78 N75 1.313 . S
C78 N79 1.344 . S
C78 H82 0.930 . S
N79 C76 1.377 . S
N79 C78 1.344 . S
O80 Co72 2.055 . S
O80 C84 1.253 . S
H81 C77 0.931 . S
H82 C78 0.930 . S
O83 Co72 2.039 . S
O83 C73 1.265 . S
C84 O80 1.253 . S
C84 O85 1.227 . S
O85 C84 1.227 . S
N86 Co72 2.140 . S
N86 C89 1.346 . S
N86 C90 1.345 . S
C87 C88 1.387 . S
C87 C91 1.391 . S
C88 C87 1.387 . S
C88 C89 1.369 . S
C88 H97 0.929 . S
C89 N86 1.346 . S
C89 C88 1.369 . S
C89 H92 0.928 . S
C90 N86 1.345 . S
C90 C91 1.371 . S
C90 H93 0.931 . S
C91 C87 1.391 . S
C91 C90 1.371 . S
C91 H98 0.930 . S
H92 C89 0.928 . S
H93 C90 0.931 . S
H94 C70 0.930 . S
H95 C67 0.930 . S
H96 C76 0.930 . S
H97 C88 0.929 . S
H98 C91 0.930 . S
C99 C100 1.351 . S
C99 N102 1.368 . S
C99 H104 0.931 . S
C100 C99 1.351 . S
C100 N101 1.373 . S
C100 H128 0.930 . S
N101 C100 1.373 . S
N101 C103 1.340 . S
N102 C99 1.368 . S
N102 C103 1.321 . S
N102 Co105 2.135 . S
C103 N101 1.340 . S
C103 N102 1.321 . S
C103 H127 0.930 . S
H104 C99 0.931 . S
Co105 N102 2.135 . S
Co105 N108 2.121 1_554 S
Co105 O113 2.055 . S
Co105 O116 2.039 . S
Co105 N119 2.140 . S
C106 O107 1.227 . S
C106 O116 1.265 . S
O107 C106 1.227 . S
N108 Co105 2.121 1_556 S
N108 C110 1.375 . S
N108 C111 1.313 . S
C109 C110 1.338 . S
C109 N112 1.377 . S
C109 H129 0.930 . S
C110 N108 1.375 . S
C110 C109 1.338 . S
C110 H114 0.931 . S
C111 N108 1.313 . S
C111 N112 1.344 . S
C111 H115 0.930 . S
N112 C109 1.377 . S
N112 C111 1.344 . S
O113 Co105 2.055 . S
O113 C117 1.253 . S
H114 C110 0.931 . S
H115 C111 0.930 . S
O116 Co105 2.039 . S
O116 C106 1.265 . S
C117 O113 1.253 . S
C117 O118 1.227 . S
O118 C117 1.227 . S
N119 Co105 2.140 . S
N119 C122 1.346 . S
N119 C123 1.345 . S
C120 C121 1.387 . S
C120 C124 1.391 . S
C121 C120 1.387 . S
C121 C122 1.369 . S
C121 H130 0.929 . S
C122 N119 1.346 . S
C122 C121 1.369 . S
C122 H125 0.928 . S
C123 N119 1.345 . S
C123 C124 1.371 . S
C123 H126 0.931 . S
C124 C120 1.391 . S
C124 C123 1.371 . S
C124 H131 0.930 . S
H125 C122 0.928 . S
H126 C123 0.931 . S
H127 C103 0.930 . S
H128 C100 0.930 . S
H129 C109 0.930 . S
H130 C121 0.929 . S
H131 C124 0.930 . S
C132 C133 1.351 . S
C132 N135 1.368 . S
C132 H137 0.931 . S
C133 C132 1.351 . S
C133 N134 1.373 . S
C133 H161 0.930 . S
N134 C133 1.373 . S
N134 C136 1.340 . S
N135 C132 1.368 . S
N135 C136 1.321 . S
N135 Co138 2.135 . S
C136 N134 1.340 . S
C136 N135 1.321 . S
C136 H160 0.930 . S
H137 C132 0.931 . S
Co138 N135 2.135 . S
Co138 N141 2.121 . S
Co138 O146 2.055 . S
Co138 O149 2.039 . S
Co138 N152 2.140 . S
C139 O140 1.227 . S
C139 O149 1.265 . S
O140 C139 1.227 . S
N141 Co138 2.121 . S
N141 C143 1.375 . S
N141 C144 1.313 . S
C142 C143 1.338 . S
C142 N145 1.377 . S
C142 H162 0.930 . S
C143 N141 1.375 . S
C143 C142 1.338 . S
C143 H147 0.931 . S
C144 N141 1.313 . S
C144 N145 1.344 . S
C144 H148 0.930 . S
N145 C142 1.377 . S
N145 C144 1.344 . S
O146 Co138 2.055 . S
O146 C150 1.253 . S
H147 C143 0.931 . S
H148 C144 0.930 . S
O149 Co138 2.039 . S
O149 C139 1.265 . S
C150 O146 1.253 . S
C150 O151 1.227 . S
O151 C150 1.227 . S
N152 Co138 2.140 . S
N152 C155 1.346 . S
N152 C156 1.345 . S
C153 C154 1.387 . S
C153 C157 1.391 . S
C154 C153 1.387 . S
C154 C155 1.369 . S
C154 H163 0.929 . S
C155 N152 1.346 . S
C155 C154 1.369 . S
C155 H158 0.928 . S
C156 N152 1.345 . S
C156 C157 1.371 . S
C156 H159 0.931 . S
C157 C153 1.391 . S
C157 C156 1.371 . S
C157 H164 0.930 . S
H158 C155 0.928 . S
H159 C156 0.931 . S
H160 C136 0.930 . S
H161 C133 0.930 . S
H162 C142 0.930 . S
H163 C154 0.929 . S
H164 C157 0.930 . S
C165 C166 1.351 . S
C165 N168 1.368 . S
C165 H170 0.931 . S
C166 C165 1.351 . S
C166 N167 1.373 . S
C166 H194 0.930 . S
N167 C166 1.373 . S
N167 C169 1.340 . S
N168 C165 1.368 . S
N168 C169 1.321 . S
N168 Co171 2.135 . S
C169 N167 1.340 . S
C169 N168 1.321 . S
C169 H193 0.930 . S
H170 C165 0.931 . S
Co171 N168 2.135 . S
Co171 N174 2.121 . S
Co171 O179 2.055 . S
Co171 O182 2.039 . S
Co171 N185 2.140 . S
C172 O173 1.227 . S
C172 O182 1.265 . S
O173 C172 1.227 . S
N174 Co171 2.121 . S
N174 C176 1.375 . S
N174 C177 1.313 . S
C175 C176 1.338 . S
C175 N178 1.377 . S
C175 H195 0.930 . S
C176 N174 1.375 . S
C176 C175 1.338 . S
C176 H180 0.931 . S
C177 N174 1.313 . S
C177 N178 1.344 . S
C177 H181 0.930 . S
N178 C175 1.377 . S
N178 C177 1.344 . S
O179 Co171 2.055 . S
O179 C183 1.253 . S
H180 C176 0.931 . S
H181 C177 0.930 . S
O182 Co171 2.039 . S
O182 C172 1.265 . S
C183 O179 1.253 . S
C183 O184 1.227 . S
O184 C183 1.227 . S
N185 Co171 2.140 . S
N185 C188 1.346 . S
N185 C189 1.345 . S
C186 C187 1.387 . S
C186 C190 1.391 . S
C187 C186 1.387 . S
C187 C188 1.369 . S
C187 H196 0.929 . S
C188 N185 1.346 . S
C188 C187 1.369 . S
C188 H191 0.928 . S
C189 N185 1.345 . S
C189 C190 1.371 . S
C189 H192 0.931 . S
C190 C186 1.391 . S
C190 C189 1.371 . S
C190 H197 0.930 . S
H191 C188 0.928 . S
H192 C189 0.931 . S
H193 C169 0.930 . S
H194 C166 0.930 . S
H195 C175 0.930 . S
H196 C187 0.929 . S
H197 C190 0.930 . S
C198 C199 1.351 . S
C198 N201 1.368 . S
C198 H203 0.931 . S
C199 C198 1.351 . S
C199 N200 1.373 . S
C199 H227 0.930 . S
N200 C199 1.373 . S
N200 C202 1.340 . S
N201 C198 1.368 . S
N201 C202 1.321 . S
N201 Co204 2.135 . S
C202 N200 1.340 . S
C202 N201 1.321 . S
C202 H226 0.930 . S
H203 C198 0.931 . S
Co204 N201 2.135 . S
Co204 N207 2.121 . S
Co204 O212 2.055 . S
Co204 O215 2.039 . S
Co204 N218 2.140 . S
C205 O206 1.227 . S
C205 O215 1.265 . S
O206 C205 1.227 . S
N207 Co204 2.121 . S
N207 C209 1.375 . S
N207 C210 1.313 . S
C208 C209 1.338 . S
C208 N211 1.377 . S
C208 H228 0.930 . S
C209 N207 1.375 . S
C209 C208 1.338 . S
C209 H213 0.931 . S
C210 N207 1.313 . S
C210 N211 1.344 . S
C210 H214 0.930 . S
N211 C208 1.377 . S
N211 C210 1.344 . S
O212 Co204 2.055 . S
O212 C216 1.253 . S
H213 C209 0.931 . S
H214 C210 0.930 . S
O215 Co204 2.039 . S
O215 C205 1.265 . S
C216 O212 1.253 . S
C216 O217 1.227 . S
O217 C216 1.227 . S
N218 Co204 2.140 . S
N218 C221 1.346 . S
N218 C222 1.345 . S
C219 C220 1.387 . S
C219 C223 1.391 . S
C220 C219 1.387 . S
C220 C221 1.369 . S
C220 H229 0.929 . S
C221 N218 1.346 . S
C221 C220 1.369 . S
C221 H224 0.928 . S
C222 N218 1.345 . S
C222 C223 1.371 . S
C222 H225 0.931 . S
C223 C219 1.391 . S
C223 C222 1.371 . S
C223 H230 0.930 . S
H224 C221 0.928 . S
H225 C222 0.931 . S
H226 C202 0.930 . S
H227 C199 0.930 . S
H228 C208 0.930 . S
H229 C220 0.929 . S
H230 C223 0.930 . S
C231 C232 1.351 . S
C231 N234 1.368 . S
C231 H236 0.931 . S
C232 C231 1.351 . S
C232 N233 1.373 . S
C232 H260 0.930 . S
N233 C232 1.373 . S
N233 C235 1.340 . S
N234 C231 1.368 . S
N234 C235 1.321 . S
N234 Co237 2.135 . S
C235 N233 1.340 . S
C235 N234 1.321 . S
C235 H259 0.930 . S
H236 C231 0.931 . S
Co237 N234 2.135 . S
Co237 N240 2.121 1_556 S
Co237 O245 2.055 . S
Co237 O248 2.039 . S
Co237 N251 2.140 . S
C238 O239 1.227 . S
C238 O248 1.265 . S
O239 C238 1.227 . S
N240 Co237 2.121 1_554 S
N240 C242 1.375 . S
N240 C243 1.313 . S
C241 C242 1.338 . S
C241 N244 1.377 . S
C241 H261 0.930 . S
C242 N240 1.375 . S
C242 C241 1.338 . S
C242 H246 0.931 . S
C243 N240 1.313 . S
C243 N244 1.344 . S
C243 H247 0.930 . S
N244 C241 1.377 . S
N244 C243 1.344 . S
O245 Co237 2.055 . S
O245 C249 1.253 . S
H246 C242 0.931 . S
H247 C243 0.930 . S
O248 Co237 2.039 . S
O248 C238 1.265 . S
C249 O245 1.253 . S
C249 O250 1.227 . S
O250 C249 1.227 . S
N251 Co237 2.140 . S
N251 C254 1.346 . S
N251 C255 1.345 . S
C252 C253 1.387 . S
C252 C256 1.391 . S
C253 C252 1.387 . S
C253 C254 1.369 . S
C253 H262 0.929 . S
C254 N251 1.346 . S
C254 C253 1.369 . S
C254 H257 0.928 . S
C255 N251 1.345 . S
C255 C256 1.371 . S
C255 H258 0.931 . S
C256 C252 1.391 . S
C256 C255 1.371 . S
C256 H263 0.930 . S
H257 C254 0.928 . S
H258 C255 0.931 . S
H259 C235 0.930 . S
H260 C232 0.930 . S
H261 C241 0.930 . S
H262 C253 0.929 . S
H263 C256 0.930 . S
C264 C265 1.351 . S
C264 N267 1.368 . S
C264 H269 0.931 . S
C265 C264 1.351 . S
C265 N266 1.373 . S
C265 H293 0.930 . S
N266 C265 1.373 . S
N266 C268 1.340 . S
N267 C264 1.368 . S
N267 C268 1.321 . S
N267 Co270 2.135 . S
C268 N266 1.340 . S
C268 N267 1.321 . S
C268 H292 0.930 . S
H269 C264 0.931 . S
Co270 N267 2.135 . S
Co270 N273 2.121 . S
Co270 O278 2.055 . S
Co270 O281 2.039 . S
Co270 N284 2.140 . S
C271 O272 1.227 . S
C271 O281 1.265 . S
O272 C271 1.227 . S
N273 Co270 2.121 . S
N273 C275 1.375 . S
N273 C276 1.313 . S
C274 C275 1.338 . S
C274 N277 1.377 . S
C274 H294 0.930 . S
C275 N273 1.375 . S
C275 C274 1.338 . S
C275 H279 0.931 . S
C276 N273 1.313 . S
C276 N277 1.344 . S
C276 H280 0.930 . S
N277 C274 1.377 . S
N277 C276 1.344 . S
O278 Co270 2.055 . S
O278 C282 1.253 . S
H279 C275 0.931 . S
H280 C276 0.930 . S
O281 Co270 2.039 . S
O281 C271 1.265 . S
C282 O278 1.253 . S
C282 O283 1.227 . S
O283 C282 1.227 . S
N284 Co270 2.140 . S
N284 C287 1.346 . S
N284 C288 1.345 . S
C285 C286 1.387 . S
C285 C289 1.391 . S
C286 C285 1.387 . S
C286 C287 1.369 . S
C286 H295 0.929 . S
C287 N284 1.346 . S
C287 C286 1.369 . S
C287 H290 0.928 . S
C288 N284 1.345 . S
C288 C289 1.371 . S
C288 H291 0.931 . S
C289 C285 1.391 . S
C289 C288 1.371 . S
C289 H296 0.930 . S
H290 C287 0.928 . S
H291 C288 0.931 . S
H292 C268 0.930 . S
H293 C265 0.930 . S
H294 C274 0.930 . S
H295 C286 0.929 . S
H296 C289 0.930 . S
C297 C298 1.351 . S
C297 N300 1.368 . S
C297 H302 0.931 . S
C298 C297 1.351 . S
C298 N299 1.373 . S
C298 H326 0.930 . S
N299 C298 1.373 . S
N299 C301 1.340 . S
N300 C297 1.368 . S
N300 C301 1.321 . S
N300 Co303 2.135 . S
C301 N299 1.340 . S
C301 N300 1.321 . S
C301 H325 0.930 . S
H302 C297 0.931 . S
Co303 N300 2.135 . S
Co303 N306 2.121 . S
Co303 O311 2.055 . S
Co303 O314 2.039 . S
Co303 N317 2.140 . S
C304 O305 1.227 . S
C304 O314 1.265 . S
O305 C304 1.227 . S
N306 Co303 2.121 . S
N306 C308 1.375 . S
N306 C309 1.313 . S
C307 C308 1.338 . S
C307 N310 1.377 . S
C307 H327 0.930 . S
C308 N306 1.375 . S
C308 C307 1.338 . S
C308 H312 0.931 . S
C309 N306 1.313 . S
C309 N310 1.344 . S
C309 H313 0.930 . S
N310 C307 1.377 . S
N310 C309 1.344 . S
O311 Co303 2.055 . S
O311 C315 1.253 . S
H312 C308 0.931 . S
H313 C309 0.930 . S
O314 Co303 2.039 . S
O314 C304 1.265 . S
C315 O311 1.253 . S
C315 O316 1.227 . S
O316 C315 1.227 . S
N317 Co303 2.140 . S
N317 C320 1.346 . S
N317 C321 1.345 . S
C318 C319 1.387 . S
C318 C322 1.391 . S
C319 C318 1.387 . S
C319 C320 1.369 . S
C319 H328 0.929 . S
C320 N317 1.346 . S
C320 C319 1.369 . S
C320 H323 0.928 . S
C321 N317 1.345 . S
C321 C322 1.371 . S
C321 H324 0.931 . S
C322 C318 1.391 . S
C322 C321 1.371 . S
C322 H329 0.930 . S
H323 C320 0.928 . S
H324 C321 0.931 . S
H325 C301 0.930 . S
H326 C298 0.930 . S
H327 C307 0.930 . S
H328 C319 0.929 . S
H329 C322 0.930 . S
C330 C331 1.351 . S
C330 N333 1.368 . S
C330 H335 0.931 . S
C331 C330 1.351 . S
C331 N332 1.373 . S
C331 H359 0.930 . S
N332 C331 1.373 . S
N332 C334 1.340 . S
N333 C330 1.368 . S
N333 C334 1.321 . S
N333 Co336 2.135 . S
C334 N332 1.340 . S
C334 N333 1.321 . S
C334 H358 0.930 . S
H335 C330 0.931 . S
Co336 N333 2.135 . S
Co336 N339 2.121 . S
Co336 O344 2.055 . S
Co336 O347 2.039 . S
Co336 N350 2.140 . S
C337 O338 1.227 . S
C337 O347 1.265 . S
O338 C337 1.227 . S
N339 Co336 2.121 . S
N339 C341 1.375 . S
N339 C342 1.313 . S
C340 C341 1.338 . S
C340 N343 1.377 . S
C340 H360 0.930 . S
C341 N339 1.375 . S
C341 C340 1.338 . S
C341 H345 0.931 . S
C342 N339 1.313 . S
C342 N343 1.344 . S
C342 H346 0.930 . S
N343 C340 1.377 . S
N343 C342 1.344 . S
O344 Co336 2.055 . S
O344 C348 1.253 . S
H345 C341 0.931 . S
H346 C342 0.930 . S
O347 Co336 2.039 . S
O347 C337 1.265 . S
C348 O344 1.253 . S
C348 O349 1.227 . S
O349 C348 1.227 . S
N350 Co336 2.140 . S
N350 C353 1.346 . S
N350 C354 1.345 . S
C351 C352 1.387 . S
C351 C355 1.391 . S
C352 C351 1.387 . S
C352 C353 1.369 . S
C352 H361 0.929 . S
C353 N350 1.346 . S
C353 C352 1.369 . S
C353 H356 0.928 . S
C354 N350 1.345 . S
C354 C355 1.371 . S
C354 H357 0.931 . S
C355 C351 1.391 . S
C355 C354 1.371 . S
C355 H362 0.930 . S
H356 C353 0.928 . S
H357 C354 0.931 . S
H358 C334 0.930 . S
H359 C331 0.930 . S
H360 C340 0.930 . S
H361 C352 0.929 . S
H362 C355 0.930 . S
C363 C364 1.351 . S
C363 N366 1.368 . S
C363 H368 0.931 . S
C364 C363 1.351 . S
C364 N365 1.373 . S
C364 H392 0.930 . S
N365 C364 1.373 . S
N365 C367 1.340 . S
N366 C363 1.368 . S
N366 C367 1.321 . S
N366 Co369 2.135 . S
C367 N365 1.340 . S
C367 N366 1.321 . S
C367 H391 0.930 . S
H368 C363 0.931 . S
Co369 N366 2.135 . S
Co369 N372 2.121 1_556 S
Co369 O377 2.055 . S
Co369 O380 2.039 . S
Co369 N383 2.140 . S
C370 O371 1.227 . S
C370 O380 1.265 . S
O371 C370 1.227 . S
N372 Co369 2.121 1_554 S
N372 C374 1.375 . S
N372 C375 1.313 . S
C373 C374 1.338 . S
C373 N376 1.377 . S
C373 H393 0.930 . S
C374 N372 1.375 . S
C374 C373 1.338 . S
C374 H378 0.931 . S
C375 N372 1.313 . S
C375 N376 1.344 . S
C375 H379 0.930 . S
N376 C373 1.377 . S
N376 C375 1.344 . S
O377 Co369 2.055 . S
O377 C381 1.253 . S
H378 C374 0.931 . S
H379 C375 0.930 . S
O380 Co369 2.039 . S
O380 C370 1.265 . S
C381 O377 1.253 . S
C381 O382 1.227 . S
O382 C381 1.227 . S
N383 Co369 2.140 . S
N383 C386 1.346 . S
N383 C387 1.345 . S
C384 C385 1.387 . S
C384 C388 1.391 . S
C385 C384 1.387 . S
C385 C386 1.369 . S
C385 H394 0.929 . S
C386 N383 1.346 . S
C386 C385 1.369 . S
C386 H389 0.928 . S
C387 N383 1.345 . S
C387 C388 1.371 . S
C387 H390 0.931 . S
C388 C384 1.391 . S
C388 C387 1.371 . S
C388 H395 0.930 . S
H389 C386 0.928 . S
H390 C387 0.931 . S
H391 C367 0.930 . S
H392 C364 0.930 . S
H393 C373 0.930 . S
H394 C385 0.929 . S
H395 C388 0.930 . S
C396 C397 1.351 . S
C396 N399 1.368 . S
C396 H401 0.931 . S
C397 C396 1.351 . S
C397 N398 1.373 . S
C397 H425 0.930 . S
N398 C397 1.373 . S
N398 C400 1.340 . S
N399 C396 1.368 . S
N399 C400 1.321 . S
N399 Co402 2.135 . S
C400 N398 1.340 . S
C400 N399 1.321 . S
C400 H424 0.930 . S
H401 C396 0.931 . S
Co402 N399 2.135 . S
Co402 N405 2.121 . S
Co402 O410 2.055 . S
Co402 O413 2.039 . S
Co402 N416 2.140 . S
C403 O404 1.227 . S
C403 O413 1.265 . S
O404 C403 1.227 . S
N405 Co402 2.121 . S
N405 C407 1.375 . S
N405 C408 1.313 . S
C406 C407 1.338 . S
C406 N409 1.377 . S
C406 H426 0.930 . S
C407 N405 1.375 . S
C407 C406 1.338 . S
C407 H411 0.931 . S
C408 N405 1.313 . S
C408 N409 1.344 . S
C408 H412 0.930 . S
N409 C406 1.377 . S
N409 C408 1.344 . S
O410 Co402 2.055 . S
O410 C414 1.253 . S
H411 C407 0.931 . S
H412 C408 0.930 . S
O413 Co402 2.039 . S
O413 C403 1.265 . S
C414 O410 1.253 . S
C414 O415 1.227 . S
O415 C414 1.227 . S
N416 Co402 2.140 . S
N416 C419 1.346 . S
N416 C420 1.345 . S
C417 C418 1.387 . S
C417 C421 1.391 . S
C418 C417 1.387 . S
C418 C419 1.369 . S
C418 H427 0.929 . S
C419 N416 1.346 . S
C419 C418 1.369 . S
C419 H422 0.928 . S
C420 N416 1.345 . S
C420 C421 1.371 . S
C420 H423 0.931 . S
C421 C417 1.391 . S
C421 C420 1.371 . S
C421 H428 0.930 . S
H422 C419 0.928 . S
H423 C420 0.931 . S
H424 C400 0.930 . S
H425 C397 0.930 . S
H426 C406 0.930 . S
H427 C418 0.929 . S
H428 C421 0.930 . S
C429 C430 1.351 . S
C429 N432 1.368 . S
C429 H434 0.931 . S
C430 C429 1.351 . S
C430 N431 1.373 . S
C430 H458 0.930 . S
N431 C430 1.373 . S
N431 C433 1.340 . S
N432 C429 1.368 . S
N432 C433 1.321 . S
N432 Co435 2.135 . S
C433 N431 1.340 . S
C433 N432 1.321 . S
C433 H457 0.930 . S
H434 C429 0.931 . S
Co435 N432 2.135 . S
Co435 N438 2.121 . S
Co435 O443 2.055 . S
Co435 O446 2.039 . S
Co435 N449 2.140 . S
C436 O437 1.227 . S
C436 O446 1.265 . S
O437 C436 1.227 . S
N438 Co435 2.121 . S
N438 C440 1.375 . S
N438 C441 1.313 . S
C439 C440 1.338 . S
C439 N442 1.377 . S
C439 H459 0.930 . S
C440 N438 1.375 . S
C440 C439 1.338 . S
C440 H444 0.931 . S
C441 N438 1.313 . S
C441 N442 1.344 . S
C441 H445 0.930 . S
N442 C439 1.377 . S
N442 C441 1.344 . S
O443 Co435 2.055 . S
O443 C447 1.253 . S
H444 C440 0.931 . S
H445 C441 0.930 . S
O446 Co435 2.039 . S
O446 C436 1.265 . S
C447 O443 1.253 . S
C447 O448 1.227 . S
O448 C447 1.227 . S
N449 Co435 2.140 . S
N449 C452 1.346 . S
N449 C453 1.345 . S
C450 C451 1.387 . S
C450 C454 1.391 . S
C451 C450 1.387 . S
C451 C452 1.369 . S
C451 H460 0.929 . S
C452 N449 1.346 . S
C452 C451 1.369 . S
C452 H455 0.928 . S
C453 N449 1.345 . S
C453 C454 1.371 . S
C453 H456 0.931 . S
C454 C450 1.391 . S
C454 C453 1.371 . S
C454 H461 0.930 . S
H455 C452 0.928 . S
H456 C453 0.931 . S
H457 C433 0.930 . S
H458 C430 0.930 . S
H459 C439 0.930 . S
H460 C451 0.929 . S
H461 C454 0.930 . S
C462 C463 1.351 . S
C462 N465 1.368 . S
C462 H467 0.931 . S
C463 C462 1.351 . S
C463 N464 1.373 . S
C463 H491 0.930 . S
N464 C463 1.373 . S
N464 C466 1.340 . S
N465 C462 1.368 . S
N465 C466 1.321 . S
N465 Co468 2.135 . S
C466 N464 1.340 . S
C466 N465 1.321 . S
C466 H490 0.930 . S
H467 C462 0.931 . S
Co468 N465 2.135 . S
Co468 N471 2.121 . S
Co468 O476 2.055 . S
Co468 O479 2.039 . S
Co468 N482 2.140 . S
C469 O470 1.227 . S
C469 O479 1.265 . S
O470 C469 1.227 . S
N471 Co468 2.121 . S
N471 C473 1.375 . S
N471 C474 1.313 . S
C472 C473 1.338 . S
C472 N475 1.377 . S
C472 H492 0.930 . S
C473 N471 1.375 . S
C473 C472 1.338 . S
C473 H477 0.931 . S
C474 N471 1.313 . S
C474 N475 1.344 . S
C474 H478 0.930 . S
N475 C472 1.377 . S
N475 C474 1.344 . S
O476 Co468 2.055 . S
O476 C480 1.253 . S
H477 C473 0.931 . S
H478 C474 0.930 . S
O479 Co468 2.039 . S
O479 C469 1.265 . S
C480 O476 1.253 . S
C480 O481 1.227 . S
O481 C480 1.227 . S
N482 Co468 2.140 . S
N482 C485 1.346 . S
N482 C486 1.345 . S
C483 C484 1.387 . S
C483 C487 1.391 . S
C484 C483 1.387 . S
C484 C485 1.369 . S
C484 H493 0.929 . S
C485 N482 1.346 . S
C485 C484 1.369 . S
C485 H488 0.928 . S
C486 N482 1.345 . S
C486 C487 1.371 . S
C486 H489 0.931 . S
C487 C483 1.391 . S
C487 C486 1.371 . S
C487 H494 0.930 . S
H488 C485 0.928 . S
H489 C486 0.931 . S
H490 C466 0.930 . S
H491 C463 0.930 . S
H492 C472 0.930 . S
H493 C484 0.929 . S
H494 C487 0.930 . S
C495 C496 1.351 . S
C495 N498 1.368 . S
C495 H500 0.931 . S
C496 C495 1.351 . S
C496 N497 1.373 . S
C496 H524 0.930 . S
N497 C496 1.373 . S
N497 C499 1.340 . S
N498 C495 1.368 . S
N498 C499 1.321 . S
N498 Co501 2.135 . S
C499 N497 1.340 . S
C499 N498 1.321 . S
C499 H523 0.930 . S
H500 C495 0.931 . S
Co501 N498 2.135 . S
Co501 N504 2.121 1_554 S
Co501 O509 2.055 . S
Co501 O512 2.039 . S
Co501 N515 2.140 . S
C502 O503 1.227 . S
C502 O512 1.265 . S
O503 C502 1.227 . S
N504 Co501 2.121 1_556 S
N504 C506 1.375 . S
N504 C507 1.313 . S
C505 C506 1.338 . S
C505 N508 1.377 . S
C505 H525 0.930 . S
C506 N504 1.375 . S
C506 C505 1.338 . S
C506 H510 0.931 . S
C507 N504 1.313 . S
C507 N508 1.344 . S
C507 H511 0.930 . S
N508 C505 1.377 . S
N508 C507 1.344 . S
O509 Co501 2.055 . S
O509 C513 1.253 . S
H510 C506 0.931 . S
H511 C507 0.930 . S
O512 Co501 2.039 . S
O512 C502 1.265 . S
C513 O509 1.253 . S
C513 O514 1.227 . S
O514 C513 1.227 . S
N515 Co501 2.140 . S
N515 C518 1.346 . S
N515 C519 1.345 . S
C516 C517 1.387 . S
C516 C520 1.391 . S
C517 C516 1.387 . S
C517 C518 1.369 . S
C517 H526 0.929 . S
C518 N515 1.346 . S
C518 C517 1.369 . S
C518 H521 0.928 . S
C519 N515 1.345 . S
C519 C520 1.371 . S
C519 H522 0.931 . S
C520 C516 1.391 . S
C520 C519 1.371 . S
C520 H527 0.930 . S
H521 C518 0.928 . S
H522 C519 0.931 . S
H523 C499 0.930 . S
H524 C496 0.930 . S
H525 C505 0.930 . S
H526 C517 0.929 . S
H527 C520 0.930 . S
C528 C529 1.351 . S
C528 N531 1.368 . S
C528 H533 0.931 . S
C529 C528 1.351 . S
C529 N530 1.373 . S
C529 H557 0.930 . S
N530 C529 1.373 . S
N530 C532 1.340 . S
N531 C528 1.368 . S
N531 C532 1.321 . S
N531 Co534 2.135 . S
C532 N530 1.340 . S
C532 N531 1.321 . S
C532 H556 0.930 . S
H533 C528 0.931 . S
Co534 N531 2.135 . S
Co534 N537 2.121 . S
Co534 O542 2.055 . S
Co534 O545 2.039 . S
Co534 N548 2.140 . S
C535 O536 1.227 . S
C535 O545 1.265 . S
O536 C535 1.227 . S
N537 Co534 2.121 . S
N537 C539 1.375 . S
N537 C540 1.313 . S
C538 C539 1.338 . S
C538 N541 1.377 . S
C538 H558 0.930 . S
C539 N537 1.375 . S
C539 C538 1.338 . S
C539 H543 0.931 . S
C540 N537 1.313 . S
C540 N541 1.344 . S
C540 H544 0.930 . S
N541 C538 1.377 . S
N541 C540 1.344 . S
O542 Co534 2.055 . S
O542 C546 1.253 . S
H543 C539 0.931 . S
H544 C540 0.930 . S
O545 Co534 2.039 . S
O545 C535 1.265 . S
C546 O542 1.253 . S
C546 O547 1.227 . S
O547 C546 1.227 . S
N548 Co534 2.140 . S
N548 C551 1.346 . S
N548 C552 1.345 . S
C549 C550 1.387 . S
C549 C553 1.391 . S
C550 C549 1.387 . S
C550 C551 1.369 . S
C550 H559 0.929 . S
C551 N548 1.346 . S
C551 C550 1.369 . S
C551 H554 0.928 . S
C552 N548 1.345 . S
C552 C553 1.371 . S
C552 H555 0.931 . S
C553 C549 1.391 . S
C553 C552 1.371 . S
C553 H560 0.930 . S
H554 C551 0.928 . S
H555 C552 0.931 . S
H556 C532 0.930 . S
H557 C529 0.930 . S
H558 C538 0.930 . S
H559 C550 0.929 . S
H560 C553 0.930 . S
C561 C562 1.351 . S
C561 N564 1.368 . S
C561 H566 0.931 . S
C562 C561 1.351 . S
C562 N563 1.373 . S
C562 H590 0.930 . S
N563 C562 1.373 . S
N563 C565 1.340 . S
N564 C561 1.368 . S
N564 C565 1.321 . S
N564 Co567 2.135 . S
C565 N563 1.340 . S
C565 N564 1.321 . S
C565 H589 0.930 . S
H566 C561 0.931 . S
Co567 N564 2.135 . S
Co567 N570 2.121 1_554 S
Co567 O575 2.055 . S
Co567 O578 2.039 . S
Co567 N581 2.140 . S
C568 O569 1.227 . S
C568 O578 1.265 . S
O569 C568 1.227 . S
N570 Co567 2.121 1_556 S
N570 C572 1.375 . S
N570 C573 1.313 . S
C571 C572 1.338 . S
C571 N574 1.377 . S
C571 H591 0.930 . S
C572 N570 1.375 . S
C572 C571 1.338 . S
C572 H576 0.931 . S
C573 N570 1.313 . S
C573 N574 1.344 . S
C573 H577 0.930 . S
N574 C571 1.377 . S
N574 C573 1.344 . S
O575 Co567 2.055 . S
O575 C579 1.253 . S
H576 C572 0.931 . S
H577 C573 0.930 . S
O578 Co567 2.039 . S
O578 C568 1.265 . S
C579 O575 1.253 . S
C579 O580 1.227 . S
O580 C579 1.227 . S
N581 Co567 2.140 . S
N581 C584 1.346 . S
N581 C585 1.345 . S
C582 C583 1.387 . S
C582 C586 1.391 . S
C583 C582 1.387 . S
C583 C584 1.369 . S
C583 H592 0.929 . S
C584 N581 1.346 . S
C584 C583 1.369 . S
C584 H587 0.928 . S
C585 N581 1.345 . S
C585 C586 1.371 . S
C585 H588 0.931 . S
C586 C582 1.391 . S
C586 C585 1.371 . S
C586 H593 0.930 . S
H587 C584 0.928 . S
H588 C585 0.931 . S
H589 C565 0.930 . S
H590 C562 0.930 . S
H591 C571 0.930 . S
H592 C583 0.929 . S
H593 C586 0.930 . S
C594 C595 1.351 . S
C594 N597 1.368 . S
C594 H599 0.931 . S
C595 C594 1.351 . S
C595 N596 1.373 . S
C595 H623 0.930 . S
N596 C595 1.373 . S
N596 C598 1.340 . S
N597 C594 1.368 . S
N597 C598 1.321 . S
N597 Co600 2.135 . S
C598 N596 1.340 . S
C598 N597 1.321 . S
C598 H622 0.930 . S
H599 C594 0.931 . S
Co600 N597 2.135 . S
Co600 N603 2.121 . S
Co600 O608 2.055 . S
Co600 O611 2.039 . S
Co600 N614 2.140 . S
C601 O602 1.227 . S
C601 O611 1.265 . S
O602 C601 1.227 . S
N603 Co600 2.121 . S
N603 C605 1.375 . S
N603 C606 1.313 . S
C604 C605 1.338 . S
C604 N607 1.377 . S
C604 H624 0.930 . S
C605 N603 1.375 . S
C605 C604 1.338 . S
C605 H609 0.931 . S
C606 N603 1.313 . S
C606 N607 1.344 . S
C606 H610 0.930 . S
N607 C604 1.377 . S
N607 C606 1.344 . S
O608 Co600 2.055 . S
O608 C612 1.253 . S
H609 C605 0.931 . S
H610 C606 0.930 . S
O611 Co600 2.039 . S
O611 C601 1.265 . S
C612 O608 1.253 . S
C612 O613 1.227 . S
O613 C612 1.227 . S
N614 Co600 2.140 . S
N614 C617 1.346 . S
N614 C618 1.345 . S
C615 C616 1.387 . S
C615 C619 1.391 . S
C616 C615 1.387 . S
C616 C617 1.369 . S
C616 H625 0.929 . S
C617 N614 1.346 . S
C617 C616 1.369 . S
C617 H620 0.928 . S
C618 N614 1.345 . S
C618 C619 1.371 . S
C618 H621 0.931 . S
C619 C615 1.391 . S
C619 C618 1.371 . S
C619 H626 0.930 . S
H620 C617 0.928 . S
H621 C618 0.931 . S
H622 C598 0.930 . S
H623 C595 0.930 . S
H624 C604 0.930 . S
H625 C616 0.929 . S
H626 C619 0.930 . S
C627 C628 1.351 . S
C627 N630 1.368 . S
C627 H632 0.931 . S
C628 C627 1.351 . S
C628 N629 1.373 . S
C628 H656 0.930 . S
N629 C628 1.373 . S
N629 C631 1.340 . S
N630 C627 1.368 . S
N630 C631 1.321 . S
N630 Co633 2.135 . S
C631 N629 1.340 . S
C631 N630 1.321 . S
C631 H655 0.930 . S
H632 C627 0.931 . S
Co633 N630 2.135 . S
Co633 N636 2.121 . S
Co633 O641 2.055 . S
Co633 O644 2.039 . S
Co633 N647 2.140 . S
C634 O635 1.227 . S
C634 O644 1.265 . S
O635 C634 1.227 . S
N636 Co633 2.121 . S
N636 C638 1.375 . S
N636 C639 1.313 . S
C637 C638 1.338 . S
C637 N640 1.377 . S
C637 H657 0.930 . S
C638 N636 1.375 . S
C638 C637 1.338 . S
C638 H642 0.931 . S
C639 N636 1.313 . S
C639 N640 1.344 . S
C639 H643 0.930 . S
N640 C637 1.377 . S
N640 C639 1.344 . S
O641 Co633 2.055 . S
O641 C645 1.253 . S
H642 C638 0.931 . S
H643 C639 0.930 . S
O644 Co633 2.039 . S
O644 C634 1.265 . S
C645 O641 1.253 . S
C645 O646 1.227 . S
O646 C645 1.227 . S
N647 Co633 2.140 . S
N647 C650 1.346 . S
N647 C651 1.345 . S
C648 C649 1.387 . S
C648 C652 1.391 . S
C649 C648 1.387 . S
C649 C650 1.369 . S
C649 H658 0.929 . S
C650 N647 1.346 . S
C650 C649 1.369 . S
C650 H653 0.928 . S
C651 N647 1.345 . S
C651 C652 1.371 . S
C651 H654 0.931 . S
C652 C648 1.391 . S
C652 C651 1.371 . S
C652 H659 0.930 . S
H653 C650 0.928 . S
H654 C651 0.931 . S
H655 C631 0.930 . S
H656 C628 0.930 . S
H657 C637 0.930 . S
H658 C649 0.929 . S
H659 C652 0.930 . S
C660 C661 1.351 . S
C660 N663 1.368 . S
C660 H665 0.931 . S
C661 C660 1.351 . S
C661 N662 1.373 . S
C661 H689 0.930 . S
N662 C661 1.373 . S
N662 C664 1.340 . S
N663 C660 1.368 . S
N663 C664 1.321 . S
N663 Co666 2.135 . S
C664 N662 1.340 . S
C664 N663 1.321 . S
C664 H688 0.930 . S
H665 C660 0.931 . S
Co666 N663 2.135 . S
Co666 N669 2.121 . S
Co666 O674 2.055 . S
Co666 O677 2.039 . S
Co666 N680 2.140 . S
C667 O668 1.227 . S
C667 O677 1.265 . S
O668 C667 1.227 . S
N669 Co666 2.121 . S
N669 C671 1.375 . S
N669 C672 1.313 . S
C670 C671 1.338 . S
C670 N673 1.377 . S
C670 H690 0.930 . S
C671 N669 1.375 . S
C671 C670 1.338 . S
C671 H675 0.931 . S
C672 N669 1.313 . S
C672 N673 1.344 . S
C672 H676 0.930 . S
N673 C670 1.377 . S
N673 C672 1.344 . S
O674 Co666 2.055 . S
O674 C678 1.253 . S
H675 C671 0.931 . S
H676 C672 0.930 . S
O677 Co666 2.039 . S
O677 C667 1.265 . S
C678 O674 1.253 . S
C678 O679 1.227 . S
O679 C678 1.227 . S
N680 Co666 2.140 . S
N680 C683 1.346 . S
N680 C684 1.345 . S
C681 C682 1.387 . S
C681 C685 1.391 . S
C682 C681 1.387 . S
C682 C683 1.369 . S
C682 H691 0.929 . S
C683 N680 1.346 . S
C683 C682 1.369 . S
C683 H686 0.928 . S
C684 N680 1.345 . S
C684 C685 1.371 . S
C684 H687 0.931 . S
C685 C681 1.391 . S
C685 C684 1.371 . S
C685 H692 0.930 . S
H686 C683 0.928 . S
H687 C684 0.931 . S
H688 C664 0.930 . S
H689 C661 0.930 . S
H690 C670 0.930 . S
H691 C682 0.929 . S
H692 C685 0.930 . S
C693 C694 1.351 . S
C693 N696 1.368 . S
C693 H698 0.931 . S
C694 C693 1.351 . S
C694 N695 1.373 . S
C694 H722 0.930 . S
N695 C694 1.373 . S
N695 C697 1.340 . S
N696 C693 1.368 . S
N696 C697 1.321 . S
N696 Co699 2.135 . S
C697 N695 1.340 . S
C697 N696 1.321 . S
C697 H721 0.930 . S
H698 C693 0.931 . S
Co699 N696 2.135 . S
Co699 N702 2.121 1_556 S
Co699 O707 2.055 . S
Co699 O710 2.039 . S
Co699 N713 2.140 . S
C700 O701 1.227 . S
C700 O710 1.265 . S
O701 C700 1.227 . S
N702 Co699 2.121 1_554 S
N702 C704 1.375 . S
N702 C705 1.313 . S
C703 C704 1.338 . S
C703 N706 1.377 . S
C703 H723 0.930 . S
C704 N702 1.375 . S
C704 C703 1.338 . S
C704 H708 0.931 . S
C705 N702 1.313 . S
C705 N706 1.344 . S
C705 H709 0.930 . S
N706 C703 1.377 . S
N706 C705 1.344 . S
O707 Co699 2.055 . S
O707 C711 1.253 . S
H708 C704 0.931 . S
H709 C705 0.930 . S
O710 Co699 2.039 . S
O710 C700 1.265 . S
C711 O707 1.253 . S
C711 O712 1.227 . S
O712 C711 1.227 . S
N713 Co699 2.140 . S
N713 C716 1.346 . S
N713 C717 1.345 . S
C714 C715 1.387 . S
C714 C718 1.391 . S
C715 C714 1.387 . S
C715 C716 1.369 . S
C715 H724 0.929 . S
C716 N713 1.346 . S
C716 C715 1.369 . S
C716 H719 0.928 . S
C717 N713 1.345 . S
C717 C718 1.371 . S
C717 H720 0.931 . S
C718 C714 1.391 . S
C718 C717 1.371 . S
C718 H725 0.930 . S
H719 C716 0.928 . S
H720 C717 0.931 . S
H721 C697 0.930 . S
H722 C694 0.930 . S
H723 C703 0.930 . S
H724 C715 0.929 . S
H725 C718 0.930 . S
C726 C727 1.351 . S
C726 N729 1.368 . S
C726 H731 0.931 . S
C727 C726 1.351 . S
C727 N728 1.373 . S
C727 H755 0.930 . S
N728 C727 1.373 . S
N728 C730 1.340 . S
N729 C726 1.368 . S
N729 C730 1.321 . S
N729 Co732 2.135 . S
C730 N728 1.340 . S
C730 N729 1.321 . S
C730 H754 0.930 . S
H731 C726 0.931 . S
Co732 N729 2.135 . S
Co732 N735 2.121 . S
Co732 O740 2.055 . S
Co732 O743 2.039 . S
Co732 N746 2.140 . S
C733 O734 1.227 . S
C733 O743 1.265 . S
O734 C733 1.227 . S
N735 Co732 2.121 . S
N735 C737 1.375 . S
N735 C738 1.313 . S
C736 C737 1.338 . S
C736 N739 1.377 . S
C736 H756 0.930 . S
C737 N735 1.375 . S
C737 C736 1.338 . S
C737 H741 0.931 . S
C738 N735 1.313 . S
C738 N739 1.344 . S
C738 H742 0.930 . S
N739 C736 1.377 . S
N739 C738 1.344 . S
O740 Co732 2.055 . S
O740 C744 1.253 . S
H741 C737 0.931 . S
H742 C738 0.930 . S
O743 Co732 2.039 . S
O743 C733 1.265 . S
C744 O740 1.253 . S
C744 O745 1.227 . S
O745 C744 1.227 . S
N746 Co732 2.140 . S
N746 C749 1.346 . S
N746 C750 1.345 . S
C747 C748 1.387 . S
C747 C751 1.391 . S
C748 C747 1.387 . S
C748 C749 1.369 . S
C748 H757 0.929 . S
C749 N746 1.346 . S
C749 C748 1.369 . S
C749 H752 0.928 . S
C750 N746 1.345 . S
C750 C751 1.371 . S
C750 H753 0.931 . S
C751 C747 1.391 . S
C751 C750 1.371 . S
C751 H758 0.930 . S
H752 C749 0.928 . S
H753 C750 0.931 . S
H754 C730 0.930 . S
H755 C727 0.930 . S
H756 C736 0.930 . S
H757 C748 0.929 . S
H758 C751 0.930 . S
C759 C760 1.351 . S
C759 N762 1.368 . S
C759 H764 0.931 . S
C760 C759 1.351 . S
C760 N761 1.373 . S
C760 H788 0.930 . S
N761 C760 1.373 . S
N761 C763 1.340 . S
N762 C759 1.368 . S
N762 C763 1.321 . S
N762 Co765 2.135 . S
C763 N761 1.340 . S
C763 N762 1.321 . S
C763 H787 0.930 . S
H764 C759 0.931 . S
Co765 N762 2.135 . S
Co765 N768 2.121 . S
Co765 O773 2.055 . S
Co765 O776 2.039 . S
Co765 N779 2.140 . S
C766 O767 1.227 . S
C766 O776 1.265 . S
O767 C766 1.227 . S
N768 Co765 2.121 . S
N768 C770 1.375 . S
N768 C771 1.313 . S
C769 C770 1.338 . S
C769 N772 1.377 . S
C769 H789 0.930 . S
C770 N768 1.375 . S
C770 C769 1.338 . S
C770 H774 0.931 . S
C771 N768 1.313 . S
C771 N772 1.344 . S
C771 H775 0.930 . S
N772 C769 1.377 . S
N772 C771 1.344 . S
O773 Co765 2.055 . S
O773 C777 1.253 . S
H774 C770 0.931 . S
H775 C771 0.930 . S
O776 Co765 2.039 . S
O776 C766 1.265 . S
C777 O773 1.253 . S
C777 O778 1.227 . S
O778 C777 1.227 . S
N779 Co765 2.140 . S
N779 C782 1.346 . S
N779 C783 1.345 . S
C780 C781 1.387 . S
C780 C784 1.391 . S
C781 C780 1.387 . S
C781 C782 1.369 . S
C781 H790 0.929 . S
C782 N779 1.346 . S
C782 C781 1.369 . S
C782 H785 0.928 . S
C783 N779 1.345 . S
C783 C784 1.371 . S
C783 H786 0.931 . S
C784 C780 1.391 . S
C784 C783 1.371 . S
C784 H791 0.930 . S
H785 C782 0.928 . S
H786 C783 0.931 . S
H787 C763 0.930 . S
H788 C760 0.930 . S
H789 C769 0.930 . S
H790 C781 0.929 . S
H791 C784 0.930 . S
C792 C793 1.351 . S
C792 N795 1.368 . S
C792 H797 0.931 . S
C793 C792 1.351 . S
C793 N794 1.373 . S
C793 H821 0.930 . S
N794 C793 1.373 . S
N794 C796 1.340 . S
N795 C792 1.368 . S
N795 C796 1.321 . S
N795 Co798 2.135 . S
C796 N794 1.340 . S
C796 N795 1.321 . S
C796 H820 0.930 . S
H797 C792 0.931 . S
Co798 N795 2.135 . S
Co798 N801 2.121 . S
Co798 O806 2.055 . S
Co798 O809 2.039 . S
Co798 N812 2.140 . S
C799 O800 1.227 . S
C799 O809 1.265 . S
O800 C799 1.227 . S
N801 Co798 2.121 . S
N801 C803 1.375 . S
N801 C804 1.313 . S
C802 C803 1.338 . S
C802 N805 1.377 . S
C802 H822 0.930 . S
C803 N801 1.375 . S
C803 C802 1.338 . S
C803 H807 0.931 . S
C804 N801 1.313 . S
C804 N805 1.344 . S
C804 H808 0.930 . S
N805 C802 1.377 . S
N805 C804 1.344 . S
O806 Co798 2.055 . S
O806 C810 1.253 . S
H807 C803 0.931 . S
H808 C804 0.930 . S
O809 Co798 2.039 . S
O809 C799 1.265 . S
C810 O806 1.253 . S
C810 O811 1.227 . S
O811 C810 1.227 . S
N812 Co798 2.140 . S
N812 C815 1.346 . S
N812 C816 1.345 . S
C813 C814 1.387 . S
C813 C817 1.391 . S
C814 C813 1.387 . S
C814 C815 1.369 . S
C814 H823 0.929 . S
C815 N812 1.346 . S
C815 C814 1.369 . S
C815 H818 0.928 . S
C816 N812 1.345 . S
C816 C817 1.371 . S
C816 H819 0.931 . S
C817 C813 1.391 . S
C817 C816 1.371 . S
C817 H824 0.930 . S
H818 C815 0.928 . S
H819 C816 0.931 . S
H820 C796 0.930 . S
H821 C793 0.930 . S
H822 C802 0.930 . S
H823 C814 0.929 . S
H824 C817 0.930 . S
C825 C826 1.351 . S
C825 N828 1.368 . S
C825 H830 0.931 . S
C826 C825 1.351 . S
C826 N827 1.373 . S
C826 H854 0.930 . S
N827 C826 1.373 . S
N827 C829 1.340 . S
N828 C825 1.368 . S
N828 C829 1.321 . S
N828 Co831 2.135 . S
C829 N827 1.340 . S
C829 N828 1.321 . S
C829 H853 0.930 . S
H830 C825 0.931 . S
Co831 N828 2.135 . S
Co831 N834 2.121 1_556 S
Co831 O839 2.055 . S
Co831 O842 2.039 . S
Co831 N845 2.140 . S
C832 O833 1.227 . S
C832 O842 1.265 . S
O833 C832 1.227 . S
N834 Co831 2.121 1_554 S
N834 C836 1.375 . S
N834 C837 1.313 . S
C835 C836 1.338 . S
C835 N838 1.377 . S
C835 H855 0.930 . S
C836 N834 1.375 . S
C836 C835 1.338 . S
C836 H840 0.931 . S
C837 N834 1.313 . S
C837 N838 1.344 . S
C837 H841 0.930 . S
N838 C835 1.377 . S
N838 C837 1.344 . S
O839 Co831 2.055 . S
O839 C843 1.253 . S
H840 C836 0.931 . S
H841 C837 0.930 . S
O842 Co831 2.039 . S
O842 C832 1.265 . S
C843 O839 1.253 . S
C843 O844 1.227 . S
O844 C843 1.227 . S
N845 Co831 2.140 . S
N845 C848 1.346 . S
N845 C849 1.345 . S
C846 C847 1.387 . S
C846 C850 1.391 . S
C847 C846 1.387 . S
C847 C848 1.369 . S
C847 H856 0.929 . S
C848 N845 1.346 . S
C848 C847 1.369 . S
C848 H851 0.928 . S
C849 N845 1.345 . S
C849 C850 1.371 . S
C849 H852 0.931 . S
C850 C846 1.391 . S
C850 C849 1.371 . S
C850 H857 0.930 . S
H851 C848 0.928 . S
H852 C849 0.931 . S
H853 C829 0.930 . S
H854 C826 0.930 . S
H855 C835 0.930 . S
H856 C847 0.929 . S
H857 C850 0.930 . S
C858 C859 1.351 . S
C858 N861 1.368 . S
C858 H863 0.931 . S
C859 C858 1.351 . S
C859 N860 1.373 . S
C859 H887 0.930 . S
N860 C859 1.373 . S
N860 C862 1.340 . S
N861 C858 1.368 . S
N861 C862 1.321 . S
N861 Co864 2.135 . S
C862 N860 1.340 . S
C862 N861 1.321 . S
C862 H886 0.930 . S
H863 C858 0.931 . S
Co864 N861 2.135 . S
Co864 N867 2.121 . S
Co864 O872 2.055 . S
Co864 O875 2.039 . S
Co864 N878 2.140 . S
C865 O866 1.227 . S
C865 O875 1.265 . S
O866 C865 1.227 . S
N867 Co864 2.121 . S
N867 C869 1.375 . S
N867 C870 1.313 . S
C868 C869 1.338 . S
C868 N871 1.377 . S
C868 H888 0.930 . S
C869 N867 1.375 . S
C869 C868 1.338 . S
C869 H873 0.931 . S
C870 N867 1.313 . S
C870 N871 1.344 . S
C870 H874 0.930 . S
N871 C868 1.377 . S
N871 C870 1.344 . S
O872 Co864 2.055 . S
O872 C876 1.253 . S
H873 C869 0.931 . S
H874 C870 0.930 . S
O875 Co864 2.039 . S
O875 C865 1.265 . S
C876 O872 1.253 . S
C876 O877 1.227 . S
O877 C876 1.227 . S
N878 Co864 2.140 . S
N878 C881 1.346 . S
N878 C882 1.345 . S
C879 C880 1.387 . S
C879 C883 1.391 . S
C880 C879 1.387 . S
C880 C881 1.369 . S
C880 H889 0.929 . S
C881 N878 1.346 . S
C881 C880 1.369 . S
C881 H884 0.928 . S
C882 N878 1.345 . S
C882 C883 1.371 . S
C882 H885 0.931 . S
C883 C879 1.391 . S
C883 C882 1.371 . S
C883 H890 0.930 . S
H884 C881 0.928 . S
H885 C882 0.931 . S
H886 C862 0.930 . S
H887 C859 0.930 . S
H888 C868 0.930 . S
H889 C880 0.929 . S
H890 C883 0.930 . S
C891 C892 1.351 . S
C891 N894 1.368 . S
C891 H896 0.931 . S
C892 C891 1.351 . S
C892 N893 1.373 . S
C892 H920 0.930 . S
N893 C892 1.373 . S
N893 C895 1.340 . S
N894 C891 1.368 . S
N894 C895 1.321 . S
N894 Co897 2.135 . S
C895 N893 1.340 . S
C895 N894 1.321 . S
C895 H919 0.930 . S
H896 C891 0.931 . S
Co897 N894 2.135 . S
Co897 N900 2.121 . S
Co897 O905 2.055 . S
Co897 O908 2.039 . S
Co897 N911 2.140 . S
C898 O899 1.227 . S
C898 O908 1.265 . S
O899 C898 1.227 . S
N900 Co897 2.121 . S
N900 C902 1.375 . S
N900 C903 1.313 . S
C901 C902 1.338 . S
C901 N904 1.377 . S
C901 H921 0.930 . S
C902 N900 1.375 . S
C902 C901 1.338 . S
C902 H906 0.931 . S
C903 N900 1.313 . S
C903 N904 1.344 . S
C903 H907 0.930 . S
N904 C901 1.377 . S
N904 C903 1.344 . S
O905 Co897 2.055 . S
O905 C909 1.253 . S
H906 C902 0.931 . S
H907 C903 0.930 . S
O908 Co897 2.039 . S
O908 C898 1.265 . S
C909 O905 1.253 . S
C909 O910 1.227 . S
O910 C909 1.227 . S
N911 Co897 2.140 . S
N911 C914 1.346 . S
N911 C915 1.345 . S
C912 C913 1.387 . S
C912 C916 1.391 . S
C913 C912 1.387 . S
C913 C914 1.369 . S
C913 H922 0.929 . S
C914 N911 1.346 . S
C914 C913 1.369 . S
C914 H917 0.928 . S
C915 N911 1.345 . S
C915 C916 1.371 . S
C915 H918 0.931 . S
C916 C912 1.391 . S
C916 C915 1.371 . S
C916 H923 0.930 . S
H917 C914 0.928 . S
H918 C915 0.931 . S
H919 C895 0.930 . S
H920 C892 0.930 . S
H921 C901 0.930 . S
H922 C913 0.929 . S
H923 C916 0.930 . S
C924 C925 1.351 . S
C924 N927 1.368 . S
C924 H929 0.931 . S
C925 C924 1.351 . S
C925 N926 1.373 . S
C925 H953 0.930 . S
N926 C925 1.373 . S
N926 C928 1.340 . S
N927 C924 1.368 . S
N927 C928 1.321 . S
N927 Co930 2.135 . S
C928 N926 1.340 . S
C928 N927 1.321 . S
C928 H952 0.930 . S
H929 C924 0.931 . S
Co930 N927 2.135 . S
Co930 N933 2.121 . S
Co930 O938 2.055 . S
Co930 O941 2.039 . S
Co930 N944 2.140 . S
C931 O932 1.227 . S
C931 O941 1.265 . S
O932 C931 1.227 . S
N933 Co930 2.121 . S
N933 C935 1.375 . S
N933 C936 1.313 . S
C934 C935 1.338 . S
C934 N937 1.377 . S
C934 H954 0.930 . S
C935 N933 1.375 . S
C935 C934 1.338 . S
C935 H939 0.931 . S
C936 N933 1.313 . S
C936 N937 1.344 . S
C936 H940 0.930 . S
N937 C934 1.377 . S
N937 C936 1.344 . S
O938 Co930 2.055 . S
O938 C942 1.253 . S
H939 C935 0.931 . S
H940 C936 0.930 . S
O941 Co930 2.039 . S
O941 C931 1.265 . S
C942 O938 1.253 . S
C942 O943 1.227 . S
O943 C942 1.227 . S
N944 Co930 2.140 . S
N944 C947 1.346 . S
N944 C948 1.345 . S
C945 C946 1.387 . S
C945 C949 1.391 . S
C946 C945 1.387 . S
C946 C947 1.369 . S
C946 H955 0.929 . S
C947 N944 1.346 . S
C947 C946 1.369 . S
C947 H950 0.928 . S
C948 N944 1.345 . S
C948 C949 1.371 . S
C948 H951 0.931 . S
C949 C945 1.391 . S
C949 C948 1.371 . S
C949 H956 0.930 . S
H950 C947 0.928 . S
H951 C948 0.931 . S
H952 C928 0.930 . S
H953 C925 0.930 . S
H954 C934 0.930 . S
H955 C946 0.929 . S
H956 C949 0.930 . S
C957 C958 1.351 . S
C957 N960 1.368 . S
C957 H962 0.931 . S
C958 C957 1.351 . S
C958 N959 1.373 . S
C958 H986 0.930 . S
N959 C958 1.373 . S
N959 C961 1.340 . S
N960 C957 1.368 . S
N960 C961 1.321 . S
N960 Co963 2.135 . S
C961 N959 1.340 . S
C961 N960 1.321 . S
C961 H985 0.930 . S
H962 C957 0.931 . S
Co963 N960 2.135 . S
Co963 N966 2.121 1_554 S
Co963 O971 2.055 . S
Co963 O974 2.039 . S
Co963 N977 2.140 . S
C964 O965 1.227 . S
C964 O974 1.265 . S
O965 C964 1.227 . S
N966 Co963 2.121 1_556 S
N966 C968 1.375 . S
N966 C969 1.313 . S
C967 C968 1.338 . S
C967 N970 1.377 . S
C967 H987 0.930 . S
C968 N966 1.375 . S
C968 C967 1.338 . S
C968 H972 0.931 . S
C969 N966 1.313 . S
C969 N970 1.344 . S
C969 H973 0.930 . S
N970 C967 1.377 . S
N970 C969 1.344 . S
O971 Co963 2.055 . S
O971 C975 1.253 . S
H972 C968 0.931 . S
H973 C969 0.930 . S
O974 Co963 2.039 . S
O974 C964 1.265 . S
C975 O971 1.253 . S
C975 O976 1.227 . S
O976 C975 1.227 . S
N977 Co963 2.140 . S
N977 C980 1.346 . S
N977 C981 1.345 . S
C978 C979 1.387 . S
C978 C982 1.391 . S
C979 C978 1.387 . S
C979 C980 1.369 . S
C979 H988 0.929 . S
C980 N977 1.346 . S
C980 C979 1.369 . S
C980 H983 0.928 . S
C981 N977 1.345 . S
C981 C982 1.371 . S
C981 H984 0.931 . S
C982 C978 1.391 . S
C982 C981 1.371 . S
C982 H989 0.930 . S
H983 C980 0.928 . S
H984 C981 0.931 . S
H985 C961 0.930 . S
H986 C958 0.930 . S
H987 C967 0.930 . S
H988 C979 0.929 . S
H989 C982 0.930 . S
C990 C991 1.351 . S
C990 N993 1.368 . S
C990 H995 0.931 . S
C991 C990 1.351 . S
C991 N992 1.373 . S
C991 H1019 0.930 . S
N992 C991 1.373 . S
N992 C994 1.340 . S
N993 C990 1.368 . S
N993 C994 1.321 . S
N993 Co996 2.135 . S
C994 N992 1.340 . S
C994 N993 1.321 . S
C994 H1018 0.930 . S
H995 C990 0.931 . S
Co996 N993 2.135 . S
Co996 N999 2.121 . S
Co996 O1004 2.055 . S
Co996 O1007 2.039 . S
Co996 N1010 2.140 . S
C997 O998 1.227 . S
C997 O1007 1.265 . S
O998 C997 1.227 . S
N999 Co996 2.121 . S
N999 C1001 1.375 . S
N999 C1002 1.313 . S
C1000 C1001 1.338 . S
C1000 N1003 1.377 . S
C1000 H1020 0.930 . S
C1001 N999 1.375 . S
C1001 C1000 1.338 . S
C1001 H1005 0.931 . S
C1002 N999 1.313 . S
C1002 N1003 1.344 . S
C1002 H1006 0.930 . S
N1003 C1000 1.377 . S
N1003 C1002 1.344 . S
O1004 Co996 2.055 . S
O1004 C1008 1.253 . S
H1005 C1001 0.931 . S
H1006 C1002 0.930 . S
O1007 Co996 2.039 . S
O1007 C997 1.265 . S
C1008 O1004 1.253 . S
C1008 O1009 1.227 . S
O1009 C1008 1.227 . S
N1010 Co996 2.140 . S
N1010 C1013 1.346 . S
N1010 C1014 1.345 . S
C1011 C1012 1.387 . S
C1011 C1015 1.391 . S
C1012 C1011 1.387 . S
C1012 C1013 1.369 . S
C1012 H1021 0.929 . S
C1013 N1010 1.346 . S
C1013 C1012 1.369 . S
C1013 H1016 0.928 . S
C1014 N1010 1.345 . S
C1014 C1015 1.371 . S
C1014 H1017 0.931 . S
C1015 C1011 1.391 . S
C1015 C1014 1.371 . S
C1015 H1022 0.930 . S
H1016 C1013 0.928 . S
H1017 C1014 0.931 . S
H1018 C994 0.930 . S
H1019 C991 0.930 . S
H1020 C1000 0.930 . S
H1021 C1012 0.929 . S
H1022 C1015 0.930 . S
C1023 C1024 1.351 . S
C1023 N1026 1.368 . S
C1023 H1028 0.931 . S
C1024 C1023 1.351 . S
C1024 N1025 1.373 . S
C1024 H1052 0.930 . S
N1025 C1024 1.373 . S
N1025 C1027 1.340 . S
N1026 C1023 1.368 . S
N1026 C1027 1.321 . S
N1026 Co1029 2.135 . S
C1027 N1025 1.340 . S
C1027 N1026 1.321 . S
C1027 H1051 0.930 . S
H1028 C1023 0.931 . S
Co1029 N1026 2.135 . S
Co1029 N1032 2.121 . S
Co1029 O1037 2.055 . S
Co1029 O1040 2.039 . S
Co1029 N1043 2.140 . S
C1030 O1031 1.227 . S
C1030 O1040 1.265 . S
O1031 C1030 1.227 . S
N1032 Co1029 2.121 . S
N1032 C1034 1.375 . S
N1032 C1035 1.313 . S
C1033 C1034 1.338 . S
C1033 N1036 1.377 . S
C1033 H1053 0.930 . S
C1034 N1032 1.375 . S
C1034 C1033 1.338 . S
C1034 H1038 0.931 . S
C1035 N1032 1.313 . S
C1035 N1036 1.344 . S
C1035 H1039 0.930 . S
N1036 C1033 1.377 . S
N1036 C1035 1.344 . S
O1037 Co1029 2.055 . S
O1037 C1041 1.253 . S
H1038 C1034 0.931 . S
H1039 C1035 0.930 . S
O1040 Co1029 2.039 . S
O1040 C1030 1.265 . S
C1041 O1037 1.253 . S
C1041 O1042 1.227 . S
O1042 C1041 1.227 . S
N1043 Co1029 2.140 . S
N1043 C1046 1.346 . S
N1043 C1047 1.345 . S
C1044 C1045 1.387 . S
C1044 C1048 1.391 . S
C1045 C1044 1.387 . S
C1045 C1046 1.369 . S
C1045 H1054 0.929 . S
C1046 N1043 1.346 . S
C1046 C1045 1.369 . S
C1046 H1049 0.928 . S
C1047 N1043 1.345 . S
C1047 C1048 1.371 . S
C1047 H1050 0.931 . S
C1048 C1044 1.391 . S
C1048 C1047 1.371 . S
C1048 H1055 0.930 . S
H1049 C1046 0.928 . S
H1050 C1047 0.931 . S
H1051 C1027 0.930 . S
H1052 C1024 0.930 . S
H1053 C1033 0.930 . S
H1054 C1045 0.929 . S
H1055 C1048 0.930 . S
H1056 C1062 0.930 . S
H1057 C1066 0.930 . S
H1058 C1071 0.929 . S
H1059 C1069 0.929 . S
H1060 C1064 0.929 . S
H1061 C1070 0.929 . S
C1062 H1056 0.930 . S
C1062 C1063 1.367 . S
C1062 C1070 1.378 . S
C1063 C1062 1.367 . S
C1063 C1071 1.433 . S
C1064 H1060 0.929 . S
C1064 C1066 1.378 . S
C1064 C1068 1.350 . S
C1065 C1068 1.463 . S
C1065 C1070 1.350 . S
C1065 N1073 1.427 . S
C1066 H1057 0.930 . S
C1066 C1064 1.378 . S
C1066 C1067 1.367 . S
C1067 C1066 1.367 . S
C1067 C1069 1.433 . S
C1068 C1064 1.350 . S
C1068 C1065 1.463 . S
C1068 N1072 1.427 . S
C1069 H1059 0.929 . S
C1069 C1067 1.433 . S
C1069 N1072 1.384 . S
C1070 H1061 0.929 . S
C1070 C1062 1.378 . S
C1070 C1065 1.350 . S
C1071 H1058 0.929 . S
C1071 C1063 1.433 . S
C1071 N1073 1.384 . S
N1072 C1068 1.427 . S
N1072 C1069 1.384 . S
N1073 C1065 1.427 . S
N1073 C1071 1.384 . S
H1074 C1080 0.930 . S
H1075 C1084 0.930 . S
H1076 C1089 0.929 . S
H1077 C1087 0.929 . S
H1078 C1082 0.929 . S
H1079 C1088 0.929 . S
C1080 H1074 0.930 . S
C1080 C1081 1.367 . S
C1080 C1088 1.378 . S
C1081 C1080 1.367 . S
C1081 C1089 1.433 . S
C1082 H1078 0.929 . S
C1082 C1084 1.378 . S
C1082 C1086 1.350 . S
C1083 C1086 1.463 . S
C1083 C1088 1.350 . S
C1083 N1091 1.427 . S
C1084 H1075 0.930 . S
C1084 C1082 1.378 . S
C1084 C1085 1.367 . S
C1085 C1084 1.367 . S
C1085 C1087 1.433 . S
C1086 C1082 1.350 . S
C1086 C1083 1.463 . S
C1086 N1090 1.427 . S
C1087 H1077 0.929 . S
C1087 C1085 1.433 . S
C1087 N1090 1.384 . S
C1088 H1079 0.929 . S
C1088 C1080 1.378 . S
C1088 C1083 1.350 . S
C1089 H1076 0.929 . S
C1089 C1081 1.433 . S
C1089 N1091 1.384 . S
N1090 C1086 1.427 . S
N1090 C1087 1.384 . S
N1091 C1083 1.427 . S
N1091 C1089 1.384 . S
H1092 C1098 0.930 . S
H1093 C1102 0.930 . S
H1094 C1107 0.929 . S
H1095 C1105 0.929 . S
H1096 C1100 0.929 . S
H1097 C1106 0.929 . S
C1098 H1092 0.930 . S
C1098 C1099 1.367 . S
C1098 C1106 1.378 . S
C1099 C1098 1.367 . S
C1099 C1107 1.433 . S
C1100 H1096 0.929 . S
C1100 C1102 1.378 . S
C1100 C1104 1.350 . S
C1101 C1104 1.463 . S
C1101 C1106 1.350 . S
C1101 N1109 1.427 . S
C1102 H1093 0.930 . S
C1102 C1100 1.378 . S
C1102 C1103 1.367 . S
C1103 C1102 1.367 . S
C1103 C1105 1.433 . S
C1104 C1100 1.350 . S
C1104 C1101 1.463 . S
C1104 N1108 1.427 . S
C1105 H1095 0.929 . S
C1105 C1103 1.433 . S
C1105 N1108 1.384 . S
C1106 H1097 0.929 . S
C1106 C1098 1.378 . S
C1106 C1101 1.350 . S
C1107 H1094 0.929 . S
C1107 C1099 1.433 . S
C1107 N1109 1.384 . S
N1108 C1104 1.427 . S
N1108 C1105 1.384 . S
N1109 C1101 1.427 . S
N1109 C1107 1.384 . S
H1110 C1116 0.930 . S
H1111 C1120 0.930 . S
H1112 C1125 0.929 . S
H1113 C1123 0.929 . S
H1114 C1118 0.929 . S
H1115 C1124 0.929 . S
C1116 H1110 0.930 . S
C1116 C1117 1.367 . S
C1116 C1124 1.378 . S
C1117 C1116 1.367 . S
C1117 C1125 1.433 . S
C1118 H1114 0.929 . S
C1118 C1120 1.378 . S
C1118 C1122 1.350 . S
C1119 C1122 1.463 . S
C1119 C1124 1.350 . S
C1119 N1127 1.427 . S
C1120 H1111 0.930 . S
C1120 C1118 1.378 . S
C1120 C1121 1.367 . S
C1121 C1120 1.367 . S
C1121 C1123 1.433 . S
C1122 C1118 1.350 . S
C1122 C1119 1.463 . S
C1122 N1126 1.427 . S
C1123 H1113 0.929 . S
C1123 C1121 1.433 . S
C1123 N1126 1.384 . S
C1124 H1115 0.929 . S
C1124 C1116 1.378 . S
C1124 C1119 1.350 . S
C1125 H1112 0.929 . S
C1125 C1117 1.433 . S
C1125 N1127 1.384 . S
N1126 C1122 1.427 . S
N1126 C1123 1.384 . S
N1127 C1119 1.427 . S
N1127 C1125 1.384 . S
H1128 C1134 0.930 . S
H1129 C1138 0.930 . S
H1130 C1143 0.929 . S
H1131 C1141 0.929 . S
H1132 C1136 0.929 . S
H1133 C1142 0.929 . S
C1134 H1128 0.930 . S
C1134 C1135 1.367 . S
C1134 C1142 1.378 . S
C1135 C1134 1.367 . S
C1135 C1143 1.433 . S
C1136 H1132 0.929 . S
C1136 C1138 1.378 . S
C1136 C1140 1.350 . S
C1137 C1140 1.463 . S
C1137 C1142 1.350 . S
C1137 N1145 1.427 . S
C1138 H1129 0.930 . S
C1138 C1136 1.378 . S
C1138 C1139 1.367 . S
C1139 C1138 1.367 . S
C1139 C1141 1.433 . S
C1140 C1136 1.350 . S
C1140 C1137 1.463 . S
C1140 N1144 1.427 . S
C1141 H1131 0.929 . S
C1141 C1139 1.433 . S
C1141 N1144 1.384 . S
C1142 H1133 0.929 . S
C1142 C1134 1.378 . S
C1142 C1137 1.350 . S
C1143 H1130 0.929 . S
C1143 C1135 1.433 . S
C1143 N1145 1.384 . S
N1144 C1140 1.427 . S
N1144 C1141 1.384 . S
N1145 C1137 1.427 . S
N1145 C1143 1.384 . S
H1146 C1152 0.930 . S
H1147 C1156 0.930 . S
H1148 C1161 0.929 . S
H1149 C1159 0.929 . S
H1150 C1154 0.929 . S
H1151 C1160 0.929 . S
C1152 H1146 0.930 . S
C1152 C1153 1.367 . S
C1152 C1160 1.378 . S
C1153 C1152 1.367 . S
C1153 C1161 1.433 . S
C1154 H1150 0.929 . S
C1154 C1156 1.378 . S
C1154 C1158 1.350 . S
C1155 C1158 1.463 . S
C1155 C1160 1.350 . S
C1155 N1163 1.427 . S
C1156 H1147 0.930 . S
C1156 C1154 1.378 . S
C1156 C1157 1.367 . S
C1157 C1156 1.367 . S
C1157 C1159 1.433 . S
C1158 C1154 1.350 . S
C1158 C1155 1.463 . S
C1158 N1162 1.427 . S
C1159 H1149 0.929 . S
C1159 C1157 1.433 . S
C1159 N1162 1.384 . S
C1160 H1151 0.929 . S
C1160 C1152 1.378 . S
C1160 C1155 1.350 . S
C1161 H1148 0.929 . S
C1161 C1153 1.433 . S
C1161 N1163 1.384 . S
N1162 C1158 1.427 . S
N1162 C1159 1.384 . S
N1163 C1155 1.427 . S
N1163 C1161 1.384 . S
H1164 C1170 0.930 . S
H1165 C1174 0.930 . S
H1166 C1179 0.929 . S
H1167 C1177 0.929 . S
H1168 C1172 0.929 . S
H1169 C1178 0.929 . S
C1170 H1164 0.930 . S
C1170 C1171 1.367 . S
C1170 C1178 1.378 . S
C1171 C1170 1.367 . S
C1171 C1179 1.433 . S
C1172 H1168 0.929 . S
C1172 C1174 1.378 . S
C1172 C1176 1.350 . S
C1173 C1176 1.463 . S
C1173 C1178 1.350 . S
C1173 N1181 1.427 . S
C1174 H1165 0.930 . S
C1174 C1172 1.378 . S
C1174 C1175 1.367 . S
C1175 C1174 1.367 . S
C1175 C1177 1.433 . S
C1176 C1172 1.350 . S
C1176 C1173 1.463 . S
C1176 N1180 1.427 . S
C1177 H1167 0.929 . S
C1177 C1175 1.433 . S
C1177 N1180 1.384 . S
C1178 H1169 0.929 . S
C1178 C1170 1.378 . S
C1178 C1173 1.350 . S
C1179 H1166 0.929 . S
C1179 C1171 1.433 . S
C1179 N1181 1.384 . S
N1180 C1176 1.427 . S
N1180 C1177 1.384 . S
N1181 C1173 1.427 . S
N1181 C1179 1.384 . S
H1182 C1188 0.930 . S
H1183 C1192 0.930 . S
H1184 C1197 0.929 . S
H1185 C1195 0.929 . S
H1186 C1190 0.929 . S
H1187 C1196 0.929 . S
C1188 H1182 0.930 . S
C1188 C1189 1.367 . S
C1188 C1196 1.378 . S
C1189 C1188 1.367 . S
C1189 C1197 1.433 . S
C1190 H1186 0.929 . S
C1190 C1192 1.378 . S
C1190 C1194 1.350 . S
C1191 C1194 1.463 . S
C1191 C1196 1.350 . S
C1191 N1199 1.427 . S
C1192 H1183 0.930 . S
C1192 C1190 1.378 . S
C1192 C1193 1.367 . S
C1193 C1192 1.367 . S
C1193 C1195 1.433 . S
C1194 C1190 1.350 . S
C1194 C1191 1.463 . S
C1194 N1198 1.427 . S
C1195 H1185 0.929 . S
C1195 C1193 1.433 . S
C1195 N1198 1.384 . S
C1196 H1187 0.929 . S
C1196 C1188 1.378 . S
C1196 C1191 1.350 . S
C1197 H1184 0.929 . S
C1197 C1189 1.433 . S
C1197 N1199 1.384 . S
N1198 C1194 1.427 . S
N1198 C1195 1.384 . S
N1199 C1191 1.427 . S
N1199 C1197 1.384 . S
H1200 C1206 0.930 . S
H1201 C1210 0.930 . S
H1202 C1215 0.929 . S
H1203 C1213 0.929 . S
H1204 C1208 0.929 . S
H1205 C1214 0.929 . S
C1206 H1200 0.930 . S
C1206 C1207 1.367 . S
C1206 C1214 1.378 . S
C1207 C1206 1.367 . S
C1207 C1215 1.433 . S
C1208 H1204 0.929 . S
C1208 C1210 1.378 . S
C1208 C1212 1.350 . S
C1209 C1212 1.463 . S
C1209 C1214 1.350 . S
C1209 N1217 1.427 . S
C1210 H1201 0.930 . S
C1210 C1208 1.378 . S
C1210 C1211 1.367 . S
C1211 C1210 1.367 . S
C1211 C1213 1.433 . S
C1212 C1208 1.350 . S
C1212 C1209 1.463 . S
C1212 N1216 1.427 . S
C1213 H1203 0.929 . S
C1213 C1211 1.433 . S
C1213 N1216 1.384 . S
C1214 H1205 0.929 . S
C1214 C1206 1.378 . S
C1214 C1209 1.350 . S
C1215 H1202 0.929 . S
C1215 C1207 1.433 . S
C1215 N1217 1.384 . S
N1216 C1212 1.427 . S
N1216 C1213 1.384 . S
N1217 C1209 1.427 . S
N1217 C1215 1.384 . S
H1218 C1224 0.930 . S
H1219 C1228 0.930 . S
H1220 C1233 0.929 . S
H1221 C1231 0.929 . S
H1222 C1226 0.929 . S
H1223 C1232 0.929 . S
C1224 H1218 0.930 . S
C1224 C1225 1.367 . S
C1224 C1232 1.378 . S
C1225 C1224 1.367 . S
C1225 C1233 1.433 . S
C1226 H1222 0.929 . S
C1226 C1228 1.378 . S
C1226 C1230 1.350 . S
C1227 C1230 1.463 . S
C1227 C1232 1.350 . S
C1227 N1235 1.427 . S
C1228 H1219 0.930 . S
C1228 C1226 1.378 . S
C1228 C1229 1.367 . S
C1229 C1228 1.367 . S
C1229 C1231 1.433 . S
C1230 C1226 1.350 . S
C1230 C1227 1.463 . S
C1230 N1234 1.427 . S
C1231 H1221 0.929 . S
C1231 C1229 1.433 . S
C1231 N1234 1.384 . S
C1232 H1223 0.929 . S
C1232 C1224 1.378 . S
C1232 C1227 1.350 . S
C1233 H1220 0.929 . S
C1233 C1225 1.433 . S
C1233 N1235 1.384 . S
N1234 C1230 1.427 . S
N1234 C1231 1.384 . S
N1235 C1227 1.427 . S
N1235 C1233 1.384 . S
H1236 C1242 0.930 . S
H1237 C1246 0.930 . S
H1238 C1251 0.929 . S
H1239 C1249 0.929 . S
H1240 C1244 0.929 . S
H1241 C1250 0.929 . S
C1242 H1236 0.930 . S
C1242 C1243 1.367 . S
C1242 C1250 1.378 . S
C1243 C1242 1.367 . S
C1243 C1251 1.433 . S
C1244 H1240 0.929 . S
C1244 C1246 1.378 . S
C1244 C1248 1.350 . S
C1245 C1248 1.463 . S
C1245 C1250 1.350 . S
C1245 N1253 1.427 . S
C1246 H1237 0.930 . S
C1246 C1244 1.378 . S
C1246 C1247 1.367 . S
C1247 C1246 1.367 . S
C1247 C1249 1.433 . S
C1248 C1244 1.350 . S
C1248 C1245 1.463 . S
C1248 N1252 1.427 . S
C1249 H1239 0.929 . S
C1249 C1247 1.433 . S
C1249 N1252 1.384 . S
C1250 H1241 0.929 . S
C1250 C1242 1.378 . S
C1250 C1245 1.350 . S
C1251 H1238 0.929 . S
C1251 C1243 1.433 . S
C1251 N1253 1.384 . S
N1252 C1248 1.427 . S
N1252 C1249 1.384 . S
N1253 C1245 1.427 . S
N1253 C1251 1.384 . S
H1254 C1260 0.930 . S
H1255 C1264 0.930 . S
H1256 C1269 0.929 . S
H1257 C1267 0.929 . S
H1258 C1262 0.929 . S
H1259 C1268 0.929 . S
C1260 H1254 0.930 . S
C1260 C1261 1.367 . S
C1260 C1268 1.378 . S
C1261 C1260 1.367 . S
C1261 C1269 1.433 . S
C1262 H1258 0.929 . S
C1262 C1264 1.378 . S
C1262 C1266 1.350 . S
C1263 C1266 1.463 . S
C1263 C1268 1.350 . S
C1263 N1271 1.427 . S
C1264 H1255 0.930 . S
C1264 C1262 1.378 . S
C1264 C1265 1.367 . S
C1265 C1264 1.367 . S
C1265 C1267 1.433 . S
C1266 C1262 1.350 . S
C1266 C1263 1.463 . S
C1266 N1270 1.427 . S
C1267 H1257 0.929 . S
C1267 C1265 1.433 . S
C1267 N1270 1.384 . S
C1268 H1259 0.929 . S
C1268 C1260 1.378 . S
C1268 C1263 1.350 . S
C1269 H1256 0.929 . S
C1269 C1261 1.433 . S
C1269 N1271 1.384 . S
N1270 C1266 1.427 . S
N1270 C1267 1.384 . S
N1271 C1263 1.427 . S
N1271 C1269 1.384 . S
H1272 C1278 0.930 . S
H1273 C1282 0.930 . S
H1274 C1287 0.929 . S
H1275 C1285 0.929 . S
H1276 C1280 0.929 . S
H1277 C1286 0.929 . S
C1278 H1272 0.930 . S
C1278 C1279 1.367 . S
C1278 C1286 1.378 . S
C1279 C1278 1.367 . S
C1279 C1287 1.433 . S
C1280 H1276 0.929 . S
C1280 C1282 1.378 . S
C1280 C1284 1.350 . S
C1281 C1284 1.463 . S
C1281 C1286 1.350 . S
C1281 N1289 1.427 . S
C1282 H1273 0.930 . S
C1282 C1280 1.378 . S
C1282 C1283 1.367 . S
C1283 C1282 1.367 . S
C1283 C1285 1.433 . S
C1284 C1280 1.350 . S
C1284 C1281 1.463 . S
C1284 N1288 1.427 . S
C1285 H1275 0.929 . S
C1285 C1283 1.433 . S
C1285 N1288 1.384 . S
C1286 H1277 0.929 . S
C1286 C1278 1.378 . S
C1286 C1281 1.350 . S
C1287 H1274 0.929 . S
C1287 C1279 1.433 . S
C1287 N1289 1.384 . S
N1288 C1284 1.427 . S
N1288 C1285 1.384 . S
N1289 C1281 1.427 . S
N1289 C1287 1.384 . S
H1290 C1296 0.930 . S
H1291 C1300 0.930 . S
H1292 C1305 0.929 . S
H1293 C1303 0.929 . S
H1294 C1298 0.929 . S
H1295 C1304 0.929 . S
C1296 H1290 0.930 . S
C1296 C1297 1.367 . S
C1296 C1304 1.378 . S
C1297 C1296 1.367 . S
C1297 C1305 1.433 . S
C1298 H1294 0.929 . S
C1298 C1300 1.378 . S
C1298 C1302 1.350 . S
C1299 C1302 1.463 . S
C1299 C1304 1.350 . S
C1299 N1307 1.427 . S
C1300 H1291 0.930 . S
C1300 C1298 1.378 . S
C1300 C1301 1.367 . S
C1301 C1300 1.367 . S
C1301 C1303 1.433 . S
C1302 C1298 1.350 . S
C1302 C1299 1.463 . S
C1302 N1306 1.427 . S
C1303 H1293 0.929 . S
C1303 C1301 1.433 . S
C1303 N1306 1.384 . S
C1304 H1295 0.929 . S
C1304 C1296 1.378 . S
C1304 C1299 1.350 . S
C1305 H1292 0.929 . S
C1305 C1297 1.433 . S
C1305 N1307 1.384 . S
N1306 C1302 1.427 . S
N1306 C1303 1.384 . S
N1307 C1299 1.427 . S
N1307 C1305 1.384 . S
H1308 C1314 0.930 . S
H1309 C1318 0.930 . S
H1310 C1323 0.929 . S
H1311 C1321 0.929 . S
H1312 C1316 0.929 . S
H1313 C1322 0.929 . S
C1314 H1308 0.930 . S
C1314 C1315 1.367 . S
C1314 C1322 1.378 . S
C1315 C1314 1.367 . S
C1315 C1323 1.433 . S
C1316 H1312 0.929 . S
C1316 C1318 1.378 . S
C1316 C1320 1.350 . S
C1317 C1320 1.463 . S
C1317 C1322 1.350 . S
C1317 N1325 1.427 . S
C1318 H1309 0.930 . S
C1318 C1316 1.378 . S
C1318 C1319 1.367 . S
C1319 C1318 1.367 . S
C1319 C1321 1.433 . S
C1320 C1316 1.350 . S
C1320 C1317 1.463 . S
C1320 N1324 1.427 . S
C1321 H1311 0.929 . S
C1321 C1319 1.433 . S
C1321 N1324 1.384 . S
C1322 H1313 0.929 . S
C1322 C1314 1.378 . S
C1322 C1317 1.350 . S
C1323 H1310 0.929 . S
C1323 C1315 1.433 . S
C1323 N1325 1.384 . S
N1324 C1320 1.427 . S
N1324 C1321 1.384 . S
N1325 C1317 1.427 . S
N1325 C1323 1.384 . S
H1326 C1332 0.930 . S
H1327 C1336 0.930 . S
H1328 C1341 0.929 . S
H1329 C1339 0.929 . S
H1330 C1334 0.929 . S
H1331 C1340 0.929 . S
C1332 H1326 0.930 . S
C1332 C1333 1.367 . S
C1332 C1340 1.378 . S
C1333 C1332 1.367 . S
C1333 C1341 1.433 . S
C1334 H1330 0.929 . S
C1334 C1336 1.378 . S
C1334 C1338 1.350 . S
C1335 C1338 1.463 . S
C1335 C1340 1.350 . S
C1335 N1343 1.427 . S
C1336 H1327 0.930 . S
C1336 C1334 1.378 . S
C1336 C1337 1.367 . S
C1337 C1336 1.367 . S
C1337 C1339 1.433 . S
C1338 C1334 1.350 . S
C1338 C1335 1.463 . S
C1338 N1342 1.427 . S
C1339 H1329 0.929 . S
C1339 C1337 1.433 . S
C1339 N1342 1.384 . S
C1340 H1331 0.929 . S
C1340 C1332 1.378 . S
C1340 C1335 1.350 . S
C1341 H1328 0.929 . S
C1341 C1333 1.433 . S
C1341 N1343 1.384 . S
N1342 C1338 1.427 . S
N1342 C1339 1.384 . S
N1343 C1335 1.427 . S
N1343 C1341 1.384 . S
H1344 C1350 0.930 . S
H1345 C1354 0.930 . S
H1346 C1359 0.929 . S
H1347 C1357 0.929 . S
H1348 C1352 0.929 . S
H1349 C1358 0.929 . S
C1350 H1344 0.930 . S
C1350 C1351 1.367 . S
C1350 C1358 1.378 . S
C1351 C1350 1.367 . S
C1351 C1359 1.433 . S
C1352 H1348 0.929 . S
C1352 C1354 1.378 . S
C1352 C1356 1.350 . S
C1353 C1356 1.463 1_565 S
C1353 C1358 1.350 . S
C1353 N1361 1.427 . S
C1354 H1345 0.930 . S
C1354 C1352 1.378 . S
C1354 C1355 1.367 . S
C1355 C1354 1.367 . S
C1355 C1357 1.433 . S
C1356 C1352 1.350 . S
C1356 C1353 1.463 1_545 S
C1356 N1360 1.427 . S
C1357 H1347 0.929 . S
C1357 C1355 1.433 . S
C1357 N1360 1.384 . S
C1358 H1349 0.929 . S
C1358 C1350 1.378 . S
C1358 C1353 1.350 . S
C1359 H1346 0.929 . S
C1359 C1351 1.433 . S
C1359 N1361 1.384 . S
N1360 C1356 1.427 . S
N1360 C1357 1.384 . S
N1361 C1353 1.427 . S
N1361 C1359 1.384 . S
H1362 C1368 0.930 . S
H1363 C1372 0.930 . S
H1364 C1377 0.929 . S
H1365 C1375 0.929 . S
H1366 C1370 0.929 . S
H1367 C1376 0.929 . S
C1368 H1362 0.930 . S
C1368 C1369 1.367 . S
C1368 C1376 1.378 . S
C1369 C1368 1.367 . S
C1369 C1377 1.433 . S
C1370 H1366 0.929 . S
C1370 C1372 1.378 . S
C1370 C1374 1.350 . S
C1371 C1374 1.463 . S
C1371 C1376 1.350 . S
C1371 N1379 1.427 . S
C1372 H1363 0.930 . S
C1372 C1370 1.378 . S
C1372 C1373 1.367 . S
C1373 C1372 1.367 . S
C1373 C1375 1.433 . S
C1374 C1370 1.350 . S
C1374 C1371 1.463 . S
C1374 N1378 1.427 . S
C1375 H1365 0.929 . S
C1375 C1373 1.433 . S
C1375 N1378 1.384 . S
C1376 H1367 0.929 . S
C1376 C1368 1.378 . S
C1376 C1371 1.350 . S
C1377 H1364 0.929 . S
C1377 C1369 1.433 . S
C1377 N1379 1.384 . S
N1378 C1374 1.427 . S
N1378 C1375 1.384 . S
N1379 C1371 1.427 . S
N1379 C1377 1.384 . S
H1380 C1386 0.930 . S
H1381 C1390 0.930 . S
H1382 C1395 0.929 . S
H1383 C1393 0.929 . S
H1384 C1388 0.929 . S
H1385 C1394 0.929 . S
C1386 H1380 0.930 . S
C1386 C1387 1.367 . S
C1386 C1394 1.378 . S
C1387 C1386 1.367 . S
C1387 C1395 1.433 . S
C1388 H1384 0.929 . S
C1388 C1390 1.378 . S
C1388 C1392 1.350 . S
C1389 C1392 1.463 1_545 S
C1389 C1394 1.350 . S
C1389 N1397 1.427 . S
C1390 H1381 0.930 . S
C1390 C1388 1.378 . S
C1390 C1391 1.367 . S
C1391 C1390 1.367 . S
C1391 C1393 1.433 . S
C1392 C1388 1.350 . S
C1392 C1389 1.463 1_565 S
C1392 N1396 1.427 . S
C1393 H1383 0.929 . S
C1393 C1391 1.433 . S
C1393 N1396 1.384 . S
C1394 H1385 0.929 . S
C1394 C1386 1.378 . S
C1394 C1389 1.350 . S
C1395 H1382 0.929 . S
C1395 C1387 1.433 . S
C1395 N1397 1.384 . S
N1396 C1392 1.427 . S
N1396 C1393 1.384 . S
N1397 C1389 1.427 . S
N1397 C1395 1.384 . S
H1398 C1404 0.930 . S
H1399 C1408 0.930 . S
H1400 C1413 0.929 . S
H1401 C1411 0.929 . S
H1402 C1406 0.929 . S
H1403 C1412 0.929 . S
C1404 H1398 0.930 . S
C1404 C1405 1.367 . S
C1404 C1412 1.378 . S
C1405 C1404 1.367 . S
C1405 C1413 1.433 1_554 S
C1406 H1402 0.929 . S
C1406 C1408 1.378 . S
C1406 C1410 1.350 . S
C1407 C1410 1.463 1_554 S
C1407 C1412 1.350 . S
C1407 N1415 1.427 1_554 S
C1408 H1399 0.930 . S
C1408 C1406 1.378 . S
C1408 C1409 1.367 . S
C1409 C1408 1.367 . S
C1409 C1411 1.433 1_556 S
C1410 C1406 1.350 . S
C1410 C1407 1.463 1_556 S
C1410 N1414 1.427 1_556 S
C1411 H1401 0.929 . S
C1411 C1409 1.433 1_554 S
C1411 N1414 1.384 . S
C1412 H1403 0.929 . S
C1412 C1404 1.378 . S
C1412 C1407 1.350 . S
C1413 H1400 0.929 . S
C1413 C1405 1.433 1_556 S
C1413 N1415 1.384 . S
N1414 C1410 1.427 1_554 S
N1414 C1411 1.384 . S
N1415 C1407 1.427 1_556 S
N1415 C1413 1.384 . S
H1416 C1422 0.930 . S
H1417 C1426 0.930 . S
H1418 C1431 0.929 . S
H1419 C1429 0.929 . S
H1420 C1424 0.929 . S
H1421 C1430 0.929 . S
C1422 H1416 0.930 . S
C1422 C1423 1.367 . S
C1422 C1430 1.378 . S
C1423 C1422 1.367 . S
C1423 C1431 1.433 . S
C1424 H1420 0.929 . S
C1424 C1426 1.378 . S
C1424 C1428 1.350 . S
C1425 C1428 1.463 1_545 S
C1425 C1430 1.350 . S
C1425 N1433 1.427 . S
C1426 H1417 0.930 . S
C1426 C1424 1.378 . S
C1426 C1427 1.367 . S
C1427 C1426 1.367 . S
C1427 C1429 1.433 . S
C1428 C1424 1.350 . S
C1428 C1425 1.463 1_565 S
C1428 N1432 1.427 . S
C1429 H1419 0.929 . S
C1429 C1427 1.433 . S
C1429 N1432 1.384 . S
C1430 H1421 0.929 . S
C1430 C1422 1.378 . S
C1430 C1425 1.350 . S
C1431 H1418 0.929 . S
C1431 C1423 1.433 . S
C1431 N1433 1.384 . S
N1432 C1428 1.427 . S
N1432 C1429 1.384 . S
N1433 C1425 1.427 . S
N1433 C1431 1.384 . S
H1434 C1440 0.930 . S
H1435 C1444 0.930 . S
H1436 C1449 0.929 . S
H1437 C1447 0.929 . S
H1438 C1442 0.929 . S
H1439 C1448 0.929 . S
C1440 H1434 0.930 . S
C1440 C1441 1.367 . S
C1440 C1448 1.378 . S
C1441 C1440 1.367 . S
C1441 C1449 1.433 . S
C1442 H1438 0.929 . S
C1442 C1444 1.378 . S
C1442 C1446 1.350 . S
C1443 C1446 1.463 . S
C1443 C1448 1.350 . S
C1443 N1451 1.427 . S
C1444 H1435 0.930 . S
C1444 C1442 1.378 . S
C1444 C1445 1.367 . S
C1445 C1444 1.367 . S
C1445 C1447 1.433 . S
C1446 C1442 1.350 . S
C1446 C1443 1.463 . S
C1446 N1450 1.427 . S
C1447 H1437 0.929 . S
C1447 C1445 1.433 . S
C1447 N1450 1.384 . S
C1448 H1439 0.929 . S
C1448 C1440 1.378 . S
C1448 C1443 1.350 . S
C1449 H1436 0.929 . S
C1449 C1441 1.433 . S
C1449 N1451 1.384 . S
N1450 C1446 1.427 . S
N1450 C1447 1.384 . S
N1451 C1443 1.427 . S
N1451 C1449 1.384 . S
H1452 C1458 0.930 . S
H1453 C1462 0.930 . S
H1454 C1467 0.929 . S
H1455 C1465 0.929 . S
H1456 C1460 0.929 . S
H1457 C1466 0.929 . S
C1458 H1452 0.930 . S
C1458 C1459 1.367 . S
C1458 C1466 1.378 . S
C1459 C1458 1.367 . S
C1459 C1467 1.433 . S
C1460 H1456 0.929 . S
C1460 C1462 1.378 . S
C1460 C1464 1.350 . S
C1461 C1464 1.463 1_545 S
C1461 C1466 1.350 . S
C1461 N1469 1.427 . S
C1462 H1453 0.930 . S
C1462 C1460 1.378 . S
C1462 C1463 1.367 . S
C1463 C1462 1.367 . S
C1463 C1465 1.433 . S
C1464 C1460 1.350 . S
C1464 C1461 1.463 1_565 S
C1464 N1468 1.427 . S
C1465 H1455 0.929 . S
C1465 C1463 1.433 . S
C1465 N1468 1.384 . S
C1466 H1457 0.929 . S
C1466 C1458 1.378 . S
C1466 C1461 1.350 . S
C1467 H1454 0.929 . S
C1467 C1459 1.433 . S
C1467 N1469 1.384 . S
N1468 C1464 1.427 . S
N1468 C1465 1.384 . S
N1469 C1461 1.427 . S
N1469 C1467 1.384 . S
H1470 C1476 0.930 . S
H1471 C1480 0.930 . S
H1472 C1485 0.929 . S
H1473 C1483 0.929 . S
H1474 C1478 0.929 1_554 S
H1475 C1484 0.929 1_556 S
C1476 H1470 0.930 . S
C1476 C1477 1.367 . S
C1476 C1484 1.378 . S
C1477 C1476 1.367 . S
C1477 C1485 1.433 . S
C1478 H1474 0.929 1_556 S
C1478 C1480 1.378 . S
C1478 C1482 1.350 . S
C1479 C1482 1.463 1_554 S
C1479 C1484 1.350 . S
C1479 N1487 1.427 . S
C1480 H1471 0.930 . S
C1480 C1478 1.378 . S
C1480 C1481 1.367 . S
C1481 C1480 1.367 . S
C1481 C1483 1.433 . S
C1482 C1478 1.350 . S
C1482 C1479 1.463 1_556 S
C1482 N1486 1.427 . S
C1483 H1473 0.929 . S
C1483 C1481 1.433 . S
C1483 N1486 1.384 . S
C1484 H1475 0.929 1_554 S
C1484 C1476 1.378 . S
C1484 C1479 1.350 . S
C1485 H1472 0.929 . S
C1485 C1477 1.433 . S
C1485 N1487 1.384 . S
N1486 C1482 1.427 . S
N1486 C1483 1.384 . S
N1487 C1479 1.427 . S
N1487 C1485 1.384 . S
H1488 C1494 0.930 . S
H1489 C1498 0.930 . S
H1490 C1503 0.929 . S
H1491 C1501 0.929 . S
H1492 C1496 0.929 . S
H1493 C1502 0.929 . S
C1494 H1488 0.930 . S
C1494 C1495 1.367 . S
C1494 C1502 1.378 . S
C1495 C1494 1.367 . S
C1495 C1503 1.433 . S
C1496 H1492 0.929 . S
C1496 C1498 1.378 . S
C1496 C1500 1.350 . S
C1497 C1500 1.463 . S
C1497 C1502 1.350 . S
C1497 N1505 1.427 . S
C1498 H1489 0.930 . S
C1498 C1496 1.378 . S
C1498 C1499 1.367 . S
C1499 C1498 1.367 . S
C1499 C1501 1.433 . S
C1500 C1496 1.350 . S
C1500 C1497 1.463 . S
C1500 N1504 1.427 . S
C1501 H1491 0.929 . S
C1501 C1499 1.433 . S
C1501 N1504 1.384 . S
C1502 H1493 0.929 . S
C1502 C1494 1.378 . S
C1502 C1497 1.350 . S
C1503 H1490 0.929 . S
C1503 C1495 1.433 . S
C1503 N1505 1.384 . S
N1504 C1500 1.427 . S
N1504 C1501 1.384 . S
N1505 C1497 1.427 . S
N1505 C1503 1.384 . S
H1506 C1512 0.930 . S
H1507 C1516 0.930 . S
H1508 C1521 0.929 . S
H1509 C1519 0.929 . S
H1510 C1514 0.929 . S
H1511 C1520 0.929 . S
C1512 H1506 0.930 . S
C1512 C1513 1.367 . S
C1512 C1520 1.378 . S
C1513 C1512 1.367 . S
C1513 C1521 1.433 1_556 S
C1514 H1510 0.929 . S
C1514 C1516 1.378 . S
C1514 C1518 1.350 . S
C1515 C1518 1.463 1_556 S
C1515 C1520 1.350 . S
C1515 N1523 1.427 1_556 S
C1516 H1507 0.930 . S
C1516 C1514 1.378 . S
C1516 C1517 1.367 . S
C1517 C1516 1.367 . S
C1517 C1519 1.433 1_554 S
C1518 C1514 1.350 . S
C1518 C1515 1.463 1_554 S
C1518 N1522 1.427 1_554 S
C1519 H1509 0.929 . S
C1519 C1517 1.433 1_556 S
C1519 N1522 1.384 . S
C1520 H1511 0.929 . S
C1520 C1512 1.378 . S
C1520 C1515 1.350 . S
C1521 H1508 0.929 . S
C1521 C1513 1.433 1_554 S
C1521 N1523 1.384 . S
N1522 C1518 1.427 1_556 S
N1522 C1519 1.384 . S
N1523 C1515 1.427 1_554 S
N1523 C1521 1.384 . S
H1524 C1530 0.930 . S
H1525 C1534 0.930 . S
H1526 C1539 0.929 . S
H1527 C1537 0.929 . S
H1528 C1532 0.929 . S
H1529 C1538 0.929 . S
C1530 H1524 0.930 . S
C1530 C1531 1.367 . S
C1530 C1538 1.378 . S
C1531 C1530 1.367 . S
C1531 C1539 1.433 . S
C1532 H1528 0.929 . S
C1532 C1534 1.378 . S
C1532 C1536 1.350 . S
C1533 C1536 1.463 . S
C1533 C1538 1.350 . S
C1533 N1541 1.427 . S
C1534 H1525 0.930 . S
C1534 C1532 1.378 . S
C1534 C1535 1.367 . S
C1535 C1534 1.367 . S
C1535 C1537 1.433 . S
C1536 C1532 1.350 . S
C1536 C1533 1.463 . S
C1536 N1540 1.427 . S
C1537 H1527 0.929 . S
C1537 C1535 1.433 . S
C1537 N1540 1.384 . S
C1538 H1529 0.929 . S
C1538 C1530 1.378 . S
C1538 C1533 1.350 . S
C1539 H1526 0.929 . S
C1539 C1531 1.433 . S
C1539 N1541 1.384 . S
N1540 C1536 1.427 . S
N1540 C1537 1.384 . S
N1541 C1533 1.427 . S
N1541 C1539 1.384 . S
H1542 C1548 0.930 . S
H1543 C1552 0.930 . S
H1544 C1557 0.929 . S
H1545 C1555 0.929 . S
H1546 C1550 0.929 . S
H1547 C1556 0.929 . S
C1548 H1542 0.930 . S
C1548 C1549 1.367 . S
C1548 C1556 1.378 . S
C1549 C1548 1.367 . S
C1549 C1557 1.433 . S
C1550 H1546 0.929 . S
C1550 C1552 1.378 . S
C1550 C1554 1.350 . S
C1551 C1554 1.463 . S
C1551 C1556 1.350 . S
C1551 N1559 1.427 . S
C1552 H1543 0.930 . S
C1552 C1550 1.378 . S
C1552 C1553 1.367 . S
C1553 C1552 1.367 . S
C1553 C1555 1.433 . S
C1554 C1550 1.350 . S
C1554 C1551 1.463 . S
C1554 N1558 1.427 . S
C1555 H1545 0.929 . S
C1555 C1553 1.433 . S
C1555 N1558 1.384 . S
C1556 H1547 0.929 . S
C1556 C1548 1.378 . S
C1556 C1551 1.350 . S
C1557 H1544 0.929 . S
C1557 C1549 1.433 . S
C1557 N1559 1.384 . S
N1558 C1554 1.427 . S
N1558 C1555 1.384 . S
N1559 C1551 1.427 . S
N1559 C1557 1.384 . S
H1560 C1566 0.930 . S
H1561 C1570 0.930 . S
H1562 C1575 0.929 . S
H1563 C1573 0.929 . S
H1564 C1568 0.929 . S
H1565 C1574 0.929 . S
C1566 H1560 0.930 . S
C1566 C1567 1.367 . S
C1566 C1574 1.378 . S
C1567 C1566 1.367 . S
C1567 C1575 1.433 . S
C1568 H1564 0.929 . S
C1568 C1570 1.378 . S
C1568 C1572 1.350 . S
C1569 C1572 1.463 . S
C1569 C1574 1.350 . S
C1569 N1577 1.427 . S
C1570 H1561 0.930 . S
C1570 C1568 1.378 . S
C1570 C1571 1.367 . S
C1571 C1570 1.367 . S
C1571 C1573 1.433 . S
C1572 C1568 1.350 . S
C1572 C1569 1.463 . S
C1572 N1576 1.427 . S
C1573 H1563 0.929 . S
C1573 C1571 1.433 . S
C1573 N1576 1.384 . S
C1574 H1565 0.929 . S
C1574 C1566 1.378 . S
C1574 C1569 1.350 . S
C1575 H1562 0.929 . S
C1575 C1567 1.433 . S
C1575 N1577 1.384 . S
N1576 C1572 1.427 . S
N1576 C1573 1.384 . S
N1577 C1569 1.427 . S
N1577 C1575 1.384 . S
H1578 C1584 0.930 . S
H1579 C1588 0.930 . S
H1580 C1593 0.929 . S
H1581 C1591 0.929 . S
H1582 C1586 0.929 . S
H1583 C1592 0.929 . S
C1584 H1578 0.930 . S
C1584 C1585 1.367 . S
C1584 C1592 1.378 . S
C1585 C1584 1.367 . S
C1585 C1593 1.433 . S
C1586 H1582 0.929 . S
C1586 C1588 1.378 . S
C1586 C1590 1.350 . S
C1587 C1590 1.463 1_556 S
C1587 C1592 1.350 . S
C1587 N1595 1.430 . S
C1588 H1579 0.930 . S
C1588 C1586 1.378 . S
C1588 C1589 1.367 . S
C1589 C1588 1.367 . S
C1589 C1591 1.433 . S
C1590 C1586 1.350 . S
C1590 C1587 1.463 1_554 S
C1590 N1594 1.430 . S
C1591 H1581 0.929 . S
C1591 C1589 1.433 . S
C1591 N1594 1.391 . S
C1592 H1583 0.929 . S
C1592 C1584 1.378 . S
C1592 C1587 1.350 . S
C1593 H1580 0.929 . S
C1593 C1585 1.433 . S
C1593 N1595 1.391 . S
N1594 C1590 1.430 . S
N1594 C1591 1.391 . S
N1595 C1587 1.430 . S
N1595 C1593 1.391 . S
H1596 C1602 0.930 . S
H1597 C1606 0.930 . S
H1598 C1611 0.929 . S
H1599 C1609 0.929 . S
H1600 C1604 0.929 . S
H1601 C1610 0.929 . S
C1602 H1596 0.930 . S
C1602 C1603 1.367 . S
C1602 C1610 1.378 . S
C1603 C1602 1.367 . S
C1603 C1611 1.433 . S
C1604 H1600 0.929 . S
C1604 C1606 1.378 . S
C1604 C1608 1.350 . S
C1605 C1608 1.463 . S
C1605 C1610 1.350 . S
C1605 N1613 1.427 . S
C1606 H1597 0.930 . S
C1606 C1604 1.378 . S
C1606 C1607 1.367 . S
C1607 C1606 1.367 . S
C1607 C1609 1.433 . S
C1608 C1604 1.350 . S
C1608 C1605 1.463 . S
C1608 N1612 1.427 . S
C1609 H1599 0.929 . S
C1609 C1607 1.433 . S
C1609 N1612 1.384 . S
C1610 H1601 0.929 . S
C1610 C1602 1.378 . S
C1610 C1605 1.350 . S
C1611 H1598 0.929 . S
C1611 C1603 1.433 . S
C1611 N1613 1.384 . S
N1612 C1608 1.427 . S
N1612 C1609 1.384 . S
N1613 C1605 1.427 . S
N1613 C1611 1.384 . S
H1614 C1620 0.930 . S
H1615 C1624 0.930 . S
H1616 C1629 0.929 . S
H1617 C1627 0.929 . S
H1618 C1622 0.929 . S
H1619 C1628 0.929 . S
C1620 H1614 0.930 . S
C1620 C1621 1.367 . S
C1620 C1628 1.378 . S
C1621 C1620 1.367 . S
C1621 C1629 1.433 . S
C1622 H1618 0.929 . S
C1622 C1624 1.378 . S
C1622 C1626 1.350 . S
C1623 C1626 1.463 . S
C1623 C1628 1.350 . S
C1623 N1631 1.427 . S
C1624 H1615 0.930 . S
C1624 C1622 1.378 . S
C1624 C1625 1.367 . S
C1625 C1624 1.367 . S
C1625 C1627 1.433 . S
C1626 C1622 1.350 . S
C1626 C1623 1.463 . S
C1626 N1630 1.427 . S
C1627 H1617 0.929 . S
C1627 C1625 1.433 . S
C1627 N1630 1.384 . S
C1628 H1619 0.929 . S
C1628 C1620 1.378 . S
C1628 C1623 1.350 . S
C1629 H1616 0.929 . S
C1629 C1621 1.433 . S
C1629 N1631 1.384 . S
N1630 C1626 1.427 . S
N1630 C1627 1.384 . S
N1631 C1623 1.427 . S
N1631 C1629 1.384 . S
H1632 C1638 0.930 . S
H1633 C1642 0.930 . S
H1634 C1647 0.929 . S
H1635 C1645 0.929 . S
H1636 C1640 0.929 . S
H1637 C1646 0.929 . S
C1638 H1632 0.930 . S
C1638 C1639 1.367 1_455 S
C1638 C1646 1.378 . S
C1639 C1638 1.367 1_655 S
C1639 C1647 1.433 . S
C1640 H1636 0.929 . S
C1640 C1642 1.378 . S
C1640 C1644 1.350 1_655 S
C1641 C1644 1.463 1_655 S
C1641 C1646 1.350 1_655 S
C1641 N1649 1.427 . S
C1642 H1633 0.930 . S
C1642 C1640 1.378 . S
C1642 C1643 1.367 1_655 S
C1643 C1642 1.367 1_455 S
C1643 C1645 1.433 . S
C1644 C1640 1.350 1_455 S
C1644 C1641 1.463 1_455 S
C1644 N1648 1.427 . S
C1645 H1635 0.929 . S
C1645 C1643 1.433 . S
C1645 N1648 1.384 . S
C1646 H1637 0.929 . S
C1646 C1638 1.378 . S
C1646 C1641 1.350 1_455 S
C1647 H1634 0.929 . S
C1647 C1639 1.433 . S
C1647 N1649 1.384 . S
N1648 C1644 1.427 . S
N1648 C1645 1.384 . S
N1649 C1641 1.427 . S
N1649 C1647 1.384 . S
H1650 C1656 0.930 . S
H1651 C1660 0.930 . S
H1652 C1665 0.929 . S
H1653 C1663 0.929 . S
H1654 C1658 0.929 . S
H1655 C1664 0.929 . S
C1656 H1650 0.930 . S
C1656 C1657 1.367 . S
C1656 C1664 1.378 . S
C1657 C1656 1.367 . S
C1657 C1665 1.433 . S
C1658 H1654 0.929 . S
C1658 C1660 1.378 . S
C1658 C1662 1.350 . S
C1659 C1662 1.463 1_455 S
C1659 C1664 1.350 . S
C1659 N1667 1.427 . S
C1660 H1651 0.930 . S
C1660 C1658 1.378 . S
C1660 C1661 1.367 . S
C1661 C1660 1.367 . S
C1661 C1663 1.433 . S
C1662 C1658 1.350 . S
C1662 C1659 1.463 1_655 S
C1662 N1666 1.427 . S
C1663 H1653 0.929 . S
C1663 C1661 1.433 . S
C1663 N1666 1.384 . S
C1664 H1655 0.929 . S
C1664 C1656 1.378 . S
C1664 C1659 1.350 . S
C1665 H1652 0.929 . S
C1665 C1657 1.433 . S
C1665 N1667 1.384 . S
N1666 C1662 1.427 . S
N1666 C1663 1.384 . S
N1667 C1659 1.427 . S
N1667 C1665 1.384 . S
H1668 C1674 0.930 . S
H1669 C1678 0.930 . S
H1670 C1683 0.929 . S
H1671 C1681 0.929 . S
H1672 C1676 0.929 . S
H1673 C1682 0.929 . S
C1674 H1668 0.930 . S
C1674 C1675 1.367 . S
C1674 C1682 1.378 . S
C1675 C1674 1.367 . S
C1675 C1683 1.433 . S
C1676 H1672 0.929 . S
C1676 C1678 1.378 . S
C1676 C1680 1.350 . S
C1677 C1680 1.463 . S
C1677 C1682 1.350 . S
C1677 N1685 1.427 . S
C1678 H1669 0.930 . S
C1678 C1676 1.378 . S
C1678 C1679 1.367 . S
C1679 C1678 1.367 . S
C1679 C1681 1.433 . S
C1680 C1676 1.350 . S
C1680 C1677 1.463 . S
C1680 N1684 1.427 . S
C1681 H1671 0.929 . S
C1681 C1679 1.433 . S
C1681 N1684 1.384 . S
C1682 H1673 0.929 . S
C1682 C1674 1.378 . S
C1682 C1677 1.350 . S
C1683 H1670 0.929 . S
C1683 C1675 1.433 . S
C1683 N1685 1.384 . S
N1684 C1680 1.427 . S
N1684 C1681 1.384 . S
N1685 C1677 1.427 . S
N1685 C1683 1.384 . S
H1686 C1692 0.930 . S
H1687 C1696 0.930 . S
H1688 C1701 0.929 . S
H1689 C1699 0.929 . S
H1690 C1694 0.929 . S
H1691 C1700 0.929 . S
C1692 H1686 0.930 . S
C1692 C1693 1.367 . S
C1692 C1700 1.378 . S
C1693 C1692 1.367 . S
C1693 C1701 1.433 . S
C1694 H1690 0.929 . S
C1694 C1696 1.378 . S
C1694 C1698 1.350 . S
C1695 C1698 1.463 . S
C1695 C1700 1.350 . S
C1695 N1703 1.427 . S
C1696 H1687 0.930 . S
C1696 C1694 1.378 . S
C1696 C1697 1.367 . S
C1697 C1696 1.367 . S
C1697 C1699 1.433 . S
C1698 C1694 1.350 . S
C1698 C1695 1.463 . S
C1698 N1702 1.427 . S
C1699 H1689 0.929 . S
C1699 C1697 1.433 . S
C1699 N1702 1.384 . S
C1700 H1691 0.929 . S
C1700 C1692 1.378 . S
C1700 C1695 1.350 . S
C1701 H1688 0.929 . S
C1701 C1693 1.433 . S
C1701 N1703 1.384 . S
N1702 C1698 1.427 . S
N1702 C1699 1.384 . S
N1703 C1695 1.427 . S
N1703 C1701 1.384 . S
H1704 C1710 0.930 . S
H1705 C1714 0.930 . S
H1706 C1719 0.929 . S
H1707 C1717 0.929 . S
H1708 C1712 0.929 . S
H1709 C1718 0.929 . S
C1710 H1704 0.930 . S
C1710 C1711 1.367 1_455 S
C1710 C1718 1.378 . S
C1711 C1710 1.367 1_655 S
C1711 C1719 1.433 . S
C1712 H1708 0.929 . S
C1712 C1714 1.378 . S
C1712 C1716 1.350 1_655 S
C1713 C1716 1.463 1_655 S
C1713 C1718 1.350 1_655 S
C1713 N1721 1.427 . S
C1714 H1705 0.930 . S
C1714 C1712 1.378 . S
C1714 C1715 1.367 1_655 S
C1715 C1714 1.367 1_455 S
C1715 C1717 1.433 . S
C1716 C1712 1.350 1_455 S
C1716 C1713 1.463 1_455 S
C1716 N1720 1.427 . S
C1717 H1707 0.929 . S
C1717 C1715 1.433 . S
C1717 N1720 1.384 . S
C1718 H1709 0.929 . S
C1718 C1710 1.378 . S
C1718 C1713 1.350 1_455 S
C1719 H1706 0.929 . S
C1719 C1711 1.433 . S
C1719 N1721 1.384 . S
N1720 C1716 1.427 . S
N1720 C1717 1.384 . S
N1721 C1713 1.427 . S
N1721 C1719 1.384 . S
H1722 C1728 0.930 . S
H1723 C1732 0.930 . S
H1724 C1737 0.929 . S
H1725 C1735 0.929 . S
H1726 C1730 0.929 . S
H1727 C1736 0.929 . S
C1728 H1722 0.930 . S
C1728 C1729 1.367 . S
C1728 C1736 1.378 . S
C1729 C1728 1.367 . S
C1729 C1737 1.433 . S
C1730 H1726 0.929 . S
C1730 C1732 1.378 . S
C1730 C1734 1.350 . S
C1731 C1734 1.463 . S
C1731 C1736 1.350 . S
C1731 N1739 1.427 . S
C1732 H1723 0.930 . S
C1732 C1730 1.378 . S
C1732 C1733 1.367 . S
C1733 C1732 1.367 . S
C1733 C1735 1.433 . S
C1734 C1730 1.350 . S
C1734 C1731 1.463 . S
C1734 N1738 1.427 . S
C1735 H1725 0.929 . S
C1735 C1733 1.433 . S
C1735 N1738 1.384 . S
C1736 H1727 0.929 . S
C1736 C1728 1.378 . S
C1736 C1731 1.350 . S
C1737 H1724 0.929 . S
C1737 C1729 1.433 . S
C1737 N1739 1.384 . S
N1738 C1734 1.427 . S
N1738 C1735 1.384 . S
N1739 C1731 1.427 . S
N1739 C1737 1.384 . S
H1740 C1746 0.930 . S
H1741 C1750 0.930 . S
H1742 C1755 0.929 . S
H1743 C1753 0.929 . S
H1744 C1748 0.929 . S
H1745 C1754 0.929 . S
C1746 H1740 0.930 . S
C1746 C1747 1.367 . S
C1746 C1754 1.378 . S
C1747 C1746 1.367 . S
C1747 C1755 1.433 . S
C1748 H1744 0.929 . S
C1748 C1750 1.378 . S
C1748 C1752 1.350 . S
C1749 C1752 1.463 . S
C1749 C1754 1.350 . S
C1749 N1757 1.427 . S
C1750 H1741 0.930 . S
C1750 C1748 1.378 . S
C1750 C1751 1.367 . S
C1751 C1750 1.367 . S
C1751 C1753 1.433 . S
C1752 C1748 1.350 . S
C1752 C1749 1.463 . S
C1752 N1756 1.427 . S
C1753 H1743 0.929 . S
C1753 C1751 1.433 . S
C1753 N1756 1.384 . S
C1754 H1745 0.929 . S
C1754 C1746 1.378 . S
C1754 C1749 1.350 . S
C1755 H1742 0.929 . S
C1755 C1747 1.433 . S
C1755 N1757 1.384 . S
N1756 C1752 1.427 . S
N1756 C1753 1.384 . S
N1757 C1749 1.427 . S
N1757 C1755 1.384 . S
H1758 C1764 0.930 . S
H1759 C1768 0.930 . S
H1760 C1773 0.929 . S
H1761 C1771 0.929 . S
H1762 C1766 0.929 . S
H1763 C1772 0.929 . S
C1764 H1758 0.930 . S
C1764 C1765 1.367 1_554 S
C1764 C1772 1.378 . S
C1765 C1764 1.367 1_556 S
C1765 C1773 1.433 . S
C1766 H1762 0.929 . S
C1766 C1768 1.378 . S
C1766 C1770 1.350 . S
C1767 C1770 1.463 1_455 S
C1767 C1772 1.350 1_556 S
C1767 N1775 1.427 . S
C1768 H1759 0.930 . S
C1768 C1766 1.378 . S
C1768 C1769 1.367 . S
C1769 C1768 1.367 . S
C1769 C1771 1.433 1_556 S
C1770 C1766 1.350 . S
C1770 C1767 1.463 1_655 S
C1770 N1774 1.427 1_556 S
C1771 H1761 0.929 . S
C1771 C1769 1.433 1_554 S
C1771 N1774 1.384 . S
C1772 H1763 0.929 . S
C1772 C1764 1.378 . S
C1772 C1767 1.350 1_554 S
C1773 H1760 0.929 . S
C1773 C1765 1.433 . S
C1773 N1775 1.384 . S
N1774 C1770 1.427 1_554 S
N1774 C1771 1.384 . S
N1775 C1767 1.427 . S
N1775 C1773 1.384 . S
H1776 C1782 0.930 . S
H1777 C1786 0.930 . S
H1778 C1791 0.929 . S
H1779 C1789 0.929 . S
H1780 C1784 0.929 . S
H1781 C1790 0.929 . S
C1782 H1776 0.930 . S
C1782 C1783 1.367 . S
C1782 C1790 1.378 . S
C1783 C1782 1.367 . S
C1783 C1791 1.433 1_655 S
C1784 H1780 0.929 . S
C1784 C1786 1.378 . S
C1784 C1788 1.350 . S
C1785 C1788 1.463 1_655 S
C1785 C1790 1.350 . S
C1785 N1793 1.427 1_655 S
C1786 H1777 0.930 . S
C1786 C1784 1.378 . S
C1786 C1787 1.367 . S
C1787 C1786 1.367 . S
C1787 C1789 1.433 1_455 S
C1788 C1784 1.350 . S
C1788 C1785 1.463 1_455 S
C1788 N1792 1.427 1_455 S
C1789 H1779 0.929 . S
C1789 C1787 1.433 1_655 S
C1789 N1792 1.384 . S
C1790 H1781 0.929 . S
C1790 C1782 1.378 . S
C1790 C1785 1.350 . S
C1791 H1778 0.929 . S
C1791 C1783 1.433 1_455 S
C1791 N1793 1.384 . S
N1792 C1788 1.427 1_655 S
N1792 C1789 1.384 . S
N1793 C1785 1.427 1_455 S
N1793 C1791 1.384 . S
H1794 C1800 0.930 . S
H1795 C1804 0.930 . S
H1796 C1809 0.929 . S
H1797 C1807 0.929 . S
H1798 C1802 0.929 . S
H1799 C1808 0.929 . S
C1800 H1794 0.930 . S
C1800 C1801 1.367 . S
C1800 C1808 1.378 . S
C1801 C1800 1.367 . S
C1801 C1809 1.433 . S
C1802 H1798 0.929 . S
C1802 C1804 1.378 . S
C1802 C1806 1.350 . S
C1803 C1806 1.463 1_655 S
C1803 C1808 1.350 . S
C1803 N1811 1.427 . S
C1804 H1795 0.930 . S
C1804 C1802 1.378 . S
C1804 C1805 1.367 . S
C1805 C1804 1.367 . S
C1805 C1807 1.433 . S
C1806 C1802 1.350 . S
C1806 C1803 1.463 1_455 S
C1806 N1810 1.427 . S
C1807 H1797 0.929 . S
C1807 C1805 1.433 . S
C1807 N1810 1.384 . S
C1808 H1799 0.929 . S
C1808 C1800 1.378 . S
C1808 C1803 1.350 . S
C1809 H1796 0.929 . S
C1809 C1801 1.433 . S
C1809 N1811 1.384 . S
N1810 C1806 1.427 . S
N1810 C1807 1.384 . S
N1811 C1803 1.427 . S
N1811 C1809 1.384 . S
H1812 C1818 0.930 . S
H1813 C1822 0.930 . S
H1814 C1827 0.929 . S
H1815 C1825 0.929 . S
H1816 C1820 0.929 . S
H1817 C1826 0.929 . S
C1818 H1812 0.930 . S
C1818 C1819 1.367 . S
C1818 C1826 1.378 . S
C1819 C1818 1.367 . S
C1819 C1827 1.433 . S
C1820 H1816 0.929 . S
C1820 C1822 1.378 . S
C1820 C1824 1.350 . S
C1821 C1824 1.463 . S
C1821 C1826 1.350 . S
C1821 N1829 1.427 . S
C1822 H1813 0.930 . S
C1822 C1820 1.378 . S
C1822 C1823 1.367 . S
C1823 C1822 1.367 . S
C1823 C1825 1.433 . S
C1824 C1820 1.350 . S
C1824 C1821 1.463 . S
C1824 N1828 1.427 . S
C1825 H1815 0.929 . S
C1825 C1823 1.433 . S
C1825 N1828 1.384 . S
C1826 H1817 0.929 . S
C1826 C1818 1.378 . S
C1826 C1821 1.350 . S
C1827 H1814 0.929 . S
C1827 C1819 1.433 . S
C1827 N1829 1.384 . S
N1828 C1824 1.427 . S
N1828 C1825 1.384 . S
N1829 C1821 1.427 . S
N1829 C1827 1.384 . S
H1830 C1836 0.930 . S
H1831 C1840 0.930 . S
H1832 C1845 0.929 . S
H1833 C1843 0.929 . S
H1834 C1838 0.929 . S
H1835 C1844 0.929 . S
C1836 H1830 0.930 . S
C1836 C1837 1.367 1_554 S
C1836 C1844 1.378 . S
C1837 C1836 1.367 1_556 S
C1837 C1845 1.433 . S
C1838 H1834 0.929 . S
C1838 C1840 1.378 . S
C1838 C1842 1.350 . S
C1839 C1842 1.463 . S
C1839 C1844 1.350 1_556 S
C1839 N1847 1.427 . S
C1840 H1831 0.930 . S
C1840 C1838 1.378 . S
C1840 C1841 1.367 . S
C1841 C1840 1.367 . S
C1841 C1843 1.433 1_556 S
C1842 C1838 1.350 . S
C1842 C1839 1.463 . S
C1842 N1846 1.427 1_556 S
C1843 H1833 0.929 . S
C1843 C1841 1.433 1_554 S
C1843 N1846 1.384 . S
C1844 H1835 0.929 . S
C1844 C1836 1.378 . S
C1844 C1839 1.350 1_554 S
C1845 H1832 0.929 . S
C1845 C1837 1.433 . S
C1845 N1847 1.384 . S
N1846 C1842 1.427 1_554 S
N1846 C1843 1.384 . S
N1847 C1839 1.427 . S
N1847 C1845 1.384 . S
H1848 C1854 0.930 . S
H1849 C1858 0.930 . S
H1850 C1863 0.929 . S
H1851 C1861 0.929 . S
H1852 C1856 0.929 . S
H1853 C1862 0.929 . S
C1854 H1848 0.930 . S
C1854 C1855 1.367 . S
C1854 C1862 1.378 1_655 S
C1855 C1854 1.367 . S
C1855 C1863 1.433 . S
C1856 H1852 0.929 . S
C1856 C1858 1.378 1_655 S
C1856 C1860 1.350 1_655 S
C1857 C1860 1.463 1_655 S
C1857 C1862 1.350 1_655 S
C1857 N1865 1.427 . S
C1858 H1849 0.930 . S
C1858 C1856 1.378 1_455 S
C1858 C1859 1.367 . S
C1859 C1858 1.367 . S
C1859 C1861 1.433 . S
C1860 C1856 1.350 1_455 S
C1860 C1857 1.463 1_455 S
C1860 N1864 1.427 . S
C1861 H1851 0.929 . S
C1861 C1859 1.433 . S
C1861 N1864 1.384 . S
C1862 H1853 0.929 . S
C1862 C1854 1.378 1_455 S
C1862 C1857 1.350 1_455 S
C1863 H1850 0.929 . S
C1863 C1855 1.433 . S
C1863 N1865 1.384 . S
N1864 C1860 1.427 . S
N1864 C1861 1.384 . S
N1865 C1857 1.427 . S
N1865 C1863 1.384 . S
H1866 C1872 0.930 . S
H1867 C1876 0.930 . S
H1868 C1881 0.929 . S
H1869 C1879 0.929 . S
H1870 C1874 0.929 . S
H1871 C1880 0.929 . S
C1872 H1866 0.930 . S
C1872 C1873 1.367 . S
C1872 C1880 1.378 . S
C1873 C1872 1.367 . S
C1873 C1881 1.433 . S
C1874 H1870 0.929 . S
C1874 C1876 1.378 . S
C1874 C1878 1.350 . S
C1875 C1878 1.463 . S
C1875 C1880 1.350 . S
C1875 N1883 1.427 . S
C1876 H1867 0.930 . S
C1876 C1874 1.378 . S
C1876 C1877 1.367 . S
C1877 C1876 1.367 . S
C1877 C1879 1.433 . S
C1878 C1874 1.350 . S
C1878 C1875 1.463 . S
C1878 N1882 1.427 . S
C1879 H1869 0.929 . S
C1879 C1877 1.433 . S
C1879 N1882 1.384 . S
C1880 H1871 0.929 . S
C1880 C1872 1.378 . S
C1880 C1875 1.350 . S
C1881 H1868 0.929 . S
C1881 C1873 1.433 . S
C1881 N1883 1.384 . S
N1882 C1878 1.427 . S
N1882 C1879 1.384 . S
N1883 C1875 1.427 . S
N1883 C1881 1.384 . S
H1884 C1890 0.930 . S
H1885 C1894 0.930 . S
H1886 C1899 0.929 . S
H1887 C1897 0.929 . S
H1888 C1892 0.929 . S
H1889 C1898 0.929 . S
C1890 H1884 0.930 . S
C1890 C1891 1.367 . S
C1890 C1898 1.378 . S
C1891 C1890 1.367 . S
C1891 C1899 1.433 . S
C1892 H1888 0.929 . S
C1892 C1894 1.378 . S
C1892 C1896 1.350 . S
C1893 C1896 1.463 . S
C1893 C1898 1.350 . S
C1893 N1901 1.427 . S
C1894 H1885 0.930 . S
C1894 C1892 1.378 . S
C1894 C1895 1.367 . S
C1895 C1894 1.367 . S
C1895 C1897 1.433 . S
C1896 C1892 1.350 . S
C1896 C1893 1.463 . S
C1896 N1900 1.427 . S
C1897 H1887 0.929 . S
C1897 C1895 1.433 . S
C1897 N1900 1.384 . S
C1898 H1889 0.929 . S
C1898 C1890 1.378 . S
C1898 C1893 1.350 . S
C1899 H1886 0.929 . S
C1899 C1891 1.433 . S
C1899 N1901 1.384 . S
N1900 C1896 1.427 . S
N1900 C1897 1.384 . S
N1901 C1893 1.427 . S
N1901 C1899 1.384 . S
H1902 C1908 0.930 . S
H1903 C1912 0.930 . S
H1904 C1917 0.929 . S
H1905 C1915 0.929 . S
H1906 C1910 0.929 . S
H1907 C1916 0.929 . S
C1908 H1902 0.930 . S
C1908 C1909 1.367 . S
C1908 C1916 1.378 . S
C1909 C1908 1.367 . S
C1909 C1917 1.433 1_554 S
C1910 H1906 0.929 . S
C1910 C1912 1.378 . S
C1910 C1914 1.350 1_556 S
C1911 C1914 1.463 1_455 S
C1911 C1916 1.350 . S
C1911 N1919 1.427 1_554 S
C1912 H1903 0.930 . S
C1912 C1910 1.378 . S
C1912 C1913 1.367 1_556 S
C1913 C1912 1.367 1_554 S
C1913 C1915 1.433 . S
C1914 C1910 1.350 1_554 S
C1914 C1911 1.463 1_655 S
C1914 N1918 1.427 . S
C1915 H1905 0.929 . S
C1915 C1913 1.433 . S
C1915 N1918 1.384 . S
C1916 H1907 0.929 . S
C1916 C1908 1.378 . S
C1916 C1911 1.350 . S
C1917 H1904 0.929 . S
C1917 C1909 1.433 1_556 S
C1917 N1919 1.384 . S
N1918 C1914 1.427 . S
N1918 C1915 1.384 . S
N1919 C1911 1.427 1_556 S
N1919 C1917 1.384 . S
H1920 C1926 0.930 . S
H1921 C1930 0.930 . S
H1922 C1935 0.929 . S
H1923 C1933 0.929 . S
H1924 C1928 0.929 . S
H1925 C1934 0.929 . S
C1926 H1920 0.930 . S
C1926 C1927 1.367 . S
C1926 C1934 1.378 . S
C1927 C1926 1.367 . S
C1927 C1935 1.433 . S
C1928 H1924 0.929 . S
C1928 C1930 1.378 . S
C1928 C1932 1.350 . S
C1929 C1932 1.463 . S
C1929 C1934 1.350 . S
C1929 N1937 1.427 . S
C1930 H1921 0.930 . S
C1930 C1928 1.378 . S
C1930 C1931 1.367 . S
C1931 C1930 1.367 . S
C1931 C1933 1.433 . S
C1932 C1928 1.350 . S
C1932 C1929 1.463 . S
C1932 N1936 1.427 . S
C1933 H1923 0.929 . S
C1933 C1931 1.433 . S
C1933 N1936 1.384 . S
C1934 H1925 0.929 . S
C1934 C1926 1.378 . S
C1934 C1929 1.350 . S
C1935 H1922 0.929 . S
C1935 C1927 1.433 . S
C1935 N1937 1.384 . S
N1936 C1932 1.427 . S
N1936 C1933 1.384 . S
N1937 C1929 1.427 . S
N1937 C1935 1.384 . S
H1938 C1944 0.930 . S
H1939 C1948 0.930 . S
H1940 C1953 0.929 . S
H1941 C1951 0.929 . S
H1942 C1946 0.929 . S
H1943 C1952 0.929 . S
C1944 H1938 0.930 . S
C1944 C1945 1.367 . S
C1944 C1952 1.378 . S
C1945 C1944 1.367 . S
C1945 C1953 1.433 . S
C1946 H1942 0.929 . S
C1946 C1948 1.378 1_455 S
C1946 C1950 1.350 . S
C1947 C1950 1.463 . S
C1947 C1952 1.350 . S
C1947 N1955 1.427 . S
C1948 H1939 0.930 . S
C1948 C1946 1.378 1_655 S
C1948 C1949 1.367 . S
C1949 C1948 1.367 . S
C1949 C1951 1.433 1_655 S
C1950 C1946 1.350 . S
C1950 C1947 1.463 . S
C1950 N1954 1.427 . S
C1951 H1941 0.929 . S
C1951 C1949 1.433 1_455 S
C1951 N1954 1.384 . S
C1952 H1943 0.929 . S
C1952 C1944 1.378 . S
C1952 C1947 1.350 . S
C1953 H1940 0.929 . S
C1953 C1945 1.433 . S
C1953 N1955 1.384 . S
N1954 C1950 1.427 . S
N1954 C1951 1.384 . S
N1955 C1947 1.427 . S
N1955 C1953 1.384 . S
H1956 C1962 0.930 . S
H1957 C1966 0.930 . S
H1958 C1971 0.929 . S
H1959 C1969 0.929 . S
H1960 C1964 0.929 . S
H1961 C1970 0.929 . S
C1962 H1956 0.930 . S
C1962 C1963 1.367 . S
C1962 C1970 1.378 . S
C1963 C1962 1.367 . S
C1963 C1971 1.433 . S
C1964 H1960 0.929 . S
C1964 C1966 1.378 . S
C1964 C1968 1.350 . S
C1965 C1968 1.463 . S
C1965 C1970 1.350 . S
C1965 N1973 1.427 . S
C1966 H1957 0.930 . S
C1966 C1964 1.378 . S
C1966 C1967 1.367 . S
C1967 C1966 1.367 . S
C1967 C1969 1.433 . S
C1968 C1964 1.350 . S
C1968 C1965 1.463 . S
C1968 N1972 1.427 . S
C1969 H1959 0.929 . S
C1969 C1967 1.433 . S
C1969 N1972 1.384 . S
C1970 H1961 0.929 . S
C1970 C1962 1.378 . S
C1970 C1965 1.350 . S
C1971 H1958 0.929 . S
C1971 C1963 1.433 . S
C1971 N1973 1.384 . S
N1972 C1968 1.427 . S
N1972 C1969 1.384 . S
N1973 C1965 1.427 . S
N1973 C1971 1.384 . S
H1974 C1980 0.930 . S
H1975 C1984 0.930 . S
H1976 C1989 0.929 . S
H1977 C1987 0.929 . S
H1978 C1982 0.929 . S
H1979 C1988 0.929 . S
C1980 H1974 0.930 . S
C1980 C1981 1.367 . S
C1980 C1988 1.378 . S
C1981 C1980 1.367 . S
C1981 C1989 1.433 . S
C1982 H1978 0.929 . S
C1982 C1984 1.378 . S
C1982 C1986 1.350 . S
C1983 C1986 1.463 . S
C1983 C1988 1.350 . S
C1983 N1991 1.427 . S
C1984 H1975 0.930 . S
C1984 C1982 1.378 . S
C1984 C1985 1.367 . S
C1985 C1984 1.367 . S
C1985 C1987 1.433 . S
C1986 C1982 1.350 . S
C1986 C1983 1.463 . S
C1986 N1990 1.427 . S
C1987 H1977 0.929 . S
C1987 C1985 1.433 . S
C1987 N1990 1.384 . S
C1988 H1979 0.929 . S
C1988 C1980 1.378 . S
C1988 C1983 1.350 . S
C1989 H1976 0.929 . S
C1989 C1981 1.433 . S
C1989 N1991 1.384 . S
N1990 C1986 1.427 . S
N1990 C1987 1.384 . S
N1991 C1983 1.427 . S
N1991 C1989 1.384 . S
H1992 C1998 0.930 . S
H1993 C2002 0.930 . S
H1994 C2007 0.929 . S
H1995 C2005 0.929 . S
H1996 C2000 0.929 . S
H1997 C2006 0.929 . S
C1998 H1992 0.930 . S
C1998 C1999 1.367 . S
C1998 C2006 1.378 . S
C1999 C1998 1.367 . S
C1999 C2007 1.433 . S
C2000 H1996 0.929 . S
C2000 C2002 1.378 . S
C2000 C2004 1.350 . S
C2001 C2004 1.463 . S
C2001 C2006 1.350 . S
C2001 N2009 1.427 . S
C2002 H1993 0.930 . S
C2002 C2000 1.378 . S
C2002 C2003 1.367 . S
C2003 C2002 1.367 . S
C2003 C2005 1.433 . S
C2004 C2000 1.350 . S
C2004 C2001 1.463 . S
C2004 N2008 1.427 . S
C2005 H1995 0.929 . S
C2005 C2003 1.433 . S
C2005 N2008 1.384 . S
C2006 H1997 0.929 . S
C2006 C1998 1.378 . S
C2006 C2001 1.350 . S
C2007 H1994 0.929 . S
C2007 C1999 1.433 . S
C2007 N2009 1.384 . S
N2008 C2004 1.427 . S
N2008 C2005 1.384 . S
N2009 C2001 1.427 . S
N2009 C2007 1.384 . S
H2010 C2016 0.930 . S
H2011 C2020 0.930 . S
H2012 C2025 0.929 . S
H2013 C2023 0.929 . S
H2014 C2018 0.929 . S
H2015 C2024 0.929 . S
C2016 H2010 0.930 . S
C2016 C2017 1.367 . S
C2016 C2024 1.378 . S
C2017 C2016 1.367 . S
C2017 C2025 1.433 . S
C2018 H2014 0.929 . S
C2018 C2020 1.378 . S
C2018 C2022 1.350 . S
C2019 C2022 1.463 . S
C2019 C2024 1.350 . S
C2019 N2027 1.427 . S
C2020 H2011 0.930 . S
C2020 C2018 1.378 . S
C2020 C2021 1.367 . S
C2021 C2020 1.367 . S
C2021 C2023 1.433 . S
C2022 C2018 1.350 . S
C2022 C2019 1.463 . S
C2022 N2026 1.427 . S
C2023 H2013 0.929 . S
C2023 C2021 1.433 . S
C2023 N2026 1.384 . S
C2024 H2015 0.929 . S
C2024 C2016 1.378 . S
C2024 C2019 1.350 . S
C2025 H2012 0.929 . S
C2025 C2017 1.433 . S
C2025 N2027 1.384 . S
N2026 C2022 1.427 . S
N2026 C2023 1.384 . S
N2027 C2019 1.427 . S
N2027 C2025 1.384 . S
H2028 C2034 0.930 . S
H2029 C2038 0.930 . S
H2030 C2043 0.929 . S
H2031 C2041 0.929 . S
H2032 C2036 0.929 . S
H2033 C2042 0.929 . S
C2034 H2028 0.930 . S
C2034 C2035 1.367 . S
C2034 C2042 1.378 . S
C2035 C2034 1.367 . S
C2035 C2043 1.433 . S
C2036 H2032 0.929 . S
C2036 C2038 1.378 . S
C2036 C2040 1.350 . S
C2037 C2040 1.463 . S
C2037 C2042 1.350 . S
C2037 N2045 1.427 . S
C2038 H2029 0.930 . S
C2038 C2036 1.378 . S
C2038 C2039 1.367 . S
C2039 C2038 1.367 . S
C2039 C2041 1.433 . S
C2040 C2036 1.350 . S
C2040 C2037 1.463 . S
C2040 N2044 1.427 . S
C2041 H2031 0.929 . S
C2041 C2039 1.433 . S
C2041 N2044 1.384 . S
C2042 H2033 0.929 . S
C2042 C2034 1.378 . S
C2042 C2037 1.350 . S
C2043 H2030 0.929 . S
C2043 C2035 1.433 . S
C2043 N2045 1.384 . S
N2044 C2040 1.427 . S
N2044 C2041 1.384 . S
N2045 C2037 1.427 . S
N2045 C2043 1.384 . S
H2046 C2052 0.931 . S
H2047 C2056 0.930 . S
H2048 C2061 0.929 1_655 S
H2049 C2059 0.929 . S
H2050 C2054 0.929 . S
H2051 C2060 0.929 . S
C2052 H2046 0.931 . S
C2052 C2053 1.367 . S
C2052 C2060 1.377 1_655 S
C2053 C2052 1.367 . S
C2053 C2061 1.433 1_655 S
C2054 H2050 0.929 . S
C2054 C2056 1.378 . S
C2054 C2058 1.350 . S
C2055 C2058 1.463 . S
C2055 C2060 1.350 . S
C2055 N2063 1.427 . S
C2056 H2047 0.930 . S
C2056 C2054 1.378 . S
C2056 C2057 1.367 . S
C2057 C2056 1.367 . S
C2057 C2059 1.433 . S
C2058 C2054 1.350 . S
C2058 C2055 1.463 . S
C2058 N2062 1.427 . S
C2059 H2049 0.929 . S
C2059 C2057 1.433 . S
C2059 N2062 1.384 . S
C2060 H2051 0.929 . S
C2060 C2052 1.377 1_455 S
C2060 C2055 1.350 . S
C2061 H2048 0.929 1_455 S
C2061 C2053 1.433 1_455 S
C2061 N2063 1.384 . S
N2062 C2058 1.427 . S
N2062 C2059 1.384 . S
N2063 C2055 1.427 . S
N2063 C2061 1.384 . S
H2064 C2070 0.930 . S
H2065 C2074 0.930 . S
H2066 C2079 0.929 . S
H2067 C2077 0.929 . S
H2068 C2072 0.929 . S
H2069 C2078 0.929 . S
C2070 H2064 0.930 . S
C2070 C2071 1.367 . S
C2070 C2078 1.378 . S
C2071 C2070 1.367 . S
C2071 C2079 1.433 . S
C2072 H2068 0.929 . S
C2072 C2074 1.378 . S
C2072 C2076 1.350 . S
C2073 C2076 1.463 . S
C2073 C2078 1.350 . S
C2073 N2081 1.427 . S
C2074 H2065 0.930 . S
C2074 C2072 1.378 . S
C2074 C2075 1.367 . S
C2075 C2074 1.367 . S
C2075 C2077 1.433 . S
C2076 C2072 1.350 . S
C2076 C2073 1.463 . S
C2076 N2080 1.427 . S
C2077 H2067 0.929 . S
C2077 C2075 1.433 . S
C2077 N2080 1.384 . S
C2078 H2069 0.929 . S
C2078 C2070 1.378 . S
C2078 C2073 1.350 . S
C2079 H2066 0.929 . S
C2079 C2071 1.433 . S
C2079 N2081 1.384 . S
N2080 C2076 1.427 . S
N2080 C2077 1.384 . S
N2081 C2073 1.427 . S
N2081 C2079 1.384 . S
H2082 C2088 0.930 . S
H2083 C2092 0.920 1_455 S
H2084 C2097 0.929 . S
H2085 C2095 0.929 . S
H2086 C2090 0.929 . S
H2087 C2096 0.929 . S
C2088 H2082 0.930 . S
C2088 C2089 1.367 . S
C2088 C2096 1.378 . S
C2089 C2088 1.367 . S
C2089 C2097 1.433 . S
C2090 H2086 0.929 . S
C2090 C2092 1.378 . S
C2090 C2094 1.350 . S
C2091 C2094 1.463 . S
C2091 C2096 1.350 . S
C2091 N2099 1.427 . S
C2092 H2083 0.920 1_655 S
C2092 C2090 1.378 . S
C2092 C2093 1.367 1_655 S
C2093 C2092 1.367 1_455 S
C2093 C2095 1.433 . S
C2094 C2090 1.350 . S
C2094 C2091 1.463 . S
C2094 N2098 1.427 . S
C2095 H2085 0.929 . S
C2095 C2093 1.433 . S
C2095 N2098 1.384 1_455 S
C2096 H2087 0.929 . S
C2096 C2088 1.378 . S
C2096 C2091 1.350 . S
C2097 H2084 0.929 . S
C2097 C2089 1.433 . S
C2097 N2099 1.384 . S
N2098 C2094 1.427 . S
N2098 C2095 1.384 1_655 S
N2099 C2091 1.427 . S
N2099 C2097 1.384 . S
H2100 C2106 0.930 . S
H2101 C2110 0.930 . S
H2102 C2115 0.929 . S
H2103 C2113 0.929 . S
H2104 C2108 0.929 . S
H2105 C2114 0.929 . S
C2106 H2100 0.930 . S
C2106 C2107 1.367 . S
C2106 C2114 1.378 . S
C2107 C2106 1.367 . S
C2107 C2115 1.433 . S
C2108 H2104 0.929 . S
C2108 C2110 1.378 . S
C2108 C2112 1.350 . S
C2109 C2112 1.463 . S
C2109 C2114 1.350 . S
C2109 N2117 1.427 . S
C2110 H2101 0.930 . S
C2110 C2108 1.378 . S
C2110 C2111 1.367 . S
C2111 C2110 1.367 . S
C2111 C2113 1.433 . S
C2112 C2108 1.350 . S
C2112 C2109 1.463 . S
C2112 N2116 1.427 . S
C2113 H2103 0.929 . S
C2113 C2111 1.433 . S
C2113 N2116 1.384 . S
C2114 H2105 0.929 . S
C2114 C2106 1.378 . S
C2114 C2109 1.350 . S
C2115 H2102 0.929 . S
C2115 C2107 1.433 . S
C2115 N2117 1.384 . S
N2116 C2112 1.427 . S
N2116 C2113 1.384 . S
N2117 C2109 1.427 . S
N2117 C2115 1.384 . S
H2118 C2124 0.930 . S
H2119 C2128 0.930 . S
H2120 C2133 0.929 . S
H2121 C2131 0.929 . S
H2122 C2126 0.929 . S
H2123 C2132 0.929 . S
C2124 H2118 0.930 . S
C2124 C2125 1.367 . S
C2124 C2132 1.378 . S
C2125 C2124 1.367 . S
C2125 C2133 1.433 . S
C2126 H2122 0.929 . S
C2126 C2128 1.378 . S
C2126 C2130 1.350 . S
C2127 C2130 1.463 . S
C2127 C2132 1.350 . S
C2127 N2135 1.427 . S
C2128 H2119 0.930 . S
C2128 C2126 1.378 . S
C2128 C2129 1.367 . S
C2129 C2128 1.367 . S
C2129 C2131 1.433 . S
C2130 C2126 1.350 . S
C2130 C2127 1.463 . S
C2130 N2134 1.427 . S
C2131 H2121 0.929 . S
C2131 C2129 1.433 . S
C2131 N2134 1.384 . S
C2132 H2123 0.929 . S
C2132 C2124 1.378 . S
C2132 C2127 1.350 . S
C2133 H2120 0.929 . S
C2133 C2125 1.433 . S
C2133 N2135 1.384 . S
N2134 C2130 1.427 . S
N2134 C2131 1.384 . S
N2135 C2127 1.427 . S
N2135 C2133 1.384 . S
H2136 C2142 0.930 . S
H2137 C2146 0.930 . S
H2138 C2151 0.929 . S
H2139 C2149 0.929 . S
H2140 C2144 0.929 . S
H2141 C2150 0.929 . S
C2142 H2136 0.930 . S
C2142 C2143 1.367 . S
C2142 C2150 1.378 . S
C2143 C2142 1.367 . S
C2143 C2151 1.433 . S
C2144 H2140 0.929 . S
C2144 C2146 1.378 . S
C2144 C2148 1.350 . S
C2145 C2148 1.463 . S
C2145 C2150 1.350 . S
C2145 N2153 1.427 . S
C2146 H2137 0.930 . S
C2146 C2144 1.378 . S
C2146 C2147 1.367 . S
C2147 C2146 1.367 . S
C2147 C2149 1.433 . S
C2148 C2144 1.350 . S
C2148 C2145 1.463 . S
C2148 N2152 1.427 . S
C2149 H2139 0.929 . S
C2149 C2147 1.433 . S
C2149 N2152 1.384 . S
C2150 H2141 0.929 . S
C2150 C2142 1.378 . S
C2150 C2145 1.350 . S
C2151 H2138 0.929 . S
C2151 C2143 1.433 . S
C2151 N2153 1.384 . S
N2152 C2148 1.427 . S
N2152 C2149 1.384 . S
N2153 C2145 1.427 . S
N2153 C2151 1.384 . S
H2154 C2160 0.930 . S
H2155 C2164 0.930 . S
H2156 C2169 0.929 . S
H2157 C2167 0.929 . S
H2158 C2162 0.929 . S
H2159 C2168 0.929 . S
C2160 H2154 0.930 . S
C2160 C2161 1.367 . S
C2160 C2168 1.378 . S
C2161 C2160 1.367 . S
C2161 C2169 1.433 . S
C2162 H2158 0.929 . S
C2162 C2164 1.378 . S
C2162 C2166 1.350 . S
C2163 C2166 1.463 . S
C2163 C2168 1.350 . S
C2163 N2171 1.427 . S
C2164 H2155 0.930 . S
C2164 C2162 1.378 . S
C2164 C2165 1.367 . S
C2165 C2164 1.367 . S
C2165 C2167 1.433 . S
C2166 C2162 1.350 . S
C2166 C2163 1.463 . S
C2166 N2170 1.427 . S
C2167 H2157 0.929 . S
C2167 C2165 1.433 . S
C2167 N2170 1.384 . S
C2168 H2159 0.929 . S
C2168 C2160 1.378 . S
C2168 C2163 1.350 . S
C2169 H2156 0.929 . S
C2169 C2161 1.433 . S
C2169 N2171 1.384 . S
N2170 C2166 1.427 . S
N2170 C2167 1.384 . S
N2171 C2163 1.427 . S
N2171 C2169 1.384 . S
H2172 C2178 0.930 . S
H2173 C2182 0.930 . S
H2174 C2187 0.929 . S
H2175 C2185 0.929 . S
H2176 C2180 0.929 . S
H2177 C2186 0.929 . S
C2178 H2172 0.930 . S
C2178 C2179 1.367 . S
C2178 C2186 1.378 . S
C2179 C2178 1.367 . S
C2179 C2187 1.433 . S
C2180 H2176 0.929 . S
C2180 C2182 1.378 . S
C2180 C2184 1.350 . S
C2181 C2184 1.463 . S
C2181 C2186 1.350 . S
C2181 N2189 1.427 . S
C2182 H2173 0.930 . S
C2182 C2180 1.378 . S
C2182 C2183 1.367 . S
C2183 C2182 1.367 . S
C2183 C2185 1.433 . S
C2184 C2180 1.350 . S
C2184 C2181 1.463 . S
C2184 N2188 1.427 . S
C2185 H2175 0.929 . S
C2185 C2183 1.433 . S
C2185 N2188 1.384 . S
C2186 H2177 0.929 . S
C2186 C2178 1.378 . S
C2186 C2181 1.350 . S
C2187 H2174 0.929 . S
C2187 C2179 1.433 . S
C2187 N2189 1.384 . S
N2188 C2184 1.427 . S
N2188 C2185 1.384 . S
N2189 C2181 1.427 . S
N2189 C2187 1.384 . S
H2190 C2196 0.930 . S
H2191 C2200 0.930 . S
H2192 C2205 0.929 . S
H2193 C2203 0.929 . S
H2194 C2198 0.929 . S
H2195 C2204 0.929 . S
C2196 H2190 0.930 . S
C2196 C2197 1.367 . S
C2196 C2204 1.378 1_455 S
C2197 C2196 1.367 . S
C2197 C2205 1.433 1_455 S
C2198 H2194 0.929 . S
C2198 C2200 1.378 . S
C2198 C2202 1.350 . S
C2199 C2202 1.463 . S
C2199 C2204 1.350 . S
C2199 N2207 1.427 . S
C2200 H2191 0.930 . S
C2200 C2198 1.378 . S
C2200 C2201 1.367 . S
C2201 C2200 1.367 . S
C2201 C2203 1.433 . S
C2202 C2198 1.350 . S
C2202 C2199 1.463 . S
C2202 N2206 1.427 . S
C2203 H2193 0.929 . S
C2203 C2201 1.433 . S
C2203 N2206 1.384 . S
C2204 H2195 0.929 . S
C2204 C2196 1.378 1_655 S
C2204 C2199 1.350 . S
C2205 H2192 0.929 . S
C2205 C2197 1.433 1_655 S
C2205 N2207 1.384 . S
N2206 C2202 1.427 . S
N2206 C2203 1.384 . S
N2207 C2199 1.427 . S
N2207 C2205 1.384 . S
H2208 C2214 0.930 . S
H2209 C2218 0.930 . S
H2210 C2223 0.929 . S
H2211 C2221 0.929 . S
H2212 C2216 0.929 . S
H2213 C2222 0.929 . S
C2214 H2208 0.930 . S
C2214 C2215 1.367 . S
C2214 C2222 1.378 . S
C2215 C2214 1.367 . S
C2215 C2223 1.433 . S
C2216 H2212 0.929 . S
C2216 C2218 1.378 . S
C2216 C2220 1.350 . S
C2217 C2220 1.463 . S
C2217 C2222 1.350 . S
C2217 N2225 1.427 . S
C2218 H2209 0.930 . S
C2218 C2216 1.378 . S
C2218 C2219 1.367 . S
C2219 C2218 1.367 . S
C2219 C2221 1.433 . S
C2220 C2216 1.350 . S
C2220 C2217 1.463 . S
C2220 N2224 1.427 . S
C2221 H2211 0.929 . S
C2221 C2219 1.433 . S
C2221 N2224 1.384 . S
C2222 H2213 0.929 . S
C2222 C2214 1.378 . S
C2222 C2217 1.350 . S
C2223 H2210 0.929 . S
C2223 C2215 1.433 . S
C2223 N2225 1.384 . S
N2224 C2220 1.427 . S
N2224 C2221 1.384 . S
N2225 C2217 1.427 . S
N2225 C2223 1.384 . S
H2226 C2232 0.930 . S
H2227 C2236 0.930 . S
H2228 C2241 0.929 . S
H2229 C2239 0.929 . S
H2230 C2234 0.929 . S
H2231 C2240 0.929 . S
C2232 H2226 0.930 . S
C2232 C2233 1.367 . S
C2232 C2240 1.378 . S
C2233 C2232 1.367 . S
C2233 C2241 1.433 . S
C2234 H2230 0.929 . S
C2234 C2236 1.378 . S
C2234 C2238 1.350 . S
C2235 C2238 1.463 . S
C2235 C2240 1.350 . S
C2235 N2243 1.427 . S
C2236 H2227 0.930 . S
C2236 C2234 1.378 . S
C2236 C2237 1.367 . S
C2237 C2236 1.367 . S
C2237 C2239 1.433 . S
C2238 C2234 1.350 . S
C2238 C2235 1.463 . S
C2238 N2242 1.427 . S
C2239 H2229 0.929 . S
C2239 C2237 1.433 . S
C2239 N2242 1.384 . S
C2240 H2231 0.929 . S
C2240 C2232 1.378 . S
C2240 C2235 1.350 . S
C2241 H2228 0.929 . S
C2241 C2233 1.433 . S
C2241 N2243 1.384 . S
N2242 C2238 1.427 . S
N2242 C2239 1.384 . S
N2243 C2235 1.427 . S
N2243 C2241 1.384 . S
H2244 C2250 0.930 . S
H2245 C2254 0.930 . S
H2246 C2259 0.929 . S
H2247 C2257 0.929 . S
H2248 C2252 0.929 . S
H2249 C2258 0.929 . S
C2250 H2244 0.930 . S
C2250 C2251 1.367 . S
C2250 C2258 1.378 . S
C2251 C2250 1.367 . S
C2251 C2259 1.433 . S
C2252 H2248 0.929 . S
C2252 C2254 1.378 . S
C2252 C2256 1.350 . S
C2253 C2256 1.463 . S
C2253 C2258 1.350 . S
C2253 N2261 1.427 . S
C2254 H2245 0.930 . S
C2254 C2252 1.378 . S
C2254 C2255 1.367 . S
C2255 C2254 1.367 . S
C2255 C2257 1.433 . S
C2256 C2252 1.350 . S
C2256 C2253 1.463 . S
C2256 N2260 1.427 . S
C2257 H2247 0.929 . S
C2257 C2255 1.433 . S
C2257 N2260 1.384 . S
C2258 H2249 0.929 . S
C2258 C2250 1.378 . S
C2258 C2253 1.350 . S
C2259 H2246 0.929 . S
C2259 C2251 1.433 . S
C2259 N2261 1.384 . S
N2260 C2256 1.427 . S
N2260 C2257 1.384 . S
N2261 C2253 1.427 . S
N2261 C2259 1.384 . S
H2262 C2268 0.930 . S
H2263 C2272 0.930 . S
H2264 C2277 0.929 . S
H2265 C2275 0.929 . S
H2266 C2270 0.929 . S
H2267 C2276 0.929 . S
C2268 H2262 0.930 . S
C2268 C2269 1.367 1_655 S
C2268 C2276 1.378 . S
C2269 C2268 1.367 1_455 S
C2269 C2277 1.433 . S
C2270 H2266 0.929 . S
C2270 C2272 1.378 . S
C2270 C2274 1.350 . S
C2271 C2274 1.463 . S
C2271 C2276 1.350 . S
C2271 N2279 1.427 . S
C2272 H2263 0.930 . S
C2272 C2270 1.378 . S
C2272 C2273 1.367 . S
C2273 C2272 1.367 . S
C2273 C2275 1.433 . S
C2274 C2270 1.350 . S
C2274 C2271 1.463 . S
C2274 N2278 1.427 . S
C2275 H2265 0.929 . S
C2275 C2273 1.433 . S
C2275 N2278 1.384 . S
C2276 H2267 0.929 . S
C2276 C2268 1.378 . S
C2276 C2271 1.350 . S
C2277 H2264 0.929 . S
C2277 C2269 1.433 . S
C2277 N2279 1.384 1_455 S
N2278 C2274 1.427 . S
N2278 C2275 1.384 . S
N2279 C2271 1.427 . S
N2279 C2277 1.384 1_655 S
H2280 C2286 0.930 . S
H2281 C2290 0.930 . S
H2282 C2295 0.929 . S
H2283 C2293 0.929 . S
H2284 C2288 0.929 . S
H2285 C2294 0.929 . S
C2286 H2280 0.930 . S
C2286 C2287 1.367 . S
C2286 C2294 1.378 . S
C2287 C2286 1.367 . S
C2287 C2295 1.433 . S
C2288 H2284 0.929 . S
C2288 C2290 1.378 . S
C2288 C2292 1.350 . S
C2289 C2292 1.463 . S
C2289 C2294 1.350 . S
C2289 N2297 1.427 . S
C2290 H2281 0.930 . S
C2290 C2288 1.378 . S
C2290 C2291 1.367 . S
C2291 C2290 1.367 . S
C2291 C2293 1.433 . S
C2292 C2288 1.350 . S
C2292 C2289 1.463 . S
C2292 N2296 1.427 . S
C2293 H2283 0.929 . S
C2293 C2291 1.433 . S
C2293 N2296 1.384 . S
C2294 H2285 0.929 . S
C2294 C2286 1.378 . S
C2294 C2289 1.350 . S
C2295 H2282 0.929 . S
C2295 C2287 1.433 . S
C2295 N2297 1.384 . S
N2296 C2292 1.427 . S
N2296 C2293 1.384 . S
N2297 C2289 1.427 . S
N2297 C2295 1.384 . S
H2298 C2304 0.930 . S
H2299 C2308 0.930 . S
H2300 C2313 0.929 . S
H2301 C2311 0.929 . S
H2302 C2306 0.929 . S
H2303 C2312 0.929 . S
C2304 H2298 0.930 . S
C2304 C2305 1.367 . S
C2304 C2312 1.378 . S
C2305 C2304 1.367 . S
C2305 C2313 1.433 . S
C2306 H2302 0.929 . S
C2306 C2308 1.378 . S
C2306 C2310 1.350 . S
C2307 C2310 1.463 . S
C2307 C2312 1.350 . S
C2307 N2315 1.427 . S
C2308 H2299 0.930 . S
C2308 C2306 1.378 . S
C2308 C2309 1.367 1_655 S
C2309 C2308 1.367 1_455 S
C2309 C2311 1.433 . S
C2310 C2306 1.350 . S
C2310 C2307 1.463 . S
C2310 N2314 1.427 . S
C2311 H2301 0.929 . S
C2311 C2309 1.433 . S
C2311 N2314 1.384 1_455 S
C2312 H2303 0.929 . S
C2312 C2304 1.378 . S
C2312 C2307 1.350 . S
C2313 H2300 0.929 . S
C2313 C2305 1.433 . S
C2313 N2315 1.384 . S
N2314 C2310 1.427 . S
N2314 C2311 1.384 1_655 S
N2315 C2307 1.427 . S
N2315 C2313 1.384 . S
H2316 C2322 0.930 . S
H2317 C2326 0.930 . S
H2318 C2331 0.929 . S
H2319 C2329 0.929 . S
H2320 C2324 0.929 . S
H2321 C2330 0.929 . S
C2322 H2316 0.930 . S
C2322 C2323 1.367 . S
C2322 C2330 1.378 . S
C2323 C2322 1.367 . S
C2323 C2331 1.433 . S
C2324 H2320 0.929 . S
C2324 C2326 1.378 . S
C2324 C2328 1.350 . S
C2325 C2328 1.463 . S
C2325 C2330 1.350 . S
C2325 N2333 1.427 . S
C2326 H2317 0.930 . S
C2326 C2324 1.378 . S
C2326 C2327 1.367 . S
C2327 C2326 1.367 . S
C2327 C2329 1.433 . S
C2328 C2324 1.350 . S
C2328 C2325 1.463 . S
C2328 N2332 1.427 . S
C2329 H2319 0.929 . S
C2329 C2327 1.433 . S
C2329 N2332 1.384 . S
C2330 H2321 0.929 . S
C2330 C2322 1.378 . S
C2330 C2325 1.350 . S
C2331 H2318 0.929 . S
C2331 C2323 1.433 . S
C2331 N2333 1.384 . S
N2332 C2328 1.427 . S
N2332 C2329 1.384 . S
N2333 C2325 1.427 . S
N2333 C2331 1.384 . S
H2334 C2340 0.930 . S
H2335 C2344 0.930 . S
H2336 C2349 0.929 . S
H2337 C2347 0.929 . S
H2338 C2342 0.929 . S
H2339 C2348 0.929 . S
C2340 H2334 0.930 . S
C2340 C2341 1.367 . S
C2340 C2348 1.378 . S
C2341 C2340 1.367 . S
C2341 C2349 1.433 . S
C2342 H2338 0.929 . S
C2342 C2344 1.378 . S
C2342 C2346 1.350 . S
C2343 C2346 1.463 . S
C2343 C2348 1.350 . S
C2343 N2351 1.427 . S
C2344 H2335 0.930 . S
C2344 C2342 1.378 . S
C2344 C2345 1.367 . S
C2345 C2344 1.367 . S
C2345 C2347 1.433 . S
C2346 C2342 1.350 . S
C2346 C2343 1.463 . S
C2346 N2350 1.427 . S
C2347 H2337 0.929 . S
C2347 C2345 1.433 . S
C2347 N2350 1.384 . S
C2348 H2339 0.929 . S
C2348 C2340 1.378 . S
C2348 C2343 1.350 . S
C2349 H2336 0.929 . S
C2349 C2341 1.433 . S
C2349 N2351 1.384 . S
N2350 C2346 1.427 . S
N2350 C2347 1.384 . S
N2351 C2343 1.427 . S
N2351 C2349 1.384 . S
H2352 C2358 0.930 . S
H2353 C2362 0.930 . S
H2354 C2367 0.929 . S
H2355 C2365 0.929 . S
H2356 C2360 0.929 . S
H2357 C2366 0.929 . S
C2358 H2352 0.930 . S
C2358 C2359 1.367 . S
C2358 C2366 1.378 . S
C2359 C2358 1.367 . S
C2359 C2367 1.433 . S
C2360 H2356 0.929 . S
C2360 C2362 1.378 . S
C2360 C2364 1.350 . S
C2361 C2364 1.463 . S
C2361 C2366 1.350 . S
C2361 N2369 1.427 . S
C2362 H2353 0.930 . S
C2362 C2360 1.378 . S
C2362 C2363 1.367 . S
C2363 C2362 1.367 . S
C2363 C2365 1.433 . S
C2364 C2360 1.350 . S
C2364 C2361 1.463 . S
C2364 N2368 1.427 . S
C2365 H2355 0.929 . S
C2365 C2363 1.433 . S
C2365 N2368 1.384 . S
C2366 H2357 0.929 . S
C2366 C2358 1.378 . S
C2366 C2361 1.350 . S
C2367 H2354 0.929 . S
C2367 C2359 1.433 . S
C2367 N2369 1.384 . S
N2368 C2364 1.427 . S
N2368 C2365 1.384 . S
N2369 C2361 1.427 . S
N2369 C2367 1.384 . S
H2370 C2376 0.930 . S
H2371 C2380 0.930 . S
H2372 C2385 0.929 . S
H2373 C2383 0.929 . S
H2374 C2378 0.929 . S
H2375 C2384 0.929 . S
C2376 H2370 0.930 . S
C2376 C2377 1.367 . S
C2376 C2384 1.378 . S
C2377 C2376 1.367 . S
C2377 C2385 1.433 . S
C2378 H2374 0.929 . S
C2378 C2380 1.378 . S
C2378 C2382 1.350 . S
C2379 C2382 1.463 . S
C2379 C2384 1.350 . S
C2379 N2387 1.427 . S
C2380 H2371 0.930 . S
C2380 C2378 1.378 . S
C2380 C2381 1.367 . S
C2381 C2380 1.367 . S
C2381 C2383 1.433 . S
C2382 C2378 1.350 . S
C2382 C2379 1.463 . S
C2382 N2386 1.427 . S
C2383 H2373 0.929 . S
C2383 C2381 1.433 . S
C2383 N2386 1.384 . S
C2384 H2375 0.929 . S
C2384 C2376 1.378 . S
C2384 C2379 1.350 . S
C2385 H2372 0.929 . S
C2385 C2377 1.433 . S
C2385 N2387 1.384 . S
N2386 C2382 1.427 . S
N2386 C2383 1.384 . S
N2387 C2379 1.427 . S
N2387 C2385 1.384 . S
H2388 C2394 0.930 . S
H2389 C2398 0.930 . S
H2390 C2403 0.929 . S
H2391 C2401 0.929 . S
H2392 C2396 0.929 . S
H2393 C2402 0.929 . S
C2394 H2388 0.930 . S
C2394 C2395 1.367 . S
C2394 C2402 1.378 . S
C2395 C2394 1.367 . S
C2395 C2403 1.433 . S
C2396 H2392 0.929 . S
C2396 C2398 1.378 . S
C2396 C2400 1.350 . S
C2397 C2400 1.463 . S
C2397 C2402 1.350 . S
C2397 N2405 1.427 . S
C2398 H2389 0.930 . S
C2398 C2396 1.378 . S
C2398 C2399 1.367 . S
C2399 C2398 1.367 . S
C2399 C2401 1.433 . S
C2400 C2396 1.350 . S
C2400 C2397 1.463 . S
C2400 N2404 1.427 . S
C2401 H2391 0.929 . S
C2401 C2399 1.433 . S
C2401 N2404 1.384 . S
C2402 H2393 0.929 . S
C2402 C2394 1.378 . S
C2402 C2397 1.350 . S
C2403 H2390 0.929 . S
C2403 C2395 1.433 . S
C2403 N2405 1.384 . S
N2404 C2400 1.427 . S
N2404 C2401 1.384 . S
N2405 C2397 1.427 . S
N2405 C2403 1.384 . S
H2406 C2412 0.930 . S
H2407 C2416 0.930 . S
H2408 C2421 0.929 . S
H2409 C2419 0.929 . S
H2410 C2414 0.929 . S
H2411 C2420 0.929 . S
C2412 H2406 0.930 . S
C2412 C2413 1.367 . S
C2412 C2420 1.378 . S
C2413 C2412 1.367 . S
C2413 C2421 1.433 . S
C2414 H2410 0.929 . S
C2414 C2416 1.378 . S
C2414 C2418 1.350 . S
C2415 C2418 1.463 . S
C2415 C2420 1.350 . S
C2415 N2423 1.427 . S
C2416 H2407 0.930 . S
C2416 C2414 1.378 . S
C2416 C2417 1.367 1_455 S
C2417 C2416 1.367 1_655 S
C2417 C2419 1.433 . S
C2418 C2414 1.350 . S
C2418 C2415 1.463 . S
C2418 N2422 1.427 . S
C2419 H2409 0.929 . S
C2419 C2417 1.433 . S
C2419 N2422 1.384 1_655 S
C2420 H2411 0.929 . S
C2420 C2412 1.378 . S
C2420 C2415 1.350 . S
C2421 H2408 0.929 . S
C2421 C2413 1.433 . S
C2421 N2423 1.384 . S
N2422 C2418 1.427 . S
N2422 C2419 1.384 1_455 S
N2423 C2415 1.427 . S
N2423 C2421 1.384 . S
H2424 C2430 0.930 . S
H2425 C2434 0.930 . S
H2426 C2439 0.929 . S
H2427 C2437 0.929 . S
H2428 C2432 0.929 . S
H2429 C2438 0.929 . S
C2430 H2424 0.930 . S
C2430 C2431 1.367 . S
C2430 C2438 1.378 . S
C2431 C2430 1.367 . S
C2431 C2439 1.433 . S
C2432 H2428 0.929 . S
C2432 C2434 1.378 . S
C2432 C2436 1.350 . S
C2433 C2436 1.463 . S
C2433 C2438 1.350 . S
C2433 N2441 1.427 . S
C2434 H2425 0.930 . S
C2434 C2432 1.378 . S
C2434 C2435 1.367 . S
C2435 C2434 1.367 . S
C2435 C2437 1.433 . S
C2436 C2432 1.350 . S
C2436 C2433 1.463 . S
C2436 N2440 1.427 . S
C2437 H2427 0.929 . S
C2437 C2435 1.433 . S
C2437 N2440 1.384 . S
C2438 H2429 0.929 . S
C2438 C2430 1.378 . S
C2438 C2433 1.350 . S
C2439 H2426 0.929 . S
C2439 C2431 1.433 . S
C2439 N2441 1.384 . S
N2440 C2436 1.427 . S
N2440 C2437 1.384 . S
N2441 C2433 1.427 . S
N2441 C2439 1.384 . S
H2442 C2448 0.930 . S
H2443 C2452 0.930 . S
H2444 C2457 0.929 . S
H2445 C2455 0.929 . S
H2446 C2450 0.929 . S
H2447 C2456 0.929 . S
C2448 H2442 0.930 . S
C2448 C2449 1.367 1_455 S
C2448 C2456 1.378 . S
C2449 C2448 1.367 1_655 S
C2449 C2457 1.433 . S
C2450 H2446 0.929 . S
C2450 C2452 1.378 . S
C2450 C2454 1.350 . S
C2451 C2454 1.463 . S
C2451 C2456 1.350 . S
C2451 N2459 1.427 . S
C2452 H2443 0.930 . S
C2452 C2450 1.378 . S
C2452 C2453 1.367 . S
C2453 C2452 1.367 . S
C2453 C2455 1.433 . S
C2454 C2450 1.350 . S
C2454 C2451 1.463 . S
C2454 N2458 1.427 . S
C2455 H2445 0.929 . S
C2455 C2453 1.433 . S
C2455 N2458 1.384 . S
C2456 H2447 0.929 . S
C2456 C2448 1.378 . S
C2456 C2451 1.350 . S
C2457 H2444 0.929 . S
C2457 C2449 1.433 . S
C2457 N2459 1.384 1_655 S
N2458 C2454 1.427 . S
N2458 C2455 1.384 . S
N2459 C2451 1.427 . S
N2459 C2457 1.384 1_455 S
H2460 C2466 0.930 . S
H2461 C2470 0.930 . S
H2462 C2475 0.929 . S
H2463 C2473 0.929 . S
H2464 C2468 0.929 . S
H2465 C2474 0.929 . S
C2466 H2460 0.930 . S
C2466 C2467 1.367 . S
C2466 C2474 1.378 . S
C2467 C2466 1.367 . S
C2467 C2475 1.433 . S
C2468 H2464 0.929 . S
C2468 C2470 1.378 . S
C2468 C2472 1.350 . S
C2469 C2472 1.463 . S
C2469 C2474 1.350 . S
C2469 N2477 1.427 . S
C2470 H2461 0.930 . S
C2470 C2468 1.378 . S
C2470 C2471 1.367 . S
C2471 C2470 1.367 . S
C2471 C2473 1.433 . S
C2472 C2468 1.350 . S
C2472 C2469 1.463 . S
C2472 N2476 1.427 . S
C2473 H2463 0.929 . S
C2473 C2471 1.433 . S
C2473 N2476 1.384 . S
C2474 H2465 0.929 . S
C2474 C2466 1.378 . S
C2474 C2469 1.350 . S
C2475 H2462 0.929 . S
C2475 C2467 1.433 . S
C2475 N2477 1.384 . S
N2476 C2472 1.427 . S
N2476 C2473 1.384 . S
N2477 C2469 1.427 . S
N2477 C2475 1.384 . S
H2478 C2484 0.930 . S
H2479 C2488 0.930 . S
H2480 C2493 0.929 . S
H2481 C2491 0.929 . S
H2482 C2486 0.929 . S
H2483 C2492 0.929 . S
C2484 H2478 0.930 . S
C2484 C2485 1.367 . S
C2484 C2492 1.378 . S
C2485 C2484 1.367 . S
C2485 C2493 1.433 . S
C2486 H2482 0.929 . S
C2486 C2488 1.378 . S
C2486 C2490 1.350 . S
C2487 C2490 1.463 . S
C2487 C2492 1.350 . S
C2487 N2495 1.427 . S
C2488 H2479 0.930 . S
C2488 C2486 1.378 . S
C2488 C2489 1.367 . S
C2489 C2488 1.367 . S
C2489 C2491 1.433 . S
C2490 C2486 1.350 . S
C2490 C2487 1.463 . S
C2490 N2494 1.427 . S
C2491 H2481 0.929 . S
C2491 C2489 1.433 . S
C2491 N2494 1.384 . S
C2492 H2483 0.929 . S
C2492 C2484 1.378 . S
C2492 C2487 1.350 . S
C2493 H2480 0.929 . S
C2493 C2485 1.433 . S
C2493 N2495 1.384 . S
N2494 C2490 1.427 . S
N2494 C2491 1.384 . S
N2495 C2487 1.427 . S
N2495 C2493 1.384 . S
C1063 N244 1.778 . S
C1067 N13 1.763 . S
C1081 N46 1.778 . S
C1085 N145 1.763 . S
C1099 N79 1.772 . S
C1103 N178 1.772 . S
C1117 N211 1.767 . S
C1121 N112 1.777 . S
C1135 N508 1.766 . S
C1139 N277 1.770 . S
C1153 N409 1.763 . S
C1157 N310 1.778 . S
C1171 N343 1.763 . S
C1175 N442 1.778 . S
C1189 N376 1.775 . S
C1193 N475 1.769 . S
C1207 N772 1.777 . S
C1211 N541 1.762 . S
C1225 N574 1.778 . S
C1229 N673 1.764 . S
C1243 N607 1.772 . S
C1247 N706 1.772 . S
C1261 N739 1.777 . S
C1265 N640 1.766 . S
C1279 N1036 1.773 . S
C1283 N805 1.772 . S
C1297 N838 1.768 . S
C1301 N937 1.769 . S
C1315 N970 1.774 . S
C1319 N871 1.763 . S
C1333 N1003 1.768 . S
C1337 N904 1.776 . S
C1351 C150 0.974 . S
C1355 C18 0.975 . S
C1369 C51 0.972 . S
C1373 C183 0.970 . S
C1387 C216 0.972 . S
C1391 C84 0.970 . S
C1405 C117 0.971 . S
C1409 C249 0.969 . S
C1423 C414 0.969 . S
C1427 C282 0.971 . S
C1441 C315 0.969 . S
C1445 C447 0.969 . S
C1459 C348 0.972 . S
C1463 C480 0.970 . S
C1477 C513 0.971 . S
C1481 C381 0.973 . S
C1495 C678 0.971 . S
C1499 C546 0.969 . S
C1513 C711 0.969 . S
C1517 C579 0.970 . S
C1531 C744 0.973 . S
C1535 C612 0.974 . S
C1549 C777 0.972 . S
C1553 C645 0.970 . S
C1567 C942 0.975 . S
C1571 C810 0.973 . S
C1585 C843 0.970 . S
C1589 C975 0.973 . S
C1603 C1008 0.974 . S
C1607 C876 0.975 . S
C1621 C1041 0.971 . S
C1625 C909 0.973 . S
C1639 C601 1.065 . S
C1643 C7 1.064 . S
C1657 C40 1.066 . S
C1661 C634 1.050 . S
C1675 C73 1.044 . S
C1679 C535 1.059 . S
C1693 C106 1.047 . S
C1697 C568 1.045 . S
C1711 C733 1.057 . S
C1715 C139 1.068 . S
C1729 C766 1.065 . S
C1733 C172 1.049 . S
C1747 C205 1.068 . S
C1751 C667 1.053 . S
C1765 C238 1.068 . S
C1769 C700 1.054 . S
C1783 C271 1.048 . S
C1787 C865 1.044 . S
C1801 C304 1.043 . S
C1805 C898 1.057 . S
C1819 C799 1.064 . S
C1823 C337 1.047 . S
C1837 C370 1.060 . S
C1841 C832 1.044 . S
C1855 C403 1.052 . S
C1859 C997 1.067 . S
C1873 C1030 1.066 . S
C1877 C436 1.049 . S
C1891 C469 1.058 . S
C1895 C931 1.043 . S
C1909 C964 1.053 . S
C1913 C502 1.067 . S
C1927 N893 0.759 . S
C1931 C21 0.754 . S
C1945 C54 0.745 . S
C1949 N266 0.755 . S
C1963 C87 0.754 . S
C1967 N827 0.759 . S
C1981 N332 0.750 . S
C1985 C120 0.735 . S
C1999 N959 0.749 . S
C2003 C153 0.735 . S
C2017 C186 0.735 . S
C2021 N464 0.750 . S
C2035 N1025 0.766 . S
C2039 C219 0.766 . S
C2053 N398 0.773 . S
C2057 C252 0.780 . S
C2071 C285 0.735 . S
C2075 N629 0.749 . S
C2089 C318 0.735 . S
C2093 N2 0.749 . S
C2107 N563 0.751 . S
C2111 C351 0.739 . S
C2125 C384 0.738 . S
C2129 N68 0.751 . S
C2143 C417 0.739 . S
C2147 N695 0.751 . S
C2161 C450 0.768 . S
C2165 N200 0.767 . S
C2179 C483 0.754 . S
C2183 N761 0.759 . S
C2197 N134 0.751 . S
C2201 C516 0.737 . S
C2215 C549 0.736 . S
C2219 N365 0.750 . S
C2233 N794 0.773 . S
C2237 C582 0.779 . S
C2251 N299 0.758 . S
C2255 C615 0.750 . S
C2269 N860 0.750 . S
C2273 C648 0.737 . S
C2287 C681 0.770 . S
C2291 N431 0.769 . S
C2305 C714 0.774 . S
C2309 N992 0.770 . S
C2323 N497 0.752 . S
C2327 C747 0.739 . S
C2341 C780 0.761 . S
C2345 N926 0.764 . S
C2359 C813 0.779 . S
C2363 N101 0.773 . S
C2377 N530 0.764 . S
C2381 C846 0.764 . S
C2395 C879 0.749 . S
C2399 N35 0.757 . S
C2413 C912 0.748 . S
C2417 N596 0.756 . S
C2431 C945 0.773 . S
C2435 N167 0.770 . S
C2449 N728 0.773 . S
C2453 C978 0.779 . S
C2467 C1011 0.749 . S
C2471 N233 0.757 . S
C2485 C1044 0.779 . S
C2489 N662 0.773 . S
