# Generated by pormake.
# Topology ukv, (4)-cn, num edge types: 1
# Building blocks:
#     Node 0, Type 0, BuildingBlock: CEKHIL_clean_sbu_0, # of connection points: 4
#     Node 1, Type 0, BuildingBlock: CEKHIL_clean_sbu_0, # of connection points: 4
#     Node 2, Type 0, BuildingBlock: CEKHIL_clean_sbu_0, # of connection points: 4
#     Node 3, Type 0, BuildingBlock: CEKHIL_clean_sbu_0, # of connection points: 4
#     Node 4, Type 0, BuildingBlock: CEKHIL_clean_sbu_0, # of connection points: 4
#     Node 5, Type 0, BuildingBlock: CEKHIL_clean_sbu_0, # of connection points: 4
#     Node 6, Type 0, BuildingBlock: CEKHIL_clean_sbu_0, # of connection points: 4
#     Node 7, Type 0, BuildingBlock: CEKHIL_clean_sbu_0, # of connection points: 4
#     Node 8, Type 0, BuildingBlock: CEKHIL_clean_sbu_0, # of connection points: 4
#     Node 9, Type 0, BuildingBlock: CEKHIL_clean_sbu_0, # of connection points: 4
#     Node 10, Type 0, BuildingBlock: CEKHIL_clean_sbu_0, # of connection points: 4
#     Node 11, Type 0, BuildingBlock: CEKHIL_clean_sbu_0, # of connection points: 4
#     Node 12, Type 0, BuildingBlock: CEKHIL_clean_sbu_0, # of connection points: 4
#     Node 13, Type 0, BuildingBlock: CEKHIL_clean_sbu_0, # of connection points: 4
#     Node 14, Type 0, BuildingBlock: CEKHIL_clean_sbu_0, # of connection points: 4
#     Node 15, Type 0, BuildingBlock: CEKHIL_clean_sbu_0, # of connection points: 4
#     Node 16, Type 0, BuildingBlock: CEKHIL_clean_sbu_0, # of connection points: 4
#     Node 17, Type 0, BuildingBlock: CEKHIL_clean_sbu_0, # of connection points: 4
#     Node 18, Type 0, BuildingBlock: CEKHIL_clean_sbu_0, # of connection points: 4
#     Node 19, Type 0, BuildingBlock: CEKHIL_clean_sbu_0, # of connection points: 4
#     Node 20, Type 0, BuildingBlock: CEKHIL_clean_sbu_0, # of connection points: 4
#     Node 21, Type 0, BuildingBlock: CEKHIL_clean_sbu_0, # of connection points: 4
#     Node 22, Type 0, BuildingBlock: CEKHIL_clean_sbu_0, # of connection points: 4
#     Node 23, Type 0, BuildingBlock: CEKHIL_clean_sbu_0, # of connection points: 4
#     Node 24, Type 0, BuildingBlock: CEKHIL_clean_sbu_0, # of connection points: 4
#     Node 25, Type 0, BuildingBlock: CEKHIL_clean_sbu_0, # of connection points: 4
#     Node 26, Type 0, BuildingBlock: CEKHIL_clean_sbu_0, # of connection points: 4
#     Node 27, Type 0, BuildingBlock: CEKHIL_clean_sbu_0, # of connection points: 4
#     Node 28, Type 0, BuildingBlock: CEKHIL_clean_sbu_0, # of connection points: 4
#     Node 29, Type 0, BuildingBlock: CEKHIL_clean_sbu_0, # of connection points: 4
#     Node 30, Type 0, BuildingBlock: CEKHIL_clean_sbu_0, # of connection points: 4
#     Node 31, Type 0, BuildingBlock: CEKHIL_clean_sbu_0, # of connection points: 4
#     Node 32, Type 0, BuildingBlock: CEKHIL_clean_sbu_0, # of connection points: 4
#     Node 33, Type 0, BuildingBlock: CEKHIL_clean_sbu_0, # of connection points: 4
#     Node 34, Type 0, BuildingBlock: CEKHIL_clean_sbu_0, # of connection points: 4
#     Node 35, Type 0, BuildingBlock: CEKHIL_clean_sbu_0, # of connection points: 4
#     Edge 36, Type (0, 0), BuildingBlock: TEMPAE_clean_linker_10, # of connection points: 2
#     Edge 37, Type (0, 0), BuildingBlock: TEMPAE_clean_linker_10, # of connection points: 2
#     Edge 38, Type (0, 0), BuildingBlock: TEMPAE_clean_linker_10, # of connection points: 2
#     Edge 39, Type (0, 0), BuildingBlock: TEMPAE_clean_linker_10, # of connection points: 2
#     Edge 40, Type (0, 0), BuildingBlock: TEMPAE_clean_linker_10, # of connection points: 2
#     Edge 41, Type (0, 0), BuildingBlock: TEMPAE_clean_linker_10, # of connection points: 2
#     Edge 42, Type (0, 0), BuildingBlock: TEMPAE_clean_linker_10, # of connection points: 2
#     Edge 43, Type (0, 0), BuildingBlock: TEMPAE_clean_linker_10, # of connection points: 2
#     Edge 44, Type (0, 0), BuildingBlock: TEMPAE_clean_linker_10, # of connection points: 2
#     Edge 45, Type (0, 0), BuildingBlock: TEMPAE_clean_linker_10, # of connection points: 2
#     Edge 46, Type (0, 0), BuildingBlock: TEMPAE_clean_linker_10, # of connection points: 2
#     Edge 47, Type (0, 0), BuildingBlock: TEMPAE_clean_linker_10, # of connection points: 2
#     Edge 48, Type (0, 0), BuildingBlock: TEMPAE_clean_linker_10, # of connection points: 2
#     Edge 49, Type (0, 0), BuildingBlock: TEMPAE_clean_linker_10, # of connection points: 2
#     Edge 50, Type (0, 0), BuildingBlock: TEMPAE_clean_linker_10, # of connection points: 2
#     Edge 51, Type (0, 0), BuildingBlock: TEMPAE_clean_linker_10, # of connection points: 2
#     Edge 52, Type (0, 0), BuildingBlock: TEMPAE_clean_linker_10, # of connection points: 2
#     Edge 53, Type (0, 0), BuildingBlock: TEMPAE_clean_linker_10, # of connection points: 2
#     Edge 54, Type (0, 0), BuildingBlock: TEMPAE_clean_linker_10, # of connection points: 2
#     Edge 55, Type (0, 0), BuildingBlock: TEMPAE_clean_linker_10, # of connection points: 2
#     Edge 56, Type (0, 0), BuildingBlock: TEMPAE_clean_linker_10, # of connection points: 2
#     Edge 57, Type (0, 0), BuildingBlock: TEMPAE_clean_linker_10, # of connection points: 2
#     Edge 58, Type (0, 0), BuildingBlock: TEMPAE_clean_linker_10, # of connection points: 2
#     Edge 59, Type (0, 0), BuildingBlock: TEMPAE_clean_linker_10, # of connection points: 2
#     Edge 60, Type (0, 0), BuildingBlock: TEMPAE_clean_linker_10, # of connection points: 2
#     Edge 61, Type (0, 0), BuildingBlock: TEMPAE_clean_linker_10, # of connection points: 2
#     Edge 62, Type (0, 0), BuildingBlock: TEMPAE_clean_linker_10, # of connection points: 2
#     Edge 63, Type (0, 0), BuildingBlock: TEMPAE_clean_linker_10, # of connection points: 2
#     Edge 64, Type (0, 0), BuildingBlock: TEMPAE_clean_linker_10, # of connection points: 2
#     Edge 65, Type (0, 0), BuildingBlock: TEMPAE_clean_linker_10, # of connection points: 2
#     Edge 66, Type (0, 0), BuildingBlock: TEMPAE_clean_linker_10, # of connection points: 2
#     Edge 67, Type (0, 0), BuildingBlock: TEMPAE_clean_linker_10, # of connection points: 2
#     Edge 68, Type (0, 0), BuildingBlock: TEMPAE_clean_linker_10, # of connection points: 2
#     Edge 69, Type (0, 0), BuildingBlock: TEMPAE_clean_linker_10, # of connection points: 2
#     Edge 70, Type (0, 0), BuildingBlock: TEMPAE_clean_linker_10, # of connection points: 2
#     Edge 71, Type (0, 0), BuildingBlock: TEMPAE_clean_linker_10, # of connection points: 2
#     Edge 72, Type (0, 0), BuildingBlock: TEMPAE_clean_linker_10, # of connection points: 2
#     Edge 73, Type (0, 0), BuildingBlock: TEMPAE_clean_linker_10, # of connection points: 2
#     Edge 74, Type (0, 0), BuildingBlock: TEMPAE_clean_linker_10, # of connection points: 2
#     Edge 75, Type (0, 0), BuildingBlock: TEMPAE_clean_linker_10, # of connection points: 2
#     Edge 76, Type (0, 0), BuildingBlock: TEMPAE_clean_linker_10, # of connection points: 2
#     Edge 77, Type (0, 0), BuildingBlock: TEMPAE_clean_linker_10, # of connection points: 2
#     Edge 78, Type (0, 0), BuildingBlock: TEMPAE_clean_linker_10, # of connection points: 2
#     Edge 79, Type (0, 0), BuildingBlock: TEMPAE_clean_linker_10, # of connection points: 2
#     Edge 80, Type (0, 0), BuildingBlock: TEMPAE_clean_linker_10, # of connection points: 2
#     Edge 81, Type (0, 0), BuildingBlock: TEMPAE_clean_linker_10, # of connection points: 2
#     Edge 82, Type (0, 0), BuildingBlock: TEMPAE_clean_linker_10, # of connection points: 2
#     Edge 83, Type (0, 0), BuildingBlock: TEMPAE_clean_linker_10, # of connection points: 2
#     Edge 84, Type (0, 0), BuildingBlock: TEMPAE_clean_linker_10, # of connection points: 2
#     Edge 85, Type (0, 0), BuildingBlock: TEMPAE_clean_linker_10, # of connection points: 2
#     Edge 86, Type (0, 0), BuildingBlock: TEMPAE_clean_linker_10, # of connection points: 2
#     Edge 87, Type (0, 0), BuildingBlock: TEMPAE_clean_linker_10, # of connection points: 2
#     Edge 88, Type (0, 0), BuildingBlock: TEMPAE_clean_linker_10, # of connection points: 2
#     Edge 89, Type (0, 0), BuildingBlock: TEMPAE_clean_linker_10, # of connection points: 2
#     Edge 90, Type (0, 0), BuildingBlock: TEMPAE_clean_linker_10, # of connection points: 2
#     Edge 91, Type (0, 0), BuildingBlock: TEMPAE_clean_linker_10, # of connection points: 2
#     Edge 92, Type (0, 0), BuildingBlock: TEMPAE_clean_linker_10, # of connection points: 2
#     Edge 93, Type (0, 0), BuildingBlock: TEMPAE_clean_linker_10, # of connection points: 2
#     Edge 94, Type (0, 0), BuildingBlock: TEMPAE_clean_linker_10, # of connection points: 2
#     Edge 95, Type (0, 0), BuildingBlock: TEMPAE_clean_linker_10, # of connection points: 2
#     Edge 96, Type (0, 0), BuildingBlock: TEMPAE_clean_linker_10, # of connection points: 2
#     Edge 97, Type (0, 0), BuildingBlock: TEMPAE_clean_linker_10, # of connection points: 2
#     Edge 98, Type (0, 0), BuildingBlock: TEMPAE_clean_linker_10, # of connection points: 2
#     Edge 99, Type (0, 0), BuildingBlock: TEMPAE_clean_linker_10, # of connection points: 2
#     Edge 100, Type (0, 0), BuildingBlock: TEMPAE_clean_linker_10, # of connection points: 2
#     Edge 101, Type (0, 0), BuildingBlock: TEMPAE_clean_linker_10, # of connection points: 2
#     Edge 102, Type (0, 0), BuildingBlock: TEMPAE_clean_linker_10, # of connection points: 2
#     Edge 103, Type (0, 0), BuildingBlock: TEMPAE_clean_linker_10, # of connection points: 2
#     Edge 104, Type (0, 0), BuildingBlock: TEMPAE_clean_linker_10, # of connection points: 2
#     Edge 105, Type (0, 0), BuildingBlock: TEMPAE_clean_linker_10, # of connection points: 2
#     Edge 106, Type (0, 0), BuildingBlock: TEMPAE_clean_linker_10, # of connection points: 2
#     Edge 107, Type (0, 0), BuildingBlock: TEMPAE_clean_linker_10, # of connection points: 2
# Relax obj value: 0.234
# Max RMSD: 0.137
# Mean RMSD: 0.137
data_MOF--net-ukv--node1-CEKHIL_clean_sbu_0--edge1-TEMPAE_clean_linker_10
_symmetry_space_group_name_H-M    P1
_symmetry_Int_Tables_number       1
_symmetry_cell_setting            triclinic
loop_
_symmetry_equiv_pos_as_xyz
'x, y, z'
_cell_length_a     95.428859
_cell_length_b     95.458672
_cell_length_c     21.507021
_cell_angle_alpha  90.022828
_cell_angle_beta   90.001633
_cell_angle_gamma 120.03257
loop_
_atom_site_label
_atom_site_type_symbol
_atom_site_fract_x
_atom_site_fract_y
_atom_site_fract_z
_atom_type_partial_charge
Co0 Co 0.262 0.07466 0.10366 0.0
O1 O 0.25847 0.06148 0.17579 0.0
O2 O 0.2392 0.0593 0.11212 0.0
C3 C 0.28304 0.07268 0.06621 0.0
O4 O 0.26089 0.08558 0.02399 0.0
Co5 Co 0.29437 0.10656 0.07908 0.0
O6 O 0.28619 0.10301 0.99258 0.0
C7 C 0.26975 0.10648 0.16389 0.0
C8 C 0.24326 0.05396 0.16053 0.0
C9 C 0.27101 0.09497 0.98281 0.0
O10 O 0.25999 0.09126 0.15505 0.0
O11 O 0.28387 0.11438 0.13967 0.0
O12 O 0.26828 0.06122 0.05575 0.0
O13 O 0.28452 0.0841 0.10252 0.0
Co14 Co 0.92103 0.19078 0.10868 0.0
O15 O 0.9338 0.20019 0.18202 0.0
O16 O 0.93595 0.1829 0.11945 0.0
C17 C 0.92342 0.21386 0.06987 0.0
O18 O 0.91048 0.17887 0.02848 0.0
Co19 Co 0.88939 0.19151 0.08147 0.0
O20 O 0.89329 0.18687 0.99542 0.0
C21 C 0.88879 0.16677 0.16665 0.0
C22 C 0.94098 0.19205 0.1686 0.0
C23 C 0.90131 0.17968 0.98654 0.0
O24 O 0.90403 0.17221 0.15884 0.0
O25 O 0.88105 0.17307 0.14175 0.0
O26 O 0.9349 0.21049 0.06124 0.0
O27 O 0.91182 0.20404 0.10581 0.0
Co28 Co 0.80134 0.73005 0.10198 0.0
O29 O 0.79087 0.7365 0.16189 0.0
O30 O 0.81048 0.75328 0.09862 0.0
C31 C 0.77887 0.70901 0.06105 0.0
O32 O 0.81452 0.72744 0.03352 0.0
Co33 Co 0.79801 0.69595 0.11573 0.0
O34 O 0.80957 0.70175 0.03491 0.0
C35 C 0.81978 0.72234 0.19859 0.0
C36 C 0.8002 0.75119 0.14248 0.0
C37 C 0.81627 0.71589 0.0112 0.0
O38 O 0.81805 0.73257 0.16538 0.0
O39 O 0.81144 0.70701 0.19076 0.0
O40 O 0.78346 0.7237 0.04341 0.0
O41 O 0.78669 0.70786 0.10787 0.0
Co42 Co 0.07215 0.26851 0.38717 0.0
O43 O 0.05609 0.26283 0.32415 0.0
O44 O 0.05735 0.24538 0.38871 0.0
C45 C 0.07101 0.28983 0.42658 0.0
O46 O 0.08694 0.27039 0.45864 0.0
Co47 Co 0.10374 0.30215 0.37755 0.0
O48 O 0.10811 0.29586 0.46005 0.0
C49 C 0.09914 0.27565 0.29537 0.0
C50 C 0.04998 0.24801 0.34312 0.0
C51 C 0.1001 0.28167 0.48305 0.0
O52 O 0.08667 0.2656 0.32683 0.0
O53 O 0.1065 0.29098 0.30372 0.0
O54 O 0.06037 0.2752 0.44294 0.0
O55 O 0.08044 0.29083 0.38168 0.0
Co56 Co 0.73822 0.81608 0.3873 0.0
O57 O 0.74019 0.80681 0.31089 0.0
O58 O 0.76074 0.82361 0.37055 0.0
C59 C 0.71791 0.79298 0.42779 0.0
O60 O 0.74104 0.82767 0.46972 0.0
Co61 Co 0.70669 0.81583 0.42558 0.0
O62 O 0.71635 0.81912 0.5096 0.0
C63 C 0.72953 0.84052 0.33704 0.0
C64 C 0.75569 0.81457 0.3211 0.0
C65 C 0.73167 0.82621 0.51524 0.0
O66 O 0.73931 0.83494 0.34076 0.0
O67 O 0.71593 0.83433 0.36545 0.0
O68 O 0.7328 0.79611 0.43199 0.0
O69 O 0.71578 0.80307 0.39496 0.0
Co70 Co 0.19172 0.92222 0.38105 0.0
O71 O 0.20241 0.93714 0.31412 0.0
O72 O 0.18319 0.93667 0.37352 0.0
C73 C 0.21434 0.92463 0.42507 0.0
O74 O 0.1782 0.90924 0.45495 0.0
Co75 Co 0.19357 0.89084 0.39897 0.0
O76 O 0.18541 0.8911 0.48341 0.0
C77 C 0.17045 0.89149 0.30808 0.0
C78 C 0.19351 0.94344 0.32848 0.0
C79 C 0.17776 0.89865 0.49299 0.0
O80 O 0.17476 0.90621 0.32238 0.0
O81 O 0.17701 0.88378 0.3312 0.0
O82 O 0.21003 0.93532 0.4363 0.0
O83 O 0.20574 0.91384 0.38411 0.0
Co84 Co 0.7294 0.92555 0.88455 0.0
O85 O 0.73491 0.93983 0.81509 0.0
O86 O 0.7524 0.9409 0.88546 0.0
C87 C 0.70736 0.92659 0.91585 0.0
O88 O 0.72779 0.91293 0.96291 0.0
Co89 Co 0.69643 0.89309 0.88289 0.0
O90 O 0.70244 0.89173 0.97005 0.0
C91 C 0.72348 0.89673 0.80592 0.0
C92 C 0.74972 0.94674 0.83505 0.0
C93 C 0.71663 0.90061 0.99213 0.0
O94 O 0.73318 0.9101 0.83331 0.0
O95 O 0.70814 0.88903 0.81423 0.0
O96 O 0.72175 0.93803 0.93145 0.0
O97 O 0.70704 0.91632 0.87609 0.0
Co98 Co 0.07157 0.80473 0.87871 0.0
O99 O 0.05441 0.7928 0.82113 0.0
O100 O 0.05698 0.81337 0.87774 0.0
C101 C 0.0709 0.78339 0.92669 0.0
O102 O 0.08781 0.81948 0.94355 0.0
Co103 Co 0.10251 0.80156 0.86564 0.0
O104 O 0.10915 0.8154 0.94098 0.0
C105 C 0.09669 0.82131 0.77691 0.0
C106 C 0.04881 0.8022 0.83654 0.0
C107 C 0.1017 0.82223 0.96351 0.0
O108 O 0.08513 0.82025 0.81104 0.0
O109 O 0.10374 0.81311 0.78648 0.0
O110 O 0.06069 0.78802 0.94233 0.0
O111 O 0.07943 0.79035 0.87794 0.0
Co112 Co 0.18749 0.2651 0.88842 0.0
O113 O 0.19741 0.26227 0.81557 0.0
O114 O 0.17958 0.24235 0.87512 0.0
C115 C 0.21042 0.28537 0.93031 0.0
O116 O 0.175 0.26323 0.96763 0.0
Co117 Co 0.18842 0.29746 0.91806 0.0
O118 O 0.18291 0.28823 0.00294 0.0
C119 C 0.16431 0.27418 0.82862 0.0
C120 C 0.18915 0.24685 0.82714 0.0
C121 C 0.17552 0.27295 0.01019 0.0
O122 O 0.1694 0.26411 0.83672 0.0
O123 O 0.17064 0.28808 0.85479 0.0
O124 O 0.20681 0.27041 0.93768 0.0
O125 O 0.20091 0.28752 0.89401 0.0
Co126 Co 0.91943 0.73074 0.60191 0.0
O127 O 0.93282 0.73406 0.67328 0.0
O128 O 0.93402 0.75362 0.61399 0.0
C129 C 0.92223 0.71065 0.55919 0.0
O130 O 0.908 0.73212 0.52416 0.0
Co131 Co 0.88816 0.69786 0.57536 0.0
O132 O 0.89066 0.70697 0.49069 0.0
C133 C 0.88748 0.72103 0.66578 0.0
C134 C 0.93958 0.74943 0.66136 0.0
C135 C 0.89834 0.72224 0.48292 0.0
O136 O 0.90248 0.73142 0.65572 0.0
O137 O 0.88001 0.70701 0.64046 0.0
O138 O 0.93332 0.72567 0.55066 0.0
O139 O 0.91079 0.70838 0.59694 0.0
Co140 Co 0.2675 0.19423 0.60462 0.0
O141 O 0.26184 0.20426 0.66923 0.0
O142 O 0.24446 0.18632 0.60221 0.0
C143 C 0.28931 0.21687 0.56874 0.0
O144 O 0.26917 0.18174 0.5312 0.0
Co145 Co 0.30074 0.19538 0.61139 0.0
O146 O 0.29448 0.18569 0.52722 0.0
C147 C 0.274 0.17335 0.6928 0.0
C148 C 0.24707 0.19594 0.64913 0.0
C149 C 0.28024 0.17986 0.5049 0.0
O150 O 0.26406 0.17616 0.6625 0.0
O151 O 0.28932 0.18109 0.68415 0.0
O152 O 0.27484 0.21331 0.55155 0.0
O153 O 0.28985 0.20779 0.6119 0.0
Co154 Co 0.80295 0.07583 0.60934 0.0
O155 O 0.79305 0.0605 0.67489 0.0
O156 O 0.81174 0.06142 0.6111 0.0
C157 C 0.78019 0.07389 0.56939 0.0
O158 O 0.81542 0.08993 0.53575 0.0
Co159 Co 0.80026 0.10711 0.61361 0.0
O160 O 0.81032 0.11054 0.5302 0.0
C161 C 0.82279 0.1039 0.69694 0.0
C162 C 0.80202 0.05451 0.65789 0.0
C163 C 0.81676 0.1026 0.50884 0.0
O164 O 0.82047 0.0912 0.66754 0.0
O165 O 0.81458 0.11095 0.68722 0.0
O166 O 0.78431 0.06323 0.55497 0.0
O167 O 0.78867 0.0838 0.61304 0.0
Co168 Co 0.93809 0.411 0.43479 0.0
O169 O 0.93395 0.39541 0.49858 0.0
O170 O 0.91503 0.39623 0.44153 0.0
C171 C 0.95834 0.40932 0.38756 0.0
O172 O 0.938 0.42509 0.36401 0.0
Co173 Co 0.97175 0.44262 0.42803 0.0
O174 O 0.96379 0.44429 0.34458 0.0
C175 C 0.94802 0.43921 0.52312 0.0
C176 C 0.91874 0.38913 0.48486 0.0
C177 C 0.94878 0.43666 0.33069 0.0
O178 O 0.93697 0.42617 0.49733 0.0
O179 O 0.96288 0.44661 0.50631 0.0
O180 O 0.94335 0.39868 0.37573 0.0
O181 O 0.96044 0.41933 0.43175 0.0
Co182 Co 0.58876 0.52722 0.44455 0.0
O183 O 0.60346 0.53569 0.513 0.0
O184 O 0.60275 0.51795 0.44471 0.0
C185 C 0.59164 0.55089 0.4105 0.0
O186 O 0.57539 0.51618 0.36752 0.0
Co187 Co 0.55785 0.53055 0.44619 0.0
O188 O 0.55526 0.52193 0.36044 0.0
C189 C 0.55962 0.50653 0.5258 0.0
C190 C 0.6093 0.52674 0.49404 0.0
C191 C 0.56323 0.51555 0.3389 0.0
O192 O 0.57256 0.50897 0.49795 0.0
O193 O 0.55293 0.5151 0.51677 0.0
O194 O 0.60222 0.5467 0.39534 0.0
O195 O 0.58114 0.54174 0.45133 0.0
Co196 Co 0.4722 0.06409 0.45171 0.0
O197 O 0.46397 0.06895 0.52476 0.0
O198 O 0.47867 0.08678 0.45215 0.0
C199 C 0.4492 0.04134 0.42491 0.0
O200 O 0.48234 0.06334 0.36926 0.0
Co201 Co 0.47361 0.03223 0.4427 0.0
O202 O 0.47689 0.03783 0.3534 0.0
C203 C 0.4991 0.06036 0.51072 0.0
C204 C 0.4708 0.08372 0.50443 0.0
C205 C 0.48219 0.05227 0.33452 0.0
O206 O 0.49255 0.06892 0.49757 0.0
O207 O 0.49314 0.04549 0.49548 0.0
O208 O 0.4512 0.05545 0.41045 0.0
O209 O 0.46021 0.0416 0.46049 0.0
Co210 Co 0.73853 0.59821 0.71597 0.0
O211 O 0.72326 0.59288 0.65024 0.0
O212 O 0.72402 0.57498 0.71369 0.0
C213 C 0.73655 0.61899 0.75621 0.0
O214 O 0.75259 0.59976 0.78967 0.0
Co215 Co 0.76981 0.63225 0.71223 0.0
O216 O 0.77315 0.62552 0.79555 0.0
C217 C 0.7666 0.60663 0.62822 0.0
C218 C 0.71717 0.5779 0.66698 0.0
C219 C 0.76523 0.61112 0.81675 0.0
O220 O 0.75395 0.59614 0.65771 0.0
O221 O 0.77357 0.62187 0.63813 0.0
O222 O 0.72588 0.60418 0.7704 0.0
O223 O 0.7465 0.62046 0.71273 0.0
Co224 Co 0.3955 0.1382 0.73429 0.0
O225 O 0.40059 0.12819 0.66799 0.0
O226 O 0.41859 0.14627 0.73302 0.0
C227 C 0.37412 0.11548 0.77184 0.0
O228 O 0.39434 0.1507 0.80882 0.0
Co229 Co 0.36205 0.1367 0.73253 0.0
O230 O 0.3689 0.14624 0.81668 0.0
C231 C 0.38802 0.15878 0.64847 0.0
C232 C 0.41555 0.13665 0.68569 0.0
C233 C 0.38334 0.15232 0.83714 0.0
O234 O 0.39828 0.15613 0.67718 0.0
O235 O 0.37278 0.15095 0.65893 0.0
O236 O 0.38874 0.11916 0.78718 0.0
O237 O 0.37316 0.12453 0.72955 0.0
Co238 Co 0.85824 0.25803 0.71971 0.0
O239 O 0.86876 0.27139 0.64865 0.0
O240 O 0.85153 0.27391 0.71018 0.0
C241 C 0.88053 0.25894 0.76037 0.0
O242 O 0.84534 0.24703 0.79778 0.0
Co243 Co 0.85711 0.22534 0.74349 0.0
O244 O 0.85175 0.22852 0.82935 0.0
C245 C 0.83368 0.2268 0.65665 0.0
C246 C 0.86121 0.27913 0.66256 0.0
C247 C 0.8451 0.23705 0.83851 0.0
O248 O 0.83972 0.24207 0.66621 0.0
O249 O 0.83921 0.21833 0.68125 0.0
O250 O 0.8777 0.27075 0.77008 0.0
O251 O 0.87068 0.24789 0.72259 0.0
Co252 Co 0.40215 0.25872 0.2358 0.0
O253 O 0.40593 0.27252 0.16548 0.0
O254 O 0.42499 0.27395 0.22856 0.0
C255 C 0.38113 0.2605 0.27489 0.0
O256 O 0.40298 0.2471 0.31376 0.0
Co257 Co 0.36964 0.2267 0.25669 0.0
O258 O 0.37753 0.22966 0.34353 0.0
C259 C 0.39448 0.22732 0.17186 0.0
C260 C 0.42113 0.27973 0.18099 0.0
C261 C 0.39268 0.23754 0.35405 0.0
O262 O 0.40416 0.24248 0.18199 0.0
O263 O 0.38032 0.2192 0.19559 0.0
O264 O 0.39591 0.27184 0.28599 0.0
O265 O 0.37962 0.2494 0.23671 0.0
Co266 Co 0.73884 0.14183 0.21839 0.0
O267 O 0.72276 0.1315 0.15541 0.0
O268 O 0.72454 0.1508 0.21789 0.0
C269 C 0.73684 0.11919 0.25995 0.0
O270 O 0.75382 0.1548 0.28949 0.0
Co271 Co 0.76968 0.13841 0.21063 0.0
O272 O 0.77418 0.14928 0.29273 0.0
C273 C 0.76606 0.16047 0.12602 0.0
C274 C 0.717 0.14062 0.17292 0.0
C275 C 0.76669 0.15614 0.31467 0.0
O276 O 0.75378 0.15873 0.15713 0.0
O277 O 0.77291 0.15207 0.13551 0.0
O278 O 0.72656 0.12374 0.27539 0.0
O279 O 0.74641 0.12721 0.21479 0.0
Co280 Co 0.85603 0.6003 0.2167 0.0
O281 O 0.86571 0.59747 0.14304 0.0
O282 O 0.84963 0.57779 0.20737 0.0
C283 C 0.87861 0.62215 0.25312 0.0
O284 O 0.84415 0.59841 0.29756 0.0
Co285 Co 0.85441 0.63148 0.24317 0.0
O286 O 0.85055 0.62328 0.32965 0.0
C287 C 0.83023 0.60604 0.15986 0.0
C288 C 0.85861 0.58223 0.15773 0.0
C289 C 0.84429 0.60816 0.33916 0.0
O290 O 0.83666 0.5971 0.16756 0.0
O291 O 0.8358 0.6201 0.18412 0.0
O292 O 0.87626 0.60769 0.26268 0.0
O293 O 0.86806 0.62292 0.21799 0.0
Co294 Co 0.58694 0.06666 0.95033 0.0
O295 O 0.59991 0.0714 0.02389 0.0
O296 O 0.60234 0.08956 0.95412 0.0
C297 C 0.58859 0.04492 0.91938 0.0
O298 O 0.57622 0.06624 0.8679 0.0
Co299 Co 0.55459 0.03404 0.9357 0.0
O300 O 0.55743 0.04049 0.84726 0.0
C301 C 0.55528 0.0607 0.00796 0.0
C302 C 0.60738 0.08637 0.0055 0.0
C303 C 0.56605 0.05523 0.8309 0.0
O304 O 0.57048 0.06992 -0.00279 0.0
O305 O 0.54701 0.04602 0.98951 0.0
O306 O 0.60031 0.05946 0.90745 0.0
O307 O 0.57735 0.04412 0.95516 0.0
Co308 Co 0.9388 0.53095 0.93488 0.0
O309 O 0.9338 0.54196 -0.00227 0.0
O310 O 0.91565 0.52229 0.93803 0.0
C311 C 0.95937 0.55321 0.8906 0.0
O312 O 0.9396 0.51716 0.86445 0.0
Co313 Co 0.97266 0.53343 0.93315 0.0
O314 O 0.96556 0.52383 0.84903 0.0
C315 C 0.94813 0.51261 0.02513 0.0
C316 C 0.91875 0.53286 0.98183 0.0
C317 C 0.95069 0.51644 0.83304 0.0
O318 O 0.93724 0.51449 -0.00256 0.0
O319 O 0.96315 0.52032 0.01052 0.0
O320 O 0.94447 0.54874 0.87641 0.0
O321 O 0.96112 0.5452 0.93523 0.0
Co322 Co 0.47578 0.40885 0.94294 0.0
O323 O 0.46662 0.39595 0.01616 0.0
O324 O 0.48426 0.39443 0.9534 0.0
C325 C 0.45242 0.40565 0.90365 0.0
O326 O 0.48744 0.41952 0.86253 0.0
Co327 Co 0.47396 0.43986 0.91535 0.0
O328 O 0.4784 0.43584 0.82919 0.0
C329 C 0.49917 0.44144 0.00045 0.0
C330 C 0.47499 0.38904 0.00212 0.0
C331 C 0.48596 0.42818 0.82016 0.0
O332 O 0.4941 0.42625 0.99319 0.0
O333 O 0.49254 0.44882 0.97513 0.0
O334 O 0.45627 0.3945 0.89554 0.0
O335 O 0.46193 0.4174 0.93976 0.0
Co336 Co 0.60804 0.7385 0.77509 0.0
O337 O 0.60192 0.72163 0.83509 0.0
O338 O 0.58497 0.72364 0.77013 0.0
C339 C 0.62986 0.73821 0.73608 0.0
O340 O 0.61028 0.75404 0.70613 0.0
Co341 Co 0.64135 0.77021 0.79013 0.0
O342 O 0.63566 0.77534 0.70782 0.0
C343 C 0.61415 0.76445 0.87077 0.0
C344 C 0.58725 0.71573 0.81455 0.0
C345 C 0.62161 0.76744 0.68351 0.0
O346 O 0.60445 0.75215 0.8377 0.0
O347 O 0.62952 0.77215 0.86354 0.0
O348 O 0.6154 0.72763 0.71758 0.0
O349 O 0.63038 0.74697 0.78272 0.0
Co350 Co 0.25971 0.86073 0.77391 0.0
O351 O 0.27368 0.87106 0.84378 0.0
O352 O 0.27511 0.85335 0.78133 0.0
C353 C 0.26109 0.88329 0.73392 0.0
O354 O 0.24793 0.84787 0.69671 0.0
Co355 Co 0.22744 0.86077 0.75338 0.0
O356 O 0.22967 0.85482 0.66724 0.0
C357 C 0.22857 0.83703 0.83948 0.0
C358 C 0.2809 0.86307 0.82868 0.0
C359 C 0.23779 0.84779 0.65713 0.0
O360 O 0.24371 0.84255 0.82857 0.0
O361 O 0.22035 0.84298 0.81594 0.0
O362 O 0.27253 0.88001 0.72274 0.0
O363 O 0.25016 0.87372 0.77262 0.0
Co364 Co 0.13929 0.3977 0.78004 0.0
O365 O 0.12992 0.40395 0.84495 0.0
O366 O 0.14947 0.42109 0.78241 0.0
C367 C 0.11606 0.37791 0.73842 0.0
O368 O 0.15142 0.39516 0.70727 0.0
Co369 Co 0.13403 0.36266 0.78484 0.0
O370 O 0.14477 0.36894 0.7025 0.0
C371 C 0.15733 0.38753 0.869 0.0
C372 C 0.13971 0.4188 0.82856 0.0
C373 C 0.15206 0.38335 0.68113 0.0
O374 O 0.15604 0.3985 0.83928 0.0
O375 O 0.14828 0.37236 0.8592 0.0
O376 O 0.12118 0.39295 0.7244 0.0
O377 O 0.12386 0.37573 0.78281 0.0
Co378 Co 0.41154 0.93215 0.07179 0.0
O379 O 0.39736 0.92986 0.0045 0.0
O380 O 0.39638 0.90948 0.05752 0.0
C381 C 0.40958 0.9519 0.122 0.0
O382 O 0.42382 0.92981 0.14475 0.0
Co383 Co 0.44341 0.96463 0.09688 0.0
O384 O 0.44193 0.95465 0.17912 0.0
C385 C 0.44246 0.94217 -0.0009 0.0
C386 C 0.39034 0.91438 0.01412 0.0
C387 C 0.43414 0.93932 0.18517 0.0
O388 O 0.42764 0.93173 0.01203 0.0
O389 O 0.45031 0.95605 0.02538 0.0
O390 O 0.39848 0.93684 0.12929 0.0
O391 O 0.42051 0.9545 0.08116 0.0
Co392 Co 0.06779 0.47554 0.04328 0.0
O393 O 0.07408 0.46678 0.97613 0.0
O394 O 0.09106 0.48466 0.04431 0.0
C395 C 0.04679 0.45208 0.07798 0.0
O396 O 0.06529 0.48683 0.11905 0.0
Co397 Co 0.03359 0.47234 0.03799 0.0
O398 O 0.03942 0.4813 0.12333 0.0
C399 C 0.05977 0.49598 0.95877 0.0
C400 C 0.08884 0.47569 0.99553 0.0
C401 C 0.05366 0.48763 0.14605 0.0
O402 O 0.07014 0.49369 0.98839 0.0
O403 O 0.04446 0.48741 0.9667 0.0
O404 O 0.0615 0.45621 0.09384 0.0
O405 O 0.04563 0.46108 0.03597 0.0
Co406 Co 0.52275 0.58582 0.04278 0.0
O407 O 0.53356 0.59904 0.97198 0.0
O408 O 0.51452 0.6003 0.02654 0.0
C409 C 0.54524 0.58904 0.09066 0.0
O410 O 0.50917 0.57446 0.11917 0.0
Co411 Co 0.52444 0.5548 0.07317 0.0
O412 O 0.51714 0.55754 0.15616 0.0
C413 C 0.5015 0.55374 0.97761 0.0
C414 C 0.52487 0.60584 0.98099 0.0
C415 C 0.50929 0.56503 0.16165 0.0
O416 O 0.50577 0.56866 0.98744 0.0
O417 O 0.50799 0.54646 0.00481 0.0
O418 O 0.54107 0.60001 0.09624 0.0
O419 O 0.53662 0.57746 0.05242 0.0
Co420 Co 0.06824 0.59108 0.54468 0.0
O421 O 0.0715 0.60326 0.46969 0.0
O422 O 0.09098 0.60614 0.5337 0.0
C423 C 0.0473 0.59339 0.58129 0.0
O424 O 0.06979 0.58136 0.62666 0.0
Co425 Co 0.03618 0.55942 0.57482 0.0
O426 O 0.04473 0.56414 0.66085 0.0
C427 C 0.06037 0.55854 0.49069 0.0
C428 C 0.08681 0.61075 0.4836 0.0
C429 C 0.05994 0.5725 0.66948 0.0
O430 O 0.07007 0.57385 0.49728 0.0
O431 O 0.04633 0.55086 0.51577 0.0
O432 O 0.06209 0.6051 0.58932 0.0
O433 O 0.04572 0.58157 0.5472 0.0
Co434 Co 0.40622 0.4664 0.54149 0.0
O435 O 0.38931 0.4553 0.48212 0.0
O436 O 0.39177 0.47514 0.54322 0.0
C437 C 0.4052 0.44439 0.58493 0.0
O438 O 0.42204 0.48022 0.60894 0.0
Co439 Co 0.43729 0.46357 0.52813 0.0
O440 O 0.44332 0.47607 0.60685 0.0
C441 C 0.43217 0.48472 0.44382 0.0
C442 C 0.3837 0.46451 0.50021 0.0
C443 C 0.43568 0.48261 0.63024 0.0
O444 O 0.4201 0.48281 0.47683 0.0
O445 O 0.43945 0.4767 0.45237 0.0
O446 O 0.39496 0.44889 0.60157 0.0
O447 O 0.41409 0.45199 0.5376 0.0
Co448 Co 0.53046 0.93246 0.56899 0.0
O449 O 0.54329 0.92789 0.51347 0.0
O450 O 0.52282 0.90941 0.56908 0.0
C451 C 0.55094 0.95387 0.61785 0.0
O452 O 0.51491 0.93326 0.63175 0.0
Co453 Co 0.53189 0.9657 0.55246 0.0
O454 O 0.51773 0.95816 0.62686 0.0
C455 C 0.51327 0.93943 0.46444 0.0
C456 C 0.53429 0.91282 0.52884 0.0
C457 C 0.51138 0.94398 0.65012 0.0
O458 O 0.51497 0.92949 0.49955 0.0
O459 O 0.52071 0.95473 0.47343 0.0
O460 O 0.54695 0.93924 0.63422 0.0
O461 O 0.54402 0.9549 0.56792 0.0
Co462 Co 0.25344 0.39311 0.27946 0.0
O463 O 0.26629 0.39679 0.35282 0.0
O464 O 0.26859 0.41591 0.28812 0.0
C465 C 0.25541 0.37197 0.2429 0.0
O466 O 0.2429 0.39416 0.19888 0.0
Co467 Co 0.22148 0.36086 0.25456 0.0
O468 O 0.22495 0.36898 0.16795 0.0
C469 C 0.22148 0.38567 0.33774 0.0
C470 C 0.27361 0.41202 0.33786 0.0
C471 C 0.23332 0.38413 0.15793 0.0
O472 O 0.23671 0.39528 0.32886 0.0
O473 O 0.21353 0.37145 0.3143 0.0
O474 O 0.26703 0.38671 0.23315 0.0
O475 O 0.24393 0.37057 0.27861 0.0
Co476 Co 0.60151 0.85248 0.2745 0.0
O477 O 0.59932 0.863 0.34688 0.0
O478 O 0.57883 0.84419 0.29225 0.0
C479 C 0.6207 0.87518 0.22738 0.0
O480 O 0.59903 0.83921 0.19672 0.0
Co481 Co 0.63409 0.85427 0.24049 0.0
O482 O 0.6238 0.84757 0.15762 0.0
C483 C 0.61253 0.83095 0.33573 0.0
C484 C 0.58379 0.85431 0.33863 0.0
C485 C 0.60844 0.83965 0.15295 0.0
O486 O 0.60189 0.83533 0.328 0.0
O487 O 0.62615 0.83744 0.30734 0.0
O488 O 0.60553 0.87104 0.22269 0.0
O489 O 0.62373 0.86637 0.26422 0.0
Co490 Co 0.14136 0.74287 0.2743 0.0
O491 O 0.13069 0.72642 0.33571 0.0
O492 O 0.14998 0.72833 0.27281 0.0
C493 C 0.11899 0.74156 0.2331 0.0
O494 O 0.15469 0.7581 0.20457 0.0
Co495 Co 0.13873 0.77412 0.28398 0.0
O496 O 0.15003 0.77901 0.20268 0.0
C497 C 0.16013 0.76945 0.36878 0.0
C498 C 0.13965 0.72057 0.31702 0.0
C499 C 0.15658 0.77128 0.1804 0.0
O500 O 0.15825 0.75725 0.33676 0.0
O501 O 0.15201 0.77661 0.35963 0.0
O502 O 0.12333 0.7312 0.21649 0.0
O503 O 0.12706 0.75085 0.27888 0.0
C504 C 0.20706 0.96509 0.24908 0.0
C505 C 0.19618 0.95853 0.29875 0.0
C506 C 0.2118 0.98058 0.22643 0.0
C507 C 0.20551 0.98973 0.25422 0.0
C508 C 0.19367 0.98274 0.30148 0.0
C509 C 0.18913 0.96717 0.3233 0.0
C510 C 0.22435 0.98753 0.17543 0.0
C511 C 0.18655 0.99205 0.33168 0.0
C512 C 0.23637 0.03419 0.24649 0.0
C513 C 0.23166 0.03882 0.19217 0.0
C514 C 0.22716 0.01849 0.27018 0.0
C515 C 0.21293 0.00716 0.2386 0.0
C516 C 0.20735 0.01219 0.18695 0.0
C517 C 0.21681 0.02802 0.16426 0.0
C518 C 0.23342 0.01369 0.32598 0.0
C519 C 0.19211 0.00052 0.15267 0.0
H520 H 0.21241 0.95839 0.22944 0.0
H521 H 0.18063 0.96211 0.36153 0.0
H522 H 0.22027 0.99258 0.1377 0.0
H523 H 0.23581 0.99759 0.19438 0.0
H524 H 0.22693 0.97836 0.15509 0.0
H525 H 0.17553 0.98404 0.35914 0.0
H526 H 0.19563 0.00132 0.3634 0.0
H527 H 0.18342 0.99849 0.29625 0.0
H528 H 0.24772 0.04257 0.26876 0.0
H529 H 0.21306 0.03158 0.12242 0.0
H530 H 0.23782 0.00543 0.311 0.0
H531 H 0.2236 0.00707 0.36026 0.0
H532 H 0.24354 0.02432 0.34939 0.0
H533 H 0.19454 0.99236 0.12359 0.0
H534 H 0.18781 0.00692 0.12181 0.0
H535 H 0.18231 0.99286 0.18571 0.0
C536 C 0.96031 0.20467 0.25625 0.0
C537 C 0.95522 0.19444 0.20432 0.0
C538 C 0.97544 0.2098 0.28343 0.0
C539 C 0.98569 0.2045 0.2581 0.0
C540 C 0.97992 0.19284 0.2099 0.0
C541 C 0.96472 0.18797 0.18325 0.0
C542 C 0.98104 0.22211 0.3353 0.0
C543 C 0.99031 0.18655 0.18289 0.0
C544 C 0.02894 0.23845 0.26123 0.0
C545 C 0.03471 0.23519 0.31602 0.0
C546 C 0.01332 0.22789 0.23958 0.0
C547 C 0.00319 0.21363 0.27351 0.0
C548 C 0.00938 0.20957 0.32608 0.0
C549 C 0.02514 0.22047 0.34696 0.0
C550 C 0.00729 0.23264 0.18288 0.0
C551 C 0.99907 0.1943 0.36259 0.0
H552 H 0.95288 0.20947 0.27352 0.0
H553 H 0.96073 0.17984 0.14369 0.0
H554 H 0.98661 0.21872 0.37334 0.0
H555 H 0.99041 0.23408 0.31726 0.0
H556 H 0.97097 0.22339 0.35489 0.0
H557 H 0.98296 0.17512 0.15668 0.0
H558 H -0.00073 0.19568 0.15047 0.0
H559 H 0.99713 0.18444 0.21995 0.0
H560 H 0.03641 0.24969 0.23651 0.0
H561 H 0.02961 0.21785 0.38913 0.0
H562 H 0.9977 0.23536 0.19679 0.0
H563 H 0.00188 0.22253 0.14903 0.0
H564 H 0.01709 0.24346 0.15918 0.0
H565 H 0.99085 0.19615 0.39361 0.0
H566 H 0.00658 0.191 0.39188 0.0
H567 H 0.99145 0.18402 0.33123 0.0
C568 C 0.7607 0.80201 0.22878 0.0
C569 C 0.76667 0.81153 0.2824 0.0
C570 C 0.76945 0.79567 0.19962 0.0
C571 C 0.78448 0.79894 0.2249 0.0
C572 C 0.7914 0.81006 0.27459 0.0
C573 C 0.78237 0.81624 0.30298 0.0
C574 C 0.76175 0.78408 0.14597 0.0
C575 C 0.80759 0.81418 0.30177 0.0
C576 C 0.78876 0.76178 0.22053 0.0
C577 C 0.79838 0.76456 0.1677 0.0
C578 C 0.78493 0.77332 0.24137 0.0
C579 C 0.79089 0.78809 0.2086 0.0
C580 C 0.80145 0.79143 0.15747 0.0
C581 C 0.80507 0.77956 0.13743 0.0
C582 C 0.77374 0.76929 0.29657 0.0
C583 C 0.80823 0.80712 0.12193 0.0
H584 H 0.74871 0.7986 0.21187 0.0
H585 H 0.78716 0.82382 0.3439 0.0
H586 H 0.77073 0.78658 0.10873 0.0
H587 H 0.75725 0.77152 0.16245 0.0
H588 H 0.75139 0.78478 0.12585 0.0
H589 H 0.81284 0.82546 0.32987 0.0
H590 H 0.80606 0.80416 0.33244 0.0
H591 H 0.81628 0.81563 0.26462 0.0
H592 H 0.78374 0.7503 0.24467 0.0
H593 H 0.81259 0.78179 0.09669 0.0
H594 H 0.76217 0.76832 0.28139 0.0
H595 H 0.77921 0.77906 0.33184 0.0
H596 H 0.77098 0.7577 0.31904 0.0
H597 H 0.7988 0.80657 0.09021 0.0
H598 H 0.81889 0.8094 0.09348 0.0
H599 H 0.8118 0.81749 0.15388 0.0
C600 C 0.7589 0.96596 0.74664 0.0
C601 C 0.76248 0.96124 0.80334 0.0
C602 C 0.76933 0.98115 0.72109 0.0
C603 C 0.78378 0.99186 0.75291 0.0
C604 C 0.78835 0.98646 0.80641 0.0
C605 C 0.77755 0.97117 0.83143 0.0
C606 C 0.76403 0.98632 0.66348 0.0
C607 C 0.80399 0.99729 0.84008 0.0
C608 C 0.80721 0.03121 0.66424 0.0
C609 C 0.80024 0.03992 0.68886 0.0
C610 C 0.8032 0.01597 0.68854 0.0
C611 C 0.79183 0.00935 0.73764 0.0
C612 C 0.78587 0.01874 0.76578 0.0
C613 C 0.79023 0.03393 0.74124 0.0
C614 C 0.81028 0.00658 0.65881 0.0
C615 C 0.77375 0.01222 0.81843 0.0
H616 H 0.74744 0.95815 0.72384 0.0
H617 H 0.78052 0.96743 0.87471 0.0
H618 H 0.7607 0.99555 0.6762 0.0
H619 H 0.77405 0.9919 0.62931 0.0
H620 H 0.75342 0.97602 0.64071 0.0
H621 H 0.80771 0.99018 0.86971 0.0
H622 H 0.81386 0.00462 0.80674 0.0
H623 H 0.80237 0.00577 0.87048 0.0
H624 H 0.81516 0.03591 0.62429 0.0
H625 H 0.78507 0.04075 0.76137 0.0
H626 H 0.80182 0.99838 0.62282 0.0
H627 H 0.81212 0.99905 0.6935 0.0
H628 H 0.82202 0.01478 0.63585 0.0
H629 H 0.76215 0.00199 0.80132 0.0
H630 H 0.77131 0.02155 0.83814 0.0
H631 H 0.77817 0.00756 0.85633 0.0
C632 C 0.02412 0.80521 0.83863 0.0
C633 C 0.03343 0.79947 0.80957 0.0
C634 C 0.00836 0.80035 0.8176 0.0
C635 C 0.00192 0.78953 0.76666 0.0
C636 C 0.01177 0.78469 0.73469 0.0
C637 C 0.02736 0.78972 0.75656 0.0
C638 C 0.99833 0.80599 0.85218 0.0
C639 C 0.00549 0.77329 0.67973 0.0
C640 C 0.95866 0.75629 0.74999 0.0
C641 C 0.9539 0.7613 0.69678 0.0
C642 C 0.97379 0.7662 0.77738 0.0
C643 C 0.98444 0.78147 0.75072 0.0
C644 C 0.97905 0.78726 0.70086 0.0
C645 C 0.9638 0.77706 0.67428 0.0
C646 C 0.97896 0.75962 0.83109 0.0
C647 C 0.98991 0.80361 0.67206 0.0
H648 H 0.02882 0.81284 0.87948 0.0
H649 H 0.03463 0.78548 0.73326 0.0
H650 H 0.99099 0.8087 0.81955 0.0
H651 H 0.98984 0.79624 0.88379 0.0
H652 H 0.006 0.81693 0.8806 0.0
H653 H 0.01509 0.77171 0.65731 0.0
H654 H 0.99568 0.76125 0.69522 0.0
H655 H 0.00028 0.77784 0.64435 0.0
H656 H 0.95092 0.74423 0.76835 0.0
H657 H 0.96009 0.78109 0.63358 0.0
H658 H 0.98479 0.76891 0.86796 0.0
H659 H 0.98799 0.75638 0.81456 0.0
H660 H 0.9686 0.74867 0.85176 0.0
H661 H 0.99679 0.8128 0.70832 0.0
H662 H 0.98292 0.80776 0.64387 0.0
H663 H 0.99882 0.80286 0.64117 0.0
C664 C 0.23752 0.20738 0.73137 0.0
C665 C 0.23426 0.19836 0.67652 0.0
C666 C 0.2268 0.21216 0.75365 0.0
C667 C 0.21239 0.20777 0.72029 0.0
C668 C 0.2084 0.19761 0.66749 0.0
C669 C 0.21945 0.19302 0.646 0.0
C670 C 0.23148 0.22288 0.81055 0.0
C671 C 0.193 0.19241 0.63147 0.0
C672 C 0.18593 0.21939 0.81167 0.0
C673 C 0.19195 0.23533 0.79099 0.0
C674 C 0.19127 0.20947 0.78477 0.0
C675 C 0.20294 0.21575 0.73662 0.0
C676 C 0.20781 0.23125 0.71175 0.0
C677 C 0.20223 0.24084 0.73923 0.0
C678 C 0.18548 0.19284 0.81142 0.0
C679 C 0.22011 0.23836 0.65997 0.0
H680 H 0.24884 0.21132 0.75574 0.0
H681 H 0.21682 0.18593 0.60379 0.0
H682 H 0.23394 0.23513 0.797 0.0
H683 H 0.22141 0.21797 0.84464 0.0
H684 H 0.24244 0.22411 0.83382 0.0
H685 H 0.18995 0.18185 0.60108 0.0
H686 H 0.18269 0.18928 0.66329 0.0
H687 H 0.1945 0.20255 0.60164 0.0
H688 H 0.1778 0.21497 0.85118 0.0
H689 H 0.2067 0.25305 0.72229 0.0
H690 H 0.19481 0.19329 0.84341 0.0
H691 H 0.18355 0.18402 0.7741 0.0
H692 H 0.17404 0.18841 0.83798 0.0
H693 H 0.23218 0.24126 0.67791 0.0
H694 H 0.22106 0.24961 0.64083 0.0
H695 H 0.21694 0.22951 0.62161 0.0
C696 C 0.87473 0.29881 0.57652 0.0
C697 C 0.86477 0.29408 0.62921 0.0
C698 C 0.88062 0.31419 0.55043 0.0
C699 C 0.87647 0.32512 0.57784 0.0
C700 C 0.86537 0.31995 0.62794 0.0
C701 C 0.85963 0.30444 0.65313 0.0
C702 C 0.89229 0.31916 0.49652 0.0
C703 C 0.86051 0.33118 0.65789 0.0
C704 C 0.91097 0.36816 0.56654 0.0
C705 C 0.90658 0.37386 0.51431 0.0
C706 C 0.90075 0.35262 0.58995 0.0
C707 C 0.88576 0.34249 0.56025 0.0
C708 C 0.88076 0.34854 0.51 0.0
C709 C 0.89127 0.36423 0.48753 0.0
C710 C 0.90649 0.34672 0.64411 0.0
C711 C 0.8648 0.33815 0.47762 0.0
H712 H 0.87856 0.29076 0.55727 0.0
H713 H 0.85182 0.3008 0.6936 0.0
H714 H 0.88887 0.32499 0.45961 0.0
H715 H 0.90463 0.32815 0.5127 0.0
H716 H 0.89275 0.30871 0.47598 0.0
H717 H 0.84967 0.32453 0.68799 0.0
H718 H 0.87063 0.34016 0.687 0.0
H719 H 0.85794 0.33797 0.62214 0.0
H720 H 0.92271 0.37564 0.58793 0.0
H721 H 0.88781 0.36861 0.44721 0.0
H722 H 0.90881 0.33701 0.62816 0.0
H723 H 0.89703 0.34149 0.68062 0.0
H724 H 0.91779 0.35654 0.66519 0.0
H725 H 0.86563 0.32898 0.44855 0.0
H726 H 0.86146 0.34541 0.4471 0.0
H727 H 0.85497 0.33153 0.51194 0.0
C728 C 0.62894 0.53634 0.58117 0.0
C729 C 0.62347 0.52763 0.5255 0.0
C730 C 0.644 0.5403 0.60607 0.0
C731 C 0.65381 0.53531 0.57467 0.0
C732 C 0.64756 0.52494 0.52244 0.0
C733 C 0.63243 0.52129 0.49801 0.0
C734 C 0.65006 0.55122 0.66239 0.0
C735 C 0.65737 0.51879 0.4894 0.0
C736 C 0.69685 0.56925 0.58267 0.0
C737 C 0.70243 0.56521 0.63617 0.0
C738 C 0.68144 0.55884 0.55877 0.0
C739 C 0.6714 0.54388 0.58874 0.0
C740 C 0.6776 0.53897 0.63878 0.0
C741 C 0.69309 0.54979 0.66239 0.0
C742 C 0.67541 0.56459 0.50501 0.0
C743 C 0.66751 0.52285 0.67038 0.0
H744 H 0.62186 0.54092 0.60356 0.0
H745 H 0.62811 0.51427 0.45557 0.0
H746 H 0.65513 0.54641 0.69721 0.0
H747 H 0.65991 0.56339 0.64824 0.0
H748 H 0.64035 0.55261 0.68494 0.0
H749 H 0.64951 0.50776 0.46171 0.0
H750 H 0.66601 0.52824 0.45717 0.0
H751 H 0.66448 0.51602 0.52295 0.0
H752 H 0.70418 0.58101 0.56127 0.0
H753 H 0.69746 0.54651 0.70323 0.0
H754 H 0.66574 0.56693 0.52151 0.0
H755 H 0.67012 0.55518 0.46839 0.0
H756 H 0.68518 0.57589 0.48383 0.0
H757 H 0.65985 0.52399 0.7065 0.0
H758 H 0.67528 0.51879 0.69358 0.0
H759 H 0.65941 0.51342 0.63684 0.0
C760 C 0.44356 0.14049 0.68109 0.0
C761 C 0.42811 0.13438 0.65505 0.0
C762 C 0.45445 0.136 0.65692 0.0
C763 C 0.44959 0.12505 0.60632 0.0
C764 C 0.43451 0.11992 0.57704 0.0
C765 C 0.42401 0.12471 0.60162 0.0
C766 C 0.47064 0.14212 0.68812 0.0
C767 C 0.42884 0.10829 0.52275 0.0
C768 C 0.4739 0.11136 0.5116 0.0
C769 C 0.46849 0.09599 0.53735 0.0
C770 C 0.46921 0.1219 0.53756 0.0
C771 C 0.45873 0.11677 0.58963 0.0
C772 C 0.45449 0.10189 0.61891 0.0
C773 C 0.45949 0.09173 0.59253 0.0
C774 C 0.47444 0.13793 0.50642 0.0
C775 C 0.44338 0.09596 0.67471 0.0
H776 H 0.44687 0.14814 0.72199 0.0
H777 H 0.4122 0.1202 0.58052 0.0
H778 H 0.46993 0.13278 0.72074 0.0
H779 H 0.48022 0.14453 0.65352 0.0
H780 H 0.47423 0.15335 0.71506 0.0
H781 H 0.41736 0.10652 0.50237 0.0
H782 H 0.43817 0.11273 0.48574 0.0
H783 H 0.42686 0.09635 0.53837 0.0
H784 H 0.4811 0.11484 0.46949 0.0
H785 H 0.45553 0.07999 0.61339 0.0
H786 H 0.477 0.14748 0.54133 0.0
H787 H 0.46455 0.13683 0.476 0.0
H788 H 0.48538 0.1418 0.47724 0.0
H789 H 0.44754 0.10554 0.71072 0.0
H790 H 0.44268 0.08501 0.69582 0.0
H791 H 0.43101 0.09296 0.6604 0.0
C792 C 0.4484 0.30474 0.17584 0.0
C793 C 0.43302 0.29484 0.14989 0.0
C794 C 0.45861 0.3204 0.15281 0.0
C795 C 0.45323 0.3262 0.10299 0.0
C796 C 0.43824 0.31578 0.07377 0.0
C797 C 0.42833 0.30022 0.09759 0.0
C798 C 0.47462 0.33107 0.18448 0.0
C799 C 0.43212 0.32143 0.02005 0.0
C800 C 0.46276 0.36943 0.08909 0.0
C801 C 0.47248 0.3745 0.03576 0.0
C802 C 0.45747 0.3541 0.11464 0.0
C803 C 0.46201 0.3436 0.08602 0.0
C804 C 0.47298 0.34919 0.03554 0.0
C805 C 0.47811 0.36463 0.01088 0.0
C806 C 0.44594 0.34868 0.16912 0.0
C807 C 0.47831 0.33845 0.00449 0.0
H808 H 0.45213 0.30059 0.2161 0.0
H809 H 0.41655 0.29254 0.07686 0.0
H810 H 0.48424 0.33808 0.14985 0.0
H811 H 0.47355 0.33989 0.21484 0.0
H812 H 0.47841 0.32395 0.21368 0.0
H813 H 0.42095 0.31141 -0.00093 0.0
H814 H 0.42944 0.33087 0.03648 0.0
H815 H 0.4415 0.32695 0.98336 0.0
H816 H 0.45857 0.37711 0.10906 0.0
H817 H 0.48575 0.36855 0.9699 0.0
H818 H 0.44978 0.34306 0.20541 0.0
H819 H 0.43367 0.3394 0.15332 0.0
H820 H 0.44511 0.35885 0.19035 0.0
H821 H 0.48109 0.33166 0.03953 0.0
H822 H 0.48913 0.34549 0.9747 0.0
H823 H 0.46834 0.32945 0.97483 0.0
C824 C 0.69586 0.12883 0.09149 0.0
C825 C 0.70185 0.13833 0.14517 0.0
C826 C 0.68022 0.12373 0.07 0.0
C827 C 0.67031 0.12835 0.10278 0.0
C828 C 0.67677 0.13914 0.15378 0.0
C829 C 0.69252 0.14398 0.17469 0.0
C830 C 0.6739 0.11233 0.01508 0.0
C831 C 0.66673 0.1447 0.18881 0.0
C832 C 0.63135 0.11435 0.0141 0.0
C833 C 0.6219 0.09873 0.03861 0.0
C834 C 0.64671 0.12503 0.03894 0.0
C835 C 0.65271 0.11982 0.08862 0.0
C836 C 0.64256 0.10466 0.1171 0.0
C837 C 0.62725 0.09433 0.09186 0.0
C838 C 0.65696 0.14132 0.00873 0.0
C839 C 0.64842 0.09864 0.17046 0.0
H840 H 0.70314 0.12467 0.06777 0.0
H841 H 0.69717 0.15146 0.21593 0.0
H842 H 0.66429 0.10021 0.03086 0.0
H843 H 0.66844 0.11672 0.98019 0.0
H844 H 0.68355 0.11093 0.99196 0.0
H845 H 0.67446 0.1559 0.21584 0.0
H846 H 0.65897 0.14695 0.1567 0.0
H847 H 0.65866 0.13512 0.22187 0.0
H848 H 0.62717 0.11793 0.97353 0.0
H849 H 0.61988 0.08239 0.11177 0.0
H850 H 0.66567 0.14068 0.97634 0.0
H851 H 0.66405 0.15073 0.04402 0.0
H852 H 0.64946 0.14509 0.9818 0.0
H853 H 0.65777 0.09591 0.15336 0.0
H854 H 0.63847 0.0875 0.19188 0.0
H855 H 0.65409 0.10806 0.20692 0.0
C856 C 0.87173 0.57627 0.06967 0.0
C857 C 0.86205 0.57093 0.12311 0.0
C858 C 0.87784 0.56704 0.04299 0.0
C859 C 0.87417 0.55212 0.07051 0.0
C860 C 0.86317 0.54596 0.12085 0.0
C861 C 0.85724 0.55548 0.14674 0.0
C862 C 0.88938 0.57398 0.98879 0.0
C863 C 0.85872 0.52995 0.15064 0.0
C864 C 0.8908 0.52914 0.98212 0.0
C865 C 0.90609 0.53543 0.00983 0.0
C866 C 0.87971 0.53366 0.00365 0.0
C867 C 0.88412 0.5447 0.05377 0.0
C868 C 0.89912 0.5502 0.08432 0.0
C869 C 0.9099 0.5455 0.06194 0.0
C870 C 0.86373 0.52737 0.97051 0.0
C871 C 0.90425 0.56187 0.13838 0.0
H872 H 0.87527 0.5881 0.05055 0.0
H873 H 0.84959 0.55119 0.18765 0.0
H874 H 0.90186 0.57789 0.00486 0.0
H875 H 0.88628 0.56468 0.95224 0.0
H876 H 0.8893 0.58458 0.96784 0.0
H877 H 0.84771 0.52538 0.18001 0.0
H878 H 0.85664 0.52073 0.11488 0.0
H879 H 0.86886 0.53145 0.18053 0.0
H880 H 0.88778 0.52129 0.94193 0.0
H881 H 0.92162 0.55022 0.08408 0.0
H882 H 0.86427 0.53701 0.94006 0.0
H883 H 0.85376 0.52405 0.00424 0.0
H884 H 0.86082 0.51667 0.94118 0.0
H885 H 0.90592 0.57365 0.12224 0.0
H886 H 0.91575 0.56401 0.1598 0.0
H887 H 0.89472 0.55721 0.1747 0.0
C888 C 0.55919 0.69167 0.80833 0.0
C889 C 0.5741 0.70027 0.83916 0.0
C890 C 0.54759 0.676 0.82765 0.0
C891 C 0.55109 0.66888 0.87867 0.0
C892 C 0.5657 0.67796 0.91216 0.0
C893 C 0.577 0.69352 0.89198 0.0
C894 C 0.53204 0.66679 0.7914 0.0
C895 C 0.56989 0.67091 0.96722 0.0
C896 C 0.52298 0.63088 0.96748 0.0
C897 C 0.52813 0.62038 0.94536 0.0
C898 C 0.52915 0.64641 0.94188 0.0
C899 C 0.5407 0.65143 0.89337 0.0
C900 C 0.54458 0.64022 0.86679 0.0
C901 C 0.53826 0.62483 0.8932 0.0
C902 C 0.52444 0.6579 0.97053 0.0
C903 C 0.55668 0.64499 0.81446 0.0
H904 H 0.55685 0.6969 0.76765 0.0
H905 H 0.5884 0.7002 0.91658 0.0
H906 H 0.53285 0.65792 0.76044 0.0
H907 H 0.52161 0.65991 0.82303 0.0
H908 H 0.52965 0.67496 0.76216 0.0
H909 H 0.58119 0.67997 0.99081 0.0
H910 H 0.55991 0.66601 0.00166 0.0
H911 H 0.57151 0.66073 0.95152 0.0
H912 H 0.515 0.62743 0.00743 0.0
H913 H 0.54203 0.61663 0.87518 0.0
H914 H 0.52299 0.66535 0.93432 0.0
H915 H 0.53416 0.66626 0.00259 0.0
H916 H 0.51301 0.65134 -0.00254 0.0
H917 H 0.55411 0.65148 0.77748 0.0
H918 H 0.55666 0.63434 0.79347 0.0
H919 H 0.56902 0.65333 0.83254 0.0
C920 C 0.36473 0.8877 0.00451 0.0
C921 C 0.37523 0.90322 0.98111 0.0
C922 C 0.34911 0.87821 0.97972 0.0
C923 C 0.344 0.88443 0.93043 0.0
C924 C 0.35501 0.89959 0.90378 0.0
C925 C 0.37047 0.9088 0.92957 0.0
C926 C 0.33775 0.86205 0.00897 0.0
C927 C 0.35012 0.90659 0.85065 0.0
C928 C 0.30576 0.86058 0.83517 0.0
C929 C 0.29585 0.86609 0.86072 0.0
C930 C 0.32118 0.86559 0.85991 0.0
C931 C 0.32672 0.87628 0.91132 0.0
C932 C 0.31628 0.8809 0.93991 0.0
C933 C 0.30099 0.87578 0.91415 0.0
C934 C 0.33191 0.86029 0.82853 0.0
C935 C 0.32165 0.89216 0.99528 0.0
H936 H 0.36838 0.88331 0.04431 0.0
H937 H 0.37862 0.92071 0.91081 0.0
H938 H 0.32871 0.86315 0.03782 0.0
H939 H 0.33101 0.85279 0.97278 0.0
H940 H 0.34428 0.85774 0.03913 0.0
H941 H 0.36055 0.91772 0.83137 0.0
H942 H 0.34453 0.89759 0.81268 0.0
H943 H 0.34093 0.90962 0.86707 0.0
H944 H 0.30181 0.85301 0.79401 0.0
H945 H 0.2933 0.8799 0.93457 0.0
H946 H 0.33813 0.85677 0.86347 0.0
H947 H 0.34139 0.87053 0.80137 0.0
H948 H 0.32498 0.84996 0.79639 0.0
H949 H 0.32684 0.88786 0.03171 0.0
H950 H 0.31155 0.89322 0.01591 0.0
H951 H 0.33128 0.90439 0.98076 0.0
C952 C 0.12851 0.42855 0.91073 0.0
C953 C 0.13871 0.43212 0.8592 0.0
C954 C 0.12468 0.43987 0.93414 0.0
C955 C 0.13143 0.45529 0.90582 0.0
C956 C 0.14311 0.45959 0.8581 0.0
C957 C 0.14654 0.44785 0.83479 0.0
C958 C 0.11221 0.43471 0.98539 0.0
C959 C 0.15113 0.47613 0.82855 0.0
C960 C 0.09909 0.46654 0.9079 0.0
C961 C 0.10207 0.47449 0.96524 0.0
C962 C 0.10971 0.46179 0.88413 0.0
C963 C 0.12371 0.46518 0.9185 0.0
C964 C 0.12782 0.47499 0.97239 0.0
C965 C 0.11684 0.47948 0.99558 0.0
C966 C 0.10494 0.45158 0.82582 0.0
C967 C 0.14305 0.47954 0.00851 0.0
H968 H 0.12271 0.41652 0.93082 0.0
H969 H 0.15468 0.45077 0.7956 0.0
H970 H 0.11669 0.44377 0.0234 0.0
H971 H 0.10097 0.4339 0.96677 0.0
H972 H 0.10908 0.42277 0.00539 0.0
H973 H 0.1632 0.47937 0.80948 0.0
H974 H 0.14355 0.47614 0.78945 0.0
H975 H 0.15257 0.48558 0.86223 0.0
H976 H 0.0879 0.46306 0.88335 0.0
H977 H 0.11935 0.48593 0.03936 0.0
H978 H 0.10132 0.43892 0.83813 0.0
H979 H 0.11532 0.45608 0.79335 0.0
H980 H 0.09467 0.45153 0.80125 0.0
H981 H 0.1409 0.46945 0.03999 0.0
H982 H 0.14674 0.49049 0.0374 0.0
H983 H 0.15315 0.48177 0.97689 0.0
C984 C 0.09336 0.63016 0.39634 0.0
C985 C 0.09859 0.62504 0.4479 0.0
C986 C 0.10325 0.64542 0.3699 0.0
C987 C 0.11875 0.65574 0.39563 0.0
C988 C 0.12474 0.64995 0.44329 0.0
C989 C 0.11453 0.63463 0.46916 0.0
C990 C 0.09645 0.65106 0.31855 0.0
C991 C 0.14136 0.66043 0.47076 0.0
C992 C 0.14235 0.69579 0.31057 0.0
C993 C 0.13706 0.70511 0.34248 0.0
C994 C 0.1374 0.67988 0.32964 0.0
C995 C 0.12693 0.6733 0.38145 0.0
C996 C 0.1226 0.68314 0.41631 0.0
C997 C 0.12773 0.69891 0.39639 0.0
C998 C 0.14252 0.66986 0.29206 0.0
C999 C 0.1116 0.67669 0.47232 0.0
H1000 H 0.08114 0.62268 0.37896 0.0
H1001 H 0.11875 0.63062 0.50841 0.0
H1002 H 0.09353 0.66012 0.33741 0.0
H1003 H 0.10549 0.657 0.28097 0.0
H1004 H 0.08525 0.64093 0.29815 0.0
H1005 H 0.14556 0.65313 0.49662 0.0
H1006 H 0.15032 0.66744 0.434 0.0
H1007 H 0.141 0.66922 0.50358 0.0
H1008 H 0.14964 0.70058 0.26899 0.0
H1009 H 0.12384 0.70618 0.4218 0.0
H1010 H 0.1325 0.66172 0.26066 0.0
H1011 H 0.14523 0.66216 0.32267 0.0
H1012 H 0.15334 0.67757 0.26311 0.0
H1013 H 0.09938 0.66709 0.45744 0.0
H1014 H 0.11035 0.68627 0.49677 0.0
H1015 H 0.11628 0.67118 0.5058 0.0
C1016 C 0.35933 0.46796 0.5057 0.0
C1017 C 0.36824 0.462 0.47501 0.0
C1018 C 0.34345 0.46324 0.48681 0.0
C1019 C 0.33648 0.45231 0.43652 0.0
C1020 C 0.34592 0.44726 0.40278 0.0
C1021 C 0.36167 0.4522 0.42242 0.0
C1022 C 0.33388 0.46915 0.52305 0.0
C1023 C 0.33904 0.43572 0.34841 0.0
C1024 C 0.2931 0.4192 0.42523 0.0
C1025 C 0.28804 0.42401 0.37233 0.0
C1026 C 0.30842 0.42919 0.45101 0.0
C1027 C 0.31889 0.44434 0.42313 0.0
C1028 C 0.31317 0.45 0.37401 0.0
C1029 C 0.29776 0.43971 0.34891 0.0
C1030 C 0.31398 0.42277 0.50404 0.0
C1031 C 0.32381 0.46627 0.34424 0.0
H1032 H 0.36442 0.47565 0.54618 0.0
H1033 H 0.36862 0.44779 0.39786 0.0
H1034 H 0.32612 0.47163 0.49181 0.0
H1035 H 0.32584 0.45966 0.55645 0.0
H1036 H 0.34193 0.4803 0.54979 0.0
H1037 H 0.34835 0.4339 0.32462 0.0
H1038 H 0.32926 0.42378 0.36493 0.0
H1039 H 0.33367 0.4403 0.31389 0.0
H1040 H 0.2855 0.4072 0.44432 0.0
H1041 H 0.2938 0.44361 0.30859 0.0
H1042 H 0.32013 0.43218 0.54023 0.0
H1043 H 0.32284 0.41942 0.48639 0.0
H1044 H 0.30376 0.41192 0.5259 0.0
H1045 H 0.33105 0.47553 0.37978 0.0
H1046 H 0.3166 0.47039 0.31734 0.0
H1047 H 0.3324 0.46539 0.3119 0.0
C1048 C 0.54761 0.90452 0.44975 0.0
C1049 C 0.53746 0.90045 0.50174 0.0
C1050 C 0.55234 0.89387 0.42617 0.0
C1051 C 0.54685 0.87873 0.45543 0.0
C1052 C 0.53592 0.87415 0.50606 0.0
C1053 C 0.53131 0.8851 0.5287 0.0
C1054 C 0.56388 0.89922 0.37164 0.0
C1055 C 0.52973 0.85806 0.53811 0.0
C1056 C 0.55691 0.85235 0.35558 0.0
C1057 C 0.57258 0.85716 0.37674 0.0
C1058 C 0.54753 0.85805 0.38469 0.0
C1059 C 0.55401 0.86871 0.43602 0.0
C1060 C 0.56914 0.87222 0.46118 0.0
C1061 C 0.57826 0.86645 0.43106 0.0
C1062 C 0.53136 0.85384 0.357 0.0
C1063 C 0.57642 0.88335 0.51637 0.0
H1064 H 0.55221 0.91627 0.4281 0.0
H1065 H 0.52341 0.88189 0.56879 0.0
H1066 H 0.57565 0.90065 0.38671 0.0
H1067 H 0.55902 0.88992 0.33444 0.0
H1068 H 0.56612 0.91089 0.35167 0.0
H1069 H 0.51928 0.85515 0.56893 0.0
H1070 H 0.52605 0.84819 0.50357 0.0
H1071 H 0.53954 0.85837 0.5668 0.0
H1072 H 0.5524 0.84505 0.31387 0.0
H1073 H 0.59026 0.86996 0.44827 0.0
H1074 H 0.53273 0.86418 0.32876 0.0
H1075 H 0.52236 0.85156 0.39399 0.0
H1076 H 0.52658 0.84302 0.32643 0.0
H1077 H 0.58054 0.89598 0.50185 0.0
H1078 H 0.58696 0.88288 0.53586 0.0
H1079 H 0.56728 0.88018 0.5536 0.0
C1080 C 0.27513 0.16136 0.79314 0.0
C1081 C 0.26763 0.15955 0.7356 0.0
C1082 C 0.27159 0.14786 0.82962 0.0
C1083 C 0.26066 0.13215 0.80685 0.0
C1084 C 0.25236 0.13031 0.7502 0.0
C1085 C 0.25584 0.14413 0.71533 0.0
C1086 C 0.28038 0.15041 0.8907 0.0
C1087 C 0.2408 0.11381 0.7239 0.0
C1088 C 0.27447 0.10489 0.87413 0.0
C1089 C 0.26495 0.09949 0.92786 0.0
C1090 C 0.27181 0.11395 0.82941 0.0
C1091 C 0.25958 0.11798 0.83977 0.0
C1092 C 0.24872 0.1109 0.89008 0.0
C1093 C 0.25146 0.10157 0.93352 0.0
C1094 C 0.28326 0.12075 0.77495 0.0
C1095 C 0.23544 0.11475 0.90235 0.0
H1096 H 0.28422 0.17334 0.80854 0.0
H1097 H 0.25022 0.14278 0.67023 0.0
H1098 H 0.27172 0.14331 0.92814 0.0
H1099 H 0.28921 0.14612 0.88663 0.0
H1100 H 0.28704 0.16335 0.90476 0.0
H1101 H 0.2326 0.11441 0.68865 0.0
H1102 H 0.24785 0.10889 0.70103 0.0
H1103 H 0.23339 0.10521 0.761 0.0
H1104 H 0.28475 0.10304 0.8693 0.0
H1105 H 0.24403 0.09734 0.975 0.0
H1106 H 0.29217 0.13367 0.78384 0.0
H1107 H 0.2766 0.1201 0.73179 0.0
H1108 H 0.29001 0.1142 0.76734 0.0
H1109 H 0.24074 0.12684 0.9246 0.0
H1110 H 0.22605 0.10573 0.93396 0.0
H1111 H 0.22958 0.11519 0.85843 0.0
C1112 C 0.83485 0.11834 0.79539 0.0
C1113 C 0.83659 0.11188 0.7396 0.0
C1114 C 0.84835 0.12836 0.83181 0.0
C1115 C 0.86401 0.13241 0.81066 0.0
C1116 C 0.86576 0.12528 0.75568 0.0
C1117 C 0.85193 0.1149 0.72098 0.0
C1118 C 0.8459 0.13531 0.89125 0.0
C1119 C 0.88221 0.12948 0.73099 0.0
C1120 C 0.89216 0.17335 0.87699 0.0
C1121 C 0.89692 0.16904 0.9319 0.0
C1122 C 0.88307 0.16164 0.83218 0.0
C1123 C 0.8783 0.14525 0.84384 0.0
C1124 C 0.88474 0.14121 0.89556 0.0
C1125 C 0.89417 0.15327 0.93893 0.0
C1126 C 0.87701 0.16654 0.77611 0.0
C1127 C 0.88005 0.12391 0.9094 0.0
H1128 H 0.82293 0.11591 0.80962 0.0
H1129 H 0.85323 0.11001 0.67722 0.0
H1130 H 0.85258 0.13366 0.93012 0.0
H1131 H 0.85074 0.1485 0.88551 0.0
H1132 H 0.83292 0.12959 0.9043 0.0
H1133 H 0.88141 0.12033 0.69707 0.0
H1134 H 0.88763 0.14135 0.70701 0.0
H1135 H 0.89053 0.13058 0.76911 0.0
H1136 H 0.89452 0.18564 0.87121 0.0
H1137 H 0.8979 0.14993 0.9814 0.0
H1138 H 0.8642 0.16319 0.78364 0.0
H1139 H 0.8775 0.16011 0.73391 0.0
H1140 H 0.88417 0.1798 0.76769 0.0
H1141 H 0.86779 0.11764 0.93051 0.0
H1142 H 0.88861 0.12321 0.94251 0.0
H1143 H 0.87957 0.11732 0.86626 0.0
C1144 C 0.86151 0.71842 0.70073 0.0
C1145 C 0.87819 0.72507 0.7097 0.0
C1146 C 0.85184 0.7198 0.74642 0.0
C1147 C 0.85903 0.72777 0.80286 0.0
C1148 C 0.87606 0.73561 0.81017 0.0
C1149 C 0.88551 0.73427 0.76304 0.0
C1150 C 0.83377 0.71157 0.73625 0.0
C1151 C 0.88415 0.74418 0.86981 0.0
C1152 C 0.83255 0.73321 0.92132 0.0
C1153 C 0.82719 0.71921 0.95754 0.0
C1154 C 0.84312 0.73637 0.87098 0.0
C1155 C 0.84852 0.72534 0.85729 0.0
C1156 C 0.8433 0.71132 0.89417 0.0
C1157 C 0.83264 0.70839 0.94346 0.0
C1158 C 0.84828 0.7513 0.83191 0.0
C1159 C 0.84886 0.69929 0.8813 0.0
H1160 H 0.85589 0.71158 0.65878 0.0
H1161 H 0.89844 0.73949 0.7698 0.0
H1162 H 0.8277 0.70031 0.76429 0.0
H1163 H 0.82898 0.71945 0.75173 0.0
H1164 H 0.83047 0.70832 0.68667 0.0
H1165 H 0.89747 0.75186 0.86432 0.0
H1166 H 0.8792 0.75185 0.88618 0.0
H1167 H 0.88171 0.73506 0.90648 0.0
H1168 H 0.82838 0.74162 0.93188 0.0
H1169 H 0.82871 0.69762 0.97147 0.0
H1170 H 0.84379 0.74771 0.78365 0.0
H1171 H 0.86167 0.75855 0.82949 0.0
H1172 H 0.84361 0.75905 0.85046 0.0
H1173 H 0.84462 0.69381 0.83467 0.0
H1174 H 0.84425 0.6894 0.91623 0.0
H1175 H 0.86227 0.70551 0.88112 0.0
C1176 C 0.14023 0.2759 0.79668 0.0
C1177 C 0.15079 0.26998 0.78547 0.0
C1178 C 0.12914 0.27467 0.75142 0.0
C1179 C 0.12891 0.26769 0.69315 0.0
C1180 C 0.13858 0.26045 0.6836 0.0
C1181 C 0.14936 0.26157 0.73034 0.0
C1182 C 0.11876 0.28219 0.76404 0.0
C1183 C 0.13872 0.25295 0.622 0.0
C1184 C 0.09811 0.26343 0.57117 0.0
C1185 C 0.10698 0.27796 0.53813 0.0
C1186 C 0.10502 0.2598 0.622 0.0
C1187 C 0.12118 0.27088 0.63938 0.0
C1188 C 0.13014 0.28553 0.60616 0.0
C1189 C 0.12292 0.28892 0.55638 0.0
C1190 C 0.09505 0.2442 0.65721 0.0
C1191 C 0.14745 0.29768 0.62306 0.0
H1192 H 0.14111 0.28212 0.83999 0.0
H1193 H 0.15748 0.25691 0.72184 0.0
H1194 H 0.12398 0.29402 0.7398 0.0
H1195 H 0.10631 0.27441 0.746 0.0
H1196 H 0.11807 0.28428 0.8145 0.0
H1197 H 0.14458 0.24544 0.62555 0.0
H1198 H 0.12624 0.24534 0.60393 0.0
H1199 H 0.14552 0.2627 0.58755 0.0
H1200 H 0.08578 0.25491 0.55746 0.0
H1201 H 0.12994 0.30015 0.53108 0.0
H1202 H 0.09407 0.24686 0.70673 0.0
H1203 H 0.10111 0.23687 0.65617 0.0
H1204 H 0.08267 0.23686 0.63774 0.0
H1205 H 0.14798 0.30219 0.67104 0.0
H1206 H 0.1529 0.30823 0.59108 0.0
H1207 H 0.15498 0.29183 0.62196 0.0
C1208 C 0.7303 0.83086 0.62775 0.0
C1209 C 0.73858 0.83615 0.57123 0.0
C1210 C 0.7326 0.84197 0.6747 0.0
C1211 C 0.74304 0.85868 0.66354 0.0
C1212 C 0.75321 0.86372 0.6106 0.0
C1213 C 0.75093 0.85228 0.56492 0.0
C1214 C 0.72216 0.83603 0.73216 0.0
C1215 C 0.76475 0.88139 0.59771 0.0
C1216 C 0.72229 0.88185 0.71025 0.0
C1217 C 0.73024 0.88919 0.76554 0.0
C1218 C 0.72709 0.8727 0.6749 0.0
C1219 C 0.73987 0.87045 0.69654 0.0
C1220 C 0.7484 0.8784 0.75125 0.0
C1221 C 0.74355 0.88787 0.78496 0.0
C1222 C 0.71792 0.86481 0.61581 0.0
C1223 C 0.76186 0.87611 0.77657 0.0
H1224 H 0.72096 0.81828 0.633 0.0
H1225 H 0.75746 0.85636 0.52133 0.0
H1226 H 0.72905 0.84288 0.7738 0.0
H1227 H 0.71167 0.83794 0.72661 0.0
H1228 H 0.71746 0.82292 0.74012 0.0
H1229 H 0.77424 0.88303 0.56379 0.0
H1230 H 0.75789 0.8869 0.57786 0.0
H1231 H 0.77066 0.88801 0.64106 0.0
H1232 H 0.71206 0.88301 0.69531 0.0
H1233 H 0.74957 0.89345 0.8283 0.0
H1234 H 0.71089 0.85149 0.622 0.0
H1235 H 0.72647 0.86742 0.57671 0.0
H1236 H 0.70938 0.86902 0.60273 0.0
H1237 H 0.75652 0.86479 0.80425 0.0
H1238 H 0.77002 0.88628 0.80753 0.0
H1239 H 0.76915 0.87499 0.73877 0.0
C1240 C 0.15048 0.89116 0.53322 0.0
C1241 C 0.16571 0.89272 0.54337 0.0
C1242 C 0.13743 0.88161 0.57272 0.0
C1243 C 0.13987 0.87379 0.62394 0.0
C1244 C 0.15566 0.87684 0.63811 0.0
C1245 C 0.16838 0.88611 0.59707 0.0
C1246 C 0.1208 0.87863 0.55594 0.0
C1247 C 0.15887 0.86918 0.69364 0.0
C1248 C 0.10855 0.85017 0.74762 0.0
C1249 C 0.1041 0.83431 0.73061 0.0
C1250 C 0.11954 0.86334 0.71133 0.0
C1251 C 0.12583 0.86041 0.6564 0.0
C1252 C 0.12009 0.8443 0.63618 0.0
C1253 C 0.10947 0.83143 0.67416 0.0
C1254 C 0.12549 0.8803 0.73484 0.0
C1255 C 0.12611 0.84065 0.57682 0.0
H1256 H 0.14838 0.89624 0.49153 0.0
H1257 H 0.18022 0.88749 0.60526 0.0
H1258 H 0.11384 0.86659 0.53341 0.0
H1259 H 0.11402 0.87851 0.598 0.0
H1260 H 0.12141 0.88791 0.52315 0.0
H1261 H 0.17202 0.87474 0.70351 0.0
H1262 H 0.15276 0.87033 0.73561 0.0
H1263 H 0.15391 0.85609 0.68466 0.0
H1264 H 0.10453 0.85237 0.79185 0.0
H1265 H 0.10597 0.81912 0.66121 0.0
H1266 H 0.12699 0.88863 0.6962 0.0
H1267 H 0.13751 0.8849 0.75699 0.0
H1268 H 0.11712 0.88065 0.76992 0.0
H1269 H 0.12569 0.84807 0.53795 0.0
H1270 H 0.11887 0.82767 0.56371 0.0
H1271 H 0.1389 0.84377 0.58285 0.0
C1272 C 0.70934 0.88078 0.07857 0.0
C1273 C 0.72069 0.89548 0.05124 0.0
C1274 C 0.71345 0.87446 0.12946 0.0
C1275 C 0.72924 0.88321 0.15477 0.0
C1276 C 0.74049 0.89853 0.13004 0.0
C1277 C 0.73614 0.90443 0.07802 0.0
C1278 C 0.70104 0.85807 0.15453 0.0
C1279 C 0.75726 0.90842 0.15708 0.0
C1280 C 0.72895 0.86558 0.31129 0.0
C1281 C 0.73345 0.85415 0.29504 0.0
C1282 C 0.72934 0.87659 0.26732 0.0
C1283 C 0.73382 0.87572 0.20538 0.0
C1284 C 0.73974 0.86516 0.19026 0.0
C1285 C 0.73966 0.85458 0.23572 0.0
C1286 C 0.7236 0.88813 0.28589 0.0
C1287 C 0.74456 0.86382 0.12464 0.0
H1288 H 0.69732 0.8738 0.05879 0.0
H1289 H 0.74496 0.91587 0.05762 0.0
H1290 H 0.70569 0.84953 0.15073 0.0
H1291 H 0.69876 0.85905 0.20446 0.0
H1292 H 0.68932 0.85284 0.12931 0.0
H1293 H 0.76335 0.92116 0.14061 0.0
H1294 H 0.75681 0.90836 0.20865 0.0
H1295 H 0.76475 0.90306 0.1431 0.0
H1296 H 0.72442 0.86541 0.3577 0.0
H1297 H 0.74317 0.84575 0.22334 0.0
H1298 H 0.71096 0.88332 0.26977 0.0
H1299 H 0.73115 0.90013 0.26386 0.0
H1300 H 0.72387 0.88972 0.33714 0.0
H1301 H 0.73355 0.85771 0.09517 0.0
H1302 H 0.75091 0.85675 0.12231 0.0
H1303 H 0.75253 0.87598 0.1046 0.0
C1304 C 0.10129 0.83825 0.05569 0.0
C1305 C 0.10994 0.83425 0.01348 0.0
C1306 C 0.10926 0.84894 0.10531 0.0
C1307 C 0.12622 0.85581 0.1121 0.0
C1308 C 0.13504 0.85239 0.06776 0.0
C1309 C 0.1268 0.84162 0.01931 0.0
C1310 C 0.09947 0.85229 0.15187 0.0
C1311 C 0.15317 0.85955 0.0729 0.0
C1312 C 0.15402 0.8909 0.21593 0.0
C1313 C 0.15722 0.8827 0.26289 0.0
C1314 C 0.14289 0.88226 0.16839 0.0
C1315 C 0.13475 0.86512 0.16856 0.0
C1316 C 0.13697 0.85686 0.21875 0.0
C1317 C 0.14823 0.86575 0.26507 0.0
C1318 C 0.14075 0.89148 0.11576 0.0
C1319 C 0.12837 0.8386 0.22122 0.0
H1320 H 0.08826 0.83264 0.05121 0.0
H1321 H 0.13362 0.83884 0.98615 0.0
H1322 H 0.09872 0.84597 0.19608 0.0
H1323 H 0.10541 0.86541 0.16234 0.0
H1324 H 0.08697 0.84807 0.13511 0.0
H1325 H 0.15836 0.85672 0.03181 0.0
H1326 H 0.15922 0.87289 0.07797 0.0
H1327 H 0.15604 0.85474 0.11497 0.0
H1328 H 0.16084 0.90401 0.21444 0.0
H1329 H 0.15036 0.85936 0.3022 0.0
H1330 H 0.1278 0.88597 0.1028 0.0
H1331 H 0.14736 0.89092 0.07425 0.0
H1332 H 0.14551 0.9044 0.12785 0.0
H1333 H 0.11529 0.83335 0.21119 0.0
H1334 H 0.12972 0.8341 0.26719 0.0
H1335 H 0.13346 0.83408 0.18515 0.0
C1336 C 0.1487 0.25344 0.05463 0.0
C1337 C 0.16444 0.26641 0.06357 0.0
C1338 C 0.13633 0.25062 0.09677 0.0
C1339 C 0.14 0.26086 0.14912 0.0
C1340 C 0.15631 0.27241 0.16264 0.0
C1341 C 0.16835 0.27521 0.11915 0.0
C1342 C 0.11913 0.23805 0.08107 0.0
C1343 C 0.16083 0.28314 0.21935 0.0
C1344 C 0.11313 0.27751 0.19622 0.0
C1345 C 0.1066 0.26938 0.25211 0.0
C1346 C 0.12306 0.27388 0.15994 0.0
C1347 C 0.12693 0.26217 0.1812 0.0
C1348 C 0.11961 0.25324 0.2359 0.0
C1349 C 0.10934 0.25687 0.27057 0.0
C1350 C 0.13024 0.28337 0.10085 0.0
C1351 C 0.12354 0.24081 0.26055 0.0
H1352 H 0.14565 0.24658 0.01166 0.0
H1353 H 0.18061 0.28508 0.12644 0.0
H1354 H 0.11222 0.2318 0.1235 0.0
H1355 H 0.11302 0.24409 0.05912 0.0
H1356 H 0.11867 0.22888 0.04801 0.0
H1357 H 0.17403 0.28927 0.229 0.0
H1358 H 0.15744 0.29256 0.21178 0.0
H1359 H 0.15417 0.27602 0.26086 0.0
H1360 H 0.11091 0.28714 0.18204 0.0
H1361 H 0.10441 0.25072 0.31433 0.0
H1362 H 0.12869 0.27508 0.06191 0.0
H1363 H 0.14342 0.29168 0.1073 0.0
H1364 H 0.12461 0.29068 0.08748 0.0
H1365 H 0.1248 0.23372 0.22232 0.0
H1366 H 0.11413 0.23235 0.29349 0.0
H1367 H 0.13526 0.24709 0.28569 0.0
C1368 C 0.83118 0.72019 0.29917 0.0
C1369 C 0.8333 0.72831 0.24285 0.0
C1370 C 0.8445 0.72321 0.33597 0.0
C1371 C 0.86034 0.73427 0.31482 0.0
C1372 C 0.86249 0.74327 0.25981 0.0
C1373 C 0.84886 0.74028 0.22461 0.0
C1374 C 0.84163 0.71369 0.39534 0.0
C1375 C 0.87913 0.75504 0.23533 0.0
C1376 C 0.89106 0.74193 0.43987 0.0
C1377 C 0.89325 0.72861 0.43057 0.0
C1378 C 0.88151 0.74504 0.39877 0.0
C1379 C 0.87433 0.73473 0.347 0.0
C1380 C 0.87829 0.72261 0.33332 0.0
C1381 C 0.88757 0.71956 0.37579 0.0
C1382 C 0.87768 0.75815 0.41476 0.0
C1383 C 0.87136 0.71173 0.27729 0.0
H1384 H 0.81912 0.71098 0.31317 0.0
H1385 H 0.85048 0.74642 0.18052 0.0
H1386 H 0.84573 0.70476 0.38922 0.0
H1387 H 0.84872 0.72185 0.43409 0.0
H1388 H 0.82865 0.70706 0.40876 0.0
H1389 H 0.87876 0.76357 0.20118 0.0
H1390 H 0.88752 0.76208 0.27359 0.0
H1391 H 0.88418 0.7482 0.21172 0.0
H1392 H 0.89546 0.74897 0.48226 0.0
H1393 H 0.88947 0.70939 0.36818 0.0
H1394 H 0.86559 0.75259 0.43713 0.0
H1395 H 0.87724 0.76454 0.37239 0.0
H1396 H 0.88671 0.76715 0.4475 0.0
H1397 H 0.85839 0.70289 0.28565 0.0
H1398 H 0.87773 0.7049 0.26762 0.0
H1399 H 0.87212 0.71888 0.23548 0.0
C1400 C 0.26955 0.13157 0.19135 0.0
C1401 C 0.26505 0.11556 0.20598 0.0
C1402 C 0.2687 0.14179 0.23598 0.0
C1403 C 0.26361 0.13591 0.29698 0.0
C1404 C 0.25761 0.11931 0.31024 0.0
C1405 C 0.25826 0.10924 0.26411 0.0
C1406 C 0.27476 0.15927 0.21938 0.0
C1407 C 0.25212 0.1126 0.37477 0.0
C1408 C 0.28731 0.16544 0.42522 0.0
C1409 C 0.27609 0.16949 0.44886 0.0
C1410 C 0.2833 0.15454 0.37593 0.0
C1411 C 0.26773 0.14763 0.3487 0.0
C1412 C 0.25648 0.152 0.37075 0.0
C1413 C 0.26075 0.16282 0.42098 0.0
C1414 C 0.2957 0.15023 0.35368 0.0
C1415 C 0.2399 0.14511 0.3419 0.0
H1416 H 0.27456 0.13636 0.14584 0.0
H1417 H 0.25475 0.09683 0.27523 0.0
H1418 H 0.26703 0.16361 0.2406 0.0
H1419 H 0.28721 0.16687 0.2378 0.0
H1420 H 0.2751 0.16107 0.16824 0.0
H1421 H 0.24533 0.09915 0.37497 0.0
H1422 H 0.26287 0.11681 0.4053 0.0
H1423 H 0.24436 0.11702 0.39507 0.0
H1424 H 0.29919 0.1705 0.44617 0.0
H1425 H 0.25201 0.16591 0.43875 0.0
H1426 H 0.2986 0.15359 0.30404 0.0
H1427 H 0.29073 0.13697 0.35729 0.0
H1428 H 0.30714 0.15644 0.3808 0.0
H1429 H 0.24093 0.1468 0.29073 0.0
H1430 H 0.23311 0.15081 0.36076 0.0
H1431 H 0.23278 0.13191 0.3508 0.0
C1432 C 0.83142 0.12461 0.43163 0.0
C1433 C 0.82709 0.10907 0.45292 0.0
C1434 C 0.84206 0.13165 0.38179 0.0
C1435 C 0.8484 0.12285 0.35148 0.0
C1436 C 0.8438 0.107 0.37137 0.0
C1437 C 0.83328 0.10031 0.42238 0.0
C1438 C 0.84667 0.14863 0.36211 0.0
C1439 C 0.85008 0.09718 0.33916 0.0
C1440 C 0.86338 0.14178 0.19488 0.0
C1441 C 0.8796 0.15292 0.20837 0.0
C1442 C 0.85339 0.13042 0.23919 0.0
C1443 C 0.85973 0.13057 0.29879 0.0
C1444 C 0.87647 0.1408 0.31059 0.0
C1445 C 0.8863 0.1518 0.26473 0.0
C1446 C 0.83572 0.11938 0.22412 0.0
C1447 C 0.88367 0.14138 0.37367 0.0
H1448 H 0.82678 0.13153 0.45483 0.0
H1449 H 0.82995 0.08828 0.43838 0.0
H1450 H 0.86001 0.15661 0.36424 0.0
H1451 H 0.84289 0.14859 0.3133 0.0
H1452 H 0.841 0.15396 0.39182 0.0
H1453 H 0.84439 0.08461 0.35727 0.0
H1454 H 0.8478 0.09671 0.2884 0.0
H1455 H 0.86337 0.10304 0.34564 0.0
H1456 H 0.8583 0.14244 0.15061 0.0
H1457 H 0.89888 0.16038 0.27492 0.0
H1458 H 0.82848 0.12429 0.24539 0.0
H1459 H 0.83131 0.10711 0.24355 0.0
H1460 H 0.8335 0.11834 0.17316 0.0
H1461 H 0.88002 0.14794 0.40658 0.0
H1462 H 0.8971 0.14771 0.37209 0.0
H1463 H 0.87909 0.12902 0.39234 0.0
C1464 C 0.95329 0.44856 0.22505 0.0
C1465 C 0.94363 0.44293 0.27835 0.0
C1466 C 0.95067 0.45772 0.18056 0.0
C1467 C 0.93843 0.46174 0.19088 0.0
C1468 C 0.9279 0.45507 0.24243 0.0
C1469 C 0.93053 0.44555 0.28538 0.0
C1470 C 0.96182 0.46412 0.12507 0.0
C1471 C 0.91484 0.4592 0.25542 0.0
C1472 C 0.95174 0.50352 0.12858 0.0
C1473 C 0.94317 0.49997 0.07267 0.0
C1474 C 0.94931 0.49115 0.16978 0.0
C1475 C 0.93849 0.47482 0.15336 0.0
C1476 C 0.92922 0.47124 0.09816 0.0
C1477 C 0.93154 0.48395 0.05865 0.0
C1478 C 0.95908 0.49553 0.22912 0.0
C1479 C 0.91782 0.45402 0.07841 0.0
H1480 H 0.96334 0.44638 0.2195 0.0
H1481 H 0.92313 0.44125 0.32694 0.0
H1482 H 0.95482 0.46268 0.08199 0.0
H1483 H 0.97043 0.47724 0.13144 0.0
H1484 H 0.96892 0.45789 0.11876 0.0
H1485 H 0.906 0.45093 0.29041 0.0
H1486 H 0.92049 0.47175 0.27354 0.0
H1487 H 0.90824 0.45868 0.21226 0.0
H1488 H 0.96071 0.51595 0.13913 0.0
H1489 H 0.9251 0.48126 0.01477 0.0
H1490 H 0.96834 0.49178 0.22566 0.0
H1491 H 0.95116 0.48904 0.26924 0.0
H1492 H 0.96535 0.50874 0.23865 0.0
H1493 H 0.92497 0.44855 0.06129 0.0
H1494 H 0.90957 0.45334 0.04058 0.0
H1495 H 0.91045 0.44661 0.11821 0.0
C1496 C 0.56554 0.49884 0.2533 0.0
C1497 C 0.55715 0.50578 0.28135 0.0
C1498 C 0.55887 0.48823 0.2025 0.0
C1499 C 0.54334 0.48426 0.18035 0.0
C1500 C 0.53508 0.49161 0.20726 0.0
C1501 C 0.54215 0.50238 0.25684 0.0
C1502 C 0.56823 0.481 0.17366 0.0
C1503 C 0.51848 0.48773 0.18503 0.0
C1504 C 0.52441 0.46697 0.02521 0.0
C1505 C 0.51299 0.45107 0.04181 0.0
C1506 C 0.53576 0.47753 0.06843 0.0
C1507 C 0.53526 0.47217 0.1301 0.0
C1508 C 0.52462 0.45572 0.14556 0.0
C1509 C 0.51368 0.44526 0.10074 0.0
C1510 C 0.54731 0.4948 0.04947 0.0
C1511 C 0.52364 0.44957 0.21095 0.0
H1512 H 0.5772 0.50148 0.27158 0.0
H1513 H 0.53556 0.50769 0.2778 0.0
H1514 H 0.56245 0.46801 0.18617 0.0
H1515 H 0.56809 0.48174 0.1222 0.0
H1516 H 0.58101 0.48714 0.18979 0.0
H1517 H 0.51362 0.49435 0.2116 0.0
H1518 H 0.51896 0.49089 0.13516 0.0
H1519 H 0.50987 0.47455 0.18952 0.0
H1520 H 0.52401 0.47135 0.97908 0.0
H1521 H 0.50484 0.43294 0.11337 0.0
H1522 H 0.55948 0.49913 0.06987 0.0
H1523 H 0.54279 0.50274 0.06708 0.0
H1524 H 0.54849 0.49613 -0.00189 0.0
H1525 H 0.53591 0.45369 0.22983 0.0
H1526 H 0.51649 0.43614 0.21331 0.0
H1527 H 0.51778 0.45454 0.24139 0.0
C1528 C 0.55095 0.07042 0.10867 0.0
C1529 C 0.54678 0.0668 0.04612 0.0
C1530 C 0.54027 0.07164 0.15013 0.0
C1531 C 0.52538 0.06958 0.12763 0.0
C1532 C 0.52222 0.06806 0.063 0.0
C1533 C 0.53282 0.06627 0.02299 0.0
C1534 C 0.54411 0.07327 0.21875 0.0
C1535 C 0.50696 0.06679 0.03682 0.0
C1536 C 0.49106 0.04473 0.23763 0.0
C1537 C 0.49057 0.05673 0.27366 0.0
C1538 C 0.50178 0.0488 0.18776 0.0
C1539 C 0.51196 0.0653 0.17215 0.0
C1540 C 0.51029 0.07737 0.20388 0.0
C1541 C 0.49972 0.07296 0.25495 0.0
C1542 C 0.50304 0.03545 0.15499 0.0
C1543 C 0.52032 0.09501 0.18663 0.0
H1544 H 0.56179 0.07079 0.12612 0.0
H1545 H 0.52977 0.06363 0.97418 0.0
H1546 H 0.54199 0.08264 0.23989 0.0
H1547 H 0.53595 0.06162 0.24231 0.0
H1548 H 0.55683 0.07647 0.2279 0.0
H1549 H 0.50825 0.06982 0.98651 0.0
H1550 H 0.49678 0.05422 0.04239 0.0
H1551 H 0.50373 0.07494 0.06197 0.0
H1552 H 0.48377 0.03211 0.25069 0.0
H1553 H 0.49924 0.08232 0.28181 0.0
H1554 H 0.5153 0.03712 0.16215 0.0
H1555 H 0.50127 0.0359 0.10426 0.0
H1556 H 0.49397 0.02323 0.17209 0.0
H1557 H 0.53217 0.10038 0.21074 0.0
H1558 H 0.51427 0.10186 0.2011 0.0
H1559 H 0.52264 0.09658 0.13584 0.0
C1560 C 0.78709 0.61875 0.895 0.0
C1561 C 0.77172 0.60731 0.8728 0.0
C1562 C 0.79414 0.61529 0.94514 0.0
C1563 C 0.78556 0.60006 0.97483 0.0
C1564 C 0.76987 0.58854 0.95399 0.0
C1565 C 0.76316 0.59225 0.90269 0.0
C1566 C 0.81093 0.62797 0.96586 0.0
C1567 C 0.76027 0.5723 0.98541 0.0
C1568 C 0.81533 0.59261 0.06262 0.0
C1569 C 0.8161 0.60042 0.11867 0.0
C1570 C 0.80408 0.59078 0.01666 0.0
C1571 C 0.79331 0.59666 0.02797 0.0
C1572 C 0.79279 0.6027 0.08747 0.0
C1573 C 0.80437 0.60471 0.13192 0.0
C1574 C 0.80502 0.58426 0.95382 0.0
C1575 C 0.78118 0.60866 0.10207 0.0
H1576 H 0.79386 0.63042 0.87236 0.0
H1577 H 0.75126 0.58335 0.88597 0.0
H1578 H 0.81058 0.63154 0.01467 0.0
H1579 H 0.81921 0.62296 0.96417 0.0
H1580 H 0.81612 0.63903 0.93652 0.0
H1581 H 0.74767 0.56537 0.96762 0.0
H1582 H 0.76625 0.56504 0.97757 0.0
H1583 H 0.7599 0.57388 0.03639 0.0
H1584 H 0.82435 0.58919 0.05262 0.0
H1585 H 0.80476 0.61044 0.17598 0.0
H1586 H 0.81144 0.5945 0.92094 0.0
H1587 H 0.79275 0.57619 0.93476 0.0
H1588 H 0.81168 0.57749 0.95595 0.0
H1589 H 0.78574 0.6208 0.08113 0.0
H1590 H 0.77992 0.60967 0.15299 0.0
H1591 H 0.76905 0.60047 0.08205 0.0
C1592 C 0.40375 0.17108 0.91537 0.0
C1593 C 0.38777 0.16278 0.89306 0.0
C1594 C 0.4082 0.18227 0.96441 0.0
C1595 C 0.39643 0.18534 0.99093 0.0
C1596 C 0.38021 0.17664 0.9699 0.0
C1597 C 0.37607 0.1654 0.92174 0.0
C1598 C 0.42552 0.19105 0.98673 0.0
C1599 C 0.36723 0.17948 -0.00287 0.0
C1600 C 0.39682 0.20328 0.14688 0.0
C1601 C 0.39941 0.21852 0.12941 0.0
C1602 C 0.39774 0.19292 0.10304 0.0
C1603 C 0.40076 0.19778 0.04005 0.0
C1604 C 0.40478 0.21374 0.02334 0.0
C1605 C 0.40422 0.22404 0.06866 0.0
C1606 C 0.39394 0.17623 0.12319 0.0
C1607 C 0.40797 0.21934 0.9566 0.0
H1608 H 0.41288 0.1691 0.89376 0.0
H1609 H 0.36366 0.159 0.90541 0.0
H1610 H 0.4314 0.20394 0.97259 0.0
H1611 H 0.426 0.19076 0.03824 0.0
H1612 H 0.43263 0.18575 0.96726 0.0
H1613 H 0.35524 0.17182 0.97495 0.0
H1614 H 0.366 0.17686 0.0477 0.0
H1615 H 0.37067 0.19236 0.99133 0.0
H1616 H 0.39327 0.19914 0.19429 0.0
H1617 H 0.40618 0.23585 0.05541 0.0
H1618 H 0.40196 0.17262 0.09943 0.0
H1619 H 0.38127 0.16732 0.11032 0.0
H1620 H 0.39524 0.17557 0.17428 0.0
H1621 H 0.41625 0.21587 0.93418 0.0
H1622 H 0.41329 0.23266 0.95269 0.0
H1623 H 0.3964 0.21338 0.93038 0.0
C1624 C 0.83738 0.22687 0.94641 0.0
C1625 C 0.834 0.23259 0.89179 0.0
C1626 C 0.82515 0.21802 0.9898 0.0
C1627 C 0.80913 0.21448 0.9771 0.0
C1628 C 0.80608 0.22176 0.92551 0.0
C1629 C 0.81866 0.2309 0.88354 0.0
C1630 C 0.82905 0.21101 0.04566 0.0
C1631 C 0.78922 0.21837 0.91055 0.0
C1632 C 0.77981 0.1716 0.02562 0.0
C1633 C 0.77401 0.17397 0.082 0.0
C1634 C 0.7903 0.18478 0.98868 0.0
C1635 C 0.79551 0.20072 0.00981 0.0
C1636 C 0.78893 0.20313 0.06505 0.0
C1637 C 0.77807 0.18964 0.10035 0.0
C1638 C 0.79665 0.18164 0.92904 0.0
C1639 C 0.7943 0.21988 0.08959 0.0
H1640 H 0.84933 0.22838 0.95314 0.0
H1641 H 0.81602 0.23533 0.84124 0.0
H1642 H 0.82289 0.21201 0.08777 0.0
H1643 H 0.82461 0.19797 0.0375 0.0
H1644 H 0.84228 0.21715 0.0547 0.0
H1645 H 0.78941 0.22746 0.87781 0.0
H1646 H 0.78231 0.20625 0.88856 0.0
H1647 H 0.78265 0.21822 0.95332 0.0
H1648 H 0.77659 0.15944 0.01162 0.0
H1649 H 0.77371 0.19143 0.14453 0.0
H1650 H 0.80963 0.18544 0.9347 0.0
H1651 H 0.7957 0.18881 0.89038 0.0
H1652 H 0.78998 0.16864 0.91576 0.0
H1653 H 0.80618 0.22462 0.11305 0.0
H1654 H 0.78555 0.21979 0.12391 0.0
H1655 H 0.79587 0.22835 0.05141 0.0
C1656 C 0.41123 0.22951 0.40209 0.0
C1657 C 0.39848 0.2327 0.4087 0.0
C1658 C 0.4135 0.21994 0.44585 0.0
C1659 C 0.40296 0.21381 0.49758 0.0
C1660 C 0.39157 0.21892 0.50852 0.0
C1661 C 0.38928 0.22812 0.46329 0.0
C1662 C 0.42581 0.21481 0.43258 0.0
C1663 C 0.38054 0.21317 0.56445 0.0
C1664 C 0.3858 0.17054 0.54914 0.0
C1665 C 0.39401 0.17241 0.60503 0.0
C1666 C 0.38948 0.18391 0.5117 0.0
C1667 C 0.40129 0.19959 0.5319 0.0
C1668 C 0.41016 0.20147 0.58704 0.0
C1669 C 0.40651 0.18775 0.6228 0.0
C1670 C 0.38005 0.18131 0.4522 0.0
C1671 C 0.42261 0.21797 0.6107 0.0
H1672 H 0.41835 0.23306 0.35974 0.0
H1673 H 0.37955 0.2308 0.46862 0.0
H1674 H 0.43188 0.21434 0.47586 0.0
H1675 H 0.41956 0.20247 0.41218 0.0
H1676 H 0.43515 0.2231 0.39908 0.0
H1677 H 0.37462 0.22053 0.57215 0.0
H1678 H 0.37093 0.2004 0.55731 0.0
H1679 H 0.38736 0.21366 0.60695 0.0
H1680 H 0.37618 0.15862 0.53561 0.0
H1681 H 0.4127 0.18915 0.66664 0.0
H1682 H 0.3884 0.18774 0.41305 0.0
H1683 H 0.37185 0.18634 0.45732 0.0
H1684 H 0.37263 0.16829 0.43996 0.0
H1685 H 0.43007 0.22592 0.57216 0.0
H1686 H 0.43072 0.21718 0.64582 0.0
H1687 H 0.41632 0.22379 0.63285 0.0
C1688 C 0.80797 0.20236 0.62684 0.0
C1689 C 0.81988 0.21835 0.61394 0.0
C1690 C 0.79646 0.19289 0.58201 0.0
C1691 C 0.79721 0.19949 0.52241 0.0
C1692 C 0.80831 0.21608 0.51106 0.0
C1693 C 0.81948 0.2254 0.55744 0.0
C1694 C 0.78456 0.17539 0.59661 0.0
C1695 C 0.80954 0.22354 0.44803 0.0
C1696 C 0.78929 0.17041 0.39019 0.0
C1697 C 0.77391 0.16683 0.36941 0.0
C1698 C 0.79695 0.18113 0.43938 0.0
C1699 C 0.78898 0.18837 0.46949 0.0
C1700 C 0.77334 0.18467 0.44979 0.0
C1701 C 0.766 0.17399 0.39955 0.0
C1702 C 0.81366 0.18473 0.45889 0.0
C1703 C 0.76441 0.19197 0.4817 0.0
H1704 H 0.8081 0.19701 0.67118 0.0
H1705 H 0.82867 0.23781 0.54768 0.0
H1706 H 0.77245 0.17174 0.57704 0.0
H1707 H 0.78878 0.16758 0.57515 0.0
H1708 H 0.78334 0.17308 0.6475 0.0
H1709 H 0.81657 0.23697 0.4499 0.0
H1710 H 0.8157 0.21936 0.41539 0.0
H1711 H 0.79735 0.21969 0.42883 0.0
H1712 H 0.79558 0.16502 0.36734 0.0
H1713 H 0.75411 0.17128 0.38393 0.0
H1714 H 0.81339 0.18086 0.50771 0.0
H1715 H 0.82227 0.19795 0.45669 0.0
H1716 H 0.81838 0.17849 0.42916 0.0
H1717 H 0.76328 0.18916 0.53213 0.0
H1718 H 0.75211 0.18745 0.46207 0.0
H1719 H 0.77136 0.20533 0.47712 0.0
C1720 C 0.78042 0.60885 0.52849 0.0
C1721 C 0.77466 0.60098 0.58534 0.0
C1722 C 0.79083 0.60593 0.4921 0.0
C1723 C 0.79602 0.59528 0.51436 0.0
C1724 C 0.78952 0.58661 0.57028 0.0
C1725 C 0.77872 0.58946 0.60498 0.0
C1726 C 0.79708 0.61505 0.43168 0.0
C1727 C 0.79488 0.57534 0.59608 0.0
C1728 C 0.81849 0.58764 0.3876 0.0
C1729 C 0.83379 0.60149 0.39404 0.0
C1730 C 0.80619 0.58426 0.43081 0.0
C1731 C 0.80949 0.59485 0.48173 0.0
C1732 C 0.82555 0.60744 0.49294 0.0
C1733 C 0.83751 0.61076 0.44835 0.0
C1734 C 0.78928 0.57063 0.41755 0.0
C1735 C 0.82972 0.61858 0.54821 0.0
H1736 H 0.77719 0.61772 0.51355 0.0
H1737 H 0.77437 0.58353 0.64956 0.0
H1738 H 0.8101 0.6242 0.43659 0.0
H1739 H 0.79596 0.60667 0.39373 0.0
H1740 H 0.79047 0.62138 0.41779 0.0
H1741 H 0.78602 0.56673 0.63022 0.0
H1742 H 0.79663 0.56839 0.5586 0.0
H1743 H 0.80665 0.58259 0.62016 0.0
H1744 H 0.81561 0.58041 0.34563 0.0
H1745 H 0.84943 0.62133 0.45372 0.0
H1746 H 0.78223 0.57564 0.39534 0.0
H1747 H 0.78295 0.56449 0.46105 0.0
H1748 H 0.78937 0.56153 0.38554 0.0
H1749 H 0.82533 0.62721 0.53983 0.0
H1750 H 0.84299 0.62565 0.55643 0.0
H1751 H 0.8237 0.61162 0.59083 0.0
C1752 C 0.55085 0.04788 0.7312 0.0
C1753 C 0.56228 0.05994 0.77037 0.0
C1754 C 0.54394 0.05179 0.68179 0.0
C1755 C 0.54897 0.06823 0.66992 0.0
C1756 C 0.56188 0.08056 0.70447 0.0
C1757 C 0.56829 0.07626 0.75501 0.0
C1758 C 0.53027 0.03819 0.64588 0.0
C1759 C 0.56821 0.09823 0.69106 0.0
C1760 C 0.52806 0.06895 0.5234 0.0
C1761 C 0.51385 0.06751 0.54821 0.0
C1762 C 0.54093 0.0716 0.56245 0.0
C1763 C 0.53902 0.07197 0.62754 0.0
C1764 C 0.52529 0.07211 0.65194 0.0
C1765 C 0.51287 0.07004 0.61158 0.0
C1766 C 0.55581 0.07242 0.53448 0.0
C1767 C 0.52278 0.0725 0.7211 0.0
H1768 H 0.54645 0.03524 0.74156 0.0
H1769 H 0.57736 0.0857 0.78424 0.0
H1770 H 0.51891 0.03846 0.65353 0.0
H1771 H 0.53288 0.03968 0.59536 0.0
H1772 H 0.52818 0.02609 0.65998 0.0
H1773 H 0.58102 0.10572 0.70603 0.0
H1774 H 0.56732 0.10037 0.64086 0.0
H1775 H 0.56096 0.1024 0.7173 0.0
H1776 H 0.52876 0.06711 0.47398 0.0
H1777 H 0.50178 0.06888 0.63024 0.0
H1778 H 0.5546 0.06024 0.53577 0.0
H1779 H 0.56682 0.0808 0.56116 0.0
H1780 H 0.55744 0.07644 0.48521 0.0
H1781 H 0.52051 0.06092 0.74213 0.0
H1782 H 0.51235 0.0742 0.73206 0.0
H1783 H 0.53377 0.08239 0.7433 0.0
C1784 C 0.93296 0.45288 0.55601 0.0
C1785 C 0.94341 0.44708 0.57098 0.0
C1786 C 0.93126 0.46355 0.59618 0.0
C1787 C 0.93996 0.4681 0.65292 0.0
C1788 C 0.94957 0.46122 0.67001 0.0
C1789 C 0.95142 0.45102 0.62818 0.0
C1790 C 0.92119 0.47087 0.57569 0.0
C1791 C 0.95867 0.46538 0.73091 0.0
C1792 C 0.95637 0.50894 0.72932 0.0
C1793 C 0.94598 0.50514 0.78032 0.0
C1794 C 0.95368 0.49725 0.68429 0.0
C1795 C 0.94058 0.48127 0.69171 0.0
C1796 C 0.92947 0.47764 0.74108 0.0
C1797 C 0.93221 0.48973 0.78457 0.0
C1798 C 0.96551 0.50176 0.63113 0.0
C1799 C 0.91549 0.46072 0.75102 0.0
H1800 H 0.927 0.44998 0.51106 0.0
H1801 H 0.95954 0.44651 0.63927 0.0
H1802 H 0.91354 0.47094 0.61435 0.0
H1803 H 0.92934 0.48363 0.56172 0.0
H1804 H 0.91329 0.46428 0.53555 0.0
H1805 H 0.9639 0.4575 0.74045 0.0
H1806 H 0.96868 0.47814 0.72977 0.0
H1807 H 0.95055 0.46422 0.76993 0.0
H1808 H 0.96693 0.52093 0.72583 0.0
H1809 H 0.92423 0.48677 0.82432 0.0
H1810 H 0.95896 0.49703 0.58653 0.0
H1811 H 0.9732 0.49623 0.63852 0.0
H1812 H 0.97353 0.51507 0.62702 0.0
H1813 H 0.90912 0.45539 0.70663 0.0
H1814 H 0.90662 0.46045 0.78519 0.0
H1815 H 0.92018 0.45293 0.76867 0.0
C1816 C 0.54473 0.49408 0.6229 0.0
C1817 C 0.55126 0.4925 0.56704 0.0
C1818 C 0.53485 0.48051 0.65914 0.0
C1819 C 0.53101 0.46494 0.63777 0.0
C1820 C 0.53804 0.46332 0.58227 0.0
C1821 C 0.54829 0.47723 0.54773 0.0
C1822 C 0.52795 0.48283 0.71902 0.0
C1823 C 0.53397 0.44694 0.55718 0.0
C1824 C 0.51199 0.43542 0.76882 0.0
C1825 C 0.49605 0.43235 0.76406 0.0
C1826 C 0.52348 0.44465 0.72345 0.0
C1827 C 0.51871 0.45057 0.67216 0.0
C1828 C 0.50213 0.44538 0.66278 0.0
C1829 C 0.49098 0.43648 0.70948 0.0
C1830 C 0.54101 0.44978 0.73476 0.0
C1831 C 0.49644 0.45085 0.60726 0.0
H1832 H 0.54712 0.50595 0.63763 0.0
H1833 H 0.55323 0.47606 0.50387 0.0
H1834 H 0.51468 0.47759 0.71418 0.0
H1835 H 0.53005 0.47643 0.75777 0.0
H1836 H 0.53336 0.4958 0.73175 0.0
H1837 H 0.543 0.44789 0.52236 0.0
H1838 H 0.53322 0.4387 0.595 0.0
H1839 H 0.52195 0.44134 0.53421 0.0
H1840 H 0.5159 0.43214 0.81097 0.0
H1841 H 0.47856 0.43381 0.70541 0.0
H1842 H 0.5473 0.46219 0.75452 0.0
H1843 H 0.5472 0.45006 0.69074 0.0
H1844 H 0.54227 0.44158 0.76807 0.0
H1845 H 0.49922 0.46349 0.61473 0.0
H1846 H 0.48318 0.44315 0.60007 0.0
H1847 H 0.50279 0.45061 0.56441 0.0
C1848 C 0.61601 0.80807 0.37041 0.0
C1849 C 0.60933 0.81803 0.38063 0.0
C1850 C 0.61539 0.79741 0.41639 0.0
C1851 C 0.60819 0.79697 0.47437 0.0
C1852 C 0.60038 0.80613 0.48331 0.0
C1853 C 0.60093 0.8165 0.43589 0.0
C1854 C 0.62354 0.78758 0.40452 0.0
C1855 C 0.59267 0.80604 0.54466 0.0
C1856 C 0.60377 0.76576 0.59441 0.0
C1857 C 0.61808 0.77461 0.62889 0.0
C1858 C 0.60027 0.77283 0.54386 0.0
C1859 C 0.61125 0.78914 0.52815 0.0
C1860 C 0.62566 0.7981 0.56284 0.0
C1861 C 0.62894 0.7907 0.61238 0.0
C1862 C 0.58494 0.76287 0.50705 0.0
C1863 C 0.63767 0.81556 0.54768 0.0
H1864 H 0.62224 0.80902 0.32708 0.0
H1865 H 0.59571 0.82416 0.44368 0.0
H1866 H 0.63515 0.79296 0.43043 0.0
H1867 H 0.61589 0.77499 0.42133 0.0
H1868 H 0.62616 0.78725 0.35437 0.0
H1869 H 0.58505 0.81179 0.54109 0.0
H1870 H 0.58509 0.7935 0.5621 0.0
H1871 H 0.60229 0.81278 0.57965 0.0
H1872 H 0.59534 0.7533 0.60673 0.0
H1873 H 0.63998 0.79769 0.63881 0.0
H1874 H 0.58797 0.7621 0.45783 0.0
H1875 H 0.57748 0.7688 0.50736 0.0
H1876 H 0.57758 0.75041 0.5257 0.0
H1877 H 0.64253 0.81644 0.50011 0.0
H1878 H 0.64799 0.82099 0.58077 0.0
H1879 H 0.63157 0.82287 0.54857 0.0
C1880 C 0.23088 0.82112 0.61205 0.0
C1881 C 0.23274 0.83654 0.60412 0.0
C1882 C 0.22146 0.80857 0.57037 0.0
C1883 C 0.21409 0.81171 0.51933 0.0
C1884 C 0.21769 0.82776 0.50706 0.0
C1885 C 0.22682 0.83997 0.55017 0.0
C1886 C 0.21797 0.79166 0.58498 0.0
C1887 C 0.21055 0.83174 0.45183 0.0
C1888 C 0.18922 0.78104 0.39499 0.0
C1889 C 0.17356 0.77702 0.41334 0.0
C1890 C 0.20271 0.79172 0.43073 0.0
C1891 C 0.2003 0.79815 0.48639 0.0
C1892 C 0.18437 0.79293 0.50756 0.0
C1893 C 0.17119 0.78262 0.47018 0.0
C1894 C 0.21947 0.79711 0.40617 0.0
C1895 C 0.18123 0.79911 0.56764 0.0
H1896 H 0.23545 0.81845 0.65387 0.0
H1897 H 0.22846 0.85197 0.54369 0.0
H1898 H 0.2059 0.78482 0.6073 0.0
H1899 H 0.21767 0.78508 0.54202 0.0
H1900 H 0.2271 0.79176 0.6173 0.0
H1901 H 0.21666 0.84498 0.44313 0.0
H1902 H 0.21146 0.82565 0.40934 0.0
H1903 H 0.19752 0.82728 0.46048 0.0
H1904 H 0.19101 0.77683 0.35047 0.0
H1905 H 0.15903 0.77944 0.48417 0.0
H1906 H 0.22787 0.79838 0.44424 0.0
H1907 H 0.22432 0.80914 0.38386 0.0
H1908 H 0.21935 0.78854 0.37095 0.0
H1909 H 0.18845 0.79809 0.60602 0.0
H1910 H 0.16824 0.79239 0.58095 0.0
H1911 H 0.18501 0.81209 0.56256 0.0
C1912 C 0.16811 0.4008 0.59099 0.0
C1913 C 0.16248 0.38656 0.62594 0.0
C1914 C 0.17834 0.40383 0.53954 0.0
C1915 C 0.18316 0.39247 0.52366 0.0
C1916 C 0.17756 0.37816 0.55906 0.0
C1917 C 0.16722 0.37534 0.6093 0.0
C1918 C 0.18384 0.41904 0.50189 0.0
C1919 C 0.1825 0.36575 0.544 0.0
C1920 C 0.19609 0.38508 0.36824 0.0
C1921 C 0.21257 0.39082 0.37895 0.0
C1922 C 0.18661 0.38725 0.41255 0.0
C1923 C 0.19374 0.39499 0.4694 0.0
C1924 C 0.21068 0.40211 0.47795 0.0
C1925 C 0.21997 0.40005 0.43213 0.0
C1926 C 0.16867 0.37984 0.40093 0.0
C1927 C 0.21873 0.41042 0.53802 0.0
H1928 H 0.16443 0.40949 0.60351 0.0
H1929 H 0.16307 0.36437 0.63628 0.0
H1930 H 0.19724 0.426 0.49921 0.0
H1931 H 0.17924 0.41581 0.45359 0.0
H1932 H 0.17952 0.42695 0.52178 0.0
H1933 H 0.17756 0.35558 0.57776 0.0
H1934 H 0.17815 0.36069 0.4969 0.0
H1935 H 0.19589 0.37154 0.54384 0.0
H1936 H 0.19045 0.37825 0.32631 0.0
H1937 H 0.23275 0.4046 0.44016 0.0
H1938 H 0.16427 0.38795 0.4176 0.0
H1939 H 0.16203 0.3683 0.42697 0.0
H1940 H 0.16566 0.37725 0.35081 0.0
H1941 H 0.21404 0.4183 0.55455 0.0
H1942 H 0.23209 0.41783 0.53302 0.0
H1943 H 0.21598 0.40113 0.57433 0.0
C1944 C 0.50249 0.94159 0.36227 0.0
C1945 C 0.50034 0.933 0.41743 0.0
C1946 C 0.48926 0.93828 0.32435 0.0
C1947 C 0.47348 0.9264 0.34315 0.0
C1948 C 0.47141 0.91679 0.39622 0.0
C1949 C 0.48496 0.92012 0.4326 0.0
C1950 C 0.49207 0.94848 0.26698 0.0
C1951 C 0.45482 0.90406 0.418 0.0
C1952 C 0.44521 0.94072 0.29072 0.0
C1953 C 0.43971 0.93249 0.23419 0.0
C1954 C 0.45484 0.93746 0.33052 0.0
C1955 C 0.45937 0.92601 0.31232 0.0
C1956 C 0.45247 0.91651 0.25839 0.0
C1957 C 0.44255 0.91979 0.22002 0.0
C1958 C 0.46148 0.94747 0.38884 0.0
C1959 C 0.45691 0.90414 0.23757 0.0
H1960 H 0.51442 0.95149 0.3505 0.0
H1961 H 0.48328 0.91356 0.47567 0.0
H1962 H 0.48526 0.94076 0.22686 0.0
H1963 H 0.48761 0.95706 0.27535 0.0
H1964 H 0.5051 0.95558 0.25439 0.0
H1965 H 0.45548 0.89526 0.44989 0.0
H1966 H 0.44911 0.91003 0.44348 0.0
H1967 H 0.44685 0.8974 0.37822 0.0
H1968 H 0.44284 0.95043 0.3019 0.0
H1969 H 0.43832 0.91344 0.17613 0.0
H1970 H 0.47441 0.95665 0.38163 0.0
H1971 H 0.46082 0.93975 0.42853 0.0
H1972 H 0.45484 0.95387 0.40132 0.0
H1973 H 0.46892 0.91043 0.21456 0.0
H1974 H 0.44797 0.89542 0.20388 0.0
H1975 H 0.4578 0.89734 0.27771 0.0
C1976 C 0.07319 0.55589 0.39386 0.0
C1977 C 0.06504 0.54922 0.44969 0.0
C1978 C 0.07438 0.54601 0.34827 0.0
C1979 C 0.0675 0.52922 0.35976 0.0
C1980 C 0.06094 0.52286 0.41893 0.0
C1981 C 0.0596 0.53292 0.463 0.0
C1982 C 0.0814 0.55324 0.28565 0.0
C1983 C 0.05392 0.50513 0.43371 0.0
C1984 C 0.04577 0.50161 0.22437 0.0
C1985 C 0.05706 0.49734 0.20353 0.0
C1986 C 0.04911 0.51193 0.27514 0.0
C1987 C 0.06402 0.51796 0.30692 0.0
C1988 C 0.07528 0.51329 0.28778 0.0
C1989 C 0.07174 0.50313 0.23576 0.0
C1990 C 0.03674 0.51664 0.29394 0.0
C1991 C 0.09111 0.51918 0.32168 0.0
H1992 H 0.07748 0.56853 0.38375 0.0
H1993 H 0.05358 0.52784 0.50686 0.0
H1994 H 0.08919 0.54856 0.26791 0.0
H1995 H 0.0714 0.54973 0.25183 0.0
H1996 H 0.08863 0.56666 0.2875 0.0
H1997 H 0.05248 0.50284 0.48459 0.0
H1998 H 0.04183 0.4981 0.41165 0.0
H1999 H 0.06169 0.50054 0.41488 0.0
H2000 H 0.0344 0.49724 0.19988 0.0
H2001 H 0.08049 0.49982 0.22016 0.0
H2002 H 0.04224 0.52999 0.2923 0.0
H2003 H 0.03273 0.51275 0.34243 0.0
H2004 H 0.0259 0.51114 0.26336 0.0
H2005 H 0.09882 0.53245 0.31571 0.0
H2006 H 0.09788 0.51329 0.30446 0.0
H2007 H 0.08892 0.51682 0.37227 0.0
C2008 C 0.4466 0.49653 0.34483 0.0
C2009 C 0.43942 0.49814 0.39896 0.0
C2010 C 0.4564 0.51 0.30783 0.0
C2011 C 0.45942 0.52551 0.32649 0.0
C2012 C 0.45138 0.52706 0.37907 0.0
C2013 C 0.44131 0.51326 0.41453 0.0
C2014 C 0.46438 0.50774 0.25102 0.0
C2015 C 0.45439 0.54336 0.40088 0.0
C2016 C 0.50108 0.55532 0.26964 0.0
C2017 C 0.49746 0.55983 0.21262 0.0
C2018 C 0.48873 0.54561 0.31134 0.0
C2019 C 0.47241 0.53999 0.29456 0.0
C2020 C 0.46887 0.54603 0.24029 0.0
C2021 C 0.48153 0.55606 0.20001 0.0
C2022 C 0.49306 0.53993 0.36998 0.0
C2023 C 0.45167 0.54042 0.22097 0.0
H2024 H 0.44504 0.4848 0.33271 0.0
H2025 H 0.43587 0.51453 0.45686 0.0
H2026 H 0.46288 0.51402 0.21038 0.0
H2027 H 0.47755 0.51313 0.25957 0.0
H2028 H 0.45932 0.49476 0.23905 0.0
H2029 H 0.44469 0.54219 0.43274 0.0
H2030 H 0.46606 0.54959 0.42633 0.0
H2031 H 0.45528 0.55116 0.36109 0.0
H2032 H 0.51345 0.55842 0.27962 0.0
H2033 H 0.47872 0.55954 0.15579 0.0
H2034 H 0.4903 0.52726 0.3637 0.0
H2035 H 0.48579 0.54015 0.40984 0.0
H2036 H 0.50611 0.54751 0.38154 0.0
H2037 H 0.44637 0.52821 0.19982 0.0
H2038 H 0.45105 0.5487 0.18618 0.0
H2039 H 0.4441 0.53949 0.26163 0.0
C2040 C 0.08032 0.56746 0.72067 0.0
C2041 C 0.06645 0.5689 0.72544 0.0
C2042 C 0.08353 0.55869 0.76516 0.0
C2043 C 0.07272 0.55155 0.81556 0.0
C2044 C 0.0602 0.55517 0.82533 0.0
C2045 C 0.05706 0.56366 0.77955 0.0
C2046 C 0.09717 0.55534 0.75367 0.0
C2047 C 0.04885 0.54839 0.8801 0.0
C2048 C 0.05798 0.50821 0.86013 0.0
C2049 C 0.06557 0.51 0.91743 0.0
C2050 C 0.06117 0.52174 0.82459 0.0
C2051 C 0.07184 0.53745 0.8481 0.0
C2052 C 0.08019 0.5393 0.90464 0.0
C2053 C 0.07705 0.52545 0.93853 0.0
C2054 C 0.05236 0.5192 0.76355 0.0
C2055 C 0.09145 0.55577 0.93176 0.0
H2056 H 0.0877 0.57163 0.67903 0.0
H2057 H 0.04652 0.56509 0.78382 0.0
H2058 H 0.10309 0.55519 0.79786 0.0
H2059 H 0.09222 0.54324 0.73178 0.0
H2060 H 0.10645 0.56446 0.72201 0.0
H2061 H 0.04195 0.55479 0.88748 0.0
H2062 H 0.04006 0.5354 0.87167 0.0
H2063 H 0.05563 0.54925 0.92319 0.0
H2064 H 0.04915 0.4962 0.84406 0.0
H2065 H 0.08275 0.52676 0.98344 0.0
H2066 H 0.06099 0.52644 0.72624 0.0
H2067 H 0.0434 0.52331 0.76788 0.0
H2068 H 0.04585 0.50629 0.74909 0.0
H2069 H 0.09848 0.56471 0.89502 0.0
H2070 H 0.1 0.55531 0.96565 0.0
H2071 H 0.08419 0.56017 0.95655 0.0
C2072 C 0.48566 0.55184 0.88194 0.0
C2073 C 0.48854 0.54429 0.93224 0.0
C2074 C 0.47494 0.54258 0.83427 0.0
C2075 C 0.46687 0.52547 0.83774 0.0
C2076 C 0.46873 0.51788 0.89103 0.0
C2077 C 0.47962 0.52739 0.93744 0.0
C2078 C 0.47322 0.55108 0.77815 0.0
C2079 C 0.46017 0.49967 0.89696 0.0
C2080 C 0.43445 0.4982 0.7222 0.0
C2081 C 0.44343 0.49401 0.6824 0.0
C2082 C 0.44195 0.50883 0.77235 0.0
C2083 C 0.45877 0.51549 0.78211 0.0
C2084 C 0.46793 0.51167 0.74089 0.0
C2085 C 0.46013 0.50092 0.69189 0.0
C2086 C 0.43182 0.51254 0.81585 0.0
C2087 C 0.48594 0.51863 0.74934 0.0
H2088 H 0.49244 0.56491 0.87804 0.0
H2089 H 0.48153 0.52151 0.97705 0.0
H2090 H 0.48005 0.54991 0.73868 0.0
H2091 H 0.46036 0.54546 0.76369 0.0
H2092 H 0.47798 0.56416 0.78709 0.0
H2093 H 0.46107 0.49577 0.94475 0.0
H2094 H 0.4472 0.49422 0.88454 0.0
H2095 H 0.46566 0.49478 0.86422 0.0
H2096 H 0.42154 0.49292 0.71499 0.0
H2097 H 0.46722 0.49796 0.66078 0.0
H2098 H 0.43744 0.5258 0.82275 0.0
H2099 H 0.43123 0.50711 0.86205 0.0
H2100 H 0.41927 0.50773 0.79837 0.0
H2101 H 0.49213 0.53202 0.75205 0.0
H2102 H 0.49143 0.51524 0.71086 0.0
H2103 H 0.48829 0.51422 0.79367 0.0
C2104 C 0.49562 0.92751 0.7426 0.0
C2105 C 0.49915 0.93987 0.6995 0.0
C2106 C 0.4849 0.92466 0.79221 0.0
C2107 C 0.47755 0.93432 0.79817 0.0
C2108 C 0.48041 0.94617 0.75274 0.0
C2109 C 0.4912 0.94883 0.70423 0.0
C2110 C 0.4821 0.9119 0.83979 0.0
C2111 C 0.47271 0.95666 0.757 0.0
C2112 C 0.44289 0.9266 0.90557 0.0
C2113 C 0.4512 0.93821 0.95183 0.0
C2114 C 0.45138 0.92426 0.85698 0.0
C2115 C 0.46849 0.93369 0.8552 0.0
C2116 C 0.47693 0.94454 0.90429 0.0
C2117 C 0.46819 0.9467 0.95181 0.0
C2118 C 0.44199 0.9125 0.80562 0.0
C2119 C 0.49519 0.95473 0.90454 0.0
H2120 H 0.50166 0.92049 0.73894 0.0
H2121 H 0.4936 0.95817 0.67036 0.0
H2122 H 0.48858 0.91785 0.88335 0.0
H2123 H 0.46904 0.90451 0.85125 0.0
H2124 H 0.48652 0.90376 0.82343 0.0
H2125 H 0.47506 0.96429 0.71499 0.0
H2126 H 0.45944 0.94905 0.76332 0.0
H2127 H 0.47758 0.96473 0.79808 0.0
H2128 H 0.42977 0.91989 0.90569 0.0
H2129 H 0.47472 0.95541 0.98826 0.0
H2130 H 0.4477 0.90525 0.79259 0.0
H2131 H 0.44206 0.91931 0.76373 0.0
H2132 H 0.42921 0.90414 0.81909 0.0
H2133 H 0.50072 0.94712 0.89521 0.0
H2134 H 0.49994 0.96111 0.94949 0.0
H2135 H 0.49916 0.96392 0.86704 0.0
C2136 C 0.16859 0.38444 0.96824 0.0
C2137 C 0.17101 0.39246 0.91157 0.0
C2138 C 0.18175 0.38677 0.00448 0.0
C2139 C 0.1977 0.39695 0.98219 0.0
C2140 C 0.20022 0.40568 0.92623 0.0
C2141 C 0.18676 0.40346 0.89175 0.0
C2142 C 0.17854 0.3776 0.06496 0.0
C2143 C 0.21698 0.41639 0.9003 0.0
C2144 C 0.22788 0.40445 0.10871 0.0
C2145 C 0.22905 0.39043 0.10309 0.0
C2146 C 0.21894 0.40779 0.06554 0.0
C2147 C 0.21136 0.39702 0.01537 0.0
C2148 C 0.21444 0.38415 0.00503 0.0
C2149 C 0.22309 0.38087 0.04963 0.0
C2150 C 0.21603 0.42169 0.07798 0.0
C2151 C 0.20713 0.37278 0.95055 0.0
H2152 H 0.15636 0.37595 0.98328 0.0
H2153 H 0.18857 0.40947 0.84725 0.0
H2154 H 0.18199 0.36815 0.06023 0.0
H2155 H 0.18597 0.38588 0.10289 0.0
H2156 H 0.16559 0.37164 0.07874 0.0
H2157 H 0.21711 0.42493 0.86491 0.0
H2158 H 0.22574 0.4234 0.9376 0.0
H2159 H 0.22121 0.4087 0.87779 0.0
H2160 H 0.23253 0.41191 0.14999 0.0
H2161 H 0.22425 0.37018 0.04481 0.0
H2162 H 0.20394 0.41696 0.0997 0.0
H2163 H 0.21609 0.42785 0.03417 0.0
H2164 H 0.22526 0.43073 0.11004 0.0
H2165 H 0.19407 0.36441 0.95949 0.0
H2166 H 0.21304 0.36543 0.94284 0.0
H2167 H 0.20814 0.37961 0.90744 0.0
C2168 C 0.59398 0.77281 0.89794 0.0
C2169 C 0.60739 0.77135 0.91471 0.0
C2170 C 0.58968 0.78253 0.93292 0.0
C2171 C 0.59889 0.79067 0.98617 0.0
C2172 C 0.61159 0.78808 0.00592 0.0
C2173 C 0.6158 0.7786 0.96948 0.0
C2174 C 0.57615 0.78504 0.91 0.0
C2175 C 0.62147 0.79618 0.06337 0.0
C2176 C 0.60979 0.83194 0.04399 0.0
C2177 C 0.60171 0.82804 0.10118 0.0
C2178 C 0.60733 0.81977 0.00162 0.0
C2179 C 0.59684 0.80337 0.0178 0.0
C2180 C 0.58718 0.79956 0.07195 0.0
C2181 C 0.58965 0.81203 0.11303 0.0
C2182 C 0.61742 0.8244 0.94313 0.0
C2183 C 0.57571 0.78226 0.09043 0.0
H2184 H 0.58755 0.7673 0.85515 0.0
H2185 H 0.6261 0.77737 0.98256 0.0
H2186 H 0.5691 0.78596 0.9492 0.0
H2187 H 0.5814 0.79655 0.88356 0.0
H2188 H 0.5678 0.77509 0.87863 0.0
H2189 H 0.6297 0.79153 0.07586 0.0
H2190 H 0.62892 0.80941 0.05532 0.0
H2191 H 0.61342 0.79431 0.10352 0.0
H2192 H 0.61896 0.84437 0.03453 0.0
H2193 H 0.58336 0.809 0.15728 0.0
H2194 H 0.61007 0.81709 0.90306 0.0
H2195 H 0.62754 0.82196 0.94943 0.0
H2196 H 0.62262 0.83744 0.93189 0.0
H2197 H 0.56929 0.77475 0.04933 0.0
H2198 H 0.56663 0.78141 0.12483 0.0
H2199 H 0.58272 0.77709 0.11179 0.0
C2200 C 0.20374 0.81181 0.86987 0.0
C2201 C 0.21991 0.82332 0.8823 0.0
C2202 C 0.19407 0.80057 0.91504 0.0
C2203 C 0.20069 0.80114 0.97445 0.0
C2204 C 0.21742 0.81176 0.9853 0.0
C2205 C 0.22692 0.8227 0.93862 0.0
C2206 C 0.17639 0.78921 0.90101 0.0
C2207 C 0.22491 0.81274 0.04808 0.0
C2208 C 0.17187 0.79411 0.10676 0.0
C2209 C 0.16757 0.77845 0.12649 0.0
C2210 C 0.18282 0.80161 0.05807 0.0
C2211 C 0.18956 0.79321 0.02756 0.0
C2212 C 0.18521 0.77735 0.04653 0.0
C2213 C 0.1743 0.77016 0.09611 0.0
C2214 C 0.18713 0.81857 0.03929 0.0
C2215 C 0.192 0.76799 0.01427 0.0
H2216 H 0.19841 0.81212 0.82568 0.0
H2217 H 0.23946 0.83158 0.94801 0.0
H2218 H 0.17234 0.777 0.9204 0.0
H2219 H 0.16902 0.79387 0.92305 0.0
H2220 H 0.17393 0.78807 0.85022 0.0
H2221 H 0.23834 0.81927 0.04573 0.0
H2222 H 0.22122 0.8193 0.08083 0.0
H2223 H 0.2206 0.80049 0.06745 0.0
H2224 H 0.16684 0.80068 0.12991 0.0
H2225 H 0.17104 0.75806 0.11098 0.0
H2226 H 0.18334 0.81858 0.99053 0.0
H2227 H 0.20044 0.82674 0.0416 0.0
H2228 H 0.18127 0.82362 0.06938 0.0
H2229 H 0.18865 0.7665 0.96432 0.0
H2230 H 0.18753 0.75583 0.03506 0.0
H2231 H 0.20541 0.77481 0.01669 0.0
C2232 C 0.36123 0.0951 0.85714 0.0
C2233 C 0.35987 0.10425 0.80901 0.0
C2234 C 0.34835 0.0864 0.89856 0.0
C2235 C 0.33405 0.0873 0.89243 0.0
C2236 C 0.33226 0.09564 0.84145 0.0
C2237 C 0.34511 0.1038 0.7998 0.0
C2238 C 0.35045 0.07713 0.95106 0.0
C2239 C 0.3173 0.09713 0.83368 0.0
C2240 C 0.29496 0.06344 0.98276 0.0
C2241 C 0.29686 0.07478 0.0283 0.0
C2242 C 0.30754 0.06675 0.94076 0.0
C2243 C 0.32206 0.08187 0.9437 0.0
C2244 C 0.32434 0.09289 0.99196 0.0
C2245 C 0.31181 0.08907 0.03424 0.0
C2246 C 0.30494 0.05447 0.8913 0.0
C2247 C 0.33954 0.10927 -0.00366 0.0
H2248 H 0.37254 0.0952 0.86384 0.0
H2249 H 0.34385 0.11058 0.76202 0.0
H2250 H 0.35318 0.08424 0.99467 0.0
H2251 H 0.33916 0.06543 0.95871 0.0
H2252 H 0.36053 0.07475 0.9419 0.0
H2253 H 0.31733 0.10304 0.78915 0.0
H2254 H 0.30623 0.08504 0.83549 0.0
H2255 H 0.31656 0.10441 0.87248 0.0
H2256 H 0.28351 0.05226 0.97854 0.0
H2257 H 0.31348 0.09776 0.07006 0.0
H2258 H 0.31602 0.05361 0.8848 0.0
H2259 H 0.30224 0.05829 0.84633 0.0
H2260 H 0.29468 0.04228 0.90294 0.0
H2261 H 0.35041 0.10791 -0.00295 0.0
H2262 H 0.33971 0.11608 0.0385 0.0
H2263 H 0.34049 0.11661 0.95481 0.0
C2264 C 0.90729 0.22634 0.03541 0.0
C2265 C 0.92139 0.22532 0.02982 0.0
C2266 C 0.90335 0.23454 0.99115 0.0
C2267 C 0.91404 0.24237 0.94096 0.0
C2268 C 0.92901 0.24265 0.9381 0.0
C2269 C 0.93245 0.23393 0.9823 0.0
C2270 C 0.88714 0.23372 0.99559 0.0
C2271 C 0.94094 0.25133 0.8864 0.0
C2272 C 0.89151 0.24152 0.79561 0.0
C2273 C 0.89157 0.25621 0.80017 0.0
C2274 C 0.89958 0.23726 0.83938 0.0
C2275 C 0.90836 0.24819 0.88788 0.0
C2276 C 0.90967 0.26363 0.88956 0.0
C2277 C 0.90107 0.2674 0.84601 0.0
C2278 C 0.89763 0.22055 0.83633 0.0
C2279 C 0.91939 0.2758 0.93935 0.0
H2280 H 0.89881 0.21994 0.07263 0.0
H2281 H 0.94347 0.23334 0.97816 0.0
H2282 H 0.88869 0.246 0.99256 0.0
H2283 H 0.87937 0.22658 0.956 0.0
H2284 H 0.88068 0.228 0.03953 0.0
H2285 H 0.95313 0.2532 0.89757 0.0
H2286 H 0.93663 0.24406 0.84313 0.0
H2287 H 0.94199 0.26324 0.87695 0.0
H2288 H 0.88443 0.23291 0.75966 0.0
H2289 H 0.90135 0.27887 0.84923 0.0
H2290 H 0.89057 0.21335 0.87713 0.0
H2291 H 0.9096 0.22131 0.83819 0.0
H2292 H 0.89128 0.21391 0.79343 0.0
H2293 H 0.91261 0.27216 0.98384 0.0
H2294 H 0.92182 0.28813 0.92727 0.0
H2295 H 0.93109 0.27622 0.94705 0.0
C2296 C 0.72832 0.63092 0.84266 0.0
C2297 C 0.73939 0.63278 0.79603 0.0
C2298 C 0.73201 0.64333 0.88591 0.0
C2299 C 0.7473 0.65765 0.88337 0.0
C2300 C 0.75819 0.65985 0.83465 0.0
C2301 C 0.75395 0.64751 0.79091 0.0
C2302 C 0.71986 0.64082 0.93586 0.0
C2303 C 0.77476 0.67481 0.83091 0.0
C2304 C 0.75975 0.69648 0.97186 0.0
C2305 C 0.76836 0.69492 0.02163 0.0
C2306 C 0.75169 0.68388 0.92872 0.0
C2307 C 0.75275 0.66967 0.93465 0.0
C2308 C 0.76072 0.66773 0.98663 0.0
C2309 C 0.76816 0.68027 0.03012 0.0
C2310 C 0.74279 0.68612 0.87514 0.0
C2311 C 0.76241 0.6529 0.99407 0.0
H2312 H 0.71695 0.61963 0.84631 0.0
H2313 H 0.76247 0.64915 0.75449 0.0
H2314 H 0.72397 0.63852 0.98099 0.0
H2315 H 0.71885 0.65184 0.94147 0.0
H2316 H 0.70769 0.63039 0.92536 0.0
H2317 H 0.78156 0.67488 0.78887 0.0
H2318 H 0.7737 0.68585 0.83045 0.0
H2319 H 0.78194 0.67551 0.87261 0.0
H2320 H 0.75968 0.70771 0.96559 0.0
H2321 H 0.77457 0.67887 0.06894 0.0
H2322 H 0.73096 0.67497 0.8675 0.0
H2323 H 0.74997 0.68849 0.83192 0.0
H2324 H 0.74068 0.69642 0.88305 0.0
H2325 H 0.75039 0.64176 0.9917 0.0
H2326 H 0.76826 0.6529 0.03875 0.0
H2327 H 0.76982 0.65234 0.95539 0.0
C2328 C 0.10379 0.34931 0.70339 0.0
C2329 C 0.10515 0.36455 0.69684 0.0
C2330 C 0.09611 0.33735 0.65791 0.0
C2331 C 0.08902 0.34049 0.60585 0.0
C2332 C 0.0891 0.35532 0.60171 0.0
C2333 C 0.0974 0.36731 0.64689 0.0
C2334 C 0.09658 0.32181 0.66357 0.0
C2335 C 0.08113 0.35884 0.54807 0.0
C2336 C 0.0894 0.31819 0.46127 0.0
C2337 C 0.07439 0.30391 0.46558 0.0
C2338 C 0.09405 0.33056 0.50527 0.0
C2339 C 0.08315 0.32886 0.55323 0.0
C2340 C 0.06743 0.31512 0.55449 0.0
C2341 C 0.06332 0.30265 0.51116 0.0
C2342 C 0.11107 0.34487 0.50298 0.0
C2343 C 0.05527 0.31319 0.60348 0.0
H2344 H 0.10948 0.34696 0.74239 0.0
H2345 H 0.09823 0.37901 0.64205 0.0
H2346 H 0.08419 0.31121 0.66021 0.0
H2347 H 0.10375 0.32092 0.62467 0.0
H2348 H 0.10206 0.32103 0.70809 0.0
H2349 H 0.07974 0.36953 0.55733 0.0
H2350 H 0.08858 0.36127 0.50558 0.0
H2351 H 0.06903 0.34824 0.53829 0.0
H2352 H 0.09793 0.31937 0.42567 0.0
H2353 H 0.05159 0.29172 0.51406 0.0
H2354 H 0.11789 0.34476 0.54461 0.0
H2355 H 0.11084 0.35636 0.50389 0.0
H2356 H 0.11775 0.34477 0.46084 0.0
H2357 H 0.05869 0.31015 0.64866 0.0
H2358 H 0.04285 0.30343 0.59147 0.0
H2359 H 0.05516 0.32467 0.60984 0.0
C2360 C 0.68999 0.78072 0.47006 0.0
C2361 C 0.70494 0.78125 0.46903 0.0
C2362 C 0.67827 0.77165 0.51475 0.0
C2363 C 0.68135 0.76243 0.55842 0.0
C2364 C 0.69596 0.762 0.55504 0.0
C2365 C 0.70771 0.7716 0.51069 0.0
C2366 C 0.66295 0.77264 0.51719 0.0
C2367 C 0.69943 0.75193 0.5997 0.0
C2368 C 0.65873 0.75709 0.70863 0.0
C2369 C 0.64426 0.74264 0.69713 0.0
C2370 C 0.67141 0.76323 0.66537 0.0
C2371 C 0.66974 0.75443 0.61021 0.0
C2372 C 0.65579 0.73907 0.60124 0.0
C2373 C 0.6431 0.73343 0.64455 0.0
C2374 C 0.68599 0.77977 0.67633 0.0
C2375 C 0.65379 0.72911 0.54392 0.0
H2376 H 0.68765 0.78797 0.4375 0.0
H2377 H 0.71919 0.77186 0.50974 0.0
H2378 H 0.65217 0.76035 0.51451 0.0
H2379 H 0.66232 0.77803 0.5621 0.0
H2380 H 0.66226 0.78007 0.47885 0.0
H2381 H 0.71007 0.75095 0.58501 0.0
H2382 H 0.70191 0.75751 0.64659 0.0
H2383 H 0.68877 0.73959 0.60378 0.0
H2384 H 0.65984 0.76415 0.74967 0.0
H2385 H 0.63202 0.72212 0.63586 0.0
H2386 H 0.68591 0.78849 0.64236 0.0
H2387 H 0.69734 0.77949 0.66905 0.0
H2388 H 0.68614 0.78436 0.72396 0.0
H2389 H 0.6509 0.73445 0.50351 0.0
H2390 H 0.64387 0.71639 0.54938 0.0
H2391 H 0.66519 0.72917 0.5331 0.0
C2392 C 0.22672 0.90847 0.46073 0.0
C2393 C 0.22572 0.9226 0.46558 0.0
C2394 C 0.23522 0.90482 0.50469 0.0
C2395 C 0.24346 0.91588 0.5535 0.0
C2396 C 0.24372 0.93084 0.55551 0.0
C2397 C 0.23461 0.93393 0.51196 0.0
C2398 C 0.23432 0.88857 0.50143 0.0
C2399 C 0.2529 0.94319 0.60546 0.0
C2400 C 0.24381 0.89457 0.70053 0.0
C2401 C 0.25831 0.89431 0.69426 0.0
C2402 C 0.23923 0.90233 0.65662 0.0
C2403 C 0.24972 0.9106 0.6064 0.0
C2404 C 0.26508 0.91174 0.60311 0.0
C2405 C 0.26912 0.90335 0.64669 0.0
C2406 C 0.22259 0.90052 0.66138 0.0
C2407 C 0.27685 0.92102 0.55164 0.0
H2408 H 0.22014 0.89978 0.42435 0.0
H2409 H 0.23409 0.945 0.51534 0.0
H2410 H 0.24664 0.89013 0.50263 0.0
H2411 H 0.22766 0.88118 0.54249 0.0
H2412 H 0.22809 0.88171 0.45877 0.0
H2413 H 0.25471 0.95529 0.59319 0.0
H2414 H 0.24604 0.93928 0.64973 0.0
H2415 H 0.26489 0.94427 0.61366 0.0
H2416 H 0.23552 0.8879 0.7379 0.0
H2417 H 0.28046 0.90341 0.64217 0.0
H2418 H 0.21505 0.89327 0.62153 0.0
H2419 H 0.22344 0.91252 0.65908 0.0
H2420 H 0.21628 0.89445 0.70511 0.0
H2421 H 0.27291 0.91382 0.50812 0.0
H2422 H 0.28929 0.9236 0.56281 0.0
H2423 H 0.27716 0.93262 0.54266 0.0
C2424 C 0.67845 0.90837 0.94349 0.0
C2425 C 0.69288 0.92302 0.95274 0.0
C2426 C 0.66577 0.90287 0.98651 0.0
C2427 C 0.66739 0.91253 0.03895 0.0
C2428 C 0.68118 0.92814 0.04475 0.0
C2429 C 0.6939 0.93315 0.00187 0.0
C2430 C 0.65137 0.88604 0.9789 0.0
C2431 C 0.68305 0.93903 0.09879 0.0
C2432 C 0.62973 0.89534 0.14015 0.0
C2433 C 0.63321 0.88666 0.18409 0.0
C2434 C 0.64117 0.90477 0.09458 0.0
C2435 C 0.65616 0.90508 0.09221 0.0
C2436 C 0.65994 0.89687 0.13812 0.0
C2437 C 0.64853 0.88802 0.18403 0.0
C2438 C 0.63695 0.91381 0.04759 0.0
C2439 C 0.67568 0.89665 0.13681 0.0
H2440 H 0.67742 0.90063 0.90484 0.0
H2441 H 0.70493 0.94463 0.00865 0.0
H2442 H 0.65179 0.87798 0.01513 0.0
H2443 H 0.63991 0.88615 0.9852 0.0
H2444 H 0.65116 0.88078 0.93258 0.0
H2445 H 0.69253 0.95177 0.08974 0.0
H2446 H 0.67145 0.93861 0.10896 0.0
H2447 H 0.68656 0.93481 0.14093 0.0
H2448 H 0.61797 0.89448 0.14042 0.0
H2449 H 0.65143 0.88156 0.21839 0.0
H2450 H 0.63395 0.9073 0.00248 0.0
H2451 H 0.64741 0.92611 0.03962 0.0
H2452 H 0.62639 0.91488 0.06261 0.0
H2453 H 0.67647 0.89084 0.09322 0.0
H2454 H 0.67688 0.88995 0.1768 0.0
H2455 H 0.68612 0.90917 0.1374 0.0
C2456 C 0.09866 0.73377 0.14773 0.0
C2457 C 0.10812 0.74472 0.19428 0.0
C2458 C 0.08993 0.73766 0.10537 0.0
C2459 C 0.09114 0.75304 0.10873 0.0
C2460 C 0.10007 0.76381 0.15746 0.0
C2461 C 0.10821 0.75938 0.20032 0.0
C2462 C 0.08007 0.72565 0.05533 0.0
C2463 C 0.10194 0.78047 0.16196 0.0
C2464 C 0.08938 0.77355 0.96103 0.0
C2465 C 0.07483 0.77361 0.96867 0.0
C2466 C 0.09459 0.76646 0.00552 0.0
C2467 C 0.08471 0.7587 0.05779 0.0
C2468 C 0.06945 0.75769 0.0635 0.0
C2469 C 0.06479 0.76539 0.01925 0.0
C2470 C 0.11111 0.7681 -0.00168 0.0
C2471 C 0.05836 0.74904 0.11751 0.0
H2472 H 0.09838 0.72232 0.14344 0.0
H2473 H 0.11532 0.76782 0.23662 0.0
H2474 H 0.06807 0.72477 0.05058 0.0
H2475 H 0.08636 0.7298 0.01 0.0
H2476 H 0.07822 0.71341 0.06513 0.0
H2477 H 0.10861 0.78706 0.20446 0.0
H2478 H 0.10864 0.78774 0.12073 0.0
H2479 H 0.08992 0.77961 0.16204 0.0
H2480 H 0.09713 0.77971 0.92176 0.0
H2481 H 0.05343 0.76525 0.02493 0.0
H2482 H 0.11012 0.75603 -4e-05 0.0
H2483 H 0.11902 0.77531 0.03749 0.0
H2484 H 0.11709 0.7741 0.95403 0.0
H2485 H 0.05737 0.73707 0.12492 0.0
H2486 H 0.04604 0.74725 0.11028 0.0
H2487 H 0.06345 0.75619 0.16064 0.0
C2488 C 0.26434 0.36022 0.15763 0.0
C2489 C 0.25315 0.35823 0.20395 0.0
C2490 C 0.2607 0.34794 0.11374 0.0
C2491 C 0.24538 0.33362 0.11556 0.0
C2492 C 0.23458 0.33113 0.16495 0.0
C2493 C 0.23873 0.34335 0.20908 0.0
C2494 C 0.27278 0.35074 0.06315 0.0
C2495 C 0.218 0.31615 0.16827 0.0
C2496 C 0.22295 0.31371 0.96791 0.0
C2497 C 0.22194 0.29856 0.97128 0.0
C2498 C 0.23134 0.32559 0.01291 0.0
C2499 C 0.23941 0.32246 0.06145 0.0
C2500 C 0.23971 0.30778 0.06192 0.0
C2501 C 0.23075 0.29585 0.01714 0.0
C2502 C 0.23046 0.34097 0.01111 0.0
C2503 C 0.24868 0.30427 0.11164 0.0
H2504 H 0.27563 0.3716 0.15401 0.0
H2505 H 0.23015 0.34158 0.24552 0.0
H2506 H 0.27316 0.33952 0.05347 0.0
H2507 H 0.2691 0.35427 0.01963 0.0
H2508 H 0.28514 0.36055 0.07567 0.0
H2509 H 0.21153 0.31555 0.21203 0.0
H2510 H 0.21053 0.31607 0.12851 0.0
H2511 H 0.21896 0.30508 0.16469 0.0
H2512 H 0.21642 0.31602 0.93192 0.0
H2513 H 0.2302 0.28424 0.01945 0.0
H2514 H 0.24276 0.35173 0.01374 0.0
H2515 H 0.22356 0.34137 0.05198 0.0
H2516 H 0.22445 0.34191 0.96832 0.0
H2517 H 0.26053 0.31517 0.12172 0.0
H2518 H 0.25072 0.29421 0.09799 0.0
H2519 H 0.24151 0.30078 0.15525 0.0
C2520 C 0.88951 0.65065 0.28697 0.0
C2521 C 0.89001 0.63624 0.29086 0.0
C2522 C 0.89787 0.66321 0.32961 0.0
C2523 C 0.90742 0.66154 0.37615 0.0
C2524 C 0.90923 0.64769 0.37667 0.0
C2525 C 0.9003 0.63505 0.33441 0.0
C2526 C 0.89538 0.67765 0.32787 0.0
C2527 C 0.91978 0.64578 0.42416 0.0
C2528 C 0.93118 0.70022 0.46919 0.0
C2529 C 0.92041 0.69739 0.51828 0.0
C2530 C 0.92783 0.68812 0.42479 0.0
C2531 C 0.91324 0.67308 0.42912 0.0
C2532 C 0.9029 0.66987 0.48083 0.0
C2533 C 0.90676 0.68198 0.52518 0.0
C2534 C 0.93942 0.69176 0.37144 0.0
C2535 C 0.88708 0.65409 0.48694 0.0
H2536 H 0.88183 0.6518 0.25269 0.0
H2537 H 0.90094 0.62405 0.337 0.0
H2538 H 0.88864 0.67765 0.36994 0.0
H2539 H 0.90719 0.68908 0.32822 0.0
H2540 H 0.88848 0.67761 0.28621 0.0
H2541 H 0.92261 0.63624 0.41043 0.0
H2542 H 0.93129 0.65734 0.43079 0.0
H2543 H 0.91344 0.64236 0.4696 0.0
H2544 H 0.94186 0.71206 0.46405 0.0
H2545 H 0.89852 0.67958 0.56363 0.0
H2546 H 0.93461 0.69458 0.32927 0.0
H2547 H 0.94076 0.68112 0.36061 0.0
H2548 H 0.95155 0.7023 0.38167 0.0
H2549 H 0.87883 0.65302 0.44853 0.0
H2550 H 0.8809 0.65316 0.53179 0.0
H2551 H 0.88914 0.64368 0.48315 0.0
C2552 C 0.30292 0.23751 0.48487 0.0
C2553 C 0.30382 0.22796 0.53244 0.0
C2554 C 0.31599 0.24616 0.44418 0.0
C2555 C 0.33003 0.2448 0.45041 0.0
C2556 C 0.33137 0.23599 0.50075 0.0
C2557 C 0.31833 0.2279 0.54174 0.0
C2558 C 0.31437 0.25591 0.39237 0.0
C2559 C 0.34602 0.234 0.50851 0.0
C2560 C 0.3524 0.24383 0.3073 0.0
C2561 C 0.36737 0.25808 0.31404 0.0
C2562 C 0.33991 0.23972 0.35012 0.0
C2563 C 0.34224 0.25039 0.39983 0.0
C2564 C 0.35683 0.26542 0.40405 0.0
C2565 C 0.36936 0.26902 0.36141 0.0
C2566 C 0.32464 0.22344 0.34437 0.0
C2567 C 0.35951 0.27732 0.45522 0.0
H2568 H 0.29181 0.2378 0.47808 0.0
H2569 H 0.31924 0.22078 0.57905 0.0
H2570 H 0.32577 0.26762 0.38655 0.0
H2571 H 0.31195 0.24916 0.34796 0.0
H2572 H 0.30429 0.25833 0.40097 0.0
H2573 H 0.34569 0.2278 0.55264 0.0
H2574 H 0.34664 0.22678 0.46923 0.0
H2575 H 0.35729 0.24594 0.50755 0.0
H2576 H 0.35067 0.23543 0.27021 0.0
H2577 H 0.38084 0.28014 0.36639 0.0
H2578 H 0.31384 0.22494 0.34384 0.0
H2579 H 0.32349 0.21584 0.38524 0.0
H2580 H 0.32451 0.21685 0.3016 0.0
H2581 H 0.34858 0.27846 0.46175 0.0
H2582 H 0.37003 0.28949 0.44542 0.0
H2583 H 0.36179 0.27291 0.49966 0.0
C2584 C 0.76073 0.06629 0.4807 0.0
C2585 C 0.76948 0.07696 0.52911 0.0
C2586 C 0.75253 0.07039 0.43657 0.0
C2587 C 0.75355 0.08568 0.44016 0.0
C2588 C 0.76165 0.0961 0.49082 0.0
C2589 C 0.76924 0.09145 0.53532 0.0
C2590 C 0.74348 0.05872 0.38449 0.0
C2591 C 0.7633 0.11266 0.4958 0.0
C2592 C 0.75422 0.10803 0.29427 0.0
C2593 C 0.73974 0.10831 0.29986 0.0
C2594 C 0.75856 0.1001 0.33838 0.0
C2595 C 0.74785 0.09171 0.38795 0.0
C2596 C 0.73259 0.09078 0.39082 0.0
C2597 C 0.7288 0.09932 0.34718 0.0
C2598 C 0.77511 0.10166 0.33428 0.0
C2599 C 0.72062 0.08146 0.44169 0.0
H2600 H 0.76069 0.05496 0.47619 0.0
H2601 H 0.77573 0.09964 0.57316 0.0
H2602 H 0.73163 0.05796 0.37641 0.0
H2603 H 0.75056 0.0631 0.34083 0.0
H2604 H 0.74139 0.0464 0.39436 0.0
H2605 H 0.76938 0.11899 0.53952 0.0
H2606 H 0.77047 0.12024 0.45592 0.0
H2607 H 0.75123 0.11168 0.49369 0.0
H2608 H 0.76263 0.11474 0.25733 0.0
H2609 H 0.71747 0.09932 0.35114 0.0
H2610 H 0.77404 0.08956 0.33571 0.0
H2611 H 0.78252 0.1086 0.37489 0.0
H2612 H 0.78166 0.10793 0.29118 0.0
H2613 H 0.71972 0.06952 0.44877 0.0
H2614 H 0.70838 0.07953 0.43117 0.0
H2615 H 0.72481 0.08823 0.48608 0.0
C2616 C 0.98652 0.42651 0.34913 0.0
C2617 C 0.97168 0.41202 0.34539 0.0
C2618 C 0.99852 0.43054 0.30407 0.0
C2619 C 0.99588 0.41949 0.25543 0.0
C2620 C 0.98144 0.40428 0.2541 0.0
C2621 C 0.96936 0.40082 0.29862 0.0
C2622 C 0.0136 0.44705 0.30651 0.0
C2623 C 0.97849 0.39196 0.20428 0.0
C2624 C 0.0179 0.44046 0.10826 0.0
C2625 C 0.03271 0.44092 0.11617 0.0
C2626 C 0.00542 0.43276 0.15178 0.0
C2627 C 0.00756 0.42474 0.20308 0.0
C2628 C 0.02185 0.42377 0.2079 0.0
C2629 C 0.0344 0.4321 0.1648 0.0
C2630 C 0.99052 0.4344 0.14552 0.0
C2631 C 0.02429 0.41479 0.26065 0.0
H2632 H 0.98853 0.43512 0.38565 0.0
H2633 H 0.95798 0.38949 0.29606 0.0
H2634 H 0.02457 0.44585 0.30645 0.0
H2635 H 0.01418 0.4541 0.26458 0.0
H2636 H 0.01395 0.45405 0.34834 0.0
H2637 H 0.96809 0.37985 0.21581 0.0
H2638 H 0.97588 0.39595 0.1595 0.0
H2639 H 0.98942 0.39086 0.19738 0.0
H2640 H 0.01635 0.44695 0.07009 0.0
H2641 H 0.04573 0.4322 0.17059 0.0
H2642 H 0.99022 0.44198 0.18407 0.0
H2643 H 0.97939 0.4224 0.14906 0.0
H2644 H 0.99024 0.44006 0.10076 0.0
H2645 H 0.02714 0.42206 0.30387 0.0
H2646 H 0.0344 0.41247 0.25115 0.0
H2647 H 0.01309 0.40307 0.26923 0.0
C2648 C 0.56508 0.59975 0.179 0.0
C2649 C 0.55639 0.58768 0.13468 0.0
C2650 C 0.57404 0.59739 0.22561 0.0
C2651 C 0.57378 0.58245 0.2288 0.0
C2652 C 0.56562 0.57057 0.18242 0.0
C2653 C 0.55733 0.57349 0.13528 0.0
C2654 C 0.58313 0.61058 0.27287 0.0
C2655 C 0.56475 0.55431 0.18462 0.0
C2656 C 0.5998 0.57106 0.32417 0.0
C2657 C 0.58908 0.56229 0.37235 0.0
C2658 C 0.59573 0.5793 0.28011 0.0
C2659 C 0.58041 0.57824 0.28354 0.0
C2660 C 0.57017 0.57052 0.335 0.0
C2661 C 0.57481 0.56291 0.37945 0.0
C2662 C 0.60727 0.58806 0.22741 0.0
C2663 C 0.55361 0.56886 0.34001 0.0
H2664 H 0.56458 0.61084 0.17823 0.0
H2665 H 0.5509 0.56423 0.10055 0.0
H2666 H 0.5761 0.60752 0.31674 0.0
H2667 H 0.59504 0.61173 0.28365 0.0
H2668 H 0.58511 0.62247 0.25639 0.0
H2669 H 0.55814 0.54653 0.14423 0.0
H2670 H 0.5771 0.55595 0.18553 0.0
H2671 H 0.55852 0.54782 0.22782 0.0
H2672 H 0.61102 0.5709 0.31915 0.0
H2673 H 0.56664 0.5565 0.41744 0.0
H2674 H 0.60747 0.59951 0.21634 0.0
H2675 H 0.60322 0.58037 0.18513 0.0
H2676 H 0.61978 0.59084 0.23858 0.0
H2677 H 0.5544 0.58075 0.33353 0.0
H2678 H 0.54777 0.5638 0.38555 0.0
H2679 H 0.54567 0.56071 0.30268 0.0
C2680 C 0.40007 0.96183 0.21165 0.0
C2681 C 0.41156 0.96479 0.16529 0.0
C2682 C 0.40286 0.97368 0.25644 0.0
C2683 C 0.41762 0.98861 0.25541 0.0
C2684 C 0.42895 0.99184 0.20726 0.0
C2685 C 0.42566 0.97999 0.16235 0.0
C2686 C 0.39031 0.97001 0.3061 0.0
C2687 C 0.44497 0.00751 0.20493 0.0
C2688 C 0.42824 0.02709 0.34243 0.0
C2689 C 0.43799 0.02657 0.39008 0.0
C2690 C 0.42014 0.01404 0.30115 0.0
C2691 C 0.42215 0.00038 0.30723 0.0
C2692 C 0.4309 0.99928 0.35831 0.0
C2693 C 0.43853 0.01232 0.3996 0.0
C2694 C 0.41047 0.0154 0.24839 0.0
C2695 C 0.43351 0.98502 0.36619 0.0
H2696 H 0.38907 0.95015 0.21372 0.0
H2697 H 0.43451 0.98246 0.12621 0.0
H2698 H 0.39461 0.96782 0.35098 0.0
H2699 H 0.3884 0.98046 0.31283 0.0
H2700 H 0.37853 0.95914 0.29458 0.0
H2701 H 0.45228 0.00827 0.16352 0.0
H2702 H 0.44296 0.01799 0.20425 0.0
H2703 H 0.45214 0.00865 0.24723 0.0
H2704 H 0.42757 0.03799 0.33539 0.0
H2705 H 0.44579 0.0117 0.43708 0.0
H2706 H 0.39915 0.00373 0.24075 0.0
H2707 H 0.41766 0.01844 0.20489 0.0
H2708 H 0.40735 0.02499 0.25719 0.0
H2709 H 0.42188 0.97347 0.36219 0.0
H2710 H 0.43912 0.98523 0.41169 0.0
H2711 H 0.44157 0.98517 0.32867 0.0
C2712 C 0.57141 0.01615 0.88703 0.0
C2713 C 0.58609 0.03079 0.88232 0.0
C2714 C 0.56747 0.0035 0.845 0.0
C2715 C 0.57872 0.00535 0.79828 0.0
C2716 C 0.59407 0.0196 0.79631 0.0
C2717 C 0.59753 0.03226 0.83804 0.0
C2718 C 0.55086 0.98859 0.84819 0.0
C2719 C 0.60654 0.0218 0.74825 0.0
C2720 C 0.56795 0.96648 0.71238 0.0
C2721 C 0.56 0.96783 0.65986 0.0
C2722 C 0.57499 0.97904 0.75631 0.0
C2723 C 0.57365 0.99304 0.74814 0.0
C2724 C 0.56615 0.99469 0.69404 0.0
C2725 C 0.55964 0.98217 0.65012 0.0
C2726 C 0.58328 0.97705 0.8126 0.0
C2727 C 0.5642 0.0093 0.68411 0.0
H2728 H 0.56259 0.01482 0.92169 0.0
H2729 H 0.60897 0.04349 0.8346 0.0
H2730 H 0.5439 0.98784 0.80573 0.0
H2731 H 0.55185 0.97751 0.84975 0.0
H2732 H 0.54388 0.98866 0.88942 0.0
H2733 H 0.61861 0.0324 0.75867 0.0
H2734 H 0.6077 0.01082 0.74541 0.0
H2735 H 0.60262 0.02362 0.70185 0.0
H2736 H 0.56839 0.95548 0.71982 0.0
H2737 H 0.55364 0.98337 0.60944 0.0
H2738 H 0.57579 0.9752 0.85454 0.0
H2739 H 0.59515 0.98815 0.82037 0.0
H2740 H 0.58524 0.96656 0.80789 0.0
H2741 H 0.55647 0.0099 0.72139 0.0
H2742 H 0.5586 0.009 0.63846 0.0
H2743 H 0.57612 0.02057 0.68687 0.0
C2744 C 0.01893 0.57695 0.618 0.0
C2745 C 0.03374 0.59151 0.62049 0.0
C2746 C 0.00682 0.57337 0.66205 0.0
C2747 C 0.00932 0.58491 0.70844 0.0
C2748 C 0.02364 0.60024 0.70781 0.0
C2749 C 0.03583 0.6033 0.66424 0.0
C2750 C 0.99189 0.55673 0.66167 0.0
C2751 C 0.02644 0.61306 0.75511 0.0
C2752 C 0.97091 0.57215 0.8001 0.0
C2753 C 0.97308 0.56397 0.84999 0.0
C2754 C 0.98326 0.58037 0.7561 0.0
C2755 C 0.99783 0.57994 0.76138 0.0
C2756 C 0.00041 0.57254 0.81376 0.0
C2757 C 0.9881 0.56491 0.85798 0.0
C2758 C 0.98032 0.58866 0.70209 0.0
C2759 C 0.01564 0.57151 0.82066 0.0
H2760 H 0.01708 0.56788 0.58361 0.0
H2761 H 0.04718 0.61467 0.66585 0.0
H2762 H 0.99172 0.55006 0.70422 0.0
H2763 H 0.98078 0.55768 0.66212 0.0
H2764 H 0.99143 0.54947 0.62051 0.0
H2765 H 0.0364 0.62518 0.74091 0.0
H2766 H 0.01527 0.61373 0.76221 0.0
H2767 H 0.0297 0.60993 0.80045 0.0
H2768 H 0.9594 0.57168 0.79425 0.0
H2769 H 0.98999 0.55889 0.89704 0.0
H2770 H 0.97747 0.58102 0.6599 0.0
H2771 H 0.99132 0.60044 0.69196 0.0
H2772 H 0.97005 0.59075 0.71116 0.0
H2773 H 0.01615 0.56381 0.78306 0.0
H2774 H 0.01622 0.56629 0.8661 0.0
H2775 H 0.02652 0.58367 0.81602 0.0
C2776 C 0.39801 0.42495 0.67305 0.0
C2777 C 0.40875 0.43407 0.62542 0.0
C2778 C 0.40235 0.41707 0.71768 0.0
C2779 C 0.41796 0.41882 0.71551 0.0
C2780 C 0.42849 0.42727 0.66549 0.0
C2781 C 0.42361 0.43454 0.62042 0.0
C2782 C 0.39059 0.40769 0.76908 0.0
C2783 C 0.4454 0.42974 0.66216 0.0
C2784 C 0.43993 0.4214 0.86483 0.0
C2785 C 0.44105 0.40732 0.86185 0.0
C2786 C 0.43189 0.42497 0.81859 0.0
C2787 C 0.42424 0.41388 0.7693 0.0
C2788 C 0.4241 0.39898 0.76893 0.0
C2789 C 0.4327 0.39594 0.81493 0.0
C2790 C 0.43256 0.44113 0.82034 0.0
C2791 C 0.41557 0.38663 0.7183 0.0
H2792 H 0.38639 0.42436 0.67656 0.0
H2793 H 0.4319 0.44141 0.58338 0.0
H2794 H 0.39045 0.39618 0.77811 0.0
H2795 H 0.39443 0.41488 0.81263 0.0
H2796 H 0.3781 0.40493 0.75783 0.0
H2797 H 0.45159 0.43551 0.61788 0.0
H2798 H 0.45273 0.43759 0.70125 0.0
H2799 H 0.4451 0.41803 0.66698 0.0
H2800 H 0.4461 0.43013 0.90156 0.0
H2801 H 0.43337 0.38494 0.8128 0.0
H2802 H 0.42019 0.4394 0.81761 0.0
H2803 H 0.4394 0.44848 0.77948 0.0
H2804 H 0.43848 0.44811 0.86317 0.0
H2805 H 0.40343 0.38507 0.7091 0.0
H2806 H 0.41418 0.37468 0.73043 0.0
H2807 H 0.42264 0.39089 0.67457 0.0
loop_
_geom_bond_atom_site_label_1
_geom_bond_atom_site_label_2
_geom_bond_distance
_geom_bond_site_symmetry_2
_ccdc_geom_bond_type
Co0 O1 2.216 . S
Co0 O2 2.091 . S
Co0 O4 2.004 1_554 S
Co0 O10 2.021 . S
Co0 O12 2.137 1_554 S
Co0 O13 2.244 . S
O1 Co0 2.216 . S
O1 C8 1.247 . S
O2 Co0 2.091 . S
O2 C8 1.261 . S
C3 O12 1.247 1_554 S
C3 O13 1.272 . S
O4 Co0 2.004 1_556 S
O4 C9 1.259 . S
Co5 O6 2.061 1_554 S
Co5 O11 2.052 . S
Co5 O13 2.135 . S
O6 Co5 2.061 1_556 S
O6 C9 1.235 . S
C7 O10 1.238 . S
C7 O11 1.241 . S
C8 O1 1.247 . S
C8 O2 1.261 . S
C9 O4 1.259 . S
C9 O6 1.235 . S
O10 Co0 2.021 . S
O10 C7 1.238 . S
O11 Co5 2.052 . S
O11 C7 1.241 . S
O12 Co0 2.137 1_556 S
O12 C3 1.247 1_556 S
O13 Co0 2.244 . S
O13 C3 1.272 . S
O13 Co5 2.135 . S
Co14 O15 2.216 . S
Co14 O16 2.091 . S
Co14 O18 2.004 1_554 S
Co14 O24 2.021 . S
Co14 O26 2.137 1_554 S
Co14 O27 2.244 . S
O15 Co14 2.216 . S
O15 C22 1.247 . S
O16 Co14 2.091 . S
O16 C22 1.261 . S
C17 O26 1.247 1_554 S
C17 O27 1.272 . S
O18 Co14 2.004 1_556 S
O18 C23 1.259 . S
Co19 O20 2.061 1_554 S
Co19 O25 2.052 . S
Co19 O27 2.135 . S
O20 Co19 2.061 1_556 S
O20 C23 1.235 . S
C21 O24 1.238 . S
C21 O25 1.241 . S
C22 O15 1.247 . S
C22 O16 1.261 . S
C23 O18 1.259 . S
C23 O20 1.235 . S
O24 Co14 2.021 . S
O24 C21 1.238 . S
O25 Co19 2.052 . S
O25 C21 1.241 . S
O26 Co14 2.137 1_556 S
O26 C17 1.247 1_556 S
O27 Co14 2.244 . S
O27 C17 1.272 . S
O27 Co19 2.135 . S
Co28 O29 2.216 . S
Co28 O30 2.091 . S
Co28 O32 2.004 1_554 S
Co28 O38 2.021 . S
Co28 O40 2.137 1_554 S
Co28 O41 2.244 . S
O29 Co28 2.216 . S
O29 C36 1.247 . S
O30 Co28 2.091 . S
O30 C36 1.261 . S
C31 O40 1.247 1_554 S
C31 O41 1.272 . S
O32 Co28 2.004 1_556 S
O32 C37 1.259 . S
Co33 O34 2.061 1_554 S
Co33 O39 2.052 . S
Co33 O41 2.135 . S
O34 Co33 2.061 1_556 S
O34 C37 1.235 . S
C35 O38 1.238 . S
C35 O39 1.241 . S
C36 O29 1.247 . S
C36 O30 1.261 . S
C37 O32 1.259 . S
C37 O34 1.235 . S
O38 Co28 2.021 . S
O38 C35 1.238 . S
O39 Co33 2.052 . S
O39 C35 1.241 . S
O40 Co28 2.137 1_556 S
O40 C31 1.247 1_556 S
O41 Co28 2.244 . S
O41 C31 1.272 . S
O41 Co33 2.135 . S
Co42 O43 2.216 . S
Co42 O44 2.091 . S
Co42 O46 2.004 . S
Co42 O52 2.021 . S
Co42 O54 2.137 . S
Co42 O55 2.244 . S
O43 Co42 2.216 . S
O43 C50 1.247 . S
O44 Co42 2.091 . S
O44 C50 1.261 . S
C45 O54 1.247 . S
C45 O55 1.272 . S
O46 Co42 2.004 . S
O46 C51 1.259 . S
Co47 O48 2.061 . S
Co47 O53 2.052 . S
Co47 O55 2.135 . S
O48 Co47 2.061 . S
O48 C51 1.235 . S
C49 O52 1.238 . S
C49 O53 1.241 . S
C50 O43 1.247 . S
C50 O44 1.261 . S
C51 O46 1.259 . S
C51 O48 1.235 . S
O52 Co42 2.021 . S
O52 C49 1.238 . S
O53 Co47 2.052 . S
O53 C49 1.241 . S
O54 Co42 2.137 . S
O54 C45 1.247 . S
O55 Co42 2.244 . S
O55 C45 1.272 . S
O55 Co47 2.135 . S
Co56 O57 2.216 . S
Co56 O58 2.091 . S
Co56 O60 2.004 . S
Co56 O66 2.021 . S
Co56 O68 2.137 . S
Co56 O69 2.244 . S
O57 Co56 2.216 . S
O57 C64 1.247 . S
O58 Co56 2.091 . S
O58 C64 1.261 . S
C59 O68 1.247 . S
C59 O69 1.272 . S
O60 Co56 2.004 . S
O60 C65 1.259 . S
Co61 O62 2.061 . S
Co61 O67 2.052 . S
Co61 O69 2.135 . S
O62 Co61 2.061 . S
O62 C65 1.235 . S
C63 O66 1.238 . S
C63 O67 1.241 . S
C64 O57 1.247 . S
C64 O58 1.261 . S
C65 O60 1.259 . S
C65 O62 1.235 . S
O66 Co56 2.021 . S
O66 C63 1.238 . S
O67 Co61 2.052 . S
O67 C63 1.241 . S
O68 Co56 2.137 . S
O68 C59 1.247 . S
O69 Co56 2.244 . S
O69 C59 1.272 . S
O69 Co61 2.135 . S
Co70 O71 2.216 . S
Co70 O72 2.091 . S
Co70 O74 2.004 . S
Co70 O80 2.021 . S
Co70 O82 2.137 . S
Co70 O83 2.244 . S
O71 Co70 2.216 . S
O71 C78 1.247 . S
O72 Co70 2.091 . S
O72 C78 1.261 . S
C73 O82 1.247 . S
C73 O83 1.272 . S
O74 Co70 2.004 . S
O74 C79 1.259 . S
Co75 O76 2.061 . S
Co75 O81 2.052 . S
Co75 O83 2.135 . S
O76 Co75 2.061 . S
O76 C79 1.235 . S
C77 O80 1.238 . S
C77 O81 1.241 . S
C78 O71 1.247 . S
C78 O72 1.261 . S
C79 O74 1.259 . S
C79 O76 1.235 . S
O80 Co70 2.021 . S
O80 C77 1.238 . S
O81 Co75 2.052 . S
O81 C77 1.241 . S
O82 Co70 2.137 . S
O82 C73 1.247 . S
O83 Co70 2.244 . S
O83 C73 1.272 . S
O83 Co75 2.135 . S
Co84 O85 2.216 . S
Co84 O86 2.091 . S
Co84 O88 2.004 1_556 S
Co84 O94 2.021 . S
Co84 O96 2.137 1_556 S
Co84 O97 2.244 . S
O85 Co84 2.216 . S
O85 C92 1.247 . S
O86 Co84 2.091 . S
O86 C92 1.261 . S
C87 O96 1.247 1_556 S
C87 O97 1.272 . S
O88 Co84 2.004 1_554 S
O88 C93 1.259 . S
Co89 O90 2.061 1_556 S
Co89 O95 2.052 . S
Co89 O97 2.135 . S
O90 Co89 2.061 1_554 S
O90 C93 1.235 . S
C91 O94 1.238 . S
C91 O95 1.241 . S
C92 O85 1.247 . S
C92 O86 1.261 . S
C93 O88 1.259 . S
C93 O90 1.235 . S
O94 Co84 2.021 . S
O94 C91 1.238 . S
O95 Co89 2.052 . S
O95 C91 1.241 . S
O96 Co84 2.137 1_554 S
O96 C87 1.247 1_554 S
O97 Co84 2.244 . S
O97 C87 1.272 . S
O97 Co89 2.135 . S
Co98 O99 2.216 . S
Co98 O100 2.091 . S
Co98 O102 2.004 1_556 S
Co98 O108 2.021 . S
Co98 O110 2.137 1_556 S
Co98 O111 2.244 . S
O99 Co98 2.216 . S
O99 C106 1.247 . S
O100 Co98 2.091 . S
O100 C106 1.261 . S
C101 O110 1.247 1_556 S
C101 O111 1.272 . S
O102 Co98 2.004 1_554 S
O102 C107 1.259 . S
Co103 O104 2.061 1_556 S
Co103 O109 2.052 . S
Co103 O111 2.135 . S
O104 Co103 2.061 1_554 S
O104 C107 1.235 . S
C105 O108 1.238 . S
C105 O109 1.241 . S
C106 O99 1.247 . S
C106 O100 1.261 . S
C107 O102 1.259 . S
C107 O104 1.235 . S
O108 Co98 2.021 . S
O108 C105 1.238 . S
O109 Co103 2.052 . S
O109 C105 1.241 . S
O110 Co98 2.137 1_554 S
O110 C101 1.247 1_554 S
O111 Co98 2.244 . S
O111 C101 1.272 . S
O111 Co103 2.135 . S
Co112 O113 2.216 . S
Co112 O114 2.091 . S
Co112 O116 2.004 1_556 S
Co112 O122 2.021 . S
Co112 O124 2.137 1_556 S
Co112 O125 2.244 . S
O113 Co112 2.216 . S
O113 C120 1.247 . S
O114 Co112 2.091 . S
O114 C120 1.261 . S
C115 O124 1.247 1_556 S
C115 O125 1.272 . S
O116 Co112 2.004 1_554 S
O116 C121 1.259 . S
Co117 O118 2.061 1_556 S
Co117 O123 2.052 . S
Co117 O125 2.135 . S
O118 Co117 2.061 1_554 S
O118 C121 1.235 . S
C119 O122 1.238 . S
C119 O123 1.241 . S
C120 O113 1.247 . S
C120 O114 1.261 . S
C121 O116 1.259 . S
C121 O118 1.235 . S
O122 Co112 2.021 . S
O122 C119 1.238 . S
O123 Co117 2.052 . S
O123 C119 1.241 . S
O124 Co112 2.137 1_554 S
O124 C115 1.247 1_554 S
O125 Co112 2.244 . S
O125 C115 1.272 . S
O125 Co117 2.135 . S
Co126 O127 2.216 . S
Co126 O128 2.091 . S
Co126 O130 2.004 . S
Co126 O136 2.021 . S
Co126 O138 2.137 . S
Co126 O139 2.244 . S
O127 Co126 2.216 . S
O127 C134 1.247 . S
O128 Co126 2.091 . S
O128 C134 1.261 . S
C129 O138 1.247 . S
C129 O139 1.272 . S
O130 Co126 2.004 . S
O130 C135 1.259 . S
Co131 O132 2.061 . S
Co131 O137 2.052 . S
Co131 O139 2.135 . S
O132 Co131 2.061 . S
O132 C135 1.235 . S
C133 O136 1.238 . S
C133 O137 1.241 . S
C134 O127 1.247 . S
C134 O128 1.261 . S
C135 O130 1.259 . S
C135 O132 1.235 . S
O136 Co126 2.021 . S
O136 C133 1.238 . S
O137 Co131 2.052 . S
O137 C133 1.241 . S
O138 Co126 2.137 . S
O138 C129 1.247 . S
O139 Co126 2.244 . S
O139 C129 1.272 . S
O139 Co131 2.135 . S
Co140 O141 2.216 . S
Co140 O142 2.091 . S
Co140 O144 2.004 . S
Co140 O150 2.021 . S
Co140 O152 2.137 . S
Co140 O153 2.244 . S
O141 Co140 2.216 . S
O141 C148 1.247 . S
O142 Co140 2.091 . S
O142 C148 1.261 . S
C143 O152 1.247 . S
C143 O153 1.272 . S
O144 Co140 2.004 . S
O144 C149 1.259 . S
Co145 O146 2.061 . S
Co145 O151 2.052 . S
Co145 O153 2.135 . S
O146 Co145 2.061 . S
O146 C149 1.235 . S
C147 O150 1.238 . S
C147 O151 1.241 . S
C148 O141 1.247 . S
C148 O142 1.261 . S
C149 O144 1.259 . S
C149 O146 1.235 . S
O150 Co140 2.021 . S
O150 C147 1.238 . S
O151 Co145 2.052 . S
O151 C147 1.241 . S
O152 Co140 2.137 . S
O152 C143 1.247 . S
O153 Co140 2.244 . S
O153 C143 1.272 . S
O153 Co145 2.135 . S
Co154 O155 2.216 . S
Co154 O156 2.091 . S
Co154 O158 2.004 . S
Co154 O164 2.021 . S
Co154 O166 2.137 . S
Co154 O167 2.244 . S
O155 Co154 2.216 . S
O155 C162 1.247 . S
O156 Co154 2.091 . S
O156 C162 1.261 . S
C157 O166 1.247 . S
C157 O167 1.272 . S
O158 Co154 2.004 . S
O158 C163 1.259 . S
Co159 O160 2.061 . S
Co159 O165 2.052 . S
Co159 O167 2.135 . S
O160 Co159 2.061 . S
O160 C163 1.235 . S
C161 O164 1.238 . S
C161 O165 1.241 . S
C162 O155 1.247 . S
C162 O156 1.261 . S
C163 O158 1.259 . S
C163 O160 1.235 . S
O164 Co154 2.021 . S
O164 C161 1.238 . S
O165 Co159 2.052 . S
O165 C161 1.241 . S
O166 Co154 2.137 . S
O166 C157 1.247 . S
O167 Co154 2.244 . S
O167 C157 1.272 . S
O167 Co159 2.135 . S
Co168 O169 2.216 . S
Co168 O170 2.091 . S
Co168 O172 2.004 . S
Co168 O178 2.021 . S
Co168 O180 2.137 . S
Co168 O181 2.244 . S
O169 Co168 2.216 . S
O169 C176 1.247 . S
O170 Co168 2.091 . S
O170 C176 1.261 . S
C171 O180 1.247 . S
C171 O181 1.272 . S
O172 Co168 2.004 . S
O172 C177 1.259 . S
Co173 O174 2.061 . S
Co173 O179 2.052 . S
Co173 O181 2.135 . S
O174 Co173 2.061 . S
O174 C177 1.235 . S
C175 O178 1.238 . S
C175 O179 1.241 . S
C176 O169 1.247 . S
C176 O170 1.261 . S
C177 O172 1.259 . S
C177 O174 1.235 . S
O178 Co168 2.021 . S
O178 C175 1.238 . S
O179 Co173 2.052 . S
O179 C175 1.241 . S
O180 Co168 2.137 . S
O180 C171 1.247 . S
O181 Co168 2.244 . S
O181 C171 1.272 . S
O181 Co173 2.135 . S
Co182 O183 2.216 . S
Co182 O184 2.091 . S
Co182 O186 2.004 . S
Co182 O192 2.021 . S
Co182 O194 2.137 . S
Co182 O195 2.244 . S
O183 Co182 2.216 . S
O183 C190 1.247 . S
O184 Co182 2.091 . S
O184 C190 1.261 . S
C185 O194 1.247 . S
C185 O195 1.272 . S
O186 Co182 2.004 . S
O186 C191 1.259 . S
Co187 O188 2.061 . S
Co187 O193 2.052 . S
Co187 O195 2.135 . S
O188 Co187 2.061 . S
O188 C191 1.235 . S
C189 O192 1.238 . S
C189 O193 1.241 . S
C190 O183 1.247 . S
C190 O184 1.261 . S
C191 O186 1.259 . S
C191 O188 1.235 . S
O192 Co182 2.021 . S
O192 C189 1.238 . S
O193 Co187 2.052 . S
O193 C189 1.241 . S
O194 Co182 2.137 . S
O194 C185 1.247 . S
O195 Co182 2.244 . S
O195 C185 1.272 . S
O195 Co187 2.135 . S
Co196 O197 2.216 . S
Co196 O198 2.091 . S
Co196 O200 2.004 . S
Co196 O206 2.021 . S
Co196 O208 2.137 . S
Co196 O209 2.244 . S
O197 Co196 2.216 . S
O197 C204 1.247 . S
O198 Co196 2.091 . S
O198 C204 1.261 . S
C199 O208 1.247 . S
C199 O209 1.272 . S
O200 Co196 2.004 . S
O200 C205 1.259 . S
Co201 O202 2.061 . S
Co201 O207 2.052 . S
Co201 O209 2.135 . S
O202 Co201 2.061 . S
O202 C205 1.235 . S
C203 O206 1.238 . S
C203 O207 1.241 . S
C204 O197 1.247 . S
C204 O198 1.261 . S
C205 O200 1.259 . S
C205 O202 1.235 . S
O206 Co196 2.021 . S
O206 C203 1.238 . S
O207 Co201 2.052 . S
O207 C203 1.241 . S
O208 Co196 2.137 . S
O208 C199 1.247 . S
O209 Co196 2.244 . S
O209 C199 1.272 . S
O209 Co201 2.135 . S
Co210 O211 2.216 . S
Co210 O212 2.091 . S
Co210 O214 2.004 . S
Co210 O220 2.021 . S
Co210 O222 2.137 . S
Co210 O223 2.244 . S
O211 Co210 2.216 . S
O211 C218 1.247 . S
O212 Co210 2.091 . S
O212 C218 1.261 . S
C213 O222 1.247 . S
C213 O223 1.272 . S
O214 Co210 2.004 . S
O214 C219 1.259 . S
Co215 O216 2.061 . S
Co215 O221 2.052 . S
Co215 O223 2.135 . S
O216 Co215 2.061 . S
O216 C219 1.235 . S
C217 O220 1.238 . S
C217 O221 1.241 . S
C218 O211 1.247 . S
C218 O212 1.261 . S
C219 O214 1.259 . S
C219 O216 1.235 . S
O220 Co210 2.021 . S
O220 C217 1.238 . S
O221 Co215 2.052 . S
O221 C217 1.241 . S
O222 Co210 2.137 . S
O222 C213 1.247 . S
O223 Co210 2.244 . S
O223 C213 1.272 . S
O223 Co215 2.135 . S
Co224 O225 2.216 . S
Co224 O226 2.091 . S
Co224 O228 2.004 . S
Co224 O234 2.021 . S
Co224 O236 2.137 . S
Co224 O237 2.244 . S
O225 Co224 2.216 . S
O225 C232 1.247 . S
O226 Co224 2.091 . S
O226 C232 1.261 . S
C227 O236 1.247 . S
C227 O237 1.272 . S
O228 Co224 2.004 . S
O228 C233 1.259 . S
Co229 O230 2.061 . S
Co229 O235 2.052 . S
Co229 O237 2.135 . S
O230 Co229 2.061 . S
O230 C233 1.235 . S
C231 O234 1.238 . S
C231 O235 1.241 . S
C232 O225 1.247 . S
C232 O226 1.261 . S
C233 O228 1.259 . S
C233 O230 1.235 . S
O234 Co224 2.021 . S
O234 C231 1.238 . S
O235 Co229 2.052 . S
O235 C231 1.241 . S
O236 Co224 2.137 . S
O236 C227 1.247 . S
O237 Co224 2.244 . S
O237 C227 1.272 . S
O237 Co229 2.135 . S
Co238 O239 2.216 . S
Co238 O240 2.091 . S
Co238 O242 2.004 . S
Co238 O248 2.021 . S
Co238 O250 2.137 . S
Co238 O251 2.244 . S
O239 Co238 2.216 . S
O239 C246 1.247 . S
O240 Co238 2.091 . S
O240 C246 1.261 . S
C241 O250 1.247 . S
C241 O251 1.272 . S
O242 Co238 2.004 . S
O242 C247 1.259 . S
Co243 O244 2.061 . S
Co243 O249 2.052 . S
Co243 O251 2.135 . S
O244 Co243 2.061 . S
O244 C247 1.235 . S
C245 O248 1.238 . S
C245 O249 1.241 . S
C246 O239 1.247 . S
C246 O240 1.261 . S
C247 O242 1.259 . S
C247 O244 1.235 . S
O248 Co238 2.021 . S
O248 C245 1.238 . S
O249 Co243 2.052 . S
O249 C245 1.241 . S
O250 Co238 2.137 . S
O250 C241 1.247 . S
O251 Co238 2.244 . S
O251 C241 1.272 . S
O251 Co243 2.135 . S
Co252 O253 2.216 . S
Co252 O254 2.091 . S
Co252 O256 2.004 . S
Co252 O262 2.021 . S
Co252 O264 2.137 . S
Co252 O265 2.244 . S
O253 Co252 2.216 . S
O253 C260 1.247 . S
O254 Co252 2.091 . S
O254 C260 1.261 . S
C255 O264 1.247 . S
C255 O265 1.272 . S
O256 Co252 2.004 . S
O256 C261 1.259 . S
Co257 O258 2.061 . S
Co257 O263 2.052 . S
Co257 O265 2.135 . S
O258 Co257 2.061 . S
O258 C261 1.235 . S
C259 O262 1.238 . S
C259 O263 1.241 . S
C260 O253 1.247 . S
C260 O254 1.261 . S
C261 O256 1.259 . S
C261 O258 1.235 . S
O262 Co252 2.021 . S
O262 C259 1.238 . S
O263 Co257 2.052 . S
O263 C259 1.241 . S
O264 Co252 2.137 . S
O264 C255 1.247 . S
O265 Co252 2.244 . S
O265 C255 1.272 . S
O265 Co257 2.135 . S
Co266 O267 2.216 . S
Co266 O268 2.091 . S
Co266 O270 2.004 . S
Co266 O276 2.021 . S
Co266 O278 2.137 . S
Co266 O279 2.244 . S
O267 Co266 2.216 . S
O267 C274 1.247 . S
O268 Co266 2.091 . S
O268 C274 1.261 . S
C269 O278 1.247 . S
C269 O279 1.272 . S
O270 Co266 2.004 . S
O270 C275 1.259 . S
Co271 O272 2.061 . S
Co271 O277 2.052 . S
Co271 O279 2.135 . S
O272 Co271 2.061 . S
O272 C275 1.235 . S
C273 O276 1.238 . S
C273 O277 1.241 . S
C274 O267 1.247 . S
C274 O268 1.261 . S
C275 O270 1.259 . S
C275 O272 1.235 . S
O276 Co266 2.021 . S
O276 C273 1.238 . S
O277 Co271 2.052 . S
O277 C273 1.241 . S
O278 Co266 2.137 . S
O278 C269 1.247 . S
O279 Co266 2.244 . S
O279 C269 1.272 . S
O279 Co271 2.135 . S
Co280 O281 2.216 . S
Co280 O282 2.091 . S
Co280 O284 2.004 . S
Co280 O290 2.021 . S
Co280 O292 2.137 . S
Co280 O293 2.244 . S
O281 Co280 2.216 . S
O281 C288 1.247 . S
O282 Co280 2.091 . S
O282 C288 1.261 . S
C283 O292 1.247 . S
C283 O293 1.272 . S
O284 Co280 2.004 . S
O284 C289 1.259 . S
Co285 O286 2.061 . S
Co285 O291 2.052 . S
Co285 O293 2.135 . S
O286 Co285 2.061 . S
O286 C289 1.235 . S
C287 O290 1.238 . S
C287 O291 1.241 . S
C288 O281 1.247 . S
C288 O282 1.261 . S
C289 O284 1.259 . S
C289 O286 1.235 . S
O290 Co280 2.021 . S
O290 C287 1.238 . S
O291 Co285 2.052 . S
O291 C287 1.241 . S
O292 Co280 2.137 . S
O292 C283 1.247 . S
O293 Co280 2.244 . S
O293 C283 1.272 . S
O293 Co285 2.135 . S
Co294 O295 2.216 . S
Co294 O296 2.091 . S
Co294 O298 2.004 . S
Co294 O304 2.021 . S
Co294 O306 2.137 . S
Co294 O307 2.244 . S
O295 Co294 2.216 . S
O295 C302 1.247 . S
O296 Co294 2.091 . S
O296 C302 1.261 . S
C297 O306 1.247 . S
C297 O307 1.272 . S
O298 Co294 2.004 . S
O298 C303 1.259 . S
Co299 O300 2.061 . S
Co299 O305 2.052 . S
Co299 O307 2.135 . S
O300 Co299 2.061 . S
O300 C303 1.235 . S
C301 O304 1.238 . S
C301 O305 1.241 . S
C302 O295 1.247 . S
C302 O296 1.261 . S
C303 O298 1.259 . S
C303 O300 1.235 . S
O304 Co294 2.021 . S
O304 C301 1.238 . S
O305 Co299 2.052 . S
O305 C301 1.241 . S
O306 Co294 2.137 . S
O306 C297 1.247 . S
O307 Co294 2.244 . S
O307 C297 1.272 . S
O307 Co299 2.135 . S
Co308 O309 2.216 . S
Co308 O310 2.091 . S
Co308 O312 2.004 . S
Co308 O318 2.021 . S
Co308 O320 2.137 . S
Co308 O321 2.244 . S
O309 Co308 2.216 . S
O309 C316 1.247 . S
O310 Co308 2.091 . S
O310 C316 1.261 . S
C311 O320 1.247 . S
C311 O321 1.272 . S
O312 Co308 2.004 . S
O312 C317 1.259 . S
Co313 O314 2.061 . S
Co313 O319 2.052 . S
Co313 O321 2.135 . S
O314 Co313 2.061 . S
O314 C317 1.235 . S
C315 O318 1.238 . S
C315 O319 1.241 . S
C316 O309 1.247 . S
C316 O310 1.261 . S
C317 O312 1.259 . S
C317 O314 1.235 . S
O318 Co308 2.021 . S
O318 C315 1.238 . S
O319 Co313 2.052 . S
O319 C315 1.241 . S
O320 Co308 2.137 . S
O320 C311 1.247 . S
O321 Co308 2.244 . S
O321 C311 1.272 . S
O321 Co313 2.135 . S
Co322 O323 2.216 . S
Co322 O324 2.091 . S
Co322 O326 2.004 . S
Co322 O332 2.021 . S
Co322 O334 2.137 . S
Co322 O335 2.244 . S
O323 Co322 2.216 . S
O323 C330 1.247 . S
O324 Co322 2.091 . S
O324 C330 1.261 . S
C325 O334 1.247 . S
C325 O335 1.272 . S
O326 Co322 2.004 . S
O326 C331 1.259 . S
Co327 O328 2.061 . S
Co327 O333 2.052 . S
Co327 O335 2.135 . S
O328 Co327 2.061 . S
O328 C331 1.235 . S
C329 O332 1.238 . S
C329 O333 1.241 . S
C330 O323 1.247 . S
C330 O324 1.261 . S
C331 O326 1.259 . S
C331 O328 1.235 . S
O332 Co322 2.021 . S
O332 C329 1.238 . S
O333 Co327 2.052 . S
O333 C329 1.241 . S
O334 Co322 2.137 . S
O334 C325 1.247 . S
O335 Co322 2.244 . S
O335 C325 1.272 . S
O335 Co327 2.135 . S
Co336 O337 2.216 . S
Co336 O338 2.091 . S
Co336 O340 2.004 . S
Co336 O346 2.021 . S
Co336 O348 2.137 . S
Co336 O349 2.244 . S
O337 Co336 2.216 . S
O337 C344 1.247 . S
O338 Co336 2.091 . S
O338 C344 1.261 . S
C339 O348 1.247 . S
C339 O349 1.272 . S
O340 Co336 2.004 . S
O340 C345 1.259 . S
Co341 O342 2.061 . S
Co341 O347 2.052 . S
Co341 O349 2.135 . S
O342 Co341 2.061 . S
O342 C345 1.235 . S
C343 O346 1.238 . S
C343 O347 1.241 . S
C344 O337 1.247 . S
C344 O338 1.261 . S
C345 O340 1.259 . S
C345 O342 1.235 . S
O346 Co336 2.021 . S
O346 C343 1.238 . S
O347 Co341 2.052 . S
O347 C343 1.241 . S
O348 Co336 2.137 . S
O348 C339 1.247 . S
O349 Co336 2.244 . S
O349 C339 1.272 . S
O349 Co341 2.135 . S
Co350 O351 2.216 . S
Co350 O352 2.091 . S
Co350 O354 2.004 . S
Co350 O360 2.021 . S
Co350 O362 2.137 . S
Co350 O363 2.244 . S
O351 Co350 2.216 . S
O351 C358 1.247 . S
O352 Co350 2.091 . S
O352 C358 1.261 . S
C353 O362 1.247 . S
C353 O363 1.272 . S
O354 Co350 2.004 . S
O354 C359 1.259 . S
Co355 O356 2.061 . S
Co355 O361 2.052 . S
Co355 O363 2.135 . S
O356 Co355 2.061 . S
O356 C359 1.235 . S
C357 O360 1.238 . S
C357 O361 1.241 . S
C358 O351 1.247 . S
C358 O352 1.261 . S
C359 O354 1.259 . S
C359 O356 1.235 . S
O360 Co350 2.021 . S
O360 C357 1.238 . S
O361 Co355 2.052 . S
O361 C357 1.241 . S
O362 Co350 2.137 . S
O362 C353 1.247 . S
O363 Co350 2.244 . S
O363 C353 1.272 . S
O363 Co355 2.135 . S
Co364 O365 2.216 . S
Co364 O366 2.091 . S
Co364 O368 2.004 . S
Co364 O374 2.021 . S
Co364 O376 2.137 . S
Co364 O377 2.244 . S
O365 Co364 2.216 . S
O365 C372 1.247 . S
O366 Co364 2.091 . S
O366 C372 1.261 . S
C367 O376 1.247 . S
C367 O377 1.272 . S
O368 Co364 2.004 . S
O368 C373 1.259 . S
Co369 O370 2.061 . S
Co369 O375 2.052 . S
Co369 O377 2.135 . S
O370 Co369 2.061 . S
O370 C373 1.235 . S
C371 O374 1.238 . S
C371 O375 1.241 . S
C372 O365 1.247 . S
C372 O366 1.261 . S
C373 O368 1.259 . S
C373 O370 1.235 . S
O374 Co364 2.021 . S
O374 C371 1.238 . S
O375 Co369 2.052 . S
O375 C371 1.241 . S
O376 Co364 2.137 . S
O376 C367 1.247 . S
O377 Co364 2.244 . S
O377 C367 1.272 . S
O377 Co369 2.135 . S
Co378 O379 2.216 . S
Co378 O380 2.091 . S
Co378 O382 2.004 . S
Co378 O388 2.021 . S
Co378 O390 2.137 . S
Co378 O391 2.244 . S
O379 Co378 2.216 . S
O379 C386 1.247 . S
O380 Co378 2.091 . S
O380 C386 1.261 . S
C381 O390 1.247 . S
C381 O391 1.272 . S
O382 Co378 2.004 . S
O382 C387 1.259 . S
Co383 O384 2.061 . S
Co383 O389 2.052 . S
Co383 O391 2.135 . S
O384 Co383 2.061 . S
O384 C387 1.235 . S
C385 O388 1.238 . S
C385 O389 1.241 . S
C386 O379 1.247 . S
C386 O380 1.261 . S
C387 O382 1.259 . S
C387 O384 1.235 . S
O388 Co378 2.021 . S
O388 C385 1.238 . S
O389 Co383 2.052 . S
O389 C385 1.241 . S
O390 Co378 2.137 . S
O390 C381 1.247 . S
O391 Co378 2.244 . S
O391 C381 1.272 . S
O391 Co383 2.135 . S
Co392 O393 2.216 . S
Co392 O394 2.091 . S
Co392 O396 2.004 . S
Co392 O402 2.021 . S
Co392 O404 2.137 . S
Co392 O405 2.244 . S
O393 Co392 2.216 . S
O393 C400 1.247 . S
O394 Co392 2.091 . S
O394 C400 1.261 . S
C395 O404 1.247 . S
C395 O405 1.272 . S
O396 Co392 2.004 . S
O396 C401 1.259 . S
Co397 O398 2.061 . S
Co397 O403 2.052 . S
Co397 O405 2.135 . S
O398 Co397 2.061 . S
O398 C401 1.235 . S
C399 O402 1.238 . S
C399 O403 1.241 . S
C400 O393 1.247 . S
C400 O394 1.261 . S
C401 O396 1.259 . S
C401 O398 1.235 . S
O402 Co392 2.021 . S
O402 C399 1.238 . S
O403 Co397 2.052 . S
O403 C399 1.241 . S
O404 Co392 2.137 . S
O404 C395 1.247 . S
O405 Co392 2.244 . S
O405 C395 1.272 . S
O405 Co397 2.135 . S
Co406 O407 2.216 . S
Co406 O408 2.091 . S
Co406 O410 2.004 . S
Co406 O416 2.021 . S
Co406 O418 2.137 . S
Co406 O419 2.244 . S
O407 Co406 2.216 . S
O407 C414 1.247 . S
O408 Co406 2.091 . S
O408 C414 1.261 . S
C409 O418 1.247 . S
C409 O419 1.272 . S
O410 Co406 2.004 . S
O410 C415 1.259 . S
Co411 O412 2.061 . S
Co411 O417 2.052 . S
Co411 O419 2.135 . S
O412 Co411 2.061 . S
O412 C415 1.235 . S
C413 O416 1.238 . S
C413 O417 1.241 . S
C414 O407 1.247 . S
C414 O408 1.261 . S
C415 O410 1.259 . S
C415 O412 1.235 . S
O416 Co406 2.021 . S
O416 C413 1.238 . S
O417 Co411 2.052 . S
O417 C413 1.241 . S
O418 Co406 2.137 . S
O418 C409 1.247 . S
O419 Co406 2.244 . S
O419 C409 1.272 . S
O419 Co411 2.135 . S
Co420 O421 2.216 . S
Co420 O422 2.091 . S
Co420 O424 2.004 . S
Co420 O430 2.021 . S
Co420 O432 2.137 . S
Co420 O433 2.244 . S
O421 Co420 2.216 . S
O421 C428 1.247 . S
O422 Co420 2.091 . S
O422 C428 1.261 . S
C423 O432 1.247 . S
C423 O433 1.272 . S
O424 Co420 2.004 . S
O424 C429 1.259 . S
Co425 O426 2.061 . S
Co425 O431 2.052 . S
Co425 O433 2.135 . S
O426 Co425 2.061 . S
O426 C429 1.235 . S
C427 O430 1.238 . S
C427 O431 1.241 . S
C428 O421 1.247 . S
C428 O422 1.261 . S
C429 O424 1.259 . S
C429 O426 1.235 . S
O430 Co420 2.021 . S
O430 C427 1.238 . S
O431 Co425 2.052 . S
O431 C427 1.241 . S
O432 Co420 2.137 . S
O432 C423 1.247 . S
O433 Co420 2.244 . S
O433 C423 1.272 . S
O433 Co425 2.135 . S
Co434 O435 2.216 . S
Co434 O436 2.091 . S
Co434 O438 2.004 . S
Co434 O444 2.021 . S
Co434 O446 2.137 . S
Co434 O447 2.244 . S
O435 Co434 2.216 . S
O435 C442 1.247 . S
O436 Co434 2.091 . S
O436 C442 1.261 . S
C437 O446 1.247 . S
C437 O447 1.272 . S
O438 Co434 2.004 . S
O438 C443 1.259 . S
Co439 O440 2.061 . S
Co439 O445 2.052 . S
Co439 O447 2.135 . S
O440 Co439 2.061 . S
O440 C443 1.235 . S
C441 O444 1.238 . S
C441 O445 1.241 . S
C442 O435 1.247 . S
C442 O436 1.261 . S
C443 O438 1.259 . S
C443 O440 1.235 . S
O444 Co434 2.021 . S
O444 C441 1.238 . S
O445 Co439 2.052 . S
O445 C441 1.241 . S
O446 Co434 2.137 . S
O446 C437 1.247 . S
O447 Co434 2.244 . S
O447 C437 1.272 . S
O447 Co439 2.135 . S
Co448 O449 2.216 . S
Co448 O450 2.091 . S
Co448 O452 2.004 . S
Co448 O458 2.021 . S
Co448 O460 2.137 . S
Co448 O461 2.244 . S
O449 Co448 2.216 . S
O449 C456 1.247 . S
O450 Co448 2.091 . S
O450 C456 1.261 . S
C451 O460 1.247 . S
C451 O461 1.272 . S
O452 Co448 2.004 . S
O452 C457 1.259 . S
Co453 O454 2.061 . S
Co453 O459 2.052 . S
Co453 O461 2.135 . S
O454 Co453 2.061 . S
O454 C457 1.235 . S
C455 O458 1.238 . S
C455 O459 1.241 . S
C456 O449 1.247 . S
C456 O450 1.261 . S
C457 O452 1.259 . S
C457 O454 1.235 . S
O458 Co448 2.021 . S
O458 C455 1.238 . S
O459 Co453 2.052 . S
O459 C455 1.241 . S
O460 Co448 2.137 . S
O460 C451 1.247 . S
O461 Co448 2.244 . S
O461 C451 1.272 . S
O461 Co453 2.135 . S
Co462 O463 2.216 . S
Co462 O464 2.091 . S
Co462 O466 2.004 . S
Co462 O472 2.021 . S
Co462 O474 2.137 . S
Co462 O475 2.244 . S
O463 Co462 2.216 . S
O463 C470 1.247 . S
O464 Co462 2.091 . S
O464 C470 1.261 . S
C465 O474 1.247 . S
C465 O475 1.272 . S
O466 Co462 2.004 . S
O466 C471 1.259 . S
Co467 O468 2.061 . S
Co467 O473 2.052 . S
Co467 O475 2.135 . S
O468 Co467 2.061 . S
O468 C471 1.235 . S
C469 O472 1.238 . S
C469 O473 1.241 . S
C470 O463 1.247 . S
C470 O464 1.261 . S
C471 O466 1.259 . S
C471 O468 1.235 . S
O472 Co462 2.021 . S
O472 C469 1.238 . S
O473 Co467 2.052 . S
O473 C469 1.241 . S
O474 Co462 2.137 . S
O474 C465 1.247 . S
O475 Co462 2.244 . S
O475 C465 1.272 . S
O475 Co467 2.135 . S
Co476 O477 2.216 . S
Co476 O478 2.091 . S
Co476 O480 2.004 . S
Co476 O486 2.021 . S
Co476 O488 2.137 . S
Co476 O489 2.244 . S
O477 Co476 2.216 . S
O477 C484 1.247 . S
O478 Co476 2.091 . S
O478 C484 1.261 . S
C479 O488 1.247 . S
C479 O489 1.272 . S
O480 Co476 2.004 . S
O480 C485 1.259 . S
Co481 O482 2.061 . S
Co481 O487 2.052 . S
Co481 O489 2.135 . S
O482 Co481 2.061 . S
O482 C485 1.235 . S
C483 O486 1.238 . S
C483 O487 1.241 . S
C484 O477 1.247 . S
C484 O478 1.261 . S
C485 O480 1.259 . S
C485 O482 1.235 . S
O486 Co476 2.021 . S
O486 C483 1.238 . S
O487 Co481 2.052 . S
O487 C483 1.241 . S
O488 Co476 2.137 . S
O488 C479 1.247 . S
O489 Co476 2.244 . S
O489 C479 1.272 . S
O489 Co481 2.135 . S
Co490 O491 2.216 . S
Co490 O492 2.091 . S
Co490 O494 2.004 . S
Co490 O500 2.021 . S
Co490 O502 2.137 . S
Co490 O503 2.244 . S
O491 Co490 2.216 . S
O491 C498 1.247 . S
O492 Co490 2.091 . S
O492 C498 1.261 . S
C493 O502 1.247 . S
C493 O503 1.272 . S
O494 Co490 2.004 . S
O494 C499 1.259 . S
Co495 O496 2.061 . S
Co495 O501 2.052 . S
Co495 O503 2.135 . S
O496 Co495 2.061 . S
O496 C499 1.235 . S
C497 O500 1.238 . S
C497 O501 1.241 . S
C498 O491 1.247 . S
C498 O492 1.261 . S
C499 O494 1.259 . S
C499 O496 1.235 . S
O500 Co490 2.021 . S
O500 C497 1.238 . S
O501 Co495 2.052 . S
O501 C497 1.241 . S
O502 Co490 2.137 . S
O502 C493 1.247 . S
O503 Co490 2.244 . S
O503 C493 1.272 . S
O503 Co495 2.135 . S
C504 C505 1.391 . S
C504 C506 1.394 . S
C504 H520 0.931 . S
C505 C504 1.391 . S
C505 C509 1.376 . S
C506 C504 1.394 . S
C506 C507 1.369 . S
C506 C510 1.531 . S
C507 C506 1.369 . S
C507 C508 1.410 . S
C507 C515 1.503 1_565 S
C508 C507 1.410 . S
C508 C509 1.392 . S
C508 C511 1.511 1_565 S
C509 C505 1.376 . S
C509 C508 1.392 . S
C509 H521 0.929 . S
C510 C506 1.531 . S
C510 H522 0.960 . S
C510 H523 0.962 . S
C510 H524 0.960 . S
C511 C508 1.511 1_545 S
C511 H525 0.961 . S
C511 H526 0.961 . S
C511 H527 0.961 . S
C512 C513 1.370 . S
C512 C514 1.363 . S
C512 H528 0.931 . S
C513 C512 1.370 . S
C513 C517 1.408 . S
C514 C512 1.363 . S
C514 C515 1.370 . S
C514 C518 1.524 . S
C515 C507 1.503 1_545 S
C515 C514 1.370 . S
C515 C516 1.403 . S
C516 C515 1.403 . S
C516 C517 1.404 . S
C516 C519 1.539 1_545 S
C517 C513 1.408 . S
C517 C516 1.404 . S
C517 H529 0.930 . S
C518 C514 1.524 . S
C518 H530 0.956 . S
C518 H531 0.961 . S
C518 H532 0.961 . S
C519 C516 1.539 1_565 S
C519 H533 0.958 . S
C519 H534 0.961 . S
C519 H535 0.960 . S
H520 C504 0.931 . S
H521 C509 0.929 . S
H522 C510 0.960 . S
H523 C510 0.962 . S
H524 C510 0.960 . S
H525 C511 0.961 . S
H526 C511 0.961 . S
H527 C511 0.961 . S
H528 C512 0.931 . S
H529 C517 0.930 . S
H530 C518 0.956 . S
H531 C518 0.961 . S
H532 C518 0.961 . S
H533 C519 0.958 . S
H534 C519 0.961 . S
H535 C519 0.960 . S
C536 C537 1.391 . S
C536 C538 1.394 . S
C536 H552 0.931 . S
C537 C536 1.391 . S
C537 C541 1.376 . S
C538 C536 1.394 . S
C538 C539 1.369 . S
C538 C542 1.531 . S
C539 C538 1.369 . S
C539 C540 1.410 . S
C539 C547 1.503 1_655 S
C540 C539 1.410 . S
C540 C541 1.392 . S
C540 C543 1.511 1_655 S
C541 C537 1.376 . S
C541 C540 1.392 . S
C541 H553 0.929 . S
C542 C538 1.531 . S
C542 H554 0.960 . S
C542 H555 0.962 . S
C542 H556 0.960 . S
C543 C540 1.511 1_455 S
C543 H557 0.961 . S
C543 H558 0.961 . S
C543 H559 0.961 . S
C544 C545 1.370 . S
C544 C546 1.363 . S
C544 H560 0.931 . S
C545 C544 1.370 . S
C545 C549 1.408 . S
C546 C544 1.363 . S
C546 C547 1.370 . S
C546 C550 1.524 . S
C547 C539 1.503 1_455 S
C547 C546 1.370 . S
C547 C548 1.403 . S
C548 C547 1.403 . S
C548 C549 1.404 . S
C548 C551 1.539 1_455 S
C549 C545 1.408 . S
C549 C548 1.404 . S
C549 H561 0.930 . S
C550 C546 1.524 . S
C550 H562 0.956 . S
C550 H563 0.961 . S
C550 H564 0.961 . S
C551 C548 1.539 1_655 S
C551 H565 0.958 . S
C551 H566 0.961 . S
C551 H567 0.960 . S
H552 C536 0.931 . S
H553 C541 0.929 . S
H554 C542 0.960 . S
H555 C542 0.962 . S
H556 C542 0.960 . S
H557 C543 0.961 . S
H558 C543 0.961 . S
H559 C543 0.961 . S
H560 C544 0.931 . S
H561 C549 0.930 . S
H562 C550 0.956 . S
H563 C550 0.961 . S
H564 C550 0.961 . S
H565 C551 0.958 . S
H566 C551 0.961 . S
H567 C551 0.960 . S
C568 C569 1.391 . S
C568 C570 1.394 . S
C568 H584 0.931 . S
C569 C568 1.391 . S
C569 C573 1.376 . S
C570 C568 1.394 . S
C570 C571 1.369 . S
C570 C574 1.531 . S
C571 C570 1.369 . S
C571 C572 1.410 . S
C571 C579 1.503 . S
C572 C571 1.410 . S
C572 C573 1.392 . S
C572 C575 1.511 . S
C573 C569 1.376 . S
C573 C572 1.392 . S
C573 H585 0.929 . S
C574 C570 1.531 . S
C574 H586 0.960 . S
C574 H587 0.962 . S
C574 H588 0.960 . S
C575 C572 1.511 . S
C575 H589 0.961 . S
C575 H590 0.961 . S
C575 H591 0.961 . S
C576 C577 1.370 . S
C576 C578 1.363 . S
C576 H592 0.931 . S
C577 C576 1.370 . S
C577 C581 1.408 . S
C578 C576 1.363 . S
C578 C579 1.370 . S
C578 C582 1.524 . S
C579 C571 1.503 . S
C579 C578 1.370 . S
C579 C580 1.403 . S
C580 C579 1.403 . S
C580 C581 1.404 . S
C580 C583 1.539 . S
C581 C577 1.408 . S
C581 C580 1.404 . S
C581 H593 0.930 . S
C582 C578 1.524 . S
C582 H594 0.956 . S
C582 H595 0.961 . S
C582 H596 0.961 . S
C583 C580 1.539 . S
C583 H597 0.958 . S
C583 H598 0.961 . S
C583 H599 0.960 . S
H584 C568 0.931 . S
H585 C573 0.929 . S
H586 C574 0.960 . S
H587 C574 0.962 . S
H588 C574 0.960 . S
H589 C575 0.961 . S
H590 C575 0.961 . S
H591 C575 0.961 . S
H592 C576 0.931 . S
H593 C581 0.930 . S
H594 C582 0.956 . S
H595 C582 0.961 . S
H596 C582 0.961 . S
H597 C583 0.958 . S
H598 C583 0.961 . S
H599 C583 0.960 . S
C600 C601 1.391 . S
C600 C602 1.394 . S
C600 H616 0.931 . S
C601 C600 1.391 . S
C601 C605 1.376 . S
C602 C600 1.394 . S
C602 C603 1.369 . S
C602 C606 1.531 . S
C603 C602 1.369 . S
C603 C604 1.410 . S
C603 C611 1.503 1_565 S
C604 C603 1.410 . S
C604 C605 1.392 . S
C604 C607 1.511 1_565 S
C605 C601 1.376 . S
C605 C604 1.392 . S
C605 H617 0.929 . S
C606 C602 1.531 . S
C606 H618 0.960 . S
C606 H619 0.962 . S
C606 H620 0.960 . S
C607 C604 1.511 1_545 S
C607 H621 0.961 . S
C607 H622 0.961 . S
C607 H623 0.961 . S
C608 C609 1.370 . S
C608 C610 1.363 . S
C608 H624 0.931 . S
C609 C608 1.370 . S
C609 C613 1.408 . S
C610 C608 1.363 . S
C610 C611 1.370 . S
C610 C614 1.524 . S
C611 C603 1.503 1_545 S
C611 C610 1.370 . S
C611 C612 1.403 . S
C612 C611 1.403 . S
C612 C613 1.404 . S
C612 C615 1.539 . S
C613 C609 1.408 . S
C613 C612 1.404 . S
C613 H625 0.930 . S
C614 C610 1.524 . S
C614 H626 0.956 1_545 S
C614 H627 0.961 . S
C614 H628 0.961 . S
C615 C612 1.539 . S
C615 H629 0.958 . S
C615 H630 0.961 . S
C615 H631 0.960 . S
H616 C600 0.931 . S
H617 C605 0.929 . S
H618 C606 0.960 . S
H619 C606 0.962 . S
H620 C606 0.960 . S
H621 C607 0.961 . S
H622 C607 0.961 . S
H623 C607 0.961 . S
H624 C608 0.931 . S
H625 C613 0.930 . S
H626 C614 0.956 1_565 S
H627 C614 0.961 . S
H628 C614 0.961 . S
H629 C615 0.958 . S
H630 C615 0.961 . S
H631 C615 0.960 . S
C632 C633 1.391 . S
C632 C634 1.394 . S
C632 H648 0.931 . S
C633 C632 1.391 . S
C633 C637 1.376 . S
C634 C632 1.394 . S
C634 C635 1.369 . S
C634 C638 1.531 . S
C635 C634 1.369 . S
C635 C636 1.410 . S
C635 C643 1.503 1_455 S
C636 C635 1.410 . S
C636 C637 1.392 . S
C636 C639 1.511 1_455 S
C637 C633 1.376 . S
C637 C636 1.392 . S
C637 H649 0.929 . S
C638 C634 1.531 . S
C638 H650 0.960 . S
C638 H651 0.962 . S
C638 H652 0.960 . S
C639 C636 1.511 1_655 S
C639 H653 0.960 . S
C639 H654 0.968 . S
C639 H655 0.955 1_655 S
C640 C641 1.370 . S
C640 C642 1.363 . S
C640 H656 0.931 . S
C641 C640 1.370 . S
C641 C645 1.408 . S
C642 C640 1.363 . S
C642 C643 1.370 . S
C642 C646 1.524 . S
C643 C635 1.503 1_655 S
C643 C642 1.370 . S
C643 C644 1.403 . S
C644 C643 1.403 . S
C644 C645 1.404 . S
C644 C647 1.539 1_655 S
C645 C641 1.408 . S
C645 C644 1.404 . S
C645 H657 0.930 . S
C646 C642 1.524 . S
C646 H658 0.956 . S
C646 H659 0.961 . S
C646 H660 0.961 . S
C647 C644 1.539 1_455 S
C647 H661 0.958 . S
C647 H662 0.961 . S
C647 H663 0.960 . S
H648 C632 0.931 . S
H649 C637 0.929 . S
H650 C638 0.960 . S
H651 C638 0.962 . S
H652 C638 0.960 . S
H653 C639 0.960 . S
H654 C639 0.968 . S
H655 C639 0.955 1_455 S
H656 C640 0.931 . S
H657 C645 0.930 . S
H658 C646 0.956 . S
H659 C646 0.961 . S
H660 C646 0.961 . S
H661 C647 0.958 . S
H662 C647 0.961 . S
H663 C647 0.960 . S
C664 C665 1.391 . S
C664 C666 1.394 . S
C664 H680 0.931 . S
C665 C664 1.391 . S
C665 C669 1.376 . S
C666 C664 1.394 . S
C666 C667 1.369 . S
C666 C670 1.531 . S
C667 C666 1.369 . S
C667 C668 1.410 . S
C667 C675 1.503 . S
C668 C667 1.410 . S
C668 C669 1.392 . S
C668 C671 1.511 . S
C669 C665 1.376 . S
C669 C668 1.392 . S
C669 H681 0.929 . S
C670 C666 1.531 . S
C670 H682 0.960 . S
C670 H683 0.962 . S
C670 H684 0.960 . S
C671 C668 1.511 . S
C671 H685 0.961 . S
C671 H686 0.961 . S
C671 H687 0.961 . S
C672 C673 1.370 . S
C672 C674 1.363 . S
C672 H688 0.931 . S
C673 C672 1.370 . S
C673 C677 1.408 . S
C674 C672 1.363 . S
C674 C675 1.370 . S
C674 C678 1.524 . S
C675 C667 1.503 . S
C675 C674 1.370 . S
C675 C676 1.403 . S
C676 C675 1.403 . S
C676 C677 1.404 . S
C676 C679 1.539 . S
C677 C673 1.408 . S
C677 C676 1.404 . S
C677 H689 0.930 . S
C678 C674 1.524 . S
C678 H690 0.956 . S
C678 H691 0.961 . S
C678 H692 0.961 . S
C679 C676 1.539 . S
C679 H693 0.958 . S
C679 H694 0.961 . S
C679 H695 0.960 . S
H680 C664 0.931 . S
H681 C669 0.929 . S
H682 C670 0.960 . S
H683 C670 0.962 . S
H684 C670 0.960 . S
H685 C671 0.961 . S
H686 C671 0.961 . S
H687 C671 0.961 . S
H688 C672 0.931 . S
H689 C677 0.930 . S
H690 C678 0.956 . S
H691 C678 0.961 . S
H692 C678 0.961 . S
H693 C679 0.958 . S
H694 C679 0.961 . S
H695 C679 0.960 . S
C696 C697 1.391 . S
C696 C698 1.394 . S
C696 H712 0.931 . S
C697 C696 1.391 . S
C697 C701 1.376 . S
C698 C696 1.394 . S
C698 C699 1.369 . S
C698 C702 1.531 . S
C699 C698 1.369 . S
C699 C700 1.410 . S
C699 C707 1.503 . S
C700 C699 1.410 . S
C700 C701 1.392 . S
C700 C703 1.511 . S
C701 C697 1.376 . S
C701 C700 1.392 . S
C701 H713 0.929 . S
C702 C698 1.531 . S
C702 H714 0.960 . S
C702 H715 0.962 . S
C702 H716 0.960 . S
C703 C700 1.511 . S
C703 H717 0.961 . S
C703 H718 0.961 . S
C703 H719 0.961 . S
C704 C705 1.370 . S
C704 C706 1.363 . S
C704 H720 0.931 . S
C705 C704 1.370 . S
C705 C709 1.408 . S
C706 C704 1.363 . S
C706 C707 1.370 . S
C706 C710 1.524 . S
C707 C699 1.503 . S
C707 C706 1.370 . S
C707 C708 1.403 . S
C708 C707 1.403 . S
C708 C709 1.404 . S
C708 C711 1.539 . S
C709 C705 1.408 . S
C709 C708 1.404 . S
C709 H721 0.930 . S
C710 C706 1.524 . S
C710 H722 0.956 . S
C710 H723 0.961 . S
C710 H724 0.961 . S
C711 C708 1.539 . S
C711 H725 0.958 . S
C711 H726 0.961 . S
C711 H727 0.960 . S
H712 C696 0.931 . S
H713 C701 0.929 . S
H714 C702 0.960 . S
H715 C702 0.962 . S
H716 C702 0.960 . S
H717 C703 0.961 . S
H718 C703 0.961 . S
H719 C703 0.961 . S
H720 C704 0.931 . S
H721 C709 0.930 . S
H722 C710 0.956 . S
H723 C710 0.961 . S
H724 C710 0.961 . S
H725 C711 0.958 . S
H726 C711 0.961 . S
H727 C711 0.960 . S
C728 C729 1.391 . S
C728 C730 1.394 . S
C728 H744 0.931 . S
C729 C728 1.391 . S
C729 C733 1.376 . S
C730 C728 1.394 . S
C730 C731 1.369 . S
C730 C734 1.531 . S
C731 C730 1.369 . S
C731 C732 1.410 . S
C731 C739 1.503 . S
C732 C731 1.410 . S
C732 C733 1.392 . S
C732 C735 1.511 . S
C733 C729 1.376 . S
C733 C732 1.392 . S
C733 H745 0.929 . S
C734 C730 1.531 . S
C734 H746 0.960 . S
C734 H747 0.962 . S
C734 H748 0.960 . S
C735 C732 1.511 . S
C735 H749 0.961 . S
C735 H750 0.961 . S
C735 H751 0.961 . S
C736 C737 1.370 . S
C736 C738 1.363 . S
C736 H752 0.931 . S
C737 C736 1.370 . S
C737 C741 1.408 . S
C738 C736 1.363 . S
C738 C739 1.370 . S
C738 C742 1.524 . S
C739 C731 1.503 . S
C739 C738 1.370 . S
C739 C740 1.403 . S
C740 C739 1.403 . S
C740 C741 1.404 . S
C740 C743 1.539 . S
C741 C737 1.408 . S
C741 C740 1.404 . S
C741 H753 0.930 . S
C742 C738 1.524 . S
C742 H754 0.956 . S
C742 H755 0.961 . S
C742 H756 0.961 . S
C743 C740 1.539 . S
C743 H757 0.958 . S
C743 H758 0.961 . S
C743 H759 0.960 . S
H744 C728 0.931 . S
H745 C733 0.929 . S
H746 C734 0.960 . S
H747 C734 0.962 . S
H748 C734 0.960 . S
H749 C735 0.961 . S
H750 C735 0.961 . S
H751 C735 0.961 . S
H752 C736 0.931 . S
H753 C741 0.930 . S
H754 C742 0.956 . S
H755 C742 0.961 . S
H756 C742 0.961 . S
H757 C743 0.958 . S
H758 C743 0.961 . S
H759 C743 0.960 . S
C760 C761 1.391 . S
C760 C762 1.394 . S
C760 H776 0.931 . S
C761 C760 1.391 . S
C761 C765 1.376 . S
C762 C760 1.394 . S
C762 C763 1.369 . S
C762 C766 1.531 . S
C763 C762 1.369 . S
C763 C764 1.410 . S
C763 C771 1.503 . S
C764 C763 1.410 . S
C764 C765 1.392 . S
C764 C767 1.511 . S
C765 C761 1.376 . S
C765 C764 1.392 . S
C765 H777 0.929 . S
C766 C762 1.531 . S
C766 H778 0.960 . S
C766 H779 0.962 . S
C766 H780 0.960 . S
C767 C764 1.511 . S
C767 H781 0.961 . S
C767 H782 0.961 . S
C767 H783 0.961 . S
C768 C769 1.370 . S
C768 C770 1.363 . S
C768 H784 0.931 . S
C769 C768 1.370 . S
C769 C773 1.408 . S
C770 C768 1.363 . S
C770 C771 1.370 . S
C770 C774 1.524 . S
C771 C763 1.503 . S
C771 C770 1.370 . S
C771 C772 1.403 . S
C772 C771 1.403 . S
C772 C773 1.404 . S
C772 C775 1.539 . S
C773 C769 1.408 . S
C773 C772 1.404 . S
C773 H785 0.930 . S
C774 C770 1.524 . S
C774 H786 0.956 . S
C774 H787 0.961 . S
C774 H788 0.961 . S
C775 C772 1.539 . S
C775 H789 0.958 . S
C775 H790 0.961 . S
C775 H791 0.960 . S
H776 C760 0.931 . S
H777 C765 0.929 . S
H778 C766 0.960 . S
H779 C766 0.962 . S
H780 C766 0.960 . S
H781 C767 0.961 . S
H782 C767 0.961 . S
H783 C767 0.961 . S
H784 C768 0.931 . S
H785 C773 0.930 . S
H786 C774 0.956 . S
H787 C774 0.961 . S
H788 C774 0.961 . S
H789 C775 0.958 . S
H790 C775 0.961 . S
H791 C775 0.960 . S
C792 C793 1.391 . S
C792 C794 1.394 . S
C792 H808 0.931 . S
C793 C792 1.391 . S
C793 C797 1.376 . S
C794 C792 1.394 . S
C794 C795 1.369 . S
C794 C798 1.531 . S
C795 C794 1.369 . S
C795 C796 1.410 . S
C795 C803 1.503 . S
C796 C795 1.410 . S
C796 C797 1.392 . S
C796 C799 1.511 . S
C797 C793 1.376 . S
C797 C796 1.392 . S
C797 H809 0.929 . S
C798 C794 1.531 . S
C798 H810 0.960 . S
C798 H811 0.962 . S
C798 H812 0.960 . S
C799 C796 1.511 . S
C799 H813 0.961 . S
C799 H814 0.961 . S
C799 H815 0.961 . S
C800 C801 1.370 1_554 S
C800 C802 1.363 . S
C800 H816 0.931 . S
C801 C800 1.370 1_556 S
C801 C805 1.408 . S
C802 C800 1.363 . S
C802 C803 1.370 . S
C802 C806 1.524 . S
C803 C795 1.503 . S
C803 C802 1.370 . S
C803 C804 1.403 1_554 S
C804 C803 1.403 1_556 S
C804 C805 1.404 . S
C804 C807 1.539 . S
C805 C801 1.408 . S
C805 C804 1.404 . S
C805 H817 0.930 . S
C806 C802 1.524 . S
C806 H818 0.956 . S
C806 H819 0.961 . S
C806 H820 0.961 . S
C807 C804 1.539 . S
C807 H821 0.958 . S
C807 H822 0.961 . S
C807 H823 0.960 1_556 S
H808 C792 0.931 . S
H809 C797 0.929 . S
H810 C798 0.960 . S
H811 C798 0.962 . S
H812 C798 0.960 . S
H813 C799 0.961 . S
H814 C799 0.961 . S
H815 C799 0.961 . S
H816 C800 0.931 . S
H817 C805 0.930 . S
H818 C806 0.956 . S
H819 C806 0.961 . S
H820 C806 0.961 . S
H821 C807 0.958 . S
H822 C807 0.961 . S
H823 C807 0.960 1_554 S
C824 C825 1.391 . S
C824 C826 1.394 . S
C824 H840 0.931 . S
C825 C824 1.391 . S
C825 C829 1.376 . S
C826 C824 1.394 . S
C826 C827 1.369 . S
C826 C830 1.531 . S
C827 C826 1.369 . S
C827 C828 1.410 . S
C827 C835 1.503 . S
C828 C827 1.410 . S
C828 C829 1.392 . S
C828 C831 1.511 . S
C829 C825 1.376 . S
C829 C828 1.392 . S
C829 H841 0.929 . S
C830 C826 1.531 . S
C830 H842 0.960 . S
C830 H843 0.962 . S
C830 H844 0.960 . S
C831 C828 1.511 . S
C831 H845 0.961 . S
C831 H846 0.961 . S
C831 H847 0.961 . S
C832 C833 1.370 . S
C832 C834 1.363 1_556 S
C832 H848 0.931 . S
C833 C832 1.370 . S
C833 C837 1.408 1_556 S
C834 C832 1.363 1_554 S
C834 C835 1.370 . S
C834 C838 1.524 . S
C835 C827 1.503 . S
C835 C834 1.370 . S
C835 C836 1.403 . S
C836 C835 1.403 . S
C836 C837 1.404 . S
C836 C839 1.539 . S
C837 C833 1.408 1_554 S
C837 C836 1.404 . S
C837 H849 0.930 1_554 S
C838 C834 1.524 . S
C838 H850 0.956 . S
C838 H851 0.961 . S
C838 H852 0.961 . S
C839 C836 1.539 . S
C839 H853 0.958 . S
C839 H854 0.961 . S
C839 H855 0.960 . S
H840 C824 0.931 . S
H841 C829 0.929 . S
H842 C830 0.960 . S
H843 C830 0.962 . S
H844 C830 0.960 . S
H845 C831 0.961 . S
H846 C831 0.961 . S
H847 C831 0.961 . S
H848 C832 0.931 . S
H849 C837 0.930 1_556 S
H850 C838 0.956 . S
H851 C838 0.961 . S
H852 C838 0.961 . S
H853 C839 0.958 . S
H854 C839 0.961 . S
H855 C839 0.960 . S
C856 C857 1.391 . S
C856 C858 1.394 . S
C856 H872 0.931 . S
C857 C856 1.391 . S
C857 C861 1.376 . S
C858 C856 1.394 . S
C858 C859 1.369 . S
C858 C862 1.531 . S
C859 C858 1.369 . S
C859 C860 1.410 . S
C859 C867 1.503 . S
C860 C859 1.410 . S
C860 C861 1.392 . S
C860 C863 1.511 . S
C861 C857 1.376 . S
C861 C860 1.392 . S
C861 H873 0.929 . S
C862 C858 1.531 . S
C862 H874 0.960 1_554 S
C862 H875 0.962 . S
C862 H876 0.960 . S
C863 C860 1.511 . S
C863 H877 0.961 . S
C863 H878 0.961 . S
C863 H879 0.961 . S
C864 C865 1.370 1_554 S
C864 C866 1.363 . S
C864 H880 0.931 1_554 S
C865 C864 1.370 1_556 S
C865 C869 1.408 . S
C866 C864 1.363 . S
C866 C867 1.370 . S
C866 C870 1.524 . S
C867 C859 1.503 . S
C867 C866 1.370 . S
C867 C868 1.403 . S
C868 C867 1.403 . S
C868 C869 1.404 1_554 S
C868 C871 1.539 . S
C869 C865 1.408 . S
C869 C868 1.404 1_556 S
C869 H881 0.930 . S
C870 C866 1.524 . S
C870 H882 0.956 . S
C870 H883 0.961 . S
C870 H884 0.961 . S
C871 C868 1.539 . S
C871 H885 0.958 . S
C871 H886 0.961 . S
C871 H887 0.960 . S
H872 C856 0.931 . S
H873 C861 0.929 . S
H874 C862 0.960 1_556 S
H875 C862 0.962 . S
H876 C862 0.960 . S
H877 C863 0.961 . S
H878 C863 0.961 . S
H879 C863 0.961 . S
H880 C864 0.931 1_556 S
H881 C869 0.930 . S
H882 C870 0.956 . S
H883 C870 0.961 . S
H884 C870 0.961 . S
H885 C871 0.958 . S
H886 C871 0.961 . S
H887 C871 0.960 . S
C888 C889 1.391 . S
C888 C890 1.394 . S
C888 H904 0.931 . S
C889 C888 1.391 . S
C889 C893 1.376 . S
C890 C888 1.394 . S
C890 C891 1.369 . S
C890 C894 1.531 . S
C891 C890 1.369 . S
C891 C892 1.410 . S
C891 C899 1.503 . S
C892 C891 1.410 . S
C892 C893 1.392 . S
C892 C895 1.511 . S
C893 C889 1.376 . S
C893 C892 1.392 . S
C893 H905 0.929 . S
C894 C890 1.531 . S
C894 H906 0.960 . S
C894 H907 0.962 . S
C894 H908 0.960 . S
C895 C892 1.511 . S
C895 H909 0.961 . S
C895 H910 0.961 . S
C895 H911 0.961 . S
C896 C897 1.370 . S
C896 C898 1.363 1_554 S
C896 H912 0.931 . S
C897 C896 1.370 . S
C897 C901 1.408 1_554 S
C898 C896 1.363 1_556 S
C898 C899 1.370 . S
C898 C902 1.524 1_556 S
C899 C891 1.503 . S
C899 C898 1.370 . S
C899 C900 1.403 . S
C900 C899 1.403 . S
C900 C901 1.404 . S
C900 C903 1.539 . S
C901 C897 1.408 1_556 S
C901 C900 1.404 . S
C901 H913 0.930 . S
C902 C898 1.524 1_554 S
C902 H914 0.956 1_554 S
C902 H915 0.961 1_554 S
C902 H916 0.961 . S
C903 C900 1.539 . S
C903 H917 0.958 . S
C903 H918 0.961 . S
C903 H919 0.960 . S
H904 C888 0.931 . S
H905 C893 0.929 . S
H906 C894 0.960 . S
H907 C894 0.962 . S
H908 C894 0.960 . S
H909 C895 0.961 . S
H910 C895 0.961 . S
H911 C895 0.961 . S
H912 C896 0.931 . S
H913 C901 0.930 . S
H914 C902 0.956 1_556 S
H915 C902 0.961 1_556 S
H916 C902 0.961 . S
H917 C903 0.958 . S
H918 C903 0.961 . S
H919 C903 0.960 . S
C920 C921 1.391 . S
C920 C922 1.394 . S
C920 H936 0.931 . S
C921 C920 1.391 . S
C921 C925 1.376 1_554 S
C922 C920 1.394 . S
C922 C923 1.369 1_554 S
C922 C926 1.531 . S
C923 C922 1.369 1_556 S
C923 C924 1.410 . S
C923 C931 1.503 . S
C924 C923 1.410 . S
C924 C925 1.392 . S
C924 C927 1.511 . S
C925 C921 1.376 1_556 S
C925 C924 1.392 . S
C925 H937 0.929 . S
C926 C922 1.531 . S
C926 H938 0.960 1_554 S
C926 H939 0.962 . S
C926 H940 0.960 . S
C927 C924 1.511 . S
C927 H941 0.961 . S
C927 H942 0.961 . S
C927 H943 0.961 . S
C928 C929 1.370 . S
C928 C930 1.363 . S
C928 H944 0.931 . S
C929 C928 1.370 . S
C929 C933 1.408 . S
C930 C928 1.363 . S
C930 C931 1.370 . S
C930 C934 1.524 . S
C931 C923 1.503 . S
C931 C930 1.370 . S
C931 C932 1.403 . S
C932 C931 1.403 . S
C932 C933 1.404 . S
C932 C935 1.539 . S
C933 C929 1.408 . S
C933 C932 1.404 . S
C933 H945 0.930 . S
C934 C930 1.524 . S
C934 H946 0.956 . S
C934 H947 0.961 . S
C934 H948 0.961 . S
C935 C932 1.539 . S
C935 H949 0.958 . S
C935 H950 0.961 . S
C935 H951 0.960 . S
H936 C920 0.931 . S
H937 C925 0.929 . S
H938 C926 0.960 1_556 S
H939 C926 0.962 . S
H940 C926 0.960 . S
H941 C927 0.961 . S
H942 C927 0.961 . S
H943 C927 0.961 . S
H944 C928 0.931 . S
H945 C933 0.930 . S
H946 C934 0.956 . S
H947 C934 0.961 . S
H948 C934 0.961 . S
H949 C935 0.958 . S
H950 C935 0.961 . S
H951 C935 0.960 . S
C952 C953 1.391 . S
C952 C954 1.394 . S
C952 H968 0.931 . S
C953 C952 1.391 . S
C953 C957 1.376 . S
C954 C952 1.394 . S
C954 C955 1.369 . S
C954 C958 1.531 . S
C955 C954 1.369 . S
C955 C956 1.410 . S
C955 C963 1.503 . S
C956 C955 1.410 . S
C956 C957 1.392 . S
C956 C959 1.511 . S
C957 C953 1.376 . S
C957 C956 1.392 . S
C957 H969 0.929 . S
C958 C954 1.531 . S
C958 H970 0.960 . S
C958 H971 0.962 . S
C958 H972 0.960 . S
C959 C956 1.511 . S
C959 H973 0.961 . S
C959 H974 0.961 . S
C959 H975 0.961 . S
C960 C961 1.370 1_556 S
C960 C962 1.363 . S
C960 H976 0.931 . S
C961 C960 1.370 1_554 S
C961 C965 1.408 . S
C962 C960 1.363 . S
C962 C963 1.370 . S
C962 C966 1.524 . S
C963 C955 1.503 . S
C963 C962 1.370 . S
C963 C964 1.403 1_556 S
C964 C963 1.403 1_554 S
C964 C965 1.404 . S
C964 C967 1.539 . S
C965 C961 1.408 . S
C965 C964 1.404 . S
C965 H977 0.930 . S
C966 C962 1.524 . S
C966 H978 0.956 . S
C966 H979 0.961 . S
C966 H980 0.961 . S
C967 C964 1.539 . S
C967 H981 0.958 . S
C967 H982 0.961 . S
C967 H983 0.960 . S
H968 C952 0.931 . S
H969 C957 0.929 . S
H970 C958 0.960 . S
H971 C958 0.962 . S
H972 C958 0.960 . S
H973 C959 0.961 . S
H974 C959 0.961 . S
H975 C959 0.961 . S
H976 C960 0.931 . S
H977 C965 0.930 . S
H978 C966 0.956 . S
H979 C966 0.961 . S
H980 C966 0.961 . S
H981 C967 0.958 . S
H982 C967 0.961 . S
H983 C967 0.960 . S
C984 C985 1.391 . S
C984 C986 1.394 . S
C984 H1000 0.931 . S
C985 C984 1.391 . S
C985 C989 1.376 . S
C986 C984 1.394 . S
C986 C987 1.369 . S
C986 C990 1.531 . S
C987 C986 1.369 . S
C987 C988 1.410 . S
C987 C995 1.503 . S
C988 C987 1.410 . S
C988 C989 1.392 . S
C988 C991 1.511 . S
C989 C985 1.376 . S
C989 C988 1.392 . S
C989 H1001 0.929 . S
C990 C986 1.531 . S
C990 H1002 0.960 . S
C990 H1003 0.962 . S
C990 H1004 0.960 . S
C991 C988 1.511 . S
C991 H1005 0.961 . S
C991 H1006 0.961 . S
C991 H1007 0.961 . S
C992 C993 1.370 . S
C992 C994 1.363 . S
C992 H1008 0.931 . S
C993 C992 1.370 . S
C993 C997 1.408 . S
C994 C992 1.363 . S
C994 C995 1.370 . S
C994 C998 1.524 . S
C995 C987 1.503 . S
C995 C994 1.370 . S
C995 C996 1.403 . S
C996 C995 1.403 . S
C996 C997 1.404 . S
C996 C999 1.539 . S
C997 C993 1.408 . S
C997 C996 1.404 . S
C997 H1009 0.930 . S
C998 C994 1.524 . S
C998 H1010 0.956 . S
C998 H1011 0.961 . S
C998 H1012 0.961 . S
C999 C996 1.539 . S
C999 H1013 0.958 . S
C999 H1014 0.961 . S
C999 H1015 0.960 . S
H1000 C984 0.931 . S
H1001 C989 0.929 . S
H1002 C990 0.960 . S
H1003 C990 0.962 . S
H1004 C990 0.960 . S
H1005 C991 0.961 . S
H1006 C991 0.961 . S
H1007 C991 0.961 . S
H1008 C992 0.931 . S
H1009 C997 0.930 . S
H1010 C998 0.956 . S
H1011 C998 0.961 . S
H1012 C998 0.961 . S
H1013 C999 0.958 . S
H1014 C999 0.961 . S
H1015 C999 0.960 . S
C1016 C1017 1.391 . S
C1016 C1018 1.394 . S
C1016 H1032 0.931 . S
C1017 C1016 1.391 . S
C1017 C1021 1.376 . S
C1018 C1016 1.394 . S
C1018 C1019 1.369 . S
C1018 C1022 1.531 . S
C1019 C1018 1.369 . S
C1019 C1020 1.410 . S
C1019 C1027 1.503 . S
C1020 C1019 1.410 . S
C1020 C1021 1.392 . S
C1020 C1023 1.511 . S
C1021 C1017 1.376 . S
C1021 C1020 1.392 . S
C1021 H1033 0.929 . S
C1022 C1018 1.531 . S
C1022 H1034 0.960 . S
C1022 H1035 0.962 . S
C1022 H1036 0.960 . S
C1023 C1020 1.511 . S
C1023 H1037 0.961 . S
C1023 H1038 0.961 . S
C1023 H1039 0.961 . S
C1024 C1025 1.370 . S
C1024 C1026 1.363 . S
C1024 H1040 0.931 . S
C1025 C1024 1.370 . S
C1025 C1029 1.408 . S
C1026 C1024 1.363 . S
C1026 C1027 1.370 . S
C1026 C1030 1.524 . S
C1027 C1019 1.503 . S
C1027 C1026 1.370 . S
C1027 C1028 1.403 . S
C1028 C1027 1.403 . S
C1028 C1029 1.404 . S
C1028 C1031 1.539 . S
C1029 C1025 1.408 . S
C1029 C1028 1.404 . S
C1029 H1041 0.930 . S
C1030 C1026 1.524 . S
C1030 H1042 0.956 . S
C1030 H1043 0.961 . S
C1030 H1044 0.961 . S
C1031 C1028 1.539 . S
C1031 H1045 0.958 . S
C1031 H1046 0.961 . S
C1031 H1047 0.960 . S
H1032 C1016 0.931 . S
H1033 C1021 0.929 . S
H1034 C1022 0.960 . S
H1035 C1022 0.962 . S
H1036 C1022 0.960 . S
H1037 C1023 0.961 . S
H1038 C1023 0.961 . S
H1039 C1023 0.961 . S
H1040 C1024 0.931 . S
H1041 C1029 0.930 . S
H1042 C1030 0.956 . S
H1043 C1030 0.961 . S
H1044 C1030 0.961 . S
H1045 C1031 0.958 . S
H1046 C1031 0.961 . S
H1047 C1031 0.960 . S
C1048 C1049 1.391 . S
C1048 C1050 1.394 . S
C1048 H1064 0.931 . S
C1049 C1048 1.391 . S
C1049 C1053 1.376 . S
C1050 C1048 1.394 . S
C1050 C1051 1.369 . S
C1050 C1054 1.531 . S
C1051 C1050 1.369 . S
C1051 C1052 1.410 . S
C1051 C1059 1.503 . S
C1052 C1051 1.410 . S
C1052 C1053 1.392 . S
C1052 C1055 1.511 . S
C1053 C1049 1.376 . S
C1053 C1052 1.392 . S
C1053 H1065 0.929 . S
C1054 C1050 1.531 . S
C1054 H1066 0.960 . S
C1054 H1067 0.962 . S
C1054 H1068 0.960 . S
C1055 C1052 1.511 . S
C1055 H1069 0.961 . S
C1055 H1070 0.961 . S
C1055 H1071 0.961 . S
C1056 C1057 1.370 . S
C1056 C1058 1.363 . S
C1056 H1072 0.931 . S
C1057 C1056 1.370 . S
C1057 C1061 1.408 . S
C1058 C1056 1.363 . S
C1058 C1059 1.370 . S
C1058 C1062 1.524 . S
C1059 C1051 1.503 . S
C1059 C1058 1.370 . S
C1059 C1060 1.403 . S
C1060 C1059 1.403 . S
C1060 C1061 1.404 . S
C1060 C1063 1.539 . S
C1061 C1057 1.408 . S
C1061 C1060 1.404 . S
C1061 H1073 0.930 . S
C1062 C1058 1.524 . S
C1062 H1074 0.956 . S
C1062 H1075 0.961 . S
C1062 H1076 0.961 . S
C1063 C1060 1.539 . S
C1063 H1077 0.958 . S
C1063 H1078 0.961 . S
C1063 H1079 0.960 . S
H1064 C1048 0.931 . S
H1065 C1053 0.929 . S
H1066 C1054 0.960 . S
H1067 C1054 0.962 . S
H1068 C1054 0.960 . S
H1069 C1055 0.961 . S
H1070 C1055 0.961 . S
H1071 C1055 0.961 . S
H1072 C1056 0.931 . S
H1073 C1061 0.930 . S
H1074 C1062 0.956 . S
H1075 C1062 0.961 . S
H1076 C1062 0.961 . S
H1077 C1063 0.958 . S
H1078 C1063 0.961 . S
H1079 C1063 0.960 . S
C1080 C1081 1.391 . S
C1080 C1082 1.394 . S
C1080 H1096 0.931 . S
C1081 C1080 1.391 . S
C1081 C1085 1.376 . S
C1082 C1080 1.394 . S
C1082 C1083 1.369 . S
C1082 C1086 1.531 . S
C1083 C1082 1.369 . S
C1083 C1084 1.410 . S
C1083 C1091 1.503 . S
C1084 C1083 1.410 . S
C1084 C1085 1.392 . S
C1084 C1087 1.511 . S
C1085 C1081 1.376 . S
C1085 C1084 1.392 . S
C1085 H1097 0.929 . S
C1086 C1082 1.531 . S
C1086 H1098 0.960 . S
C1086 H1099 0.962 . S
C1086 H1100 0.960 . S
C1087 C1084 1.511 . S
C1087 H1101 0.961 . S
C1087 H1102 0.961 . S
C1087 H1103 0.961 . S
C1088 C1089 1.370 . S
C1088 C1090 1.363 . S
C1088 H1104 0.931 . S
C1089 C1088 1.370 . S
C1089 C1093 1.408 . S
C1090 C1088 1.363 . S
C1090 C1091 1.370 . S
C1090 C1094 1.524 . S
C1091 C1083 1.503 . S
C1091 C1090 1.370 . S
C1091 C1092 1.403 . S
C1092 C1091 1.403 . S
C1092 C1093 1.404 . S
C1092 C1095 1.539 . S
C1093 C1089 1.408 . S
C1093 C1092 1.404 . S
C1093 H1105 0.930 . S
C1094 C1090 1.524 . S
C1094 H1106 0.956 . S
C1094 H1107 0.961 . S
C1094 H1108 0.961 . S
C1095 C1092 1.539 . S
C1095 H1109 0.958 . S
C1095 H1110 0.961 . S
C1095 H1111 0.960 . S
H1096 C1080 0.931 . S
H1097 C1085 0.929 . S
H1098 C1086 0.960 . S
H1099 C1086 0.962 . S
H1100 C1086 0.960 . S
H1101 C1087 0.961 . S
H1102 C1087 0.961 . S
H1103 C1087 0.961 . S
H1104 C1088 0.931 . S
H1105 C1093 0.930 . S
H1106 C1094 0.956 . S
H1107 C1094 0.961 . S
H1108 C1094 0.961 . S
H1109 C1095 0.958 . S
H1110 C1095 0.961 . S
H1111 C1095 0.960 . S
C1112 C1113 1.391 . S
C1112 C1114 1.394 . S
C1112 H1128 0.931 . S
C1113 C1112 1.391 . S
C1113 C1117 1.376 . S
C1114 C1112 1.394 . S
C1114 C1115 1.369 . S
C1114 C1118 1.531 . S
C1115 C1114 1.369 . S
C1115 C1116 1.410 . S
C1115 C1123 1.503 . S
C1116 C1115 1.410 . S
C1116 C1117 1.392 . S
C1116 C1119 1.511 . S
C1117 C1113 1.376 . S
C1117 C1116 1.392 . S
C1117 H1129 0.929 . S
C1118 C1114 1.531 . S
C1118 H1130 0.960 . S
C1118 H1131 0.962 . S
C1118 H1132 0.960 . S
C1119 C1116 1.511 . S
C1119 H1133 0.961 . S
C1119 H1134 0.961 . S
C1119 H1135 0.961 . S
C1120 C1121 1.370 . S
C1120 C1122 1.363 . S
C1120 H1136 0.931 . S
C1121 C1120 1.370 . S
C1121 C1125 1.408 . S
C1122 C1120 1.363 . S
C1122 C1123 1.370 . S
C1122 C1126 1.524 . S
C1123 C1115 1.503 . S
C1123 C1122 1.370 . S
C1123 C1124 1.403 . S
C1124 C1123 1.403 . S
C1124 C1125 1.404 . S
C1124 C1127 1.539 . S
C1125 C1121 1.408 . S
C1125 C1124 1.404 . S
C1125 H1137 0.930 . S
C1126 C1122 1.524 . S
C1126 H1138 0.956 . S
C1126 H1139 0.961 . S
C1126 H1140 0.961 . S
C1127 C1124 1.539 . S
C1127 H1141 0.958 . S
C1127 H1142 0.961 . S
C1127 H1143 0.960 . S
H1128 C1112 0.931 . S
H1129 C1117 0.929 . S
H1130 C1118 0.960 . S
H1131 C1118 0.962 . S
H1132 C1118 0.960 . S
H1133 C1119 0.961 . S
H1134 C1119 0.961 . S
H1135 C1119 0.961 . S
H1136 C1120 0.931 . S
H1137 C1125 0.930 . S
H1138 C1126 0.956 . S
H1139 C1126 0.961 . S
H1140 C1126 0.961 . S
H1141 C1127 0.958 . S
H1142 C1127 0.961 . S
H1143 C1127 0.960 . S
C1144 C1145 1.391 . S
C1144 C1146 1.394 . S
C1144 H1160 0.931 . S
C1145 C1144 1.391 . S
C1145 C1149 1.376 . S
C1146 C1144 1.394 . S
C1146 C1147 1.369 . S
C1146 C1150 1.531 . S
C1147 C1146 1.369 . S
C1147 C1148 1.410 . S
C1147 C1155 1.503 . S
C1148 C1147 1.410 . S
C1148 C1149 1.392 . S
C1148 C1151 1.511 . S
C1149 C1145 1.376 . S
C1149 C1148 1.392 . S
C1149 H1161 0.929 . S
C1150 C1146 1.531 . S
C1150 H1162 0.960 . S
C1150 H1163 0.962 . S
C1150 H1164 0.960 . S
C1151 C1148 1.511 . S
C1151 H1165 0.961 . S
C1151 H1166 0.961 . S
C1151 H1167 0.961 . S
C1152 C1153 1.370 . S
C1152 C1154 1.363 . S
C1152 H1168 0.931 . S
C1153 C1152 1.370 . S
C1153 C1157 1.408 . S
C1154 C1152 1.363 . S
C1154 C1155 1.370 . S
C1154 C1158 1.524 . S
C1155 C1147 1.503 . S
C1155 C1154 1.370 . S
C1155 C1156 1.403 . S
C1156 C1155 1.403 . S
C1156 C1157 1.404 . S
C1156 C1159 1.539 . S
C1157 C1153 1.408 . S
C1157 C1156 1.404 . S
C1157 H1169 0.930 . S
C1158 C1154 1.524 . S
C1158 H1170 0.956 . S
C1158 H1171 0.961 . S
C1158 H1172 0.961 . S
C1159 C1156 1.539 . S
C1159 H1173 0.958 . S
C1159 H1174 0.961 . S
C1159 H1175 0.960 . S
H1160 C1144 0.931 . S
H1161 C1149 0.929 . S
H1162 C1150 0.960 . S
H1163 C1150 0.962 . S
H1164 C1150 0.960 . S
H1165 C1151 0.961 . S
H1166 C1151 0.961 . S
H1167 C1151 0.961 . S
H1168 C1152 0.931 . S
H1169 C1157 0.930 . S
H1170 C1158 0.956 . S
H1171 C1158 0.961 . S
H1172 C1158 0.961 . S
H1173 C1159 0.958 . S
H1174 C1159 0.961 . S
H1175 C1159 0.960 . S
C1176 C1177 1.391 . S
C1176 C1178 1.394 . S
C1176 H1192 0.931 . S
C1177 C1176 1.391 . S
C1177 C1181 1.376 . S
C1178 C1176 1.394 . S
C1178 C1179 1.369 . S
C1178 C1182 1.531 . S
C1179 C1178 1.369 . S
C1179 C1180 1.410 . S
C1179 C1187 1.503 . S
C1180 C1179 1.410 . S
C1180 C1181 1.392 . S
C1180 C1183 1.511 . S
C1181 C1177 1.376 . S
C1181 C1180 1.392 . S
C1181 H1193 0.929 . S
C1182 C1178 1.531 . S
C1182 H1194 0.960 . S
C1182 H1195 0.962 . S
C1182 H1196 0.960 . S
C1183 C1180 1.511 . S
C1183 H1197 0.961 . S
C1183 H1198 0.961 . S
C1183 H1199 0.961 . S
C1184 C1185 1.370 . S
C1184 C1186 1.363 . S
C1184 H1200 0.931 . S
C1185 C1184 1.370 . S
C1185 C1189 1.408 . S
C1186 C1184 1.363 . S
C1186 C1187 1.370 . S
C1186 C1190 1.524 . S
C1187 C1179 1.503 . S
C1187 C1186 1.370 . S
C1187 C1188 1.403 . S
C1188 C1187 1.403 . S
C1188 C1189 1.404 . S
C1188 C1191 1.539 . S
C1189 C1185 1.408 . S
C1189 C1188 1.404 . S
C1189 H1201 0.930 . S
C1190 C1186 1.524 . S
C1190 H1202 0.956 . S
C1190 H1203 0.961 . S
C1190 H1204 0.961 . S
C1191 C1188 1.539 . S
C1191 H1205 0.958 . S
C1191 H1206 0.961 . S
C1191 H1207 0.960 . S
H1192 C1176 0.931 . S
H1193 C1181 0.929 . S
H1194 C1182 0.960 . S
H1195 C1182 0.962 . S
H1196 C1182 0.960 . S
H1197 C1183 0.961 . S
H1198 C1183 0.961 . S
H1199 C1183 0.961 . S
H1200 C1184 0.931 . S
H1201 C1189 0.930 . S
H1202 C1190 0.956 . S
H1203 C1190 0.961 . S
H1204 C1190 0.961 . S
H1205 C1191 0.958 . S
H1206 C1191 0.961 . S
H1207 C1191 0.960 . S
C1208 C1209 1.391 . S
C1208 C1210 1.394 . S
C1208 H1224 0.931 . S
C1209 C1208 1.391 . S
C1209 C1213 1.376 . S
C1210 C1208 1.394 . S
C1210 C1211 1.369 . S
C1210 C1214 1.531 . S
C1211 C1210 1.369 . S
C1211 C1212 1.410 . S
C1211 C1219 1.503 . S
C1212 C1211 1.410 . S
C1212 C1213 1.392 . S
C1212 C1215 1.511 . S
C1213 C1209 1.376 . S
C1213 C1212 1.392 . S
C1213 H1225 0.929 . S
C1214 C1210 1.531 . S
C1214 H1226 0.960 . S
C1214 H1227 0.962 . S
C1214 H1228 0.960 . S
C1215 C1212 1.511 . S
C1215 H1229 0.961 . S
C1215 H1230 0.961 . S
C1215 H1231 0.961 . S
C1216 C1217 1.370 . S
C1216 C1218 1.363 . S
C1216 H1232 0.931 . S
C1217 C1216 1.370 . S
C1217 C1221 1.408 . S
C1218 C1216 1.363 . S
C1218 C1219 1.370 . S
C1218 C1222 1.524 . S
C1219 C1211 1.503 . S
C1219 C1218 1.370 . S
C1219 C1220 1.403 . S
C1220 C1219 1.403 . S
C1220 C1221 1.404 . S
C1220 C1223 1.539 . S
C1221 C1217 1.408 . S
C1221 C1220 1.404 . S
C1221 H1233 0.930 . S
C1222 C1218 1.524 . S
C1222 H1234 0.956 . S
C1222 H1235 0.961 . S
C1222 H1236 0.961 . S
C1223 C1220 1.539 . S
C1223 H1237 0.958 . S
C1223 H1238 0.961 . S
C1223 H1239 0.960 . S
H1224 C1208 0.931 . S
H1225 C1213 0.929 . S
H1226 C1214 0.960 . S
H1227 C1214 0.962 . S
H1228 C1214 0.960 . S
H1229 C1215 0.961 . S
H1230 C1215 0.961 . S
H1231 C1215 0.961 . S
H1232 C1216 0.931 . S
H1233 C1221 0.930 . S
H1234 C1222 0.956 . S
H1235 C1222 0.961 . S
H1236 C1222 0.961 . S
H1237 C1223 0.958 . S
H1238 C1223 0.961 . S
H1239 C1223 0.960 . S
C1240 C1241 1.391 . S
C1240 C1242 1.394 . S
C1240 H1256 0.931 . S
C1241 C1240 1.391 . S
C1241 C1245 1.376 . S
C1242 C1240 1.394 . S
C1242 C1243 1.369 . S
C1242 C1246 1.531 . S
C1243 C1242 1.369 . S
C1243 C1244 1.410 . S
C1243 C1251 1.503 . S
C1244 C1243 1.410 . S
C1244 C1245 1.392 . S
C1244 C1247 1.511 . S
C1245 C1241 1.376 . S
C1245 C1244 1.392 . S
C1245 H1257 0.929 . S
C1246 C1242 1.531 . S
C1246 H1258 0.960 . S
C1246 H1259 0.962 . S
C1246 H1260 0.960 . S
C1247 C1244 1.511 . S
C1247 H1261 0.961 . S
C1247 H1262 0.961 . S
C1247 H1263 0.961 . S
C1248 C1249 1.370 . S
C1248 C1250 1.363 . S
C1248 H1264 0.931 . S
C1249 C1248 1.370 . S
C1249 C1253 1.408 . S
C1250 C1248 1.363 . S
C1250 C1251 1.370 . S
C1250 C1254 1.524 . S
C1251 C1243 1.503 . S
C1251 C1250 1.370 . S
C1251 C1252 1.403 . S
C1252 C1251 1.403 . S
C1252 C1253 1.404 . S
C1252 C1255 1.539 . S
C1253 C1249 1.408 . S
C1253 C1252 1.404 . S
C1253 H1265 0.930 . S
C1254 C1250 1.524 . S
C1254 H1266 0.956 . S
C1254 H1267 0.961 . S
C1254 H1268 0.961 . S
C1255 C1252 1.539 . S
C1255 H1269 0.958 . S
C1255 H1270 0.961 . S
C1255 H1271 0.960 . S
H1256 C1240 0.931 . S
H1257 C1245 0.929 . S
H1258 C1246 0.960 . S
H1259 C1246 0.962 . S
H1260 C1246 0.960 . S
H1261 C1247 0.961 . S
H1262 C1247 0.961 . S
H1263 C1247 0.961 . S
H1264 C1248 0.931 . S
H1265 C1253 0.930 . S
H1266 C1254 0.956 . S
H1267 C1254 0.961 . S
H1268 C1254 0.961 . S
H1269 C1255 0.958 . S
H1270 C1255 0.961 . S
H1271 C1255 0.960 . S
C1272 C1273 1.391 . S
C1272 C1274 1.394 . S
C1272 H1288 0.931 . S
C1273 C1272 1.391 . S
C1273 C1277 1.376 . S
C1274 C1272 1.394 . S
C1274 C1275 1.369 . S
C1274 C1278 1.531 . S
C1275 C1274 1.369 . S
C1275 C1276 1.410 . S
C1275 C1283 1.503 . S
C1276 C1275 1.410 . S
C1276 C1277 1.392 . S
C1276 C1279 1.511 . S
C1277 C1273 1.376 . S
C1277 C1276 1.392 . S
C1277 H1289 0.929 . S
C1278 C1274 1.531 . S
C1278 H1290 0.960 . S
C1278 H1291 0.962 . S
C1278 H1292 0.960 . S
C1279 C1276 1.511 . S
C1279 H1293 0.961 . S
C1279 H1294 0.961 . S
C1279 H1295 0.961 . S
C1280 C1281 1.370 . S
C1280 C1282 1.363 . S
C1280 H1296 0.931 . S
C1281 C1280 1.370 . S
C1281 C1285 1.408 . S
C1282 C1280 1.363 . S
C1282 C1283 1.370 . S
C1282 C1286 1.524 . S
C1283 C1275 1.503 . S
C1283 C1282 1.370 . S
C1283 C1284 1.403 . S
C1284 C1283 1.403 . S
C1284 C1285 1.404 . S
C1284 C1287 1.539 . S
C1285 C1281 1.408 . S
C1285 C1284 1.404 . S
C1285 H1297 0.930 . S
C1286 C1282 1.524 . S
C1286 H1298 0.956 . S
C1286 H1299 0.961 . S
C1286 H1300 0.961 . S
C1287 C1284 1.539 . S
C1287 H1301 0.958 . S
C1287 H1302 0.961 . S
C1287 H1303 0.960 . S
H1288 C1272 0.931 . S
H1289 C1277 0.929 . S
H1290 C1278 0.960 . S
H1291 C1278 0.962 . S
H1292 C1278 0.960 . S
H1293 C1279 0.961 . S
H1294 C1279 0.961 . S
H1295 C1279 0.961 . S
H1296 C1280 0.931 . S
H1297 C1285 0.930 . S
H1298 C1286 0.956 . S
H1299 C1286 0.961 . S
H1300 C1286 0.961 . S
H1301 C1287 0.958 . S
H1302 C1287 0.961 . S
H1303 C1287 0.960 . S
C1304 C1305 1.391 . S
C1304 C1306 1.394 . S
C1304 H1320 0.931 . S
C1305 C1304 1.391 . S
C1305 C1309 1.376 . S
C1306 C1304 1.394 . S
C1306 C1307 1.369 . S
C1306 C1310 1.531 . S
C1307 C1306 1.369 . S
C1307 C1308 1.410 . S
C1307 C1315 1.503 . S
C1308 C1307 1.410 . S
C1308 C1309 1.392 . S
C1308 C1311 1.511 . S
C1309 C1305 1.376 . S
C1309 C1308 1.392 . S
C1309 H1321 0.929 . S
C1310 C1306 1.531 . S
C1310 H1322 0.960 . S
C1310 H1323 0.962 . S
C1310 H1324 0.960 . S
C1311 C1308 1.511 . S
C1311 H1325 0.961 . S
C1311 H1326 0.961 . S
C1311 H1327 0.961 . S
C1312 C1313 1.370 . S
C1312 C1314 1.363 . S
C1312 H1328 0.931 . S
C1313 C1312 1.370 . S
C1313 C1317 1.408 . S
C1314 C1312 1.363 . S
C1314 C1315 1.370 . S
C1314 C1318 1.524 . S
C1315 C1307 1.503 . S
C1315 C1314 1.370 . S
C1315 C1316 1.403 . S
C1316 C1315 1.403 . S
C1316 C1317 1.404 . S
C1316 C1319 1.539 . S
C1317 C1313 1.408 . S
C1317 C1316 1.404 . S
C1317 H1329 0.930 . S
C1318 C1314 1.524 . S
C1318 H1330 0.956 . S
C1318 H1331 0.961 . S
C1318 H1332 0.961 . S
C1319 C1316 1.539 . S
C1319 H1333 0.958 . S
C1319 H1334 0.961 . S
C1319 H1335 0.960 . S
H1320 C1304 0.931 . S
H1321 C1309 0.929 . S
H1322 C1310 0.960 . S
H1323 C1310 0.962 . S
H1324 C1310 0.960 . S
H1325 C1311 0.961 . S
H1326 C1311 0.961 . S
H1327 C1311 0.961 . S
H1328 C1312 0.931 . S
H1329 C1317 0.930 . S
H1330 C1318 0.956 . S
H1331 C1318 0.961 . S
H1332 C1318 0.961 . S
H1333 C1319 0.958 . S
H1334 C1319 0.961 . S
H1335 C1319 0.960 . S
C1336 C1337 1.391 . S
C1336 C1338 1.394 . S
C1336 H1352 0.931 . S
C1337 C1336 1.391 . S
C1337 C1341 1.376 . S
C1338 C1336 1.394 . S
C1338 C1339 1.369 . S
C1338 C1342 1.531 . S
C1339 C1338 1.369 . S
C1339 C1340 1.410 . S
C1339 C1347 1.503 . S
C1340 C1339 1.410 . S
C1340 C1341 1.392 . S
C1340 C1343 1.511 . S
C1341 C1337 1.376 . S
C1341 C1340 1.392 . S
C1341 H1353 0.929 . S
C1342 C1338 1.531 . S
C1342 H1354 0.960 . S
C1342 H1355 0.962 . S
C1342 H1356 0.960 . S
C1343 C1340 1.511 . S
C1343 H1357 0.961 . S
C1343 H1358 0.961 . S
C1343 H1359 0.961 . S
C1344 C1345 1.370 . S
C1344 C1346 1.363 . S
C1344 H1360 0.931 . S
C1345 C1344 1.370 . S
C1345 C1349 1.408 . S
C1346 C1344 1.363 . S
C1346 C1347 1.370 . S
C1346 C1350 1.524 . S
C1347 C1339 1.503 . S
C1347 C1346 1.370 . S
C1347 C1348 1.403 . S
C1348 C1347 1.403 . S
C1348 C1349 1.404 . S
C1348 C1351 1.539 . S
C1349 C1345 1.408 . S
C1349 C1348 1.404 . S
C1349 H1361 0.930 . S
C1350 C1346 1.524 . S
C1350 H1362 0.956 . S
C1350 H1363 0.961 . S
C1350 H1364 0.961 . S
C1351 C1348 1.539 . S
C1351 H1365 0.958 . S
C1351 H1366 0.961 . S
C1351 H1367 0.960 . S
H1352 C1336 0.931 . S
H1353 C1341 0.929 . S
H1354 C1342 0.960 . S
H1355 C1342 0.962 . S
H1356 C1342 0.960 . S
H1357 C1343 0.961 . S
H1358 C1343 0.961 . S
H1359 C1343 0.961 . S
H1360 C1344 0.931 . S
H1361 C1349 0.930 . S
H1362 C1350 0.956 . S
H1363 C1350 0.961 . S
H1364 C1350 0.961 . S
H1365 C1351 0.958 . S
H1366 C1351 0.961 . S
H1367 C1351 0.960 . S
C1368 C1369 1.391 . S
C1368 C1370 1.394 . S
C1368 H1384 0.931 . S
C1369 C1368 1.391 . S
C1369 C1373 1.376 . S
C1370 C1368 1.394 . S
C1370 C1371 1.369 . S
C1370 C1374 1.531 . S
C1371 C1370 1.369 . S
C1371 C1372 1.410 . S
C1371 C1379 1.503 . S
C1372 C1371 1.410 . S
C1372 C1373 1.392 . S
C1372 C1375 1.511 . S
C1373 C1369 1.376 . S
C1373 C1372 1.392 . S
C1373 H1385 0.929 . S
C1374 C1370 1.531 . S
C1374 H1386 0.960 . S
C1374 H1387 0.962 . S
C1374 H1388 0.960 . S
C1375 C1372 1.511 . S
C1375 H1389 0.961 . S
C1375 H1390 0.961 . S
C1375 H1391 0.961 . S
C1376 C1377 1.370 . S
C1376 C1378 1.363 . S
C1376 H1392 0.931 . S
C1377 C1376 1.370 . S
C1377 C1381 1.408 . S
C1378 C1376 1.363 . S
C1378 C1379 1.370 . S
C1378 C1382 1.524 . S
C1379 C1371 1.503 . S
C1379 C1378 1.370 . S
C1379 C1380 1.403 . S
C1380 C1379 1.403 . S
C1380 C1381 1.404 . S
C1380 C1383 1.539 . S
C1381 C1377 1.408 . S
C1381 C1380 1.404 . S
C1381 H1393 0.930 . S
C1382 C1378 1.524 . S
C1382 H1394 0.956 . S
C1382 H1395 0.961 . S
C1382 H1396 0.961 . S
C1383 C1380 1.539 . S
C1383 H1397 0.958 . S
C1383 H1398 0.961 . S
C1383 H1399 0.960 . S
H1384 C1368 0.931 . S
H1385 C1373 0.929 . S
H1386 C1374 0.960 . S
H1387 C1374 0.962 . S
H1388 C1374 0.960 . S
H1389 C1375 0.961 . S
H1390 C1375 0.961 . S
H1391 C1375 0.961 . S
H1392 C1376 0.931 . S
H1393 C1381 0.930 . S
H1394 C1382 0.956 . S
H1395 C1382 0.961 . S
H1396 C1382 0.961 . S
H1397 C1383 0.958 . S
H1398 C1383 0.961 . S
H1399 C1383 0.960 . S
C1400 C1401 1.391 . S
C1400 C1402 1.394 . S
C1400 H1416 0.931 . S
C1401 C1400 1.391 . S
C1401 C1405 1.376 . S
C1402 C1400 1.394 . S
C1402 C1403 1.369 . S
C1402 C1406 1.531 . S
C1403 C1402 1.369 . S
C1403 C1404 1.410 . S
C1403 C1411 1.503 . S
C1404 C1403 1.410 . S
C1404 C1405 1.392 . S
C1404 C1407 1.511 . S
C1405 C1401 1.376 . S
C1405 C1404 1.392 . S
C1405 H1417 0.929 . S
C1406 C1402 1.531 . S
C1406 H1418 0.960 . S
C1406 H1419 0.962 . S
C1406 H1420 0.960 . S
C1407 C1404 1.511 . S
C1407 H1421 0.961 . S
C1407 H1422 0.961 . S
C1407 H1423 0.961 . S
C1408 C1409 1.370 . S
C1408 C1410 1.363 . S
C1408 H1424 0.931 . S
C1409 C1408 1.370 . S
C1409 C1413 1.408 . S
C1410 C1408 1.363 . S
C1410 C1411 1.370 . S
C1410 C1414 1.524 . S
C1411 C1403 1.503 . S
C1411 C1410 1.370 . S
C1411 C1412 1.403 . S
C1412 C1411 1.403 . S
C1412 C1413 1.404 . S
C1412 C1415 1.539 . S
C1413 C1409 1.408 . S
C1413 C1412 1.404 . S
C1413 H1425 0.930 . S
C1414 C1410 1.524 . S
C1414 H1426 0.956 . S
C1414 H1427 0.961 . S
C1414 H1428 0.961 . S
C1415 C1412 1.539 . S
C1415 H1429 0.958 . S
C1415 H1430 0.961 . S
C1415 H1431 0.960 . S
H1416 C1400 0.931 . S
H1417 C1405 0.929 . S
H1418 C1406 0.960 . S
H1419 C1406 0.962 . S
H1420 C1406 0.960 . S
H1421 C1407 0.961 . S
H1422 C1407 0.961 . S
H1423 C1407 0.961 . S
H1424 C1408 0.931 . S
H1425 C1413 0.930 . S
H1426 C1414 0.956 . S
H1427 C1414 0.961 . S
H1428 C1414 0.961 . S
H1429 C1415 0.958 . S
H1430 C1415 0.961 . S
H1431 C1415 0.960 . S
C1432 C1433 1.391 . S
C1432 C1434 1.394 . S
C1432 H1448 0.931 . S
C1433 C1432 1.391 . S
C1433 C1437 1.376 . S
C1434 C1432 1.394 . S
C1434 C1435 1.369 . S
C1434 C1438 1.531 . S
C1435 C1434 1.369 . S
C1435 C1436 1.410 . S
C1435 C1443 1.503 . S
C1436 C1435 1.410 . S
C1436 C1437 1.392 . S
C1436 C1439 1.511 . S
C1437 C1433 1.376 . S
C1437 C1436 1.392 . S
C1437 H1449 0.929 . S
C1438 C1434 1.531 . S
C1438 H1450 0.960 . S
C1438 H1451 0.962 . S
C1438 H1452 0.960 . S
C1439 C1436 1.511 . S
C1439 H1453 0.961 . S
C1439 H1454 0.961 . S
C1439 H1455 0.961 . S
C1440 C1441 1.370 . S
C1440 C1442 1.363 . S
C1440 H1456 0.931 . S
C1441 C1440 1.370 . S
C1441 C1445 1.408 . S
C1442 C1440 1.363 . S
C1442 C1443 1.370 . S
C1442 C1446 1.524 . S
C1443 C1435 1.503 . S
C1443 C1442 1.370 . S
C1443 C1444 1.403 . S
C1444 C1443 1.403 . S
C1444 C1445 1.404 . S
C1444 C1447 1.539 . S
C1445 C1441 1.408 . S
C1445 C1444 1.404 . S
C1445 H1457 0.930 . S
C1446 C1442 1.524 . S
C1446 H1458 0.956 . S
C1446 H1459 0.961 . S
C1446 H1460 0.961 . S
C1447 C1444 1.539 . S
C1447 H1461 0.958 . S
C1447 H1462 0.961 . S
C1447 H1463 0.960 . S
H1448 C1432 0.931 . S
H1449 C1437 0.929 . S
H1450 C1438 0.960 . S
H1451 C1438 0.962 . S
H1452 C1438 0.960 . S
H1453 C1439 0.961 . S
H1454 C1439 0.961 . S
H1455 C1439 0.961 . S
H1456 C1440 0.931 . S
H1457 C1445 0.930 . S
H1458 C1446 0.956 . S
H1459 C1446 0.961 . S
H1460 C1446 0.961 . S
H1461 C1447 0.958 . S
H1462 C1447 0.961 . S
H1463 C1447 0.960 . S
C1464 C1465 1.391 . S
C1464 C1466 1.394 . S
C1464 H1480 0.931 . S
C1465 C1464 1.391 . S
C1465 C1469 1.376 . S
C1466 C1464 1.394 . S
C1466 C1467 1.369 . S
C1466 C1470 1.531 . S
C1467 C1466 1.369 . S
C1467 C1468 1.410 . S
C1467 C1475 1.503 . S
C1468 C1467 1.410 . S
C1468 C1469 1.392 . S
C1468 C1471 1.511 . S
C1469 C1465 1.376 . S
C1469 C1468 1.392 . S
C1469 H1481 0.929 . S
C1470 C1466 1.531 . S
C1470 H1482 0.960 . S
C1470 H1483 0.962 . S
C1470 H1484 0.960 . S
C1471 C1468 1.511 . S
C1471 H1485 0.961 . S
C1471 H1486 0.961 . S
C1471 H1487 0.961 . S
C1472 C1473 1.370 . S
C1472 C1474 1.363 . S
C1472 H1488 0.931 . S
C1473 C1472 1.370 . S
C1473 C1477 1.408 . S
C1474 C1472 1.363 . S
C1474 C1475 1.370 . S
C1474 C1478 1.524 . S
C1475 C1467 1.503 . S
C1475 C1474 1.370 . S
C1475 C1476 1.403 . S
C1476 C1475 1.403 . S
C1476 C1477 1.404 . S
C1476 C1479 1.539 . S
C1477 C1473 1.408 . S
C1477 C1476 1.404 . S
C1477 H1489 0.930 1_554 S
C1478 C1474 1.524 . S
C1478 H1490 0.956 . S
C1478 H1491 0.961 . S
C1478 H1492 0.961 . S
C1479 C1476 1.539 . S
C1479 H1493 0.958 . S
C1479 H1494 0.961 . S
C1479 H1495 0.960 . S
H1480 C1464 0.931 . S
H1481 C1469 0.929 . S
H1482 C1470 0.960 . S
H1483 C1470 0.962 . S
H1484 C1470 0.960 . S
H1485 C1471 0.961 . S
H1486 C1471 0.961 . S
H1487 C1471 0.961 . S
H1488 C1472 0.931 . S
H1489 C1477 0.930 1_556 S
H1490 C1478 0.956 . S
H1491 C1478 0.961 . S
H1492 C1478 0.961 . S
H1493 C1479 0.958 . S
H1494 C1479 0.961 . S
H1495 C1479 0.960 . S
C1496 C1497 1.391 . S
C1496 C1498 1.394 . S
C1496 H1512 0.931 . S
C1497 C1496 1.391 . S
C1497 C1501 1.376 . S
C1498 C1496 1.394 . S
C1498 C1499 1.369 . S
C1498 C1502 1.531 . S
C1499 C1498 1.369 . S
C1499 C1500 1.410 . S
C1499 C1507 1.503 . S
C1500 C1499 1.410 . S
C1500 C1501 1.392 . S
C1500 C1503 1.511 . S
C1501 C1497 1.376 . S
C1501 C1500 1.392 . S
C1501 H1513 0.929 . S
C1502 C1498 1.531 . S
C1502 H1514 0.960 . S
C1502 H1515 0.962 . S
C1502 H1516 0.960 . S
C1503 C1500 1.511 . S
C1503 H1517 0.961 . S
C1503 H1518 0.961 . S
C1503 H1519 0.961 . S
C1504 C1505 1.370 . S
C1504 C1506 1.363 . S
C1504 H1520 0.931 1_554 S
C1505 C1504 1.370 . S
C1505 C1509 1.408 . S
C1506 C1504 1.363 . S
C1506 C1507 1.370 . S
C1506 C1510 1.524 . S
C1507 C1499 1.503 . S
C1507 C1506 1.370 . S
C1507 C1508 1.403 . S
C1508 C1507 1.403 . S
C1508 C1509 1.404 . S
C1508 C1511 1.539 . S
C1509 C1505 1.408 . S
C1509 C1508 1.404 . S
C1509 H1521 0.930 . S
C1510 C1506 1.524 . S
C1510 H1522 0.956 . S
C1510 H1523 0.961 . S
C1510 H1524 0.961 . S
C1511 C1508 1.539 . S
C1511 H1525 0.958 . S
C1511 H1526 0.961 . S
C1511 H1527 0.960 . S
H1512 C1496 0.931 . S
H1513 C1501 0.929 . S
H1514 C1502 0.960 . S
H1515 C1502 0.962 . S
H1516 C1502 0.960 . S
H1517 C1503 0.961 . S
H1518 C1503 0.961 . S
H1519 C1503 0.961 . S
H1520 C1504 0.931 1_556 S
H1521 C1509 0.930 . S
H1522 C1510 0.956 . S
H1523 C1510 0.961 . S
H1524 C1510 0.961 . S
H1525 C1511 0.958 . S
H1526 C1511 0.961 . S
H1527 C1511 0.960 . S
C1528 C1529 1.391 . S
C1528 C1530 1.394 . S
C1528 H1544 0.931 . S
C1529 C1528 1.391 . S
C1529 C1533 1.376 . S
C1530 C1528 1.394 . S
C1530 C1531 1.369 . S
C1530 C1534 1.531 . S
C1531 C1530 1.369 . S
C1531 C1532 1.410 . S
C1531 C1539 1.503 . S
C1532 C1531 1.410 . S
C1532 C1533 1.392 . S
C1532 C1535 1.511 . S
C1533 C1529 1.376 . S
C1533 C1532 1.392 . S
C1533 H1545 0.929 1_554 S
C1534 C1530 1.531 . S
C1534 H1546 0.960 . S
C1534 H1547 0.962 . S
C1534 H1548 0.960 . S
C1535 C1532 1.511 . S
C1535 H1549 0.961 . S
C1535 H1550 0.961 . S
C1535 H1551 0.961 . S
C1536 C1537 1.370 . S
C1536 C1538 1.363 . S
C1536 H1552 0.931 . S
C1537 C1536 1.370 . S
C1537 C1541 1.408 . S
C1538 C1536 1.363 . S
C1538 C1539 1.370 . S
C1538 C1542 1.524 . S
C1539 C1531 1.503 . S
C1539 C1538 1.370 . S
C1539 C1540 1.403 . S
C1540 C1539 1.403 . S
C1540 C1541 1.404 . S
C1540 C1543 1.539 . S
C1541 C1537 1.408 . S
C1541 C1540 1.404 . S
C1541 H1553 0.930 . S
C1542 C1538 1.524 . S
C1542 H1554 0.956 . S
C1542 H1555 0.961 . S
C1542 H1556 0.961 . S
C1543 C1540 1.539 . S
C1543 H1557 0.958 . S
C1543 H1558 0.961 . S
C1543 H1559 0.960 . S
H1544 C1528 0.931 . S
H1545 C1533 0.929 1_556 S
H1546 C1534 0.960 . S
H1547 C1534 0.962 . S
H1548 C1534 0.960 . S
H1549 C1535 0.961 . S
H1550 C1535 0.961 . S
H1551 C1535 0.961 . S
H1552 C1536 0.931 . S
H1553 C1541 0.930 . S
H1554 C1542 0.956 . S
H1555 C1542 0.961 . S
H1556 C1542 0.961 . S
H1557 C1543 0.958 . S
H1558 C1543 0.961 . S
H1559 C1543 0.960 . S
C1560 C1561 1.391 . S
C1560 C1562 1.394 . S
C1560 H1576 0.931 . S
C1561 C1560 1.391 . S
C1561 C1565 1.376 . S
C1562 C1560 1.394 . S
C1562 C1563 1.369 1_556 S
C1562 C1566 1.531 . S
C1563 C1562 1.369 1_554 S
C1563 C1564 1.410 . S
C1563 C1571 1.503 . S
C1564 C1563 1.410 . S
C1564 C1565 1.392 1_554 S
C1564 C1567 1.511 . S
C1565 C1561 1.376 . S
C1565 C1564 1.392 1_556 S
C1565 H1577 0.929 . S
C1566 C1562 1.531 . S
C1566 H1578 0.960 1_556 S
C1566 H1579 0.962 . S
C1566 H1580 0.960 . S
C1567 C1564 1.511 . S
C1567 H1581 0.961 . S
C1567 H1582 0.961 . S
C1567 H1583 0.961 . S
C1568 C1569 1.370 . S
C1568 C1570 1.363 . S
C1568 H1584 0.931 . S
C1569 C1568 1.370 . S
C1569 C1573 1.408 . S
C1570 C1568 1.363 . S
C1570 C1571 1.370 . S
C1570 C1574 1.524 1_554 S
C1571 C1563 1.503 . S
C1571 C1570 1.370 . S
C1571 C1572 1.403 . S
C1572 C1571 1.403 . S
C1572 C1573 1.404 . S
C1572 C1575 1.539 . S
C1573 C1569 1.408 . S
C1573 C1572 1.404 . S
C1573 H1585 0.930 . S
C1574 C1570 1.524 1_556 S
C1574 H1586 0.956 . S
C1574 H1587 0.961 . S
C1574 H1588 0.961 . S
C1575 C1572 1.539 . S
C1575 H1589 0.958 . S
C1575 H1590 0.961 . S
C1575 H1591 0.960 . S
H1576 C1560 0.931 . S
H1577 C1565 0.929 . S
H1578 C1566 0.960 1_554 S
H1579 C1566 0.962 . S
H1580 C1566 0.960 . S
H1581 C1567 0.961 . S
H1582 C1567 0.961 . S
H1583 C1567 0.961 . S
H1584 C1568 0.931 . S
H1585 C1573 0.930 . S
H1586 C1574 0.956 . S
H1587 C1574 0.961 . S
H1588 C1574 0.961 . S
H1589 C1575 0.958 . S
H1590 C1575 0.961 . S
H1591 C1575 0.960 . S
C1592 C1593 1.391 . S
C1592 C1594 1.394 . S
C1592 H1608 0.931 . S
C1593 C1592 1.391 . S
C1593 C1597 1.376 . S
C1594 C1592 1.394 . S
C1594 C1595 1.369 . S
C1594 C1598 1.531 . S
C1595 C1594 1.369 . S
C1595 C1596 1.410 . S
C1595 C1603 1.503 1_556 S
C1596 C1595 1.410 . S
C1596 C1597 1.392 . S
C1596 C1599 1.511 1_556 S
C1597 C1593 1.376 . S
C1597 C1596 1.392 . S
C1597 H1609 0.929 . S
C1598 C1594 1.531 . S
C1598 H1610 0.960 . S
C1598 H1611 0.962 . S
C1598 H1612 0.960 . S
C1599 C1596 1.511 1_554 S
C1599 H1613 0.961 . S
C1599 H1614 0.961 . S
C1599 H1615 0.961 . S
C1600 C1601 1.370 . S
C1600 C1602 1.363 . S
C1600 H1616 0.931 . S
C1601 C1600 1.370 . S
C1601 C1605 1.408 . S
C1602 C1600 1.363 . S
C1602 C1603 1.370 . S
C1602 C1606 1.524 . S
C1603 C1595 1.503 1_554 S
C1603 C1602 1.370 . S
C1603 C1604 1.403 . S
C1604 C1603 1.403 . S
C1604 C1605 1.404 . S
C1604 C1607 1.539 1_554 S
C1605 C1601 1.408 . S
C1605 C1604 1.404 . S
C1605 H1617 0.930 . S
C1606 C1602 1.524 . S
C1606 H1618 0.956 . S
C1606 H1619 0.961 . S
C1606 H1620 0.961 . S
C1607 C1604 1.539 1_556 S
C1607 H1621 0.958 . S
C1607 H1622 0.961 . S
C1607 H1623 0.960 . S
H1608 C1592 0.931 . S
H1609 C1597 0.929 . S
H1610 C1598 0.960 . S
H1611 C1598 0.962 . S
H1612 C1598 0.960 . S
H1613 C1599 0.961 . S
H1614 C1599 0.961 . S
H1615 C1599 0.961 . S
H1616 C1600 0.931 . S
H1617 C1605 0.930 . S
H1618 C1606 0.956 . S
H1619 C1606 0.961 . S
H1620 C1606 0.961 . S
H1621 C1607 0.958 . S
H1622 C1607 0.961 . S
H1623 C1607 0.960 . S
C1624 C1625 1.391 . S
C1624 C1626 1.394 1_556 S
C1624 H1640 0.931 . S
C1625 C1624 1.391 . S
C1625 C1629 1.376 . S
C1626 C1624 1.394 1_554 S
C1626 C1627 1.369 . S
C1626 C1630 1.531 . S
C1627 C1626 1.369 . S
C1627 C1628 1.410 1_554 S
C1627 C1635 1.503 . S
C1628 C1627 1.410 1_556 S
C1628 C1629 1.392 . S
C1628 C1631 1.511 . S
C1629 C1625 1.376 . S
C1629 C1628 1.392 . S
C1629 H1641 0.929 . S
C1630 C1626 1.531 . S
C1630 H1642 0.960 . S
C1630 H1643 0.962 . S
C1630 H1644 0.960 . S
C1631 C1628 1.511 . S
C1631 H1645 0.961 . S
C1631 H1646 0.961 . S
C1631 H1647 0.961 . S
C1632 C1633 1.370 . S
C1632 C1634 1.363 . S
C1632 H1648 0.931 . S
C1633 C1632 1.370 . S
C1633 C1637 1.408 . S
C1634 C1632 1.363 . S
C1634 C1635 1.370 . S
C1634 C1638 1.524 1_554 S
C1635 C1627 1.503 . S
C1635 C1634 1.370 . S
C1635 C1636 1.403 . S
C1636 C1635 1.403 . S
C1636 C1637 1.404 . S
C1636 C1639 1.539 . S
C1637 C1633 1.408 . S
C1637 C1636 1.404 . S
C1637 H1649 0.930 . S
C1638 C1634 1.524 1_556 S
C1638 H1650 0.956 . S
C1638 H1651 0.961 . S
C1638 H1652 0.961 . S
C1639 C1636 1.539 . S
C1639 H1653 0.958 . S
C1639 H1654 0.961 . S
C1639 H1655 0.960 . S
H1640 C1624 0.931 . S
H1641 C1629 0.929 . S
H1642 C1630 0.960 . S
H1643 C1630 0.962 . S
H1644 C1630 0.960 . S
H1645 C1631 0.961 . S
H1646 C1631 0.961 . S
H1647 C1631 0.961 . S
H1648 C1632 0.931 . S
H1649 C1637 0.930 . S
H1650 C1638 0.956 . S
H1651 C1638 0.961 . S
H1652 C1638 0.961 . S
H1653 C1639 0.958 . S
H1654 C1639 0.961 . S
H1655 C1639 0.960 . S
C1656 C1657 1.391 . S
C1656 C1658 1.394 . S
C1656 H1672 0.931 . S
C1657 C1656 1.391 . S
C1657 C1661 1.376 . S
C1658 C1656 1.394 . S
C1658 C1659 1.369 . S
C1658 C1662 1.531 . S
C1659 C1658 1.369 . S
C1659 C1660 1.410 . S
C1659 C1667 1.503 . S
C1660 C1659 1.410 . S
C1660 C1661 1.392 . S
C1660 C1663 1.511 . S
C1661 C1657 1.376 . S
C1661 C1660 1.392 . S
C1661 H1673 0.929 . S
C1662 C1658 1.531 . S
C1662 H1674 0.960 . S
C1662 H1675 0.962 . S
C1662 H1676 0.960 . S
C1663 C1660 1.511 . S
C1663 H1677 0.961 . S
C1663 H1678 0.961 . S
C1663 H1679 0.961 . S
C1664 C1665 1.370 . S
C1664 C1666 1.363 . S
C1664 H1680 0.931 . S
C1665 C1664 1.370 . S
C1665 C1669 1.408 . S
C1666 C1664 1.363 . S
C1666 C1667 1.370 . S
C1666 C1670 1.524 . S
C1667 C1659 1.503 . S
C1667 C1666 1.370 . S
C1667 C1668 1.403 . S
C1668 C1667 1.403 . S
C1668 C1669 1.404 . S
C1668 C1671 1.539 . S
C1669 C1665 1.408 . S
C1669 C1668 1.404 . S
C1669 H1681 0.930 . S
C1670 C1666 1.524 . S
C1670 H1682 0.956 . S
C1670 H1683 0.961 . S
C1670 H1684 0.961 . S
C1671 C1668 1.539 . S
C1671 H1685 0.958 . S
C1671 H1686 0.961 . S
C1671 H1687 0.960 . S
H1672 C1656 0.931 . S
H1673 C1661 0.929 . S
H1674 C1662 0.960 . S
H1675 C1662 0.962 . S
H1676 C1662 0.960 . S
H1677 C1663 0.961 . S
H1678 C1663 0.961 . S
H1679 C1663 0.961 . S
H1680 C1664 0.931 . S
H1681 C1669 0.930 . S
H1682 C1670 0.956 . S
H1683 C1670 0.961 . S
H1684 C1670 0.961 . S
H1685 C1671 0.958 . S
H1686 C1671 0.961 . S
H1687 C1671 0.960 . S
C1688 C1689 1.391 . S
C1688 C1690 1.394 . S
C1688 H1704 0.931 . S
C1689 C1688 1.391 . S
C1689 C1693 1.376 . S
C1690 C1688 1.394 . S
C1690 C1691 1.369 . S
C1690 C1694 1.531 . S
C1691 C1690 1.369 . S
C1691 C1692 1.410 . S
C1691 C1699 1.503 . S
C1692 C1691 1.410 . S
C1692 C1693 1.392 . S
C1692 C1695 1.511 . S
C1693 C1689 1.376 . S
C1693 C1692 1.392 . S
C1693 H1705 0.929 . S
C1694 C1690 1.531 . S
C1694 H1706 0.960 . S
C1694 H1707 0.962 . S
C1694 H1708 0.960 . S
C1695 C1692 1.511 . S
C1695 H1709 0.961 . S
C1695 H1710 0.961 . S
C1695 H1711 0.961 . S
C1696 C1697 1.370 . S
C1696 C1698 1.363 . S
C1696 H1712 0.931 . S
C1697 C1696 1.370 . S
C1697 C1701 1.408 . S
C1698 C1696 1.363 . S
C1698 C1699 1.370 . S
C1698 C1702 1.524 . S
C1699 C1691 1.503 . S
C1699 C1698 1.370 . S
C1699 C1700 1.403 . S
C1700 C1699 1.403 . S
C1700 C1701 1.404 . S
C1700 C1703 1.539 . S
C1701 C1697 1.408 . S
C1701 C1700 1.404 . S
C1701 H1713 0.930 . S
C1702 C1698 1.524 . S
C1702 H1714 0.956 . S
C1702 H1715 0.961 . S
C1702 H1716 0.961 . S
C1703 C1700 1.539 . S
C1703 H1717 0.958 . S
C1703 H1718 0.961 . S
C1703 H1719 0.960 . S
H1704 C1688 0.931 . S
H1705 C1693 0.929 . S
H1706 C1694 0.960 . S
H1707 C1694 0.962 . S
H1708 C1694 0.960 . S
H1709 C1695 0.961 . S
H1710 C1695 0.961 . S
H1711 C1695 0.961 . S
H1712 C1696 0.931 . S
H1713 C1701 0.930 . S
H1714 C1702 0.956 . S
H1715 C1702 0.961 . S
H1716 C1702 0.961 . S
H1717 C1703 0.958 . S
H1718 C1703 0.961 . S
H1719 C1703 0.960 . S
C1720 C1721 1.391 . S
C1720 C1722 1.394 . S
C1720 H1736 0.931 . S
C1721 C1720 1.391 . S
C1721 C1725 1.376 . S
C1722 C1720 1.394 . S
C1722 C1723 1.369 . S
C1722 C1726 1.531 . S
C1723 C1722 1.369 . S
C1723 C1724 1.410 . S
C1723 C1731 1.503 . S
C1724 C1723 1.410 . S
C1724 C1725 1.392 . S
C1724 C1727 1.511 . S
C1725 C1721 1.376 . S
C1725 C1724 1.392 . S
C1725 H1737 0.929 . S
C1726 C1722 1.531 . S
C1726 H1738 0.960 . S
C1726 H1739 0.962 . S
C1726 H1740 0.960 . S
C1727 C1724 1.511 . S
C1727 H1741 0.961 . S
C1727 H1742 0.961 . S
C1727 H1743 0.961 . S
C1728 C1729 1.370 . S
C1728 C1730 1.363 . S
C1728 H1744 0.931 . S
C1729 C1728 1.370 . S
C1729 C1733 1.408 . S
C1730 C1728 1.363 . S
C1730 C1731 1.370 . S
C1730 C1734 1.524 . S
C1731 C1723 1.503 . S
C1731 C1730 1.370 . S
C1731 C1732 1.403 . S
C1732 C1731 1.403 . S
C1732 C1733 1.404 . S
C1732 C1735 1.539 . S
C1733 C1729 1.408 . S
C1733 C1732 1.404 . S
C1733 H1745 0.930 . S
C1734 C1730 1.524 . S
C1734 H1746 0.956 . S
C1734 H1747 0.961 . S
C1734 H1748 0.961 . S
C1735 C1732 1.539 . S
C1735 H1749 0.958 . S
C1735 H1750 0.961 . S
C1735 H1751 0.960 . S
H1736 C1720 0.931 . S
H1737 C1725 0.929 . S
H1738 C1726 0.960 . S
H1739 C1726 0.962 . S
H1740 C1726 0.960 . S
H1741 C1727 0.961 . S
H1742 C1727 0.961 . S
H1743 C1727 0.961 . S
H1744 C1728 0.931 . S
H1745 C1733 0.930 . S
H1746 C1734 0.956 . S
H1747 C1734 0.961 . S
H1748 C1734 0.961 . S
H1749 C1735 0.958 . S
H1750 C1735 0.961 . S
H1751 C1735 0.960 . S
C1752 C1753 1.391 . S
C1752 C1754 1.394 . S
C1752 H1768 0.931 . S
C1753 C1752 1.391 . S
C1753 C1757 1.376 . S
C1754 C1752 1.394 . S
C1754 C1755 1.369 . S
C1754 C1758 1.531 . S
C1755 C1754 1.369 . S
C1755 C1756 1.410 . S
C1755 C1763 1.503 . S
C1756 C1755 1.410 . S
C1756 C1757 1.392 . S
C1756 C1759 1.511 . S
C1757 C1753 1.376 . S
C1757 C1756 1.392 . S
C1757 H1769 0.929 . S
C1758 C1754 1.531 . S
C1758 H1770 0.960 . S
C1758 H1771 0.962 . S
C1758 H1772 0.960 . S
C1759 C1756 1.511 . S
C1759 H1773 0.961 . S
C1759 H1774 0.961 . S
C1759 H1775 0.961 . S
C1760 C1761 1.370 . S
C1760 C1762 1.363 . S
C1760 H1776 0.931 . S
C1761 C1760 1.370 . S
C1761 C1765 1.408 . S
C1762 C1760 1.363 . S
C1762 C1763 1.370 . S
C1762 C1766 1.524 . S
C1763 C1755 1.503 . S
C1763 C1762 1.370 . S
C1763 C1764 1.403 . S
C1764 C1763 1.403 . S
C1764 C1765 1.404 . S
C1764 C1767 1.539 . S
C1765 C1761 1.408 . S
C1765 C1764 1.404 . S
C1765 H1777 0.930 . S
C1766 C1762 1.524 . S
C1766 H1778 0.956 . S
C1766 H1779 0.961 . S
C1766 H1780 0.961 . S
C1767 C1764 1.539 . S
C1767 H1781 0.958 . S
C1767 H1782 0.961 . S
C1767 H1783 0.960 . S
H1768 C1752 0.931 . S
H1769 C1757 0.929 . S
H1770 C1758 0.960 . S
H1771 C1758 0.962 . S
H1772 C1758 0.960 . S
H1773 C1759 0.961 . S
H1774 C1759 0.961 . S
H1775 C1759 0.961 . S
H1776 C1760 0.931 . S
H1777 C1765 0.930 . S
H1778 C1766 0.956 . S
H1779 C1766 0.961 . S
H1780 C1766 0.961 . S
H1781 C1767 0.958 . S
H1782 C1767 0.961 . S
H1783 C1767 0.960 . S
C1784 C1785 1.391 . S
C1784 C1786 1.394 . S
C1784 H1800 0.931 . S
C1785 C1784 1.391 . S
C1785 C1789 1.376 . S
C1786 C1784 1.394 . S
C1786 C1787 1.369 . S
C1786 C1790 1.531 . S
C1787 C1786 1.369 . S
C1787 C1788 1.410 . S
C1787 C1795 1.503 . S
C1788 C1787 1.410 . S
C1788 C1789 1.392 . S
C1788 C1791 1.511 . S
C1789 C1785 1.376 . S
C1789 C1788 1.392 . S
C1789 H1801 0.929 . S
C1790 C1786 1.531 . S
C1790 H1802 0.960 . S
C1790 H1803 0.962 . S
C1790 H1804 0.960 . S
C1791 C1788 1.511 . S
C1791 H1805 0.961 . S
C1791 H1806 0.961 . S
C1791 H1807 0.961 . S
C1792 C1793 1.370 . S
C1792 C1794 1.363 . S
C1792 H1808 0.931 . S
C1793 C1792 1.370 . S
C1793 C1797 1.408 . S
C1794 C1792 1.363 . S
C1794 C1795 1.370 . S
C1794 C1798 1.524 . S
C1795 C1787 1.503 . S
C1795 C1794 1.370 . S
C1795 C1796 1.403 . S
C1796 C1795 1.403 . S
C1796 C1797 1.404 . S
C1796 C1799 1.539 . S
C1797 C1793 1.408 . S
C1797 C1796 1.404 . S
C1797 H1809 0.930 . S
C1798 C1794 1.524 . S
C1798 H1810 0.956 . S
C1798 H1811 0.961 . S
C1798 H1812 0.961 . S
C1799 C1796 1.539 . S
C1799 H1813 0.958 . S
C1799 H1814 0.961 . S
C1799 H1815 0.960 . S
H1800 C1784 0.931 . S
H1801 C1789 0.929 . S
H1802 C1790 0.960 . S
H1803 C1790 0.962 . S
H1804 C1790 0.960 . S
H1805 C1791 0.961 . S
H1806 C1791 0.961 . S
H1807 C1791 0.961 . S
H1808 C1792 0.931 . S
H1809 C1797 0.930 . S
H1810 C1798 0.956 . S
H1811 C1798 0.961 . S
H1812 C1798 0.961 . S
H1813 C1799 0.958 . S
H1814 C1799 0.961 . S
H1815 C1799 0.960 . S
C1816 C1817 1.391 . S
C1816 C1818 1.394 . S
C1816 H1832 0.931 . S
C1817 C1816 1.391 . S
C1817 C1821 1.376 . S
C1818 C1816 1.394 . S
C1818 C1819 1.369 . S
C1818 C1822 1.531 . S
C1819 C1818 1.369 . S
C1819 C1820 1.410 . S
C1819 C1827 1.503 . S
C1820 C1819 1.410 . S
C1820 C1821 1.392 . S
C1820 C1823 1.511 . S
C1821 C1817 1.376 . S
C1821 C1820 1.392 . S
C1821 H1833 0.929 . S
C1822 C1818 1.531 . S
C1822 H1834 0.960 . S
C1822 H1835 0.962 . S
C1822 H1836 0.960 . S
C1823 C1820 1.511 . S
C1823 H1837 0.961 . S
C1823 H1838 0.961 . S
C1823 H1839 0.961 . S
C1824 C1825 1.370 . S
C1824 C1826 1.363 . S
C1824 H1840 0.931 . S
C1825 C1824 1.370 . S
C1825 C1829 1.408 . S
C1826 C1824 1.363 . S
C1826 C1827 1.370 . S
C1826 C1830 1.524 . S
C1827 C1819 1.503 . S
C1827 C1826 1.370 . S
C1827 C1828 1.403 . S
C1828 C1827 1.403 . S
C1828 C1829 1.404 . S
C1828 C1831 1.539 . S
C1829 C1825 1.408 . S
C1829 C1828 1.404 . S
C1829 H1841 0.930 . S
C1830 C1826 1.524 . S
C1830 H1842 0.956 . S
C1830 H1843 0.961 . S
C1830 H1844 0.961 . S
C1831 C1828 1.539 . S
C1831 H1845 0.958 . S
C1831 H1846 0.961 . S
C1831 H1847 0.960 . S
H1832 C1816 0.931 . S
H1833 C1821 0.929 . S
H1834 C1822 0.960 . S
H1835 C1822 0.962 . S
H1836 C1822 0.960 . S
H1837 C1823 0.961 . S
H1838 C1823 0.961 . S
H1839 C1823 0.961 . S
H1840 C1824 0.931 . S
H1841 C1829 0.930 . S
H1842 C1830 0.956 . S
H1843 C1830 0.961 . S
H1844 C1830 0.961 . S
H1845 C1831 0.958 . S
H1846 C1831 0.961 . S
H1847 C1831 0.960 . S
C1848 C1849 1.391 . S
C1848 C1850 1.394 . S
C1848 H1864 0.931 . S
C1849 C1848 1.391 . S
C1849 C1853 1.376 . S
C1850 C1848 1.394 . S
C1850 C1851 1.369 . S
C1850 C1854 1.531 . S
C1851 C1850 1.369 . S
C1851 C1852 1.410 . S
C1851 C1859 1.503 . S
C1852 C1851 1.410 . S
C1852 C1853 1.392 . S
C1852 C1855 1.511 . S
C1853 C1849 1.376 . S
C1853 C1852 1.392 . S
C1853 H1865 0.929 . S
C1854 C1850 1.531 . S
C1854 H1866 0.960 . S
C1854 H1867 0.962 . S
C1854 H1868 0.960 . S
C1855 C1852 1.511 . S
C1855 H1869 0.961 . S
C1855 H1870 0.961 . S
C1855 H1871 0.961 . S
C1856 C1857 1.370 . S
C1856 C1858 1.363 . S
C1856 H1872 0.931 . S
C1857 C1856 1.370 . S
C1857 C1861 1.408 . S
C1858 C1856 1.363 . S
C1858 C1859 1.370 . S
C1858 C1862 1.524 . S
C1859 C1851 1.503 . S
C1859 C1858 1.370 . S
C1859 C1860 1.403 . S
C1860 C1859 1.403 . S
C1860 C1861 1.404 . S
C1860 C1863 1.539 . S
C1861 C1857 1.408 . S
C1861 C1860 1.404 . S
C1861 H1873 0.930 . S
C1862 C1858 1.524 . S
C1862 H1874 0.956 . S
C1862 H1875 0.961 . S
C1862 H1876 0.961 . S
C1863 C1860 1.539 . S
C1863 H1877 0.958 . S
C1863 H1878 0.961 . S
C1863 H1879 0.960 . S
H1864 C1848 0.931 . S
H1865 C1853 0.929 . S
H1866 C1854 0.960 . S
H1867 C1854 0.962 . S
H1868 C1854 0.960 . S
H1869 C1855 0.961 . S
H1870 C1855 0.961 . S
H1871 C1855 0.961 . S
H1872 C1856 0.931 . S
H1873 C1861 0.930 . S
H1874 C1862 0.956 . S
H1875 C1862 0.961 . S
H1876 C1862 0.961 . S
H1877 C1863 0.958 . S
H1878 C1863 0.961 . S
H1879 C1863 0.960 . S
C1880 C1881 1.391 . S
C1880 C1882 1.394 . S
C1880 H1896 0.931 . S
C1881 C1880 1.391 . S
C1881 C1885 1.376 . S
C1882 C1880 1.394 . S
C1882 C1883 1.369 . S
C1882 C1886 1.531 . S
C1883 C1882 1.369 . S
C1883 C1884 1.410 . S
C1883 C1891 1.503 . S
C1884 C1883 1.410 . S
C1884 C1885 1.392 . S
C1884 C1887 1.511 . S
C1885 C1881 1.376 . S
C1885 C1884 1.392 . S
C1885 H1897 0.929 . S
C1886 C1882 1.531 . S
C1886 H1898 0.960 . S
C1886 H1899 0.962 . S
C1886 H1900 0.960 . S
C1887 C1884 1.511 . S
C1887 H1901 0.961 . S
C1887 H1902 0.961 . S
C1887 H1903 0.961 . S
C1888 C1889 1.370 . S
C1888 C1890 1.363 . S
C1888 H1904 0.931 . S
C1889 C1888 1.370 . S
C1889 C1893 1.408 . S
C1890 C1888 1.363 . S
C1890 C1891 1.370 . S
C1890 C1894 1.524 . S
C1891 C1883 1.503 . S
C1891 C1890 1.370 . S
C1891 C1892 1.403 . S
C1892 C1891 1.403 . S
C1892 C1893 1.404 . S
C1892 C1895 1.539 . S
C1893 C1889 1.408 . S
C1893 C1892 1.404 . S
C1893 H1905 0.930 . S
C1894 C1890 1.524 . S
C1894 H1906 0.956 . S
C1894 H1907 0.961 . S
C1894 H1908 0.961 . S
C1895 C1892 1.539 . S
C1895 H1909 0.958 . S
C1895 H1910 0.961 . S
C1895 H1911 0.960 . S
H1896 C1880 0.931 . S
H1897 C1885 0.929 . S
H1898 C1886 0.960 . S
H1899 C1886 0.962 . S
H1900 C1886 0.960 . S
H1901 C1887 0.961 . S
H1902 C1887 0.961 . S
H1903 C1887 0.961 . S
H1904 C1888 0.931 . S
H1905 C1893 0.930 . S
H1906 C1894 0.956 . S
H1907 C1894 0.961 . S
H1908 C1894 0.961 . S
H1909 C1895 0.958 . S
H1910 C1895 0.961 . S
H1911 C1895 0.960 . S
C1912 C1913 1.391 . S
C1912 C1914 1.394 . S
C1912 H1928 0.931 . S
C1913 C1912 1.391 . S
C1913 C1917 1.376 . S
C1914 C1912 1.394 . S
C1914 C1915 1.369 . S
C1914 C1918 1.531 . S
C1915 C1914 1.369 . S
C1915 C1916 1.410 . S
C1915 C1923 1.503 . S
C1916 C1915 1.410 . S
C1916 C1917 1.392 . S
C1916 C1919 1.511 . S
C1917 C1913 1.376 . S
C1917 C1916 1.392 . S
C1917 H1929 0.929 . S
C1918 C1914 1.531 . S
C1918 H1930 0.960 . S
C1918 H1931 0.962 . S
C1918 H1932 0.960 . S
C1919 C1916 1.511 . S
C1919 H1933 0.961 . S
C1919 H1934 0.961 . S
C1919 H1935 0.961 . S
C1920 C1921 1.370 . S
C1920 C1922 1.363 . S
C1920 H1936 0.931 . S
C1921 C1920 1.370 . S
C1921 C1925 1.408 . S
C1922 C1920 1.363 . S
C1922 C1923 1.370 . S
C1922 C1926 1.524 . S
C1923 C1915 1.503 . S
C1923 C1922 1.370 . S
C1923 C1924 1.403 . S
C1924 C1923 1.403 . S
C1924 C1925 1.404 . S
C1924 C1927 1.539 . S
C1925 C1921 1.408 . S
C1925 C1924 1.404 . S
C1925 H1937 0.930 . S
C1926 C1922 1.524 . S
C1926 H1938 0.956 . S
C1926 H1939 0.961 . S
C1926 H1940 0.961 . S
C1927 C1924 1.539 . S
C1927 H1941 0.958 . S
C1927 H1942 0.961 . S
C1927 H1943 0.960 . S
H1928 C1912 0.931 . S
H1929 C1917 0.929 . S
H1930 C1918 0.960 . S
H1931 C1918 0.962 . S
H1932 C1918 0.960 . S
H1933 C1919 0.961 . S
H1934 C1919 0.961 . S
H1935 C1919 0.961 . S
H1936 C1920 0.931 . S
H1937 C1925 0.930 . S
H1938 C1926 0.956 . S
H1939 C1926 0.961 . S
H1940 C1926 0.961 . S
H1941 C1927 0.958 . S
H1942 C1927 0.961 . S
H1943 C1927 0.960 . S
C1944 C1945 1.391 . S
C1944 C1946 1.394 . S
C1944 H1960 0.931 . S
C1945 C1944 1.391 . S
C1945 C1949 1.376 . S
C1946 C1944 1.394 . S
C1946 C1947 1.369 . S
C1946 C1950 1.531 . S
C1947 C1946 1.369 . S
C1947 C1948 1.410 . S
C1947 C1955 1.503 . S
C1948 C1947 1.410 . S
C1948 C1949 1.392 . S
C1948 C1951 1.511 . S
C1949 C1945 1.376 . S
C1949 C1948 1.392 . S
C1949 H1961 0.929 . S
C1950 C1946 1.531 . S
C1950 H1962 0.960 . S
C1950 H1963 0.962 . S
C1950 H1964 0.960 . S
C1951 C1948 1.511 . S
C1951 H1965 0.961 . S
C1951 H1966 0.961 . S
C1951 H1967 0.961 . S
C1952 C1953 1.370 . S
C1952 C1954 1.363 . S
C1952 H1968 0.931 . S
C1953 C1952 1.370 . S
C1953 C1957 1.408 . S
C1954 C1952 1.363 . S
C1954 C1955 1.370 . S
C1954 C1958 1.524 . S
C1955 C1947 1.503 . S
C1955 C1954 1.370 . S
C1955 C1956 1.403 . S
C1956 C1955 1.403 . S
C1956 C1957 1.404 . S
C1956 C1959 1.539 . S
C1957 C1953 1.408 . S
C1957 C1956 1.404 . S
C1957 H1969 0.930 . S
C1958 C1954 1.524 . S
C1958 H1970 0.956 . S
C1958 H1971 0.961 . S
C1958 H1972 0.961 . S
C1959 C1956 1.539 . S
C1959 H1973 0.958 . S
C1959 H1974 0.961 . S
C1959 H1975 0.960 . S
H1960 C1944 0.931 . S
H1961 C1949 0.929 . S
H1962 C1950 0.960 . S
H1963 C1950 0.962 . S
H1964 C1950 0.960 . S
H1965 C1951 0.961 . S
H1966 C1951 0.961 . S
H1967 C1951 0.961 . S
H1968 C1952 0.931 . S
H1969 C1957 0.930 . S
H1970 C1958 0.956 . S
H1971 C1958 0.961 . S
H1972 C1958 0.961 . S
H1973 C1959 0.958 . S
H1974 C1959 0.961 . S
H1975 C1959 0.960 . S
C1976 C1977 1.391 . S
C1976 C1978 1.394 . S
C1976 H1992 0.931 . S
C1977 C1976 1.391 . S
C1977 C1981 1.376 . S
C1978 C1976 1.394 . S
C1978 C1979 1.369 . S
C1978 C1982 1.531 . S
C1979 C1978 1.369 . S
C1979 C1980 1.410 . S
C1979 C1987 1.503 . S
C1980 C1979 1.410 . S
C1980 C1981 1.392 . S
C1980 C1983 1.511 . S
C1981 C1977 1.376 . S
C1981 C1980 1.392 . S
C1981 H1993 0.929 . S
C1982 C1978 1.531 . S
C1982 H1994 0.960 . S
C1982 H1995 0.962 . S
C1982 H1996 0.960 . S
C1983 C1980 1.511 . S
C1983 H1997 0.961 . S
C1983 H1998 0.961 . S
C1983 H1999 0.961 . S
C1984 C1985 1.370 . S
C1984 C1986 1.363 . S
C1984 H2000 0.931 . S
C1985 C1984 1.370 . S
C1985 C1989 1.408 . S
C1986 C1984 1.363 . S
C1986 C1987 1.370 . S
C1986 C1990 1.524 . S
C1987 C1979 1.503 . S
C1987 C1986 1.370 . S
C1987 C1988 1.403 . S
C1988 C1987 1.403 . S
C1988 C1989 1.404 . S
C1988 C1991 1.539 . S
C1989 C1985 1.408 . S
C1989 C1988 1.404 . S
C1989 H2001 0.930 . S
C1990 C1986 1.524 . S
C1990 H2002 0.956 . S
C1990 H2003 0.961 . S
C1990 H2004 0.961 . S
C1991 C1988 1.539 . S
C1991 H2005 0.958 . S
C1991 H2006 0.961 . S
C1991 H2007 0.960 . S
H1992 C1976 0.931 . S
H1993 C1981 0.929 . S
H1994 C1982 0.960 . S
H1995 C1982 0.962 . S
H1996 C1982 0.960 . S
H1997 C1983 0.961 . S
H1998 C1983 0.961 . S
H1999 C1983 0.961 . S
H2000 C1984 0.931 . S
H2001 C1989 0.930 . S
H2002 C1990 0.956 . S
H2003 C1990 0.961 . S
H2004 C1990 0.961 . S
H2005 C1991 0.958 . S
H2006 C1991 0.961 . S
H2007 C1991 0.960 . S
C2008 C2009 1.391 . S
C2008 C2010 1.394 . S
C2008 H2024 0.931 . S
C2009 C2008 1.391 . S
C2009 C2013 1.376 . S
C2010 C2008 1.394 . S
C2010 C2011 1.369 . S
C2010 C2014 1.531 . S
C2011 C2010 1.369 . S
C2011 C2012 1.410 . S
C2011 C2019 1.503 . S
C2012 C2011 1.410 . S
C2012 C2013 1.392 . S
C2012 C2015 1.511 . S
C2013 C2009 1.376 . S
C2013 C2012 1.392 . S
C2013 H2025 0.929 . S
C2014 C2010 1.531 . S
C2014 H2026 0.960 . S
C2014 H2027 0.962 . S
C2014 H2028 0.960 . S
C2015 C2012 1.511 . S
C2015 H2029 0.961 . S
C2015 H2030 0.961 . S
C2015 H2031 0.961 . S
C2016 C2017 1.370 . S
C2016 C2018 1.363 . S
C2016 H2032 0.931 . S
C2017 C2016 1.370 . S
C2017 C2021 1.408 . S
C2018 C2016 1.363 . S
C2018 C2019 1.370 . S
C2018 C2022 1.524 . S
C2019 C2011 1.503 . S
C2019 C2018 1.370 . S
C2019 C2020 1.403 . S
C2020 C2019 1.403 . S
C2020 C2021 1.404 . S
C2020 C2023 1.539 . S
C2021 C2017 1.408 . S
C2021 C2020 1.404 . S
C2021 H2033 0.930 . S
C2022 C2018 1.524 . S
C2022 H2034 0.956 . S
C2022 H2035 0.961 . S
C2022 H2036 0.961 . S
C2023 C2020 1.539 . S
C2023 H2037 0.958 . S
C2023 H2038 0.961 . S
C2023 H2039 0.960 . S
H2024 C2008 0.931 . S
H2025 C2013 0.929 . S
H2026 C2014 0.960 . S
H2027 C2014 0.962 . S
H2028 C2014 0.960 . S
H2029 C2015 0.961 . S
H2030 C2015 0.961 . S
H2031 C2015 0.961 . S
H2032 C2016 0.931 . S
H2033 C2021 0.930 . S
H2034 C2022 0.956 . S
H2035 C2022 0.961 . S
H2036 C2022 0.961 . S
H2037 C2023 0.958 . S
H2038 C2023 0.961 . S
H2039 C2023 0.960 . S
C2040 C2041 1.391 . S
C2040 C2042 1.394 . S
C2040 H2056 0.931 . S
C2041 C2040 1.391 . S
C2041 C2045 1.376 . S
C2042 C2040 1.394 . S
C2042 C2043 1.369 . S
C2042 C2046 1.531 . S
C2043 C2042 1.369 . S
C2043 C2044 1.410 . S
C2043 C2051 1.503 . S
C2044 C2043 1.410 . S
C2044 C2045 1.392 . S
C2044 C2047 1.511 . S
C2045 C2041 1.376 . S
C2045 C2044 1.392 . S
C2045 H2057 0.929 . S
C2046 C2042 1.531 . S
C2046 H2058 0.960 . S
C2046 H2059 0.962 . S
C2046 H2060 0.960 . S
C2047 C2044 1.511 . S
C2047 H2061 0.961 . S
C2047 H2062 0.961 . S
C2047 H2063 0.961 . S
C2048 C2049 1.370 . S
C2048 C2050 1.363 . S
C2048 H2064 0.931 . S
C2049 C2048 1.370 . S
C2049 C2053 1.408 . S
C2050 C2048 1.363 . S
C2050 C2051 1.370 . S
C2050 C2054 1.524 . S
C2051 C2043 1.503 . S
C2051 C2050 1.370 . S
C2051 C2052 1.403 . S
C2052 C2051 1.403 . S
C2052 C2053 1.404 . S
C2052 C2055 1.539 . S
C2053 C2049 1.408 . S
C2053 C2052 1.404 . S
C2053 H2065 0.930 1_556 S
C2054 C2050 1.524 . S
C2054 H2066 0.956 . S
C2054 H2067 0.961 . S
C2054 H2068 0.961 . S
C2055 C2052 1.539 . S
C2055 H2069 0.958 . S
C2055 H2070 0.961 1_556 S
C2055 H2071 0.960 . S
H2056 C2040 0.931 . S
H2057 C2045 0.929 . S
H2058 C2046 0.960 . S
H2059 C2046 0.962 . S
H2060 C2046 0.960 . S
H2061 C2047 0.961 . S
H2062 C2047 0.961 . S
H2063 C2047 0.961 . S
H2064 C2048 0.931 . S
H2065 C2053 0.930 1_554 S
H2066 C2054 0.956 . S
H2067 C2054 0.961 . S
H2068 C2054 0.961 . S
H2069 C2055 0.958 . S
H2070 C2055 0.961 1_554 S
H2071 C2055 0.960 . S
C2072 C2073 1.391 . S
C2072 C2074 1.394 . S
C2072 H2088 0.931 . S
C2073 C2072 1.391 . S
C2073 C2077 1.376 . S
C2074 C2072 1.394 . S
C2074 C2075 1.369 . S
C2074 C2078 1.531 . S
C2075 C2074 1.369 . S
C2075 C2076 1.410 . S
C2075 C2083 1.503 . S
C2076 C2075 1.410 . S
C2076 C2077 1.392 . S
C2076 C2079 1.511 . S
C2077 C2073 1.376 . S
C2077 C2076 1.392 . S
C2077 H2089 0.929 . S
C2078 C2074 1.531 . S
C2078 H2090 0.960 . S
C2078 H2091 0.962 . S
C2078 H2092 0.960 . S
C2079 C2076 1.511 . S
C2079 H2093 0.961 . S
C2079 H2094 0.961 . S
C2079 H2095 0.961 . S
C2080 C2081 1.370 . S
C2080 C2082 1.363 . S
C2080 H2096 0.931 . S
C2081 C2080 1.370 . S
C2081 C2085 1.408 . S
C2082 C2080 1.363 . S
C2082 C2083 1.370 . S
C2082 C2086 1.524 . S
C2083 C2075 1.503 . S
C2083 C2082 1.370 . S
C2083 C2084 1.403 . S
C2084 C2083 1.403 . S
C2084 C2085 1.404 . S
C2084 C2087 1.539 . S
C2085 C2081 1.408 . S
C2085 C2084 1.404 . S
C2085 H2097 0.930 . S
C2086 C2082 1.524 . S
C2086 H2098 0.956 . S
C2086 H2099 0.961 . S
C2086 H2100 0.961 . S
C2087 C2084 1.539 . S
C2087 H2101 0.958 . S
C2087 H2102 0.961 . S
C2087 H2103 0.960 . S
H2088 C2072 0.931 . S
H2089 C2077 0.929 . S
H2090 C2078 0.960 . S
H2091 C2078 0.962 . S
H2092 C2078 0.960 . S
H2093 C2079 0.961 . S
H2094 C2079 0.961 . S
H2095 C2079 0.961 . S
H2096 C2080 0.931 . S
H2097 C2085 0.930 . S
H2098 C2086 0.956 . S
H2099 C2086 0.961 . S
H2100 C2086 0.961 . S
H2101 C2087 0.958 . S
H2102 C2087 0.961 . S
H2103 C2087 0.960 . S
C2104 C2105 1.391 . S
C2104 C2106 1.394 . S
C2104 H2120 0.931 . S
C2105 C2104 1.391 . S
C2105 C2109 1.376 . S
C2106 C2104 1.394 . S
C2106 C2107 1.369 . S
C2106 C2110 1.531 . S
C2107 C2106 1.369 . S
C2107 C2108 1.410 . S
C2107 C2115 1.503 . S
C2108 C2107 1.410 . S
C2108 C2109 1.392 . S
C2108 C2111 1.511 . S
C2109 C2105 1.376 . S
C2109 C2108 1.392 . S
C2109 H2121 0.929 . S
C2110 C2106 1.531 . S
C2110 H2122 0.960 . S
C2110 H2123 0.962 . S
C2110 H2124 0.960 . S
C2111 C2108 1.511 . S
C2111 H2125 0.961 . S
C2111 H2126 0.961 . S
C2111 H2127 0.961 . S
C2112 C2113 1.370 . S
C2112 C2114 1.363 . S
C2112 H2128 0.931 . S
C2113 C2112 1.370 . S
C2113 C2117 1.408 . S
C2114 C2112 1.363 . S
C2114 C2115 1.370 . S
C2114 C2118 1.524 . S
C2115 C2107 1.503 . S
C2115 C2114 1.370 . S
C2115 C2116 1.403 . S
C2116 C2115 1.403 . S
C2116 C2117 1.404 . S
C2116 C2119 1.539 . S
C2117 C2113 1.408 . S
C2117 C2116 1.404 . S
C2117 H2129 0.930 . S
C2118 C2114 1.524 . S
C2118 H2130 0.956 . S
C2118 H2131 0.961 . S
C2118 H2132 0.961 . S
C2119 C2116 1.539 . S
C2119 H2133 0.958 . S
C2119 H2134 0.961 . S
C2119 H2135 0.960 . S
H2120 C2104 0.931 . S
H2121 C2109 0.929 . S
H2122 C2110 0.960 . S
H2123 C2110 0.962 . S
H2124 C2110 0.960 . S
H2125 C2111 0.961 . S
H2126 C2111 0.961 . S
H2127 C2111 0.961 . S
H2128 C2112 0.931 . S
H2129 C2117 0.930 . S
H2130 C2118 0.956 . S
H2131 C2118 0.961 . S
H2132 C2118 0.961 . S
H2133 C2119 0.958 . S
H2134 C2119 0.961 . S
H2135 C2119 0.960 . S
C2136 C2137 1.391 . S
C2136 C2138 1.394 . S
C2136 H2152 0.931 . S
C2137 C2136 1.391 . S
C2137 C2141 1.376 . S
C2138 C2136 1.394 . S
C2138 C2139 1.369 . S
C2138 C2142 1.531 1_556 S
C2139 C2138 1.369 . S
C2139 C2140 1.410 . S
C2139 C2147 1.503 . S
C2140 C2139 1.410 . S
C2140 C2141 1.392 . S
C2140 C2143 1.511 . S
C2141 C2137 1.376 . S
C2141 C2140 1.392 . S
C2141 H2153 0.929 . S
C2142 C2138 1.531 1_554 S
C2142 H2154 0.960 . S
C2142 H2155 0.962 . S
C2142 H2156 0.960 . S
C2143 C2140 1.511 . S
C2143 H2157 0.961 . S
C2143 H2158 0.961 . S
C2143 H2159 0.961 . S
C2144 C2145 1.370 . S
C2144 C2146 1.356 1_554 S
C2144 H2160 0.931 . S
C2145 C2144 1.370 . S
C2145 C2149 1.408 . S
C2146 C2144 1.356 1_556 S
C2146 C2147 1.371 . S
C2146 C2150 1.531 . S
C2147 C2139 1.503 . S
C2147 C2146 1.371 . S
C2147 C2148 1.403 1_556 S
C2148 C2147 1.403 1_554 S
C2148 C2149 1.404 . S
C2148 C2151 1.539 . S
C2149 C2145 1.408 . S
C2149 C2148 1.404 . S
C2149 H2161 0.930 . S
C2150 C2146 1.531 . S
C2150 H2162 0.956 . S
C2150 H2163 0.961 . S
C2150 H2164 0.961 . S
C2151 C2148 1.539 . S
C2151 H2165 0.958 . S
C2151 H2166 0.961 . S
C2151 H2167 0.960 1_554 S
H2152 C2136 0.931 . S
H2153 C2141 0.929 . S
H2154 C2142 0.960 . S
H2155 C2142 0.962 . S
H2156 C2142 0.960 . S
H2157 C2143 0.961 . S
H2158 C2143 0.961 . S
H2159 C2143 0.961 . S
H2160 C2144 0.931 . S
H2161 C2149 0.930 . S
H2162 C2150 0.956 . S
H2163 C2150 0.961 . S
H2164 C2150 0.961 . S
H2165 C2151 0.958 . S
H2166 C2151 0.961 . S
H2167 C2151 0.960 1_556 S
C2168 C2169 1.391 . S
C2168 C2170 1.394 . S
C2168 H2184 0.931 . S
C2169 C2168 1.391 . S
C2169 C2173 1.376 . S
C2170 C2168 1.394 . S
C2170 C2171 1.369 . S
C2170 C2174 1.531 . S
C2171 C2170 1.369 . S
C2171 C2172 1.410 . S
C2171 C2179 1.503 . S
C2172 C2171 1.410 . S
C2172 C2173 1.392 . S
C2172 C2175 1.511 1_556 S
C2173 C2169 1.376 . S
C2173 C2172 1.392 . S
C2173 H2185 0.929 . S
C2174 C2170 1.531 . S
C2174 H2186 0.960 . S
C2174 H2187 0.962 . S
C2174 H2188 0.960 . S
C2175 C2172 1.511 1_554 S
C2175 H2189 0.961 1_554 S
C2175 H2190 0.961 . S
C2175 H2191 0.961 . S
C2176 C2177 1.370 . S
C2176 C2178 1.363 1_554 S
C2176 H2192 0.931 . S
C2177 C2176 1.370 . S
C2177 C2181 1.408 . S
C2178 C2176 1.363 1_556 S
C2178 C2179 1.370 . S
C2178 C2182 1.524 . S
C2179 C2171 1.503 . S
C2179 C2178 1.370 . S
C2179 C2180 1.403 1_556 S
C2180 C2179 1.403 1_554 S
C2180 C2181 1.404 . S
C2180 C2183 1.539 . S
C2181 C2177 1.408 . S
C2181 C2180 1.404 . S
C2181 H2193 0.930 . S
C2182 C2178 1.524 . S
C2182 H2194 0.956 . S
C2182 H2195 0.961 . S
C2182 H2196 0.961 . S
C2183 C2180 1.539 . S
C2183 H2197 0.958 . S
C2183 H2198 0.961 . S
C2183 H2199 0.960 . S
H2184 C2168 0.931 . S
H2185 C2173 0.929 . S
H2186 C2174 0.960 . S
H2187 C2174 0.962 . S
H2188 C2174 0.960 . S
H2189 C2175 0.961 1_556 S
H2190 C2175 0.961 . S
H2191 C2175 0.961 . S
H2192 C2176 0.931 . S
H2193 C2181 0.930 . S
H2194 C2182 0.956 . S
H2195 C2182 0.961 . S
H2196 C2182 0.961 . S
H2197 C2183 0.958 . S
H2198 C2183 0.961 . S
H2199 C2183 0.960 . S
C2200 C2201 1.391 . S
C2200 C2202 1.394 . S
C2200 H2216 0.931 . S
C2201 C2200 1.391 . S
C2201 C2205 1.376 . S
C2202 C2200 1.394 . S
C2202 C2203 1.369 . S
C2202 C2206 1.531 . S
C2203 C2202 1.369 . S
C2203 C2204 1.410 . S
C2203 C2211 1.503 . S
C2204 C2203 1.410 . S
C2204 C2205 1.392 . S
C2204 C2207 1.511 . S
C2205 C2201 1.376 . S
C2205 C2204 1.392 . S
C2205 H2217 0.929 . S
C2206 C2202 1.531 . S
C2206 H2218 0.960 . S
C2206 H2219 0.962 . S
C2206 H2220 0.960 . S
C2207 C2204 1.511 . S
C2207 H2221 0.961 1_556 S
C2207 H2222 0.961 1_556 S
C2207 H2223 0.961 . S
C2208 C2209 1.370 . S
C2208 C2210 1.363 . S
C2208 H2224 0.931 . S
C2209 C2208 1.370 . S
C2209 C2213 1.408 . S
C2210 C2208 1.363 . S
C2210 C2211 1.370 1_554 S
C2210 C2214 1.524 . S
C2211 C2203 1.503 . S
C2211 C2210 1.370 1_556 S
C2211 C2212 1.403 . S
C2212 C2211 1.403 . S
C2212 C2213 1.404 1_556 S
C2212 C2215 1.539 . S
C2213 C2209 1.408 . S
C2213 C2212 1.404 1_554 S
C2213 H2225 0.930 . S
C2214 C2210 1.524 . S
C2214 H2226 0.956 . S
C2214 H2227 0.961 . S
C2214 H2228 0.961 . S
C2215 C2212 1.539 . S
C2215 H2229 0.958 . S
C2215 H2230 0.961 . S
C2215 H2231 0.960 . S
H2216 C2200 0.931 . S
H2217 C2205 0.929 . S
H2218 C2206 0.960 . S
H2219 C2206 0.962 . S
H2220 C2206 0.960 . S
H2221 C2207 0.961 1_554 S
H2222 C2207 0.961 1_554 S
H2223 C2207 0.961 . S
H2224 C2208 0.931 . S
H2225 C2213 0.930 . S
H2226 C2214 0.956 . S
H2227 C2214 0.961 . S
H2228 C2214 0.961 . S
H2229 C2215 0.958 . S
H2230 C2215 0.961 . S
H2231 C2215 0.960 . S
C2232 C2233 1.391 . S
C2232 C2234 1.394 . S
C2232 H2248 0.931 . S
C2233 C2232 1.391 . S
C2233 C2237 1.376 . S
C2234 C2232 1.394 . S
C2234 C2235 1.369 . S
C2234 C2238 1.531 . S
C2235 C2234 1.369 . S
C2235 C2236 1.410 . S
C2235 C2243 1.503 . S
C2236 C2235 1.410 . S
C2236 C2237 1.392 . S
C2236 C2239 1.511 . S
C2237 C2233 1.376 . S
C2237 C2236 1.392 . S
C2237 H2249 0.929 . S
C2238 C2234 1.531 . S
C2238 H2250 0.960 1_556 S
C2238 H2251 0.962 . S
C2238 H2252 0.960 1_556 S
C2239 C2236 1.511 . S
C2239 H2253 0.961 . S
C2239 H2254 0.961 . S
C2239 H2255 0.961 . S
C2240 C2241 1.370 . S
C2240 C2242 1.363 . S
C2240 H2256 0.931 . S
C2241 C2240 1.370 . S
C2241 C2245 1.408 1_556 S
C2242 C2240 1.363 . S
C2242 C2243 1.370 . S
C2242 C2246 1.524 . S
C2243 C2235 1.503 . S
C2243 C2242 1.370 . S
C2243 C2244 1.403 . S
C2244 C2243 1.403 . S
C2244 C2245 1.404 1_556 S
C2244 C2247 1.539 1_556 S
C2245 C2241 1.408 1_554 S
C2245 C2244 1.404 1_554 S
C2245 H2257 0.930 . S
C2246 C2242 1.524 . S
C2246 H2258 0.956 . S
C2246 H2259 0.961 . S
C2246 H2260 0.961 . S
C2247 C2244 1.539 1_554 S
C2247 H2261 0.958 . S
C2247 H2262 0.961 . S
C2247 H2263 0.960 1_554 S
H2248 C2232 0.931 . S
H2249 C2237 0.929 . S
H2250 C2238 0.960 1_554 S
H2251 C2238 0.962 . S
H2252 C2238 0.960 1_554 S
H2253 C2239 0.961 . S
H2254 C2239 0.961 . S
H2255 C2239 0.961 . S
H2256 C2240 0.931 . S
H2257 C2245 0.930 . S
H2258 C2246 0.956 . S
H2259 C2246 0.961 . S
H2260 C2246 0.961 . S
H2261 C2247 0.958 . S
H2262 C2247 0.961 . S
H2263 C2247 0.960 1_556 S
C2264 C2265 1.391 1_554 S
C2264 C2266 1.394 1_554 S
C2264 H2280 0.931 . S
C2265 C2264 1.391 1_556 S
C2265 C2269 1.376 . S
C2266 C2264 1.394 1_556 S
C2266 C2267 1.369 . S
C2266 C2270 1.531 1_556 S
C2267 C2266 1.369 . S
C2267 C2268 1.410 . S
C2267 C2275 1.503 . S
C2268 C2267 1.410 . S
C2268 C2269 1.392 . S
C2268 C2271 1.511 . S
C2269 C2265 1.376 . S
C2269 C2268 1.392 . S
C2269 H2281 0.929 . S
C2270 C2266 1.531 1_554 S
C2270 H2282 0.960 . S
C2270 H2283 0.962 . S
C2270 H2284 0.960 . S
C2271 C2268 1.511 . S
C2271 H2285 0.961 . S
C2271 H2286 0.961 . S
C2271 H2287 0.961 . S
C2272 C2273 1.370 . S
C2272 C2274 1.363 . S
C2272 H2288 0.931 . S
C2273 C2272 1.370 . S
C2273 C2277 1.408 . S
C2274 C2272 1.363 . S
C2274 C2275 1.370 . S
C2274 C2278 1.524 . S
C2275 C2267 1.503 . S
C2275 C2274 1.370 . S
C2275 C2276 1.403 . S
C2276 C2275 1.403 . S
C2276 C2277 1.404 . S
C2276 C2279 1.539 . S
C2277 C2273 1.408 . S
C2277 C2276 1.404 . S
C2277 H2289 0.930 . S
C2278 C2274 1.524 . S
C2278 H2290 0.956 . S
C2278 H2291 0.961 . S
C2278 H2292 0.961 . S
C2279 C2276 1.539 . S
C2279 H2293 0.958 . S
C2279 H2294 0.961 . S
C2279 H2295 0.960 . S
H2280 C2264 0.931 . S
H2281 C2269 0.929 . S
H2282 C2270 0.960 . S
H2283 C2270 0.962 . S
H2284 C2270 0.960 . S
H2285 C2271 0.961 . S
H2286 C2271 0.961 . S
H2287 C2271 0.961 . S
H2288 C2272 0.931 . S
H2289 C2277 0.930 . S
H2290 C2278 0.956 . S
H2291 C2278 0.961 . S
H2292 C2278 0.961 . S
H2293 C2279 0.958 . S
H2294 C2279 0.961 . S
H2295 C2279 0.960 . S
C2296 C2297 1.391 . S
C2296 C2298 1.394 . S
C2296 H2312 0.931 . S
C2297 C2296 1.391 . S
C2297 C2301 1.376 . S
C2298 C2296 1.394 . S
C2298 C2299 1.369 . S
C2298 C2302 1.531 . S
C2299 C2298 1.369 . S
C2299 C2300 1.410 . S
C2299 C2307 1.503 . S
C2300 C2299 1.410 . S
C2300 C2301 1.392 . S
C2300 C2303 1.511 . S
C2301 C2297 1.376 . S
C2301 C2300 1.392 . S
C2301 H2313 0.929 . S
C2302 C2298 1.531 . S
C2302 H2314 0.960 . S
C2302 H2315 0.962 . S
C2302 H2316 0.960 . S
C2303 C2300 1.511 . S
C2303 H2317 0.961 . S
C2303 H2318 0.961 . S
C2303 H2319 0.961 . S
C2304 C2305 1.370 . S
C2304 C2306 1.363 . S
C2304 H2320 0.931 . S
C2305 C2304 1.370 . S
C2305 C2309 1.408 1_556 S
C2306 C2304 1.363 . S
C2306 C2307 1.370 . S
C2306 C2310 1.524 . S
C2307 C2299 1.503 . S
C2307 C2306 1.370 . S
C2307 C2308 1.403 1_556 S
C2308 C2307 1.403 1_554 S
C2308 C2309 1.404 . S
C2308 C2311 1.539 . S
C2309 C2305 1.408 1_554 S
C2309 C2308 1.404 . S
C2309 H2321 0.930 . S
C2310 C2306 1.524 . S
C2310 H2322 0.956 . S
C2310 H2323 0.961 . S
C2310 H2324 0.961 . S
C2311 C2308 1.539 . S
C2311 H2325 0.958 . S
C2311 H2326 0.961 . S
C2311 H2327 0.960 . S
H2312 C2296 0.931 . S
H2313 C2301 0.929 . S
H2314 C2302 0.960 . S
H2315 C2302 0.962 . S
H2316 C2302 0.960 . S
H2317 C2303 0.961 . S
H2318 C2303 0.961 . S
H2319 C2303 0.961 . S
H2320 C2304 0.931 . S
H2321 C2309 0.930 . S
H2322 C2310 0.956 . S
H2323 C2310 0.961 . S
H2324 C2310 0.961 . S
H2325 C2311 0.958 . S
H2326 C2311 0.961 . S
H2327 C2311 0.960 . S
C2328 C2329 1.391 . S
C2328 C2330 1.394 . S
C2328 H2344 0.931 . S
C2329 C2328 1.391 . S
C2329 C2333 1.376 . S
C2330 C2328 1.394 . S
C2330 C2331 1.369 . S
C2330 C2334 1.531 . S
C2331 C2330 1.369 . S
C2331 C2332 1.410 . S
C2331 C2339 1.503 . S
C2332 C2331 1.410 . S
C2332 C2333 1.392 . S
C2332 C2335 1.511 . S
C2333 C2329 1.376 . S
C2333 C2332 1.392 . S
C2333 H2345 0.929 . S
C2334 C2330 1.531 . S
C2334 H2346 0.960 . S
C2334 H2347 0.962 . S
C2334 H2348 0.960 . S
C2335 C2332 1.511 . S
C2335 H2349 0.961 . S
C2335 H2350 0.961 . S
C2335 H2351 0.961 . S
C2336 C2337 1.370 . S
C2336 C2338 1.363 . S
C2336 H2352 0.931 . S
C2337 C2336 1.370 . S
C2337 C2341 1.408 . S
C2338 C2336 1.363 . S
C2338 C2339 1.370 . S
C2338 C2342 1.524 . S
C2339 C2331 1.503 . S
C2339 C2338 1.370 . S
C2339 C2340 1.403 . S
C2340 C2339 1.403 . S
C2340 C2341 1.404 . S
C2340 C2343 1.539 . S
C2341 C2337 1.408 . S
C2341 C2340 1.404 . S
C2341 H2353 0.930 . S
C2342 C2338 1.524 . S
C2342 H2354 0.956 . S
C2342 H2355 0.961 . S
C2342 H2356 0.961 . S
C2343 C2340 1.539 . S
C2343 H2357 0.958 . S
C2343 H2358 0.961 . S
C2343 H2359 0.960 . S
H2344 C2328 0.931 . S
H2345 C2333 0.929 . S
H2346 C2334 0.960 . S
H2347 C2334 0.962 . S
H2348 C2334 0.960 . S
H2349 C2335 0.961 . S
H2350 C2335 0.961 . S
H2351 C2335 0.961 . S
H2352 C2336 0.931 . S
H2353 C2341 0.930 . S
H2354 C2342 0.956 . S
H2355 C2342 0.961 . S
H2356 C2342 0.961 . S
H2357 C2343 0.958 . S
H2358 C2343 0.961 . S
H2359 C2343 0.960 . S
C2360 C2361 1.391 . S
C2360 C2362 1.394 . S
C2360 H2376 0.931 . S
C2361 C2360 1.391 . S
C2361 C2365 1.376 . S
C2362 C2360 1.394 . S
C2362 C2363 1.369 . S
C2362 C2366 1.531 . S
C2363 C2362 1.369 . S
C2363 C2364 1.410 . S
C2363 C2371 1.503 . S
C2364 C2363 1.410 . S
C2364 C2365 1.392 . S
C2364 C2367 1.511 . S
C2365 C2361 1.376 . S
C2365 C2364 1.392 . S
C2365 H2377 0.929 . S
C2366 C2362 1.531 . S
C2366 H2378 0.960 . S
C2366 H2379 0.962 . S
C2366 H2380 0.960 . S
C2367 C2364 1.511 . S
C2367 H2381 0.961 . S
C2367 H2382 0.961 . S
C2367 H2383 0.961 . S
C2368 C2369 1.370 . S
C2368 C2370 1.363 . S
C2368 H2384 0.931 . S
C2369 C2368 1.370 . S
C2369 C2373 1.408 . S
C2370 C2368 1.363 . S
C2370 C2371 1.370 . S
C2370 C2374 1.524 . S
C2371 C2363 1.503 . S
C2371 C2370 1.370 . S
C2371 C2372 1.403 . S
C2372 C2371 1.403 . S
C2372 C2373 1.404 . S
C2372 C2375 1.539 . S
C2373 C2369 1.408 . S
C2373 C2372 1.404 . S
C2373 H2385 0.930 . S
C2374 C2370 1.524 . S
C2374 H2386 0.956 . S
C2374 H2387 0.961 . S
C2374 H2388 0.961 . S
C2375 C2372 1.539 . S
C2375 H2389 0.958 . S
C2375 H2390 0.961 . S
C2375 H2391 0.960 . S
H2376 C2360 0.931 . S
H2377 C2365 0.929 . S
H2378 C2366 0.960 . S
H2379 C2366 0.962 . S
H2380 C2366 0.960 . S
H2381 C2367 0.961 . S
H2382 C2367 0.961 . S
H2383 C2367 0.961 . S
H2384 C2368 0.931 . S
H2385 C2373 0.930 . S
H2386 C2374 0.956 . S
H2387 C2374 0.961 . S
H2388 C2374 0.961 . S
H2389 C2375 0.958 . S
H2390 C2375 0.961 . S
H2391 C2375 0.960 . S
C2392 C2393 1.391 . S
C2392 C2394 1.394 . S
C2392 H2408 0.931 . S
C2393 C2392 1.391 . S
C2393 C2397 1.376 . S
C2394 C2392 1.394 . S
C2394 C2395 1.369 . S
C2394 C2398 1.531 . S
C2395 C2394 1.369 . S
C2395 C2396 1.410 . S
C2395 C2403 1.503 . S
C2396 C2395 1.410 . S
C2396 C2397 1.392 . S
C2396 C2399 1.511 . S
C2397 C2393 1.376 . S
C2397 C2396 1.392 . S
C2397 H2409 0.929 . S
C2398 C2394 1.531 . S
C2398 H2410 0.960 . S
C2398 H2411 0.962 . S
C2398 H2412 0.960 . S
C2399 C2396 1.511 . S
C2399 H2413 0.961 . S
C2399 H2414 0.961 . S
C2399 H2415 0.961 . S
C2400 C2401 1.370 . S
C2400 C2402 1.363 . S
C2400 H2416 0.931 . S
C2401 C2400 1.370 . S
C2401 C2405 1.408 . S
C2402 C2400 1.363 . S
C2402 C2403 1.370 . S
C2402 C2406 1.524 . S
C2403 C2395 1.503 . S
C2403 C2402 1.370 . S
C2403 C2404 1.403 . S
C2404 C2403 1.403 . S
C2404 C2405 1.404 . S
C2404 C2407 1.539 . S
C2405 C2401 1.408 . S
C2405 C2404 1.404 . S
C2405 H2417 0.930 . S
C2406 C2402 1.524 . S
C2406 H2418 0.956 . S
C2406 H2419 0.961 . S
C2406 H2420 0.961 . S
C2407 C2404 1.539 . S
C2407 H2421 0.958 . S
C2407 H2422 0.961 . S
C2407 H2423 0.960 . S
H2408 C2392 0.931 . S
H2409 C2397 0.929 . S
H2410 C2398 0.960 . S
H2411 C2398 0.962 . S
H2412 C2398 0.960 . S
H2413 C2399 0.961 . S
H2414 C2399 0.961 . S
H2415 C2399 0.961 . S
H2416 C2400 0.931 . S
H2417 C2405 0.930 . S
H2418 C2406 0.956 . S
H2419 C2406 0.961 . S
H2420 C2406 0.961 . S
H2421 C2407 0.958 . S
H2422 C2407 0.961 . S
H2423 C2407 0.960 . S
C2424 C2425 1.391 . S
C2424 C2426 1.394 . S
C2424 H2440 0.931 . S
C2425 C2424 1.391 . S
C2425 C2429 1.376 . S
C2426 C2424 1.394 . S
C2426 C2427 1.369 . S
C2426 C2430 1.531 . S
C2427 C2426 1.369 . S
C2427 C2428 1.410 . S
C2427 C2435 1.503 . S
C2428 C2427 1.410 . S
C2428 C2429 1.392 . S
C2428 C2431 1.511 . S
C2429 C2425 1.376 . S
C2429 C2428 1.392 . S
C2429 H2441 0.929 . S
C2430 C2426 1.531 . S
C2430 H2442 0.960 . S
C2430 H2443 0.962 . S
C2430 H2444 0.960 . S
C2431 C2428 1.511 . S
C2431 H2445 0.961 . S
C2431 H2446 0.961 . S
C2431 H2447 0.961 . S
C2432 C2433 1.370 . S
C2432 C2434 1.363 . S
C2432 H2448 0.931 . S
C2433 C2432 1.370 . S
C2433 C2437 1.408 . S
C2434 C2432 1.363 . S
C2434 C2435 1.370 . S
C2434 C2438 1.532 . S
C2435 C2427 1.503 . S
C2435 C2434 1.370 . S
C2435 C2436 1.403 . S
C2436 C2435 1.403 . S
C2436 C2437 1.404 . S
C2436 C2439 1.539 . S
C2437 C2433 1.408 . S
C2437 C2436 1.404 . S
C2437 H2449 0.930 . S
C2438 C2434 1.532 . S
C2438 H2450 0.952 1_554 S
C2438 H2451 0.960 1_554 S
C2438 H2452 0.957 1_554 S
C2439 C2436 1.539 . S
C2439 H2453 0.958 . S
C2439 H2454 0.961 . S
C2439 H2455 0.960 . S
H2440 C2424 0.931 . S
H2441 C2429 0.929 . S
H2442 C2430 0.960 . S
H2443 C2430 0.962 . S
H2444 C2430 0.960 . S
H2445 C2431 0.961 . S
H2446 C2431 0.961 . S
H2447 C2431 0.961 . S
H2448 C2432 0.931 . S
H2449 C2437 0.930 . S
H2450 C2438 0.952 1_556 S
H2451 C2438 0.960 1_556 S
H2452 C2438 0.957 1_556 S
H2453 C2439 0.958 . S
H2454 C2439 0.961 . S
H2455 C2439 0.960 . S
C2456 C2457 1.391 . S
C2456 C2458 1.394 . S
C2456 H2472 0.931 . S
C2457 C2456 1.391 . S
C2457 C2461 1.376 . S
C2458 C2456 1.394 . S
C2458 C2459 1.369 . S
C2458 C2462 1.531 . S
C2459 C2458 1.369 . S
C2459 C2460 1.410 . S
C2459 C2467 1.503 . S
C2460 C2459 1.410 . S
C2460 C2461 1.392 . S
C2460 C2463 1.511 . S
C2461 C2457 1.376 . S
C2461 C2460 1.392 . S
C2461 H2473 0.929 . S
C2462 C2458 1.531 . S
C2462 H2474 0.960 . S
C2462 H2475 0.962 1_554 S
C2462 H2476 0.960 . S
C2463 C2460 1.511 . S
C2463 H2477 0.961 . S
C2463 H2478 0.961 . S
C2463 H2479 0.961 . S
C2464 C2465 1.370 . S
C2464 C2466 1.363 . S
C2464 H2480 0.931 1_554 S
C2465 C2464 1.370 . S
C2465 C2469 1.408 . S
C2466 C2464 1.363 . S
C2466 C2467 1.370 . S
C2466 C2470 1.524 . S
C2467 C2459 1.503 . S
C2467 C2466 1.370 . S
C2467 C2468 1.403 . S
C2468 C2467 1.403 . S
C2468 C2469 1.404 . S
C2468 C2471 1.539 . S
C2469 C2465 1.408 . S
C2469 C2468 1.404 . S
C2469 H2481 0.930 . S
C2470 C2466 1.524 . S
C2470 H2482 0.956 1_554 S
C2470 H2483 0.961 . S
C2470 H2484 0.961 1_554 S
C2471 C2468 1.539 . S
C2471 H2485 0.958 . S
C2471 H2486 0.961 . S
C2471 H2487 0.960 . S
H2472 C2456 0.931 . S
H2473 C2461 0.929 . S
H2474 C2462 0.960 . S
H2475 C2462 0.962 1_556 S
H2476 C2462 0.960 . S
H2477 C2463 0.961 . S
H2478 C2463 0.961 . S
H2479 C2463 0.961 . S
H2480 C2464 0.931 1_556 S
H2481 C2469 0.930 . S
H2482 C2470 0.956 1_556 S
H2483 C2470 0.961 . S
H2484 C2470 0.961 1_556 S
H2485 C2471 0.958 . S
H2486 C2471 0.961 . S
H2487 C2471 0.960 . S
C2488 C2489 1.391 . S
C2488 C2490 1.394 . S
C2488 H2504 0.931 . S
C2489 C2488 1.391 . S
C2489 C2493 1.376 . S
C2490 C2488 1.394 . S
C2490 C2491 1.369 . S
C2490 C2494 1.531 . S
C2491 C2490 1.369 . S
C2491 C2492 1.410 . S
C2491 C2499 1.503 . S
C2492 C2491 1.410 . S
C2492 C2493 1.392 . S
C2492 C2495 1.511 . S
C2493 C2489 1.376 . S
C2493 C2492 1.392 . S
C2493 H2505 0.929 . S
C2494 C2490 1.531 . S
C2494 H2506 0.960 . S
C2494 H2507 0.962 . S
C2494 H2508 0.960 . S
C2495 C2492 1.511 . S
C2495 H2509 0.961 . S
C2495 H2510 0.961 . S
C2495 H2511 0.961 . S
C2496 C2497 1.370 1_556 S
C2496 C2498 1.363 1_556 S
C2496 H2512 0.931 . S
C2497 C2496 1.370 1_554 S
C2497 C2501 1.408 . S
C2498 C2496 1.363 1_554 S
C2498 C2499 1.370 . S
C2498 C2502 1.524 1_554 S
C2499 C2491 1.503 . S
C2499 C2498 1.370 . S
C2499 C2500 1.403 . S
C2500 C2499 1.403 . S
C2500 C2501 1.404 . S
C2500 C2503 1.539 . S
C2501 C2497 1.408 . S
C2501 C2500 1.404 . S
C2501 H2513 0.930 . S
C2502 C2498 1.524 1_556 S
C2502 H2514 0.956 . S
C2502 H2515 0.961 . S
C2502 H2516 0.961 . S
C2503 C2500 1.539 . S
C2503 H2517 0.958 . S
C2503 H2518 0.961 . S
C2503 H2519 0.960 . S
H2504 C2488 0.931 . S
H2505 C2493 0.929 . S
H2506 C2494 0.960 . S
H2507 C2494 0.962 . S
H2508 C2494 0.960 . S
H2509 C2495 0.961 . S
H2510 C2495 0.961 . S
H2511 C2495 0.961 . S
H2512 C2496 0.931 . S
H2513 C2501 0.930 . S
H2514 C2502 0.956 . S
H2515 C2502 0.961 . S
H2516 C2502 0.961 . S
H2517 C2503 0.958 . S
H2518 C2503 0.961 . S
H2519 C2503 0.960 . S
C2520 C2521 1.391 . S
C2520 C2522 1.394 . S
C2520 H2536 0.931 . S
C2521 C2520 1.391 . S
C2521 C2525 1.376 . S
C2522 C2520 1.394 . S
C2522 C2523 1.369 . S
C2522 C2526 1.531 . S
C2523 C2522 1.369 . S
C2523 C2524 1.410 . S
C2523 C2531 1.503 . S
C2524 C2523 1.410 . S
C2524 C2525 1.392 . S
C2524 C2527 1.511 . S
C2525 C2521 1.376 . S
C2525 C2524 1.392 . S
C2525 H2537 0.929 . S
C2526 C2522 1.531 . S
C2526 H2538 0.960 . S
C2526 H2539 0.962 . S
C2526 H2540 0.960 . S
C2527 C2524 1.511 . S
C2527 H2541 0.961 . S
C2527 H2542 0.961 . S
C2527 H2543 0.961 . S
C2528 C2529 1.370 . S
C2528 C2530 1.363 . S
C2528 H2544 0.931 . S
C2529 C2528 1.370 . S
C2529 C2533 1.408 . S
C2530 C2528 1.363 . S
C2530 C2531 1.370 . S
C2530 C2534 1.524 . S
C2531 C2523 1.503 . S
C2531 C2530 1.370 . S
C2531 C2532 1.403 . S
C2532 C2531 1.403 . S
C2532 C2533 1.404 . S
C2532 C2535 1.539 . S
C2533 C2529 1.408 . S
C2533 C2532 1.404 . S
C2533 H2545 0.930 . S
C2534 C2530 1.524 . S
C2534 H2546 0.956 . S
C2534 H2547 0.961 . S
C2534 H2548 0.961 . S
C2535 C2532 1.539 . S
C2535 H2549 0.958 . S
C2535 H2550 0.961 . S
C2535 H2551 0.960 . S
H2536 C2520 0.931 . S
H2537 C2525 0.929 . S
H2538 C2526 0.960 . S
H2539 C2526 0.962 . S
H2540 C2526 0.960 . S
H2541 C2527 0.961 . S
H2542 C2527 0.961 . S
H2543 C2527 0.961 . S
H2544 C2528 0.931 . S
H2545 C2533 0.930 . S
H2546 C2534 0.956 . S
H2547 C2534 0.961 . S
H2548 C2534 0.961 . S
H2549 C2535 0.958 . S
H2550 C2535 0.961 . S
H2551 C2535 0.960 . S
C2552 C2553 1.391 . S
C2552 C2554 1.394 . S
C2552 H2568 0.931 . S
C2553 C2552 1.391 . S
C2553 C2557 1.376 . S
C2554 C2552 1.394 . S
C2554 C2555 1.369 . S
C2554 C2558 1.531 . S
C2555 C2554 1.369 . S
C2555 C2556 1.410 . S
C2555 C2563 1.503 . S
C2556 C2555 1.410 . S
C2556 C2557 1.392 . S
C2556 C2559 1.511 . S
C2557 C2553 1.376 . S
C2557 C2556 1.392 . S
C2557 H2569 0.929 . S
C2558 C2554 1.531 . S
C2558 H2570 0.960 . S
C2558 H2571 0.962 . S
C2558 H2572 0.960 . S
C2559 C2556 1.511 . S
C2559 H2573 0.961 . S
C2559 H2574 0.961 . S
C2559 H2575 0.961 . S
C2560 C2561 1.370 . S
C2560 C2562 1.363 . S
C2560 H2576 0.931 . S
C2561 C2560 1.370 . S
C2561 C2565 1.408 . S
C2562 C2560 1.363 . S
C2562 C2563 1.370 . S
C2562 C2566 1.524 . S
C2563 C2555 1.503 . S
C2563 C2562 1.370 . S
C2563 C2564 1.403 . S
C2564 C2563 1.403 . S
C2564 C2565 1.404 . S
C2564 C2567 1.539 . S
C2565 C2561 1.408 . S
C2565 C2564 1.404 . S
C2565 H2577 0.930 . S
C2566 C2562 1.524 . S
C2566 H2578 0.956 . S
C2566 H2579 0.961 . S
C2566 H2580 0.961 . S
C2567 C2564 1.539 . S
C2567 H2581 0.958 . S
C2567 H2582 0.961 . S
C2567 H2583 0.960 . S
H2568 C2552 0.931 . S
H2569 C2557 0.929 . S
H2570 C2558 0.960 . S
H2571 C2558 0.962 . S
H2572 C2558 0.960 . S
H2573 C2559 0.961 . S
H2574 C2559 0.961 . S
H2575 C2559 0.961 . S
H2576 C2560 0.931 . S
H2577 C2565 0.930 . S
H2578 C2566 0.956 . S
H2579 C2566 0.961 . S
H2580 C2566 0.961 . S
H2581 C2567 0.958 . S
H2582 C2567 0.961 . S
H2583 C2567 0.960 . S
C2584 C2585 1.391 . S
C2584 C2586 1.394 . S
C2584 H2600 0.931 . S
C2585 C2584 1.391 . S
C2585 C2589 1.376 . S
C2586 C2584 1.394 . S
C2586 C2587 1.369 . S
C2586 C2590 1.531 . S
C2587 C2586 1.369 . S
C2587 C2588 1.410 . S
C2587 C2595 1.503 . S
C2588 C2587 1.410 . S
C2588 C2589 1.392 . S
C2588 C2591 1.511 . S
C2589 C2585 1.376 . S
C2589 C2588 1.392 . S
C2589 H2601 0.929 . S
C2590 C2586 1.531 . S
C2590 H2602 0.960 . S
C2590 H2603 0.962 . S
C2590 H2604 0.960 . S
C2591 C2588 1.511 . S
C2591 H2605 0.961 . S
C2591 H2606 0.961 . S
C2591 H2607 0.961 . S
C2592 C2593 1.370 . S
C2592 C2594 1.363 . S
C2592 H2608 0.931 . S
C2593 C2592 1.370 . S
C2593 C2597 1.408 . S
C2594 C2592 1.363 . S
C2594 C2595 1.370 . S
C2594 C2598 1.524 . S
C2595 C2587 1.503 . S
C2595 C2594 1.370 . S
C2595 C2596 1.403 . S
C2596 C2595 1.403 . S
C2596 C2597 1.404 . S
C2596 C2599 1.539 . S
C2597 C2593 1.408 . S
C2597 C2596 1.404 . S
C2597 H2609 0.930 . S
C2598 C2594 1.524 . S
C2598 H2610 0.956 . S
C2598 H2611 0.961 . S
C2598 H2612 0.961 . S
C2599 C2596 1.539 . S
C2599 H2613 0.958 . S
C2599 H2614 0.961 . S
C2599 H2615 0.960 . S
H2600 C2584 0.931 . S
H2601 C2589 0.929 . S
H2602 C2590 0.960 . S
H2603 C2590 0.962 . S
H2604 C2590 0.960 . S
H2605 C2591 0.961 . S
H2606 C2591 0.961 . S
H2607 C2591 0.961 . S
H2608 C2592 0.931 . S
H2609 C2597 0.930 . S
H2610 C2598 0.956 . S
H2611 C2598 0.961 . S
H2612 C2598 0.961 . S
H2613 C2599 0.958 . S
H2614 C2599 0.961 . S
H2615 C2599 0.960 . S
C2616 C2617 1.391 . S
C2616 C2618 1.394 . S
C2616 H2632 0.931 . S
C2617 C2616 1.391 . S
C2617 C2621 1.376 . S
C2618 C2616 1.394 . S
C2618 C2619 1.369 . S
C2618 C2622 1.531 1_655 S
C2619 C2618 1.369 . S
C2619 C2620 1.410 . S
C2619 C2627 1.503 1_655 S
C2620 C2619 1.410 . S
C2620 C2621 1.392 . S
C2620 C2623 1.511 . S
C2621 C2617 1.376 . S
C2621 C2620 1.392 . S
C2621 H2633 0.929 . S
C2622 C2618 1.531 1_455 S
C2622 H2634 0.960 . S
C2622 H2635 0.962 . S
C2622 H2636 0.960 . S
C2623 C2620 1.511 . S
C2623 H2637 0.961 . S
C2623 H2638 0.961 . S
C2623 H2639 0.961 . S
C2624 C2625 1.370 . S
C2624 C2626 1.363 . S
C2624 H2640 0.931 . S
C2625 C2624 1.370 . S
C2625 C2629 1.408 . S
C2626 C2624 1.363 . S
C2626 C2627 1.370 . S
C2626 C2630 1.524 . S
C2627 C2619 1.503 1_455 S
C2627 C2626 1.370 . S
C2627 C2628 1.403 . S
C2628 C2627 1.403 . S
C2628 C2629 1.404 . S
C2628 C2631 1.539 . S
C2629 C2625 1.408 . S
C2629 C2628 1.404 . S
C2629 H2641 0.930 . S
C2630 C2626 1.524 . S
C2630 H2642 0.956 . S
C2630 H2643 0.961 1_455 S
C2630 H2644 0.961 . S
C2631 C2628 1.539 . S
C2631 H2645 0.958 . S
C2631 H2646 0.961 . S
C2631 H2647 0.960 1_455 S
H2632 C2616 0.931 . S
H2633 C2621 0.929 . S
H2634 C2622 0.960 . S
H2635 C2622 0.962 . S
H2636 C2622 0.960 . S
H2637 C2623 0.961 . S
H2638 C2623 0.961 . S
H2639 C2623 0.961 . S
H2640 C2624 0.931 . S
H2641 C2629 0.930 . S
H2642 C2630 0.956 . S
H2643 C2630 0.961 1_655 S
H2644 C2630 0.961 . S
H2645 C2631 0.958 . S
H2646 C2631 0.961 . S
H2647 C2631 0.960 1_655 S
C2648 C2649 1.391 . S
C2648 C2650 1.394 . S
C2648 H2664 0.931 . S
C2649 C2648 1.391 . S
C2649 C2653 1.376 . S
C2650 C2648 1.394 . S
C2650 C2651 1.369 . S
C2650 C2654 1.531 . S
C2651 C2650 1.369 . S
C2651 C2652 1.410 . S
C2651 C2659 1.503 . S
C2652 C2651 1.410 . S
C2652 C2653 1.392 . S
C2652 C2655 1.511 . S
C2653 C2649 1.376 . S
C2653 C2652 1.392 . S
C2653 H2665 0.929 . S
C2654 C2650 1.531 . S
C2654 H2666 0.960 . S
C2654 H2667 0.962 . S
C2654 H2668 0.960 . S
C2655 C2652 1.511 . S
C2655 H2669 0.961 . S
C2655 H2670 0.961 . S
C2655 H2671 0.961 . S
C2656 C2657 1.370 . S
C2656 C2658 1.363 . S
C2656 H2672 0.931 . S
C2657 C2656 1.370 . S
C2657 C2661 1.408 . S
C2658 C2656 1.363 . S
C2658 C2659 1.370 . S
C2658 C2662 1.524 . S
C2659 C2651 1.503 . S
C2659 C2658 1.370 . S
C2659 C2660 1.403 . S
C2660 C2659 1.403 . S
C2660 C2661 1.404 . S
C2660 C2663 1.539 . S
C2661 C2657 1.408 . S
C2661 C2660 1.404 . S
C2661 H2673 0.930 . S
C2662 C2658 1.524 . S
C2662 H2674 0.956 . S
C2662 H2675 0.961 . S
C2662 H2676 0.961 . S
C2663 C2660 1.539 . S
C2663 H2677 0.958 . S
C2663 H2678 0.961 . S
C2663 H2679 0.960 . S
H2664 C2648 0.931 . S
H2665 C2653 0.929 . S
H2666 C2654 0.960 . S
H2667 C2654 0.962 . S
H2668 C2654 0.960 . S
H2669 C2655 0.961 . S
H2670 C2655 0.961 . S
H2671 C2655 0.961 . S
H2672 C2656 0.931 . S
H2673 C2661 0.930 . S
H2674 C2662 0.956 . S
H2675 C2662 0.961 . S
H2676 C2662 0.961 . S
H2677 C2663 0.958 . S
H2678 C2663 0.961 . S
H2679 C2663 0.960 . S
C2680 C2681 1.391 . S
C2680 C2682 1.394 . S
C2680 H2696 0.931 . S
C2681 C2680 1.391 . S
C2681 C2685 1.376 . S
C2682 C2680 1.394 . S
C2682 C2683 1.369 . S
C2682 C2686 1.531 . S
C2683 C2682 1.369 . S
C2683 C2684 1.410 . S
C2683 C2691 1.503 1_565 S
C2684 C2683 1.410 . S
C2684 C2685 1.392 . S
C2684 C2687 1.511 . S
C2685 C2681 1.376 . S
C2685 C2684 1.392 . S
C2685 H2697 0.929 . S
C2686 C2682 1.531 . S
C2686 H2698 0.960 . S
C2686 H2699 0.962 . S
C2686 H2700 0.960 . S
C2687 C2684 1.511 . S
C2687 H2701 0.961 . S
C2687 H2702 0.961 1_565 S
C2687 H2703 0.961 . S
C2688 C2689 1.370 . S
C2688 C2690 1.363 . S
C2688 H2704 0.931 . S
C2689 C2688 1.370 . S
C2689 C2693 1.408 . S
C2690 C2688 1.363 . S
C2690 C2691 1.370 . S
C2690 C2694 1.524 . S
C2691 C2683 1.503 1_545 S
C2691 C2690 1.370 . S
C2691 C2692 1.403 . S
C2692 C2691 1.403 . S
C2692 C2693 1.404 . S
C2692 C2695 1.539 1_545 S
C2693 C2689 1.408 . S
C2693 C2692 1.404 . S
C2693 H2705 0.930 . S
C2694 C2690 1.524 . S
C2694 H2706 0.956 . S
C2694 H2707 0.961 . S
C2694 H2708 0.961 . S
C2695 C2692 1.539 1_565 S
C2695 H2709 0.958 . S
C2695 H2710 0.961 . S
C2695 H2711 0.960 . S
H2696 C2680 0.931 . S
H2697 C2685 0.929 . S
H2698 C2686 0.960 . S
H2699 C2686 0.962 . S
H2700 C2686 0.960 . S
H2701 C2687 0.961 . S
H2702 C2687 0.961 1_545 S
H2703 C2687 0.961 . S
H2704 C2688 0.931 . S
H2705 C2693 0.930 . S
H2706 C2694 0.956 . S
H2707 C2694 0.961 . S
H2708 C2694 0.961 . S
H2709 C2695 0.958 . S
H2710 C2695 0.961 . S
H2711 C2695 0.960 . S
C2712 C2713 1.391 . S
C2712 C2714 1.394 . S
C2712 H2728 0.931 . S
C2713 C2712 1.391 . S
C2713 C2717 1.376 . S
C2714 C2712 1.394 . S
C2714 C2715 1.369 . S
C2714 C2718 1.531 . S
C2715 C2714 1.369 . S
C2715 C2716 1.410 . S
C2715 C2723 1.503 1_545 S
C2716 C2715 1.410 . S
C2716 C2717 1.392 . S
C2716 C2719 1.511 . S
C2717 C2713 1.376 . S
C2717 C2716 1.392 . S
C2717 H2729 0.929 . S
C2718 C2714 1.531 . S
C2718 H2730 0.960 1_545 S
C2718 H2731 0.962 1_545 S
C2718 H2732 0.960 . S
C2719 C2716 1.511 . S
C2719 H2733 0.961 . S
C2719 H2734 0.961 . S
C2719 H2735 0.961 . S
C2720 C2721 1.370 . S
C2720 C2722 1.363 . S
C2720 H2736 0.931 . S
C2721 C2720 1.370 . S
C2721 C2725 1.408 . S
C2722 C2720 1.363 . S
C2722 C2723 1.370 . S
C2722 C2726 1.524 . S
C2723 C2715 1.503 1_565 S
C2723 C2722 1.370 . S
C2723 C2724 1.403 . S
C2724 C2723 1.403 . S
C2724 C2725 1.404 . S
C2724 C2727 1.539 1_565 S
C2725 C2721 1.408 . S
C2725 C2724 1.404 . S
C2725 H2737 0.930 . S
C2726 C2722 1.524 . S
C2726 H2738 0.956 . S
C2726 H2739 0.961 . S
C2726 H2740 0.961 . S
C2727 C2724 1.539 1_545 S
C2727 H2741 0.958 . S
C2727 H2742 0.973 . S
C2727 H2743 0.960 . S
H2728 C2712 0.931 . S
H2729 C2717 0.929 . S
H2730 C2718 0.960 1_565 S
H2731 C2718 0.962 1_565 S
H2732 C2718 0.960 . S
H2733 C2719 0.961 . S
H2734 C2719 0.961 . S
H2735 C2719 0.961 . S
H2736 C2720 0.931 . S
H2737 C2725 0.930 . S
H2738 C2726 0.956 . S
H2739 C2726 0.961 . S
H2740 C2726 0.961 . S
H2741 C2727 0.958 . S
H2742 C2727 0.973 . S
H2743 C2727 0.960 . S
C2744 C2745 1.391 . S
C2744 C2746 1.394 . S
C2744 H2760 0.931 . S
C2745 C2744 1.391 . S
C2745 C2749 1.376 . S
C2746 C2744 1.394 . S
C2746 C2747 1.369 . S
C2746 C2750 1.531 . S
C2747 C2746 1.369 . S
C2747 C2748 1.410 . S
C2747 C2755 1.503 1_455 S
C2748 C2747 1.410 . S
C2748 C2749 1.392 . S
C2748 C2751 1.511 . S
C2749 C2745 1.376 . S
C2749 C2748 1.392 . S
C2749 H2761 0.929 . S
C2750 C2746 1.531 . S
C2750 H2762 0.955 1_455 S
C2750 H2763 0.962 1_455 S
C2750 H2764 0.960 . S
C2751 C2748 1.511 . S
C2751 H2765 0.961 . S
C2751 H2766 0.961 . S
C2751 H2767 0.961 . S
C2752 C2753 1.370 . S
C2752 C2754 1.363 . S
C2752 H2768 0.931 . S
C2753 C2752 1.370 . S
C2753 C2757 1.408 . S
C2754 C2752 1.363 . S
C2754 C2755 1.370 . S
C2754 C2758 1.524 . S
C2755 C2747 1.503 1_655 S
C2755 C2754 1.370 . S
C2755 C2756 1.403 . S
C2756 C2755 1.403 . S
C2756 C2757 1.404 . S
C2756 C2759 1.539 1_655 S
C2757 C2753 1.408 . S
C2757 C2756 1.404 . S
C2757 H2769 0.930 . S
C2758 C2754 1.524 . S
C2758 H2770 0.956 . S
C2758 H2771 0.961 . S
C2758 H2772 0.961 . S
C2759 C2756 1.539 1_455 S
C2759 H2773 0.958 . S
C2759 H2774 0.961 . S
C2759 H2775 0.960 . S
H2760 C2744 0.931 . S
H2761 C2749 0.929 . S
H2762 C2750 0.955 1_655 S
H2763 C2750 0.962 1_655 S
H2764 C2750 0.960 . S
H2765 C2751 0.961 . S
H2766 C2751 0.961 . S
H2767 C2751 0.961 . S
H2768 C2752 0.931 . S
H2769 C2757 0.930 . S
H2770 C2758 0.956 . S
H2771 C2758 0.961 . S
H2772 C2758 0.961 . S
H2773 C2759 0.958 . S
H2774 C2759 0.961 . S
H2775 C2759 0.960 . S
C2776 C2777 1.391 . S
C2776 C2778 1.394 . S
C2776 H2792 0.931 . S
C2777 C2776 1.391 . S
C2777 C2781 1.376 . S
C2778 C2776 1.394 . S
C2778 C2779 1.369 . S
C2778 C2782 1.531 . S
C2779 C2778 1.369 . S
C2779 C2780 1.410 . S
C2779 C2787 1.503 . S
C2780 C2779 1.410 . S
C2780 C2781 1.392 . S
C2780 C2783 1.511 . S
C2781 C2777 1.376 . S
C2781 C2780 1.392 . S
C2781 H2793 0.929 . S
C2782 C2778 1.531 . S
C2782 H2794 0.960 . S
C2782 H2795 0.962 . S
C2782 H2796 0.960 . S
C2783 C2780 1.511 . S
C2783 H2797 0.961 . S
C2783 H2798 0.961 . S
C2783 H2799 0.961 . S
C2784 C2785 1.370 . S
C2784 C2786 1.363 . S
C2784 H2800 0.931 . S
C2785 C2784 1.370 . S
C2785 C2789 1.408 . S
C2786 C2784 1.363 . S
C2786 C2787 1.370 . S
C2786 C2790 1.524 . S
C2787 C2779 1.503 . S
C2787 C2786 1.370 . S
C2787 C2788 1.403 . S
C2788 C2787 1.403 . S
C2788 C2789 1.404 . S
C2788 C2791 1.539 . S
C2789 C2785 1.408 . S
C2789 C2788 1.404 . S
C2789 H2801 0.930 . S
C2790 C2786 1.524 . S
C2790 H2802 0.956 . S
C2790 H2803 0.961 . S
C2790 H2804 0.961 . S
C2791 C2788 1.539 . S
C2791 H2805 0.958 . S
C2791 H2806 0.961 . S
C2791 H2807 0.960 . S
H2792 C2776 0.931 . S
H2793 C2781 0.929 . S
H2794 C2782 0.960 . S
H2795 C2782 0.962 . S
H2796 C2782 0.960 . S
H2797 C2783 0.961 . S
H2798 C2783 0.961 . S
H2799 C2783 0.961 . S
H2800 C2784 0.931 . S
H2801 C2789 0.930 . S
H2802 C2790 0.956 . S
H2803 C2790 0.961 . S
H2804 C2790 0.961 . S
H2805 C2791 0.958 . S
H2806 C2791 0.961 . S
H2807 C2791 0.960 . S
C505 C78 1.176 . S
C513 C8 1.201 . S
C537 C22 1.177 . S
C545 C50 1.200 . S
C569 C64 1.179 . S
C577 C36 1.201 . S
C601 C92 1.200 . S
C609 C162 1.196 . S
C633 C106 1.177 . S
C641 C134 1.205 . S
C665 C148 1.211 . S
C673 C120 1.191 . S
C697 C246 1.173 . S
C705 C176 1.203 . S
C729 C190 1.192 . S
C737 C218 1.192 . S
C761 C232 1.203 . S
C769 C204 1.198 . S
C793 C260 1.180 . S
C801 C330 1.203 . S
C825 C274 1.204 . S
C833 C302 1.194 . S
C857 C288 1.194 . S
C865 C316 1.199 . S
C889 C344 1.214 . S
C897 C414 1.190 . S
C921 C386 1.194 . S
C929 C358 1.201 . S
C953 C372 1.177 . S
C961 C400 1.206 . S
C985 C428 1.214 . S
C993 C498 1.188 . S
C1017 C442 1.173 . S
C1025 C470 1.205 . S
C1049 C456 1.209 . S
C1057 C484 1.192 . S
C1081 C147 1.282 . S
C1089 C9 1.267 . S
C1113 C161 1.299 . S
C1121 C23 1.255 . S
C1145 C133 1.263 . S
C1153 C37 1.233 . S
C1177 C119 1.266 . S
C1185 C51 1.234 . S
C1209 C65 1.279 . S
C1217 C91 1.261 . S
C1241 C79 1.204 . S
C1249 C105 1.262 . S
C1273 C93 1.250 . S
C1281 C63 1.281 . S
C1305 C107 1.208 . S
C1313 C77 1.258 . S
C1337 C121 1.286 . S
C1345 C49 1.263 . S
C1369 C35 1.228 . S
C1377 C135 1.243 . S
C1401 C7 1.261 . S
C1409 C149 1.266 . S
C1433 C163 1.232 . S
C1441 C21 1.279 . S
C1465 C177 1.288 . S
C1473 C315 1.271 1_554 S
C1497 C191 1.247 . S
C1505 C329 1.280 1_554 S
C1529 C301 1.268 1_554 S
C1537 C205 1.266 . S
C1561 C219 1.249 . S
C1569 C287 1.253 . S
C1593 C233 1.214 . S
C1601 C259 1.270 . S
C1625 C247 1.286 . S
C1633 C273 1.267 . S
C1657 C261 1.288 . S
C1665 C231 1.270 . S
C1689 C245 1.269 . S
C1697 C275 1.266 . S
C1721 C217 1.244 . S
C1729 C289 1.233 . S
C1753 C303 1.242 . S
C1761 C203 1.281 . S
C1785 C175 1.298 . S
C1793 C317 1.250 . S
C1817 C189 1.241 . S
C1825 C331 1.234 . S
C1849 C483 1.271 . S
C1857 C345 1.235 . S
C1881 C359 1.204 . S
C1889 C497 1.262 . S
C1913 C373 1.261 . S
C1921 C469 1.280 . S
C1945 C455 1.296 . S
C1953 C387 1.250 . S
C1977 C427 1.236 . S
C1985 C401 1.255 . S
C2009 C441 1.274 . S
C2017 C415 1.236 . S
C2041 C429 1.280 . S
C2049 C399 1.258 1_556 S
C2073 C413 1.279 1_556 S
C2081 C443 1.234 . S
C2105 C457 1.213 . S
C2113 C385 1.255 1_556 S
C2137 C371 1.251 . S
C2145 C471 1.232 . S
C2169 C343 1.298 . S
C2177 C485 1.247 . S
C2201 C357 1.261 . S
C2209 C499 1.267 . S
C2233 C227 1.342 . S
C2241 C3 1.358 1_556 S
C2265 C17 1.377 1_556 S
C2273 C241 1.368 . S
C2297 C213 1.347 . S
C2305 C31 1.361 1_556 S
C2329 C367 1.375 . S
C2337 C45 1.371 . S
C2361 C59 1.361 . S
C2369 C339 1.360 . S
C2393 C73 1.377 . S
C2401 C353 1.368 . S
C2425 C87 1.350 1_554 S
C2433 C479 1.366 . S
C2457 C493 1.377 . S
C2465 C101 1.366 1_554 S
C2489 C465 1.369 . S
C2497 C115 1.360 1_554 S
C2521 C283 1.363 . S
C2529 C129 1.370 . S
C2553 C143 1.373 . S
C2561 C255 1.371 . S
C2585 C157 1.372 . S
C2593 C269 1.362 . S
C2617 C171 1.376 . S
C2625 C395 1.371 . S
C2649 C409 1.341 . S
C2657 C185 1.355 . S
C2681 C381 1.352 . S
C2689 C199 1.364 . S
C2713 C297 1.345 . S
C2721 C451 1.363 . S
C2745 C423 1.349 . S
C2753 C311 1.365 . S
C2777 C437 1.370 . S
C2785 C325 1.361 . S
