# Generated by pormake.
# Topology yfz, (5)-cn, num edge types: 1
# Building blocks:
#     Node 0, Type 0, BuildingBlock: XOMCOT_clean_sbu_1, # of connection points: 5
#     Node 1, Type 0, BuildingBlock: XOMCOT_clean_sbu_1, # of connection points: 5
#     Node 2, Type 0, BuildingBlock: XOMCOT_clean_sbu_1, # of connection points: 5
#     Node 3, Type 0, BuildingBlock: XOMCOT_clean_sbu_1, # of connection points: 5
#     Node 4, Type 0, BuildingBlock: XOMCOT_clean_sbu_1, # of connection points: 5
#     Node 5, Type 0, BuildingBlock: XOMCOT_clean_sbu_1, # of connection points: 5
#     Node 6, Type 0, BuildingBlock: XOMCOT_clean_sbu_1, # of connection points: 5
#     Node 7, Type 0, BuildingBlock: XOMCOT_clean_sbu_1, # of connection points: 5
#     Edge 8, Type (0, 0), BuildingBlock: OJICUG_clean_linker_0, # of connection points: 2
#     Edge 9, Type (0, 0), BuildingBlock: OJICUG_clean_linker_0, # of connection points: 2
#     Edge 10, Type (0, 0), BuildingBlock: OJICUG_clean_linker_0, # of connection points: 2
#     Edge 11, Type (0, 0), BuildingBlock: OJICUG_clean_linker_0, # of connection points: 2
#     Edge 12, Type (0, 0), BuildingBlock: OJICUG_clean_linker_0, # of connection points: 2
#     Edge 13, Type (0, 0), BuildingBlock: OJICUG_clean_linker_0, # of connection points: 2
#     Edge 14, Type (0, 0), BuildingBlock: OJICUG_clean_linker_0, # of connection points: 2
#     Edge 15, Type (0, 0), BuildingBlock: OJICUG_clean_linker_0, # of connection points: 2
#     Edge 16, Type (0, 0), BuildingBlock: OJICUG_clean_linker_0, # of connection points: 2
#     Edge 17, Type (0, 0), BuildingBlock: OJICUG_clean_linker_0, # of connection points: 2
#     Edge 18, Type (0, 0), BuildingBlock: OJICUG_clean_linker_0, # of connection points: 2
#     Edge 19, Type (0, 0), BuildingBlock: OJICUG_clean_linker_0, # of connection points: 2
#     Edge 20, Type (0, 0), BuildingBlock: OJICUG_clean_linker_0, # of connection points: 2
#     Edge 21, Type (0, 0), BuildingBlock: OJICUG_clean_linker_0, # of connection points: 2
#     Edge 22, Type (0, 0), BuildingBlock: OJICUG_clean_linker_0, # of connection points: 2
#     Edge 23, Type (0, 0), BuildingBlock: OJICUG_clean_linker_0, # of connection points: 2
#     Edge 24, Type (0, 0), BuildingBlock: OJICUG_clean_linker_0, # of connection points: 2
#     Edge 25, Type (0, 0), BuildingBlock: OJICUG_clean_linker_0, # of connection points: 2
#     Edge 26, Type (0, 0), BuildingBlock: OJICUG_clean_linker_0, # of connection points: 2
#     Edge 27, Type (0, 0), BuildingBlock: OJICUG_clean_linker_0, # of connection points: 2
# Relax obj value: 0.152
# Max RMSD: 0.137
# Mean RMSD: 0.137
data_MOF--net-yfz--node1-XOMCOT_clean_sbu_1--edge1-OJICUG_clean_linker_0
_symmetry_space_group_name_H-M    P1
_symmetry_Int_Tables_number       1
_symmetry_cell_setting            triclinic
loop_
_symmetry_equiv_pos_as_xyz
'x, y, z'
_cell_length_a     39.458266
_cell_length_b     39.432678
_cell_length_c     13.391801
_cell_angle_alpha  89.979282
_cell_angle_beta   90.000253
_cell_angle_gamma 89.98319
loop_
_atom_site_label
_atom_site_type_symbol
_atom_site_fract_x
_atom_site_fract_y
_atom_site_fract_z
_atom_type_partial_charge
C0 C 0.578 0.06689 0.20803 0.0
C1 C 0.57445 0.05972 0.10849 0.0
N2 N 0.54418 0.07149 0.07779 0.0
N3 N 0.55054 0.08402 0.24081 0.0
C4 C 0.52948 0.08448 0.16087 0.0
H5 H 0.60006 0.06119 0.25286 0.0
Co6 Co 0.54783 0.10034 0.37368 0.0
C7 C 0.52093 0.16345 0.25953 0.0
O8 O 0.52725 0.15234 0.16942 0.0
N9 N 0.54571 0.11436 0.50691 0.0
C10 C 0.54746 0.14429 0.64742 0.0
C11 C 0.55197 0.14532 0.54548 0.0
C12 C 0.53841 0.09475 0.58692 0.0
N13 N 0.53891 0.1124 0.67318 0.0
O14 O 0.50373 0.08025 0.38881 0.0
H15 H 0.56065 0.16687 0.50285 0.0
H16 H 0.53323 0.06788 0.5825 0.0
O17 O 0.52812 0.14503 0.3356 0.0
C18 C 0.50779 0.04853 0.40277 0.0
O19 O 0.53859 0.03612 0.39406 0.0
N20 N 0.59233 0.11762 0.36306 0.0
C21 C 0.66175 0.12696 0.33109 0.0
C22 C 0.63775 0.14388 0.2719 0.0
C23 C 0.60317 0.1389 0.28916 0.0
C24 C 0.61523 0.1025 0.42493 0.0
C25 C 0.64998 0.10715 0.41112 0.0
H26 H 0.58558 0.14998 0.23753 0.0
H27 H 0.60657 0.08509 0.48188 0.0
H28 H 0.50434 0.09543 0.16221 0.0
H29 H 0.59388 0.0491 0.06074 0.0
H30 H 0.55165 0.16498 0.69907 0.0
H31 H 0.64543 0.159 0.20832 0.0
H32 H 0.66743 0.09408 0.46024 0.0
C33 C 0.41037 0.57298 0.70323 0.0
C34 C 0.41544 0.56936 0.60258 0.0
N35 N 0.39591 0.54373 0.56974 0.0
N36 N 0.38704 0.55035 0.73482 0.0
C37 C 0.38041 0.5315 0.65245 0.0
H38 H 0.42243 0.59188 0.74924 0.0
Co39 Co 0.36867 0.54951 0.86608 0.0
C40 C 0.30671 0.53246 0.74182 0.0
O41 O 0.31537 0.55377 0.67078 0.0
N42 N 0.35215 0.54883 0.99663 0.0
C43 C 0.32004 0.54777 0.13288 0.0
C44 C 0.32002 0.55087 0.03037 0.0
C45 C 0.37118 0.54519 0.07975 0.0
N46 N 0.35235 0.54399 0.1639 0.0
O47 O 0.38795 0.50522 0.88775 0.0
H48 H 0.29797 0.55463 0.98385 0.0
H49 H 0.39843 0.54315 0.07843 0.0
O50 O 0.32554 0.52931 0.81935 0.0
C51 C 0.41875 0.50991 0.91301 0.0
O52 O 0.43128 0.54063 0.90339 0.0
N53 N 0.35276 0.59451 0.85192 0.0
C54 C 0.34386 0.66368 0.81574 0.0
C55 C 0.31667 0.64098 0.80507 0.0
C56 C 0.32142 0.60651 0.82632 0.0
C57 C 0.37781 0.61681 0.87563 0.0
C58 C 0.37415 0.65136 0.85693 0.0
H59 H 0.29983 0.59 0.82135 0.0
H60 H 0.40151 0.6074 0.9053 0.0
H61 H 0.36314 0.51023 0.65174 0.0
H62 H 0.43045 0.58607 0.55617 0.0
H63 H 0.29796 0.54885 0.18068 0.0
H64 H 0.29228 0.64943 0.77766 0.0
H65 H 0.39523 0.66812 0.87257 0.0
C66 C 0.88803 0.40084 0.21367 0.0
C67 C 0.89154 0.40805 0.11413 0.0
N68 N 0.92183 0.39637 0.08339 0.0
N69 N 0.91554 0.38377 0.24641 0.0
C70 C 0.93659 0.3834 0.16645 0.0
H71 H 0.86596 0.40647 0.25852 0.0
Co72 Co 0.91821 0.36742 0.37932 0.0
C73 C 0.94553 0.30441 0.26555 0.0
O74 O 0.93944 0.31556 0.17534 0.0
N75 N 0.92027 0.35341 0.51261 0.0
C76 C 0.91853 0.32349 0.65321 0.0
C77 C 0.91405 0.32244 0.55126 0.0
C78 C 0.9275 0.37304 0.59259 0.0
N79 N 0.92701 0.3554 0.67889 0.0
O80 O 0.96223 0.38766 0.39469 0.0
H81 H 0.90543 0.30087 0.50867 0.0
H82 H 0.93263 0.39992 0.58812 0.0
O83 O 0.93811 0.32279 0.3415 0.0
C84 C 0.95809 0.41936 0.40876 0.0
O85 O 0.92726 0.43168 0.39993 0.0
N86 N 0.8738 0.34996 0.36835 0.0
C87 C 0.80448 0.34046 0.33497 0.0
C88 C 0.82866 0.32362 0.27625 0.0
C89 C 0.86318 0.32868 0.2942 0.0
C90 C 0.85072 0.36496 0.42988 0.0
C91 C 0.81601 0.36023 0.41534 0.0
H92 H 0.88091 0.31771 0.24282 0.0
H93 H 0.85921 0.38236 0.48704 0.0
H94 H 0.96178 0.37257 0.16778 0.0
H95 H 0.87207 0.41862 0.0664 0.0
H96 H 0.91437 0.3028 0.70492 0.0
H97 H 0.82117 0.30854 0.21243 0.0
H98 H 0.79841 0.37323 0.46412 0.0
C99 C 0.05649 0.8937 0.71382 0.0
C100 C 0.05148 0.89726 0.6131 0.0
N101 N 0.07107 0.92284 0.58012 0.0
N102 N 0.07986 0.91631 0.74533 0.0
C103 C 0.08652 0.93511 0.66283 0.0
H104 H 0.04436 0.87486 0.7599 0.0
Co105 Co 0.09844 0.91733 0.87646 0.0
C106 C 0.16005 0.93323 0.75014 0.0
O107 O 0.15094 0.91134 0.68119 0.0
N108 N 0.11514 0.91826 1.00685 0.0
C109 C 0.14724 0.91984 0.14306 0.0
C110 C 0.1473 0.91681 0.04052 0.0
C111 C 0.09606 0.92152 0.09003 0.0
N112 N 0.11488 0.92301 0.17419 0.0
O113 O 0.07942 0.96177 0.89733 0.0
H114 H 0.16941 0.91352 0.99396 0.0
H115 H 0.06877 0.92309 0.08867 0.0
O116 O 0.1416 0.93717 0.8282 0.0
C117 C 0.04867 0.95725 0.9234 0.0
O118 O 0.03602 0.92655 0.91486 0.0
N119 N 0.11414 0.87221 0.86328 0.0
C120 C 0.12303 0.80299 0.8281 0.0
C121 C 0.15034 0.8256 0.81855 0.0
C122 C 0.14559 0.86009 0.83941 0.0
C123 C 0.08894 0.84999 0.88638 0.0
C124 C 0.0926 0.81541 0.8681 0.0
H125 H 0.16725 0.87656 0.83535 0.0
H126 H 0.06516 0.85947 0.91527 0.0
H127 H 0.10384 0.95634 0.66203 0.0
H128 H 0.03647 0.88054 0.56677 0.0
H129 H 0.16936 0.91915 0.19077 0.0
H130 H 0.17484 0.81708 0.79221 0.0
H131 H 0.07141 0.79872 0.88306 0.0
C132 C 0.57435 0.40966 0.32071 0.0
C133 C 0.57047 0.41486 0.42124 0.0
N134 N 0.54428 0.39594 0.45333 0.0
N135 N 0.5513 0.38684 0.28852 0.0
C136 C 0.53206 0.38061 0.37037 0.0
H137 H 0.59357 0.42141 0.27516 0.0
Co138 Co 0.54966 0.36887 0.15683 0.0
C139 C 0.53348 0.30679 0.28159 0.0
O140 O 0.55472 0.3157 0.35246 0.0
N141 N 0.54808 0.35276 0.02632 0.0
C142 C 0.54745 0.32096 0.88955 0.0
C143 C 0.55105 0.32078 0.99185 0.0
C144 C 0.54314 0.3719 0.94396 0.0
N145 N 0.54235 0.35321 0.85943 0.0
O146 O 0.50513 0.3877 0.13898 0.0
H147 H 0.55591 0.29877 0.03772 0.0
H148 H 0.53994 0.3991 0.94622 0.0
O149 O 0.53015 0.3255 0.20386 0.0
C150 C 0.50826 0.41934 0.12183 0.0
O151 O 0.53869 0.43275 0.1277 0.0
N152 N 0.59485 0.35324 0.16789 0.0
C153 C 0.66408 0.34486 0.20337 0.0
C154 C 0.64157 0.31755 0.21491 0.0
C155 C 0.60707 0.32204 0.19415 0.0
C156 C 0.61694 0.37838 0.14315 0.0
C157 C 0.65154 0.37497 0.16147 0.0
H158 H 0.5907 0.30038 0.20038 0.0
H159 H 0.60729 0.40206 0.11379 0.0
H160 H 0.51047 0.36374 0.37047 0.0
H161 H 0.58726 0.42961 0.46812 0.0
H162 H 0.54931 0.29908 0.84111 0.0
H163 H 0.65017 0.29328 0.24304 0.0
H164 H 0.66812 0.39616 0.1454 0.0
C165 C 0.06697 0.57869 0.81703 0.0
C166 C 0.0599 0.57536 0.91669 0.0
N167 N 0.07186 0.54522 0.94801 0.0
N168 N 0.08422 0.55123 0.78479 0.0
C169 C 0.08485 0.53036 0.86516 0.0
H170 H 0.06124 0.60067 0.77179 0.0
Co171 Co 0.10079 0.54879 0.65229 0.0
C172 C 0.1636 0.52088 0.76618 0.0
O173 O 0.15278 0.52743 0.85644 0.0
N174 N 0.11511 0.54703 0.51901 0.0
C175 C 0.14539 0.54856 0.37903 0.0
C176 C 0.14628 0.55271 0.48115 0.0
C177 C 0.09555 0.54058 0.43833 0.0
N178 N 0.11338 0.54088 0.35246 0.0
O179 O 0.08002 0.505 0.63513 0.0
H180 H 0.1679 0.56077 0.52441 0.0
H181 H 0.06857 0.5362 0.44179 0.0
O182 O 0.14514 0.52832 0.6904 0.0
C183 C 0.04882 0.51033 0.61582 0.0
O184 O 0.03729 0.54139 0.62702 0.0
N185 N 0.1186 0.59305 0.66457 0.0
C186 C 0.12826 0.66238 0.6981 0.0
C187 C 0.14467 0.63812 0.75771 0.0
C188 C 0.13955 0.60358 0.73961 0.0
C189 C 0.10403 0.61621 0.60235 0.0
C190 C 0.10891 0.6509 0.61683 0.0
H191 H 0.15018 0.58578 0.79144 0.0
H192 H 0.08683 0.60783 0.54454 0.0
H193 H 0.0959 0.50525 0.86431 0.0
H194 H 0.04927 0.5949 0.96407 0.0
H195 H 0.1663 0.55234 0.3279 0.0
H196 H 0.15944 0.64558 0.82219 0.0
H197 H 0.09627 0.66855 0.5673 0.0
C198 C 0.89232 0.05835 0.32564 0.0
C199 C 0.89619 0.05315 0.4262 0.0
N200 N 0.92249 0.07193 0.45816 0.0
N201 N 0.9155 0.08102 0.29332 0.0
C202 C 0.93478 0.08717 0.37513 0.0
H203 H 0.87302 0.0467 0.28016 0.0
Co204 Co 0.91737 0.09895 0.16161 0.0
C205 C 0.93311 0.16101 0.2867 0.0
O206 O 0.91178 0.15197 0.3572 0.0
N207 N 0.91918 0.11504 0.03109 0.0
C208 C 0.9199 0.14682 0.89423 0.0
C209 C 0.91627 0.14702 0.99652 0.0
C210 C 0.92413 0.09588 0.94881 0.0
N211 N 0.92495 0.11456 0.86423 0.0
O212 O 0.96199 0.08023 0.14469 0.0
H213 H 0.91139 0.16904 0.0423 0.0
H214 H 0.92726 0.06867 0.95118 0.0
O215 O 0.93665 0.14238 0.20892 0.0
C216 C 0.959 0.04856 0.1279 0.0
O217 O 0.9286 0.03505 0.13323 0.0
N218 N 0.87211 0.11445 0.17169 0.0
C219 C 0.80271 0.1227 0.20458 0.0
C220 C 0.82512 0.15004 0.21709 0.0
C221 C 0.85972 0.14562 0.19762 0.0
C222 C 0.85018 0.08927 0.1462 0.0
C223 C 0.8155 0.09261 0.16321 0.0
H224 H 0.87603 0.1673 0.20451 0.0
H225 H 0.85999 0.06562 0.11723 0.0
H226 H 0.95644 0.10396 0.37512 0.0
H227 H 0.87933 0.0385 0.47317 0.0
H228 H 0.91805 0.1687 0.84572 0.0
H229 H 0.81637 0.17427 0.24492 0.0
H230 H 0.79902 0.07141 0.14647 0.0
C231 C 0.3995 0.88815 0.81146 0.0
C232 C 0.40666 0.89147 0.91107 0.0
N233 N 0.39505 0.92176 0.94223 0.0
N234 N 0.38252 0.91576 0.77907 0.0
C235 C 0.38222 0.93672 0.85927 0.0
H236 H 0.40499 0.86608 0.7664 0.0
Co237 Co 0.36585 0.9185 0.64657 0.0
C238 C 0.30325 0.94554 0.76272 0.0
O239 O 0.31459 0.93851 0.85212 0.0
N240 N 0.3515 0.92057 0.51327 0.0
C241 C 0.32132 0.91943 0.37306 0.0
C242 C 0.32031 0.91524 0.47518 0.0
C243 C 0.37119 0.92683 0.43268 0.0
N244 N 0.35342 0.92676 0.34667 0.0
O245 O 0.38635 0.96246 0.63028 0.0
H246 H 0.29859 0.90734 0.51822 0.0
H247 H 0.39823 0.93086 0.43632 0.0
O248 O 0.32134 0.93863 0.68571 0.0
C249 C 0.41755 0.95731 0.61053 0.0
O250 O 0.42927 0.92631 0.62147 0.0
N251 N 0.3483 0.87409 0.65769 0.0
C252 C 0.33875 0.8046 0.68861 0.0
C253 C 0.32208 0.82856 0.74857 0.0
C254 C 0.32715 0.86317 0.7318 0.0
C255 C 0.36315 0.85123 0.59514 0.0
C256 C 0.35836 0.81646 0.60834 0.0
H257 H 0.31624 0.8807 0.78385 0.0
H258 H 0.38048 0.85992 0.53805 0.0
H259 H 0.37132 0.96191 0.8583 0.0
H260 H 0.41709 0.87184 0.95854 0.0
H261 H 0.30041 0.91586 0.32178 0.0
H262 H 0.30711 0.82079 0.81234 0.0
H263 H 0.37121 0.79906 0.5586 0.0
C264 C 0.43146 0.01704 0.55124 0.0
C265 C 0.43837 0.98202 0.55373 0.0
H266 H 0.44818 0.06623 0.50062 0.0
C267 C 0.46579 0.96953 0.4978 0.0
H268 H 0.41024 0.02733 0.59261 0.0
C269 C 0.48661 0.99128 0.44417 0.0
C270 C 0.48111 0.02639 0.44535 0.0
H271 H 0.47148 0.94267 0.49541 0.0
H272 H 0.50783 0.98045 0.40388 0.0
C273 C 0.45289 0.03919 0.49778 0.0
C274 C 0.45489 0.42755 0.01956 0.0
C275 C 0.48054 0.4406 0.08183 0.0
H276 H 0.41473 0.4394 0.91559 0.0
C277 C 0.48316 0.47578 0.09402 0.0
H278 H 0.45255 0.40046 1.00819 0.0
C279 C 0.46236 0.49763 0.04063 0.0
C280 C 0.43804 0.48506 0.97357 0.0
H281 H 0.5024 0.48662 0.14217 0.0
H282 H 0.46592 0.52465 0.05084 0.0
C283 C 0.43355 0.44975 0.96593 0.0
C284 C 0.97885 0.47658 0.45241 0.0
C285 C 0.9847 0.44151 0.45164 0.0
H286 H 0.99387 0.52505 0.50491 0.0
C287 C 0.01331 0.4287 0.50216 0.0
H288 H 0.95732 0.48744 0.41367 0.0
C289 C 0.03486 0.45076 0.55542 0.0
C290 C 0.02771 0.48571 0.55966 0.0
H291 H 0.0183 0.4017 0.50348 0.0
H292 H 0.05644 0.44045 0.59513 0.0
C293 C -0.00019 0.49823 0.50587 0.0
C294 C 0.98469 0.9922 0.10423 0.0
C295 C 0.98693 0.02728 0.08941 0.0
H296 H 0.00228 0.94315 0.06403 0.0
C297 C 0.01232 0.04008 0.02572 0.0
H298 H 0.96565 0.98158 0.1535 0.0
C299 C 0.03372 0.01766 0.97315 0.0
C300 C 0.02955 0.98239 0.98332 0.0
H301 H 0.01434 0.06709 1.01231 0.0
H302 H 0.05226 0.02777 0.92152 0.0
C303 C 0.00557 0.97012 0.05194 0.0
C304 C 0.519 0.21646 0.36369 0.0
C305 C 0.5144 0.2003 0.27129 0.0
H306 H 0.52875 0.26325 0.43956 0.0
C307 C 0.50865 0.22048 0.18613 0.0
H308 H 0.52206 0.20191 0.43134 0.0
C309 C 0.51156 0.25575 0.19115 0.0
C310 C 0.52078 0.27148 0.28111 0.0
H311 H 0.50409 0.20895 0.11396 0.0
H312 H 0.50911 0.27029 0.12297 0.0
C313 C 0.5226 0.25171 0.36841 0.0
C314 C 0.22057 0.5079 0.83869 0.0
C315 C 0.20031 0.51376 0.7538 0.0
H316 H 0.27047 0.50796 0.901 0.0
C317 C 0.21634 0.51798 0.66106 0.0
H318 H 0.20914 0.50354 0.9111 0.0
C319 C 0.25159 0.52136 0.65577 0.0
C320 C 0.27147 0.51961 0.74282 0.0
H321 H 0.20171 0.52095 0.59357 0.0
H322 H 0.26303 0.52734 0.58437 0.0
C323 C 0.25584 0.5105 0.83306 0.0
C324 C 0.95516 0.21217 0.19699 0.0
C325 C 0.94571 0.19636 0.28666 0.0
H326 H 0.96282 0.25904 0.12022 0.0
C327 C 0.94362 0.21606 0.37399 0.0
H328 H 0.95783 0.19768 0.12882 0.0
C329 C 0.94719 0.25132 0.36953 0.0
C330 C 0.95205 0.26755 0.27733 0.0
H331 H 0.93729 0.20446 0.44494 0.0
H332 H 0.94393 0.26582 0.43716 0.0
C333 C 0.95806 0.24745 0.19222 0.0
C334 C 0.24957 0.9477 0.66162 0.0
C335 C 0.26643 0.95252 0.7528 0.0
H336 H 0.20225 0.93769 0.58917 0.0
C337 C 0.24691 0.95868 0.83902 0.0
H338 H 0.26359 0.94439 0.59317 0.0
C339 C 0.21162 0.95583 0.8364 0.0
C340 C 0.19523 0.9462 0.74786 0.0
H341 H 0.259 0.96346 0.91028 0.0
H342 H 0.19761 0.95858 0.90537 0.0
C343 C 0.21432 0.94411 0.65934 0.0
C344 C 0.31012 0.75229 0.75863 0.0
C345 C 0.33877 0.76793 0.71604 0.0
H346 H 0.2892 0.70746 0.82508 0.0
C347 C 0.36856 0.7487 0.70513 0.0
H348 H 0.28664 0.7662 0.76754 0.0
C349 C 0.36982 0.71501 0.73639 0.0
C350 C 0.34153 0.69953 0.78105 0.0
H351 H 0.39139 0.75984 0.67461 0.0
H352 H 0.39318 0.70109 0.72535 0.0
C353 C 0.31148 0.71848 0.79085 0.0
C354 C 0.75257 0.31158 0.26372 0.0
C355 C 0.76796 0.3404 0.3061 0.0
H356 H 0.70809 0.29035 0.19633 0.0
C357 C 0.74868 0.37023 0.31533 0.0
H358 H 0.76652 0.28808 0.25604 0.0
C359 C 0.71514 0.37135 0.28272 0.0
C360 C 0.69988 0.34284 0.23849 0.0
H361 H 0.75966 0.39318 0.34566 0.0
H362 H 0.70114 0.39473 0.29261 0.0
C363 C 0.71893 0.31279 0.23021 0.0
C364 C 0.09718 0.75185 0.74746 0.0
C365 C 0.12537 0.76716 0.79322 0.0
H366 H 0.07573 0.70726 0.68406 0.0
C367 C 0.15532 0.7481 0.80361 0.0
H368 H 0.0739 0.76586 0.73594 0.0
C369 C 0.15672 0.71437 0.7707 0.0
C370 C 0.12819 0.69893 0.7268 0.0
H371 H 0.17751 0.75898 0.83872 0.0
H372 H 0.18013 0.70039 0.78 0.0
C373 C 0.09848 0.71825 0.71552 0.0
C374 C 0.74771 0.1547 0.22926 0.0
C375 C 0.76674 0.12466 0.2382 0.0
H376 H 0.69999 0.17938 0.2534 0.0
C377 C 0.75129 0.09611 0.28168 0.0
H378 H 0.75867 0.17717 0.1959 0.0
C379 C 0.71761 0.09719 0.31299 0.0
C380 C 0.69836 0.12702 0.30322 0.0
H381 H 0.76525 0.07272 0.29203 0.0
H382 H 0.70651 0.07421 0.34282 0.0
C383 C 0.71392 0.15587 0.26148 0.0
C384 C 0.54716 0.0672 0.79882 0.0
C385 C 0.53476 0.09943 0.77305 0.0
H386 H 0.55934 0.03269 0.91719 0.0
C387 C 0.52033 0.11977 0.84787 0.0
H388 H 0.55832 0.05092 0.74267 0.0
C389 C 0.52036 0.10908 0.94749 0.0
C390 C 0.53562 0.07819 0.97478 0.0
H391 H 0.50998 0.14444 0.82961 0.0
H392 H 0.51043 0.12608 1.00346 0.0
C393 C 0.54777 0.05679 0.89872 0.0
C394 C 0.40905 0.54713 0.38957 0.0
C395 C 0.38662 0.5381 0.46668 0.0
H396 H 0.41586 0.55677 0.23421 0.0
C397 C 0.35351 0.5281 0.44113 0.0
H398 H 0.43484 0.55454 0.40637 0.0
C399 C 0.34254 0.5292 0.34178 0.0
C400 C 0.36441 0.54022 0.26535 0.0
H401 H 0.33545 0.52103 0.49816 0.0
H402 H 0.31669 0.522 0.32536 0.0
C403 C 0.39811 0.54825 0.29037 0.0
C404 C 0.94568 0.35881 0.95312 0.0
C405 C 0.93038 0.38967 0.98037 0.0
H406 H 0.95606 0.32345 0.83533 0.0
C407 C 0.91813 0.41103 0.90428 0.0
H408 H 0.95568 0.34184 1.0091 0.0
C409 C 0.9187 0.4006 0.80442 0.0
C410 C 0.93116 0.36839 0.77872 0.0
H411 H 0.90653 0.43511 0.92271 0.0
H412 H 0.90749 0.41685 0.74825 0.0
C413 C 0.94567 0.3481 0.85355 0.0
C414 C 0.06911 0.91826 0.30063 0.0
C415 C 0.10277 0.92654 0.27572 0.0
H416 H 0.03235 0.91173 0.41644 0.0
C417 C 0.12454 0.93761 0.35233 0.0
H418 H 0.05143 0.90969 0.24439 0.0
C419 C 0.11352 0.93857 0.45166 0.0
C420 C 0.08043 0.92841 0.47705 0.0
H421 H 0.15036 0.94498 0.3361 0.0
H422 H 0.13152 0.94571 0.50878 0.0
C423 C 0.05811 0.91927 0.3998 0.0
C424 C 0.52734 0.35409 0.58203 0.0
C425 C 0.53788 0.38703 0.55628 0.0
H426 H 0.52031 0.31757 0.69833 0.0
C427 C 0.54667 0.40959 0.63334 0.0
H428 H 0.52045 0.33595 0.52499 0.0
C429 C 0.54707 0.39888 0.73286 0.0
C430 C 0.53863 0.36529 0.75805 0.0
H431 H 0.5545 0.43525 0.61627 0.0
H432 H 0.55551 0.4166 0.78923 0.0
C433 C 0.52777 0.34335 0.68163 0.0
C434 C 0.10979 0.52193 0.07833 0.0
C435 C 0.07883 0.53705 0.05114 0.0
H436 H 0.14532 0.51188 0.19589 0.0
C437 C 0.0576 0.54947 0.1272 0.0
H438 H 0.12664 0.51175 0.02241 0.0
C439 C 0.06821 0.54922 0.22687 0.0
C440 C 0.10047 0.53689 0.25249 0.0
H441 H 0.03345 0.56093 0.10886 0.0
H442 H 0.05199 0.56051 0.28294 0.0
C443 C 0.12067 0.52224 0.17774 0.0
C444 C 0.93973 0.11366 0.58673 0.0
C445 C 0.929 0.08078 0.56107 0.0
H446 H 0.94705 0.15012 0.70298 0.0
C447 C 0.92018 0.05825 0.63819 0.0
H448 H 0.94664 0.13179 0.52963 0.0
C449 C 0.91993 0.06893 0.73773 0.0
C450 C 0.92857 0.10247 0.76285 0.0
H451 H 0.9122 0.03263 0.62118 0.0
H452 H 0.91147 0.05124 0.79418 0.0
C453 C 0.93945 0.12438 0.68633 0.0
C454 C 0.39852 0.91774 0.22122 0.0
C455 C 0.36645 0.93056 0.24672 0.0
H456 H 0.43315 0.90549 0.10336 0.0
C457 C 0.34651 0.94551 0.17183 0.0
H458 H 0.41455 0.90622 0.27739 0.0
C459 C 0.35743 0.94566 0.07244 0.0
C460 C 0.38816 0.93005 0.04536 0.0
H461 H 0.32201 0.95625 0.18988 0.0
H462 H 0.34076 0.95612 0.01646 0.0
C463 C 0.40917 0.91731 0.12156 0.0
loop_
_geom_bond_atom_site_label_1
_geom_bond_atom_site_label_2
_geom_bond_distance
_geom_bond_site_symmetry_2
_ccdc_geom_bond_type
C0 C1 1.351 . S
C0 N3 1.368 . S
C0 H5 0.931 . S
C1 C0 1.351 . S
C1 N2 1.373 . S
C1 H29 0.937 . S
N2 C1 1.373 . S
N2 C4 1.340 . S
N3 C0 1.368 . S
N3 C4 1.321 . S
N3 Co6 2.135 . S
C4 N2 1.340 . S
C4 N3 1.321 . S
C4 H28 0.930 . S
H5 C0 0.931 . S
Co6 N3 2.135 . S
Co6 N9 2.121 . S
Co6 O14 2.055 . S
Co6 O17 2.039 . S
Co6 N20 2.140 . S
C7 O8 1.227 . S
C7 O17 1.265 . S
O8 C7 1.227 . S
N9 Co6 2.121 . S
N9 C11 1.375 . S
N9 C12 1.313 . S
C10 C11 1.338 . S
C10 N13 1.377 . S
C10 H30 0.930 . S
C11 N9 1.375 . S
C11 C10 1.338 . S
C11 H15 0.931 . S
C12 N9 1.313 . S
C12 N13 1.344 . S
C12 H16 0.930 . S
N13 C10 1.377 . S
N13 C12 1.344 . S
O14 Co6 2.055 . S
O14 C18 1.253 . S
H15 C11 0.931 . S
H16 C12 0.930 . S
O17 Co6 2.039 . S
O17 C7 1.265 . S
C18 O14 1.253 . S
C18 O19 1.227 . S
O19 C18 1.227 . S
N20 Co6 2.140 . S
N20 C23 1.346 . S
N20 C24 1.345 . S
C21 C22 1.387 . S
C21 C25 1.391 . S
C22 C21 1.387 . S
C22 C23 1.369 . S
C22 H31 0.929 . S
C23 N20 1.346 . S
C23 C22 1.369 . S
C23 H26 0.928 . S
C24 N20 1.345 . S
C24 C25 1.371 . S
C24 H27 0.931 . S
C25 C21 1.391 . S
C25 C24 1.371 . S
C25 H32 0.930 . S
H26 C23 0.928 . S
H27 C24 0.931 . S
H28 C4 0.930 . S
H29 C1 0.937 . S
H30 C10 0.930 . S
H31 C22 0.929 . S
H32 C25 0.930 . S
C33 C34 1.351 . S
C33 N36 1.368 . S
C33 H38 0.931 . S
C34 C33 1.351 . S
C34 N35 1.373 . S
C34 H62 0.930 . S
N35 C34 1.373 . S
N35 C37 1.340 . S
N36 C33 1.368 . S
N36 C37 1.321 . S
N36 Co39 2.135 . S
C37 N35 1.340 . S
C37 N36 1.321 . S
C37 H61 0.930 . S
H38 C33 0.931 . S
Co39 N36 2.135 . S
Co39 N42 2.121 . S
Co39 O47 2.055 . S
Co39 O50 2.039 . S
Co39 N53 2.140 . S
C40 O41 1.227 . S
C40 O50 1.265 . S
O41 C40 1.227 . S
N42 Co39 2.121 . S
N42 C44 1.372 1_556 S
N42 C45 1.313 1_556 S
C43 C44 1.347 . S
C43 N46 1.377 . S
C43 H63 0.930 . S
C44 N42 1.372 1_554 S
C44 C43 1.347 . S
C44 H48 0.925 1_554 S
C45 N42 1.313 1_554 S
C45 N46 1.344 . S
C45 H49 0.930 . S
N46 C43 1.377 . S
N46 C45 1.344 . S
O47 Co39 2.055 . S
O47 C51 1.253 . S
H48 C44 0.925 1_556 S
H49 C45 0.930 . S
O50 Co39 2.039 . S
O50 C40 1.265 . S
C51 O47 1.253 . S
C51 O52 1.227 . S
O52 C51 1.227 . S
N53 Co39 2.140 . S
N53 C56 1.346 . S
N53 C57 1.345 . S
C54 C55 1.387 . S
C54 C58 1.391 . S
C55 C54 1.387 . S
C55 C56 1.369 . S
C55 H64 0.929 . S
C56 N53 1.346 . S
C56 C55 1.369 . S
C56 H59 0.928 . S
C57 N53 1.345 . S
C57 C58 1.371 . S
C57 H60 0.931 . S
C58 C54 1.391 . S
C58 C57 1.371 . S
C58 H65 0.930 . S
H59 C56 0.928 . S
H60 C57 0.931 . S
H61 C37 0.930 . S
H62 C34 0.930 . S
H63 C43 0.930 . S
H64 C55 0.929 . S
H65 C58 0.930 . S
C66 C67 1.351 . S
C66 N69 1.368 . S
C66 H71 0.931 . S
C67 C66 1.351 . S
C67 N68 1.373 . S
C67 H95 0.937 . S
N68 C67 1.373 . S
N68 C70 1.340 . S
N69 C66 1.368 . S
N69 C70 1.321 . S
N69 Co72 2.135 . S
C70 N68 1.340 . S
C70 N69 1.321 . S
C70 H94 0.930 . S
H71 C66 0.931 . S
Co72 N69 2.135 . S
Co72 N75 2.121 . S
Co72 O80 2.055 . S
Co72 O83 2.039 . S
Co72 N86 2.140 . S
C73 O74 1.227 . S
C73 O83 1.265 . S
O74 C73 1.227 . S
N75 Co72 2.121 . S
N75 C77 1.375 . S
N75 C78 1.313 . S
C76 C77 1.338 . S
C76 N79 1.377 . S
C76 H96 0.930 . S
C77 N75 1.375 . S
C77 C76 1.338 . S
C77 H81 0.931 . S
C78 N75 1.313 . S
C78 N79 1.344 . S
C78 H82 0.930 . S
N79 C76 1.377 . S
N79 C78 1.344 . S
O80 Co72 2.055 . S
O80 C84 1.253 . S
H81 C77 0.931 . S
H82 C78 0.930 . S
O83 Co72 2.039 . S
O83 C73 1.265 . S
C84 O80 1.253 . S
C84 O85 1.227 . S
O85 C84 1.227 . S
N86 Co72 2.140 . S
N86 C89 1.346 . S
N86 C90 1.345 . S
C87 C88 1.387 . S
C87 C91 1.391 . S
C88 C87 1.387 . S
C88 C89 1.369 . S
C88 H97 0.929 . S
C89 N86 1.346 . S
C89 C88 1.369 . S
C89 H92 0.928 . S
C90 N86 1.345 . S
C90 C91 1.371 . S
C90 H93 0.931 . S
C91 C87 1.391 . S
C91 C90 1.371 . S
C91 H98 0.930 . S
H92 C89 0.928 . S
H93 C90 0.931 . S
H94 C70 0.930 . S
H95 C67 0.937 . S
H96 C76 0.930 . S
H97 C88 0.929 . S
H98 C91 0.930 . S
C99 C100 1.351 . S
C99 N102 1.368 . S
C99 H104 0.931 . S
C100 C99 1.351 . S
C100 N101 1.373 . S
C100 H128 0.930 . S
N101 C100 1.373 . S
N101 C103 1.340 . S
N102 C99 1.368 . S
N102 C103 1.321 . S
N102 Co105 2.135 . S
C103 N101 1.340 . S
C103 N102 1.321 . S
C103 H127 0.930 . S
H104 C99 0.931 . S
Co105 N102 2.135 . S
Co105 N108 2.121 . S
Co105 O113 2.055 . S
Co105 O116 2.039 . S
Co105 N119 2.140 . S
C106 O107 1.227 . S
C106 O116 1.265 . S
O107 C106 1.227 . S
N108 Co105 2.121 . S
N108 C110 1.372 1_556 S
N108 C111 1.313 1_556 S
C109 C110 1.347 . S
C109 N112 1.377 . S
C109 H129 0.930 . S
C110 N108 1.372 1_554 S
C110 C109 1.347 . S
C110 H114 0.925 1_554 S
C111 N108 1.313 1_554 S
C111 N112 1.344 . S
C111 H115 0.930 . S
N112 C109 1.377 . S
N112 C111 1.344 . S
O113 Co105 2.055 . S
O113 C117 1.253 . S
H114 C110 0.925 1_556 S
H115 C111 0.930 . S
O116 Co105 2.039 . S
O116 C106 1.265 . S
C117 O113 1.253 . S
C117 O118 1.227 . S
O118 C117 1.227 . S
N119 Co105 2.140 . S
N119 C122 1.346 . S
N119 C123 1.345 . S
C120 C121 1.387 . S
C120 C124 1.391 . S
C121 C120 1.387 . S
C121 C122 1.369 . S
C121 H130 0.929 . S
C122 N119 1.346 . S
C122 C121 1.369 . S
C122 H125 0.928 . S
C123 N119 1.345 . S
C123 C124 1.371 . S
C123 H126 0.931 . S
C124 C120 1.391 . S
C124 C123 1.371 . S
C124 H131 0.930 . S
H125 C122 0.928 . S
H126 C123 0.931 . S
H127 C103 0.930 . S
H128 C100 0.930 . S
H129 C109 0.930 . S
H130 C121 0.929 . S
H131 C124 0.930 . S
C132 C133 1.351 . S
C132 N135 1.368 . S
C132 H137 0.931 . S
C133 C132 1.351 . S
C133 N134 1.373 . S
C133 H161 0.930 . S
N134 C133 1.373 . S
N134 C136 1.340 . S
N135 C132 1.368 . S
N135 C136 1.321 . S
N135 Co138 2.135 . S
C136 N134 1.340 . S
C136 N135 1.321 . S
C136 H160 0.930 . S
H137 C132 0.931 . S
Co138 N135 2.135 . S
Co138 N141 2.121 . S
Co138 O146 2.055 . S
Co138 O149 2.039 . S
Co138 N152 2.140 . S
C139 O140 1.227 . S
C139 O149 1.265 . S
O140 C139 1.227 . S
N141 Co138 2.121 . S
N141 C143 1.372 1_554 S
N141 C144 1.313 1_554 S
C142 C143 1.347 . S
C142 N145 1.377 . S
C142 H162 0.930 . S
C143 N141 1.372 1_556 S
C143 C142 1.347 . S
C143 H147 0.925 1_556 S
C144 N141 1.313 1_556 S
C144 N145 1.344 . S
C144 H148 0.930 . S
N145 C142 1.377 . S
N145 C144 1.344 . S
O146 Co138 2.055 . S
O146 C150 1.253 . S
H147 C143 0.925 1_554 S
H148 C144 0.930 . S
O149 Co138 2.039 . S
O149 C139 1.265 . S
C150 O146 1.253 . S
C150 O151 1.227 . S
O151 C150 1.227 . S
N152 Co138 2.140 . S
N152 C155 1.346 . S
N152 C156 1.345 . S
C153 C154 1.387 . S
C153 C157 1.391 . S
C154 C153 1.387 . S
C154 C155 1.369 . S
C154 H163 0.929 . S
C155 N152 1.346 . S
C155 C154 1.369 . S
C155 H158 0.928 . S
C156 N152 1.345 . S
C156 C157 1.371 . S
C156 H159 0.931 . S
C157 C153 1.391 . S
C157 C156 1.371 . S
C157 H164 0.930 . S
H158 C155 0.928 . S
H159 C156 0.931 . S
H160 C136 0.930 . S
H161 C133 0.930 . S
H162 C142 0.930 . S
H163 C154 0.929 . S
H164 C157 0.930 . S
C165 C166 1.351 . S
C165 N168 1.368 . S
C165 H170 0.931 . S
C166 C165 1.351 . S
C166 N167 1.373 . S
C166 H194 0.937 . S
N167 C166 1.373 . S
N167 C169 1.340 . S
N168 C165 1.368 . S
N168 C169 1.321 . S
N168 Co171 2.135 . S
C169 N167 1.340 . S
C169 N168 1.321 . S
C169 H193 0.930 . S
H170 C165 0.931 . S
Co171 N168 2.135 . S
Co171 N174 2.121 . S
Co171 O179 2.055 . S
Co171 O182 2.039 . S
Co171 N185 2.140 . S
C172 O173 1.227 . S
C172 O182 1.265 . S
O173 C172 1.227 . S
N174 Co171 2.121 . S
N174 C176 1.375 . S
N174 C177 1.313 . S
C175 C176 1.338 . S
C175 N178 1.377 . S
C175 H195 0.930 . S
C176 N174 1.375 . S
C176 C175 1.338 . S
C176 H180 0.931 . S
C177 N174 1.313 . S
C177 N178 1.344 . S
C177 H181 0.930 . S
N178 C175 1.377 . S
N178 C177 1.344 . S
O179 Co171 2.055 . S
O179 C183 1.253 . S
H180 C176 0.931 . S
H181 C177 0.930 . S
O182 Co171 2.039 . S
O182 C172 1.265 . S
C183 O179 1.253 . S
C183 O184 1.227 . S
O184 C183 1.227 . S
N185 Co171 2.140 . S
N185 C188 1.346 . S
N185 C189 1.345 . S
C186 C187 1.387 . S
C186 C190 1.391 . S
C187 C186 1.387 . S
C187 C188 1.369 . S
C187 H196 0.929 . S
C188 N185 1.346 . S
C188 C187 1.369 . S
C188 H191 0.928 . S
C189 N185 1.345 . S
C189 C190 1.371 . S
C189 H192 0.931 . S
C190 C186 1.391 . S
C190 C189 1.371 . S
C190 H197 0.930 . S
H191 C188 0.928 . S
H192 C189 0.931 . S
H193 C169 0.930 . S
H194 C166 0.937 . S
H195 C175 0.930 . S
H196 C187 0.929 . S
H197 C190 0.930 . S
C198 C199 1.351 . S
C198 N201 1.368 . S
C198 H203 0.931 . S
C199 C198 1.351 . S
C199 N200 1.373 . S
C199 H227 0.930 . S
N200 C199 1.373 . S
N200 C202 1.340 . S
N201 C198 1.368 . S
N201 C202 1.321 . S
N201 Co204 2.135 . S
C202 N200 1.340 . S
C202 N201 1.321 . S
C202 H226 0.930 . S
H203 C198 0.931 . S
Co204 N201 2.135 . S
Co204 N207 2.121 . S
Co204 O212 2.055 . S
Co204 O215 2.039 . S
Co204 N218 2.140 . S
C205 O206 1.227 . S
C205 O215 1.265 . S
O206 C205 1.227 . S
N207 Co204 2.121 . S
N207 C209 1.372 1_554 S
N207 C210 1.313 1_554 S
C208 C209 1.347 . S
C208 N211 1.377 . S
C208 H228 0.930 . S
C209 N207 1.372 1_556 S
C209 C208 1.347 . S
C209 H213 0.925 1_556 S
C210 N207 1.313 1_556 S
C210 N211 1.344 . S
C210 H214 0.930 . S
N211 C208 1.377 . S
N211 C210 1.344 . S
O212 Co204 2.055 . S
O212 C216 1.253 . S
H213 C209 0.925 1_554 S
H214 C210 0.930 . S
O215 Co204 2.039 . S
O215 C205 1.265 . S
C216 O212 1.253 . S
C216 O217 1.227 . S
O217 C216 1.227 . S
N218 Co204 2.140 . S
N218 C221 1.346 . S
N218 C222 1.345 . S
C219 C220 1.387 . S
C219 C223 1.391 . S
C220 C219 1.387 . S
C220 C221 1.369 . S
C220 H229 0.929 . S
C221 N218 1.346 . S
C221 C220 1.369 . S
C221 H224 0.928 . S
C222 N218 1.345 . S
C222 C223 1.371 . S
C222 H225 0.931 . S
C223 C219 1.391 . S
C223 C222 1.371 . S
C223 H230 0.930 . S
H224 C221 0.928 . S
H225 C222 0.931 . S
H226 C202 0.930 . S
H227 C199 0.930 . S
H228 C208 0.930 . S
H229 C220 0.929 . S
H230 C223 0.930 . S
C231 C232 1.351 . S
C231 N234 1.368 . S
C231 H236 0.931 . S
C232 C231 1.351 . S
C232 N233 1.373 . S
C232 H260 0.937 . S
N233 C232 1.373 . S
N233 C235 1.340 . S
N234 C231 1.368 . S
N234 C235 1.321 . S
N234 Co237 2.135 . S
C235 N233 1.340 . S
C235 N234 1.321 . S
C235 H259 0.930 . S
H236 C231 0.931 . S
Co237 N234 2.135 . S
Co237 N240 2.121 . S
Co237 O245 2.055 . S
Co237 O248 2.039 . S
Co237 N251 2.140 . S
C238 O239 1.227 . S
C238 O248 1.265 . S
O239 C238 1.227 . S
N240 Co237 2.121 . S
N240 C242 1.375 . S
N240 C243 1.313 . S
C241 C242 1.338 . S
C241 N244 1.377 . S
C241 H261 0.930 . S
C242 N240 1.375 . S
C242 C241 1.338 . S
C242 H246 0.931 . S
C243 N240 1.313 . S
C243 N244 1.344 . S
C243 H247 0.930 . S
N244 C241 1.377 . S
N244 C243 1.344 . S
O245 Co237 2.055 . S
O245 C249 1.253 . S
H246 C242 0.931 . S
H247 C243 0.930 . S
O248 Co237 2.039 . S
O248 C238 1.265 . S
C249 O245 1.253 . S
C249 O250 1.227 . S
O250 C249 1.227 . S
N251 Co237 2.140 . S
N251 C254 1.346 . S
N251 C255 1.345 . S
C252 C253 1.387 . S
C252 C256 1.391 . S
C253 C252 1.387 . S
C253 C254 1.369 . S
C253 H262 0.929 . S
C254 N251 1.346 . S
C254 C253 1.369 . S
C254 H257 0.928 . S
C255 N251 1.345 . S
C255 C256 1.371 . S
C255 H258 0.931 . S
C256 C252 1.391 . S
C256 C255 1.371 . S
C256 H263 0.930 . S
H257 C254 0.928 . S
H258 C255 0.931 . S
H259 C235 0.930 . S
H260 C232 0.937 . S
H261 C241 0.930 . S
H262 C253 0.929 . S
H263 C256 0.930 . S
C264 C265 1.387 1_545 S
C264 H268 0.950 . S
C264 C273 1.390 . S
C265 C264 1.387 1_565 S
C265 C267 1.387 . S
H266 C273 0.950 . S
C267 C265 1.387 . S
C267 C269 1.390 . S
C267 H271 0.950 . S
H268 C264 0.950 . S
C269 C267 1.390 . S
C269 C270 1.387 1_565 S
C269 H272 0.950 . S
C270 C269 1.387 1_545 S
C270 C273 1.387 . S
H271 C267 0.950 . S
H272 C269 0.950 . S
C273 C264 1.390 . S
C273 H266 0.950 . S
C273 C270 1.387 . S
C274 C275 1.387 1_556 S
C274 H278 0.950 . S
C274 C283 1.390 . S
C275 C274 1.387 1_554 S
C275 C277 1.387 . S
H276 C283 0.950 . S
C277 C275 1.387 . S
C277 C279 1.390 . S
C277 H281 0.950 . S
H278 C274 0.950 . S
C279 C277 1.390 . S
C279 C280 1.387 1_554 S
C279 H282 0.950 . S
C280 C279 1.387 1_556 S
C280 C283 1.387 . S
H281 C277 0.950 . S
H282 C279 0.950 . S
C283 C274 1.390 . S
C283 H276 0.950 . S
C283 C280 1.387 . S
C284 C285 1.397 . S
C284 H288 0.950 . S
C284 C293 1.381 1_655 S
C285 C284 1.397 . S
C285 C287 1.387 . S
H286 C293 0.950 . S
C287 C285 1.387 . S
C287 C289 1.390 . S
C287 H291 0.950 . S
H288 C284 0.950 . S
C289 C287 1.390 . S
C289 C290 1.387 1_655 S
C289 H292 0.950 . S
C290 C289 1.387 1_455 S
C290 C293 1.387 . S
H291 C287 0.950 . S
H292 C289 0.950 . S
C293 C284 1.381 1_455 S
C293 H286 0.950 . S
C293 C290 1.387 . S
C294 C295 1.387 1_565 S
C294 H298 0.950 . S
C294 C303 1.390 1_655 S
C295 C294 1.387 1_545 S
C295 C297 1.387 1_554 S
H296 C303 0.950 . S
C297 C295 1.387 1_556 S
C297 C299 1.390 1_655 S
C297 H301 0.950 . S
H298 C294 0.950 . S
C299 C297 1.390 1_455 S
C299 C300 1.387 1_545 S
C299 H302 0.950 . S
C300 C299 1.387 1_565 S
C300 C303 1.387 1_556 S
H301 C297 0.950 . S
H302 C299 0.950 . S
C303 C294 1.390 1_455 S
C303 H296 0.950 . S
C303 C300 1.387 1_554 S
C304 C305 1.387 . S
C304 H308 0.950 . S
C304 C313 1.390 . S
C305 C304 1.387 . S
C305 C307 1.387 . S
H306 C313 0.950 . S
C307 C305 1.387 . S
C307 C309 1.390 . S
C307 H311 0.950 . S
H308 C304 0.950 . S
C309 C307 1.390 . S
C309 C310 1.387 . S
C309 H312 0.950 . S
C310 C309 1.387 . S
C310 C313 1.387 . S
H311 C307 0.950 . S
H312 C309 0.950 . S
C313 C304 1.390 . S
C313 H306 0.950 . S
C313 C310 1.387 . S
C314 C315 1.387 . S
C314 H318 0.950 . S
C314 C323 1.390 . S
C315 C314 1.387 . S
C315 C317 1.387 . S
H316 C323 0.950 . S
C317 C315 1.387 . S
C317 C319 1.390 . S
C317 H321 0.950 . S
H318 C314 0.950 . S
C319 C317 1.390 . S
C319 C320 1.387 . S
C319 H322 0.950 . S
C320 C319 1.387 . S
C320 C323 1.387 . S
H321 C317 0.950 . S
H322 C319 0.950 . S
C323 C314 1.390 . S
C323 H316 0.950 . S
C323 C320 1.387 . S
C324 C325 1.387 . S
C324 H328 0.950 . S
C324 C333 1.390 . S
C325 C324 1.387 . S
C325 C327 1.387 . S
H326 C333 0.950 . S
C327 C325 1.387 . S
C327 C329 1.390 . S
C327 H331 0.950 . S
H328 C324 0.950 . S
C329 C327 1.390 . S
C329 C330 1.387 . S
C329 H332 0.950 . S
C330 C329 1.387 . S
C330 C333 1.387 . S
H331 C327 0.950 . S
H332 C329 0.950 . S
C333 C324 1.390 . S
C333 H326 0.950 . S
C333 C330 1.387 . S
C334 C335 1.387 . S
C334 H338 0.950 . S
C334 C343 1.390 . S
C335 C334 1.387 . S
C335 C337 1.387 . S
H336 C343 0.950 . S
C337 C335 1.387 . S
C337 C339 1.390 . S
C337 H341 0.950 . S
H338 C334 0.950 . S
C339 C337 1.390 . S
C339 C340 1.387 . S
C339 H342 0.950 . S
C340 C339 1.387 . S
C340 C343 1.387 . S
H341 C337 0.950 . S
H342 C339 0.950 . S
C343 C334 1.390 . S
C343 H336 0.950 . S
C343 C340 1.387 . S
C344 C345 1.387 . S
C344 H348 0.950 . S
C344 C353 1.390 . S
C345 C344 1.387 . S
C345 C347 1.387 . S
H346 C353 0.950 . S
C347 C345 1.387 . S
C347 C349 1.390 . S
C347 H351 0.950 . S
H348 C344 0.950 . S
C349 C347 1.390 . S
C349 C350 1.387 . S
C349 H352 0.950 . S
C350 C349 1.387 . S
C350 C353 1.387 . S
H351 C347 0.950 . S
H352 C349 0.950 . S
C353 C344 1.390 . S
C353 H346 0.950 . S
C353 C350 1.387 . S
C354 C355 1.387 . S
C354 H358 0.950 . S
C354 C363 1.390 . S
C355 C354 1.387 . S
C355 C357 1.387 . S
H356 C363 0.950 . S
C357 C355 1.387 . S
C357 C359 1.390 . S
C357 H361 0.950 . S
H358 C354 0.950 . S
C359 C357 1.390 . S
C359 C360 1.387 . S
C359 H362 0.950 . S
C360 C359 1.387 . S
C360 C363 1.387 . S
H361 C357 0.950 . S
H362 C359 0.950 . S
C363 C354 1.390 . S
C363 H356 0.950 . S
C363 C360 1.387 . S
C364 C365 1.387 . S
C364 H368 0.950 . S
C364 C373 1.390 . S
C365 C364 1.387 . S
C365 C367 1.387 . S
H366 C373 0.950 . S
C367 C365 1.387 . S
C367 C369 1.390 . S
C367 H371 0.950 . S
H368 C364 0.950 . S
C369 C367 1.390 . S
C369 C370 1.387 . S
C369 H372 0.950 . S
C370 C369 1.387 . S
C370 C373 1.387 . S
H371 C367 0.950 . S
H372 C369 0.950 . S
C373 C364 1.390 . S
C373 H366 0.950 . S
C373 C370 1.387 . S
C374 C375 1.387 . S
C374 H378 0.950 . S
C374 C383 1.390 . S
C375 C374 1.387 . S
C375 C377 1.387 . S
H376 C383 0.950 . S
C377 C375 1.387 . S
C377 C379 1.390 . S
C377 H381 0.950 . S
H378 C374 0.950 . S
C379 C377 1.390 . S
C379 C380 1.387 . S
C379 H382 0.950 . S
C380 C379 1.387 . S
C380 C383 1.387 . S
H381 C377 0.950 . S
H382 C379 0.950 . S
C383 C374 1.390 . S
C383 H376 0.950 . S
C383 C380 1.387 . S
C384 C385 1.387 . S
C384 H388 0.950 . S
C384 C393 1.390 . S
C385 C384 1.387 . S
C385 C387 1.387 . S
H386 C393 0.950 . S
C387 C385 1.387 . S
C387 C389 1.390 . S
C387 H391 0.950 . S
H388 C384 0.950 . S
C389 C387 1.390 . S
C389 C390 1.387 . S
C389 H392 0.950 . S
C390 C389 1.387 . S
C390 C393 1.387 . S
H391 C387 0.950 . S
H392 C389 0.950 . S
C393 C384 1.390 . S
C393 H386 0.950 . S
C393 C390 1.387 . S
C394 C395 1.387 . S
C394 H398 0.950 . S
C394 C403 1.390 . S
C395 C394 1.387 . S
C395 C397 1.387 . S
H396 C403 0.950 . S
C397 C395 1.387 . S
C397 C399 1.390 . S
C397 H401 0.950 . S
H398 C394 0.950 . S
C399 C397 1.390 . S
C399 C400 1.387 . S
C399 H402 0.950 . S
C400 C399 1.387 . S
C400 C403 1.387 . S
H401 C397 0.950 . S
H402 C399 0.950 . S
C403 C394 1.390 . S
C403 H396 0.950 . S
C403 C400 1.387 . S
C404 C405 1.387 . S
C404 H408 0.950 . S
C404 C413 1.390 . S
C405 C404 1.387 . S
C405 C407 1.387 . S
H406 C413 0.950 . S
C407 C405 1.387 . S
C407 C409 1.390 . S
C407 H411 0.950 . S
H408 C404 0.950 . S
C409 C407 1.390 . S
C409 C410 1.387 . S
C409 H412 0.950 . S
C410 C409 1.387 . S
C410 C413 1.387 . S
H411 C407 0.950 . S
H412 C409 0.950 . S
C413 C404 1.390 . S
C413 H406 0.950 . S
C413 C410 1.387 . S
C414 C415 1.387 . S
C414 H418 0.950 . S
C414 C423 1.390 . S
C415 C414 1.387 . S
C415 C417 1.387 . S
H416 C423 0.950 . S
C417 C415 1.387 . S
C417 C419 1.390 . S
C417 H421 0.950 . S
H418 C414 0.950 . S
C419 C417 1.390 . S
C419 C420 1.387 . S
C419 H422 0.950 . S
C420 C419 1.387 . S
C420 C423 1.387 . S
H421 C417 0.950 . S
H422 C419 0.950 . S
C423 C414 1.390 . S
C423 H416 0.950 . S
C423 C420 1.387 . S
C424 C425 1.387 . S
C424 H428 0.950 . S
C424 C433 1.390 . S
C425 C424 1.387 . S
C425 C427 1.387 . S
H426 C433 0.950 . S
C427 C425 1.387 . S
C427 C429 1.390 . S
C427 H431 0.950 . S
H428 C424 0.950 . S
C429 C427 1.390 . S
C429 C430 1.387 . S
C429 H432 0.950 . S
C430 C429 1.387 . S
C430 C433 1.387 . S
H431 C427 0.950 . S
H432 C429 0.950 . S
C433 C424 1.390 . S
C433 H426 0.950 . S
C433 C430 1.387 . S
C434 C435 1.387 . S
C434 H438 0.950 . S
C434 C443 1.390 . S
C435 C434 1.387 . S
C435 C437 1.387 . S
H436 C443 0.950 . S
C437 C435 1.387 . S
C437 C439 1.390 . S
C437 H441 0.950 . S
H438 C434 0.950 . S
C439 C437 1.390 . S
C439 C440 1.387 . S
C439 H442 0.950 . S
C440 C439 1.387 . S
C440 C443 1.387 . S
H441 C437 0.950 . S
H442 C439 0.950 . S
C443 C434 1.390 . S
C443 H436 0.950 . S
C443 C440 1.387 . S
C444 C445 1.387 . S
C444 H448 0.950 . S
C444 C453 1.390 . S
C445 C444 1.387 . S
C445 C447 1.387 . S
H446 C453 0.950 . S
C447 C445 1.387 . S
C447 C449 1.390 . S
C447 H451 0.950 . S
H448 C444 0.950 . S
C449 C447 1.390 . S
C449 C450 1.387 . S
C449 H452 0.950 . S
C450 C449 1.387 . S
C450 C453 1.387 . S
H451 C447 0.950 . S
H452 C449 0.950 . S
C453 C444 1.390 . S
C453 H446 0.950 . S
C453 C450 1.387 . S
C454 C455 1.387 . S
C454 H458 0.950 . S
C454 C463 1.390 . S
C455 C454 1.387 . S
C455 C457 1.387 . S
H456 C463 0.950 . S
C457 C455 1.387 . S
C457 C459 1.390 . S
C457 H461 0.950 . S
H458 C454 0.950 . S
C459 C457 1.390 . S
C459 C460 1.387 . S
C459 H462 0.950 . S
C460 C459 1.387 . S
C460 C463 1.387 . S
H461 C457 0.950 . S
H462 C459 0.950 . S
C463 C454 1.390 . S
C463 H456 0.950 . S
C463 C460 1.387 . S
C265 C249 1.337 . S
C270 C18 1.337 . S
C275 C150 1.337 . S
C280 C51 1.337 . S
C285 C84 1.339 . S
C290 C183 1.339 . S
C295 C216 1.339 . S
C300 C117 1.339 . S
C305 C7 1.494 . S
C310 C139 1.494 . S
C315 C172 1.493 . S
C320 C40 1.493 . S
C325 C205 1.493 . S
C330 C73 1.493 . S
C335 C238 1.493 . S
C340 C106 1.493 . S
C345 C252 1.530 . S
C350 C54 1.530 . S
C355 C87 1.530 . S
C360 C153 1.530 . S
C365 C120 1.531 . S
C370 C186 1.531 . S
C375 C219 1.530 . S
C380 C21 1.530 . S
C385 N13 1.337 . S
C390 N2 1.336 1_556 S
C395 N35 1.336 . S
C400 N46 1.337 . S
C405 N68 1.336 1_556 S
C410 N79 1.337 . S
C415 N112 1.337 . S
C420 N101 1.336 . S
C425 N134 1.337 . S
C430 N145 1.338 . S
C435 N167 1.337 1_554 S
C440 N178 1.338 . S
C445 N200 1.337 . S
C450 N211 1.337 . S
C455 N244 1.338 . S
C460 N233 1.337 1_554 S
