# Generated by pormake.
# Topology bcg, (8)-cn, num edge types: 1
# Building blocks:
#     Node 0, Type 0, BuildingBlock: LIZSOE_clean_sbu_0, # of connection points: 8
#     Node 1, Type 0, BuildingBlock: LIZSOE_clean_sbu_0, # of connection points: 8
#     Node 2, Type 0, BuildingBlock: LIZSOE_clean_sbu_0, # of connection points: 8
#     Node 3, Type 0, BuildingBlock: LIZSOE_clean_sbu_0, # of connection points: 8
#     Edge 4, Type (0, 0), BuildingBlock: MIFKUJ_clean_linker_0, # of connection points: 2
#     Edge 5, Type (0, 0), BuildingBlock: MIFKUJ_clean_linker_0, # of connection points: 2
#     Edge 6, Type (0, 0), BuildingBlock: MIFKUJ_clean_linker_0, # of connection points: 2
#     Edge 7, Type (0, 0), BuildingBlock: MIFKUJ_clean_linker_0, # of connection points: 2
#     Edge 8, Type (0, 0), BuildingBlock: MIFKUJ_clean_linker_0, # of connection points: 2
#     Edge 9, Type (0, 0), BuildingBlock: MIFKUJ_clean_linker_0, # of connection points: 2
#     Edge 10, Type (0, 0), BuildingBlock: MIFKUJ_clean_linker_0, # of connection points: 2
#     Edge 11, Type (0, 0), BuildingBlock: MIFKUJ_clean_linker_0, # of connection points: 2
#     Edge 12, Type (0, 0), BuildingBlock: MIFKUJ_clean_linker_0, # of connection points: 2
#     Edge 13, Type (0, 0), BuildingBlock: MIFKUJ_clean_linker_0, # of connection points: 2
#     Edge 14, Type (0, 0), BuildingBlock: MIFKUJ_clean_linker_0, # of connection points: 2
#     Edge 15, Type (0, 0), BuildingBlock: MIFKUJ_clean_linker_0, # of connection points: 2
#     Edge 16, Type (0, 0), BuildingBlock: MIFKUJ_clean_linker_0, # of connection points: 2
#     Edge 17, Type (0, 0), BuildingBlock: MIFKUJ_clean_linker_0, # of connection points: 2
#     Edge 18, Type (0, 0), BuildingBlock: MIFKUJ_clean_linker_0, # of connection points: 2
#     Edge 19, Type (0, 0), BuildingBlock: MIFKUJ_clean_linker_0, # of connection points: 2
# Relax obj value: 0.198
# Max RMSD: 0.292
# Mean RMSD: 0.292
data_MOF--net-bcg--node1-LIZSOE_clean_sbu_0--edge1-MIFKUJ_clean_linker_0
_symmetry_space_group_name_H-M    P1
_symmetry_Int_Tables_number       1
_symmetry_cell_setting            triclinic
loop_
_symmetry_equiv_pos_as_xyz
'x, y, z'
_cell_length_a     26.330375
_cell_length_b     30.490506
_cell_length_c     29.39884
_cell_angle_alpha  89.915461
_cell_angle_beta   89.593406
_cell_angle_gamma 90.142912
loop_
_atom_site_label
_atom_site_type_symbol
_atom_site_fract_x
_atom_site_fract_y
_atom_site_fract_z
_atom_type_partial_charge
Co0 Co 0.15144 0.22918 0.9849 0.0
N1 N 0.10454 0.19295 0.01598 0.0
C2 C 0.1018 0.18781 0.06156 0.0
N3 N 0.0324 0.15715 0.03433 0.0
C4 C 0.06232 0.17253 1.00029 0.0
C5 C 0.05727 0.16668 0.07282 0.0
Co6 Co 0.36319 0.23531 0.02553 0.0
N7 N 0.43091 0.24407 0.01284 0.0
N8 N 0.5146 0.23399 0.00454 0.0
C9 C 0.5055 0.27734 0.00692 0.0
C10 C 0.45431 0.28342 0.01176 0.0
C11 C 0.46863 0.21439 0.00877 0.0
Co12 Co 0.24567 0.24516 1.00002 0.0
C13 C 0.32136 0.24907 0.07869 0.0
H14 H 0.4356 0.31456 0.01653 0.0
O15 O 0.19208 0.26585 0.95102 0.0
O16 O 0.28999 0.22761 0.94526 0.0
O17 O 0.21967 0.18045 0.00454 0.0
O18 O 0.20408 0.26396 0.05583 0.0
O19 O 0.13231 0.27518 0.02177 0.0
O20 O 0.35748 0.19641 0.97716 0.0
O21 O 0.30017 0.22727 0.04478 0.0
O22 O 0.35117 0.28401 0.9858 0.0
O23 O 0.17003 0.18273 0.94665 0.0
O24 O 0.1084 0.24637 0.94744 0.0
O25 O 0.27369 0.3073 0.99843 0.0
O26 O 0.36198 0.27219 0.07091 0.0
C27 C 0.1948 0.15973 0.97382 0.0
C28 C 0.46038 0.16604 0.01436 0.0
H29 H 0.42453 0.1595 0.03323 0.0
H30 H 0.45763 0.15071 0.98027 0.0
H31 H 0.49263 0.15087 0.03264 0.0
C32 C 0.33114 0.20492 0.94228 0.0
C33 C 0.15977 0.28079 0.05592 0.0
H34 H 0.12888 0.2008 0.08546 0.0
H35 H 0.02417 0.19948 0.94307 0.0
H36 H 0.02534 0.14044 0.94422 0.0
H37 H 0.08114 0.1701 0.92823 0.0
C38 C 0.04768 0.17045 0.9511 0.0
C39 C 0.14665 0.26743 0.93132 0.0
C40 C 0.31987 0.3152 0.98792 0.0
H41 H 0.04192 0.16217 0.1067 0.0
H42 H 0.53412 0.30287 0.00649 0.0
Co43 Co 0.63629 0.75128 0.96712 0.0
N44 N 0.56571 0.74793 0.97411 0.0
C45 C 0.5437 0.72489 0.00842 0.0
N46 N 0.48095 0.75443 0.97066 0.0
C47 C 0.52595 0.76555 0.95145 0.0
C48 C 0.49201 0.72921 0.00666 0.0
Co49 Co 0.85994 0.75798 0.05355 0.0
N50 N 0.92306 0.78544 0.05384 0.0
N51 N 0.99545 0.8214 0.03772 0.0
C52 C 0.97683 0.83709 0.07709 0.0
C53 C 0.93266 0.81499 0.08686 0.0
C54 C 0.96306 0.78918 0.02491 0.0
Co55 Co 0.75168 0.74527 0.00861 0.0
C56 C 0.83849 0.70291 0.07071 0.0
H57 H 0.90767 0.8214 0.11542 0.0
O58 O 0.70102 0.75657 0.95749 0.0
O59 O 0.79641 0.71944 0.96104 0.0
O60 O 0.71684 0.68518 0.01946 0.0
O61 O 0.71027 0.77179 0.05967 0.0
O62 O 0.63654 0.76744 0.02697 0.0
O63 O 0.86352 0.75552 0.98684 0.0
O64 O 0.80252 0.73115 0.05913 0.0
O65 O 0.82966 0.81264 0.05661 0.0
O66 O 0.64194 0.69268 0.98296 0.0
O67 O 0.63975 0.80831 0.95424 0.0
O68 O 0.78401 0.80617 0.99494 0.0
O69 O 0.8827 0.70396 0.05073 0.0
C70 C 0.67379 0.66979 0.00504 0.0
C71 C 0.9734 0.75801 0.98672 0.0
H72 H 0.957 0.72548 0.99483 0.0
H73 H 0.95648 0.77099 0.95501 0.0
H74 H 0.01478 0.75411 0.98108 0.0
C75 C 0.8414 0.73386 0.95552 0.0
C76 C 0.66252 0.77612 0.06123 0.0
H77 H 0.56411 0.70697 0.03424 0.0
H78 H 0.56857 0.80834 0.90615 0.0
H79 H 0.50308 0.82253 0.9135 0.0
H80 H 0.52015 0.77559 0.88027 0.0
C81 C 0.53029 0.7949 0.91076 0.0
C82 C 0.67944 0.78969 0.9361 0.0
C83 C 0.81182 0.82962 0.02123 0.0
H84 H 0.46462 0.71588 0.03062 0.0
H85 H 0.9934 0.86337 0.09681 0.0
Co86 Co 0.37444 0.77057 0.52906 0.0
N87 N 0.44098 0.76907 0.50912 0.0
C88 C 0.46038 0.75693 0.46846 0.0
N89 N 0.5258 0.76691 0.51394 0.0
C90 C 0.48172 0.7758 0.5358 0.0
C91 C 0.51257 0.75557 0.47138 0.0
Co92 Co 0.15737 0.74081 0.52155 0.0
N93 N 0.11027 0.75465 0.56788 0.0
N94 N 0.04126 0.76309 0.61244 0.0
C95 C 0.0759 0.79331 0.62436 0.0
C96 C 0.11829 0.78769 0.59749 0.0
C97 C 0.0629 0.73995 0.5781 0.0
Co98 Co 0.25563 0.7499 0.51527 0.0
C99 C 0.15244 0.71571 0.45884 0.0
H100 H 0.15243 0.80739 0.59846 0.0
O101 O 0.31325 0.77181 0.55502 0.0
O102 O 0.22183 0.732 0.57561 0.0
O103 O 0.28836 0.68997 0.51242 0.0
O104 O 0.29165 0.76735 0.45571 0.0
O105 O 0.35726 0.8062 0.48038 0.0
O106 O 0.16889 0.68541 0.54755 0.0
O107 O 0.19836 0.72727 0.47265 0.0
O108 O 0.14626 0.7955 0.49702 0.0
O109 O 0.36361 0.71785 0.49494 0.0
O110 O 0.38522 0.73674 0.57499 0.0
O111 O 0.22438 0.81206 0.51745 0.0
O112 O 0.11363 0.71865 0.48546 0.0
C113 C 0.33406 0.68502 0.49845 0.0
C114 C 0.03633 0.70434 0.55217 0.0
H115 H 0.06325 0.67762 0.54375 0.0
H116 H 0.00421 0.69007 0.57168 0.0
H117 H 0.02124 0.71822 0.52009 0.0
C118 C 0.1929 0.69871 0.58176 0.0
C119 C 0.32901 0.79367 0.44819 0.0
H120 H 0.43803 0.74797 0.43919 0.0
H121 H 0.44386 0.81473 0.58638 0.0
H122 H 0.51223 0.81237 0.59233 0.0
H123 H 0.47349 0.76578 0.60767 0.0
C124 C 0.47774 0.79339 0.5833 0.0
C125 C 0.34026 0.75058 0.58585 0.0
C126 C 0.18024 0.82386 0.50352 0.0
H127 H 0.53873 0.74509 0.44501 0.0
H128 H 0.06985 0.81905 0.64913 0.0
Co129 Co 0.63623 0.2433 0.47222 0.0
N130 N 0.56864 0.25996 0.48312 0.0
C131 C 0.54736 0.29175 0.45762 0.0
N132 N 0.4956 0.28122 0.51516 0.0
C133 C 0.53489 0.25301 0.51742 0.0
C134 C 0.50314 0.30548 0.47762 0.0
Co135 Co 0.86957 0.27455 0.52142 0.0
N136 N 0.93687 0.28101 0.50607 0.0
N137 N 0.01963 0.29319 0.51535 0.0
C138 C 0.01141 0.28717 0.47072 0.0
C139 C 0.96034 0.27951 0.46503 0.0
C140 C 0.97413 0.28846 0.53603 0.0
Co141 Co 0.75173 0.24993 0.49863 0.0
C142 C 0.82255 0.30834 0.55943 0.0
H143 H 0.94182 0.27293 0.43306 0.0
O144 O 0.69655 0.22567 0.45796 0.0
O145 O 0.7899 0.19196 0.49441 0.0
O146 O 0.71826 0.22967 0.55624 0.0
O147 O 0.71635 0.3105 0.50226 0.0
O148 O 0.65212 0.30061 0.45434 0.0
O149 O 0.87088 0.21554 0.50163 0.0
O150 O 0.80788 0.27176 0.53967 0.0
O151 O 0.85534 0.29528 0.46422 0.0
O152 O 0.64649 0.25874 0.53516 0.0
O153 O 0.62905 0.18787 0.49095 0.0
O154 O 0.78345 0.26884 0.43929 0.0
O155 O 0.86111 0.32917 0.54156 0.0
C156 C 0.67481 0.24449 0.56631 0.0
C157 C 0.96584 0.28582 0.58627 0.0
H158 H 0.94408 0.25553 0.59404 0.0
H159 H 1.00195 0.28498 0.60538 0.0
H160 H 0.94289 0.31432 0.59728 0.0
C161 C 0.83836 0.1852 0.49432 0.0
C162 C 0.68038 0.32592 0.47723 0.0
H163 H 0.56447 0.30575 0.42748 0.0
H164 H 0.51486 0.18944 0.54139 0.0
H165 H 0.52355 0.22894 0.58575 0.0
H166 H 0.57758 0.20518 0.557 0.0
C167 C 0.53865 0.21742 0.55255 0.0
C168 C 0.65072 0.20684 0.45607 0.0
C169 C 0.8241 0.2902 0.43274 0.0
H170 H 0.47885 0.33184 0.46616 0.0
H171 H 0.04029 0.28814 0.44434 0.0
H172 H 0.59701 0.25931 0.05048 0.0
H173 H 0.68339 0.23156 0.04143 0.0
H174 H 0.63104 0.13706 0.94322 0.0
H175 H 0.54415 0.16609 0.95103 0.0
H176 H 0.70396 0.10786 0.02207 0.0
H177 H 0.69119 0.2014 0.89258 0.0
H178 H 0.66498 0.26754 0.85056 0.0
H179 H 0.75207 0.34814 0.94093 0.0
H180 H 0.77903 0.28242 0.98339 0.0
H181 H 0.98103 0.08978 0.9966 0.0
H182 H 0.88948 0.08885 0.97927 0.0
H183 H 0.8721 0.21284 0.04787 0.0
H184 H 0.96316 0.21413 0.06384 0.0
H185 H 0.83209 0.21254 0.96118 0.0
H186 H 0.83564 0.11838 0.09537 0.0
H187 H 0.85703 0.05233 0.13963 0.0
H188 H 0.78263 0.97148 0.04073 0.0
H189 H 0.76243 0.03688 0.99511 0.0
C190 C 0.60391 0.23253 0.0271 0.0
C191 C 0.56407 0.21447 1.00183 0.0
C192 C 0.65305 0.21669 0.02202 0.0
C193 C 0.66324 0.18242 0.99165 0.0
C194 C 0.62352 0.16338 0.96701 0.0
C195 C 0.57409 0.17964 0.9718 0.0
C196 C 0.71626 0.16824 0.98566 0.0
C197 C 0.73217 0.12984 0.00747 0.0
C198 C 0.75253 0.19729 0.96685 0.0
C199 C 0.73699 0.23698 0.94124 0.0
C200 C 0.7046 0.23324 0.9036 0.0
C201 C 0.68971 0.27064 0.87963 0.0
C202 C 0.70665 0.31202 0.89319 0.0
C203 C 0.73894 0.31605 0.93049 0.0
C204 C 0.75427 0.27871 0.95437 0.0
C205 C 0.95711 0.11621 0.00838 0.0
C206 C 0.97845 0.15197 0.03138 0.0
C207 C 0.9052 0.11571 0.99856 0.0
C208 C 0.87429 0.15082 0.0121 0.0
C209 C 0.89544 0.18557 0.03686 0.0
C210 C 0.94709 0.18609 0.04646 0.0
C211 C 0.82018 0.15299 0.99948 0.0
C212 C 0.80414 0.18941 0.97417 0.0
C213 C 0.78397 0.12183 0.0148 0.0
C214 C 0.79828 0.08248 0.0414 0.0
C215 C 0.82474 0.08645 0.08259 0.0
C216 C 0.83657 0.04911 0.108 0.0
C217 C 0.82143 0.00769 0.09293 0.0
C218 C 0.79468 1.0035 0.05228 0.0
C219 C 0.78318 0.04068 0.02656 0.0
H220 H 0.83024 0.97886 0.11287 0.0
H221 H 0.69484 0.34096 0.87475 0.0
H222 H 0.00802 0.83754 0.94803 0.0
H223 H 0.08936 0.8496 0.90832 0.0
H224 H 0.16543 0.85325 0.0379 0.0
H225 H 0.08461 0.84044 0.07696 0.0
H226 H 0.21015 0.90912 0.97433 0.0
H227 H 0.13964 0.7562 0.98046 0.0
H228 H 0.0809 0.69728 0.95706 0.0
H229 H 0.11613 0.72315 0.81682 0.0
H230 H 0.17396 0.78281 0.83924 0.0
H231 H 0.4195 0.79539 0.02912 0.0
H232 H 0.33671 0.82723 0.01307 0.0
H233 H 0.34917 0.78516 0.87336 0.0
H234 H 0.43225 0.75226 0.88993 0.0
H235 H 0.25988 0.76792 0.90351 0.0
H236 H 0.35014 0.8999 0.89687 0.0
H237 H 0.41518 0.95484 0.91663 0.0
H238 H 0.34875 0.96862 0.04968 0.0
H239 H 0.28408 0.91298 0.03071 0.0
C240 C 0.04229 0.84123 0.96765 0.0
C241 C 0.04092 0.83605 0.01513 0.0
C242 C 0.0884 0.84867 0.94515 0.0
C243 C 0.13343 0.85141 0.97018 0.0
C244 C 0.13109 0.85096 0.01793 0.0
C245 C 0.0851 0.84339 0.04025 0.0
C246 C 0.18367 0.84733 0.94806 0.0
C247 C 0.22103 0.87867 0.95805 0.0
C248 C 0.19757 0.80855 0.92467 0.0
C249 C 0.16031 0.77449 0.91147 0.0
C250 C 0.13407 0.74983 0.9446 0.0
C251 C 0.10095 0.71629 0.93149 0.0
C252 C 0.09426 0.70683 0.88542 0.0
C253 C 0.12061 0.73092 0.85238 0.0
C254 C 0.1535 0.76464 0.86526 0.0
C255 C 0.4045 0.79322 0.99499 0.0
C256 C 0.43202 0.77212 0.9606 0.0
C257 C 0.35777 0.81204 0.98553 0.0
C258 C 0.33788 0.81042 0.94135 0.0
C259 C 0.36481 0.78824 0.9071 0.0
C260 C 0.41187 0.76937 0.91661 0.0
C261 C 0.28658 0.8282 0.93321 0.0
C262 C 0.24906 0.79956 0.91731 0.0
C263 C 0.27253 0.86981 0.95017 0.0
C264 C 0.31139 0.90322 0.96194 0.0
C265 C 0.34925 0.91489 0.93018 0.0
C266 C 0.38622 0.94598 0.94131 0.0
C267 C 0.38585 0.96553 0.98426 0.0
C268 C 0.34867 0.95383 0.01623 0.0
C269 C 0.31166 0.92273 0.0052 0.0
H270 H 0.41454 0.98955 0.99287 0.0
H271 H 0.0692 0.68049 0.87535 0.0
H272 H 0.61189 0.79898 0.47697 0.0
H273 H 0.69788 0.79319 0.50815 0.0
H274 H 0.63847 0.72152 0.62344 0.0
H275 H 0.55278 0.72719 0.59232 0.0
H276 H 0.70827 0.7854 0.64899 0.0
H277 H 0.69583 0.66758 0.54406 0.0
H278 H 0.67685 0.63188 0.47095 0.0
H279 H 0.79275 0.70871 0.40501 0.0
H280 H 0.81122 0.74609 0.47727 0.0
H281 H 0.98501 0.70182 0.65621 0.0
H282 H 0.89142 0.69877 0.65826 0.0
H283 H 0.88551 0.82559 0.59338 0.0
H284 H 0.9785 0.82841 0.59135 0.0
H285 H 0.84592 0.721 0.55444 0.0
H286 H 0.82851 0.85443 0.65771 0.0
H287 H 0.84357 0.89042 0.73161 0.0
H288 H 0.78565 0.77683 0.80144 0.0
H289 H 0.77186 0.73992 0.72814 0.0
C290 C 0.61743 0.78225 0.50906 0.0
C291 C 0.57589 0.76439 0.53277 0.0
C292 C 0.6663 0.7789 0.52683 0.0
C293 C 0.6744 0.75702 0.56825 0.0
C294 C 0.63289 0.7391 0.59193 0.0
C295 C 0.58404 0.74252 0.5742 0.0
C296 C 0.72649 0.75228 0.58612 0.0
C297 C 0.73821 0.7708 0.62854 0.0
C298 C 0.76542 0.73263 0.55978 0.0
C299 C 0.75467 0.70992 0.51616 0.0
C300 C 0.71696 0.67721 0.5139 0.0
C301 C 0.70628 0.65665 0.47257 0.0
C302 C 0.73356 0.66801 0.43335 0.0
C303 C 0.77154 0.70001 0.43536 0.0
C304 C 0.78209 0.72095 0.47651 0.0
C305 C 0.96335 0.72947 0.64387 0.0
C306 C 0.98818 0.76512 0.62317 0.0
C307 C 0.91025 0.72785 0.64519 0.0
C308 C 0.88186 0.76216 0.62632 0.0
C309 C 0.90687 0.79923 0.60886 0.0
C310 C 0.95974 0.8008 0.60755 0.0
C311 C 0.8277 0.75592 0.61595 0.0
C312 C 0.81565 0.73495 0.57503 0.0
C313 C 0.78861 0.77307 0.64358 0.0
C314 C 0.79943 0.79438 0.68756 0.0
C315 C 0.81976 0.83696 0.6889 0.0
C316 C 0.82811 0.85752 0.7307 0.0
C317 C 0.81614 0.83577 0.77129 0.0
C318 C 0.79551 0.79353 0.77011 0.0
C319 C 0.78741 0.77277 0.72844 0.0
H320 H 0.82262 0.85172 0.80361 0.0
H321 H 0.72532 0.65199 0.4014 0.0
H322 H 0.04313 0.36255 0.56683 0.0
H323 H 0.12478 0.37641 0.60496 0.0
H324 H 0.18367 0.2562 0.54802 0.0
H325 H 0.10267 0.24315 0.50989 0.0
H326 H 0.20478 0.27128 0.64483 0.0
H327 H 0.20096 0.34651 0.4947 0.0
H328 H 0.1705 0.40396 0.44258 0.0
H329 H 0.21347 0.50326 0.53842 0.0
H330 H 0.24299 0.44618 0.59166 0.0
H331 H 0.42341 0.22339 0.53809 0.0
H332 H 0.34557 0.23973 0.57982 0.0
H333 H 0.40097 0.37071 0.60698 0.0
H334 H 0.4781 0.35427 0.56294 0.0
H335 H 0.31892 0.37785 0.56779 0.0
H336 H 0.3605 0.29784 0.69511 0.0
H337 H 0.39636 0.2396 0.74215 0.0
H338 H 0.28738 0.14777 0.69054 0.0
H339 H 0.25217 0.20506 0.641 0.0
C340 C 0.07373 0.33925 0.5632 0.0
C341 C 0.0673 0.30172 0.53629 0.0
C342 C 0.11984 0.34697 0.58488 0.0
C343 C 0.15956 0.3169 0.57975 0.0
C344 C 0.15289 0.2793 0.5529 0.0
C345 C 0.10717 0.27203 0.53085 0.0
C346 C 0.21015 0.32547 0.5983 0.0
C347 C 0.23018 0.29469 0.62861 0.0
C348 C 0.24195 0.35805 0.57922 0.0
C349 C 0.2229 0.39207 0.54765 0.0
C350 C 0.20295 0.38053 0.50506 0.0
C351 C 0.18598 0.41302 0.47526 0.0
C352 C 0.18963 0.45722 0.48735 0.0
C353 C 0.2103 0.469 0.52925 0.0
C354 C 0.22698 0.43659 0.55931 0.0
C355 C 0.41938 0.25499 0.55446 0.0
C356 C 0.45571 0.28775 0.54745 0.0
C357 C 0.37525 0.26435 0.57881 0.0
C358 C 0.36738 0.30649 0.5971 0.0
C359 C 0.40616 0.33802 0.59336 0.0
C360 C 0.44989 0.3288 0.5682 0.0
C361 C 0.31516 0.31973 0.60987 0.0
C362 C 0.29426 0.35534 0.58615 0.0
C363 C 0.28273 0.29124 0.63471 0.0
C364 C 0.30328 0.25617 0.66453 0.0
C365 C 0.34415 0.26524 0.69354 0.0
C366 C 0.3644 0.23225 0.72079 0.0
C367 C 0.34376 0.19003 0.72005 0.0
C368 C 0.30311 0.18059 0.69142 0.0
C369 C 0.28297 0.21338 0.66365 0.0
H370 H 0.3593 0.16459 0.74148 0.0
H371 H 0.17679 0.48235 0.4641 0.0
H372 H 0.67683 0.59897 0.94951 0.0
H373 H 0.61507 0.53878 0.95055 0.0
H374 H 0.55905 0.58279 0.08077 0.0
H375 H 0.62165 0.64254 0.07996 0.0
H376 H 0.55059 0.49477 0.07563 0.0
H377 H 0.50247 0.61564 0.98239 0.0
H378 H 0.51294 0.67128 0.92202 0.0
H379 H 0.52685 0.56977 0.82183 0.0
H380 H 0.51701 0.51335 0.88161 0.0
H381 H 0.3139 0.38067 0.05175 0.0
H382 H 0.37389 0.44214 0.06 0.0
H383 H 0.4422 0.4093 0.93096 0.0
H384 H 0.38277 0.34807 0.92283 0.0
H385 H 0.44051 0.49558 0.93938 0.0
H386 H 0.49682 0.37565 0.03635 0.0
H387 H 0.48864 0.32131 0.09863 0.0
H388 H 0.45736 0.42474 0.19351 0.0
H389 H 0.46509 0.4795 0.13185 0.0
C390 C 0.65339 0.59427 0.97957 0.0
C391 C 0.65548 0.62478 0.01535 0.0
C392 C 0.61711 0.56037 0.9797 0.0
C393 C 0.58117 0.55658 0.01523 0.0
C394 C 0.58601 0.58478 0.05284 0.0
C395 C 0.62252 0.61861 0.05275 0.0
C396 C 0.53642 0.52593 0.01125 0.0
C397 C 0.52618 0.49542 0.04607 0.0
C398 C 0.50411 0.52636 0.97275 0.0
C399 C 0.50943 0.5602 0.93658 0.0
C400 C 0.50806 0.60513 0.94753 0.0
C401 C 0.51386 0.63682 0.91344 0.0
C402 C 0.52069 0.62407 0.8682 0.0
C403 C 0.52159 0.57957 0.85692 0.0
C404 C 0.51583 0.54771 0.89088 0.0
C405 C 0.34025 0.3878 0.02425 0.0
C406 C 0.34251 0.36007 0.98604 0.0
C407 C 0.37545 0.42242 0.02943 0.0
C408 C 0.41371 0.43014 0.9965 0.0
C409 C 0.41355 0.40422 0.95699 0.0
C410 C 0.37891 0.36949 0.95204 0.0
C411 C 0.45519 0.46371 0.00335 0.0
C412 C 0.46474 0.49501 0.96905 0.0
C413 C 0.48647 0.46433 0.04255 0.0
C414 C 0.48072 0.43146 0.07941 0.0
C415 C 0.48757 0.38661 0.07043 0.0
C416 C 0.48318 0.35581 0.10558 0.0
C417 C 0.47214 0.36954 0.14987 0.0
C418 C 0.46568 0.41412 0.15915 0.0
C419 C 0.47013 0.44505 0.12414 0.0
H420 H 0.46883 0.34567 0.17702 0.0
H421 H 0.52514 0.64868 0.8419 0.0
H422 H 0.64063 0.37646 0.41113 0.0
H423 H 0.58024 0.43615 0.42119 0.0
H424 H 0.60798 0.43569 0.56551 0.0
H425 H 0.66832 0.37465 0.55558 0.0
H426 H 0.49135 0.42661 0.4736 0.0
H427 H 0.57775 0.55259 0.59719 0.0
H428 H 0.66096 0.58125 0.62137 0.0
H429 H 0.72647 0.54416 0.49297 0.0
H430 H 0.64342 0.51635 0.46755 0.0
H431 H 0.3132 0.60531 0.54119 0.0
H432 H 0.37046 0.54116 0.54339 0.0
H433 H 0.47035 0.60458 0.44702 0.0
H434 H 0.41277 0.66674 0.4428 0.0
H435 H 0.51943 0.57872 0.52711 0.0
H436 H 0.40272 0.52311 0.41456 0.0
H437 H 0.32091 0.49658 0.38502 0.0
H438 H 0.31843 0.39384 0.48495 0.0
H439 H 0.39954 0.4206 0.5162 0.0
C440 C 0.63546 0.39011 0.44487 0.0
C441 C 0.65998 0.3711 0.48246 0.0
C442 C 0.60024 0.42388 0.45066 0.0
C443 C 0.58889 0.44018 0.49415 0.0
C444 C 0.61607 0.4237 0.53157 0.0
C445 C 0.65126 0.3893 0.5258 0.0
C446 C 0.54644 0.47233 0.49967 0.0
C447 C 0.49739 0.45975 0.48591 0.0
C448 C 0.55401 0.51554 0.51588 0.0
C449 C 0.6045 0.53149 0.53085 0.0
C450 C 0.60994 0.55045 0.57414 0.0
C451 C 0.65705 0.56668 0.58802 0.0
C452 C 0.69907 0.56418 0.55887 0.0
C453 C 0.69399 0.54565 0.51569 0.0
C454 C 0.64688 0.52964 0.50153 0.0
C455 C 0.34629 0.60467 0.51911 0.0
C456 C 0.35843 0.64132 0.49183 0.0
C457 C 0.37938 0.56827 0.52085 0.0
C458 C 0.42525 0.56833 0.49576 0.0
C459 C 0.43552 0.6038 0.4668 0.0
C460 C 0.40236 0.63932 0.46436 0.0
C461 C 0.46454 0.53323 0.5004 0.0
C462 C 0.51303 0.54522 0.51609 0.0
C463 C 0.45648 0.48953 0.48592 0.0
C464 C 0.40677 0.47446 0.46831 0.0
C465 C 0.38427 0.49544 0.43091 0.0
C466 C 0.33806 0.48027 0.41379 0.0
C467 C 0.31432 0.44375 0.43335 0.0
C468 C 0.33666 0.42237 0.47018 0.0
C469 C 0.38269 0.43759 0.48766 0.0
H470 H 0.27883 0.43182 0.41972 0.0
H471 H 0.73548 0.57688 0.56961 0.0
H472 H 0.16696 0.11573 0.05249 0.0
H473 H 0.10254 0.05798 0.05652 0.0
H474 H 0.11333 0.04076 0.91108 0.0
H475 H 0.17345 0.1016 0.90684 0.0
H476 H 0.02241 0.04211 0.9266 0.0
H477 H 0.1535 0.96533 0.0045 0.0
H478 H 0.21851 0.95176 0.06267 0.0
H479 H 0.10453 0.95529 0.16749 0.0
H480 H 0.03904 0.97092 0.11033 0.0
H481 H 0.85493 0.84899 0.93724 0.0
H482 H 0.92445 0.90189 0.92395 0.0
H483 H 0.90695 0.94978 0.06089 0.0
H484 H 0.83727 0.89843 0.07373 0.0
H485 H 0.00345 0.9275 0.04484 0.0
H486 H 0.8748 0.00936 0.96883 0.0
H487 H 0.80893 0.02482 0.91202 0.0
H488 H 0.91811 0.00771 0.80433 0.0
H489 H 0.98468 0.99186 0.86059 0.0
C490 C 0.15678 0.09873 0.02155 0.0
C491 C 0.17534 0.11378 0.97931 0.0
C492 C 0.11956 0.06538 0.02379 0.0
C493 C 0.10205 0.04427 0.98403 0.0
C494 C 0.12484 0.05644 0.9424 0.0
C495 C 0.16039 0.09079 0.94005 0.0
C496 C 0.05789 0.01218 0.98489 0.0
C497 C 0.01928 0.0164 0.952 0.0
C498 C 0.05188 0.97893 0.01851 0.0
C499 C 0.09138 0.96968 0.053 0.0
C500 C 0.14233 0.96359 0.03996 0.0
C501 C 0.17929 0.95547 0.07277 0.0
C502 C 0.1657 0.95236 0.11866 0.0
C503 C 0.11506 0.95765 0.13191 0.0
C504 C 0.07802 0.96634 0.09932 0.0
C505 C 0.86411 0.8724 0.96363 0.0
C506 C 0.8394 0.87008 0.00625 0.0
C507 C 0.90468 0.90213 0.95633 0.0
C508 C 0.92168 0.92977 0.99161 0.0
C509 C 0.89508 0.92891 0.03311 0.0
C510 C 0.85452 0.89988 0.04018 0.0
C511 C 0.96855 0.95792 0.98712 0.0
C512 C 0.00751 0.95278 0.01915 0.0
C513 C 0.97486 0.99018 0.95286 0.0
C514 C 0.93467 0.999 0.91897 0.0
C515 C 0.88471 0.00845 0.93303 0.0
C516 C 0.84725 0.01745 0.90093 0.0
C517 C 0.85928 0.01713 0.85457 0.0
C518 C 0.90884 0.00794 0.84025 0.0
C519 C 0.94647 0.99904 0.87226 0.0
H520 H 0.83023 0.0241 0.82974 0.0
H521 H 0.19442 0.94594 0.14395 0.0
H522 H 0.85863 0.13218 0.56533 0.0
H523 H 0.91705 0.06967 0.56578 0.0
H524 H 0.9297 0.07687 0.41973 0.0
H525 H 0.87171 0.14016 0.41942 0.0
H526 H 0.9279 0.986 0.46023 0.0
H527 H 0.01242 0.12662 0.47382 0.0
H528 H 0.02261 0.19889 0.50953 0.0
H529 H 0.05617 0.13746 0.63729 0.0
H530 H 0.0443 0.0645 0.60258 0.0
H531 H 0.14908 0.86551 0.42774 0.0
H532 H 0.0915 0.92822 0.4251 0.0
H533 H 0.1078 0.94551 0.56984 0.0
H534 H 0.16728 0.88363 0.57201 0.0
H535 H 0.09271 0.02317 0.53186 0.0
H536 H 0.00936 0.88524 0.52498 0.0
H537 H 0.99211 0.81059 0.49683 0.0
H538 H 0.95138 0.86295 0.36643 0.0
H539 H 0.96927 0.93793 0.39358 0.0
C540 C 0.87217 0.11921 0.53317 0.0
C541 C 0.85947 0.14023 0.49222 0.0
C542 C 0.906 0.08375 0.53348 0.0
C543 C 0.92808 0.06853 0.49282 0.0
C544 C 0.91293 0.08772 0.45151 0.0
C545 C 0.87946 0.12365 0.45127 0.0
C546 C 0.97082 0.03621 0.49404 0.0
C547 C 0.96416 0.9943 0.47526 0.0
C548 C 0.01767 0.04636 0.5152 0.0
C549 C 0.02695 0.09008 0.53569 0.0
C550 C 0.0216 0.12847 0.50961 0.0
C551 C 0.02765 0.16961 0.52971 0.0
C552 C 0.04008 0.17289 0.57569 0.0
C553 C 0.04651 0.13491 0.60167 0.0
C554 C 0.04001 0.09362 0.58182 0.0
C555 C 0.1424 0.8841 0.45859 0.0
C556 C 0.16353 0.8701 0.49991 0.0
C557 C 0.10857 0.91947 0.45727 0.0
C558 C 0.09377 0.94102 0.49749 0.0
C559 C 0.11813 0.92943 0.53829 0.0
C560 C 0.15268 0.89427 0.53948 0.0
C561 C 0.05032 0.97291 0.49728 0.0
C562 C 0.05664 0.01473 0.51654 0.0
C563 C 1.00269 0.96226 0.47753 0.0
C564 C 0.99116 0.91723 0.46119 0.0
C565 C 0.99704 0.88084 0.4902 0.0
C566 C 0.98714 0.83845 0.47443 0.0
C567 C 0.97079 0.83201 0.4298 0.0
C568 C 0.96414 0.86798 0.40094 0.0
C569 C 0.97414 0.91045 0.41652 0.0
H570 H 0.96318 0.79918 0.4176 0.0
H571 H 0.0448 0.20481 0.59116 0.0
H572 H 0.66814 0.24611 0.37114 0.0
H573 H 0.61016 0.24685 0.30591 0.0
H574 H 0.50998 0.15757 0.37724 0.0
H575 H 0.56873 0.15395 0.43937 0.0
H576 H 0.50024 0.13652 0.30039 0.0
H577 H 0.48992 0.28676 0.36218 0.0
H578 H 0.52073 0.36086 0.38261 0.0
H579 H 0.58458 0.37667 0.24886 0.0
H580 H 0.55296 0.30334 0.22729 0.0
H581 H 0.30367 0.28525 0.16196 0.0
H582 H 0.35635 0.26964 0.22819 0.0
H583 H 0.41656 0.15573 0.15971 0.0
H584 H 0.36055 0.16926 0.09598 0.0
H585 H 0.44849 0.27793 0.2323 0.0
H586 H 0.48823 0.09091 0.22558 0.0
H587 H 0.44273 0.0215 0.21174 0.0
H588 H 0.30193 0.08186 0.25083 0.0
H589 H 0.34671 0.15145 0.26576 0.0
C590 C 0.63469 0.22539 0.37202 0.0
C591 C 0.62387 0.19972 0.41082 0.0
C592 C 0.60057 0.2267 0.33506 0.0
C593 C 0.55415 0.20321 0.33641 0.0
C594 C 0.54499 0.17611 0.37433 0.0
C595 C 0.57924 0.174 0.41036 0.0
C596 C 0.5144 0.20625 0.29951 0.0
C597 C 0.489 0.16768 0.28583 0.0
C598 C 0.49862 0.24649 0.27977 0.0
C599 C 0.52002 0.28935 0.29348 0.0
C600 C 0.51103 0.30591 0.33736 0.0
C601 C 0.52835 0.34782 0.34903 0.0
C602 C 0.5552 0.37313 0.31729 0.0
C603 C 0.56417 0.35688 0.27356 0.0
C604 C 0.54633 0.31529 0.26151 0.0
C605 C 0.32524 0.25504 0.16263 0.0
C606 C 0.32692 0.22807 0.12388 0.0
C607 C 0.35678 0.24675 0.20006 0.0
C608 C 0.39165 0.21168 0.19948 0.0
C609 C 0.38982 0.1825 0.16237 0.0
C610 C 0.35698 0.18998 0.12572 0.0
C611 C 0.43288 0.20851 0.23489 0.0
C612 C 0.45919 0.24688 0.24748 0.0
C613 C 0.44813 0.1683 0.25495 0.0
C614 C 0.4208 0.12655 0.24631 0.0
C615 C 0.44759 0.08934 0.23138 0.0
C616 C 0.42192 0.04996 0.22331 0.0
C617 C 0.36944 0.04731 0.23016 0.0
C618 C 0.34255 0.084 0.24534 0.0
C619 C 0.36806 0.12344 0.2536 0.0
H620 H 0.34964 0.0168 0.22384 0.0
H621 H 0.56871 0.40545 0.32651 0.0
H622 H 0.5712 0.81626 0.06427 0.0
H623 H 0.51469 0.82505 0.12909 0.0
H624 H 0.63037 0.77427 0.21785 0.0
H625 H 0.68753 0.76424 0.15188 0.0
H626 H 0.54158 0.73416 0.23351 0.0
H627 H 0.59251 0.88494 0.22132 0.0
H628 H 0.60864 0.95523 0.18209 0.0
H629 H 0.45186 0.96221 0.14359 0.0
H630 H 0.43484 0.89186 0.1824 0.0
H631 H 0.39079 0.85982 0.42005 0.0
H632 H 0.44629 0.86048 0.35374 0.0
H633 H 0.37336 0.74333 0.30382 0.0
H634 H 0.31898 0.74136 0.37203 0.0
H635 H 0.44304 0.86828 0.26933 0.0
H636 H 0.44879 0.68432 0.24274 0.0
H637 H 0.44179 0.61396 0.28405 0.0
H638 H 0.49796 0.67543 0.40509 0.0
H639 H 0.50399 0.74637 0.36463 0.0
C640 C 0.58528 0.80771 0.09767 0.0
C641 C 0.6341 0.78954 0.10283 0.0
C642 C 0.55275 0.81297 0.1349 0.0
C643 C 0.56808 0.80069 0.17865 0.0
C644 C 0.61762 0.78411 0.18442 0.0
C645 C 0.65052 0.77881 0.14683 0.0
C646 C 0.53078 0.80232 0.21723 0.0
C647 C 0.52033 0.76364 0.24149 0.0
C648 C 0.50244 0.84053 0.22767 0.0
C649 C 0.51249 0.88298 0.20452 0.0
C650 C 0.56154 0.90136 0.20428 0.0
C651 C 0.57081 0.94126 0.1822 0.0
C652 C 0.53131 0.96316 0.16033 0.0
C653 C 0.48242 0.94523 0.16056 0.0
C654 C 0.4729 0.90542 0.18272 0.0
C655 C 0.38566 0.83462 0.39454 0.0
C656 C 0.35036 0.80046 0.40161 0.0
C657 C 0.41776 0.83493 0.35649 0.0
C658 C 0.41539 0.80132 0.32395 0.0
C659 C 0.37732 0.76899 0.32896 0.0
C660 C 0.34531 0.7684 0.36755 0.0
C661 C 0.45399 0.80011 0.28612 0.0
C662 C 0.46439 0.83881 0.26157 0.0
C663 C 0.48274 0.76209 0.27573 0.0
C664 C 0.4763 0.7205 0.30096 0.0
C665 C 0.45913 0.6828 0.27832 0.0
C666 C 0.45519 0.64291 0.30156 0.0
C667 C 0.46907 0.64029 0.34725 0.0
C668 C 0.48663 0.67762 0.36986 0.0
C669 C 0.48998 0.71772 0.34692 0.0
H670 H 0.46648 0.60922 0.36493 0.0
H671 H 0.53856 0.99404 0.14326 0.0
H672 H 0.33593 0.69442 0.6574 0.0
H673 H 0.39636 0.70353 0.71929 0.0
H674 H 0.41312 0.84015 0.68419 0.0
H675 H 0.35152 0.83114 0.62346 0.0
H676 H 0.49096 0.718 0.70081 0.0
H677 H 0.4785 0.89696 0.7692 0.0
H678 H 0.41293 0.95141 0.78909 0.0
H679 H 0.30441 0.8481 0.81114 0.0
H680 H 0.36937 0.79303 0.79182 0.0
H681 H 0.67249 0.85226 0.86945 0.0
H682 H 0.61501 0.84741 0.80454 0.0
H683 H 0.59585 0.70897 0.82999 0.0
H684 H 0.65519 0.71338 0.89245 0.0
H685 H 0.52115 0.83436 0.81478 0.0
H686 H 0.53186 0.65535 0.7512 0.0
H687 H 0.59488 0.59926 0.72975 0.0
H688 H 0.70382 0.69996 0.69879 0.0
H689 H 0.64175 0.75686 0.72063 0.0
C690 C 0.34945 0.72717 0.66508 0.0
C691 C 0.33922 0.76186 0.63482 0.0
C692 C 0.3855 0.7321 0.69974 0.0
C693 C 0.41111 0.77222 0.70589 0.0
C694 C 0.39448 0.80868 0.68058 0.0
C695 C 0.35799 0.80372 0.64617 0.0
C696 C 0.45867 0.77434 0.7342 0.0
C697 C 0.49701 0.74304 0.72639 0.0
C698 C 0.46812 0.80791 0.76642 0.0
C699 C 0.42879 0.84082 0.77855 0.0
C700 C 0.4407 0.88582 0.7784 0.0
C701 C 0.40358 0.91682 0.78946 0.0
C702 C 0.35441 0.90325 0.8009 0.0
C703 C 0.34236 0.85861 0.80174 0.0
C704 C 0.37933 0.8275 0.7907 0.0
C705 C 0.65876 0.82027 0.85921 0.0
C706 C 0.6688 0.78331 0.88653 0.0
C707 C 0.62482 0.81759 0.82248 0.0
C708 C 0.59976 0.77793 0.81212 0.0
C709 C 0.61456 0.74002 0.83608 0.0
C710 C 0.64918 0.74255 0.87218 0.0
C711 C 0.55336 0.7775 0.78201 0.0
C712 C 0.51522 0.80928 0.78925 0.0
C713 C 0.5438 0.74407 0.74961 0.0
C714 C 0.58223 0.71034 0.73794 0.0
C715 C 0.56937 0.66557 0.74003 0.0
C716 C 0.60499 0.63365 0.72796 0.0
C717 C 0.65351 0.64611 0.71333 0.0
C718 C 0.66655 0.69048 0.71095 0.0
C719 C 0.63121 0.72258 0.7233 0.0
H720 H 0.68093 0.62138 0.70362 0.0
H721 H 0.32575 0.92729 0.80951 0.0
H722 H 0.3919 0.13829 0.91326 0.0
H723 H 0.45761 0.14263 0.85383 0.0
H724 H 0.40476 0.2715 0.81705 0.0
H725 H 0.33869 0.26701 0.87581 0.0
H726 H 0.44928 0.15846 0.75699 0.0
H727 H 0.47606 0.32401 0.80842 0.0
H728 H 0.49039 0.37772 0.86965 0.0
H729 H 0.58846 0.28659 0.93735 0.0
H730 H 0.57248 0.23161 0.87759 0.0
H731 H 0.6073 0.30063 0.60401 0.0
H732 H 0.55412 0.28828 0.6712 0.0
H733 H 0.63684 0.16993 0.70068 0.0
H734 H 0.68987 0.18162 0.63229 0.0
H735 H 0.58473 0.27113 0.76885 0.0
H736 H 0.56919 0.11512 0.69795 0.0
H737 H 0.55593 0.07095 0.62865 0.0
H738 H 0.43088 0.15336 0.59124 0.0
H739 H 0.44478 0.19887 0.65937 0.0
C740 C 0.39327 0.16692 0.8914 0.0
C741 C 0.35938 0.20192 0.89862 0.0
C742 C 0.43135 0.16965 0.85795 0.0
C743 C 0.43712 0.20783 0.83168 0.0
C744 C 0.40192 0.24203 0.83747 0.0
C745 C 0.36323 0.239 0.87035 0.0
C746 C 0.47904 0.21132 0.79745 0.0
C747 C 0.47907 0.18287 0.75993 0.0
C748 C 0.51804 0.24314 0.80065 0.0
C749 C 0.52189 0.27344 0.83945 0.0
C750 C 0.49928 0.31502 0.83722 0.0
C751 C 0.50765 0.34564 0.87169 0.0
C752 C 0.53943 0.33528 0.90801 0.0
C753 C 0.56278 0.29419 0.9099 0.0
C754 C 0.55362 0.26311 0.87604 0.0
C755 C 0.61497 0.2724 0.6253 0.0
C756 C 0.65269 0.24197 0.61277 0.0
C757 C 0.58427 0.26525 0.66353 0.0
C758 C 0.59052 0.22755 0.69018 0.0
C759 C 0.63048 0.19861 0.67977 0.0
C760 C 0.66138 0.20572 0.64124 0.0
C761 C 0.55431 0.21881 0.72819 0.0
C762 C 0.55529 0.24629 0.76633 0.0
C763 C 0.51536 0.18698 0.72484 0.0
C764 C 0.50847 0.16059 0.68327 0.0
C765 C 0.53947 0.12417 0.67449 0.0
C766 C 0.5318 0.0989 0.63547 0.0
C767 C 0.4927 0.10944 0.60546 0.0
C768 C 0.46121 0.14528 0.61442 0.0
C769 C 0.46915 0.17094 0.65308 0.0
H770 H 0.48673 0.08977 0.57535 0.0
H771 H 0.54641 0.35925 0.93437 0.0
H772 H 0.12486 0.63877 0.41872 0.0
H773 H 0.06987 0.63246 0.35181 0.0
H774 H 0.08567 0.77121 0.32766 0.0
H775 H 0.14219 0.77715 0.39338 0.0
H776 H 0.98015 0.73617 0.34098 0.0
H777 H 0.13237 0.71279 0.25192 0.0
H778 H 0.21277 0.6757 0.23263 0.0
H779 H 0.13322 0.55359 0.21708 0.0
H780 H 0.05239 0.58985 0.23695 0.0
H781 H 0.83655 0.76393 0.1382 0.0
H782 H 0.89032 0.7623 0.20498 0.0
H783 H 0.91943 0.62476 0.18256 0.0
H784 H 0.86892 0.62768 0.11308 0.0
H785 H 0.00311 0.65694 0.19529 0.0
H786 H 0.85109 0.67611 0.28166 0.0
H787 H 0.76959 0.70837 0.3061 0.0
H788 H 0.84418 0.83072 0.3339 0.0
H789 H 0.92595 0.79952 0.30875 0.0
C790 C 0.11914 0.66736 0.39746 0.0
C791 C 0.13964 0.70813 0.41041 0.0
C792 C 0.08687 0.66392 0.35966 0.0
C793 C 0.07314 0.70142 0.33471 0.0
C794 C 0.09565 0.74175 0.34616 0.0
C795 C 0.12888 0.74497 0.38326 0.0
C796 C 0.03213 0.69924 0.29955 0.0
C797 C 0.9852 0.71932 0.30879 0.0
C798 C 0.03789 0.67575 0.25841 0.0
C799 C 0.08642 0.65394 0.24643 0.0
C800 C 0.13209 0.67794 0.24485 0.0
C801 C 0.17772 0.65709 0.2337 0.0
C802 C 0.17813 0.61229 0.22377 0.0
C803 C 0.13286 0.58828 0.22486 0.0
C804 C 0.08712 0.60897 0.23602 0.0
C805 C 0.85229 0.73274 0.14861 0.0
C806 C 0.84753 0.69574 0.12027 0.0
C807 C 0.8837 0.73185 0.1871 0.0
C808 C 0.90974 0.69337 0.19969 0.0
C809 C 0.9007 0.65519 0.17389 0.0
C810 C 0.87056 0.65648 0.13456 0.0
C811 C 0.95002 0.69398 0.23626 0.0
C812 C 0.99719 0.67362 0.22742 0.0
C813 C 0.94398 0.71647 0.27834 0.0
C814 C 0.89462 0.73557 0.29279 0.0
C815 C 0.85004 0.71005 0.29248 0.0
C816 C 0.80378 0.72815 0.30647 0.0
C817 C 0.80166 0.77161 0.32135 0.0
C818 C 0.84582 0.79708 0.32226 0.0
C819 C 0.89214 0.77921 0.3081 0.0
H820 H 0.76584 0.78548 0.33236 0.0
H821 H 0.2135 0.59621 0.21513 0.0
H822 H 0.87678 0.36285 0.40918 0.0
H823 H 0.93447 0.3699 0.34442 0.0
H824 H 0.87616 0.24903 0.28904 0.0
H825 H 0.81874 0.24146 0.35484 0.0
H826 H 0.97765 0.24656 0.29572 0.0
H827 H 0.85736 0.35027 0.23635 0.0
H828 H 0.80213 0.41545 0.23852 0.0
H829 H 0.93163 0.49766 0.26328 0.0
H830 H 0.98757 0.43288 0.26189 0.0
H831 H 0.19007 0.27463 0.1461 0.0
H832 H 0.13605 0.28767 0.21337 0.0
H833 H 0.0156 0.33241 0.12593 0.0
H834 H 0.06992 0.32315 0.06036 0.0
H835 H 0.00751 0.37536 0.19595 0.0
H836 H 0.08177 0.24108 0.31076 0.0
H837 H 0.13639 0.17547 0.30909 0.0
H838 H 0.09511 0.15154 0.17047 0.0
H839 H 0.0393 0.21683 0.17143 0.0
C840 C 0.87469 0.33874 0.38219 0.0
C841 C 0.84291 0.30182 0.38682 0.0
C842 C 0.90799 0.34266 0.34526 0.0
C843 C 0.90996 0.30993 0.31181 0.0
C844 C 0.87546 0.27464 0.31454 0.0
C845 C 0.84196 0.2707 0.35168 0.0
C846 C 0.951 0.31068 0.27663 0.0
C847 C 0.98386 0.27456 0.27352 0.0
C848 C 0.96019 0.34764 0.24858 0.0
C849 C 0.92659 0.38665 0.24943 0.0
C850 C 0.87401 0.3822 0.24262 0.0
C851 C 0.84258 0.41908 0.24365 0.0
C852 C 0.86334 0.46065 0.25115 0.0
C853 C 0.91559 0.46543 0.25753 0.0
C854 C 0.94718 0.42865 0.25659 0.0
C855 C 0.15268 0.28865 0.14161 0.0
C856 C 0.13414 0.2972 0.09774 0.0
C857 C 0.1214 0.29541 0.18001 0.0
C858 C 0.07076 0.30963 0.17491 0.0
C859 C 0.0541 0.32115 0.1313 0.0
C860 C 0.08542 0.31558 0.0935 0.0
C861 C 0.03317 0.31036 0.21334 0.0
C862 C 1.00126 0.34713 0.2178 0.0
C863 C 0.02459 0.27377 0.24231 0.0
C864 C 0.05689 0.23405 0.24104 0.0
C865 C 0.08416 0.22172 0.27995 0.0
C866 C 0.11525 0.18463 0.27911 0.0
C867 C 0.11921 0.15949 0.23958 0.0
C868 C 0.09185 0.17121 0.20091 0.0
C869 C 0.06046 0.20819 0.2016 0.0
H870 H 0.14344 0.13086 0.23894 0.0
H871 H 0.83895 0.48917 0.25191 0.0
H872 H 0.10409 0.34754 0.91874 0.0
H873 H 0.04012 0.36074 0.86007 0.0
H874 H 0.08885 0.24438 0.78954 0.0
H875 H 0.15328 0.23168 0.8477 0.0
H876 H 0.03593 0.36927 0.76403 0.0
H877 H 0.00943 0.19077 0.77062 0.0
H878 H 0.99541 0.12487 0.81823 0.0
H879 H 0.92059 0.20343 0.91948 0.0
H880 H 0.93535 0.26985 0.87284 0.0
H881 H 0.84281 0.23769 0.61316 0.0
H882 H 0.89523 0.2405 0.68007 0.0
H883 H 0.86884 0.37991 0.69056 0.0
H884 H 0.82214 0.37766 0.61925 0.0
H885 H 0.90658 0.25132 0.7563 0.0
H886 H 0.93645 0.42792 0.75659 0.0
H887 H 0.93469 0.49527 0.7098 0.0
H888 H 0.9968 0.42442 0.59639 0.0
H889 H 0.99956 0.3568 0.64311 0.0
C890 C 0.10358 0.32645 0.88911 0.0
C891 C 0.13512 0.28919 0.88754 0.0
C892 C 0.06583 0.33331 0.85613 0.0
C893 C 0.0582 0.30273 0.82103 0.0
C894 C 0.09291 0.26797 0.81678 0.0
C895 C 0.13108 0.26153 0.84936 0.0
C896 C 0.01324 0.30621 0.78995 0.0
C897 C 0.00778 0.3433 0.76207 0.0
C898 C 0.97542 0.27324 0.78771 0.0
C899 C 0.97442 0.23518 0.81881 0.0
C900 C 0.9911 0.19402 0.80355 0.0
C901 C 0.98273 0.1566 0.83018 0.0
C902 C 0.95684 0.15995 0.87169 0.0
C903 C 0.94044 0.20089 0.88722 0.0
C904 C 0.94942 0.23848 0.86101 0.0
C905 C 0.84667 0.26889 0.6304 0.0
C906 C 0.82869 0.30755 0.60995 0.0
C907 C 0.87762 0.27071 0.66909 0.0
C908 C 0.89008 0.31107 0.68993 0.0
C909 C 0.86474 0.34871 0.67374 0.0
C910 C 0.83567 0.34718 0.6337 0.0
C911 C 0.93085 0.31272 0.72646 0.0
C912 C 0.93519 0.27695 0.7566 0.0
C913 C 0.96762 0.34703 0.73061 0.0
C914 C 0.96661 0.38718 0.70255 0.0
C915 C 0.94953 0.42677 0.72159 0.0
C916 C 0.94839 0.46492 0.69518 0.0
C917 C 0.96522 0.46397 0.65001 0.0
C918 C 0.98338 0.4249 0.63124 0.0
C919 C 0.98443 0.38663 0.65752 0.0
H920 H 0.9645 0.49356 0.62966 0.0
H921 H 0.94963 0.13085 0.89192 0.0
H922 H 0.1218 0.63659 0.60344 0.0
H923 H 0.06283 0.63836 0.66732 0.0
H924 H 0.14902 0.74333 0.72791 0.0
H925 H 0.20727 0.74308 0.66253 0.0
H926 H 0.0551 0.76555 0.729 0.0
H927 H 0.99381 0.58236 0.74323 0.0
H928 H 0.03263 0.50894 0.73722 0.0
H929 H 0.17861 0.56335 0.7688 0.0
H930 H 0.14068 0.63691 0.77586 0.0
H931 H 0.83518 0.76999 0.87037 0.0
H932 H 0.89337 0.75783 0.80582 0.0
H933 H 0.9773 0.66498 0.88703 0.0
H934 H 0.91564 0.67339 0.9484 0.0
H935 H 0.98668 0.63711 0.81294 0.0
H936 H 0.01052 0.78812 0.86124 0.0
H937 H 0.98754 0.86539 0.87592 0.0
H938 H 0.93985 0.88022 0.73761 0.0
H939 H 0.96179 0.80308 0.72204 0.0
C940 C 0.12926 0.65933 0.63089 0.0
C941 C 0.16905 0.69018 0.62725 0.0
C942 C 0.09522 0.66031 0.66763 0.0
C943 C 0.10087 0.69121 0.70262 0.0
C944 C 0.14325 0.71949 0.70115 0.0
C945 C 0.17714 0.71886 0.66401 0.0
C946 C 0.06084 0.6958 0.73882 0.0
C947 C 0.04039 0.73747 0.74763 0.0
C948 C 0.04152 0.65944 0.76354 0.0
C949 C 0.06447 0.61523 0.7595 0.0
C950 C 0.03417 0.57864 0.749 0.0
C951 C 0.056 0.53701 0.74539 0.0
C952 C 0.10803 0.53154 0.75235 0.0
C953 C 0.13835 0.56766 0.76318 0.0
C954 C 0.11673 0.60933 0.76694 0.0
C955 C 0.86527 0.74606 0.87347 0.0
C956 C 0.87121 0.72276 0.91425 0.0
C957 C 0.89944 0.73984 0.83703 0.0
C958 C 0.94163 0.71163 0.84145 0.0
C959 C 0.94585 0.6872 0.88198 0.0
C960 C 0.91066 0.69217 0.91745 0.0
C961 C 0.98165 0.70736 0.80475 0.0
C962 C 1.0015 0.66549 0.79494 0.0
C963 C 1.00223 0.74393 0.78077 0.0
C964 C 0.98713 0.7897 0.79067 0.0
C965 C 0.99447 0.80772 0.83415 0.0
C966 C 0.98158 0.85143 0.84264 0.0
C967 C 0.96157 0.87744 0.80798 0.0
C968 C 0.95475 0.8599 0.76458 0.0
C969 C 0.96741 0.81622 0.75587 0.0
H970 H 0.95174 0.91127 0.81467 0.0
H971 H 0.12482 0.49928 0.7495 0.0
loop_
_geom_bond_atom_site_label_1
_geom_bond_atom_site_label_2
_geom_bond_distance
_geom_bond_site_symmetry_2
_ccdc_geom_bond_type
Co0 N1 2.034 . S
Co0 O15 2.262 1_554 S
Co0 O19 1.958 . S
Co0 O23 1.950 . S
Co0 O24 2.057 1_554 S
N1 Co0 2.034 . S
N1 C2 1.366 . S
N1 C4 1.332 1_554 S
C2 N1 1.366 . S
C2 C5 1.377 1_455 S
C2 H34 0.931 . S
N3 C4 1.346 1_654 S
N3 C5 1.337 . S
C4 N1 1.332 1_556 S
C4 N3 1.346 1_456 S
C4 C38 1.361 . S
C5 C2 1.377 1_655 S
C5 N3 1.337 . S
C5 H41 0.930 . S
Co6 N7 2.034 1_554 S
Co6 O20 1.950 1_554 S
Co6 O21 2.262 . S
Co6 O22 1.958 . S
Co6 O26 2.057 . S
N7 Co6 2.034 1_556 S
N7 C10 1.366 1_556 S
N7 C11 1.332 . S
N8 C9 1.337 1_556 S
N8 C11 1.346 . S
C9 N8 1.337 1_554 S
C9 C10 1.378 . S
C9 H42 0.929 . S
C10 N7 1.366 1_554 S
C10 C9 1.378 . S
C10 H14 0.931 . S
C11 N7 1.332 . S
C11 N8 1.346 . S
C11 C28 1.361 . S
Co12 O15 2.097 1_554 S
Co12 O16 2.065 1_554 S
Co12 O17 2.065 . S
Co12 O18 2.042 . S
Co12 O21 2.097 . S
Co12 O25 2.042 . S
C13 O21 1.253 . S
C13 O26 1.263 . S
H14 C10 0.931 . S
O15 Co0 2.262 1_556 S
O15 Co12 2.097 1_556 S
O15 C39 1.253 . S
O16 Co12 2.065 1_556 S
O16 C32 1.221 . S
O17 Co12 2.065 . S
O17 C27 1.221 . S
O18 Co12 2.042 . S
O18 C33 1.237 . S
O19 Co0 1.958 . S
O19 C33 1.278 . S
O20 Co6 1.950 1_556 S
O20 C32 1.277 . S
O21 Co6 2.262 . S
O21 Co12 2.097 . S
O21 C13 1.253 . S
O22 Co6 1.958 . S
O22 C40 1.278 . S
O23 Co0 1.950 . S
O23 C27 1.277 . S
O24 Co0 2.057 1_556 S
O24 C39 1.263 . S
O25 Co12 2.042 . S
O25 C40 1.238 . S
O26 Co6 2.057 . S
O26 C13 1.263 . S
C27 O17 1.221 . S
C27 O23 1.277 . S
C28 C11 1.361 . S
C28 H29 0.960 . S
C28 H30 0.961 . S
C28 H31 0.961 1_556 S
H29 C28 0.960 . S
H30 C28 0.961 . S
H31 C28 0.961 1_554 S
C32 O16 1.221 . S
C32 O20 1.277 . S
C33 O18 1.237 . S
C33 O19 1.278 . S
H34 C2 0.931 . S
H35 C38 0.961 . S
H36 C38 0.961 . S
H37 C38 0.960 . S
C38 C4 1.361 . S
C38 H35 0.961 . S
C38 H36 0.961 . S
C38 H37 0.960 . S
C39 O15 1.253 . S
C39 O24 1.263 . S
C40 O22 1.278 . S
C40 O25 1.238 . S
H41 C5 0.930 . S
H42 C9 0.929 . S
Co43 N44 2.034 . S
Co43 O58 2.262 1_554 S
Co43 O62 1.958 . S
Co43 O66 1.950 . S
Co43 O67 2.057 1_554 S
N44 Co43 2.034 . S
N44 C45 1.366 . S
N44 C47 1.332 1_554 S
C45 N44 1.366 . S
C45 C48 1.377 . S
C45 H77 0.931 . S
N46 C47 1.346 1_554 S
N46 C48 1.337 . S
C47 N44 1.332 1_556 S
C47 N46 1.346 1_556 S
C47 C81 1.361 . S
C48 C45 1.377 . S
C48 N46 1.337 . S
C48 H84 0.930 . S
Co49 N50 2.034 1_554 S
Co49 O63 1.950 1_554 S
Co49 O64 2.262 . S
Co49 O65 1.958 . S
Co49 O69 2.057 . S
N50 Co49 2.034 1_556 S
N50 C53 1.366 1_556 S
N50 C54 1.332 . S
N51 C52 1.337 1_556 S
N51 C54 1.346 1_455 S
C52 N51 1.337 1_554 S
C52 C53 1.378 1_455 S
C52 H85 0.929 . S
C53 N50 1.366 1_554 S
C53 C52 1.378 1_655 S
C53 H57 0.931 . S
C54 N50 1.332 . S
C54 N51 1.346 1_655 S
C54 C71 1.361 . S
Co55 O58 2.097 1_554 S
Co55 O59 2.065 1_554 S
Co55 O60 2.065 . S
Co55 O61 2.042 . S
Co55 O64 2.097 . S
Co55 O68 2.042 . S
C56 O64 1.253 . S
C56 O69 1.263 . S
H57 C53 0.931 . S
O58 Co43 2.262 1_556 S
O58 Co55 2.097 1_556 S
O58 C82 1.253 . S
O59 Co55 2.065 1_556 S
O59 C75 1.221 . S
O60 Co55 2.065 . S
O60 C70 1.221 . S
O61 Co55 2.042 . S
O61 C76 1.237 . S
O62 Co43 1.958 . S
O62 C76 1.278 . S
O63 Co49 1.950 1_556 S
O63 C75 1.277 . S
O64 Co49 2.262 . S
O64 Co55 2.097 . S
O64 C56 1.253 . S
O65 Co49 1.958 . S
O65 C83 1.278 . S
O66 Co43 1.950 . S
O66 C70 1.277 . S
O67 Co43 2.057 1_556 S
O67 C82 1.263 . S
O68 Co55 2.042 . S
O68 C83 1.238 . S
O69 Co49 2.057 . S
O69 C56 1.263 . S
C70 O60 1.221 . S
C70 O66 1.277 . S
C71 C54 1.361 . S
C71 H72 0.960 . S
C71 H73 0.961 1_655 S
C71 H74 0.961 1_656 S
H72 C71 0.960 . S
H73 C71 0.961 1_455 S
H74 C71 0.961 1_454 S
C75 O59 1.221 . S
C75 O63 1.277 . S
C76 O61 1.237 . S
C76 O62 1.278 . S
H77 C45 0.931 . S
H78 C81 0.961 . S
H79 C81 0.961 . S
H80 C81 0.960 . S
C81 C47 1.361 . S
C81 H78 0.961 . S
C81 H79 0.961 . S
C81 H80 0.960 . S
C82 O58 1.253 . S
C82 O67 1.263 . S
C83 O65 1.278 . S
C83 O68 1.238 . S
H84 C48 0.930 . S
H85 C52 0.929 . S
Co86 N87 2.034 . S
Co86 O101 2.262 . S
Co86 O105 1.958 . S
Co86 O109 1.950 . S
Co86 O110 2.057 . S
N87 Co86 2.034 . S
N87 C88 1.366 . S
N87 C90 1.332 . S
C88 N87 1.366 . S
C88 C91 1.377 . S
C88 H120 0.931 . S
N89 C90 1.346 . S
N89 C91 1.337 . S
C90 N87 1.332 . S
C90 N89 1.346 . S
C90 C124 1.361 . S
C91 C88 1.377 . S
C91 N89 1.337 . S
C91 H127 0.930 . S
Co92 N93 2.034 . S
Co92 O106 1.950 . S
Co92 O107 2.262 . S
Co92 O108 1.958 . S
Co92 O112 2.057 . S
N93 Co92 2.034 . S
N93 C96 1.366 . S
N93 C97 1.332 . S
N94 C95 1.337 . S
N94 C97 1.346 1_655 S
C95 N94 1.337 . S
C95 C96 1.377 1_655 S
C95 H128 0.930 . S
C96 N93 1.366 . S
C96 C95 1.377 1_455 S
C96 H100 0.931 . S
C97 N93 1.332 . S
C97 N94 1.346 1_455 S
C97 C114 1.361 . S
Co98 O101 2.097 . S
Co98 O102 2.065 . S
Co98 O103 2.065 . S
Co98 O104 2.042 . S
Co98 O107 2.097 . S
Co98 O111 2.042 . S
C99 O107 1.253 . S
C99 O112 1.263 . S
H100 C96 0.931 . S
O101 Co86 2.262 . S
O101 Co98 2.097 . S
O101 C125 1.253 . S
O102 Co98 2.065 . S
O102 C118 1.221 . S
O103 Co98 2.065 . S
O103 C113 1.221 . S
O104 Co98 2.042 . S
O104 C119 1.237 . S
O105 Co86 1.958 . S
O105 C119 1.278 . S
O106 Co92 1.950 . S
O106 C118 1.277 . S
O107 Co92 2.262 . S
O107 Co98 2.097 . S
O107 C99 1.253 . S
O108 Co92 1.958 . S
O108 C126 1.278 . S
O109 Co86 1.950 . S
O109 C113 1.277 . S
O110 Co86 2.057 . S
O110 C125 1.263 . S
O111 Co98 2.042 . S
O111 C126 1.237 . S
O112 Co92 2.057 . S
O112 C99 1.263 . S
C113 O103 1.221 . S
C113 O109 1.277 . S
C114 C97 1.361 . S
C114 H115 0.960 . S
C114 H116 0.961 1_455 S
C114 H117 0.961 1_455 S
H115 C114 0.960 . S
H116 C114 0.961 1_655 S
H117 C114 0.961 1_655 S
C118 O102 1.221 . S
C118 O106 1.277 . S
C119 O104 1.237 . S
C119 O105 1.278 . S
H120 C88 0.931 . S
H121 C124 0.961 . S
H122 C124 0.961 . S
H123 C124 0.960 . S
C124 C90 1.361 . S
C124 H121 0.961 . S
C124 H122 0.961 . S
C124 H123 0.960 . S
C125 O101 1.253 . S
C125 O110 1.263 . S
C126 O108 1.278 . S
C126 O111 1.237 . S
H127 C91 0.930 . S
H128 C95 0.930 . S
Co129 N130 2.034 . S
Co129 O144 2.262 . S
Co129 O148 1.958 . S
Co129 O152 1.950 . S
Co129 O153 2.057 . S
N130 Co129 2.034 . S
N130 C131 1.366 . S
N130 C133 1.332 . S
C131 N130 1.366 . S
C131 C134 1.377 . S
C131 H163 0.931 . S
N132 C133 1.346 . S
N132 C134 1.337 . S
C133 N130 1.332 . S
C133 N132 1.346 . S
C133 C167 1.361 . S
C134 C131 1.377 . S
C134 N132 1.337 . S
C134 H170 0.930 . S
Co135 N136 2.034 . S
Co135 O149 1.950 . S
Co135 O150 2.262 . S
Co135 O151 1.958 . S
Co135 O155 2.057 . S
N136 Co135 2.034 . S
N136 C139 1.366 . S
N136 C140 1.332 . S
N137 C138 1.337 . S
N137 C140 1.346 1_455 S
C138 N137 1.337 . S
C138 C139 1.377 1_455 S
C138 H171 0.930 . S
C139 N136 1.366 . S
C139 C138 1.377 1_655 S
C139 H143 0.931 . S
C140 N136 1.332 . S
C140 N137 1.346 1_655 S
C140 C157 1.361 . S
Co141 O144 2.097 . S
Co141 O145 2.065 . S
Co141 O146 2.065 . S
Co141 O147 2.042 . S
Co141 O150 2.097 . S
Co141 O154 2.042 . S
C142 O150 1.253 . S
C142 O155 1.263 . S
H143 C139 0.931 . S
O144 Co129 2.262 . S
O144 Co141 2.097 . S
O144 C168 1.253 . S
O145 Co141 2.065 . S
O145 C161 1.221 . S
O146 Co141 2.065 . S
O146 C156 1.221 . S
O147 Co141 2.042 . S
O147 C162 1.237 . S
O148 Co129 1.958 . S
O148 C162 1.278 . S
O149 Co135 1.950 . S
O149 C161 1.277 . S
O150 Co135 2.262 . S
O150 Co141 2.097 . S
O150 C142 1.253 . S
O151 Co135 1.958 . S
O151 C169 1.278 . S
O152 Co129 1.950 . S
O152 C156 1.277 . S
O153 Co129 2.057 . S
O153 C168 1.263 . S
O154 Co141 2.042 . S
O154 C169 1.237 . S
O155 Co135 2.057 . S
O155 C142 1.263 . S
C156 O146 1.221 . S
C156 O152 1.277 . S
C157 C140 1.361 . S
C157 H158 0.960 . S
C157 H159 0.961 . S
C157 H160 0.961 . S
H158 C157 0.960 . S
H159 C157 0.961 . S
H160 C157 0.961 . S
C161 O145 1.221 . S
C161 O149 1.277 . S
C162 O147 1.237 . S
C162 O148 1.278 . S
H163 C131 0.931 . S
H164 C167 0.961 . S
H165 C167 0.961 . S
H166 C167 0.960 . S
C167 C133 1.361 . S
C167 H164 0.961 . S
C167 H165 0.961 . S
C167 H166 0.960 . S
C168 O144 1.253 . S
C168 O153 1.263 . S
C169 O151 1.278 . S
C169 O154 1.237 . S
H170 C134 0.930 . S
H171 C138 0.930 . S
H172 C190 0.951 . S
H173 C192 0.951 . S
H174 C194 0.950 . S
H175 C195 0.950 . S
H176 C197 0.950 . S
H177 C200 0.950 . S
H178 C201 0.950 . S
H179 C203 0.950 . S
H180 C204 0.950 . S
H181 C205 0.951 . S
H182 C207 0.951 . S
H183 C209 0.950 . S
H184 C210 0.950 . S
H185 C212 0.950 . S
H186 C215 0.950 . S
H187 C216 0.950 . S
H188 C218 0.950 . S
H189 C219 0.950 . S
C190 H172 0.951 . S
C190 C191 1.366 . S
C190 C192 1.388 . S
C191 C190 1.366 . S
C191 C195 1.385 1_554 S
C192 H173 0.951 . S
C192 C190 1.388 . S
C192 C193 1.363 1_554 S
C193 C192 1.363 1_556 S
C193 C194 1.416 . S
C193 C196 1.499 . S
C194 H174 0.950 . S
C194 C193 1.416 . S
C194 C195 1.374 . S
C195 H175 0.950 . S
C195 C191 1.385 1_556 S
C195 C194 1.374 . S
C196 C193 1.499 . S
C196 C197 1.373 1_556 S
C196 C198 1.389 . S
C197 H176 0.950 . S
C197 C196 1.373 1_554 S
C197 C213 1.377 . S
C198 C196 1.389 . S
C198 C199 1.524 . S
C198 C212 1.377 . S
C199 C198 1.524 . S
C199 C200 1.397 . S
C199 C204 1.363 . S
C200 H177 0.950 . S
C200 C199 1.397 . S
C200 C201 1.334 . S
C201 H178 0.950 . S
C201 C200 1.334 . S
C201 C202 1.287 . S
C202 C201 1.287 . S
C202 C203 1.524 . S
C202 H221 0.913 . S
C203 H179 0.950 . S
C203 C202 1.524 . S
C203 C204 1.415 . S
C204 H180 0.950 . S
C204 C199 1.363 . S
C204 C203 1.415 . S
C205 H181 0.951 . S
C205 C206 1.366 . S
C205 C207 1.388 . S
C206 C205 1.366 . S
C206 C210 1.385 1_556 S
C207 H182 0.951 . S
C207 C205 1.388 . S
C207 C208 1.366 . S
C208 C207 1.366 . S
C208 C209 1.414 1_556 S
C208 C211 1.499 . S
C209 H183 0.950 . S
C209 C208 1.414 1_554 S
C209 C210 1.374 . S
C210 H184 0.950 . S
C210 C206 1.385 1_554 S
C210 C209 1.374 . S
C211 C208 1.499 . S
C211 C212 1.373 . S
C211 C213 1.389 1_556 S
C212 H185 0.950 . S
C212 C198 1.377 . S
C212 C211 1.373 . S
C213 C197 1.377 . S
C213 C211 1.389 1_554 S
C213 C214 1.524 . S
C214 C213 1.524 . S
C214 C215 1.397 . S
C214 C219 1.363 . S
C215 H186 0.950 . S
C215 C214 1.397 . S
C215 C216 1.334 . S
C216 H187 0.950 . S
C216 C215 1.334 . S
C216 C217 1.287 . S
C217 C216 1.287 . S
C217 C218 1.524 . S
C217 H220 0.999 . S
C218 H188 0.950 . S
C218 C217 1.524 . S
C218 C219 1.415 . S
C219 H189 0.950 . S
C219 C214 1.363 . S
C219 C218 1.415 . S
H220 C217 0.999 . S
H221 C202 0.913 . S
H222 C240 0.951 . S
H223 C242 0.951 . S
H224 C244 0.950 . S
H225 C245 0.950 . S
H226 C247 0.950 . S
H227 C250 0.950 . S
H228 C251 0.950 . S
H229 C253 0.950 . S
H230 C254 0.950 . S
H231 C255 0.951 . S
H232 C257 0.951 . S
H233 C259 0.950 . S
H234 C260 0.950 . S
H235 C262 0.950 . S
H236 C265 0.950 . S
H237 C266 0.950 . S
H238 C268 0.950 . S
H239 C269 0.950 . S
C240 H222 0.951 . S
C240 C241 1.366 1_556 S
C240 C242 1.388 . S
C241 C240 1.366 1_554 S
C241 C245 1.385 . S
C242 H223 0.951 . S
C242 C240 1.388 . S
C242 C243 1.366 1_556 S
C243 C242 1.366 1_554 S
C243 C244 1.414 . S
C243 C246 1.499 . S
C244 H224 0.950 . S
C244 C243 1.414 . S
C244 C245 1.374 . S
C245 H225 0.950 . S
C245 C241 1.385 . S
C245 C244 1.374 . S
C246 C243 1.499 . S
C246 C247 1.373 1_554 S
C246 C248 1.389 . S
C247 H226 0.950 . S
C247 C246 1.373 1_556 S
C247 C263 1.377 . S
C248 C246 1.389 . S
C248 C249 1.524 . S
C248 C262 1.377 . S
C249 C248 1.524 . S
C249 C250 1.397 . S
C249 C254 1.363 . S
C250 H227 0.950 . S
C250 C249 1.397 . S
C250 C251 1.334 . S
C251 H228 0.950 . S
C251 C250 1.334 . S
C251 C252 1.287 . S
C252 C251 1.287 . S
C252 C253 1.524 . S
C252 H271 0.913 . S
C253 H229 0.950 . S
C253 C252 1.524 . S
C253 C254 1.415 . S
C254 H230 0.950 . S
C254 C249 1.363 . S
C254 C253 1.415 . S
C255 H231 0.951 . S
C255 C256 1.366 1_554 S
C255 C257 1.388 . S
C256 C255 1.366 1_556 S
C256 C260 1.385 . S
C257 H232 0.951 . S
C257 C255 1.388 . S
C257 C258 1.366 1_554 S
C258 C257 1.366 1_556 S
C258 C259 1.414 . S
C258 C261 1.499 . S
C259 H233 0.950 . S
C259 C258 1.414 . S
C259 C260 1.374 . S
C260 H234 0.950 . S
C260 C256 1.385 . S
C260 C259 1.374 . S
C261 C258 1.499 . S
C261 C262 1.373 1_556 S
C261 C263 1.389 . S
C262 H235 0.950 . S
C262 C248 1.377 . S
C262 C261 1.373 1_554 S
C263 C247 1.377 . S
C263 C261 1.389 . S
C263 C264 1.524 . S
C264 C263 1.524 . S
C264 C265 1.397 . S
C264 C269 1.363 . S
C265 H236 0.950 . S
C265 C264 1.397 . S
C265 C266 1.334 . S
C266 H237 0.950 . S
C266 C265 1.334 . S
C266 C267 1.287 . S
C267 C266 1.287 . S
C267 C268 1.524 . S
C267 H270 0.999 . S
C268 H238 0.950 . S
C268 C267 1.524 . S
C268 C269 1.415 . S
C269 H239 0.950 . S
C269 C264 1.363 . S
C269 C268 1.415 . S
H270 C267 0.999 . S
H271 C252 0.913 . S
H272 C290 0.951 . S
H273 C292 0.951 . S
H274 C294 0.950 . S
H275 C295 0.950 . S
H276 C297 0.950 . S
H277 C300 0.950 . S
H278 C301 0.950 . S
H279 C303 0.950 . S
H280 C304 0.950 . S
H281 C305 0.951 . S
H282 C307 0.951 . S
H283 C309 0.950 . S
H284 C310 0.950 . S
H285 C312 0.950 . S
H286 C315 0.950 . S
H287 C316 0.950 . S
H288 C318 0.950 . S
H289 C319 0.950 . S
C290 H272 0.951 . S
C290 C291 1.366 . S
C290 C292 1.388 . S
C291 C290 1.366 . S
C291 C295 1.385 . S
C292 H273 0.951 . S
C292 C290 1.388 . S
C292 C293 1.366 . S
C293 C292 1.366 . S
C293 C294 1.414 . S
C293 C296 1.499 . S
C294 H274 0.950 . S
C294 C293 1.414 . S
C294 C295 1.374 . S
C295 H275 0.950 . S
C295 C291 1.385 . S
C295 C294 1.374 . S
C296 C293 1.499 . S
C296 C297 1.373 . S
C296 C298 1.389 . S
C297 H276 0.950 . S
C297 C296 1.373 . S
C297 C313 1.377 . S
C298 C296 1.389 . S
C298 C299 1.524 . S
C298 C312 1.377 . S
C299 C298 1.524 . S
C299 C300 1.397 . S
C299 C304 1.363 . S
C300 H277 0.950 . S
C300 C299 1.397 . S
C300 C301 1.334 . S
C301 H278 0.950 . S
C301 C300 1.334 . S
C301 C302 1.287 . S
C302 C301 1.287 . S
C302 C303 1.524 . S
C302 H321 0.913 . S
C303 H279 0.950 . S
C303 C302 1.524 . S
C303 C304 1.415 . S
C304 H280 0.950 . S
C304 C299 1.363 . S
C304 C303 1.415 . S
C305 H281 0.951 . S
C305 C306 1.366 . S
C305 C307 1.388 . S
C306 C305 1.366 . S
C306 C310 1.385 . S
C307 H282 0.951 . S
C307 C305 1.388 . S
C307 C308 1.366 . S
C308 C307 1.366 . S
C308 C309 1.414 . S
C308 C311 1.499 . S
C309 H283 0.950 . S
C309 C308 1.414 . S
C309 C310 1.374 . S
C310 H284 0.950 . S
C310 C306 1.385 . S
C310 C309 1.374 . S
C311 C308 1.499 . S
C311 C312 1.373 . S
C311 C313 1.389 . S
C312 H285 0.950 . S
C312 C298 1.377 . S
C312 C311 1.373 . S
C313 C297 1.377 . S
C313 C311 1.389 . S
C313 C314 1.524 . S
C314 C313 1.524 . S
C314 C315 1.397 . S
C314 C319 1.363 . S
C315 H286 0.950 . S
C315 C314 1.397 . S
C315 C316 1.334 . S
C316 H287 0.950 . S
C316 C315 1.334 . S
C316 C317 1.287 . S
C317 C316 1.287 . S
C317 C318 1.524 . S
C317 H320 0.999 . S
C318 H288 0.950 . S
C318 C317 1.524 . S
C318 C319 1.415 . S
C319 H289 0.950 . S
C319 C314 1.363 . S
C319 C318 1.415 . S
H320 C317 0.999 . S
H321 C302 0.913 . S
H322 C340 0.951 . S
H323 C342 0.951 . S
H324 C344 0.950 . S
H325 C345 0.950 . S
H326 C347 0.950 . S
H327 C350 0.950 . S
H328 C351 0.950 . S
H329 C353 0.950 . S
H330 C354 0.950 . S
H331 C355 0.951 . S
H332 C357 0.951 . S
H333 C359 0.950 . S
H334 C360 0.950 . S
H335 C362 0.950 . S
H336 C365 0.950 . S
H337 C366 0.950 . S
H338 C368 0.950 . S
H339 C369 0.950 . S
C340 H322 0.951 . S
C340 C341 1.366 . S
C340 C342 1.388 . S
C341 C340 1.366 . S
C341 C345 1.385 . S
C342 H323 0.951 . S
C342 C340 1.388 . S
C342 C343 1.366 . S
C343 C342 1.366 . S
C343 C344 1.414 . S
C343 C346 1.499 . S
C344 H324 0.950 . S
C344 C343 1.414 . S
C344 C345 1.374 . S
C345 H325 0.950 . S
C345 C341 1.385 . S
C345 C344 1.374 . S
C346 C343 1.499 . S
C346 C347 1.373 . S
C346 C348 1.389 . S
C347 H326 0.950 . S
C347 C346 1.373 . S
C347 C363 1.377 . S
C348 C346 1.389 . S
C348 C349 1.524 . S
C348 C362 1.377 . S
C349 C348 1.524 . S
C349 C350 1.397 . S
C349 C354 1.363 . S
C350 H327 0.950 . S
C350 C349 1.397 . S
C350 C351 1.334 . S
C351 H328 0.950 . S
C351 C350 1.334 . S
C351 C352 1.287 . S
C352 C351 1.287 . S
C352 C353 1.524 . S
C352 H371 0.913 . S
C353 H329 0.950 . S
C353 C352 1.524 . S
C353 C354 1.415 . S
C354 H330 0.950 . S
C354 C349 1.363 . S
C354 C353 1.415 . S
C355 H331 0.951 . S
C355 C356 1.366 . S
C355 C357 1.388 . S
C356 C355 1.366 . S
C356 C360 1.385 . S
C357 H332 0.951 . S
C357 C355 1.388 . S
C357 C358 1.366 . S
C358 C357 1.366 . S
C358 C359 1.414 . S
C358 C361 1.499 . S
C359 H333 0.950 . S
C359 C358 1.414 . S
C359 C360 1.374 . S
C360 H334 0.950 . S
C360 C356 1.385 . S
C360 C359 1.374 . S
C361 C358 1.499 . S
C361 C362 1.373 . S
C361 C363 1.389 . S
C362 H335 0.950 . S
C362 C348 1.377 . S
C362 C361 1.373 . S
C363 C347 1.377 . S
C363 C361 1.389 . S
C363 C364 1.524 . S
C364 C363 1.524 . S
C364 C365 1.397 . S
C364 C369 1.363 . S
C365 H336 0.950 . S
C365 C364 1.397 . S
C365 C366 1.334 . S
C366 H337 0.950 . S
C366 C365 1.334 . S
C366 C367 1.287 . S
C367 C366 1.287 . S
C367 C368 1.524 . S
C367 H370 0.999 . S
C368 H338 0.950 . S
C368 C367 1.524 . S
C368 C369 1.415 . S
C369 H339 0.950 . S
C369 C364 1.363 . S
C369 C368 1.415 . S
H370 C367 0.999 . S
H371 C352 0.913 . S
H372 C390 0.951 . S
H373 C392 0.951 . S
H374 C394 0.950 . S
H375 C395 0.950 . S
H376 C397 0.950 . S
H377 C400 0.950 . S
H378 C401 0.950 . S
H379 C403 0.950 . S
H380 C404 0.950 . S
H381 C405 0.951 . S
H382 C407 0.951 . S
H383 C409 0.950 . S
H384 C410 0.950 . S
H385 C412 0.950 . S
H386 C415 0.950 . S
H387 C416 0.950 . S
H388 C418 0.950 . S
H389 C419 0.950 . S
C390 H372 0.951 . S
C390 C391 1.366 1_556 S
C390 C392 1.388 . S
C391 C390 1.366 1_554 S
C391 C395 1.385 . S
C392 H373 0.951 . S
C392 C390 1.388 . S
C392 C393 1.366 1_556 S
C393 C392 1.366 1_554 S
C393 C394 1.414 . S
C393 C396 1.499 . S
C394 H374 0.950 . S
C394 C393 1.414 . S
C394 C395 1.374 . S
C395 H375 0.950 . S
C395 C391 1.385 . S
C395 C394 1.374 . S
C396 C393 1.499 . S
C396 C397 1.373 . S
C396 C398 1.389 1_554 S
C397 H376 0.950 . S
C397 C396 1.373 . S
C397 C413 1.377 . S
C398 C396 1.389 1_556 S
C398 C399 1.524 . S
C398 C412 1.377 . S
C399 C398 1.524 . S
C399 C400 1.397 . S
C399 C404 1.363 . S
C400 H377 0.950 . S
C400 C399 1.397 . S
C400 C401 1.334 . S
C401 H378 0.950 . S
C401 C400 1.334 . S
C401 C402 1.287 . S
C402 C401 1.287 . S
C402 C403 1.524 . S
C402 H421 0.913 . S
C403 H379 0.950 . S
C403 C402 1.524 . S
C403 C404 1.415 . S
C404 H380 0.950 . S
C404 C399 1.363 . S
C404 C403 1.415 . S
C405 H381 0.951 . S
C405 C406 1.366 . S
C405 C407 1.388 . S
C406 C405 1.366 . S
C406 C410 1.385 1_554 S
C407 H382 0.951 . S
C407 C405 1.388 . S
C407 C408 1.366 . S
C408 C407 1.366 . S
C408 C409 1.414 1_554 S
C408 C411 1.499 . S
C409 H383 0.950 . S
C409 C408 1.414 1_556 S
C409 C410 1.374 . S
C410 H384 0.950 . S
C410 C406 1.385 1_556 S
C410 C409 1.374 . S
C411 C408 1.499 . S
C411 C412 1.373 1_554 S
C411 C413 1.389 . S
C412 H385 0.950 . S
C412 C398 1.377 . S
C412 C411 1.373 1_556 S
C413 C397 1.377 . S
C413 C411 1.389 . S
C413 C414 1.524 . S
C414 C413 1.524 . S
C414 C415 1.397 . S
C414 C419 1.363 . S
C415 H386 0.950 . S
C415 C414 1.397 . S
C415 C416 1.334 . S
C416 H387 0.950 . S
C416 C415 1.334 . S
C416 C417 1.287 . S
C417 C416 1.287 . S
C417 C418 1.524 . S
C417 H420 0.999 . S
C418 H388 0.950 . S
C418 C417 1.524 . S
C418 C419 1.415 . S
C419 H389 0.950 . S
C419 C414 1.363 . S
C419 C418 1.415 . S
H420 C417 0.999 . S
H421 C402 0.913 . S
H422 C440 0.951 . S
H423 C442 0.951 . S
H424 C444 0.950 . S
H425 C445 0.950 . S
H426 C447 0.950 . S
H427 C450 0.950 . S
H428 C451 0.950 . S
H429 C453 0.950 . S
H430 C454 0.950 . S
H431 C455 0.951 . S
H432 C457 0.951 . S
H433 C459 0.950 . S
H434 C460 0.950 . S
H435 C462 0.950 . S
H436 C465 0.950 . S
H437 C466 0.950 . S
H438 C468 0.950 . S
H439 C469 0.950 . S
C440 H422 0.951 . S
C440 C441 1.366 . S
C440 C442 1.388 . S
C441 C440 1.366 . S
C441 C445 1.385 . S
C442 H423 0.951 . S
C442 C440 1.388 . S
C442 C443 1.366 . S
C443 C442 1.366 . S
C443 C444 1.414 . S
C443 C446 1.499 . S
C444 H424 0.950 . S
C444 C443 1.414 . S
C444 C445 1.374 . S
C445 H425 0.950 . S
C445 C441 1.385 . S
C445 C444 1.374 . S
C446 C443 1.499 . S
C446 C447 1.373 . S
C446 C448 1.389 . S
C447 H426 0.950 . S
C447 C446 1.373 . S
C447 C463 1.377 . S
C448 C446 1.389 . S
C448 C449 1.524 . S
C448 C462 1.377 . S
C449 C448 1.524 . S
C449 C450 1.397 . S
C449 C454 1.363 . S
C450 H427 0.950 . S
C450 C449 1.397 . S
C450 C451 1.334 . S
C451 H428 0.950 . S
C451 C450 1.334 . S
C451 C452 1.287 . S
C452 C451 1.287 . S
C452 C453 1.524 . S
C452 H471 0.913 . S
C453 H429 0.950 . S
C453 C452 1.524 . S
C453 C454 1.415 . S
C454 H430 0.950 . S
C454 C449 1.363 . S
C454 C453 1.415 . S
C455 H431 0.951 . S
C455 C456 1.366 . S
C455 C457 1.388 . S
C456 C455 1.366 . S
C456 C460 1.385 . S
C457 H432 0.951 . S
C457 C455 1.388 . S
C457 C458 1.366 . S
C458 C457 1.366 . S
C458 C459 1.414 . S
C458 C461 1.499 . S
C459 H433 0.950 . S
C459 C458 1.414 . S
C459 C460 1.374 . S
C460 H434 0.950 . S
C460 C456 1.385 . S
C460 C459 1.374 . S
C461 C458 1.499 . S
C461 C462 1.373 . S
C461 C463 1.389 . S
C462 H435 0.950 . S
C462 C448 1.377 . S
C462 C461 1.373 . S
C463 C447 1.377 . S
C463 C461 1.389 . S
C463 C464 1.524 . S
C464 C463 1.524 . S
C464 C465 1.397 . S
C464 C469 1.363 . S
C465 H436 0.950 . S
C465 C464 1.397 . S
C465 C466 1.334 . S
C466 H437 0.950 . S
C466 C465 1.334 . S
C466 C467 1.287 . S
C467 C466 1.287 . S
C467 C468 1.524 . S
C467 H470 0.999 . S
C468 H438 0.950 . S
C468 C467 1.524 . S
C468 C469 1.415 . S
C469 H439 0.950 . S
C469 C464 1.363 . S
C469 C468 1.415 . S
H470 C467 0.999 . S
H471 C452 0.913 . S
H472 C490 0.951 . S
H473 C492 0.951 . S
H474 C494 0.950 . S
H475 C495 0.950 . S
H476 C497 0.950 . S
H477 C500 0.950 . S
H478 C501 0.950 . S
H479 C503 0.950 . S
H480 C504 0.950 . S
H481 C505 0.951 . S
H482 C507 0.951 . S
H483 C509 0.950 . S
H484 C510 0.950 . S
H485 C512 0.950 . S
H486 C515 0.950 . S
H487 C516 0.950 . S
H488 C518 0.950 . S
H489 C519 0.950 . S
C490 H472 0.951 . S
C490 C491 1.366 . S
C490 C492 1.388 . S
C491 C490 1.366 . S
C491 C495 1.385 1_554 S
C492 H473 0.951 . S
C492 C490 1.388 . S
C492 C493 1.366 . S
C493 C492 1.366 . S
C493 C494 1.414 1_554 S
C493 C496 1.499 . S
C494 H474 0.950 . S
C494 C493 1.414 1_556 S
C494 C495 1.374 . S
C495 H475 0.950 . S
C495 C491 1.385 1_556 S
C495 C494 1.374 . S
C496 C493 1.499 . S
C496 C497 1.373 1_554 S
C496 C498 1.389 . S
C497 H476 0.950 . S
C497 C496 1.373 1_556 S
C497 C513 1.377 1_445 S
C498 C496 1.389 . S
C498 C499 1.524 . S
C498 C512 1.377 1_455 S
C499 C498 1.524 . S
C499 C500 1.397 . S
C499 C504 1.363 1_455 S
C500 H477 0.950 . S
C500 C499 1.397 . S
C500 C501 1.334 . S
C501 H478 0.950 . S
C501 C500 1.334 . S
C501 C502 1.287 . S
C502 C501 1.287 . S
C502 C503 1.524 1_455 S
C502 H521 0.913 . S
C503 H479 0.950 . S
C503 C502 1.524 1_655 S
C503 C504 1.415 . S
C504 H480 0.950 . S
C504 C499 1.363 1_655 S
C504 C503 1.415 . S
C505 H481 0.951 . S
C505 C506 1.366 1_556 S
C505 C507 1.388 . S
C506 C505 1.366 1_554 S
C506 C510 1.385 . S
C507 H482 0.951 . S
C507 C505 1.388 . S
C507 C508 1.366 1_556 S
C508 C507 1.366 1_554 S
C508 C509 1.414 . S
C508 C511 1.499 . S
C509 H483 0.950 . S
C509 C508 1.414 . S
C509 C510 1.374 . S
C510 H484 0.950 . S
C510 C506 1.385 . S
C510 C509 1.374 . S
C511 C508 1.499 . S
C511 C512 1.373 1_565 S
C511 C513 1.389 1_554 S
C512 H485 0.950 . S
C512 C498 1.377 1_655 S
C512 C511 1.373 1_545 S
C513 C497 1.377 1_665 S
C513 C511 1.389 1_556 S
C513 C514 1.524 . S
C514 C513 1.524 . S
C514 C515 1.397 . S
C514 C519 1.363 1_655 S
C515 H486 0.950 . S
C515 C514 1.397 . S
C515 C516 1.334 . S
C516 H487 0.950 . S
C516 C515 1.334 . S
C516 C517 1.287 . S
C517 C516 1.287 . S
C517 C518 1.524 1_655 S
C517 H520 0.999 . S
C518 H488 0.950 . S
C518 C517 1.524 1_455 S
C518 C519 1.415 . S
C519 H489 0.950 . S
C519 C514 1.363 1_455 S
C519 C518 1.415 . S
H520 C517 0.999 . S
H521 C502 0.913 . S
H522 C540 0.951 . S
H523 C542 0.951 . S
H524 C544 0.950 . S
H525 C545 0.950 . S
H526 C547 0.950 . S
H527 C550 0.950 . S
H528 C551 0.950 . S
H529 C553 0.950 . S
H530 C554 0.950 . S
H531 C555 0.951 . S
H532 C557 0.951 . S
H533 C559 0.950 . S
H534 C560 0.950 . S
H535 C562 0.950 . S
H536 C565 0.950 . S
H537 C566 0.950 . S
H538 C568 0.950 . S
H539 C569 0.950 . S
C540 H522 0.951 . S
C540 C541 1.366 . S
C540 C542 1.388 . S
C541 C540 1.366 . S
C541 C545 1.385 . S
C542 H523 0.951 . S
C542 C540 1.388 . S
C542 C543 1.366 . S
C543 C542 1.366 . S
C543 C544 1.414 . S
C543 C546 1.499 . S
C544 H524 0.950 . S
C544 C543 1.414 . S
C544 C545 1.374 . S
C545 H525 0.950 . S
C545 C541 1.385 . S
C545 C544 1.374 . S
C546 C543 1.499 . S
C546 C547 1.373 . S
C546 C548 1.389 . S
C547 H526 0.950 . S
C547 C546 1.373 . S
C547 C563 1.377 1_655 S
C548 C546 1.389 . S
C548 C549 1.524 . S
C548 C562 1.377 1_645 S
C549 C548 1.524 . S
C549 C550 1.397 . S
C549 C554 1.363 1_545 S
C550 H527 0.950 . S
C550 C549 1.397 . S
C550 C551 1.334 . S
C551 H528 0.950 . S
C551 C550 1.334 . S
C551 C552 1.287 . S
C552 C551 1.287 . S
C552 C553 1.524 1_545 S
C552 H571 0.913 . S
C553 H529 0.950 . S
C553 C552 1.524 1_565 S
C553 C554 1.415 . S
C554 H530 0.950 . S
C554 C549 1.363 1_565 S
C554 C553 1.415 . S
C555 H531 0.951 . S
C555 C556 1.366 . S
C555 C557 1.388 . S
C556 C555 1.366 . S
C556 C560 1.385 . S
C557 H532 0.951 . S
C557 C555 1.388 . S
C557 C558 1.366 . S
C558 C557 1.366 . S
C558 C559 1.414 . S
C558 C561 1.499 . S
C559 H533 0.950 . S
C559 C558 1.414 . S
C559 C560 1.374 . S
C560 H534 0.950 . S
C560 C556 1.385 . S
C560 C559 1.374 . S
C561 C558 1.499 . S
C561 C562 1.373 . S
C561 C563 1.389 1_565 S
C562 H535 0.950 . S
C562 C548 1.377 1_465 S
C562 C561 1.373 . S
C563 C547 1.377 1_455 S
C563 C561 1.389 1_545 S
C563 C564 1.524 1_545 S
C564 C563 1.524 1_565 S
C564 C565 1.397 . S
C564 C569 1.363 1_565 S
C565 H536 0.950 . S
C565 C564 1.397 . S
C565 C566 1.334 . S
C566 H537 0.950 . S
C566 C565 1.334 . S
C566 C567 1.287 . S
C567 C566 1.287 . S
C567 C568 1.524 1_565 S
C567 H570 0.999 . S
C568 H538 0.950 . S
C568 C567 1.524 1_545 S
C568 C569 1.415 . S
C569 H539 0.950 . S
C569 C564 1.363 1_545 S
C569 C568 1.415 . S
H570 C567 0.999 . S
H571 C552 0.913 . S
H572 C590 0.951 . S
H573 C592 0.951 . S
H574 C594 0.950 . S
H575 C595 0.950 . S
H576 C597 0.950 . S
H577 C600 0.950 . S
H578 C601 0.950 . S
H579 C603 0.950 . S
H580 C604 0.950 . S
H581 C605 0.951 . S
H582 C607 0.951 . S
H583 C609 0.950 . S
H584 C610 0.950 . S
H585 C612 0.950 . S
H586 C615 0.950 . S
H587 C616 0.950 . S
H588 C618 0.950 . S
H589 C619 0.950 . S
C590 H572 0.951 . S
C590 C591 1.366 . S
C590 C592 1.388 . S
C591 C590 1.366 . S
C591 C595 1.385 . S
C592 H573 0.951 . S
C592 C590 1.388 . S
C592 C593 1.366 . S
C593 C592 1.366 . S
C593 C594 1.414 . S
C593 C596 1.499 . S
C594 H574 0.950 . S
C594 C593 1.414 . S
C594 C595 1.374 . S
C595 H575 0.950 . S
C595 C591 1.385 . S
C595 C594 1.374 . S
C596 C593 1.499 . S
C596 C597 1.373 . S
C596 C598 1.389 . S
C597 H576 0.950 . S
C597 C596 1.373 . S
C597 C613 1.377 . S
C598 C596 1.389 . S
C598 C599 1.524 . S
C598 C612 1.377 . S
C599 C598 1.524 . S
C599 C600 1.397 . S
C599 C604 1.363 . S
C600 H577 0.950 . S
C600 C599 1.397 . S
C600 C601 1.334 . S
C601 H578 0.950 . S
C601 C600 1.334 . S
C601 C602 1.287 . S
C602 C601 1.287 . S
C602 C603 1.524 . S
C602 H621 0.913 . S
C603 H579 0.950 . S
C603 C602 1.524 . S
C603 C604 1.415 . S
C604 H580 0.950 . S
C604 C599 1.363 . S
C604 C603 1.415 . S
C605 H581 0.951 . S
C605 C606 1.366 . S
C605 C607 1.388 . S
C606 C605 1.366 . S
C606 C610 1.385 . S
C607 H582 0.951 . S
C607 C605 1.388 . S
C607 C608 1.366 . S
C608 C607 1.366 . S
C608 C609 1.414 . S
C608 C611 1.499 . S
C609 H583 0.950 . S
C609 C608 1.414 . S
C609 C610 1.374 . S
C610 H584 0.950 . S
C610 C606 1.385 . S
C610 C609 1.374 . S
C611 C608 1.499 . S
C611 C612 1.373 . S
C611 C613 1.389 . S
C612 H585 0.950 . S
C612 C598 1.377 . S
C612 C611 1.373 . S
C613 C597 1.377 . S
C613 C611 1.389 . S
C613 C614 1.524 . S
C614 C613 1.524 . S
C614 C615 1.397 . S
C614 C619 1.363 . S
C615 H586 0.950 . S
C615 C614 1.397 . S
C615 C616 1.334 . S
C616 H587 0.950 . S
C616 C615 1.334 . S
C616 C617 1.287 . S
C617 C616 1.287 . S
C617 C618 1.524 . S
C617 H620 0.999 . S
C618 H588 0.950 . S
C618 C617 1.524 . S
C618 C619 1.415 . S
C619 H589 0.950 . S
C619 C614 1.363 . S
C619 C618 1.415 . S
H620 C617 0.999 . S
H621 C602 0.913 . S
H622 C640 0.951 . S
H623 C642 0.951 . S
H624 C644 0.950 . S
H625 C645 0.950 . S
H626 C647 0.950 . S
H627 C650 0.950 . S
H628 C651 0.950 . S
H629 C653 0.950 . S
H630 C654 0.950 . S
H631 C655 0.951 . S
H632 C657 0.951 . S
H633 C659 0.950 . S
H634 C660 0.950 . S
H635 C662 0.950 . S
H636 C665 0.950 . S
H637 C666 0.950 . S
H638 C668 0.950 . S
H639 C669 0.950 . S
C640 H622 0.951 . S
C640 C641 1.366 . S
C640 C642 1.388 . S
C641 C640 1.366 . S
C641 C645 1.385 . S
C642 H623 0.951 . S
C642 C640 1.388 . S
C642 C643 1.366 . S
C643 C642 1.366 . S
C643 C644 1.414 . S
C643 C646 1.499 . S
C644 H624 0.950 . S
C644 C643 1.414 . S
C644 C645 1.374 . S
C645 H625 0.950 . S
C645 C641 1.385 . S
C645 C644 1.374 . S
C646 C643 1.499 . S
C646 C647 1.373 . S
C646 C648 1.389 . S
C647 H626 0.950 . S
C647 C646 1.373 . S
C647 C663 1.377 . S
C648 C646 1.389 . S
C648 C649 1.524 . S
C648 C662 1.377 . S
C649 C648 1.524 . S
C649 C650 1.397 . S
C649 C654 1.363 . S
C650 H627 0.950 . S
C650 C649 1.397 . S
C650 C651 1.334 . S
C651 H628 0.950 . S
C651 C650 1.334 . S
C651 C652 1.287 . S
C652 C651 1.287 . S
C652 C653 1.524 . S
C652 H671 0.913 . S
C653 H629 0.950 . S
C653 C652 1.524 . S
C653 C654 1.415 . S
C654 H630 0.950 . S
C654 C649 1.363 . S
C654 C653 1.415 . S
C655 H631 0.951 . S
C655 C656 1.366 . S
C655 C657 1.388 . S
C656 C655 1.366 . S
C656 C660 1.385 . S
C657 H632 0.951 . S
C657 C655 1.388 . S
C657 C658 1.366 . S
C658 C657 1.366 . S
C658 C659 1.414 . S
C658 C661 1.499 . S
C659 H633 0.950 . S
C659 C658 1.414 . S
C659 C660 1.374 . S
C660 H634 0.950 . S
C660 C656 1.385 . S
C660 C659 1.374 . S
C661 C658 1.499 . S
C661 C662 1.373 . S
C661 C663 1.389 . S
C662 H635 0.950 . S
C662 C648 1.377 . S
C662 C661 1.373 . S
C663 C647 1.377 . S
C663 C661 1.389 . S
C663 C664 1.524 . S
C664 C663 1.524 . S
C664 C665 1.397 . S
C664 C669 1.363 . S
C665 H636 0.950 . S
C665 C664 1.397 . S
C665 C666 1.334 . S
C666 H637 0.950 . S
C666 C665 1.334 . S
C666 C667 1.287 . S
C667 C666 1.287 . S
C667 C668 1.524 . S
C667 H670 0.999 . S
C668 H638 0.950 . S
C668 C667 1.524 . S
C668 C669 1.415 . S
C669 H639 0.950 . S
C669 C664 1.363 . S
C669 C668 1.415 . S
H670 C667 0.999 . S
H671 C652 0.913 . S
H672 C690 0.951 . S
H673 C692 0.951 . S
H674 C694 0.950 . S
H675 C695 0.950 . S
H676 C697 0.950 . S
H677 C700 0.950 . S
H678 C701 0.950 . S
H679 C703 0.950 . S
H680 C704 0.950 . S
H681 C705 0.951 . S
H682 C707 0.951 . S
H683 C709 0.950 . S
H684 C710 0.950 . S
H685 C712 0.950 . S
H686 C715 0.950 . S
H687 C716 0.950 . S
H688 C718 0.950 . S
H689 C719 0.950 . S
C690 H672 0.951 . S
C690 C691 1.366 . S
C690 C692 1.388 . S
C691 C690 1.366 . S
C691 C695 1.385 . S
C692 H673 0.951 . S
C692 C690 1.388 . S
C692 C693 1.366 . S
C693 C692 1.366 . S
C693 C694 1.414 . S
C693 C696 1.499 . S
C694 H674 0.950 . S
C694 C693 1.414 . S
C694 C695 1.374 . S
C695 H675 0.950 . S
C695 C691 1.385 . S
C695 C694 1.374 . S
C696 C693 1.499 . S
C696 C697 1.373 . S
C696 C698 1.389 . S
C697 H676 0.950 . S
C697 C696 1.373 . S
C697 C713 1.377 . S
C698 C696 1.389 . S
C698 C699 1.524 . S
C698 C712 1.377 . S
C699 C698 1.524 . S
C699 C700 1.397 . S
C699 C704 1.363 . S
C700 H677 0.950 . S
C700 C699 1.397 . S
C700 C701 1.334 . S
C701 H678 0.950 . S
C701 C700 1.334 . S
C701 C702 1.287 . S
C702 C701 1.287 . S
C702 C703 1.524 . S
C702 H721 0.913 . S
C703 H679 0.950 . S
C703 C702 1.524 . S
C703 C704 1.415 . S
C704 H680 0.950 . S
C704 C699 1.363 . S
C704 C703 1.415 . S
C705 H681 0.951 . S
C705 C706 1.366 . S
C705 C707 1.388 . S
C706 C705 1.366 . S
C706 C710 1.385 . S
C707 H682 0.951 . S
C707 C705 1.388 . S
C707 C708 1.366 . S
C708 C707 1.366 . S
C708 C709 1.414 . S
C708 C711 1.499 . S
C709 H683 0.950 . S
C709 C708 1.414 . S
C709 C710 1.374 . S
C710 H684 0.950 . S
C710 C706 1.385 . S
C710 C709 1.374 . S
C711 C708 1.499 . S
C711 C712 1.373 . S
C711 C713 1.389 . S
C712 H685 0.950 . S
C712 C698 1.377 . S
C712 C711 1.373 . S
C713 C697 1.377 . S
C713 C711 1.389 . S
C713 C714 1.524 . S
C714 C713 1.524 . S
C714 C715 1.397 . S
C714 C719 1.363 . S
C715 H686 0.950 . S
C715 C714 1.397 . S
C715 C716 1.334 . S
C716 H687 0.950 . S
C716 C715 1.334 . S
C716 C717 1.287 . S
C717 C716 1.287 . S
C717 C718 1.524 . S
C717 H720 0.999 . S
C718 H688 0.950 . S
C718 C717 1.524 . S
C718 C719 1.415 . S
C719 H689 0.950 . S
C719 C714 1.363 . S
C719 C718 1.415 . S
H720 C717 0.999 . S
H721 C702 0.913 . S
H722 C740 0.951 . S
H723 C742 0.951 . S
H724 C744 0.950 . S
H725 C745 0.950 . S
H726 C747 0.950 . S
H727 C750 0.950 . S
H728 C751 0.950 . S
H729 C753 0.950 . S
H730 C754 0.950 . S
H731 C755 0.951 . S
H732 C757 0.951 . S
H733 C759 0.950 . S
H734 C760 0.950 . S
H735 C762 0.950 . S
H736 C765 0.950 . S
H737 C766 0.950 . S
H738 C768 0.950 . S
H739 C769 0.950 . S
C740 H722 0.951 . S
C740 C741 1.366 . S
C740 C742 1.388 . S
C741 C740 1.366 . S
C741 C745 1.385 . S
C742 H723 0.951 . S
C742 C740 1.388 . S
C742 C743 1.366 . S
C743 C742 1.366 . S
C743 C744 1.414 . S
C743 C746 1.499 . S
C744 H724 0.950 . S
C744 C743 1.414 . S
C744 C745 1.374 . S
C745 H725 0.950 . S
C745 C741 1.385 . S
C745 C744 1.374 . S
C746 C743 1.499 . S
C746 C747 1.373 . S
C746 C748 1.389 . S
C747 H726 0.950 . S
C747 C746 1.373 . S
C747 C763 1.377 . S
C748 C746 1.389 . S
C748 C749 1.524 . S
C748 C762 1.377 . S
C749 C748 1.524 . S
C749 C750 1.397 . S
C749 C754 1.363 . S
C750 H727 0.950 . S
C750 C749 1.397 . S
C750 C751 1.334 . S
C751 H728 0.950 . S
C751 C750 1.334 . S
C751 C752 1.287 . S
C752 C751 1.287 . S
C752 C753 1.524 . S
C752 H771 0.913 . S
C753 H729 0.950 . S
C753 C752 1.524 . S
C753 C754 1.415 . S
C754 H730 0.950 . S
C754 C749 1.363 . S
C754 C753 1.415 . S
C755 H731 0.951 . S
C755 C756 1.366 . S
C755 C757 1.388 . S
C756 C755 1.366 . S
C756 C760 1.385 . S
C757 H732 0.951 . S
C757 C755 1.388 . S
C757 C758 1.366 . S
C758 C757 1.366 . S
C758 C759 1.414 . S
C758 C761 1.499 . S
C759 H733 0.950 . S
C759 C758 1.414 . S
C759 C760 1.374 . S
C760 H734 0.950 . S
C760 C756 1.385 . S
C760 C759 1.374 . S
C761 C758 1.499 . S
C761 C762 1.373 . S
C761 C763 1.389 . S
C762 H735 0.950 . S
C762 C748 1.377 . S
C762 C761 1.373 . S
C763 C747 1.377 . S
C763 C761 1.389 . S
C763 C764 1.524 . S
C764 C763 1.524 . S
C764 C765 1.397 . S
C764 C769 1.363 . S
C765 H736 0.950 . S
C765 C764 1.397 . S
C765 C766 1.334 . S
C766 H737 0.950 . S
C766 C765 1.334 . S
C766 C767 1.287 . S
C767 C766 1.287 . S
C767 C768 1.524 . S
C767 H770 0.999 . S
C768 H738 0.950 . S
C768 C767 1.524 . S
C768 C769 1.415 . S
C769 H739 0.950 . S
C769 C764 1.363 . S
C769 C768 1.415 . S
H770 C767 0.999 . S
H771 C752 0.913 . S
H772 C790 0.951 . S
H773 C792 0.951 . S
H774 C794 0.950 . S
H775 C795 0.950 . S
H776 C797 0.950 . S
H777 C800 0.950 . S
H778 C801 0.950 . S
H779 C803 0.950 . S
H780 C804 0.950 . S
H781 C805 0.951 . S
H782 C807 0.951 . S
H783 C809 0.950 . S
H784 C810 0.950 . S
H785 C812 0.950 . S
H786 C815 0.950 . S
H787 C816 0.950 . S
H788 C818 0.950 . S
H789 C819 0.950 . S
C790 H772 0.951 . S
C790 C791 1.366 . S
C790 C792 1.388 . S
C791 C790 1.366 . S
C791 C795 1.385 . S
C792 H773 0.951 . S
C792 C790 1.388 . S
C792 C793 1.366 . S
C793 C792 1.366 . S
C793 C794 1.414 . S
C793 C796 1.499 . S
C794 H774 0.950 . S
C794 C793 1.414 . S
C794 C795 1.374 . S
C795 H775 0.950 . S
C795 C791 1.385 . S
C795 C794 1.374 . S
C796 C793 1.499 . S
C796 C797 1.373 . S
C796 C798 1.389 . S
C797 H776 0.950 . S
C797 C796 1.373 . S
C797 C813 1.377 1_455 S
C798 C796 1.389 . S
C798 C799 1.524 . S
C798 C812 1.377 1_455 S
C799 C798 1.524 . S
C799 C800 1.397 . S
C799 C804 1.363 . S
C800 H777 0.950 . S
C800 C799 1.397 . S
C800 C801 1.334 . S
C801 H778 0.950 . S
C801 C800 1.334 . S
C801 C802 1.287 . S
C802 C801 1.287 . S
C802 C803 1.524 . S
C802 H821 0.913 . S
C803 H779 0.950 . S
C803 C802 1.524 . S
C803 C804 1.415 . S
C804 H780 0.950 . S
C804 C799 1.363 . S
C804 C803 1.415 . S
C805 H781 0.951 . S
C805 C806 1.366 . S
C805 C807 1.388 . S
C806 C805 1.366 . S
C806 C810 1.385 . S
C807 H782 0.951 . S
C807 C805 1.388 . S
C807 C808 1.366 . S
C808 C807 1.366 . S
C808 C809 1.414 . S
C808 C811 1.499 . S
C809 H783 0.950 . S
C809 C808 1.414 . S
C809 C810 1.374 . S
C810 H784 0.950 . S
C810 C806 1.385 . S
C810 C809 1.374 . S
C811 C808 1.499 . S
C811 C812 1.373 . S
C811 C813 1.389 . S
C812 H785 0.950 . S
C812 C798 1.377 1_655 S
C812 C811 1.373 . S
C813 C797 1.377 1_655 S
C813 C811 1.389 . S
C813 C814 1.524 . S
C814 C813 1.524 . S
C814 C815 1.397 . S
C814 C819 1.363 . S
C815 H786 0.950 . S
C815 C814 1.397 . S
C815 C816 1.334 . S
C816 H787 0.950 . S
C816 C815 1.334 . S
C816 C817 1.287 . S
C817 C816 1.287 . S
C817 C818 1.524 . S
C817 H820 0.999 . S
C818 H788 0.950 . S
C818 C817 1.524 . S
C818 C819 1.415 . S
C819 H789 0.950 . S
C819 C814 1.363 . S
C819 C818 1.415 . S
H820 C817 0.999 . S
H821 C802 0.913 . S
H822 C840 0.951 . S
H823 C842 0.951 . S
H824 C844 0.950 . S
H825 C845 0.950 . S
H826 C847 0.950 . S
H827 C850 0.950 . S
H828 C851 0.950 . S
H829 C853 0.950 1_455 S
H830 C854 0.950 . S
H831 C855 0.951 . S
H832 C857 0.951 . S
H833 C859 0.950 . S
H834 C860 0.950 . S
H835 C862 0.950 . S
H836 C865 0.950 . S
H837 C866 0.950 . S
H838 C868 0.950 1_655 S
H839 C869 0.950 . S
C840 H822 0.951 . S
C840 C841 1.366 . S
C840 C842 1.388 . S
C841 C840 1.366 . S
C841 C845 1.385 . S
C842 H823 0.951 . S
C842 C840 1.388 . S
C842 C843 1.366 . S
C843 C842 1.366 . S
C843 C844 1.414 . S
C843 C846 1.499 . S
C844 H824 0.950 . S
C844 C843 1.414 . S
C844 C845 1.374 . S
C845 H825 0.950 . S
C845 C841 1.385 . S
C845 C844 1.374 . S
C846 C843 1.499 . S
C846 C847 1.373 . S
C846 C848 1.389 . S
C847 H826 0.950 . S
C847 C846 1.373 . S
C847 C863 1.377 1_655 S
C848 C846 1.389 . S
C848 C849 1.524 . S
C848 C862 1.377 1_655 S
C849 C848 1.524 . S
C849 C850 1.397 . S
C849 C854 1.363 1_655 S
C850 H827 0.950 . S
C850 C849 1.397 . S
C850 C851 1.334 . S
C851 H828 0.950 . S
C851 C850 1.334 . S
C851 C852 1.287 . S
C852 C851 1.287 . S
C852 C853 1.524 . S
C852 H871 0.913 . S
C853 H829 0.950 1_655 S
C853 C852 1.524 . S
C853 C854 1.415 1_655 S
C854 H830 0.950 . S
C854 C849 1.363 1_455 S
C854 C853 1.415 1_455 S
C855 H831 0.951 . S
C855 C856 1.366 . S
C855 C857 1.388 . S
C856 C855 1.366 . S
C856 C860 1.385 . S
C857 H832 0.951 . S
C857 C855 1.388 . S
C857 C858 1.366 . S
C858 C857 1.366 . S
C858 C859 1.414 . S
C858 C861 1.499 . S
C859 H833 0.950 . S
C859 C858 1.414 . S
C859 C860 1.374 . S
C860 H834 0.950 . S
C860 C856 1.385 . S
C860 C859 1.374 . S
C861 C858 1.499 . S
C861 C862 1.373 . S
C861 C863 1.389 . S
C862 H835 0.950 . S
C862 C848 1.377 1_455 S
C862 C861 1.373 . S
C863 C847 1.377 1_455 S
C863 C861 1.389 . S
C863 C864 1.524 . S
C864 C863 1.524 . S
C864 C865 1.397 . S
C864 C869 1.363 1_455 S
C865 H836 0.950 . S
C865 C864 1.397 . S
C865 C866 1.334 . S
C866 H837 0.950 . S
C866 C865 1.334 . S
C866 C867 1.287 . S
C867 C866 1.287 . S
C867 C868 1.524 . S
C867 H870 0.999 . S
C868 H838 0.950 1_455 S
C868 C867 1.524 . S
C868 C869 1.415 1_455 S
C869 H839 0.950 . S
C869 C864 1.363 1_655 S
C869 C868 1.415 1_655 S
H870 C867 0.999 . S
H871 C852 0.913 . S
H872 C890 0.951 . S
H873 C892 0.951 . S
H874 C894 0.950 . S
H875 C895 0.950 . S
H876 C897 0.950 . S
H877 C900 0.950 . S
H878 C901 0.950 . S
H879 C903 0.950 . S
H880 C904 0.950 . S
H881 C905 0.951 . S
H882 C907 0.951 . S
H883 C909 0.950 . S
H884 C910 0.950 . S
H885 C912 0.950 . S
H886 C915 0.950 . S
H887 C916 0.950 . S
H888 C918 0.950 . S
H889 C919 0.950 . S
C890 H872 0.951 . S
C890 C891 1.366 . S
C890 C892 1.388 . S
C891 C890 1.366 . S
C891 C895 1.385 . S
C892 H873 0.951 . S
C892 C890 1.388 . S
C892 C893 1.366 . S
C893 C892 1.366 . S
C893 C894 1.414 . S
C893 C896 1.499 . S
C894 H874 0.950 . S
C894 C893 1.414 . S
C894 C895 1.374 . S
C895 H875 0.950 . S
C895 C891 1.385 . S
C895 C894 1.374 . S
C896 C893 1.499 . S
C896 C897 1.373 . S
C896 C898 1.389 1_455 S
C897 H876 0.950 . S
C897 C896 1.373 . S
C897 C913 1.377 . S
C898 C896 1.389 1_655 S
C898 C899 1.524 . S
C898 C912 1.377 . S
C899 C898 1.524 . S
C899 C900 1.397 . S
C899 C904 1.363 . S
C900 H877 0.950 . S
C900 C899 1.397 . S
C900 C901 1.334 . S
C901 H878 0.950 . S
C901 C900 1.334 . S
C901 C902 1.287 . S
C902 C901 1.287 . S
C902 C903 1.524 . S
C902 H921 0.913 . S
C903 H879 0.950 . S
C903 C902 1.524 . S
C903 C904 1.415 . S
C904 H880 0.950 . S
C904 C899 1.363 . S
C904 C903 1.415 . S
C905 H881 0.951 . S
C905 C906 1.366 . S
C905 C907 1.388 . S
C906 C905 1.366 . S
C906 C910 1.385 . S
C907 H882 0.951 . S
C907 C905 1.388 . S
C907 C908 1.366 . S
C908 C907 1.366 . S
C908 C909 1.414 . S
C908 C911 1.499 . S
C909 H883 0.950 . S
C909 C908 1.414 . S
C909 C910 1.374 . S
C910 H884 0.950 . S
C910 C906 1.385 . S
C910 C909 1.374 . S
C911 C908 1.499 . S
C911 C912 1.373 . S
C911 C913 1.389 1_655 S
C912 H885 0.950 . S
C912 C898 1.377 . S
C912 C911 1.373 . S
C913 C897 1.377 . S
C913 C911 1.389 1_455 S
C913 C914 1.524 . S
C914 C913 1.524 . S
C914 C915 1.397 . S
C914 C919 1.363 . S
C915 H886 0.950 . S
C915 C914 1.397 . S
C915 C916 1.334 . S
C916 H887 0.950 . S
C916 C915 1.334 . S
C916 C917 1.287 . S
C917 C916 1.287 . S
C917 C918 1.524 . S
C917 H920 0.999 . S
C918 H888 0.950 . S
C918 C917 1.524 . S
C918 C919 1.415 . S
C919 H889 0.950 . S
C919 C914 1.363 . S
C919 C918 1.415 . S
H920 C917 0.999 . S
H921 C902 0.913 . S
H922 C940 0.951 . S
H923 C942 0.951 . S
H924 C944 0.950 . S
H925 C945 0.950 . S
H926 C947 0.950 . S
H927 C950 0.950 1_655 S
H928 C951 0.950 . S
H929 C953 0.950 . S
H930 C954 0.950 . S
H931 C955 0.951 . S
H932 C957 0.951 . S
H933 C959 0.950 . S
H934 C960 0.950 . S
H935 C962 0.950 . S
H936 C965 0.950 1_455 S
H937 C966 0.950 . S
H938 C968 0.950 . S
H939 C969 0.950 . S
C940 H922 0.951 . S
C940 C941 1.366 . S
C940 C942 1.388 . S
C941 C940 1.366 . S
C941 C945 1.385 . S
C942 H923 0.951 . S
C942 C940 1.388 . S
C942 C943 1.366 . S
C943 C942 1.366 . S
C943 C944 1.414 . S
C943 C946 1.499 . S
C944 H924 0.950 . S
C944 C943 1.414 . S
C944 C945 1.374 . S
C945 H925 0.950 . S
C945 C941 1.385 . S
C945 C944 1.374 . S
C946 C943 1.499 . S
C946 C947 1.373 . S
C946 C948 1.389 . S
C947 H926 0.950 . S
C947 C946 1.373 . S
C947 C963 1.377 1_455 S
C948 C946 1.389 . S
C948 C949 1.524 . S
C948 C962 1.377 1_455 S
C949 C948 1.524 . S
C949 C950 1.397 . S
C949 C954 1.363 . S
C950 H927 0.950 1_455 S
C950 C949 1.397 . S
C950 C951 1.334 . S
C951 H928 0.950 . S
C951 C950 1.334 . S
C951 C952 1.287 . S
C952 C951 1.287 . S
C952 C953 1.524 . S
C952 H971 0.913 . S
C953 H929 0.950 . S
C953 C952 1.524 . S
C953 C954 1.415 . S
C954 H930 0.950 . S
C954 C949 1.363 . S
C954 C953 1.415 . S
C955 H931 0.951 . S
C955 C956 1.366 . S
C955 C957 1.388 . S
C956 C955 1.366 . S
C956 C960 1.385 . S
C957 H932 0.951 . S
C957 C955 1.388 . S
C957 C958 1.366 . S
C958 C957 1.366 . S
C958 C959 1.414 . S
C958 C961 1.499 . S
C959 H933 0.950 . S
C959 C958 1.414 . S
C959 C960 1.374 . S
C960 H934 0.950 . S
C960 C956 1.385 . S
C960 C959 1.374 . S
C961 C958 1.499 . S
C961 C962 1.373 . S
C961 C963 1.389 . S
C962 H935 0.950 . S
C962 C948 1.377 1_655 S
C962 C961 1.373 . S
C963 C947 1.377 1_655 S
C963 C961 1.389 . S
C963 C964 1.524 . S
C964 C963 1.524 . S
C964 C965 1.397 . S
C964 C969 1.363 . S
C965 H936 0.950 1_655 S
C965 C964 1.397 . S
C965 C966 1.334 . S
C966 H937 0.950 . S
C966 C965 1.334 . S
C966 C967 1.287 . S
C967 C966 1.287 . S
C967 C968 1.524 . S
C967 H970 0.999 . S
C968 H938 0.950 . S
C968 C967 1.524 . S
C968 C969 1.415 . S
C969 H939 0.950 . S
C969 C964 1.363 . S
C969 C968 1.415 . S
H970 C967 0.999 . S
H971 C952 0.913 . S
C191 N8 0.252 1_554 S
C206 N3 0.449 1_556 S
C241 N51 0.249 1_554 S
C256 N46 0.447 1_556 S
C291 N89 0.448 . S
C306 N94 0.252 . S
C341 N137 0.450 . S
C356 N132 0.252 . S
C391 C70 1.540 . S
C406 C40 1.538 . S
C441 C162 1.537 . S
C456 C113 1.539 . S
C491 C27 1.540 . S
C506 C83 1.538 . S
C541 C161 1.540 . S
C556 C126 1.538 . S
C591 C168 1.491 . S
C606 C13 1.490 . S
C641 C76 1.208 . S
C656 C119 1.209 . S
C691 C125 1.291 . S
C706 C82 1.292 . S
C741 C32 1.296 . S
C756 C156 1.295 . S
C791 C99 1.490 . S
C806 C56 1.491 . S
C841 C169 1.207 . S
C856 C33 1.208 . S
C891 C39 1.293 . S
C906 C142 1.293 . S
C941 C118 1.295 . S
C956 C75 1.296 . S
