# Generated by pormake.
# Topology umr, (4)-cn, num edge types: 1
# Building blocks:
#     Node 0, Type 0, BuildingBlock: CEKHIL_clean_sbu_0, # of connection points: 4
#     Node 1, Type 0, BuildingBlock: CEKHIL_clean_sbu_0, # of connection points: 4
#     Node 2, Type 0, BuildingBlock: CEKHIL_clean_sbu_0, # of connection points: 4
#     Node 3, Type 0, BuildingBlock: CEKHIL_clean_sbu_0, # of connection points: 4
#     Node 4, Type 0, BuildingBlock: CEKHIL_clean_sbu_0, # of connection points: 4
#     Node 5, Type 0, BuildingBlock: CEKHIL_clean_sbu_0, # of connection points: 4
#     Node 6, Type 0, BuildingBlock: CEKHIL_clean_sbu_0, # of connection points: 4
#     Node 7, Type 0, BuildingBlock: CEKHIL_clean_sbu_0, # of connection points: 4
#     Node 8, Type 0, BuildingBlock: CEKHIL_clean_sbu_0, # of connection points: 4
#     Node 9, Type 0, BuildingBlock: CEKHIL_clean_sbu_0, # of connection points: 4
#     Node 10, Type 0, BuildingBlock: CEKHIL_clean_sbu_0, # of connection points: 4
#     Node 11, Type 0, BuildingBlock: CEKHIL_clean_sbu_0, # of connection points: 4
#     Node 12, Type 0, BuildingBlock: CEKHIL_clean_sbu_0, # of connection points: 4
#     Node 13, Type 0, BuildingBlock: CEKHIL_clean_sbu_0, # of connection points: 4
#     Node 14, Type 0, BuildingBlock: CEKHIL_clean_sbu_0, # of connection points: 4
#     Node 15, Type 0, BuildingBlock: CEKHIL_clean_sbu_0, # of connection points: 4
#     Node 16, Type 0, BuildingBlock: CEKHIL_clean_sbu_0, # of connection points: 4
#     Node 17, Type 0, BuildingBlock: CEKHIL_clean_sbu_0, # of connection points: 4
#     Node 18, Type 0, BuildingBlock: CEKHIL_clean_sbu_0, # of connection points: 4
#     Node 19, Type 0, BuildingBlock: CEKHIL_clean_sbu_0, # of connection points: 4
#     Node 20, Type 0, BuildingBlock: CEKHIL_clean_sbu_0, # of connection points: 4
#     Node 21, Type 0, BuildingBlock: CEKHIL_clean_sbu_0, # of connection points: 4
#     Node 22, Type 0, BuildingBlock: CEKHIL_clean_sbu_0, # of connection points: 4
#     Node 23, Type 0, BuildingBlock: CEKHIL_clean_sbu_0, # of connection points: 4
#     Node 24, Type 0, BuildingBlock: CEKHIL_clean_sbu_0, # of connection points: 4
#     Node 25, Type 0, BuildingBlock: CEKHIL_clean_sbu_0, # of connection points: 4
#     Node 26, Type 0, BuildingBlock: CEKHIL_clean_sbu_0, # of connection points: 4
#     Node 27, Type 0, BuildingBlock: CEKHIL_clean_sbu_0, # of connection points: 4
#     Node 28, Type 0, BuildingBlock: CEKHIL_clean_sbu_0, # of connection points: 4
#     Node 29, Type 0, BuildingBlock: CEKHIL_clean_sbu_0, # of connection points: 4
#     Node 30, Type 0, BuildingBlock: CEKHIL_clean_sbu_0, # of connection points: 4
#     Node 31, Type 0, BuildingBlock: CEKHIL_clean_sbu_0, # of connection points: 4
#     Edge 32, Type (0, 0), BuildingBlock: AJUNOK_clean_linker_0, # of connection points: 2
#     Edge 33, Type (0, 0), BuildingBlock: AJUNOK_clean_linker_0, # of connection points: 2
#     Edge 34, Type (0, 0), BuildingBlock: AJUNOK_clean_linker_0, # of connection points: 2
#     Edge 35, Type (0, 0), BuildingBlock: AJUNOK_clean_linker_0, # of connection points: 2
#     Edge 36, Type (0, 0), BuildingBlock: AJUNOK_clean_linker_0, # of connection points: 2
#     Edge 37, Type (0, 0), BuildingBlock: AJUNOK_clean_linker_0, # of connection points: 2
#     Edge 38, Type (0, 0), BuildingBlock: AJUNOK_clean_linker_0, # of connection points: 2
#     Edge 39, Type (0, 0), BuildingBlock: AJUNOK_clean_linker_0, # of connection points: 2
#     Edge 40, Type (0, 0), BuildingBlock: AJUNOK_clean_linker_0, # of connection points: 2
#     Edge 41, Type (0, 0), BuildingBlock: AJUNOK_clean_linker_0, # of connection points: 2
#     Edge 42, Type (0, 0), BuildingBlock: AJUNOK_clean_linker_0, # of connection points: 2
#     Edge 43, Type (0, 0), BuildingBlock: AJUNOK_clean_linker_0, # of connection points: 2
#     Edge 44, Type (0, 0), BuildingBlock: AJUNOK_clean_linker_0, # of connection points: 2
#     Edge 45, Type (0, 0), BuildingBlock: AJUNOK_clean_linker_0, # of connection points: 2
#     Edge 46, Type (0, 0), BuildingBlock: AJUNOK_clean_linker_0, # of connection points: 2
#     Edge 47, Type (0, 0), BuildingBlock: AJUNOK_clean_linker_0, # of connection points: 2
#     Edge 48, Type (0, 0), BuildingBlock: AJUNOK_clean_linker_0, # of connection points: 2
#     Edge 49, Type (0, 0), BuildingBlock: AJUNOK_clean_linker_0, # of connection points: 2
#     Edge 50, Type (0, 0), BuildingBlock: AJUNOK_clean_linker_0, # of connection points: 2
#     Edge 51, Type (0, 0), BuildingBlock: AJUNOK_clean_linker_0, # of connection points: 2
#     Edge 52, Type (0, 0), BuildingBlock: AJUNOK_clean_linker_0, # of connection points: 2
#     Edge 53, Type (0, 0), BuildingBlock: AJUNOK_clean_linker_0, # of connection points: 2
#     Edge 54, Type (0, 0), BuildingBlock: AJUNOK_clean_linker_0, # of connection points: 2
#     Edge 55, Type (0, 0), BuildingBlock: AJUNOK_clean_linker_0, # of connection points: 2
#     Edge 56, Type (0, 0), BuildingBlock: AJUNOK_clean_linker_0, # of connection points: 2
#     Edge 57, Type (0, 0), BuildingBlock: AJUNOK_clean_linker_0, # of connection points: 2
#     Edge 58, Type (0, 0), BuildingBlock: AJUNOK_clean_linker_0, # of connection points: 2
#     Edge 59, Type (0, 0), BuildingBlock: AJUNOK_clean_linker_0, # of connection points: 2
#     Edge 60, Type (0, 0), BuildingBlock: AJUNOK_clean_linker_0, # of connection points: 2
#     Edge 61, Type (0, 0), BuildingBlock: AJUNOK_clean_linker_0, # of connection points: 2
#     Edge 62, Type (0, 0), BuildingBlock: AJUNOK_clean_linker_0, # of connection points: 2
#     Edge 63, Type (0, 0), BuildingBlock: AJUNOK_clean_linker_0, # of connection points: 2
#     Edge 64, Type (0, 0), BuildingBlock: AJUNOK_clean_linker_0, # of connection points: 2
#     Edge 65, Type (0, 0), BuildingBlock: AJUNOK_clean_linker_0, # of connection points: 2
#     Edge 66, Type (0, 0), BuildingBlock: AJUNOK_clean_linker_0, # of connection points: 2
#     Edge 67, Type (0, 0), BuildingBlock: AJUNOK_clean_linker_0, # of connection points: 2
#     Edge 68, Type (0, 0), BuildingBlock: AJUNOK_clean_linker_0, # of connection points: 2
#     Edge 69, Type (0, 0), BuildingBlock: AJUNOK_clean_linker_0, # of connection points: 2
#     Edge 70, Type (0, 0), BuildingBlock: AJUNOK_clean_linker_0, # of connection points: 2
#     Edge 71, Type (0, 0), BuildingBlock: AJUNOK_clean_linker_0, # of connection points: 2
#     Edge 72, Type (0, 0), BuildingBlock: AJUNOK_clean_linker_0, # of connection points: 2
#     Edge 73, Type (0, 0), BuildingBlock: AJUNOK_clean_linker_0, # of connection points: 2
#     Edge 74, Type (0, 0), BuildingBlock: AJUNOK_clean_linker_0, # of connection points: 2
#     Edge 75, Type (0, 0), BuildingBlock: AJUNOK_clean_linker_0, # of connection points: 2
#     Edge 76, Type (0, 0), BuildingBlock: AJUNOK_clean_linker_0, # of connection points: 2
#     Edge 77, Type (0, 0), BuildingBlock: AJUNOK_clean_linker_0, # of connection points: 2
#     Edge 78, Type (0, 0), BuildingBlock: AJUNOK_clean_linker_0, # of connection points: 2
#     Edge 79, Type (0, 0), BuildingBlock: AJUNOK_clean_linker_0, # of connection points: 2
#     Edge 80, Type (0, 0), BuildingBlock: AJUNOK_clean_linker_0, # of connection points: 2
#     Edge 81, Type (0, 0), BuildingBlock: AJUNOK_clean_linker_0, # of connection points: 2
#     Edge 82, Type (0, 0), BuildingBlock: AJUNOK_clean_linker_0, # of connection points: 2
#     Edge 83, Type (0, 0), BuildingBlock: AJUNOK_clean_linker_0, # of connection points: 2
#     Edge 84, Type (0, 0), BuildingBlock: AJUNOK_clean_linker_0, # of connection points: 2
#     Edge 85, Type (0, 0), BuildingBlock: AJUNOK_clean_linker_0, # of connection points: 2
#     Edge 86, Type (0, 0), BuildingBlock: AJUNOK_clean_linker_0, # of connection points: 2
#     Edge 87, Type (0, 0), BuildingBlock: AJUNOK_clean_linker_0, # of connection points: 2
#     Edge 88, Type (0, 0), BuildingBlock: AJUNOK_clean_linker_0, # of connection points: 2
#     Edge 89, Type (0, 0), BuildingBlock: AJUNOK_clean_linker_0, # of connection points: 2
#     Edge 90, Type (0, 0), BuildingBlock: AJUNOK_clean_linker_0, # of connection points: 2
#     Edge 91, Type (0, 0), BuildingBlock: AJUNOK_clean_linker_0, # of connection points: 2
#     Edge 92, Type (0, 0), BuildingBlock: AJUNOK_clean_linker_0, # of connection points: 2
#     Edge 93, Type (0, 0), BuildingBlock: AJUNOK_clean_linker_0, # of connection points: 2
#     Edge 94, Type (0, 0), BuildingBlock: AJUNOK_clean_linker_0, # of connection points: 2
#     Edge 95, Type (0, 0), BuildingBlock: AJUNOK_clean_linker_0, # of connection points: 2
# Relax obj value: 0.088
# Max RMSD: 0.107
# Mean RMSD: 0.107
data_MOF--net-umr--node1-CEKHIL_clean_sbu_0--edge1-AJUNOK_clean_linker_0
_symmetry_space_group_name_H-M    P1
_symmetry_Int_Tables_number       1
_symmetry_cell_setting            triclinic
loop_
_symmetry_equiv_pos_as_xyz
'x, y, z'
_cell_length_a     60.390716
_cell_length_b     60.436227
_cell_length_c     19.283966
_cell_angle_alpha  89.978345
_cell_angle_beta   90.019649
_cell_angle_gamma 90.064092
loop_
_atom_site_label
_atom_site_type_symbol
_atom_site_fract_x
_atom_site_fract_y
_atom_site_fract_z
_atom_type_partial_charge
Co0 Co 0.16845 0.30443 0.03327 0.0
O1 O 0.13763 0.31176 0.04637 0.0
O2 O 0.16563 0.3328 0.07948 0.0
C3 C 0.16476 0.29373 0.92184 0.0
O4 O 0.20228 0.30307 0.02699 0.0
Co5 Co 0.18411 0.25694 0.99386 0.0
O6 O 0.2121 0.27226 0.96932 0.0
C7 C 0.17051 0.26709 0.13833 0.0
C8 C 0.14432 0.33014 0.07424 0.0
C9 C 0.21674 0.291 -0.00425 0.0
O10 O 0.16895 0.28789 0.12408 0.0
O11 O 0.17478 0.25233 0.09257 0.0
O12 O 0.1669 0.31459 0.93701 0.0
O13 O 0.1636 0.28051 0.974 0.0
Co14 Co 0.97366 0.91729 0.2841 0.0
O15 O 0.96756 0.88631 0.29758 0.0
O16 O 0.94538 0.9133 0.33081 0.0
C17 C 0.98436 0.91387 0.17265 0.0
O18 O 0.974 0.95114 0.27687 0.0
Co19 Co 0.02086 0.93412 0.24455 0.0
O20 O 1.00451 0.96127 0.21777 0.0
C21 C 1.01107 0.92043 0.38907 0.0
C22 C 0.94902 0.89213 0.32606 0.0
C23 C 0.98565 0.96561 0.24392 0.0
O24 O 0.99028 0.91845 0.37482 0.0
O25 O 0.02576 0.92497 0.34327 0.0
O26 O 0.96343 0.91526 0.18795 0.0
O27 O 0.99765 0.91317 0.22474 0.0
Co28 Co 0.35775 0.72281 0.53339 0.0
O29 O 0.3888 0.71658 0.54583 0.0
O30 O 0.3617 0.69532 0.58428 0.0
C31 C 0.36034 0.73147 0.41957 0.0
O32 O 0.32387 0.72321 0.5287 0.0
Co33 Co 0.34091 0.76921 0.48728 0.0
O34 O 0.31317 0.75286 0.46666 0.0
C35 C 0.35461 0.76172 0.63334 0.0
C36 C 0.38289 0.69856 0.57741 0.0
C37 C 0.30905 0.73444 0.49601 0.0
O38 O 0.35722 0.74084 0.62175 0.0
O39 O 0.34974 0.7756 0.58555 0.0
O40 O 0.35899 0.71093 0.43911 0.0
O41 O 0.36166 0.74573 0.46904 0.0
Co42 Co 0.55198 0.10827 0.7808 0.0
O43 O 0.5583 0.13919 0.795 0.0
O44 O 0.58004 0.11193 0.82908 0.0
C45 C 0.54195 0.11205 0.66854 0.0
O46 O 0.55145 0.07441 0.77315 0.0
Co47 Co 0.50502 0.09176 0.73741 0.0
O48 O 0.52134 0.06452 0.71172 0.0
C49 C 0.51379 0.10548 0.8828 0.0
C50 C 0.57665 0.13315 0.82432 0.0
C51 C 0.53992 0.05999 0.73954 0.0
O52 O 0.53476 0.10715 0.87071 0.0
O53 O 0.49954 0.10104 0.83561 0.0
O54 O 0.56277 0.11037 0.68507 0.0
O55 O 0.5284 0.1127 0.71991 0.0
Co56 Co 0.16659 0.7244 0.46446 0.0
O57 O 0.13566 0.71847 0.44795 0.0
O58 O 0.16298 0.69684 0.41365 0.0
C59 C 0.16259 0.73322 0.57772 0.0
O60 O 0.20039 0.72454 0.47409 0.0
Co61 Co 0.18309 0.77086 0.51164 0.0
O62 O 0.21024 0.7543 0.537 0.0
C63 C 0.17136 0.76313 0.36417 0.0
C64 C 0.14175 0.70031 0.4177 0.0
C65 C 0.21481 0.73585 0.50847 0.0
O66 O 0.16853 0.74228 0.37587 0.0
O67 O 0.17559 0.77712 0.41226 0.0
O68 O 0.16387 0.71265 0.55861 0.0
O69 O 0.16208 0.74742 0.52788 0.0
Co70 Co 0.55285 0.91745 0.70693 0.0
O71 O 0.5594 0.88647 0.69567 0.0
O72 O 0.58081 0.91362 0.65846 0.0
C73 C 0.54318 0.91528 0.81948 0.0
O74 O 0.55205 0.95131 0.71133 0.0
Co75 Co 0.50563 0.93363 0.74685 0.0
O76 O 0.52168 0.96124 0.77124 0.0
C77 C 0.51492 0.91941 0.60281 0.0
C78 C 0.57759 0.89243 0.66517 0.0
C79 C 0.54037 0.96575 0.7441 0.0
O80 O 0.5357 0.91755 0.61712 0.0
O81 O 0.50028 0.92418 0.64848 0.0
O82 O 0.56393 0.91663 0.80198 0.0
O83 O 0.52934 0.91345 0.76894 0.0
Co84 Co 0.35905 0.30173 0.95676 0.0
O85 O 0.3899 0.30772 0.93951 0.0
O86 O 0.36252 0.32969 0.90779 0.0
C87 C 0.36381 0.29194 0.06885 0.0
O88 O 0.32527 0.30146 0.96763 0.0
Co89 Co 0.34258 0.25505 0.00292 0.0
O90 O 0.31579 0.2717 0.03118 0.0
C91 C 0.3539 0.26357 0.85528 0.0
C92 C 0.38376 0.32611 0.91076 0.0
C93 C 0.31112 0.29021 0.00324 0.0
O94 O 0.35675 0.28441 0.86725 0.0
O95 O 0.34991 0.24944 0.90318 0.0
O96 O 0.36218 0.3127 0.05197 0.0
O97 O 0.36389 0.27826 0.01778 0.0
Co98 Co 0.97355 0.10799 0.20783 0.0
O99 O 0.96701 0.1389 0.19452 0.0
O100 O 0.94569 0.1115 0.15846 0.0
C101 C 0.98299 0.11075 0.32057 0.0
O102 O 0.97433 0.07416 0.21411 0.0
Co103 Co 0.0207 0.09206 0.24933 0.0
O104 O 1.00469 0.06449 0.27455 0.0
C105 C 1.01164 0.10554 0.10448 0.0
C106 C 0.94891 0.13272 0.16381 0.0
C107 C 0.98606 0.05981 0.2472 0.0
O108 O 0.99085 0.1074 0.11842 0.0
O109 O 0.02624 0.10101 0.15056 0.0
O110 O 0.96229 0.10937 0.30256 0.0
O111 O 0.99693 0.11231 0.2702 0.0
Co112 Co 0.8592 0.72233 0.95902 0.0
O113 O 0.89 0.71484 0.94629 0.0
O114 O 0.86193 0.69434 0.9105 0.0
C115 C 0.86197 0.73186 0.07157 0.0
O116 O 0.82538 0.72392 0.96492 0.0
Co117 Co 0.84416 0.76977 -0.00019 0.0
O118 O 0.81641 0.75425 0.02627 0.0
C119 C 0.85745 0.76028 0.85498 0.0
C120 C 0.88325 0.69678 0.91659 0.0
C121 C 0.81136 0.73573 -0.00101 0.0
O122 O 0.85912 0.73949 0.86921 0.0
O123 O 0.85307 0.77497 0.90085 0.0
O124 O 0.86013 0.71119 0.05394 0.0
O125 O 0.86401 0.74569 0.02106 0.0
Co126 Co 0.0528 0.10834 0.70714 0.0
O127 O 0.05863 0.13928 0.69162 0.0
O128 O 0.08078 0.11225 0.65861 0.0
C129 C 0.04284 0.1125 0.81936 0.0
O130 O 0.05279 0.07454 0.71621 0.0
Co131 Co 1.00624 0.0912 0.75222 0.0
O132 O 0.02315 0.06446 0.77946 0.0
C133 C 0.01468 0.10348 0.60522 0.0
C134 C 0.07712 0.13343 0.6628 0.0
C135 C 0.04171 0.06013 0.75128 0.0
O136 O 0.03552 0.10642 0.61735 0.0
O137 O 1.00059 0.09909 0.65289 0.0
O138 O 0.06365 0.11104 0.80268 0.0
O139 O 0.02921 0.11268 0.76812 0.0
Co140 Co 0.66769 0.30241 0.45418 0.0
O141 O 0.63684 0.30951 0.4396 0.0
O142 O 0.66485 0.33046 0.406 0.0
C143 C 0.66362 0.29248 0.56649 0.0
O144 O 0.70152 0.30133 0.46171 0.0
Co145 Co 0.68367 0.25548 0.49845 0.0
O146 O 0.71133 0.27132 0.52342 0.0
C147 C 0.6703 0.26418 0.35248 0.0
C148 C 0.64353 0.32776 0.41088 0.0
C149 C 0.71595 0.28978 0.49506 0.0
O150 O 0.66854 0.28514 0.36437 0.0
O151 O 0.67469 0.25001 0.3999 0.0
O152 O 0.66576 0.31323 0.54988 0.0
O153 O 0.66277 0.27891 0.51519 0.0
Co154 Co 0.47345 0.91702 0.20563 0.0
O155 O 0.46792 0.88602 0.18971 0.0
O156 O 0.44541 0.9129 0.15765 0.0
C157 C 0.4837 0.91274 0.3176 0.0
O158 O 0.4731 0.95081 0.21489 0.0
Co159 Co 0.51984 0.93474 0.2504 0.0
O160 O 0.50281 0.96145 0.27696 0.0
C161 C 0.51122 0.92288 0.10314 0.0
C162 C 0.4493 0.89175 0.16141 0.0
C163 C 0.48418 0.96551 0.24879 0.0
O164 O 0.4905 0.91933 0.11562 0.0
O165 O 0.52535 0.92746 0.15056 0.0
O166 O 0.46284 0.914 0.30127 0.0
O167 O 0.49723 0.91285 0.26614 0.0
Co168 Co 0.85857 0.30261 0.52827 0.0
O169 O 0.8895 0.30899 0.54234 0.0
O170 O 0.86223 0.3309 0.57517 0.0
C171 C 0.86227 0.29195 0.41684 0.0
O172 O 0.82471 0.30193 0.52055 0.0
Co173 Co 0.84225 0.25529 0.48842 0.0
O174 O 0.81492 0.27132 0.46148 0.0
C175 C 0.85566 0.26519 0.63309 0.0
C176 C 0.88346 0.32744 0.57091 0.0
C177 C 0.81035 0.29012 0.48763 0.0
O178 O 0.85742 0.28598 0.61891 0.0
O179 O 0.85136 0.25046 0.58722 0.0
O180 O 0.86068 0.31285 0.43213 0.0
O181 O 0.86302 0.27869 0.46895 0.0
Co182 Co 0.4725 0.10788 0.28019 0.0
O183 O 0.46638 0.13885 0.29422 0.0
O184 O 0.44461 0.11165 0.329 0.0
C185 C 0.48222 0.11112 0.16768 0.0
O186 O 0.47279 0.07406 0.27308 0.0
Co187 Co 0.51944 0.09125 0.23898 0.0
O188 O 0.50308 0.06398 0.21306 0.0
C189 C 0.51043 0.1048 0.3838 0.0
C190 C 0.4481 0.13284 0.32416 0.0
C191 C 0.48432 0.05959 0.23988 0.0
O192 O 0.48965 0.10678 0.36986 0.0
O193 O 0.52501 0.1002 0.33773 0.0
O194 O 0.46147 0.10988 0.18524 0.0
O195 O 0.49607 0.11202 0.21847 0.0
Co196 Co 0.66857 0.72322 0.03567 0.0
O197 O 0.63762 0.71683 0.04926 0.0
O198 O 0.66485 0.69516 0.08397 0.0
C199 C 0.6649 0.73323 0.92336 0.0
O200 O 0.70246 0.72389 0.02875 0.0
Co201 Co 0.68504 0.77018 0.99225 0.0
O202 O 0.71244 0.75399 0.96745 0.0
C203 C 0.67113 0.76142 0.13752 0.0
C204 C 0.64362 0.69851 0.07873 0.0
C205 C 0.71695 0.73546 -0.00451 0.0
O206 O 0.66948 0.74046 0.12552 0.0
O207 O 0.67562 0.77564 0.09033 0.0
O208 O 0.66665 0.71244 0.93988 0.0
O209 O 0.66416 0.74676 0.97472 0.0
Co210 Co 0.05386 0.91763 0.78439 0.0
O211 O 0.05993 0.88671 0.7993 0.0
O212 O 0.08208 0.91393 0.83156 0.0
C213 C 0.04318 0.91373 0.673 0.0
O214 O 0.0536 0.95143 0.77623 0.0
Co215 Co 1.00679 0.93442 0.74393 0.0
O216 O 0.02305 0.96171 0.71771 0.0
C217 C 0.01647 0.92121 0.88897 0.0
C218 C 0.07841 0.89273 0.82799 0.0
C219 C 0.04191 0.96602 0.74403 0.0
O220 O 0.03723 0.91914 0.87485 0.0
O221 O 1.0018 0.92563 0.84299 0.0
O222 O 0.0641 0.91522 0.68838 0.0
O223 O 0.02987 0.91327 0.72503 0.0
Co224 Co 0.6683 0.80265 0.53489 0.0
O225 O 0.63728 0.80878 0.54814 0.0
O226 O 0.66442 0.83053 0.58361 0.0
C227 C 0.66527 0.79298 0.4223 0.0
O228 O 0.70216 0.80232 0.52871 0.0
Co229 Co 0.68501 0.75576 0.49362 0.0
O230 O 0.71251 0.772 0.4694 0.0
C231 C 0.67139 0.76474 0.63847 0.0
C232 C 0.64322 0.82706 0.57812 0.0
C233 C 0.71681 0.79071 0.49661 0.0
O234 O 0.66922 0.78549 0.6245 0.0
O235 O 0.6761 0.75021 0.59242 0.0
O236 O 0.66653 0.8137 0.43993 0.0
O237 O 0.66427 0.77912 0.47302 0.0
Co238 Co 0.47376 0.41694 0.78043 0.0
O239 O 0.4676 0.3859 0.79326 0.0
O240 O 0.44607 0.4129 0.83036 0.0
C241 C 0.48282 0.41408 0.66702 0.0
O242 O 0.47406 0.45082 0.77456 0.0
Co243 Co 0.52034 0.43388 0.73595 0.0
O244 O 0.50371 0.46109 0.71165 0.0
C245 C 0.51248 0.41973 0.8813 0.0
C246 C 0.4494 0.39173 0.8239 0.0
C247 C 0.48523 0.46538 0.74037 0.0
O248 O 0.49153 0.41765 0.86942 0.0
O249 O 0.52652 0.4246 0.83394 0.0
O250 O 0.46219 0.41534 0.6858 0.0
O251 O 0.49692 0.41304 0.71706 0.0
Co252 Co 0.8587 0.22244 0.02841 0.0
O253 O 0.88965 0.2163 0.04294 0.0
O254 O 0.86244 0.19421 0.07547 0.0
C255 C 0.86254 0.23313 0.91702 0.0
O256 O 0.82485 0.22278 0.02035 0.0
Co257 Co 0.84201 0.26954 0.98812 0.0
O258 O 0.81476 0.25329 0.96141 0.0
C259 C 0.85525 0.25981 0.1331 0.0
C260 C 0.88366 0.19781 0.07148 0.0
C261 C 0.81034 0.23448 0.9878 0.0
O262 O 0.85729 0.23905 0.11895 0.0
O263 O 0.85084 0.27448 0.08715 0.0
O264 O 0.86103 0.21222 0.93235 0.0
O265 O 0.86307 0.24641 0.96908 0.0
Co266 Co 0.0521 0.60984 0.28295 0.0
O267 O 0.0583 0.64082 0.29655 0.0
O268 O 0.07965 0.61369 0.33385 0.0
C269 C 0.04345 0.61267 0.16934 0.0
O270 O 0.05162 0.57601 0.27645 0.0
Co271 Co 1.00551 0.59334 0.23658 0.0
O272 O 0.02215 0.56616 0.21199 0.0
C273 C 1.01332 0.60578 0.3835 0.0
C274 C 0.07636 0.63488 0.32776 0.0
C275 C 0.04049 0.56165 0.24139 0.0
O276 O 0.03413 0.60883 0.37152 0.0
O277 O 0.99932 0.60112 0.33577 0.0
O278 O 0.06401 0.61142 0.18879 0.0
O279 O 0.02916 0.61399 0.21877 0.0
Co280 Co 0.66766 0.2229 0.95482 0.0
O281 O 0.63662 0.21678 0.94165 0.0
O282 O 0.66366 0.19501 0.9061 0.0
C283 C 0.66474 0.23256 0.06747 0.0
O284 O 0.70154 0.22317 0.96111 0.0
Co285 Co 0.68455 0.26976 -0.00409 0.0
O286 O 0.71185 0.25338 0.02118 0.0
C287 C 0.67068 0.26085 0.85122 0.0
C288 C 0.64247 0.19849 0.91168 0.0
C289 C 0.71612 0.23464 0.99415 0.0
O290 O 0.66856 0.24008 0.86513 0.0
O291 O 0.67547 0.27536 0.89727 0.0
O292 O 0.66591 0.21184 0.04978 0.0
O293 O 0.66374 0.24643 0.01675 0.0
Co294 Co 0.05306 0.4195 0.20211 0.0
O295 O 0.06009 0.38883 0.18501 0.0
O296 O 0.08118 0.41704 0.15405 0.0
C297 C 0.0431 0.41444 0.31399 0.0
O298 O 0.05203 0.45322 0.21255 0.0
Co299 Co 1.00609 0.43511 0.2475 0.0
O300 O 0.02198 0.46248 0.27488 0.0
C301 C 0.01497 0.42371 0.10006 0.0
C302 C 0.07843 0.39571 0.15731 0.0
C303 C 0.04045 0.46736 0.24692 0.0
O304 O 0.03586 0.42128 0.11222 0.0
O305 O 1.00073 0.42752 0.14777 0.0
O306 O 0.06387 0.41668 0.29757 0.0
O307 O 0.02952 0.41407 0.26261 0.0
Co308 Co 0.85901 0.8016 0.45767 0.0
O309 O 0.88988 0.80761 0.44074 0.0
O310 O 0.86252 0.82967 0.4095 0.0
C311 C 0.86371 0.79144 0.56954 0.0
O312 O 0.82525 0.80146 0.46822 0.0
Co313 Co 0.84215 0.75496 0.50248 0.0
O314 O 0.81551 0.77173 0.53146 0.0
C315 C 0.85358 0.76379 0.3551 0.0
C316 C 0.88374 0.82609 0.41247 0.0
C317 C 0.81101 0.79032 0.50374 0.0
O318 O 0.85673 0.78455 0.36765 0.0
O319 O 0.84934 0.74955 0.4025 0.0
O320 O 0.86215 0.81226 0.5532 0.0
O321 O 0.86372 0.7779 0.51809 0.0
Co322 Co 0.47287 0.60795 0.70806 0.0
O323 O 0.46679 0.6389 0.69357 0.0
O324 O 0.4446 0.61174 0.6612 0.0
C325 C 0.4836 0.61178 0.81942 0.0
O326 O 0.47316 0.57412 0.71601 0.0
Co327 Co 0.51996 0.59114 0.7483 0.0
O328 O 0.50367 0.5639 0.77481 0.0
C329 C 0.51024 0.60445 0.60332 0.0
C330 C 0.44825 0.63294 0.66518 0.0
C331 C 0.48484 0.55955 0.74839 0.0
O332 O 0.48947 0.60653 0.61747 0.0
O333 O 0.5249 0.59998 0.64927 0.0
O334 O 0.46267 0.61028 0.80412 0.0
O335 O 0.49689 0.61228 0.76735 0.0
Co336 Co 0.35797 0.22283 0.45727 0.0
O337 O 0.38897 0.21621 0.4461 0.0
O338 O 0.36174 0.19502 0.40806 0.0
C339 C 0.3601 0.2322 0.57019 0.0
O340 O 0.32408 0.22374 0.46117 0.0
Co341 Co 0.34193 0.26999 0.49794 0.0
O342 O 0.31399 0.25419 0.52036 0.0
C343 C 0.35629 0.26094 0.35393 0.0
C344 C 0.38296 0.19816 0.41494 0.0
C345 C 0.3095 0.23557 0.49284 0.0
O346 O 0.35802 0.24016 0.36792 0.0
O347 O 0.35151 0.27552 0.39974 0.0
O348 O 0.3587 0.21153 0.55205 0.0
O349 O 0.36198 0.24615 0.51995 0.0
Co350 Co 0.55312 0.60801 0.2082 0.0
O351 O 0.55955 0.63892 0.19441 0.0
O352 O 0.58144 0.61166 0.16138 0.0
C353 C 0.54245 0.61162 0.31967 0.0
O354 O 0.55241 0.57417 0.21553 0.0
Co355 Co 0.50577 0.59167 0.24802 0.0
O356 O 0.52178 0.56429 0.27442 0.0
C357 C 0.51568 0.60515 0.10336 0.0
C358 C 0.57801 0.63287 0.16582 0.0
C359 C 0.54059 0.55977 0.24818 0.0
O360 O 0.53648 0.60695 0.11754 0.0
O361 O 0.50095 0.6008 0.14923 0.0
O362 O 0.56337 0.61001 0.30436 0.0
O363 O 0.52918 0.61242 0.26757 0.0
Co364 Co 0.168 0.80259 0.96414 0.0
O365 O 0.13705 0.80932 0.95246 0.0
O366 O 0.16438 0.83015 0.91332 0.0
C367 C 0.16563 0.7939 0.07786 0.0
O368 O 0.20189 0.80156 0.96832 0.0
Co369 Co 0.18395 0.75576 0.00887 0.0
O370 O 0.21183 0.77171 0.0307 0.0
C371 C 0.16953 0.76369 0.86388 0.0
C372 C 0.14315 0.82719 0.92046 0.0
C373 C 0.21643 0.79003 0.00131 0.0
O374 O 0.1679 0.78464 0.87568 0.0
O375 O 0.17427 0.74959 0.9112 0.0
O376 O 0.16724 0.81444 0.05846 0.0
O377 O 0.16383 0.7797 0.02836 0.0
Co378 Co 0.97386 0.41764 0.70304 0.0
O379 O 0.96713 0.38672 0.69107 0.0
O380 O 0.94595 0.41401 0.65383 0.0
C381 C 0.98327 0.41529 0.8159 0.0
O382 O 0.97494 0.4515 0.70807 0.0
Co383 Co 0.02121 0.43335 0.74415 0.0
O384 O 1.0054 0.46108 0.76832 0.0
C385 C 1.01196 0.41972 0.59952 0.0
C386 C 0.94904 0.39279 0.66022 0.0
C387 C 0.98683 0.46583 0.74076 0.0
O388 O 0.99117 0.41786 0.61356 0.0
O389 O 0.0266 0.42428 0.64548 0.0
O390 O 0.96258 0.41669 0.79784 0.0
O391 O 0.99719 0.41343 0.76561 0.0
Co392 Co 0.35902 0.80105 0.03277 0.0
O393 O 0.39001 0.80728 0.04676 0.0
O394 O 0.36279 0.82859 0.08361 0.0
C395 C 0.36212 0.79244 0.91919 0.0
O396 O 0.32516 0.80062 0.02585 0.0
Co397 Co 0.34237 0.75465 0.9859 0.0
O398 O 0.31525 0.77136 0.96078 0.0
C399 C 0.35508 0.76216 0.13285 0.0
C400 C 0.38401 0.82537 0.0776 0.0
C401 C 0.31077 0.78964 0.99042 0.0
O402 O 0.35794 0.78302 0.12121 0.0
O403 O 0.35034 0.74828 0.0849 0.0
O404 O 0.36077 0.81298 0.93867 0.0
O405 O 0.36324 0.77815 0.96866 0.0
Co406 Co 0.97408 0.60783 0.78303 0.0
O407 O 0.96679 0.63852 0.79865 0.0
O408 O 0.94642 0.61025 0.83363 0.0
C409 C 0.98272 0.61168 0.66975 0.0
O410 O 0.97549 0.57408 0.77447 0.0
Co411 Co 0.02099 0.5928 0.73632 0.0
O412 O 1.00508 0.56536 0.70928 0.0
C413 C 1.01288 0.60445 0.88367 0.0
C414 C 0.94884 0.63159 0.82871 0.0
C415 C 0.98685 0.56022 0.73833 0.0
O416 O 0.992 0.6069 0.87167 0.0
O417 O 0.02702 0.60033 0.8359 0.0
O418 O 0.9622 0.60963 0.68898 0.0
O419 O 0.99697 0.6131 0.71934 0.0
Co420 Co 0.16726 0.22419 0.53306 0.0
O421 O 0.1364 0.21791 0.54885 0.0
O422 O 0.16379 0.19584 0.57975 0.0
C423 C 0.16295 0.23496 0.42195 0.0
O424 O 0.20106 0.2247 0.5232 0.0
Co425 Co 0.1836 0.27145 0.49261 0.0
O426 O 0.21049 0.25519 0.463 0.0
C427 C 0.17103 0.26149 0.63801 0.0
C428 C 0.14255 0.19937 0.57662 0.0
C429 C 0.21519 0.23637 0.48883 0.0
O430 O 0.16904 0.24072 0.62382 0.0
O431 O 0.17517 0.27622 0.59198 0.0
O432 O 0.16451 0.21405 0.43707 0.0
O433 O 0.16256 0.2482 0.47415 0.0
Co434 Co 0.55256 0.41725 0.28052 0.0
O435 O 0.55972 0.38643 0.29504 0.0
O436 O 0.58029 0.41447 0.33052 0.0
C437 C 0.54357 0.41365 0.1672 0.0
O438 O 0.55144 0.45106 0.27341 0.0
Co439 Co 0.50573 0.43299 0.23486 0.0
O440 O 0.52155 0.46074 0.21089 0.0
C441 C 0.51381 0.41979 0.38107 0.0
C442 C 0.57777 0.39317 0.32497 0.0
C443 C 0.53991 0.46545 0.23983 0.0
O444 O 0.53478 0.41793 0.36938 0.0
O445 O 0.49972 0.42421 0.33341 0.0
O446 O 0.56416 0.41556 0.18599 0.0
O447 O 0.52948 0.41244 0.21723 0.0
C448 C 0.27619 0.29878 0.94016 0.0
C449 C 0.28757 0.29672 0.00347 0.0
C450 C 0.25293 0.29855 0.93806 0.0
C451 C 0.24039 0.297 -0.00069 0.0
H452 H 0.28526 0.29869 0.89169 0.0
H453 H 0.24471 0.29841 0.88809 0.0
S454 S 0.26235 0.29365 0.17838 0.0
N455 N 0.28466 0.29456 0.12886 0.0
N456 N 0.24098 0.29515 0.12505 0.0
C457 C 0.25158 0.29674 0.0631 0.0
C458 C 0.27521 0.29635 0.06515 0.0
C459 C 0.97988 1.00076 0.30791 0.0
C460 C 0.97911 0.98909 0.24494 0.0
C461 C 0.98042 0.02399 0.30871 0.0
C462 C 0.97959 0.03625 0.24671 0.0
H463 H 0.98196 0.9919 0.35636 0.0
H464 H 0.98273 0.03239 0.35782 0.0
S465 S 0.97501 0.01337 0.06904 0.0
N466 N 0.97599 0.99133 0.1197 0.0
N467 N 0.97602 0.03502 0.12131 0.0
C468 C 0.97695 0.02476 0.18394 0.0
C469 C 0.97699 1.00113 0.18303 0.0
C470 C 0.25135 0.73296 0.56787 0.0
C471 C 0.23839 0.72919 0.5083 0.0
C472 C 0.27455 0.73227 0.56498 0.0
C473 C 0.28556 0.72823 0.50213 0.0
H474 H 0.24352 0.73772 0.61617 0.0
H475 H 0.28392 0.73669 0.61089 0.0
S476 S 0.2595 0.7152 0.33319 0.0
N477 N 0.23837 0.71911 0.38623 0.0
N478 N 0.28206 0.71867 0.3805 0.0
C479 C 0.27289 0.72304 0.44334 0.0
C480 C 0.24924 0.72323 0.44655 0.0
C481 C 0.54514 0.02409 0.67824 0.0
C482 C 0.54648 0.03644 0.73999 0.0
C483 C 0.54557 1.00087 0.6793 0.0
C484 C 0.54678 0.98927 0.74233 0.0
H485 H 0.54247 0.03244 0.62919 0.0
H486 H 0.54312 0.99197 0.63113 0.0
S487 S 0.55241 0.01371 0.91755 0.0
N488 N 0.55105 0.03531 0.86514 0.0
N489 N 0.55093 0.99163 0.86724 0.0
C490 C 0.54944 1.00137 0.8039 0.0
C491 C 0.54957 0.02501 0.8027 0.0
C492 C 0.75281 0.72873 0.93532 0.0
C493 C 0.74054 0.72913 -0.00266 0.0
C494 C 0.77607 0.72859 0.93625 0.0
C495 C 0.78774 0.72954 -0.00076 0.0
H496 H 0.74437 0.72976 0.88583 0.0
H497 H 0.78491 0.72955 0.88745 0.0
S498 S 0.76346 0.7291 0.17561 0.0
N499 N 0.74179 0.72858 0.12322 0.0
N500 N 0.7855 0.72927 0.12489 0.0
C501 C 0.7757 0.7287 0.06147 0.0
C502 C 0.75206 0.72823 0.06055 0.0
C503 C 0.04861 1.00206 0.68475 0.0
C504 C 0.04846 0.98953 0.74624 0.0
C505 C 0.04894 0.0253 0.68669 0.0
C506 C 0.04841 0.03668 0.75023 0.0
H507 H 0.04719 0.99386 0.63498 0.0
H508 H 0.04766 0.03436 0.63834 0.0
S509 S 0.04954 1.01157 0.92546 0.0
N510 N 0.0497 0.99018 0.87209 0.0
N511 N 0.04929 0.03384 0.87573 0.0
C512 C 0.04954 0.02436 0.81186 0.0
C513 C 0.04984 1.00074 0.80987 0.0
C514 C 0.75212 0.29653 0.55392 0.0
C515 C 0.73957 0.29605 0.49245 0.0
C516 C 0.77537 0.29706 0.55196 0.0
C517 C 0.78677 0.29644 0.48844 0.0
H518 H 0.74393 0.29531 0.60376 0.0
H519 H 0.78445 0.29609 0.60034 0.0
S520 S 0.76163 0.29657 0.31318 0.0
N521 N 0.74022 0.29676 0.36655 0.0
N522 N 0.78392 0.29672 0.36292 0.0
C523 C 0.77442 0.29715 0.42677 0.0
C524 C 0.75078 0.29723 0.42876 0.0
C525 C 0.4769 1.00159 0.307 0.0
C526 C 0.47748 0.98896 0.24576 0.0
C527 C 0.47663 0.02483 0.30463 0.0
C528 C 0.47765 0.03611 0.24093 0.0
H529 H 0.47796 0.99348 0.357 0.0
H530 H 0.47757 0.03397 0.35288 0.0
S531 S 0.47775 1.01073 0.06611 0.0
N532 N 0.47715 0.98943 0.11983 0.0
N533 N 0.47767 0.03308 0.11546 0.0
C534 C 0.47693 0.02369 0.17946 0.0
C535 C 0.47657 1.00008 0.18185 0.0
C536 C 0.75286 0.79805 0.43813 0.0
C537 C 0.74035 0.79718 0.49957 0.0
C538 C 0.77611 0.7983 0.44008 0.0
C539 C 0.78752 0.79697 0.50351 0.0
H540 H 0.74463 0.79725 0.38824 0.0
H541 H 0.78516 0.7976 0.3916 0.0
S542 S 0.76243 0.79611 0.67878 0.0
N543 N 0.74102 0.79693 0.62546 0.0
N544 N 0.78471 0.79638 0.62905 0.0
C545 C 0.7752 0.79739 0.56525 0.0
C546 C 0.75158 0.79776 0.5633 0.0
C547 C 0.47839 0.50018 0.80573 0.0
C548 C 0.47853 0.48884 0.7421 0.0
C549 C 0.47863 0.52342 0.80779 0.0
C550 C 0.47833 0.53601 0.74638 0.0
H551 H 0.48 0.49109 0.85392 0.0
H552 H 0.48033 0.53159 0.85752 0.0
S553 S 0.47618 0.51406 0.56713 0.0
N554 N 0.47683 0.49176 0.61671 0.0
N555 N 0.47628 0.53542 0.62062 0.0
C556 C 0.47659 0.52482 0.68279 0.0
C557 C 0.47696 0.50121 0.68064 0.0
C558 C 0.75105 0.22836 0.92913 0.0
C559 C 0.73959 0.22799 0.99253 0.0
C560 C 0.7743 0.22866 0.9275 0.0
C561 C 0.78678 0.22795 0.98909 0.0
H562 H 0.74204 0.23032 0.88091 0.0
H563 H 0.78256 0.23075 0.87804 0.0
S564 S 0.76448 0.22437 0.16773 0.0
N565 N 0.74226 0.22536 0.11781 0.0
N566 N 0.78596 0.22492 0.11466 0.0
C567 C 0.77548 0.22568 0.05235 0.0
C568 C 0.75184 0.22599 0.0541 0.0
C569 C 0.04569 0.50339 0.30777 0.0
C570 C 0.04668 0.491 0.24608 0.0
C571 C 0.04612 0.52662 0.30641 0.0
C572 C 0.04692 0.53815 0.24317 0.0
H573 H 0.04337 0.49508 0.35704 0.0
H574 H 0.04397 0.53557 0.35462 0.0
S575 S 0.05142 0.51353 0.0679 0.0
N576 N 0.05042 0.49199 0.12066 0.0
N577 N 0.05025 0.53566 0.11804 0.0
C578 C 0.04918 0.52599 0.18158 0.0
C579 C 0.04934 0.50237 0.18306 0.0
C580 C 0.2736 0.22725 0.55101 0.0
C581 C 0.28591 0.22938 0.48945 0.0
C582 C 0.25033 0.2271 0.54981 0.0
C583 C 0.23872 0.2298 0.48716 0.0
H584 H 0.28201 0.22694 0.60065 0.0
H585 H 0.24145 0.22676 0.59861 0.0
S586 S 0.26326 0.23441 0.31163 0.0
N587 N 0.28484 0.23239 0.36397 0.0
N588 N 0.24114 0.23308 0.36191 0.0
C589 C 0.25084 0.23069 0.42506 0.0
C590 C 0.27447 0.23024 0.42615 0.0
C591 C 0.54594 0.50166 0.18074 0.0
C592 C 0.5462 0.48906 0.2421 0.0
C593 C 0.54657 0.52489 0.18286 0.0
C594 C 0.54684 0.53621 0.24649 0.0
H595 H 0.54406 0.49354 0.131 0.0
H596 H 0.54501 0.53401 0.13472 0.0
S597 S 0.54921 0.51093 0.42135 0.0
N598 N 0.54861 0.48959 0.36783 0.0
N599 N 0.54878 0.53325 0.37183 0.0
C600 C 0.54831 0.52382 0.30791 0.0
C601 C 0.54828 0.50019 0.3057 0.0
C602 C 0.27607 0.79645 0.05637 0.0
C603 C 0.28723 0.79611 0.99243 0.0
C604 C 0.25283 0.79617 0.05909 0.0
C605 C 0.24006 0.79621 -0.00195 0.0
H606 H 0.28531 0.79507 0.10437 0.0
H607 H 0.24481 0.79471 0.10914 0.0
S608 S 0.2615 0.79797 0.81811 0.0
N609 N 0.28396 0.79747 0.86707 0.0
N610 N 0.24028 0.79792 0.8722 0.0
C611 C 0.25106 0.79777 0.93406 0.0
C612 C 0.27469 0.79744 0.93125 0.0
C613 C 0.98085 0.50162 0.80189 0.0
C614 C 0.98064 0.48944 0.73972 0.0
C615 C 0.98057 0.52485 0.80126 0.0
C616 C 0.98074 0.5366 0.73834 0.0
H617 H 0.98243 0.49313 0.85116 0.0
H618 H 0.98202 0.53363 0.85004 0.0
S619 S 0.97843 0.51253 0.56184 0.0
N620 N 0.97863 0.49082 0.61399 0.0
N621 N 0.97907 0.53451 0.61277 0.0
C622 C 0.97928 0.52464 0.67609 0.0
C623 C 0.97896 0.50101 0.67678 0.0
C624 C 0.17198 0.29926 0.79563 0.0
C625 C 0.16565 0.28521 0.85003 0.0
C626 C 0.17358 0.29139 0.7276 0.0
C627 C 0.16886 0.26913 0.71097 0.0
H628 H 0.17599 0.31644 0.80565 0.0
H629 H 0.17876 0.30295 0.68786 0.0
S630 S 0.15044 0.22579 0.8349 0.0
N631 N 0.15386 0.24812 0.883 0.0
N632 N 0.15685 0.23332 0.75513 0.0
C633 C 0.1622 0.25495 0.76501 0.0
C634 C 0.1606 0.26299 0.83445 0.0
C635 C 0.98645 0.92297 0.97848 0.0
C636 C 1.00883 0.91878 0.96184 0.0
C637 C 0.97862 0.9211 0.04652 0.0
C638 C 0.99281 0.91504 0.10084 0.0
H639 H 0.97478 0.92791 0.93876 0.0
H640 H 0.96135 0.92471 0.0566 0.0
S641 S 0.0526 0.90135 0.0857 0.0
N642 N 0.04493 0.90764 0.00598 0.0
N643 N 0.03019 0.90416 0.13377 0.0
C644 C 0.01516 0.91056 0.08524 0.0
C645 C 0.02316 0.91242 0.01585 0.0
C646 C 0.36296 0.76088 0.32883 0.0
C647 C 0.35915 0.73856 0.34608 0.0
C648 C 0.36183 0.76829 0.26002 0.0
C649 C 0.35677 0.7537 0.20537 0.0
H650 H 0.36689 0.77284 0.36883 0.0
H651 H 0.36488 0.78566 0.24988 0.0
S652 S 0.34502 0.69344 0.22349 0.0
N653 N 0.34995 0.7019 0.30334 0.0
N654 N 0.34772 0.71558 0.17412 0.0
C655 C 0.35291 0.73122 0.22213 0.0
C656 C 0.35413 0.72373 0.29233 0.0
C657 C 0.54803 0.1047 0.54237 0.0
C658 C 0.53382 0.11115 0.59621 0.0
C659 C 0.54033 0.10285 0.47406 0.0
C660 C 0.51809 0.10746 0.45669 0.0
H661 H 0.56518 0.10069 0.55312 0.0
H662 H 0.55197 0.09752 0.43476 0.0
S663 S 0.47447 0.12641 0.57881 0.0
N664 N 0.49667 0.12312 0.62762 0.0
N665 N 0.4822 0.11971 0.49952 0.0
C666 C 0.5038 0.11436 0.51014 0.0
C667 C 0.51166 0.11619 0.57973 0.0
C668 C 0.16595 0.77044 0.73595 0.0
C669 C 0.16665 0.75542 0.79169 0.0
C670 C 0.16443 0.76306 0.66723 0.0
C671 C 0.16355 0.74035 0.65119 0.0
H672 H 0.16694 0.7881 0.74514 0.0
H673 H 0.16418 0.77535 0.62636 0.0
S674 S 0.16337 0.69407 0.77759 0.0
N675 N 0.16524 0.71655 0.82578 0.0
N676 N 0.16252 0.70287 0.69663 0.0
C677 C 0.16376 0.72512 0.70619 0.0
C678 C 0.16527 0.7326 0.77632 0.0
C679 C 0.50662 0.91141 0.97882 0.0
C680 C 0.51947 0.92164 0.03061 0.0
C681 C 0.51445 0.90949 0.91063 0.0
C682 C 0.53546 0.91759 0.89172 0.0
H683 H 0.4905 0.90458 0.99105 0.0
H684 H 0.50405 0.90134 0.87263 0.0
S685 S 0.57472 0.9478 0.00512 0.0
N686 N 0.55373 0.9415 0.05624 0.0
N687 N 0.56835 0.9375 0.92846 0.0
C688 C 0.54829 0.92825 0.94225 0.0
C689 C 0.54031 0.93039 0.01155 0.0
C690 C 0.35659 0.29831 0.19493 0.0
C691 C 0.3631 0.28401 0.14139 0.0
C692 C 0.35468 0.29073 0.26335 0.0
C693 C 0.35929 0.26854 0.28112 0.0
H694 H 0.35251 0.3154 0.18382 0.0
H695 H 0.34925 0.3024 0.30238 0.0
S696 S 0.3785 0.22479 0.15996 0.0
N697 N 0.37521 0.24688 0.11073 0.0
N698 N 0.3717 0.23263 0.23906 0.0
C699 C 0.36632 0.25419 0.22802 0.0
C700 C 0.36821 0.26192 0.15831 0.0
C701 C 0.01988 0.11352 0.47974 0.0
C702 C 1.00629 0.10503 0.53275 0.0
C703 C 1.01217 0.1153 0.41135 0.0
C704 C 0.99053 0.10881 0.39328 0.0
H705 H 0.03659 0.11897 0.49103 0.0
H706 H 0.02323 0.12201 0.37243 0.0
S707 S 0.94866 0.08412 0.51071 0.0
N708 N 0.97025 0.08899 0.56089 0.0
N709 N 0.95593 0.09268 0.43274 0.0
C710 C 0.97682 0.10008 0.44523 0.0
C711 C 0.98465 0.09811 0.51479 0.0
C712 C 0.86768 0.76052 0.16306 0.0
C713 C 0.85952 0.73958 0.14382 0.0
C714 C 0.86552 0.76837 0.23116 0.0
C715 C 0.85498 0.75561 0.28253 0.0
H716 H 0.87606 0.77086 0.12537 0.0
H717 H 0.87243 0.78442 0.24372 0.0
S718 S 0.82847 0.70061 0.25605 0.0
N719 N 0.83916 0.70688 0.17981 0.0
N720 N 0.83473 0.72154 0.3074 0.0
C721 C 0.84615 0.73485 0.26314 0.0
C722 C 0.84853 0.72685 0.19394 0.0
C723 C 0.04148 0.10359 0.01405 0.0
C724 C 0.01925 0.10821 0.03154 0.0
C725 C 0.0491 0.10536 0.94563 0.0
C726 C 0.03482 0.11173 0.89182 0.0
H727 H 0.05315 0.0983 0.05332 0.0
H728 H 0.06623 0.10133 0.93477 0.0
S729 S 0.97549 0.12699 0.90951 0.0
N730 N 0.98331 0.1204 0.98884 0.0
N731 N 0.99763 0.12364 0.86055 0.0
C732 C 1.01268 0.11679 0.90842 0.0
C733 C 1.0049 0.11505 0.97811 0.0
C734 C 0.67127 0.29842 0.69262 0.0
C735 C 0.66439 0.28436 0.63888 0.0
C736 C 0.67307 0.29069 0.76091 0.0
C737 C 0.66798 0.26856 0.77838 0.0
H738 H 0.67566 0.31546 0.6818 0.0
H739 H 0.67875 0.30219 0.80011 0.0
S740 S 0.64774 0.2254 0.65663 0.0
N741 N 0.65147 0.2475 0.60773 0.0
N742 N 0.65479 0.23297 0.73581 0.0
C743 C 0.66063 0.25444 0.72506 0.0
C744 C 0.65885 0.26233 0.65549 0.0
C745 C 0.4773 0.91857 0.44436 0.0
C746 C 0.49181 0.91334 0.39 0.0
C747 C 0.4849 0.9202 0.5128 0.0
C748 C 0.50736 0.91661 0.52985 0.0
H749 H 0.45997 0.92179 0.43395 0.0
H750 H 0.47301 0.9246 0.55247 0.0
S751 S 0.55187 0.90098 0.40623 0.0
N752 N 0.52951 0.90352 0.35769 0.0
N753 N 0.54382 0.90658 0.48606 0.0
C754 C 0.52196 0.91085 0.47588 0.0
C755 C 0.51419 0.90923 0.40612 0.0
C756 C 0.85352 0.28983 0.22251 0.0
C757 C 0.85766 0.26746 0.20598 0.0
C758 C 0.8553 0.29768 0.29055 0.0
C759 C 0.86123 0.28349 0.34501 0.0
H760 H 0.84867 0.30151 0.1827 0.0
H761 H 0.85173 0.31494 0.30052 0.0
S762 S 0.87479 0.2237 0.3302 0.0
N763 N 0.86864 0.23136 0.25037 0.0
N764 N 0.87198 0.24612 0.37817 0.0
C765 C 0.86569 0.26114 0.32951 0.0
C766 C 0.86391 0.25313 0.26011 0.0
C767 C 0.51251 0.10788 0.07987 0.0
C768 C 0.48981 0.11031 0.09474 0.0
C769 C 0.5202 0.10675 0.01137 0.0
C770 C 0.50549 0.10803 0.95494 0.0
H771 H 0.5245 0.10659 0.12143 0.0
H772 H 0.53777 0.10446 0.00279 0.0
S773 S 0.44451 0.11625 0.96619 0.0
N774 N 0.45282 0.1151 0.04761 0.0
N775 N 0.46709 0.11321 0.91901 0.0
C776 C 0.48274 0.11103 0.96926 0.0
C777 C 0.47495 0.11209 0.03904 0.0
C778 C 0.67178 0.72713 0.79693 0.0
C779 C 0.66564 0.74137 0.85103 0.0
C780 C 0.6734 0.73482 0.72856 0.0
C781 C 0.66888 0.75708 0.7114 0.0
H782 H 0.67568 0.70996 0.80749 0.0
H783 H 0.67848 0.72316 0.68904 0.0
S784 S 0.65082 0.80082 0.83433 0.0
N785 N 0.65411 0.7786 0.88295 0.0
N786 N 0.65713 0.79305 0.75476 0.0
C787 C 0.66232 0.77141 0.76513 0.0
C788 C 0.6607 0.76356 0.83477 0.0
C789 C 0.04108 0.92233 0.47862 0.0
C790 C 0.01874 0.91791 0.46193 0.0
C791 C 0.04892 0.92063 0.54671 0.0
C792 C 0.03476 0.91453 0.60107 0.0
H793 H 0.05272 0.92737 0.43894 0.0
H794 H 0.06615 0.92446 0.55682 0.0
S795 S 0.97515 0.89997 0.58572 0.0
N796 N 0.98276 0.90629 0.50596 0.0
N797 N 0.99751 0.90315 0.63391 0.0
C798 C 1.01248 0.90971 0.58538 0.0
C799 C 1.00447 0.91139 0.51591 0.0
C800 C 0.66824 0.7627 0.3345 0.0
C801 C 0.66613 0.78541 0.34937 0.0
C802 C 0.66942 0.75501 0.26603 0.0
C803 C 0.6685 0.76974 0.2096 0.0
H804 H 0.66924 0.75068 0.37606 0.0
H805 H 0.67144 0.73742 0.25747 0.0
S806 S 0.66126 0.8308 0.22082 0.0
N807 N 0.66206 0.82246 0.30224 0.0
N808 N 0.66404 0.8082 0.17366 0.0
C809 C 0.66583 0.79251 0.22391 0.0
C810 C 0.66472 0.8003 0.29368 0.0
C811 C 0.51285 0.41631 0.5781 0.0
C812 C 0.4901 0.41512 0.59372 0.0
C813 C 0.52037 0.41748 0.50943 0.0
C814 C 0.50545 0.41749 0.45337 0.0
H815 H 0.52506 0.41651 0.61924 0.0
H816 H 0.53804 0.41868 0.5005 0.0
S817 S 0.44408 0.41337 0.46644 0.0
N818 N 0.45271 0.41324 0.54761 0.0
N819 N 0.46665 0.41526 0.41861 0.0
C820 C 0.48259 0.41592 0.46837 0.0
C821 C 0.47498 0.41479 0.53842 0.0
C822 C 0.85425 0.23513 0.72249 0.0
C823 C 0.8582 0.25755 0.70597 0.0
C824 C 0.85598 0.22731 0.79058 0.0
C825 C 0.86166 0.24157 0.84511 0.0
H826 H 0.84956 0.22339 0.68266 0.0
H827 H 0.85254 0.21 0.80054 0.0
S828 S 0.87484 0.30147 0.83026 0.0
N829 N 0.86887 0.29374 0.75036 0.0
N830 N 0.8721 0.27904 0.87829 0.0
C831 C 0.866 0.26395 0.82959 0.0
C832 C 0.86428 0.27194 0.76012 0.0
C833 C 0.01492 0.61732 0.07681 0.0
C834 C 0.03635 0.61059 0.0962 0.0
C835 C 1.00748 0.61528 0.00823 0.0
C836 C 0.02114 0.60631 0.95623 0.0
H837 H 1.0038 0.62438 0.11487 0.0
H838 H 0.99091 0.62092 -0.00401 0.0
S839 S 0.07817 0.58448 0.98193 0.0
N840 N 0.07078 0.59362 0.05912 0.0
N841 N 0.05693 0.5895 0.93045 0.0
C842 C 0.04255 0.59915 0.97544 0.0
C843 C 0.05012 0.60137 0.04529 0.0
C844 C 0.66841 0.27056 0.22391 0.0
C845 C 0.66789 0.2558 0.28032 0.0
C846 C 0.6673 0.26287 0.15541 0.0
C847 C 0.66565 0.24012 0.14045 0.0
H848 H 0.67002 0.2882 0.23249 0.0
H849 H 0.66795 0.27492 0.11388 0.0
S850 S 0.66224 0.19455 0.26888 0.0
N851 N 0.66451 0.21719 0.3161 0.0
N852 N 0.66265 0.20295 0.1875 0.0
C853 C 0.66473 0.22518 0.19612 0.0
C854 C 0.66578 0.23296 0.26592 0.0
C855 C 0.04185 0.42162 0.50932 0.0
C856 C 0.01955 0.41723 0.52649 0.0
C857 C 0.04944 0.42033 0.44079 0.0
C858 C 0.03505 0.41464 0.38648 0.0
H859 H 0.05363 0.42642 0.54893 0.0
H860 H 0.06663 0.42418 0.43028 0.0
S861 S 0.97545 0.40015 0.40312 0.0
N862 N 0.98339 0.40595 0.48294 0.0
N863 N 0.99765 0.40353 0.35439 0.0
C864 C 1.01283 0.40973 0.40275 0.0
C865 C 1.00509 0.41102 0.47259 0.0
C866 C 0.85589 0.79014 0.76463 0.0
C867 C 0.86005 0.76782 0.78191 0.0
C868 C 0.85746 0.79774 0.69615 0.0
C869 C 0.86317 0.78335 0.64198 0.0
H870 H 0.85111 0.80193 0.80414 0.0
H871 H 0.85379 0.81496 0.68557 0.0
S872 S 0.87699 0.72368 0.65884 0.0
N873 N 0.87106 0.73162 0.73853 0.0
N874 N 0.87396 0.74591 0.61008 0.0
C875 C 0.86778 0.7611 0.65832 0.0
C876 C 0.86623 0.75334 0.72811 0.0
C877 C 0.48564 0.60345 0.0139 0.0
C878 C 0.50803 0.60765 0.0305 0.0
C879 C 0.47781 0.60512 0.9458 0.0
C880 C 0.49203 0.61097 0.89133 0.0
H881 H 0.47394 0.5986 0.05368 0.0
H882 H 0.46054 0.60147 0.93577 0.0
S883 S 0.55181 0.62489 0.90639 0.0
N884 N 0.54412 0.6188 0.98625 0.0
N885 N 0.5294 0.62188 0.85828 0.0
C886 C 0.51437 0.61558 0.90691 0.0
C887 C 0.52236 0.61393 0.9764 0.0
C888 C 0.36445 0.26142 0.66075 0.0
C889 C 0.35827 0.23968 0.64295 0.0
C890 C 0.36296 0.26904 0.72926 0.0
C891 C 0.35512 0.25524 0.78272 0.0
H892 H 0.3707 0.27264 0.62153 0.0
H893 H 0.36815 0.28583 0.74028 0.0
S894 S 0.33529 0.19724 0.76174 0.0
N895 N 0.34315 0.20474 0.68326 0.0
N896 N 0.34004 0.21888 0.81171 0.0
C897 C 0.3485 0.23351 0.76508 0.0
C898 C 0.35016 0.22577 0.69536 0.0
C899 C 0.54025 0.60253 0.51384 0.0
C900 C 0.51791 0.60689 0.53046 0.0
C901 C 0.54812 0.60436 0.44583 0.0
C902 C 0.53398 0.61054 0.39148 0.0
H903 H 0.55188 0.59748 0.55355 0.0
H904 H 0.56536 0.60061 0.43577 0.0
S905 S 0.4743 0.62472 0.40659 0.0
N906 N 0.48191 0.61834 0.48631 0.0
N907 N 0.49671 0.62175 0.35855 0.0
C908 C 0.51167 0.61521 0.40708 0.0
C909 C 0.50364 0.61338 0.47646 0.0
C910 C 0.16292 0.7574 0.23785 0.0
C911 C 0.16997 0.77151 0.29157 0.0
C912 C 0.16158 0.76485 0.16912 0.0
C913 C 0.16714 0.78674 0.15115 0.0
H914 H 0.15832 0.74042 0.24875 0.0
H915 H 0.15601 0.75331 0.1298 0.0
S916 S 0.18751 0.83025 0.2708 0.0
N917 N 0.1833 0.80851 0.32089 0.0
N918 N 0.18055 0.82232 0.19189 0.0
C919 C 0.17432 0.80104 0.20389 0.0
C920 C 0.1758 0.79348 0.27395 0.0
C921 C 1.01246 0.41119 0.90676 0.0
C922 C 0.99085 0.41765 0.88842 0.0
C923 C 0.02021 0.41331 0.97501 0.0
C924 C 1.00666 0.42209 0.02758 0.0
H925 H 0.02347 0.40422 0.86819 0.0
H926 H 0.03687 0.40782 0.98661 0.0
S927 S 0.94924 0.44328 0.00454 0.0
N928 N 0.95639 0.43423 0.92704 0.0
N929 N 0.9708 0.43854 0.05494 0.0
C930 C 0.9851 0.42907 0.0093 0.0
C931 C 0.97723 0.42676 0.93989 0.0
C932 C 0.36552 0.76339 0.82779 0.0
C933 C 0.36052 0.78539 0.84584 0.0
C934 C 0.36377 0.75596 0.75916 0.0
C935 C 0.35682 0.7702 0.70561 0.0
H936 H 0.3709 0.75174 0.86702 0.0
H937 H 0.36785 0.73886 0.74826 0.0
S938 S 0.34096 0.82936 0.72658 0.0
N939 N 0.34795 0.82128 0.80531 0.0
N940 N 0.34445 0.80752 0.67648 0.0
C941 C 0.35169 0.79232 0.72326 0.0
C942 C 0.35358 0.79986 0.79323 0.0
C943 C 1.0112 0.61739 0.57753 0.0
C944 C 0.98983 0.6103 0.59644 0.0
C945 C 0.01862 0.61598 0.50877 0.0
C946 C 1.005 0.60731 0.45609 0.0
H947 H 0.02231 0.6242 0.61615 0.0
H948 H 0.03517 0.6218 0.49697 0.0
S949 S 0.94801 0.58498 0.48008 0.0
N950 N 0.95543 0.59348 0.55798 0.0
N951 N 0.96922 0.59055 0.42903 0.0
C952 C 0.98361 0.59988 0.47477 0.0
C953 C 0.97607 0.60145 0.54478 0.0
C954 C 0.17138 0.23698 0.22756 0.0
C955 C 0.16778 0.25946 0.21113 0.0
C956 C 0.16948 0.22915 0.29557 0.0
C957 C 0.16396 0.24344 0.35013 0.0
H958 H 0.17593 0.22521 0.18773 0.0
H959 H 0.17267 0.21179 0.30545 0.0
S960 S 0.15183 0.30355 0.33559 0.0
N961 N 0.15772 0.29578 0.25568 0.0
N962 N 0.15412 0.28103 0.38347 0.0
C963 C 0.15999 0.26589 0.33472 0.0
C964 C 0.16191 0.2739 0.26532 0.0
C965 C 0.51348 0.41535 0.0782 0.0
C966 C 0.53626 0.41454 0.09386 0.0
C967 C 0.50595 0.41664 0.00955 0.0
C968 C 0.52086 0.41715 0.95353 0.0
H969 H 0.50128 0.41521 0.11932 0.0
H970 H 0.48826 0.41758 0.00062 0.0
S971 S 0.58228 0.41387 0.9666 0.0
N972 N 0.57366 0.41334 0.04775 0.0
N973 N 0.55968 0.4156 0.91879 0.0
C974 C 0.54374 0.41585 0.96854 0.0
C975 C 0.55137 0.41459 0.03857 0.0
C976 C 0.1057 0.34164 0.10428 0.0
C977 C 0.12817 0.34733 0.09639 0.0
C978 C 0.08983 0.35744 0.12325 0.0
C979 C 0.09563 0.37974 0.13411 0.0
H980 H 0.10028 0.32475 0.09619 0.0
H981 H 0.07281 0.3521 0.12923 0.0
S982 S 0.15219 0.40343 0.11951 0.0
N983 N 0.15543 0.37695 0.10092 0.0
N984 N 0.12554 0.40672 0.13554 0.0
C985 C 0.11801 0.38575 0.12586 0.0
C986 C 0.13428 0.36955 0.10743 0.0
C987 C 0.89446 0.865 0.37941 0.0
C988 C 0.90035 0.84262 0.38838 0.0
C989 C 0.91032 0.88103 0.36064 0.0
C990 C 0.93262 0.87525 0.34919 0.0
H991 H 0.87754 0.87026 0.38796 0.0
H992 H 0.90499 0.89801 0.3543 0.0
S993 S 0.95655 0.81886 0.36496 0.0
N994 N 0.9301 0.81558 0.38386 0.0
N995 N 0.95967 0.84545 0.34828 0.0
C996 C 0.93865 0.8529 0.35759 0.0
C997 C 0.9226 0.83668 0.37722 0.0
C998 C 0.39353 0.65998 0.61392 0.0
C999 C 0.39962 0.68213 0.60123 0.0
C1000 C 0.40938 0.64402 0.63303 0.0
C1001 C 0.43186 0.64967 0.64126 0.0
H1002 H 0.37645 0.65483 0.60814 0.0
H1003 H 0.4039 0.62721 0.64237 0.0
S1004 S 0.4564 0.70541 0.6146 0.0
N1005 N 0.42979 0.7088 0.59831 0.0
N1006 N 0.45935 0.67904 0.63478 0.0
C1007 C 0.43811 0.67178 0.62898 0.0
C1008 C 0.42207 0.68793 0.60886 0.0
C1009 C 0.63148 0.15981 0.87709 0.0
C1010 C 0.62566 0.18212 0.88795 0.0
C1011 C 0.6155 0.14394 0.85808 0.0
C1012 C 0.59315 0.14982 0.84816 0.0
H1013 H 0.64844 0.15449 0.88424 0.0
H1014 H 0.62078 0.127 0.85017 0.0
S1015 S 0.56936 0.20607 0.86935 0.0
N1016 N 0.59591 0.2092 0.88709 0.0
N1017 N 0.56611 0.1796 0.85086 0.0
C1018 C 0.58719 0.17209 0.85852 0.0
C1019 C 0.60336 0.18815 0.87851 0.0
C1020 C 0.11496 0.64566 0.36427 0.0
C1021 C 0.09276 0.65162 0.35197 0.0
C1022 C 0.13087 0.66155 0.38374 0.0
C1023 C 0.12512 0.68395 0.3927 0.0
H1024 H 0.12019 0.62864 0.35797 0.0
H1025 H 0.14772 0.65615 0.39291 0.0
S1026 S 0.06922 0.70817 0.36716 0.0
N1027 N 0.06594 0.68161 0.35009 0.0
N1028 N 0.09561 0.71123 0.38724 0.0
C1029 C 0.10297 0.69008 0.38074 0.0
C1030 C 0.08687 0.674 0.36026 0.0
C1031 C 0.63229 0.86579 0.61188 0.0
C1032 C 0.62647 0.84344 0.60196 0.0
C1033 C 0.61635 0.88167 0.63084 0.0
C1034 C 0.59406 0.87572 0.64171 0.0
H1035 H 0.64922 0.87116 0.60396 0.0
H1036 H 0.62161 0.89866 0.63793 0.0
S1037 S 0.57029 0.81932 0.62322 0.0
N1038 N 0.59678 0.81623 0.60473 0.0
N1039 N 0.56706 0.84583 0.64092 0.0
C1040 C 0.58809 0.8534 0.63234 0.0
C1041 C 0.60422 0.83733 0.61236 0.0
C1042 C 0.41078 0.38095 0.8603 0.0
C1043 C 0.43292 0.37492 0.84704 0.0
C1044 C 0.3948 0.36504 0.87903 0.0
C1045 C 0.4004 0.34253 0.88622 0.0
H1046 H 0.40568 0.39805 0.85543 0.0
H1047 H 0.37802 0.37049 0.8891 0.0
S1048 S 0.45602 0.31806 0.8572 0.0
N1049 N 0.45947 0.34472 0.84211 0.0
N1050 N 0.42966 0.31507 0.87778 0.0
C1051 C 0.42246 0.33632 0.87312 0.0
C1052 C 0.43864 0.35243 0.85345 0.0
C1053 C 0.89432 0.15932 0.10918 0.0
C1054 C 0.90038 0.18144 0.09584 0.0
C1055 C 0.91014 0.14349 0.12957 0.0
C1056 C 0.93257 0.14926 0.13846 0.0
H1057 H 0.87726 0.15411 0.10316 0.0
H1058 H 0.90468 0.12671 0.13953 0.0
S1059 S 0.95713 0.20485 0.10963 0.0
N1060 N 0.93057 0.20813 0.09248 0.0
N1061 N 0.96004 0.1786 0.13126 0.0
C1062 C 0.93882 0.1713 0.12528 0.0
C1063 C 0.92281 0.18731 0.1039 0.0
C1064 C 0.92169 0.68552 0.88371 0.0
C1065 C 0.89932 0.67971 0.89318 0.0
C1066 C 0.9375 0.66981 0.86346 0.0
C1067 C 0.93173 0.64749 0.85298 0.0
H1068 H 0.92708 0.70244 0.89151 0.0
H1069 H 0.95445 0.67524 0.85627 0.0
S1070 S 0.87542 0.6235 0.87165 0.0
N1071 N 0.87218 0.64995 0.89052 0.0
N1072 N 0.90197 0.62034 0.85365 0.0
C1073 C 0.90945 0.64135 0.86283 0.0
C1074 C 0.89324 0.65747 0.88245 0.0
C1075 C 0.13165 0.16035 0.60786 0.0
C1076 C 0.12593 0.18282 0.60046 0.0
C1077 C 0.11572 0.14436 0.62652 0.0
C1078 C 0.09354 0.15028 0.6394 0.0
H1079 H 0.14847 0.15499 0.59817 0.0
H1080 H 0.12093 0.1273 0.63166 0.0
S1081 S 0.07014 0.20702 0.62857 0.0
N1082 N 0.09651 0.21013 0.60836 0.0
N1083 N 0.06681 0.18035 0.64368 0.0
C1084 C 0.08769 0.17273 0.63264 0.0
C1085 C 0.10381 0.18892 0.61316 0.0
C1086 C 0.5892 0.35476 0.35797 0.0
C1087 C 0.59491 0.37715 0.34845 0.0
C1088 C 0.60505 0.33901 0.37777 0.0
C1089 C 0.62741 0.34485 0.3877 0.0
H1090 H 0.57228 0.34932 0.35043 0.0
H1091 H 0.59971 0.32204 0.38492 0.0
S1092 S 0.65114 0.40122 0.36864 0.0
N1093 N 0.6246 0.40437 0.35049 0.0
N1094 N 0.65444 0.3747 0.38649 0.0
C1095 C 0.63342 0.36715 0.37789 0.0
C1096 C 0.61717 0.3833 0.35873 0.0
C1097 C 0.39461 0.8642 0.11179 0.0
C1098 C 0.40068 0.84197 0.10084 0.0
C1099 C 0.41046 0.88033 0.1297 0.0
C1100 C 0.43295 0.87481 0.13835 0.0
H1101 H 0.37753 0.86927 0.10549 0.0
H1102 H 0.40497 0.89719 0.13776 0.0
S1103 S 0.45745 0.8189 0.1164 0.0
N1104 N 0.43085 0.81534 0.10024 0.0
N1105 N 0.46041 0.84542 0.13441 0.0
C1106 C 0.43919 0.85261 0.12789 0.0
C1107 C 0.42313 0.83628 0.10904 0.0
C1108 C 0.9103 0.38208 0.62473 0.0
C1109 C 0.93257 0.37615 0.63595 0.0
C1110 C 0.89437 0.36622 0.60516 0.0
C1111 C 0.90017 0.34387 0.59501 0.0
H1112 H 0.90504 0.39905 0.63206 0.0
H1113 H 0.87745 0.37157 0.59707 0.0
S1114 S 0.95634 0.31982 0.61675 0.0
N1115 N 0.95955 0.34631 0.63497 0.0
N1116 N 0.92987 0.31673 0.59782 0.0
C1117 C 0.92242 0.3378 0.60569 0.0
C1118 C 0.93853 0.35385 0.62621 0.0
C1119 C 0.39359 0.1596 0.37851 0.0
C1120 C 0.39963 0.18178 0.3907 0.0
C1121 C 0.4094 0.14372 0.35855 0.0
C1122 C 0.43179 0.1495 0.3489 0.0
H1123 H 0.37656 0.15436 0.38528 0.0
H1124 H 0.40396 0.12688 0.34963 0.0
S1125 S 0.45618 0.20539 0.37356 0.0
N1126 N 0.42966 0.20862 0.39151 0.0
N1127 N 0.45915 0.17902 0.35343 0.0
C1128 C 0.438 0.17164 0.36064 0.0
C1129 C 0.422 0.1877 0.38165 0.0
C1130 C 0.63285 0.6598 0.11421 0.0
C1131 C 0.62688 0.68202 0.10233 0.0
C1132 C 0.61693 0.64384 0.1332 0.0
C1133 C 0.59449 0.64957 0.14202 0.0
H1134 H 0.64989 0.6546 0.10796 0.0
H1135 H 0.62231 0.62698 0.14197 0.0
S1136 S 0.57025 0.70548 0.11736 0.0
N1137 N 0.59684 0.7088 0.10077 0.0
N1138 N 0.56719 0.67906 0.13679 0.0
C1139 C 0.58837 0.67173 0.13046 0.0
C1140 C 0.60447 0.68787 0.11057 0.0
C1141 C 0.11717 0.88158 0.86117 0.0
C1142 C 0.09465 0.87605 0.85313 0.0
C1143 C 0.13286 0.86564 0.88157 0.0
C1144 C 0.12658 0.84364 0.89581 0.0
H1145 H 0.12279 0.89828 0.85063 0.0
H1146 H 0.14999 0.87067 0.88704 0.0
S1147 S 0.06958 0.82077 0.88385 0.0
N1148 N 0.06689 0.847 0.86167 0.0
N1149 N 0.09615 0.81728 0.90054 0.0
C1150 C 0.10407 0.83799 0.88847 0.0
C1151 C 0.08819 0.85411 0.86703 0.0
loop_
_geom_bond_atom_site_label_1
_geom_bond_atom_site_label_2
_geom_bond_distance
_geom_bond_site_symmetry_2
_ccdc_geom_bond_type
Co0 O1 2.216 . S
Co0 O2 2.091 . S
Co0 O4 2.004 . S
Co0 O10 2.021 . S
Co0 O12 2.137 1_554 S
Co0 O13 2.244 1_554 S
O1 Co0 2.216 . S
O1 C8 1.247 . S
O2 Co0 2.091 . S
O2 C8 1.261 . S
C3 O12 1.247 . S
C3 O13 1.272 . S
O4 Co0 2.004 . S
O4 C9 1.259 . S
Co5 O6 2.061 . S
Co5 O11 2.052 . S
Co5 O13 2.135 1_554 S
O6 Co5 2.061 . S
O6 C9 1.235 . S
C7 O10 1.238 . S
C7 O11 1.241 . S
C8 O1 1.247 . S
C8 O2 1.261 . S
C9 O4 1.259 . S
C9 O6 1.235 . S
O10 Co0 2.021 . S
O10 C7 1.238 . S
O11 Co5 2.052 . S
O11 C7 1.241 . S
O12 Co0 2.137 1_556 S
O12 C3 1.247 . S
O13 Co0 2.244 1_556 S
O13 C3 1.272 . S
O13 Co5 2.135 1_556 S
Co14 O15 2.216 . S
Co14 O16 2.091 . S
Co14 O18 2.004 . S
Co14 O24 2.021 . S
Co14 O26 2.137 . S
Co14 O27 2.244 . S
O15 Co14 2.216 . S
O15 C22 1.247 . S
O16 Co14 2.091 . S
O16 C22 1.261 . S
C17 O26 1.247 . S
C17 O27 1.272 . S
O18 Co14 2.004 . S
O18 C23 1.259 . S
Co19 O20 2.061 1_455 S
Co19 O25 2.052 . S
Co19 O27 2.135 1_455 S
O20 Co19 2.061 1_655 S
O20 C23 1.235 . S
C21 O24 1.238 . S
C21 O25 1.241 1_655 S
C22 O15 1.247 . S
C22 O16 1.261 . S
C23 O18 1.259 . S
C23 O20 1.235 . S
O24 Co14 2.021 . S
O24 C21 1.238 . S
O25 Co19 2.052 . S
O25 C21 1.241 1_455 S
O26 Co14 2.137 . S
O26 C17 1.247 . S
O27 Co14 2.244 . S
O27 C17 1.272 . S
O27 Co19 2.135 1_655 S
Co28 O29 2.216 . S
Co28 O30 2.091 . S
Co28 O32 2.004 . S
Co28 O38 2.021 . S
Co28 O40 2.137 . S
Co28 O41 2.244 . S
O29 Co28 2.216 . S
O29 C36 1.247 . S
O30 Co28 2.091 . S
O30 C36 1.261 . S
C31 O40 1.247 . S
C31 O41 1.272 . S
O32 Co28 2.004 . S
O32 C37 1.259 . S
Co33 O34 2.061 . S
Co33 O39 2.052 . S
Co33 O41 2.135 . S
O34 Co33 2.061 . S
O34 C37 1.235 . S
C35 O38 1.238 . S
C35 O39 1.241 . S
C36 O29 1.247 . S
C36 O30 1.261 . S
C37 O32 1.259 . S
C37 O34 1.235 . S
O38 Co28 2.021 . S
O38 C35 1.238 . S
O39 Co33 2.052 . S
O39 C35 1.241 . S
O40 Co28 2.137 . S
O40 C31 1.247 . S
O41 Co28 2.244 . S
O41 C31 1.272 . S
O41 Co33 2.135 . S
Co42 O43 2.216 . S
Co42 O44 2.091 . S
Co42 O46 2.004 . S
Co42 O52 2.021 . S
Co42 O54 2.137 . S
Co42 O55 2.244 . S
O43 Co42 2.216 . S
O43 C50 1.247 . S
O44 Co42 2.091 . S
O44 C50 1.261 . S
C45 O54 1.247 . S
C45 O55 1.272 . S
O46 Co42 2.004 . S
O46 C51 1.259 . S
Co47 O48 2.061 . S
Co47 O53 2.052 . S
Co47 O55 2.135 . S
O48 Co47 2.061 . S
O48 C51 1.235 . S
C49 O52 1.238 . S
C49 O53 1.241 . S
C50 O43 1.247 . S
C50 O44 1.261 . S
C51 O46 1.259 . S
C51 O48 1.235 . S
O52 Co42 2.021 . S
O52 C49 1.238 . S
O53 Co47 2.052 . S
O53 C49 1.241 . S
O54 Co42 2.137 . S
O54 C45 1.247 . S
O55 Co42 2.244 . S
O55 C45 1.272 . S
O55 Co47 2.135 . S
Co56 O57 2.216 . S
Co56 O58 2.091 . S
Co56 O60 2.004 . S
Co56 O66 2.021 . S
Co56 O68 2.137 . S
Co56 O69 2.244 . S
O57 Co56 2.216 . S
O57 C64 1.247 . S
O58 Co56 2.091 . S
O58 C64 1.261 . S
C59 O68 1.247 . S
C59 O69 1.272 . S
O60 Co56 2.004 . S
O60 C65 1.259 . S
Co61 O62 2.061 . S
Co61 O67 2.052 . S
Co61 O69 2.135 . S
O62 Co61 2.061 . S
O62 C65 1.235 . S
C63 O66 1.238 . S
C63 O67 1.241 . S
C64 O57 1.247 . S
C64 O58 1.261 . S
C65 O60 1.259 . S
C65 O62 1.235 . S
O66 Co56 2.021 . S
O66 C63 1.238 . S
O67 Co61 2.052 . S
O67 C63 1.241 . S
O68 Co56 2.137 . S
O68 C59 1.247 . S
O69 Co56 2.244 . S
O69 C59 1.272 . S
O69 Co61 2.135 . S
Co70 O71 2.216 . S
Co70 O72 2.091 . S
Co70 O74 2.004 . S
Co70 O80 2.021 . S
Co70 O82 2.137 . S
Co70 O83 2.244 . S
O71 Co70 2.216 . S
O71 C78 1.247 . S
O72 Co70 2.091 . S
O72 C78 1.261 . S
C73 O82 1.247 . S
C73 O83 1.272 . S
O74 Co70 2.004 . S
O74 C79 1.259 . S
Co75 O76 2.061 . S
Co75 O81 2.052 . S
Co75 O83 2.135 . S
O76 Co75 2.061 . S
O76 C79 1.235 . S
C77 O80 1.238 . S
C77 O81 1.241 . S
C78 O71 1.247 . S
C78 O72 1.261 . S
C79 O74 1.259 . S
C79 O76 1.235 . S
O80 Co70 2.021 . S
O80 C77 1.238 . S
O81 Co75 2.052 . S
O81 C77 1.241 . S
O82 Co70 2.137 . S
O82 C73 1.247 . S
O83 Co70 2.244 . S
O83 C73 1.272 . S
O83 Co75 2.135 . S
Co84 O85 2.216 . S
Co84 O86 2.091 . S
Co84 O88 2.004 . S
Co84 O94 2.021 . S
Co84 O96 2.137 1_556 S
Co84 O97 2.244 1_556 S
O85 Co84 2.216 . S
O85 C92 1.247 . S
O86 Co84 2.091 . S
O86 C92 1.261 . S
C87 O96 1.247 . S
C87 O97 1.272 . S
O88 Co84 2.004 . S
O88 C93 1.259 . S
Co89 O90 2.061 . S
Co89 O95 2.052 . S
Co89 O97 2.135 1_556 S
O90 Co89 2.061 . S
O90 C93 1.235 . S
C91 O94 1.238 . S
C91 O95 1.241 . S
C92 O85 1.247 . S
C92 O86 1.261 . S
C93 O88 1.259 . S
C93 O90 1.235 . S
O94 Co84 2.021 . S
O94 C91 1.238 . S
O95 Co89 2.052 . S
O95 C91 1.241 . S
O96 Co84 2.137 1_554 S
O96 C87 1.247 . S
O97 Co84 2.244 1_554 S
O97 C87 1.272 . S
O97 Co89 2.135 1_554 S
Co98 O99 2.216 . S
Co98 O100 2.091 . S
Co98 O102 2.004 . S
Co98 O108 2.021 . S
Co98 O110 2.137 . S
Co98 O111 2.244 . S
O99 Co98 2.216 . S
O99 C106 1.247 . S
O100 Co98 2.091 . S
O100 C106 1.261 . S
C101 O110 1.247 . S
C101 O111 1.272 . S
O102 Co98 2.004 . S
O102 C107 1.259 . S
Co103 O104 2.061 1_455 S
Co103 O109 2.052 . S
Co103 O111 2.135 1_455 S
O104 Co103 2.061 1_655 S
O104 C107 1.235 . S
C105 O108 1.238 . S
C105 O109 1.241 1_655 S
C106 O99 1.247 . S
C106 O100 1.261 . S
C107 O102 1.259 . S
C107 O104 1.235 . S
O108 Co98 2.021 . S
O108 C105 1.238 . S
O109 Co103 2.052 . S
O109 C105 1.241 1_455 S
O110 Co98 2.137 . S
O110 C101 1.247 . S
O111 Co98 2.244 . S
O111 C101 1.272 . S
O111 Co103 2.135 1_655 S
Co112 O113 2.216 . S
Co112 O114 2.091 . S
Co112 O116 2.004 . S
Co112 O122 2.021 . S
Co112 O124 2.137 1_556 S
Co112 O125 2.244 1_556 S
O113 Co112 2.216 . S
O113 C120 1.247 . S
O114 Co112 2.091 . S
O114 C120 1.261 . S
C115 O124 1.247 . S
C115 O125 1.272 . S
O116 Co112 2.004 . S
O116 C121 1.259 . S
Co117 O118 2.061 . S
Co117 O123 2.052 . S
Co117 O125 2.135 1_556 S
O118 Co117 2.061 . S
O118 C121 1.235 . S
C119 O122 1.238 . S
C119 O123 1.241 . S
C120 O113 1.247 . S
C120 O114 1.261 . S
C121 O116 1.259 . S
C121 O118 1.235 . S
O122 Co112 2.021 . S
O122 C119 1.238 . S
O123 Co117 2.052 . S
O123 C119 1.241 . S
O124 Co112 2.137 1_554 S
O124 C115 1.247 . S
O125 Co112 2.244 1_554 S
O125 C115 1.272 . S
O125 Co117 2.135 1_554 S
Co126 O127 2.216 . S
Co126 O128 2.091 . S
Co126 O130 2.004 . S
Co126 O136 2.021 . S
Co126 O138 2.137 . S
Co126 O139 2.244 . S
O127 Co126 2.216 . S
O127 C134 1.247 . S
O128 Co126 2.091 . S
O128 C134 1.261 . S
C129 O138 1.247 . S
C129 O139 1.272 . S
O130 Co126 2.004 . S
O130 C135 1.259 . S
Co131 O132 2.061 1_655 S
Co131 O137 2.052 . S
Co131 O139 2.135 1_655 S
O132 Co131 2.061 1_455 S
O132 C135 1.235 . S
C133 O136 1.238 . S
C133 O137 1.241 1_455 S
C134 O127 1.247 . S
C134 O128 1.261 . S
C135 O130 1.259 . S
C135 O132 1.235 . S
O136 Co126 2.021 . S
O136 C133 1.238 . S
O137 Co131 2.052 . S
O137 C133 1.241 1_655 S
O138 Co126 2.137 . S
O138 C129 1.247 . S
O139 Co126 2.244 . S
O139 C129 1.272 . S
O139 Co131 2.135 1_455 S
Co140 O141 2.216 . S
Co140 O142 2.091 . S
Co140 O144 2.004 . S
Co140 O150 2.021 . S
Co140 O152 2.137 . S
Co140 O153 2.244 . S
O141 Co140 2.216 . S
O141 C148 1.247 . S
O142 Co140 2.091 . S
O142 C148 1.261 . S
C143 O152 1.247 . S
C143 O153 1.272 . S
O144 Co140 2.004 . S
O144 C149 1.259 . S
Co145 O146 2.061 . S
Co145 O151 2.052 . S
Co145 O153 2.135 . S
O146 Co145 2.061 . S
O146 C149 1.235 . S
C147 O150 1.238 . S
C147 O151 1.241 . S
C148 O141 1.247 . S
C148 O142 1.261 . S
C149 O144 1.259 . S
C149 O146 1.235 . S
O150 Co140 2.021 . S
O150 C147 1.238 . S
O151 Co145 2.052 . S
O151 C147 1.241 . S
O152 Co140 2.137 . S
O152 C143 1.247 . S
O153 Co140 2.244 . S
O153 C143 1.272 . S
O153 Co145 2.135 . S
Co154 O155 2.216 . S
Co154 O156 2.091 . S
Co154 O158 2.004 . S
Co154 O164 2.021 . S
Co154 O166 2.137 . S
Co154 O167 2.244 . S
O155 Co154 2.216 . S
O155 C162 1.247 . S
O156 Co154 2.091 . S
O156 C162 1.261 . S
C157 O166 1.247 . S
C157 O167 1.272 . S
O158 Co154 2.004 . S
O158 C163 1.259 . S
Co159 O160 2.061 . S
Co159 O165 2.052 . S
Co159 O167 2.135 . S
O160 Co159 2.061 . S
O160 C163 1.235 . S
C161 O164 1.238 . S
C161 O165 1.241 . S
C162 O155 1.247 . S
C162 O156 1.261 . S
C163 O158 1.259 . S
C163 O160 1.235 . S
O164 Co154 2.021 . S
O164 C161 1.238 . S
O165 Co159 2.052 . S
O165 C161 1.241 . S
O166 Co154 2.137 . S
O166 C157 1.247 . S
O167 Co154 2.244 . S
O167 C157 1.272 . S
O167 Co159 2.135 . S
Co168 O169 2.216 . S
Co168 O170 2.091 . S
Co168 O172 2.004 . S
Co168 O178 2.021 . S
Co168 O180 2.137 . S
Co168 O181 2.244 . S
O169 Co168 2.216 . S
O169 C176 1.247 . S
O170 Co168 2.091 . S
O170 C176 1.261 . S
C171 O180 1.247 . S
C171 O181 1.272 . S
O172 Co168 2.004 . S
O172 C177 1.259 . S
Co173 O174 2.061 . S
Co173 O179 2.052 . S
Co173 O181 2.135 . S
O174 Co173 2.061 . S
O174 C177 1.235 . S
C175 O178 1.238 . S
C175 O179 1.241 . S
C176 O169 1.247 . S
C176 O170 1.261 . S
C177 O172 1.259 . S
C177 O174 1.235 . S
O178 Co168 2.021 . S
O178 C175 1.238 . S
O179 Co173 2.052 . S
O179 C175 1.241 . S
O180 Co168 2.137 . S
O180 C171 1.247 . S
O181 Co168 2.244 . S
O181 C171 1.272 . S
O181 Co173 2.135 . S
Co182 O183 2.216 . S
Co182 O184 2.091 . S
Co182 O186 2.004 . S
Co182 O192 2.021 . S
Co182 O194 2.137 . S
Co182 O195 2.244 . S
O183 Co182 2.216 . S
O183 C190 1.247 . S
O184 Co182 2.091 . S
O184 C190 1.261 . S
C185 O194 1.247 . S
C185 O195 1.272 . S
O186 Co182 2.004 . S
O186 C191 1.259 . S
Co187 O188 2.061 . S
Co187 O193 2.052 . S
Co187 O195 2.135 . S
O188 Co187 2.061 . S
O188 C191 1.235 . S
C189 O192 1.238 . S
C189 O193 1.241 . S
C190 O183 1.247 . S
C190 O184 1.261 . S
C191 O186 1.259 . S
C191 O188 1.235 . S
O192 Co182 2.021 . S
O192 C189 1.238 . S
O193 Co187 2.052 . S
O193 C189 1.241 . S
O194 Co182 2.137 . S
O194 C185 1.247 . S
O195 Co182 2.244 . S
O195 C185 1.272 . S
O195 Co187 2.135 . S
Co196 O197 2.216 . S
Co196 O198 2.091 . S
Co196 O200 2.004 . S
Co196 O206 2.021 . S
Co196 O208 2.137 1_554 S
Co196 O209 2.244 1_554 S
O197 Co196 2.216 . S
O197 C204 1.247 . S
O198 Co196 2.091 . S
O198 C204 1.261 . S
C199 O208 1.247 . S
C199 O209 1.272 . S
O200 Co196 2.004 . S
O200 C205 1.259 . S
Co201 O202 2.061 . S
Co201 O207 2.052 . S
Co201 O209 2.135 1_554 S
O202 Co201 2.061 . S
O202 C205 1.235 . S
C203 O206 1.238 . S
C203 O207 1.241 . S
C204 O197 1.247 . S
C204 O198 1.261 . S
C205 O200 1.259 . S
C205 O202 1.235 . S
O206 Co196 2.021 . S
O206 C203 1.238 . S
O207 Co201 2.052 . S
O207 C203 1.241 . S
O208 Co196 2.137 1_556 S
O208 C199 1.247 . S
O209 Co196 2.244 1_556 S
O209 C199 1.272 . S
O209 Co201 2.135 1_556 S
Co210 O211 2.216 . S
Co210 O212 2.091 . S
Co210 O214 2.004 . S
Co210 O220 2.021 . S
Co210 O222 2.137 . S
Co210 O223 2.244 . S
O211 Co210 2.216 . S
O211 C218 1.247 . S
O212 Co210 2.091 . S
O212 C218 1.261 . S
C213 O222 1.247 . S
C213 O223 1.272 . S
O214 Co210 2.004 . S
O214 C219 1.259 . S
Co215 O216 2.061 1_655 S
Co215 O221 2.052 . S
Co215 O223 2.135 1_655 S
O216 Co215 2.061 1_455 S
O216 C219 1.235 . S
C217 O220 1.238 . S
C217 O221 1.241 1_455 S
C218 O211 1.247 . S
C218 O212 1.261 . S
C219 O214 1.259 . S
C219 O216 1.235 . S
O220 Co210 2.021 . S
O220 C217 1.238 . S
O221 Co215 2.052 . S
O221 C217 1.241 1_655 S
O222 Co210 2.137 . S
O222 C213 1.247 . S
O223 Co210 2.244 . S
O223 C213 1.272 . S
O223 Co215 2.135 1_455 S
Co224 O225 2.216 . S
Co224 O226 2.091 . S
Co224 O228 2.004 . S
Co224 O234 2.021 . S
Co224 O236 2.137 . S
Co224 O237 2.244 . S
O225 Co224 2.216 . S
O225 C232 1.247 . S
O226 Co224 2.091 . S
O226 C232 1.261 . S
C227 O236 1.247 . S
C227 O237 1.272 . S
O228 Co224 2.004 . S
O228 C233 1.259 . S
Co229 O230 2.061 . S
Co229 O235 2.052 . S
Co229 O237 2.135 . S
O230 Co229 2.061 . S
O230 C233 1.235 . S
C231 O234 1.238 . S
C231 O235 1.241 . S
C232 O225 1.247 . S
C232 O226 1.261 . S
C233 O228 1.259 . S
C233 O230 1.235 . S
O234 Co224 2.021 . S
O234 C231 1.238 . S
O235 Co229 2.052 . S
O235 C231 1.241 . S
O236 Co224 2.137 . S
O236 C227 1.247 . S
O237 Co224 2.244 . S
O237 C227 1.272 . S
O237 Co229 2.135 . S
Co238 O239 2.216 . S
Co238 O240 2.091 . S
Co238 O242 2.004 . S
Co238 O248 2.021 . S
Co238 O250 2.137 . S
Co238 O251 2.244 . S
O239 Co238 2.216 . S
O239 C246 1.247 . S
O240 Co238 2.091 . S
O240 C246 1.261 . S
C241 O250 1.247 . S
C241 O251 1.272 . S
O242 Co238 2.004 . S
O242 C247 1.259 . S
Co243 O244 2.061 . S
Co243 O249 2.052 . S
Co243 O251 2.135 . S
O244 Co243 2.061 . S
O244 C247 1.235 . S
C245 O248 1.238 . S
C245 O249 1.241 . S
C246 O239 1.247 . S
C246 O240 1.261 . S
C247 O242 1.259 . S
C247 O244 1.235 . S
O248 Co238 2.021 . S
O248 C245 1.238 . S
O249 Co243 2.052 . S
O249 C245 1.241 . S
O250 Co238 2.137 . S
O250 C241 1.247 . S
O251 Co238 2.244 . S
O251 C241 1.272 . S
O251 Co243 2.135 . S
Co252 O253 2.216 . S
Co252 O254 2.091 . S
Co252 O256 2.004 . S
Co252 O262 2.021 . S
Co252 O264 2.137 1_554 S
Co252 O265 2.244 1_554 S
O253 Co252 2.216 . S
O253 C260 1.247 . S
O254 Co252 2.091 . S
O254 C260 1.261 . S
C255 O264 1.247 . S
C255 O265 1.272 . S
O256 Co252 2.004 . S
O256 C261 1.259 . S
Co257 O258 2.061 . S
Co257 O263 2.052 . S
Co257 O265 2.135 1_554 S
O258 Co257 2.061 . S
O258 C261 1.235 . S
C259 O262 1.238 . S
C259 O263 1.241 . S
C260 O253 1.247 . S
C260 O254 1.261 . S
C261 O256 1.259 . S
C261 O258 1.235 . S
O262 Co252 2.021 . S
O262 C259 1.238 . S
O263 Co257 2.052 . S
O263 C259 1.241 . S
O264 Co252 2.137 1_556 S
O264 C255 1.247 . S
O265 Co252 2.244 1_556 S
O265 C255 1.272 . S
O265 Co257 2.135 1_556 S
Co266 O267 2.216 . S
Co266 O268 2.091 . S
Co266 O270 2.004 . S
Co266 O276 2.021 . S
Co266 O278 2.137 . S
Co266 O279 2.244 . S
O267 Co266 2.216 . S
O267 C274 1.247 . S
O268 Co266 2.091 . S
O268 C274 1.261 . S
C269 O278 1.247 . S
C269 O279 1.272 . S
O270 Co266 2.004 . S
O270 C275 1.259 . S
Co271 O272 2.061 1_655 S
Co271 O277 2.052 . S
Co271 O279 2.135 1_655 S
O272 Co271 2.061 1_455 S
O272 C275 1.235 . S
C273 O276 1.238 . S
C273 O277 1.241 1_455 S
C274 O267 1.247 . S
C274 O268 1.261 . S
C275 O270 1.259 . S
C275 O272 1.235 . S
O276 Co266 2.021 . S
O276 C273 1.238 . S
O277 Co271 2.052 . S
O277 C273 1.241 1_655 S
O278 Co266 2.137 . S
O278 C269 1.247 . S
O279 Co266 2.244 . S
O279 C269 1.272 . S
O279 Co271 2.135 1_455 S
Co280 O281 2.216 . S
Co280 O282 2.091 . S
Co280 O284 2.004 . S
Co280 O290 2.021 . S
Co280 O292 2.137 1_556 S
Co280 O293 2.244 1_556 S
O281 Co280 2.216 . S
O281 C288 1.247 . S
O282 Co280 2.091 . S
O282 C288 1.261 . S
C283 O292 1.247 . S
C283 O293 1.272 . S
O284 Co280 2.004 . S
O284 C289 1.259 . S
Co285 O286 2.061 . S
Co285 O291 2.052 . S
Co285 O293 2.135 1_556 S
O286 Co285 2.061 . S
O286 C289 1.235 . S
C287 O290 1.238 . S
C287 O291 1.241 . S
C288 O281 1.247 . S
C288 O282 1.261 . S
C289 O284 1.259 . S
C289 O286 1.235 . S
O290 Co280 2.021 . S
O290 C287 1.238 . S
O291 Co285 2.052 . S
O291 C287 1.241 . S
O292 Co280 2.137 1_554 S
O292 C283 1.247 . S
O293 Co280 2.244 1_554 S
O293 C283 1.272 . S
O293 Co285 2.135 1_554 S
Co294 O295 2.216 . S
Co294 O296 2.091 . S
Co294 O298 2.004 . S
Co294 O304 2.021 . S
Co294 O306 2.137 . S
Co294 O307 2.244 . S
O295 Co294 2.216 . S
O295 C302 1.247 . S
O296 Co294 2.091 . S
O296 C302 1.261 . S
C297 O306 1.247 . S
C297 O307 1.272 . S
O298 Co294 2.004 . S
O298 C303 1.259 . S
Co299 O300 2.061 1_655 S
Co299 O305 2.052 . S
Co299 O307 2.135 1_655 S
O300 Co299 2.061 1_455 S
O300 C303 1.235 . S
C301 O304 1.238 . S
C301 O305 1.241 1_455 S
C302 O295 1.247 . S
C302 O296 1.261 . S
C303 O298 1.259 . S
C303 O300 1.235 . S
O304 Co294 2.021 . S
O304 C301 1.238 . S
O305 Co299 2.052 . S
O305 C301 1.241 1_655 S
O306 Co294 2.137 . S
O306 C297 1.247 . S
O307 Co294 2.244 . S
O307 C297 1.272 . S
O307 Co299 2.135 1_455 S
Co308 O309 2.216 . S
Co308 O310 2.091 . S
Co308 O312 2.004 . S
Co308 O318 2.021 . S
Co308 O320 2.137 . S
Co308 O321 2.244 . S
O309 Co308 2.216 . S
O309 C316 1.247 . S
O310 Co308 2.091 . S
O310 C316 1.261 . S
C311 O320 1.247 . S
C311 O321 1.272 . S
O312 Co308 2.004 . S
O312 C317 1.259 . S
Co313 O314 2.061 . S
Co313 O319 2.052 . S
Co313 O321 2.135 . S
O314 Co313 2.061 . S
O314 C317 1.235 . S
C315 O318 1.238 . S
C315 O319 1.241 . S
C316 O309 1.247 . S
C316 O310 1.261 . S
C317 O312 1.259 . S
C317 O314 1.235 . S
O318 Co308 2.021 . S
O318 C315 1.238 . S
O319 Co313 2.052 . S
O319 C315 1.241 . S
O320 Co308 2.137 . S
O320 C311 1.247 . S
O321 Co308 2.244 . S
O321 C311 1.272 . S
O321 Co313 2.135 . S
Co322 O323 2.216 . S
Co322 O324 2.091 . S
Co322 O326 2.004 . S
Co322 O332 2.021 . S
Co322 O334 2.137 . S
Co322 O335 2.244 . S
O323 Co322 2.216 . S
O323 C330 1.247 . S
O324 Co322 2.091 . S
O324 C330 1.261 . S
C325 O334 1.247 . S
C325 O335 1.272 . S
O326 Co322 2.004 . S
O326 C331 1.259 . S
Co327 O328 2.061 . S
Co327 O333 2.052 . S
Co327 O335 2.135 . S
O328 Co327 2.061 . S
O328 C331 1.235 . S
C329 O332 1.238 . S
C329 O333 1.241 . S
C330 O323 1.247 . S
C330 O324 1.261 . S
C331 O326 1.259 . S
C331 O328 1.235 . S
O332 Co322 2.021 . S
O332 C329 1.238 . S
O333 Co327 2.052 . S
O333 C329 1.241 . S
O334 Co322 2.137 . S
O334 C325 1.247 . S
O335 Co322 2.244 . S
O335 C325 1.272 . S
O335 Co327 2.135 . S
Co336 O337 2.216 . S
Co336 O338 2.091 . S
Co336 O340 2.004 . S
Co336 O346 2.021 . S
Co336 O348 2.137 . S
Co336 O349 2.244 . S
O337 Co336 2.216 . S
O337 C344 1.247 . S
O338 Co336 2.091 . S
O338 C344 1.261 . S
C339 O348 1.247 . S
C339 O349 1.272 . S
O340 Co336 2.004 . S
O340 C345 1.259 . S
Co341 O342 2.061 . S
Co341 O347 2.052 . S
Co341 O349 2.135 . S
O342 Co341 2.061 . S
O342 C345 1.235 . S
C343 O346 1.238 . S
C343 O347 1.241 . S
C344 O337 1.247 . S
C344 O338 1.261 . S
C345 O340 1.259 . S
C345 O342 1.235 . S
O346 Co336 2.021 . S
O346 C343 1.238 . S
O347 Co341 2.052 . S
O347 C343 1.241 . S
O348 Co336 2.137 . S
O348 C339 1.247 . S
O349 Co336 2.244 . S
O349 C339 1.272 . S
O349 Co341 2.135 . S
Co350 O351 2.216 . S
Co350 O352 2.091 . S
Co350 O354 2.004 . S
Co350 O360 2.021 . S
Co350 O362 2.137 . S
Co350 O363 2.244 . S
O351 Co350 2.216 . S
O351 C358 1.247 . S
O352 Co350 2.091 . S
O352 C358 1.261 . S
C353 O362 1.247 . S
C353 O363 1.272 . S
O354 Co350 2.004 . S
O354 C359 1.259 . S
Co355 O356 2.061 . S
Co355 O361 2.052 . S
Co355 O363 2.135 . S
O356 Co355 2.061 . S
O356 C359 1.235 . S
C357 O360 1.238 . S
C357 O361 1.241 . S
C358 O351 1.247 . S
C358 O352 1.261 . S
C359 O354 1.259 . S
C359 O356 1.235 . S
O360 Co350 2.021 . S
O360 C357 1.238 . S
O361 Co355 2.052 . S
O361 C357 1.241 . S
O362 Co350 2.137 . S
O362 C353 1.247 . S
O363 Co350 2.244 . S
O363 C353 1.272 . S
O363 Co355 2.135 . S
Co364 O365 2.216 . S
Co364 O366 2.091 . S
Co364 O368 2.004 . S
Co364 O374 2.021 . S
Co364 O376 2.137 1_556 S
Co364 O377 2.244 1_556 S
O365 Co364 2.216 . S
O365 C372 1.247 . S
O366 Co364 2.091 . S
O366 C372 1.261 . S
C367 O376 1.247 . S
C367 O377 1.272 . S
O368 Co364 2.004 . S
O368 C373 1.259 . S
Co369 O370 2.061 . S
Co369 O375 2.052 . S
Co369 O377 2.135 1_556 S
O370 Co369 2.061 . S
O370 C373 1.235 . S
C371 O374 1.238 . S
C371 O375 1.241 . S
C372 O365 1.247 . S
C372 O366 1.261 . S
C373 O368 1.259 . S
C373 O370 1.235 . S
O374 Co364 2.021 . S
O374 C371 1.238 . S
O375 Co369 2.052 . S
O375 C371 1.241 . S
O376 Co364 2.137 1_554 S
O376 C367 1.247 . S
O377 Co364 2.244 1_554 S
O377 C367 1.272 . S
O377 Co369 2.135 1_554 S
Co378 O379 2.216 . S
Co378 O380 2.091 . S
Co378 O382 2.004 . S
Co378 O388 2.021 . S
Co378 O390 2.137 . S
Co378 O391 2.244 . S
O379 Co378 2.216 . S
O379 C386 1.247 . S
O380 Co378 2.091 . S
O380 C386 1.261 . S
C381 O390 1.247 . S
C381 O391 1.272 . S
O382 Co378 2.004 . S
O382 C387 1.259 . S
Co383 O384 2.061 1_455 S
Co383 O389 2.052 . S
Co383 O391 2.135 1_455 S
O384 Co383 2.061 1_655 S
O384 C387 1.235 . S
C385 O388 1.238 . S
C385 O389 1.241 1_655 S
C386 O379 1.247 . S
C386 O380 1.261 . S
C387 O382 1.259 . S
C387 O384 1.235 . S
O388 Co378 2.021 . S
O388 C385 1.238 . S
O389 Co383 2.052 . S
O389 C385 1.241 1_455 S
O390 Co378 2.137 . S
O390 C381 1.247 . S
O391 Co378 2.244 . S
O391 C381 1.272 . S
O391 Co383 2.135 1_655 S
Co392 O393 2.216 . S
Co392 O394 2.091 . S
Co392 O396 2.004 . S
Co392 O402 2.021 . S
Co392 O404 2.137 1_554 S
Co392 O405 2.244 1_554 S
O393 Co392 2.216 . S
O393 C400 1.247 . S
O394 Co392 2.091 . S
O394 C400 1.261 . S
C395 O404 1.247 . S
C395 O405 1.272 . S
O396 Co392 2.004 . S
O396 C401 1.259 . S
Co397 O398 2.061 . S
Co397 O403 2.052 . S
Co397 O405 2.135 1_554 S
O398 Co397 2.061 . S
O398 C401 1.235 . S
C399 O402 1.238 . S
C399 O403 1.241 . S
C400 O393 1.247 . S
C400 O394 1.261 . S
C401 O396 1.259 . S
C401 O398 1.235 . S
O402 Co392 2.021 . S
O402 C399 1.238 . S
O403 Co397 2.052 . S
O403 C399 1.241 . S
O404 Co392 2.137 1_556 S
O404 C395 1.247 . S
O405 Co392 2.244 1_556 S
O405 C395 1.272 . S
O405 Co397 2.135 1_556 S
Co406 O407 2.216 . S
Co406 O408 2.091 . S
Co406 O410 2.004 . S
Co406 O416 2.021 . S
Co406 O418 2.137 . S
Co406 O419 2.244 . S
O407 Co406 2.216 . S
O407 C414 1.247 . S
O408 Co406 2.091 . S
O408 C414 1.261 . S
C409 O418 1.247 . S
C409 O419 1.272 . S
O410 Co406 2.004 . S
O410 C415 1.259 . S
Co411 O412 2.061 1_455 S
Co411 O417 2.052 . S
Co411 O419 2.135 1_455 S
O412 Co411 2.061 1_655 S
O412 C415 1.235 . S
C413 O416 1.238 . S
C413 O417 1.241 1_655 S
C414 O407 1.247 . S
C414 O408 1.261 . S
C415 O410 1.259 . S
C415 O412 1.235 . S
O416 Co406 2.021 . S
O416 C413 1.238 . S
O417 Co411 2.052 . S
O417 C413 1.241 1_455 S
O418 Co406 2.137 . S
O418 C409 1.247 . S
O419 Co406 2.244 . S
O419 C409 1.272 . S
O419 Co411 2.135 1_655 S
Co420 O421 2.216 . S
Co420 O422 2.091 . S
Co420 O424 2.004 . S
Co420 O430 2.021 . S
Co420 O432 2.137 . S
Co420 O433 2.244 . S
O421 Co420 2.216 . S
O421 C428 1.247 . S
O422 Co420 2.091 . S
O422 C428 1.261 . S
C423 O432 1.247 . S
C423 O433 1.272 . S
O424 Co420 2.004 . S
O424 C429 1.259 . S
Co425 O426 2.061 . S
Co425 O431 2.052 . S
Co425 O433 2.135 . S
O426 Co425 2.061 . S
O426 C429 1.235 . S
C427 O430 1.238 . S
C427 O431 1.241 . S
C428 O421 1.247 . S
C428 O422 1.261 . S
C429 O424 1.259 . S
C429 O426 1.235 . S
O430 Co420 2.021 . S
O430 C427 1.238 . S
O431 Co425 2.052 . S
O431 C427 1.241 . S
O432 Co420 2.137 . S
O432 C423 1.247 . S
O433 Co420 2.244 . S
O433 C423 1.272 . S
O433 Co425 2.135 . S
Co434 O435 2.216 . S
Co434 O436 2.091 . S
Co434 O438 2.004 . S
Co434 O444 2.021 . S
Co434 O446 2.137 . S
Co434 O447 2.244 . S
O435 Co434 2.216 . S
O435 C442 1.247 . S
O436 Co434 2.091 . S
O436 C442 1.261 . S
C437 O446 1.247 . S
C437 O447 1.272 . S
O438 Co434 2.004 . S
O438 C443 1.259 . S
Co439 O440 2.061 . S
Co439 O445 2.052 . S
Co439 O447 2.135 . S
O440 Co439 2.061 . S
O440 C443 1.235 . S
C441 O444 1.238 . S
C441 O445 1.241 . S
C442 O435 1.247 . S
C442 O436 1.261 . S
C443 O438 1.259 . S
C443 O440 1.235 . S
O444 Co434 2.021 . S
O444 C441 1.238 . S
O445 Co439 2.052 . S
O445 C441 1.241 . S
O446 Co434 2.137 . S
O446 C437 1.247 . S
O447 Co434 2.244 . S
O447 C437 1.272 . S
O447 Co439 2.135 . S
C448 C449 1.369 . S
C448 C450 1.419 . S
C448 H452 0.930 . S
C449 C448 1.369 . S
C449 C458 1.429 1_556 S
C450 C448 1.419 . S
C450 C451 1.363 1_556 S
C450 H453 0.929 . S
C451 C450 1.363 1_554 S
C451 C457 1.428 . S
H452 C448 0.930 . S
H453 C450 0.929 . S
S454 N455 1.613 . S
S454 N456 1.610 . S
N455 S454 1.613 . S
N455 C458 1.350 . S
N456 S454 1.610 . S
N456 C457 1.351 . S
C457 C451 1.428 . S
C457 N456 1.351 . S
C457 C458 1.434 . S
C458 C449 1.429 1_554 S
C458 N455 1.350 . S
C458 C457 1.434 . S
C459 C460 1.369 . S
C459 C461 1.419 1_565 S
C459 H463 0.930 . S
C460 C459 1.369 . S
C460 C469 1.429 . S
C461 C459 1.419 1_545 S
C461 C462 1.363 . S
C461 H464 0.929 . S
C462 C461 1.363 . S
C462 C468 1.428 . S
H463 C459 0.930 . S
H464 C461 0.929 . S
S465 N466 1.613 . S
S465 N467 1.610 1_565 S
N466 S465 1.613 . S
N466 C469 1.350 . S
N467 S465 1.610 1_545 S
N467 C468 1.351 . S
C468 C462 1.428 . S
C468 N467 1.351 . S
C468 C469 1.434 1_545 S
C469 C460 1.429 . S
C469 N466 1.350 . S
C469 C468 1.434 1_565 S
C470 C471 1.369 . S
C470 C472 1.419 . S
C470 H474 0.930 . S
C471 C470 1.369 . S
C471 C480 1.429 . S
C472 C470 1.419 . S
C472 C473 1.363 . S
C472 H475 0.929 . S
C473 C472 1.363 . S
C473 C479 1.428 . S
H474 C470 0.930 . S
H475 C472 0.929 . S
S476 N477 1.613 . S
S476 N478 1.610 . S
N477 S476 1.613 . S
N477 C480 1.350 . S
N478 S476 1.610 . S
N478 C479 1.351 . S
C479 C473 1.428 . S
C479 N478 1.351 . S
C479 C480 1.434 . S
C480 C471 1.429 . S
C480 N477 1.350 . S
C480 C479 1.434 . S
C481 C482 1.369 . S
C481 C483 1.419 1_545 S
C481 H485 0.930 . S
C482 C481 1.369 . S
C482 C491 1.429 . S
C483 C481 1.419 1_565 S
C483 C484 1.363 . S
C483 H486 0.929 . S
C484 C483 1.363 . S
C484 C490 1.428 . S
H485 C481 0.930 . S
H486 C483 0.929 . S
S487 N488 1.613 1_565 S
S487 N489 1.610 . S
N488 S487 1.613 1_545 S
N488 C491 1.350 . S
N489 S487 1.610 . S
N489 C490 1.351 . S
C490 C484 1.428 . S
C490 N489 1.351 . S
C490 C491 1.434 1_565 S
C491 C482 1.429 . S
C491 N488 1.350 . S
C491 C490 1.434 1_545 S
C492 C493 1.369 . S
C492 C494 1.419 1_554 S
C492 H496 0.930 1_554 S
C493 C492 1.369 . S
C493 C502 1.429 . S
C494 C492 1.419 1_556 S
C494 C495 1.363 . S
C494 H497 0.929 . S
C495 C494 1.363 . S
C495 C501 1.429 . S
H496 C492 0.930 1_556 S
H497 C494 0.929 . S
S498 N499 1.613 . S
S498 N500 1.615 . S
N499 S498 1.613 . S
N499 C502 1.350 . S
N500 S498 1.615 . S
N500 C501 1.351 1_554 S
C501 C495 1.429 . S
C501 N500 1.351 1_556 S
C501 C502 1.434 1_556 S
C502 C493 1.429 . S
C502 N499 1.350 . S
C502 C501 1.434 1_554 S
C503 C504 1.369 . S
C503 C505 1.419 1_565 S
C503 H507 0.930 . S
C504 C503 1.369 . S
C504 C513 1.429 . S
C505 C503 1.419 1_545 S
C505 C506 1.363 . S
C505 H508 0.929 . S
C506 C505 1.363 . S
C506 C512 1.428 . S
H507 C503 0.930 . S
H508 C505 0.929 . S
S509 N510 1.613 1_545 S
S509 N511 1.610 . S
N510 S509 1.613 1_565 S
N510 C513 1.350 . S
N511 S509 1.610 . S
N511 C512 1.351 . S
C512 C506 1.428 . S
C512 N511 1.351 . S
C512 C513 1.434 1_545 S
C513 C504 1.429 . S
C513 N510 1.350 . S
C513 C512 1.434 1_565 S
C514 C515 1.369 . S
C514 C516 1.419 . S
C514 H518 0.930 . S
C515 C514 1.369 . S
C515 C524 1.429 . S
C516 C514 1.419 . S
C516 C517 1.363 . S
C516 H519 0.929 . S
C517 C516 1.363 . S
C517 C523 1.428 . S
H518 C514 0.930 . S
H519 C516 0.929 . S
S520 N521 1.613 . S
S520 N522 1.610 . S
N521 S520 1.613 . S
N521 C524 1.350 . S
N522 S520 1.610 . S
N522 C523 1.351 . S
C523 C517 1.428 . S
C523 N522 1.351 . S
C523 C524 1.434 . S
C524 C515 1.429 . S
C524 N521 1.350 . S
C524 C523 1.434 . S
C525 C526 1.369 . S
C525 C527 1.419 1_565 S
C525 H529 0.930 . S
C526 C525 1.369 . S
C526 C535 1.429 . S
C527 C525 1.419 1_545 S
C527 C528 1.363 . S
C527 H530 0.929 . S
C528 C527 1.363 . S
C528 C534 1.428 . S
H529 C525 0.930 . S
H530 C527 0.929 . S
S531 N532 1.613 1_545 S
S531 N533 1.610 . S
N532 S531 1.613 1_565 S
N532 C535 1.350 . S
N533 S531 1.610 . S
N533 C534 1.351 . S
C534 C528 1.428 . S
C534 N533 1.351 . S
C534 C535 1.434 1_545 S
C535 C526 1.429 . S
C535 N532 1.350 . S
C535 C534 1.434 1_565 S
C536 C537 1.369 . S
C536 C538 1.419 . S
C536 H540 0.930 . S
C537 C536 1.369 . S
C537 C546 1.429 . S
C538 C536 1.419 . S
C538 C539 1.363 . S
C538 H541 0.929 . S
C539 C538 1.363 . S
C539 C545 1.428 . S
H540 C536 0.930 . S
H541 C538 0.929 . S
S542 N543 1.613 . S
S542 N544 1.610 . S
N543 S542 1.613 . S
N543 C546 1.350 . S
N544 S542 1.610 . S
N544 C545 1.351 . S
C545 C539 1.428 . S
C545 N544 1.351 . S
C545 C546 1.434 . S
C546 C537 1.429 . S
C546 N543 1.350 . S
C546 C545 1.434 . S
C547 C548 1.369 . S
C547 C549 1.419 . S
C547 H551 0.930 . S
C548 C547 1.369 . S
C548 C557 1.429 . S
C549 C547 1.419 . S
C549 C550 1.363 . S
C549 H552 0.929 . S
C550 C549 1.363 . S
C550 C556 1.428 . S
H551 C547 0.930 . S
H552 C549 0.929 . S
S553 N554 1.613 . S
S553 N555 1.610 . S
N554 S553 1.613 . S
N554 C557 1.350 . S
N555 S553 1.610 . S
N555 C556 1.351 . S
C556 C550 1.428 . S
C556 N555 1.351 . S
C556 C557 1.434 . S
C557 C548 1.429 . S
C557 N554 1.350 . S
C557 C556 1.434 . S
C558 C559 1.369 . S
C558 C560 1.419 1_556 S
C558 H562 0.930 . S
C559 C558 1.369 . S
C559 C568 1.429 . S
C560 C558 1.419 1_554 S
C560 C561 1.363 . S
C560 H563 0.929 . S
C561 C560 1.363 . S
C561 C567 1.428 . S
H562 C558 0.930 . S
H563 C560 0.929 . S
S564 N565 1.613 1_554 S
S564 N566 1.610 . S
N565 S564 1.613 1_556 S
N565 C568 1.350 . S
N566 S564 1.610 . S
N566 C567 1.351 . S
C567 C561 1.428 . S
C567 N566 1.351 . S
C567 C568 1.434 1_554 S
C568 C559 1.429 . S
C568 N565 1.350 . S
C568 C567 1.434 1_556 S
C569 C570 1.369 . S
C569 C571 1.419 . S
C569 H573 0.930 . S
C570 C569 1.369 . S
C570 C579 1.429 . S
C571 C569 1.419 . S
C571 C572 1.363 . S
C571 H574 0.929 . S
C572 C571 1.363 . S
C572 C578 1.428 . S
H573 C569 0.930 . S
H574 C571 0.929 . S
S575 N576 1.613 1_655 S
S575 N577 1.610 1_655 S
N576 S575 1.613 1_455 S
N576 C579 1.350 . S
N577 S575 1.610 1_455 S
N577 C578 1.351 . S
C578 C572 1.428 . S
C578 N577 1.351 . S
C578 C579 1.434 . S
C579 C570 1.429 . S
C579 N576 1.350 . S
C579 C578 1.434 . S
C580 C581 1.369 . S
C580 C582 1.419 . S
C580 H584 0.930 . S
C581 C580 1.369 . S
C581 C590 1.429 . S
C582 C580 1.419 . S
C582 C583 1.363 . S
C582 H585 0.929 . S
C583 C582 1.363 . S
C583 C589 1.428 . S
H584 C580 0.930 . S
H585 C582 0.929 . S
S586 N587 1.613 . S
S586 N588 1.610 . S
N587 S586 1.613 . S
N587 C590 1.350 . S
N588 S586 1.610 . S
N588 C589 1.351 . S
C589 C583 1.428 . S
C589 N588 1.351 . S
C589 C590 1.434 . S
C590 C581 1.429 . S
C590 N587 1.350 . S
C590 C589 1.434 . S
C591 C592 1.369 . S
C591 C593 1.419 . S
C591 H595 0.930 . S
C592 C591 1.369 . S
C592 C601 1.429 . S
C593 C591 1.419 . S
C593 C594 1.363 . S
C593 H596 0.929 . S
C594 C593 1.363 . S
C594 C600 1.428 . S
H595 C591 0.930 . S
H596 C593 0.929 . S
S597 N598 1.613 . S
S597 N599 1.610 . S
N598 S597 1.613 . S
N598 C601 1.350 . S
N599 S597 1.610 . S
N599 C600 1.351 . S
C600 C594 1.428 . S
C600 N599 1.351 . S
C600 C601 1.434 . S
C601 C592 1.429 . S
C601 N598 1.350 . S
C601 C600 1.434 . S
C602 C603 1.369 . S
C602 C604 1.419 . S
C602 H606 0.930 . S
C603 C602 1.369 . S
C603 C612 1.429 1_554 S
C604 C602 1.419 . S
C604 C605 1.363 1_554 S
C604 H607 0.929 . S
C605 C604 1.363 1_556 S
C605 C611 1.428 . S
H606 C602 0.930 . S
H607 C604 0.929 . S
S608 N609 1.613 . S
S608 N610 1.610 . S
N609 S608 1.613 . S
N609 C612 1.350 . S
N610 S608 1.610 . S
N610 C611 1.351 . S
C611 C605 1.428 . S
C611 N610 1.351 . S
C611 C612 1.434 . S
C612 C603 1.429 1_556 S
C612 N609 1.350 . S
C612 C611 1.434 . S
C613 C614 1.369 . S
C613 C615 1.419 . S
C613 H617 0.930 . S
C614 C613 1.369 . S
C614 C623 1.429 . S
C615 C613 1.419 . S
C615 C616 1.363 . S
C615 H618 0.929 . S
C616 C615 1.363 . S
C616 C622 1.428 . S
H617 C613 0.930 . S
H618 C615 0.929 . S
S619 N620 1.613 . S
S619 N621 1.610 . S
N620 S619 1.613 . S
N620 C623 1.350 . S
N621 S619 1.610 . S
N621 C622 1.351 . S
C622 C616 1.428 . S
C622 N621 1.351 . S
C622 C623 1.434 . S
C623 C614 1.429 . S
C623 N620 1.350 . S
C623 C622 1.434 . S
C624 C625 1.369 . S
C624 C626 1.419 . S
C624 H628 0.930 . S
C625 C624 1.369 . S
C625 C634 1.429 . S
C626 C624 1.419 . S
C626 C627 1.363 . S
C626 H629 0.929 . S
C627 C626 1.363 . S
C627 C633 1.428 . S
H628 C624 0.930 . S
H629 C626 0.929 . S
S630 N631 1.613 . S
S630 N632 1.610 . S
N631 S630 1.613 . S
N631 C634 1.350 . S
N632 S630 1.610 . S
N632 C633 1.351 . S
C633 C627 1.428 . S
C633 N632 1.351 . S
C633 C634 1.434 . S
C634 C625 1.429 . S
C634 N631 1.350 . S
C634 C633 1.434 . S
C635 C636 1.369 1_654 S
C635 C637 1.419 . S
C635 H639 0.930 1_554 S
C636 C635 1.369 1_456 S
C636 C645 1.429 1_556 S
C637 C635 1.419 . S
C637 C638 1.363 . S
C637 H640 0.929 . S
C638 C637 1.363 . S
C638 C644 1.428 1_655 S
H639 C635 0.930 1_556 S
H640 C637 0.929 . S
S641 N642 1.613 . S
S641 N643 1.610 . S
N642 S641 1.613 . S
N642 C645 1.350 . S
N643 S641 1.610 . S
N643 C644 1.351 . S
C644 C638 1.428 1_455 S
C644 N643 1.351 . S
C644 C645 1.434 . S
C645 C636 1.429 1_554 S
C645 N642 1.350 . S
C645 C644 1.434 . S
C646 C647 1.369 . S
C646 C648 1.419 . S
C646 H650 0.930 . S
C647 C646 1.369 . S
C647 C656 1.429 . S
C648 C646 1.419 . S
C648 C649 1.363 . S
C648 H651 0.929 . S
C649 C648 1.363 . S
C649 C655 1.428 . S
H650 C646 0.930 . S
H651 C648 0.929 . S
S652 N653 1.613 . S
S652 N654 1.610 . S
N653 S652 1.613 . S
N653 C656 1.350 . S
N654 S652 1.610 . S
N654 C655 1.351 . S
C655 C649 1.428 . S
C655 N654 1.351 . S
C655 C656 1.434 . S
C656 C647 1.429 . S
C656 N653 1.350 . S
C656 C655 1.434 . S
C657 C658 1.369 . S
C657 C659 1.419 . S
C657 H661 0.930 . S
C658 C657 1.369 . S
C658 C667 1.429 . S
C659 C657 1.419 . S
C659 C660 1.363 . S
C659 H662 0.929 . S
C660 C659 1.363 . S
C660 C666 1.428 . S
H661 C657 0.930 . S
H662 C659 0.929 . S
S663 N664 1.613 . S
S663 N665 1.610 . S
N664 S663 1.613 . S
N664 C667 1.350 . S
N665 S663 1.610 . S
N665 C666 1.351 . S
C666 C660 1.428 . S
C666 N665 1.351 . S
C666 C667 1.434 . S
C667 C658 1.429 . S
C667 N664 1.350 . S
C667 C666 1.434 . S
C668 C669 1.369 . S
C668 C670 1.419 . S
C668 H672 0.930 . S
C669 C668 1.369 . S
C669 C678 1.429 . S
C670 C668 1.419 . S
C670 C671 1.363 . S
C670 H673 0.929 . S
C671 C670 1.363 . S
C671 C677 1.428 . S
H672 C668 0.930 . S
H673 C670 0.929 . S
S674 N675 1.613 . S
S674 N676 1.610 . S
N675 S674 1.613 . S
N675 C678 1.350 . S
N676 S674 1.610 . S
N676 C677 1.351 . S
C677 C671 1.428 . S
C677 N676 1.351 . S
C677 C678 1.434 . S
C678 C669 1.429 . S
C678 N675 1.350 . S
C678 C677 1.434 . S
C679 C680 1.369 1_556 S
C679 C681 1.419 . S
C679 H683 0.930 . S
C680 C679 1.369 1_554 S
C680 C689 1.429 1_554 S
C681 C679 1.419 . S
C681 C682 1.363 . S
C681 H684 0.929 . S
C682 C681 1.363 . S
C682 C688 1.428 . S
H683 C679 0.930 . S
H684 C681 0.929 . S
S685 N686 1.613 . S
S685 N687 1.610 . S
N686 S685 1.613 . S
N686 C689 1.350 . S
N687 S685 1.610 . S
N687 C688 1.351 . S
C688 C682 1.428 . S
C688 N687 1.351 . S
C688 C689 1.434 . S
C689 C680 1.429 1_556 S
C689 N686 1.350 . S
C689 C688 1.434 . S
C690 C691 1.369 . S
C690 C692 1.419 . S
C690 H694 0.930 . S
C691 C690 1.369 . S
C691 C700 1.429 . S
C692 C690 1.419 . S
C692 C693 1.363 . S
C692 H695 0.929 . S
C693 C692 1.363 . S
C693 C699 1.428 . S
H694 C690 0.930 . S
H695 C692 0.929 . S
S696 N697 1.613 . S
S696 N698 1.610 . S
N697 S696 1.613 . S
N697 C700 1.350 . S
N698 S696 1.610 . S
N698 C699 1.351 . S
C699 C693 1.428 . S
C699 N698 1.351 . S
C699 C700 1.434 . S
C700 C691 1.429 . S
C700 N697 1.350 . S
C700 C699 1.434 . S
C701 C702 1.369 . S
C701 C703 1.419 . S
C701 H705 0.930 . S
C702 C701 1.369 . S
C702 C711 1.429 1_455 S
C703 C701 1.419 . S
C703 C704 1.363 1_455 S
C703 H706 0.929 . S
C704 C703 1.363 1_655 S
C704 C710 1.428 . S
H705 C701 0.930 . S
H706 C703 0.929 . S
S707 N708 1.613 . S
S707 N709 1.610 . S
N708 S707 1.613 . S
N708 C711 1.350 . S
N709 S707 1.610 . S
N709 C710 1.351 . S
C710 C704 1.428 . S
C710 N709 1.351 . S
C710 C711 1.434 . S
C711 C702 1.429 1_655 S
C711 N708 1.350 . S
C711 C710 1.434 . S
C712 C713 1.369 . S
C712 C714 1.419 . S
C712 H716 0.930 . S
C713 C712 1.369 . S
C713 C722 1.429 . S
C714 C712 1.419 . S
C714 C715 1.363 . S
C714 H717 0.929 . S
C715 C714 1.363 . S
C715 C721 1.428 . S
H716 C712 0.930 . S
H717 C714 0.929 . S
S718 N719 1.613 . S
S718 N720 1.610 . S
N719 S718 1.613 . S
N719 C722 1.350 . S
N720 S718 1.610 . S
N720 C721 1.351 . S
C721 C715 1.428 . S
C721 N720 1.351 . S
C721 C722 1.434 . S
C722 C713 1.429 . S
C722 N719 1.350 . S
C722 C721 1.434 . S
C723 C724 1.369 1_456 S
C723 C725 1.419 . S
C723 H727 0.930 1_556 S
C724 C723 1.369 1_654 S
C724 C733 1.429 1_554 S
C725 C723 1.419 . S
C725 C726 1.363 . S
C725 H728 0.929 . S
C726 C725 1.363 . S
C726 C732 1.428 1_455 S
H727 C723 0.930 1_554 S
H728 C725 0.929 . S
S729 N730 1.613 . S
S729 N731 1.610 . S
N730 S729 1.613 . S
N730 C733 1.350 . S
N731 S729 1.610 . S
N731 C732 1.351 . S
C732 C726 1.428 1_655 S
C732 N731 1.351 . S
C732 C733 1.434 . S
C733 C724 1.429 1_556 S
C733 N730 1.350 . S
C733 C732 1.434 . S
C734 C735 1.369 . S
C734 C736 1.419 . S
C734 H738 0.930 . S
C735 C734 1.369 . S
C735 C744 1.429 . S
C736 C734 1.419 . S
C736 C737 1.363 . S
C736 H739 0.929 . S
C737 C736 1.363 . S
C737 C743 1.428 . S
H738 C734 0.930 . S
H739 C736 0.929 . S
S740 N741 1.613 . S
S740 N742 1.610 . S
N741 S740 1.613 . S
N741 C744 1.350 . S
N742 S740 1.610 . S
N742 C743 1.351 . S
C743 C737 1.428 . S
C743 N742 1.351 . S
C743 C744 1.434 . S
C744 C735 1.429 . S
C744 N741 1.350 . S
C744 C743 1.434 . S
C745 C746 1.369 . S
C745 C747 1.419 . S
C745 H749 0.930 . S
C746 C745 1.369 . S
C746 C755 1.429 . S
C747 C745 1.419 . S
C747 C748 1.363 . S
C747 H750 0.929 . S
C748 C747 1.363 . S
C748 C754 1.428 . S
H749 C745 0.930 . S
H750 C747 0.929 . S
S751 N752 1.613 . S
S751 N753 1.610 . S
N752 S751 1.613 . S
N752 C755 1.350 . S
N753 S751 1.610 . S
N753 C754 1.351 . S
C754 C748 1.428 . S
C754 N753 1.351 . S
C754 C755 1.434 . S
C755 C746 1.429 . S
C755 N752 1.350 . S
C755 C754 1.434 . S
C756 C757 1.369 . S
C756 C758 1.419 . S
C756 H760 0.930 . S
C757 C756 1.369 . S
C757 C766 1.429 . S
C758 C756 1.419 . S
C758 C759 1.363 . S
C758 H761 0.929 . S
C759 C758 1.363 . S
C759 C765 1.428 . S
H760 C756 0.930 . S
H761 C758 0.929 . S
S762 N763 1.613 . S
S762 N764 1.610 . S
N763 S762 1.613 . S
N763 C766 1.350 . S
N764 S762 1.610 . S
N764 C765 1.351 . S
C765 C759 1.428 . S
C765 N764 1.351 . S
C765 C766 1.434 . S
C766 C757 1.429 . S
C766 N763 1.350 . S
C766 C765 1.434 . S
C767 C768 1.369 . S
C767 C769 1.419 . S
C767 H771 0.930 . S
C768 C767 1.369 . S
C768 C777 1.429 . S
C769 C767 1.419 . S
C769 C770 1.363 1_554 S
C769 H772 0.929 . S
C770 C769 1.363 1_556 S
C770 C776 1.428 1_556 S
H771 C767 0.930 . S
H772 C769 0.929 . S
S773 N774 1.613 . S
S773 N775 1.610 1_554 S
N774 S773 1.613 . S
N774 C777 1.350 . S
N775 S773 1.610 1_556 S
N775 C776 1.351 1_556 S
C776 C770 1.428 1_554 S
C776 N775 1.351 1_554 S
C776 C777 1.434 . S
C777 C768 1.429 . S
C777 N774 1.350 . S
C777 C776 1.434 . S
C778 C779 1.369 . S
C778 C780 1.419 . S
C778 H782 0.930 . S
C779 C778 1.369 . S
C779 C788 1.429 . S
C780 C778 1.419 . S
C780 C781 1.363 . S
C780 H783 0.929 . S
C781 C780 1.363 . S
C781 C787 1.428 . S
H782 C778 0.930 . S
H783 C780 0.929 . S
S784 N785 1.613 . S
S784 N786 1.610 . S
N785 S784 1.613 . S
N785 C788 1.350 . S
N786 S784 1.610 . S
N786 C787 1.351 . S
C787 C781 1.428 . S
C787 N786 1.351 . S
C787 C788 1.434 . S
C788 C779 1.429 . S
C788 N785 1.350 . S
C788 C787 1.434 . S
C789 C790 1.369 . S
C789 C791 1.419 1_655 S
C789 H793 0.930 . S
C790 C789 1.369 . S
C790 C799 1.429 . S
C791 C789 1.419 1_455 S
C791 C792 1.363 . S
C791 H794 0.929 . S
C792 C791 1.363 . S
C792 C798 1.428 . S
H793 C789 0.930 . S
H794 C791 0.929 . S
S795 N796 1.613 1_455 S
S795 N797 1.610 . S
N796 S795 1.613 1_655 S
N796 C799 1.350 . S
N797 S795 1.610 . S
N797 C798 1.351 . S
C798 C792 1.428 . S
C798 N797 1.351 . S
C798 C799 1.434 1_455 S
C799 C790 1.429 . S
C799 N796 1.350 . S
C799 C798 1.434 1_655 S
C800 C801 1.369 . S
C800 C802 1.419 . S
C800 H804 0.930 . S
C801 C800 1.369 . S
C801 C810 1.429 . S
C802 C800 1.419 . S
C802 C803 1.363 . S
C802 H805 0.929 . S
C803 C802 1.363 . S
C803 C809 1.428 . S
H804 C800 0.930 . S
H805 C802 0.929 . S
S806 N807 1.613 . S
S806 N808 1.610 . S
N807 S806 1.613 . S
N807 C810 1.350 . S
N808 S806 1.610 . S
N808 C809 1.351 . S
C809 C803 1.428 . S
C809 N808 1.351 . S
C809 C810 1.434 . S
C810 C801 1.429 . S
C810 N807 1.350 . S
C810 C809 1.434 . S
C811 C812 1.369 . S
C811 C813 1.419 . S
C811 H815 0.930 . S
C812 C811 1.369 . S
C812 C821 1.429 . S
C813 C811 1.419 . S
C813 C814 1.363 . S
C813 H816 0.929 . S
C814 C813 1.363 . S
C814 C820 1.428 . S
H815 C811 0.930 . S
H816 C813 0.929 . S
S817 N818 1.613 . S
S817 N819 1.610 . S
N818 S817 1.613 . S
N818 C821 1.350 . S
N819 S817 1.610 . S
N819 C820 1.351 . S
C820 C814 1.428 . S
C820 N819 1.351 . S
C820 C821 1.434 . S
C821 C812 1.429 . S
C821 N818 1.350 . S
C821 C820 1.434 . S
C822 C823 1.369 . S
C822 C824 1.419 . S
C822 H826 0.930 . S
C823 C822 1.369 . S
C823 C832 1.429 . S
C824 C822 1.419 . S
C824 C825 1.363 . S
C824 H827 0.929 . S
C825 C824 1.363 . S
C825 C831 1.428 . S
H826 C822 0.930 . S
H827 C824 0.929 . S
S828 N829 1.613 . S
S828 N830 1.610 . S
N829 S828 1.613 . S
N829 C832 1.350 . S
N830 S828 1.610 . S
N830 C831 1.351 . S
C831 C825 1.428 . S
C831 N830 1.351 . S
C831 C832 1.434 . S
C832 C823 1.429 . S
C832 N829 1.350 . S
C832 C831 1.434 . S
C833 C834 1.369 1_655 S
C833 C835 1.419 . S
C833 H837 0.930 . S
C834 C833 1.369 1_455 S
C834 C843 1.429 . S
C835 C833 1.419 . S
C835 C836 1.363 1_554 S
C835 H838 0.929 . S
C836 C835 1.363 1_556 S
C836 C842 1.428 1_656 S
H837 C833 0.930 . S
H838 C835 0.929 . S
S839 N840 1.613 . S
S839 N841 1.610 1_554 S
N840 S839 1.613 . S
N840 C843 1.350 . S
N841 S839 1.610 1_556 S
N841 C842 1.351 1_556 S
C842 C836 1.428 1_454 S
C842 N841 1.351 1_554 S
C842 C843 1.434 . S
C843 C834 1.429 . S
C843 N840 1.350 . S
C843 C842 1.434 . S
C844 C845 1.369 . S
C844 C846 1.419 . S
C844 H848 0.930 . S
C845 C844 1.369 . S
C845 C854 1.429 . S
C846 C844 1.419 . S
C846 C847 1.363 . S
C846 H849 0.929 . S
C847 C846 1.363 . S
C847 C853 1.428 . S
H848 C844 0.930 . S
H849 C846 0.929 . S
S850 N851 1.613 . S
S850 N852 1.610 . S
N851 S850 1.613 . S
N851 C854 1.350 . S
N852 S850 1.610 . S
N852 C853 1.351 . S
C853 C847 1.428 . S
C853 N852 1.351 . S
C853 C854 1.434 . S
C854 C845 1.429 . S
C854 N851 1.350 . S
C854 C853 1.434 . S
C855 C856 1.369 1_455 S
C855 C857 1.419 . S
C855 H859 0.930 . S
C856 C855 1.369 1_655 S
C856 C865 1.429 . S
C857 C855 1.419 . S
C857 C858 1.363 . S
C857 H860 0.929 . S
C858 C857 1.363 . S
C858 C864 1.428 1_455 S
H859 C855 0.930 . S
H860 C857 0.929 . S
S861 N862 1.613 . S
S861 N863 1.610 . S
N862 S861 1.613 . S
N862 C865 1.350 . S
N863 S861 1.610 . S
N863 C864 1.351 . S
C864 C858 1.428 1_655 S
C864 N863 1.351 . S
C864 C865 1.434 . S
C865 C856 1.429 . S
C865 N862 1.350 . S
C865 C864 1.434 . S
C866 C867 1.369 . S
C866 C868 1.419 . S
C866 H870 0.930 . S
C867 C866 1.369 . S
C867 C876 1.429 . S
C868 C866 1.419 . S
C868 C869 1.363 . S
C868 H871 0.929 . S
C869 C868 1.363 . S
C869 C875 1.428 . S
H870 C866 0.930 . S
H871 C868 0.929 . S
S872 N873 1.613 . S
S872 N874 1.610 . S
N873 S872 1.613 . S
N873 C876 1.350 . S
N874 S872 1.610 . S
N874 C875 1.351 . S
C875 C869 1.428 . S
C875 N874 1.351 . S
C875 C876 1.434 . S
C876 C867 1.429 . S
C876 N873 1.350 . S
C876 C875 1.434 . S
C877 C878 1.369 1_556 S
C877 C879 1.419 . S
C877 H881 0.930 1_556 S
C878 C877 1.369 1_554 S
C878 C887 1.429 1_554 S
C879 C877 1.419 . S
C879 C880 1.363 . S
C879 H882 0.929 . S
C880 C879 1.363 . S
C880 C886 1.428 . S
H881 C877 0.930 1_554 S
H882 C879 0.929 . S
S883 N884 1.613 . S
S883 N885 1.610 . S
N884 S883 1.613 . S
N884 C887 1.350 . S
N885 S883 1.610 . S
N885 C886 1.351 . S
C886 C880 1.428 . S
C886 N885 1.351 . S
C886 C887 1.434 . S
C887 C878 1.429 1_556 S
C887 N884 1.350 . S
C887 C886 1.434 . S
C888 C889 1.369 . S
C888 C890 1.419 . S
C888 H892 0.930 . S
C889 C888 1.369 . S
C889 C898 1.429 . S
C890 C888 1.419 . S
C890 C891 1.363 . S
C890 H893 0.929 . S
C891 C890 1.363 . S
C891 C897 1.428 . S
H892 C888 0.930 . S
H893 C890 0.929 . S
S894 N895 1.613 . S
S894 N896 1.610 . S
N895 S894 1.613 . S
N895 C898 1.350 . S
N896 S894 1.610 . S
N896 C897 1.351 . S
C897 C891 1.428 . S
C897 N896 1.351 . S
C897 C898 1.434 . S
C898 C889 1.429 . S
C898 N895 1.350 . S
C898 C897 1.434 . S
C899 C900 1.369 . S
C899 C901 1.419 . S
C899 H903 0.930 . S
C900 C899 1.369 . S
C900 C909 1.429 . S
C901 C899 1.419 . S
C901 C902 1.363 . S
C901 H904 0.929 . S
C902 C901 1.363 . S
C902 C908 1.428 . S
H903 C899 0.930 . S
H904 C901 0.929 . S
S905 N906 1.613 . S
S905 N907 1.610 . S
N906 S905 1.613 . S
N906 C909 1.350 . S
N907 S905 1.610 . S
N907 C908 1.351 . S
C908 C902 1.428 . S
C908 N907 1.351 . S
C908 C909 1.434 . S
C909 C900 1.429 . S
C909 N906 1.350 . S
C909 C908 1.434 . S
C910 C911 1.369 . S
C910 C912 1.419 . S
C910 H914 0.930 . S
C911 C910 1.369 . S
C911 C920 1.429 . S
C912 C910 1.419 . S
C912 C913 1.363 . S
C912 H915 0.929 . S
C913 C912 1.363 . S
C913 C919 1.428 . S
H914 C910 0.930 . S
H915 C912 0.929 . S
S916 N917 1.613 . S
S916 N918 1.610 . S
N917 S916 1.613 . S
N917 C920 1.350 . S
N918 S916 1.610 . S
N918 C919 1.351 . S
C919 C913 1.428 . S
C919 N918 1.351 . S
C919 C920 1.434 . S
C920 C911 1.429 . S
C920 N917 1.350 . S
C920 C919 1.434 . S
C921 C922 1.369 1_455 S
C921 C923 1.419 . S
C921 H925 0.930 . S
C922 C921 1.369 1_655 S
C922 C931 1.429 . S
C923 C921 1.419 . S
C923 C924 1.363 1_556 S
C923 H926 0.929 . S
C924 C923 1.363 1_554 S
C924 C930 1.428 1_454 S
H925 C921 0.930 . S
H926 C923 0.929 . S
S927 N928 1.613 . S
S927 N929 1.610 1_556 S
N928 S927 1.613 . S
N928 C931 1.350 . S
N929 S927 1.610 1_554 S
N929 C930 1.351 1_554 S
C930 C924 1.428 1_656 S
C930 N929 1.351 1_556 S
C930 C931 1.434 . S
C931 C922 1.429 . S
C931 N928 1.350 . S
C931 C930 1.434 . S
C932 C933 1.369 . S
C932 C934 1.419 . S
C932 H936 0.930 . S
C933 C932 1.369 . S
C933 C942 1.429 . S
C934 C932 1.419 . S
C934 C935 1.363 . S
C934 H937 0.929 . S
C935 C934 1.363 . S
C935 C941 1.428 . S
H936 C932 0.930 . S
H937 C934 0.929 . S
S938 N939 1.613 . S
S938 N940 1.610 . S
N939 S938 1.613 . S
N939 C942 1.350 . S
N940 S938 1.610 . S
N940 C941 1.351 . S
C941 C935 1.428 . S
C941 N940 1.351 . S
C941 C942 1.434 . S
C942 C933 1.429 . S
C942 N939 1.350 . S
C942 C941 1.434 . S
C943 C944 1.369 1_455 S
C943 C945 1.419 . S
C943 H947 0.930 . S
C944 C943 1.369 1_655 S
C944 C953 1.429 . S
C945 C943 1.419 . S
C945 C946 1.363 . S
C945 H948 0.929 . S
C946 C945 1.363 . S
C946 C952 1.428 1_455 S
H947 C943 0.930 . S
H948 C945 0.929 . S
S949 N950 1.613 . S
S949 N951 1.610 . S
N950 S949 1.613 . S
N950 C953 1.350 . S
N951 S949 1.610 . S
N951 C952 1.351 . S
C952 C946 1.428 1_655 S
C952 N951 1.351 . S
C952 C953 1.434 . S
C953 C944 1.429 . S
C953 N950 1.350 . S
C953 C952 1.434 . S
C954 C955 1.369 . S
C954 C956 1.419 . S
C954 H958 0.930 . S
C955 C954 1.369 . S
C955 C964 1.429 . S
C956 C954 1.419 . S
C956 C957 1.363 . S
C956 H959 0.929 . S
C957 C956 1.363 . S
C957 C963 1.428 . S
H958 C954 0.930 . S
H959 C956 0.929 . S
S960 N961 1.613 . S
S960 N962 1.610 . S
N961 S960 1.613 . S
N961 C964 1.350 . S
N962 S960 1.610 . S
N962 C963 1.351 . S
C963 C957 1.428 . S
C963 N962 1.351 . S
C963 C964 1.434 . S
C964 C955 1.429 . S
C964 N961 1.350 . S
C964 C963 1.434 . S
C965 C966 1.369 . S
C965 C967 1.419 . S
C965 H969 0.930 . S
C966 C965 1.369 . S
C966 C975 1.429 . S
C967 C965 1.419 . S
C967 C968 1.363 1_554 S
C967 H970 0.929 . S
C968 C967 1.363 1_556 S
C968 C974 1.427 1_556 S
H969 C965 0.930 . S
H970 C967 0.929 . S
S971 N972 1.613 1_556 S
S971 N973 1.610 . S
N972 S971 1.613 1_554 S
N972 C975 1.350 . S
N973 S971 1.610 . S
N973 C974 1.341 1_556 S
C974 C968 1.427 1_554 S
C974 N973 1.341 1_554 S
C974 C975 1.446 . S
C975 C966 1.429 . S
C975 N972 1.350 . S
C975 C974 1.446 . S
C976 C977 1.369 . S
C976 C978 1.419 . S
C976 H980 0.930 . S
C977 C976 1.369 . S
C977 C986 1.429 . S
C978 C976 1.419 . S
C978 C979 1.363 . S
C978 H981 0.929 . S
C979 C978 1.363 . S
C979 C985 1.428 . S
H980 C976 0.930 . S
H981 C978 0.929 . S
S982 N983 1.613 . S
S982 N984 1.610 . S
N983 S982 1.613 . S
N983 C986 1.350 . S
N984 S982 1.610 . S
N984 C985 1.351 . S
C985 C979 1.428 . S
C985 N984 1.351 . S
C985 C986 1.434 . S
C986 C977 1.429 . S
C986 N983 1.350 . S
C986 C985 1.434 . S
C987 C988 1.369 . S
C987 C989 1.419 . S
C987 H991 0.930 . S
C988 C987 1.369 . S
C988 C997 1.429 . S
C989 C987 1.419 . S
C989 C990 1.363 . S
C989 H992 0.929 . S
C990 C989 1.363 . S
C990 C996 1.428 . S
H991 C987 0.930 . S
H992 C989 0.929 . S
S993 N994 1.613 . S
S993 N995 1.610 . S
N994 S993 1.613 . S
N994 C997 1.350 . S
N995 S993 1.610 . S
N995 C996 1.351 . S
C996 C990 1.428 . S
C996 N995 1.351 . S
C996 C997 1.434 . S
C997 C988 1.429 . S
C997 N994 1.350 . S
C997 C996 1.434 . S
C998 C999 1.369 . S
C998 C1000 1.419 . S
C998 H1002 0.930 . S
C999 C998 1.369 . S
C999 C1008 1.429 . S
C1000 C998 1.419 . S
C1000 C1001 1.363 . S
C1000 H1003 0.929 . S
C1001 C1000 1.363 . S
C1001 C1007 1.428 . S
H1002 C998 0.930 . S
H1003 C1000 0.929 . S
S1004 N1005 1.613 . S
S1004 N1006 1.610 . S
N1005 S1004 1.613 . S
N1005 C1008 1.350 . S
N1006 S1004 1.610 . S
N1006 C1007 1.351 . S
C1007 C1001 1.428 . S
C1007 N1006 1.351 . S
C1007 C1008 1.434 . S
C1008 C999 1.429 . S
C1008 N1005 1.350 . S
C1008 C1007 1.434 . S
C1009 C1010 1.369 . S
C1009 C1011 1.419 . S
C1009 H1013 0.930 . S
C1010 C1009 1.369 . S
C1010 C1019 1.429 . S
C1011 C1009 1.419 . S
C1011 C1012 1.363 . S
C1011 H1014 0.929 . S
C1012 C1011 1.363 . S
C1012 C1018 1.428 . S
H1013 C1009 0.930 . S
H1014 C1011 0.929 . S
S1015 N1016 1.613 . S
S1015 N1017 1.610 . S
N1016 S1015 1.613 . S
N1016 C1019 1.350 . S
N1017 S1015 1.610 . S
N1017 C1018 1.351 . S
C1018 C1012 1.428 . S
C1018 N1017 1.351 . S
C1018 C1019 1.434 . S
C1019 C1010 1.429 . S
C1019 N1016 1.350 . S
C1019 C1018 1.434 . S
C1020 C1021 1.369 . S
C1020 C1022 1.419 . S
C1020 H1024 0.930 . S
C1021 C1020 1.369 . S
C1021 C1030 1.429 . S
C1022 C1020 1.419 . S
C1022 C1023 1.363 . S
C1022 H1025 0.929 . S
C1023 C1022 1.363 . S
C1023 C1029 1.428 . S
H1024 C1020 0.930 . S
H1025 C1022 0.929 . S
S1026 N1027 1.613 . S
S1026 N1028 1.610 . S
N1027 S1026 1.613 . S
N1027 C1030 1.350 . S
N1028 S1026 1.610 . S
N1028 C1029 1.351 . S
C1029 C1023 1.428 . S
C1029 N1028 1.351 . S
C1029 C1030 1.434 . S
C1030 C1021 1.429 . S
C1030 N1027 1.350 . S
C1030 C1029 1.434 . S
C1031 C1032 1.369 . S
C1031 C1033 1.419 . S
C1031 H1035 0.930 . S
C1032 C1031 1.369 . S
C1032 C1041 1.429 . S
C1033 C1031 1.419 . S
C1033 C1034 1.363 . S
C1033 H1036 0.929 . S
C1034 C1033 1.363 . S
C1034 C1040 1.428 . S
H1035 C1031 0.930 . S
H1036 C1033 0.929 . S
S1037 N1038 1.613 . S
S1037 N1039 1.610 . S
N1038 S1037 1.613 . S
N1038 C1041 1.350 . S
N1039 S1037 1.610 . S
N1039 C1040 1.351 . S
C1040 C1034 1.428 . S
C1040 N1039 1.351 . S
C1040 C1041 1.434 . S
C1041 C1032 1.429 . S
C1041 N1038 1.350 . S
C1041 C1040 1.434 . S
C1042 C1043 1.369 . S
C1042 C1044 1.419 . S
C1042 H1046 0.930 . S
C1043 C1042 1.369 . S
C1043 C1052 1.429 . S
C1044 C1042 1.419 . S
C1044 C1045 1.363 . S
C1044 H1047 0.929 . S
C1045 C1044 1.363 . S
C1045 C1051 1.428 . S
H1046 C1042 0.930 . S
H1047 C1044 0.929 . S
S1048 N1049 1.613 . S
S1048 N1050 1.610 . S
N1049 S1048 1.613 . S
N1049 C1052 1.350 . S
N1050 S1048 1.610 . S
N1050 C1051 1.351 . S
C1051 C1045 1.428 . S
C1051 N1050 1.351 . S
C1051 C1052 1.434 . S
C1052 C1043 1.429 . S
C1052 N1049 1.350 . S
C1052 C1051 1.434 . S
C1053 C1054 1.369 . S
C1053 C1055 1.419 . S
C1053 H1057 0.930 . S
C1054 C1053 1.369 . S
C1054 C1063 1.429 . S
C1055 C1053 1.419 . S
C1055 C1056 1.363 . S
C1055 H1058 0.929 . S
C1056 C1055 1.363 . S
C1056 C1062 1.428 . S
H1057 C1053 0.930 . S
H1058 C1055 0.929 . S
S1059 N1060 1.613 . S
S1059 N1061 1.610 1_556 S
N1060 S1059 1.613 . S
N1060 C1063 1.350 1_556 S
N1061 S1059 1.610 1_554 S
N1061 C1062 1.351 . S
C1062 C1056 1.428 . S
C1062 N1061 1.351 . S
C1062 C1063 1.434 . S
C1063 C1054 1.429 . S
C1063 N1060 1.350 1_554 S
C1063 C1062 1.434 . S
C1064 C1065 1.369 . S
C1064 C1066 1.419 . S
C1064 H1068 0.930 . S
C1065 C1064 1.369 . S
C1065 C1074 1.429 . S
C1066 C1064 1.419 . S
C1066 C1067 1.363 . S
C1066 H1069 0.929 . S
C1067 C1066 1.363 . S
C1067 C1073 1.428 . S
H1068 C1064 0.930 . S
H1069 C1066 0.929 . S
S1070 N1071 1.613 . S
S1070 N1072 1.610 . S
N1071 S1070 1.613 . S
N1071 C1074 1.350 . S
N1072 S1070 1.610 . S
N1072 C1073 1.351 . S
C1073 C1067 1.428 . S
C1073 N1072 1.351 . S
C1073 C1074 1.434 . S
C1074 C1065 1.429 . S
C1074 N1071 1.350 . S
C1074 C1073 1.434 . S
C1075 C1076 1.369 . S
C1075 C1077 1.419 . S
C1075 H1079 0.930 . S
C1076 C1075 1.369 . S
C1076 C1085 1.429 . S
C1077 C1075 1.419 . S
C1077 C1078 1.363 . S
C1077 H1080 0.929 . S
C1078 C1077 1.363 . S
C1078 C1084 1.428 . S
H1079 C1075 0.930 . S
H1080 C1077 0.929 . S
S1081 N1082 1.613 . S
S1081 N1083 1.610 . S
N1082 S1081 1.613 . S
N1082 C1085 1.350 . S
N1083 S1081 1.610 . S
N1083 C1084 1.351 . S
C1084 C1078 1.428 . S
C1084 N1083 1.351 . S
C1084 C1085 1.434 . S
C1085 C1076 1.429 . S
C1085 N1082 1.350 . S
C1085 C1084 1.434 . S
C1086 C1087 1.369 . S
C1086 C1088 1.419 . S
C1086 H1090 0.930 . S
C1087 C1086 1.369 . S
C1087 C1096 1.429 . S
C1088 C1086 1.419 . S
C1088 C1089 1.363 . S
C1088 H1091 0.929 . S
C1089 C1088 1.363 . S
C1089 C1095 1.428 . S
H1090 C1086 0.930 . S
H1091 C1088 0.929 . S
S1092 N1093 1.613 . S
S1092 N1094 1.610 . S
N1093 S1092 1.613 . S
N1093 C1096 1.350 . S
N1094 S1092 1.610 . S
N1094 C1095 1.351 . S
C1095 C1089 1.428 . S
C1095 N1094 1.351 . S
C1095 C1096 1.434 . S
C1096 C1087 1.429 . S
C1096 N1093 1.350 . S
C1096 C1095 1.434 . S
C1097 C1098 1.369 . S
C1097 C1099 1.419 . S
C1097 H1101 0.930 . S
C1098 C1097 1.369 . S
C1098 C1107 1.429 . S
C1099 C1097 1.419 . S
C1099 C1100 1.363 . S
C1099 H1102 0.929 . S
C1100 C1099 1.363 . S
C1100 C1106 1.428 . S
H1101 C1097 0.930 . S
H1102 C1099 0.929 . S
S1103 N1104 1.613 . S
S1103 N1105 1.610 . S
N1104 S1103 1.613 . S
N1104 C1107 1.350 . S
N1105 S1103 1.610 . S
N1105 C1106 1.351 . S
C1106 C1100 1.428 . S
C1106 N1105 1.351 . S
C1106 C1107 1.434 . S
C1107 C1098 1.429 . S
C1107 N1104 1.350 . S
C1107 C1106 1.434 . S
C1108 C1109 1.369 . S
C1108 C1110 1.419 . S
C1108 H1112 0.930 . S
C1109 C1108 1.369 . S
C1109 C1118 1.429 . S
C1110 C1108 1.419 . S
C1110 C1111 1.363 . S
C1110 H1113 0.929 . S
C1111 C1110 1.363 . S
C1111 C1117 1.428 . S
H1112 C1108 0.930 . S
H1113 C1110 0.929 . S
S1114 N1115 1.613 . S
S1114 N1116 1.610 . S
N1115 S1114 1.613 . S
N1115 C1118 1.350 . S
N1116 S1114 1.610 . S
N1116 C1117 1.351 . S
C1117 C1111 1.428 . S
C1117 N1116 1.351 . S
C1117 C1118 1.434 . S
C1118 C1109 1.429 . S
C1118 N1115 1.350 . S
C1118 C1117 1.434 . S
C1119 C1120 1.369 . S
C1119 C1121 1.419 . S
C1119 H1123 0.930 . S
C1120 C1119 1.369 . S
C1120 C1129 1.429 . S
C1121 C1119 1.419 . S
C1121 C1122 1.363 . S
C1121 H1124 0.929 . S
C1122 C1121 1.363 . S
C1122 C1128 1.428 . S
H1123 C1119 0.930 . S
H1124 C1121 0.929 . S
S1125 N1126 1.613 . S
S1125 N1127 1.610 . S
N1126 S1125 1.613 . S
N1126 C1129 1.350 . S
N1127 S1125 1.610 . S
N1127 C1128 1.351 . S
C1128 C1122 1.428 . S
C1128 N1127 1.351 . S
C1128 C1129 1.434 . S
C1129 C1120 1.429 . S
C1129 N1126 1.350 . S
C1129 C1128 1.434 . S
C1130 C1131 1.369 . S
C1130 C1132 1.419 . S
C1130 H1134 0.930 . S
C1131 C1130 1.369 . S
C1131 C1140 1.429 . S
C1132 C1130 1.419 . S
C1132 C1133 1.363 . S
C1132 H1135 0.929 . S
C1133 C1132 1.363 . S
C1133 C1139 1.428 . S
H1134 C1130 0.930 . S
H1135 C1132 0.929 . S
S1136 N1137 1.613 . S
S1136 N1138 1.610 . S
N1137 S1136 1.613 . S
N1137 C1140 1.350 . S
N1138 S1136 1.610 . S
N1138 C1139 1.351 . S
C1139 C1133 1.428 . S
C1139 N1138 1.351 . S
C1139 C1140 1.434 . S
C1140 C1131 1.429 . S
C1140 N1137 1.350 . S
C1140 C1139 1.434 . S
C1141 C1142 1.369 . S
C1141 C1143 1.419 . S
C1141 H1145 0.930 . S
C1142 C1141 1.369 . S
C1142 C1151 1.429 . S
C1143 C1141 1.419 . S
C1143 C1144 1.363 . S
C1143 H1146 0.929 . S
C1144 C1143 1.363 . S
C1144 C1150 1.428 . S
H1145 C1141 0.930 . S
H1146 C1143 0.929 . S
S1147 N1148 1.613 . S
S1147 N1149 1.610 . S
N1148 S1147 1.613 . S
N1148 C1151 1.350 . S
N1149 S1147 1.610 . S
N1149 C1150 1.351 . S
C1150 C1144 1.428 . S
C1150 N1149 1.351 . S
C1150 C1151 1.434 . S
C1151 C1142 1.429 . S
C1151 N1148 1.350 . S
C1151 C1150 1.434 . S
C449 C93 1.477 . S
C451 C9 1.479 . S
C460 C23 1.481 . S
C462 C107 1.484 . S
C471 C65 1.483 . S
C473 C37 1.484 . S
C482 C51 1.485 . S
C484 C79 1.481 . S
C493 C205 1.477 . S
C495 C121 1.479 . S
C504 C219 1.481 . S
C506 C135 1.478 . S
C515 C149 1.481 . S
C517 C177 1.478 . S
C526 C163 1.481 . S
C528 C191 1.478 . S
C537 C233 1.479 . S
C539 C317 1.478 . S
C548 C247 1.477 . S
C550 C331 1.480 . S
C559 C289 1.483 . S
C561 C261 1.484 . S
C570 C303 1.480 . S
C572 C275 1.478 . S
C581 C345 1.479 . S
C583 C429 1.478 . S
C592 C443 1.484 . S
C594 C359 1.480 . S
C603 C401 1.482 . S
C605 C373 1.484 . S
C614 C387 1.483 . S
C616 C415 1.479 . S
C625 C3 1.318 . S
C627 C427 1.329 . S
C636 C217 1.330 . S
C638 C17 1.317 . S
C647 C31 1.315 . S
C649 C399 1.325 . S
C658 C45 1.314 . S
C660 C189 1.328 . S
C669 C371 1.325 . S
C671 C59 1.316 . S
C680 C161 1.326 . S
C682 C73 1.313 . S
C691 C87 1.318 . S
C693 C343 1.329 . S
C702 C133 1.326 . S
C704 C101 1.313 . S
C713 C115 1.312 . S
C715 C315 1.326 . S
C724 C105 1.329 . S
C726 C129 1.317 . S
C735 C143 1.319 . S
C737 C287 1.327 . S
C746 C157 1.314 . S
C748 C77 1.328 . S
C757 C259 1.328 . S
C759 C171 1.315 . S
C768 C185 1.318 . S
C770 C49 1.327 . S
C779 C199 1.318 . S
C781 C231 1.329 . S
C790 C21 1.329 . S
C792 C213 1.319 . S
C801 C227 1.319 . S
C803 C203 1.327 . S
C812 C241 1.320 . S
C814 C441 1.328 . S
C823 C175 1.329 . S
C825 C255 1.315 . S
C834 C269 1.313 . S
C836 C413 1.325 . S
C845 C147 1.326 . S
C847 C283 1.317 . S
C856 C385 1.330 . S
C858 C297 1.317 . S
C867 C119 1.328 . S
C869 C311 1.319 . S
C878 C357 1.329 . S
C880 C325 1.319 . S
C889 C339 1.312 . S
C891 C91 1.325 . S
C900 C329 1.329 . S
C902 C353 1.317 . S
C911 C63 1.324 . S
C913 C367 1.314 . S
C922 C381 1.312 . S
C924 C301 1.325 . S
C933 C395 1.312 . S
C935 C35 1.325 . S
C944 C409 1.312 . S
C946 C273 1.325 . S
C955 C7 1.327 . S
C957 C423 1.314 . S
C966 C437 1.315 . S
C968 C245 1.325 . S
C977 C8 1.458 . S
C979 C302 1.461 . S
C988 C316 1.459 . S
C990 C22 1.460 . S
C999 C36 1.460 . S
C1001 C330 1.460 . S
C1010 C288 1.461 . S
C1012 C50 1.459 . S
C1021 C274 1.460 . S
C1023 C64 1.460 . S
C1032 C232 1.461 . S
C1034 C78 1.458 . S
C1043 C246 1.461 . S
C1045 C92 1.458 . S
C1054 C260 1.461 . S
C1056 C106 1.458 . S
C1065 C120 1.458 . S
C1067 C414 1.459 . S
C1076 C428 1.457 . S
C1078 C134 1.460 . S
C1087 C442 1.461 . S
C1089 C148 1.458 . S
C1098 C400 1.458 . S
C1100 C162 1.461 . S
C1109 C386 1.458 . S
C1111 C176 1.461 . S
C1120 C344 1.460 . S
C1122 C190 1.460 . S
C1131 C204 1.459 . S
C1133 C358 1.460 . S
C1142 C218 1.459 . S
C1144 C372 1.460 . S
