# Generated by pormake.
# Topology wgj, (5)-cn, num edge types: 1
# Building blocks:
#     Node 0, Type 0, BuildingBlock: XOMCOT_clean_sbu_1, # of connection points: 5
#     Node 1, Type 0, BuildingBlock: XOMCOT_clean_sbu_1, # of connection points: 5
#     Node 2, Type 0, BuildingBlock: XOMCOT_clean_sbu_1, # of connection points: 5
#     Node 3, Type 0, BuildingBlock: XOMCOT_clean_sbu_1, # of connection points: 5
#     Node 4, Type 0, BuildingBlock: XOMCOT_clean_sbu_1, # of connection points: 5
#     Node 5, Type 0, BuildingBlock: XOMCOT_clean_sbu_1, # of connection points: 5
#     Node 6, Type 0, BuildingBlock: XOMCOT_clean_sbu_1, # of connection points: 5
#     Node 7, Type 0, BuildingBlock: XOMCOT_clean_sbu_1, # of connection points: 5
#     Node 8, Type 0, BuildingBlock: XOMCOT_clean_sbu_1, # of connection points: 5
#     Node 9, Type 0, BuildingBlock: XOMCOT_clean_sbu_1, # of connection points: 5
#     Node 10, Type 0, BuildingBlock: XOMCOT_clean_sbu_1, # of connection points: 5
#     Node 11, Type 0, BuildingBlock: XOMCOT_clean_sbu_1, # of connection points: 5
#     Node 12, Type 0, BuildingBlock: XOMCOT_clean_sbu_1, # of connection points: 5
#     Node 13, Type 0, BuildingBlock: XOMCOT_clean_sbu_1, # of connection points: 5
#     Node 14, Type 0, BuildingBlock: XOMCOT_clean_sbu_1, # of connection points: 5
#     Node 15, Type 0, BuildingBlock: XOMCOT_clean_sbu_1, # of connection points: 5
#     Node 16, Type 0, BuildingBlock: XOMCOT_clean_sbu_1, # of connection points: 5
#     Node 17, Type 0, BuildingBlock: XOMCOT_clean_sbu_1, # of connection points: 5
#     Node 18, Type 0, BuildingBlock: XOMCOT_clean_sbu_1, # of connection points: 5
#     Node 19, Type 0, BuildingBlock: XOMCOT_clean_sbu_1, # of connection points: 5
#     Node 20, Type 0, BuildingBlock: XOMCOT_clean_sbu_1, # of connection points: 5
#     Node 21, Type 0, BuildingBlock: XOMCOT_clean_sbu_1, # of connection points: 5
#     Node 22, Type 0, BuildingBlock: XOMCOT_clean_sbu_1, # of connection points: 5
#     Node 23, Type 0, BuildingBlock: XOMCOT_clean_sbu_1, # of connection points: 5
#     Node 24, Type 0, BuildingBlock: XOMCOT_clean_sbu_1, # of connection points: 5
#     Node 25, Type 0, BuildingBlock: XOMCOT_clean_sbu_1, # of connection points: 5
#     Node 26, Type 0, BuildingBlock: XOMCOT_clean_sbu_1, # of connection points: 5
#     Node 27, Type 0, BuildingBlock: XOMCOT_clean_sbu_1, # of connection points: 5
#     Node 28, Type 0, BuildingBlock: XOMCOT_clean_sbu_1, # of connection points: 5
#     Node 29, Type 0, BuildingBlock: XOMCOT_clean_sbu_1, # of connection points: 5
#     Node 30, Type 0, BuildingBlock: XOMCOT_clean_sbu_1, # of connection points: 5
#     Node 31, Type 0, BuildingBlock: XOMCOT_clean_sbu_1, # of connection points: 5
#     Edge 32, Type (0, 0), BuildingBlock: UVAHIK_clean_linker_0, # of connection points: 2
#     Edge 33, Type (0, 0), BuildingBlock: UVAHIK_clean_linker_0, # of connection points: 2
#     Edge 34, Type (0, 0), BuildingBlock: UVAHIK_clean_linker_0, # of connection points: 2
#     Edge 35, Type (0, 0), BuildingBlock: UVAHIK_clean_linker_0, # of connection points: 2
#     Edge 36, Type (0, 0), BuildingBlock: UVAHIK_clean_linker_0, # of connection points: 2
#     Edge 37, Type (0, 0), BuildingBlock: UVAHIK_clean_linker_0, # of connection points: 2
#     Edge 38, Type (0, 0), BuildingBlock: UVAHIK_clean_linker_0, # of connection points: 2
#     Edge 39, Type (0, 0), BuildingBlock: UVAHIK_clean_linker_0, # of connection points: 2
#     Edge 40, Type (0, 0), BuildingBlock: UVAHIK_clean_linker_0, # of connection points: 2
#     Edge 41, Type (0, 0), BuildingBlock: UVAHIK_clean_linker_0, # of connection points: 2
#     Edge 42, Type (0, 0), BuildingBlock: UVAHIK_clean_linker_0, # of connection points: 2
#     Edge 43, Type (0, 0), BuildingBlock: UVAHIK_clean_linker_0, # of connection points: 2
#     Edge 44, Type (0, 0), BuildingBlock: UVAHIK_clean_linker_0, # of connection points: 2
#     Edge 45, Type (0, 0), BuildingBlock: UVAHIK_clean_linker_0, # of connection points: 2
#     Edge 46, Type (0, 0), BuildingBlock: UVAHIK_clean_linker_0, # of connection points: 2
#     Edge 47, Type (0, 0), BuildingBlock: UVAHIK_clean_linker_0, # of connection points: 2
#     Edge 48, Type (0, 0), BuildingBlock: UVAHIK_clean_linker_0, # of connection points: 2
#     Edge 49, Type (0, 0), BuildingBlock: UVAHIK_clean_linker_0, # of connection points: 2
#     Edge 50, Type (0, 0), BuildingBlock: UVAHIK_clean_linker_0, # of connection points: 2
#     Edge 51, Type (0, 0), BuildingBlock: UVAHIK_clean_linker_0, # of connection points: 2
#     Edge 52, Type (0, 0), BuildingBlock: UVAHIK_clean_linker_0, # of connection points: 2
#     Edge 53, Type (0, 0), BuildingBlock: UVAHIK_clean_linker_0, # of connection points: 2
#     Edge 54, Type (0, 0), BuildingBlock: UVAHIK_clean_linker_0, # of connection points: 2
#     Edge 55, Type (0, 0), BuildingBlock: UVAHIK_clean_linker_0, # of connection points: 2
#     Edge 56, Type (0, 0), BuildingBlock: UVAHIK_clean_linker_0, # of connection points: 2
#     Edge 57, Type (0, 0), BuildingBlock: UVAHIK_clean_linker_0, # of connection points: 2
#     Edge 58, Type (0, 0), BuildingBlock: UVAHIK_clean_linker_0, # of connection points: 2
#     Edge 59, Type (0, 0), BuildingBlock: UVAHIK_clean_linker_0, # of connection points: 2
#     Edge 60, Type (0, 0), BuildingBlock: UVAHIK_clean_linker_0, # of connection points: 2
#     Edge 61, Type (0, 0), BuildingBlock: UVAHIK_clean_linker_0, # of connection points: 2
#     Edge 62, Type (0, 0), BuildingBlock: UVAHIK_clean_linker_0, # of connection points: 2
#     Edge 63, Type (0, 0), BuildingBlock: UVAHIK_clean_linker_0, # of connection points: 2
#     Edge 64, Type (0, 0), BuildingBlock: UVAHIK_clean_linker_0, # of connection points: 2
#     Edge 65, Type (0, 0), BuildingBlock: UVAHIK_clean_linker_0, # of connection points: 2
#     Edge 66, Type (0, 0), BuildingBlock: UVAHIK_clean_linker_0, # of connection points: 2
#     Edge 67, Type (0, 0), BuildingBlock: UVAHIK_clean_linker_0, # of connection points: 2
#     Edge 68, Type (0, 0), BuildingBlock: UVAHIK_clean_linker_0, # of connection points: 2
#     Edge 69, Type (0, 0), BuildingBlock: UVAHIK_clean_linker_0, # of connection points: 2
#     Edge 70, Type (0, 0), BuildingBlock: UVAHIK_clean_linker_0, # of connection points: 2
#     Edge 71, Type (0, 0), BuildingBlock: UVAHIK_clean_linker_0, # of connection points: 2
#     Edge 72, Type (0, 0), BuildingBlock: UVAHIK_clean_linker_0, # of connection points: 2
#     Edge 73, Type (0, 0), BuildingBlock: UVAHIK_clean_linker_0, # of connection points: 2
#     Edge 74, Type (0, 0), BuildingBlock: UVAHIK_clean_linker_0, # of connection points: 2
#     Edge 75, Type (0, 0), BuildingBlock: UVAHIK_clean_linker_0, # of connection points: 2
#     Edge 76, Type (0, 0), BuildingBlock: UVAHIK_clean_linker_0, # of connection points: 2
#     Edge 77, Type (0, 0), BuildingBlock: UVAHIK_clean_linker_0, # of connection points: 2
#     Edge 78, Type (0, 0), BuildingBlock: UVAHIK_clean_linker_0, # of connection points: 2
#     Edge 79, Type (0, 0), BuildingBlock: UVAHIK_clean_linker_0, # of connection points: 2
#     Edge 80, Type (0, 0), BuildingBlock: UVAHIK_clean_linker_0, # of connection points: 2
#     Edge 81, Type (0, 0), BuildingBlock: UVAHIK_clean_linker_0, # of connection points: 2
#     Edge 82, Type (0, 0), BuildingBlock: UVAHIK_clean_linker_0, # of connection points: 2
#     Edge 83, Type (0, 0), BuildingBlock: UVAHIK_clean_linker_0, # of connection points: 2
#     Edge 84, Type (0, 0), BuildingBlock: UVAHIK_clean_linker_0, # of connection points: 2
#     Edge 85, Type (0, 0), BuildingBlock: UVAHIK_clean_linker_0, # of connection points: 2
#     Edge 86, Type (0, 0), BuildingBlock: UVAHIK_clean_linker_0, # of connection points: 2
#     Edge 87, Type (0, 0), BuildingBlock: UVAHIK_clean_linker_0, # of connection points: 2
#     Edge 88, Type (0, 0), BuildingBlock: UVAHIK_clean_linker_0, # of connection points: 2
#     Edge 89, Type (0, 0), BuildingBlock: UVAHIK_clean_linker_0, # of connection points: 2
#     Edge 90, Type (0, 0), BuildingBlock: UVAHIK_clean_linker_0, # of connection points: 2
#     Edge 91, Type (0, 0), BuildingBlock: UVAHIK_clean_linker_0, # of connection points: 2
#     Edge 92, Type (0, 0), BuildingBlock: UVAHIK_clean_linker_0, # of connection points: 2
#     Edge 93, Type (0, 0), BuildingBlock: UVAHIK_clean_linker_0, # of connection points: 2
#     Edge 94, Type (0, 0), BuildingBlock: UVAHIK_clean_linker_0, # of connection points: 2
#     Edge 95, Type (0, 0), BuildingBlock: UVAHIK_clean_linker_0, # of connection points: 2
#     Edge 96, Type (0, 0), BuildingBlock: UVAHIK_clean_linker_0, # of connection points: 2
#     Edge 97, Type (0, 0), BuildingBlock: UVAHIK_clean_linker_0, # of connection points: 2
#     Edge 98, Type (0, 0), BuildingBlock: UVAHIK_clean_linker_0, # of connection points: 2
#     Edge 99, Type (0, 0), BuildingBlock: UVAHIK_clean_linker_0, # of connection points: 2
#     Edge 100, Type (0, 0), BuildingBlock: UVAHIK_clean_linker_0, # of connection points: 2
#     Edge 101, Type (0, 0), BuildingBlock: UVAHIK_clean_linker_0, # of connection points: 2
#     Edge 102, Type (0, 0), BuildingBlock: UVAHIK_clean_linker_0, # of connection points: 2
#     Edge 103, Type (0, 0), BuildingBlock: UVAHIK_clean_linker_0, # of connection points: 2
#     Edge 104, Type (0, 0), BuildingBlock: UVAHIK_clean_linker_0, # of connection points: 2
#     Edge 105, Type (0, 0), BuildingBlock: UVAHIK_clean_linker_0, # of connection points: 2
#     Edge 106, Type (0, 0), BuildingBlock: UVAHIK_clean_linker_0, # of connection points: 2
#     Edge 107, Type (0, 0), BuildingBlock: UVAHIK_clean_linker_0, # of connection points: 2
#     Edge 108, Type (0, 0), BuildingBlock: UVAHIK_clean_linker_0, # of connection points: 2
#     Edge 109, Type (0, 0), BuildingBlock: UVAHIK_clean_linker_0, # of connection points: 2
#     Edge 110, Type (0, 0), BuildingBlock: UVAHIK_clean_linker_0, # of connection points: 2
#     Edge 111, Type (0, 0), BuildingBlock: UVAHIK_clean_linker_0, # of connection points: 2
# Relax obj value: 0.238
# Max RMSD: 0.139
# Mean RMSD: 0.139
data_MOF--net-wgj--node1-XOMCOT_clean_sbu_1--edge1-UVAHIK_clean_linker_0
_symmetry_space_group_name_H-M    P1
_symmetry_Int_Tables_number       1
_symmetry_cell_setting            triclinic
loop_
_symmetry_equiv_pos_as_xyz
'x, y, z'
_cell_length_a     85.081906
_cell_length_b     85.075248
_cell_length_c     39.304282
_cell_angle_alpha  89.98053
_cell_angle_beta   89.979361
_cell_angle_gamma 89.962887
loop_
_atom_site_label
_atom_site_type_symbol
_atom_site_fract_x
_atom_site_fract_y
_atom_site_fract_z
_atom_type_partial_charge
C0 C 0.17867 0.17821 0.28333 0.0
C1 C 0.18991 0.18749 0.26832 0.0
N2 N 0.20017 0.19206 0.29248 0.0
N3 N 0.18183 0.17685 0.31676 0.0
C4 C 0.19506 0.18532 0.32161 0.0
H5 H 0.16849 0.17323 0.27092 0.0
Co6 Co 0.16844 0.16669 0.34658 0.0
C7 C 0.18559 0.16444 0.41259 0.0
O8 O 0.17231 0.16811 0.42775 0.0
N9 N 0.15422 0.15594 0.3755 0.0
C10 C 0.14319 0.13662 0.40559 0.0
C11 C 0.15709 0.14257 0.39306 0.0
C12 C 0.1384 0.15753 0.37691 0.0
N13 N 0.13144 0.146 0.39503 0.0
O14 O 0.1733 0.1471 0.32392 0.0
H15 H 0.16847 0.13695 0.39496 0.0
H16 H 0.13185 0.1663 0.36312 0.0
O17 O 0.18597 0.16358 0.37994 0.0
C18 C 0.16212 0.14229 0.30487 0.0
O19 O 0.14867 0.14988 0.30551 0.0
N20 N 0.1628 0.18653 0.36478 0.0
C21 C 0.15348 0.21788 0.37492 0.0
C22 C 0.16755 0.2121 0.38895 0.0
C23 C 0.17207 0.19649 0.38333 0.0
C24 C 0.14938 0.19209 0.3502 0.0
C25 C 0.14425 0.20745 0.35579 0.0
H26 H 0.18352 0.19296 0.39208 0.0
H27 H 0.14301 0.18481 0.33244 0.0
H28 H 0.20064 0.18684 0.3461 0.0
H29 H 0.19004 0.19125 0.242 0.0
H30 H 0.14171 0.12565 0.41918 0.0
H31 H 0.17549 0.21976 0.40262 0.0
H32 H 0.13333 0.21117 0.3442 0.0
C33 C 0.08316 0.92958 0.53094 0.0
C34 C 0.07277 0.93995 0.51652 0.0
N35 N 0.06641 0.94876 0.54148 0.0
N36 N 0.08353 0.93189 0.56481 0.0
C37 C 0.07324 0.9437 0.57058 0.0
H38 H 0.08962 0.92051 0.5177 0.0
Co39 Co 0.09439 0.91867 0.59382 0.0
C40 C 0.09906 0.9364 0.65932 0.0
O41 O 0.09795 0.92318 0.67643 0.0
N42 N 0.10565 0.90458 0.62162 0.0
C43 C 0.1256 0.8929 0.64825 0.0
C44 C 0.11983 0.90696 0.63621 0.0
C45 C 0.10333 0.88889 0.62416 0.0
N46 N 0.11525 0.88153 0.64029 0.0
O47 O 0.11366 0.92407 0.57022 0.0
H48 H 0.126 0.91808 0.63639 0.0
H49 H 0.09362 0.88277 0.61248 0.0
O50 O 0.09745 0.93633 0.62682 0.0
C51 C 0.11895 0.91303 0.55136 0.0
O52 O 0.11187 0.89932 0.55185 0.0
N53 N 0.07504 0.91249 0.61308 0.0
C54 C 0.04403 0.90285 0.62392 0.0
C55 C 0.05063 0.9149 0.6436 0.0
C56 C 0.06609 0.91979 0.63732 0.0
C57 C 0.06879 0.90062 0.59417 0.0
C58 C 0.05337 0.89557 0.59919 0.0
H59 H 0.0702 0.93005 0.65053 0.0
H60 H 0.07567 0.89549 0.57384 0.0
H61 H 0.07021 0.94792 0.59571 0.0
H62 H 0.0699 0.9407 0.48975 0.0
H63 H 0.13702 0.891 0.65966 0.0
H64 H 0.04362 0.9211 0.66227 0.0
H65 H 0.04867 0.88631 0.58326 0.0
C66 C 0.33306 0.83343 0.782 0.0
C67 C 0.32242 0.82367 0.76652 0.0
N68 N 0.31249 0.81816 0.79043 0.0
N69 N 0.32985 0.83422 0.81549 0.0
C70 C 0.31717 0.82488 0.81993 0.0
H71 H 0.34288 0.8392 0.7698 0.0
Co72 Co 0.343 0.84461 0.84536 0.0
C73 C 0.32543 0.8479 0.91086 0.0
O74 O 0.33866 0.84486 0.92682 0.0
N75 N 0.35704 0.85551 0.87411 0.0
C76 C 0.36824 0.87509 0.90294 0.0
C77 C 0.35431 0.86924 0.89041 0.0
C78 C 0.3728 0.85358 0.87624 0.0
N79 N 0.37987 0.86528 0.89364 0.0
O80 O 0.33814 0.8641 0.82214 0.0
H81 H 0.34305 0.87512 0.89139 0.0
H82 H 0.37922 0.84439 0.86339 0.0
O83 O 0.32525 0.84792 0.87814 0.0
C84 C 0.34932 0.86935 0.80367 0.0
O85 O 0.36298 0.86217 0.80443 0.0
N86 N 0.3486 0.82491 0.86438 0.0
C87 C 0.35779 0.79375 0.8767 0.0
C88 C 0.34426 0.80003 0.89196 0.0
C89 C 0.33969 0.81549 0.88497 0.0
C90 C 0.36163 0.81889 0.84893 0.0
C91 C 0.36658 0.80349 0.85511 0.0
H92 H 0.32849 0.81929 0.8946 0.0
H93 H 0.36779 0.82584 0.83014 0.0
H94 H 0.31197 0.82245 0.84448 0.0
H95 H 0.32224 0.82066 0.73978 0.0
H96 H 0.36985 0.88627 0.91562 0.0
H97 H 0.33693 0.7929 0.90839 0.0
H98 H 0.37676 0.79903 0.84165 0.0
C99 C 0.42869 0.08238 0.03204 0.0
C100 C 0.4382 0.07122 1.01742 0.0
N101 N 0.44334 0.0615 0.04209 0.0
N102 N 0.42773 0.07968 0.06573 0.0
C103 C 0.43674 0.06685 0.07117 0.0
H104 H 0.42323 0.09219 1.01912 0.0
Co105 Co 0.4173 0.0931 0.09501 0.0
C106 C 0.41457 0.07612 0.1613 0.0
O107 O 0.4177 0.0895 0.17659 0.0
N108 N 0.40633 0.10731 0.12336 0.0
C109 C 0.3868 0.11842 0.15259 0.0
C110 C 0.39274 0.10451 0.14014 0.0
C111 C 0.40809 0.1231 0.12512 0.0
N112 N 0.39642 0.13011 0.14276 0.0
O113 O 0.39785 0.08793 0.07211 0.0
H114 H 0.38703 0.09317 0.14161 0.0
H115 H 0.41714 0.12957 0.11196 0.0
O116 O 0.41423 0.07567 0.12862 0.0
C117 C 0.39283 0.099 0.05298 0.0
O118 O 0.40011 0.11261 0.05367 0.0
N119 N 0.43697 0.09906 0.11342 0.0
C120 C 0.46806 0.10882 0.12361 0.0
C121 C 0.46221 0.09538 0.13997 0.0
C122 C 0.44674 0.0905 0.13399 0.0
C123 C 0.4426 0.112 0.09704 0.0
C124 C 0.45796 0.11724 0.10215 0.0
H125 H 0.44322 0.07931 0.1442 0.0
H126 H 0.43535 0.11788 0.07838 0.0
H127 H 0.4387 0.06173 0.096 0.0
H128 H 0.44166 0.07079 0.99094 0.0
H129 H 0.3757 0.11996 0.16566 0.0
H130 H 0.46979 0.08817 0.15567 0.0
H131 H 0.462 0.12756 0.08858 0.0
C132 C 0.17894 0.8322 0.25209 0.0
C133 C 0.18989 0.82245 0.26668 0.0
N134 N 0.19976 0.81745 0.24215 0.0
N135 N 0.18191 0.83345 0.21854 0.0
C136 C 0.1947 0.82436 0.21316 0.0
H137 H 0.16911 0.83766 0.26491 0.0
Co138 Co 0.16877 0.84445 0.18959 0.0
C139 C 0.18607 0.84822 0.12399 0.0
O140 O 0.17268 0.84561 0.10828 0.0
N141 N 0.15484 0.856 0.16168 0.0
C142 C 0.14422 0.87657 0.13523 0.0
C143 C 0.15793 0.87006 0.14718 0.0
C144 C 0.13906 0.85442 0.15874 0.0
N145 N 0.13227 0.86678 0.14282 0.0
O146 O 0.17398 0.86351 0.21402 0.0
H147 H 0.16934 0.87566 0.14701 0.0
H148 H 0.13243 0.84515 0.17072 0.0
O149 O 0.18644 0.84789 0.15669 0.0
C150 C 0.16284 0.86849 0.23302 0.0
O151 O 0.14914 0.86143 0.23157 0.0
N152 N 0.16282 0.82513 0.16951 0.0
C153 C 0.15334 0.79413 0.1567 0.0
C154 C 0.16696 0.8003 0.14159 0.0
C155 C 0.17166 0.81569 0.14879 0.0
C156 C 0.14966 0.81924 0.18465 0.0
C157 C 0.14457 0.80392 0.17822 0.0
H158 H 0.18292 0.81941 0.13933 0.0
H159 H 0.14356 0.82618 0.20351 0.0
H160 H 0.20001 0.8226 0.18846 0.0
H161 H 0.1901 0.81876 0.29303 0.0
H162 H 0.1431 0.88796 0.12323 0.0
H163 H 0.17426 0.79312 0.12522 0.0
H164 H 0.13433 0.79954 0.19154 0.0
C165 C 0.42921 0.92905 0.50253 0.0
C166 C 0.43903 0.93993 0.51711 0.0
N167 N 0.44395 0.94986 0.49262 0.0
N168 N 0.42785 0.93213 0.46905 0.0
C169 C 0.43693 0.94491 0.4637 0.0
H170 H 0.42377 0.9192 0.5153 0.0
Co171 Co 0.41668 0.91924 0.44 0.0
C172 C 0.41278 0.93692 0.3749 0.0
O173 O 0.41519 0.92361 0.35875 0.0
N174 N 0.40494 0.90556 0.41196 0.0
C175 C 0.38419 0.89526 0.38566 0.0
C176 C 0.39084 0.90885 0.39788 0.0
C177 C 0.40642 0.88979 0.40848 0.0
N178 N 0.39395 0.88321 0.39265 0.0
O179 O 0.39774 0.92447 0.4649 0.0
H180 H 0.38531 0.9203 0.39819 0.0
H181 H 0.41571 0.88302 0.42003 0.0
O182 O 0.41326 0.9371 0.4076 0.0
C183 C 0.39275 0.91329 0.48375 0.0
O184 O 0.39968 0.89952 0.48179 0.0
N185 N 0.43589 0.91322 0.41946 0.0
C186 C 0.46688 0.90372 0.4064 0.0
C187 C 0.46071 0.91738 0.39146 0.0
C188 C 0.44532 0.92209 0.39879 0.0
C189 C 0.44177 0.89999 0.43432 0.0
C190 C 0.45708 0.89489 0.42778 0.0
H191 H 0.44162 0.93339 0.3895 0.0
H192 H 0.43483 0.89383 0.45311 0.0
H193 H 0.4386 0.95031 0.43905 0.0
H194 H 0.44281 0.94006 0.54339 0.0
H195 H 0.37274 0.8943 0.3739 0.0
H196 H 0.46788 0.92472 0.37516 0.0
H197 H 0.46146 0.8846 0.44096 0.0
C198 C 0.33274 0.17839 0.75461 0.0
C199 C 0.3223 0.18843 0.76995 0.0
N200 N 0.31247 0.19406 0.74598 0.0
N201 N 0.32949 0.17753 0.72115 0.0
C202 C 0.317 0.18712 0.71658 0.0
H203 H 0.34246 0.17248 0.76687 0.0
Co204 Co 0.34251 0.16683 0.69144 0.0
C205 C 0.32481 0.16339 0.6261 0.0
O206 O 0.33806 0.16611 0.60991 0.0
N207 N 0.35645 0.15565 0.66288 0.0
C208 C 0.36751 0.13583 0.63447 0.0
C209 C 0.35362 0.14188 0.64685 0.0
C210 C 0.37223 0.15741 0.66076 0.0
N211 N 0.37921 0.14557 0.64362 0.0
O212 O 0.33746 0.14751 0.71509 0.0
H213 H 0.34231 0.1361 0.64596 0.0
H214 H 0.37871 0.16659 0.67345 0.0
O215 O 0.32469 0.1636 0.65881 0.0
C216 C 0.3486 0.14222 0.73365 0.0
O217 O 0.36231 0.14926 0.73273 0.0
N218 N 0.34833 0.18636 0.67201 0.0
C219 C 0.35781 0.21739 0.65936 0.0
C220 C 0.34428 0.2112 0.64398 0.0
C221 C 0.33957 0.1958 0.65111 0.0
C222 C 0.36136 0.19231 0.68752 0.0
C223 C 0.36646 0.20763 0.68118 0.0
H224 H 0.32837 0.19207 0.64138 0.0
H225 H 0.3674 0.18536 0.70649 0.0
H226 H 0.31184 0.18958 0.69201 0.0
H227 H 0.32221 0.19157 0.79662 0.0
H228 H 0.36904 0.12459 0.62201 0.0
H229 H 0.33706 0.21835 0.62738 0.0
H230 H 0.37663 0.21204 0.69472 0.0
C231 C 0.08123 0.08191 1.00377 0.0
C232 C 0.07119 0.07122 1.01833 0.0
N233 N 0.06629 0.06123 0.99395 0.0
N234 N 0.08277 0.07864 0.97042 0.0
C235 C 0.07352 0.06598 0.96508 0.0
H236 H 0.0867 0.09176 1.01645 0.0
Co237 Co 0.09427 0.09128 0.94148 0.0
C238 C 0.09934 0.07299 0.87723 0.0
O239 O 0.09806 0.08612 0.85986 0.0
N240 N 0.10628 0.10478 0.91366 0.0
C241 C 0.12728 0.11528 0.88866 0.0
C242 C 0.12067 0.10164 0.90082 0.0
C243 C 0.1046 0.1205 0.90959 0.0
N244 N 0.11721 0.12721 0.89451 0.0
O245 O 0.113 0.086 0.96708 0.0
H246 H 0.12638 0.09029 0.90192 0.0
H247 H 0.09501 0.12716 0.92025 0.0
O248 O 0.09775 0.0732 0.90975 0.0
C249 C 0.11803 0.09717 0.98587 0.0
O250 O 0.11112 0.11095 0.98409 0.0
N251 N 0.07531 0.09731 0.9201 0.0
C252 C 0.0444 0.1067 0.90605 0.0
C253 C 0.05087 0.0933 0.89057 0.0
C254 C 0.06625 0.08867 0.89829 0.0
C255 C 0.06917 0.11034 0.93531 0.0
C256 C 0.05389 0.11538 0.92832 0.0
H257 H 0.07021 0.07757 0.88839 0.0
H258 H 0.0759 0.11637 0.95464 0.0
H259 H 0.0719 0.06053 0.94047 0.0
H260 H 0.06727 0.07126 0.04453 0.0
H261 H 0.13891 0.11635 0.87775 0.0
H262 H 0.04392 0.08611 0.87355 0.0
H263 H 0.04929 0.12547 0.94183 0.0
C264 C 0.83098 0.83346 0.75633 0.0
C265 C 0.8198 0.82391 0.7707 0.0
N266 N 0.81024 0.81872 0.7458 0.0
N267 N 0.82846 0.83439 0.72256 0.0
C268 C 0.8157 0.82534 0.71685 0.0
H269 H 0.84071 0.83892 0.76946 0.0
Co270 Co 0.84206 0.8447 0.69344 0.0
C271 C 0.82494 0.8484 0.62744 0.0
O272 O 0.83823 0.84531 0.61172 0.0
N273 N 0.85646 0.85551 0.66532 0.0
C274 C 0.86794 0.8751 0.63701 0.0
C275 C 0.85392 0.86934 0.64924 0.0
C276 C 0.8722 0.85342 0.66336 0.0
N277 N 0.87944 0.86512 0.64627 0.0
O278 O 0.83734 0.86413 0.71695 0.0
H279 H 0.84272 0.87533 0.64818 0.0
H280 H 0.87847 0.84408 0.67606 0.0
O281 O 0.82461 0.84835 0.66015 0.0
C282 C 0.84853 0.86888 0.73604 0.0
O283 O 0.86201 0.86137 0.7351 0.0
N284 N 0.84755 0.82501 0.67433 0.0
C285 C 0.85635 0.79368 0.66294 0.0
C286 C 0.84307 0.8001 0.64695 0.0
C287 C 0.83871 0.81567 0.65341 0.0
C288 C 0.86035 0.81885 0.69036 0.0
C289 C 0.86511 0.80336 0.68466 0.0
H290 H 0.82768 0.81964 0.64316 0.0
H291 H 0.86644 0.82576 0.70929 0.0
H292 H 0.81073 0.82333 0.69192 0.0
H293 H 0.81926 0.82041 0.79715 0.0
H294 H 0.8697 0.88631 0.62454 0.0
H295 H 0.83579 0.79301 0.63039 0.0
H296 H 0.87509 0.79879 0.69863 0.0
C297 C 0.92758 0.08244 0.50673 0.0
C298 C 0.93772 0.072 0.52174 0.0
N299 N 0.94367 0.06257 0.49737 0.0
N300 N 0.92699 0.0796 0.47307 0.0
C301 C 0.93685 0.06736 0.46804 0.0
H302 H 0.9214 0.09189 0.51938 0.0
Co303 Co 0.91614 0.09259 0.4436 0.0
C304 C 0.91318 0.07529 0.37769 0.0
O305 O 0.91554 0.08873 0.36197 0.0
N306 N 0.90479 0.10642 0.41521 0.0
C307 C 0.88445 0.11702 0.38797 0.0
C308 C 0.89086 0.1033 0.40017 0.0
C309 C 0.90639 0.1222 0.41232 0.0
N310 N 0.89416 0.12897 0.39594 0.0
O311 O 0.89684 0.08699 0.46676 0.0
H312 H 0.88529 0.09188 0.39975 0.0
H313 H 0.9156 0.1288 0.42462 0.0
O314 O 0.91343 0.07493 0.41039 0.0
C315 C 0.89137 0.09799 0.48546 0.0
O316 O 0.89826 0.11179 0.48488 0.0
N317 N 0.93559 0.09898 0.42488 0.0
C318 C 0.96661 0.10897 0.41529 0.0
C319 C 0.96073 0.09598 0.3975 0.0
C320 C 0.94531 0.09091 0.40327 0.0
C321 C 0.94119 0.11169 0.44218 0.0
C322 C 0.95658 0.11694 0.43767 0.0
H323 H 0.94182 0.07993 0.3921 0.0
H324 H 0.93386 0.11729 0.46114 0.0
H325 H 0.93954 0.06256 0.44323 0.0
H326 H 0.94065 0.07159 0.54851 0.0
H327 H 0.87317 0.11813 0.37551 0.0
H328 H 0.9683 0.08918 0.38091 0.0
H329 H 0.96075 0.12689 0.45231 0.0
C330 C 0.68058 0.17804 0.25639 0.0
C331 C 0.69142 0.18803 0.27051 0.0
N332 N 0.70076 0.19349 0.24546 0.0
N333 N 0.68309 0.17709 0.22264 0.0
C334 C 0.69548 0.18661 0.21663 0.0
H335 H 0.67109 0.17223 0.26971 0.0
Co336 Co 0.66992 0.16606 0.19397 0.0
C337 C 0.68701 0.16254 0.12786 0.0
O338 O 0.67354 0.1648 0.11222 0.0
N339 N 0.65596 0.15451 0.16632 0.0
C340 C 0.64527 0.13417 0.13935 0.0
C341 C 0.65902 0.14056 0.15138 0.0
C342 C 0.64018 0.15613 0.1637 0.0
N343 N 0.63332 0.1439 0.14743 0.0
O344 O 0.67551 0.14695 0.21793 0.0
H345 H 0.67045 0.13498 0.15077 0.0
H346 H 0.63368 0.1654 0.176 0.0
O347 O 0.68744 0.16298 0.16054 0.0
C348 C 0.6645 0.1419 0.23718 0.0
O349 O 0.65075 0.14892 0.23614 0.0
N350 N 0.66352 0.18537 0.17457 0.0
C351 C 0.65349 0.21632 0.16401 0.0
C352 C 0.66642 0.21029 0.1462 0.0
C353 C 0.67152 0.19491 0.15247 0.0
C354 C 0.65088 0.19113 0.19189 0.0
C355 C 0.6456 0.20649 0.1869 0.0
H356 H 0.68247 0.19132 0.14125 0.0
H357 H 0.64536 0.18397 0.21124 0.0
H358 H 0.70031 0.18872 0.19159 0.0
H359 H 0.69189 0.19157 0.29693 0.0
H360 H 0.64421 0.12292 0.1268 0.0
H361 H 0.67316 0.21774 0.12923 0.0
H362 H 0.63572 0.21079 0.20159 0.0
C363 C 0.58383 0.93077 1.00653 0.0
C364 C 0.57405 0.94188 0.02042 0.0
N365 N 0.56855 0.95105 0.9951 0.0
N366 N 0.58464 0.93295 0.97266 0.0
C367 C 0.57522 0.9454 0.96635 0.0
H368 H 0.58951 0.92127 0.02008 0.0
Co369 Co 0.59504 0.91923 0.94401 0.0
C370 C 0.59853 0.93601 0.87731 0.0
O371 O 0.59593 0.92261 0.86166 0.0
N372 N 0.60588 0.9047 0.91635 0.0
C373 C 0.62528 0.89297 0.88793 0.0
C374 C 0.61967 0.90708 0.90006 0.0
C375 C 0.60366 0.88897 0.91468 0.0
N376 N 0.61524 0.88159 0.89747 0.0
O377 O 0.61453 0.92444 0.96675 0.0
H378 H 0.6257 0.91825 0.89863 0.0
H379 H 0.59425 0.88284 0.92748 0.0
O380 O 0.59827 0.93643 0.90999 0.0
C381 C 0.61946 0.91347 0.98626 0.0
O382 O 0.61189 0.90003 0.98668 0.0
N383 N 0.57539 0.91324 0.92576 0.0
C384 C 0.54426 0.90365 0.91627 0.0
C385 C 0.55047 0.9162 0.89749 0.0
C386 C 0.56597 0.92109 0.90321 0.0
C387 C 0.56944 0.90103 0.94416 0.0
C388 C 0.55398 0.89598 0.93971 0.0
H389 H 0.56976 0.93175 0.89107 0.0
H390 H 0.57657 0.89563 0.96372 0.0
H391 H 0.57297 0.94996 0.94113 0.0
H392 H 0.57061 0.9426 0.04689 0.0
H393 H 0.63641 0.89109 0.87519 0.0
H394 H 0.54313 0.92278 0.88003 0.0
H395 H 0.54955 0.88639 0.9551 0.0
C396 C 0.83266 0.17861 0.78391 0.0
C397 C 0.82169 0.18835 0.76933 0.0
N398 N 0.81197 0.19353 0.79396 0.0
N399 N 0.82984 0.17755 0.81754 0.0
C400 C 0.81713 0.18673 0.82299 0.0
H401 H 0.8424 0.17302 0.771 0.0
Co402 Co 0.84294 0.16663 0.84668 0.0
C403 C 0.82577 0.16373 0.91264 0.0
O404 O 0.83919 0.16641 0.92815 0.0
N405 N 0.85681 0.15514 0.87486 0.0
C406 C 0.86722 0.13462 0.90192 0.0
C407 C 0.85355 0.14126 0.89 0.0
C408 C 0.87262 0.1565 0.87747 0.0
N409 N 0.87927 0.14416 0.89372 0.0
O410 O 0.83741 0.14745 0.82307 0.0
H411 H 0.84206 0.13584 0.89058 0.0
H412 H 0.87935 0.16556 0.86501 0.0
O413 O 0.82536 0.16369 0.87995 0.0
C414 C 0.84844 0.14228 0.80401 0.0
O415 O 0.8622 0.14924 0.80505 0.0
N416 N 0.84926 0.18603 0.8658 0.0
C417 C 0.85933 0.21702 0.8763 0.0
C418 C 0.84574 0.2113 0.89231 0.0
C419 C 0.84073 0.19588 0.88624 0.0
C420 C 0.8624 0.19149 0.8499 0.0
C421 C 0.8678 0.20678 0.85519 0.0
H422 H 0.82945 0.19248 0.89618 0.0
H423 H 0.8683 0.18417 0.83138 0.0
H424 H 0.81194 0.18863 0.84776 0.0
H425 H 0.82137 0.19191 0.74289 0.0
H426 H 0.86822 0.12331 0.91429 0.0
H427 H 0.83849 0.21896 0.90776 0.0
H428 H 0.87827 0.21067 0.84198 0.0
C429 C 0.58406 0.08031 0.53322 0.0
C430 C 0.57453 0.06911 0.51888 0.0
N431 N 0.56903 0.05978 0.54389 0.0
N432 N 0.58469 0.07801 0.56708 0.0
C433 C 0.57543 0.06541 0.57292 0.0
H434 H 0.5897 0.08992 0.51998 0.0
Co435 Co 0.59482 0.09174 0.59611 0.0
C436 C 0.59787 0.07501 0.66289 0.0
O437 O 0.59493 0.08841 0.67827 0.0
N438 N 0.60541 0.10627 0.62415 0.0
C439 C 0.62465 0.11792 0.65315 0.0
C440 C 0.61908 0.10384 0.64089 0.0
C441 C 0.60324 0.12201 0.6257 0.0
N442 N 0.61473 0.12935 0.64325 0.0
O443 O 0.61448 0.08663 0.5739 0.0
H444 H 0.62507 0.09265 0.6425 0.0
H445 H 0.59397 0.12818 0.61252 0.0
O446 O 0.59793 0.07452 0.63021 0.0
C447 C 0.61952 0.09762 0.5546 0.0
O448 O 0.61193 0.11107 0.55403 0.0
N449 N 0.575 0.09762 0.61386 0.0
C450 C 0.54376 0.10705 0.62284 0.0
C451 C 0.5499 0.09436 0.64129 0.0
C452 C 0.56545 0.08956 0.6358 0.0
C453 C 0.5691 0.10995 0.59573 0.0
C454 C 0.55359 0.11492 0.59992 0.0
H455 H 0.56919 0.0788 0.64762 0.0
H456 H 0.57632 0.1155 0.57652 0.0
H457 H 0.57312 0.06071 0.598 0.0
H458 H 0.57128 0.06843 0.49231 0.0
H459 H 0.6357 0.11976 0.66619 0.0
H460 H 0.54248 0.08763 0.65831 0.0
H461 H 0.54921 0.12461 0.58475 0.0
C462 C 0.67863 0.83186 0.28555 0.0
C463 C 0.68961 0.82216 0.27091 0.0
N464 N 0.69962 0.81732 0.29534 0.0
N465 N 0.6817 0.83323 0.31902 0.0
C466 C 0.69459 0.82428 0.32431 0.0
H467 H 0.6687 0.83719 0.27283 0.0
Co468 Co 0.66859 0.84419 0.34802 0.0
C469 C 0.68588 0.84788 0.41359 0.0
O470 O 0.67251 0.84519 0.4293 0.0
N471 N 0.65466 0.85571 0.37596 0.0
C472 C 0.64401 0.8763 0.40231 0.0
C473 C 0.65776 0.86974 0.39058 0.0
C474 C 0.63886 0.8542 0.37863 0.0
N475 N 0.63207 0.86657 0.39447 0.0
O476 O 0.6738 0.86327 0.32361 0.0
H477 H 0.66918 0.87531 0.3909 0.0
H478 H 0.63224 0.845 0.36641 0.0
O479 O 0.68626 0.84761 0.38089 0.0
C480 C 0.6627 0.86826 0.30455 0.0
O481 O 0.64898 0.86121 0.30592 0.0
N482 N 0.66263 0.82484 0.36805 0.0
C483 C 0.65326 0.79376 0.38049 0.0
C484 C 0.66688 0.79992 0.39558 0.0
C485 C 0.67152 0.81535 0.38856 0.0
C486 C 0.64947 0.81896 0.35296 0.0
C487 C 0.64442 0.80361 0.35922 0.0
H488 H 0.68279 0.81907 0.39796 0.0
H489 H 0.64333 0.82593 0.33419 0.0
H490 H 0.70001 0.82264 0.34895 0.0
H491 H 0.68976 0.81839 0.24462 0.0
H492 H 0.64289 0.8877 0.41425 0.0
H493 H 0.67424 0.79269 0.41175 0.0
H494 H 0.63418 0.79924 0.3459 0.0
C495 C 0.92877 0.92813 0.0364 0.0
C496 C 0.93834 0.93915 0.0215 0.0
N497 N 0.94291 0.94942 0.04563 0.0
N498 N 0.9272 0.93146 0.0697 0.0
C499 C 0.93593 0.94452 0.07467 0.0
H500 H 0.92365 0.91802 0.02398 0.0
Co501 Co 0.9163 0.91846 0.09896 0.0
C502 C 0.91287 0.93592 0.16445 0.0
O503 O 0.91557 0.92258 0.18031 0.0
N504 N 0.90483 0.90462 0.12717 0.0
C505 C 0.88432 0.89413 0.15406 0.0
C506 C 0.89086 0.90782 0.14202 0.0
C507 C 0.9063 0.88883 0.12999 0.0
N508 N 0.89399 0.88213 0.14618 0.0
O509 O 0.89717 0.92372 0.07487 0.0
H510 H 0.88534 0.91927 0.14234 0.0
H511 H 0.91546 0.88214 0.11773 0.0
O512 O 0.91302 0.93619 0.13174 0.0
C513 C 0.89209 0.91266 0.05583 0.0
O514 O 0.89919 0.89896 0.05669 0.0
N515 N 0.9357 0.91248 0.11873 0.0
C516 C 0.96686 0.90319 0.13061 0.0
C517 C 0.96074 0.91685 0.1456 0.0
C518 C 0.94527 0.92146 0.13884 0.0
C519 C 0.94154 0.89925 0.10378 0.0
C520 C 0.95693 0.89424 0.10976 0.0
H521 H 0.94159 0.93278 0.14806 0.0
H522 H 0.9345 0.89304 0.08525 0.0
H523 H 0.93738 0.95015 0.09913 0.0
H524 H 0.94221 0.93915 0.99527 0.0
H525 H 0.87298 0.89309 0.16631 0.0
H526 H 0.96802 0.92429 0.16146 0.0
H527 H 0.96126 0.88396 0.09651 0.0
C528 C 0.68103 0.67727 0.78163 0.0
C529 C 0.69228 0.68691 0.76783 0.0
N530 N 0.70132 0.69246 0.79328 0.0
N531 N 0.68301 0.6766 0.81558 0.0
C532 C 0.69547 0.68596 0.82202 0.0
H533 H 0.67159 0.67159 0.76794 0.0
Co534 Co 0.66911 0.66636 0.84405 0.0
C535 C 0.6855 0.66295 0.91117 0.0
O536 O 0.67202 0.66571 0.92638 0.0
N537 N 0.65441 0.65568 0.87152 0.0
C538 C 0.64245 0.63644 0.89999 0.0
C539 C 0.65664 0.64191 0.88802 0.0
C540 C 0.63869 0.65802 0.87289 0.0
N541 N 0.63117 0.64654 0.89012 0.0
O542 O 0.67431 0.64677 0.82161 0.0
H543 H 0.66777 0.63581 0.88973 0.0
H544 H 0.63267 0.66743 0.85986 0.0
O545 O 0.68613 0.6631 0.8785 0.0
C546 C 0.66341 0.64187 0.80193 0.0
O547 O 0.65002 0.64954 0.80114 0.0
N548 N 0.66313 0.6861 0.86201 0.0
C549 C 0.65335 0.71718 0.8719 0.0
C550 C 0.66591 0.71096 0.89064 0.0
C551 C 0.6709 0.69551 0.88471 0.0
C552 C 0.65097 0.6921 0.8435 0.0
C553 C 0.64582 0.70752 0.84815 0.0
H554 H 0.68154 0.69171 0.89692 0.0
H555 H 0.64565 0.685 0.8238 0.0
H556 H 0.6999 0.68829 0.84731 0.0
H557 H 0.69319 0.69023 0.74132 0.0
H558 H 0.64044 0.62537 0.91285 0.0
H559 H 0.6724 0.71826 0.90831 0.0
H560 H 0.63624 0.71196 0.83275 0.0
C561 C 0.58297 0.42823 0.03327 0.0
C562 C 0.5731 0.43886 1.01805 0.0
N563 N 0.56731 0.44848 0.04226 0.0
N564 N 0.58356 0.43113 0.06691 0.0
C565 C 0.57399 0.44363 0.07169 0.0
H566 H 0.58897 0.41863 0.02075 0.0
Co567 Co 0.59406 0.41789 0.09653 0.0
C568 C 0.59753 0.4354 0.16212 0.0
O569 O 0.59465 0.42214 0.17812 0.0
N570 N 0.60506 0.40377 0.125 0.0
C571 C 0.62475 0.39248 0.15338 0.0
C572 C 0.61882 0.40645 0.14119 0.0
C573 C 0.60319 0.38799 0.12684 0.0
N574 N 0.61496 0.38087 0.14395 0.0
O575 O 0.61346 0.42282 0.07303 0.0
H576 H 0.62467 0.41772 0.1423 0.0
H577 H 0.594 0.38162 0.11395 0.0
O578 O 0.59742 0.4356 0.1294 0.0
C579 C 0.61865 0.41167 0.05433 0.0
O580 O 0.6116 0.39796 0.05553 0.0
N581 N 0.57444 0.41221 0.11576 0.0
C582 C 0.54332 0.40295 0.12802 0.0
C583 C 0.54959 0.41637 0.14366 0.0
C584 C 0.56505 0.42097 0.13674 0.0
C585 C 0.56842 0.39927 0.10003 0.0
C586 C 0.55304 0.39428 0.10617 0.0
H587 H 0.56886 0.4321 0.14669 0.0
H588 H 0.57535 0.39323 0.08104 0.0
H589 H 0.57139 0.44858 0.09639 0.0
H590 H 0.57019 0.43925 0.99126 0.0
H591 H 0.63597 0.39084 0.16587 0.0
H592 H 0.54247 0.4236 0.1603 0.0
H593 H 0.54857 0.38419 0.09244 0.0
C594 C 0.83227 0.33265 0.2844 0.0
C595 C 0.82119 0.32311 0.2697 0.0
N596 N 0.81111 0.3184 0.29409 0.0
N597 N 0.82917 0.33406 0.31786 0.0
C598 C 0.81618 0.32527 0.32309 0.0
H599 H 0.84229 0.33785 0.27175 0.0
Co600 Co 0.84232 0.34482 0.34704 0.0
C601 C 0.82486 0.34848 0.41255 0.0
O602 O 0.83817 0.34575 0.42851 0.0
N603 N 0.85629 0.35614 0.37518 0.0
C604 C 0.8671 0.37655 0.40178 0.0
C605 C 0.8533 0.37014 0.39003 0.0
C606 C 0.87207 0.35448 0.37773 0.0
N607 N 0.87897 0.36674 0.39373 0.0
O608 O 0.83725 0.36403 0.32299 0.0
H609 H 0.84192 0.37581 0.39047 0.0
H610 H 0.87863 0.34528 0.36531 0.0
O611 O 0.82463 0.34826 0.37985 0.0
C612 C 0.84836 0.36898 0.30393 0.0
O613 O 0.86196 0.36168 0.30464 0.0
N614 N 0.84814 0.32536 0.36681 0.0
C615 C 0.8574 0.29424 0.37926 0.0
C616 C 0.84379 0.30046 0.39433 0.0
C617 C 0.83921 0.31592 0.38732 0.0
C618 C 0.86127 0.31941 0.35167 0.0
C619 C 0.86626 0.30403 0.35794 0.0
H620 H 0.82795 0.31969 0.39675 0.0
H621 H 0.86744 0.32635 0.3329 0.0
H622 H 0.81073 0.32368 0.34772 0.0
H623 H 0.82102 0.31934 0.2434 0.0
H624 H 0.86832 0.38791 0.41386 0.0
H625 H 0.83642 0.29328 0.41054 0.0
H626 H 0.8765 0.29962 0.34462 0.0
C627 C 0.92991 0.58555 0.5335 0.0
C628 C 0.93986 0.5752 0.51757 0.0
N629 N 0.94459 0.56441 0.54051 0.0
N630 N 0.92827 0.58132 0.56631 0.0
C631 C 0.93722 0.5683 0.56985 0.0
H632 H 0.92452 0.5958 0.52215 0.0
Co633 Co 0.91714 0.59362 0.59671 0.0
C634 C 0.91487 0.57553 0.66128 0.0
O635 O 0.91783 0.5888 0.67716 0.0
N636 N 0.90536 0.60676 0.62614 0.0
C637 C 0.88469 0.61623 0.65431 0.0
C638 C 0.8916 0.60293 0.64117 0.0
C639 C 0.90636 0.62254 0.63009 0.0
N640 N 0.89395 0.62862 0.64708 0.0
O641 O 0.89807 0.58822 0.57258 0.0
H642 H 0.88643 0.59132 0.64084 0.0
H643 H 0.91516 0.62974 0.61807 0.0
O644 O 0.91446 0.57542 0.62857 0.0
C645 C 0.89271 0.59945 0.55434 0.0
O646 O 0.89934 0.61335 0.55664 0.0
N647 N 0.93648 0.59981 0.61646 0.0
C648 C 0.96748 0.60985 0.62813 0.0
C649 C 0.9621 0.59533 0.64063 0.0
C650 C 0.94667 0.59047 0.63429 0.0
C651 C 0.94163 0.61374 0.60352 0.0
C652 C 0.95679 0.61922 0.60995 0.0
H653 H 0.94349 0.57872 0.64172 0.0
H654 H 0.93421 0.62028 0.58626 0.0
H655 H 0.93887 0.56222 0.59374 0.0
H656 H 0.9435 0.57577 0.49122 0.0
H657 H 0.87337 0.61679 0.66683 0.0
H658 H 0.96996 0.58729 0.6535 0.0
H659 H 0.96018 0.6305 0.59958 0.0
C660 C 0.68073 0.33322 0.75577 0.0
C661 C 0.69199 0.32362 0.76972 0.0
N662 N 0.70128 0.31829 0.74446 0.0
N663 N 0.68295 0.33407 0.72191 0.0
C664 C 0.69556 0.32485 0.71567 0.0
H665 H 0.67115 0.33877 0.76928 0.0
Co666 Co 0.66916 0.34444 0.69339 0.0
C667 C 0.6857 0.3478 0.62642 0.0
O668 O 0.67224 0.34504 0.61112 0.0
N669 N 0.65455 0.35527 0.66588 0.0
C670 C 0.64276 0.37466 0.63753 0.0
C671 C 0.65691 0.36901 0.64935 0.0
C672 C 0.6388 0.35314 0.66466 0.0
N673 N 0.63138 0.36471 0.64752 0.0
O674 O 0.67442 0.36395 0.71602 0.0
H675 H 0.6681 0.37498 0.64757 0.0
H676 H 0.63269 0.34382 0.67779 0.0
O677 O 0.68626 0.34766 0.6591 0.0
C678 C 0.66352 0.36886 0.73571 0.0
O679 O 0.65008 0.36129 0.73632 0.0
N680 N 0.66313 0.32477 0.67525 0.0
C681 C 0.65338 0.2937 0.66549 0.0
C682 C 0.66605 0.29984 0.64698 0.0
C683 C 0.67102 0.3153 0.65285 0.0
C684 C 0.65085 0.31886 0.69349 0.0
C685 C 0.64571 0.30344 0.68888 0.0
H686 H 0.68176 0.31903 0.64093 0.0
H687 H 0.64546 0.32599 0.71305 0.0
H688 H 0.70021 0.3227 0.69048 0.0
H689 H 0.69276 0.32022 0.79621 0.0
H690 H 0.64086 0.38577 0.62471 0.0
H691 H 0.67265 0.29247 0.62961 0.0
H692 H 0.63604 0.29906 0.70412 0.0
C693 C 0.92882 0.42939 1.00351 0.0
C694 C 0.93852 0.44037 1.01804 0.0
N695 N 0.94344 0.45028 0.99348 0.0
N696 N 0.9275 0.43236 0.96998 0.0
C697 C 0.93651 0.44519 0.96454 0.0
H698 H 0.92343 0.41953 1.01635 0.0
Co699 Co 0.91654 0.4192 0.94109 0.0
C700 C 0.91273 0.43643 0.8754 0.0
O701 O 0.91529 0.42301 0.85976 0.0
N702 N 0.90504 0.40522 0.91325 0.0
C703 C 0.88449 0.39447 0.88706 0.0
C704 C 0.89093 0.40824 0.89889 0.0
C705 C 0.90672 0.38945 0.91033 0.0
N706 N 0.89438 0.38259 0.89457 0.0
O707 O 0.89747 0.42438 0.96557 0.0
H708 H 0.88526 0.41962 0.89874 0.0
H709 H 0.91605 0.38289 0.92224 0.0
O710 O 0.91309 0.43684 0.9081 0.0
C711 C 0.89261 0.41323 0.98465 0.0
O712 O 0.89979 0.39957 0.98319 0.0
N713 N 0.93588 0.41325 0.92104 0.0
C714 C 0.9669 0.40376 0.90834 0.0
C715 C 0.96071 0.41734 0.89307 0.0
C716 C 0.9453 0.42204 0.90022 0.0
C717 C 0.9418 0.40014 0.93636 0.0
C718 C 0.95712 0.39504 0.92998 0.0
H719 H 0.94156 0.43328 0.89062 0.0
H720 H 0.93486 0.39408 0.95531 0.0
H721 H 0.93821 0.45052 0.93982 0.0
H722 H 0.94225 0.44059 0.04436 0.0
H723 H 0.87308 0.39328 0.8752 0.0
H724 H 0.96788 0.4246 0.87661 0.0
H725 H 0.96152 0.38484 0.94344 0.0
C726 C 0.8321 0.67893 0.25361 0.0
C727 C 0.82116 0.68864 0.26835 0.0
N728 N 0.81102 0.69336 0.24409 0.0
N729 N 0.82885 0.67741 0.22025 0.0
C730 C 0.81591 0.68631 0.21512 0.0
H731 H 0.84213 0.67369 0.26616 0.0
Co732 Co 0.84187 0.66644 0.19106 0.0
C733 C 0.82433 0.66279 0.12574 0.0
O734 O 0.83765 0.66545 0.10977 0.0
N735 N 0.85569 0.65492 0.1629 0.0
C736 C 0.86619 0.63437 0.13617 0.0
C737 C 0.85252 0.6409 0.14833 0.0
C738 C 0.87147 0.65645 0.15979 0.0
N739 N 0.87817 0.64411 0.14369 0.0
O740 O 0.83672 0.64735 0.21544 0.0
H741 H 0.84109 0.63533 0.14826 0.0
H742 H 0.87815 0.66568 0.17177 0.0
O743 O 0.8241 0.66305 0.15845 0.0
C744 C 0.84787 0.6424 0.23439 0.0
O745 O 0.86149 0.64962 0.23333 0.0
N746 N 0.84777 0.68579 0.171 0.0
C747 C 0.85707 0.7169 0.15868 0.0
C748 C 0.84343 0.71075 0.14369 0.0
C749 C 0.83882 0.69529 0.15065 0.0
C750 C 0.86098 0.69166 0.18594 0.0
C751 C 0.86598 0.70703 0.17975 0.0
H752 H 0.82753 0.69159 0.14137 0.0
H753 H 0.86718 0.68466 0.20458 0.0
H754 H 0.81038 0.68786 0.19057 0.0
H755 H 0.82114 0.69252 0.29458 0.0
H756 H 0.86725 0.623 0.12407 0.0
H757 H 0.83602 0.71798 0.12766 0.0
H758 H 0.87625 0.71139 0.19299 0.0
C759 C 0.58328 0.58108 0.50446 0.0
C760 C 0.57353 0.5701 0.51891 0.0
N761 N 0.56799 0.56073 0.49403 0.0
N762 N 0.584 0.57862 0.47066 0.0
C763 C 0.57457 0.56613 0.46496 0.0
H764 H 0.58911 0.5906 0.51761 0.0
Co765 Co 0.59483 0.59184 0.44166 0.0
C766 C 0.59803 0.57476 0.37548 0.0
O767 O 0.59562 0.58822 0.35991 0.0
N768 N 0.60617 0.60583 0.41365 0.0
C769 C 0.62653 0.61656 0.3867 0.0
C770 C 0.62014 0.60279 0.39868 0.0
C771 C 0.60451 0.62161 0.41092 0.0
N772 N 0.61675 0.62846 0.39473 0.0
O773 O 0.61407 0.58632 0.46516 0.0
H774 H 0.62575 0.59138 0.39817 0.0
H775 H 0.59525 0.62817 0.4232 0.0
O776 O 0.59778 0.57432 0.40818 0.0
C777 C 0.61921 0.59734 0.48425 0.0
O778 O 0.61219 0.61109 0.48323 0.0
N779 N 0.5754 0.59818 0.42278 0.0
C780 C 0.54442 0.60826 0.41293 0.0
C781 C 0.55032 0.59527 0.39511 0.0
C782 C 0.56573 0.59015 0.40103 0.0
C783 C 0.56975 0.61085 0.44017 0.0
C784 C 0.55438 0.61615 0.43551 0.0
H785 H 0.56927 0.57919 0.38978 0.0
H786 H 0.57703 0.61639 0.45927 0.0
H787 H 0.57235 0.56128 0.43999 0.0
H788 H 0.57023 0.56953 0.54547 0.0
H789 H 0.63783 0.61772 0.37434 0.0
H790 H 0.54279 0.58854 0.37836 0.0
H791 H 0.5502 0.62608 0.45019 0.0
C792 C 0.33074 0.33255 0.25711 0.0
C793 C 0.31989 0.32248 0.27096 0.0
N794 N 0.31053 0.3172 0.24578 0.0
N795 N 0.32821 0.33374 0.2234 0.0
C796 C 0.3158 0.32427 0.21716 0.0
H797 H 0.34028 0.3382 0.27054 0.0
Co798 Co 0.34147 0.3448 0.1949 0.0
C799 C 0.32456 0.3483 0.12861 0.0
O800 O 0.33806 0.34612 0.11305 0.0
N801 N 0.35549 0.35636 0.1674 0.0
C802 C 0.36617 0.37685 0.14088 0.0
C803 C 0.35243 0.37041 0.15285 0.0
C804 C 0.37125 0.35469 0.16446 0.0
N805 N 0.37807 0.367 0.14848 0.0
O806 O 0.33578 0.36391 0.21865 0.0
H807 H 0.34102 0.37602 0.15253 0.0
H808 H 0.37782 0.34531 0.17631 0.0
O809 O 0.32407 0.34784 0.16129 0.0
C810 C 0.34669 0.36892 0.23816 0.0
O811 O 0.36032 0.36166 0.23803 0.0
N812 N 0.34795 0.3255 0.17565 0.0
C813 C 0.35799 0.29454 0.16543 0.0
C814 C 0.34508 0.30055 0.14748 0.0
C815 C 0.33999 0.31595 0.15357 0.0
C816 C 0.36056 0.31978 0.1931 0.0
C817 C 0.36584 0.30441 0.18826 0.0
H818 H 0.32907 0.31953 0.14222 0.0
H819 H 0.36606 0.32698 0.2124 0.0
H820 H 0.31098 0.32232 0.19206 0.0
H821 H 0.31944 0.31874 0.29726 0.0
H822 H 0.36732 0.3882 0.12871 0.0
H823 H 0.33838 0.29309 0.13052 0.0
H824 H 0.37572 0.30015 0.20302 0.0
C825 C 0.42847 0.58216 1.00755 0.0
C826 C 0.4389 0.57189 0.02218 0.0
N827 N 0.44505 0.56277 0.9975 0.0
N828 N 0.42789 0.5795 0.97381 0.0
C829 C 0.43804 0.56754 0.96836 0.0
H830 H 0.42207 0.59135 0.02054 0.0
Co831 Co 0.41669 0.59239 0.94469 0.0
C832 C 0.41332 0.57505 0.87894 0.0
O833 O 0.41536 0.58853 0.86318 0.0
N834 N 0.405 0.60609 0.91665 0.0
C835 C 0.38442 0.61659 0.8901 0.0
C836 C 0.39094 0.60292 0.90231 0.0
C837 C 0.4066 0.62185 0.91331 0.0
N838 N 0.39423 0.62856 0.89733 0.0
O839 O 0.39763 0.58669 0.96872 0.0
H840 H 0.38537 0.59149 0.90237 0.0
H841 H 0.41594 0.6285 0.92503 0.0
O842 O 0.41387 0.57468 0.91163 0.0
C843 C 0.3923 0.59774 0.9875 0.0
O844 O 0.39902 0.61162 0.98596 0.0
N845 N 0.43592 0.59895 0.92522 0.0
C846 C 0.46664 0.60948 0.91419 0.0
C847 C 0.46078 0.59647 0.89644 0.0
C848 C 0.4455 0.59112 0.90293 0.0
C849 C 0.44151 0.61165 0.94252 0.0
C850 C 0.45676 0.61717 0.9373 0.0
H851 H 0.44205 0.58014 0.89168 0.0
H852 H 0.4343 0.61707 0.96192 0.0
H853 H 0.4408 0.56295 0.94341 0.0
H854 H 0.44191 0.5714 0.04891 0.0
H855 H 0.37302 0.61766 0.87815 0.0
H856 H 0.46826 0.58988 0.87928 0.0
H857 H 0.46093 0.62712 0.95193 0.0
C858 C 0.17905 0.67938 0.7567 0.0
C859 C 0.18915 0.69008 0.7709 0.0
N860 N 0.19817 0.69614 0.74596 0.0
N861 N 0.18172 0.67855 0.72298 0.0
C862 C 0.19352 0.68883 0.71711 0.0
H863 H 0.16995 0.67297 0.76996 0.0
Co864 Co 0.16895 0.66699 0.69435 0.0
C865 C 0.18644 0.6625 0.62911 0.0
O866 O 0.17295 0.66382 0.61309 0.0
N867 N 0.15537 0.65495 0.66684 0.0
C868 C 0.14461 0.63351 0.64422 0.0
C869 C 0.15834 0.64024 0.6555 0.0
C870 C 0.13973 0.65686 0.66207 0.0
N871 N 0.13293 0.64399 0.64849 0.0
O872 O 0.17465 0.64822 0.71951 0.0
H873 H 0.16959 0.63439 0.65751 0.0
H874 H 0.13311 0.66681 0.67133 0.0
O875 O 0.18676 0.66383 0.66169 0.0
C876 C 0.16353 0.64309 0.73836 0.0
O877 O 0.14967 0.64986 0.7364 0.0
N878 N 0.16239 0.68596 0.67378 0.0
C879 C 0.15221 0.71675 0.66219 0.0
C880 C 0.1649 0.71052 0.64387 0.0
C881 C 0.17007 0.69519 0.65059 0.0
C882 C 0.14989 0.69185 0.69134 0.0
C883 C 0.14456 0.70715 0.68589 0.0
H884 H 0.18084 0.69144 0.63883 0.0
H885 H 0.14451 0.68483 0.71113 0.0
H886 H 0.19805 0.69147 0.69203 0.0
H887 H 0.18959 0.69332 0.7975 0.0
H888 H 0.14316 0.62156 0.63533 0.0
H889 H 0.17141 0.71778 0.62614 0.0
H890 H 0.13483 0.7116 0.70087 0.0
C891 C 0.07995 0.42739 0.50494 0.0
C892 C 0.06929 0.43753 0.51917 0.0
N893 N 0.06427 0.44749 0.49482 0.0
N894 N 0.08178 0.43093 0.47179 0.0
C895 C 0.07217 0.44333 0.46632 0.0
H896 H 0.08568 0.41769 0.51769 0.0
Co897 Co 0.09376 0.41844 0.44333 0.0
C898 C 0.09876 0.43625 0.37899 0.0
O899 O 0.09719 0.42283 0.36279 0.0
N900 N 0.10626 0.40512 0.41603 0.0
C901 C 0.12814 0.39495 0.39393 0.0
C902 C 0.121 0.40846 0.40537 0.0
C903 C 0.10476 0.38946 0.41073 0.0
N904 N 0.1179 0.38302 0.39745 0.0
O905 O 0.11214 0.42389 0.46992 0.0
H906 H 0.12659 0.41981 0.40794 0.0
H907 H 0.09491 0.38256 0.41937 0.0
O908 O 0.09741 0.43649 0.41157 0.0
C909 C 0.11704 0.41264 0.48869 0.0
O910 O 0.11031 0.39881 0.48597 0.0
N911 N 0.07506 0.41219 0.4211 0.0
C912 C 0.04431 0.40256 0.40627 0.0
C913 C 0.05065 0.41615 0.39139 0.0
C914 C 0.06591 0.42093 0.39958 0.0
C915 C 0.06906 0.39894 0.43567 0.0
C916 C 0.05387 0.39378 0.42827 0.0
H917 H 0.06969 0.43221 0.39035 0.0
H918 H 0.07582 0.39283 0.45485 0.0
H919 H 0.07044 0.44872 0.44167 0.0
H920 H 0.06537 0.43739 0.54536 0.0
H921 H 0.14019 0.39383 0.3854 0.0
H922 H 0.04366 0.42342 0.37456 0.0
H923 H 0.04936 0.38352 0.44133 0.0
C924 C 0.33114 0.67825 0.28503 0.0
C925 C 0.3199 0.68768 0.27048 0.0
N926 N 0.31014 0.69272 0.29518 0.0
N927 N 0.32847 0.67724 0.31872 0.0
C928 C 0.31557 0.68614 0.32423 0.0
H929 H 0.34103 0.67295 0.27208 0.0
Co930 Co 0.34219 0.66704 0.34779 0.0
C931 C 0.32538 0.66386 0.41433 0.0
O932 O 0.33873 0.66712 0.42961 0.0
N933 N 0.35674 0.65634 0.37579 0.0
C934 C 0.36839 0.63699 0.40461 0.0
C935 C 0.35428 0.64272 0.39273 0.0
C936 C 0.37252 0.6583 0.37684 0.0
N937 N 0.37985 0.64675 0.39424 0.0
O938 O 0.3373 0.64746 0.32504 0.0
H939 H 0.34306 0.63683 0.39465 0.0
H940 H 0.37873 0.66741 0.36332 0.0
O941 O 0.32491 0.66361 0.38163 0.0
C942 C 0.34833 0.6426 0.30563 0.0
O943 O 0.36171 0.65029 0.30521 0.0
N944 N 0.3478 0.68682 0.36622 0.0
C945 C 0.35688 0.71809 0.37727 0.0
C946 C 0.34351 0.71185 0.39325 0.0
C947 C 0.339 0.69631 0.38692 0.0
C948 C 0.36063 0.69283 0.35004 0.0
C949 C 0.36554 0.70827 0.35559 0.0
H950 H 0.32792 0.69248 0.39714 0.0
H951 H 0.36664 0.68583 0.33112 0.0
H952 H 0.31047 0.68808 0.34909 0.0
H953 H 0.31946 0.69119 0.24403 0.0
H954 H 0.3702 0.62592 0.41765 0.0
H955 H 0.33628 0.71905 0.40972 0.0
H956 H 0.37556 0.71271 0.34156 0.0
C957 C 0.08207 0.58209 0.03627 0.0
C958 C 0.07248 0.57103 0.02162 0.0
N959 N 0.06768 0.56103 0.04607 0.0
N960 N 0.08342 0.57905 0.06976 0.0
C961 C 0.07455 0.56611 0.07506 0.0
H962 H 0.08732 0.59206 0.02355 0.0
Co963 Co 0.09415 0.59232 0.09883 0.0
C964 C 0.09749 0.57525 0.16478 0.0
O965 O 0.09458 0.58865 0.18022 0.0
N966 N 0.10543 0.60638 0.12683 0.0
C967 C 0.12583 0.61713 0.15361 0.0
C968 C 0.11936 0.60334 0.14197 0.0
C969 C 0.10389 0.62219 0.12909 0.0
N970 N 0.11615 0.62904 0.14519 0.0
O971 O 0.11341 0.58713 0.07513 0.0
H972 H 0.12494 0.59192 0.1427 0.0
H973 H 0.09477 0.62877 0.11643 0.0
O974 O 0.09749 0.57479 0.13208 0.0
C975 C 0.11834 0.59819 0.0559 0.0
O976 O 0.1109 0.61172 0.05614 0.0
N977 N 0.07465 0.59824 0.11824 0.0
C978 C 0.04348 0.60753 0.12992 0.0
C979 C 0.04961 0.59394 0.14521 0.0
C980 C 0.0651 0.58933 0.13856 0.0
C981 C 0.06879 0.61138 0.10295 0.0
C982 C 0.05339 0.61638 0.10882 0.0
H983 H 0.0688 0.57807 0.14809 0.0
H984 H 0.07582 0.61752 0.0843 0.0
H985 H 0.07289 0.56073 0.09973 0.0
H986 H 0.06873 0.57085 0.99532 0.0
H987 H 0.13714 0.6183 0.16588 0.0
H988 H 0.04235 0.58657 0.16126 0.0
H989 H 0.04904 0.6266 0.09535 0.0
C990 C 0.17746 0.33132 0.78612 0.0
C991 C 0.18777 0.32114 0.77082 0.0
N992 N 0.19764 0.31553 0.79474 0.0
N993 N 0.18082 0.33228 0.81952 0.0
C994 C 0.19327 0.32263 0.82407 0.0
H995 H 0.16775 0.33726 0.77389 0.0
Co996 Co 0.168 0.34325 0.84918 0.0
C997 C 0.18558 0.34656 0.91445 0.0
O998 O 0.17223 0.34396 0.93031 0.0
N999 N 0.15431 0.35475 0.87768 0.0
C1000 C 0.14387 0.37534 0.90439 0.0
C1001 C 0.15754 0.36872 0.89242 0.0
C1002 C 0.13852 0.35332 0.88053 0.0
N1003 N 0.13185 0.3657 0.89657 0.0
O1004 O 0.17329 0.36243 0.82526 0.0
H1005 H 0.169 0.37423 0.89262 0.0
H1006 H 0.13182 0.3442 0.86824 0.0
O1007 O 0.18586 0.34633 0.88173 0.0
C1008 C 0.16215 0.36773 0.80673 0.0
O1009 O 0.14842 0.36071 0.80771 0.0
N1010 N 0.16194 0.32385 0.86887 0.0
C1011 C 0.1525 0.29273 0.88051 0.0
C1012 C 0.16604 0.29883 0.89602 0.0
C1013 C 0.17073 0.31427 0.88937 0.0
C1014 C 0.14877 0.31807 0.85357 0.0
C1015 C 0.14372 0.30269 0.85937 0.0
H1016 H 0.18198 0.3179 0.899 0.0
H1017 H 0.14267 0.32516 0.83495 0.0
H1018 H 0.19851 0.32025 0.8486 0.0
H1019 H 0.18777 0.31791 0.74419 0.0
H1020 H 0.14285 0.38672 0.91643 0.0
H1021 H 0.17334 0.29154 0.9122 0.0
H1022 H 0.13352 0.29839 0.84579 0.0
C1023 C 0.42784 0.43012 0.53474 0.0
C1024 C 0.43754 0.44115 0.5203 0.0
N1025 N 0.4431 0.4505 0.5452 0.0
N1026 N 0.42716 0.43254 0.56856 0.0
C1027 C 0.43657 0.44504 0.57428 0.0
H1028 H 0.42202 0.42061 0.52157 0.0
Co1029 Co 0.41644 0.41924 0.59759 0.0
C1030 C 0.41323 0.43627 0.66381 0.0
O1031 O 0.4157 0.42282 0.67936 0.0
N1032 N 0.4052 0.40519 0.62563 0.0
C1033 C 0.38489 0.39433 0.65247 0.0
C1034 C 0.39123 0.40815 0.64068 0.0
C1035 C 0.4069 0.38941 0.62813 0.0
N1036 N 0.39469 0.38248 0.64424 0.0
O1037 O 0.39713 0.42466 0.57422 0.0
H1038 H 0.38558 0.41954 0.6413 0.0
H1039 H 0.41615 0.38291 0.61565 0.0
O1040 O 0.41343 0.43672 0.63111 0.0
C1041 C 0.39211 0.41359 0.55512 0.0
O1042 O 0.39933 0.39995 0.55594 0.0
N1043 N 0.43592 0.41299 0.61636 0.0
C1044 C 0.46687 0.40291 0.62647 0.0
C1045 C 0.46094 0.4159 0.64425 0.0
C1046 C 0.44554 0.42102 0.6382 0.0
C1047 C 0.4416 0.40035 0.59895 0.0
C1048 C 0.45696 0.39505 0.60373 0.0
H1049 H 0.44199 0.43197 0.64945 0.0
H1050 H 0.43436 0.39481 0.57979 0.0
H1051 H 0.43883 0.44986 0.59926 0.0
H1052 H 0.44081 0.44176 0.49371 0.0
H1053 H 0.37357 0.39309 0.66474 0.0
H1054 H 0.46844 0.42261 0.6611 0.0
H1055 H 0.46118 0.38512 0.58907 0.0
C1056 C 0.12487 0.08539 0.04191 0.0
C1057 C 0.12928 0.09456 1.01384 0.0
C1058 C 0.13288 0.08682 0.07296 0.0
C1059 C 0.15777 0.1164 0.11821 0.0
H1060 H 0.15578 0.0857 0.19095 0.0
C1061 C 0.17699 0.13252 0.25421 0.0
C1062 C 0.16452 0.13072 0.27733 0.0
C1063 C 0.17654 0.12494 0.22249 0.0
C1064 C 0.15655 0.09434 0.17077 0.0
H1065 H 0.14605 0.11156 0.9952 0.0
H1066 H 0.16088 0.11313 0.04815 0.0
H1067 H 0.14848 0.07803 0.13317 0.0
H1068 H 0.14247 0.11882 0.28662 0.0
H1069 H 0.142 0.1051 0.23205 0.0
H1070 H 0.16581 0.13266 0.15594 0.0
C1071 C 0.15083 0.10535 0.04714 0.0
C1072 C 0.15222 0.09001 0.13761 0.0
C1073 C 0.14255 0.10424 1.01646 0.0
C1074 C 0.15233 0.12022 0.26941 0.0
C1075 C 0.15205 0.1124 0.23812 0.0
C1076 C 0.16237 0.12061 0.15114 0.0
C1077 C 0.14565 0.0973 0.07645 0.0
C1078 C 0.15234 0.1011 0.1109 0.0
C1079 C 0.16378 0.1152 0.21369 0.0
C1080 C 0.16144 0.10976 0.17799 0.0
H1081 H 0.11443 0.07813 0.04073 0.0
H1082 H 0.1283 0.0805 0.09469 0.0
H1083 H 0.15776 0.12549 0.09896 0.0
H1084 H 0.18636 0.14079 0.25941 0.0
H1085 H 0.18576 0.12729 0.20419 0.0
C1086 C 0.12674 0.92536 0.4965 0.0
C1087 C 0.13063 0.91579 0.5243 0.0
C1088 C 0.13495 0.92396 0.46568 0.0
C1089 C 0.15913 0.89383 0.42025 0.0
H1090 H 0.15811 0.92481 0.34798 0.0
C1091 C 0.17791 0.87761 0.28396 0.0
C1092 C 0.16546 0.87979 0.26099 0.0
C1093 C 0.17769 0.88511 0.31579 0.0
C1094 C 0.15862 0.91609 0.36803 0.0
H1095 H 0.14681 0.89818 0.54284 0.0
H1096 H 0.16202 0.89666 0.49041 0.0
H1097 H 0.151 0.93251 0.40586 0.0
H1098 H 0.14368 0.89227 0.25206 0.0
H1099 H 0.14361 0.90582 0.30683 0.0
H1100 H 0.16672 0.87745 0.38228 0.0
C1101 C 0.15219 0.90472 0.49138 0.0
C1102 C 0.15439 0.92044 0.40125 0.0
C1103 C 0.14369 0.9058 0.52179 0.0
C1104 C 0.15351 0.89055 0.26918 0.0
C1105 C 0.15347 0.89829 0.30057 0.0
C1106 C 0.16364 0.88959 0.38727 0.0
C1107 C 0.14742 0.91311 0.46219 0.0
C1108 C 0.15414 0.90926 0.42778 0.0
C1109 C 0.16519 0.89514 0.32482 0.0
C1110 C 0.16304 0.90054 0.36059 0.0
H1111 H 0.11649 0.93291 0.49757 0.0
H1112 H 0.1307 0.93058 0.44405 0.0
H1113 H 0.15882 0.88467 0.43933 0.0
H1114 H 0.1871 0.86915 0.27853 0.0
H1115 H 0.18689 0.88248 0.33397 0.0
C1116 C 0.35689 0.89388 0.77363 0.0
C1117 C 0.34673 0.88098 0.77642 0.0
C1118 C 0.35797 0.90234 0.74316 0.0
C1119 C 0.34177 0.90481 0.65349 0.0
H1120 H 0.38477 0.9167 0.63338 0.0
C1121 C 0.37088 0.90401 0.52048 0.0
C1122 C 0.38166 0.9159 0.51213 0.0
C1123 C 0.36334 0.90393 0.55212 0.0
C1124 C 0.37263 0.91374 0.6387 0.0
H1125 H 0.32931 0.86707 0.75012 0.0
H1126 H 0.33161 0.88121 0.69648 0.0
H1127 H 0.37781 0.90875 0.69057 0.0
H1128 H 0.39255 0.9374 0.52967 0.0
H1129 H 0.37958 0.93711 0.58552 0.0
H1130 H 0.33713 0.9087 0.60038 0.0
C1131 C 0.33838 0.88537 0.71794 0.0
C1132 C 0.36854 0.90921 0.67175 0.0
C1133 C 0.33699 0.87721 0.74883 0.0
C1134 C 0.38406 0.92826 0.53522 0.0
C1135 C 0.37678 0.92799 0.56728 0.0
C1136 C 0.34597 0.90906 0.62018 0.0
C1137 C 0.34937 0.89769 0.71418 0.0
C1138 C 0.3531 0.90439 0.67969 0.0
C1139 C 0.36672 0.91554 0.57644 0.0
C1140 C 0.36151 0.91333 0.61233 0.0
H1141 H 0.36463 0.89691 0.79451 0.0
H1142 H 0.36615 0.91205 0.74199 0.0
H1143 H 0.32969 0.90155 0.65841 0.0
H1144 H 0.36898 0.89424 0.50327 0.0
H1145 H 0.35578 0.89411 0.55847 0.0
C1146 C 0.35588 0.11767 0.76396 0.0
C1147 C 0.34591 0.13072 0.76113 0.0
C1148 C 0.35694 0.10931 0.79456 0.0
C1149 C 0.34106 0.10745 0.8846 0.0
H1150 H 0.38394 0.09491 0.90408 0.0
C1151 C 0.37073 0.1083 1.01697 0.0
C1152 C 0.38142 0.09632 0.02527 0.0
C1153 C 0.36301 0.10835 0.98555 0.0
C1154 C 0.37183 0.09805 0.89895 0.0
H1155 H 0.32882 0.14503 0.78753 0.0
H1156 H 0.3311 0.13107 0.84137 0.0
H1157 H 0.37688 0.10276 0.84689 0.0
H1158 H 0.39197 0.07461 1.00787 0.0
H1159 H 0.37869 0.07481 0.95239 0.0
H1160 H 0.33656 0.10385 0.93787 0.0
C1161 C 0.33772 0.12671 0.81985 0.0
C1162 C 0.36768 0.10253 0.8659 0.0
C1163 C 0.33634 0.13477 0.78885 0.0
C1164 C 0.38354 0.08382 1.00238 0.0
C1165 C 0.37608 0.08404 0.97052 0.0
C1166 C 0.34532 0.10326 0.9179 0.0
C1167 C 0.34853 0.11422 0.82363 0.0
C1168 C 0.35229 0.10759 0.85817 0.0
C1169 C 0.36614 0.09659 0.96136 0.0
C1170 C 0.36082 0.09875 0.92552 0.0
H1171 H 0.3635 0.11443 0.74298 0.0
H1172 H 0.36498 0.09946 0.79575 0.0
H1173 H 0.32902 0.11091 0.87985 0.0
H1174 H 0.36907 0.11818 0.034 0.0
H1175 H 0.35555 0.11824 0.97919 0.0
C1176 C 0.85829 0.89071 0.77224 0.0
C1177 C 0.84609 0.88029 0.76388 0.0
C1178 C 0.85845 0.89842 0.80367 0.0
C1179 C 0.84784 0.88993 0.89025 0.0
H1180 H 0.86149 0.93249 0.90917 0.0
C1181 C 0.86751 0.90572 0.02532 0.0
C1182 C 0.88074 0.91545 0.02814 0.0
C1183 C 0.85921 0.90475 0.99463 0.0
C1184 C 0.85781 0.92051 0.90447 0.0
H1185 H 0.82413 0.87025 0.78117 0.0
H1186 H 0.82455 0.88352 0.83665 0.0
H1187 H 0.85439 0.92502 0.85116 0.0
H1188 H 0.89547 0.93212 1.00165 0.0
H1189 H 0.88158 0.92999 0.9477 0.0
H1190 H 0.85236 0.88485 0.94237 0.0
C1191 C 0.83386 0.88591 0.81857 0.0
C1192 C 0.8536 0.9163 0.87118 0.0
C1193 C 0.83352 0.87845 0.78671 0.0
C1194 C 0.88506 0.92482 1.00032 0.0
C1195 C 0.87704 0.92353 0.96927 0.0
C1196 C 0.85234 0.89402 0.92331 0.0
C1197 C 0.8466 0.89557 0.82779 0.0
C1198 C 0.8488 0.90088 0.86361 0.0
C1199 C 0.86434 0.91299 0.96552 0.0
C1200 C 0.85769 0.90932 0.93097 0.0
H1201 H 0.86822 0.89216 0.75525 0.0
H1202 H 0.86849 0.90567 0.81007 0.0
H1203 H 0.84447 0.87788 0.88516 0.0
H1204 H 0.86407 0.89825 0.04637 0.0
H1205 H 0.84921 0.89692 0.99344 0.0
C1206 C 0.83311 0.13313 0.75346 0.0
C1207 C 0.84563 0.13091 0.77626 0.0
C1208 C 0.8332 0.1256 0.72167 0.0
C1209 C 0.85216 0.09458 0.66918 0.0
H1210 H 0.85157 0.12598 0.59786 0.0
C1211 C 0.88384 0.08559 0.54041 0.0
C1212 C 0.87977 0.0951 0.51262 0.0
C1213 C 0.87568 0.08691 0.57131 0.0
C1214 C 0.85136 0.11683 0.61696 0.0
H1215 H 0.86736 0.11832 0.78495 0.0
H1216 H 0.8672 0.10473 0.73024 0.0
H1217 H 0.84381 0.13317 0.65501 0.0
H1218 H 0.86335 0.1125 0.49421 0.0
H1219 H 0.84825 0.11389 0.54682 0.0
H1220 H 0.85978 0.0782 0.63126 0.0
C1221 C 0.85739 0.1123 0.73661 0.0
C1222 C 0.84693 0.12105 0.64999 0.0
C1223 C 0.85748 0.12007 0.76797 0.0
C1224 C 0.8666 0.10493 0.51524 0.0
C1225 C 0.85816 0.10594 0.54575 0.0
C1226 C 0.85632 0.09025 0.63591 0.0
C1227 C 0.84563 0.11551 0.71248 0.0
C1228 C 0.84767 0.1101 0.67668 0.0
C1229 C 0.8631 0.09762 0.57491 0.0
C1230 C 0.85643 0.10142 0.60938 0.0
H1231 H 0.824 0.14165 0.75896 0.0
H1232 H 0.82396 0.12827 0.7036 0.0
H1233 H 0.85277 0.08586 0.68923 0.0
H1234 H 0.89418 0.07817 0.53925 0.0
H1235 H 0.88005 0.08036 0.59292 0.0
C1236 C 0.67956 0.13315 0.28844 0.0
C1237 C 0.66731 0.13063 0.26514 0.0
C1238 C 0.67931 0.12576 0.32039 0.0
C1239 C 0.66051 0.09459 0.37267 0.0
H1240 H 0.65968 0.12626 0.44339 0.0
C1241 C 0.62789 0.08527 0.50021 0.0
C1242 C 0.63145 0.09495 0.52802 0.0
C1243 C 0.63628 0.08671 0.46964 0.0
C1244 C 0.66029 0.11704 0.42448 0.0
H1245 H 0.64588 0.11766 0.2558 0.0
H1246 H 0.64579 0.10427 0.31078 0.0
H1247 H 0.66783 0.13341 0.38644 0.0
H1248 H 0.64721 0.11285 0.54682 0.0
H1249 H 0.66275 0.11447 0.49483 0.0
H1250 H 0.65293 0.07818 0.41056 0.0
C1251 C 0.65551 0.11199 0.30468 0.0
C1252 C 0.66494 0.12123 0.39156 0.0
C1253 C 0.65557 0.11963 0.27316 0.0
C1254 C 0.64436 0.10512 0.52579 0.0
C1255 C 0.65304 0.10626 0.49562 0.0
C1256 C 0.65614 0.09029 0.40584 0.0
C1257 C 0.66698 0.11549 0.32924 0.0
C1258 C 0.66471 0.11018 0.36506 0.0
C1259 C 0.64861 0.09772 0.46639 0.0
C1260 C 0.65551 0.10156 0.43214 0.0
H1261 H 0.68856 0.14181 0.28316 0.0
H1262 H 0.68832 0.12866 0.3388 0.0
H1263 H 0.6603 0.08579 0.35277 0.0
H1264 H 0.61773 0.0776 0.50105 0.0
H1265 H 0.63228 0.07998 0.44796 0.0
C1266 C 0.67786 0.87737 0.25368 0.0
C1267 C 0.66537 0.87955 0.27657 0.0
C1268 C 0.67772 0.88489 0.22187 0.0
C1269 C 0.65889 0.91603 0.16967 0.0
H1270 H 0.65915 0.88477 0.09807 0.0
C1271 C 0.62728 0.92569 0.04113 0.0
C1272 C 0.63118 0.91619 1.01323 0.0
C1273 C 0.63544 0.92419 0.07196 0.0
C1274 C 0.65945 0.89388 0.11725 0.0
H1275 H 0.64359 0.89206 0.28535 0.0
H1276 H 0.64368 0.90567 0.23061 0.0
H1277 H 0.66688 0.87739 0.15516 0.0
H1278 H 0.64731 0.89857 0.99459 0.0
H1279 H 0.66246 0.89687 0.04708 0.0
H1280 H 0.65143 0.93257 0.13192 0.0
C1281 C 0.6535 0.89811 0.23693 0.0
C1282 C 0.66386 0.88955 0.15024 0.0
C1283 C 0.65346 0.89033 0.2683 0.0
C1284 C 0.6442 0.90616 1.01568 0.0
C1285 C 0.65266 0.90497 0.04613 0.0
C1286 C 0.65477 0.92047 0.13644 0.0
C1287 C 0.66526 0.89496 0.21277 0.0
C1288 C 0.66323 0.90045 0.17702 0.0
C1289 C 0.64788 0.9133 0.0754 0.0
C1290 C 0.65453 0.90935 0.10981 0.0
H1291 H 0.68702 0.86889 0.25917 0.0
H1292 H 0.68696 0.88226 0.20376 0.0
H1293 H 0.65836 0.92471 0.18979 0.0
H1294 H 0.61703 0.93325 0.04011 0.0
H1295 H 0.63118 0.93076 0.09364 0.0
C1296 C 0.64146 0.60632 0.52016 0.0
C1297 C 0.63052 0.59454 0.51212 0.0
C1298 C 0.64912 0.60637 0.55164 0.0
C1299 C 0.63999 0.59672 0.63851 0.0
H1300 H 0.68297 0.60896 0.65745 0.0
C1301 C 0.65606 0.61705 0.7729 0.0
C1302 C 0.66616 0.63001 0.77525 0.0
C1303 C 0.65494 0.60845 0.74264 0.0
C1304 C 0.67088 0.60568 0.65274 0.0
H1305 H 0.61948 0.57318 0.53005 0.0
H1306 H 0.63268 0.5734 0.58562 0.0
H1307 H 0.67538 0.60169 0.59962 0.0
H1308 H 0.68342 0.64389 0.74836 0.0
H1309 H 0.68109 0.62948 0.69512 0.0
H1310 H 0.63496 0.60181 0.69041 0.0
C1311 C 0.63551 0.58246 0.56725 0.0
C1312 C 0.66659 0.60136 0.61955 0.0
C1313 C 0.62809 0.58223 0.53534 0.0
C1314 C 0.67581 0.6337 0.74744 0.0
C1315 C 0.67439 0.62538 0.71677 0.0
C1316 C 0.64417 0.60132 0.67146 0.0
C1317 C 0.64571 0.59484 0.57615 0.0
C1318 C 0.65102 0.59708 0.61196 0.0
C1319 C 0.66344 0.613 0.71343 0.0
C1320 C 0.65963 0.60617 0.6791 0.0
H1321 H 0.64336 0.61606 0.50286 0.0
H1322 H 0.65679 0.61613 0.55777 0.0
H1323 H 0.62783 0.59376 0.63341 0.0
H1324 H 0.64836 0.61411 0.79393 0.0
H1325 H 0.64679 0.5987 0.74177 0.0
C1326 C 0.65638 0.3936 0.76535 0.0
C1327 C 0.66634 0.38053 0.76273 0.0
C1328 C 0.65525 0.40201 0.79589 0.0
C1329 C 0.67084 0.40383 0.88618 0.0
H1330 H 0.62786 0.41618 0.90515 0.0
C1331 C 0.64071 0.40239 1.01806 0.0
C1332 C 0.63002 0.41436 0.02647 0.0
C1333 C 0.64849 0.40246 0.9867 0.0
C1334 C 0.64 0.41309 0.90017 0.0
H1335 H 0.68335 0.36625 0.78941 0.0
H1336 H 0.68099 0.3803 0.84308 0.0
H1337 H 0.63515 0.40853 0.84797 0.0
H1338 H 0.61955 0.43616 1.00934 0.0
H1339 H 0.63293 0.43614 0.95396 0.0
H1340 H 0.67513 0.40726 0.93956 0.0
C1341 C 0.67442 0.38464 0.82147 0.0
C1342 C 0.64427 0.40873 0.86712 0.0
C1343 C 0.67585 0.37653 0.79056 0.0
C1344 C 0.62795 0.42694 1.00376 0.0
C1345 C 0.63548 0.42683 0.97196 0.0
C1346 C 0.66644 0.40789 0.91946 0.0
C1347 C 0.66359 0.39713 0.82507 0.0
C1348 C 0.65971 0.40373 0.85958 0.0
C1349 C 0.64545 0.41431 0.96269 0.0
C1350 C 0.6509 0.41232 0.92691 0.0
H1351 H 0.64878 0.39679 0.74432 0.0
H1352 H 0.64721 0.41185 0.79696 0.0
H1353 H 0.68291 0.40042 0.88158 0.0
H1354 H 0.64235 0.39246 0.03497 0.0
H1355 H 0.65597 0.39259 0.98025 0.0
C1356 C 0.88357 0.42814 0.03591 0.0
C1357 C 0.88135 0.41577 1.01275 0.0
C1358 C 0.87617 0.42779 0.06784 0.0
C1359 C 0.84536 0.40847 0.12016 0.0
H1360 H 0.87686 0.40869 0.19123 0.0
C1361 C 0.83631 0.3765 0.24862 0.0
C1362 C 0.84576 0.38052 0.2765 0.0
C1363 C 0.83774 0.38464 0.21773 0.0
C1364 C 0.86768 0.40899 0.1722 0.0
H1365 H 0.8689 0.39401 1.00364 0.0
H1366 H 0.8555 0.39374 0.0586 0.0
H1367 H 0.88397 0.41672 0.13416 0.0
H1368 H 0.86326 0.39679 0.29503 0.0
H1369 H 0.86485 0.41188 0.24241 0.0
H1370 H 0.82903 0.40072 0.15805 0.0
C1371 C 0.86299 0.40363 0.0524 0.0
C1372 C 0.87185 0.41358 0.13922 0.0
C1373 C 0.87064 0.40379 0.02089 0.0
C1374 C 0.85571 0.39359 0.27393 0.0
C1375 C 0.85684 0.40202 0.24342 0.0
C1376 C 0.84107 0.40417 0.15337 0.0
C1377 C 0.86619 0.41525 0.07682 0.0
C1378 C 0.86086 0.41298 0.11262 0.0
C1379 C 0.8485 0.39717 0.21423 0.0
C1380 C 0.85229 0.40393 0.17981 0.0
H1381 H 0.89201 0.43734 0.03052 0.0
H1382 H 0.87883 0.43693 0.08614 0.0
H1383 H 0.8366 0.40797 0.10018 0.0
H1384 H 0.82883 0.36621 0.24974 0.0
H1385 H 0.83119 0.38033 0.19608 0.0
C1386 C 0.85528 0.61791 0.26473 0.0
C1387 C 0.84532 0.63097 0.26204 0.0
C1388 C 0.8565 0.60961 0.29538 0.0
C1389 C 0.84098 0.60779 0.38565 0.0
H1390 H 0.88399 0.59551 0.40456 0.0
C1391 C 0.87069 0.60868 0.51791 0.0
C1392 C 0.88155 0.59682 0.5261 0.0
C1393 C 0.86302 0.60872 0.48644 0.0
C1394 C 0.87185 0.59857 0.39959 0.0
H1395 H 0.82843 0.6454 0.28875 0.0
H1396 H 0.83094 0.63148 0.34265 0.0
H1397 H 0.87671 0.60328 0.34743 0.0
H1398 H 0.89242 0.57532 0.50843 0.0
H1399 H 0.8792 0.57551 0.45288 0.0
H1400 H 0.83665 0.60416 0.43896 0.0
C1401 C 0.83744 0.62708 0.32099 0.0
C1402 C 0.86758 0.60301 0.36658 0.0
C1403 C 0.83593 0.63511 0.28997 0.0
C1404 C 0.88389 0.58444 0.50301 0.0
C1405 C 0.87646 0.58466 0.47111 0.0
C1406 C 0.84536 0.60363 0.41889 0.0
C1407 C 0.84823 0.61457 0.32459 0.0
C1408 C 0.85213 0.60798 0.35908 0.0
C1409 C 0.86633 0.59709 0.46209 0.0
C1410 C 0.86092 0.59921 0.42632 0.0
H1411 H 0.86278 0.61462 0.24359 0.0
H1412 H 0.86453 0.59975 0.29648 0.0
H1413 H 0.82891 0.61118 0.38105 0.0
H1414 H 0.86882 0.61846 0.53513 0.0
H1415 H 0.85541 0.61852 0.48021 0.0
C1416 C 0.38262 0.4286 0.50438 0.0
C1417 C 0.38057 0.41622 0.5276 0.0
C1418 C 0.37499 0.42827 0.47271 0.0
C1419 C 0.34391 0.40872 0.42138 0.0
H1420 H 0.37494 0.40937 0.34928 0.0
C1421 C 0.33468 0.37637 0.29353 0.0
C1422 C 0.34387 0.38053 0.2653 0.0
C1423 C 0.33611 0.38462 0.32426 0.0
C1424 C 0.36588 0.40955 0.36861 0.0
H1425 H 0.36818 0.39447 0.53715 0.0
H1426 H 0.35439 0.39421 0.48268 0.0
H1427 H 0.38231 0.41749 0.4061 0.0
H1428 H 0.36087 0.39715 0.24604 0.0
H1429 H 0.36246 0.41239 0.29844 0.0
H1430 H 0.32745 0.40071 0.38402 0.0
C1431 C 0.36192 0.4041 0.48861 0.0
C1432 C 0.37021 0.41418 0.40145 0.0
C1433 C 0.36979 0.40425 0.51985 0.0
C1434 C 0.35352 0.39384 0.26739 0.0
C1435 C 0.35465 0.40236 0.29777 0.0
C1436 C 0.33948 0.40434 0.38831 0.0
C1437 C 0.36495 0.41572 0.46407 0.0
C1438 C 0.35941 0.41343 0.42842 0.0
C1439 C 0.34662 0.39739 0.32729 0.0
C1440 C 0.35052 0.40425 0.36152 0.0
H1441 H 0.39111 0.43779 0.50945 0.0
H1442 H 0.37752 0.43741 0.45432 0.0
H1443 H 0.3353 0.4081 0.44163 0.0
H1444 H 0.32745 0.3659 0.29278 0.0
H1445 H 0.3298 0.38021 0.34617 0.0
C1446 C 0.38376 0.58271 0.039 0.0
C1447 C 0.38111 0.59491 1.0156 0.0
C1448 C 0.37643 0.58298 0.07102 0.0
C1449 C 0.34527 0.60176 0.12344 0.0
H1450 H 0.37707 0.60269 0.19387 0.0
C1451 C 0.33607 0.63437 0.25106 0.0
C1452 C 0.34576 0.63076 0.27885 0.0
C1453 C 0.33752 0.62602 0.22043 0.0
C1454 C 0.36782 0.60206 0.17504 0.0
H1455 H 0.36794 0.61623 1.00615 0.0
H1456 H 0.35468 0.61635 0.06126 0.0
H1457 H 0.38413 0.59451 0.13689 0.0
H1458 H 0.3637 0.61499 0.29751 0.0
H1459 H 0.36535 0.59954 0.24541 0.0
H1460 H 0.32892 0.60936 0.16145 0.0
C1461 C 0.36245 0.60666 0.05519 0.0
C1462 C 0.37196 0.59739 0.14211 0.0
C1463 C 0.37002 0.60658 0.02359 0.0
C1464 C 0.35597 0.61787 0.2765 0.0
C1465 C 0.35712 0.60924 0.24627 0.0
C1466 C 0.34103 0.60616 0.15662 0.0
C1467 C 0.3661 0.59526 0.07985 0.0
C1468 C 0.36086 0.59758 0.11571 0.0
C1469 C 0.34855 0.6137 0.2171 0.0
C1470 C 0.35234 0.60682 0.18282 0.0
H1471 H 0.39248 0.57375 0.03374 0.0
H1472 H 0.37944 0.57402 0.0895 0.0
H1473 H 0.33643 0.60195 0.10363 0.0
H1474 H 0.32838 0.64452 0.25199 0.0
H1475 H 0.33077 0.63005 0.19879 0.0
C1476 C 0.12623 0.58621 1.00078 0.0
C1477 C 0.13007 0.5956 0.02889 0.0
C1478 C 0.13458 0.5877 0.97017 0.0
C1479 C 0.15904 0.61782 0.92566 0.0
H1480 H 0.15864 0.58687 0.85335 0.0
C1481 C 0.1784 0.63428 0.78987 0.0
C1482 C 0.16617 0.63187 0.76646 0.0
C1483 C 0.17808 0.62681 0.82173 0.0
C1484 C 0.15897 0.59558 0.87341 0.0
H1485 H 0.14622 0.61304 0.0481 0.0
H1486 H 0.16165 0.61476 0.99594 0.0
H1487 H 0.15115 0.57912 0.91098 0.0
H1488 H 0.14472 0.61898 0.75681 0.0
H1489 H 0.14447 0.6055 0.81165 0.0
H1490 H 0.16679 0.63425 0.88795 0.0
C1491 C 0.15179 0.60674 0.9966 0.0
C1492 C 0.15454 0.5912 0.90648 0.0
C1493 C 0.14316 0.60555 0.02683 0.0
C1494 C 0.15438 0.6209 0.77428 0.0
C1495 C 0.15424 0.61319 0.80571 0.0
C1496 C 0.16374 0.62209 0.89282 0.0
C1497 C 0.14713 0.59847 0.96717 0.0
C1498 C 0.15406 0.60237 0.933 0.0
C1499 C 0.16569 0.61658 0.83039 0.0
C1500 C 0.16337 0.61115 0.8661 0.0
H1501 H 0.11592 0.57874 1.00151 0.0
H1502 H 0.13041 0.5812 0.94832 0.0
H1503 H 0.15857 0.62695 0.94478 0.0
H1504 H 0.18746 0.6429 0.78472 0.0
H1505 H 0.18708 0.62962 0.84022 0.0
C1506 C 0.1549 0.39253 0.77745 0.0
C1507 C 0.16477 0.37938 0.77955 0.0
C1508 C 0.1537 0.40109 0.74713 0.0
C1509 C 0.16902 0.40346 0.65678 0.0
H1510 H 0.12599 0.41596 0.63869 0.0
C1511 C 0.13895 0.40312 0.52501 0.0
C1512 C 0.12816 0.41507 0.51708 0.0
C1513 C 0.14668 0.40296 0.5564 0.0
C1514 C 0.13814 0.41284 0.64344 0.0
H1515 H 0.18154 0.36507 0.7522 0.0
H1516 H 0.17904 0.37943 0.69886 0.0
H1517 H 0.1334 0.40787 0.69553 0.0
H1518 H 0.11742 0.43657 0.5351 0.0
H1519 H 0.13073 0.43614 0.59056 0.0
H1520 H 0.17322 0.40735 0.60352 0.0
C1521 C 0.1726 0.3837 0.72073 0.0
C1522 C 0.14248 0.40822 0.67628 0.0
C1523 C 0.17411 0.37542 0.75143 0.0
C1524 C 0.1259 0.42738 0.54036 0.0
C1525 C 0.13339 0.42704 0.57218 0.0
C1526 C 0.16456 0.40781 0.62371 0.0
C1527 C 0.16188 0.3963 0.71768 0.0
C1528 C 0.15793 0.40315 0.68347 0.0
C1529 C 0.14349 0.41455 0.58092 0.0
C1530 C 0.149 0.41229 0.61657 0.0
H1531 H 0.14745 0.3957 0.79875 0.0
H1532 H 0.14573 0.411 0.74645 0.0
H1533 H 0.18109 0.40001 0.66115 0.0
H1534 H 0.14076 0.3934 0.50762 0.0
H1535 H 0.15427 0.39311 0.56242 0.0
C1536 C 0.15319 0.24366 0.40702 0.0
C1537 C 0.14905 0.23485 0.37807 0.0
C1538 C 0.14957 0.25969 0.40918 0.0
C1539 C 0.1374 0.29386 0.35499 0.0
H1540 H 0.12875 0.3132 0.44235 0.0
C1541 C 0.10982 0.35616 0.38134 0.0
C1542 C 0.12125 0.36651 0.39411 0.0
C1543 C 0.11297 0.34004 0.37894 0.0
C1544 C 0.13113 0.30788 0.41784 0.0
H1545 H 0.1378 0.23641 0.3285 0.0
H1546 H 0.13055 0.26374 0.33335 0.0
H1547 H 0.13423 0.28504 0.43946 0.0
H1548 H 0.14472 0.36813 0.41513 0.0
H1549 H 0.15006 0.33984 0.4117 0.0
H1550 H 0.13369 0.3168 0.33357 0.0
C1551 C 0.13706 0.25846 0.35406 0.0
C1552 C 0.13443 0.29178 0.41611 0.0
C1553 C 0.14096 0.24255 0.35161 0.0
C1554 C 0.13581 0.36043 0.40473 0.0
C1555 C 0.13883 0.3443 0.40301 0.0
C1556 C 0.1338 0.30989 0.35673 0.0
C1557 C 0.14144 0.26735 0.3827 0.0
C1558 C 0.1377 0.28452 0.38465 0.0
C1559 C 0.12745 0.33401 0.39004 0.0
C1560 C 0.13074 0.317 0.38815 0.0
H1561 H 0.15925 0.23822 0.42818 0.0
H1562 H 0.15338 0.26609 0.43148 0.0
H1563 H 0.1402 0.28891 0.33037 0.0
H1564 H 0.09853 0.36059 0.37301 0.0
H1565 H 0.10406 0.33224 0.36885 0.0
C1566 C 0.90621 0.86409 0.6706 0.0
C1567 C 0.8961 0.86787 0.64354 0.0
C1568 C 0.92223 0.86767 0.66883 0.0
C1569 C 0.95071 0.89269 0.62082 0.0
H1570 H 0.98157 0.866 0.66487 0.0
C1571 C 0.01759 0.89816 0.59799 0.0
C1572 C 0.02715 0.89872 0.62712 0.0
C1573 C 1.00164 0.89449 0.60065 0.0
C1574 C 0.97305 0.87361 0.65268 0.0
H1575 H 0.89487 0.87793 0.59311 0.0
H1576 H 0.92293 0.8836 0.58917 0.0
H1577 H 0.95381 0.85888 0.66706 0.0
H1578 H 0.02755 0.89579 0.68184 0.0
H1579 H 0.99958 0.88898 0.68645 0.0
H1580 H 0.97014 0.90709 0.60553 0.0
C1581 C 0.91848 0.87836 0.61234 0.0
C1582 C 0.95711 0.86959 0.654 0.0
C1583 C 0.9024 0.87502 0.6144 0.0
C1584 C 0.02043 0.89546 0.65902 0.0
C1585 C 1.00449 0.89149 0.66161 0.0
C1586 C 0.96666 0.89655 0.61904 0.0
C1587 C 0.92862 0.87492 0.63971 0.0
C1588 C 0.94568 0.87909 0.63811 0.0
C1589 C 0.99493 0.89105 0.63245 0.0
C1590 C 0.97799 0.88706 0.63497 0.0
H1591 H 0.90162 0.85884 0.69364 0.0
H1592 H 0.92951 0.86509 0.69072 0.0
H1593 H 0.94232 0.90053 0.60894 0.0
H1594 H 0.02243 0.90078 0.57312 0.0
H1595 H 0.99456 0.89416 0.57775 0.0
C1596 C 0.37554 0.65081 0.89214 0.0
C1597 C 0.39108 0.64519 0.8938 0.0
C1598 C 0.37245 0.66692 0.89061 0.0
C1599 C 0.39047 0.70546 0.87052 0.0
H1600 H 0.35559 0.72163 0.92357 0.0
C1601 C 0.37787 0.77218 0.88361 0.0
C1602 C 0.36205 0.77687 0.8811 0.0
C1603 C 0.38184 0.75624 0.88616 0.0
C1604 C 0.36529 0.71729 0.90836 0.0
H1605 H 0.41556 0.65228 0.89417 0.0
H1606 H 0.41015 0.68043 0.89207 0.0
H1607 H 0.36174 0.69368 0.92537 0.0
H1608 H 0.33803 0.76836 0.87889 0.0
H1609 H 0.34494 0.74069 0.88359 0.0
H1610 H 0.39398 0.72913 0.8535 0.0
C1611 C 0.40035 0.67232 0.89175 0.0
C1612 C 0.36881 0.70125 0.90935 0.0
C1613 C 0.40345 0.65616 0.89328 0.0
C1614 C 0.35031 0.76524 0.88151 0.0
C1615 C 0.35428 0.74933 0.88413 0.0
C1616 C 0.38696 0.72153 0.86957 0.0
C1617 C 0.38479 0.6779 0.89073 0.0
C1618 C 0.38136 0.69509 0.89024 0.0
C1619 C 0.37009 0.74462 0.88633 0.0
C1620 C 0.37424 0.72763 0.88829 0.0
H1621 H 0.36568 0.6428 0.89283 0.0
H1622 H 0.36033 0.67078 0.88932 0.0
H1623 H 0.40012 0.7011 0.8552 0.0
H1624 H 0.3872 0.78083 0.88375 0.0
H1625 H 0.39412 0.75304 0.88828 0.0
C1626 C 0.49269 0.11279 0.15818 0.0
C1627 C 0.48492 0.11328 0.12662 0.0
C1628 C 0.50866 0.11665 0.16057 0.0
C1629 C 0.5448 0.11839 0.1092 0.0
H1630 H 0.5606 0.14495 0.1817 0.0
C1631 C 0.60557 0.1531 0.14749 0.0
C1632 C 0.61664 0.1409 0.14371 0.0
C1633 C 0.58943 0.15003 0.14541 0.0
C1634 C 0.55634 0.13759 0.16121 0.0
H1635 H 0.48794 0.11801 0.07277 0.0
H1636 H 0.51568 0.1248 0.07699 0.0
H1637 H 0.53247 0.13909 0.17853 0.0
H1638 H 0.61905 0.11579 0.13462 0.0
H1639 H 0.59109 0.11064 0.13029 0.0
H1640 H 0.56862 0.11686 0.09187 0.0
C1641 C 0.50944 0.12144 0.09989 0.0
C1642 C 0.54027 0.13411 0.15958 0.0
C1643 C 0.49349 0.11771 0.09755 0.0
C1644 C 0.61106 0.1256 0.13721 0.0
C1645 C 0.59495 0.12259 0.1348 0.0
C1646 C 0.56086 0.12173 0.11102 0.0
C1647 C 0.51724 0.1209 0.13138 0.0
C1648 C 0.53432 0.12451 0.13349 0.0
C1649 C 0.58395 0.13473 0.13907 0.0
C1650 C 0.56682 0.13138 0.13701 0.0
H1651 H 0.48641 0.10949 0.18106 0.0
H1652 H 0.51437 0.11601 0.18515 0.0
H1653 H 0.54061 0.11084 0.08897 0.0
H1654 H 0.60931 0.16507 0.15194 0.0
H1655 H 0.58123 0.15968 0.14836 0.0
C1656 C 0.10705 0.65674 0.14708 0.0
C1657 C 0.11937 0.64569 0.1476 0.0
C1658 C 0.11023 0.67288 0.14751 0.0
C1659 C 0.14196 0.70135 0.12836 0.0
H1660 H 0.1168 0.73015 0.18205 0.0
C1661 C 0.16071 0.76556 0.15262 0.0
C1662 C 0.14903 0.77727 0.15248 0.0
C1663 C 0.15668 0.74967 0.15064 0.0
C1664 C 0.12382 0.72229 0.16656 0.0
H1665 H 0.14475 0.64315 0.1492 0.0
H1666 H 0.15024 0.67114 0.15075 0.0
H1667 H 0.11052 0.70215 0.18215 0.0
H1668 H 0.12391 0.78135 0.14936 0.0
H1669 H 0.11686 0.75358 0.14589 0.0
H1670 H 0.15531 0.72144 0.11293 0.0
C1671 C 0.13811 0.66734 0.14953 0.0
C1672 C 0.12022 0.70624 0.16664 0.0
C1673 C 0.13493 0.65123 0.14913 0.0
C1674 C 0.1332 0.77265 0.14992 0.0
C1675 C 0.12915 0.75672 0.14799 0.0
C1676 C 0.14556 0.71738 0.1283 0.0
C1677 C 0.12582 0.67839 0.14839 0.0
C1678 C 0.12933 0.69554 0.14774 0.0
C1679 C 0.14085 0.74503 0.14853 0.0
C1680 C 0.1366 0.72805 0.14758 0.0
H1681 H 0.09493 0.65291 0.14625 0.0
H1682 H 0.10048 0.68105 0.14642 0.0
H1683 H 0.14903 0.69351 0.11296 0.0
H1684 H 0.173 0.76864 0.15529 0.0
H1685 H 0.16597 0.74098 0.15169 0.0
C1686 C 0.48843 0.88361 0.39961 0.0
C1687 C 0.48376 0.89943 0.40219 0.0
C1688 C 0.50437 0.87959 0.39773 0.0
C1689 C 0.54368 0.89603 0.37811 0.0
H1690 H 0.55897 0.86106 0.4321 0.0
C1691 C 0.60988 0.8854 0.39848 0.0
C1692 C 0.61542 0.86982 0.39711 0.0
C1693 C 0.59377 0.88859 0.39901 0.0
C1694 C 0.55488 0.87074 0.41655 0.0
H1695 H 0.49233 0.92342 0.40508 0.0
H1696 H 0.52001 0.91643 0.40152 0.0
H1697 H 0.53097 0.86731 0.43197 0.0
H1698 H 0.60819 0.84539 0.39625 0.0
H1699 H 0.58006 0.85097 0.39661 0.0
H1700 H 0.56754 0.89951 0.36271 0.0
C1701 C 0.51135 0.90712 0.40044 0.0
C1702 C 0.53881 0.87432 0.41646 0.0
C1703 C 0.49544 0.91113 0.40238 0.0
C1704 C 0.60437 0.85752 0.39693 0.0
C1705 C 0.58823 0.86072 0.39747 0.0
C1706 C 0.55972 0.89245 0.37817 0.0
C1707 C 0.51603 0.8913 0.39833 0.0
C1708 C 0.53303 0.88708 0.39742 0.0
C1709 C 0.58272 0.87631 0.39817 0.0
C1710 C 0.56555 0.87984 0.39759 0.0
H1711 H 0.47976 0.8743 0.39901 0.0
H1712 H 0.50756 0.8673 0.39564 0.0
H1713 H 0.5396 0.90577 0.36271 0.0
H1714 H 0.61795 0.89521 0.3983 0.0
H1715 H 0.58997 0.90073 0.4001 0.0
C1716 C 0.40398 0.35485 0.64658 0.0
C1717 C 0.39159 0.36582 0.64685 0.0
C1718 C 0.40091 0.33868 0.64729 0.0
C1719 C 0.36939 0.30995 0.6285 0.0
H1720 H 0.39443 0.28154 0.68342 0.0
C1721 C 0.35052 0.24595 0.65455 0.0
C1722 C 0.36219 0.23423 0.65495 0.0
C1723 C 0.3546 0.26183 0.65217 0.0
C1724 C 0.38745 0.28929 0.66759 0.0
H1725 H 0.36619 0.36818 0.64825 0.0
H1726 H 0.36089 0.34017 0.65027 0.0
H1727 H 0.40067 0.30955 0.6827 0.0
H1728 H 0.38731 0.23008 0.65244 0.0
H1729 H 0.39443 0.25782 0.64827 0.0
H1730 H 0.35612 0.28975 0.61353 0.0
C1731 C 0.373 0.34405 0.64905 0.0
C1732 C 0.39102 0.30535 0.6672 0.0
C1733 C 0.37606 0.36018 0.64838 0.0
C1734 C 0.37804 0.2388 0.65258 0.0
C1735 C 0.38212 0.25471 0.65024 0.0
C1736 C 0.36582 0.29392 0.6289 0.0
C1737 C 0.38536 0.33308 0.64819 0.0
C1738 C 0.38195 0.3159 0.64788 0.0
C1739 C 0.37045 0.26642 0.65018 0.0
C1740 C 0.37472 0.28339 0.64866 0.0
H1741 H 0.41608 0.35877 0.64574 0.0
H1742 H 0.41071 0.33057 0.64642 0.0
H1743 H 0.36235 0.31768 0.61278 0.0
H1744 H 0.33822 0.24292 0.65706 0.0
H1745 H 0.34532 0.27054 0.65278 0.0
C1746 C 0.90128 0.12517 0.89842 0.0
C1747 C 0.89588 0.14079 0.89666 0.0
C1748 C 0.91737 0.12185 0.89958 0.0
C1749 C 0.95622 0.13879 0.87876 0.0
H1750 H 0.97169 0.10523 0.93651 0.0
C1751 C 0.02267 0.12663 0.89956 0.0
C1752 C 0.0275 0.11083 0.90161 0.0
C1753 C 0.0067 0.13051 0.8981 0.0
C1754 C 0.96755 0.11451 0.91991 0.0
H1755 H 0.9033 0.16516 0.89562 0.0
H1756 H 0.93139 0.15936 0.89769 0.0
H1757 H 0.94381 0.11172 0.93681 0.0
H1758 H 0.01919 0.08674 0.90344 0.0
H1759 H 0.99142 0.09348 0.90011 0.0
H1760 H 0.98 0.14155 0.86184 0.0
C1761 C 0.92314 0.14967 0.89764 0.0
C1762 C 0.95155 0.11825 0.92013 0.0
C1763 C 0.90702 0.153 0.8965 0.0
C1764 C 0.01595 0.09901 0.90144 0.0
C1765 C 0.99999 0.10289 0.90003 0.0
C1766 C 0.97224 0.13504 0.87854 0.0
C1767 C 0.92851 0.13405 0.89902 0.0
C1768 C 0.94565 0.13039 0.89945 0.0
C1769 C 0.99514 0.11869 0.89877 0.0
C1770 C 0.9781 0.1228 0.89899 0.0
H1771 H 0.89313 0.11543 0.89796 0.0
H1772 H 0.92107 0.10967 0.90008 0.0
H1773 H 0.95205 0.14806 0.86216 0.0
H1774 H 0.03126 0.13602 0.89937 0.0
H1775 H 1.0034 0.1428 0.89737 0.0
C1776 C 0.84847 0.76523 0.65907 0.0
C1777 C 0.86037 0.77671 0.65923 0.0
C1778 C 0.85225 0.74924 0.65752 0.0
C1779 C 0.88465 0.72137 0.67479 0.0
H1780 H 0.85972 0.69285 0.62005 0.0
C1781 C 0.90235 0.65641 0.65208 0.0
C1782 C 0.8903 0.6451 0.65133 0.0
C1783 C 0.89881 0.67245 0.65381 0.0
C1784 C 0.86668 0.70061 0.63582 0.0
H1785 H 0.88558 0.7803 0.65702 0.0
H1786 H 0.89216 0.7524 0.65424 0.0
H1787 H 0.85343 0.7208 0.62045 0.0
H1788 H 0.86499 0.64196 0.65235 0.0
H1789 H 0.85884 0.66983 0.65614 0.0
H1790 H 0.89789 0.70117 0.69021 0.0
C1791 C 0.87991 0.75578 0.65584 0.0
C1792 C 0.86309 0.71666 0.636 0.0
C1793 C 0.87613 0.77178 0.65736 0.0
C1794 C 0.87461 0.65026 0.65316 0.0
C1795 C 0.87106 0.6663 0.65487 0.0
C1796 C 0.88824 0.70532 0.67463 0.0
C1797 C 0.86801 0.7443 0.65613 0.0
C1798 C 0.87201 0.72724 0.65552 0.0
C1799 C 0.88311 0.67762 0.65484 0.0
C1800 C 0.87928 0.69472 0.65519 0.0
H1801 H 0.83622 0.76856 0.66117 0.0
H1802 H 0.84279 0.74073 0.65831 0.0
H1803 H 0.89161 0.72915 0.69053 0.0
H1804 H 0.91456 0.65287 0.6511 0.0
H1805 H 0.90839 0.68083 0.65351 0.0
C1806 C 0.99245 0.11524 0.4425 0.0
C1807 C 0.98345 0.11336 0.41284 0.0
C1808 C 0.00843 0.11891 0.44052 0.0
C1809 C 0.04229 0.11933 0.37985 0.0
H1810 H 0.06137 0.14497 0.45016 0.0
C1811 C 0.10491 0.1456 0.36958 0.0
C1812 C 0.11485 0.14287 0.39753 0.0
C1813 C 0.0889 0.14204 0.37149 0.0
C1814 C 0.0562 0.13773 0.43048 0.0
H1815 H 0.98404 0.11403 0.35783 0.0
H1816 H 0.01179 0.12112 0.35415 0.0
H1817 H 0.03333 0.13921 0.45271 0.0
H1818 H 0.11583 0.13448 0.44944 0.0
H1819 H 0.08762 0.12861 0.45317 0.0
H1820 H 0.06519 0.11839 0.35713 0.0
C1821 C 0.00669 0.1193 0.37906 0.0
C1822 C 0.04012 0.13433 0.43196 0.0
C1823 C 0.99074 0.11534 0.38109 0.0
C1824 C 0.10841 0.13667 0.42758 0.0
C1825 C 0.09231 0.13339 0.42972 0.0
C1826 C 0.0583 0.12298 0.37808 0.0
C1827 C 0.01581 0.12106 0.40877 0.0
C1828 C 0.03292 0.12499 0.40677 0.0
C1829 C 0.08243 0.13593 0.40159 0.0
C1830 C 0.06542 0.13214 0.40346 0.0
H1831 H 0.98718 0.11351 0.46733 0.0
H1832 H 0.01503 0.11977 0.46398 0.0
H1833 H 0.03734 0.11185 0.36032 0.0
H1834 H 0.1096 0.15016 0.34595 0.0
H1835 H 0.08153 0.14417 0.34948 0.0
C1836 C 0.62483 0.35785 0.17569 0.0
C1837 C 0.61794 0.36424 0.14636 0.0
C1838 C 0.62826 0.34178 0.17757 0.0
C1839 C 0.62015 0.30332 0.13434 0.0
H1840 H 0.65677 0.28996 0.18548 0.0
C1841 C 0.64667 0.24018 0.12922 0.0
C1842 C 0.6491 0.23315 0.16114 0.0
C1843 C 0.64262 0.25612 0.12689 0.0
C1844 C 0.64647 0.29353 0.1712 0.0
H1845 H 0.60955 0.35893 0.09568 0.0
H1846 H 0.616 0.33108 0.09823 0.0
H1847 H 0.65026 0.31781 0.18229 0.0
H1848 H 0.64958 0.23729 0.21552 0.0
H1849 H 0.64286 0.26519 0.21139 0.0
H1850 H 0.61681 0.27892 0.12242 0.0
C1851 C 0.61827 0.33825 0.12044 0.0
C1852 C 0.64264 0.30951 0.16955 0.0
C1853 C 0.61458 0.35425 0.11887 0.0
C1854 C 0.64761 0.24238 0.19062 0.0
C1855 C 0.64388 0.25834 0.18826 0.0
C1856 C 0.62417 0.28737 0.1355 0.0
C1857 C 0.62518 0.33174 0.14981 0.0
C1858 C 0.62935 0.31465 0.1513 0.0
C1859 C 0.6413 0.26536 0.1564 0.0
C1860 C 0.6373 0.28232 0.15415 0.0
H1861 H 0.62743 0.3653 0.19729 0.0
H1862 H 0.63324 0.33724 0.20093 0.0
H1863 H 0.60967 0.30669 0.12054 0.0
H1864 H 0.64775 0.23331 0.10614 0.0
H1865 H 0.64076 0.26128 0.10201 0.0
C1866 C 0.40275 0.87502 0.92601 0.0
C1867 C 0.39649 0.86818 0.89646 0.0
C1868 C 0.41884 0.87832 0.92828 0.0
C1869 C 0.45306 0.88778 0.87652 0.0
H1870 H 0.4776 0.87377 0.95386 0.0
C1871 C 0.52049 0.89657 0.88162 0.0
C1872 C 0.52742 0.89935 0.91345 0.0
C1873 C 0.5046 0.89241 0.87929 0.0
C1874 C 0.47092 0.87803 0.93231 0.0
H1875 H 0.40207 0.85968 0.84591 0.0
H1876 H 0.43013 0.86571 0.84964 0.0
H1877 H 0.44969 0.86748 0.95088 0.0
H1878 H 0.52311 0.90046 0.96769 0.0
H1879 H 0.49536 0.89386 0.96373 0.0
H1880 H 0.47399 0.89883 0.85836 0.0
C1881 C 0.42262 0.86833 0.87117 0.0
C1882 C 0.45492 0.87432 0.93058 0.0
C1883 C 0.40661 0.86475 0.86917 0.0
C1884 C 0.51812 0.89813 0.94285 0.0
C1885 C 0.5022 0.89425 0.94052 0.0
C1886 C 0.46899 0.89174 0.8785 0.0
C1887 C 0.42889 0.87515 0.90074 0.0
C1888 C 0.44585 0.87912 0.90264 0.0
C1889 C 0.4952 0.89121 0.90873 0.0
C1890 C 0.47819 0.88691 0.90642 0.0
H1891 H 0.39519 0.87775 0.94736 0.0
H1892 H 0.42337 0.88365 0.9513 0.0
H1893 H 0.44627 0.89176 0.85484 0.0
H1894 H 0.52744 0.89736 0.85858 0.0
H1895 H 0.49978 0.88992 0.85438 0.0
C1896 C 0.87589 0.36016 0.88977 0.0
C1897 C 0.89138 0.36592 0.89142 0.0
C1898 C 0.87295 0.34401 0.88848 0.0
C1899 C 0.89158 0.30568 0.86878 0.0
H1900 H 0.8564 0.28902 0.92013 0.0
C1901 C 0.86906 0.24224 0.8505 0.0
C1902 C 0.86393 0.23386 0.87931 0.0
C1903 C 0.87295 0.25815 0.85283 0.0
C1904 C 0.86637 0.29344 0.90591 0.0
H1905 H 0.91592 0.35903 0.89211 0.0
H1906 H 0.91079 0.33085 0.8905 0.0
H1907 H 0.86225 0.31702 0.92259 0.0
H1908 H 0.85909 0.23569 0.9333 0.0
H1909 H 0.86598 0.2635 0.93746 0.0
H1910 H 0.89585 0.28205 0.85257 0.0
C1911 C 0.9009 0.33887 0.88995 0.0
C1912 C 0.8696 0.30955 0.90695 0.0
C1913 C 0.90385 0.35505 0.89122 0.0
C1914 C 0.86285 0.24182 0.91057 0.0
C1915 C 0.86678 0.25777 0.91292 0.0
C1916 C 0.88835 0.28956 0.86775 0.0
C1917 C 0.88541 0.33313 0.88883 0.0
C1918 C 0.88219 0.31591 0.88823 0.0
C1919 C 0.87184 0.26616 0.88404 0.0
C1920 C 0.87564 0.28324 0.88614 0.0
H1921 H 0.86595 0.36809 0.89022 0.0
H1922 H 0.86088 0.34004 0.8871 0.0
H1923 H 0.90129 0.31016 0.85384 0.0
H1924 H 0.8697 0.23659 0.82585 0.0
H1925 H 0.87649 0.26428 0.82993 0.0
C1926 C 0.40206 0.13556 0.61147 0.0
C1927 C 0.39582 0.14251 0.64088 0.0
C1928 C 0.41813 0.13212 0.60925 0.0
C1929 C 0.45676 0.14038 0.65158 0.0
H1930 H 0.47 0.10362 0.60076 0.0
C1931 C 0.51979 0.11388 0.65722 0.0
C1932 C 0.52688 0.11129 0.62542 0.0
C1933 C 0.50385 0.11791 0.65934 0.0
C1934 C 0.46646 0.11396 0.61493 0.0
H1935 H 0.40138 0.15099 0.69137 0.0
H1936 H 0.42921 0.14452 0.68823 0.0
H1937 H 0.44215 0.11016 0.60412 0.0
H1938 H 0.52283 0.11052 0.57102 0.0
H1939 H 0.49491 0.11722 0.57479 0.0
H1940 H 0.48117 0.14373 0.66324 0.0
C1941 C 0.42193 0.14222 0.66621 0.0
C1942 C 0.45049 0.1178 0.61669 0.0
C1943 C 0.40594 0.14591 0.66812 0.0
C1944 C 0.51769 0.1126 0.59584 0.0
C1945 C 0.50172 0.11632 0.59799 0.0
C1946 C 0.47271 0.13634 0.65031 0.0
C1947 C 0.4283 0.13526 0.63674 0.0
C1948 C 0.44538 0.13113 0.6349 0.0
C1949 C 0.49465 0.11908 0.62973 0.0
C1950 C 0.47771 0.12315 0.63182 0.0
H1951 H 0.39451 0.13293 0.59006 0.0
H1952 H 0.42255 0.12709 0.58583 0.0
H1953 H 0.45343 0.15089 0.6653 0.0
H1954 H 0.52663 0.11295 0.68038 0.0
H1955 H 0.49866 0.1199 0.68413 0.0
C1956 C 0.6608 0.76521 0.38357 0.0
C1957 C 0.64905 0.77684 0.3843 0.0
C1958 C 0.65685 0.74927 0.38481 0.0
C1959 C 0.62486 0.72164 0.40773 0.0
H1960 H 0.64774 0.69314 0.34875 0.0
C1961 C 0.60745 0.65609 0.39185 0.0
C1962 C 0.61983 0.64512 0.39151 0.0
C1963 C 0.61052 0.67225 0.39021 0.0
C1964 C 0.64133 0.70091 0.36561 0.0
H1965 H 0.62392 0.78075 0.38779 0.0
H1966 H 0.617 0.75291 0.38947 0.0
H1967 H 0.65407 0.72105 0.34834 0.0
H1968 H 0.64523 0.64274 0.38947 0.0
H1969 H 0.65052 0.67073 0.38643 0.0
H1970 H 0.61213 0.70143 0.42501 0.0
C1971 C 0.6293 0.75614 0.38819 0.0
C1972 C 0.64498 0.71692 0.36543 0.0
C1973 C 0.63326 0.77211 0.38691 0.0
C1974 C 0.63535 0.65074 0.38914 0.0
C1975 C 0.63841 0.66686 0.38745 0.0
C1976 C 0.62119 0.70559 0.4079 0.0
C1977 C 0.64105 0.74451 0.38677 0.0
C1978 C 0.63688 0.72749 0.38666 0.0
C1979 C 0.62605 0.67783 0.3881 0.0
C1980 C 0.62947 0.69501 0.38701 0.0
H1981 H 0.67307 0.76837 0.38109 0.0
H1982 H 0.66622 0.74065 0.38415 0.0
H1983 H 0.61849 0.72941 0.42466 0.0
H1984 H 0.59536 0.6522 0.39321 0.0
H1985 H 0.60072 0.68037 0.39031 0.0
C1986 C 0.98863 0.88324 0.13667 0.0
C1987 C 0.98381 0.89902 0.13407 0.0
C1988 C 1.00461 0.87933 0.13766 0.0
C1989 C 0.04373 0.89516 0.11442 0.0
H1990 H 0.05944 0.8622 0.17348 0.0
C1991 C 0.11 0.88545 0.13749 0.0
C1992 C 0.11563 0.86992 0.13956 0.0
C1993 C 0.09388 0.88854 0.13592 0.0
C1994 C 0.05522 0.8713 0.15652 0.0
H1995 H 0.99218 0.92306 0.13056 0.0
H1996 H 0.01993 0.9163 0.13321 0.0
H1997 H 0.03145 0.86853 0.17355 0.0
H1998 H 0.10852 0.84544 0.14072 0.0
H1999 H 0.08037 0.85086 0.13808 0.0
H2000 H 0.06748 0.898 0.09753 0.0
C2001 C 0.01136 0.9069 0.13405 0.0
C2002 C 0.03916 0.87494 0.15658 0.0
C2003 C 0.9954 0.9108 0.13305 0.0
C2004 C 0.10464 0.85755 0.13963 0.0
C2005 C 0.08849 0.86065 0.13814 0.0
C2006 C 0.05976 0.89153 0.1144 0.0
C2007 C 0.01619 0.89111 0.136 0.0
C2008 C 0.03323 0.88699 0.13568 0.0
C2009 C 0.08291 0.8762 0.13641 0.0
C2010 C 0.06573 0.87963 0.13559 0.0
H2011 H 0.98003 0.87387 0.13776 0.0
H2012 H 0.00789 0.86705 0.13893 0.0
H2013 H 0.03955 0.90428 0.09746 0.0
H2014 H 0.118 0.89532 0.13799 0.0
H2015 H 0.09001 0.90066 0.13515 0.0
C2016 C 0.64751 0.74344 0.84608 0.0
C2017 C 0.64885 0.73397 0.8752 0.0
C2018 C 0.64343 0.7593 0.84888 0.0
C2019 C 0.64059 0.79211 0.91186 0.0
H2020 H 0.6164 0.81172 0.83976 0.0
C2021 C 0.61407 0.8548 0.92172 0.0
C2022 C 0.61775 0.8649 0.89453 0.0
C2023 C 0.61738 0.83872 0.91964 0.0
C2024 C 0.62321 0.8064 0.86 0.0
H2025 H 0.64685 0.73359 0.93007 0.0
H2026 H 0.63908 0.76113 0.93508 0.0
H2027 H 0.62274 0.78383 0.83624 0.0
H2028 H 0.62743 0.86608 0.8437 0.0
H2029 H 0.63286 0.83781 0.83964 0.0
H2030 H 0.64055 0.81473 0.93597 0.0
C2031 C 0.64162 0.7565 0.91004 0.0
C2032 C 0.62696 0.79041 0.85795 0.0
C2033 C 0.64598 0.74067 0.90723 0.0
C2034 C 0.62452 0.85854 0.86498 0.0
C2035 C 0.62755 0.8424 0.86264 0.0
C2036 C 0.63659 0.80804 0.91416 0.0
C2037 C 0.64031 0.76608 0.88088 0.0
C2038 C 0.63585 0.78304 0.88369 0.0
C2039 C 0.62417 0.83237 0.89009 0.0
C2040 C 0.62798 0.81536 0.88812 0.0
H2041 H 0.6499 0.73862 0.82109 0.0
H2042 H 0.64297 0.76628 0.82587 0.0
H2043 H 0.64768 0.78704 0.93191 0.0
H2044 H 0.60903 0.85942 0.94495 0.0
H2045 H 0.61461 0.83123 0.94111 0.0
C2046 C 0.40562 0.35756 0.14431 0.0
C2047 C 0.39472 0.37001 0.14479 0.0
C2048 C 0.42177 0.36055 0.14201 0.0
C2049 C 0.4503 0.39134 0.11671 0.0
H2050 H 0.47935 0.36804 0.17362 0.0
C2051 C 0.51481 0.41051 0.13227 0.0
C2052 C 0.52642 0.39874 0.1321 0.0
C2053 C 0.49888 0.40659 0.13404 0.0
C2054 C 0.47142 0.37454 0.15727 0.0
H2055 H 0.39246 0.39543 0.14358 0.0
H2056 H 0.42044 0.40058 0.1394 0.0
H2057 H 0.45135 0.3618 0.17528 0.0
H2058 H 0.5303 0.37356 0.13447 0.0
H2059 H 0.50247 0.3667 0.13707 0.0
H2060 H 0.4703 0.40411 0.09874 0.0
C2061 C 0.41651 0.38848 0.14027 0.0
C2062 C 0.45536 0.37094 0.15819 0.0
C2063 C 0.4004 0.3855 0.14262 0.0
C2064 C 0.52167 0.38293 0.13428 0.0
C2065 C 0.50571 0.379 0.13609 0.0
C2066 C 0.46633 0.39492 0.11578 0.0
C2067 C 0.42742 0.37607 0.14003 0.0
C2068 C 0.44459 0.37939 0.13811 0.0
C2069 C 0.49411 0.39078 0.13564 0.0
C2070 C 0.47709 0.38666 0.13624 0.0
H2071 H 0.40167 0.34549 0.14551 0.0
H2072 H 0.42984 0.3507 0.14144 0.0
H2073 H 0.44238 0.39789 0.10044 0.0
H2074 H 0.51799 0.4228 0.13016 0.0
H2075 H 0.49028 0.41598 0.13411 0.0
C2076 C 0.8755 0.1512 0.38996 0.0
C2077 C 0.89103 0.14561 0.39248 0.0
C2078 C 0.87239 0.16731 0.38804 0.0
C2079 C 0.88949 0.20614 0.40801 0.0
H2080 H 0.85663 0.22139 0.34816 0.0
C2081 C 0.8774 0.27258 0.38594 0.0
C2082 C 0.86161 0.27732 0.38323 0.0
C2083 C 0.88136 0.25661 0.38745 0.0
C2084 C 0.86572 0.21732 0.36532 0.0
H2085 H 0.91548 0.15275 0.39421 0.0
H2086 H 0.91004 0.1809 0.39089 0.0
H2087 H 0.863 0.19348 0.34902 0.0
H2088 H 0.83759 0.26887 0.38011 0.0
H2089 H 0.84445 0.24115 0.38358 0.0
H2090 H 0.89214 0.23001 0.4244 0.0
C2091 C 0.90026 0.17276 0.39087 0.0
C2092 C 0.86939 0.2013 0.36577 0.0
C2093 C 0.90338 0.15661 0.39274 0.0
C2094 C 0.84986 0.2657 0.38264 0.0
C2095 C 0.85381 0.24976 0.38412 0.0
C2096 C 0.8858 0.22219 0.40758 0.0
C2097 C 0.88471 0.17831 0.38861 0.0
C2098 C 0.88125 0.19548 0.38727 0.0
C2099 C 0.86962 0.24499 0.38619 0.0
C2100 C 0.87379 0.22796 0.38639 0.0
H2101 H 0.86564 0.14319 0.39035 0.0
H2102 H 0.86027 0.17116 0.38691 0.0
H2103 H 0.89855 0.20204 0.4252 0.0
H2104 H 0.88674 0.28121 0.38672 0.0
H2105 H 0.89366 0.25337 0.38881 0.0
C2106 C 0.99179 0.62353 0.60606 0.0
C2107 C 0.98437 0.61458 0.63159 0.0
C2108 C 0.00768 0.62751 0.60853 0.0
C2109 C 0.04165 0.62811 0.6694 0.0
H2110 H 0.06579 0.6316 0.58598 0.0
C2111 C 0.11001 0.62669 0.65706 0.0
C2112 C 0.11634 0.64102 0.64568 0.0
C2113 C 0.09381 0.62403 0.65579 0.0
C2114 C 0.05913 0.63073 0.6094 0.0
H2115 H 0.98819 0.60307 0.68022 0.0
H2116 H 0.01601 0.60903 0.68334 0.0
H2117 H 0.03785 0.62543 0.58312 0.0
H2118 H 0.11083 0.66368 0.62376 0.0
H2119 H 0.08236 0.65874 0.62022 0.0
H2120 H 0.06339 0.6326 0.69542 0.0
C2121 C 0.00942 0.61345 0.66181 0.0
C2122 C 0.04306 0.62732 0.60789 0.0
C2123 C 0.99341 0.60977 0.65972 0.0
C2124 C 0.10619 0.65256 0.63262 0.0
C2125 C 0.09 0.64974 0.63059 0.0
C2126 C 0.0578 0.63116 0.67086 0.0
C2127 C 0.01683 0.62235 0.63618 0.0
C2128 C 0.03403 0.62602 0.63787 0.0
C2129 C 0.0837 0.63551 0.64244 0.0
C2130 C 0.06662 0.63255 0.64088 0.0
H2131 H 0.98548 0.62725 0.58357 0.0
H2132 H 0.01274 0.63465 0.58855 0.0
H2133 H 0.03516 0.62754 0.69306 0.0
H2134 H 0.11757 0.6177 0.66765 0.0
H2135 H 0.08916 0.61297 0.66503 0.0
C2136 C 0.64757 0.26757 0.6919 0.0
C2137 C 0.64898 0.27688 0.66252 0.0
C2138 C 0.64369 0.25165 0.68942 0.0
C2139 C 0.62357 0.22296 0.63641 0.0
H2140 H 0.64945 0.19219 0.6829 0.0
C2141 C 0.61397 0.15609 0.61872 0.0
C2142 C 0.61734 0.14603 0.64609 0.0
C2143 C 0.61753 0.17212 0.62062 0.0
C2144 C 0.64188 0.20059 0.67024 0.0
H2145 H 0.6473 0.27691 0.60755 0.0
H2146 H 0.6401 0.24903 0.60322 0.0
H2147 H 0.65614 0.21997 0.68639 0.0
H2148 H 0.62659 0.14486 0.69723 0.0
H2149 H 0.63219 0.17292 0.70139 0.0
H2150 H 0.60897 0.20378 0.62116 0.0
C2151 C 0.64213 0.25409 0.62812 0.0
C2152 C 0.64582 0.21652 0.67208 0.0
C2153 C 0.64631 0.26998 0.63057 0.0
C2154 C 0.62401 0.15237 0.67569 0.0
C2155 C 0.62732 0.16844 0.67787 0.0
C2156 C 0.61945 0.20704 0.63504 0.0
C2157 C 0.64087 0.24476 0.65753 0.0
C2158 C 0.63673 0.22785 0.65514 0.0
C2159 C 0.62433 0.17854 0.65018 0.0
C2160 C 0.62857 0.19559 0.6519 0.0
H2161 H 0.64971 0.27256 0.71683 0.0
H2162 H 0.64273 0.24475 0.71249 0.0
H2163 H 0.61627 0.23149 0.62341 0.0
H2164 H 0.60908 0.15146 0.59536 0.0
H2165 H 0.61531 0.17936 0.59849 0.0
C2166 C 0.10981 0.38469 0.90064 0.0
C2167 C 0.11523 0.36907 0.89931 0.0
C2168 C 0.09372 0.388 0.90122 0.0
C2169 C 0.05473 0.37047 0.91895 0.0
H2170 H 0.03966 0.40545 0.86468 0.0
C2171 C 0.98838 0.38357 0.90181 0.0
C2172 C 0.98376 0.39942 0.90414 0.0
C2173 C 1.0043 0.3795 0.89998 0.0
C2174 C 0.04368 0.39573 0.88021 0.0
H2175 H 0.10784 0.34469 0.89856 0.0
H2176 H 0.07974 0.35048 0.899 0.0
H2177 H 0.06756 0.39903 0.86478 0.0
H2178 H 0.99239 0.42339 0.90659 0.0
H2179 H 0.02006 0.4163 0.90316 0.0
H2180 H 0.0308 0.36722 0.93441 0.0
C2181 C 0.08798 0.36017 0.89981 0.0
C2182 C 0.0597 0.39205 0.88032 0.0
C2183 C 0.1041 0.35685 0.89922 0.0
C2184 C 0.99547 0.41109 0.90411 0.0
C2185 C 0.01137 0.40702 0.90224 0.0
C2186 C 0.03868 0.37414 0.91881 0.0
C2187 C 0.08259 0.37581 0.90045 0.0
C2188 C 0.06545 0.37945 0.89987 0.0
C2189 C 0.016 0.39117 0.9004 0.0
C2190 C 0.03298 0.38689 0.89961 0.0
H2191 H 0.11796 0.39444 0.90039 0.0
H2192 H 0.09001 0.40017 0.90225 0.0
H2193 H 0.05876 0.36081 0.93461 0.0
H2194 H 0.97967 0.37429 0.90136 0.0
H2195 H 0.00745 0.36719 0.89809 0.0
C2196 C 0.90307 0.85444 0.1492 0.0
C2197 C 0.89076 0.8655 0.14942 0.0
C2198 C 0.89988 0.8383 0.15063 0.0
C2199 C 0.86888 0.80975 0.17439 0.0
H2200 H 0.89174 0.78137 0.11511 0.0
C2201 C 0.84947 0.74544 0.15588 0.0
C2202 C 0.86124 0.73383 0.15499 0.0
C2203 C 0.85338 0.76139 0.15476 0.0
C2204 C 0.88536 0.7891 0.13211 0.0
H2205 H 0.86538 0.86806 0.1512 0.0
H2206 H 0.85988 0.84009 0.15392 0.0
H2207 H 0.89816 0.80933 0.11519 0.0
H2208 H 0.88638 0.72998 0.15133 0.0
H2209 H 0.89323 0.75783 0.14993 0.0
H2210 H 0.85608 0.78958 0.19134 0.0
C2211 C 0.87202 0.84389 0.15309 0.0
C2212 C 0.88906 0.80513 0.13218 0.0
C2213 C 0.8752 0.85999 0.15159 0.0
C2214 C 0.87702 0.7386 0.15234 0.0
C2215 C 0.88094 0.75458 0.15122 0.0
C2216 C 0.8652 0.79373 0.17436 0.0
C2217 C 0.8843 0.83283 0.15244 0.0
C2218 C 0.88079 0.81567 0.15318 0.0
C2219 C 0.86918 0.76618 0.1528 0.0
C2220 C 0.87332 0.78321 0.15306 0.0
H2221 H 0.91519 0.85824 0.14802 0.0
H2222 H 0.90963 0.83011 0.15058 0.0
H2223 H 0.86245 0.81748 0.19131 0.0
H2224 H 0.8372 0.74225 0.15839 0.0
H2225 H 0.84399 0.76999 0.15554 0.0
C2226 C 0.51852 0.61456 0.43986 0.0
C2227 C 0.52761 0.61277 0.41029 0.0
C2228 C 0.50262 0.61856 0.43775 0.0
C2229 C 0.46897 0.62036 0.37664 0.0
H2230 H 0.45025 0.64559 0.44818 0.0
C2231 C 0.40635 0.64714 0.36847 0.0
C2232 C 0.39653 0.64396 0.3964 0.0
C2233 C 0.42241 0.64366 0.36991 0.0
C2234 C 0.45533 0.63848 0.42812 0.0
H2235 H 0.52726 0.61386 0.35531 0.0
H2236 H 0.49963 0.62151 0.35142 0.0
H2237 H 0.47818 0.63932 0.45047 0.0
H2238 H 0.39579 0.63491 0.44781 0.0
H2239 H 0.42404 0.62919 0.45073 0.0
H2240 H 0.44606 0.62005 0.35387 0.0
C2241 C 0.5046 0.61939 0.37635 0.0
C2242 C 0.47134 0.63477 0.42946 0.0
C2243 C 0.52048 0.6151 0.37849 0.0
C2244 C 0.40313 0.63746 0.42598 0.0
C2245 C 0.41925 0.63426 0.42766 0.0
C2246 C 0.45302 0.62432 0.37501 0.0
C2247 C 0.49541 0.62114 0.40598 0.0
C2248 C 0.4784 0.62553 0.40391 0.0
C2249 C 0.42902 0.63719 0.39951 0.0
C2250 C 0.44602 0.63331 0.40087 0.0
H2251 H 0.52367 0.61257 0.46471 0.0
H2252 H 0.49595 0.61937 0.46114 0.0
H2253 H 0.47381 0.61298 0.35679 0.0
H2254 H 0.40154 0.65196 0.3452 0.0
H2255 H 0.42969 0.64609 0.34791 0.0
C2256 C 0.39641 0.15677 0.11791 0.0
C2257 C 0.39339 0.14671 0.14551 0.0
C2258 C 0.39276 0.17277 0.11994 0.0
C2259 C 0.38755 0.2052 0.17924 0.0
H2260 H 0.36196 0.22409 0.10859 0.0
C2261 C 0.36411 0.26855 0.19209 0.0
C2262 C 0.36241 0.27772 0.16262 0.0
C2263 C 0.36795 0.25261 0.18979 0.0
C2264 C 0.36935 0.21914 0.12826 0.0
H2265 H 0.38443 0.14548 0.19696 0.0
H2266 H 0.37842 0.17365 0.20093 0.0
H2267 H 0.36892 0.19634 0.10499 0.0
H2268 H 0.36351 0.2775 0.10763 0.0
H2269 H 0.37088 0.24982 0.10343 0.0
H2270 H 0.38853 0.22795 0.20206 0.0
C2271 C 0.38349 0.16908 0.17765 0.0
C2272 C 0.37325 0.20318 0.12625 0.0
C2273 C 0.38685 0.15301 0.17537 0.0
C2274 C 0.36469 0.27066 0.13074 0.0
C2275 C 0.36881 0.25475 0.12841 0.0
C2276 C 0.3839 0.22121 0.18097 0.0
C2277 C 0.38628 0.17909 0.14983 0.0
C2278 C 0.38231 0.19605 0.15181 0.0
C2279 C 0.37045 0.24546 0.15793 0.0
C2280 C 0.37465 0.22842 0.15562 0.0
H2281 H 0.40124 0.15219 0.09443 0.0
H2282 H 0.39508 0.18025 0.09818 0.0
H2283 H 0.3947 0.20001 0.19909 0.0
H2284 H 0.36215 0.27365 0.217 0.0
H2285 H 0.36869 0.24587 0.21309 0.0
C2286 C 0.60453 0.64777 0.86528 0.0
C2287 C 0.61446 0.64418 0.89279 0.0
C2288 C 0.58841 0.64463 0.86715 0.0
C2289 C 0.55577 0.63974 0.92616 0.0
H2290 H 0.5366 0.61455 0.85524 0.0
C2291 C 0.49267 0.61594 0.94015 0.0
C2292 C 0.48336 0.61419 0.91093 0.0
C2293 C 0.50853 0.62 0.93742 0.0
C2294 C 0.54162 0.62185 0.87499 0.0
H2295 H 0.61534 0.63485 0.94395 0.0
H2296 H 0.587 0.62974 0.94764 0.0
H2297 H 0.56437 0.62138 0.85143 0.0
H2298 H 0.48322 0.61546 0.85596 0.0
H2299 H 0.51076 0.62324 0.85103 0.0
H2300 H 0.53308 0.64072 0.94933 0.0
C2301 C 0.59175 0.63484 0.92456 0.0
C2302 C 0.55759 0.62568 0.87284 0.0
C2303 C 0.60792 0.63768 0.92243 0.0
C2304 C 0.49018 0.61667 0.87887 0.0
C2305 C 0.50601 0.62102 0.87613 0.0
C2306 C 0.53974 0.63618 0.92803 0.0
C2307 C 0.58187 0.63813 0.8968 0.0
C2308 C 0.56484 0.63453 0.89856 0.0
C2309 C 0.51545 0.62269 0.90539 0.0
C2310 C 0.53244 0.62703 0.90265 0.0
H2311 H 0.6093 0.6526 0.84198 0.0
H2312 H 0.58104 0.64733 0.84545 0.0
H2313 H 0.56105 0.64674 0.94614 0.0
H2314 H 0.48776 0.61383 0.96517 0.0
H2315 H 0.5154 0.62075 0.96053 0.0
C2316 C 0.11365 0.85474 0.61632 0.0
C2317 C 0.1178 0.86485 0.64309 0.0
C2318 C 0.11708 0.83868 0.61808 0.0
C2319 C 0.14217 0.80998 0.66558 0.0
H2320 H 0.11515 0.77935 0.62185 0.0
C2321 C 0.14692 0.74301 0.68836 0.0
C2322 C 0.14789 0.73358 0.65907 0.0
C2323 C 0.14324 0.75897 0.68579 0.0
C2324 C 0.12284 0.78781 0.63397 0.0
H2325 H 0.12834 0.86607 0.69303 0.0
H2326 H 0.13369 0.83795 0.69707 0.0
H2327 H 0.1082 0.80717 0.61985 0.0
H2328 H 0.14565 0.73338 0.60421 0.0
H2329 H 0.13874 0.76137 0.59976 0.0
H2330 H 0.15643 0.79041 0.68072 0.0
C2331 C 0.12831 0.84241 0.67406 0.0
C2332 C 0.11892 0.80379 0.63274 0.0
C2333 C 0.12514 0.85852 0.67197 0.0
C2334 C 0.14498 0.74041 0.62714 0.0
C2335 C 0.14097 0.75635 0.62463 0.0
C2336 C 0.14589 0.79399 0.66733 0.0
C2337 C 0.12452 0.83225 0.64693 0.0
C2338 C 0.12855 0.81514 0.64849 0.0
C2339 C 0.14018 0.7658 0.65394 0.0
C2340 C 0.13629 0.78276 0.6515 0.0
H2341 H 0.10823 0.85936 0.59349 0.0
H2342 H 0.11424 0.83141 0.59635 0.0
H2343 H 0.15012 0.81829 0.67734 0.0
H2344 H 0.14926 0.73807 0.71326 0.0
H2345 H 0.14263 0.76597 0.70877 0.0
C2346 C 0.90131 0.38535 0.39756 0.0
C2347 C 0.89563 0.36983 0.3963 0.0
C2348 C 0.91745 0.38838 0.39797 0.0
C2349 C 0.95618 0.3702 0.41552 0.0
H2350 H 0.97174 0.40491 0.36112 0.0
C2351 C 0.02272 0.38254 0.39905 0.0
C2352 C 0.02745 0.39834 0.40149 0.0
C2353 C 0.00677 0.37861 0.39691 0.0
C2354 C 0.96758 0.39525 0.37668 0.0
H2355 H 0.90264 0.34532 0.39552 0.0
H2356 H 0.93082 0.35062 0.39572 0.0
H2357 H 0.94374 0.3989 0.36125 0.0
H2358 H 0.01898 0.42239 0.40379 0.0
H2359 H 0.9913 0.41556 0.3998 0.0
H2360 H 0.98005 0.3666 0.43101 0.0
C2361 C 0.92274 0.36045 0.39657 0.0
C2362 C 0.95151 0.39182 0.3768 0.0
C2363 C 0.90657 0.35741 0.39613 0.0
C2364 C 0.01583 0.41012 0.40121 0.0
C2365 C 0.99992 0.40619 0.39901 0.0
C2366 C 0.97227 0.37363 0.41536 0.0
C2367 C 0.92839 0.37599 0.39714 0.0
C2368 C 0.94558 0.37933 0.39644 0.0
C2369 C 0.99517 0.39039 0.39711 0.0
C2370 C 0.97815 0.38628 0.39614 0.0
H2371 H 0.89332 0.39524 0.39737 0.0
H2372 H 0.92136 0.40048 0.39895 0.0
H2373 H 0.952 0.36061 0.43122 0.0
H2374 H 0.03136 0.37318 0.39883 0.0
H2375 H 1.00354 0.36633 0.39499 0.0
C2376 C 0.37688 0.73978 0.38266 0.0
C2377 C 0.36107 0.73501 0.38085 0.0
C2378 C 0.38081 0.75574 0.38395 0.0
C2379 C 0.36483 0.79505 0.36291 0.0
H2380 H 0.39843 0.8102 0.42086 0.0
C2381 C 0.37511 0.86111 0.3874 0.0
C2382 C 0.39069 0.86661 0.38899 0.0
C2383 C 0.37191 0.84503 0.38548 0.0
C2384 C 0.38915 0.80613 0.4042 0.0
H2385 H 0.337 0.74342 0.37907 0.0
H2386 H 0.34382 0.77116 0.38215 0.0
H2387 H 0.39199 0.78224 0.42036 0.0
H2388 H 0.41513 0.85934 0.38892 0.0
H2389 H 0.40953 0.83124 0.38563 0.0
H2390 H 0.36192 0.81892 0.34687 0.0
C2391 C 0.35321 0.76256 0.38216 0.0
C2392 C 0.38544 0.7901 0.40394 0.0
C2393 C 0.34929 0.74662 0.3809 0.0
C2394 C 0.40299 0.85555 0.38821 0.0
C2395 C 0.39979 0.83943 0.38635 0.0
C2396 C 0.36852 0.81106 0.3632 0.0
C2397 C 0.36902 0.76735 0.38337 0.0
C2398 C 0.37317 0.78437 0.38343 0.0
C2399 C 0.38419 0.83397 0.38512 0.0
C2400 C 0.38066 0.81682 0.38398 0.0
H2401 H 0.38625 0.73115 0.38295 0.0
H2402 H 0.39311 0.75899 0.38462 0.0
H2403 H 0.35552 0.79102 0.34628 0.0
H2404 H 0.3653 0.86918 0.38856 0.0
H2405 H 0.35976 0.84124 0.38513 0.0
C2406 C 0.02174 0.6275 0.13583 0.0
C2407 C 0.02653 0.6117 0.13341 0.0
C2408 C 0.00576 0.63141 0.13694 0.0
C2409 C 0.96659 0.61558 0.11433 0.0
H2410 H 0.95104 0.64862 0.17338 0.0
C2411 C 0.90039 0.6254 0.13812 0.0
C2412 C 0.8948 0.64094 0.14019 0.0
C2413 C 0.9165 0.62228 0.13635 0.0
C2414 C 0.95522 0.6395 0.15642 0.0
H2415 H 0.01816 0.58766 0.13032 0.0
H2416 H 0.99041 0.59445 0.13314 0.0
H2417 H 0.97903 0.64226 0.17315 0.0
H2418 H 0.90194 0.6654 0.14116 0.0
H2419 H 0.93008 0.65995 0.13816 0.0
H2420 H 0.94281 0.61275 0.09774 0.0
C2421 C 0.99899 0.60384 0.13376 0.0
C2422 C 0.97127 0.63584 0.15631 0.0
C2423 C 0.01494 0.59993 0.13266 0.0
C2424 C 0.9058 0.65329 0.14006 0.0
C2425 C 0.92194 0.65016 0.13837 0.0
C2426 C 0.95057 0.61922 0.11448 0.0
C2427 C 0.99418 0.61964 0.13556 0.0
C2428 C 0.97715 0.62376 0.13541 0.0
C2429 C 0.92749 0.63461 0.13665 0.0
C2430 C 0.94466 0.63116 0.13566 0.0
H2431 H 0.03035 0.63686 0.13671 0.0
H2432 H 1.00249 0.64371 0.13809 0.0
H2433 H 0.97073 0.60644 0.09739 0.0
H2434 H 0.89237 0.61555 0.13877 0.0
H2435 H 0.92035 0.61015 0.1356 0.0
C2436 C 0.13257 0.27092 0.88561 0.0
C2437 C 0.14835 0.27577 0.88376 0.0
C2438 C 0.12872 0.25492 0.88648 0.0
C2439 C 0.14502 0.21579 0.86455 0.0
H2440 H 0.1115 0.20009 0.92211 0.0
C2441 C 0.13572 0.1496 0.88942 0.0
C2442 C 0.12022 0.14384 0.89057 0.0
C2443 C 0.13866 0.16573 0.88737 0.0
C2444 C 0.12077 0.20432 0.90557 0.0
H2445 H 0.17246 0.26745 0.88141 0.0
H2446 H 0.16578 0.2397 0.88394 0.0
H2447 H 0.11761 0.22813 0.92195 0.0
H2448 H 0.09567 0.15072 0.88948 0.0
H2449 H 0.10082 0.17889 0.88611 0.0
H2450 H 0.14828 0.19198 0.84841 0.0
C2451 C 0.15634 0.24824 0.88425 0.0
C2452 C 0.12428 0.22039 0.90548 0.0
C2453 C 0.16018 0.26421 0.88334 0.0
C2454 C 0.10775 0.1547 0.88916 0.0
C2455 C 0.1107 0.17087 0.88724 0.0
C2456 C 0.14154 0.19973 0.8647 0.0
C2457 C 0.14056 0.24337 0.88547 0.0
C2458 C 0.13653 0.22632 0.88515 0.0
C2459 C 0.1262 0.17658 0.88649 0.0
C2460 C 0.12944 0.19377 0.88537 0.0
H2461 H 0.12316 0.27949 0.88623 0.0
H2462 H 0.11643 0.25161 0.88718 0.0
H2463 H 0.15431 0.21996 0.84801 0.0
H2464 H 0.14566 0.14171 0.89104 0.0
H2465 H 0.15074 0.16973 0.88736 0.0
C2466 C 0.60814 0.37392 0.61558 0.0
C2467 C 0.61469 0.36732 0.64511 0.0
C2468 C 0.592 0.37699 0.6137 0.0
C2469 C 0.55806 0.38656 0.66596 0.0
H2470 H 0.53319 0.37179 0.58984 0.0
C2471 C 0.49064 0.39592 0.66129 0.0
C2472 C 0.48366 0.39836 0.62938 0.0
C2473 C 0.50649 0.39158 0.66369 0.0
C2474 C 0.53995 0.37627 0.61103 0.0
H2475 H 0.60957 0.35898 0.696 0.0
H2476 H 0.58137 0.36465 0.69297 0.0
H2477 H 0.56111 0.36552 0.59253 0.0
H2478 H 0.48782 0.39868 0.57504 0.0
H2479 H 0.5155 0.3918 0.57907 0.0
H2480 H 0.53721 0.39785 0.68396 0.0
C2481 C 0.58871 0.36725 0.67116 0.0
C2482 C 0.55595 0.37256 0.61262 0.0
C2483 C 0.60479 0.36388 0.67277 0.0
C2484 C 0.49286 0.39661 0.59996 0.0
C2485 C 0.50874 0.39256 0.60234 0.0
C2486 C 0.54211 0.39053 0.66409 0.0
C2487 C 0.58216 0.37384 0.64161 0.0
C2488 C 0.56516 0.37765 0.64009 0.0
C2489 C 0.5158 0.38988 0.63422 0.0
C2490 C 0.5328 0.38545 0.63658 0.0
H2491 H 0.61553 0.37665 0.59394 0.0
H2492 H 0.58726 0.38216 0.59069 0.0
H2493 H 0.56494 0.39077 0.68727 0.0
H2494 H 0.48377 0.39712 0.68435 0.0
H2495 H 0.51135 0.38937 0.68868 0.0
C2496 C 0.21678 0.21345 0.31531 0.0
C2497 C 0.21261 0.20339 0.28842 0.0
C2498 C 0.22785 0.22537 0.31035 0.0
C2499 C 0.24554 0.24946 0.24222 0.0
H2500 H 0.27572 0.26046 0.31212 0.0
C2501 C 0.29533 0.29503 0.2216 0.0
C2502 C 0.29864 0.30522 0.24884 0.0
C2503 C 0.28474 0.2826 0.22571 0.0
C2504 C 0.26725 0.25764 0.29249 0.0
H2505 H 0.21731 0.19753 0.23574 0.0
H2506 H 0.2367 0.21825 0.22713 0.0
H2507 H 0.25805 0.2383 0.32105 0.0
H2508 H 0.29283 0.31076 0.30119 0.0
H2509 H 0.27438 0.28914 0.30833 0.0
H2510 H 0.25477 0.26882 0.21367 0.0
C2511 C 0.23117 0.21714 0.25184 0.0
C2512 C 0.25713 0.24493 0.29761 0.0
C2513 C 0.22009 0.20524 0.25679 0.0
C2514 C 0.29077 0.30296 0.27991 0.0
C2515 C 0.28022 0.29055 0.28403 0.0
C2516 C 0.25569 0.26216 0.23707 0.0
C2517 C 0.23501 0.2275 0.27842 0.0
C2518 C 0.24611 0.24073 0.2726 0.0
C2519 C 0.27724 0.28009 0.25715 0.0
C2520 C 0.2666 0.26645 0.26224 0.0
H2521 H 0.21108 0.2125 0.33984 0.0
H2522 H 0.23039 0.23326 0.33126 0.0
H2523 H 0.23702 0.2467 0.22265 0.0
H2524 H 0.30132 0.29631 0.19747 0.0
H2525 H 0.28279 0.27467 0.20458 0.0
C2526 C 0.04329 0.95895 0.51052 0.0
C2527 C 0.05391 0.9601 0.53781 0.0
C2528 C 0.03127 0.96996 0.50649 0.0
C2529 C 0.00814 0.99976 0.55275 0.0
H2530 H 0.9987 0.01502 0.46199 0.0
C2531 C 0.96645 0.05197 0.52898 0.0
C2532 C 0.95582 0.0509 0.50166 0.0
C2533 C 0.97824 0.04076 0.53336 0.0
C2534 C 1.00106 0.01073 0.48743 0.0
H2535 H 0.06015 0.9737 0.58239 0.0
H2536 H 0.03913 0.99304 0.5753 0.0
H2537 H 0.01977 0.99595 0.47011 0.0
H2538 H 0.94932 0.0371 0.45752 0.0
H2539 H 0.96998 0.01744 0.46515 0.0
H2540 H 0.98945 0.01458 0.57006 0.0
C2541 C 0.04004 0.98349 0.5572 0.0
C2542 C 0.01315 0.99982 0.49211 0.0
C2543 C 0.05209 0.97243 0.56127 0.0
C2544 C 0.95738 0.03836 0.47863 0.0
C2545 C 0.96922 0.0271 0.48302 0.0
C2546 C 0.99606 0.01068 0.54806 0.0
C2547 C 0.02955 0.98241 0.52963 0.0
C2548 C 0.01683 0.99419 0.52482 0.0
C2549 C 0.97975 0.02817 0.51051 0.0
C2550 C 0.99239 0.01631 0.51535 0.0
H2551 H 0.04408 0.94941 0.49244 0.0
H2552 H 0.02319 0.96857 0.48541 0.0
H2553 H 0.01051 0.99548 0.57819 0.0
H2554 H 0.96587 0.06165 0.54678 0.0
H2555 H 0.98635 0.04211 0.55439 0.0
C2556 C 0.28771 0.80522 0.80813 0.0
C2557 C 0.30054 0.80633 0.78574 0.0
C2558 C 0.27626 0.7936 0.80355 0.0
C2559 C 0.26017 0.76637 0.7388 0.0
H2560 H 0.24435 0.7436 0.81707 0.0
C2561 C 0.222 0.71027 0.72655 0.0
C2562 C 0.20939 0.70874 0.74939 0.0
C2563 C 0.23298 0.72239 0.7305 0.0
C2564 C 0.24852 0.74996 0.79497 0.0
H2565 H 0.31157 0.79575 0.74147 0.0
H2566 H 0.29171 0.77564 0.73353 0.0
H2567 H 0.26348 0.76458 0.8252 0.0
H2568 H 0.19808 0.71918 0.79345 0.0
H2569 H 0.21712 0.74018 0.80029 0.0
H2570 H 0.24523 0.75172 0.70858 0.0
C2571 C 0.29028 0.78394 0.7542 0.0
C2572 C 0.25947 0.762 0.79965 0.0
C2573 C 0.30168 0.79552 0.75877 0.0
C2574 C 0.20786 0.71975 0.77589 0.0
C2575 C 0.21878 0.73183 0.77981 0.0
C2576 C 0.24921 0.75433 0.73412 0.0
C2577 C 0.27743 0.78283 0.77648 0.0
C2578 C 0.26545 0.77033 0.77162 0.0
C2579 C 0.23153 0.73324 0.75734 0.0
C2580 C 0.24327 0.74598 0.76215 0.0
H2581 H 0.2864 0.81344 0.82895 0.0
H2582 H 0.26641 0.79316 0.82096 0.0
H2583 H 0.26438 0.77271 0.71671 0.0
H2584 H 0.22357 0.70193 0.70604 0.0
H2585 H 0.24276 0.72308 0.71292 0.0
C2586 C 0.54618 0.96613 0.97137 0.0
C2587 C 0.55666 0.96304 0.99822 0.0
C2588 C 0.53383 0.97681 0.97563 0.0
C2589 C 0.50964 0.99502 0.04284 0.0
H2590 H 0.49788 0.02448 0.97203 0.0
C2591 C 0.46523 0.04548 0.0649 0.0
C2592 C 0.45487 0.0492 0.03824 0.0
C2593 C 0.47726 0.0345 0.06006 0.0
C2594 C 0.50088 0.01618 0.9919 0.0
H2595 H 0.56279 0.96931 0.04999 0.0
H2596 H 0.54131 0.98792 0.0574 0.0
H2597 H 0.51997 0.00668 0.96289 0.0
H2598 H 0.44857 0.04374 0.98614 0.0
H2599 H 0.46946 0.02453 0.97774 0.0
H2600 H 0.49056 1.00449 0.07185 0.0
C2601 C 0.54243 0.98185 0.0333 0.0
C2602 C 0.51356 0.006 0.98666 0.0
C2603 C 0.55477 0.97121 0.02903 0.0
C2604 C 0.45652 0.04134 1.00699 0.0
C2605 C 0.46851 0.03035 1.00215 0.0
C2606 C 0.49695 1.00517 0.04806 0.0
C2607 C 0.53168 0.98462 1.00684 0.0
C2608 C 0.51812 0.99535 1.01213 0.0
C2609 C 0.47917 0.02696 0.02847 0.0
C2610 C 0.49245 0.01591 0.0227 0.0
H2611 H 0.54717 0.9599 0.94747 0.0
H2612 H 0.52567 0.97859 0.95484 0.0
H2613 H 0.51268 0.98675 0.06274 0.0
H2614 H 0.46442 0.05147 0.08913 0.0
H2615 H 0.48536 0.03228 0.08075 0.0
C2616 C 0.29421 0.7147 0.31793 0.0
C2617 C 0.29784 0.70425 0.29137 0.0
C2618 C 0.28333 0.72683 0.31294 0.0
C2619 C 0.25108 0.74007 0.25632 0.0
H2620 H 0.26185 0.78142 0.2906 0.0
C2621 C 0.21565 0.79545 0.21941 0.0
C2622 C 0.21196 0.80582 0.24606 0.0
C2623 C 0.22647 0.78327 0.22442 0.0
C2624 C 0.2586 0.76992 0.28111 0.0
H2625 H 0.29238 0.69792 0.23929 0.0
H2626 H 0.27361 0.71914 0.23042 0.0
H2627 H 0.27933 0.75928 0.30165 0.0
H2628 H 0.21721 0.81196 0.29834 0.0
H2629 H 0.23591 0.79068 0.30722 0.0
H2630 H 0.23036 0.75073 0.23574 0.0
C2631 C 0.2791 0.71796 0.25515 0.0
C2632 C 0.26859 0.75722 0.28754 0.0
C2633 C 0.28998 0.70589 0.26012 0.0
C2634 C 0.21968 0.80406 0.27744 0.0
C2635 C 0.23051 0.79194 0.28242 0.0
C2636 C 0.24109 0.75278 0.24987 0.0
C2637 C 0.27581 0.72872 0.28133 0.0
C2638 C 0.26495 0.74214 0.27523 0.0
C2639 C 0.23388 0.78127 0.25613 0.0
C2640 C 0.24473 0.76785 0.2622 0.0
H2641 H 0.30015 0.71386 0.3422 0.0
H2642 H 0.28091 0.73479 0.33378 0.0
H2643 H 0.24782 0.72857 0.24684 0.0
H2644 H 0.20982 0.7964 0.19504 0.0
H2645 H 0.22896 0.77536 0.20352 0.0
C2646 C 0.46594 0.96566 0.4697 0.0
C2647 C 0.4556 0.96201 0.49644 0.0
C2648 C 0.47812 0.97646 0.47458 0.0
C2649 C 0.4915 0.0087 0.53064 0.0
H2650 H 0.53288 0.99754 0.49698 0.0
C2651 C 0.54674 0.04432 0.56675 0.0
C2652 C 0.55734 0.04763 0.54025 0.0
C2653 C 0.53456 0.03351 0.56196 0.0
C2654 C 0.52137 1.00091 0.50627 0.0
H2655 H 0.44951 0.96731 0.54874 0.0
H2656 H 0.47081 0.98602 0.55737 0.0
H2657 H 0.51069 0.98011 0.4862 0.0
H2658 H 0.56384 0.04167 0.48851 0.0
H2659 H 0.54251 0.02306 0.47996 0.0
H2660 H 0.50215 0.02952 0.55061 0.0
C2661 C 0.46951 0.98058 0.53262 0.0
C2662 C 0.50865 0.99094 0.50001 0.0
C2663 C 0.4574 0.96975 0.52778 0.0
C2664 C 0.55577 0.03953 0.50928 0.0
C2665 C 0.54362 0.02873 0.5045 0.0
C2666 C 0.50422 0.01869 0.53684 0.0
C2667 C 0.48015 0.9839 0.50623 0.0
C2668 C 0.49357 0.99472 0.51214 0.0
C2669 C 0.53274 0.02574 0.53062 0.0
C2670 C 0.51931 0.01491 0.52474 0.0
H2671 H 0.46495 0.9598 0.44536 0.0
H2672 H 0.48602 0.97891 0.45363 0.0
H2673 H 0.48 0.01204 0.53997 0.0
H2674 H 0.54753 0.05044 0.59082 0.0
H2675 H 0.52651 0.03131 0.58276 0.0
C2676 C 0.28782 0.20735 0.72848 0.0
C2677 C 0.30077 0.20616 0.75055 0.0
C2678 C 0.27653 0.21913 0.73318 0.0
C2679 C 0.26108 0.24657 0.79828 0.0
H2680 H 0.24436 0.26907 0.72052 0.0
C2681 C 0.22226 0.30216 0.81217 0.0
C2682 C 0.20929 0.30337 0.79019 0.0
C2683 C 0.23349 0.29032 0.8075 0.0
C2684 C 0.2488 0.2628 0.74249 0.0
H2685 H 0.3122 0.21681 0.7942 0.0
H2686 H 0.29262 0.2372 0.80233 0.0
H2687 H 0.26354 0.24815 0.71173 0.0
H2688 H 0.19774 0.29269 0.74672 0.0
H2689 H 0.21722 0.2722 0.7386 0.0
H2690 H 0.24635 0.26123 0.82903 0.0
C2691 C 0.29097 0.22884 0.78186 0.0
C2692 C 0.25977 0.25079 0.73743 0.0
C2693 C 0.30221 0.2171 0.77719 0.0
C2694 C 0.20775 0.29238 0.76366 0.0
C2695 C 0.21893 0.28059 0.759 0.0
C2696 C 0.25011 0.25858 0.80333 0.0
C2697 C 0.27797 0.22998 0.76002 0.0
C2698 C 0.26605 0.24254 0.76527 0.0
C2699 C 0.23197 0.27943 0.78075 0.0
C2700 C 0.24384 0.26683 0.7755 0.0
H2701 H 0.2863 0.19904 0.7079 0.0
H2702 H 0.26656 0.2196 0.71609 0.0
H2703 H 0.26551 0.2403 0.82025 0.0
H2704 H 0.22386 0.3105 0.83267 0.0
H2705 H 0.24349 0.28984 0.82451 0.0
C2706 C 0.05251 0.04172 0.02954 0.0
C2707 C 0.05462 0.04911 0.99788 0.0
C2708 C 0.0404 0.0309 0.0344 0.0
C2709 C 0.01269 1.00496 0.98899 0.0
H2710 H 0.98873 0.00782 0.07276 0.0
C2711 C 0.95607 0.96922 1.00965 0.0
C2712 C 0.95422 0.96186 0.04143 0.0
C2713 C 0.96792 0.9803 1.00451 0.0
C2714 C 0.9954 0.00676 0.0494 0.0
H2715 H 0.04577 0.0507 0.94627 0.0
H2716 H 0.02459 0.03174 0.9547 0.0
H2717 H 0.01054 0.02583 0.0629 0.0
H2718 H 0.96323 0.96062 0.09294 0.0
H2719 H 0.98395 0.98 0.08402 0.0
H2720 H 0.99758 0.98587 0.97551 0.0
C2721 C 0.03243 0.03424 0.97571 0.0
C2722 C 0.00791 0.01707 0.04374 0.0
C2723 C 0.04459 0.04508 0.97084 0.0
C2724 C 0.96421 0.9662 0.06829 0.0
C2725 C 0.9761 0.9773 0.06314 0.0
C2726 C 1.00019 0.99464 0.99464 0.0
C2727 C 0.03007 0.0272 1.0077 0.0
C2728 C 0.01673 0.01626 1.01351 0.0
C2729 C 0.97824 0.9843 0.03104 0.0
C2730 C 0.9914 0.99542 0.02493 0.0
H2731 H 0.06022 0.04436 0.05068 0.0
H2732 H 0.03912 0.02543 0.05914 0.0
H2733 H 0.01938 1.00389 0.96564 0.0
H2734 H 0.94838 0.96632 0.98863 0.0
H2735 H 0.96904 0.98571 0.97968 0.0
C2736 C 0.72183 0.7059 0.75973 0.0
C2737 C 0.71338 0.70427 0.79025 0.0
C2738 C 0.73254 0.71817 0.75547 0.0
C2739 C 0.74168 0.75774 0.78788 0.0
H2740 H 0.781 0.75159 0.73975 0.0
C2741 C 0.79 0.80532 0.78019 0.0
C2742 C 0.79815 0.80698 0.74929 0.0
C2743 C 0.77928 0.79308 0.78482 0.0
C2744 C 0.76997 0.75354 0.75286 0.0
H2745 H 0.70983 0.7141 0.84057 0.0
H2746 H 0.72879 0.73535 0.83343 0.0
H2747 H 0.76374 0.72921 0.74993 0.0
H2748 H 0.8012 0.79723 0.69875 0.0
H2749 H 0.78227 0.77599 0.70661 0.0
H2750 H 0.74794 0.78207 0.79086 0.0
C2751 C 0.72695 0.72724 0.81258 0.0
C2752 C 0.7601 0.74071 0.75877 0.0
C2753 C 0.71623 0.71493 0.81685 0.0
C2754 C 0.79501 0.79637 0.72274 0.0
C2755 C 0.78432 0.78408 0.72741 0.0
C2756 C 0.75157 0.77057 0.78201 0.0
C2757 C 0.73508 0.72911 0.78168 0.0
C2758 C 0.74582 0.74266 0.7763 0.0
C2759 C 0.77649 0.78218 0.75866 0.0
C2760 C 0.76581 0.76862 0.76438 0.0
H2761 H 0.72003 0.69778 0.7389 0.0
H2762 H 0.73851 0.71932 0.73126 0.0
H2763 H 0.73064 0.7597 0.80094 0.0
H2764 H 0.79205 0.8134 0.80099 0.0
H2765 H 0.77352 0.79189 0.80927 0.0
C2766 C 0.71597 0.2158 0.22196 0.0
C2767 C 0.71268 0.20542 0.24886 0.0
C2768 C 0.72661 0.22817 0.22644 0.0
C2769 C 0.74431 0.25253 0.29391 0.0
H2770 H 0.77436 0.26394 0.22401 0.0
C2771 C 0.79475 0.29681 0.31694 0.0
C2772 C 0.79872 0.30701 0.29016 0.0
C2773 C 0.78373 0.28483 0.31199 0.0
C2774 C 0.76589 0.26104 0.24361 0.0
H2775 H 0.71854 0.19944 0.30096 0.0
H2776 H 0.73707 0.22093 0.30873 0.0
H2777 H 0.75659 0.24189 0.21458 0.0
H2778 H 0.7937 0.31313 0.23776 0.0
H2779 H 0.7744 0.29236 0.22917 0.0
H2780 H 0.7536 0.27167 0.32295 0.0
C2781 C 0.73119 0.21974 0.28443 0.0
C2782 C 0.75573 0.24839 0.23821 0.0
C2783 C 0.72059 0.2074 0.27995 0.0
C2784 C 0.79108 0.30529 0.25869 0.0
C2785 C 0.78005 0.29336 0.25376 0.0
C2786 C 0.75445 0.2652 0.2993 0.0
C2787 C 0.73416 0.2304 0.2579 0.0
C2788 C 0.74487 0.24395 0.26336 0.0
C2789 C 0.77642 0.28284 0.28018 0.0
C2790 C 0.76539 0.26958 0.27425 0.0
H2791 H 0.70994 0.21473 0.19784 0.0
H2792 H 0.72855 0.23626 0.20558 0.0
H2793 H 0.73588 0.24958 0.31356 0.0
H2794 H 0.80058 0.29768 0.34133 0.0
H2795 H 0.78133 0.27682 0.33277 0.0
C2796 C 0.72177 0.30504 0.77849 0.0
C2797 C 0.71352 0.30666 0.7477 0.0
C2798 C 0.73268 0.29295 0.7829 0.0
C2799 C 0.74286 0.25369 0.75007 0.0
H2800 H 0.7816 0.26032 0.8 0.0
C2801 C 0.79193 0.20688 0.7589 0.0
C2802 C 0.7998 0.20519 0.79012 0.0
C2803 C 0.78107 0.21899 0.75404 0.0
C2804 C 0.77073 0.25823 0.78638 0.0
H2805 H 0.71057 0.29698 0.69707 0.0
H2806 H 0.72988 0.27603 0.70451 0.0
H2807 H 0.76401 0.28243 0.78952 0.0
H2808 H 0.80221 0.21474 0.84098 0.0
H2809 H 0.78305 0.23577 0.8327 0.0
H2810 H 0.74961 0.22949 0.74689 0.0
C2811 C 0.72771 0.28403 0.72543 0.0
C2812 C 0.76067 0.27091 0.7803 0.0
C2813 C 0.71679 0.29616 0.72101 0.0
C2814 C 0.79625 0.21564 0.81673 0.0
C2815 C 0.78542 0.22781 0.81183 0.0
C2816 C 0.75294 0.24101 0.75612 0.0
C2817 C 0.73564 0.28217 0.7566 0.0
C2818 C 0.7466 0.26879 0.76212 0.0
C2819 C 0.77785 0.22973 0.78029 0.0
C2820 C 0.76698 0.24313 0.77439 0.0
H2821 H 0.71966 0.31305 0.7994 0.0
H2822 H 0.73847 0.29181 0.80731 0.0
H2823 H 0.73198 0.25158 0.73651 0.0
H2824 H 0.79428 0.19892 0.73804 0.0
H2825 H 0.77553 0.2202 0.72937 0.0
C2826 C 0.71943 0.8039 0.25984 0.0
C2827 C 0.7119 0.8058 0.29141 0.0
C2828 C 0.73034 0.79185 0.2549 0.0
C2829 C 0.75615 0.76387 0.30016 0.0
H2830 H 0.75346 0.7402 0.216 0.0
C2831 C 0.7913 0.70682 0.27975 0.0
C2832 C 0.79873 0.70488 0.2481 0.0
C2833 C 0.78038 0.71885 0.28473 0.0
C2834 C 0.75447 0.74679 0.23947 0.0
H2835 H 0.71018 0.79667 0.34278 0.0
H2836 H 0.72928 0.77563 0.33422 0.0
H2837 H 0.73557 0.76214 0.22581 0.0
H2838 H 0.80032 0.71392 0.19664 0.0
H2839 H 0.78122 0.73496 0.20529 0.0
H2840 H 0.77505 0.74853 0.31381 0.0
C2841 C 0.72683 0.78358 0.31334 0.0
C2842 C 0.74423 0.75937 0.24509 0.0
C2843 C 0.71591 0.79566 0.31829 0.0
C2844 C 0.79465 0.71497 0.22119 0.0
C2845 C 0.78373 0.72705 0.22619 0.0
C2846 C 0.76639 0.75128 0.29453 0.0
C2847 C 0.734 0.7814 0.28142 0.0
C2848 C 0.74496 0.76807 0.27549 0.0
C2849 C 0.77664 0.72926 0.25818 0.0
C2850 C 0.76566 0.74259 0.26413 0.0
H2851 H 0.71681 0.81169 0.23881 0.0
H2852 H 0.7359 0.79071 0.23022 0.0
H2853 H 0.75715 0.77045 0.32363 0.0
H2854 H 0.79399 0.69906 0.30079 0.0
H2855 H 0.77488 0.72002 0.30947 0.0
C2856 C 0.55392 0.47293 0.06068 0.0
C2857 C 0.55532 0.4603 0.03781 0.0
C2858 C 0.54217 0.48427 0.05625 0.0
C2859 C 0.5152 0.50065 0.99131 0.0
H2860 H 0.49184 0.51578 0.06941 0.0
C2861 C 0.45915 0.53886 0.97832 0.0
C2862 C 0.45748 0.55137 1.00138 0.0
C2863 C 0.47119 0.52779 0.98248 0.0
C2864 C 0.49836 0.5118 0.04736 0.0
H2865 H 0.5451 0.44953 0.9929 0.0
H2866 H 0.52478 0.46922 0.98523 0.0
H2867 H 0.51289 0.49669 0.07752 0.0
H2868 H 0.46756 0.56233 0.04621 0.0
H2869 H 0.4884 0.54314 0.05342 0.0
H2870 H 0.50065 0.51574 0.96115 0.0
C2871 C 0.53295 0.47057 1.00616 0.0
C2872 C 0.51044 0.50087 0.05204 0.0
C2873 C 0.54465 0.45926 1.01057 0.0
C2874 C 0.46823 0.55266 0.02842 0.0
C2875 C 0.48022 0.54164 0.03256 0.0
C2876 C 0.50312 0.51158 0.98664 0.0
C2877 C 0.53157 0.48322 0.02888 0.0
C2878 C 0.51898 0.49514 0.02406 0.0
C2879 C 0.48182 0.52904 1.00977 0.0
C2880 C 0.49456 0.51728 1.01461 0.0
H2881 H 0.56202 0.47415 0.08173 0.0
H2882 H 0.54152 0.49398 0.07402 0.0
H2883 H 0.5217 0.49664 0.96927 0.0
H2884 H 0.451 0.53746 0.9574 0.0
H2885 H 0.472 0.51812 0.96466 0.0
C2886 C 0.05156 0.47239 0.47693 0.0
C2887 C 0.05203 0.45913 0.49825 0.0
C2888 C 0.03976 0.48373 0.48087 0.0
C2889 C 0.01107 0.49859 0.54394 0.0
H2890 H 0.99086 0.51731 0.46537 0.0
C2891 C 0.95651 0.5388 0.55599 0.0
C2892 C 0.95622 0.55229 0.53535 0.0
C2893 C 0.96799 0.52722 0.55112 0.0
C2894 C 0.9965 0.5123 0.48757 0.0
H2895 H 0.04004 0.44712 0.53949 0.0
H2896 H 0.01961 0.46678 0.54631 0.0
H2897 H 0.0115 0.49774 0.45719 0.0
H2898 H 0.96808 0.56429 0.49388 0.0
H2899 H 0.98794 0.54419 0.48543 0.0
H2900 H 0.9961 0.51315 0.57433 0.0
C2901 C 0.02855 0.46864 0.52709 0.0
C2902 C 0.00834 0.50111 0.48287 0.0
C2903 C 0.0403 0.45736 0.52318 0.0
C2904 C 0.96769 0.55392 0.50979 0.0
C2905 C 0.97913 0.54238 0.50493 0.0
C2906 C 0.99924 0.50977 0.54863 0.0
C2907 C 0.02818 0.48202 0.50617 0.0
C2908 C 0.01575 0.49411 0.51101 0.0
C2909 C 0.97943 0.52889 0.52553 0.0
C2910 C 0.99181 0.51677 0.52052 0.0
H2911 H 0.06048 0.47415 0.45765 0.0
H2912 H 0.03989 0.49398 0.46453 0.0
H2913 H 0.01672 0.49361 0.56616 0.0
H2914 H 0.94777 0.53709 0.57565 0.0
H2915 H 0.96779 0.51687 0.56717 0.0
C2916 C 0.95681 0.47019 0.02875 0.0
C2917 C 0.95499 0.46253 0.99732 0.0
C2918 C 0.96886 0.48108 0.03365 0.0
C2919 C 0.00782 0.49197 1.00042 0.0
H2920 H 1.00132 0.52993 0.05321 0.0
C2921 C 0.05438 0.54111 1.01068 0.0
C2922 C 0.05618 0.54873 0.04216 0.0
C2923 C 0.04235 0.5302 1.00571 0.0
C2924 C 1.00338 0.51927 0.0388 0.0
H2925 H 0.96424 0.46058 0.9461 0.0
H2926 H 0.98517 0.47983 0.95443 0.0
H2927 H 0.97924 0.51239 0.04226 0.0
H2928 H 0.04691 0.55059 0.09338 0.0
H2929 H 0.02602 0.53131 0.08492 0.0
H2930 H 0.03197 0.49886 0.99696 0.0
C2931 C 0.97735 0.47724 0.97545 0.0
C2932 C 0.99071 0.50925 0.03244 0.0
C2933 C 0.96524 0.46636 0.97053 0.0
C2934 C 0.04593 0.54484 0.06892 0.0
C2935 C 0.03384 0.53394 0.06393 0.0
C2936 C 0.02049 0.502 1.00678 0.0
C2937 C 0.97942 0.48457 1.00721 0.0
C2938 C 0.99279 0.49547 1.01318 0.0
C2939 C 0.03179 0.52665 0.03211 0.0
C2940 C 0.01842 0.51577 0.02606 0.0
H2941 H 0.94899 0.46763 0.04977 0.0
H2942 H 0.97018 0.48641 0.05849 0.0
H2943 H 0.00988 0.48132 0.98601 0.0
H2944 H 0.06219 0.54372 0.98968 0.0
H2945 H 0.04104 0.52489 0.98083 0.0
C2946 C 0.45624 0.47076 0.51042 0.0
C2947 C 0.45479 0.46262 0.54138 0.0
C2948 C 0.46837 0.48156 0.50547 0.0
C2949 C 0.49755 0.50595 0.55073 0.0
H2950 H 0.5196 0.50475 0.46435 0.0
C2951 C 0.55479 0.54051 0.52883 0.0
C2952 C 0.55628 0.54863 0.49784 0.0
C2953 C 0.54265 0.52973 0.53377 0.0
C2954 C 0.51347 0.50535 0.48846 0.0
H2955 H 0.46481 0.45968 0.59169 0.0
H2956 H 0.486 0.47859 0.58311 0.0
H2957 H 0.49759 0.48699 0.4743 0.0
H2958 H 0.5463 0.55156 0.4475 0.0
H2959 H 0.52508 0.53268 0.45606 0.0
H2960 H 0.51343 0.52431 0.5649 0.0
C2961 C 0.47764 0.4767 0.56274 0.0
C2962 C 0.50084 0.49518 0.49417 0.0
C2963 C 0.46548 0.46588 0.5677 0.0
C2964 C 0.5456 0.54536 0.47151 0.0
C2965 C 0.53342 0.53456 0.47646 0.0
C2966 C 0.51018 0.51612 0.54502 0.0
C2967 C 0.47935 0.4845 0.53138 0.0
C2968 C 0.49273 0.49538 0.52536 0.0
C2969 C 0.53168 0.52679 0.50783 0.0
C2970 C 0.5183 0.51592 0.51383 0.0
H2971 H 0.44803 0.46872 0.48987 0.0
H2972 H 0.46915 0.48761 0.48128 0.0
H2973 H 0.49142 0.50655 0.57485 0.0
H2974 H 0.56299 0.54256 0.54939 0.0
H2975 H 0.54185 0.52369 0.55797 0.0
C2976 C 0.19874 0.16287 0.46956 0.0
C2977 C 0.20004 0.16273 0.43384 0.0
C2978 C 0.21207 0.1621 0.49031 0.0
C2979 C 0.25439 0.15122 0.49127 0.0
H2980 H 0.25523 0.17727 0.57223 0.0
C2981 C 0.31111 0.16038 0.57004 0.0
C2982 C 0.31011 0.16173 0.60568 0.0
C2983 C 0.29759 0.15968 0.54988 0.0
C2984 C 0.25514 0.16973 0.55005 0.0
H2985 H 0.2166 0.16141 0.39206 0.0
H2986 H 0.24001 0.16012 0.42841 0.0
H2987 H 0.23235 0.17786 0.53501 0.0
H2988 H 0.29387 0.16318 0.64802 0.0
H2989 H 0.27012 0.16179 0.61276 0.0
H2990 H 0.27721 0.14313 0.50628 0.0
C2991 C 0.22855 0.16072 0.44033 0.0
C2992 C 0.24198 0.17009 0.52855 0.0
C2993 C 0.21513 0.1615 0.41943 0.0
C2994 C 0.2951 0.16211 0.62069 0.0
C2995 C 0.28148 0.16145 0.60039 0.0
C2996 C 0.26755 0.15085 0.5128 0.0
C2997 C 0.22721 0.16118 0.47612 0.0
C2998 C 0.2414 0.16086 0.49879 0.0
C2999 C 0.28254 0.1603 0.56462 0.0
C3000 C 0.26816 0.16015 0.54248 0.0
H3001 H 0.18734 0.16367 0.48174 0.0
H3002 H 0.21046 0.16215 0.51764 0.0
H3003 H 0.25431 0.14376 0.46896 0.0
H3004 H 0.32243 0.16005 0.55743 0.0
H3005 H 0.29898 0.15905 0.52253 0.0
C3006 C 0.10987 0.058 0.82761 0.0
C3007 C 0.10109 0.05807 0.85793 0.0
C3008 C 0.11038 0.04464 0.80686 0.0
C3009 C 0.08742 0.01094 0.78019 0.0
H3010 H 0.12691 0.99343 0.74849 0.0
C3011 C 0.09269 0.96503 0.66954 0.0
C3012 C 0.10073 0.95124 0.6789 0.0
C3013 C 0.09293 0.9783 0.6909 0.0
C3014 C 0.11579 0.99824 0.75703 0.0
H3015 H 0.08592 0.04415 0.89027 0.0
H3016 H 0.08643 0.02078 0.85327 0.0
H3017 H 0.12701 0.01558 0.78842 0.0
H3018 H 0.11573 0.94076 0.71722 0.0
H3019 H 0.11671 0.96406 0.75351 0.0
H3020 H 0.07622 0.99381 0.74811 0.0
C3021 C 0.09311 0.03107 0.84597 0.0
C3022 C 0.11585 0.0109 0.77988 0.0
C3023 C 0.09293 0.04437 0.86728 0.0
C3024 C 0.10944 0.95122 0.7093 0.0
C3025 C 0.11002 0.96456 0.73009 0.0
C3026 C 0.08736 0.9985 0.75669 0.0
C3027 C 0.10179 0.03111 0.81542 0.0
C3028 C 0.10167 0.01734 0.79191 0.0
C3029 C 0.10156 0.97817 0.72149 0.0
C3030 C 0.10156 0.99195 0.74499 0.0
H3031 H 0.11623 0.06841 0.81967 0.0
H3032 H 0.11711 0.04506 0.78348 0.0
H3033 H 0.07632 0.01576 0.78877 0.0
H3034 H 0.08573 0.96533 0.64647 0.0
H3035 H 0.08634 0.98867 0.68357 0.0
C3036 C 0.19938 0.85076 0.06737 0.0
C3037 C 0.20062 0.84983 0.10304 0.0
C3038 C 0.21276 0.85137 0.04676 0.0
C3039 C 0.25551 0.86006 0.04698 0.0
H3040 H 0.25525 0.83579 0.96344 0.0
C3041 C 0.31182 0.85024 0.96719 0.0
C3042 C 0.31078 0.84964 0.93146 0.0
C3043 C 0.29833 0.85106 0.98744 0.0
C3044 C 0.25548 0.84285 0.98636 0.0
H3045 H 0.21715 0.84911 0.14493 0.0
H3046 H 0.24066 0.85017 0.10881 0.0
H3047 H 0.23232 0.83549 1.00058 0.0
H3048 H 0.29452 0.84964 0.88908 0.0
H3049 H 0.27083 0.85126 0.9245 0.0
H3050 H 0.27867 0.86742 0.03277 0.0
C3051 C 0.22921 0.85051 0.09684 0.0
C3052 C 0.2423 0.84264 1.00781 0.0
C3053 C 0.21573 0.84986 0.1176 0.0
C3054 C 0.29578 0.8501 0.91648 0.0
C3055 C 0.28219 0.85091 0.93686 0.0
C3056 C 0.26869 0.8603 0.02548 0.0
C3057 C 0.22789 0.85109 0.06106 0.0
C3058 C 0.24211 0.85123 0.03848 0.0
C3059 C 0.28328 0.85132 0.9727 0.0
C3060 C 0.26891 0.85164 0.99489 0.0
H3061 H 0.18798 0.8509 0.0551 0.0
H3062 H 0.21121 0.85214 1.01946 0.0
H3063 H 0.25575 0.86701 0.07005 0.0
H3064 H 0.32314 0.8499 0.9798 0.0
H3065 H 0.29974 0.85109 1.01482 0.0
C3066 C 0.40976 0.95061 0.31882 0.0
C3067 C 0.41122 0.95162 0.35444 0.0
C3068 C 0.4092 0.96413 0.29861 0.0
C3069 C 0.4198 0.00644 0.29855 0.0
H3070 H 0.39372 0.00758 0.21764 0.0
C3071 C 0.41308 0.06293 0.21825 0.0
C3072 C 0.41296 0.06166 0.18253 0.0
C3073 C 0.41232 0.04959 0.23897 0.0
C3074 C 0.40122 0.0074 0.2399 0.0
H3075 H 0.413 0.96787 0.39668 0.0
H3076 H 0.41183 0.99161 0.36134 0.0
H3077 H 0.39288 0.9847 0.25503 0.0
H3078 H 0.41172 0.04512 0.1407 0.0
H3079 H 0.4104 0.02169 0.17701 0.0
H3080 H 0.42814 0.02913 0.28342 0.0
C3081 C 0.41131 0.98024 0.34902 0.0
C3082 C 0.40072 0.99426 0.26147 0.0
C3083 C 0.41185 0.96663 0.36937 0.0
C3084 C 0.41179 0.04657 0.16808 0.0
C3085 C 0.41099 0.03314 0.18894 0.0
C3086 C 0.42027 0.01958 0.27704 0.0
C3087 C 0.41006 0.97917 0.31327 0.0
C3088 C 0.41006 0.99354 0.29108 0.0
C3089 C 0.4114 0.03447 0.22473 0.0
C3090 C 0.411 0.02027 0.24736 0.0
H3091 H 0.40925 0.93929 0.30627 0.0
H3092 H 0.40849 0.96273 0.27127 0.0
H3093 H 0.42738 0.00625 0.32068 0.0
H3094 H 0.41385 0.07432 0.23046 0.0
H3095 H 0.41234 0.05117 0.26631 0.0
C3096 C 0.79532 0.85057 0.62143 0.0
C3097 C 0.81037 0.85015 0.60663 0.0
C3098 C 0.78178 0.8513 0.6009 0.0
C3099 C 0.76841 0.86047 0.5121 0.0
H3100 H 0.73216 0.83547 0.53703 0.0
C3101 C 0.71553 0.84969 0.41996 0.0
C3102 C 0.70043 0.84957 0.43452 0.0
C3103 C 0.72901 0.85043 0.44071 0.0
C3104 C 0.7421 0.84267 0.52979 0.0
H3105 H 0.82286 0.85044 0.55844 0.0
H3106 H 0.79954 0.85151 0.52314 0.0
H3107 H 0.75504 0.83596 0.57425 0.0
H3108 H 0.68777 0.85056 0.48247 0.0
H3109 H 0.71098 0.85197 0.51809 0.0
H3110 H 0.75547 0.86707 0.46744 0.0
C3111 C 0.79806 0.85149 0.5505 0.0
C3112 C 0.75525 0.84299 0.55128 0.0
C3113 C 0.81151 0.85075 0.5709 0.0
C3114 C 0.69917 0.85049 0.4702 0.0
C3115 C 0.71254 0.8512 0.49079 0.0
C3116 C 0.75525 0.86013 0.49055 0.0
C3117 C 0.78296 0.85168 0.56507 0.0
C3118 C 0.76864 0.85186 0.54277 0.0
C3119 C 0.72768 0.85101 0.47649 0.0
C3120 C 0.74189 0.85123 0.49908 0.0
H3121 H 0.79398 0.85011 0.64882 0.0
H3122 H 0.77039 0.85161 0.61315 0.0
H3123 H 0.77836 0.86765 0.5048 0.0
H3124 H 0.71696 0.84894 0.39263 0.0
H3125 H 0.74047 0.85016 0.42873 0.0
C3126 C 0.91111 0.06192 0.32105 0.0
C3127 C 0.91181 0.06071 0.35676 0.0
C3128 C 0.91054 0.04851 0.30052 0.0
C3129 C 0.90144 0.00585 0.30083 0.0
H3130 H 0.92592 0.00584 0.21754 0.0
C3131 C 0.91064 0.94946 0.22089 0.0
C3132 C 0.91132 0.95055 0.18516 0.0
C3133 C 0.90999 0.96294 0.24121 0.0
C3134 C 0.91881 0.00569 0.2404 0.0
H3135 H 0.91222 0.04422 0.39877 0.0
H3136 H 0.91125 0.02067 0.36276 0.0
H3137 H 0.92641 0.02876 0.25467 0.0
H3138 H 0.91165 0.96689 0.14289 0.0
H3139 H 0.91032 0.99054 0.17843 0.0
H3140 H 0.89384 0.98278 0.28654 0.0
C3141 C 0.91105 0.03211 0.35072 0.0
C3142 C 0.91912 0.01886 0.26184 0.0
C3143 C 0.91165 0.04561 0.3714 0.0
C3144 C 0.91111 0.96558 0.17028 0.0
C3145 C 0.91048 0.97915 0.19074 0.0
C3146 C 0.9011 0.99268 0.27934 0.0
C3147 C 0.91065 0.03339 0.31491 0.0
C3148 C 0.91045 0.01915 0.29241 0.0
C3149 C 0.90998 0.97802 0.22657 0.0
C3150 C 0.90983 0.99236 0.24882 0.0
H3151 H 0.91108 0.0733 0.30871 0.0
H3152 H 0.90992 0.05004 0.2732 0.0
H3153 H 0.89442 0.0057 0.32381 0.0
H3154 H 0.91079 0.93812 0.23342 0.0
H3155 H 0.90988 0.96149 0.26858 0.0
C3156 C 0.81243 0.16209 0.96944 0.0
C3157 C 0.81124 0.1622 0.9337 0.0
C3158 C 0.79903 0.16129 0.98999 0.0
C3159 C 0.75595 0.16844 0.98923 0.0
H3160 H 0.75711 0.14518 0.0741 0.0
C3161 C 0.70026 0.15984 0.07121 0.0
C3162 C 0.70155 0.16112 0.10683 0.0
C3163 C 0.71362 0.15939 0.0505 0.0
C3164 C 0.75663 0.15188 0.0507 0.0
H3165 H 0.7948 0.16136 0.89167 0.0
H3166 H 0.7713 0.15975 0.92762 0.0
H3167 H 0.77996 0.14501 0.03658 0.0
H3168 H 0.71814 0.16265 0.1485 0.0
H3169 H 0.7416 0.16189 0.1122 0.0
H3170 H 0.73262 0.1753 1.00334 0.0
C3171 C 0.7827 0.16049 0.93974 0.0
C3172 C 0.76976 0.15178 0.02907 0.0
C3173 C 0.79619 0.1613 0.91906 0.0
C3174 C 0.71668 0.16161 0.12122 0.0
C3175 C 0.73014 0.16114 0.10036 0.0
C3176 C 0.74282 0.16851 1.01082 0.0
C3177 C 0.78393 0.16052 0.97557 0.0
C3178 C 0.76965 0.16011 0.99802 0.0
C3179 C 0.72877 0.16021 0.06462 0.0
C3180 C 0.74295 0.16024 0.04191 0.0
H3181 H 0.82378 0.1628 0.98179 0.0
H3182 H 0.80055 0.16162 1.01733 0.0
H3183 H 0.75546 0.17523 0.96595 0.0
H3184 H 0.68885 0.15929 0.05908 0.0
H3185 H 0.71204 0.15833 0.02326 0.0
C3186 C 0.59994 0.0454 0.66958 0.0
C3187 C 0.59946 0.06052 0.68405 0.0
C3188 C 0.60063 0.03195 0.69042 0.0
C3189 C 0.59223 0.01878 0.77921 0.0
H3190 H 0.61781 0.98278 0.75516 0.0
C3191 C 0.6002 0.96565 0.87118 0.0
C3192 C 0.60007 0.95059 0.85642 0.0
C3193 C 0.60085 0.97918 0.85063 0.0
C3194 C 0.61047 0.99266 0.76218 0.0
H3195 H 0.59977 0.07322 0.73195 0.0
H3196 H 0.60111 0.05004 0.76776 0.0
H3197 H 0.61729 0.00569 0.71782 0.0
H3198 H 0.60077 0.93808 0.80829 0.0
H3199 H 0.60171 0.96142 0.77293 0.0
H3200 H 0.58531 0.00575 0.82341 0.0
C3201 C 0.60065 0.04845 0.74045 0.0
C3202 C 0.61016 0.00582 0.74065 0.0
C3203 C 0.59998 0.06181 0.71975 0.0
C3204 C 0.60085 0.94944 0.82072 0.0
C3205 C 0.60152 0.9629 0.80029 0.0
C3206 C 0.59252 0.00562 0.8007 0.0
C3207 C 0.60082 0.0333 0.72621 0.0
C3208 C 0.60104 0.01909 0.74883 0.0
C3209 C 0.60144 0.978 0.81483 0.0
C3210 C 0.60161 0.99232 0.79251 0.0
H3211 H 0.59951 0.04394 0.64222 0.0
H3212 H 0.60064 0.02048 0.67848 0.0
H3213 H 0.58485 0.02864 0.78619 0.0
H3214 H 0.59959 0.96699 0.89855 0.0
H3215 H 0.60094 0.99059 0.86285 0.0
C3216 C 0.71508 0.66091 0.91826 0.0
C3217 C 0.69992 0.66138 0.93254 0.0
C3218 C 0.72847 0.66022 0.93927 0.0
C3219 C 0.74143 0.66866 0.02812 0.0
H3220 H 0.77741 0.64297 1.00452 0.0
C3221 C 0.79467 0.66105 0.12006 0.0
C3222 C 0.80969 0.66113 0.10513 0.0
C3223 C 0.78109 0.6603 0.09965 0.0
C3224 C 0.76754 0.65035 1.01142 0.0
H3225 H 0.68708 0.66111 0.98029 0.0
H3226 H 0.71015 0.65979 1.0164 0.0
H3227 H 0.75456 0.64346 0.96707 0.0
H3228 H 0.8221 0.66024 0.05687 0.0
H3229 H 0.79872 0.65914 0.0218 0.0
H3230 H 0.75443 0.67567 0.07228 0.0
C3231 C 0.71182 0.66023 0.98909 0.0
C3232 C 0.75441 0.65063 0.98982 0.0
C3233 C 0.69852 0.66089 0.96823 0.0
C3234 C 0.81077 0.66019 0.06943 0.0
C3235 C 0.79728 0.65944 0.04917 0.0
C3236 C 0.75457 0.66841 0.04967 0.0
C3237 C 0.72701 0.66004 0.97504 0.0
C3238 C 0.74115 0.65981 0.99782 0.0
C3239 C 0.78221 0.65956 0.06384 0.0
C3240 C 0.76787 0.65929 0.04162 0.0
H3241 H 0.71663 0.66132 0.89092 0.0
H3242 H 0.73997 0.6602 0.92747 0.0
H3243 H 0.73157 0.67607 0.03496 0.0
H3244 H 0.79338 0.66177 0.14743 0.0
H3245 H 0.76971 0.66025 0.11198 0.0
C3246 C 0.60001 0.44901 0.21843 0.0
C3247 C 0.59923 0.45006 0.1827 0.0
C3248 C 0.60078 0.46251 0.23867 0.0
C3249 C 0.59217 0.50531 0.23782 0.0
H3250 H 0.61672 0.50519 0.32098 0.0
C3251 C 0.60006 0.56147 0.31871 0.0
C3252 C 0.59943 0.56021 0.35442 0.0
C3253 C 0.6006 0.54809 0.29807 0.0
C3254 C 0.60965 0.50538 0.29807 0.0
H3255 H 0.59886 0.46635 0.14035 0.0
H3256 H 0.60041 0.49004 0.17575 0.0
H3257 H 0.61714 0.48228 0.2837 0.0
H3258 H 0.5991 0.54365 0.3963 0.0
H3259 H 0.60002 0.52016 0.36013 0.0
H3260 H 0.58468 0.52842 0.25219 0.0
C3261 C 0.60023 0.47867 0.18812 0.0
C3262 C 0.6099 0.49221 0.27656 0.0
C3263 C 0.59947 0.46508 0.16774 0.0
C3264 C 0.59963 0.54509 0.36895 0.0
C3265 C 0.6002 0.53162 0.34816 0.0
C3266 C 0.59195 0.51849 0.25928 0.0
C3267 C 0.60083 0.47757 0.22395 0.0
C3268 C 0.60111 0.49194 0.24615 0.0
C3269 C 0.60053 0.53295 0.31236 0.0
C3270 C 0.60067 0.51873 0.28977 0.0
H3271 H 0.59984 0.43769 0.23103 0.0
H3272 H 0.60096 0.46108 0.26604 0.0
H3273 H 0.58501 0.5055 0.21504 0.0
H3274 H 0.60005 0.57287 0.30645 0.0
H3275 H 0.60117 0.54966 0.27076 0.0
C3276 C 0.71529 0.34988 0.61955 0.0
C3277 C 0.70016 0.34939 0.60516 0.0
C3278 C 0.72871 0.35061 0.59865 0.0
C3279 C 0.74187 0.34231 0.50982 0.0
H3280 H 0.77774 0.36801 0.53386 0.0
C3281 C 0.79519 0.3502 0.41819 0.0
C3282 C 0.81021 0.35011 0.43316 0.0
C3283 C 0.78159 0.35089 0.43856 0.0
C3284 C 0.7679 0.36064 0.52684 0.0
H3285 H 0.6874 0.34968 0.55732 0.0
H3286 H 0.71055 0.35108 0.52139 0.0
H3287 H 0.75483 0.36743 0.57116 0.0
H3288 H 0.82256 0.35093 0.48145 0.0
H3289 H 0.79914 0.35194 0.51648 0.0
H3290 H 0.75496 0.33541 0.46567 0.0
C3291 C 0.71216 0.35061 0.5487 0.0
C3292 C 0.75473 0.36029 0.54835 0.0
C3293 C 0.69883 0.34991 0.56946 0.0
C3294 C 0.81124 0.35099 0.46887 0.0
C3295 C 0.79774 0.35169 0.4891 0.0
C3296 C 0.75505 0.34263 0.48835 0.0
C3297 C 0.72733 0.35082 0.56287 0.0
C3298 C 0.74152 0.35112 0.54019 0.0
C3299 C 0.78268 0.35156 0.47438 0.0
C3300 C 0.7683 0.35175 0.49655 0.0
H3301 H 0.71679 0.34945 0.6469 0.0
H3302 H 0.74019 0.35065 0.61053 0.0
H3303 H 0.73205 0.3349 0.50285 0.0
H3304 H 0.79393 0.34952 0.39081 0.0
H3305 H 0.77022 0.35094 0.4262 0.0
C3306 C 0.91167 0.46611 0.86874 0.0
C3307 C 0.91124 0.45097 0.85436 0.0
C3308 C 0.91124 0.47956 0.84785 0.0
C3309 C 0.91887 0.49222 0.75837 0.0
H3310 H 0.89544 0.52942 0.78396 0.0
C3311 C 0.91223 0.5459 0.66703 0.0
C3312 C 0.91323 0.5609 0.68196 0.0
C3313 C 0.91128 0.53234 0.68747 0.0
C3314 C 0.90219 0.5192 0.77649 0.0
H3315 H 0.90955 0.43825 0.80661 0.0
H3316 H 0.90865 0.46143 0.77074 0.0
H3317 H 0.8954 0.50654 0.82138 0.0
H3318 H 0.91384 0.57324 0.73031 0.0
H3319 H 0.91239 0.54988 0.76539 0.0
H3320 H 0.92577 0.50488 0.71364 0.0
C3321 C 0.90964 0.46302 0.79799 0.0
C3322 C 0.90217 0.50605 0.79807 0.0
C3323 C 0.91005 0.44967 0.81874 0.0
C3324 C 0.91307 0.56194 0.71772 0.0
C3325 C 0.9121 0.54847 0.73802 0.0
C3326 C 0.91891 0.50537 0.73682 0.0
C3327 C 0.91041 0.47818 0.8121 0.0
C3328 C 0.91052 0.49235 0.78936 0.0
C3329 C 0.91123 0.53344 0.72333 0.0
C3330 C 0.91062 0.5191 0.74558 0.0
H3331 H 0.91265 0.46757 0.89603 0.0
H3332 H 0.91195 0.49102 0.85969 0.0
H3333 H 0.92565 0.482 0.75095 0.0
H3334 H 0.91234 0.54464 0.63961 0.0
H3335 H 0.91047 0.52099 0.67515 0.0
C3336 C 0.29492 0.34962 0.12219 0.0
C3337 C 0.31001 0.34961 0.10758 0.0
C3338 C 0.28143 0.3501 0.10149 0.0
C3339 C 0.26811 0.3593 1.01268 0.0
H3340 H 0.23217 0.33375 0.03711 0.0
C3341 C 0.21525 0.34835 0.92053 0.0
C3342 C 0.20017 0.34816 0.93524 0.0
C3343 C 0.22876 0.34906 0.94117 0.0
C3344 C 0.24203 0.3411 0.03 0.0
H3345 H 0.32262 0.35028 0.05955 0.0
H3346 H 0.29938 0.35088 0.02396 0.0
H3347 H 0.25502 0.33439 0.07438 0.0
H3348 H 0.18761 0.34899 0.98332 0.0
H3349 H 0.21087 0.35034 1.01873 0.0
H3350 H 0.25512 0.36589 0.96811 0.0
C3351 C 0.29783 0.35076 0.05131 0.0
C3352 C 0.25517 0.3415 0.05153 0.0
C3353 C 0.31124 0.35029 0.07187 0.0
C3354 C 0.19898 0.34897 0.97093 0.0
C3355 C 0.21239 0.34965 0.99141 0.0
C3356 C 0.25498 0.35887 0.99109 0.0
C3357 C 0.2827 0.3506 0.06569 0.0
C3358 C 0.26843 0.35059 0.04323 0.0
C3359 C 0.2275 0.34954 0.97697 0.0
C3360 C 0.24173 0.34978 0.99946 0.0
H3361 H 0.29351 0.34909 0.14955 0.0
H3362 H 0.27 0.35013 0.1136 0.0
H3363 H 0.27797 0.36664 1.00556 0.0
H3364 H 0.21663 0.34769 0.89318 0.0
H3365 H 0.2402 0.34887 0.92911 0.0
C3366 C 0.411 0.56173 0.82232 0.0
C3367 C 0.412 0.56048 0.85799 0.0
C3368 C 0.41051 0.54836 0.8017 0.0
C3369 C 0.40214 0.50557 0.80183 0.0
H3370 H 0.42609 0.50615 0.71784 0.0
C3371 C 0.41136 0.44958 0.72059 0.0
C3372 C 0.41181 0.45081 0.68487 0.0
C3373 C 0.41076 0.46297 0.74119 0.0
C3374 C 0.41913 0.50583 0.74089 0.0
H3375 H 0.41303 0.54393 0.89984 0.0
H3376 H 0.41218 0.52042 0.86366 0.0
H3377 H 0.42649 0.52896 0.75528 0.0
H3378 H 0.41178 0.46733 0.64291 0.0
H3379 H 0.4105 0.49082 0.67893 0.0
H3380 H 0.39475 0.48245 0.78741 0.0
C3381 C 0.41169 0.53188 0.85173 0.0
C3382 C 0.41939 0.51894 0.76251 0.0
C3383 C 0.41221 0.54536 0.87251 0.0
C3384 C 0.41143 0.46591 0.67029 0.0
C3385 C 0.41082 0.47939 0.69102 0.0
C3386 C 0.40184 0.49246 0.78014 0.0
C3387 C 0.411 0.53322 0.81596 0.0
C3388 C 0.4109 0.51902 0.79332 0.0
C3389 C 0.41054 0.4781 0.72684 0.0
C3390 C 0.41037 0.49236 0.74936 0.0
H3391 H 0.41067 0.57313 0.81007 0.0
H3392 H 0.40965 0.54992 0.77441 0.0
H3393 H 0.39526 0.50526 0.825 0.0
H3394 H 0.41166 0.43819 0.7329 0.0
H3395 H 0.41083 0.4614 0.76853 0.0
C3396 C 0.29585 0.66095 0.42102 0.0
C3397 C 0.31091 0.66219 0.43553 0.0
C3398 C 0.2824 0.66016 0.4418 0.0
C3399 C 0.26962 0.65231 0.53167 0.0
H3400 H 0.23212 0.6749 0.50453 0.0
C3401 C 0.21617 0.66236 0.62289 0.0
C3402 C 0.2011 0.66123 0.60837 0.0
C3403 C 0.22969 0.66194 0.60222 0.0
C3404 C 0.24243 0.66838 0.51243 0.0
H3405 H 0.32349 0.66338 0.48352 0.0
H3406 H 0.30031 0.66223 0.51923 0.0
H3407 H 0.25498 0.67475 0.46722 0.0
H3408 H 0.1886 0.65834 0.56061 0.0
H3409 H 0.21189 0.65751 0.52515 0.0
H3410 H 0.25705 0.64607 0.57707 0.0
C3411 C 0.29877 0.66162 0.49192 0.0
C3412 C 0.25557 0.66825 0.49087 0.0
C3413 C 0.31214 0.6624 0.47126 0.0
C3414 C 0.19995 0.65939 0.57284 0.0
C3415 C 0.21337 0.65901 0.55232 0.0
C3416 C 0.25648 0.65247 0.55329 0.0
C3417 C 0.28366 0.66056 0.47762 0.0
C3418 C 0.2694 0.66023 0.50014 0.0
C3419 C 0.22845 0.66044 0.56655 0.0
C3420 C 0.24267 0.66049 0.54397 0.0
H3421 H 0.29444 0.66077 0.39363 0.0
H3422 H 0.271 0.65916 0.42976 0.0
H3423 H 0.27991 0.64578 0.53959 0.0
H3424 H 0.21752 0.66384 0.6501 0.0
H3425 H 0.24111 0.66316 0.61411 0.0
C3426 C 0.09905 0.46598 0.37299 0.0
C3427 C 0.10024 0.45093 0.35841 0.0
C3428 C 0.09952 0.47952 0.35238 0.0
C3429 C 0.0931 0.49227 0.26271 0.0
H3430 H 0.11571 0.52973 0.2897 0.0
C3431 C 0.1003 0.5457 0.17133 0.0
C3432 C 0.09912 0.56075 0.1859 0.0
C3433 C 0.10114 0.53224 0.19207 0.0
C3434 C 0.10918 0.51944 0.28184 0.0
H3435 H 0.10333 0.43846 0.31065 0.0
H3436 H 0.10423 0.46178 0.2753 0.0
H3437 H 0.11548 0.50687 0.32719 0.0
H3438 H 0.09805 0.57332 0.23394 0.0
H3439 H 0.09923 0.55012 0.26957 0.0
H3440 H 0.08663 0.50483 0.21758 0.0
C3441 C 0.10265 0.46323 0.30246 0.0
C3442 C 0.10905 0.5063 0.30345 0.0
C3443 C 0.10222 0.4498 0.32292 0.0
C3444 C 0.09898 0.56197 0.22164 0.0
C3445 C 0.09979 0.54859 0.24225 0.0
C3446 C 0.09317 0.50541 0.24117 0.0
C3447 C 0.10112 0.47829 0.31673 0.0
C3448 C 0.10103 0.49251 0.29418 0.0
C3449 C 0.10082 0.53349 0.22789 0.0
C3450 C 0.1012 0.51923 0.25038 0.0
H3451 H 0.09746 0.4673 0.40018 0.0
H3452 H 0.09823 0.49093 0.36428 0.0
H3453 H 0.08657 0.48196 0.25488 0.0
H3454 H 0.10044 0.54431 0.14394 0.0
H3455 H 0.1021 0.52084 0.17999 0.0
loop_
_geom_bond_atom_site_label_1
_geom_bond_atom_site_label_2
_geom_bond_distance
_geom_bond_site_symmetry_2
_ccdc_geom_bond_type
C0 C1 1.351 . S
C0 N3 1.368 . S
C0 H5 0.931 . S
C1 C0 1.351 . S
C1 N2 1.373 . S
C1 H29 0.930 . S
N2 C1 1.373 . S
N2 C4 1.340 . S
N3 C0 1.368 . S
N3 C4 1.321 . S
N3 Co6 2.135 . S
C4 N2 1.340 . S
C4 N3 1.321 . S
C4 H28 0.930 . S
H5 C0 0.931 . S
Co6 N3 2.135 . S
Co6 N9 2.121 . S
Co6 O14 2.055 . S
Co6 O17 2.039 . S
Co6 N20 2.140 . S
C7 O8 1.227 . S
C7 O17 1.265 . S
O8 C7 1.227 . S
N9 Co6 2.121 . S
N9 C11 1.375 . S
N9 C12 1.313 . S
C10 C11 1.338 . S
C10 N13 1.377 . S
C10 H30 0.930 . S
C11 N9 1.375 . S
C11 C10 1.338 . S
C11 H15 0.931 . S
C12 N9 1.313 . S
C12 N13 1.344 . S
C12 H16 0.930 . S
N13 C10 1.377 . S
N13 C12 1.344 . S
O14 Co6 2.055 . S
O14 C18 1.253 . S
H15 C11 0.931 . S
H16 C12 0.930 . S
O17 Co6 2.039 . S
O17 C7 1.265 . S
C18 O14 1.253 . S
C18 O19 1.227 . S
O19 C18 1.227 . S
N20 Co6 2.140 . S
N20 C23 1.346 . S
N20 C24 1.345 . S
C21 C22 1.387 . S
C21 C25 1.391 . S
C22 C21 1.387 . S
C22 C23 1.369 . S
C22 H31 0.929 . S
C23 N20 1.346 . S
C23 C22 1.369 . S
C23 H26 0.928 . S
C24 N20 1.345 . S
C24 C25 1.371 . S
C24 H27 0.931 . S
C25 C21 1.391 . S
C25 C24 1.371 . S
C25 H32 0.930 . S
H26 C23 0.928 . S
H27 C24 0.931 . S
H28 C4 0.930 . S
H29 C1 0.930 . S
H30 C10 0.930 . S
H31 C22 0.929 . S
H32 C25 0.930 . S
C33 C34 1.351 . S
C33 N36 1.368 . S
C33 H38 0.931 . S
C34 C33 1.351 . S
C34 N35 1.373 . S
C34 H62 0.930 . S
N35 C34 1.373 . S
N35 C37 1.340 . S
N36 C33 1.368 . S
N36 C37 1.321 . S
N36 Co39 2.135 . S
C37 N35 1.340 . S
C37 N36 1.321 . S
C37 H61 0.930 . S
H38 C33 0.931 . S
Co39 N36 2.135 . S
Co39 N42 2.121 . S
Co39 O47 2.055 . S
Co39 O50 2.039 . S
Co39 N53 2.140 . S
C40 O41 1.227 . S
C40 O50 1.265 . S
O41 C40 1.227 . S
N42 Co39 2.121 . S
N42 C44 1.375 . S
N42 C45 1.313 . S
C43 C44 1.338 . S
C43 N46 1.377 . S
C43 H63 0.930 . S
C44 N42 1.375 . S
C44 C43 1.338 . S
C44 H48 0.931 . S
C45 N42 1.313 . S
C45 N46 1.344 . S
C45 H49 0.930 . S
N46 C43 1.377 . S
N46 C45 1.344 . S
O47 Co39 2.055 . S
O47 C51 1.253 . S
H48 C44 0.931 . S
H49 C45 0.930 . S
O50 Co39 2.039 . S
O50 C40 1.265 . S
C51 O47 1.253 . S
C51 O52 1.227 . S
O52 C51 1.227 . S
N53 Co39 2.140 . S
N53 C56 1.346 . S
N53 C57 1.345 . S
C54 C55 1.387 . S
C54 C58 1.391 . S
C55 C54 1.387 . S
C55 C56 1.369 . S
C55 H64 0.929 . S
C56 N53 1.346 . S
C56 C55 1.369 . S
C56 H59 0.928 . S
C57 N53 1.345 . S
C57 C58 1.371 . S
C57 H60 0.931 . S
C58 C54 1.391 . S
C58 C57 1.371 . S
C58 H65 0.930 . S
H59 C56 0.928 . S
H60 C57 0.931 . S
H61 C37 0.930 . S
H62 C34 0.930 . S
H63 C43 0.930 . S
H64 C55 0.929 . S
H65 C58 0.930 . S
C66 C67 1.351 . S
C66 N69 1.368 . S
C66 H71 0.931 . S
C67 C66 1.351 . S
C67 N68 1.373 . S
C67 H95 0.930 . S
N68 C67 1.373 . S
N68 C70 1.340 . S
N69 C66 1.368 . S
N69 C70 1.321 . S
N69 Co72 2.135 . S
C70 N68 1.340 . S
C70 N69 1.321 . S
C70 H94 0.930 . S
H71 C66 0.931 . S
Co72 N69 2.135 . S
Co72 N75 2.121 . S
Co72 O80 2.055 . S
Co72 O83 2.039 . S
Co72 N86 2.140 . S
C73 O74 1.227 . S
C73 O83 1.265 . S
O74 C73 1.227 . S
N75 Co72 2.121 . S
N75 C77 1.375 . S
N75 C78 1.313 . S
C76 C77 1.338 . S
C76 N79 1.377 . S
C76 H96 0.930 . S
C77 N75 1.375 . S
C77 C76 1.338 . S
C77 H81 0.931 . S
C78 N75 1.313 . S
C78 N79 1.344 . S
C78 H82 0.930 . S
N79 C76 1.377 . S
N79 C78 1.344 . S
O80 Co72 2.055 . S
O80 C84 1.253 . S
H81 C77 0.931 . S
H82 C78 0.930 . S
O83 Co72 2.039 . S
O83 C73 1.265 . S
C84 O80 1.253 . S
C84 O85 1.227 . S
O85 C84 1.227 . S
N86 Co72 2.140 . S
N86 C89 1.346 . S
N86 C90 1.345 . S
C87 C88 1.387 . S
C87 C91 1.391 . S
C88 C87 1.387 . S
C88 C89 1.369 . S
C88 H97 0.929 . S
C89 N86 1.346 . S
C89 C88 1.369 . S
C89 H92 0.928 . S
C90 N86 1.345 . S
C90 C91 1.371 . S
C90 H93 0.931 . S
C91 C87 1.391 . S
C91 C90 1.371 . S
C91 H98 0.930 . S
H92 C89 0.928 . S
H93 C90 0.931 . S
H94 C70 0.930 . S
H95 C67 0.930 . S
H96 C76 0.930 . S
H97 C88 0.929 . S
H98 C91 0.930 . S
C99 C100 1.351 . S
C99 N102 1.368 . S
C99 H104 0.931 . S
C100 C99 1.351 . S
C100 N101 1.373 . S
C100 H128 0.930 1_554 S
N101 C100 1.373 . S
N101 C103 1.340 . S
N102 C99 1.368 . S
N102 C103 1.321 . S
N102 Co105 2.135 . S
C103 N101 1.340 . S
C103 N102 1.321 . S
C103 H127 0.930 . S
H104 C99 0.931 . S
Co105 N102 2.135 . S
Co105 N108 2.121 . S
Co105 O113 2.055 . S
Co105 O116 2.039 . S
Co105 N119 2.140 . S
C106 O107 1.227 . S
C106 O116 1.265 . S
O107 C106 1.227 . S
N108 Co105 2.121 . S
N108 C110 1.375 . S
N108 C111 1.313 . S
C109 C110 1.338 . S
C109 N112 1.377 . S
C109 H129 0.930 . S
C110 N108 1.375 . S
C110 C109 1.338 . S
C110 H114 0.931 . S
C111 N108 1.313 . S
C111 N112 1.344 . S
C111 H115 0.930 . S
N112 C109 1.377 . S
N112 C111 1.344 . S
O113 Co105 2.055 . S
O113 C117 1.253 . S
H114 C110 0.931 . S
H115 C111 0.930 . S
O116 Co105 2.039 . S
O116 C106 1.265 . S
C117 O113 1.253 . S
C117 O118 1.227 . S
O118 C117 1.227 . S
N119 Co105 2.140 . S
N119 C122 1.346 . S
N119 C123 1.345 . S
C120 C121 1.387 . S
C120 C124 1.391 . S
C121 C120 1.387 . S
C121 C122 1.369 . S
C121 H130 0.929 . S
C122 N119 1.346 . S
C122 C121 1.369 . S
C122 H125 0.928 . S
C123 N119 1.345 . S
C123 C124 1.371 . S
C123 H126 0.931 . S
C124 C120 1.391 . S
C124 C123 1.371 . S
C124 H131 0.930 . S
H125 C122 0.928 . S
H126 C123 0.931 . S
H127 C103 0.930 . S
H128 C100 0.930 1_556 S
H129 C109 0.930 . S
H130 C121 0.929 . S
H131 C124 0.930 . S
C132 C133 1.351 . S
C132 N135 1.368 . S
C132 H137 0.931 . S
C133 C132 1.351 . S
C133 N134 1.373 . S
C133 H161 0.930 . S
N134 C133 1.373 . S
N134 C136 1.340 . S
N135 C132 1.368 . S
N135 C136 1.321 . S
N135 Co138 2.135 . S
C136 N134 1.340 . S
C136 N135 1.321 . S
C136 H160 0.930 . S
H137 C132 0.931 . S
Co138 N135 2.135 . S
Co138 N141 2.121 . S
Co138 O146 2.055 . S
Co138 O149 2.039 . S
Co138 N152 2.140 . S
C139 O140 1.227 . S
C139 O149 1.265 . S
O140 C139 1.227 . S
N141 Co138 2.121 . S
N141 C143 1.375 . S
N141 C144 1.313 . S
C142 C143 1.338 . S
C142 N145 1.377 . S
C142 H162 0.930 . S
C143 N141 1.375 . S
C143 C142 1.338 . S
C143 H147 0.931 . S
C144 N141 1.313 . S
C144 N145 1.344 . S
C144 H148 0.930 . S
N145 C142 1.377 . S
N145 C144 1.344 . S
O146 Co138 2.055 . S
O146 C150 1.253 . S
H147 C143 0.931 . S
H148 C144 0.930 . S
O149 Co138 2.039 . S
O149 C139 1.265 . S
C150 O146 1.253 . S
C150 O151 1.227 . S
O151 C150 1.227 . S
N152 Co138 2.140 . S
N152 C155 1.346 . S
N152 C156 1.345 . S
C153 C154 1.387 . S
C153 C157 1.391 . S
C154 C153 1.387 . S
C154 C155 1.369 . S
C154 H163 0.929 . S
C155 N152 1.346 . S
C155 C154 1.369 . S
C155 H158 0.928 . S
C156 N152 1.345 . S
C156 C157 1.371 . S
C156 H159 0.931 . S
C157 C153 1.391 . S
C157 C156 1.371 . S
C157 H164 0.930 . S
H158 C155 0.928 . S
H159 C156 0.931 . S
H160 C136 0.930 . S
H161 C133 0.930 . S
H162 C142 0.930 . S
H163 C154 0.929 . S
H164 C157 0.930 . S
C165 C166 1.351 . S
C165 N168 1.368 . S
C165 H170 0.931 . S
C166 C165 1.351 . S
C166 N167 1.373 . S
C166 H194 0.930 . S
N167 C166 1.373 . S
N167 C169 1.340 . S
N168 C165 1.368 . S
N168 C169 1.321 . S
N168 Co171 2.135 . S
C169 N167 1.340 . S
C169 N168 1.321 . S
C169 H193 0.930 . S
H170 C165 0.931 . S
Co171 N168 2.135 . S
Co171 N174 2.121 . S
Co171 O179 2.055 . S
Co171 O182 2.039 . S
Co171 N185 2.140 . S
C172 O173 1.227 . S
C172 O182 1.265 . S
O173 C172 1.227 . S
N174 Co171 2.121 . S
N174 C176 1.375 . S
N174 C177 1.313 . S
C175 C176 1.338 . S
C175 N178 1.377 . S
C175 H195 0.930 . S
C176 N174 1.375 . S
C176 C175 1.338 . S
C176 H180 0.931 . S
C177 N174 1.313 . S
C177 N178 1.344 . S
C177 H181 0.930 . S
N178 C175 1.377 . S
N178 C177 1.344 . S
O179 Co171 2.055 . S
O179 C183 1.253 . S
H180 C176 0.931 . S
H181 C177 0.930 . S
O182 Co171 2.039 . S
O182 C172 1.265 . S
C183 O179 1.253 . S
C183 O184 1.227 . S
O184 C183 1.227 . S
N185 Co171 2.140 . S
N185 C188 1.346 . S
N185 C189 1.345 . S
C186 C187 1.387 . S
C186 C190 1.391 . S
C187 C186 1.387 . S
C187 C188 1.369 . S
C187 H196 0.929 . S
C188 N185 1.346 . S
C188 C187 1.369 . S
C188 H191 0.928 . S
C189 N185 1.345 . S
C189 C190 1.371 . S
C189 H192 0.931 . S
C190 C186 1.391 . S
C190 C189 1.371 . S
C190 H197 0.930 . S
H191 C188 0.928 . S
H192 C189 0.931 . S
H193 C169 0.930 . S
H194 C166 0.930 . S
H195 C175 0.930 . S
H196 C187 0.929 . S
H197 C190 0.930 . S
C198 C199 1.351 . S
C198 N201 1.368 . S
C198 H203 0.931 . S
C199 C198 1.351 . S
C199 N200 1.373 . S
C199 H227 0.930 . S
N200 C199 1.373 . S
N200 C202 1.340 . S
N201 C198 1.368 . S
N201 C202 1.321 . S
N201 Co204 2.135 . S
C202 N200 1.340 . S
C202 N201 1.321 . S
C202 H226 0.930 . S
H203 C198 0.931 . S
Co204 N201 2.135 . S
Co204 N207 2.121 . S
Co204 O212 2.055 . S
Co204 O215 2.039 . S
Co204 N218 2.140 . S
C205 O206 1.227 . S
C205 O215 1.265 . S
O206 C205 1.227 . S
N207 Co204 2.121 . S
N207 C209 1.375 . S
N207 C210 1.313 . S
C208 C209 1.338 . S
C208 N211 1.377 . S
C208 H228 0.930 . S
C209 N207 1.375 . S
C209 C208 1.338 . S
C209 H213 0.931 . S
C210 N207 1.313 . S
C210 N211 1.344 . S
C210 H214 0.930 . S
N211 C208 1.377 . S
N211 C210 1.344 . S
O212 Co204 2.055 . S
O212 C216 1.253 . S
H213 C209 0.931 . S
H214 C210 0.930 . S
O215 Co204 2.039 . S
O215 C205 1.265 . S
C216 O212 1.253 . S
C216 O217 1.227 . S
O217 C216 1.227 . S
N218 Co204 2.140 . S
N218 C221 1.346 . S
N218 C222 1.345 . S
C219 C220 1.387 . S
C219 C223 1.391 . S
C220 C219 1.387 . S
C220 C221 1.369 . S
C220 H229 0.929 . S
C221 N218 1.346 . S
C221 C220 1.369 . S
C221 H224 0.928 . S
C222 N218 1.345 . S
C222 C223 1.371 . S
C222 H225 0.931 . S
C223 C219 1.391 . S
C223 C222 1.371 . S
C223 H230 0.930 . S
H224 C221 0.928 . S
H225 C222 0.931 . S
H226 C202 0.930 . S
H227 C199 0.930 . S
H228 C208 0.930 . S
H229 C220 0.929 . S
H230 C223 0.930 . S
C231 C232 1.351 . S
C231 N234 1.368 . S
C231 H236 0.931 . S
C232 C231 1.351 . S
C232 N233 1.373 . S
C232 H260 0.930 1_556 S
N233 C232 1.373 . S
N233 C235 1.340 . S
N234 C231 1.368 . S
N234 C235 1.321 . S
N234 Co237 2.135 . S
C235 N233 1.340 . S
C235 N234 1.321 . S
C235 H259 0.930 . S
H236 C231 0.931 . S
Co237 N234 2.135 . S
Co237 N240 2.121 . S
Co237 O245 2.055 . S
Co237 O248 2.039 . S
Co237 N251 2.140 . S
C238 O239 1.227 . S
C238 O248 1.265 . S
O239 C238 1.227 . S
N240 Co237 2.121 . S
N240 C242 1.375 . S
N240 C243 1.313 . S
C241 C242 1.338 . S
C241 N244 1.377 . S
C241 H261 0.930 . S
C242 N240 1.375 . S
C242 C241 1.338 . S
C242 H246 0.931 . S
C243 N240 1.313 . S
C243 N244 1.344 . S
C243 H247 0.930 . S
N244 C241 1.377 . S
N244 C243 1.344 . S
O245 Co237 2.055 . S
O245 C249 1.253 . S
H246 C242 0.931 . S
H247 C243 0.930 . S
O248 Co237 2.039 . S
O248 C238 1.265 . S
C249 O245 1.253 . S
C249 O250 1.227 . S
O250 C249 1.227 . S
N251 Co237 2.140 . S
N251 C254 1.346 . S
N251 C255 1.345 . S
C252 C253 1.387 . S
C252 C256 1.391 . S
C253 C252 1.387 . S
C253 C254 1.369 . S
C253 H262 0.929 . S
C254 N251 1.346 . S
C254 C253 1.369 . S
C254 H257 0.928 . S
C255 N251 1.345 . S
C255 C256 1.371 . S
C255 H258 0.931 . S
C256 C252 1.391 . S
C256 C255 1.371 . S
C256 H263 0.930 . S
H257 C254 0.928 . S
H258 C255 0.931 . S
H259 C235 0.930 . S
H260 C232 0.930 1_554 S
H261 C241 0.930 . S
H262 C253 0.929 . S
H263 C256 0.930 . S
C264 C265 1.351 . S
C264 N267 1.368 . S
C264 H269 0.931 . S
C265 C264 1.351 . S
C265 N266 1.373 . S
C265 H293 0.930 . S
N266 C265 1.373 . S
N266 C268 1.340 . S
N267 C264 1.368 . S
N267 C268 1.321 . S
N267 Co270 2.135 . S
C268 N266 1.340 . S
C268 N267 1.321 . S
C268 H292 0.930 . S
H269 C264 0.931 . S
Co270 N267 2.135 . S
Co270 N273 2.121 . S
Co270 O278 2.055 . S
Co270 O281 2.039 . S
Co270 N284 2.140 . S
C271 O272 1.227 . S
C271 O281 1.265 . S
O272 C271 1.227 . S
N273 Co270 2.121 . S
N273 C275 1.375 . S
N273 C276 1.313 . S
C274 C275 1.338 . S
C274 N277 1.377 . S
C274 H294 0.930 . S
C275 N273 1.375 . S
C275 C274 1.338 . S
C275 H279 0.931 . S
C276 N273 1.313 . S
C276 N277 1.344 . S
C276 H280 0.930 . S
N277 C274 1.377 . S
N277 C276 1.344 . S
O278 Co270 2.055 . S
O278 C282 1.253 . S
H279 C275 0.931 . S
H280 C276 0.930 . S
O281 Co270 2.039 . S
O281 C271 1.265 . S
C282 O278 1.253 . S
C282 O283 1.227 . S
O283 C282 1.227 . S
N284 Co270 2.140 . S
N284 C287 1.346 . S
N284 C288 1.345 . S
C285 C286 1.387 . S
C285 C289 1.391 . S
C286 C285 1.387 . S
C286 C287 1.369 . S
C286 H295 0.929 . S
C287 N284 1.346 . S
C287 C286 1.369 . S
C287 H290 0.928 . S
C288 N284 1.345 . S
C288 C289 1.371 . S
C288 H291 0.931 . S
C289 C285 1.391 . S
C289 C288 1.371 . S
C289 H296 0.930 . S
H290 C287 0.928 . S
H291 C288 0.931 . S
H292 C268 0.930 . S
H293 C265 0.930 . S
H294 C274 0.930 . S
H295 C286 0.929 . S
H296 C289 0.930 . S
C297 C298 1.351 . S
C297 N300 1.368 . S
C297 H302 0.931 . S
C298 C297 1.351 . S
C298 N299 1.373 . S
C298 H326 0.930 . S
N299 C298 1.373 . S
N299 C301 1.340 . S
N300 C297 1.368 . S
N300 C301 1.321 . S
N300 Co303 2.135 . S
C301 N299 1.340 . S
C301 N300 1.321 . S
C301 H325 0.930 . S
H302 C297 0.931 . S
Co303 N300 2.135 . S
Co303 N306 2.121 . S
Co303 O311 2.055 . S
Co303 O314 2.039 . S
Co303 N317 2.140 . S
C304 O305 1.227 . S
C304 O314 1.265 . S
O305 C304 1.227 . S
N306 Co303 2.121 . S
N306 C308 1.375 . S
N306 C309 1.313 . S
C307 C308 1.338 . S
C307 N310 1.377 . S
C307 H327 0.930 . S
C308 N306 1.375 . S
C308 C307 1.338 . S
C308 H312 0.931 . S
C309 N306 1.313 . S
C309 N310 1.344 . S
C309 H313 0.930 . S
N310 C307 1.377 . S
N310 C309 1.344 . S
O311 Co303 2.055 . S
O311 C315 1.253 . S
H312 C308 0.931 . S
H313 C309 0.930 . S
O314 Co303 2.039 . S
O314 C304 1.265 . S
C315 O311 1.253 . S
C315 O316 1.227 . S
O316 C315 1.227 . S
N317 Co303 2.140 . S
N317 C320 1.346 . S
N317 C321 1.345 . S
C318 C319 1.387 . S
C318 C322 1.391 . S
C319 C318 1.387 . S
C319 C320 1.369 . S
C319 H328 0.929 . S
C320 N317 1.346 . S
C320 C319 1.369 . S
C320 H323 0.928 . S
C321 N317 1.345 . S
C321 C322 1.371 . S
C321 H324 0.931 . S
C322 C318 1.391 . S
C322 C321 1.371 . S
C322 H329 0.930 . S
H323 C320 0.928 . S
H324 C321 0.931 . S
H325 C301 0.930 . S
H326 C298 0.930 . S
H327 C307 0.930 . S
H328 C319 0.929 . S
H329 C322 0.930 . S
C330 C331 1.351 . S
C330 N333 1.368 . S
C330 H335 0.931 . S
C331 C330 1.351 . S
C331 N332 1.373 . S
C331 H359 0.930 . S
N332 C331 1.373 . S
N332 C334 1.340 . S
N333 C330 1.368 . S
N333 C334 1.321 . S
N333 Co336 2.135 . S
C334 N332 1.340 . S
C334 N333 1.321 . S
C334 H358 0.930 . S
H335 C330 0.931 . S
Co336 N333 2.135 . S
Co336 N339 2.121 . S
Co336 O344 2.055 . S
Co336 O347 2.039 . S
Co336 N350 2.140 . S
C337 O338 1.227 . S
C337 O347 1.265 . S
O338 C337 1.227 . S
N339 Co336 2.121 . S
N339 C341 1.375 . S
N339 C342 1.313 . S
C340 C341 1.338 . S
C340 N343 1.377 . S
C340 H360 0.930 . S
C341 N339 1.375 . S
C341 C340 1.338 . S
C341 H345 0.931 . S
C342 N339 1.313 . S
C342 N343 1.344 . S
C342 H346 0.930 . S
N343 C340 1.377 . S
N343 C342 1.344 . S
O344 Co336 2.055 . S
O344 C348 1.253 . S
H345 C341 0.931 . S
H346 C342 0.930 . S
O347 Co336 2.039 . S
O347 C337 1.265 . S
C348 O344 1.253 . S
C348 O349 1.227 . S
O349 C348 1.227 . S
N350 Co336 2.140 . S
N350 C353 1.346 . S
N350 C354 1.345 . S
C351 C352 1.387 . S
C351 C355 1.391 . S
C352 C351 1.387 . S
C352 C353 1.369 . S
C352 H361 0.929 . S
C353 N350 1.346 . S
C353 C352 1.369 . S
C353 H356 0.928 . S
C354 N350 1.345 . S
C354 C355 1.371 . S
C354 H357 0.931 . S
C355 C351 1.391 . S
C355 C354 1.371 . S
C355 H362 0.930 . S
H356 C353 0.928 . S
H357 C354 0.931 . S
H358 C334 0.930 . S
H359 C331 0.930 . S
H360 C340 0.930 . S
H361 C352 0.929 . S
H362 C355 0.930 . S
C363 C364 1.351 . S
C363 N366 1.368 . S
C363 H368 0.931 . S
C364 C363 1.351 . S
C364 N365 1.373 . S
C364 H392 0.930 1_556 S
N365 C364 1.373 . S
N365 C367 1.340 . S
N366 C363 1.368 . S
N366 C367 1.321 . S
N366 Co369 2.135 . S
C367 N365 1.340 . S
C367 N366 1.321 . S
C367 H391 0.930 . S
H368 C363 0.931 . S
Co369 N366 2.135 . S
Co369 N372 2.121 . S
Co369 O377 2.055 . S
Co369 O380 2.039 . S
Co369 N383 2.140 . S
C370 O371 1.227 . S
C370 O380 1.265 . S
O371 C370 1.227 . S
N372 Co369 2.121 . S
N372 C374 1.375 . S
N372 C375 1.313 . S
C373 C374 1.338 . S
C373 N376 1.377 . S
C373 H393 0.930 . S
C374 N372 1.375 . S
C374 C373 1.338 . S
C374 H378 0.931 . S
C375 N372 1.313 . S
C375 N376 1.344 . S
C375 H379 0.930 . S
N376 C373 1.377 . S
N376 C375 1.344 . S
O377 Co369 2.055 . S
O377 C381 1.253 . S
H378 C374 0.931 . S
H379 C375 0.930 . S
O380 Co369 2.039 . S
O380 C370 1.265 . S
C381 O377 1.253 . S
C381 O382 1.227 . S
O382 C381 1.227 . S
N383 Co369 2.140 . S
N383 C386 1.346 . S
N383 C387 1.345 . S
C384 C385 1.387 . S
C384 C388 1.391 . S
C385 C384 1.387 . S
C385 C386 1.369 . S
C385 H394 0.929 . S
C386 N383 1.346 . S
C386 C385 1.369 . S
C386 H389 0.928 . S
C387 N383 1.345 . S
C387 C388 1.371 . S
C387 H390 0.931 . S
C388 C384 1.391 . S
C388 C387 1.371 . S
C388 H395 0.930 . S
H389 C386 0.928 . S
H390 C387 0.931 . S
H391 C367 0.930 . S
H392 C364 0.930 1_554 S
H393 C373 0.930 . S
H394 C385 0.929 . S
H395 C388 0.930 . S
C396 C397 1.351 . S
C396 N399 1.368 . S
C396 H401 0.931 . S
C397 C396 1.351 . S
C397 N398 1.373 . S
C397 H425 0.930 . S
N398 C397 1.373 . S
N398 C400 1.340 . S
N399 C396 1.368 . S
N399 C400 1.321 . S
N399 Co402 2.135 . S
C400 N398 1.340 . S
C400 N399 1.321 . S
C400 H424 0.930 . S
H401 C396 0.931 . S
Co402 N399 2.135 . S
Co402 N405 2.121 . S
Co402 O410 2.055 . S
Co402 O413 2.039 . S
Co402 N416 2.140 . S
C403 O404 1.227 . S
C403 O413 1.265 . S
O404 C403 1.227 . S
N405 Co402 2.121 . S
N405 C407 1.375 . S
N405 C408 1.313 . S
C406 C407 1.338 . S
C406 N409 1.377 . S
C406 H426 0.930 . S
C407 N405 1.375 . S
C407 C406 1.338 . S
C407 H411 0.931 . S
C408 N405 1.313 . S
C408 N409 1.344 . S
C408 H412 0.930 . S
N409 C406 1.377 . S
N409 C408 1.344 . S
O410 Co402 2.055 . S
O410 C414 1.253 . S
H411 C407 0.931 . S
H412 C408 0.930 . S
O413 Co402 2.039 . S
O413 C403 1.265 . S
C414 O410 1.253 . S
C414 O415 1.227 . S
O415 C414 1.227 . S
N416 Co402 2.140 . S
N416 C419 1.346 . S
N416 C420 1.345 . S
C417 C418 1.387 . S
C417 C421 1.391 . S
C418 C417 1.387 . S
C418 C419 1.369 . S
C418 H427 0.929 . S
C419 N416 1.346 . S
C419 C418 1.369 . S
C419 H422 0.928 . S
C420 N416 1.345 . S
C420 C421 1.371 . S
C420 H423 0.931 . S
C421 C417 1.391 . S
C421 C420 1.371 . S
C421 H428 0.930 . S
H422 C419 0.928 . S
H423 C420 0.931 . S
H424 C400 0.930 . S
H425 C397 0.930 . S
H426 C406 0.930 . S
H427 C418 0.929 . S
H428 C421 0.930 . S
C429 C430 1.351 . S
C429 N432 1.368 . S
C429 H434 0.931 . S
C430 C429 1.351 . S
C430 N431 1.373 . S
C430 H458 0.930 . S
N431 C430 1.373 . S
N431 C433 1.340 . S
N432 C429 1.368 . S
N432 C433 1.321 . S
N432 Co435 2.135 . S
C433 N431 1.340 . S
C433 N432 1.321 . S
C433 H457 0.930 . S
H434 C429 0.931 . S
Co435 N432 2.135 . S
Co435 N438 2.121 . S
Co435 O443 2.055 . S
Co435 O446 2.039 . S
Co435 N449 2.140 . S
C436 O437 1.227 . S
C436 O446 1.265 . S
O437 C436 1.227 . S
N438 Co435 2.121 . S
N438 C440 1.375 . S
N438 C441 1.313 . S
C439 C440 1.338 . S
C439 N442 1.377 . S
C439 H459 0.930 . S
C440 N438 1.375 . S
C440 C439 1.338 . S
C440 H444 0.931 . S
C441 N438 1.313 . S
C441 N442 1.344 . S
C441 H445 0.930 . S
N442 C439 1.377 . S
N442 C441 1.344 . S
O443 Co435 2.055 . S
O443 C447 1.253 . S
H444 C440 0.931 . S
H445 C441 0.930 . S
O446 Co435 2.039 . S
O446 C436 1.265 . S
C447 O443 1.253 . S
C447 O448 1.227 . S
O448 C447 1.227 . S
N449 Co435 2.140 . S
N449 C452 1.346 . S
N449 C453 1.345 . S
C450 C451 1.387 . S
C450 C454 1.391 . S
C451 C450 1.387 . S
C451 C452 1.369 . S
C451 H460 0.929 . S
C452 N449 1.346 . S
C452 C451 1.369 . S
C452 H455 0.928 . S
C453 N449 1.345 . S
C453 C454 1.371 . S
C453 H456 0.931 . S
C454 C450 1.391 . S
C454 C453 1.371 . S
C454 H461 0.930 . S
H455 C452 0.928 . S
H456 C453 0.931 . S
H457 C433 0.930 . S
H458 C430 0.930 . S
H459 C439 0.930 . S
H460 C451 0.929 . S
H461 C454 0.930 . S
C462 C463 1.351 . S
C462 N465 1.368 . S
C462 H467 0.931 . S
C463 C462 1.351 . S
C463 N464 1.373 . S
C463 H491 0.930 . S
N464 C463 1.373 . S
N464 C466 1.340 . S
N465 C462 1.368 . S
N465 C466 1.321 . S
N465 Co468 2.135 . S
C466 N464 1.340 . S
C466 N465 1.321 . S
C466 H490 0.930 . S
H467 C462 0.931 . S
Co468 N465 2.135 . S
Co468 N471 2.121 . S
Co468 O476 2.055 . S
Co468 O479 2.039 . S
Co468 N482 2.140 . S
C469 O470 1.227 . S
C469 O479 1.265 . S
O470 C469 1.227 . S
N471 Co468 2.121 . S
N471 C473 1.375 . S
N471 C474 1.313 . S
C472 C473 1.338 . S
C472 N475 1.377 . S
C472 H492 0.930 . S
C473 N471 1.375 . S
C473 C472 1.338 . S
C473 H477 0.931 . S
C474 N471 1.313 . S
C474 N475 1.344 . S
C474 H478 0.930 . S
N475 C472 1.377 . S
N475 C474 1.344 . S
O476 Co468 2.055 . S
O476 C480 1.253 . S
H477 C473 0.931 . S
H478 C474 0.930 . S
O479 Co468 2.039 . S
O479 C469 1.265 . S
C480 O476 1.253 . S
C480 O481 1.227 . S
O481 C480 1.227 . S
N482 Co468 2.140 . S
N482 C485 1.346 . S
N482 C486 1.345 . S
C483 C484 1.387 . S
C483 C487 1.391 . S
C484 C483 1.387 . S
C484 C485 1.369 . S
C484 H493 0.929 . S
C485 N482 1.346 . S
C485 C484 1.369 . S
C485 H488 0.928 . S
C486 N482 1.345 . S
C486 C487 1.371 . S
C486 H489 0.931 . S
C487 C483 1.391 . S
C487 C486 1.371 . S
C487 H494 0.930 . S
H488 C485 0.928 . S
H489 C486 0.931 . S
H490 C466 0.930 . S
H491 C463 0.930 . S
H492 C472 0.930 . S
H493 C484 0.929 . S
H494 C487 0.930 . S
C495 C496 1.351 . S
C495 N498 1.368 . S
C495 H500 0.931 . S
C496 C495 1.351 . S
C496 N497 1.373 . S
C496 H524 0.930 1_554 S
N497 C496 1.373 . S
N497 C499 1.340 . S
N498 C495 1.368 . S
N498 C499 1.321 . S
N498 Co501 2.135 . S
C499 N497 1.340 . S
C499 N498 1.321 . S
C499 H523 0.930 . S
H500 C495 0.931 . S
Co501 N498 2.135 . S
Co501 N504 2.121 . S
Co501 O509 2.055 . S
Co501 O512 2.039 . S
Co501 N515 2.140 . S
C502 O503 1.227 . S
C502 O512 1.265 . S
O503 C502 1.227 . S
N504 Co501 2.121 . S
N504 C506 1.375 . S
N504 C507 1.313 . S
C505 C506 1.338 . S
C505 N508 1.377 . S
C505 H525 0.930 . S
C506 N504 1.375 . S
C506 C505 1.338 . S
C506 H510 0.931 . S
C507 N504 1.313 . S
C507 N508 1.344 . S
C507 H511 0.930 . S
N508 C505 1.377 . S
N508 C507 1.344 . S
O509 Co501 2.055 . S
O509 C513 1.253 . S
H510 C506 0.931 . S
H511 C507 0.930 . S
O512 Co501 2.039 . S
O512 C502 1.265 . S
C513 O509 1.253 . S
C513 O514 1.227 . S
O514 C513 1.227 . S
N515 Co501 2.140 . S
N515 C518 1.346 . S
N515 C519 1.345 . S
C516 C517 1.387 . S
C516 C520 1.391 . S
C517 C516 1.387 . S
C517 C518 1.369 . S
C517 H526 0.929 . S
C518 N515 1.346 . S
C518 C517 1.369 . S
C518 H521 0.928 . S
C519 N515 1.345 . S
C519 C520 1.371 . S
C519 H522 0.931 . S
C520 C516 1.391 . S
C520 C519 1.371 . S
C520 H527 0.930 . S
H521 C518 0.928 . S
H522 C519 0.931 . S
H523 C499 0.930 . S
H524 C496 0.930 1_556 S
H525 C505 0.930 . S
H526 C517 0.929 . S
H527 C520 0.930 . S
C528 C529 1.351 . S
C528 N531 1.368 . S
C528 H533 0.931 . S
C529 C528 1.351 . S
C529 N530 1.373 . S
C529 H557 0.930 . S
N530 C529 1.373 . S
N530 C532 1.340 . S
N531 C528 1.368 . S
N531 C532 1.321 . S
N531 Co534 2.135 . S
C532 N530 1.340 . S
C532 N531 1.321 . S
C532 H556 0.930 . S
H533 C528 0.931 . S
Co534 N531 2.135 . S
Co534 N537 2.121 . S
Co534 O542 2.055 . S
Co534 O545 2.039 . S
Co534 N548 2.140 . S
C535 O536 1.227 . S
C535 O545 1.265 . S
O536 C535 1.227 . S
N537 Co534 2.121 . S
N537 C539 1.375 . S
N537 C540 1.313 . S
C538 C539 1.338 . S
C538 N541 1.377 . S
C538 H558 0.930 . S
C539 N537 1.375 . S
C539 C538 1.338 . S
C539 H543 0.931 . S
C540 N537 1.313 . S
C540 N541 1.344 . S
C540 H544 0.930 . S
N541 C538 1.377 . S
N541 C540 1.344 . S
O542 Co534 2.055 . S
O542 C546 1.253 . S
H543 C539 0.931 . S
H544 C540 0.930 . S
O545 Co534 2.039 . S
O545 C535 1.265 . S
C546 O542 1.253 . S
C546 O547 1.227 . S
O547 C546 1.227 . S
N548 Co534 2.140 . S
N548 C551 1.346 . S
N548 C552 1.345 . S
C549 C550 1.387 . S
C549 C553 1.391 . S
C550 C549 1.387 . S
C550 C551 1.369 . S
C550 H559 0.929 . S
C551 N548 1.346 . S
C551 C550 1.369 . S
C551 H554 0.928 . S
C552 N548 1.345 . S
C552 C553 1.371 . S
C552 H555 0.931 . S
C553 C549 1.391 . S
C553 C552 1.371 . S
C553 H560 0.930 . S
H554 C551 0.928 . S
H555 C552 0.931 . S
H556 C532 0.930 . S
H557 C529 0.930 . S
H558 C538 0.930 . S
H559 C550 0.929 . S
H560 C553 0.930 . S
C561 C562 1.351 . S
C561 N564 1.368 . S
C561 H566 0.931 . S
C562 C561 1.351 . S
C562 N563 1.373 . S
C562 H590 0.930 1_554 S
N563 C562 1.373 . S
N563 C565 1.340 . S
N564 C561 1.368 . S
N564 C565 1.321 . S
N564 Co567 2.135 . S
C565 N563 1.340 . S
C565 N564 1.321 . S
C565 H589 0.930 . S
H566 C561 0.931 . S
Co567 N564 2.135 . S
Co567 N570 2.121 . S
Co567 O575 2.055 . S
Co567 O578 2.039 . S
Co567 N581 2.140 . S
C568 O569 1.227 . S
C568 O578 1.265 . S
O569 C568 1.227 . S
N570 Co567 2.121 . S
N570 C572 1.375 . S
N570 C573 1.313 . S
C571 C572 1.338 . S
C571 N574 1.377 . S
C571 H591 0.930 . S
C572 N570 1.375 . S
C572 C571 1.338 . S
C572 H576 0.931 . S
C573 N570 1.313 . S
C573 N574 1.344 . S
C573 H577 0.930 . S
N574 C571 1.377 . S
N574 C573 1.344 . S
O575 Co567 2.055 . S
O575 C579 1.253 . S
H576 C572 0.931 . S
H577 C573 0.930 . S
O578 Co567 2.039 . S
O578 C568 1.265 . S
C579 O575 1.253 . S
C579 O580 1.227 . S
O580 C579 1.227 . S
N581 Co567 2.140 . S
N581 C584 1.346 . S
N581 C585 1.345 . S
C582 C583 1.387 . S
C582 C586 1.391 . S
C583 C582 1.387 . S
C583 C584 1.369 . S
C583 H592 0.929 . S
C584 N581 1.346 . S
C584 C583 1.369 . S
C584 H587 0.928 . S
C585 N581 1.345 . S
C585 C586 1.371 . S
C585 H588 0.931 . S
C586 C582 1.391 . S
C586 C585 1.371 . S
C586 H593 0.930 . S
H587 C584 0.928 . S
H588 C585 0.931 . S
H589 C565 0.930 . S
H590 C562 0.930 1_556 S
H591 C571 0.930 . S
H592 C583 0.929 . S
H593 C586 0.930 . S
C594 C595 1.351 . S
C594 N597 1.368 . S
C594 H599 0.931 . S
C595 C594 1.351 . S
C595 N596 1.373 . S
C595 H623 0.930 . S
N596 C595 1.373 . S
N596 C598 1.340 . S
N597 C594 1.368 . S
N597 C598 1.321 . S
N597 Co600 2.135 . S
C598 N596 1.340 . S
C598 N597 1.321 . S
C598 H622 0.930 . S
H599 C594 0.931 . S
Co600 N597 2.135 . S
Co600 N603 2.121 . S
Co600 O608 2.055 . S
Co600 O611 2.039 . S
Co600 N614 2.140 . S
C601 O602 1.227 . S
C601 O611 1.265 . S
O602 C601 1.227 . S
N603 Co600 2.121 . S
N603 C605 1.375 . S
N603 C606 1.313 . S
C604 C605 1.338 . S
C604 N607 1.377 . S
C604 H624 0.930 . S
C605 N603 1.375 . S
C605 C604 1.338 . S
C605 H609 0.931 . S
C606 N603 1.313 . S
C606 N607 1.344 . S
C606 H610 0.930 . S
N607 C604 1.377 . S
N607 C606 1.344 . S
O608 Co600 2.055 . S
O608 C612 1.253 . S
H609 C605 0.931 . S
H610 C606 0.930 . S
O611 Co600 2.039 . S
O611 C601 1.265 . S
C612 O608 1.253 . S
C612 O613 1.227 . S
O613 C612 1.227 . S
N614 Co600 2.140 . S
N614 C617 1.346 . S
N614 C618 1.345 . S
C615 C616 1.387 . S
C615 C619 1.391 . S
C616 C615 1.387 . S
C616 C617 1.369 . S
C616 H625 0.929 . S
C617 N614 1.346 . S
C617 C616 1.369 . S
C617 H620 0.928 . S
C618 N614 1.345 . S
C618 C619 1.371 . S
C618 H621 0.931 . S
C619 C615 1.391 . S
C619 C618 1.371 . S
C619 H626 0.930 . S
H620 C617 0.928 . S
H621 C618 0.931 . S
H622 C598 0.930 . S
H623 C595 0.930 . S
H624 C604 0.930 . S
H625 C616 0.929 . S
H626 C619 0.930 . S
C627 C628 1.351 . S
C627 N630 1.368 . S
C627 H632 0.931 . S
C628 C627 1.351 . S
C628 N629 1.373 . S
C628 H656 0.930 . S
N629 C628 1.373 . S
N629 C631 1.340 . S
N630 C627 1.368 . S
N630 C631 1.321 . S
N630 Co633 2.135 . S
C631 N629 1.340 . S
C631 N630 1.321 . S
C631 H655 0.930 . S
H632 C627 0.931 . S
Co633 N630 2.135 . S
Co633 N636 2.121 . S
Co633 O641 2.055 . S
Co633 O644 2.039 . S
Co633 N647 2.140 . S
C634 O635 1.227 . S
C634 O644 1.265 . S
O635 C634 1.227 . S
N636 Co633 2.121 . S
N636 C638 1.375 . S
N636 C639 1.313 . S
C637 C638 1.338 . S
C637 N640 1.377 . S
C637 H657 0.930 . S
C638 N636 1.375 . S
C638 C637 1.338 . S
C638 H642 0.931 . S
C639 N636 1.313 . S
C639 N640 1.344 . S
C639 H643 0.930 . S
N640 C637 1.377 . S
N640 C639 1.344 . S
O641 Co633 2.055 . S
O641 C645 1.253 . S
H642 C638 0.931 . S
H643 C639 0.930 . S
O644 Co633 2.039 . S
O644 C634 1.265 . S
C645 O641 1.253 . S
C645 O646 1.227 . S
O646 C645 1.227 . S
N647 Co633 2.140 . S
N647 C650 1.346 . S
N647 C651 1.345 . S
C648 C649 1.387 . S
C648 C652 1.391 . S
C649 C648 1.387 . S
C649 C650 1.369 . S
C649 H658 0.929 . S
C650 N647 1.346 . S
C650 C649 1.369 . S
C650 H653 0.928 . S
C651 N647 1.345 . S
C651 C652 1.371 . S
C651 H654 0.931 . S
C652 C648 1.391 . S
C652 C651 1.371 . S
C652 H659 0.930 . S
H653 C650 0.928 . S
H654 C651 0.931 . S
H655 C631 0.930 . S
H656 C628 0.930 . S
H657 C637 0.930 . S
H658 C649 0.929 . S
H659 C652 0.930 . S
C660 C661 1.351 . S
C660 N663 1.368 . S
C660 H665 0.931 . S
C661 C660 1.351 . S
C661 N662 1.373 . S
C661 H689 0.930 . S
N662 C661 1.373 . S
N662 C664 1.340 . S
N663 C660 1.368 . S
N663 C664 1.321 . S
N663 Co666 2.135 . S
C664 N662 1.340 . S
C664 N663 1.321 . S
C664 H688 0.930 . S
H665 C660 0.931 . S
Co666 N663 2.135 . S
Co666 N669 2.121 . S
Co666 O674 2.055 . S
Co666 O677 2.039 . S
Co666 N680 2.140 . S
C667 O668 1.227 . S
C667 O677 1.265 . S
O668 C667 1.227 . S
N669 Co666 2.121 . S
N669 C671 1.375 . S
N669 C672 1.313 . S
C670 C671 1.338 . S
C670 N673 1.377 . S
C670 H690 0.930 . S
C671 N669 1.375 . S
C671 C670 1.338 . S
C671 H675 0.931 . S
C672 N669 1.313 . S
C672 N673 1.344 . S
C672 H676 0.930 . S
N673 C670 1.377 . S
N673 C672 1.344 . S
O674 Co666 2.055 . S
O674 C678 1.253 . S
H675 C671 0.931 . S
H676 C672 0.930 . S
O677 Co666 2.039 . S
O677 C667 1.265 . S
C678 O674 1.253 . S
C678 O679 1.227 . S
O679 C678 1.227 . S
N680 Co666 2.140 . S
N680 C683 1.346 . S
N680 C684 1.345 . S
C681 C682 1.387 . S
C681 C685 1.391 . S
C682 C681 1.387 . S
C682 C683 1.369 . S
C682 H691 0.929 . S
C683 N680 1.346 . S
C683 C682 1.369 . S
C683 H686 0.928 . S
C684 N680 1.345 . S
C684 C685 1.371 . S
C684 H687 0.931 . S
C685 C681 1.391 . S
C685 C684 1.371 . S
C685 H692 0.930 . S
H686 C683 0.928 . S
H687 C684 0.931 . S
H688 C664 0.930 . S
H689 C661 0.930 . S
H690 C670 0.930 . S
H691 C682 0.929 . S
H692 C685 0.930 . S
C693 C694 1.351 . S
C693 N696 1.368 . S
C693 H698 0.931 . S
C694 C693 1.351 . S
C694 N695 1.373 . S
C694 H722 0.930 1_556 S
N695 C694 1.373 . S
N695 C697 1.340 . S
N696 C693 1.368 . S
N696 C697 1.321 . S
N696 Co699 2.135 . S
C697 N695 1.340 . S
C697 N696 1.321 . S
C697 H721 0.930 . S
H698 C693 0.931 . S
Co699 N696 2.135 . S
Co699 N702 2.121 . S
Co699 O707 2.055 . S
Co699 O710 2.039 . S
Co699 N713 2.140 . S
C700 O701 1.227 . S
C700 O710 1.265 . S
O701 C700 1.227 . S
N702 Co699 2.121 . S
N702 C704 1.375 . S
N702 C705 1.313 . S
C703 C704 1.338 . S
C703 N706 1.377 . S
C703 H723 0.930 . S
C704 N702 1.375 . S
C704 C703 1.338 . S
C704 H708 0.931 . S
C705 N702 1.313 . S
C705 N706 1.344 . S
C705 H709 0.930 . S
N706 C703 1.377 . S
N706 C705 1.344 . S
O707 Co699 2.055 . S
O707 C711 1.253 . S
H708 C704 0.931 . S
H709 C705 0.930 . S
O710 Co699 2.039 . S
O710 C700 1.265 . S
C711 O707 1.253 . S
C711 O712 1.227 . S
O712 C711 1.227 . S
N713 Co699 2.140 . S
N713 C716 1.346 . S
N713 C717 1.345 . S
C714 C715 1.387 . S
C714 C718 1.391 . S
C715 C714 1.387 . S
C715 C716 1.369 . S
C715 H724 0.929 . S
C716 N713 1.346 . S
C716 C715 1.369 . S
C716 H719 0.928 . S
C717 N713 1.345 . S
C717 C718 1.371 . S
C717 H720 0.931 . S
C718 C714 1.391 . S
C718 C717 1.371 . S
C718 H725 0.930 . S
H719 C716 0.928 . S
H720 C717 0.931 . S
H721 C697 0.930 . S
H722 C694 0.930 1_554 S
H723 C703 0.930 . S
H724 C715 0.929 . S
H725 C718 0.930 . S
C726 C727 1.351 . S
C726 N729 1.368 . S
C726 H731 0.931 . S
C727 C726 1.351 . S
C727 N728 1.373 . S
C727 H755 0.930 . S
N728 C727 1.373 . S
N728 C730 1.340 . S
N729 C726 1.368 . S
N729 C730 1.321 . S
N729 Co732 2.135 . S
C730 N728 1.340 . S
C730 N729 1.321 . S
C730 H754 0.930 . S
H731 C726 0.931 . S
Co732 N729 2.135 . S
Co732 N735 2.121 . S
Co732 O740 2.055 . S
Co732 O743 2.039 . S
Co732 N746 2.140 . S
C733 O734 1.227 . S
C733 O743 1.265 . S
O734 C733 1.227 . S
N735 Co732 2.121 . S
N735 C737 1.375 . S
N735 C738 1.313 . S
C736 C737 1.338 . S
C736 N739 1.377 . S
C736 H756 0.930 . S
C737 N735 1.375 . S
C737 C736 1.338 . S
C737 H741 0.931 . S
C738 N735 1.313 . S
C738 N739 1.344 . S
C738 H742 0.930 . S
N739 C736 1.377 . S
N739 C738 1.344 . S
O740 Co732 2.055 . S
O740 C744 1.253 . S
H741 C737 0.931 . S
H742 C738 0.930 . S
O743 Co732 2.039 . S
O743 C733 1.265 . S
C744 O740 1.253 . S
C744 O745 1.227 . S
O745 C744 1.227 . S
N746 Co732 2.140 . S
N746 C749 1.346 . S
N746 C750 1.345 . S
C747 C748 1.387 . S
C747 C751 1.391 . S
C748 C747 1.387 . S
C748 C749 1.369 . S
C748 H757 0.929 . S
C749 N746 1.346 . S
C749 C748 1.369 . S
C749 H752 0.928 . S
C750 N746 1.345 . S
C750 C751 1.371 . S
C750 H753 0.931 . S
C751 C747 1.391 . S
C751 C750 1.371 . S
C751 H758 0.930 . S
H752 C749 0.928 . S
H753 C750 0.931 . S
H754 C730 0.930 . S
H755 C727 0.930 . S
H756 C736 0.930 . S
H757 C748 0.929 . S
H758 C751 0.930 . S
C759 C760 1.351 . S
C759 N762 1.368 . S
C759 H764 0.931 . S
C760 C759 1.351 . S
C760 N761 1.373 . S
C760 H788 0.930 . S
N761 C760 1.373 . S
N761 C763 1.340 . S
N762 C759 1.368 . S
N762 C763 1.321 . S
N762 Co765 2.135 . S
C763 N761 1.340 . S
C763 N762 1.321 . S
C763 H787 0.930 . S
H764 C759 0.931 . S
Co765 N762 2.135 . S
Co765 N768 2.121 . S
Co765 O773 2.055 . S
Co765 O776 2.039 . S
Co765 N779 2.140 . S
C766 O767 1.227 . S
C766 O776 1.265 . S
O767 C766 1.227 . S
N768 Co765 2.121 . S
N768 C770 1.375 . S
N768 C771 1.313 . S
C769 C770 1.338 . S
C769 N772 1.377 . S
C769 H789 0.930 . S
C770 N768 1.375 . S
C770 C769 1.338 . S
C770 H774 0.931 . S
C771 N768 1.313 . S
C771 N772 1.344 . S
C771 H775 0.930 . S
N772 C769 1.377 . S
N772 C771 1.344 . S
O773 Co765 2.055 . S
O773 C777 1.253 . S
H774 C770 0.931 . S
H775 C771 0.930 . S
O776 Co765 2.039 . S
O776 C766 1.265 . S
C777 O773 1.253 . S
C777 O778 1.227 . S
O778 C777 1.227 . S
N779 Co765 2.140 . S
N779 C782 1.346 . S
N779 C783 1.345 . S
C780 C781 1.387 . S
C780 C784 1.391 . S
C781 C780 1.387 . S
C781 C782 1.369 . S
C781 H790 0.929 . S
C782 N779 1.346 . S
C782 C781 1.369 . S
C782 H785 0.928 . S
C783 N779 1.345 . S
C783 C784 1.371 . S
C783 H786 0.931 . S
C784 C780 1.391 . S
C784 C783 1.371 . S
C784 H791 0.930 . S
H785 C782 0.928 . S
H786 C783 0.931 . S
H787 C763 0.930 . S
H788 C760 0.930 . S
H789 C769 0.930 . S
H790 C781 0.929 . S
H791 C784 0.930 . S
C792 C793 1.351 . S
C792 N795 1.368 . S
C792 H797 0.931 . S
C793 C792 1.351 . S
C793 N794 1.373 . S
C793 H821 0.930 . S
N794 C793 1.373 . S
N794 C796 1.340 . S
N795 C792 1.368 . S
N795 C796 1.321 . S
N795 Co798 2.135 . S
C796 N794 1.340 . S
C796 N795 1.321 . S
C796 H820 0.930 . S
H797 C792 0.931 . S
Co798 N795 2.135 . S
Co798 N801 2.121 . S
Co798 O806 2.055 . S
Co798 O809 2.039 . S
Co798 N812 2.140 . S
C799 O800 1.227 . S
C799 O809 1.265 . S
O800 C799 1.227 . S
N801 Co798 2.121 . S
N801 C803 1.375 . S
N801 C804 1.313 . S
C802 C803 1.338 . S
C802 N805 1.377 . S
C802 H822 0.930 . S
C803 N801 1.375 . S
C803 C802 1.338 . S
C803 H807 0.931 . S
C804 N801 1.313 . S
C804 N805 1.344 . S
C804 H808 0.930 . S
N805 C802 1.377 . S
N805 C804 1.344 . S
O806 Co798 2.055 . S
O806 C810 1.253 . S
H807 C803 0.931 . S
H808 C804 0.930 . S
O809 Co798 2.039 . S
O809 C799 1.265 . S
C810 O806 1.253 . S
C810 O811 1.227 . S
O811 C810 1.227 . S
N812 Co798 2.140 . S
N812 C815 1.346 . S
N812 C816 1.345 . S
C813 C814 1.387 . S
C813 C817 1.391 . S
C814 C813 1.387 . S
C814 C815 1.369 . S
C814 H823 0.929 . S
C815 N812 1.346 . S
C815 C814 1.369 . S
C815 H818 0.928 . S
C816 N812 1.345 . S
C816 C817 1.371 . S
C816 H819 0.931 . S
C817 C813 1.391 . S
C817 C816 1.371 . S
C817 H824 0.930 . S
H818 C815 0.928 . S
H819 C816 0.931 . S
H820 C796 0.930 . S
H821 C793 0.930 . S
H822 C802 0.930 . S
H823 C814 0.929 . S
H824 C817 0.930 . S
C825 C826 1.351 . S
C825 N828 1.368 . S
C825 H830 0.931 . S
C826 C825 1.351 . S
C826 N827 1.373 . S
C826 H854 0.930 1_556 S
N827 C826 1.373 . S
N827 C829 1.340 . S
N828 C825 1.368 . S
N828 C829 1.321 . S
N828 Co831 2.135 . S
C829 N827 1.340 . S
C829 N828 1.321 . S
C829 H853 0.930 . S
H830 C825 0.931 . S
Co831 N828 2.135 . S
Co831 N834 2.121 . S
Co831 O839 2.055 . S
Co831 O842 2.039 . S
Co831 N845 2.140 . S
C832 O833 1.227 . S
C832 O842 1.265 . S
O833 C832 1.227 . S
N834 Co831 2.121 . S
N834 C836 1.375 . S
N834 C837 1.313 . S
C835 C836 1.338 . S
C835 N838 1.377 . S
C835 H855 0.930 . S
C836 N834 1.375 . S
C836 C835 1.338 . S
C836 H840 0.931 . S
C837 N834 1.313 . S
C837 N838 1.344 . S
C837 H841 0.930 . S
N838 C835 1.377 . S
N838 C837 1.344 . S
O839 Co831 2.055 . S
O839 C843 1.253 . S
H840 C836 0.931 . S
H841 C837 0.930 . S
O842 Co831 2.039 . S
O842 C832 1.265 . S
C843 O839 1.253 . S
C843 O844 1.227 . S
O844 C843 1.227 . S
N845 Co831 2.140 . S
N845 C848 1.346 . S
N845 C849 1.345 . S
C846 C847 1.387 . S
C846 C850 1.391 . S
C847 C846 1.387 . S
C847 C848 1.369 . S
C847 H856 0.929 . S
C848 N845 1.346 . S
C848 C847 1.369 . S
C848 H851 0.928 . S
C849 N845 1.345 . S
C849 C850 1.371 . S
C849 H852 0.931 . S
C850 C846 1.391 . S
C850 C849 1.371 . S
C850 H857 0.930 . S
H851 C848 0.928 . S
H852 C849 0.931 . S
H853 C829 0.930 . S
H854 C826 0.930 1_554 S
H855 C835 0.930 . S
H856 C847 0.929 . S
H857 C850 0.930 . S
C858 C859 1.351 . S
C858 N861 1.368 . S
C858 H863 0.931 . S
C859 C858 1.351 . S
C859 N860 1.373 . S
C859 H887 0.930 . S
N860 C859 1.373 . S
N860 C862 1.340 . S
N861 C858 1.368 . S
N861 C862 1.321 . S
N861 Co864 2.135 . S
C862 N860 1.340 . S
C862 N861 1.321 . S
C862 H886 0.930 . S
H863 C858 0.931 . S
Co864 N861 2.135 . S
Co864 N867 2.121 . S
Co864 O872 2.055 . S
Co864 O875 2.039 . S
Co864 N878 2.140 . S
C865 O866 1.227 . S
C865 O875 1.265 . S
O866 C865 1.227 . S
N867 Co864 2.121 . S
N867 C869 1.375 . S
N867 C870 1.313 . S
C868 C869 1.338 . S
C868 N871 1.377 . S
C868 H888 0.930 . S
C869 N867 1.375 . S
C869 C868 1.338 . S
C869 H873 0.931 . S
C870 N867 1.313 . S
C870 N871 1.344 . S
C870 H874 0.930 . S
N871 C868 1.377 . S
N871 C870 1.344 . S
O872 Co864 2.055 . S
O872 C876 1.253 . S
H873 C869 0.931 . S
H874 C870 0.930 . S
O875 Co864 2.039 . S
O875 C865 1.265 . S
C876 O872 1.253 . S
C876 O877 1.227 . S
O877 C876 1.227 . S
N878 Co864 2.140 . S
N878 C881 1.346 . S
N878 C882 1.345 . S
C879 C880 1.387 . S
C879 C883 1.391 . S
C880 C879 1.387 . S
C880 C881 1.369 . S
C880 H889 0.929 . S
C881 N878 1.346 . S
C881 C880 1.369 . S
C881 H884 0.928 . S
C882 N878 1.345 . S
C882 C883 1.371 . S
C882 H885 0.931 . S
C883 C879 1.391 . S
C883 C882 1.371 . S
C883 H890 0.930 . S
H884 C881 0.928 . S
H885 C882 0.931 . S
H886 C862 0.930 . S
H887 C859 0.930 . S
H888 C868 0.930 . S
H889 C880 0.929 . S
H890 C883 0.930 . S
C891 C892 1.351 . S
C891 N894 1.368 . S
C891 H896 0.931 . S
C892 C891 1.351 . S
C892 N893 1.373 . S
C892 H920 0.930 . S
N893 C892 1.373 . S
N893 C895 1.340 . S
N894 C891 1.368 . S
N894 C895 1.321 . S
N894 Co897 2.135 . S
C895 N893 1.340 . S
C895 N894 1.321 . S
C895 H919 0.930 . S
H896 C891 0.931 . S
Co897 N894 2.135 . S
Co897 N900 2.121 . S
Co897 O905 2.055 . S
Co897 O908 2.039 . S
Co897 N911 2.140 . S
C898 O899 1.227 . S
C898 O908 1.265 . S
O899 C898 1.227 . S
N900 Co897 2.121 . S
N900 C902 1.375 . S
N900 C903 1.313 . S
C901 C902 1.338 . S
C901 N904 1.377 . S
C901 H921 0.930 . S
C902 N900 1.375 . S
C902 C901 1.338 . S
C902 H906 0.931 . S
C903 N900 1.313 . S
C903 N904 1.344 . S
C903 H907 0.930 . S
N904 C901 1.377 . S
N904 C903 1.344 . S
O905 Co897 2.055 . S
O905 C909 1.253 . S
H906 C902 0.931 . S
H907 C903 0.930 . S
O908 Co897 2.039 . S
O908 C898 1.265 . S
C909 O905 1.253 . S
C909 O910 1.227 . S
O910 C909 1.227 . S
N911 Co897 2.140 . S
N911 C914 1.346 . S
N911 C915 1.345 . S
C912 C913 1.387 . S
C912 C916 1.391 . S
C913 C912 1.387 . S
C913 C914 1.369 . S
C913 H922 0.929 . S
C914 N911 1.346 . S
C914 C913 1.369 . S
C914 H917 0.928 . S
C915 N911 1.345 . S
C915 C916 1.371 . S
C915 H918 0.931 . S
C916 C912 1.391 . S
C916 C915 1.371 . S
C916 H923 0.930 . S
H917 C914 0.928 . S
H918 C915 0.931 . S
H919 C895 0.930 . S
H920 C892 0.930 . S
H921 C901 0.930 . S
H922 C913 0.929 . S
H923 C916 0.930 . S
C924 C925 1.351 . S
C924 N927 1.368 . S
C924 H929 0.931 . S
C925 C924 1.351 . S
C925 N926 1.373 . S
C925 H953 0.930 . S
N926 C925 1.373 . S
N926 C928 1.340 . S
N927 C924 1.368 . S
N927 C928 1.321 . S
N927 Co930 2.135 . S
C928 N926 1.340 . S
C928 N927 1.321 . S
C928 H952 0.930 . S
H929 C924 0.931 . S
Co930 N927 2.135 . S
Co930 N933 2.121 . S
Co930 O938 2.055 . S
Co930 O941 2.039 . S
Co930 N944 2.140 . S
C931 O932 1.227 . S
C931 O941 1.265 . S
O932 C931 1.227 . S
N933 Co930 2.121 . S
N933 C935 1.375 . S
N933 C936 1.313 . S
C934 C935 1.338 . S
C934 N937 1.377 . S
C934 H954 0.930 . S
C935 N933 1.375 . S
C935 C934 1.338 . S
C935 H939 0.931 . S
C936 N933 1.313 . S
C936 N937 1.344 . S
C936 H940 0.930 . S
N937 C934 1.377 . S
N937 C936 1.344 . S
O938 Co930 2.055 . S
O938 C942 1.253 . S
H939 C935 0.931 . S
H940 C936 0.930 . S
O941 Co930 2.039 . S
O941 C931 1.265 . S
C942 O938 1.253 . S
C942 O943 1.227 . S
O943 C942 1.227 . S
N944 Co930 2.140 . S
N944 C947 1.346 . S
N944 C948 1.345 . S
C945 C946 1.387 . S
C945 C949 1.391 . S
C946 C945 1.387 . S
C946 C947 1.369 . S
C946 H955 0.929 . S
C947 N944 1.346 . S
C947 C946 1.369 . S
C947 H950 0.928 . S
C948 N944 1.345 . S
C948 C949 1.371 . S
C948 H951 0.931 . S
C949 C945 1.391 . S
C949 C948 1.371 . S
C949 H956 0.930 . S
H950 C947 0.928 . S
H951 C948 0.931 . S
H952 C928 0.930 . S
H953 C925 0.930 . S
H954 C934 0.930 . S
H955 C946 0.929 . S
H956 C949 0.930 . S
C957 C958 1.351 . S
C957 N960 1.368 . S
C957 H962 0.931 . S
C958 C957 1.351 . S
C958 N959 1.373 . S
C958 H986 0.930 1_554 S
N959 C958 1.373 . S
N959 C961 1.340 . S
N960 C957 1.368 . S
N960 C961 1.321 . S
N960 Co963 2.135 . S
C961 N959 1.340 . S
C961 N960 1.321 . S
C961 H985 0.930 . S
H962 C957 0.931 . S
Co963 N960 2.135 . S
Co963 N966 2.121 . S
Co963 O971 2.055 . S
Co963 O974 2.039 . S
Co963 N977 2.140 . S
C964 O965 1.227 . S
C964 O974 1.265 . S
O965 C964 1.227 . S
N966 Co963 2.121 . S
N966 C968 1.375 . S
N966 C969 1.313 . S
C967 C968 1.338 . S
C967 N970 1.377 . S
C967 H987 0.930 . S
C968 N966 1.375 . S
C968 C967 1.338 . S
C968 H972 0.931 . S
C969 N966 1.313 . S
C969 N970 1.344 . S
C969 H973 0.930 . S
N970 C967 1.377 . S
N970 C969 1.344 . S
O971 Co963 2.055 . S
O971 C975 1.253 . S
H972 C968 0.931 . S
H973 C969 0.930 . S
O974 Co963 2.039 . S
O974 C964 1.265 . S
C975 O971 1.253 . S
C975 O976 1.227 . S
O976 C975 1.227 . S
N977 Co963 2.140 . S
N977 C980 1.346 . S
N977 C981 1.345 . S
C978 C979 1.387 . S
C978 C982 1.391 . S
C979 C978 1.387 . S
C979 C980 1.369 . S
C979 H988 0.929 . S
C980 N977 1.346 . S
C980 C979 1.369 . S
C980 H983 0.928 . S
C981 N977 1.345 . S
C981 C982 1.371 . S
C981 H984 0.931 . S
C982 C978 1.391 . S
C982 C981 1.371 . S
C982 H989 0.930 . S
H983 C980 0.928 . S
H984 C981 0.931 . S
H985 C961 0.930 . S
H986 C958 0.930 1_556 S
H987 C967 0.930 . S
H988 C979 0.929 . S
H989 C982 0.930 . S
C990 C991 1.351 . S
C990 N993 1.368 . S
C990 H995 0.931 . S
C991 C990 1.351 . S
C991 N992 1.373 . S
C991 H1019 0.930 . S
N992 C991 1.373 . S
N992 C994 1.340 . S
N993 C990 1.368 . S
N993 C994 1.321 . S
N993 Co996 2.135 . S
C994 N992 1.340 . S
C994 N993 1.321 . S
C994 H1018 0.930 . S
H995 C990 0.931 . S
Co996 N993 2.135 . S
Co996 N999 2.121 . S
Co996 O1004 2.055 . S
Co996 O1007 2.039 . S
Co996 N1010 2.140 . S
C997 O998 1.227 . S
C997 O1007 1.265 . S
O998 C997 1.227 . S
N999 Co996 2.121 . S
N999 C1001 1.375 . S
N999 C1002 1.313 . S
C1000 C1001 1.338 . S
C1000 N1003 1.377 . S
C1000 H1020 0.930 . S
C1001 N999 1.375 . S
C1001 C1000 1.338 . S
C1001 H1005 0.931 . S
C1002 N999 1.313 . S
C1002 N1003 1.344 . S
C1002 H1006 0.930 . S
N1003 C1000 1.377 . S
N1003 C1002 1.344 . S
O1004 Co996 2.055 . S
O1004 C1008 1.253 . S
H1005 C1001 0.931 . S
H1006 C1002 0.930 . S
O1007 Co996 2.039 . S
O1007 C997 1.265 . S
C1008 O1004 1.253 . S
C1008 O1009 1.227 . S
O1009 C1008 1.227 . S
N1010 Co996 2.140 . S
N1010 C1013 1.346 . S
N1010 C1014 1.345 . S
C1011 C1012 1.387 . S
C1011 C1015 1.391 . S
C1012 C1011 1.387 . S
C1012 C1013 1.369 . S
C1012 H1021 0.929 . S
C1013 N1010 1.346 . S
C1013 C1012 1.369 . S
C1013 H1016 0.928 . S
C1014 N1010 1.345 . S
C1014 C1015 1.371 . S
C1014 H1017 0.931 . S
C1015 C1011 1.391 . S
C1015 C1014 1.371 . S
C1015 H1022 0.930 . S
H1016 C1013 0.928 . S
H1017 C1014 0.931 . S
H1018 C994 0.930 . S
H1019 C991 0.930 . S
H1020 C1000 0.930 . S
H1021 C1012 0.929 . S
H1022 C1015 0.930 . S
C1023 C1024 1.351 . S
C1023 N1026 1.368 . S
C1023 H1028 0.931 . S
C1024 C1023 1.351 . S
C1024 N1025 1.373 . S
C1024 H1052 0.930 . S
N1025 C1024 1.373 . S
N1025 C1027 1.340 . S
N1026 C1023 1.368 . S
N1026 C1027 1.321 . S
N1026 Co1029 2.135 . S
C1027 N1025 1.340 . S
C1027 N1026 1.321 . S
C1027 H1051 0.930 . S
H1028 C1023 0.931 . S
Co1029 N1026 2.135 . S
Co1029 N1032 2.121 . S
Co1029 O1037 2.055 . S
Co1029 O1040 2.039 . S
Co1029 N1043 2.140 . S
C1030 O1031 1.227 . S
C1030 O1040 1.265 . S
O1031 C1030 1.227 . S
N1032 Co1029 2.121 . S
N1032 C1034 1.375 . S
N1032 C1035 1.313 . S
C1033 C1034 1.338 . S
C1033 N1036 1.377 . S
C1033 H1053 0.930 . S
C1034 N1032 1.375 . S
C1034 C1033 1.338 . S
C1034 H1038 0.931 . S
C1035 N1032 1.313 . S
C1035 N1036 1.344 . S
C1035 H1039 0.930 . S
N1036 C1033 1.377 . S
N1036 C1035 1.344 . S
O1037 Co1029 2.055 . S
O1037 C1041 1.253 . S
H1038 C1034 0.931 . S
H1039 C1035 0.930 . S
O1040 Co1029 2.039 . S
O1040 C1030 1.265 . S
C1041 O1037 1.253 . S
C1041 O1042 1.227 . S
O1042 C1041 1.227 . S
N1043 Co1029 2.140 . S
N1043 C1046 1.346 . S
N1043 C1047 1.345 . S
C1044 C1045 1.387 . S
C1044 C1048 1.391 . S
C1045 C1044 1.387 . S
C1045 C1046 1.369 . S
C1045 H1054 0.929 . S
C1046 N1043 1.346 . S
C1046 C1045 1.369 . S
C1046 H1049 0.928 . S
C1047 N1043 1.345 . S
C1047 C1048 1.371 . S
C1047 H1050 0.931 . S
C1048 C1044 1.391 . S
C1048 C1047 1.371 . S
C1048 H1055 0.930 . S
H1049 C1046 0.928 . S
H1050 C1047 0.931 . S
H1051 C1027 0.930 . S
H1052 C1024 0.930 . S
H1053 C1033 0.930 . S
H1054 C1045 0.929 . S
H1055 C1048 0.930 . S
C1056 C1057 1.349 . S
C1056 C1058 1.327 . S
C1056 H1081 0.950 . S
C1057 C1056 1.349 . S
C1057 C1073 1.349 . S
C1058 C1056 1.327 . S
C1058 C1077 1.429 . S
C1058 H1082 0.950 . S
C1059 C1076 1.574 . S
C1059 C1078 1.368 . S
C1059 H1083 0.949 . S
H1060 C1064 0.949 . S
C1061 C1062 1.349 . S
C1061 C1063 1.327 . S
C1061 H1084 0.950 . S
C1062 C1061 1.349 . S
C1062 C1074 1.349 . S
C1063 C1061 1.327 . S
C1063 C1079 1.429 . S
C1063 H1085 0.950 . S
C1064 H1060 0.949 . S
C1064 C1072 1.574 . S
C1064 C1080 1.368 . S
H1065 C1073 0.950 . S
H1066 C1071 0.950 . S
H1067 C1072 0.949 . S
H1068 C1074 0.950 . S
H1069 C1075 0.950 . S
H1070 C1076 0.949 . S
C1071 H1066 0.950 . S
C1071 C1073 1.327 . S
C1071 C1077 1.429 . S
C1072 C1064 1.574 . S
C1072 H1067 0.949 . S
C1072 C1078 1.368 . S
C1073 C1057 1.349 . S
C1073 H1065 0.950 . S
C1073 C1071 1.327 . S
C1074 C1062 1.349 . S
C1074 H1068 0.950 . S
C1074 C1075 1.327 . S
C1075 H1069 0.950 . S
C1075 C1074 1.327 . S
C1075 C1079 1.429 . S
C1076 C1059 1.574 . S
C1076 H1070 0.949 . S
C1076 C1080 1.368 . S
C1077 C1058 1.429 . S
C1077 C1071 1.429 . S
C1077 C1078 1.523 . S
C1078 C1059 1.368 . S
C1078 C1072 1.368 . S
C1078 C1077 1.523 . S
C1079 C1063 1.429 . S
C1079 C1075 1.429 . S
C1079 C1080 1.523 . S
C1080 C1064 1.368 . S
C1080 C1076 1.368 . S
C1080 C1079 1.523 . S
H1081 C1056 0.950 . S
H1082 C1058 0.950 . S
H1083 C1059 0.949 . S
H1084 C1061 0.950 . S
H1085 C1063 0.950 . S
C1086 C1087 1.349 . S
C1086 C1088 1.327 . S
C1086 H1111 0.950 . S
C1087 C1086 1.349 . S
C1087 C1103 1.349 . S
C1088 C1086 1.327 . S
C1088 C1107 1.429 . S
C1088 H1112 0.950 . S
C1089 C1106 1.574 . S
C1089 C1108 1.368 . S
C1089 H1113 0.949 . S
H1090 C1094 0.949 . S
C1091 C1092 1.349 . S
C1091 C1093 1.327 . S
C1091 H1114 0.950 . S
C1092 C1091 1.349 . S
C1092 C1104 1.349 . S
C1093 C1091 1.327 . S
C1093 C1109 1.429 . S
C1093 H1115 0.950 . S
C1094 H1090 0.949 . S
C1094 C1102 1.574 . S
C1094 C1110 1.368 . S
H1095 C1103 0.950 . S
H1096 C1101 0.950 . S
H1097 C1102 0.949 . S
H1098 C1104 0.950 . S
H1099 C1105 0.950 . S
H1100 C1106 0.949 . S
C1101 H1096 0.950 . S
C1101 C1103 1.327 . S
C1101 C1107 1.429 . S
C1102 C1094 1.574 . S
C1102 H1097 0.949 . S
C1102 C1108 1.368 . S
C1103 C1087 1.349 . S
C1103 H1095 0.950 . S
C1103 C1101 1.327 . S
C1104 C1092 1.349 . S
C1104 H1098 0.950 . S
C1104 C1105 1.327 . S
C1105 H1099 0.950 . S
C1105 C1104 1.327 . S
C1105 C1109 1.429 . S
C1106 C1089 1.574 . S
C1106 H1100 0.949 . S
C1106 C1110 1.368 . S
C1107 C1088 1.429 . S
C1107 C1101 1.429 . S
C1107 C1108 1.523 . S
C1108 C1089 1.368 . S
C1108 C1102 1.368 . S
C1108 C1107 1.523 . S
C1109 C1093 1.429 . S
C1109 C1105 1.429 . S
C1109 C1110 1.523 . S
C1110 C1094 1.368 . S
C1110 C1106 1.368 . S
C1110 C1109 1.523 . S
H1111 C1086 0.950 . S
H1112 C1088 0.950 . S
H1113 C1089 0.949 . S
H1114 C1091 0.950 . S
H1115 C1093 0.950 . S
C1116 C1117 1.349 . S
C1116 C1118 1.327 . S
C1116 H1141 0.950 . S
C1117 C1116 1.349 . S
C1117 C1133 1.349 . S
C1118 C1116 1.327 . S
C1118 C1137 1.429 . S
C1118 H1142 0.950 . S
C1119 C1136 1.574 . S
C1119 C1138 1.368 . S
C1119 H1143 0.949 . S
H1120 C1124 0.949 . S
C1121 C1122 1.349 . S
C1121 C1123 1.327 . S
C1121 H1144 0.950 . S
C1122 C1121 1.349 . S
C1122 C1134 1.349 . S
C1123 C1121 1.327 . S
C1123 C1139 1.429 . S
C1123 H1145 0.950 . S
C1124 H1120 0.949 . S
C1124 C1132 1.574 . S
C1124 C1140 1.368 . S
H1125 C1133 0.950 . S
H1126 C1131 0.950 . S
H1127 C1132 0.949 . S
H1128 C1134 0.950 . S
H1129 C1135 0.950 . S
H1130 C1136 0.949 . S
C1131 H1126 0.950 . S
C1131 C1133 1.327 . S
C1131 C1137 1.429 . S
C1132 C1124 1.574 . S
C1132 H1127 0.949 . S
C1132 C1138 1.368 . S
C1133 C1117 1.349 . S
C1133 H1125 0.950 . S
C1133 C1131 1.327 . S
C1134 C1122 1.349 . S
C1134 H1128 0.950 . S
C1134 C1135 1.327 . S
C1135 H1129 0.950 . S
C1135 C1134 1.327 . S
C1135 C1139 1.429 . S
C1136 C1119 1.574 . S
C1136 H1130 0.949 . S
C1136 C1140 1.368 . S
C1137 C1118 1.429 . S
C1137 C1131 1.429 . S
C1137 C1138 1.523 . S
C1138 C1119 1.368 . S
C1138 C1132 1.368 . S
C1138 C1137 1.523 . S
C1139 C1123 1.429 . S
C1139 C1135 1.429 . S
C1139 C1140 1.523 . S
C1140 C1124 1.368 . S
C1140 C1136 1.368 . S
C1140 C1139 1.523 . S
H1141 C1116 0.950 . S
H1142 C1118 0.950 . S
H1143 C1119 0.949 . S
H1144 C1121 0.950 . S
H1145 C1123 0.950 . S
C1146 C1147 1.349 . S
C1146 C1148 1.327 . S
C1146 H1171 0.950 . S
C1147 C1146 1.349 . S
C1147 C1163 1.349 . S
C1148 C1146 1.327 . S
C1148 C1167 1.429 . S
C1148 H1172 0.950 . S
C1149 C1166 1.574 . S
C1149 C1168 1.368 . S
C1149 H1173 0.949 . S
H1150 C1154 0.949 . S
C1151 C1152 1.349 . S
C1151 C1153 1.327 . S
C1151 H1174 0.950 . S
C1152 C1151 1.349 . S
C1152 C1164 1.349 . S
C1153 C1151 1.327 . S
C1153 C1169 1.429 . S
C1153 H1175 0.950 . S
C1154 H1150 0.949 . S
C1154 C1162 1.574 . S
C1154 C1170 1.368 . S
H1155 C1163 0.950 . S
H1156 C1161 0.950 . S
H1157 C1162 0.949 . S
H1158 C1164 0.950 . S
H1159 C1165 0.950 . S
H1160 C1166 0.949 . S
C1161 H1156 0.950 . S
C1161 C1163 1.327 . S
C1161 C1167 1.429 . S
C1162 C1154 1.574 . S
C1162 H1157 0.949 . S
C1162 C1168 1.368 . S
C1163 C1147 1.349 . S
C1163 H1155 0.950 . S
C1163 C1161 1.327 . S
C1164 C1152 1.349 . S
C1164 H1158 0.950 . S
C1164 C1165 1.327 . S
C1165 H1159 0.950 . S
C1165 C1164 1.327 . S
C1165 C1169 1.429 . S
C1166 C1149 1.574 . S
C1166 H1160 0.949 . S
C1166 C1170 1.368 . S
C1167 C1148 1.429 . S
C1167 C1161 1.429 . S
C1167 C1168 1.523 . S
C1168 C1149 1.368 . S
C1168 C1162 1.368 . S
C1168 C1167 1.523 . S
C1169 C1153 1.429 . S
C1169 C1165 1.429 . S
C1169 C1170 1.523 . S
C1170 C1154 1.368 . S
C1170 C1166 1.368 . S
C1170 C1169 1.523 . S
H1171 C1146 0.950 . S
H1172 C1148 0.950 . S
H1173 C1149 0.949 . S
H1174 C1151 0.950 . S
H1175 C1153 0.950 . S
C1176 C1177 1.349 . S
C1176 C1178 1.327 . S
C1176 H1201 0.950 . S
C1177 C1176 1.349 . S
C1177 C1193 1.349 . S
C1178 C1176 1.327 . S
C1178 C1197 1.429 . S
C1178 H1202 0.950 . S
C1179 C1196 1.574 . S
C1179 C1198 1.368 . S
C1179 H1203 0.949 . S
H1180 C1184 0.949 . S
C1181 C1182 1.349 . S
C1181 C1183 1.327 . S
C1181 H1204 0.950 1_556 S
C1182 C1181 1.349 . S
C1182 C1194 1.349 . S
C1183 C1181 1.327 . S
C1183 C1199 1.429 . S
C1183 H1205 0.950 . S
C1184 H1180 0.949 . S
C1184 C1192 1.574 . S
C1184 C1200 1.368 . S
H1185 C1193 0.950 . S
H1186 C1191 0.950 . S
H1187 C1192 0.949 . S
H1188 C1194 0.950 . S
H1189 C1195 0.950 . S
H1190 C1196 0.949 . S
C1191 H1186 0.950 . S
C1191 C1193 1.327 . S
C1191 C1197 1.429 . S
C1192 C1184 1.574 . S
C1192 H1187 0.949 . S
C1192 C1198 1.368 . S
C1193 C1177 1.349 . S
C1193 H1185 0.950 . S
C1193 C1191 1.327 . S
C1194 C1182 1.349 . S
C1194 H1188 0.950 . S
C1194 C1195 1.327 . S
C1195 H1189 0.950 . S
C1195 C1194 1.327 . S
C1195 C1199 1.429 . S
C1196 C1179 1.574 . S
C1196 H1190 0.949 . S
C1196 C1200 1.368 . S
C1197 C1178 1.429 . S
C1197 C1191 1.429 . S
C1197 C1198 1.523 . S
C1198 C1179 1.368 . S
C1198 C1192 1.368 . S
C1198 C1197 1.523 . S
C1199 C1183 1.429 . S
C1199 C1195 1.429 . S
C1199 C1200 1.523 . S
C1200 C1184 1.368 . S
C1200 C1196 1.368 . S
C1200 C1199 1.523 . S
H1201 C1176 0.950 . S
H1202 C1178 0.950 . S
H1203 C1179 0.949 . S
H1204 C1181 0.950 1_554 S
H1205 C1183 0.950 . S
C1206 C1207 1.349 . S
C1206 C1208 1.327 . S
C1206 H1231 0.950 . S
C1207 C1206 1.349 . S
C1207 C1223 1.349 . S
C1208 C1206 1.327 . S
C1208 C1227 1.429 . S
C1208 H1232 0.950 . S
C1209 C1226 1.574 . S
C1209 C1228 1.368 . S
C1209 H1233 0.949 . S
H1210 C1214 0.949 . S
C1211 C1212 1.349 . S
C1211 C1213 1.327 . S
C1211 H1234 0.950 . S
C1212 C1211 1.349 . S
C1212 C1224 1.349 . S
C1213 C1211 1.327 . S
C1213 C1229 1.429 . S
C1213 H1235 0.950 . S
C1214 H1210 0.949 . S
C1214 C1222 1.574 . S
C1214 C1230 1.368 . S
H1215 C1223 0.950 . S
H1216 C1221 0.950 . S
H1217 C1222 0.949 . S
H1218 C1224 0.950 . S
H1219 C1225 0.950 . S
H1220 C1226 0.949 . S
C1221 H1216 0.950 . S
C1221 C1223 1.327 . S
C1221 C1227 1.429 . S
C1222 C1214 1.574 . S
C1222 H1217 0.949 . S
C1222 C1228 1.368 . S
C1223 C1207 1.349 . S
C1223 H1215 0.950 . S
C1223 C1221 1.327 . S
C1224 C1212 1.349 . S
C1224 H1218 0.950 . S
C1224 C1225 1.327 . S
C1225 H1219 0.950 . S
C1225 C1224 1.327 . S
C1225 C1229 1.429 . S
C1226 C1209 1.574 . S
C1226 H1220 0.949 . S
C1226 C1230 1.368 . S
C1227 C1208 1.429 . S
C1227 C1221 1.429 . S
C1227 C1228 1.523 . S
C1228 C1209 1.368 . S
C1228 C1222 1.368 . S
C1228 C1227 1.523 . S
C1229 C1213 1.429 . S
C1229 C1225 1.429 . S
C1229 C1230 1.523 . S
C1230 C1214 1.368 . S
C1230 C1226 1.368 . S
C1230 C1229 1.523 . S
H1231 C1206 0.950 . S
H1232 C1208 0.950 . S
H1233 C1209 0.949 . S
H1234 C1211 0.950 . S
H1235 C1213 0.950 . S
C1236 C1237 1.349 . S
C1236 C1238 1.327 . S
C1236 H1261 0.950 . S
C1237 C1236 1.349 . S
C1237 C1253 1.349 . S
C1238 C1236 1.327 . S
C1238 C1257 1.429 . S
C1238 H1262 0.950 . S
C1239 C1256 1.574 . S
C1239 C1258 1.368 . S
C1239 H1263 0.949 . S
H1240 C1244 0.949 . S
C1241 C1242 1.349 . S
C1241 C1243 1.327 . S
C1241 H1264 0.950 . S
C1242 C1241 1.349 . S
C1242 C1254 1.349 . S
C1243 C1241 1.327 . S
C1243 C1259 1.429 . S
C1243 H1265 0.950 . S
C1244 H1240 0.949 . S
C1244 C1252 1.574 . S
C1244 C1260 1.368 . S
H1245 C1253 0.950 . S
H1246 C1251 0.950 . S
H1247 C1252 0.949 . S
H1248 C1254 0.950 . S
H1249 C1255 0.950 . S
H1250 C1256 0.949 . S
C1251 H1246 0.950 . S
C1251 C1253 1.327 . S
C1251 C1257 1.429 . S
C1252 C1244 1.574 . S
C1252 H1247 0.949 . S
C1252 C1258 1.368 . S
C1253 C1237 1.349 . S
C1253 H1245 0.950 . S
C1253 C1251 1.327 . S
C1254 C1242 1.349 . S
C1254 H1248 0.950 . S
C1254 C1255 1.327 . S
C1255 H1249 0.950 . S
C1255 C1254 1.327 . S
C1255 C1259 1.429 . S
C1256 C1239 1.574 . S
C1256 H1250 0.949 . S
C1256 C1260 1.368 . S
C1257 C1238 1.429 . S
C1257 C1251 1.429 . S
C1257 C1258 1.523 . S
C1258 C1239 1.368 . S
C1258 C1252 1.368 . S
C1258 C1257 1.523 . S
C1259 C1243 1.429 . S
C1259 C1255 1.429 . S
C1259 C1260 1.523 . S
C1260 C1244 1.368 . S
C1260 C1256 1.368 . S
C1260 C1259 1.523 . S
H1261 C1236 0.950 . S
H1262 C1238 0.950 . S
H1263 C1239 0.949 . S
H1264 C1241 0.950 . S
H1265 C1243 0.950 . S
C1266 C1267 1.349 . S
C1266 C1268 1.327 . S
C1266 H1291 0.950 . S
C1267 C1266 1.349 . S
C1267 C1283 1.349 . S
C1268 C1266 1.327 . S
C1268 C1287 1.429 . S
C1268 H1292 0.950 . S
C1269 C1286 1.574 . S
C1269 C1288 1.368 . S
C1269 H1293 0.949 . S
H1270 C1274 0.949 . S
C1271 C1272 1.349 . S
C1271 C1273 1.327 . S
C1271 H1294 0.950 . S
C1272 C1271 1.349 . S
C1272 C1284 1.349 . S
C1273 C1271 1.327 . S
C1273 C1289 1.429 . S
C1273 H1295 0.950 . S
C1274 H1270 0.949 . S
C1274 C1282 1.574 . S
C1274 C1290 1.368 . S
H1275 C1283 0.950 . S
H1276 C1281 0.950 . S
H1277 C1282 0.949 . S
H1278 C1284 0.950 1_556 S
H1279 C1285 0.950 . S
H1280 C1286 0.949 . S
C1281 H1276 0.950 . S
C1281 C1283 1.327 . S
C1281 C1287 1.429 . S
C1282 C1274 1.574 . S
C1282 H1277 0.949 . S
C1282 C1288 1.368 . S
C1283 C1267 1.349 . S
C1283 H1275 0.950 . S
C1283 C1281 1.327 . S
C1284 C1272 1.349 . S
C1284 H1278 0.950 1_554 S
C1284 C1285 1.327 . S
C1285 H1279 0.950 . S
C1285 C1284 1.327 . S
C1285 C1289 1.429 . S
C1286 C1269 1.574 . S
C1286 H1280 0.949 . S
C1286 C1290 1.368 . S
C1287 C1268 1.429 . S
C1287 C1281 1.429 . S
C1287 C1288 1.523 . S
C1288 C1269 1.368 . S
C1288 C1282 1.368 . S
C1288 C1287 1.523 . S
C1289 C1273 1.429 . S
C1289 C1285 1.429 . S
C1289 C1290 1.523 . S
C1290 C1274 1.368 . S
C1290 C1286 1.368 . S
C1290 C1289 1.523 . S
H1291 C1266 0.950 . S
H1292 C1268 0.950 . S
H1293 C1269 0.949 . S
H1294 C1271 0.950 . S
H1295 C1273 0.950 . S
C1296 C1297 1.349 . S
C1296 C1298 1.327 . S
C1296 H1321 0.950 . S
C1297 C1296 1.349 . S
C1297 C1313 1.349 . S
C1298 C1296 1.327 . S
C1298 C1317 1.429 . S
C1298 H1322 0.950 . S
C1299 C1316 1.574 . S
C1299 C1318 1.368 . S
C1299 H1323 0.949 . S
H1300 C1304 0.949 . S
C1301 C1302 1.349 . S
C1301 C1303 1.327 . S
C1301 H1324 0.950 . S
C1302 C1301 1.349 . S
C1302 C1314 1.349 . S
C1303 C1301 1.327 . S
C1303 C1319 1.429 . S
C1303 H1325 0.950 . S
C1304 H1300 0.949 . S
C1304 C1312 1.574 . S
C1304 C1320 1.368 . S
H1305 C1313 0.950 . S
H1306 C1311 0.950 . S
H1307 C1312 0.949 . S
H1308 C1314 0.950 . S
H1309 C1315 0.950 . S
H1310 C1316 0.949 . S
C1311 H1306 0.950 . S
C1311 C1313 1.327 . S
C1311 C1317 1.429 . S
C1312 C1304 1.574 . S
C1312 H1307 0.949 . S
C1312 C1318 1.368 . S
C1313 C1297 1.349 . S
C1313 H1305 0.950 . S
C1313 C1311 1.327 . S
C1314 C1302 1.349 . S
C1314 H1308 0.950 . S
C1314 C1315 1.327 . S
C1315 H1309 0.950 . S
C1315 C1314 1.327 . S
C1315 C1319 1.429 . S
C1316 C1299 1.574 . S
C1316 H1310 0.949 . S
C1316 C1320 1.368 . S
C1317 C1298 1.429 . S
C1317 C1311 1.429 . S
C1317 C1318 1.523 . S
C1318 C1299 1.368 . S
C1318 C1312 1.368 . S
C1318 C1317 1.523 . S
C1319 C1303 1.429 . S
C1319 C1315 1.429 . S
C1319 C1320 1.523 . S
C1320 C1304 1.368 . S
C1320 C1316 1.368 . S
C1320 C1319 1.523 . S
H1321 C1296 0.950 . S
H1322 C1298 0.950 . S
H1323 C1299 0.949 . S
H1324 C1301 0.950 . S
H1325 C1303 0.950 . S
C1326 C1327 1.349 . S
C1326 C1328 1.327 . S
C1326 H1351 0.950 . S
C1327 C1326 1.349 . S
C1327 C1343 1.349 . S
C1328 C1326 1.327 . S
C1328 C1347 1.429 . S
C1328 H1352 0.950 . S
C1329 C1346 1.574 . S
C1329 C1348 1.368 . S
C1329 H1353 0.949 . S
H1330 C1334 0.949 . S
C1331 C1332 1.349 . S
C1331 C1333 1.327 . S
C1331 H1354 0.950 1_556 S
C1332 C1331 1.349 . S
C1332 C1344 1.349 . S
C1333 C1331 1.327 . S
C1333 C1349 1.429 . S
C1333 H1355 0.950 . S
C1334 H1330 0.949 . S
C1334 C1342 1.574 . S
C1334 C1350 1.368 . S
H1335 C1343 0.950 . S
H1336 C1341 0.950 . S
H1337 C1342 0.949 . S
H1338 C1344 0.950 . S
H1339 C1345 0.950 . S
H1340 C1346 0.949 . S
C1341 H1336 0.950 . S
C1341 C1343 1.327 . S
C1341 C1347 1.429 . S
C1342 C1334 1.574 . S
C1342 H1337 0.949 . S
C1342 C1348 1.368 . S
C1343 C1327 1.349 . S
C1343 H1335 0.950 . S
C1343 C1341 1.327 . S
C1344 C1332 1.349 . S
C1344 H1338 0.950 . S
C1344 C1345 1.327 . S
C1345 H1339 0.950 . S
C1345 C1344 1.327 . S
C1345 C1349 1.429 . S
C1346 C1329 1.574 . S
C1346 H1340 0.949 . S
C1346 C1350 1.368 . S
C1347 C1328 1.429 . S
C1347 C1341 1.429 . S
C1347 C1348 1.523 . S
C1348 C1329 1.368 . S
C1348 C1342 1.368 . S
C1348 C1347 1.523 . S
C1349 C1333 1.429 . S
C1349 C1345 1.429 . S
C1349 C1350 1.523 . S
C1350 C1334 1.368 . S
C1350 C1346 1.368 . S
C1350 C1349 1.523 . S
H1351 C1326 0.950 . S
H1352 C1328 0.950 . S
H1353 C1329 0.949 . S
H1354 C1331 0.950 1_554 S
H1355 C1333 0.950 . S
C1356 C1357 1.349 . S
C1356 C1358 1.327 . S
C1356 H1381 0.950 . S
C1357 C1356 1.349 . S
C1357 C1373 1.349 . S
C1358 C1356 1.327 . S
C1358 C1377 1.429 . S
C1358 H1382 0.950 . S
C1359 C1376 1.574 . S
C1359 C1378 1.368 . S
C1359 H1383 0.949 . S
H1360 C1364 0.949 . S
C1361 C1362 1.349 . S
C1361 C1363 1.327 . S
C1361 H1384 0.950 . S
C1362 C1361 1.349 . S
C1362 C1374 1.349 . S
C1363 C1361 1.327 . S
C1363 C1379 1.429 . S
C1363 H1385 0.950 . S
C1364 H1360 0.949 . S
C1364 C1372 1.574 . S
C1364 C1380 1.368 . S
H1365 C1373 0.950 1_556 S
H1366 C1371 0.950 . S
H1367 C1372 0.949 . S
H1368 C1374 0.950 . S
H1369 C1375 0.950 . S
H1370 C1376 0.949 . S
C1371 H1366 0.950 . S
C1371 C1373 1.327 . S
C1371 C1377 1.429 . S
C1372 C1364 1.574 . S
C1372 H1367 0.949 . S
C1372 C1378 1.368 . S
C1373 C1357 1.349 . S
C1373 H1365 0.950 1_554 S
C1373 C1371 1.327 . S
C1374 C1362 1.349 . S
C1374 H1368 0.950 . S
C1374 C1375 1.327 . S
C1375 H1369 0.950 . S
C1375 C1374 1.327 . S
C1375 C1379 1.429 . S
C1376 C1359 1.574 . S
C1376 H1370 0.949 . S
C1376 C1380 1.368 . S
C1377 C1358 1.429 . S
C1377 C1371 1.429 . S
C1377 C1378 1.523 . S
C1378 C1359 1.368 . S
C1378 C1372 1.368 . S
C1378 C1377 1.523 . S
C1379 C1363 1.429 . S
C1379 C1375 1.429 . S
C1379 C1380 1.523 . S
C1380 C1364 1.368 . S
C1380 C1376 1.368 . S
C1380 C1379 1.523 . S
H1381 C1356 0.950 . S
H1382 C1358 0.950 . S
H1383 C1359 0.949 . S
H1384 C1361 0.950 . S
H1385 C1363 0.950 . S
C1386 C1387 1.349 . S
C1386 C1388 1.327 . S
C1386 H1411 0.950 . S
C1387 C1386 1.349 . S
C1387 C1403 1.349 . S
C1388 C1386 1.327 . S
C1388 C1407 1.429 . S
C1388 H1412 0.950 . S
C1389 C1406 1.574 . S
C1389 C1408 1.368 . S
C1389 H1413 0.949 . S
H1390 C1394 0.949 . S
C1391 C1392 1.349 . S
C1391 C1393 1.327 . S
C1391 H1414 0.950 . S
C1392 C1391 1.349 . S
C1392 C1404 1.349 . S
C1393 C1391 1.327 . S
C1393 C1409 1.429 . S
C1393 H1415 0.950 . S
C1394 H1390 0.949 . S
C1394 C1402 1.574 . S
C1394 C1410 1.368 . S
H1395 C1403 0.950 . S
H1396 C1401 0.950 . S
H1397 C1402 0.949 . S
H1398 C1404 0.950 . S
H1399 C1405 0.950 . S
H1400 C1406 0.949 . S
C1401 H1396 0.950 . S
C1401 C1403 1.327 . S
C1401 C1407 1.429 . S
C1402 C1394 1.574 . S
C1402 H1397 0.949 . S
C1402 C1408 1.368 . S
C1403 C1387 1.349 . S
C1403 H1395 0.950 . S
C1403 C1401 1.327 . S
C1404 C1392 1.349 . S
C1404 H1398 0.950 . S
C1404 C1405 1.327 . S
C1405 H1399 0.950 . S
C1405 C1404 1.327 . S
C1405 C1409 1.429 . S
C1406 C1389 1.574 . S
C1406 H1400 0.949 . S
C1406 C1410 1.368 . S
C1407 C1388 1.429 . S
C1407 C1401 1.429 . S
C1407 C1408 1.523 . S
C1408 C1389 1.368 . S
C1408 C1402 1.368 . S
C1408 C1407 1.523 . S
C1409 C1393 1.429 . S
C1409 C1405 1.429 . S
C1409 C1410 1.523 . S
C1410 C1394 1.368 . S
C1410 C1406 1.368 . S
C1410 C1409 1.523 . S
H1411 C1386 0.950 . S
H1412 C1388 0.950 . S
H1413 C1389 0.949 . S
H1414 C1391 0.950 . S
H1415 C1393 0.950 . S
C1416 C1417 1.349 . S
C1416 C1418 1.327 . S
C1416 H1441 0.950 . S
C1417 C1416 1.349 . S
C1417 C1433 1.349 . S
C1418 C1416 1.327 . S
C1418 C1437 1.429 . S
C1418 H1442 0.950 . S
C1419 C1436 1.574 . S
C1419 C1438 1.368 . S
C1419 H1443 0.949 . S
H1420 C1424 0.949 . S
C1421 C1422 1.349 . S
C1421 C1423 1.327 . S
C1421 H1444 0.950 . S
C1422 C1421 1.349 . S
C1422 C1434 1.349 . S
C1423 C1421 1.327 . S
C1423 C1439 1.429 . S
C1423 H1445 0.950 . S
C1424 H1420 0.949 . S
C1424 C1432 1.574 . S
C1424 C1440 1.368 . S
H1425 C1433 0.950 . S
H1426 C1431 0.950 . S
H1427 C1432 0.949 . S
H1428 C1434 0.950 . S
H1429 C1435 0.950 . S
H1430 C1436 0.949 . S
C1431 H1426 0.950 . S
C1431 C1433 1.327 . S
C1431 C1437 1.429 . S
C1432 C1424 1.574 . S
C1432 H1427 0.949 . S
C1432 C1438 1.368 . S
C1433 C1417 1.349 . S
C1433 H1425 0.950 . S
C1433 C1431 1.327 . S
C1434 C1422 1.349 . S
C1434 H1428 0.950 . S
C1434 C1435 1.327 . S
C1435 H1429 0.950 . S
C1435 C1434 1.327 . S
C1435 C1439 1.429 . S
C1436 C1419 1.574 . S
C1436 H1430 0.949 . S
C1436 C1440 1.368 . S
C1437 C1418 1.429 . S
C1437 C1431 1.429 . S
C1437 C1438 1.523 . S
C1438 C1419 1.368 . S
C1438 C1432 1.368 . S
C1438 C1437 1.523 . S
C1439 C1423 1.429 . S
C1439 C1435 1.429 . S
C1439 C1440 1.523 . S
C1440 C1424 1.368 . S
C1440 C1436 1.368 . S
C1440 C1439 1.523 . S
H1441 C1416 0.950 . S
H1442 C1418 0.950 . S
H1443 C1419 0.949 . S
H1444 C1421 0.950 . S
H1445 C1423 0.950 . S
C1446 C1447 1.349 . S
C1446 C1448 1.327 . S
C1446 H1471 0.950 . S
C1447 C1446 1.349 . S
C1447 C1463 1.349 . S
C1448 C1446 1.327 . S
C1448 C1467 1.429 . S
C1448 H1472 0.950 . S
C1449 C1466 1.574 . S
C1449 C1468 1.368 . S
C1449 H1473 0.949 . S
H1450 C1454 0.949 . S
C1451 C1452 1.349 . S
C1451 C1453 1.327 . S
C1451 H1474 0.950 . S
C1452 C1451 1.349 . S
C1452 C1464 1.349 . S
C1453 C1451 1.327 . S
C1453 C1469 1.429 . S
C1453 H1475 0.950 . S
C1454 H1450 0.949 . S
C1454 C1462 1.574 . S
C1454 C1470 1.368 . S
H1455 C1463 0.950 1_556 S
H1456 C1461 0.950 . S
H1457 C1462 0.949 . S
H1458 C1464 0.950 . S
H1459 C1465 0.950 . S
H1460 C1466 0.949 . S
C1461 H1456 0.950 . S
C1461 C1463 1.327 . S
C1461 C1467 1.429 . S
C1462 C1454 1.574 . S
C1462 H1457 0.949 . S
C1462 C1468 1.368 . S
C1463 C1447 1.349 . S
C1463 H1455 0.950 1_554 S
C1463 C1461 1.327 . S
C1464 C1452 1.349 . S
C1464 H1458 0.950 . S
C1464 C1465 1.327 . S
C1465 H1459 0.950 . S
C1465 C1464 1.327 . S
C1465 C1469 1.429 . S
C1466 C1449 1.574 . S
C1466 H1460 0.949 . S
C1466 C1470 1.368 . S
C1467 C1448 1.429 . S
C1467 C1461 1.429 . S
C1467 C1468 1.523 . S
C1468 C1449 1.368 . S
C1468 C1462 1.368 . S
C1468 C1467 1.523 . S
C1469 C1453 1.429 . S
C1469 C1465 1.429 . S
C1469 C1470 1.523 . S
C1470 C1454 1.368 . S
C1470 C1466 1.368 . S
C1470 C1469 1.523 . S
H1471 C1446 0.950 . S
H1472 C1448 0.950 . S
H1473 C1449 0.949 . S
H1474 C1451 0.950 . S
H1475 C1453 0.950 . S
C1476 C1477 1.349 . S
C1476 C1478 1.327 . S
C1476 H1501 0.950 . S
C1477 C1476 1.349 . S
C1477 C1493 1.349 . S
C1478 C1476 1.327 . S
C1478 C1497 1.429 . S
C1478 H1502 0.950 . S
C1479 C1496 1.574 . S
C1479 C1498 1.368 . S
C1479 H1503 0.949 . S
H1480 C1484 0.949 . S
C1481 C1482 1.349 . S
C1481 C1483 1.327 . S
C1481 H1504 0.950 . S
C1482 C1481 1.349 . S
C1482 C1494 1.349 . S
C1483 C1481 1.327 . S
C1483 C1499 1.429 . S
C1483 H1505 0.950 . S
C1484 H1480 0.949 . S
C1484 C1492 1.574 . S
C1484 C1500 1.368 . S
H1485 C1493 0.950 1_554 S
H1486 C1491 0.950 . S
H1487 C1492 0.949 . S
H1488 C1494 0.950 . S
H1489 C1495 0.950 . S
H1490 C1496 0.949 . S
C1491 H1486 0.950 . S
C1491 C1493 1.327 . S
C1491 C1497 1.429 . S
C1492 C1484 1.574 . S
C1492 H1487 0.949 . S
C1492 C1498 1.368 . S
C1493 C1477 1.349 . S
C1493 H1485 0.950 1_556 S
C1493 C1491 1.327 . S
C1494 C1482 1.349 . S
C1494 H1488 0.950 . S
C1494 C1495 1.327 . S
C1495 H1489 0.950 . S
C1495 C1494 1.327 . S
C1495 C1499 1.429 . S
C1496 C1479 1.574 . S
C1496 H1490 0.949 . S
C1496 C1500 1.368 . S
C1497 C1478 1.429 . S
C1497 C1491 1.429 . S
C1497 C1498 1.523 . S
C1498 C1479 1.368 . S
C1498 C1492 1.368 . S
C1498 C1497 1.523 . S
C1499 C1483 1.429 . S
C1499 C1495 1.429 . S
C1499 C1500 1.523 . S
C1500 C1484 1.368 . S
C1500 C1496 1.368 . S
C1500 C1499 1.523 . S
H1501 C1476 0.950 . S
H1502 C1478 0.950 . S
H1503 C1479 0.949 . S
H1504 C1481 0.950 . S
H1505 C1483 0.950 . S
C1506 C1507 1.349 . S
C1506 C1508 1.327 . S
C1506 H1531 0.950 . S
C1507 C1506 1.349 . S
C1507 C1523 1.349 . S
C1508 C1506 1.327 . S
C1508 C1527 1.429 . S
C1508 H1532 0.950 . S
C1509 C1526 1.574 . S
C1509 C1528 1.368 . S
C1509 H1533 0.949 . S
H1510 C1514 0.949 . S
C1511 C1512 1.349 . S
C1511 C1513 1.327 . S
C1511 H1534 0.950 . S
C1512 C1511 1.349 . S
C1512 C1524 1.349 . S
C1513 C1511 1.327 . S
C1513 C1529 1.429 . S
C1513 H1535 0.950 . S
C1514 H1510 0.949 . S
C1514 C1522 1.574 . S
C1514 C1530 1.368 . S
H1515 C1523 0.950 . S
H1516 C1521 0.950 . S
H1517 C1522 0.949 . S
H1518 C1524 0.950 . S
H1519 C1525 0.950 . S
H1520 C1526 0.949 . S
C1521 H1516 0.950 . S
C1521 C1523 1.327 . S
C1521 C1527 1.429 . S
C1522 C1514 1.574 . S
C1522 H1517 0.949 . S
C1522 C1528 1.368 . S
C1523 C1507 1.349 . S
C1523 H1515 0.950 . S
C1523 C1521 1.327 . S
C1524 C1512 1.349 . S
C1524 H1518 0.950 . S
C1524 C1525 1.327 . S
C1525 H1519 0.950 . S
C1525 C1524 1.327 . S
C1525 C1529 1.429 . S
C1526 C1509 1.574 . S
C1526 H1520 0.949 . S
C1526 C1530 1.368 . S
C1527 C1508 1.429 . S
C1527 C1521 1.429 . S
C1527 C1528 1.523 . S
C1528 C1509 1.368 . S
C1528 C1522 1.368 . S
C1528 C1527 1.523 . S
C1529 C1513 1.429 . S
C1529 C1525 1.429 . S
C1529 C1530 1.523 . S
C1530 C1514 1.368 . S
C1530 C1526 1.368 . S
C1530 C1529 1.523 . S
H1531 C1506 0.950 . S
H1532 C1508 0.950 . S
H1533 C1509 0.949 . S
H1534 C1511 0.950 . S
H1535 C1513 0.950 . S
C1536 C1537 1.349 . S
C1536 C1538 1.327 . S
C1536 H1561 0.950 . S
C1537 C1536 1.349 . S
C1537 C1553 1.349 . S
C1538 C1536 1.327 . S
C1538 C1557 1.429 . S
C1538 H1562 0.950 . S
C1539 C1556 1.574 . S
C1539 C1558 1.368 . S
C1539 H1563 0.949 . S
H1540 C1544 0.949 . S
C1541 C1542 1.349 . S
C1541 C1543 1.327 . S
C1541 H1564 0.950 . S
C1542 C1541 1.349 . S
C1542 C1554 1.349 . S
C1543 C1541 1.327 . S
C1543 C1559 1.429 . S
C1543 H1565 0.950 . S
C1544 H1540 0.949 . S
C1544 C1552 1.574 . S
C1544 C1560 1.368 . S
H1545 C1553 0.950 . S
H1546 C1551 0.950 . S
H1547 C1552 0.949 . S
H1548 C1554 0.950 . S
H1549 C1555 0.950 . S
H1550 C1556 0.949 . S
C1551 H1546 0.950 . S
C1551 C1553 1.327 . S
C1551 C1557 1.429 . S
C1552 C1544 1.574 . S
C1552 H1547 0.949 . S
C1552 C1558 1.368 . S
C1553 C1537 1.349 . S
C1553 H1545 0.950 . S
C1553 C1551 1.327 . S
C1554 C1542 1.349 . S
C1554 H1548 0.950 . S
C1554 C1555 1.327 . S
C1555 H1549 0.950 . S
C1555 C1554 1.327 . S
C1555 C1559 1.429 . S
C1556 C1539 1.574 . S
C1556 H1550 0.949 . S
C1556 C1560 1.368 . S
C1557 C1538 1.429 . S
C1557 C1551 1.429 . S
C1557 C1558 1.523 . S
C1558 C1539 1.368 . S
C1558 C1552 1.368 . S
C1558 C1557 1.523 . S
C1559 C1543 1.429 . S
C1559 C1555 1.429 . S
C1559 C1560 1.523 . S
C1560 C1544 1.368 . S
C1560 C1556 1.368 . S
C1560 C1559 1.523 . S
H1561 C1536 0.950 . S
H1562 C1538 0.950 . S
H1563 C1539 0.949 . S
H1564 C1541 0.950 . S
H1565 C1543 0.950 . S
C1566 C1567 1.349 . S
C1566 C1568 1.327 . S
C1566 H1591 0.950 . S
C1567 C1566 1.349 . S
C1567 C1583 1.349 . S
C1568 C1566 1.327 . S
C1568 C1587 1.429 . S
C1568 H1592 0.950 . S
C1569 C1586 1.574 . S
C1569 C1588 1.368 . S
C1569 H1593 0.949 . S
H1570 C1574 0.949 . S
C1571 C1572 1.349 . S
C1571 C1573 1.327 1_455 S
C1571 H1594 0.950 . S
C1572 C1571 1.349 . S
C1572 C1584 1.349 . S
C1573 C1571 1.327 1_655 S
C1573 C1589 1.429 . S
C1573 H1595 0.950 . S
C1574 H1570 0.949 . S
C1574 C1582 1.574 . S
C1574 C1590 1.368 . S
H1575 C1583 0.950 . S
H1576 C1581 0.950 . S
H1577 C1582 0.949 . S
H1578 C1584 0.950 . S
H1579 C1585 0.950 . S
H1580 C1586 0.949 . S
C1581 H1576 0.950 . S
C1581 C1583 1.327 . S
C1581 C1587 1.429 . S
C1582 C1574 1.574 . S
C1582 H1577 0.949 . S
C1582 C1588 1.368 . S
C1583 C1567 1.349 . S
C1583 H1575 0.950 . S
C1583 C1581 1.327 . S
C1584 C1572 1.349 . S
C1584 H1578 0.950 . S
C1584 C1585 1.327 1_455 S
C1585 H1579 0.950 . S
C1585 C1584 1.327 1_655 S
C1585 C1589 1.429 . S
C1586 C1569 1.574 . S
C1586 H1580 0.949 . S
C1586 C1590 1.368 . S
C1587 C1568 1.429 . S
C1587 C1581 1.429 . S
C1587 C1588 1.523 . S
C1588 C1569 1.368 . S
C1588 C1582 1.368 . S
C1588 C1587 1.523 . S
C1589 C1573 1.429 . S
C1589 C1585 1.429 . S
C1589 C1590 1.523 . S
C1590 C1574 1.368 . S
C1590 C1586 1.368 . S
C1590 C1589 1.523 . S
H1591 C1566 0.950 . S
H1592 C1568 0.950 . S
H1593 C1569 0.949 . S
H1594 C1571 0.950 . S
H1595 C1573 0.950 . S
C1596 C1597 1.349 . S
C1596 C1598 1.327 . S
C1596 H1621 0.950 . S
C1597 C1596 1.349 . S
C1597 C1613 1.349 . S
C1598 C1596 1.327 . S
C1598 C1617 1.429 . S
C1598 H1622 0.950 . S
C1599 C1616 1.574 . S
C1599 C1618 1.368 . S
C1599 H1623 0.949 . S
H1600 C1604 0.949 . S
C1601 C1602 1.349 . S
C1601 C1603 1.327 . S
C1601 H1624 0.950 . S
C1602 C1601 1.349 . S
C1602 C1614 1.349 . S
C1603 C1601 1.327 . S
C1603 C1619 1.429 . S
C1603 H1625 0.950 . S
C1604 H1600 0.949 . S
C1604 C1612 1.574 . S
C1604 C1620 1.368 . S
H1605 C1613 0.950 . S
H1606 C1611 0.950 . S
H1607 C1612 0.949 . S
H1608 C1614 0.950 . S
H1609 C1615 0.950 . S
H1610 C1616 0.949 . S
C1611 H1606 0.950 . S
C1611 C1613 1.327 . S
C1611 C1617 1.429 . S
C1612 C1604 1.574 . S
C1612 H1607 0.949 . S
C1612 C1618 1.368 . S
C1613 C1597 1.349 . S
C1613 H1605 0.950 . S
C1613 C1611 1.327 . S
C1614 C1602 1.349 . S
C1614 H1608 0.950 . S
C1614 C1615 1.327 . S
C1615 H1609 0.950 . S
C1615 C1614 1.327 . S
C1615 C1619 1.429 . S
C1616 C1599 1.574 . S
C1616 H1610 0.949 . S
C1616 C1620 1.368 . S
C1617 C1598 1.429 . S
C1617 C1611 1.429 . S
C1617 C1618 1.523 . S
C1618 C1599 1.368 . S
C1618 C1612 1.368 . S
C1618 C1617 1.523 . S
C1619 C1603 1.429 . S
C1619 C1615 1.429 . S
C1619 C1620 1.523 . S
C1620 C1604 1.368 . S
C1620 C1616 1.368 . S
C1620 C1619 1.523 . S
H1621 C1596 0.950 . S
H1622 C1598 0.950 . S
H1623 C1599 0.949 . S
H1624 C1601 0.950 . S
H1625 C1603 0.950 . S
C1626 C1627 1.349 . S
C1626 C1628 1.327 . S
C1626 H1651 0.950 . S
C1627 C1626 1.349 . S
C1627 C1643 1.349 . S
C1628 C1626 1.327 . S
C1628 C1647 1.429 . S
C1628 H1652 0.950 . S
C1629 C1646 1.574 . S
C1629 C1648 1.368 . S
C1629 H1653 0.949 . S
H1630 C1634 0.949 . S
C1631 C1632 1.349 . S
C1631 C1633 1.327 . S
C1631 H1654 0.950 . S
C1632 C1631 1.349 . S
C1632 C1644 1.349 . S
C1633 C1631 1.327 . S
C1633 C1649 1.429 . S
C1633 H1655 0.950 . S
C1634 H1630 0.949 . S
C1634 C1642 1.574 . S
C1634 C1650 1.368 . S
H1635 C1643 0.950 . S
H1636 C1641 0.950 . S
H1637 C1642 0.949 . S
H1638 C1644 0.950 . S
H1639 C1645 0.950 . S
H1640 C1646 0.949 . S
C1641 H1636 0.950 . S
C1641 C1643 1.327 . S
C1641 C1647 1.429 . S
C1642 C1634 1.574 . S
C1642 H1637 0.949 . S
C1642 C1648 1.368 . S
C1643 C1627 1.349 . S
C1643 H1635 0.950 . S
C1643 C1641 1.327 . S
C1644 C1632 1.349 . S
C1644 H1638 0.950 . S
C1644 C1645 1.327 . S
C1645 H1639 0.950 . S
C1645 C1644 1.327 . S
C1645 C1649 1.429 . S
C1646 C1629 1.574 . S
C1646 H1640 0.949 . S
C1646 C1650 1.368 . S
C1647 C1628 1.429 . S
C1647 C1641 1.429 . S
C1647 C1648 1.523 . S
C1648 C1629 1.368 . S
C1648 C1642 1.368 . S
C1648 C1647 1.523 . S
C1649 C1633 1.429 . S
C1649 C1645 1.429 . S
C1649 C1650 1.523 . S
C1650 C1634 1.368 . S
C1650 C1646 1.368 . S
C1650 C1649 1.523 . S
H1651 C1626 0.950 . S
H1652 C1628 0.950 . S
H1653 C1629 0.949 . S
H1654 C1631 0.950 . S
H1655 C1633 0.950 . S
C1656 C1657 1.349 . S
C1656 C1658 1.327 . S
C1656 H1681 0.950 . S
C1657 C1656 1.349 . S
C1657 C1673 1.349 . S
C1658 C1656 1.327 . S
C1658 C1677 1.429 . S
C1658 H1682 0.950 . S
C1659 C1676 1.574 . S
C1659 C1678 1.368 . S
C1659 H1683 0.949 . S
H1660 C1664 0.949 . S
C1661 C1662 1.349 . S
C1661 C1663 1.327 . S
C1661 H1684 0.950 . S
C1662 C1661 1.349 . S
C1662 C1674 1.349 . S
C1663 C1661 1.327 . S
C1663 C1679 1.429 . S
C1663 H1685 0.950 . S
C1664 H1660 0.949 . S
C1664 C1672 1.574 . S
C1664 C1680 1.368 . S
H1665 C1673 0.950 . S
H1666 C1671 0.950 . S
H1667 C1672 0.949 . S
H1668 C1674 0.950 . S
H1669 C1675 0.950 . S
H1670 C1676 0.949 . S
C1671 H1666 0.950 . S
C1671 C1673 1.327 . S
C1671 C1677 1.429 . S
C1672 C1664 1.574 . S
C1672 H1667 0.949 . S
C1672 C1678 1.368 . S
C1673 C1657 1.349 . S
C1673 H1665 0.950 . S
C1673 C1671 1.327 . S
C1674 C1662 1.349 . S
C1674 H1668 0.950 . S
C1674 C1675 1.327 . S
C1675 H1669 0.950 . S
C1675 C1674 1.327 . S
C1675 C1679 1.429 . S
C1676 C1659 1.574 . S
C1676 H1670 0.949 . S
C1676 C1680 1.368 . S
C1677 C1658 1.429 . S
C1677 C1671 1.429 . S
C1677 C1678 1.523 . S
C1678 C1659 1.368 . S
C1678 C1672 1.368 . S
C1678 C1677 1.523 . S
C1679 C1663 1.429 . S
C1679 C1675 1.429 . S
C1679 C1680 1.523 . S
C1680 C1664 1.368 . S
C1680 C1676 1.368 . S
C1680 C1679 1.523 . S
H1681 C1656 0.950 . S
H1682 C1658 0.950 . S
H1683 C1659 0.949 . S
H1684 C1661 0.950 . S
H1685 C1663 0.950 . S
C1686 C1687 1.349 . S
C1686 C1688 1.327 . S
C1686 H1711 0.950 . S
C1687 C1686 1.349 . S
C1687 C1703 1.349 . S
C1688 C1686 1.327 . S
C1688 C1707 1.429 . S
C1688 H1712 0.950 . S
C1689 C1706 1.574 . S
C1689 C1708 1.368 . S
C1689 H1713 0.949 . S
H1690 C1694 0.949 . S
C1691 C1692 1.349 . S
C1691 C1693 1.327 . S
C1691 H1714 0.950 . S
C1692 C1691 1.349 . S
C1692 C1704 1.349 . S
C1693 C1691 1.327 . S
C1693 C1709 1.429 . S
C1693 H1715 0.950 . S
C1694 H1690 0.949 . S
C1694 C1702 1.574 . S
C1694 C1710 1.368 . S
H1695 C1703 0.950 . S
H1696 C1701 0.950 . S
H1697 C1702 0.949 . S
H1698 C1704 0.950 . S
H1699 C1705 0.950 . S
H1700 C1706 0.949 . S
C1701 H1696 0.950 . S
C1701 C1703 1.327 . S
C1701 C1707 1.429 . S
C1702 C1694 1.574 . S
C1702 H1697 0.949 . S
C1702 C1708 1.368 . S
C1703 C1687 1.349 . S
C1703 H1695 0.950 . S
C1703 C1701 1.327 . S
C1704 C1692 1.349 . S
C1704 H1698 0.950 . S
C1704 C1705 1.327 . S
C1705 H1699 0.950 . S
C1705 C1704 1.327 . S
C1705 C1709 1.429 . S
C1706 C1689 1.574 . S
C1706 H1700 0.949 . S
C1706 C1710 1.368 . S
C1707 C1688 1.429 . S
C1707 C1701 1.429 . S
C1707 C1708 1.523 . S
C1708 C1689 1.368 . S
C1708 C1702 1.368 . S
C1708 C1707 1.523 . S
C1709 C1693 1.429 . S
C1709 C1705 1.429 . S
C1709 C1710 1.523 . S
C1710 C1694 1.368 . S
C1710 C1706 1.368 . S
C1710 C1709 1.523 . S
H1711 C1686 0.950 . S
H1712 C1688 0.950 . S
H1713 C1689 0.949 . S
H1714 C1691 0.950 . S
H1715 C1693 0.950 . S
C1716 C1717 1.349 . S
C1716 C1718 1.327 . S
C1716 H1741 0.950 . S
C1717 C1716 1.349 . S
C1717 C1733 1.349 . S
C1718 C1716 1.327 . S
C1718 C1737 1.429 . S
C1718 H1742 0.950 . S
C1719 C1736 1.574 . S
C1719 C1738 1.368 . S
C1719 H1743 0.949 . S
H1720 C1724 0.949 . S
C1721 C1722 1.349 . S
C1721 C1723 1.327 . S
C1721 H1744 0.950 . S
C1722 C1721 1.349 . S
C1722 C1734 1.349 . S
C1723 C1721 1.327 . S
C1723 C1739 1.429 . S
C1723 H1745 0.950 . S
C1724 H1720 0.949 . S
C1724 C1732 1.574 . S
C1724 C1740 1.368 . S
H1725 C1733 0.950 . S
H1726 C1731 0.950 . S
H1727 C1732 0.949 . S
H1728 C1734 0.950 . S
H1729 C1735 0.950 . S
H1730 C1736 0.949 . S
C1731 H1726 0.950 . S
C1731 C1733 1.327 . S
C1731 C1737 1.429 . S
C1732 C1724 1.574 . S
C1732 H1727 0.949 . S
C1732 C1738 1.368 . S
C1733 C1717 1.349 . S
C1733 H1725 0.950 . S
C1733 C1731 1.327 . S
C1734 C1722 1.349 . S
C1734 H1728 0.950 . S
C1734 C1735 1.327 . S
C1735 H1729 0.950 . S
C1735 C1734 1.327 . S
C1735 C1739 1.429 . S
C1736 C1719 1.574 . S
C1736 H1730 0.949 . S
C1736 C1740 1.368 . S
C1737 C1718 1.429 . S
C1737 C1731 1.429 . S
C1737 C1738 1.523 . S
C1738 C1719 1.368 . S
C1738 C1732 1.368 . S
C1738 C1737 1.523 . S
C1739 C1723 1.429 . S
C1739 C1735 1.429 . S
C1739 C1740 1.523 . S
C1740 C1724 1.368 . S
C1740 C1736 1.368 . S
C1740 C1739 1.523 . S
H1741 C1716 0.950 . S
H1742 C1718 0.950 . S
H1743 C1719 0.949 . S
H1744 C1721 0.950 . S
H1745 C1723 0.950 . S
C1746 C1747 1.349 . S
C1746 C1748 1.327 . S
C1746 H1771 0.950 . S
C1747 C1746 1.349 . S
C1747 C1763 1.349 . S
C1748 C1746 1.327 . S
C1748 C1767 1.429 . S
C1748 H1772 0.950 . S
C1749 C1766 1.574 . S
C1749 C1768 1.368 . S
C1749 H1773 0.949 . S
H1750 C1754 0.949 . S
C1751 C1752 1.349 . S
C1751 C1753 1.327 1_455 S
C1751 H1774 0.950 . S
C1752 C1751 1.349 . S
C1752 C1764 1.377 . S
C1753 C1751 1.327 1_655 S
C1753 C1769 1.429 . S
C1753 H1775 0.950 . S
C1754 H1750 0.949 . S
C1754 C1762 1.574 . S
C1754 C1770 1.368 . S
H1755 C1763 0.950 . S
H1756 C1761 0.950 . S
H1757 C1762 0.949 . S
H1758 C1764 0.966 . S
H1759 C1765 0.950 . S
H1760 C1766 0.949 . S
C1761 H1756 0.950 . S
C1761 C1763 1.327 . S
C1761 C1767 1.429 . S
C1762 C1754 1.574 . S
C1762 H1757 0.949 . S
C1762 C1768 1.368 . S
C1763 C1747 1.349 . S
C1763 H1755 0.950 . S
C1763 C1761 1.327 . S
C1764 C1752 1.377 . S
C1764 H1758 0.966 . S
C1764 C1765 1.285 1_455 S
C1765 H1759 0.950 . S
C1765 C1764 1.285 1_655 S
C1765 C1769 1.429 . S
C1766 C1749 1.574 . S
C1766 H1760 0.949 . S
C1766 C1770 1.368 . S
C1767 C1748 1.429 . S
C1767 C1761 1.429 . S
C1767 C1768 1.523 . S
C1768 C1749 1.368 . S
C1768 C1762 1.368 . S
C1768 C1767 1.523 . S
C1769 C1753 1.429 . S
C1769 C1765 1.429 . S
C1769 C1770 1.523 . S
C1770 C1754 1.368 . S
C1770 C1766 1.368 . S
C1770 C1769 1.523 . S
H1771 C1746 0.950 . S
H1772 C1748 0.950 . S
H1773 C1749 0.949 . S
H1774 C1751 0.950 . S
H1775 C1753 0.950 . S
C1776 C1777 1.349 . S
C1776 C1778 1.327 . S
C1776 H1801 0.950 . S
C1777 C1776 1.349 . S
C1777 C1793 1.349 . S
C1778 C1776 1.327 . S
C1778 C1797 1.429 . S
C1778 H1802 0.950 . S
C1779 C1796 1.574 . S
C1779 C1798 1.368 . S
C1779 H1803 0.949 . S
H1780 C1784 0.949 . S
C1781 C1782 1.349 . S
C1781 C1783 1.327 . S
C1781 H1804 0.950 . S
C1782 C1781 1.349 . S
C1782 C1794 1.349 . S
C1783 C1781 1.327 . S
C1783 C1799 1.429 . S
C1783 H1805 0.950 . S
C1784 H1780 0.949 . S
C1784 C1792 1.574 . S
C1784 C1800 1.368 . S
H1785 C1793 0.950 . S
H1786 C1791 0.950 . S
H1787 C1792 0.949 . S
H1788 C1794 0.950 . S
H1789 C1795 0.950 . S
H1790 C1796 0.949 . S
C1791 H1786 0.950 . S
C1791 C1793 1.327 . S
C1791 C1797 1.429 . S
C1792 C1784 1.574 . S
C1792 H1787 0.949 . S
C1792 C1798 1.368 . S
C1793 C1777 1.349 . S
C1793 H1785 0.950 . S
C1793 C1791 1.327 . S
C1794 C1782 1.349 . S
C1794 H1788 0.950 . S
C1794 C1795 1.327 . S
C1795 H1789 0.950 . S
C1795 C1794 1.327 . S
C1795 C1799 1.429 . S
C1796 C1779 1.574 . S
C1796 H1790 0.949 . S
C1796 C1800 1.368 . S
C1797 C1778 1.429 . S
C1797 C1791 1.429 . S
C1797 C1798 1.523 . S
C1798 C1779 1.368 . S
C1798 C1792 1.368 . S
C1798 C1797 1.523 . S
C1799 C1783 1.429 . S
C1799 C1795 1.429 . S
C1799 C1800 1.523 . S
C1800 C1784 1.368 . S
C1800 C1796 1.368 . S
C1800 C1799 1.523 . S
H1801 C1776 0.950 . S
H1802 C1778 0.950 . S
H1803 C1779 0.949 . S
H1804 C1781 0.950 . S
H1805 C1783 0.950 . S
C1806 C1807 1.349 . S
C1806 C1808 1.327 1_655 S
C1806 H1831 0.950 . S
C1807 C1806 1.349 . S
C1807 C1823 1.373 . S
C1808 C1806 1.327 1_455 S
C1808 C1827 1.429 . S
C1808 H1832 0.950 . S
C1809 C1826 1.574 . S
C1809 C1828 1.368 . S
C1809 H1833 0.949 . S
H1810 C1814 0.949 . S
C1811 C1812 1.349 . S
C1811 C1813 1.327 . S
C1811 H1834 0.950 . S
C1812 C1811 1.349 . S
C1812 C1824 1.349 . S
C1813 C1811 1.327 . S
C1813 C1829 1.429 . S
C1813 H1835 0.950 . S
C1814 H1810 0.949 . S
C1814 C1822 1.574 . S
C1814 C1830 1.368 . S
H1815 C1823 0.964 . S
H1816 C1821 0.950 . S
H1817 C1822 0.949 . S
H1818 C1824 0.950 . S
H1819 C1825 0.950 . S
H1820 C1826 0.949 . S
C1821 H1816 0.950 . S
C1821 C1823 1.290 1_455 S
C1821 C1827 1.429 . S
C1822 C1814 1.574 . S
C1822 H1817 0.949 . S
C1822 C1828 1.368 . S
C1823 C1807 1.373 . S
C1823 H1815 0.964 . S
C1823 C1821 1.290 1_655 S
C1824 C1812 1.349 . S
C1824 H1818 0.950 . S
C1824 C1825 1.327 . S
C1825 H1819 0.950 . S
C1825 C1824 1.327 . S
C1825 C1829 1.429 . S
C1826 C1809 1.574 . S
C1826 H1820 0.949 . S
C1826 C1830 1.368 . S
C1827 C1808 1.429 . S
C1827 C1821 1.429 . S
C1827 C1828 1.523 . S
C1828 C1809 1.368 . S
C1828 C1822 1.368 . S
C1828 C1827 1.523 . S
C1829 C1813 1.429 . S
C1829 C1825 1.429 . S
C1829 C1830 1.523 . S
C1830 C1814 1.368 . S
C1830 C1826 1.368 . S
C1830 C1829 1.523 . S
H1831 C1806 0.950 . S
H1832 C1808 0.950 . S
H1833 C1809 0.949 . S
H1834 C1811 0.950 . S
H1835 C1813 0.950 . S
C1836 C1837 1.349 . S
C1836 C1838 1.327 . S
C1836 H1861 0.950 . S
C1837 C1836 1.349 . S
C1837 C1853 1.349 . S
C1838 C1836 1.327 . S
C1838 C1857 1.429 . S
C1838 H1862 0.950 . S
C1839 C1856 1.574 . S
C1839 C1858 1.368 . S
C1839 H1863 0.949 . S
H1840 C1844 0.949 . S
C1841 C1842 1.349 . S
C1841 C1843 1.327 . S
C1841 H1864 0.950 . S
C1842 C1841 1.349 . S
C1842 C1854 1.349 . S
C1843 C1841 1.327 . S
C1843 C1859 1.429 . S
C1843 H1865 0.950 . S
C1844 H1840 0.949 . S
C1844 C1852 1.574 . S
C1844 C1860 1.368 . S
H1845 C1853 0.950 . S
H1846 C1851 0.950 . S
H1847 C1852 0.949 . S
H1848 C1854 0.950 . S
H1849 C1855 0.950 . S
H1850 C1856 0.949 . S
C1851 H1846 0.950 . S
C1851 C1853 1.327 . S
C1851 C1857 1.429 . S
C1852 C1844 1.574 . S
C1852 H1847 0.949 . S
C1852 C1858 1.368 . S
C1853 C1837 1.349 . S
C1853 H1845 0.950 . S
C1853 C1851 1.327 . S
C1854 C1842 1.349 . S
C1854 H1848 0.950 . S
C1854 C1855 1.327 . S
C1855 H1849 0.950 . S
C1855 C1854 1.327 . S
C1855 C1859 1.429 . S
C1856 C1839 1.574 . S
C1856 H1850 0.949 . S
C1856 C1860 1.368 . S
C1857 C1838 1.429 . S
C1857 C1851 1.429 . S
C1857 C1858 1.523 . S
C1858 C1839 1.368 . S
C1858 C1852 1.368 . S
C1858 C1857 1.523 . S
C1859 C1843 1.429 . S
C1859 C1855 1.429 . S
C1859 C1860 1.523 . S
C1860 C1844 1.368 . S
C1860 C1856 1.368 . S
C1860 C1859 1.523 . S
H1861 C1836 0.950 . S
H1862 C1838 0.950 . S
H1863 C1839 0.949 . S
H1864 C1841 0.950 . S
H1865 C1843 0.950 . S
C1866 C1867 1.349 . S
C1866 C1868 1.327 . S
C1866 H1891 0.950 . S
C1867 C1866 1.349 . S
C1867 C1883 1.349 . S
C1868 C1866 1.327 . S
C1868 C1887 1.429 . S
C1868 H1892 0.950 . S
C1869 C1886 1.574 . S
C1869 C1888 1.368 . S
C1869 H1893 0.949 . S
H1870 C1874 0.949 . S
C1871 C1872 1.349 . S
C1871 C1873 1.327 . S
C1871 H1894 0.950 . S
C1872 C1871 1.349 . S
C1872 C1884 1.349 . S
C1873 C1871 1.327 . S
C1873 C1889 1.429 . S
C1873 H1895 0.950 . S
C1874 H1870 0.949 . S
C1874 C1882 1.574 . S
C1874 C1890 1.368 . S
H1875 C1883 0.950 . S
H1876 C1881 0.950 . S
H1877 C1882 0.949 . S
H1878 C1884 0.950 . S
H1879 C1885 0.950 . S
H1880 C1886 0.949 . S
C1881 H1876 0.950 . S
C1881 C1883 1.327 . S
C1881 C1887 1.429 . S
C1882 C1874 1.574 . S
C1882 H1877 0.949 . S
C1882 C1888 1.368 . S
C1883 C1867 1.349 . S
C1883 H1875 0.950 . S
C1883 C1881 1.327 . S
C1884 C1872 1.349 . S
C1884 H1878 0.950 . S
C1884 C1885 1.327 . S
C1885 H1879 0.950 . S
C1885 C1884 1.327 . S
C1885 C1889 1.429 . S
C1886 C1869 1.574 . S
C1886 H1880 0.949 . S
C1886 C1890 1.368 . S
C1887 C1868 1.429 . S
C1887 C1881 1.429 . S
C1887 C1888 1.523 . S
C1888 C1869 1.368 . S
C1888 C1882 1.368 . S
C1888 C1887 1.523 . S
C1889 C1873 1.429 . S
C1889 C1885 1.429 . S
C1889 C1890 1.523 . S
C1890 C1874 1.368 . S
C1890 C1886 1.368 . S
C1890 C1889 1.523 . S
H1891 C1866 0.950 . S
H1892 C1868 0.950 . S
H1893 C1869 0.949 . S
H1894 C1871 0.950 . S
H1895 C1873 0.950 . S
C1896 C1897 1.349 . S
C1896 C1898 1.327 . S
C1896 H1921 0.950 . S
C1897 C1896 1.349 . S
C1897 C1913 1.349 . S
C1898 C1896 1.327 . S
C1898 C1917 1.429 . S
C1898 H1922 0.950 . S
C1899 C1916 1.574 . S
C1899 C1918 1.368 . S
C1899 H1923 0.949 . S
H1900 C1904 0.949 . S
C1901 C1902 1.349 . S
C1901 C1903 1.327 . S
C1901 H1924 0.950 . S
C1902 C1901 1.349 . S
C1902 C1914 1.349 . S
C1903 C1901 1.327 . S
C1903 C1919 1.429 . S
C1903 H1925 0.950 . S
C1904 H1900 0.949 . S
C1904 C1912 1.574 . S
C1904 C1920 1.368 . S
H1905 C1913 0.950 . S
H1906 C1911 0.950 . S
H1907 C1912 0.949 . S
H1908 C1914 0.950 . S
H1909 C1915 0.950 . S
H1910 C1916 0.949 . S
C1911 H1906 0.950 . S
C1911 C1913 1.327 . S
C1911 C1917 1.429 . S
C1912 C1904 1.574 . S
C1912 H1907 0.949 . S
C1912 C1918 1.368 . S
C1913 C1897 1.349 . S
C1913 H1905 0.950 . S
C1913 C1911 1.327 . S
C1914 C1902 1.349 . S
C1914 H1908 0.950 . S
C1914 C1915 1.327 . S
C1915 H1909 0.950 . S
C1915 C1914 1.327 . S
C1915 C1919 1.429 . S
C1916 C1899 1.574 . S
C1916 H1910 0.949 . S
C1916 C1920 1.368 . S
C1917 C1898 1.429 . S
C1917 C1911 1.429 . S
C1917 C1918 1.523 . S
C1918 C1899 1.368 . S
C1918 C1912 1.368 . S
C1918 C1917 1.523 . S
C1919 C1903 1.429 . S
C1919 C1915 1.429 . S
C1919 C1920 1.523 . S
C1920 C1904 1.368 . S
C1920 C1916 1.368 . S
C1920 C1919 1.523 . S
H1921 C1896 0.950 . S
H1922 C1898 0.950 . S
H1923 C1899 0.949 . S
H1924 C1901 0.950 . S
H1925 C1903 0.950 . S
C1926 C1927 1.349 . S
C1926 C1928 1.327 . S
C1926 H1951 0.950 . S
C1927 C1926 1.349 . S
C1927 C1943 1.349 . S
C1928 C1926 1.327 . S
C1928 C1947 1.429 . S
C1928 H1952 0.950 . S
C1929 C1946 1.574 . S
C1929 C1948 1.368 . S
C1929 H1953 0.949 . S
H1930 C1934 0.949 . S
C1931 C1932 1.349 . S
C1931 C1933 1.327 . S
C1931 H1954 0.950 . S
C1932 C1931 1.349 . S
C1932 C1944 1.349 . S
C1933 C1931 1.327 . S
C1933 C1949 1.429 . S
C1933 H1955 0.950 . S
C1934 H1930 0.949 . S
C1934 C1942 1.574 . S
C1934 C1950 1.368 . S
H1935 C1943 0.950 . S
H1936 C1941 0.950 . S
H1937 C1942 0.949 . S
H1938 C1944 0.950 . S
H1939 C1945 0.950 . S
H1940 C1946 0.949 . S
C1941 H1936 0.950 . S
C1941 C1943 1.327 . S
C1941 C1947 1.429 . S
C1942 C1934 1.574 . S
C1942 H1937 0.949 . S
C1942 C1948 1.368 . S
C1943 C1927 1.349 . S
C1943 H1935 0.950 . S
C1943 C1941 1.327 . S
C1944 C1932 1.349 . S
C1944 H1938 0.950 . S
C1944 C1945 1.327 . S
C1945 H1939 0.950 . S
C1945 C1944 1.327 . S
C1945 C1949 1.429 . S
C1946 C1929 1.574 . S
C1946 H1940 0.949 . S
C1946 C1950 1.368 . S
C1947 C1928 1.429 . S
C1947 C1941 1.429 . S
C1947 C1948 1.523 . S
C1948 C1929 1.368 . S
C1948 C1942 1.368 . S
C1948 C1947 1.523 . S
C1949 C1933 1.429 . S
C1949 C1945 1.429 . S
C1949 C1950 1.523 . S
C1950 C1934 1.368 . S
C1950 C1946 1.368 . S
C1950 C1949 1.523 . S
H1951 C1926 0.950 . S
H1952 C1928 0.950 . S
H1953 C1929 0.949 . S
H1954 C1931 0.950 . S
H1955 C1933 0.950 . S
C1956 C1957 1.349 . S
C1956 C1958 1.327 . S
C1956 H1981 0.950 . S
C1957 C1956 1.349 . S
C1957 C1973 1.349 . S
C1958 C1956 1.327 . S
C1958 C1977 1.429 . S
C1958 H1982 0.950 . S
C1959 C1976 1.574 . S
C1959 C1978 1.368 . S
C1959 H1983 0.949 . S
H1960 C1964 0.949 . S
C1961 C1962 1.349 . S
C1961 C1963 1.327 . S
C1961 H1984 0.950 . S
C1962 C1961 1.349 . S
C1962 C1974 1.349 . S
C1963 C1961 1.327 . S
C1963 C1979 1.429 . S
C1963 H1985 0.950 . S
C1964 H1960 0.949 . S
C1964 C1972 1.574 . S
C1964 C1980 1.368 . S
H1965 C1973 0.950 . S
H1966 C1971 0.950 . S
H1967 C1972 0.949 . S
H1968 C1974 0.950 . S
H1969 C1975 0.950 . S
H1970 C1976 0.949 . S
C1971 H1966 0.950 . S
C1971 C1973 1.327 . S
C1971 C1977 1.429 . S
C1972 C1964 1.574 . S
C1972 H1967 0.949 . S
C1972 C1978 1.368 . S
C1973 C1957 1.349 . S
C1973 H1965 0.950 . S
C1973 C1971 1.327 . S
C1974 C1962 1.349 . S
C1974 H1968 0.950 . S
C1974 C1975 1.327 . S
C1975 H1969 0.950 . S
C1975 C1974 1.327 . S
C1975 C1979 1.429 . S
C1976 C1959 1.574 . S
C1976 H1970 0.949 . S
C1976 C1980 1.368 . S
C1977 C1958 1.429 . S
C1977 C1971 1.429 . S
C1977 C1978 1.523 . S
C1978 C1959 1.368 . S
C1978 C1972 1.368 . S
C1978 C1977 1.523 . S
C1979 C1963 1.429 . S
C1979 C1975 1.429 . S
C1979 C1980 1.523 . S
C1980 C1964 1.368 . S
C1980 C1976 1.368 . S
C1980 C1979 1.523 . S
H1981 C1956 0.950 . S
H1982 C1958 0.950 . S
H1983 C1959 0.949 . S
H1984 C1961 0.950 . S
H1985 C1963 0.950 . S
C1986 C1987 1.349 . S
C1986 C1988 1.327 1_655 S
C1986 H2011 0.950 . S
C1987 C1986 1.349 . S
C1987 C2003 1.350 . S
C1988 C1986 1.327 1_455 S
C1988 C2007 1.429 . S
C1988 H2012 0.950 . S
C1989 C2006 1.574 . S
C1989 C2008 1.368 . S
C1989 H2013 0.949 . S
H1990 C1994 0.949 . S
C1991 C1992 1.349 . S
C1991 C1993 1.327 . S
C1991 H2014 0.950 . S
C1992 C1991 1.349 . S
C1992 C2004 1.349 . S
C1993 C1991 1.327 . S
C1993 C2009 1.429 . S
C1993 H2015 0.950 . S
C1994 H1990 0.949 . S
C1994 C2002 1.574 . S
C1994 C2010 1.368 . S
H1995 C2003 0.950 . S
H1996 C2001 0.950 . S
H1997 C2002 0.949 . S
H1998 C2004 0.950 . S
H1999 C2005 0.950 . S
H2000 C2006 0.949 . S
C2001 H1996 0.950 . S
C2001 C2003 1.326 1_455 S
C2001 C2007 1.429 . S
C2002 C1994 1.574 . S
C2002 H1997 0.949 . S
C2002 C2008 1.368 . S
C2003 C1987 1.350 . S
C2003 H1995 0.950 . S
C2003 C2001 1.326 1_655 S
C2004 C1992 1.349 . S
C2004 H1998 0.950 . S
C2004 C2005 1.327 . S
C2005 H1999 0.950 . S
C2005 C2004 1.327 . S
C2005 C2009 1.429 . S
C2006 C1989 1.574 . S
C2006 H2000 0.949 . S
C2006 C2010 1.368 . S
C2007 C1988 1.429 . S
C2007 C2001 1.429 . S
C2007 C2008 1.523 . S
C2008 C1989 1.368 . S
C2008 C2002 1.368 . S
C2008 C2007 1.523 . S
C2009 C1993 1.429 . S
C2009 C2005 1.429 . S
C2009 C2010 1.523 . S
C2010 C1994 1.368 . S
C2010 C2006 1.368 . S
C2010 C2009 1.523 . S
H2011 C1986 0.950 . S
H2012 C1988 0.950 . S
H2013 C1989 0.949 . S
H2014 C1991 0.950 . S
H2015 C1993 0.950 . S
C2016 C2017 1.349 . S
C2016 C2018 1.327 . S
C2016 H2041 0.950 . S
C2017 C2016 1.349 . S
C2017 C2033 1.349 . S
C2018 C2016 1.327 . S
C2018 C2037 1.429 . S
C2018 H2042 0.950 . S
C2019 C2036 1.574 . S
C2019 C2038 1.368 . S
C2019 H2043 0.949 . S
H2020 C2024 0.949 . S
C2021 C2022 1.349 . S
C2021 C2023 1.327 . S
C2021 H2044 0.950 . S
C2022 C2021 1.349 . S
C2022 C2034 1.349 . S
C2023 C2021 1.327 . S
C2023 C2039 1.429 . S
C2023 H2045 0.950 . S
C2024 H2020 0.949 . S
C2024 C2032 1.574 . S
C2024 C2040 1.368 . S
H2025 C2033 0.950 . S
H2026 C2031 0.950 . S
H2027 C2032 0.949 . S
H2028 C2034 0.950 . S
H2029 C2035 0.950 . S
H2030 C2036 0.949 . S
C2031 H2026 0.950 . S
C2031 C2033 1.327 . S
C2031 C2037 1.429 . S
C2032 C2024 1.574 . S
C2032 H2027 0.949 . S
C2032 C2038 1.368 . S
C2033 C2017 1.349 . S
C2033 H2025 0.950 . S
C2033 C2031 1.327 . S
C2034 C2022 1.349 . S
C2034 H2028 0.950 . S
C2034 C2035 1.327 . S
C2035 H2029 0.950 . S
C2035 C2034 1.327 . S
C2035 C2039 1.429 . S
C2036 C2019 1.574 . S
C2036 H2030 0.949 . S
C2036 C2040 1.368 . S
C2037 C2018 1.429 . S
C2037 C2031 1.429 . S
C2037 C2038 1.523 . S
C2038 C2019 1.368 . S
C2038 C2032 1.368 . S
C2038 C2037 1.523 . S
C2039 C2023 1.429 . S
C2039 C2035 1.429 . S
C2039 C2040 1.523 . S
C2040 C2024 1.368 . S
C2040 C2036 1.368 . S
C2040 C2039 1.523 . S
H2041 C2016 0.950 . S
H2042 C2018 0.950 . S
H2043 C2019 0.949 . S
H2044 C2021 0.950 . S
H2045 C2023 0.950 . S
C2046 C2047 1.349 . S
C2046 C2048 1.327 . S
C2046 H2071 0.950 . S
C2047 C2046 1.349 . S
C2047 C2063 1.349 . S
C2048 C2046 1.327 . S
C2048 C2067 1.429 . S
C2048 H2072 0.950 . S
C2049 C2066 1.574 . S
C2049 C2068 1.368 . S
C2049 H2073 0.949 . S
H2050 C2054 0.949 . S
C2051 C2052 1.349 . S
C2051 C2053 1.327 . S
C2051 H2074 0.950 . S
C2052 C2051 1.349 . S
C2052 C2064 1.349 . S
C2053 C2051 1.327 . S
C2053 C2069 1.429 . S
C2053 H2075 0.950 . S
C2054 H2050 0.949 . S
C2054 C2062 1.574 . S
C2054 C2070 1.368 . S
H2055 C2063 0.950 . S
H2056 C2061 0.950 . S
H2057 C2062 0.949 . S
H2058 C2064 0.950 . S
H2059 C2065 0.950 . S
H2060 C2066 0.949 . S
C2061 H2056 0.950 . S
C2061 C2063 1.327 . S
C2061 C2067 1.429 . S
C2062 C2054 1.574 . S
C2062 H2057 0.949 . S
C2062 C2068 1.368 . S
C2063 C2047 1.349 . S
C2063 H2055 0.950 . S
C2063 C2061 1.327 . S
C2064 C2052 1.349 . S
C2064 H2058 0.950 . S
C2064 C2065 1.327 . S
C2065 H2059 0.950 . S
C2065 C2064 1.327 . S
C2065 C2069 1.429 . S
C2066 C2049 1.574 . S
C2066 H2060 0.949 . S
C2066 C2070 1.368 . S
C2067 C2048 1.429 . S
C2067 C2061 1.429 . S
C2067 C2068 1.523 . S
C2068 C2049 1.368 . S
C2068 C2062 1.368 . S
C2068 C2067 1.523 . S
C2069 C2053 1.429 . S
C2069 C2065 1.429 . S
C2069 C2070 1.523 . S
C2070 C2054 1.368 . S
C2070 C2066 1.368 . S
C2070 C2069 1.523 . S
H2071 C2046 0.950 . S
H2072 C2048 0.950 . S
H2073 C2049 0.949 . S
H2074 C2051 0.950 . S
H2075 C2053 0.950 . S
C2076 C2077 1.349 . S
C2076 C2078 1.327 . S
C2076 H2101 0.950 . S
C2077 C2076 1.349 . S
C2077 C2093 1.349 . S
C2078 C2076 1.327 . S
C2078 C2097 1.429 . S
C2078 H2102 0.950 . S
C2079 C2096 1.574 . S
C2079 C2098 1.368 . S
C2079 H2103 0.949 . S
H2080 C2084 0.949 . S
C2081 C2082 1.349 . S
C2081 C2083 1.327 . S
C2081 H2104 0.950 . S
C2082 C2081 1.349 . S
C2082 C2094 1.349 . S
C2083 C2081 1.327 . S
C2083 C2099 1.429 . S
C2083 H2105 0.950 . S
C2084 H2080 0.949 . S
C2084 C2092 1.574 . S
C2084 C2100 1.368 . S
H2085 C2093 0.950 . S
H2086 C2091 0.950 . S
H2087 C2092 0.949 . S
H2088 C2094 0.950 . S
H2089 C2095 0.950 . S
H2090 C2096 0.949 . S
C2091 H2086 0.950 . S
C2091 C2093 1.327 . S
C2091 C2097 1.429 . S
C2092 C2084 1.574 . S
C2092 H2087 0.949 . S
C2092 C2098 1.368 . S
C2093 C2077 1.349 . S
C2093 H2085 0.950 . S
C2093 C2091 1.327 . S
C2094 C2082 1.349 . S
C2094 H2088 0.950 . S
C2094 C2095 1.327 . S
C2095 H2089 0.950 . S
C2095 C2094 1.327 . S
C2095 C2099 1.429 . S
C2096 C2079 1.574 . S
C2096 H2090 0.949 . S
C2096 C2100 1.368 . S
C2097 C2078 1.429 . S
C2097 C2091 1.429 . S
C2097 C2098 1.523 . S
C2098 C2079 1.368 . S
C2098 C2092 1.368 . S
C2098 C2097 1.523 . S
C2099 C2083 1.429 . S
C2099 C2095 1.429 . S
C2099 C2100 1.523 . S
C2100 C2084 1.368 . S
C2100 C2096 1.368 . S
C2100 C2099 1.523 . S
H2101 C2076 0.950 . S
H2102 C2078 0.950 . S
H2103 C2079 0.949 . S
H2104 C2081 0.950 . S
H2105 C2083 0.950 . S
C2106 C2107 1.349 . S
C2106 C2108 1.327 1_655 S
C2106 H2131 0.950 . S
C2107 C2106 1.349 . S
C2107 C2123 1.349 . S
C2108 C2106 1.327 1_455 S
C2108 C2127 1.429 . S
C2108 H2132 0.950 . S
C2109 C2126 1.574 . S
C2109 C2128 1.368 . S
C2109 H2133 0.949 . S
H2110 C2114 0.949 . S
C2111 C2112 1.349 . S
C2111 C2113 1.327 . S
C2111 H2134 0.950 . S
C2112 C2111 1.349 . S
C2112 C2124 1.349 . S
C2113 C2111 1.327 . S
C2113 C2129 1.429 . S
C2113 H2135 0.950 . S
C2114 H2110 0.949 . S
C2114 C2122 1.574 . S
C2114 C2130 1.368 . S
H2115 C2123 0.950 . S
H2116 C2121 0.950 . S
H2117 C2122 0.949 . S
H2118 C2124 0.950 . S
H2119 C2125 0.950 . S
H2120 C2126 0.949 . S
C2121 H2116 0.950 . S
C2121 C2123 1.327 1_455 S
C2121 C2127 1.429 . S
C2122 C2114 1.574 . S
C2122 H2117 0.949 . S
C2122 C2128 1.368 . S
C2123 C2107 1.349 . S
C2123 H2115 0.950 . S
C2123 C2121 1.327 1_655 S
C2124 C2112 1.349 . S
C2124 H2118 0.950 . S
C2124 C2125 1.327 . S
C2125 H2119 0.950 . S
C2125 C2124 1.327 . S
C2125 C2129 1.429 . S
C2126 C2109 1.574 . S
C2126 H2120 0.949 . S
C2126 C2130 1.368 . S
C2127 C2108 1.429 . S
C2127 C2121 1.429 . S
C2127 C2128 1.523 . S
C2128 C2109 1.368 . S
C2128 C2122 1.368 . S
C2128 C2127 1.523 . S
C2129 C2113 1.429 . S
C2129 C2125 1.429 . S
C2129 C2130 1.523 . S
C2130 C2114 1.368 . S
C2130 C2126 1.368 . S
C2130 C2129 1.523 . S
H2131 C2106 0.950 . S
H2132 C2108 0.950 . S
H2133 C2109 0.949 . S
H2134 C2111 0.950 . S
H2135 C2113 0.950 . S
C2136 C2137 1.349 . S
C2136 C2138 1.327 . S
C2136 H2161 0.950 . S
C2137 C2136 1.349 . S
C2137 C2153 1.349 . S
C2138 C2136 1.327 . S
C2138 C2157 1.429 . S
C2138 H2162 0.950 . S
C2139 C2156 1.574 . S
C2139 C2158 1.368 . S
C2139 H2163 0.949 . S
H2140 C2144 0.949 . S
C2141 C2142 1.349 . S
C2141 C2143 1.327 . S
C2141 H2164 0.950 . S
C2142 C2141 1.349 . S
C2142 C2154 1.349 . S
C2143 C2141 1.327 . S
C2143 C2159 1.429 . S
C2143 H2165 0.950 . S
C2144 H2140 0.949 . S
C2144 C2152 1.574 . S
C2144 C2160 1.368 . S
H2145 C2153 0.950 . S
H2146 C2151 0.950 . S
H2147 C2152 0.949 . S
H2148 C2154 0.950 . S
H2149 C2155 0.950 . S
H2150 C2156 0.949 . S
C2151 H2146 0.950 . S
C2151 C2153 1.327 . S
C2151 C2157 1.429 . S
C2152 C2144 1.574 . S
C2152 H2147 0.949 . S
C2152 C2158 1.368 . S
C2153 C2137 1.349 . S
C2153 H2145 0.950 . S
C2153 C2151 1.327 . S
C2154 C2142 1.349 . S
C2154 H2148 0.950 . S
C2154 C2155 1.327 . S
C2155 H2149 0.950 . S
C2155 C2154 1.327 . S
C2155 C2159 1.429 . S
C2156 C2139 1.574 . S
C2156 H2150 0.949 . S
C2156 C2160 1.368 . S
C2157 C2138 1.429 . S
C2157 C2151 1.429 . S
C2157 C2158 1.523 . S
C2158 C2139 1.368 . S
C2158 C2152 1.368 . S
C2158 C2157 1.523 . S
C2159 C2143 1.429 . S
C2159 C2155 1.429 . S
C2159 C2160 1.523 . S
C2160 C2144 1.368 . S
C2160 C2156 1.368 . S
C2160 C2159 1.523 . S
H2161 C2136 0.950 . S
H2162 C2138 0.950 . S
H2163 C2139 0.949 . S
H2164 C2141 0.950 . S
H2165 C2143 0.950 . S
C2166 C2167 1.349 . S
C2166 C2168 1.327 . S
C2166 H2191 0.950 . S
C2167 C2166 1.349 . S
C2167 C2183 1.349 . S
C2168 C2166 1.327 . S
C2168 C2187 1.429 . S
C2168 H2192 0.950 . S
C2169 C2186 1.574 . S
C2169 C2188 1.368 . S
C2169 H2193 0.949 . S
H2170 C2174 0.949 . S
C2171 C2172 1.349 . S
C2171 C2173 1.327 1_655 S
C2171 H2194 0.950 . S
C2172 C2171 1.349 . S
C2172 C2184 1.301 1_655 S
C2173 C2171 1.327 1_455 S
C2173 C2189 1.429 . S
C2173 H2195 0.950 . S
C2174 H2170 0.949 . S
C2174 C2182 1.574 . S
C2174 C2190 1.368 . S
H2175 C2183 0.950 . S
H2176 C2181 0.950 . S
H2177 C2182 0.949 . S
H2178 C2184 0.935 1_655 S
H2179 C2185 0.950 . S
H2180 C2186 0.949 . S
C2181 H2176 0.950 . S
C2181 C2183 1.327 . S
C2181 C2187 1.429 . S
C2182 C2174 1.574 . S
C2182 H2177 0.949 . S
C2182 C2188 1.368 . S
C2183 C2167 1.349 . S
C2183 H2175 0.950 . S
C2183 C2181 1.327 . S
C2184 C2172 1.301 1_455 S
C2184 H2178 0.935 1_455 S
C2184 C2185 1.393 . S
C2185 H2179 0.950 . S
C2185 C2184 1.393 . S
C2185 C2189 1.429 . S
C2186 C2169 1.574 . S
C2186 H2180 0.949 . S
C2186 C2190 1.368 . S
C2187 C2168 1.429 . S
C2187 C2181 1.429 . S
C2187 C2188 1.523 . S
C2188 C2169 1.368 . S
C2188 C2182 1.368 . S
C2188 C2187 1.523 . S
C2189 C2173 1.429 . S
C2189 C2185 1.429 . S
C2189 C2190 1.523 . S
C2190 C2174 1.368 . S
C2190 C2186 1.368 . S
C2190 C2189 1.523 . S
H2191 C2166 0.950 . S
H2192 C2168 0.950 . S
H2193 C2169 0.949 . S
H2194 C2171 0.950 . S
H2195 C2173 0.950 . S
C2196 C2197 1.349 . S
C2196 C2198 1.327 . S
C2196 H2221 0.950 . S
C2197 C2196 1.349 . S
C2197 C2213 1.349 . S
C2198 C2196 1.327 . S
C2198 C2217 1.429 . S
C2198 H2222 0.950 . S
C2199 C2216 1.574 . S
C2199 C2218 1.368 . S
C2199 H2223 0.949 . S
H2200 C2204 0.949 . S
C2201 C2202 1.349 . S
C2201 C2203 1.327 . S
C2201 H2224 0.950 . S
C2202 C2201 1.349 . S
C2202 C2214 1.349 . S
C2203 C2201 1.327 . S
C2203 C2219 1.429 . S
C2203 H2225 0.950 . S
C2204 H2200 0.949 . S
C2204 C2212 1.574 . S
C2204 C2220 1.368 . S
H2205 C2213 0.950 . S
H2206 C2211 0.950 . S
H2207 C2212 0.949 . S
H2208 C2214 0.950 . S
H2209 C2215 0.950 . S
H2210 C2216 0.949 . S
C2211 H2206 0.950 . S
C2211 C2213 1.327 . S
C2211 C2217 1.429 . S
C2212 C2204 1.574 . S
C2212 H2207 0.949 . S
C2212 C2218 1.368 . S
C2213 C2197 1.349 . S
C2213 H2205 0.950 . S
C2213 C2211 1.327 . S
C2214 C2202 1.349 . S
C2214 H2208 0.950 . S
C2214 C2215 1.327 . S
C2215 H2209 0.950 . S
C2215 C2214 1.327 . S
C2215 C2219 1.429 . S
C2216 C2199 1.574 . S
C2216 H2210 0.949 . S
C2216 C2220 1.368 . S
C2217 C2198 1.429 . S
C2217 C2211 1.429 . S
C2217 C2218 1.523 . S
C2218 C2199 1.368 . S
C2218 C2212 1.368 . S
C2218 C2217 1.523 . S
C2219 C2203 1.429 . S
C2219 C2215 1.429 . S
C2219 C2220 1.523 . S
C2220 C2204 1.368 . S
C2220 C2216 1.368 . S
C2220 C2219 1.523 . S
H2221 C2196 0.950 . S
H2222 C2198 0.950 . S
H2223 C2199 0.949 . S
H2224 C2201 0.950 . S
H2225 C2203 0.950 . S
C2226 C2227 1.349 . S
C2226 C2228 1.327 . S
C2226 H2251 0.950 . S
C2227 C2226 1.349 . S
C2227 C2243 1.349 . S
C2228 C2226 1.327 . S
C2228 C2247 1.429 . S
C2228 H2252 0.950 . S
C2229 C2246 1.574 . S
C2229 C2248 1.368 . S
C2229 H2253 0.949 . S
H2230 C2234 0.949 . S
C2231 C2232 1.349 . S
C2231 C2233 1.327 . S
C2231 H2254 0.950 . S
C2232 C2231 1.349 . S
C2232 C2244 1.349 . S
C2233 C2231 1.327 . S
C2233 C2249 1.429 . S
C2233 H2255 0.950 . S
C2234 H2230 0.949 . S
C2234 C2242 1.574 . S
C2234 C2250 1.368 . S
H2235 C2243 0.950 . S
H2236 C2241 0.950 . S
H2237 C2242 0.949 . S
H2238 C2244 0.950 . S
H2239 C2245 0.950 . S
H2240 C2246 0.949 . S
C2241 H2236 0.950 . S
C2241 C2243 1.327 . S
C2241 C2247 1.429 . S
C2242 C2234 1.574 . S
C2242 H2237 0.949 . S
C2242 C2248 1.368 . S
C2243 C2227 1.349 . S
C2243 H2235 0.950 . S
C2243 C2241 1.327 . S
C2244 C2232 1.349 . S
C2244 H2238 0.950 . S
C2244 C2245 1.327 . S
C2245 H2239 0.950 . S
C2245 C2244 1.327 . S
C2245 C2249 1.429 . S
C2246 C2229 1.574 . S
C2246 H2240 0.949 . S
C2246 C2250 1.368 . S
C2247 C2228 1.429 . S
C2247 C2241 1.429 . S
C2247 C2248 1.523 . S
C2248 C2229 1.368 . S
C2248 C2242 1.368 . S
C2248 C2247 1.523 . S
C2249 C2233 1.429 . S
C2249 C2245 1.429 . S
C2249 C2250 1.523 . S
C2250 C2234 1.368 . S
C2250 C2246 1.368 . S
C2250 C2249 1.523 . S
H2251 C2226 0.950 . S
H2252 C2228 0.950 . S
H2253 C2229 0.949 . S
H2254 C2231 0.950 . S
H2255 C2233 0.950 . S
C2256 C2257 1.349 . S
C2256 C2258 1.327 . S
C2256 H2281 0.950 . S
C2257 C2256 1.349 . S
C2257 C2273 1.349 . S
C2258 C2256 1.327 . S
C2258 C2277 1.429 . S
C2258 H2282 0.950 . S
C2259 C2276 1.574 . S
C2259 C2278 1.368 . S
C2259 H2283 0.949 . S
H2260 C2264 0.949 . S
C2261 C2262 1.349 . S
C2261 C2263 1.327 . S
C2261 H2284 0.950 . S
C2262 C2261 1.349 . S
C2262 C2274 1.349 . S
C2263 C2261 1.327 . S
C2263 C2279 1.429 . S
C2263 H2285 0.950 . S
C2264 H2260 0.949 . S
C2264 C2272 1.574 . S
C2264 C2280 1.368 . S
H2265 C2273 0.950 . S
H2266 C2271 0.950 . S
H2267 C2272 0.949 . S
H2268 C2274 0.950 . S
H2269 C2275 0.950 . S
H2270 C2276 0.949 . S
C2271 H2266 0.950 . S
C2271 C2273 1.327 . S
C2271 C2277 1.429 . S
C2272 C2264 1.574 . S
C2272 H2267 0.949 . S
C2272 C2278 1.368 . S
C2273 C2257 1.349 . S
C2273 H2265 0.950 . S
C2273 C2271 1.327 . S
C2274 C2262 1.349 . S
C2274 H2268 0.950 . S
C2274 C2275 1.327 . S
C2275 H2269 0.950 . S
C2275 C2274 1.327 . S
C2275 C2279 1.429 . S
C2276 C2259 1.574 . S
C2276 H2270 0.949 . S
C2276 C2280 1.368 . S
C2277 C2258 1.429 . S
C2277 C2271 1.429 . S
C2277 C2278 1.523 . S
C2278 C2259 1.368 . S
C2278 C2272 1.368 . S
C2278 C2277 1.523 . S
C2279 C2263 1.429 . S
C2279 C2275 1.429 . S
C2279 C2280 1.523 . S
C2280 C2264 1.368 . S
C2280 C2276 1.368 . S
C2280 C2279 1.523 . S
H2281 C2256 0.950 . S
H2282 C2258 0.950 . S
H2283 C2259 0.949 . S
H2284 C2261 0.950 . S
H2285 C2263 0.950 . S
C2286 C2287 1.349 . S
C2286 C2288 1.327 . S
C2286 H2311 0.950 . S
C2287 C2286 1.349 . S
C2287 C2303 1.349 . S
C2288 C2286 1.327 . S
C2288 C2307 1.429 . S
C2288 H2312 0.950 . S
C2289 C2306 1.574 . S
C2289 C2308 1.368 . S
C2289 H2313 0.949 . S
H2290 C2294 0.949 . S
C2291 C2292 1.349 . S
C2291 C2293 1.327 . S
C2291 H2314 0.950 . S
C2292 C2291 1.349 . S
C2292 C2304 1.349 . S
C2293 C2291 1.327 . S
C2293 C2309 1.429 . S
C2293 H2315 0.950 . S
C2294 H2290 0.949 . S
C2294 C2302 1.574 . S
C2294 C2310 1.368 . S
H2295 C2303 0.950 . S
H2296 C2301 0.950 . S
H2297 C2302 0.949 . S
H2298 C2304 0.950 . S
H2299 C2305 0.950 . S
H2300 C2306 0.949 . S
C2301 H2296 0.950 . S
C2301 C2303 1.327 . S
C2301 C2307 1.429 . S
C2302 C2294 1.574 . S
C2302 H2297 0.949 . S
C2302 C2308 1.368 . S
C2303 C2287 1.349 . S
C2303 H2295 0.950 . S
C2303 C2301 1.327 . S
C2304 C2292 1.349 . S
C2304 H2298 0.950 . S
C2304 C2305 1.327 . S
C2305 H2299 0.950 . S
C2305 C2304 1.327 . S
C2305 C2309 1.429 . S
C2306 C2289 1.574 . S
C2306 H2300 0.949 . S
C2306 C2310 1.368 . S
C2307 C2288 1.429 . S
C2307 C2301 1.429 . S
C2307 C2308 1.523 . S
C2308 C2289 1.368 . S
C2308 C2302 1.368 . S
C2308 C2307 1.523 . S
C2309 C2293 1.429 . S
C2309 C2305 1.429 . S
C2309 C2310 1.523 . S
C2310 C2294 1.368 . S
C2310 C2306 1.368 . S
C2310 C2309 1.523 . S
H2311 C2286 0.950 . S
H2312 C2288 0.950 . S
H2313 C2289 0.949 . S
H2314 C2291 0.950 . S
H2315 C2293 0.950 . S
C2316 C2317 1.349 . S
C2316 C2318 1.327 . S
C2316 H2341 0.950 . S
C2317 C2316 1.349 . S
C2317 C2333 1.349 . S
C2318 C2316 1.327 . S
C2318 C2337 1.429 . S
C2318 H2342 0.950 . S
C2319 C2336 1.574 . S
C2319 C2338 1.368 . S
C2319 H2343 0.949 . S
H2320 C2324 0.949 . S
C2321 C2322 1.349 . S
C2321 C2323 1.327 . S
C2321 H2344 0.950 . S
C2322 C2321 1.349 . S
C2322 C2334 1.349 . S
C2323 C2321 1.327 . S
C2323 C2339 1.429 . S
C2323 H2345 0.950 . S
C2324 H2320 0.949 . S
C2324 C2332 1.574 . S
C2324 C2340 1.368 . S
H2325 C2333 0.950 . S
H2326 C2331 0.950 . S
H2327 C2332 0.949 . S
H2328 C2334 0.950 . S
H2329 C2335 0.950 . S
H2330 C2336 0.949 . S
C2331 H2326 0.950 . S
C2331 C2333 1.327 . S
C2331 C2337 1.429 . S
C2332 C2324 1.574 . S
C2332 H2327 0.949 . S
C2332 C2338 1.368 . S
C2333 C2317 1.349 . S
C2333 H2325 0.950 . S
C2333 C2331 1.327 . S
C2334 C2322 1.349 . S
C2334 H2328 0.950 . S
C2334 C2335 1.327 . S
C2335 H2329 0.950 . S
C2335 C2334 1.327 . S
C2335 C2339 1.429 . S
C2336 C2319 1.574 . S
C2336 H2330 0.949 . S
C2336 C2340 1.368 . S
C2337 C2318 1.429 . S
C2337 C2331 1.429 . S
C2337 C2338 1.523 . S
C2338 C2319 1.368 . S
C2338 C2332 1.368 . S
C2338 C2337 1.523 . S
C2339 C2323 1.429 . S
C2339 C2335 1.429 . S
C2339 C2340 1.523 . S
C2340 C2324 1.368 . S
C2340 C2336 1.368 . S
C2340 C2339 1.523 . S
H2341 C2316 0.950 . S
H2342 C2318 0.950 . S
H2343 C2319 0.949 . S
H2344 C2321 0.950 . S
H2345 C2323 0.950 . S
C2346 C2347 1.349 . S
C2346 C2348 1.327 . S
C2346 H2371 0.950 . S
C2347 C2346 1.349 . S
C2347 C2363 1.349 . S
C2348 C2346 1.327 . S
C2348 C2367 1.429 . S
C2348 H2372 0.950 . S
C2349 C2366 1.574 . S
C2349 C2368 1.368 . S
C2349 H2373 0.949 . S
H2350 C2354 0.949 . S
C2351 C2352 1.349 . S
C2351 C2353 1.327 1_455 S
C2351 H2374 0.950 . S
C2352 C2351 1.349 . S
C2352 C2364 1.301 1_455 S
C2353 C2351 1.327 1_655 S
C2353 C2369 1.429 . S
C2353 H2375 0.950 . S
C2354 H2350 0.949 . S
C2354 C2362 1.574 . S
C2354 C2370 1.368 . S
H2355 C2363 0.950 . S
H2356 C2361 0.950 . S
H2357 C2362 0.949 . S
H2358 C2364 0.935 1_455 S
H2359 C2365 0.950 . S
H2360 C2366 0.949 . S
C2361 H2356 0.950 . S
C2361 C2363 1.327 . S
C2361 C2367 1.429 . S
C2362 C2354 1.574 . S
C2362 H2357 0.949 . S
C2362 C2368 1.368 . S
C2363 C2347 1.349 . S
C2363 H2355 0.950 . S
C2363 C2361 1.327 . S
C2364 C2352 1.301 1_655 S
C2364 H2358 0.935 1_655 S
C2364 C2365 1.393 . S
C2365 H2359 0.950 . S
C2365 C2364 1.393 . S
C2365 C2369 1.429 . S
C2366 C2349 1.574 . S
C2366 H2360 0.949 . S
C2366 C2370 1.368 . S
C2367 C2348 1.429 . S
C2367 C2361 1.429 . S
C2367 C2368 1.523 . S
C2368 C2349 1.368 . S
C2368 C2362 1.368 . S
C2368 C2367 1.523 . S
C2369 C2353 1.429 . S
C2369 C2365 1.429 . S
C2369 C2370 1.523 . S
C2370 C2354 1.368 . S
C2370 C2366 1.368 . S
C2370 C2369 1.523 . S
H2371 C2346 0.950 . S
H2372 C2348 0.950 . S
H2373 C2349 0.949 . S
H2374 C2351 0.950 . S
H2375 C2353 0.950 . S
C2376 C2377 1.349 . S
C2376 C2378 1.327 . S
C2376 H2401 0.950 . S
C2377 C2376 1.349 . S
C2377 C2393 1.349 . S
C2378 C2376 1.327 . S
C2378 C2397 1.429 . S
C2378 H2402 0.950 . S
C2379 C2396 1.574 . S
C2379 C2398 1.368 . S
C2379 H2403 0.949 . S
H2380 C2384 0.949 . S
C2381 C2382 1.349 . S
C2381 C2383 1.327 . S
C2381 H2404 0.950 . S
C2382 C2381 1.349 . S
C2382 C2394 1.349 . S
C2383 C2381 1.327 . S
C2383 C2399 1.429 . S
C2383 H2405 0.950 . S
C2384 H2380 0.949 . S
C2384 C2392 1.574 . S
C2384 C2400 1.368 . S
H2385 C2393 0.950 . S
H2386 C2391 0.950 . S
H2387 C2392 0.949 . S
H2388 C2394 0.950 . S
H2389 C2395 0.950 . S
H2390 C2396 0.949 . S
C2391 H2386 0.950 . S
C2391 C2393 1.327 . S
C2391 C2397 1.429 . S
C2392 C2384 1.574 . S
C2392 H2387 0.949 . S
C2392 C2398 1.368 . S
C2393 C2377 1.349 . S
C2393 H2385 0.950 . S
C2393 C2391 1.327 . S
C2394 C2382 1.349 . S
C2394 H2388 0.950 . S
C2394 C2395 1.327 . S
C2395 H2389 0.950 . S
C2395 C2394 1.327 . S
C2395 C2399 1.429 . S
C2396 C2379 1.574 . S
C2396 H2390 0.949 . S
C2396 C2400 1.368 . S
C2397 C2378 1.429 . S
C2397 C2391 1.429 . S
C2397 C2398 1.523 . S
C2398 C2379 1.368 . S
C2398 C2392 1.368 . S
C2398 C2397 1.523 . S
C2399 C2383 1.429 . S
C2399 C2395 1.429 . S
C2399 C2400 1.523 . S
C2400 C2384 1.368 . S
C2400 C2396 1.368 . S
C2400 C2399 1.523 . S
H2401 C2376 0.950 . S
H2402 C2378 0.950 . S
H2403 C2379 0.949 . S
H2404 C2381 0.950 . S
H2405 C2383 0.950 . S
C2406 C2407 1.349 . S
C2406 C2408 1.327 1_455 S
C2406 H2431 0.950 . S
C2407 C2406 1.349 . S
C2407 C2423 1.373 . S
C2408 C2406 1.327 1_655 S
C2408 C2427 1.429 . S
C2408 H2432 0.950 . S
C2409 C2426 1.574 . S
C2409 C2428 1.368 . S
C2409 H2433 0.949 . S
H2410 C2414 0.949 . S
C2411 C2412 1.349 . S
C2411 C2413 1.327 . S
C2411 H2434 0.950 . S
C2412 C2411 1.349 . S
C2412 C2424 1.349 . S
C2413 C2411 1.327 . S
C2413 C2429 1.429 . S
C2413 H2435 0.950 . S
C2414 H2410 0.949 . S
C2414 C2422 1.574 . S
C2414 C2430 1.368 . S
H2415 C2423 0.963 . S
H2416 C2421 0.950 . S
H2417 C2422 0.949 . S
H2418 C2424 0.950 . S
H2419 C2425 0.950 . S
H2420 C2426 0.949 . S
C2421 H2416 0.950 . S
C2421 C2423 1.290 1_655 S
C2421 C2427 1.429 . S
C2422 C2414 1.574 . S
C2422 H2417 0.949 . S
C2422 C2428 1.368 . S
C2423 C2407 1.373 . S
C2423 H2415 0.963 . S
C2423 C2421 1.290 1_455 S
C2424 C2412 1.349 . S
C2424 H2418 0.950 . S
C2424 C2425 1.327 . S
C2425 H2419 0.950 . S
C2425 C2424 1.327 . S
C2425 C2429 1.429 . S
C2426 C2409 1.574 . S
C2426 H2420 0.949 . S
C2426 C2430 1.368 . S
C2427 C2408 1.429 . S
C2427 C2421 1.429 . S
C2427 C2428 1.523 . S
C2428 C2409 1.368 . S
C2428 C2422 1.368 . S
C2428 C2427 1.523 . S
C2429 C2413 1.429 . S
C2429 C2425 1.429 . S
C2429 C2430 1.523 . S
C2430 C2414 1.368 . S
C2430 C2426 1.368 . S
C2430 C2429 1.523 . S
H2431 C2406 0.950 . S
H2432 C2408 0.950 . S
H2433 C2409 0.949 . S
H2434 C2411 0.950 . S
H2435 C2413 0.950 . S
C2436 C2437 1.349 . S
C2436 C2438 1.327 . S
C2436 H2461 0.950 . S
C2437 C2436 1.349 . S
C2437 C2453 1.349 . S
C2438 C2436 1.327 . S
C2438 C2457 1.429 . S
C2438 H2462 0.950 . S
C2439 C2456 1.574 . S
C2439 C2458 1.368 . S
C2439 H2463 0.949 . S
H2440 C2444 0.949 . S
C2441 C2442 1.349 . S
C2441 C2443 1.327 . S
C2441 H2464 0.950 . S
C2442 C2441 1.349 . S
C2442 C2454 1.349 . S
C2443 C2441 1.327 . S
C2443 C2459 1.429 . S
C2443 H2465 0.950 . S
C2444 H2440 0.949 . S
C2444 C2452 1.574 . S
C2444 C2460 1.368 . S
H2445 C2453 0.950 . S
H2446 C2451 0.950 . S
H2447 C2452 0.949 . S
H2448 C2454 0.950 . S
H2449 C2455 0.950 . S
H2450 C2456 0.949 . S
C2451 H2446 0.950 . S
C2451 C2453 1.327 . S
C2451 C2457 1.429 . S
C2452 C2444 1.574 . S
C2452 H2447 0.949 . S
C2452 C2458 1.368 . S
C2453 C2437 1.349 . S
C2453 H2445 0.950 . S
C2453 C2451 1.327 . S
C2454 C2442 1.349 . S
C2454 H2448 0.950 . S
C2454 C2455 1.327 . S
C2455 H2449 0.950 . S
C2455 C2454 1.327 . S
C2455 C2459 1.429 . S
C2456 C2439 1.574 . S
C2456 H2450 0.949 . S
C2456 C2460 1.368 . S
C2457 C2438 1.429 . S
C2457 C2451 1.429 . S
C2457 C2458 1.523 . S
C2458 C2439 1.368 . S
C2458 C2452 1.368 . S
C2458 C2457 1.523 . S
C2459 C2443 1.429 . S
C2459 C2455 1.429 . S
C2459 C2460 1.523 . S
C2460 C2444 1.368 . S
C2460 C2456 1.368 . S
C2460 C2459 1.523 . S
H2461 C2436 0.950 . S
H2462 C2438 0.950 . S
H2463 C2439 0.949 . S
H2464 C2441 0.950 . S
H2465 C2443 0.950 . S
C2466 C2467 1.349 . S
C2466 C2468 1.327 . S
C2466 H2491 0.950 . S
C2467 C2466 1.349 . S
C2467 C2483 1.349 . S
C2468 C2466 1.327 . S
C2468 C2487 1.429 . S
C2468 H2492 0.950 . S
C2469 C2486 1.574 . S
C2469 C2488 1.368 . S
C2469 H2493 0.949 . S
H2470 C2474 0.949 . S
C2471 C2472 1.349 . S
C2471 C2473 1.327 . S
C2471 H2494 0.950 . S
C2472 C2471 1.349 . S
C2472 C2484 1.349 . S
C2473 C2471 1.327 . S
C2473 C2489 1.429 . S
C2473 H2495 0.950 . S
C2474 H2470 0.949 . S
C2474 C2482 1.574 . S
C2474 C2490 1.368 . S
H2475 C2483 0.950 . S
H2476 C2481 0.950 . S
H2477 C2482 0.949 . S
H2478 C2484 0.950 . S
H2479 C2485 0.950 . S
H2480 C2486 0.949 . S
C2481 H2476 0.950 . S
C2481 C2483 1.327 . S
C2481 C2487 1.429 . S
C2482 C2474 1.574 . S
C2482 H2477 0.949 . S
C2482 C2488 1.368 . S
C2483 C2467 1.349 . S
C2483 H2475 0.950 . S
C2483 C2481 1.327 . S
C2484 C2472 1.349 . S
C2484 H2478 0.950 . S
C2484 C2485 1.327 . S
C2485 H2479 0.950 . S
C2485 C2484 1.327 . S
C2485 C2489 1.429 . S
C2486 C2469 1.574 . S
C2486 H2480 0.949 . S
C2486 C2490 1.368 . S
C2487 C2468 1.429 . S
C2487 C2481 1.429 . S
C2487 C2488 1.523 . S
C2488 C2469 1.368 . S
C2488 C2482 1.368 . S
C2488 C2487 1.523 . S
C2489 C2473 1.429 . S
C2489 C2485 1.429 . S
C2489 C2490 1.523 . S
C2490 C2474 1.368 . S
C2490 C2486 1.368 . S
C2490 C2489 1.523 . S
H2491 C2466 0.950 . S
H2492 C2468 0.950 . S
H2493 C2469 0.949 . S
H2494 C2471 0.950 . S
H2495 C2473 0.950 . S
C2496 C2497 1.349 . S
C2496 C2498 1.327 . S
C2496 H2521 0.950 . S
C2497 C2496 1.349 . S
C2497 C2513 1.349 . S
C2498 C2496 1.327 . S
C2498 C2517 1.429 . S
C2498 H2522 0.950 . S
C2499 C2516 1.574 . S
C2499 C2518 1.368 . S
C2499 H2523 0.949 . S
H2500 C2504 0.949 . S
C2501 C2502 1.349 . S
C2501 C2503 1.327 . S
C2501 H2524 0.950 . S
C2502 C2501 1.349 . S
C2502 C2514 1.349 . S
C2503 C2501 1.327 . S
C2503 C2519 1.429 . S
C2503 H2525 0.950 . S
C2504 H2500 0.949 . S
C2504 C2512 1.574 . S
C2504 C2520 1.368 . S
H2505 C2513 0.950 . S
H2506 C2511 0.950 . S
H2507 C2512 0.949 . S
H2508 C2514 0.950 . S
H2509 C2515 0.950 . S
H2510 C2516 0.949 . S
C2511 H2506 0.950 . S
C2511 C2513 1.327 . S
C2511 C2517 1.429 . S
C2512 C2504 1.574 . S
C2512 H2507 0.949 . S
C2512 C2518 1.368 . S
C2513 C2497 1.349 . S
C2513 H2505 0.950 . S
C2513 C2511 1.327 . S
C2514 C2502 1.349 . S
C2514 H2508 0.950 . S
C2514 C2515 1.327 . S
C2515 H2509 0.950 . S
C2515 C2514 1.327 . S
C2515 C2519 1.429 . S
C2516 C2499 1.574 . S
C2516 H2510 0.949 . S
C2516 C2520 1.368 . S
C2517 C2498 1.429 . S
C2517 C2511 1.429 . S
C2517 C2518 1.523 . S
C2518 C2499 1.368 . S
C2518 C2512 1.368 . S
C2518 C2517 1.523 . S
C2519 C2503 1.429 . S
C2519 C2515 1.429 . S
C2519 C2520 1.523 . S
C2520 C2504 1.368 . S
C2520 C2516 1.368 . S
C2520 C2519 1.523 . S
H2521 C2496 0.950 . S
H2522 C2498 0.950 . S
H2523 C2499 0.949 . S
H2524 C2501 0.950 . S
H2525 C2503 0.950 . S
C2526 C2527 1.349 . S
C2526 C2528 1.327 . S
C2526 H2551 0.950 . S
C2527 C2526 1.349 . S
C2527 C2543 1.349 . S
C2528 C2526 1.327 . S
C2528 C2547 1.429 . S
C2528 H2552 0.950 . S
C2529 C2546 1.574 1_455 S
C2529 C2548 1.368 1_545 S
C2529 H2553 0.949 . S
H2530 C2534 0.949 . S
C2531 C2532 1.349 . S
C2531 C2533 1.327 . S
C2531 H2554 0.950 . S
C2532 C2531 1.349 . S
C2532 C2544 1.349 . S
C2533 C2531 1.327 . S
C2533 C2549 1.429 . S
C2533 H2555 0.950 . S
C2534 H2530 0.949 . S
C2534 C2542 1.574 1_655 S
C2534 C2550 1.368 1_565 S
H2535 C2543 0.950 . S
H2536 C2541 0.950 . S
H2537 C2542 0.949 . S
H2538 C2544 0.950 . S
H2539 C2545 0.950 . S
H2540 C2546 0.949 . S
C2541 H2536 0.950 . S
C2541 C2543 1.327 . S
C2541 C2547 1.429 . S
C2542 C2534 1.574 1_455 S
C2542 H2537 0.949 . S
C2542 C2548 1.368 . S
C2543 C2527 1.349 . S
C2543 H2535 0.950 . S
C2543 C2541 1.327 . S
C2544 C2532 1.349 . S
C2544 H2538 0.950 . S
C2544 C2545 1.327 . S
C2545 H2539 0.950 . S
C2545 C2544 1.327 . S
C2545 C2549 1.429 . S
C2546 C2529 1.574 1_655 S
C2546 H2540 0.949 . S
C2546 C2550 1.368 . S
C2547 C2528 1.429 . S
C2547 C2541 1.429 . S
C2547 C2548 1.523 . S
C2548 C2529 1.368 1_565 S
C2548 C2542 1.368 . S
C2548 C2547 1.523 . S
C2549 C2533 1.429 . S
C2549 C2545 1.429 . S
C2549 C2550 1.523 . S
C2550 C2534 1.368 1_545 S
C2550 C2546 1.368 . S
C2550 C2549 1.523 . S
H2551 C2526 0.950 . S
H2552 C2528 0.950 . S
H2553 C2529 0.949 . S
H2554 C2531 0.950 . S
H2555 C2533 0.950 . S
C2556 C2557 1.349 . S
C2556 C2558 1.327 . S
C2556 H2581 0.950 . S
C2557 C2556 1.349 . S
C2557 C2573 1.349 . S
C2558 C2556 1.327 . S
C2558 C2577 1.429 . S
C2558 H2582 0.950 . S
C2559 C2576 1.574 . S
C2559 C2578 1.368 . S
C2559 H2583 0.949 . S
H2560 C2564 0.949 . S
C2561 C2562 1.349 . S
C2561 C2563 1.327 . S
C2561 H2584 0.950 . S
C2562 C2561 1.349 . S
C2562 C2574 1.349 . S
C2563 C2561 1.327 . S
C2563 C2579 1.429 . S
C2563 H2585 0.950 . S
C2564 H2560 0.949 . S
C2564 C2572 1.574 . S
C2564 C2580 1.368 . S
H2565 C2573 0.950 . S
H2566 C2571 0.950 . S
H2567 C2572 0.949 . S
H2568 C2574 0.950 . S
H2569 C2575 0.950 . S
H2570 C2576 0.949 . S
C2571 H2566 0.950 . S
C2571 C2573 1.327 . S
C2571 C2577 1.429 . S
C2572 C2564 1.574 . S
C2572 H2567 0.949 . S
C2572 C2578 1.368 . S
C2573 C2557 1.349 . S
C2573 H2565 0.950 . S
C2573 C2571 1.327 . S
C2574 C2562 1.349 . S
C2574 H2568 0.950 . S
C2574 C2575 1.327 . S
C2575 H2569 0.950 . S
C2575 C2574 1.327 . S
C2575 C2579 1.429 . S
C2576 C2559 1.574 . S
C2576 H2570 0.949 . S
C2576 C2580 1.368 . S
C2577 C2558 1.429 . S
C2577 C2571 1.429 . S
C2577 C2578 1.523 . S
C2578 C2559 1.368 . S
C2578 C2572 1.368 . S
C2578 C2577 1.523 . S
C2579 C2563 1.429 . S
C2579 C2575 1.429 . S
C2579 C2580 1.523 . S
C2580 C2564 1.368 . S
C2580 C2576 1.368 . S
C2580 C2579 1.523 . S
H2581 C2556 0.950 . S
H2582 C2558 0.950 . S
H2583 C2559 0.949 . S
H2584 C2561 0.950 . S
H2585 C2563 0.950 . S
C2586 C2587 1.349 . S
C2586 C2588 1.327 . S
C2586 H2611 0.950 . S
C2587 C2586 1.349 . S
C2587 C2603 1.349 . S
C2588 C2586 1.327 . S
C2588 C2607 1.429 . S
C2588 H2612 0.950 . S
C2589 C2606 1.574 . S
C2589 C2608 1.368 1_554 S
C2589 H2613 0.949 . S
H2590 C2594 0.949 . S
C2591 C2592 1.349 . S
C2591 C2593 1.327 . S
C2591 H2614 0.950 . S
C2592 C2591 1.349 . S
C2592 C2604 1.349 . S
C2593 C2591 1.327 . S
C2593 C2609 1.429 . S
C2593 H2615 0.950 . S
C2594 H2590 0.949 . S
C2594 C2602 1.574 . S
C2594 C2610 1.368 1_556 S
H2595 C2603 0.950 1_554 S
H2596 C2601 0.950 . S
H2597 C2602 0.949 . S
H2598 C2604 0.950 1_556 S
H2599 C2605 0.950 . S
H2600 C2606 0.949 . S
C2601 H2596 0.950 . S
C2601 C2603 1.327 1_554 S
C2601 C2607 1.429 1_554 S
C2602 C2594 1.574 . S
C2602 H2597 0.949 . S
C2602 C2608 1.368 1_545 S
C2603 C2587 1.349 . S
C2603 H2595 0.950 1_556 S
C2603 C2601 1.327 1_556 S
C2604 C2592 1.349 . S
C2604 H2598 0.950 1_554 S
C2604 C2605 1.327 1_554 S
C2605 H2599 0.950 . S
C2605 C2604 1.327 1_556 S
C2605 C2609 1.429 1_556 S
C2606 C2589 1.574 . S
C2606 H2600 0.949 . S
C2606 C2610 1.368 1_565 S
C2607 C2588 1.429 . S
C2607 C2601 1.429 1_556 S
C2607 C2608 1.523 . S
C2608 C2589 1.368 1_556 S
C2608 C2602 1.368 1_565 S
C2608 C2607 1.523 . S
C2609 C2593 1.429 . S
C2609 C2605 1.429 1_554 S
C2609 C2610 1.523 . S
C2610 C2594 1.368 1_554 S
C2610 C2606 1.368 1_545 S
C2610 C2609 1.523 . S
H2611 C2586 0.950 . S
H2612 C2588 0.950 . S
H2613 C2589 0.949 . S
H2614 C2591 0.950 . S
H2615 C2593 0.950 . S
C2616 C2617 1.349 . S
C2616 C2618 1.327 . S
C2616 H2641 0.950 . S
C2617 C2616 1.349 . S
C2617 C2633 1.349 . S
C2618 C2616 1.327 . S
C2618 C2637 1.429 . S
C2618 H2642 0.950 . S
C2619 C2636 1.574 . S
C2619 C2638 1.368 . S
C2619 H2643 0.949 . S
H2620 C2624 0.949 . S
C2621 C2622 1.349 . S
C2621 C2623 1.327 . S
C2621 H2644 0.950 . S
C2622 C2621 1.349 . S
C2622 C2634 1.349 . S
C2623 C2621 1.327 . S
C2623 C2639 1.429 . S
C2623 H2645 0.950 . S
C2624 H2620 0.949 . S
C2624 C2632 1.574 . S
C2624 C2640 1.368 . S
H2625 C2633 0.950 . S
H2626 C2631 0.950 . S
H2627 C2632 0.949 . S
H2628 C2634 0.950 . S
H2629 C2635 0.950 . S
H2630 C2636 0.949 . S
C2631 H2626 0.950 . S
C2631 C2633 1.327 . S
C2631 C2637 1.429 . S
C2632 C2624 1.574 . S
C2632 H2627 0.949 . S
C2632 C2638 1.368 . S
C2633 C2617 1.349 . S
C2633 H2625 0.950 . S
C2633 C2631 1.327 . S
C2634 C2622 1.349 . S
C2634 H2628 0.950 . S
C2634 C2635 1.327 . S
C2635 H2629 0.950 . S
C2635 C2634 1.327 . S
C2635 C2639 1.429 . S
C2636 C2619 1.574 . S
C2636 H2630 0.949 . S
C2636 C2640 1.368 . S
C2637 C2618 1.429 . S
C2637 C2631 1.429 . S
C2637 C2638 1.523 . S
C2638 C2619 1.368 . S
C2638 C2632 1.368 . S
C2638 C2637 1.523 . S
C2639 C2623 1.429 . S
C2639 C2635 1.429 . S
C2639 C2640 1.523 . S
C2640 C2624 1.368 . S
C2640 C2636 1.368 . S
C2640 C2639 1.523 . S
H2641 C2616 0.950 . S
H2642 C2618 0.950 . S
H2643 C2619 0.949 . S
H2644 C2621 0.950 . S
H2645 C2623 0.950 . S
C2646 C2647 1.349 . S
C2646 C2648 1.327 . S
C2646 H2671 0.950 . S
C2647 C2646 1.349 . S
C2647 C2663 1.349 . S
C2648 C2646 1.327 . S
C2648 C2667 1.429 . S
C2648 H2672 0.950 . S
C2649 C2666 1.574 . S
C2649 C2668 1.368 1_545 S
C2649 H2673 0.949 . S
H2650 C2654 0.949 . S
C2651 C2652 1.349 . S
C2651 C2653 1.327 . S
C2651 H2674 0.950 . S
C2652 C2651 1.349 . S
C2652 C2664 1.349 . S
C2653 C2651 1.327 . S
C2653 C2669 1.429 . S
C2653 H2675 0.950 . S
C2654 H2650 0.949 . S
C2654 C2662 1.574 . S
C2654 C2670 1.368 1_565 S
H2655 C2663 0.950 . S
H2656 C2661 0.950 . S
H2657 C2662 0.949 . S
H2658 C2664 0.950 . S
H2659 C2665 0.950 . S
H2660 C2666 0.949 . S
C2661 H2656 0.950 . S
C2661 C2663 1.327 . S
C2661 C2667 1.429 . S
C2662 C2654 1.574 . S
C2662 H2657 0.949 . S
C2662 C2668 1.368 . S
C2663 C2647 1.349 . S
C2663 H2655 0.950 . S
C2663 C2661 1.327 . S
C2664 C2652 1.349 . S
C2664 H2658 0.950 . S
C2664 C2665 1.327 . S
C2665 H2659 0.950 . S
C2665 C2664 1.327 . S
C2665 C2669 1.429 . S
C2666 C2649 1.574 . S
C2666 H2660 0.949 . S
C2666 C2670 1.368 . S
C2667 C2648 1.429 . S
C2667 C2661 1.429 . S
C2667 C2668 1.523 . S
C2668 C2649 1.368 1_565 S
C2668 C2662 1.368 . S
C2668 C2667 1.523 . S
C2669 C2653 1.429 . S
C2669 C2665 1.429 . S
C2669 C2670 1.523 . S
C2670 C2654 1.368 1_545 S
C2670 C2666 1.368 . S
C2670 C2669 1.523 . S
H2671 C2646 0.950 . S
H2672 C2648 0.950 . S
H2673 C2649 0.949 . S
H2674 C2651 0.950 . S
H2675 C2653 0.950 . S
C2676 C2677 1.349 . S
C2676 C2678 1.327 . S
C2676 H2701 0.950 . S
C2677 C2676 1.349 . S
C2677 C2693 1.349 . S
C2678 C2676 1.327 . S
C2678 C2697 1.429 . S
C2678 H2702 0.950 . S
C2679 C2696 1.574 . S
C2679 C2698 1.368 . S
C2679 H2703 0.949 . S
H2680 C2684 0.949 . S
C2681 C2682 1.349 . S
C2681 C2683 1.327 . S
C2681 H2704 0.950 . S
C2682 C2681 1.349 . S
C2682 C2694 1.349 . S
C2683 C2681 1.327 . S
C2683 C2699 1.429 . S
C2683 H2705 0.950 . S
C2684 H2680 0.949 . S
C2684 C2692 1.574 . S
C2684 C2700 1.368 . S
H2685 C2693 0.950 . S
H2686 C2691 0.950 . S
H2687 C2692 0.949 . S
H2688 C2694 0.950 . S
H2689 C2695 0.950 . S
H2690 C2696 0.949 . S
C2691 H2686 0.950 . S
C2691 C2693 1.327 . S
C2691 C2697 1.429 . S
C2692 C2684 1.574 . S
C2692 H2687 0.949 . S
C2692 C2698 1.368 . S
C2693 C2677 1.349 . S
C2693 H2685 0.950 . S
C2693 C2691 1.327 . S
C2694 C2682 1.349 . S
C2694 H2688 0.950 . S
C2694 C2695 1.327 . S
C2695 H2689 0.950 . S
C2695 C2694 1.327 . S
C2695 C2699 1.429 . S
C2696 C2679 1.574 . S
C2696 H2690 0.949 . S
C2696 C2700 1.368 . S
C2697 C2678 1.429 . S
C2697 C2691 1.429 . S
C2697 C2698 1.523 . S
C2698 C2679 1.368 . S
C2698 C2692 1.368 . S
C2698 C2697 1.523 . S
C2699 C2683 1.429 . S
C2699 C2695 1.429 . S
C2699 C2700 1.523 . S
C2700 C2684 1.368 . S
C2700 C2696 1.368 . S
C2700 C2699 1.523 . S
H2701 C2676 0.950 . S
H2702 C2678 0.950 . S
H2703 C2679 0.949 . S
H2704 C2681 0.950 . S
H2705 C2683 0.950 . S
C2706 C2707 1.349 . S
C2706 C2708 1.327 1_556 S
C2706 H2731 0.950 1_556 S
C2707 C2706 1.349 . S
C2707 C2723 1.349 . S
C2708 C2706 1.327 1_554 S
C2708 C2727 1.429 1_554 S
C2708 H2732 0.950 . S
C2709 C2726 1.536 1_445 S
C2709 C2728 1.404 . S
C2709 H2733 0.954 . S
H2710 C2714 0.954 . S
C2711 C2712 1.349 . S
C2711 C2713 1.327 1_554 S
C2711 H2734 0.950 1_554 S
C2712 C2711 1.349 . S
C2712 C2724 1.349 . S
C2713 C2711 1.327 1_556 S
C2713 C2729 1.429 1_556 S
C2713 H2735 0.950 . S
C2714 H2710 0.954 . S
C2714 C2722 1.536 1_665 S
C2714 C2730 1.404 . S
H2715 C2723 0.950 . S
H2716 C2721 0.950 . S
H2717 C2722 0.949 . S
H2718 C2724 0.950 . S
H2719 C2725 0.950 . S
H2720 C2726 0.949 . S
C2721 H2716 0.950 . S
C2721 C2723 1.327 . S
C2721 C2727 1.429 . S
C2722 C2714 1.536 1_445 S
C2722 H2717 0.949 . S
C2722 C2728 1.368 1_554 S
C2723 C2707 1.349 . S
C2723 H2715 0.950 . S
C2723 C2721 1.327 . S
C2724 C2712 1.349 . S
C2724 H2718 0.950 . S
C2724 C2725 1.327 . S
C2725 H2719 0.950 . S
C2725 C2724 1.327 . S
C2725 C2729 1.429 . S
C2726 C2709 1.536 1_665 S
C2726 H2720 0.949 . S
C2726 C2730 1.368 1_556 S
C2727 C2708 1.429 1_556 S
C2727 C2721 1.429 . S
C2727 C2728 1.523 . S
C2728 C2709 1.404 . S
C2728 C2722 1.368 1_556 S
C2728 C2727 1.523 . S
C2729 C2713 1.429 1_554 S
C2729 C2725 1.429 . S
C2729 C2730 1.523 . S
C2730 C2714 1.404 . S
C2730 C2726 1.368 1_554 S
C2730 C2729 1.523 . S
H2731 C2706 0.950 1_554 S
H2732 C2708 0.950 . S
H2733 C2709 0.954 . S
H2734 C2711 0.950 1_556 S
H2735 C2713 0.950 . S
C2736 C2737 1.349 . S
C2736 C2738 1.327 . S
C2736 H2761 0.950 . S
C2737 C2736 1.349 . S
C2737 C2753 1.349 . S
C2738 C2736 1.327 . S
C2738 C2757 1.429 . S
C2738 H2762 0.950 . S
C2739 C2756 1.574 . S
C2739 C2758 1.368 . S
C2739 H2763 0.949 . S
H2740 C2744 0.949 . S
C2741 C2742 1.349 . S
C2741 C2743 1.327 . S
C2741 H2764 0.950 . S
C2742 C2741 1.349 . S
C2742 C2754 1.349 . S
C2743 C2741 1.327 . S
C2743 C2759 1.429 . S
C2743 H2765 0.950 . S
C2744 H2740 0.949 . S
C2744 C2752 1.574 . S
C2744 C2760 1.368 . S
H2745 C2753 0.950 . S
H2746 C2751 0.950 . S
H2747 C2752 0.949 . S
H2748 C2754 0.950 . S
H2749 C2755 0.950 . S
H2750 C2756 0.949 . S
C2751 H2746 0.950 . S
C2751 C2753 1.327 . S
C2751 C2757 1.429 . S
C2752 C2744 1.574 . S
C2752 H2747 0.949 . S
C2752 C2758 1.368 . S
C2753 C2737 1.349 . S
C2753 H2745 0.950 . S
C2753 C2751 1.327 . S
C2754 C2742 1.349 . S
C2754 H2748 0.950 . S
C2754 C2755 1.327 . S
C2755 H2749 0.950 . S
C2755 C2754 1.327 . S
C2755 C2759 1.429 . S
C2756 C2739 1.574 . S
C2756 H2750 0.949 . S
C2756 C2760 1.368 . S
C2757 C2738 1.429 . S
C2757 C2751 1.429 . S
C2757 C2758 1.523 . S
C2758 C2739 1.368 . S
C2758 C2752 1.368 . S
C2758 C2757 1.523 . S
C2759 C2743 1.429 . S
C2759 C2755 1.429 . S
C2759 C2760 1.523 . S
C2760 C2744 1.368 . S
C2760 C2756 1.368 . S
C2760 C2759 1.523 . S
H2761 C2736 0.950 . S
H2762 C2738 0.950 . S
H2763 C2739 0.949 . S
H2764 C2741 0.950 . S
H2765 C2743 0.950 . S
C2766 C2767 1.349 . S
C2766 C2768 1.327 . S
C2766 H2791 0.950 . S
C2767 C2766 1.349 . S
C2767 C2783 1.349 . S
C2768 C2766 1.327 . S
C2768 C2787 1.429 . S
C2768 H2792 0.950 . S
C2769 C2786 1.574 . S
C2769 C2788 1.368 . S
C2769 H2793 0.949 . S
H2770 C2774 0.949 . S
C2771 C2772 1.349 . S
C2771 C2773 1.327 . S
C2771 H2794 0.950 . S
C2772 C2771 1.349 . S
C2772 C2784 1.349 . S
C2773 C2771 1.327 . S
C2773 C2789 1.429 . S
C2773 H2795 0.950 . S
C2774 H2770 0.949 . S
C2774 C2782 1.574 . S
C2774 C2790 1.368 . S
H2775 C2783 0.950 . S
H2776 C2781 0.950 . S
H2777 C2782 0.949 . S
H2778 C2784 0.950 . S
H2779 C2785 0.950 . S
H2780 C2786 0.949 . S
C2781 H2776 0.950 . S
C2781 C2783 1.327 . S
C2781 C2787 1.429 . S
C2782 C2774 1.574 . S
C2782 H2777 0.949 . S
C2782 C2788 1.368 . S
C2783 C2767 1.349 . S
C2783 H2775 0.950 . S
C2783 C2781 1.327 . S
C2784 C2772 1.349 . S
C2784 H2778 0.950 . S
C2784 C2785 1.327 . S
C2785 H2779 0.950 . S
C2785 C2784 1.327 . S
C2785 C2789 1.429 . S
C2786 C2769 1.574 . S
C2786 H2780 0.949 . S
C2786 C2790 1.368 . S
C2787 C2768 1.429 . S
C2787 C2781 1.429 . S
C2787 C2788 1.523 . S
C2788 C2769 1.368 . S
C2788 C2782 1.368 . S
C2788 C2787 1.523 . S
C2789 C2773 1.429 . S
C2789 C2785 1.429 . S
C2789 C2790 1.523 . S
C2790 C2774 1.368 . S
C2790 C2786 1.368 . S
C2790 C2789 1.523 . S
H2791 C2766 0.950 . S
H2792 C2768 0.950 . S
H2793 C2769 0.949 . S
H2794 C2771 0.950 . S
H2795 C2773 0.950 . S
C2796 C2797 1.349 . S
C2796 C2798 1.327 . S
C2796 H2821 0.950 . S
C2797 C2796 1.349 . S
C2797 C2813 1.349 . S
C2798 C2796 1.327 . S
C2798 C2817 1.429 . S
C2798 H2822 0.950 . S
C2799 C2816 1.574 . S
C2799 C2818 1.368 . S
C2799 H2823 0.949 . S
H2800 C2804 0.949 . S
C2801 C2802 1.349 . S
C2801 C2803 1.327 . S
C2801 H2824 0.950 . S
C2802 C2801 1.349 . S
C2802 C2814 1.349 . S
C2803 C2801 1.327 . S
C2803 C2819 1.429 . S
C2803 H2825 0.950 . S
C2804 H2800 0.949 . S
C2804 C2812 1.574 . S
C2804 C2820 1.368 . S
H2805 C2813 0.950 . S
H2806 C2811 0.950 . S
H2807 C2812 0.949 . S
H2808 C2814 0.950 . S
H2809 C2815 0.950 . S
H2810 C2816 0.949 . S
C2811 H2806 0.950 . S
C2811 C2813 1.327 . S
C2811 C2817 1.429 . S
C2812 C2804 1.574 . S
C2812 H2807 0.949 . S
C2812 C2818 1.368 . S
C2813 C2797 1.349 . S
C2813 H2805 0.950 . S
C2813 C2811 1.327 . S
C2814 C2802 1.349 . S
C2814 H2808 0.950 . S
C2814 C2815 1.327 . S
C2815 H2809 0.950 . S
C2815 C2814 1.327 . S
C2815 C2819 1.429 . S
C2816 C2799 1.574 . S
C2816 H2810 0.949 . S
C2816 C2820 1.368 . S
C2817 C2798 1.429 . S
C2817 C2811 1.429 . S
C2817 C2818 1.523 . S
C2818 C2799 1.368 . S
C2818 C2812 1.368 . S
C2818 C2817 1.523 . S
C2819 C2803 1.429 . S
C2819 C2815 1.429 . S
C2819 C2820 1.523 . S
C2820 C2804 1.368 . S
C2820 C2816 1.368 . S
C2820 C2819 1.523 . S
H2821 C2796 0.950 . S
H2822 C2798 0.950 . S
H2823 C2799 0.949 . S
H2824 C2801 0.950 . S
H2825 C2803 0.950 . S
C2826 C2827 1.349 . S
C2826 C2828 1.327 . S
C2826 H2851 0.950 . S
C2827 C2826 1.349 . S
C2827 C2843 1.349 . S
C2828 C2826 1.327 . S
C2828 C2847 1.429 . S
C2828 H2852 0.950 . S
C2829 C2846 1.574 . S
C2829 C2848 1.368 . S
C2829 H2853 0.949 . S
H2830 C2834 0.949 . S
C2831 C2832 1.349 . S
C2831 C2833 1.327 . S
C2831 H2854 0.950 . S
C2832 C2831 1.349 . S
C2832 C2844 1.349 . S
C2833 C2831 1.327 . S
C2833 C2849 1.429 . S
C2833 H2855 0.950 . S
C2834 H2830 0.949 . S
C2834 C2842 1.574 . S
C2834 C2850 1.368 . S
H2835 C2843 0.950 . S
H2836 C2841 0.950 . S
H2837 C2842 0.949 . S
H2838 C2844 0.950 . S
H2839 C2845 0.950 . S
H2840 C2846 0.949 . S
C2841 H2836 0.950 . S
C2841 C2843 1.327 . S
C2841 C2847 1.429 . S
C2842 C2834 1.574 . S
C2842 H2837 0.949 . S
C2842 C2848 1.368 . S
C2843 C2827 1.349 . S
C2843 H2835 0.950 . S
C2843 C2841 1.327 . S
C2844 C2832 1.349 . S
C2844 H2838 0.950 . S
C2844 C2845 1.327 . S
C2845 H2839 0.950 . S
C2845 C2844 1.327 . S
C2845 C2849 1.429 . S
C2846 C2829 1.574 . S
C2846 H2840 0.949 . S
C2846 C2850 1.368 . S
C2847 C2828 1.429 . S
C2847 C2841 1.429 . S
C2847 C2848 1.523 . S
C2848 C2829 1.368 . S
C2848 C2842 1.368 . S
C2848 C2847 1.523 . S
C2849 C2833 1.429 . S
C2849 C2845 1.429 . S
C2849 C2850 1.523 . S
C2850 C2834 1.368 . S
C2850 C2846 1.368 . S
C2850 C2849 1.523 . S
H2851 C2826 0.950 . S
H2852 C2828 0.950 . S
H2853 C2829 0.949 . S
H2854 C2831 0.950 . S
H2855 C2833 0.950 . S
C2856 C2857 1.349 . S
C2856 C2858 1.327 . S
C2856 H2881 0.950 . S
C2857 C2856 1.349 . S
C2857 C2873 1.349 . S
C2858 C2856 1.327 . S
C2858 C2877 1.429 . S
C2858 H2882 0.950 . S
C2859 C2876 1.574 . S
C2859 C2878 1.368 1_556 S
C2859 H2883 0.949 . S
H2860 C2864 0.949 . S
C2861 C2862 1.349 . S
C2861 C2863 1.327 . S
C2861 H2884 0.950 . S
C2862 C2861 1.349 . S
C2862 C2874 1.349 . S
C2863 C2861 1.327 . S
C2863 C2879 1.429 . S
C2863 H2885 0.950 . S
C2864 H2860 0.949 . S
C2864 C2872 1.574 . S
C2864 C2880 1.368 1_554 S
H2865 C2873 0.950 . S
H2866 C2871 0.950 1_556 S
H2867 C2872 0.949 . S
H2868 C2874 0.950 . S
H2869 C2875 0.950 1_554 S
H2870 C2876 0.949 . S
C2871 H2866 0.950 1_554 S
C2871 C2873 1.327 . S
C2871 C2877 1.429 . S
C2872 C2864 1.574 . S
C2872 H2867 0.949 . S
C2872 C2878 1.368 . S
C2873 C2857 1.349 . S
C2873 H2865 0.950 . S
C2873 C2871 1.327 . S
C2874 C2862 1.349 . S
C2874 H2868 0.950 . S
C2874 C2875 1.327 . S
C2875 H2869 0.950 1_556 S
C2875 C2874 1.327 . S
C2875 C2879 1.429 . S
C2876 C2859 1.574 . S
C2876 H2870 0.949 . S
C2876 C2880 1.368 . S
C2877 C2858 1.429 . S
C2877 C2871 1.429 . S
C2877 C2878 1.523 . S
C2878 C2859 1.368 1_554 S
C2878 C2872 1.368 . S
C2878 C2877 1.523 . S
C2879 C2863 1.429 . S
C2879 C2875 1.429 . S
C2879 C2880 1.523 . S
C2880 C2864 1.368 1_556 S
C2880 C2876 1.368 . S
C2880 C2879 1.523 . S
H2881 C2856 0.950 . S
H2882 C2858 0.950 . S
H2883 C2859 0.949 . S
H2884 C2861 0.950 . S
H2885 C2863 0.950 . S
C2886 C2887 1.349 . S
C2886 C2888 1.327 . S
C2886 H2911 0.950 . S
C2887 C2886 1.349 . S
C2887 C2903 1.349 . S
C2888 C2886 1.327 . S
C2888 C2907 1.429 . S
C2888 H2912 0.950 . S
C2889 C2906 1.574 . S
C2889 C2908 1.368 1_655 S
C2889 H2913 0.949 . S
H2890 C2894 0.949 . S
C2891 C2892 1.349 . S
C2891 C2893 1.327 . S
C2891 H2914 0.950 . S
C2892 C2891 1.349 . S
C2892 C2904 1.349 . S
C2893 C2891 1.327 . S
C2893 C2909 1.429 . S
C2893 H2915 0.950 . S
C2894 H2890 0.949 . S
C2894 C2902 1.574 . S
C2894 C2910 1.368 1_455 S
H2895 C2903 0.950 . S
H2896 C2901 0.950 . S
H2897 C2902 0.949 . S
H2898 C2904 0.950 . S
H2899 C2905 0.950 . S
H2900 C2906 0.949 . S
C2901 H2896 0.950 . S
C2901 C2903 1.327 . S
C2901 C2907 1.429 . S
C2902 C2894 1.574 . S
C2902 H2897 0.949 . S
C2902 C2908 1.368 . S
C2903 C2887 1.349 . S
C2903 H2895 0.950 . S
C2903 C2901 1.327 . S
C2904 C2892 1.349 . S
C2904 H2898 0.950 . S
C2904 C2905 1.327 . S
C2905 H2899 0.950 . S
C2905 C2904 1.327 . S
C2905 C2909 1.429 . S
C2906 C2889 1.574 . S
C2906 H2900 0.949 . S
C2906 C2910 1.368 . S
C2907 C2888 1.429 . S
C2907 C2901 1.429 . S
C2907 C2908 1.523 . S
C2908 C2889 1.368 1_455 S
C2908 C2902 1.368 . S
C2908 C2907 1.523 . S
C2909 C2893 1.429 . S
C2909 C2905 1.429 . S
C2909 C2910 1.523 . S
C2910 C2894 1.368 1_655 S
C2910 C2906 1.368 . S
C2910 C2909 1.523 . S
H2911 C2886 0.950 . S
H2912 C2888 0.950 . S
H2913 C2889 0.949 . S
H2914 C2891 0.950 . S
H2915 C2893 0.950 . S
C2916 C2917 1.349 . S
C2916 C2918 1.327 . S
C2916 H2941 0.950 . S
C2917 C2916 1.349 . S
C2917 C2933 1.349 . S
C2918 C2916 1.327 . S
C2918 C2937 1.429 . S
C2918 H2942 0.946 1_556 S
C2919 C2936 1.574 . S
C2919 C2938 1.368 1_455 S
C2919 H2943 0.949 . S
H2920 C2924 0.949 . S
C2921 C2922 1.349 . S
C2921 C2923 1.327 . S
C2921 H2944 0.950 . S
C2922 C2921 1.349 . S
C2922 C2934 1.349 . S
C2923 C2921 1.327 . S
C2923 C2939 1.429 . S
C2923 H2945 0.946 1_554 S
C2924 H2920 0.949 . S
C2924 C2932 1.574 . S
C2924 C2940 1.368 1_655 S
H2925 C2933 0.950 . S
H2926 C2931 0.950 . S
H2927 C2932 0.949 . S
H2928 C2934 0.950 . S
H2929 C2935 0.950 . S
H2930 C2936 0.949 . S
C2931 H2926 0.950 . S
C2931 C2933 1.327 . S
C2931 C2937 1.429 . S
C2932 C2924 1.574 . S
C2932 H2927 0.949 . S
C2932 C2938 1.368 1_554 S
C2933 C2917 1.349 . S
C2933 H2925 0.950 . S
C2933 C2931 1.327 . S
C2934 C2922 1.349 . S
C2934 H2928 0.950 . S
C2934 C2935 1.327 . S
C2935 H2929 0.950 . S
C2935 C2934 1.327 . S
C2935 C2939 1.429 . S
C2936 C2919 1.574 . S
C2936 H2930 0.949 . S
C2936 C2940 1.368 1_556 S
C2937 C2918 1.429 . S
C2937 C2931 1.429 . S
C2937 C2938 1.523 . S
C2938 C2919 1.368 1_655 S
C2938 C2932 1.368 1_556 S
C2938 C2937 1.523 . S
C2939 C2923 1.429 . S
C2939 C2935 1.429 . S
C2939 C2940 1.523 . S
C2940 C2924 1.368 1_455 S
C2940 C2936 1.368 1_554 S
C2940 C2939 1.523 . S
H2941 C2916 0.950 . S
H2942 C2918 0.946 1_554 S
H2943 C2919 0.949 . S
H2944 C2921 0.950 . S
H2945 C2923 0.946 1_556 S
C2946 C2947 1.349 . S
C2946 C2948 1.327 . S
C2946 H2971 0.950 . S
C2947 C2946 1.349 . S
C2947 C2963 1.349 . S
C2948 C2946 1.327 . S
C2948 C2967 1.429 . S
C2948 H2972 0.950 . S
C2949 C2966 1.574 . S
C2949 C2968 1.368 . S
C2949 H2973 0.949 . S
H2950 C2954 0.949 . S
C2951 C2952 1.349 . S
C2951 C2953 1.327 . S
C2951 H2974 0.950 . S
C2952 C2951 1.349 . S
C2952 C2964 1.349 . S
C2953 C2951 1.327 . S
C2953 C2969 1.429 . S
C2953 H2975 0.950 . S
C2954 H2950 0.949 . S
C2954 C2962 1.574 . S
C2954 C2970 1.368 . S
H2955 C2963 0.950 . S
H2956 C2961 0.950 . S
H2957 C2962 0.949 . S
H2958 C2964 0.950 . S
H2959 C2965 0.950 . S
H2960 C2966 0.949 . S
C2961 H2956 0.950 . S
C2961 C2963 1.327 . S
C2961 C2967 1.429 . S
C2962 C2954 1.574 . S
C2962 H2957 0.949 . S
C2962 C2968 1.368 . S
C2963 C2947 1.349 . S
C2963 H2955 0.950 . S
C2963 C2961 1.327 . S
C2964 C2952 1.349 . S
C2964 H2958 0.950 . S
C2964 C2965 1.327 . S
C2965 H2959 0.950 . S
C2965 C2964 1.327 . S
C2965 C2969 1.429 . S
C2966 C2949 1.574 . S
C2966 H2960 0.949 . S
C2966 C2970 1.368 . S
C2967 C2948 1.429 . S
C2967 C2961 1.429 . S
C2967 C2968 1.523 . S
C2968 C2949 1.368 . S
C2968 C2962 1.368 . S
C2968 C2967 1.523 . S
C2969 C2953 1.429 . S
C2969 C2965 1.429 . S
C2969 C2970 1.523 . S
C2970 C2954 1.368 . S
C2970 C2966 1.368 . S
C2970 C2969 1.523 . S
H2971 C2946 0.950 . S
H2972 C2948 0.950 . S
H2973 C2949 0.949 . S
H2974 C2951 0.950 . S
H2975 C2953 0.950 . S
C2976 C2977 1.349 . S
C2976 C2978 1.327 . S
C2976 H3001 0.950 . S
C2977 C2976 1.349 . S
C2977 C2993 1.349 . S
C2978 C2976 1.327 . S
C2978 C2997 1.429 . S
C2978 H3002 0.950 . S
C2979 C2996 1.574 . S
C2979 C2998 1.368 . S
C2979 H3003 0.949 . S
H2980 C2984 0.949 . S
C2981 C2982 1.349 . S
C2981 C2983 1.327 . S
C2981 H3004 0.950 . S
C2982 C2981 1.349 . S
C2982 C2994 1.349 . S
C2983 C2981 1.327 . S
C2983 C2999 1.429 . S
C2983 H3005 0.950 . S
C2984 H2980 0.949 . S
C2984 C2992 1.574 . S
C2984 C3000 1.368 . S
H2985 C2993 0.950 . S
H2986 C2991 0.950 . S
H2987 C2992 0.949 . S
H2988 C2994 0.950 . S
H2989 C2995 0.950 . S
H2990 C2996 0.949 . S
C2991 H2986 0.950 . S
C2991 C2993 1.327 . S
C2991 C2997 1.429 . S
C2992 C2984 1.574 . S
C2992 H2987 0.949 . S
C2992 C2998 1.368 . S
C2993 C2977 1.349 . S
C2993 H2985 0.950 . S
C2993 C2991 1.327 . S
C2994 C2982 1.349 . S
C2994 H2988 0.950 . S
C2994 C2995 1.327 . S
C2995 H2989 0.950 . S
C2995 C2994 1.327 . S
C2995 C2999 1.429 . S
C2996 C2979 1.574 . S
C2996 H2990 0.949 . S
C2996 C3000 1.368 . S
C2997 C2978 1.429 . S
C2997 C2991 1.429 . S
C2997 C2998 1.523 . S
C2998 C2979 1.368 . S
C2998 C2992 1.368 . S
C2998 C2997 1.523 . S
C2999 C2983 1.429 . S
C2999 C2995 1.429 . S
C2999 C3000 1.523 . S
C3000 C2984 1.368 . S
C3000 C2996 1.368 . S
C3000 C2999 1.523 . S
H3001 C2976 0.950 . S
H3002 C2978 0.950 . S
H3003 C2979 0.949 . S
H3004 C2981 0.950 . S
H3005 C2983 0.950 . S
C3006 C3007 1.349 . S
C3006 C3008 1.327 . S
C3006 H3031 0.950 . S
C3007 C3006 1.349 . S
C3007 C3023 1.349 . S
C3008 C3006 1.327 . S
C3008 C3027 1.429 . S
C3008 H3032 0.950 . S
C3009 C3026 1.574 1_545 S
C3009 C3028 1.368 . S
C3009 H3033 0.949 . S
H3010 C3014 0.949 . S
C3011 C3012 1.349 . S
C3011 C3013 1.327 . S
C3011 H3034 0.950 . S
C3012 C3011 1.349 . S
C3012 C3024 1.349 . S
C3013 C3011 1.327 . S
C3013 C3029 1.429 . S
C3013 H3035 0.950 . S
C3014 H3010 0.949 . S
C3014 C3022 1.574 1_565 S
C3014 C3030 1.368 . S
H3015 C3023 0.950 . S
H3016 C3021 0.950 . S
H3017 C3022 0.949 . S
H3018 C3024 0.950 . S
H3019 C3025 0.950 . S
H3020 C3026 0.949 . S
C3021 H3016 0.950 . S
C3021 C3023 1.327 . S
C3021 C3027 1.429 . S
C3022 C3014 1.574 1_545 S
C3022 H3017 0.949 . S
C3022 C3028 1.368 . S
C3023 C3007 1.349 . S
C3023 H3015 0.950 . S
C3023 C3021 1.327 . S
C3024 C3012 1.349 . S
C3024 H3018 0.950 . S
C3024 C3025 1.327 . S
C3025 H3019 0.950 . S
C3025 C3024 1.327 . S
C3025 C3029 1.429 . S
C3026 C3009 1.574 1_565 S
C3026 H3020 0.949 . S
C3026 C3030 1.368 . S
C3027 C3008 1.429 . S
C3027 C3021 1.429 . S
C3027 C3028 1.523 . S
C3028 C3009 1.368 . S
C3028 C3022 1.368 . S
C3028 C3027 1.523 . S
C3029 C3013 1.429 . S
C3029 C3025 1.429 . S
C3029 C3030 1.523 . S
C3030 C3014 1.368 . S
C3030 C3026 1.368 . S
C3030 C3029 1.523 . S
H3031 C3006 0.950 . S
H3032 C3008 0.950 . S
H3033 C3009 0.949 . S
H3034 C3011 0.950 . S
H3035 C3013 0.950 . S
C3036 C3037 1.349 . S
C3036 C3038 1.327 . S
C3036 H3061 0.950 . S
C3037 C3036 1.349 . S
C3037 C3053 1.349 . S
C3038 C3036 1.327 . S
C3038 C3057 1.429 . S
C3038 H3062 0.950 . S
C3039 C3056 1.588 . S
C3039 C3058 1.368 . S
C3039 H3063 0.949 . S
H3040 C3044 0.949 . S
C3041 C3042 1.349 . S
C3041 C3043 1.327 . S
C3041 H3064 0.950 . S
C3042 C3041 1.349 . S
C3042 C3054 1.349 . S
C3043 C3041 1.327 . S
C3043 C3059 1.429 . S
C3043 H3065 0.950 . S
C3044 H3040 0.949 . S
C3044 C3052 1.588 . S
C3044 C3060 1.368 . S
H3045 C3053 0.950 . S
H3046 C3051 0.950 . S
H3047 C3052 0.949 . S
H3048 C3054 0.950 . S
H3049 C3055 0.950 . S
H3050 C3056 0.949 . S
C3051 H3046 0.950 . S
C3051 C3053 1.327 . S
C3051 C3057 1.429 . S
C3052 C3044 1.588 . S
C3052 H3047 0.949 . S
C3052 C3058 1.354 1_556 S
C3053 C3037 1.349 . S
C3053 H3045 0.950 . S
C3053 C3051 1.327 . S
C3054 C3042 1.349 . S
C3054 H3048 0.950 . S
C3054 C3055 1.327 . S
C3055 H3049 0.950 . S
C3055 C3054 1.327 . S
C3055 C3059 1.429 . S
C3056 C3039 1.588 . S
C3056 H3050 0.949 . S
C3056 C3060 1.354 1_554 S
C3057 C3038 1.429 . S
C3057 C3051 1.429 . S
C3057 C3058 1.523 . S
C3058 C3039 1.368 . S
C3058 C3052 1.354 1_554 S
C3058 C3057 1.523 . S
C3059 C3043 1.429 . S
C3059 C3055 1.429 . S
C3059 C3060 1.523 . S
C3060 C3044 1.368 . S
C3060 C3056 1.354 1_556 S
C3060 C3059 1.523 . S
H3061 C3036 0.950 . S
H3062 C3038 0.950 . S
H3063 C3039 0.949 . S
H3064 C3041 0.950 . S
H3065 C3043 0.950 . S
C3066 C3067 1.349 . S
C3066 C3068 1.327 . S
C3066 H3091 0.950 . S
C3067 C3066 1.349 . S
C3067 C3083 1.349 . S
C3068 C3066 1.327 . S
C3068 C3087 1.429 . S
C3068 H3092 0.950 . S
C3069 C3086 1.574 . S
C3069 C3088 1.368 1_545 S
C3069 H3093 0.949 . S
H3070 C3074 0.949 . S
C3071 C3072 1.349 . S
C3071 C3073 1.327 . S
C3071 H3094 0.950 . S
C3072 C3071 1.349 . S
C3072 C3084 1.349 . S
C3073 C3071 1.327 . S
C3073 C3089 1.429 . S
C3073 H3095 0.950 . S
C3074 H3070 0.949 . S
C3074 C3082 1.574 . S
C3074 C3090 1.368 1_565 S
H3075 C3083 0.950 . S
H3076 C3081 0.950 . S
H3077 C3082 0.949 . S
H3078 C3084 0.950 . S
H3079 C3085 0.950 . S
H3080 C3086 0.949 . S
C3081 H3076 0.950 . S
C3081 C3083 1.327 . S
C3081 C3087 1.429 . S
C3082 C3074 1.574 . S
C3082 H3077 0.949 . S
C3082 C3088 1.368 . S
C3083 C3067 1.349 . S
C3083 H3075 0.950 . S
C3083 C3081 1.327 . S
C3084 C3072 1.349 . S
C3084 H3078 0.950 . S
C3084 C3085 1.327 . S
C3085 H3079 0.950 . S
C3085 C3084 1.327 . S
C3085 C3089 1.429 . S
C3086 C3069 1.574 . S
C3086 H3080 0.949 . S
C3086 C3090 1.368 . S
C3087 C3068 1.429 . S
C3087 C3081 1.429 . S
C3087 C3088 1.523 . S
C3088 C3069 1.368 1_565 S
C3088 C3082 1.368 . S
C3088 C3087 1.523 . S
C3089 C3073 1.429 . S
C3089 C3085 1.429 . S
C3089 C3090 1.523 . S
C3090 C3074 1.368 1_545 S
C3090 C3086 1.368 . S
C3090 C3089 1.523 . S
H3091 C3066 0.950 . S
H3092 C3068 0.950 . S
H3093 C3069 0.949 . S
H3094 C3071 0.950 . S
H3095 C3073 0.950 . S
C3096 C3097 1.349 . S
C3096 C3098 1.327 . S
C3096 H3121 0.950 . S
C3097 C3096 1.349 . S
C3097 C3113 1.349 . S
C3098 C3096 1.327 . S
C3098 C3117 1.429 . S
C3098 H3122 0.950 . S
C3099 C3116 1.574 . S
C3099 C3118 1.368 . S
C3099 H3123 0.949 . S
H3100 C3104 0.949 . S
C3101 C3102 1.349 . S
C3101 C3103 1.327 . S
C3101 H3124 0.950 . S
C3102 C3101 1.349 . S
C3102 C3114 1.349 . S
C3103 C3101 1.327 . S
C3103 C3119 1.429 . S
C3103 H3125 0.950 . S
C3104 H3100 0.949 . S
C3104 C3112 1.574 . S
C3104 C3120 1.368 . S
H3105 C3113 0.950 . S
H3106 C3111 0.950 . S
H3107 C3112 0.949 . S
H3108 C3114 0.950 . S
H3109 C3115 0.950 . S
H3110 C3116 0.949 . S
C3111 H3106 0.950 . S
C3111 C3113 1.327 . S
C3111 C3117 1.429 . S
C3112 C3104 1.574 . S
C3112 H3107 0.949 . S
C3112 C3118 1.368 . S
C3113 C3097 1.349 . S
C3113 H3105 0.950 . S
C3113 C3111 1.327 . S
C3114 C3102 1.349 . S
C3114 H3108 0.950 . S
C3114 C3115 1.327 . S
C3115 H3109 0.950 . S
C3115 C3114 1.327 . S
C3115 C3119 1.429 . S
C3116 C3099 1.574 . S
C3116 H3110 0.949 . S
C3116 C3120 1.368 . S
C3117 C3098 1.429 . S
C3117 C3111 1.429 . S
C3117 C3118 1.523 . S
C3118 C3099 1.368 . S
C3118 C3112 1.368 . S
C3118 C3117 1.523 . S
C3119 C3103 1.429 . S
C3119 C3115 1.429 . S
C3119 C3120 1.523 . S
C3120 C3104 1.368 . S
C3120 C3116 1.368 . S
C3120 C3119 1.523 . S
H3121 C3096 0.950 . S
H3122 C3098 0.950 . S
H3123 C3099 0.949 . S
H3124 C3101 0.950 . S
H3125 C3103 0.950 . S
C3126 C3127 1.349 . S
C3126 C3128 1.327 . S
C3126 H3151 0.950 . S
C3127 C3126 1.349 . S
C3127 C3143 1.349 . S
C3128 C3126 1.327 . S
C3128 C3147 1.429 . S
C3128 H3152 0.950 . S
C3129 C3146 1.574 . S
C3129 C3148 1.368 1_565 S
C3129 H3153 0.949 . S
H3130 C3134 0.949 . S
C3131 C3132 1.349 . S
C3131 C3133 1.327 . S
C3131 H3154 0.950 . S
C3132 C3131 1.349 . S
C3132 C3144 1.349 . S
C3133 C3131 1.327 . S
C3133 C3149 1.429 . S
C3133 H3155 0.950 . S
C3134 H3130 0.949 . S
C3134 C3142 1.574 . S
C3134 C3150 1.368 1_545 S
H3135 C3143 0.950 . S
H3136 C3141 0.950 . S
H3137 C3142 0.949 . S
H3138 C3144 0.950 . S
H3139 C3145 0.950 . S
H3140 C3146 0.949 . S
C3141 H3136 0.950 . S
C3141 C3143 1.327 . S
C3141 C3147 1.429 . S
C3142 C3134 1.574 . S
C3142 H3137 0.949 . S
C3142 C3148 1.368 . S
C3143 C3127 1.349 . S
C3143 H3135 0.950 . S
C3143 C3141 1.327 . S
C3144 C3132 1.349 . S
C3144 H3138 0.950 . S
C3144 C3145 1.327 . S
C3145 H3139 0.950 . S
C3145 C3144 1.327 . S
C3145 C3149 1.429 . S
C3146 C3129 1.574 . S
C3146 H3140 0.949 . S
C3146 C3150 1.368 . S
C3147 C3128 1.429 . S
C3147 C3141 1.429 . S
C3147 C3148 1.523 . S
C3148 C3129 1.368 1_545 S
C3148 C3142 1.368 . S
C3148 C3147 1.523 . S
C3149 C3133 1.429 . S
C3149 C3145 1.429 . S
C3149 C3150 1.523 . S
C3150 C3134 1.368 1_565 S
C3150 C3146 1.368 . S
C3150 C3149 1.523 . S
H3151 C3126 0.950 . S
H3152 C3128 0.950 . S
H3153 C3129 0.949 . S
H3154 C3131 0.950 . S
H3155 C3133 0.950 . S
C3156 C3157 1.349 . S
C3156 C3158 1.327 . S
C3156 H3181 0.950 . S
C3157 C3156 1.349 . S
C3157 C3173 1.349 . S
C3158 C3156 1.327 . S
C3158 C3177 1.429 . S
C3158 H3182 0.950 . S
C3159 C3176 1.588 . S
C3159 C3178 1.368 . S
C3159 H3183 0.949 . S
H3160 C3164 0.949 . S
C3161 C3162 1.349 . S
C3161 C3163 1.327 . S
C3161 H3184 0.950 . S
C3162 C3161 1.349 . S
C3162 C3174 1.349 . S
C3163 C3161 1.327 . S
C3163 C3179 1.429 . S
C3163 H3185 0.950 . S
C3164 H3160 0.949 . S
C3164 C3172 1.588 . S
C3164 C3180 1.368 . S
H3165 C3173 0.950 . S
H3166 C3171 0.950 . S
H3167 C3172 0.949 . S
H3168 C3174 0.950 . S
H3169 C3175 0.950 . S
H3170 C3176 0.949 . S
C3171 H3166 0.950 . S
C3171 C3173 1.327 . S
C3171 C3177 1.429 . S
C3172 C3164 1.588 . S
C3172 H3167 0.949 . S
C3172 C3178 1.354 1_554 S
C3173 C3157 1.349 . S
C3173 H3165 0.950 . S
C3173 C3171 1.327 . S
C3174 C3162 1.349 . S
C3174 H3168 0.950 . S
C3174 C3175 1.327 . S
C3175 H3169 0.950 . S
C3175 C3174 1.327 . S
C3175 C3179 1.429 . S
C3176 C3159 1.588 . S
C3176 H3170 0.949 . S
C3176 C3180 1.354 1_556 S
C3177 C3158 1.429 . S
C3177 C3171 1.429 . S
C3177 C3178 1.523 . S
C3178 C3159 1.368 . S
C3178 C3172 1.354 1_556 S
C3178 C3177 1.523 . S
C3179 C3163 1.429 . S
C3179 C3175 1.429 . S
C3179 C3180 1.523 . S
C3180 C3164 1.368 . S
C3180 C3176 1.354 1_554 S
C3180 C3179 1.523 . S
H3181 C3156 0.950 . S
H3182 C3158 0.950 . S
H3183 C3159 0.949 . S
H3184 C3161 0.950 . S
H3185 C3163 0.950 . S
C3186 C3187 1.349 . S
C3186 C3188 1.327 . S
C3186 H3211 0.950 . S
C3187 C3186 1.349 . S
C3187 C3203 1.349 . S
C3188 C3186 1.327 . S
C3188 C3207 1.429 . S
C3188 H3212 0.950 . S
C3189 C3206 1.574 . S
C3189 C3208 1.368 . S
C3189 H3213 0.949 . S
H3190 C3194 0.949 . S
C3191 C3192 1.349 . S
C3191 C3193 1.327 . S
C3191 H3214 0.950 . S
C3192 C3191 1.349 . S
C3192 C3204 1.349 . S
C3193 C3191 1.327 . S
C3193 C3209 1.429 . S
C3193 H3215 0.950 . S
C3194 H3190 0.949 . S
C3194 C3202 1.574 . S
C3194 C3210 1.368 . S
H3195 C3203 0.950 . S
H3196 C3201 0.950 . S
H3197 C3202 0.949 . S
H3198 C3204 0.950 . S
H3199 C3205 0.950 . S
H3200 C3206 0.949 . S
C3201 H3196 0.950 . S
C3201 C3203 1.327 . S
C3201 C3207 1.429 . S
C3202 C3194 1.574 . S
C3202 H3197 0.949 . S
C3202 C3208 1.368 1_565 S
C3203 C3187 1.349 . S
C3203 H3195 0.950 . S
C3203 C3201 1.327 . S
C3204 C3192 1.349 . S
C3204 H3198 0.950 . S
C3204 C3205 1.327 . S
C3205 H3199 0.950 . S
C3205 C3204 1.327 . S
C3205 C3209 1.429 . S
C3206 C3189 1.574 . S
C3206 H3200 0.949 . S
C3206 C3210 1.368 1_545 S
C3207 C3188 1.429 . S
C3207 C3201 1.429 . S
C3207 C3208 1.523 . S
C3208 C3189 1.368 . S
C3208 C3202 1.368 1_545 S
C3208 C3207 1.523 . S
C3209 C3193 1.429 . S
C3209 C3205 1.429 . S
C3209 C3210 1.523 . S
C3210 C3194 1.368 . S
C3210 C3206 1.368 1_565 S
C3210 C3209 1.523 . S
H3211 C3186 0.950 . S
H3212 C3188 0.950 . S
H3213 C3189 0.949 . S
H3214 C3191 0.950 . S
H3215 C3193 0.950 . S
C3216 C3217 1.349 . S
C3216 C3218 1.327 . S
C3216 H3241 0.950 . S
C3217 C3216 1.349 . S
C3217 C3233 1.349 . S
C3218 C3216 1.327 . S
C3218 C3237 1.429 . S
C3218 H3242 0.950 . S
C3219 C3236 1.588 . S
C3219 C3238 1.354 1_554 S
C3219 H3243 0.949 . S
H3220 C3224 0.949 . S
C3221 C3222 1.349 . S
C3221 C3223 1.327 . S
C3221 H3244 0.950 . S
C3222 C3221 1.349 . S
C3222 C3234 1.349 . S
C3223 C3221 1.327 . S
C3223 C3239 1.429 . S
C3223 H3245 0.950 . S
C3224 H3220 0.949 . S
C3224 C3232 1.588 . S
C3224 C3240 1.354 1_556 S
H3225 C3233 0.950 . S
H3226 C3231 0.950 . S
H3227 C3232 0.949 . S
H3228 C3234 0.950 . S
H3229 C3235 0.950 . S
H3230 C3236 0.949 . S
C3231 H3226 0.950 . S
C3231 C3233 1.327 . S
C3231 C3237 1.429 . S
C3232 C3224 1.588 . S
C3232 H3227 0.949 . S
C3232 C3238 1.368 . S
C3233 C3217 1.349 . S
C3233 H3225 0.950 . S
C3233 C3231 1.327 . S
C3234 C3222 1.349 . S
C3234 H3228 0.950 . S
C3234 C3235 1.327 . S
C3235 H3229 0.950 . S
C3235 C3234 1.327 . S
C3235 C3239 1.429 . S
C3236 C3219 1.588 . S
C3236 H3230 0.949 . S
C3236 C3240 1.368 . S
C3237 C3218 1.429 . S
C3237 C3231 1.429 . S
C3237 C3238 1.523 . S
C3238 C3219 1.354 1_556 S
C3238 C3232 1.368 . S
C3238 C3237 1.523 . S
C3239 C3223 1.429 . S
C3239 C3235 1.429 . S
C3239 C3240 1.523 . S
C3240 C3224 1.354 1_554 S
C3240 C3236 1.368 . S
C3240 C3239 1.523 . S
H3241 C3216 0.950 . S
H3242 C3218 0.950 . S
H3243 C3219 0.949 . S
H3244 C3221 0.950 . S
H3245 C3223 0.950 . S
C3246 C3247 1.349 . S
C3246 C3248 1.327 . S
C3246 H3271 0.950 . S
C3247 C3246 1.349 . S
C3247 C3263 1.349 . S
C3248 C3246 1.327 . S
C3248 C3267 1.429 . S
C3248 H3272 0.950 . S
C3249 C3266 1.574 . S
C3249 C3268 1.368 . S
C3249 H3273 0.949 . S
H3250 C3254 0.949 . S
C3251 C3252 1.349 . S
C3251 C3253 1.327 . S
C3251 H3274 0.950 . S
C3252 C3251 1.349 . S
C3252 C3264 1.349 . S
C3253 C3251 1.327 . S
C3253 C3269 1.429 . S
C3253 H3275 0.950 . S
C3254 H3250 0.949 . S
C3254 C3262 1.574 . S
C3254 C3270 1.368 . S
H3255 C3263 0.950 . S
H3256 C3261 0.950 . S
H3257 C3262 0.949 . S
H3258 C3264 0.950 . S
H3259 C3265 0.950 . S
H3260 C3266 0.949 . S
C3261 H3256 0.950 . S
C3261 C3263 1.327 . S
C3261 C3267 1.429 . S
C3262 C3254 1.574 . S
C3262 H3257 0.949 . S
C3262 C3268 1.368 . S
C3263 C3247 1.349 . S
C3263 H3255 0.950 . S
C3263 C3261 1.327 . S
C3264 C3252 1.349 . S
C3264 H3258 0.950 . S
C3264 C3265 1.327 . S
C3265 H3259 0.950 . S
C3265 C3264 1.327 . S
C3265 C3269 1.429 . S
C3266 C3249 1.574 . S
C3266 H3260 0.949 . S
C3266 C3270 1.368 . S
C3267 C3248 1.429 . S
C3267 C3261 1.429 . S
C3267 C3268 1.523 . S
C3268 C3249 1.368 . S
C3268 C3262 1.368 . S
C3268 C3267 1.523 . S
C3269 C3253 1.429 . S
C3269 C3265 1.429 . S
C3269 C3270 1.523 . S
C3270 C3254 1.368 . S
C3270 C3266 1.368 . S
C3270 C3269 1.523 . S
H3271 C3246 0.950 . S
H3272 C3248 0.950 . S
H3273 C3249 0.949 . S
H3274 C3251 0.950 . S
H3275 C3253 0.950 . S
C3276 C3277 1.349 . S
C3276 C3278 1.327 . S
C3276 H3301 0.950 . S
C3277 C3276 1.349 . S
C3277 C3293 1.349 . S
C3278 C3276 1.327 . S
C3278 C3297 1.429 . S
C3278 H3302 0.950 . S
C3279 C3296 1.574 . S
C3279 C3298 1.368 . S
C3279 H3303 0.949 . S
H3280 C3284 0.949 . S
C3281 C3282 1.349 . S
C3281 C3283 1.327 . S
C3281 H3304 0.950 . S
C3282 C3281 1.349 . S
C3282 C3294 1.349 . S
C3283 C3281 1.327 . S
C3283 C3299 1.429 . S
C3283 H3305 0.950 . S
C3284 H3280 0.949 . S
C3284 C3292 1.574 . S
C3284 C3300 1.368 . S
H3285 C3293 0.950 . S
H3286 C3291 0.950 . S
H3287 C3292 0.949 . S
H3288 C3294 0.950 . S
H3289 C3295 0.950 . S
H3290 C3296 0.949 . S
C3291 H3286 0.950 . S
C3291 C3293 1.327 . S
C3291 C3297 1.429 . S
C3292 C3284 1.574 . S
C3292 H3287 0.949 . S
C3292 C3298 1.368 . S
C3293 C3277 1.349 . S
C3293 H3285 0.950 . S
C3293 C3291 1.327 . S
C3294 C3282 1.349 . S
C3294 H3288 0.950 . S
C3294 C3295 1.327 . S
C3295 H3289 0.950 . S
C3295 C3294 1.327 . S
C3295 C3299 1.429 . S
C3296 C3279 1.574 . S
C3296 H3290 0.949 . S
C3296 C3300 1.368 . S
C3297 C3278 1.429 . S
C3297 C3291 1.429 . S
C3297 C3298 1.523 . S
C3298 C3279 1.368 . S
C3298 C3292 1.368 . S
C3298 C3297 1.523 . S
C3299 C3283 1.429 . S
C3299 C3295 1.429 . S
C3299 C3300 1.523 . S
C3300 C3284 1.368 . S
C3300 C3296 1.368 . S
C3300 C3299 1.523 . S
H3301 C3276 0.950 . S
H3302 C3278 0.950 . S
H3303 C3279 0.949 . S
H3304 C3281 0.950 . S
H3305 C3283 0.950 . S
C3306 C3307 1.349 . S
C3306 C3308 1.327 . S
C3306 H3331 0.950 . S
C3307 C3306 1.349 . S
C3307 C3323 1.349 . S
C3308 C3306 1.327 . S
C3308 C3327 1.429 . S
C3308 H3332 0.950 . S
C3309 C3326 1.574 . S
C3309 C3328 1.368 . S
C3309 H3333 0.949 . S
H3310 C3314 0.949 . S
C3311 C3312 1.349 . S
C3311 C3313 1.327 . S
C3311 H3334 0.950 . S
C3312 C3311 1.349 . S
C3312 C3324 1.349 . S
C3313 C3311 1.327 . S
C3313 C3329 1.429 . S
C3313 H3335 0.950 . S
C3314 H3310 0.949 . S
C3314 C3322 1.574 . S
C3314 C3330 1.368 . S
H3315 C3323 0.950 . S
H3316 C3321 0.950 . S
H3317 C3322 0.949 . S
H3318 C3324 0.950 . S
H3319 C3325 0.950 . S
H3320 C3326 0.949 . S
C3321 H3316 0.950 . S
C3321 C3323 1.327 . S
C3321 C3327 1.429 . S
C3322 C3314 1.574 . S
C3322 H3317 0.949 . S
C3322 C3328 1.368 . S
C3323 C3307 1.349 . S
C3323 H3315 0.950 . S
C3323 C3321 1.327 . S
C3324 C3312 1.349 . S
C3324 H3318 0.950 . S
C3324 C3325 1.327 . S
C3325 H3319 0.950 . S
C3325 C3324 1.327 . S
C3325 C3329 1.429 . S
C3326 C3309 1.574 . S
C3326 H3320 0.949 . S
C3326 C3330 1.368 . S
C3327 C3308 1.429 . S
C3327 C3321 1.429 . S
C3327 C3328 1.523 . S
C3328 C3309 1.368 . S
C3328 C3322 1.368 . S
C3328 C3327 1.523 . S
C3329 C3313 1.429 . S
C3329 C3325 1.429 . S
C3329 C3330 1.523 . S
C3330 C3314 1.368 . S
C3330 C3326 1.368 . S
C3330 C3329 1.523 . S
H3331 C3306 0.950 . S
H3332 C3308 0.950 . S
H3333 C3309 0.949 . S
H3334 C3311 0.950 . S
H3335 C3313 0.950 . S
C3336 C3337 1.349 . S
C3336 C3338 1.327 . S
C3336 H3361 0.950 . S
C3337 C3336 1.349 . S
C3337 C3353 1.349 . S
C3338 C3336 1.327 . S
C3338 C3357 1.429 . S
C3338 H3362 0.950 . S
C3339 C3356 1.588 . S
C3339 C3358 1.354 1_556 S
C3339 H3363 0.949 . S
H3340 C3344 0.949 . S
C3341 C3342 1.349 . S
C3341 C3343 1.327 . S
C3341 H3364 0.950 . S
C3342 C3341 1.349 . S
C3342 C3354 1.349 . S
C3343 C3341 1.327 . S
C3343 C3359 1.429 . S
C3343 H3365 0.950 . S
C3344 H3340 0.949 . S
C3344 C3352 1.588 . S
C3344 C3360 1.354 1_554 S
H3345 C3353 0.950 . S
H3346 C3351 0.950 . S
H3347 C3352 0.949 . S
H3348 C3354 0.950 . S
H3349 C3355 0.950 . S
H3350 C3356 0.949 . S
C3351 H3346 0.950 . S
C3351 C3353 1.327 . S
C3351 C3357 1.429 . S
C3352 C3344 1.588 . S
C3352 H3347 0.949 . S
C3352 C3358 1.368 . S
C3353 C3337 1.349 . S
C3353 H3345 0.950 . S
C3353 C3351 1.327 . S
C3354 C3342 1.349 . S
C3354 H3348 0.950 . S
C3354 C3355 1.327 . S
C3355 H3349 0.950 . S
C3355 C3354 1.327 . S
C3355 C3359 1.429 . S
C3356 C3339 1.588 . S
C3356 H3350 0.949 . S
C3356 C3360 1.368 . S
C3357 C3338 1.429 . S
C3357 C3351 1.429 . S
C3357 C3358 1.523 . S
C3358 C3339 1.354 1_554 S
C3358 C3352 1.368 . S
C3358 C3357 1.523 . S
C3359 C3343 1.429 . S
C3359 C3355 1.429 . S
C3359 C3360 1.523 . S
C3360 C3344 1.354 1_556 S
C3360 C3356 1.368 . S
C3360 C3359 1.523 . S
H3361 C3336 0.950 . S
H3362 C3338 0.950 . S
H3363 C3339 0.949 . S
H3364 C3341 0.950 . S
H3365 C3343 0.950 . S
C3366 C3367 1.349 . S
C3366 C3368 1.327 . S
C3366 H3391 0.950 . S
C3367 C3366 1.349 . S
C3367 C3383 1.349 . S
C3368 C3366 1.327 . S
C3368 C3387 1.429 . S
C3368 H3392 0.950 . S
C3369 C3386 1.574 . S
C3369 C3388 1.368 . S
C3369 H3393 0.949 . S
H3370 C3374 0.949 . S
C3371 C3372 1.349 . S
C3371 C3373 1.327 . S
C3371 H3394 0.950 . S
C3372 C3371 1.349 . S
C3372 C3384 1.349 . S
C3373 C3371 1.327 . S
C3373 C3389 1.429 . S
C3373 H3395 0.950 . S
C3374 H3370 0.949 . S
C3374 C3382 1.574 . S
C3374 C3390 1.368 . S
H3375 C3383 0.950 . S
H3376 C3381 0.950 . S
H3377 C3382 0.949 . S
H3378 C3384 0.950 . S
H3379 C3385 0.950 . S
H3380 C3386 0.949 . S
C3381 H3376 0.950 . S
C3381 C3383 1.327 . S
C3381 C3387 1.429 . S
C3382 C3374 1.574 . S
C3382 H3377 0.949 . S
C3382 C3388 1.368 . S
C3383 C3367 1.349 . S
C3383 H3375 0.950 . S
C3383 C3381 1.327 . S
C3384 C3372 1.349 . S
C3384 H3378 0.950 . S
C3384 C3385 1.327 . S
C3385 H3379 0.950 . S
C3385 C3384 1.327 . S
C3385 C3389 1.429 . S
C3386 C3369 1.574 . S
C3386 H3380 0.949 . S
C3386 C3390 1.368 . S
C3387 C3368 1.429 . S
C3387 C3381 1.429 . S
C3387 C3388 1.523 . S
C3388 C3369 1.368 . S
C3388 C3382 1.368 . S
C3388 C3387 1.523 . S
C3389 C3373 1.429 . S
C3389 C3385 1.429 . S
C3389 C3390 1.523 . S
C3390 C3374 1.368 . S
C3390 C3386 1.368 . S
C3390 C3389 1.523 . S
H3391 C3366 0.950 . S
H3392 C3368 0.950 . S
H3393 C3369 0.949 . S
H3394 C3371 0.950 . S
H3395 C3373 0.950 . S
C3396 C3397 1.349 . S
C3396 C3398 1.327 . S
C3396 H3421 0.950 . S
C3397 C3396 1.349 . S
C3397 C3413 1.349 . S
C3398 C3396 1.327 . S
C3398 C3417 1.429 . S
C3398 H3422 0.950 . S
C3399 C3416 1.574 . S
C3399 C3418 1.368 . S
C3399 H3423 0.949 . S
H3400 C3404 0.949 . S
C3401 C3402 1.349 . S
C3401 C3403 1.327 . S
C3401 H3424 0.950 . S
C3402 C3401 1.349 . S
C3402 C3414 1.349 . S
C3403 C3401 1.327 . S
C3403 C3419 1.429 . S
C3403 H3425 0.950 . S
C3404 H3400 0.949 . S
C3404 C3412 1.574 . S
C3404 C3420 1.368 . S
H3405 C3413 0.950 . S
H3406 C3411 0.950 . S
H3407 C3412 0.949 . S
H3408 C3414 0.950 . S
H3409 C3415 0.950 . S
H3410 C3416 0.949 . S
C3411 H3406 0.950 . S
C3411 C3413 1.327 . S
C3411 C3417 1.429 . S
C3412 C3404 1.574 . S
C3412 H3407 0.949 . S
C3412 C3418 1.368 . S
C3413 C3397 1.349 . S
C3413 H3405 0.950 . S
C3413 C3411 1.327 . S
C3414 C3402 1.349 . S
C3414 H3408 0.950 . S
C3414 C3415 1.327 . S
C3415 H3409 0.950 . S
C3415 C3414 1.327 . S
C3415 C3419 1.429 . S
C3416 C3399 1.574 . S
C3416 H3410 0.949 . S
C3416 C3420 1.368 . S
C3417 C3398 1.429 . S
C3417 C3411 1.429 . S
C3417 C3418 1.523 . S
C3418 C3399 1.368 . S
C3418 C3412 1.368 . S
C3418 C3417 1.523 . S
C3419 C3403 1.429 . S
C3419 C3415 1.429 . S
C3419 C3420 1.523 . S
C3420 C3404 1.368 . S
C3420 C3416 1.368 . S
C3420 C3419 1.523 . S
H3421 C3396 0.950 . S
H3422 C3398 0.950 . S
H3423 C3399 0.949 . S
H3424 C3401 0.950 . S
H3425 C3403 0.950 . S
C3426 C3427 1.349 . S
C3426 C3428 1.327 . S
C3426 H3451 0.950 . S
C3427 C3426 1.349 . S
C3427 C3443 1.349 . S
C3428 C3426 1.327 . S
C3428 C3447 1.429 . S
C3428 H3452 0.950 . S
C3429 C3446 1.574 . S
C3429 C3448 1.368 . S
C3429 H3453 0.949 . S
H3430 C3434 0.949 . S
C3431 C3432 1.349 . S
C3431 C3433 1.327 . S
C3431 H3454 0.950 . S
C3432 C3431 1.349 . S
C3432 C3444 1.349 . S
C3433 C3431 1.327 . S
C3433 C3449 1.429 . S
C3433 H3455 0.950 . S
C3434 H3430 0.949 . S
C3434 C3442 1.574 . S
C3434 C3450 1.368 . S
H3435 C3443 0.950 . S
H3436 C3441 0.950 . S
H3437 C3442 0.949 . S
H3438 C3444 0.950 . S
H3439 C3445 0.950 . S
H3440 C3446 0.949 . S
C3441 H3436 0.950 . S
C3441 C3443 1.327 . S
C3441 C3447 1.429 . S
C3442 C3434 1.574 . S
C3442 H3437 0.949 . S
C3442 C3448 1.368 . S
C3443 C3427 1.349 . S
C3443 H3435 0.950 . S
C3443 C3441 1.327 . S
C3444 C3432 1.349 . S
C3444 H3438 0.950 . S
C3444 C3445 1.327 . S
C3445 H3439 0.950 . S
C3445 C3444 1.327 . S
C3445 C3449 1.429 . S
C3446 C3429 1.574 . S
C3446 H3440 0.949 . S
C3446 C3450 1.368 . S
C3447 C3428 1.429 . S
C3447 C3441 1.429 . S
C3447 C3448 1.523 . S
C3448 C3429 1.368 . S
C3448 C3442 1.368 . S
C3448 C3447 1.523 . S
C3449 C3433 1.429 . S
C3449 C3445 1.429 . S
C3449 C3450 1.523 . S
C3450 C3434 1.368 . S
C3450 C3446 1.368 . S
C3450 C3449 1.523 . S
H3451 C3426 0.950 . S
H3452 C3428 0.950 . S
H3453 C3429 0.949 . S
H3454 C3431 0.950 . S
H3455 C3433 0.950 . S
C1057 C249 1.655 1_554 S
C1062 C18 1.655 . S
C1087 C51 1.655 . S
C1092 C150 1.655 . S
C1117 C84 1.655 . S
C1122 C183 1.655 . S
C1147 C216 1.655 . S
C1152 C117 1.655 1_556 S
C1177 C282 1.655 . S
C1182 C513 1.655 1_556 S
C1207 C414 1.655 . S
C1212 C315 1.655 . S
C1237 C348 1.655 . S
C1242 C447 1.655 . S
C1267 C480 1.655 . S
C1272 C381 1.655 1_554 S
C1297 C777 1.655 . S
C1302 C546 1.655 . S
C1327 C678 1.655 . S
C1332 C579 1.655 1_556 S
C1357 C711 1.655 1_554 S
C1362 C612 1.655 . S
C1387 C744 1.655 . S
C1392 C645 1.655 . S
C1417 C1041 1.655 . S
C1422 C810 1.655 . S
C1447 C843 1.655 1_554 S
C1452 C942 1.655 . S
C1477 C975 1.655 1_556 S
C1482 C876 1.655 . S
C1507 C1008 1.655 . S
C1512 C909 1.655 . S
C1537 C21 1.265 . S
C1542 N904 1.257 . S
C1567 N277 1.256 . S
C1572 C54 1.265 . S
C1597 N838 1.257 . S
C1602 C87 1.265 . S
C1627 C120 1.265 . S
C1632 N343 1.256 . S
C1657 N970 1.256 . S
C1662 C153 1.265 . S
C1687 C186 1.265 . S
C1692 N475 1.257 . S
C1717 N1036 1.256 . S
C1722 C219 1.265 . S
C1747 N409 1.257 . S
C1752 C252 1.265 . S
C1777 C285 1.265 . S
C1782 N640 1.257 . S
C1807 C318 1.265 . S
C1812 N13 1.256 . S
C1837 N574 1.257 . S
C1842 C351 1.265 . S
C1867 N79 1.256 . S
C1872 C384 1.265 . S
C1897 N706 1.256 . S
C1902 C417 1.265 . S
C1927 N211 1.257 . S
C1932 C450 1.265 . S
C1957 C483 1.265 . S
C1962 N772 1.256 . S
C1987 C516 1.265 . S
C1992 N145 1.257 . S
C2017 C549 1.265 . S
C2022 N376 1.257 . S
C2047 N805 1.256 . S
C2052 C582 1.265 . S
C2077 N310 1.257 . S
C2082 C615 1.265 . S
C2107 C648 1.265 . S
C2112 N871 1.256 . S
C2137 C681 1.265 . S
C2142 N442 1.256 . S
C2167 N1003 1.257 . S
C2172 C714 1.265 . S
C2197 N508 1.256 . S
C2202 C747 1.265 . S
C2227 C780 1.265 . S
C2232 N937 1.257 . S
C2257 N112 1.257 . S
C2262 C813 1.265 . S
C2287 N541 1.256 . S
C2292 C846 1.265 . S
C2317 N46 1.257 . S
C2322 C879 1.265 . S
C2347 N607 1.256 . S
C2352 C912 1.265 . S
C2377 C945 1.265 . S
C2382 N178 1.256 . S
C2407 C978 1.265 . S
C2412 N739 1.257 . S
C2437 C1011 1.265 . S
C2442 N244 1.256 . S
C2467 N673 1.257 . S
C2472 C1044 1.265 . S
C2497 N2 0.478 . S
C2502 N794 0.478 . S
C2527 N35 0.478 . S
C2532 N299 0.478 . S
C2557 N68 0.478 . S
C2562 N860 0.478 . S
C2587 N365 0.478 . S
C2592 N101 0.478 . S
C2617 N926 0.478 . S
C2622 N134 0.478 . S
C2647 N167 0.478 . S
C2652 N431 0.478 . S
C2677 N200 0.478 . S
C2682 N992 0.478 . S
C2707 N233 0.478 . S
C2712 N497 0.478 . S
C2737 N530 0.478 . S
C2742 N266 0.478 . S
C2767 N332 0.478 . S
C2772 N596 0.478 . S
C2797 N662 0.478 . S
C2802 N398 0.478 . S
C2827 N464 0.478 . S
C2832 N728 0.478 . S
C2857 N563 0.478 . S
C2862 N827 0.478 . S
C2887 N893 0.478 . S
C2892 N629 0.478 . S
C2917 N695 0.478 . S
C2922 N959 0.478 . S
C2947 N1025 0.478 . S
C2952 N761 0.478 . S
C2977 C7 1.714 . S
C2982 C205 1.714 . S
C3007 C238 1.714 . S
C3012 C40 1.714 . S
C3037 C139 1.714 . S
C3042 C73 1.714 . S
C3067 C172 1.714 . S
C3072 C106 1.714 . S
C3097 C271 1.714 . S
C3102 C469 1.714 . S
C3127 C304 1.714 . S
C3132 C502 1.714 . S
C3157 C403 1.714 . S
C3162 C337 1.714 . S
C3187 C436 1.714 . S
C3192 C370 1.714 . S
C3217 C535 1.714 . S
C3222 C733 1.714 . S
C3247 C568 1.714 . S
C3252 C766 1.714 . S
C3277 C667 1.714 . S
C3282 C601 1.714 . S
C3307 C700 1.714 . S
C3312 C634 1.714 . S
C3337 C799 1.714 . S
C3342 C997 1.714 . S
C3367 C832 1.714 . S
C3372 C1030 1.714 . S
C3397 C931 1.714 . S
C3402 C865 1.714 . S
C3427 C898 1.714 . S
C3432 C964 1.714 . S
