# Generated by pormake.
# Topology wmi, (6)-cn, num edge types: 1
# Building blocks:
#     Node 0, Type 0, BuildingBlock: INOVEN_clean_sbu_0, # of connection points: 6
#     Node 1, Type 0, BuildingBlock: INOVEN_clean_sbu_0, # of connection points: 6
#     Node 2, Type 0, BuildingBlock: INOVEN_clean_sbu_0, # of connection points: 6
#     Node 3, Type 0, BuildingBlock: INOVEN_clean_sbu_0, # of connection points: 6
#     Node 4, Type 0, BuildingBlock: INOVEN_clean_sbu_0, # of connection points: 6
#     Node 5, Type 0, BuildingBlock: INOVEN_clean_sbu_0, # of connection points: 6
#     Node 6, Type 0, BuildingBlock: INOVEN_clean_sbu_0, # of connection points: 6
#     Node 7, Type 0, BuildingBlock: INOVEN_clean_sbu_0, # of connection points: 6
#     Node 8, Type 0, BuildingBlock: INOVEN_clean_sbu_0, # of connection points: 6
#     Node 9, Type 0, BuildingBlock: INOVEN_clean_sbu_0, # of connection points: 6
#     Node 10, Type 0, BuildingBlock: INOVEN_clean_sbu_0, # of connection points: 6
#     Node 11, Type 0, BuildingBlock: INOVEN_clean_sbu_0, # of connection points: 6
#     Node 12, Type 0, BuildingBlock: INOVEN_clean_sbu_0, # of connection points: 6
#     Node 13, Type 0, BuildingBlock: INOVEN_clean_sbu_0, # of connection points: 6
#     Node 14, Type 0, BuildingBlock: INOVEN_clean_sbu_0, # of connection points: 6
#     Node 15, Type 0, BuildingBlock: INOVEN_clean_sbu_0, # of connection points: 6
#     Node 16, Type 0, BuildingBlock: INOVEN_clean_sbu_0, # of connection points: 6
#     Node 17, Type 0, BuildingBlock: INOVEN_clean_sbu_0, # of connection points: 6
#     Edge 18, Type (0, 0), None
#     Edge 19, Type (0, 0), None
#     Edge 20, Type (0, 0), None
#     Edge 21, Type (0, 0), None
#     Edge 22, Type (0, 0), None
#     Edge 23, Type (0, 0), None
#     Edge 24, Type (0, 0), None
#     Edge 25, Type (0, 0), None
#     Edge 26, Type (0, 0), None
#     Edge 27, Type (0, 0), None
#     Edge 28, Type (0, 0), None
#     Edge 29, Type (0, 0), None
#     Edge 30, Type (0, 0), None
#     Edge 31, Type (0, 0), None
#     Edge 32, Type (0, 0), None
#     Edge 33, Type (0, 0), None
#     Edge 34, Type (0, 0), None
#     Edge 35, Type (0, 0), None
#     Edge 36, Type (0, 0), None
#     Edge 37, Type (0, 0), None
#     Edge 38, Type (0, 0), None
#     Edge 39, Type (0, 0), None
#     Edge 40, Type (0, 0), None
#     Edge 41, Type (0, 0), None
#     Edge 42, Type (0, 0), None
#     Edge 43, Type (0, 0), None
#     Edge 44, Type (0, 0), None
#     Edge 45, Type (0, 0), None
#     Edge 46, Type (0, 0), None
#     Edge 47, Type (0, 0), None
#     Edge 48, Type (0, 0), None
#     Edge 49, Type (0, 0), None
#     Edge 50, Type (0, 0), None
#     Edge 51, Type (0, 0), None
#     Edge 52, Type (0, 0), None
#     Edge 53, Type (0, 0), None
#     Edge 54, Type (0, 0), None
#     Edge 55, Type (0, 0), None
#     Edge 56, Type (0, 0), None
#     Edge 57, Type (0, 0), None
#     Edge 58, Type (0, 0), None
#     Edge 59, Type (0, 0), None
#     Edge 60, Type (0, 0), None
#     Edge 61, Type (0, 0), None
#     Edge 62, Type (0, 0), None
#     Edge 63, Type (0, 0), None
#     Edge 64, Type (0, 0), None
#     Edge 65, Type (0, 0), None
#     Edge 66, Type (0, 0), None
#     Edge 67, Type (0, 0), None
#     Edge 68, Type (0, 0), None
#     Edge 69, Type (0, 0), None
#     Edge 70, Type (0, 0), None
#     Edge 71, Type (0, 0), None
# Relax obj value: 0.118
# Max RMSD: 0.288
# Mean RMSD: 0.288
data_MOF--net-wmi--node1-INOVEN_clean_sbu_0--edge1-none
_symmetry_space_group_name_H-M    P1
_symmetry_Int_Tables_number       1
_symmetry_cell_setting            triclinic
loop_
_symmetry_equiv_pos_as_xyz
'x, y, z'
_cell_length_a     22.512611
_cell_length_b     22.515458
_cell_length_c     35.071271
_cell_angle_alpha  90.003487
_cell_angle_beta   90.002819
_cell_angle_gamma 119.99947
loop_
_atom_site_label
_atom_site_type_symbol
_atom_site_fract_x
_atom_site_fract_y
_atom_site_fract_z
_atom_type_partial_charge
Gd0 Gd 0.60706 0.1273 0.06985 0.0
Gd1 Gd 0.4854 1.04156 0.04722 0.0
C2 C 0.53881 0.20729 0.04637 0.0
C3 C 0.72871 0.19651 0.099 0.0
C4 C 0.79794 0.23543 0.08142 0.0
C5 C 0.85582 0.24146 0.10027 0.0
C6 C 0.80704 0.26745 0.04579 0.0
C7 C 0.93158 0.32069 0.05159 0.0
C8 C 0.87311 0.31 0.03123 0.0
C9 C 0.92203 0.28333 0.08529 0.0
C10 C 0.48656 0.10154 0.12331 0.0
C11 C 0.59433 0.9925 0.04843 0.0
C12 C 0.35761 0.94978 0.04052 0.0
C13 C 0.32623 0.87484 0.03836 0.0
C14 C 0.26603 0.83691 0.01756 0.0
C15 C 0.35406 0.84038 0.05883 0.0
C16 C 0.2564 0.73083 0.04173 0.0
C17 C 0.31925 0.76862 0.06053 0.0
C18 C 0.23155 0.76559 0.0191 0.0
C19 C 0.5645 0.07649 -0.01553 0.0
O20 O 0.59966 0.21404 0.04801 0.0
O21 O 0.48366 0.14463 0.04819 0.0
O22 O 0.69714 0.13005 0.09422 0.0
O23 O 0.68774 0.22181 0.09462 0.0
O24 O 0.51533 0.06911 0.10801 0.0
O25 O 0.51617 0.07144 0.10766 0.0
O26 O 0.53097 0.97207 0.05965 0.0
O27 O 0.63445 1.05733 0.04228 0.0
O28 O 0.39445 0.98523 0.01152 0.0
O29 O 0.38659 0.97624 0.0729 0.0
O30 O 0.51945 1.01446 -0.00638 0.0
O31 O 0.56991 0.11849 0.01015 0.0
H32 H 0.85006 0.21655 0.12753 0.0
H33 H 0.76328 0.26252 0.03016 0.0
H34 H 0.87878 0.33908 0.00552 0.0
H35 H 0.96611 0.29196 0.10182 0.0
H36 H 0.24431 0.86238 0.00127 0.0
H37 H 0.40119 0.86891 0.07485 0.0
H38 H 0.33947 0.74317 0.07804 0.0
H39 H 0.18361 0.73767 0.00367 0.0
Gd40 Gd 1.07617 0.53481 0.06986 0.0
Gd41 Gd 0.16192 0.49891 0.04721 0.0
C42 C 0.99618 0.38661 0.04635 0.0
C43 C 1.00698 0.58724 0.09902 0.0
C44 C 0.96807 0.61758 0.08144 0.0
C45 C 0.96202 0.66938 0.10032 0.0
C46 C 0.93611 0.59473 0.0458 0.0
C47 C 0.88285 0.66601 0.05162 0.0
C48 C 0.89357 0.61827 0.03123 0.0
C49 C 0.92015 0.69373 0.08534 0.0
C50 C 0.10194 0.44006 0.12329 0.0
C51 C 0.21099 0.65688 0.04845 0.0
C52 C 0.25368 0.46289 0.0405 0.0
C53 C 0.32862 0.50644 0.03833 0.0
C54 C 0.36655 0.48413 0.01755 0.0
C55 C 0.3631 0.56874 0.05879 0.0
C56 C 0.47265 0.5806 0.04171 0.0
C57 C 0.43486 0.60568 0.06049 0.0
C58 C 0.43787 0.52096 0.01909 0.0
C59 C 0.12699 0.54311 -0.01553 0.0
O60 O 0.98941 0.44069 0.048 0.0
O61 O 1.05883 0.3941 0.04816 0.0
O62 O 1.07345 0.62213 0.09425 0.0
O63 O 0.98166 0.52099 0.09462 0.0
O64 O 0.13437 0.50126 0.10801 0.0
O65 O 0.13204 0.49977 0.10765 0.0
O66 O 0.23143 0.61396 0.05966 0.0
O67 O 0.14616 0.63218 0.0423 0.0
O68 O 0.21821 0.46428 0.0115 0.0
O69 O 0.22724 0.46541 0.07288 0.0
O70 O 0.18903 0.56008 -0.00638 0.0
O71 O 1.08498 0.50651 0.01015 0.0
H72 H 0.98688 0.68847 0.1276 0.0
H73 H 0.94106 0.55594 0.03014 0.0
H74 H 0.86452 0.59491 0.0055 0.0
H75 H 0.9115 0.72914 0.10189 0.0
H76 H 0.34106 0.43693 0.00128 0.0
H77 H 0.33458 0.58736 0.07479 0.0
H78 H 0.46033 0.65136 0.07799 0.0
H79 H 0.46578 0.50092 0.00368 0.0
Gd80 Gd 0.66869 0.5964 0.06985 0.0
Gd81 Gd 0.70458 0.71807 0.04723 0.0
C82 C 0.81691 0.66466 0.04636 0.0
C83 C 0.61627 0.47477 0.099 0.0
C84 C 0.58592 0.40552 0.08142 0.0
C85 C 0.53411 0.34767 0.10031 0.0
C86 C 0.60877 0.39639 0.04578 0.0
C87 C 0.53748 0.27188 0.05162 0.0
C88 C 0.58522 0.3303 0.03123 0.0
C89 C 0.50975 0.28145 0.08534 0.0
C90 C 0.76342 0.71689 0.12332 0.0
C91 C 0.5466 0.60914 0.04844 0.0
C92 C 0.74058 0.84584 0.04055 0.0
C93 C 0.69703 0.87723 0.03837 0.0
C94 C 0.71937 0.93747 0.01761 0.0
C95 C 0.63469 0.84939 0.05879 0.0
C96 C 0.62288 0.9471 0.04172 0.0
C97 C 0.59776 0.88422 0.06048 0.0
C98 C 0.68255 0.97197 0.01914 0.0
C99 C 0.66039 0.63897 -0.01553 0.0
O100 O 0.76283 0.60381 0.04799 0.0
O101 O 0.80941 0.71981 0.0482 0.0
O102 O 0.58137 0.50634 0.09423 0.0
O103 O 0.68253 0.51572 0.09459 0.0
O104 O 0.70223 0.68813 0.10802 0.0
O105 O 0.70372 0.68729 0.10766 0.0
O106 O 0.58952 0.67249 0.05965 0.0
O107 O 0.57131 0.56901 0.04228 0.0
O108 O 0.73924 0.80902 0.01155 0.0
O109 O 0.738 0.81684 0.07293 0.0
O110 O 0.64342 0.68403 -0.00637 0.0
O111 O 0.69699 0.63355 0.01016 0.0
H112 H 0.51503 0.35346 0.12758 0.0
H113 H 0.64757 0.44012 0.03013 0.0
H114 H 0.60859 0.3246 0.0055 0.0
H115 H 0.47434 0.23739 0.10189 0.0
H116 H 0.7666 0.9592 0.00136 0.0
H117 H 0.61604 0.80223 0.07478 0.0
H118 H 0.55204 0.86398 0.07796 0.0
H119 H 0.70263 1.01994 0.00373 0.0
Gd120 Gd 0.15846 0.57593 0.85923 0.0
Gd121 Gd 1.07269 0.4543 0.88186 0.0
C122 C 0.23843 0.50769 0.88274 0.0
C123 C 0.22766 0.69756 0.83007 0.0
C124 C 0.26655 0.76681 0.84765 0.0
C125 C 0.2726 0.82465 0.82875 0.0
C126 C 0.29851 0.77595 0.88329 0.0
C127 C 0.35176 0.90047 0.87745 0.0
C128 C 0.34104 0.84204 0.89785 0.0
C129 C 0.31446 0.89087 0.84372 0.0
C130 C 0.1327 0.45543 0.80577 0.0
C131 C 1.02366 0.56324 0.88064 0.0
C132 C 0.98092 0.32652 0.88853 0.0
C133 C 0.90598 0.29511 0.89073 0.0
C134 C 0.86809 0.23483 0.91146 0.0
C135 C 0.87147 0.32298 0.87034 0.0
C136 C 0.76195 0.22522 0.88739 0.0
C137 C 0.79971 0.28814 0.86866 0.0
C138 C 0.79677 0.20032 0.90994 0.0
C139 C 0.10755 0.5333 0.9446 0.0
O140 O 0.2452 0.56854 0.88109 0.0
O141 O 0.17577 0.45255 0.88091 0.0
O142 O 0.16119 0.66597 0.83483 0.0
O143 O 0.25299 0.65662 0.83449 0.0
O144 O 0.10026 0.4842 0.82107 0.0
O145 O 0.1026 0.48504 0.82142 0.0
O146 O 1.00321 0.49988 0.86943 0.0
O147 O 1.0885 0.60334 0.88681 0.0
O148 O 1.01643 0.36333 0.91753 0.0
O149 O 1.00732 0.35553 0.85615 0.0
O150 O 1.0455 0.48828 0.93545 0.0
O151 O 0.14963 0.53881 0.91893 0.0
H152 H 0.24774 0.81885 0.80147 0.0
H153 H 0.29356 0.73222 0.89896 0.0
H154 H 0.37008 0.84774 0.92359 0.0
H155 H 0.32311 0.93492 0.82716 0.0
H156 H 0.89361 0.21309 0.92768 0.0
H157 H 0.89996 0.37016 0.85438 0.0
H158 H 0.77421 0.30839 0.8512 0.0
H159 H 0.76889 0.15233 0.92532 0.0
Gd160 Gd 0.62753 0.63755 0.85923 0.0
Gd161 Gd 0.74918 0.67343 0.88186 0.0
C162 C 0.69577 0.78576 0.88272 0.0
C163 C 0.50588 0.5851 0.83008 0.0
C164 C 0.43665 0.55476 0.84767 0.0
C165 C 0.37877 0.50295 0.82879 0.0
C166 C 0.42754 0.57763 0.88331 0.0
C167 C 0.30302 0.50634 0.87749 0.0
C168 C 0.36147 0.55409 0.89788 0.0
C169 C 0.31256 0.4786 0.84377 0.0
C170 C 0.74802 0.73226 0.80577 0.0
C171 C 0.64024 0.51547 0.88065 0.0
C172 C 0.87698 0.70947 0.88854 0.0
C173 C 0.90838 0.66593 0.89072 0.0
C174 C 0.96867 0.68831 0.91146 0.0
C175 C 0.88051 0.60358 0.87031 0.0
C176 C 0.97827 0.5918 0.88736 0.0
C177 C 0.91535 0.56665 0.86862 0.0
C178 C 1.00318 0.65149 0.90992 0.0
C179 C 0.67019 0.62932 0.9446 0.0
O180 O 0.63492 0.73168 0.88107 0.0
O181 O 0.75092 0.77825 0.8809 0.0
O182 O 0.53747 0.55022 0.83485 0.0
O183 O 0.54683 0.65136 0.83448 0.0
O184 O 0.71926 0.67108 0.82107 0.0
O185 O 0.71842 0.67257 0.82142 0.0
O186 O 0.70359 0.55838 0.86943 0.0
O187 O 0.60013 0.54019 0.88682 0.0
O188 O 0.84016 0.70813 0.91754 0.0
O189 O 0.84796 0.70687 0.85616 0.0
O190 O 0.71521 0.61229 0.93546 0.0
O191 O 0.66467 0.66587 0.91893 0.0
H192 H 0.38454 0.48386 0.80151 0.0
H193 H 0.4713 0.61643 0.89896 0.0
H194 H 0.35579 0.57746 0.92361 0.0
H195 H 0.26848 0.44318 0.82722 0.0
H196 H 0.99042 0.73555 0.9277 0.0
H197 H 0.83333 0.5849 0.85435 0.0
H198 H 0.89509 0.52092 0.85116 0.0
H199 H 1.05117 0.67159 0.92531 0.0
Gd200 Gd 0.56592 1.04503 0.85923 0.0
Gd201 Gd 0.53001 0.13079 0.88185 0.0
C202 C 0.41769 0.96506 0.8827 0.0
C203 C 0.61837 0.97583 0.8301 0.0
C204 C 0.6487 0.93692 0.84768 0.0
C205 C 0.70054 0.93088 0.82881 0.0
C206 C 0.62581 0.90491 0.88331 0.0
C207 C 0.69711 0.85169 0.87749 0.0
C208 C 0.64934 0.86236 0.89787 0.0
C209 C 0.72488 0.88901 0.84378 0.0
C210 C 0.47121 0.07079 0.80575 0.0
C211 C 0.68799 0.17982 0.88067 0.0
C212 C 0.49399 0.22256 0.8885 0.0
C213 C 0.53753 0.2975 0.89069 0.0
C214 C 0.51513 0.33539 0.91143 0.0
C215 C 0.5999 0.332 0.8703 0.0
C216 C 0.61167 0.44152 0.88735 0.0
C217 C 0.63683 0.40376 0.86862 0.0
C218 C 0.55195 0.40671 0.9099 0.0
C219 C 0.57413 0.09594 0.9446 0.0
O220 O 0.47177 0.9583 0.88107 0.0
O221 O 0.42518 1.02771 0.88087 0.0
O222 O 0.65326 1.04229 0.83487 0.0
O223 O 0.55211 0.95052 0.83449 0.0
O224 O 0.5324 0.10322 0.82106 0.0
O225 O 0.53091 0.10089 0.82142 0.0
O226 O 0.64508 0.20026 0.86944 0.0
O227 O 0.66328 0.115 0.88683 0.0
O228 O 0.49529 0.18708 0.91751 0.0
O229 O 0.49662 0.19615 0.85613 0.0
O230 O 0.59114 0.15797 0.93546 0.0
O231 O 0.53758 1.05386 0.91893 0.0
H232 H 0.71965 0.95577 0.80154 0.0
H233 H 0.58699 0.90984 0.89895 0.0
H234 H 0.62595 0.83329 0.92358 0.0
H235 H 0.76032 0.88037 0.82724 0.0
H236 H 0.46788 0.30989 0.92765 0.0
H237 H 0.61859 0.3035 0.85434 0.0
H238 H 0.68257 0.42924 0.85117 0.0
H239 H 0.53184 0.43459 0.92529 0.0
Gd240 Gd 0.27368 0.46064 0.40315 0.0
Gd241 Gd 0.15201 0.37489 0.38054 0.0
C242 C 0.20542 0.54062 0.37971 0.0
C243 C 0.39535 0.52981 0.43229 0.0
C244 C 0.46459 0.56871 0.41472 0.0
C245 C 0.52245 0.57473 0.43358 0.0
C246 C 0.47371 0.60072 0.37909 0.0
C247 C 0.59825 0.65395 0.38491 0.0
C248 C 0.53979 0.64326 0.36454 0.0
C249 C 0.58867 0.6166 0.41862 0.0
C250 C 0.15323 0.43487 0.45665 0.0
C251 C 0.26097 0.32586 0.38171 0.0
C252 C 1.02423 0.28308 0.37387 0.0
C253 C 0.99285 0.20814 0.3717 0.0
C254 C 0.93261 0.17022 0.35092 0.0
C255 C 1.02069 0.17367 0.39213 0.0
C256 C 0.92302 0.06412 0.37502 0.0
C257 C 0.98589 0.10191 0.39381 0.0
C258 C 0.89814 0.09891 0.35244 0.0
C259 C 0.23105 0.40986 0.31777 0.0
O260 O 0.26627 0.54739 0.38135 0.0
O261 O 0.15026 0.47796 0.38153 0.0
O262 O 0.36375 0.46335 0.42751 0.0
O263 O 0.3544 0.55513 0.42791 0.0
O264 O 0.18198 0.40244 0.44133 0.0
O265 O 0.18282 0.40477 0.44098 0.0
O266 O 0.19762 0.30542 0.39295 0.0
O267 O 0.30107 0.39069 0.37554 0.0
O268 O 1.06103 0.31856 0.34487 0.0
O269 O 1.05324 0.30953 0.40625 0.0
O270 O 0.18603 0.34783 0.32692 0.0
O271 O 0.23649 0.45186 0.34347 0.0
H272 H 0.51667 0.54982 0.46085 0.0
H273 H 0.42996 0.5958 0.36345 0.0
H274 H 0.54548 0.67234 0.33882 0.0
H275 H 0.63274 0.62522 0.43516 0.0
H276 H 0.91088 0.19571 0.33466 0.0
H277 H 1.06784 0.20219 0.40813 0.0
H278 H 1.00613 0.07645 0.41129 0.0
H279 H 0.85018 0.071 0.33701 0.0
Gd280 Gd 0.74284 0.8681 0.40316 0.0
Gd281 Gd 0.82859 0.8322 0.38053 0.0
C282 C 0.66284 0.71988 0.37968 0.0
C283 C 0.67367 0.92057 0.43231 0.0
C284 C 0.63479 0.95094 0.41474 0.0
C285 C 0.62874 1.00273 0.43364 0.0
C286 C 0.60283 0.92812 0.3791 0.0
C287 C 0.54958 0.9994 0.38495 0.0
C288 C 0.5603 0.95168 0.36454 0.0
C289 C 0.58688 1.0271 0.41867 0.0
C290 C 0.76861 0.77339 0.45662 0.0
C291 C 0.87763 0.99016 0.38172 0.0
C292 C 0.92037 0.7962 0.37384 0.0
C293 C 0.99532 0.83975 0.37166 0.0
C294 C 1.03323 0.81742 0.3509 0.0
C295 C 1.02981 0.90209 0.39209 0.0
C296 C 0.13935 0.91393 0.375 0.0
C297 C 0.10157 0.93903 0.39377 0.0
C298 C 0.10456 0.85425 0.35242 0.0
C299 C 0.79362 0.87629 0.31777 0.0
O300 O 0.65607 0.77395 0.38133 0.0
O301 O 0.7255 0.72738 0.3815 0.0
O302 O 0.74015 0.95544 0.42754 0.0
O303 O 0.64833 0.85431 0.42791 0.0
O304 O 0.80104 0.83457 0.44132 0.0
O305 O 0.79871 0.83308 0.44097 0.0
O306 O 0.89807 0.94726 0.39295 0.0
O307 O 0.81279 0.96544 0.37556 0.0
O308 O 0.88488 0.79754 0.34484 0.0
O309 O 0.89395 0.79877 0.40622 0.0
O310 O 0.85566 0.8933 0.32693 0.0
O311 O 0.75161 0.83972 0.34346 0.0
H312 H 0.6536 1.0218 0.46092 0.0
H313 H 0.60778 0.88934 0.36343 0.0
H314 H 0.53125 0.92833 0.33881 0.0
H315 H 0.57823 0.0625 0.43523 0.0
H316 H 1.00773 0.77019 0.33464 0.0
H317 H 1.0013 0.92073 0.40808 0.0
H318 H 0.12705 0.98475 0.41124 0.0
H319 H 0.13245 0.83418 0.33701 0.0
Gd320 Gd 0.33539 0.92978 0.40315 0.0
Gd321 Gd 0.3713 1.05145 0.38055 0.0
C322 C 0.48364 0.99805 0.3797 0.0
C323 C 0.28293 0.80813 0.43229 0.0
C324 C 0.25255 0.73888 0.41472 0.0
C325 C 0.20075 0.68104 0.43362 0.0
C326 C 0.27538 0.72972 0.37908 0.0
C327 C 0.20408 0.60521 0.38494 0.0
C328 C 0.25182 0.66362 0.36454 0.0
C329 C 0.17638 0.61481 0.41867 0.0
C330 C 0.43009 1.05022 0.45665 0.0
C331 C 0.21332 0.9425 0.38171 0.0
C332 C 0.40727 0.17922 0.3739 0.0
C333 C 0.36372 0.21061 0.3717 0.0
C334 C 0.3861 0.27088 0.35095 0.0
C335 C 0.30135 0.18276 0.39209 0.0
C336 C 0.28955 0.28048 0.37502 0.0
C337 C 0.26441 0.21758 0.39376 0.0
C338 C 0.34927 0.30537 0.35247 0.0
C339 C 0.32722 0.97242 0.31777 0.0
O340 O 0.42956 0.9372 0.38133 0.0
O341 O 0.47614 1.0532 0.38153 0.0
O342 O 0.24805 0.83972 0.42752 0.0
O343 O 0.34919 0.84906 0.42788 0.0
O344 O 0.3689 1.02147 0.44133 0.0
O345 O 0.3704 1.02064 0.44098 0.0
O346 O 0.25622 1.00584 0.39295 0.0
O347 O 0.23805 0.9024 0.37554 0.0
O348 O 0.40599 0.14244 0.3449 0.0
O349 O 0.40464 0.15019 0.40628 0.0
O350 O 0.31021 1.01744 0.32693 0.0
O351 O 0.36378 0.96698 0.34347 0.0
H352 H 0.18169 0.68685 0.4609 0.0
H353 H 0.31418 0.77344 0.36342 0.0
H354 H 0.27516 0.65791 0.33881 0.0
H355 H 0.14097 0.57076 0.43523 0.0
H356 H 0.43335 0.29262 0.33473 0.0
H357 H 0.28267 0.13558 0.40807 0.0
H358 H 0.21866 0.19732 0.41122 0.0
H359 H 0.36937 0.35335 0.33707 0.0
Gd360 Gd 0.82504 0.90918 0.19256 0.0
Gd361 Gd 0.73937 0.78763 0.21507 0.0
C362 C 0.90507 0.84095 0.21598 0.0
C363 C 0.89422 1.03087 0.16347 0.0
C364 C 0.93311 0.10013 0.18102 0.0
C365 C 0.93911 0.15794 0.16211 0.0
C366 C 0.96516 0.10933 0.21664 0.0
C367 C 1.01838 0.23384 0.21074 0.0
C368 C 1.00772 0.17544 0.23116 0.0
C369 C 0.98099 0.22418 0.17704 0.0
C370 C 0.7994 0.78887 0.139 0.0
C371 C 0.69027 0.89649 0.21396 0.0
C372 C 0.64759 0.65984 0.22167 0.0
C373 C 0.57265 0.62845 0.22389 0.0
C374 C 0.53478 0.56825 0.2447 0.0
C375 C 0.53812 0.65627 0.20347 0.0
C376 C 0.42861 0.55862 0.22065 0.0
C377 C 0.46635 0.62145 0.20184 0.0
C378 C 0.46345 0.53377 0.24322 0.0
C379 C 0.77418 0.86644 0.2779 0.0
O380 O 0.91182 0.90179 0.21436 0.0
O381 O 0.84241 0.78582 0.21412 0.0
O382 O 0.82775 0.99927 0.16825 0.0
O383 O 0.91957 0.98995 0.16787 0.0
O384 O 0.76689 0.81764 0.15422 0.0
O385 O 0.76929 0.81847 0.15465 0.0
O386 O 0.66986 0.83319 0.20266 0.0
O387 O 0.75508 0.93656 0.22018 0.0
O388 O 0.68311 0.69659 0.25069 0.0
O389 O 0.67398 0.68892 0.18931 0.0
O390 O 0.71213 0.82145 0.26872 0.0
O391 O 0.81627 0.872 0.25223 0.0
H392 H 0.91418 0.1521 0.13485 0.0
H393 H 0.96026 0.06562 0.23231 0.0
H394 H 1.03682 0.18118 0.25687 0.0
H395 H 0.9896 0.2682 0.16047 0.0
H396 H 0.56031 0.54655 0.26094 0.0
H397 H 0.5666 0.70339 0.18746 0.0
H398 H 0.44084 0.64166 0.18437 0.0
H399 H 0.43559 0.48585 0.25866 0.0
Gd400 Gd 0.29429 0.97088 0.19257 0.0
Gd401 Gd 0.41585 1.00678 0.21507 0.0
C402 C 0.36251 0.11914 0.21596 0.0
C403 C 0.17257 0.91835 0.16348 0.0
C404 C 0.10333 0.888 0.18104 0.0
C405 C 1.04549 0.83616 0.16215 0.0
C406 C 0.09417 0.9109 0.21666 0.0
C407 C 0.96966 0.8396 0.21078 0.0
C408 C 1.02807 0.88736 0.23119 0.0
C409 C 0.97926 0.81182 0.17709 0.0
C410 C 0.41458 0.06552 0.139 0.0
C411 C 0.30699 0.84883 0.21396 0.0
C412 C 0.54366 1.04282 0.22168 0.0
C413 C 0.57505 0.99927 0.22388 0.0
C414 C 0.63526 1.02158 0.24469 0.0
C415 C 0.54723 0.93695 0.20344 0.0
C416 C 0.64488 0.92507 0.22062 0.0
C417 C 0.58204 0.89999 0.2018 0.0
C418 C 0.66973 0.98474 0.24321 0.0
C419 C 0.33706 0.96282 0.2779 0.0
O420 O 0.30167 0.06505 0.21434 0.0
O421 O 0.41765 0.11163 0.21411 0.0
O422 O 0.20418 0.88349 0.16827 0.0
O423 O 0.2135 0.98461 0.16786 0.0
O424 O 0.38582 1.00426 0.15422 0.0
O425 O 0.38499 1.00583 0.15465 0.0
O426 O 0.37029 0.89172 0.20267 0.0
O427 O 0.26692 0.87357 0.22019 0.0
O428 O 0.50691 1.04155 0.2507 0.0
O429 O 0.51458 1.04015 0.18932 0.0
O430 O 0.38204 0.94575 0.26873 0.0
O431 O 0.33149 0.99933 0.25224 0.0
H432 H 1.0513 0.81705 0.13489 0.0
H433 H 0.1379 0.94972 0.23231 0.0
H434 H 1.02235 0.91076 0.2569 0.0
H435 H 0.9352 0.77638 0.16053 0.0
H436 H 0.65696 0.0688 0.26095 0.0
H437 H 0.5001 0.91831 0.18742 0.0
H438 H 0.56182 0.85428 0.18432 0.0
H439 H 0.71766 1.00478 0.25865 0.0
Gd440 Gd 0.23259 0.37846 0.19257 0.0
Gd441 Gd 0.19666 0.46412 0.21507 0.0
C442 C 1.08431 0.29843 0.21594 0.0
C443 C 0.28513 0.30928 0.16349 0.0
C444 C 0.31547 0.27036 0.18105 0.0
C445 C 0.36733 0.26439 0.16217 0.0
C446 C 0.29254 0.23827 0.21665 0.0
C447 C 0.36385 0.18507 0.21077 0.0
C448 C 0.31606 0.19569 0.23117 0.0
C449 C 0.39165 0.22248 0.1771 0.0
C450 C 0.13796 0.4041 0.13898 0.0
C451 C 0.35464 0.51322 0.21399 0.0
C452 C 0.16065 0.5559 0.22165 0.0
C453 C 0.2042 0.63084 0.22385 0.0
C454 C 0.18188 0.66871 0.24467 0.0
C455 C 0.26653 0.66535 0.20343 0.0
C456 C 0.27841 0.77486 0.22062 0.0
C457 C 0.30349 0.73711 0.2018 0.0
C458 C 0.21873 0.74003 0.24319 0.0
C459 C 0.24064 0.42931 0.2779 0.0
O460 O 0.13841 0.29168 0.21434 0.0
O461 O 1.09181 0.36108 0.21408 0.0
O462 O 0.32 0.37573 0.1683 0.0
O463 O 0.21886 0.28395 0.16786 0.0
O464 O 0.19922 0.4366 0.15421 0.0
O465 O 0.19765 0.4342 0.15464 0.0
O466 O 0.31174 0.53361 0.20268 0.0
O467 O 0.32991 0.44842 0.22021 0.0
O468 O 0.16187 0.5204 0.25067 0.0
O469 O 0.16334 0.52949 0.18929 0.0
O470 O 0.25769 0.49134 0.26873 0.0
O471 O 0.20413 0.38723 0.25223 0.0
H472 H 0.38647 0.28935 0.13492 0.0
H473 H 0.2537 0.24315 0.23231 0.0
H474 H 0.29264 0.16655 0.25687 0.0
H475 H 0.42712 0.2139 0.16055 0.0
H476 H 0.13466 0.6432 0.26092 0.0
H477 H 0.28517 0.63687 0.18741 0.0
H478 H 0.34921 0.76261 0.18432 0.0
H479 H 0.19868 0.76791 0.25864 0.0
Gd480 Gd 0.94026 0.79388 0.73649 0.0
Gd481 Gd 0.81868 0.70823 0.71399 0.0
C482 C 0.87201 0.87392 0.71314 0.0
C483 C 1.06199 0.86302 0.76556 0.0
C484 C 0.13124 0.90193 0.74801 0.0
C485 C 0.18907 0.90789 0.76689 0.0
C486 C 0.14041 0.93403 0.71241 0.0
C487 C 0.26494 0.98724 0.71829 0.0
C488 C 0.20652 0.97661 0.6979 0.0
C489 C 0.25531 0.94979 0.75196 0.0
C490 C 0.82 0.76823 0.79008 0.0
C491 C 0.92755 0.65913 0.71506 0.0
C492 C 0.69088 0.61641 0.7074 0.0
C493 C 0.65951 0.54148 0.70521 0.0
C494 C 0.59937 0.50357 0.68434 0.0
C495 C 0.6873 0.50699 0.72568 0.0
C496 C 0.58975 0.39745 0.70843 0.0
C497 C 0.65253 0.43523 0.7273 0.0
C498 C 0.56493 0.43225 0.68581 0.0
C499 C 0.89751 0.74315 0.65113 0.0
O500 O 0.93285 0.88067 0.71475 0.0
O501 O 0.81686 0.81127 0.71499 0.0
O502 O 1.03038 0.79657 0.76075 0.0
O503 O 1.02106 0.88837 0.7612 0.0
O504 O 0.84875 0.73572 0.77485 0.0
O505 O 0.84958 0.73813 0.77442 0.0
O506 O 0.86425 0.63873 0.72637 0.0
O507 O 0.9676 0.72393 0.70882 0.0
O508 O 0.72762 0.6519 0.67838 0.0
O509 O 0.71995 0.64287 0.73976 0.0
O510 O 0.85253 0.68112 0.66032 0.0
O511 O 0.903 0.78516 0.67683 0.0
H512 H 0.18324 0.88291 0.79413 0.0
H513 H 0.09669 0.92916 0.69676 0.0
H514 H 0.21225 1.00575 0.6722 0.0
H515 H 0.29935 0.95836 0.76851 0.0
H516 H 0.57769 0.52907 0.66805 0.0
H517 H 0.73439 0.53549 0.74173 0.0
H518 H 0.67272 0.40975 0.74481 0.0
H519 H 0.51704 0.40436 0.67033 0.0
Gd520 Gd 0.40959 0.20143 0.73649 0.0
Gd521 Gd 0.49524 0.16552 0.71398 0.0
C522 C 0.32954 1.05317 0.71311 0.0
C523 C 0.34045 0.254 0.76558 0.0
C524 C 0.30157 0.28437 0.74804 0.0
C525 C 0.29557 0.33619 0.76694 0.0
C526 C 0.26951 0.26152 0.71241 0.0
C527 C 0.21629 0.33281 0.71832 0.0
C528 C 0.22695 0.28507 0.6979 0.0
C529 C 0.25368 0.36054 0.75202 0.0
C530 C 0.43524 0.1068 0.79006 0.0
C531 C 0.54436 0.32348 0.71508 0.0
C532 C 0.58704 0.12952 0.70737 0.0
C533 C 0.66198 0.17308 0.70517 0.0
C534 C 0.69987 0.15081 0.68433 0.0
C535 C 0.69649 0.23538 0.72562 0.0
C536 C 0.80602 0.24733 0.7084 0.0
C537 C 0.76826 0.27236 0.72725 0.0
C538 C 0.7712 0.18768 0.6858 0.0
C539 C 0.46032 0.20946 0.65114 0.0
O540 O 0.32278 0.10725 0.71473 0.0
O541 O 0.3922 1.06067 0.71496 0.0
O542 O 0.40692 0.28884 0.76079 0.0
O543 O 0.31509 0.18773 0.76119 0.0
O544 O 0.46775 0.16806 0.77484 0.0
O545 O 0.46534 0.16648 0.77441 0.0
O546 O 0.56476 0.28058 0.72638 0.0
O547 O 0.47954 0.29873 0.70885 0.0
O548 O 0.55154 0.13078 0.67836 0.0
O549 O 0.56061 0.13216 0.73974 0.0
O550 O 0.52236 0.22651 0.66033 0.0
O551 O 0.41831 0.17293 0.67682 0.0
H552 H 0.32051 0.35528 0.79421 0.0
H553 H 0.27442 0.22271 0.69674 0.0
H554 H 0.19784 0.2617 0.67219 0.0
H555 H 0.24508 0.39597 0.76859 0.0
H556 H 0.67436 0.10362 0.66805 0.0
H557 H 0.66799 0.25399 0.74167 0.0
H558 H 0.79375 0.31805 0.74475 0.0
H559 H 0.79909 0.16767 0.67033 0.0
Gd560 Gd 1.00206 0.2632 0.73648 0.0
Gd561 Gd 1.03798 0.38478 0.714 0.0
C562 C 0.15035 0.33146 0.71313 0.0
C563 C 0.9495 0.14149 0.76556 0.0
C564 C 0.91913 0.07222 0.74802 0.0
C565 C 0.8673 1.01442 0.76693 0.0
C566 C 0.94199 0.06301 0.7124 0.0
C567 C 0.87068 0.93852 0.71832 0.0
C568 C 0.91843 0.99689 0.6979 0.0
C569 C 0.84293 0.94817 0.75201 0.0
C570 C 0.09668 0.38345 0.79009 0.0
C571 C 0.88 0.27591 0.71506 0.0
C572 C 1.07394 0.51257 0.70742 0.0
C573 C 1.03038 0.54394 0.70521 0.0
C574 C 1.05268 0.60411 0.68438 0.0
C575 C 0.96805 0.51614 0.72563 0.0
C576 C 0.95614 0.61374 0.70842 0.0
C577 C 0.93107 0.55093 0.72725 0.0
C578 C 1.01581 0.63857 0.68584 0.0
C579 C 0.99404 0.30594 0.65114 0.0
O580 O 0.09627 0.27062 0.71473 0.0
O581 O 0.14284 0.3866 0.71499 0.0
O582 O 0.91465 0.1731 0.76076 0.0
O583 O 1.01577 0.1824 0.76117 0.0
O584 O 1.03542 0.3547 0.77485 0.0
O585 O 1.03699 0.35387 0.77442 0.0
O586 O 0.92289 0.3392 0.72638 0.0
O587 O 0.90475 0.23585 0.70883 0.0
O588 O 1.07274 0.47585 0.6784 0.0
O589 O 1.07125 0.48347 0.73978 0.0
O590 O 0.977 0.35093 0.66033 0.0
O591 O 1.03057 0.30046 0.67683 0.0
H592 H 0.84821 1.02028 0.79419 0.0
H593 H 0.98081 0.10671 0.69673 0.0
H594 H 0.9418 0.99113 0.67219 0.0
H595 H 0.8075 0.90415 0.76858 0.0
H596 H 0.0999 0.62581 0.66812 0.0
H597 H 0.94942 0.46903 0.74166 0.0
H598 H 0.88536 0.53073 0.74473 0.0
H599 H 1.03585 0.68648 0.67038 0.0
Gd600 Gd 0.49171 0.24247 0.52593 0.0
Gd601 Gd 0.40603 0.12091 0.54842 0.0
C602 C 0.57174 0.17422 0.54931 0.0
C603 C 0.56085 0.36417 0.49684 0.0
C604 C 0.59972 0.43344 0.51438 0.0
C605 C 0.60571 0.49123 0.49546 0.0
C606 C 0.63177 0.44266 0.55001 0.0
C607 C 0.68498 0.56716 0.54408 0.0
C608 C 0.67432 0.50878 0.56451 0.0
C609 C 0.64759 0.55748 0.51038 0.0
C610 C 0.46606 0.1222 0.47234 0.0
C611 C 0.35696 0.2298 0.54735 0.0
C612 C 0.31423 0.99312 0.55499 0.0
C613 C 0.23929 0.96173 0.55722 0.0
C614 C 0.20143 0.90151 0.57802 0.0
C615 C 0.20474 0.98956 0.53684 0.0
C616 C 0.09524 0.89191 0.55402 0.0
C617 C 0.13297 0.95476 0.53523 0.0
C618 C 0.1301 0.86704 0.57656 0.0
C619 C 0.44088 0.19965 0.61126 0.0
O620 O 0.5785 0.23507 0.54769 0.0
O621 O 0.50907 0.11909 0.54745 0.0
O622 O 0.49438 0.33254 0.50163 0.0
O623 O 0.58622 0.32327 0.50125 0.0
O624 O 0.43355 0.15096 0.48756 0.0
O625 O 0.43596 0.15179 0.48799 0.0
O626 O 0.33655 0.16651 0.53604 0.0
O627 O 0.42177 0.26984 0.55359 0.0
O628 O 0.34977 1.02983 0.58401 0.0
O629 O 0.3406 1.02224 0.52263 0.0
O630 O 0.37883 0.1547 0.60208 0.0
O631 O 0.48296 0.20524 0.58559 0.0
H632 H 0.58078 0.48537 0.4682 0.0
H633 H 0.62687 0.39897 0.56569 0.0
H634 H 0.70343 0.51454 0.59023 0.0
H635 H 0.65619 0.60149 0.4938 0.0
H636 H 0.22697 0.87979 0.59424 0.0
H637 H 0.23321 1.0367 0.52084 0.0
H638 H 0.10745 0.97499 0.51778 0.0
H639 H 0.10225 0.8191 0.59199 0.0
Gd640 Gd 0.961 0.30426 0.52593 0.0
Gd641 Gd 1.08257 0.34017 0.54842 0.0
C642 C 1.02924 0.45253 0.54929 0.0
C643 C 0.83927 0.25168 0.49685 0.0
C644 C 0.77002 0.2213 0.5144 0.0
C645 C 0.71219 0.16947 0.4955 0.0
C646 C 0.76084 0.24417 0.55002 0.0
C647 C 0.63633 0.17287 0.54412 0.0
C648 C 0.69473 0.22062 0.56454 0.0
C649 C 0.64595 0.14512 0.51043 0.0
C650 C 1.08125 0.39886 0.47234 0.0
C651 C 0.97368 0.18221 0.54736 0.0
C652 C 0.21038 0.37617 0.555 0.0
C653 C 0.24177 0.33262 0.55721 0.0
C654 C 0.30199 0.35497 0.57801 0.0
C655 C 0.21393 0.27027 0.53681 0.0
C656 C 0.31158 0.25841 0.55399 0.0
C657 C 0.24873 0.2333 0.53519 0.0
C658 C 0.33646 0.31811 0.57655 0.0
C659 C 1.00384 0.29631 0.61127 0.0
O660 O 0.96839 0.39845 0.54767 0.0
O661 O 1.08438 0.44501 0.54744 0.0
O662 O 0.8709 0.21684 0.50164 0.0
O663 O 0.88018 0.31794 0.50124 0.0
O664 O 1.0525 0.33761 0.48757 0.0
O665 O 1.05167 0.33918 0.488 0.0
O666 O 1.03697 0.22509 0.53604 0.0
O667 O 0.93364 0.20697 0.5536 0.0
O668 O 0.17366 0.37496 0.58402 0.0
O669 O 0.18126 0.37346 0.52264 0.0
O670 O 1.04879 0.2792 0.60209 0.0
O671 O 0.99825 0.33278 0.58559 0.0
H672 H 0.71803 0.15038 0.46824 0.0
H673 H 0.80455 0.28299 0.56569 0.0
H674 H 0.68898 0.244 0.59025 0.0
H675 H 0.60191 0.10968 0.49387 0.0
H676 H 0.32372 0.40221 0.59425 0.0
H677 H 0.16679 0.25161 0.5208 0.0
H678 H 0.22849 0.18757 0.51773 0.0
H679 H 0.38441 0.33818 0.59198 0.0
Gd680 Gd 0.89921 0.71179 0.52594 0.0
Gd681 Gd 0.86328 0.79745 0.54841 0.0
C682 C 0.75092 0.63176 0.54927 0.0
C683 C 0.9518 0.64264 0.49687 0.0
C684 C 0.98217 0.60375 0.51442 0.0
C685 C 1.03402 0.59778 0.49552 0.0
C686 C 0.95926 0.57166 0.55002 0.0
C687 C 1.03058 0.51847 0.54412 0.0
C688 C 0.9828 0.52909 0.56453 0.0
C689 C 1.05837 0.55588 0.51044 0.0
C690 C 0.80462 0.73743 0.47231 0.0
C691 C 1.02126 0.84653 0.54738 0.0
C692 C 0.82729 0.88926 0.55496 0.0
C693 C 0.87084 0.9642 0.55718 0.0
C694 C 0.84848 1.00206 0.57798 0.0
C695 C 0.93321 0.99873 0.53679 0.0
C696 C 0.94506 0.10822 0.55399 0.0
C697 C 0.97018 0.07049 0.53518 0.0
C698 C 0.88534 0.07338 0.57653 0.0
C699 C 0.90714 0.7626 0.61127 0.0
O700 O 0.805 0.625 0.54767 0.0
O701 O 0.75842 0.69441 0.54741 0.0
O702 O 0.98665 0.7091 0.50168 0.0
O703 O 0.88553 0.61729 0.50124 0.0
O704 O 0.86588 0.76994 0.48756 0.0
O705 O 0.8643 0.76753 0.48799 0.0
O706 O 0.97837 0.86693 0.53605 0.0
O707 O 0.9965 0.78172 0.55362 0.0
O708 O 0.82845 0.85374 0.58398 0.0
O709 O 0.83003 0.86286 0.5226 0.0
O710 O 0.92423 0.82464 0.60209 0.0
O711 O 0.87067 0.72053 0.58558 0.0
H712 H 1.05314 0.62274 0.46827 0.0
H713 H 0.92043 0.57653 0.56568 0.0
H714 H 0.95941 0.49994 0.59023 0.0
H715 H 0.09382 0.5473 0.49388 0.0
H716 H 0.80123 0.97653 0.59421 0.0
H717 H 0.95188 0.97025 0.52079 0.0
H718 H 1.01592 0.096 0.51773 0.0
H719 H 0.86526 0.10124 0.59196 0.0
loop_
_geom_bond_atom_site_label_1
_geom_bond_atom_site_label_2
_geom_bond_distance
_geom_bond_site_symmetry_2
_ccdc_geom_bond_type
Gd0 C3 2.818 . S
Gd0 O20 2.377 . S
Gd0 O22 2.448 . S
Gd0 O23 2.506 . S
Gd0 O24 2.435 . S
Gd0 O25 2.717 1_545 S
Gd0 O27 2.395 1_545 S
Gd0 O31 2.327 . S
Gd1 C12 2.818 . S
Gd1 O21 2.395 1_565 S
Gd1 O25 2.327 . S
Gd1 O26 2.377 . S
Gd1 O28 2.448 . S
Gd1 O29 2.506 . S
Gd1 O30 2.435 . S
Gd1 O31 2.717 1_565 S
C2 O20 1.240 . S
C2 O21 1.240 . S
C3 Gd0 2.818 . S
C3 C4 1.510 . S
C3 O22 1.249 . S
C3 O23 1.252 . S
C4 C3 1.510 . S
C4 C5 1.404 . S
C4 C6 1.352 . S
C5 C4 1.404 . S
C5 C9 1.389 . S
C5 H32 0.930 . S
C6 C4 1.352 . S
C6 C8 1.374 . S
C6 H33 0.931 . S
C7 C8 1.359 . S
C7 C9 1.364 . S
C8 C6 1.374 . S
C8 C7 1.359 . S
C8 H34 0.931 . S
C9 C5 1.389 . S
C9 C7 1.364 . S
C9 H35 0.931 . S
C10 O24 1.256 . S
C10 O25 1.257 1_545 S
C11 O26 1.240 . S
C11 O27 1.240 . S
C12 Gd1 2.818 . S
C12 C13 1.510 . S
C12 O28 1.249 . S
C12 O29 1.252 . S
C13 C12 1.510 . S
C13 C14 1.404 . S
C13 C15 1.352 . S
C14 C13 1.404 . S
C14 C18 1.389 . S
C14 H36 0.930 . S
C15 C13 1.352 . S
C15 C17 1.374 . S
C15 H37 0.931 . S
C16 C17 1.359 . S
C16 C18 1.364 . S
C17 C15 1.374 . S
C17 C16 1.359 . S
C17 H38 0.931 . S
C18 C14 1.389 . S
C18 C16 1.364 . S
C18 H39 0.931 . S
C19 O30 1.256 1_545 S
C19 O31 1.257 . S
O20 Gd0 2.377 . S
O20 C2 1.240 . S
O21 Gd1 2.395 1_545 S
O21 C2 1.240 . S
O22 Gd0 2.448 . S
O22 C3 1.249 . S
O23 Gd0 2.506 . S
O23 C3 1.252 . S
O24 Gd0 2.435 . S
O24 C10 1.256 . S
O25 Gd0 2.717 1_565 S
O25 Gd1 2.327 . S
O25 C10 1.257 1_565 S
O26 Gd1 2.377 . S
O26 C11 1.240 . S
O27 Gd0 2.395 1_565 S
O27 C11 1.240 . S
O28 Gd1 2.448 . S
O28 C12 1.249 . S
O29 Gd1 2.506 . S
O29 C12 1.252 . S
O30 Gd1 2.435 . S
O30 C19 1.256 1_565 S
O31 Gd0 2.327 . S
O31 Gd1 2.717 1_545 S
O31 C19 1.257 . S
H32 C5 0.930 . S
H33 C6 0.931 . S
H34 C8 0.931 . S
H35 C9 0.931 . S
H36 C14 0.930 . S
H37 C15 0.931 . S
H38 C17 0.931 . S
H39 C18 0.931 . S
Gd40 C43 2.818 . S
Gd40 O60 2.377 . S
Gd40 O62 2.448 . S
Gd40 O63 2.506 . S
Gd40 O64 2.435 1_655 S
Gd40 O65 2.717 1_655 S
Gd40 O67 2.395 1_655 S
Gd40 O71 2.327 1_655 S
Gd41 C52 2.818 . S
Gd41 O61 2.395 1_455 S
Gd41 O65 2.327 . S
Gd41 O66 2.377 . S
Gd41 O68 2.448 . S
Gd41 O69 2.506 . S
Gd41 O70 2.435 . S
Gd41 O71 2.717 . S
C42 O60 1.240 . S
C42 O61 1.240 . S
C43 Gd40 2.818 . S
C43 C44 1.510 . S
C43 O62 1.249 . S
C43 O63 1.252 . S
C44 C43 1.510 . S
C44 C45 1.404 . S
C44 C46 1.352 . S
C45 C44 1.404 . S
C45 C49 1.389 . S
C45 H72 0.930 . S
C46 C44 1.352 . S
C46 C48 1.374 . S
C46 H73 0.931 . S
C47 C48 1.359 . S
C47 C49 1.364 . S
C48 C46 1.374 . S
C48 C47 1.359 . S
C48 H74 0.931 . S
C49 C45 1.389 . S
C49 C47 1.364 . S
C49 H75 0.931 . S
C50 O64 1.256 . S
C50 O65 1.257 . S
C51 O66 1.240 . S
C51 O67 1.240 . S
C52 Gd41 2.818 . S
C52 C53 1.510 . S
C52 O68 1.249 . S
C52 O69 1.252 . S
C53 C52 1.510 . S
C53 C54 1.404 . S
C53 C55 1.352 . S
C54 C53 1.404 . S
C54 C58 1.389 . S
C54 H76 0.930 . S
C55 C53 1.352 . S
C55 C57 1.374 . S
C55 H77 0.931 . S
C56 C57 1.359 . S
C56 C58 1.364 . S
C57 C55 1.374 . S
C57 C56 1.359 . S
C57 H78 0.931 . S
C58 C54 1.389 . S
C58 C56 1.364 . S
C58 H79 0.931 . S
C59 O70 1.256 . S
C59 O71 1.257 . S
O60 Gd40 2.377 . S
O60 C42 1.240 . S
O61 Gd41 2.395 1_655 S
O61 C42 1.240 . S
O62 Gd40 2.448 . S
O62 C43 1.249 . S
O63 Gd40 2.506 . S
O63 C43 1.252 . S
O64 Gd40 2.435 1_455 S
O64 C50 1.256 . S
O65 Gd40 2.717 1_455 S
O65 Gd41 2.327 . S
O65 C50 1.257 . S
O66 Gd41 2.377 . S
O66 C51 1.240 . S
O67 Gd40 2.395 1_455 S
O67 C51 1.240 . S
O68 Gd41 2.448 . S
O68 C52 1.249 . S
O69 Gd41 2.506 . S
O69 C52 1.252 . S
O70 Gd41 2.435 . S
O70 C59 1.256 . S
O71 Gd40 2.327 1_455 S
O71 Gd41 2.717 . S
O71 C59 1.257 . S
H72 C45 0.930 . S
H73 C46 0.931 . S
H74 C48 0.931 . S
H75 C49 0.931 . S
H76 C54 0.930 . S
H77 C55 0.931 . S
H78 C57 0.931 . S
H79 C58 0.931 . S
Gd80 C83 2.818 . S
Gd80 O100 2.377 . S
Gd80 O102 2.448 . S
Gd80 O103 2.506 . S
Gd80 O104 2.435 . S
Gd80 O105 2.717 . S
Gd80 O107 2.395 . S
Gd80 O111 2.327 . S
Gd81 C92 2.818 . S
Gd81 O101 2.395 . S
Gd81 O105 2.327 . S
Gd81 O106 2.377 . S
Gd81 O108 2.448 . S
Gd81 O109 2.506 . S
Gd81 O110 2.435 . S
Gd81 O111 2.717 . S
C82 O100 1.240 . S
C82 O101 1.240 . S
C83 Gd80 2.818 . S
C83 C84 1.510 . S
C83 O102 1.249 . S
C83 O103 1.252 . S
C84 C83 1.510 . S
C84 C85 1.404 . S
C84 C86 1.352 . S
C85 C84 1.404 . S
C85 C89 1.389 . S
C85 H112 0.930 . S
C86 C84 1.352 . S
C86 C88 1.374 . S
C86 H113 0.931 . S
C87 C88 1.359 . S
C87 C89 1.364 . S
C88 C86 1.374 . S
C88 C87 1.359 . S
C88 H114 0.931 . S
C89 C85 1.389 . S
C89 C87 1.364 . S
C89 H115 0.931 . S
C90 O104 1.256 . S
C90 O105 1.257 . S
C91 O106 1.240 . S
C91 O107 1.240 . S
C92 Gd81 2.818 . S
C92 C93 1.510 . S
C92 O108 1.249 . S
C92 O109 1.252 . S
C93 C92 1.510 . S
C93 C94 1.404 . S
C93 C95 1.352 . S
C94 C93 1.404 . S
C94 C98 1.389 . S
C94 H116 0.930 . S
C95 C93 1.352 . S
C95 C97 1.374 . S
C95 H117 0.931 . S
C96 C97 1.359 . S
C96 C98 1.364 . S
C97 C95 1.374 . S
C97 C96 1.359 . S
C97 H118 0.931 . S
C98 C94 1.389 . S
C98 C96 1.364 . S
C98 H119 0.931 . S
C99 O110 1.256 . S
C99 O111 1.257 . S
O100 Gd80 2.377 . S
O100 C82 1.240 . S
O101 Gd81 2.395 . S
O101 C82 1.240 . S
O102 Gd80 2.448 . S
O102 C83 1.249 . S
O103 Gd80 2.506 . S
O103 C83 1.252 . S
O104 Gd80 2.435 . S
O104 C90 1.256 . S
O105 Gd80 2.717 . S
O105 Gd81 2.327 . S
O105 C90 1.257 . S
O106 Gd81 2.377 . S
O106 C91 1.240 . S
O107 Gd80 2.395 . S
O107 C91 1.240 . S
O108 Gd81 2.448 . S
O108 C92 1.249 . S
O109 Gd81 2.506 . S
O109 C92 1.252 . S
O110 Gd81 2.435 . S
O110 C99 1.256 . S
O111 Gd80 2.327 . S
O111 Gd81 2.717 . S
O111 C99 1.257 . S
H112 C85 0.930 . S
H113 C86 0.931 . S
H114 C88 0.931 . S
H115 C89 0.931 . S
H116 C94 0.930 . S
H117 C95 0.931 . S
H118 C97 0.931 . S
H119 C98 0.931 . S
Gd120 C123 2.818 . S
Gd120 O140 2.377 . S
Gd120 O142 2.448 . S
Gd120 O143 2.506 . S
Gd120 O144 2.435 . S
Gd120 O145 2.717 1_455 S
Gd120 O147 2.395 1_455 S
Gd120 O151 2.327 . S
Gd121 C132 2.818 . S
Gd121 O141 2.395 1_655 S
Gd121 O145 2.327 . S
Gd121 O146 2.377 . S
Gd121 O148 2.448 . S
Gd121 O149 2.506 . S
Gd121 O150 2.435 . S
Gd121 O151 2.717 1_655 S
C122 O140 1.240 . S
C122 O141 1.240 . S
C123 Gd120 2.818 . S
C123 C124 1.510 . S
C123 O142 1.249 . S
C123 O143 1.252 . S
C124 C123 1.510 . S
C124 C125 1.404 . S
C124 C126 1.352 . S
C125 C124 1.404 . S
C125 C129 1.389 . S
C125 H152 0.930 . S
C126 C124 1.352 . S
C126 C128 1.374 . S
C126 H153 0.931 . S
C127 C128 1.359 . S
C127 C129 1.364 . S
C128 C126 1.374 . S
C128 C127 1.359 . S
C128 H154 0.931 . S
C129 C125 1.389 . S
C129 C127 1.364 . S
C129 H155 0.931 . S
C130 O144 1.256 . S
C130 O145 1.257 1_455 S
C131 O146 1.240 . S
C131 O147 1.240 . S
C132 Gd121 2.818 . S
C132 C133 1.510 . S
C132 O148 1.249 . S
C132 O149 1.252 . S
C133 C132 1.510 . S
C133 C134 1.404 . S
C133 C135 1.352 . S
C134 C133 1.404 . S
C134 C138 1.389 . S
C134 H156 0.930 . S
C135 C133 1.352 . S
C135 C137 1.374 . S
C135 H157 0.931 . S
C136 C137 1.359 . S
C136 C138 1.364 . S
C137 C135 1.374 . S
C137 C136 1.359 . S
C137 H158 0.931 . S
C138 C134 1.389 . S
C138 C136 1.364 . S
C138 H159 0.931 . S
C139 O150 1.256 1_455 S
C139 O151 1.257 . S
O140 Gd120 2.377 . S
O140 C122 1.240 . S
O141 Gd121 2.395 1_455 S
O141 C122 1.240 . S
O142 Gd120 2.448 . S
O142 C123 1.249 . S
O143 Gd120 2.506 . S
O143 C123 1.252 . S
O144 Gd120 2.435 . S
O144 C130 1.256 . S
O145 Gd120 2.717 1_655 S
O145 Gd121 2.327 . S
O145 C130 1.257 1_655 S
O146 Gd121 2.377 . S
O146 C131 1.240 . S
O147 Gd120 2.395 1_655 S
O147 C131 1.240 . S
O148 Gd121 2.448 . S
O148 C132 1.249 . S
O149 Gd121 2.506 . S
O149 C132 1.252 . S
O150 Gd121 2.435 . S
O150 C139 1.256 1_655 S
O151 Gd120 2.327 . S
O151 Gd121 2.717 1_455 S
O151 C139 1.257 . S
H152 C125 0.930 . S
H153 C126 0.931 . S
H154 C128 0.931 . S
H155 C129 0.931 . S
H156 C134 0.930 . S
H157 C135 0.931 . S
H158 C137 0.931 . S
H159 C138 0.931 . S
Gd160 C163 2.818 . S
Gd160 O180 2.377 . S
Gd160 O182 2.448 . S
Gd160 O183 2.506 . S
Gd160 O184 2.435 . S
Gd160 O185 2.717 . S
Gd160 O187 2.395 . S
Gd160 O191 2.327 . S
Gd161 C172 2.818 . S
Gd161 O181 2.395 . S
Gd161 O185 2.327 . S
Gd161 O186 2.377 . S
Gd161 O188 2.448 . S
Gd161 O189 2.506 . S
Gd161 O190 2.435 . S
Gd161 O191 2.717 . S
C162 O180 1.240 . S
C162 O181 1.240 . S
C163 Gd160 2.818 . S
C163 C164 1.510 . S
C163 O182 1.249 . S
C163 O183 1.252 . S
C164 C163 1.510 . S
C164 C165 1.404 . S
C164 C166 1.352 . S
C165 C164 1.404 . S
C165 C169 1.389 . S
C165 H192 0.930 . S
C166 C164 1.352 . S
C166 C168 1.374 . S
C166 H193 0.931 . S
C167 C168 1.359 . S
C167 C169 1.364 . S
C168 C166 1.374 . S
C168 C167 1.359 . S
C168 H194 0.931 . S
C169 C165 1.389 . S
C169 C167 1.364 . S
C169 H195 0.931 . S
C170 O184 1.256 . S
C170 O185 1.257 . S
C171 O186 1.240 . S
C171 O187 1.240 . S
C172 Gd161 2.818 . S
C172 C173 1.510 . S
C172 O188 1.249 . S
C172 O189 1.252 . S
C173 C172 1.510 . S
C173 C174 1.404 . S
C173 C175 1.352 . S
C174 C173 1.404 . S
C174 C178 1.389 . S
C174 H196 0.930 . S
C175 C173 1.352 . S
C175 C177 1.374 . S
C175 H197 0.931 . S
C176 C177 1.359 . S
C176 C178 1.364 . S
C177 C175 1.374 . S
C177 C176 1.359 . S
C177 H198 0.931 . S
C178 C174 1.389 . S
C178 C176 1.364 . S
C178 H199 0.931 . S
C179 O190 1.256 . S
C179 O191 1.257 . S
O180 Gd160 2.377 . S
O180 C162 1.240 . S
O181 Gd161 2.395 . S
O181 C162 1.240 . S
O182 Gd160 2.448 . S
O182 C163 1.249 . S
O183 Gd160 2.506 . S
O183 C163 1.252 . S
O184 Gd160 2.435 . S
O184 C170 1.256 . S
O185 Gd160 2.717 . S
O185 Gd161 2.327 . S
O185 C170 1.257 . S
O186 Gd161 2.377 . S
O186 C171 1.240 . S
O187 Gd160 2.395 . S
O187 C171 1.240 . S
O188 Gd161 2.448 . S
O188 C172 1.249 . S
O189 Gd161 2.506 . S
O189 C172 1.252 . S
O190 Gd161 2.435 . S
O190 C179 1.256 . S
O191 Gd160 2.327 . S
O191 Gd161 2.717 . S
O191 C179 1.257 . S
H192 C165 0.930 . S
H193 C166 0.931 . S
H194 C168 0.931 . S
H195 C169 0.931 . S
H196 C174 0.930 . S
H197 C175 0.931 . S
H198 C177 0.931 . S
H199 C178 0.931 . S
Gd200 C203 2.818 . S
Gd200 O220 2.377 . S
Gd200 O222 2.448 . S
Gd200 O223 2.506 . S
Gd200 O224 2.435 1_565 S
Gd200 O225 2.717 1_565 S
Gd200 O227 2.395 1_565 S
Gd200 O231 2.327 1_565 S
Gd201 C212 2.818 . S
Gd201 O221 2.395 1_545 S
Gd201 O225 2.327 . S
Gd201 O226 2.377 . S
Gd201 O228 2.448 . S
Gd201 O229 2.506 . S
Gd201 O230 2.435 . S
Gd201 O231 2.717 . S
C202 O220 1.240 . S
C202 O221 1.240 . S
C203 Gd200 2.818 . S
C203 C204 1.510 . S
C203 O222 1.249 . S
C203 O223 1.252 . S
C204 C203 1.510 . S
C204 C205 1.404 . S
C204 C206 1.352 . S
C205 C204 1.404 . S
C205 C209 1.389 . S
C205 H232 0.930 . S
C206 C204 1.352 . S
C206 C208 1.374 . S
C206 H233 0.931 . S
C207 C208 1.359 . S
C207 C209 1.364 . S
C208 C206 1.374 . S
C208 C207 1.359 . S
C208 H234 0.931 . S
C209 C205 1.389 . S
C209 C207 1.364 . S
C209 H235 0.931 . S
C210 O224 1.256 . S
C210 O225 1.257 . S
C211 O226 1.240 . S
C211 O227 1.240 . S
C212 Gd201 2.818 . S
C212 C213 1.510 . S
C212 O228 1.249 . S
C212 O229 1.252 . S
C213 C212 1.510 . S
C213 C214 1.404 . S
C213 C215 1.352 . S
C214 C213 1.404 . S
C214 C218 1.389 . S
C214 H236 0.930 . S
C215 C213 1.352 . S
C215 C217 1.374 . S
C215 H237 0.931 . S
C216 C217 1.359 . S
C216 C218 1.364 . S
C217 C215 1.374 . S
C217 C216 1.359 . S
C217 H238 0.931 . S
C218 C214 1.389 . S
C218 C216 1.364 . S
C218 H239 0.931 . S
C219 O230 1.256 . S
C219 O231 1.257 . S
O220 Gd200 2.377 . S
O220 C202 1.240 . S
O221 Gd201 2.395 1_565 S
O221 C202 1.240 . S
O222 Gd200 2.448 . S
O222 C203 1.249 . S
O223 Gd200 2.506 . S
O223 C203 1.252 . S
O224 Gd200 2.435 1_545 S
O224 C210 1.256 . S
O225 Gd200 2.717 1_545 S
O225 Gd201 2.327 . S
O225 C210 1.257 . S
O226 Gd201 2.377 . S
O226 C211 1.240 . S
O227 Gd200 2.395 1_545 S
O227 C211 1.240 . S
O228 Gd201 2.448 . S
O228 C212 1.249 . S
O229 Gd201 2.506 . S
O229 C212 1.252 . S
O230 Gd201 2.435 . S
O230 C219 1.256 . S
O231 Gd200 2.327 1_545 S
O231 Gd201 2.717 . S
O231 C219 1.257 . S
H232 C205 0.930 . S
H233 C206 0.931 . S
H234 C208 0.931 . S
H235 C209 0.931 . S
H236 C214 0.930 . S
H237 C215 0.931 . S
H238 C217 0.931 . S
H239 C218 0.931 . S
Gd240 C243 2.818 . S
Gd240 O260 2.377 . S
Gd240 O262 2.448 . S
Gd240 O263 2.506 . S
Gd240 O264 2.435 . S
Gd240 O265 2.717 . S
Gd240 O267 2.395 . S
Gd240 O271 2.327 . S
Gd241 C252 2.818 1_455 S
Gd241 O261 2.395 . S
Gd241 O265 2.327 . S
Gd241 O266 2.377 . S
Gd241 O268 2.448 1_455 S
Gd241 O269 2.506 1_455 S
Gd241 O270 2.435 . S
Gd241 O271 2.717 . S
C242 O260 1.240 . S
C242 O261 1.240 . S
C243 Gd240 2.818 . S
C243 C244 1.510 . S
C243 O262 1.249 . S
C243 O263 1.252 . S
C244 C243 1.510 . S
C244 C245 1.404 . S
C244 C246 1.352 . S
C245 C244 1.404 . S
C245 C249 1.389 . S
C245 H272 0.930 . S
C246 C244 1.352 . S
C246 C248 1.374 . S
C246 H273 0.931 . S
C247 C248 1.359 . S
C247 C249 1.364 . S
C248 C246 1.374 . S
C248 C247 1.359 . S
C248 H274 0.931 . S
C249 C245 1.389 . S
C249 C247 1.364 . S
C249 H275 0.931 . S
C250 O264 1.256 . S
C250 O265 1.257 . S
C251 O266 1.240 . S
C251 O267 1.240 . S
C252 Gd241 2.818 1_655 S
C252 C253 1.510 . S
C252 O268 1.249 . S
C252 O269 1.252 . S
C253 C252 1.510 . S
C253 C254 1.404 . S
C253 C255 1.352 . S
C254 C253 1.404 . S
C254 C258 1.389 . S
C254 H276 0.930 . S
C255 C253 1.352 . S
C255 C257 1.374 . S
C255 H277 0.931 . S
C256 C257 1.359 . S
C256 C258 1.365 . S
C257 C255 1.374 . S
C257 C256 1.359 . S
C257 H278 0.931 1_545 S
C258 C254 1.389 . S
C258 C256 1.365 . S
C258 H279 0.931 . S
C259 O270 1.256 . S
C259 O271 1.257 . S
O260 Gd240 2.377 . S
O260 C242 1.240 . S
O261 Gd241 2.395 . S
O261 C242 1.240 . S
O262 Gd240 2.448 . S
O262 C243 1.249 . S
O263 Gd240 2.506 . S
O263 C243 1.252 . S
O264 Gd240 2.435 . S
O264 C250 1.256 . S
O265 Gd240 2.717 . S
O265 Gd241 2.327 . S
O265 C250 1.257 . S
O266 Gd241 2.377 . S
O266 C251 1.240 . S
O267 Gd240 2.395 . S
O267 C251 1.240 . S
O268 Gd241 2.448 1_655 S
O268 C252 1.249 . S
O269 Gd241 2.506 1_655 S
O269 C252 1.252 . S
O270 Gd241 2.435 . S
O270 C259 1.256 . S
O271 Gd240 2.327 . S
O271 Gd241 2.717 . S
O271 C259 1.257 . S
H272 C245 0.930 . S
H273 C246 0.931 . S
H274 C248 0.931 . S
H275 C249 0.931 . S
H276 C254 0.930 . S
H277 C255 0.931 . S
H278 C257 0.931 1_565 S
H279 C258 0.931 . S
Gd280 C283 2.818 . S
Gd280 O300 2.377 . S
Gd280 O302 2.448 . S
Gd280 O303 2.506 . S
Gd280 O304 2.435 . S
Gd280 O305 2.717 . S
Gd280 O307 2.395 . S
Gd280 O311 2.327 . S
Gd281 C292 2.818 . S
Gd281 O301 2.395 . S
Gd281 O305 2.327 . S
Gd281 O306 2.377 . S
Gd281 O308 2.448 . S
Gd281 O309 2.506 . S
Gd281 O310 2.435 . S
Gd281 O311 2.717 . S
C282 O300 1.240 . S
C282 O301 1.240 . S
C283 Gd280 2.818 . S
C283 C284 1.510 . S
C283 O302 1.249 . S
C283 O303 1.252 . S
C284 C283 1.510 . S
C284 C285 1.404 . S
C284 C286 1.352 . S
C285 C284 1.404 . S
C285 C289 1.389 . S
C285 H312 0.930 . S
C286 C284 1.352 . S
C286 C288 1.374 . S
C286 H313 0.931 . S
C287 C288 1.359 . S
C287 C289 1.364 . S
C288 C286 1.374 . S
C288 C287 1.359 . S
C288 H314 0.931 . S
C289 C285 1.389 . S
C289 C287 1.364 . S
C289 H315 0.931 . S
C290 O304 1.256 . S
C290 O305 1.257 . S
C291 O306 1.240 . S
C291 O307 1.240 . S
C292 Gd281 2.818 . S
C292 C293 1.510 . S
C292 O308 1.249 . S
C292 O309 1.252 . S
C293 C292 1.510 . S
C293 C294 1.404 . S
C293 C295 1.352 . S
C294 C293 1.404 . S
C294 C298 1.389 1_655 S
C294 H316 0.930 . S
C295 C293 1.352 . S
C295 C297 1.374 1_655 S
C295 H317 0.931 . S
C296 C297 1.359 . S
C296 C298 1.364 . S
C297 C295 1.374 1_455 S
C297 C296 1.359 . S
C297 H318 0.931 . S
C298 C294 1.389 1_455 S
C298 C296 1.364 . S
C298 H319 0.931 . S
C299 O310 1.256 . S
C299 O311 1.257 . S
O300 Gd280 2.377 . S
O300 C282 1.240 . S
O301 Gd281 2.395 . S
O301 C282 1.240 . S
O302 Gd280 2.448 . S
O302 C283 1.249 . S
O303 Gd280 2.506 . S
O303 C283 1.252 . S
O304 Gd280 2.435 . S
O304 C290 1.256 . S
O305 Gd280 2.717 . S
O305 Gd281 2.327 . S
O305 C290 1.257 . S
O306 Gd281 2.377 . S
O306 C291 1.240 . S
O307 Gd280 2.395 . S
O307 C291 1.240 . S
O308 Gd281 2.448 . S
O308 C292 1.249 . S
O309 Gd281 2.506 . S
O309 C292 1.252 . S
O310 Gd281 2.435 . S
O310 C299 1.256 . S
O311 Gd280 2.327 . S
O311 Gd281 2.717 . S
O311 C299 1.257 . S
H312 C285 0.930 . S
H313 C286 0.931 . S
H314 C288 0.931 . S
H315 C289 0.931 . S
H316 C294 0.930 . S
H317 C295 0.931 . S
H318 C297 0.931 . S
H319 C298 0.931 . S
Gd320 C323 2.818 . S
Gd320 O340 2.377 . S
Gd320 O342 2.448 . S
Gd320 O343 2.506 . S
Gd320 O344 2.435 . S
Gd320 O345 2.717 . S
Gd320 O347 2.395 . S
Gd320 O351 2.327 . S
Gd321 C332 2.818 1_565 S
Gd321 O341 2.395 . S
Gd321 O345 2.327 . S
Gd321 O346 2.377 . S
Gd321 O348 2.448 1_565 S
Gd321 O349 2.506 1_565 S
Gd321 O350 2.435 . S
Gd321 O351 2.717 . S
C322 O340 1.240 . S
C322 O341 1.240 . S
C323 Gd320 2.818 . S
C323 C324 1.510 . S
C323 O342 1.249 . S
C323 O343 1.252 . S
C324 C323 1.510 . S
C324 C325 1.404 . S
C324 C326 1.352 . S
C325 C324 1.404 . S
C325 C329 1.389 . S
C325 H352 0.930 . S
C326 C324 1.352 . S
C326 C328 1.374 . S
C326 H353 0.931 . S
C327 C328 1.359 . S
C327 C329 1.364 . S
C328 C326 1.374 . S
C328 C327 1.359 . S
C328 H354 0.931 . S
C329 C325 1.389 . S
C329 C327 1.364 . S
C329 H355 0.931 . S
C330 O344 1.256 . S
C330 O345 1.257 . S
C331 O346 1.240 . S
C331 O347 1.240 . S
C332 Gd321 2.818 1_545 S
C332 C333 1.510 . S
C332 O348 1.249 . S
C332 O349 1.252 . S
C333 C332 1.510 . S
C333 C334 1.404 . S
C333 C335 1.352 . S
C334 C333 1.404 . S
C334 C338 1.389 . S
C334 H356 0.930 . S
C335 C333 1.352 . S
C335 C337 1.374 . S
C335 H357 0.931 . S
C336 C337 1.359 . S
C336 C338 1.364 . S
C337 C335 1.374 . S
C337 C336 1.359 . S
C337 H358 0.931 . S
C338 C334 1.389 . S
C338 C336 1.364 . S
C338 H359 0.931 . S
C339 O350 1.256 . S
C339 O351 1.257 . S
O340 Gd320 2.377 . S
O340 C322 1.240 . S
O341 Gd321 2.395 . S
O341 C322 1.240 . S
O342 Gd320 2.448 . S
O342 C323 1.249 . S
O343 Gd320 2.506 . S
O343 C323 1.252 . S
O344 Gd320 2.435 . S
O344 C330 1.256 . S
O345 Gd320 2.717 . S
O345 Gd321 2.327 . S
O345 C330 1.257 . S
O346 Gd321 2.377 . S
O346 C331 1.240 . S
O347 Gd320 2.395 . S
O347 C331 1.240 . S
O348 Gd321 2.448 1_545 S
O348 C332 1.249 . S
O349 Gd321 2.506 1_545 S
O349 C332 1.252 . S
O350 Gd321 2.435 . S
O350 C339 1.256 . S
O351 Gd320 2.327 . S
O351 Gd321 2.717 . S
O351 C339 1.257 . S
H352 C325 0.930 . S
H353 C326 0.931 . S
H354 C328 0.931 . S
H355 C329 0.931 . S
H356 C334 0.930 . S
H357 C335 0.931 . S
H358 C337 0.931 . S
H359 C338 0.931 . S
Gd360 C363 2.818 1_565 S
Gd360 O380 2.377 . S
Gd360 O382 2.448 . S
Gd360 O383 2.506 . S
Gd360 O384 2.435 . S
Gd360 O385 2.717 . S
Gd360 O387 2.395 . S
Gd360 O391 2.327 . S
Gd361 C372 2.818 . S
Gd361 O381 2.395 . S
Gd361 O385 2.327 . S
Gd361 O386 2.377 . S
Gd361 O388 2.448 . S
Gd361 O389 2.506 . S
Gd361 O390 2.435 . S
Gd361 O391 2.717 . S
C362 O380 1.240 . S
C362 O381 1.240 . S
C363 Gd360 2.818 1_545 S
C363 C364 1.510 . S
C363 O382 1.249 1_545 S
C363 O383 1.252 1_545 S
C364 C363 1.510 . S
C364 C365 1.404 . S
C364 C366 1.352 . S
C365 C364 1.404 . S
C365 C369 1.389 . S
C365 H392 0.930 . S
C366 C364 1.352 . S
C366 C368 1.374 1_655 S
C366 H393 0.931 . S
C367 C368 1.359 . S
C367 C369 1.364 1_455 S
C368 C366 1.374 1_455 S
C368 C367 1.359 . S
C368 H394 0.931 . S
C369 C365 1.389 . S
C369 C367 1.364 1_655 S
C369 H395 0.931 1_655 S
C370 O384 1.256 . S
C370 O385 1.257 . S
C371 O386 1.240 . S
C371 O387 1.240 . S
C372 Gd361 2.818 . S
C372 C373 1.510 . S
C372 O388 1.249 . S
C372 O389 1.252 . S
C373 C372 1.510 . S
C373 C374 1.404 . S
C373 C375 1.352 . S
C374 C373 1.404 . S
C374 C378 1.389 . S
C374 H396 0.930 . S
C375 C373 1.352 . S
C375 C377 1.374 . S
C375 H397 0.931 . S
C376 C377 1.359 . S
C376 C378 1.364 . S
C377 C375 1.374 . S
C377 C376 1.359 . S
C377 H398 0.931 . S
C378 C374 1.389 . S
C378 C376 1.364 . S
C378 H399 0.931 . S
C379 O390 1.256 . S
C379 O391 1.257 . S
O380 Gd360 2.377 . S
O380 C362 1.240 . S
O381 Gd361 2.395 . S
O381 C362 1.240 . S
O382 Gd360 2.448 . S
O382 C363 1.249 1_565 S
O383 Gd360 2.506 . S
O383 C363 1.252 1_565 S
O384 Gd360 2.435 . S
O384 C370 1.256 . S
O385 Gd360 2.717 . S
O385 Gd361 2.327 . S
O385 C370 1.257 . S
O386 Gd361 2.377 . S
O386 C371 1.240 . S
O387 Gd360 2.395 . S
O387 C371 1.240 . S
O388 Gd361 2.448 . S
O388 C372 1.249 . S
O389 Gd361 2.506 . S
O389 C372 1.252 . S
O390 Gd361 2.435 . S
O390 C379 1.256 . S
O391 Gd360 2.327 . S
O391 Gd361 2.717 . S
O391 C379 1.257 . S
H392 C365 0.930 . S
H393 C366 0.931 . S
H394 C368 0.931 . S
H395 C369 0.931 1_455 S
H396 C374 0.930 . S
H397 C375 0.931 . S
H398 C377 0.931 . S
H399 C378 0.931 . S
Gd400 C403 2.818 . S
Gd400 O420 2.377 . S
Gd400 O422 2.448 . S
Gd400 O423 2.506 . S
Gd400 O424 2.435 . S
Gd400 O425 2.717 . S
Gd400 O427 2.395 . S
Gd400 O431 2.327 . S
Gd401 C412 2.818 . S
Gd401 O421 2.395 . S
Gd401 O425 2.327 . S
Gd401 O426 2.377 . S
Gd401 O428 2.448 . S
Gd401 O429 2.506 . S
Gd401 O430 2.435 . S
Gd401 O431 2.717 . S
C402 O420 1.240 . S
C402 O421 1.240 . S
C403 Gd400 2.818 . S
C403 C404 1.510 1_455 S
C403 O422 1.249 . S
C403 O423 1.252 . S
C404 C403 1.510 1_655 S
C404 C405 1.404 . S
C404 C406 1.352 . S
C405 C404 1.404 . S
C405 C409 1.389 . S
C405 H432 0.930 . S
C406 C404 1.352 . S
C406 C408 1.374 . S
C406 H433 0.931 . S
C407 C408 1.359 . S
C407 C409 1.364 . S
C408 C406 1.374 . S
C408 C407 1.359 . S
C408 H434 0.931 . S
C409 C405 1.389 . S
C409 C407 1.364 . S
C409 H435 0.931 . S
C410 O424 1.256 . S
C410 O425 1.257 . S
C411 O426 1.240 . S
C411 O427 1.240 . S
C412 Gd401 2.818 . S
C412 C413 1.510 . S
C412 O428 1.249 . S
C412 O429 1.252 . S
C413 C412 1.510 . S
C413 C414 1.404 . S
C413 C415 1.352 . S
C414 C413 1.404 . S
C414 C418 1.389 . S
C414 H436 0.930 . S
C415 C413 1.352 . S
C415 C417 1.374 . S
C415 H437 0.931 . S
C416 C417 1.359 . S
C416 C418 1.364 . S
C417 C415 1.374 . S
C417 C416 1.359 . S
C417 H438 0.931 . S
C418 C414 1.389 . S
C418 C416 1.364 . S
C418 H439 0.931 . S
C419 O430 1.256 . S
C419 O431 1.257 . S
O420 Gd400 2.377 . S
O420 C402 1.240 . S
O421 Gd401 2.395 . S
O421 C402 1.240 . S
O422 Gd400 2.448 . S
O422 C403 1.249 . S
O423 Gd400 2.506 . S
O423 C403 1.252 . S
O424 Gd400 2.435 . S
O424 C410 1.256 . S
O425 Gd400 2.717 . S
O425 Gd401 2.327 . S
O425 C410 1.257 . S
O426 Gd401 2.377 . S
O426 C411 1.240 . S
O427 Gd400 2.395 . S
O427 C411 1.240 . S
O428 Gd401 2.448 . S
O428 C412 1.249 . S
O429 Gd401 2.506 . S
O429 C412 1.252 . S
O430 Gd401 2.435 . S
O430 C419 1.256 . S
O431 Gd400 2.327 . S
O431 Gd401 2.717 . S
O431 C419 1.257 . S
H432 C405 0.930 . S
H433 C406 0.931 . S
H434 C408 0.931 . S
H435 C409 0.931 . S
H436 C414 0.930 . S
H437 C415 0.931 . S
H438 C417 0.931 . S
H439 C418 0.931 . S
Gd440 C443 2.818 . S
Gd440 O460 2.377 . S
Gd440 O462 2.448 . S
Gd440 O463 2.506 . S
Gd440 O464 2.435 . S
Gd440 O465 2.717 . S
Gd440 O467 2.395 . S
Gd440 O471 2.327 . S
Gd441 C452 2.818 . S
Gd441 O461 2.395 . S
Gd441 O465 2.327 . S
Gd441 O466 2.377 . S
Gd441 O468 2.448 . S
Gd441 O469 2.506 . S
Gd441 O470 2.435 . S
Gd441 O471 2.717 . S
C442 O460 1.240 . S
C442 O461 1.240 . S
C443 Gd440 2.818 . S
C443 C444 1.510 . S
C443 O462 1.249 . S
C443 O463 1.252 . S
C444 C443 1.510 . S
C444 C445 1.404 . S
C444 C446 1.352 . S
C445 C444 1.404 . S
C445 C449 1.389 . S
C445 H472 0.930 . S
C446 C444 1.352 . S
C446 C448 1.374 . S
C446 H473 0.931 . S
C447 C448 1.359 . S
C447 C449 1.364 . S
C448 C446 1.374 . S
C448 C447 1.359 . S
C448 H474 0.931 . S
C449 C445 1.389 . S
C449 C447 1.364 . S
C449 H475 0.931 . S
C450 O464 1.256 . S
C450 O465 1.257 . S
C451 O466 1.240 . S
C451 O467 1.240 . S
C452 Gd441 2.818 . S
C452 C453 1.510 . S
C452 O468 1.249 . S
C452 O469 1.252 . S
C453 C452 1.510 . S
C453 C454 1.404 . S
C453 C455 1.352 . S
C454 C453 1.404 . S
C454 C458 1.389 . S
C454 H476 0.930 . S
C455 C453 1.352 . S
C455 C457 1.374 . S
C455 H477 0.931 . S
C456 C457 1.359 . S
C456 C458 1.364 . S
C457 C455 1.374 . S
C457 C456 1.359 . S
C457 H478 0.931 . S
C458 C454 1.389 . S
C458 C456 1.364 . S
C458 H479 0.931 . S
C459 O470 1.256 . S
C459 O471 1.257 . S
O460 Gd440 2.377 . S
O460 C442 1.240 . S
O461 Gd441 2.395 . S
O461 C442 1.240 . S
O462 Gd440 2.448 . S
O462 C443 1.249 . S
O463 Gd440 2.506 . S
O463 C443 1.252 . S
O464 Gd440 2.435 . S
O464 C450 1.256 . S
O465 Gd440 2.717 . S
O465 Gd441 2.327 . S
O465 C450 1.257 . S
O466 Gd441 2.377 . S
O466 C451 1.240 . S
O467 Gd440 2.395 . S
O467 C451 1.240 . S
O468 Gd441 2.448 . S
O468 C452 1.249 . S
O469 Gd441 2.506 . S
O469 C452 1.252 . S
O470 Gd441 2.435 . S
O470 C459 1.256 . S
O471 Gd440 2.327 . S
O471 Gd441 2.717 . S
O471 C459 1.257 . S
H472 C445 0.930 . S
H473 C446 0.931 . S
H474 C448 0.931 . S
H475 C449 0.931 . S
H476 C454 0.930 . S
H477 C455 0.931 . S
H478 C457 0.931 . S
H479 C458 0.931 . S
Gd480 C483 2.818 1_655 S
Gd480 O500 2.377 . S
Gd480 O502 2.448 . S
Gd480 O503 2.506 . S
Gd480 O504 2.435 . S
Gd480 O505 2.717 . S
Gd480 O507 2.395 . S
Gd480 O511 2.327 . S
Gd481 C492 2.818 . S
Gd481 O501 2.395 . S
Gd481 O505 2.327 . S
Gd481 O506 2.377 . S
Gd481 O508 2.448 . S
Gd481 O509 2.506 . S
Gd481 O510 2.435 . S
Gd481 O511 2.717 . S
C482 O500 1.240 . S
C482 O501 1.240 . S
C483 Gd480 2.818 1_455 S
C483 C484 1.510 . S
C483 O502 1.249 1_455 S
C483 O503 1.252 1_455 S
C484 C483 1.510 . S
C484 C485 1.404 . S
C484 C486 1.352 . S
C485 C484 1.404 . S
C485 C489 1.389 . S
C485 H512 0.930 . S
C486 C484 1.352 . S
C486 C488 1.374 1_565 S
C486 H513 0.931 . S
C487 C488 1.359 . S
C487 C489 1.364 1_545 S
C488 C486 1.374 1_545 S
C488 C487 1.359 . S
C488 H514 0.931 . S
C489 C485 1.389 . S
C489 C487 1.364 1_565 S
C489 H515 0.931 1_565 S
C490 O504 1.256 . S
C490 O505 1.257 . S
C491 O506 1.240 . S
C491 O507 1.240 . S
C492 Gd481 2.818 . S
C492 C493 1.510 . S
C492 O508 1.249 . S
C492 O509 1.252 . S
C493 C492 1.510 . S
C493 C494 1.404 . S
C493 C495 1.352 . S
C494 C493 1.404 . S
C494 C498 1.389 . S
C494 H516 0.930 . S
C495 C493 1.352 . S
C495 C497 1.374 . S
C495 H517 0.931 . S
C496 C497 1.359 . S
C496 C498 1.364 . S
C497 C495 1.374 . S
C497 C496 1.359 . S
C497 H518 0.931 . S
C498 C494 1.389 . S
C498 C496 1.364 . S
C498 H519 0.931 . S
C499 O510 1.256 . S
C499 O511 1.257 . S
O500 Gd480 2.377 . S
O500 C482 1.240 . S
O501 Gd481 2.395 . S
O501 C482 1.240 . S
O502 Gd480 2.448 . S
O502 C483 1.249 1_655 S
O503 Gd480 2.506 . S
O503 C483 1.252 1_655 S
O504 Gd480 2.435 . S
O504 C490 1.256 . S
O505 Gd480 2.717 . S
O505 Gd481 2.327 . S
O505 C490 1.257 . S
O506 Gd481 2.377 . S
O506 C491 1.240 . S
O507 Gd480 2.395 . S
O507 C491 1.240 . S
O508 Gd481 2.448 . S
O508 C492 1.249 . S
O509 Gd481 2.506 . S
O509 C492 1.252 . S
O510 Gd481 2.435 . S
O510 C499 1.256 . S
O511 Gd480 2.327 . S
O511 Gd481 2.717 . S
O511 C499 1.257 . S
H512 C485 0.930 . S
H513 C486 0.931 . S
H514 C488 0.931 . S
H515 C489 0.931 1_545 S
H516 C494 0.930 . S
H517 C495 0.931 . S
H518 C497 0.931 . S
H519 C498 0.931 . S
Gd520 C523 2.818 . S
Gd520 O540 2.377 . S
Gd520 O542 2.448 . S
Gd520 O543 2.506 . S
Gd520 O544 2.435 . S
Gd520 O545 2.717 . S
Gd520 O547 2.395 . S
Gd520 O551 2.327 . S
Gd521 C532 2.818 . S
Gd521 O541 2.395 . S
Gd521 O545 2.327 . S
Gd521 O546 2.377 . S
Gd521 O548 2.448 . S
Gd521 O549 2.506 . S
Gd521 O550 2.435 . S
Gd521 O551 2.717 . S
C522 O540 1.240 . S
C522 O541 1.240 . S
C523 Gd520 2.818 . S
C523 C524 1.510 . S
C523 O542 1.249 . S
C523 O543 1.252 . S
C524 C523 1.510 . S
C524 C525 1.404 . S
C524 C526 1.352 . S
C525 C524 1.404 . S
C525 C529 1.389 . S
C525 H552 0.930 . S
C526 C524 1.352 . S
C526 C528 1.374 . S
C526 H553 0.931 . S
C527 C528 1.359 . S
C527 C529 1.364 . S
C528 C526 1.374 . S
C528 C527 1.359 . S
C528 H554 0.931 . S
C529 C525 1.389 . S
C529 C527 1.364 . S
C529 H555 0.931 . S
C530 O544 1.256 . S
C530 O545 1.257 . S
C531 O546 1.240 . S
C531 O547 1.240 . S
C532 Gd521 2.818 . S
C532 C533 1.510 . S
C532 O548 1.249 . S
C532 O549 1.252 . S
C533 C532 1.510 . S
C533 C534 1.404 . S
C533 C535 1.352 . S
C534 C533 1.404 . S
C534 C538 1.389 . S
C534 H556 0.930 . S
C535 C533 1.352 . S
C535 C537 1.374 . S
C535 H557 0.931 . S
C536 C537 1.359 . S
C536 C538 1.364 . S
C537 C535 1.374 . S
C537 C536 1.359 . S
C537 H558 0.931 . S
C538 C534 1.389 . S
C538 C536 1.364 . S
C538 H559 0.931 . S
C539 O550 1.256 . S
C539 O551 1.257 . S
O540 Gd520 2.377 . S
O540 C522 1.240 . S
O541 Gd521 2.395 . S
O541 C522 1.240 . S
O542 Gd520 2.448 . S
O542 C523 1.249 . S
O543 Gd520 2.506 . S
O543 C523 1.252 . S
O544 Gd520 2.435 . S
O544 C530 1.256 . S
O545 Gd520 2.717 . S
O545 Gd521 2.327 . S
O545 C530 1.257 . S
O546 Gd521 2.377 . S
O546 C531 1.240 . S
O547 Gd520 2.395 . S
O547 C531 1.240 . S
O548 Gd521 2.448 . S
O548 C532 1.249 . S
O549 Gd521 2.506 . S
O549 C532 1.252 . S
O550 Gd521 2.435 . S
O550 C539 1.256 . S
O551 Gd520 2.327 . S
O551 Gd521 2.717 . S
O551 C539 1.257 . S
H552 C525 0.930 . S
H553 C526 0.931 . S
H554 C528 0.931 . S
H555 C529 0.931 . S
H556 C534 0.930 . S
H557 C535 0.931 . S
H558 C537 0.931 . S
H559 C538 0.931 . S
Gd560 C563 2.818 . S
Gd560 O580 2.377 . S
Gd560 O582 2.448 . S
Gd560 O583 2.506 . S
Gd560 O584 2.435 . S
Gd560 O585 2.717 . S
Gd560 O587 2.395 . S
Gd560 O591 2.327 . S
Gd561 C572 2.818 . S
Gd561 O581 2.395 . S
Gd561 O585 2.327 . S
Gd561 O586 2.377 . S
Gd561 O588 2.448 . S
Gd561 O589 2.506 . S
Gd561 O590 2.435 . S
Gd561 O591 2.717 . S
C562 O580 1.240 . S
C562 O581 1.240 . S
C563 Gd560 2.818 . S
C563 C564 1.510 1_545 S
C563 O582 1.249 . S
C563 O583 1.252 . S
C564 C563 1.510 1_565 S
C564 C565 1.404 . S
C564 C566 1.352 . S
C565 C564 1.404 . S
C565 C569 1.389 . S
C565 H592 0.930 . S
C566 C564 1.352 . S
C566 C568 1.374 . S
C566 H593 0.931 . S
C567 C568 1.359 . S
C567 C569 1.364 . S
C568 C566 1.374 . S
C568 C567 1.359 . S
C568 H594 0.931 . S
C569 C565 1.389 . S
C569 C567 1.364 . S
C569 H595 0.931 . S
C570 O584 1.256 . S
C570 O585 1.257 . S
C571 O586 1.240 . S
C571 O587 1.240 . S
C572 Gd561 2.818 . S
C572 C573 1.510 . S
C572 O588 1.249 . S
C572 O589 1.252 . S
C573 C572 1.510 . S
C573 C574 1.404 . S
C573 C575 1.352 . S
C574 C573 1.404 . S
C574 C578 1.389 . S
C574 H596 0.930 . S
C575 C573 1.352 . S
C575 C577 1.374 . S
C575 H597 0.931 . S
C576 C577 1.359 . S
C576 C578 1.364 . S
C577 C575 1.374 . S
C577 C576 1.359 . S
C577 H598 0.931 . S
C578 C574 1.389 . S
C578 C576 1.364 . S
C578 H599 0.931 . S
C579 O590 1.256 . S
C579 O591 1.257 . S
O580 Gd560 2.377 . S
O580 C562 1.240 . S
O581 Gd561 2.395 . S
O581 C562 1.240 . S
O582 Gd560 2.448 . S
O582 C563 1.249 . S
O583 Gd560 2.506 . S
O583 C563 1.252 . S
O584 Gd560 2.435 . S
O584 C570 1.256 . S
O585 Gd560 2.717 . S
O585 Gd561 2.327 . S
O585 C570 1.257 . S
O586 Gd561 2.377 . S
O586 C571 1.240 . S
O587 Gd560 2.395 . S
O587 C571 1.240 . S
O588 Gd561 2.448 . S
O588 C572 1.249 . S
O589 Gd561 2.506 . S
O589 C572 1.252 . S
O590 Gd561 2.435 . S
O590 C579 1.256 . S
O591 Gd560 2.327 . S
O591 Gd561 2.717 . S
O591 C579 1.257 . S
H592 C565 0.930 . S
H593 C566 0.931 . S
H594 C568 0.931 . S
H595 C569 0.931 . S
H596 C574 0.930 . S
H597 C575 0.931 . S
H598 C577 0.931 . S
H599 C578 0.931 . S
Gd600 C603 2.818 . S
Gd600 O620 2.377 . S
Gd600 O622 2.448 . S
Gd600 O623 2.506 . S
Gd600 O624 2.435 . S
Gd600 O625 2.717 . S
Gd600 O627 2.395 . S
Gd600 O631 2.327 . S
Gd601 C612 2.818 1_545 S
Gd601 O621 2.395 . S
Gd601 O625 2.327 . S
Gd601 O626 2.377 . S
Gd601 O628 2.448 1_545 S
Gd601 O629 2.506 1_545 S
Gd601 O630 2.435 . S
Gd601 O631 2.717 . S
C602 O620 1.240 . S
C602 O621 1.240 . S
C603 Gd600 2.818 . S
C603 C604 1.510 . S
C603 O622 1.249 . S
C603 O623 1.252 . S
C604 C603 1.510 . S
C604 C605 1.404 . S
C604 C606 1.352 . S
C605 C604 1.404 . S
C605 C609 1.389 . S
C605 H632 0.930 . S
C606 C604 1.352 . S
C606 C608 1.374 . S
C606 H633 0.931 . S
C607 C608 1.359 . S
C607 C609 1.364 . S
C608 C606 1.374 . S
C608 C607 1.359 . S
C608 H634 0.931 . S
C609 C605 1.389 . S
C609 C607 1.364 . S
C609 H635 0.931 . S
C610 O624 1.256 . S
C610 O625 1.257 . S
C611 O626 1.240 . S
C611 O627 1.240 . S
C612 Gd601 2.818 1_565 S
C612 C613 1.510 . S
C612 O628 1.249 . S
C612 O629 1.252 . S
C613 C612 1.510 . S
C613 C614 1.404 . S
C613 C615 1.352 . S
C614 C613 1.404 . S
C614 C618 1.389 . S
C614 H636 0.930 . S
C615 C613 1.352 . S
C615 C617 1.374 . S
C615 H637 0.931 . S
C616 C617 1.359 . S
C616 C618 1.365 . S
C617 C615 1.374 . S
C617 C616 1.359 . S
C617 H638 0.931 1_455 S
C618 C614 1.389 . S
C618 C616 1.365 . S
C618 H639 0.931 . S
C619 O630 1.256 . S
C619 O631 1.257 . S
O620 Gd600 2.377 . S
O620 C602 1.240 . S
O621 Gd601 2.395 . S
O621 C602 1.240 . S
O622 Gd600 2.448 . S
O622 C603 1.249 . S
O623 Gd600 2.506 . S
O623 C603 1.252 . S
O624 Gd600 2.435 . S
O624 C610 1.256 . S
O625 Gd600 2.717 . S
O625 Gd601 2.327 . S
O625 C610 1.257 . S
O626 Gd601 2.377 . S
O626 C611 1.240 . S
O627 Gd600 2.395 . S
O627 C611 1.240 . S
O628 Gd601 2.448 1_565 S
O628 C612 1.249 . S
O629 Gd601 2.506 1_565 S
O629 C612 1.252 . S
O630 Gd601 2.435 . S
O630 C619 1.256 . S
O631 Gd600 2.327 . S
O631 Gd601 2.717 . S
O631 C619 1.257 . S
H632 C605 0.930 . S
H633 C606 0.931 . S
H634 C608 0.931 . S
H635 C609 0.931 . S
H636 C614 0.930 . S
H637 C615 0.931 . S
H638 C617 0.931 1_655 S
H639 C618 0.931 . S
Gd640 C643 2.818 . S
Gd640 O660 2.377 . S
Gd640 O662 2.448 . S
Gd640 O663 2.506 . S
Gd640 O664 2.435 . S
Gd640 O665 2.717 . S
Gd640 O667 2.395 . S
Gd640 O671 2.327 . S
Gd641 C652 2.818 1_655 S
Gd641 O661 2.395 . S
Gd641 O665 2.327 . S
Gd641 O666 2.377 . S
Gd641 O668 2.448 1_655 S
Gd641 O669 2.506 1_655 S
Gd641 O670 2.435 . S
Gd641 O671 2.717 . S
C642 O660 1.240 . S
C642 O661 1.240 . S
C643 Gd640 2.818 . S
C643 C644 1.510 . S
C643 O662 1.249 . S
C643 O663 1.252 . S
C644 C643 1.510 . S
C644 C645 1.404 . S
C644 C646 1.352 . S
C645 C644 1.404 . S
C645 C649 1.389 . S
C645 H672 0.930 . S
C646 C644 1.352 . S
C646 C648 1.374 . S
C646 H673 0.931 . S
C647 C648 1.359 . S
C647 C649 1.364 . S
C648 C646 1.374 . S
C648 C647 1.359 . S
C648 H674 0.931 . S
C649 C645 1.389 . S
C649 C647 1.364 . S
C649 H675 0.931 . S
C650 O664 1.256 . S
C650 O665 1.257 . S
C651 O666 1.240 . S
C651 O667 1.240 . S
C652 Gd641 2.818 1_455 S
C652 C653 1.510 . S
C652 O668 1.249 . S
C652 O669 1.252 . S
C653 C652 1.510 . S
C653 C654 1.404 . S
C653 C655 1.352 . S
C654 C653 1.404 . S
C654 C658 1.389 . S
C654 H676 0.930 . S
C655 C653 1.352 . S
C655 C657 1.374 . S
C655 H677 0.931 . S
C656 C657 1.359 . S
C656 C658 1.364 . S
C657 C655 1.374 . S
C657 C656 1.359 . S
C657 H678 0.931 . S
C658 C654 1.389 . S
C658 C656 1.364 . S
C658 H679 0.931 . S
C659 O670 1.256 . S
C659 O671 1.257 . S
O660 Gd640 2.377 . S
O660 C642 1.240 . S
O661 Gd641 2.395 . S
O661 C642 1.240 . S
O662 Gd640 2.448 . S
O662 C643 1.249 . S
O663 Gd640 2.506 . S
O663 C643 1.252 . S
O664 Gd640 2.435 . S
O664 C650 1.256 . S
O665 Gd640 2.717 . S
O665 Gd641 2.327 . S
O665 C650 1.257 . S
O666 Gd641 2.377 . S
O666 C651 1.240 . S
O667 Gd640 2.395 . S
O667 C651 1.240 . S
O668 Gd641 2.448 1_455 S
O668 C652 1.249 . S
O669 Gd641 2.506 1_455 S
O669 C652 1.252 . S
O670 Gd641 2.435 . S
O670 C659 1.256 . S
O671 Gd640 2.327 . S
O671 Gd641 2.717 . S
O671 C659 1.257 . S
H672 C645 0.930 . S
H673 C646 0.931 . S
H674 C648 0.931 . S
H675 C649 0.931 . S
H676 C654 0.930 . S
H677 C655 0.931 . S
H678 C657 0.931 . S
H679 C658 0.931 . S
Gd680 C683 2.818 . S
Gd680 O700 2.377 . S
Gd680 O702 2.448 . S
Gd680 O703 2.506 . S
Gd680 O704 2.435 . S
Gd680 O705 2.717 . S
Gd680 O707 2.395 . S
Gd680 O711 2.327 . S
Gd681 C692 2.818 . S
Gd681 O701 2.395 . S
Gd681 O705 2.327 . S
Gd681 O706 2.377 . S
Gd681 O708 2.448 . S
Gd681 O709 2.506 . S
Gd681 O710 2.435 . S
Gd681 O711 2.717 . S
C682 O700 1.240 . S
C682 O701 1.240 . S
C683 Gd680 2.818 . S
C683 C684 1.510 . S
C683 O702 1.249 . S
C683 O703 1.252 . S
C684 C683 1.510 . S
C684 C685 1.404 . S
C684 C686 1.352 . S
C685 C684 1.404 . S
C685 C689 1.389 . S
C685 H712 0.930 . S
C686 C684 1.352 . S
C686 C688 1.374 . S
C686 H713 0.931 . S
C687 C688 1.359 . S
C687 C689 1.364 . S
C688 C686 1.374 . S
C688 C687 1.359 . S
C688 H714 0.931 . S
C689 C685 1.389 . S
C689 C687 1.364 . S
C689 H715 0.931 . S
C690 O704 1.256 . S
C690 O705 1.257 . S
C691 O706 1.240 . S
C691 O707 1.240 . S
C692 Gd681 2.818 . S
C692 C693 1.510 . S
C692 O708 1.249 . S
C692 O709 1.252 . S
C693 C692 1.510 . S
C693 C694 1.404 . S
C693 C695 1.352 . S
C694 C693 1.404 . S
C694 C698 1.389 1_565 S
C694 H716 0.930 . S
C695 C693 1.352 . S
C695 C697 1.374 1_565 S
C695 H717 0.931 . S
C696 C697 1.359 . S
C696 C698 1.364 . S
C697 C695 1.374 1_545 S
C697 C696 1.359 . S
C697 H718 0.931 . S
C698 C694 1.389 1_545 S
C698 C696 1.364 . S
C698 H719 0.931 . S
C699 O710 1.256 . S
C699 O711 1.257 . S
O700 Gd680 2.377 . S
O700 C682 1.240 . S
O701 Gd681 2.395 . S
O701 C682 1.240 . S
O702 Gd680 2.448 . S
O702 C683 1.249 . S
O703 Gd680 2.506 . S
O703 C683 1.252 . S
O704 Gd680 2.435 . S
O704 C690 1.256 . S
O705 Gd680 2.717 . S
O705 Gd681 2.327 . S
O705 C690 1.257 . S
O706 Gd681 2.377 . S
O706 C691 1.240 . S
O707 Gd680 2.395 . S
O707 C691 1.240 . S
O708 Gd681 2.448 . S
O708 C692 1.249 . S
O709 Gd681 2.506 . S
O709 C692 1.252 . S
O710 Gd681 2.435 . S
O710 C699 1.256 . S
O711 Gd680 2.327 . S
O711 Gd681 2.717 . S
O711 C699 1.257 . S
H712 C685 0.930 . S
H713 C686 0.931 . S
H714 C688 0.931 . S
H715 C689 0.931 . S
H716 C694 0.930 . S
H717 C695 0.931 . S
H718 C697 0.931 . S
H719 C698 0.931 . S
C11 C96 1.918 . S
C16 C51 1.918 . S
C56 C91 1.918 . S
C131 C176 1.918 . S
C216 C171 1.918 . S
C211 C136 1.918 . S
C336 C251 1.918 . S
C256 C291 1.917 1_545 S
C331 C296 1.918 . S
C416 C371 1.918 . S
C411 C456 1.918 . S
C376 C451 1.918 . S
C491 C576 1.918 . S
C496 C531 1.918 . S
C536 C571 1.918 . S
C656 C611 1.918 . S
C696 C651 1.918 . S
C616 C691 1.917 1_455 S
C19 C219 1.683 1_554 S
C139 C59 1.683 1_556 S
C179 C99 1.683 1_556 S
C259 C459 1.684 . S
C299 C379 1.683 . S
C419 C339 1.684 . S
C499 C699 1.683 . S
C619 C539 1.684 . S
C659 C579 1.684 . S
C410 C10 4.921 1_565 S
C50 C450 4.921 . S
C370 C90 4.921 . S
C130 C570 4.921 1_455 S
C170 C490 4.921 . S
C530 C210 4.921 . S
C650 C250 4.921 1_655 S
C290 C690 4.921 . S
C330 C610 4.921 1_565 S
C87 C2 2.840 . S
C7 C42 2.840 . S
C82 C47 2.840 . S
C167 C122 2.840 . S
C207 C162 2.840 . S
C202 C127 2.840 . S
C327 C242 2.840 . S
C282 C247 2.840 . S
C287 C322 2.840 . S
C362 C407 2.840 . S
C402 C447 2.840 1_565 S
C367 C442 2.840 . S
C482 C567 2.840 . S
C522 C487 2.840 . S
C527 C562 2.840 1_455 S
C602 C647 2.840 . S
C642 C687 2.840 . S
C607 C682 2.840 . S
