# Generated by pormake.
# Topology wji, (4)-cn, num edge types: 1
# Building blocks:
#     Node 0, Type 0, BuildingBlock: KUFVIS_clean_sbu_0, # of connection points: 4
#     Node 1, Type 0, BuildingBlock: KUFVIS_clean_sbu_0, # of connection points: 4
#     Node 2, Type 0, BuildingBlock: KUFVIS_clean_sbu_0, # of connection points: 4
#     Node 3, Type 0, BuildingBlock: KUFVIS_clean_sbu_0, # of connection points: 4
#     Node 4, Type 0, BuildingBlock: KUFVIS_clean_sbu_0, # of connection points: 4
#     Node 5, Type 0, BuildingBlock: KUFVIS_clean_sbu_0, # of connection points: 4
#     Node 6, Type 0, BuildingBlock: KUFVIS_clean_sbu_0, # of connection points: 4
#     Node 7, Type 0, BuildingBlock: KUFVIS_clean_sbu_0, # of connection points: 4
#     Node 8, Type 0, BuildingBlock: KUFVIS_clean_sbu_0, # of connection points: 4
#     Node 9, Type 0, BuildingBlock: KUFVIS_clean_sbu_0, # of connection points: 4
#     Node 10, Type 0, BuildingBlock: KUFVIS_clean_sbu_0, # of connection points: 4
#     Node 11, Type 0, BuildingBlock: KUFVIS_clean_sbu_0, # of connection points: 4
#     Edge 12, Type (0, 0), BuildingBlock: OJICUG_clean_linker_0, # of connection points: 2
#     Edge 13, Type (0, 0), BuildingBlock: OJICUG_clean_linker_0, # of connection points: 2
#     Edge 14, Type (0, 0), BuildingBlock: OJICUG_clean_linker_0, # of connection points: 2
#     Edge 15, Type (0, 0), BuildingBlock: OJICUG_clean_linker_0, # of connection points: 2
#     Edge 16, Type (0, 0), BuildingBlock: OJICUG_clean_linker_0, # of connection points: 2
#     Edge 17, Type (0, 0), BuildingBlock: OJICUG_clean_linker_0, # of connection points: 2
#     Edge 18, Type (0, 0), BuildingBlock: OJICUG_clean_linker_0, # of connection points: 2
#     Edge 19, Type (0, 0), BuildingBlock: OJICUG_clean_linker_0, # of connection points: 2
#     Edge 20, Type (0, 0), BuildingBlock: OJICUG_clean_linker_0, # of connection points: 2
#     Edge 21, Type (0, 0), BuildingBlock: OJICUG_clean_linker_0, # of connection points: 2
#     Edge 22, Type (0, 0), BuildingBlock: OJICUG_clean_linker_0, # of connection points: 2
#     Edge 23, Type (0, 0), BuildingBlock: OJICUG_clean_linker_0, # of connection points: 2
#     Edge 24, Type (0, 0), BuildingBlock: OJICUG_clean_linker_0, # of connection points: 2
#     Edge 25, Type (0, 0), BuildingBlock: OJICUG_clean_linker_0, # of connection points: 2
#     Edge 26, Type (0, 0), BuildingBlock: OJICUG_clean_linker_0, # of connection points: 2
#     Edge 27, Type (0, 0), BuildingBlock: OJICUG_clean_linker_0, # of connection points: 2
#     Edge 28, Type (0, 0), BuildingBlock: OJICUG_clean_linker_0, # of connection points: 2
#     Edge 29, Type (0, 0), BuildingBlock: OJICUG_clean_linker_0, # of connection points: 2
#     Edge 30, Type (0, 0), BuildingBlock: OJICUG_clean_linker_0, # of connection points: 2
#     Edge 31, Type (0, 0), BuildingBlock: OJICUG_clean_linker_0, # of connection points: 2
#     Edge 32, Type (0, 0), BuildingBlock: OJICUG_clean_linker_0, # of connection points: 2
#     Edge 33, Type (0, 0), BuildingBlock: OJICUG_clean_linker_0, # of connection points: 2
#     Edge 34, Type (0, 0), BuildingBlock: OJICUG_clean_linker_0, # of connection points: 2
#     Edge 35, Type (0, 0), BuildingBlock: OJICUG_clean_linker_0, # of connection points: 2
# Relax obj value: 0.178
# Max RMSD: 0.117
# Mean RMSD: 0.117
data_MOF--net-wji--node1-KUFVIS_clean_sbu_0--edge1-OJICUG_clean_linker_0
_symmetry_space_group_name_H-M    P1
_symmetry_Int_Tables_number       1
_symmetry_cell_setting            triclinic
loop_
_symmetry_equiv_pos_as_xyz
'x, y, z'
_cell_length_a     39.891628
_cell_length_b     39.818409
_cell_length_c     17.76621
_cell_angle_alpha  89.961543
_cell_angle_beta   90.142244
_cell_angle_gamma 119.98789
loop_
_atom_site_label
_atom_site_type_symbol
_atom_site_fract_x
_atom_site_fract_y
_atom_site_fract_z
_atom_type_partial_charge
Mn0 Mn 0.44306 0.34466 0.42755 0.0
Mn1 Mn 0.443 0.43026 0.41856 0.0
C2 C 0.40238 0.3556 0.50345 0.0
C3 C 0.46123 0.30198 0.48267 0.0
C4 C 0.40789 0.36856 0.2982 0.0
O5 O 0.49734 0.38228 0.3881 0.0
O6 O 0.49396 0.43763 0.38506 0.0
C7 C 0.50519 0.48914 0.51427 0.0
N8 N 0.46667 0.46532 0.50117 0.0
C9 C 0.4508 0.50188 0.58786 0.0
C10 C 0.49017 0.52573 0.60386 0.0
C11 C 0.51751 0.51972 0.56591 0.0
C12 C 0.44031 0.47261 0.53393 0.0
H13 H 0.5265 0.48621 0.48283 0.0
C14 C 0.51245 0.41897 0.37882 0.0
O15 O 0.44853 0.29745 0.41398 0.0
O16 O 0.46561 0.3325 0.51759 0.0
N17 N 0.39539 0.42516 0.45404 0.0
C18 C 0.35864 0.40088 0.42941 0.0
C19 C 0.32781 0.40368 0.4604 0.0
C20 C 0.33509 0.43142 0.51631 0.0
C21 C 0.37303 0.45539 0.54224 0.0
C22 C 0.40249 0.45082 0.50999 0.0
H23 H 0.35286 0.37935 0.38682 0.0
O24 O 0.39249 0.32057 0.48246 0.0
O25 O 0.43385 0.38335 0.47387 0.0
O26 O 0.41668 0.34431 0.32584 0.0
O27 O 0.41747 0.40069 0.32906 0.0
C28 C 0.38287 0.4839 0.59822 0.0
C29 C 0.42173 0.50722 0.62079 0.0
H30 H 0.49979 0.54937 0.64374 0.0
H31 H 0.54811 0.53893 0.57577 0.0
H32 H 0.29855 0.38472 0.44082 0.0
H33 H 0.31128 0.43398 0.53871 0.0
H34 H 0.36099 0.48877 0.6233 0.0
H35 H 0.42904 0.52959 0.66274 0.0
Mn36 Mn 0.12503 0.43117 0.59409 0.0
Mn37 Mn 0.04172 0.4351 0.58079 0.0
C38 C 0.07235 0.39218 0.6688 0.0
C39 C 0.18467 0.44707 0.652 0.0
C40 C 0.06692 0.39788 0.46277 0.0
O41 O 0.1443 0.48587 0.55431 0.0
O42 O 0.08704 0.48529 0.54779 0.0
C43 C 0.04631 0.49891 0.67277 0.0
N44 N 1.03085 0.46009 0.66155 0.0
C45 C 0.97801 0.44628 0.7455 0.0
C46 C 0.99439 0.48597 0.75986 0.0
C47 C 1.02835 0.51243 0.72231 0.0
C48 C 0.9966 0.4346 0.69365 0.0
H49 H 0.07089 0.51959 0.64113 0.0
C50 C 0.12424 0.50248 0.54364 0.0
O51 O 0.17668 0.43428 0.58333 0.0
O52 O 0.15905 0.45271 0.6854 0.0
N53 N 0.99791 0.38831 0.61608 0.0
C54 C 0.98472 0.35112 0.59318 0.0
C55 C 0.95061 0.32101 0.6244 0.0
C56 C 0.93042 0.32944 0.67882 0.0
C57 C 0.94513 0.3678 0.70302 0.0
C58 C 0.97967 0.39649 0.67079 0.0
H59 H 1.00039 0.34444 0.5521 0.0
O60 O 0.09632 0.38068 0.64879 0.0
O61 O 0.07765 0.42418 0.63844 0.0
O62 O 0.0994 0.40553 0.49147 0.0
O63 O 0.04507 0.40853 0.49256 0.0
C64 C 0.92672 0.37878 0.75727 0.0
C65 C 0.94293 0.41805 0.77784 0.0
H66 H 0.98056 0.49651 0.798 0.0
H67 H 0.04037 0.54328 0.73069 0.0
H68 H 0.93977 0.2914 0.60624 0.0
H69 H 0.90373 0.30618 0.70157 0.0
H70 H 0.89966 0.35745 0.78238 0.0
H71 H 0.92784 0.42632 0.81765 0.0
Mn72 Mn 0.72366 0.1135 0.75967 0.0
Mn73 Mn 0.63717 0.02925 0.74743 0.0
C74 C 0.71107 0.06113 0.83479 0.0
C75 C 0.76649 0.17366 0.81687 0.0
C76 C 0.69955 0.05485 0.62941 0.0
O77 O 0.68766 0.13193 0.71979 0.0
O78 O 0.63163 0.07407 0.71281 0.0
C79 C 0.57771 0.03374 0.83824 0.0
N80 N 0.60129 1.0185 0.82792 0.0
C81 C 0.56275 0.96606 0.91329 0.0
C82 C 0.53912 0.98213 0.92645 0.0
C83 C 0.54631 1.01582 0.88788 0.0
C84 C 0.59283 0.9845 0.8611 0.0
H85 H 0.58137 0.05808 0.80583 0.0
C86 C 0.65112 0.11136 0.7088 0.0
O87 O 0.77154 0.1658 0.74834 0.0
O88 O 0.73561 0.14754 0.85054 0.0
N89 N 0.64055 0.9858 0.78429 0.0
C90 C 0.6648 0.97281 0.76244 0.0
C91 C 0.66149 0.9393 0.79571 0.0
C92 C 0.63323 0.91944 0.85092 0.0
C93 C 0.60909 0.93377 0.87349 0.0
C94 C 0.61429 0.96775 0.83934 0.0
H95 H 0.68687 0.98823 0.72074 0.0
O96 O 0.74632 0.08563 0.81448 0.0
O97 O 0.68391 0.06581 0.80475 0.0
O98 O 0.72388 0.08779 0.65736 0.0
O99 O 0.6673 0.03253 0.65965 0.0
C100 C 0.57995 0.91561 0.92824 0.0
C101 C 0.55648 0.93148 0.9474 0.0
H102 H 0.51481 0.96831 0.96467 0.0
H103 H 0.52735 0.02768 0.89561 0.0
H104 H 0.68057 0.92871 0.77865 0.0
H105 H 0.63047 0.89333 0.87569 0.0
H106 H 0.57473 0.889 0.95488 0.0
H107 H 0.53335 0.91658 -0.0123 0.0
Mn108 Mn 0.63959 0.70597 0.93412 0.0
Mn109 Mn 0.63786 0.61977 0.93424 0.0
C110 C 0.68706 0.69982 -0.00075 0.0
C111 C 0.62481 0.75084 -0.00914 0.0
C112 C 0.66413 0.67425 0.80118 0.0
O113 O 0.5831 0.66786 0.90842 0.0
O114 O 0.5851 0.61215 0.91581 0.0
C115 C 0.58363 0.56529 0.0435 0.0
N116 N 0.62128 0.59017 0.02515 0.0
C117 C 0.6419 0.55369 0.10206 0.0
C118 C 0.60346 0.52893 0.12313 0.0
C119 C 0.57418 0.53394 0.09145 0.0
C120 C 0.6495 0.58331 0.05021 0.0
H121 H 0.56043 0.56709 0.01679 0.0
C122 C 0.56684 0.63091 0.90812 0.0
O123 O 0.63292 0.75264 0.91968 0.0
O124 O 0.62326 0.72202 0.02752 0.0
N125 N 0.6872 0.62444 0.954 0.0
C126 C 0.72028 0.64302 0.91248 0.0
C127 C 0.75184 0.63808 0.93035 0.0
C128 C 0.74889 0.61359 -0.0101 0.0
C129 C 0.71458 0.59471 0.03169 0.0
C130 C 0.68449 0.60183 0.01304 0.0
H131 H 0.72284 0.6619 0.86668 0.0
O132 O 0.69356 0.73281 0.97214 0.0
O133 O 0.65321 0.67015 -0.01663 0.0
O134 O 0.65893 0.70103 0.82817 0.0
O135 O 0.65538 0.64352 0.83676 0.0
C136 C 0.70845 0.56766 0.08862 0.0
C137 C 0.67202 0.54689 0.12328 0.0
H138 H 0.59567 0.50411 0.1588 0.0
H139 H 0.54414 0.51301 0.10236 0.0
H140 H 0.77822 0.65279 0.8978 0.0
H141 H 0.77294 0.60907 0.00233 0.0
H142 H 0.73085 0.56102 0.10333 0.0
H143 H 0.66693 0.52432 0.16335 0.0
Mn144 Mn 0.95234 0.62577 0.0814 0.0
Mn145 Mn 1.03484 0.62035 0.069 0.0
C146 C 1.00525 0.66428 0.15634 0.0
C147 C 0.89295 0.61122 0.13838 0.0
C148 C 1.01069 0.65851 0.95066 0.0
O149 O 0.9322 0.57072 0.0427 0.0
O150 O 0.98908 0.57066 0.03465 0.0
C151 C 1.02887 0.55549 0.15957 0.0
N152 N 0.04479 0.59446 0.14958 0.0
C153 C 0.09671 0.60699 0.23554 0.0
C154 C 0.07985 0.56715 0.24858 0.0
C155 C 0.04611 0.54125 0.20949 0.0
C156 C 0.07893 0.61938 0.18301 0.0
H157 H 1.00456 0.53524 0.12655 0.0
C158 C 0.95185 0.55372 0.03176 0.0
O159 O 0.90122 0.62378 0.06968 0.0
O160 O 0.91811 0.60498 0.17242 0.0
N161 N 0.07905 0.66653 0.10564 0.0
C162 C 0.09296 0.70394 0.08346 0.0
C163 C 0.12688 0.73357 0.11654 0.0
C164 C 0.14615 0.72444 0.17205 0.0
C165 C 0.13082 0.68584 0.1952 0.0
C166 C 0.09653 0.65765 0.16103 0.0
H167 H 0.07796 0.71118 0.04164 0.0
O168 O 0.98177 0.67632 0.13561 0.0
O169 O 0.99941 0.63195 0.12652 0.0
O170 O 0.97816 0.6509 0.9787 0.0
O171 O 1.03236 0.64772 -0.01896 0.0
C172 C 0.14826 0.67419 0.25053 0.0
C173 C 0.13145 0.63472 0.27005 0.0
H174 H 0.09319 0.55607 0.2869 0.0
H175 H 1.03371 0.5103 0.21692 0.0
H176 H 0.13823 0.76336 0.09911 0.0
H177 H 0.1726 0.74735 0.19653 0.0
H178 H 0.175 0.69515 0.2774 0.0
H179 H 0.14573 0.62594 0.31097 0.0
Mn180 Mn 0.35994 0.93976 0.25351 0.0
Mn181 Mn 0.44699 1.02346 0.24293 0.0
C182 C 0.37265 0.99241 0.32785 0.0
C183 C 0.3161 0.87999 0.31037 0.0
C184 C 0.3853 0.9981 0.12285 0.0
O185 O 0.39587 0.92075 0.21576 0.0
O186 O 0.45242 0.97823 0.21098 0.0
C187 C 0.50582 1.01941 0.33728 0.0
N188 N 0.4823 0.03458 0.32502 0.0
C189 C 0.5203 0.08744 0.41026 0.0
C190 C 0.5437 0.07131 0.42574 0.0
C191 C 0.53681 0.03749 0.38808 0.0
C192 C 0.49059 0.06878 0.35712 0.0
H193 H 0.50244 0.99499 0.30555 0.0
C194 C 0.43261 0.94094 0.20686 0.0
O195 O 0.31173 0.88779 0.24129 0.0
O196 O 0.347 0.90581 0.34472 0.0
N197 N 0.44352 0.06719 0.27748 0.0
C198 C 0.41941 0.08008 0.25375 0.0
C199 C 0.42274 0.11393 0.28523 0.0
C200 C 0.45077 0.13416 0.34083 0.0
C201 C 0.47457 0.1198 0.36579 0.0
C202 C 0.46942 0.08551 0.3332 0.0
H203 H 0.39742 0.06431 0.21193 0.0
O204 O 0.33744 0.96815 0.30663 0.0
O205 O 0.39975 0.98733 0.29906 0.0
O206 O 0.36041 0.96547 0.1508 0.0
O207 O 0.41763 1.01995 0.15352 0.0
C208 C 0.50334 0.13823 0.42136 0.0
C209 C 0.52649 0.1223 0.44291 0.0
H210 H 0.56765 0.0852 0.46499 0.0
H211 H 0.55568 1.02563 0.39745 0.0
H212 H 0.40384 0.12448 0.26649 0.0
H213 H 0.45361 0.16058 0.36404 0.0
H214 H 0.50851 0.16509 0.44683 0.0
H215 H 0.54936 0.13741 0.48384 0.0
Mn216 Mn 0.72334 0.62779 0.36148 0.0
Mn217 Mn 0.6389 0.62885 0.3736 0.0
C218 C 0.71665 0.67564 0.29964 0.0
C219 C 0.767 0.6129 0.30025 0.0
C220 C 0.69757 0.65636 0.49844 0.0
O221 O 0.68539 0.57152 0.38633 0.0
O222 O 0.63187 0.57677 0.40061 0.0
C223 C 0.58066 0.56906 0.27585 0.0
N224 N 0.60552 0.60756 0.28802 0.0
C225 C 0.56649 0.62417 0.20931 0.0
C226 C 0.54168 0.5848 0.19434 0.0
C227 C 0.54804 0.55717 0.23006 0.0
C228 C 0.5976 0.63437 0.25895 0.0
H229 H 0.58382 0.54723 0.30517 0.0
C230 C 0.64942 0.55707 0.40011 0.0
O231 O 0.76966 0.62044 0.37182 0.0
O232 O 0.73795 0.61192 0.26557 0.0
N233 N 0.64182 0.6768 0.34685 0.0
C234 C 0.66059 0.71146 0.38372 0.0
C235 C 0.65428 0.74178 0.36214 0.0
C236 C 0.62818 0.73598 0.30375 0.0
C237 C 0.6088 0.69997 0.26724 0.0
C238 C 0.6171 0.67109 0.2897 0.0
H239 H 0.68084 0.71624 0.42814 0.0
O240 O 0.74986 0.682 0.32509 0.0
O241 O 0.6869 0.64204 0.31707 0.0
O242 O 0.72023 0.64583 0.46987 0.0
O243 O 0.66744 0.65163 0.46555 0.0
C244 C 0.58009 0.69103 0.21227 0.0
C245 C 0.55873 0.65308 0.18377 0.0
H246 H 0.51617 0.57526 0.15964 0.0
H247 H 0.52746 0.5266 0.22328 0.0
H248 H 0.66929 0.76945 0.3908 0.0
H249 H 0.62273 0.75915 0.28837 0.0
H250 H 0.57269 0.71255 0.19452 0.0
H251 H 0.53501 0.64599 0.14525 0.0
Mn252 Mn 0.12735 0.71095 0.52592 0.0
Mn253 Mn 0.04335 0.62425 0.53766 0.0
C254 C 0.07513 0.69812 0.45021 0.0
C255 C 0.18744 0.75409 0.46951 0.0
C256 C 0.06851 0.68694 0.65541 0.0
O257 O 0.14589 0.67511 0.56619 0.0
O258 O 0.08812 0.61906 0.57374 0.0
C259 C 0.04855 0.56463 0.44817 0.0
N260 N 1.03304 0.58804 0.45767 0.0
C261 C 0.9808 0.5486 0.37237 0.0
C262 C 0.9971 0.52509 0.36016 0.0
C263 C 1.03086 0.53284 0.39904 0.0
C264 C 0.99903 0.57911 0.42405 0.0
H265 H 0.07294 0.56871 0.48089 0.0
C266 C 0.12535 0.63859 0.57794 0.0
O267 O 0.17938 0.75906 0.53793 0.0
O268 O 0.16155 0.7231 0.43547 0.0
N269 N 0.99992 0.62717 0.49962 0.0
C270 C 0.98664 0.65133 0.5207 0.0
C271 C 0.9531 0.64757 0.4868 0.0
C272 C 0.93348 0.61892 0.43186 0.0
C273 C 0.94805 0.59482 0.41021 0.0
C274 C 0.98206 0.6005 0.44489 0.0
H275 H 1.00183 0.67363 0.56234 0.0
O276 O 0.09947 0.73346 0.47083 0.0
O277 O 0.07986 0.67094 0.48025 0.0
O278 O 0.10152 0.71114 0.62797 0.0
O279 O 0.04619 0.65466 0.6249 0.0
C280 C 0.93008 0.56524 0.35594 0.0
C281 C 0.94616 0.54181 0.33783 0.0
H282 H 0.98343 0.50045 0.32242 0.0
H283 H 0.04294 0.51401 0.392 0.0
H284 H 0.94231 0.66659 0.50322 0.0
H285 H 0.90735 0.61581 0.40665 0.0
H286 H 0.90346 0.55965 0.32891 0.0
H287 H 0.93138 0.51829 0.29803 0.0
Mn288 Mn 0.44551 0.11424 0.69699 0.0
Mn289 Mn 0.44801 0.02999 0.70939 0.0
C290 C 0.40593 0.06171 0.6219 0.0
C291 C 0.46208 0.17431 0.64012 0.0
C292 C 0.4117 0.05594 0.8277 0.0
O293 O 0.50008 0.13275 0.73642 0.0
O294 O 0.49843 0.07487 0.743 0.0
C295 C 0.51131 0.03381 0.61752 0.0
N296 N 0.47262 1.01875 0.62856 0.0
C297 C 0.45817 0.96571 0.54415 0.0
C298 C 0.49774 0.98169 0.52996 0.0
C299 C 0.52445 1.01553 0.56785 0.0
C300 C 0.44687 0.98458 0.59614 0.0
H301 H 0.53217 0.05831 0.64935 0.0
C302 C 0.51614 0.11216 0.74709 0.0
O303 O 0.44952 0.16634 0.70881 0.0
O304 O 0.46709 0.14839 0.606 0.0
N305 N 0.40102 0.98653 0.67359 0.0
C306 C 0.36398 0.97371 0.69638 0.0
C307 C 0.33365 0.93975 0.66483 0.0
C308 C 0.34171 0.91931 0.61024 0.0
C309 C 0.37994 0.93362 0.58623 0.0
C310 C 0.40886 0.96804 0.61878 0.0
H311 H 0.3576 0.98956 0.73766 0.0
O312 O 0.39494 0.08608 0.64223 0.0
O313 O 0.43775 0.06653 0.65217 0.0
O314 O 0.41995 0.0887 0.79946 0.0
O315 O 0.42174 0.03365 0.79759 0.0
C316 C 0.39055 0.91492 0.53188 0.0
C317 C 0.42969 0.93075 0.51146 0.0
H318 H 0.50799 0.96765 0.49162 0.0
H319 H 0.55519 1.02727 0.55954 0.0
H320 H 0.30416 0.92922 0.68287 0.0
H321 H 0.31829 0.89273 0.58723 0.0
H322 H 0.36905 0.88793 0.50657 0.0
H323 H 0.43765 0.91544 0.47151 0.0
Mn324 Mn 0.35399 0.42923 0.87198 0.0
Mn325 Mn 0.4396 0.42989 0.88511 0.0
C326 C 0.36623 0.38919 0.79685 0.0
C327 C 0.31119 0.4465 0.81451 0.0
C328 C 0.3768 0.39304 0.0016 0.0
O329 O 0.39056 0.48362 0.9123 0.0
O330 O 0.4452 0.47952 0.92361 0.0
C331 C 0.49831 0.49533 0.79544 0.0
N332 N 0.47578 0.45635 0.80571 0.0
C333 C 0.51519 0.44415 0.71972 0.0
C334 C 0.53809 0.48405 0.70731 0.0
C335 C 0.5299 0.50978 0.74611 0.0
C336 C 0.48488 0.43152 0.77162 0.0
H337 H 0.4934 0.51541 0.82706 0.0
C338 C 0.42662 0.49818 0.92743 0.0
O339 O 0.30628 0.43395 0.88332 0.0
O340 O 0.34209 0.4513 0.78096 0.0
N341 N 0.43667 0.38376 0.84577 0.0
C342 C 0.413 0.34624 0.86694 0.0
C343 C 0.41741 0.31676 0.83353 0.0
C344 C 0.44623 0.3262 0.7791 0.0
C345 C 0.46981 0.36496 0.75726 0.0
C346 C 0.46361 0.393 0.7917 0.0
H347 H 0.39079 0.33886 0.90868 0.0
O348 O 0.331 0.37863 0.81687 0.0
O349 O 0.39344 0.42083 0.82736 0.0
O350 O 0.35358 0.40331 0.97439 0.0
O351 O 0.40866 0.40166 0.97107 0.0
C352 C 0.49942 0.37696 0.70322 0.0
C353 C 0.52225 0.41655 0.68485 0.0
H354 H 0.56246 0.49531 0.66911 0.0
H355 H 0.5481 0.54075 0.73843 0.0
H356 H 0.39888 0.28688 0.85016 0.0
H357 H 0.44995 0.30339 0.75473 0.0
H358 H 0.50544 0.35619 0.67639 0.0
H359 H 0.54547 0.42551 0.64446 0.0
Mn360 Mn 0.95079 0.34669 0.03626 0.0
Mn361 Mn 1.03417 0.43395 0.04855 0.0
C362 C 1.00348 0.35967 0.96266 0.0
C363 C 0.89136 0.30264 0.97839 0.0
C364 C 1.00898 0.3718 0.16743 0.0
O365 O 0.93153 0.38245 0.0737 0.0
O366 O 0.98889 0.43898 0.08142 0.0
C367 C 1.02959 0.49317 0.95629 0.0
N368 N 0.04491 0.46967 0.96741 0.0
C369 C 0.09745 0.5084 0.88258 0.0
C370 C 0.08117 0.53178 0.86828 0.0
C371 C 0.0474 0.52448 0.90621 0.0
C372 C 0.07905 0.47834 0.93502 0.0
H373 H 1.00532 0.48957 -0.01148 0.0
C374 C 0.95163 0.41915 0.08402 0.0
O375 O 0.89901 0.29825 0.04756 0.0
O376 O 0.91712 0.3337 0.94452 0.0
N377 N 0.07796 0.431 0.01324 0.0
C378 C 0.09111 0.40696 0.0361 0.0
C379 C 0.12491 0.41064 0.00409 0.0
C380 C 0.14484 0.43896 0.94893 0.0
C381 C 0.13024 0.46274 0.92497 0.0
C382 C 0.09601 0.45722 0.95801 0.0
H383 H 0.07559 0.38476 0.0776 0.0
O384 O 0.97938 0.32437 -0.01634 0.0
O385 O 0.99828 0.38679 -0.00862 0.0
O386 O 0.97624 0.34714 0.13938 0.0
O387 O 1.03098 0.40416 0.13704 0.0
C388 C 0.14837 0.49181 0.86994 0.0
C389 C 0.13223 0.51493 0.84945 0.0
H390 H 0.09491 0.55604 0.82974 0.0
H391 H 1.0354 0.5433 0.89771 0.0
H392 H 0.13566 0.39178 0.02209 0.0
H393 H 0.1712 0.44204 0.9253 0.0
H394 H 0.17515 0.49724 0.84409 0.0
H395 H 0.1471 0.53803 0.80893 0.0
Mn396 Mn 0.63794 0.93843 0.20308 0.0
Mn397 Mn 0.63366 1.02174 0.21485 0.0
C398 C 0.67687 0.99118 0.12824 0.0
C399 C 0.62303 0.87859 0.14687 0.0
C400 C 0.67111 0.99714 0.33371 0.0
O401 O 0.58302 0.91891 0.24125 0.0
O402 O 0.58383 0.97636 0.24904 0.0
C403 C 0.56929 1.01615 0.12323 0.0
N404 N 0.60813 0.03197 0.13397 0.0
C405 C 0.62109 0.0844 0.04901 0.0
C406 C 0.58137 0.06769 0.03531 0.0
C407 C 0.55532 0.03374 0.07353 0.0
C408 C 0.63321 0.06623 0.10119 0.0
H409 H 0.54892 0.99157 0.15538 0.0
C410 C 0.56652 0.93907 0.2523 0.0
O411 O 0.63538 0.88704 0.21573 0.0
O412 O 0.61714 0.90384 0.11213 0.0
N413 N 0.68 0.06572 0.17861 0.0
C414 C 0.71725 0.0794 0.20132 0.0
C415 C 0.74699 0.11351 0.1692 0.0
C416 C 0.73812 0.13321 0.11419 0.0
C417 C 0.69968 0.11808 0.09044 0.0
C418 C 0.67137 0.08358 0.12359 0.0
H419 H 0.72426 0.06415 0.24298 0.0
O420 O 0.68851 0.9674 0.14923 0.0
O421 O 0.64471 0.98573 0.15771 0.0
O422 O 0.66309 0.96437 0.30585 0.0
O423 O 0.66073 1.01909 0.30308 0.0
C424 C 0.68826 0.136 0.03568 0.0
C425 C 0.64894 0.11938 0.0156 0.0
H426 H 0.5705 0.08125 -0.00294 0.0
H427 H 0.52447 1.02141 0.0655 0.0
H428 H 0.77666 0.12471 0.18711 0.0
H429 H 0.7611 0.15986 0.09068 0.0
H430 H 0.70928 0.16298 0.00977 0.0
H431 H 0.64034 0.13406 0.97521 0.0
C432 C 0.38751 0.35084 0.09083 0.0
C433 C 0.37066 0.37413 0.07615 0.0
H434 H 0.41229 0.33015 0.17347 0.0
C435 C 0.35768 0.38683 0.13687 0.0
H436 H 0.3976 0.34033 0.04495 0.0
C437 C 0.36626 0.381 0.21046 0.0
C438 C 0.38776 0.36218 0.22474 0.0
H439 H 0.34479 0.40485 0.12761 0.0
H440 H 0.35906 0.3944 0.2558 0.0
C441 C 0.39595 0.34485 0.16453 0.0
C442 C 0.07847 0.39041 0.32713 0.0
C443 C 0.05335 0.37866 0.38859 0.0
H444 H 0.08373 0.39686 0.20792 0.0
C445 C 1.01306 0.35597 0.37505 0.0
H446 H 0.10945 0.40805 0.33548 0.0
C447 C 0.99806 0.34938 0.30175 0.0
C448 C 1.02311 0.36566 0.24068 0.0
H449 H 0.9928 0.34633 0.42136 0.0
H450 H 0.96701 0.33514 0.29369 0.0
C451 C 0.06348 0.38411 0.2539 0.0
C452 C 0.71275 0.05146 0.42101 0.0
C453 C 0.6907 1.01105 0.40761 0.0
H454 H 0.73383 0.09744 0.50253 0.0
C455 C 0.6806 0.98586 0.46897 0.0
H456 H 0.72123 0.07178 0.37478 0.0
C457 C 0.68786 1.00079 0.54232 0.0
C458 C 0.70559 0.04116 0.55569 0.0
H459 H 0.66359 0.95477 0.46076 0.0
H460 H 0.67635 0.98044 0.58855 0.0
C461 C 0.72026 0.06639 0.49436 0.0
C462 C 0.69107 0.69796 0.59578 0.0
C463 C 0.70185 0.67016 0.57688 0.0
H464 H 0.6708 0.72151 0.68157 0.0
C465 C 0.70618 0.64878 0.6344 0.0
H466 H 0.68762 0.71508 0.55261 0.0
C467 C 0.69583 0.65198 0.70786 0.0
C468 C 0.68148 0.67714 0.72585 0.0
H469 H 0.71386 0.62686 0.62162 0.0
H470 H 0.69689 0.63273 0.74959 0.0
C471 C 0.68119 0.70161 0.66971 0.0
C472 C 1.01452 0.67541 0.74207 0.0
C473 C 0.05481 0.69306 0.72903 0.0
H474 H 0.96852 0.65119 0.82324 0.0
C475 C 0.07995 0.70764 0.79062 0.0
H476 H 0.99425 0.66398 0.69562 0.0
C477 C 0.065 0.70013 0.86384 0.0
C478 C 1.02466 0.67817 0.87691 0.0
H479 H 0.11094 0.72113 0.78271 0.0
H480 H 0.08526 0.70852 0.91021 0.0
C481 C 0.99956 0.66815 0.81532 0.0
C482 C 0.36952 1.00224 0.91517 0.0
C483 C 0.39255 0.04255 0.9018 0.0
H484 H 0.34832 0.95614 -0.00361 0.0
C485 C 0.40459 0.06779 0.96331 0.0
H486 H 0.35965 0.98191 0.86877 0.0
C487 C 0.3982 0.05281 0.03648 0.0
C488 C 0.37938 1.01235 0.04956 0.0
H489 H 0.42247 0.09878 0.95508 0.0
H490 H 0.41116 0.0731 0.08251 0.0
C491 C 0.36285 0.98725 -0.01158 0.0
C492 C 0.61095 0.49786 0.32516 0.0
C493 C 0.62426 0.51466 0.39642 0.0
H494 H 0.56315 0.45356 0.26225 0.0
C495 C 0.60554 0.49321 0.46071 0.0
H496 H 0.62525 0.51425 0.27523 0.0
C497 C 0.57173 0.45712 0.4533 0.0
C498 C 0.55488 0.44354 0.38194 0.0
H499 H 0.61499 0.50571 0.51621 0.0
H500 H 0.55584 0.44264 0.50376 0.0
C501 C 0.57572 0.4631 0.31768 0.0
C502 C 0.14689 0.56005 0.62365 0.0
C503 C 0.14379 0.54496 0.55065 0.0
H504 H 0.14175 0.60205 0.69105 0.0
C505 C 0.147 0.56805 0.48864 0.0
H506 H 0.14403 0.54237 0.67223 0.0
C507 C 0.14875 0.60372 0.4998 0.0
C508 C 0.14432 0.61509 0.57249 0.0
H509 H 0.14412 0.55687 0.43198 0.0
H510 H 0.14733 0.61927 0.45095 0.0
C511 C 0.14567 0.59424 0.63468 0.0
C512 C 0.58142 0.13318 0.80133 0.0
C513 C 0.55849 0.13109 0.73984 0.0
H514 H 0.63207 0.13209 0.83753 0.0
C515 C 0.57332 0.13455 0.66659 0.0
H516 H 0.57041 0.12994 0.85815 0.0
C517 C 0.60707 0.13274 0.6545 0.0
C518 C 0.62775 0.1304 0.71601 0.0
H519 H 0.55571 0.13246 0.61837 0.0
H520 H 0.61466 0.12923 0.59769 0.0
C521 C 0.61665 0.1343 0.78925 0.0
C522 C 0.50982 0.59186 -0.01254 0.0
C523 C 0.52447 0.60766 0.91625 0.0
H524 H 0.46595 0.54303 0.04795 0.0
C525 C 0.50011 0.5932 0.85338 0.0
H526 H 0.52821 0.60311 0.03658 0.0
C527 C 0.46322 0.56037 0.8608 0.0
C528 C 0.45149 0.54061 0.93012 0.0
H529 H 0.51087 0.60472 0.79783 0.0
H530 H 0.44657 0.54714 0.8102 0.0
C531 C 0.47403 0.55788 -0.00575 0.0
C532 C 0.92902 0.45214 -0.00167 0.0
C533 C 0.93238 0.4422 0.07298 0.0
H534 H 0.93427 0.49744 0.92488 0.0
C535 C 0.92957 0.46392 0.13196 0.0
H536 H 0.93163 0.43593 0.95202 0.0
C537 C 0.92792 0.49755 0.11606 0.0
C538 C 0.93214 0.51132 0.04161 0.0
H539 H 0.93267 0.45727 0.18982 0.0
H540 H 0.9297 0.51599 0.1625 0.0
C541 C 0.93042 0.4873 -0.01748 0.0
C542 C 0.46653 0.91872 0.29104 0.0
C543 C 0.45551 0.92148 0.21693 0.0
H544 H 0.51245 0.9236 0.362 0.0
C545 C 0.47582 0.91742 0.15684 0.0
H546 H 0.45139 0.92225 0.33817 0.0
C547 C 0.5092 0.9151 0.17096 0.0
C548 C 0.5241 0.91979 0.24463 0.0
H549 H 0.46829 0.92002 0.09934 0.0
H550 H 0.52662 0.91597 0.12353 0.0
C551 C 0.5014 0.91934 0.30495 0.0
C552 C 0.40666 0.40418 0.68475 0.0
C553 C 0.37348 0.37741 0.72293 0.0
H554 H 0.44536 0.41383 0.59668 0.0
C555 C 0.3471 0.34279 0.68604 0.0
H556 H 0.42546 0.43283 0.70664 0.0
C557 C 0.35511 0.33543 0.61251 0.0
C558 C 0.39006 0.36211 0.57738 0.0
H559 H 0.32041 0.32204 0.71322 0.0
H560 H 0.33457 0.30903 0.58393 0.0
C561 C 0.41655 0.39488 0.61729 0.0
C562 C 1.02911 0.39927 0.84921 0.0
C563 C 1.02256 0.36639 0.88902 0.0
H564 H 0.05796 0.43682 0.75935 0.0
C565 C 1.03025 0.33931 0.85359 0.0
H566 H 1.0196 0.41849 0.86999 0.0
C567 C 0.04511 0.34626 0.77979 0.0
C568 C 0.05354 0.3809 0.74285 0.0
H569 H 1.02416 0.3128 0.88206 0.0
H570 H 0.05054 0.32515 0.75244 0.0
C571 C 0.04784 0.40815 0.78129 0.0
C572 C 0.66172 1.01626 0.01519 0.0
C573 C 0.68861 1.01029 0.05438 0.0
H574 H 0.65205 0.04504 0.92617 0.0
C575 C 0.72341 1.01886 0.01839 0.0
H576 H 0.63298 1.00608 0.03637 0.0
C577 C 0.73085 0.03408 0.94476 0.0
C578 C 0.70409 0.042 0.90858 0.0
H579 H 0.74427 1.01325 0.04633 0.0
H580 H 0.75744 0.04021 0.91697 0.0
C581 C 0.67107 0.03539 0.94755 0.0
C582 C 0.72674 0.68601 0.09015 0.0
C583 C 0.70303 0.7016 0.07441 0.0
H584 H 0.74925 0.66497 0.17536 0.0
C585 C 0.69203 0.71747 0.13343 0.0
H586 H 0.73944 0.67787 0.04571 0.0
C587 C 0.70027 0.71299 0.20767 0.0
C588 C 0.71751 0.69081 0.2239 0.0
H589 H 0.67595 0.73223 0.12257 0.0
H590 H 0.69246 0.72614 0.2516 0.0
C591 C 0.73318 0.67971 0.16458 0.0
C592 C 0.04846 0.71816 0.34012 0.0
C593 C 0.05597 0.69112 0.37636 0.0
H594 H 1.02803 0.73192 0.23844 0.0
C595 C 0.04897 0.65787 0.33737 0.0
H596 H 0.05489 0.74492 0.36792 0.0
C597 C 1.02991 0.64865 0.26951 0.0
C598 C 1.02437 0.67583 0.23031 0.0
H599 H 0.05833 0.63861 0.35883 0.0
H600 H 1.0195 0.61981 0.24813 0.0
C601 C 1.0333 0.71083 0.2664 0.0
C602 C 0.41212 1.01773 0.44159 0.0
C603 C 0.37941 1.01151 0.40162 0.0
H604 H 0.44987 0.04659 0.53133 0.0
C605 C 0.35269 1.01967 0.43691 0.0
H606 H 0.43103 1.00783 0.42097 0.0
C607 C 0.35986 0.03473 0.51072 0.0
C608 C 0.39438 0.04287 0.54774 0.0
H609 H 0.32631 1.01383 0.40832 0.0
H610 H 0.33903 0.04052 0.53801 0.0
C611 C 0.42127 0.0367 0.50938 0.0
C612 C 0.46671 0.24142 0.48237 0.0
C613 C 0.46615 0.27163 0.52227 0.0
H614 H 0.46622 0.18739 0.48846 0.0
C615 C 0.46684 0.27071 0.6014 0.0
H616 H 0.46589 0.24096 0.42142 0.0
C617 C 0.4668 0.23988 0.63983 0.0
C618 C 0.4665 0.20924 0.60001 0.0
H619 H 0.46566 0.29301 0.6337 0.0
H620 H 0.46607 0.2396 0.70078 0.0
C621 C 0.46712 0.21078 0.52081 0.0
C622 C 0.2786 0.4476 0.69425 0.0
C623 C 0.28094 0.45077 0.77316 0.0
H624 H 0.24684 0.44407 0.59401 0.0
C625 C 0.25238 0.45481 0.81151 0.0
H626 H 0.29933 0.44315 0.66345 0.0
C627 C 0.2221 0.45526 0.77175 0.0
C628 C 0.21928 0.45117 0.69287 0.0
H629 H 0.25304 0.45693 0.87233 0.0
H630 H 0.20008 0.45739 0.80308 0.0
C631 C 0.2482 0.44772 0.65456 0.0
C632 C 0.85655 0.27093 0.85809 0.0
C633 C 0.85714 0.2718 0.93731 0.0
H634 H 0.82782 0.23951 0.75774 0.0
C635 C 0.82637 0.24121 0.97614 0.0
H636 H 0.88011 0.29363 0.82661 0.0
C637 C 0.79624 0.21028 0.93667 0.0
C638 C 0.79628 0.20878 0.85752 0.0
H639 H 0.82596 0.24074 0.0371 0.0
H640 H 0.77366 0.18667 0.96827 0.0
C641 C 0.82666 0.23974 0.81864 0.0
C642 C 0.6142 0.83945 0.02908 0.0
C643 C 0.61968 0.84385 0.1076 0.0
H644 H 0.61154 0.80693 0.93035 0.0
C645 C 0.62516 0.81638 0.14719 0.0
H646 H 0.61046 0.8603 -0.00331 0.0
C647 C 0.62586 0.78586 0.1092 0.0
C648 C 0.62105 0.78182 0.03057 0.0
H649 H 0.62992 0.81899 0.20747 0.0
H650 H 0.63167 0.76621 0.14125 0.0
C651 C 0.61504 0.80894 -0.00906 0.0
C652 C 0.82338 0.60078 0.29576 0.0
C653 C 0.79738 0.60922 0.25839 0.0
H654 H 0.87334 0.59411 0.28697 0.0
C655 C 0.8021 0.61657 0.1805 0.0
H656 H 0.82082 0.59527 0.35578 0.0
C657 C 0.83219 0.61588 0.14105 0.0
C658 C 0.85855 0.60793 0.17849 0.0
H659 H 0.78336 0.62434 0.15035 0.0
H660 H 0.83539 0.62263 0.08152 0.0
C661 C 0.85344 0.59996 0.2562 0.0
C662 C 0.25279 0.81509 0.46888 0.0
C663 C 0.22254 0.78412 0.42948 0.0
H664 H 0.30592 0.86928 0.46186 0.0
C665 C 0.22469 0.78378 0.35042 0.0
H666 H 0.25204 0.8165 0.52969 0.0
C667 C 0.25553 0.81422 0.31152 0.0
C668 C 0.28537 0.84555 0.35089 0.0
H669 H 0.20169 0.76069 0.31835 0.0
H670 H 0.25558 0.81358 0.25057 0.0
C671 C 0.28387 0.84525 0.43003 0.0
loop_
_geom_bond_atom_site_label_1
_geom_bond_atom_site_label_2
_geom_bond_distance
_geom_bond_site_symmetry_2
_ccdc_geom_bond_type
Mn0 O5 2.095 . S
Mn0 O15 2.162 . S
Mn0 O16 2.297 . S
Mn0 O24 2.385 . S
Mn0 O25 2.209 . S
Mn0 O26 2.094 . S
Mn1 O6 2.121 . S
Mn1 N8 2.257 . S
Mn1 N17 2.282 . S
Mn1 O25 2.215 . S
Mn1 O27 2.117 . S
C2 O24 1.234 . S
C2 O25 1.283 . S
C3 O15 1.281 . S
C3 O16 1.236 . S
C4 O26 1.240 . S
C4 O27 1.264 . S
O5 Mn0 2.095 . S
O5 C14 1.250 . S
O6 Mn1 2.121 . S
O6 C14 1.258 . S
C7 N8 1.326 . S
C7 C11 1.460 . S
C7 H13 0.929 . S
N8 Mn1 2.257 . S
N8 C7 1.326 . S
N8 C12 1.362 . S
C9 C10 1.258 . S
C9 C12 1.431 . S
C9 C29 1.449 . S
C10 C9 1.258 . S
C10 C11 1.477 . S
C10 H30 0.931 . S
C11 C7 1.460 . S
C11 C10 1.477 . S
C11 H31 0.930 . S
C12 N8 1.362 . S
C12 C9 1.431 . S
C12 C22 1.476 . S
H13 C7 0.929 . S
C14 O5 1.250 . S
C14 O6 1.258 . S
O15 Mn0 2.162 . S
O15 C3 1.281 . S
O16 Mn0 2.297 . S
O16 C3 1.236 . S
N17 Mn1 2.282 . S
N17 C18 1.328 . S
N17 C22 1.318 . S
C18 N17 1.328 . S
C18 C19 1.457 . S
C18 H23 0.929 . S
C19 C18 1.457 . S
C19 C20 1.291 . S
C19 H32 0.931 . S
C20 C19 1.291 . S
C20 C21 1.373 . S
C20 H33 0.929 . S
C21 C20 1.373 . S
C21 C22 1.396 . S
C21 C28 1.403 . S
C22 C12 1.476 . S
C22 N17 1.318 . S
C22 C21 1.396 . S
H23 C18 0.929 . S
O24 Mn0 2.385 . S
O24 C2 1.234 . S
O25 Mn0 2.209 . S
O25 Mn1 2.215 . S
O25 C2 1.283 . S
O26 Mn0 2.094 . S
O26 C4 1.240 . S
O27 Mn1 2.117 . S
O27 C4 1.264 . S
C28 C21 1.403 . S
C28 C29 1.399 . S
C28 H34 0.929 . S
C29 C9 1.449 . S
C29 C28 1.399 . S
C29 H35 0.930 . S
H30 C10 0.931 . S
H31 C11 0.930 . S
H32 C19 0.931 . S
H33 C20 0.929 . S
H34 C28 0.929 . S
H35 C29 0.930 . S
Mn36 O41 2.095 . S
Mn36 O51 2.162 . S
Mn36 O52 2.297 . S
Mn36 O60 2.385 . S
Mn36 O61 2.209 . S
Mn36 O62 2.094 . S
Mn37 O42 2.121 . S
Mn37 N44 2.257 . S
Mn37 N53 2.282 1_455 S
Mn37 O61 2.215 . S
Mn37 O63 2.117 . S
C38 O60 1.234 . S
C38 O61 1.283 . S
C39 O51 1.281 . S
C39 O52 1.236 . S
C40 O62 1.240 . S
C40 O63 1.264 . S
O41 Mn36 2.095 . S
O41 C50 1.250 . S
O42 Mn37 2.121 . S
O42 C50 1.258 . S
C43 N44 1.326 . S
C43 C47 1.460 1_455 S
C43 H49 0.929 . S
N44 Mn37 2.257 . S
N44 C43 1.326 . S
N44 C48 1.362 1_455 S
C45 C46 1.258 . S
C45 C48 1.431 . S
C45 C65 1.449 . S
C46 C45 1.258 . S
C46 C47 1.477 . S
C46 H66 0.931 . S
C47 C43 1.460 1_655 S
C47 C46 1.477 . S
C47 H67 0.930 1_655 S
C48 N44 1.362 1_655 S
C48 C45 1.431 . S
C48 C58 1.476 . S
H49 C43 0.929 . S
C50 O41 1.250 . S
C50 O42 1.258 . S
O51 Mn36 2.162 . S
O51 C39 1.281 . S
O52 Mn36 2.297 . S
O52 C39 1.236 . S
N53 Mn37 2.282 1_655 S
N53 C54 1.328 . S
N53 C58 1.318 . S
C54 N53 1.328 . S
C54 C55 1.457 . S
C54 H59 0.929 . S
C55 C54 1.457 . S
C55 C56 1.291 . S
C55 H68 0.931 . S
C56 C55 1.291 . S
C56 C57 1.373 . S
C56 H69 0.929 . S
C57 C56 1.373 . S
C57 C58 1.396 . S
C57 C64 1.403 . S
C58 C48 1.476 . S
C58 N53 1.318 . S
C58 C57 1.396 . S
H59 C54 0.929 . S
O60 Mn36 2.385 . S
O60 C38 1.234 . S
O61 Mn36 2.209 . S
O61 Mn37 2.215 . S
O61 C38 1.283 . S
O62 Mn36 2.094 . S
O62 C40 1.240 . S
O63 Mn37 2.117 . S
O63 C40 1.264 . S
C64 C57 1.403 . S
C64 C65 1.399 . S
C64 H70 0.929 . S
C65 C45 1.449 . S
C65 C64 1.399 . S
C65 H71 0.930 . S
H66 C46 0.931 . S
H67 C47 0.930 1_455 S
H68 C55 0.931 . S
H69 C56 0.929 . S
H70 C64 0.929 . S
H71 C65 0.930 . S
Mn72 O77 2.095 . S
Mn72 O87 2.162 . S
Mn72 O88 2.297 . S
Mn72 O96 2.385 . S
Mn72 O97 2.209 . S
Mn72 O98 2.094 . S
Mn73 O78 2.121 . S
Mn73 N80 2.257 . S
Mn73 N89 2.282 1_545 S
Mn73 O97 2.215 . S
Mn73 O99 2.117 . S
C74 O96 1.234 . S
C74 O97 1.283 . S
C75 O87 1.281 . S
C75 O88 1.236 . S
C76 O98 1.240 . S
C76 O99 1.264 . S
O77 Mn72 2.095 . S
O77 C86 1.250 . S
O78 Mn73 2.121 . S
O78 C86 1.258 . S
C79 N80 1.326 . S
C79 C83 1.460 1_545 S
C79 H85 0.929 . S
N80 Mn73 2.257 . S
N80 C79 1.326 . S
N80 C84 1.362 1_545 S
C81 C82 1.258 . S
C81 C84 1.431 . S
C81 C101 1.449 . S
C82 C81 1.258 . S
C82 C83 1.477 . S
C82 H102 0.931 1_556 S
C83 C79 1.460 1_565 S
C83 C82 1.477 . S
C83 H103 0.930 1_565 S
C84 N80 1.362 1_565 S
C84 C81 1.431 . S
C84 C94 1.476 . S
H85 C79 0.929 . S
C86 O77 1.250 . S
C86 O78 1.258 . S
O87 Mn72 2.162 . S
O87 C75 1.281 . S
O88 Mn72 2.297 . S
O88 C75 1.236 . S
N89 Mn73 2.282 1_565 S
N89 C90 1.328 . S
N89 C94 1.318 . S
C90 N89 1.328 . S
C90 C91 1.457 . S
C90 H95 0.929 . S
C91 C90 1.457 . S
C91 C92 1.291 . S
C91 H104 0.931 . S
C92 C91 1.291 . S
C92 C93 1.373 . S
C92 H105 0.929 . S
C93 C92 1.373 . S
C93 C94 1.396 . S
C93 C100 1.403 . S
C94 C84 1.476 . S
C94 N89 1.318 . S
C94 C93 1.396 . S
H95 C90 0.929 . S
O96 Mn72 2.385 . S
O96 C74 1.234 . S
O97 Mn72 2.209 . S
O97 Mn73 2.215 . S
O97 C74 1.283 . S
O98 Mn72 2.094 . S
O98 C76 1.240 . S
O99 Mn73 2.117 . S
O99 C76 1.264 . S
C100 C93 1.403 . S
C100 C101 1.399 . S
C100 H106 0.929 . S
C101 C81 1.449 . S
C101 C100 1.399 . S
C101 H107 0.930 1_556 S
H102 C82 0.931 1_554 S
H103 C83 0.930 1_545 S
H104 C91 0.931 . S
H105 C92 0.929 . S
H106 C100 0.929 . S
H107 C101 0.930 1_554 S
Mn108 O113 2.095 . S
Mn108 O123 2.162 . S
Mn108 O124 2.297 1_556 S
Mn108 O132 2.385 1_556 S
Mn108 O133 2.209 1_556 S
Mn108 O134 2.094 . S
Mn109 O114 2.121 . S
Mn109 N116 2.257 1_556 S
Mn109 N125 2.282 . S
Mn109 O133 2.215 1_556 S
Mn109 O135 2.117 . S
C110 O132 1.234 . S
C110 O133 1.283 . S
C111 O123 1.281 . S
C111 O124 1.236 1_556 S
C112 O134 1.240 . S
C112 O135 1.264 . S
O113 Mn108 2.095 . S
O113 C122 1.250 . S
O114 Mn109 2.121 . S
O114 C122 1.258 . S
C115 N116 1.326 . S
C115 C119 1.460 . S
C115 H121 0.929 . S
N116 Mn109 2.257 1_554 S
N116 C115 1.326 . S
N116 C120 1.362 . S
C117 C118 1.258 . S
C117 C120 1.431 . S
C117 C137 1.449 . S
C118 C117 1.258 . S
C118 C119 1.477 . S
C118 H138 0.931 . S
C119 C115 1.460 . S
C119 C118 1.477 . S
C119 H139 0.930 . S
C120 N116 1.362 . S
C120 C117 1.431 . S
C120 C130 1.476 . S
H121 C115 0.929 . S
C122 O113 1.250 . S
C122 O114 1.258 . S
O123 Mn108 2.162 . S
O123 C111 1.281 . S
O124 Mn108 2.297 1_554 S
O124 C111 1.236 1_554 S
N125 Mn109 2.282 . S
N125 C126 1.328 . S
N125 C130 1.318 1_556 S
C126 N125 1.328 . S
C126 C127 1.457 . S
C126 H131 0.929 . S
C127 C126 1.457 . S
C127 C128 1.291 1_556 S
C127 H140 0.931 . S
C128 C127 1.291 1_554 S
C128 C129 1.373 . S
C128 H141 0.929 . S
C129 C128 1.373 . S
C129 C130 1.396 . S
C129 C136 1.403 . S
C130 C120 1.476 . S
C130 N125 1.318 1_554 S
C130 C129 1.396 . S
H131 C126 0.929 . S
O132 Mn108 2.385 1_554 S
O132 C110 1.234 . S
O133 Mn108 2.209 1_554 S
O133 Mn109 2.215 1_554 S
O133 C110 1.283 . S
O134 Mn108 2.094 . S
O134 C112 1.240 . S
O135 Mn109 2.117 . S
O135 C112 1.264 . S
C136 C129 1.403 . S
C136 C137 1.399 . S
C136 H142 0.929 . S
C137 C117 1.449 . S
C137 C136 1.399 . S
C137 H143 0.930 . S
H138 C118 0.931 . S
H139 C119 0.930 . S
H140 C127 0.931 . S
H141 C128 0.929 . S
H142 C136 0.929 . S
H143 C137 0.930 . S
Mn144 O149 2.095 . S
Mn144 O159 2.162 . S
Mn144 O160 2.297 . S
Mn144 O168 2.385 . S
Mn144 O169 2.209 . S
Mn144 O170 2.094 1_554 S
Mn145 O150 2.121 . S
Mn145 N152 2.257 . S
Mn145 N161 2.282 1_655 S
Mn145 O169 2.215 . S
Mn145 O171 2.117 . S
C146 O168 1.234 . S
C146 O169 1.283 . S
C147 O159 1.281 . S
C147 O160 1.236 . S
C148 O170 1.240 . S
C148 O171 1.264 1_556 S
O149 Mn144 2.095 . S
O149 C158 1.250 . S
O150 Mn145 2.121 . S
O150 C158 1.258 . S
C151 N152 1.326 . S
C151 C155 1.460 1_655 S
C151 H157 0.929 . S
N152 Mn145 2.257 . S
N152 C151 1.326 . S
N152 C156 1.362 1_655 S
C153 C154 1.258 . S
C153 C156 1.431 . S
C153 C173 1.449 . S
C154 C153 1.258 . S
C154 C155 1.477 . S
C154 H174 0.931 . S
C155 C151 1.460 1_455 S
C155 C154 1.477 . S
C155 H175 0.930 1_455 S
C156 N152 1.362 1_455 S
C156 C153 1.431 . S
C156 C166 1.476 . S
H157 C151 0.929 . S
C158 O149 1.250 . S
C158 O150 1.258 . S
O159 Mn144 2.162 . S
O159 C147 1.281 . S
O160 Mn144 2.297 . S
O160 C147 1.236 . S
N161 Mn145 2.282 1_455 S
N161 C162 1.328 . S
N161 C166 1.318 . S
C162 N161 1.328 . S
C162 C163 1.457 . S
C162 H167 0.929 . S
C163 C162 1.457 . S
C163 C164 1.291 . S
C163 H176 0.931 . S
C164 C163 1.291 . S
C164 C165 1.373 . S
C164 H177 0.929 . S
C165 C164 1.373 . S
C165 C166 1.396 . S
C165 C172 1.403 . S
C166 C156 1.476 . S
C166 N161 1.318 . S
C166 C165 1.396 . S
H167 C162 0.929 . S
O168 Mn144 2.385 . S
O168 C146 1.234 . S
O169 Mn144 2.209 . S
O169 Mn145 2.215 . S
O169 C146 1.283 . S
O170 Mn144 2.094 1_556 S
O170 C148 1.240 . S
O171 Mn145 2.117 . S
O171 C148 1.264 1_554 S
C172 C165 1.403 . S
C172 C173 1.399 . S
C172 H178 0.929 . S
C173 C153 1.449 . S
C173 C172 1.399 . S
C173 H179 0.930 . S
H174 C154 0.931 . S
H175 C155 0.930 1_655 S
H176 C163 0.931 . S
H177 C164 0.929 . S
H178 C172 0.929 . S
H179 C173 0.930 . S
Mn180 O185 2.095 . S
Mn180 O195 2.162 . S
Mn180 O196 2.297 . S
Mn180 O204 2.385 . S
Mn180 O205 2.209 . S
Mn180 O206 2.094 . S
Mn181 O186 2.121 . S
Mn181 N188 2.257 . S
Mn181 N197 2.282 1_565 S
Mn181 O205 2.215 . S
Mn181 O207 2.117 . S
C182 O204 1.234 . S
C182 O205 1.283 . S
C183 O195 1.281 . S
C183 O196 1.236 . S
C184 O206 1.240 . S
C184 O207 1.264 . S
O185 Mn180 2.095 . S
O185 C194 1.250 . S
O186 Mn181 2.121 . S
O186 C194 1.258 . S
C187 N188 1.326 . S
C187 C191 1.460 1_565 S
C187 H193 0.929 . S
N188 Mn181 2.257 . S
N188 C187 1.326 . S
N188 C192 1.362 1_565 S
C189 C190 1.258 . S
C189 C192 1.431 . S
C189 C209 1.449 . S
C190 C189 1.258 . S
C190 C191 1.477 . S
C190 H210 0.931 . S
C191 C187 1.460 1_545 S
C191 C190 1.477 . S
C191 H211 0.930 1_545 S
C192 N188 1.362 1_545 S
C192 C189 1.431 . S
C192 C202 1.476 . S
H193 C187 0.929 . S
C194 O185 1.250 . S
C194 O186 1.258 . S
O195 Mn180 2.162 . S
O195 C183 1.281 . S
O196 Mn180 2.297 . S
O196 C183 1.236 . S
N197 Mn181 2.282 1_545 S
N197 C198 1.328 . S
N197 C202 1.318 . S
C198 N197 1.328 . S
C198 C199 1.457 . S
C198 H203 0.929 . S
C199 C198 1.457 . S
C199 C200 1.291 . S
C199 H212 0.931 . S
C200 C199 1.291 . S
C200 C201 1.373 . S
C200 H213 0.929 . S
C201 C200 1.373 . S
C201 C202 1.396 . S
C201 C208 1.403 . S
C202 C192 1.476 . S
C202 N197 1.318 . S
C202 C201 1.396 . S
H203 C198 0.929 . S
O204 Mn180 2.385 . S
O204 C182 1.234 . S
O205 Mn180 2.209 . S
O205 Mn181 2.215 . S
O205 C182 1.283 . S
O206 Mn180 2.094 . S
O206 C184 1.240 . S
O207 Mn181 2.117 . S
O207 C184 1.264 . S
C208 C201 1.403 . S
C208 C209 1.399 . S
C208 H214 0.929 . S
C209 C189 1.449 . S
C209 C208 1.399 . S
C209 H215 0.930 . S
H210 C190 0.931 . S
H211 C191 0.930 1_565 S
H212 C199 0.931 . S
H213 C200 0.929 . S
H214 C208 0.929 . S
H215 C209 0.930 . S
Mn216 O221 2.095 . S
Mn216 O231 2.162 . S
Mn216 O232 2.297 . S
Mn216 O240 2.385 . S
Mn216 O241 2.209 . S
Mn216 O242 2.094 . S
Mn217 O222 2.121 . S
Mn217 N224 2.257 . S
Mn217 N233 2.282 . S
Mn217 O241 2.215 . S
Mn217 O243 2.117 . S
C218 O240 1.234 . S
C218 O241 1.283 . S
C219 O231 1.281 . S
C219 O232 1.236 . S
C220 O242 1.240 . S
C220 O243 1.264 . S
O221 Mn216 2.095 . S
O221 C230 1.250 . S
O222 Mn217 2.121 . S
O222 C230 1.258 . S
C223 N224 1.326 . S
C223 C227 1.460 . S
C223 H229 0.929 . S
N224 Mn217 2.257 . S
N224 C223 1.326 . S
N224 C228 1.362 . S
C225 C226 1.258 . S
C225 C228 1.431 . S
C225 C245 1.449 . S
C226 C225 1.258 . S
C226 C227 1.477 . S
C226 H246 0.931 . S
C227 C223 1.460 . S
C227 C226 1.477 . S
C227 H247 0.930 . S
C228 N224 1.362 . S
C228 C225 1.431 . S
C228 C238 1.476 . S
H229 C223 0.929 . S
C230 O221 1.250 . S
C230 O222 1.258 . S
O231 Mn216 2.162 . S
O231 C219 1.281 . S
O232 Mn216 2.297 . S
O232 C219 1.236 . S
N233 Mn217 2.282 . S
N233 C234 1.328 . S
N233 C238 1.318 . S
C234 N233 1.328 . S
C234 C235 1.457 . S
C234 H239 0.929 . S
C235 C234 1.457 . S
C235 C236 1.291 . S
C235 H248 0.931 . S
C236 C235 1.291 . S
C236 C237 1.373 . S
C236 H249 0.929 . S
C237 C236 1.373 . S
C237 C238 1.396 . S
C237 C244 1.403 . S
C238 C228 1.476 . S
C238 N233 1.318 . S
C238 C237 1.396 . S
H239 C234 0.929 . S
O240 Mn216 2.385 . S
O240 C218 1.234 . S
O241 Mn216 2.209 . S
O241 Mn217 2.215 . S
O241 C218 1.283 . S
O242 Mn216 2.094 . S
O242 C220 1.240 . S
O243 Mn217 2.117 . S
O243 C220 1.264 . S
C244 C237 1.403 . S
C244 C245 1.399 . S
C244 H250 0.929 . S
C245 C225 1.449 . S
C245 C244 1.399 . S
C245 H251 0.930 . S
H246 C226 0.931 . S
H247 C227 0.930 . S
H248 C235 0.931 . S
H249 C236 0.929 . S
H250 C244 0.929 . S
H251 C245 0.930 . S
Mn252 O257 2.095 . S
Mn252 O267 2.162 . S
Mn252 O268 2.297 . S
Mn252 O276 2.385 . S
Mn252 O277 2.209 . S
Mn252 O278 2.094 . S
Mn253 O258 2.121 . S
Mn253 N260 2.257 . S
Mn253 N269 2.282 1_455 S
Mn253 O277 2.215 . S
Mn253 O279 2.117 . S
C254 O276 1.234 . S
C254 O277 1.283 . S
C255 O267 1.281 . S
C255 O268 1.236 . S
C256 O278 1.240 . S
C256 O279 1.264 . S
O257 Mn252 2.095 . S
O257 C266 1.250 . S
O258 Mn253 2.121 . S
O258 C266 1.258 . S
C259 N260 1.326 . S
C259 C263 1.460 1_455 S
C259 H265 0.929 . S
N260 Mn253 2.257 . S
N260 C259 1.326 . S
N260 C264 1.362 1_455 S
C261 C262 1.258 . S
C261 C264 1.431 . S
C261 C281 1.449 . S
C262 C261 1.258 . S
C262 C263 1.477 . S
C262 H282 0.931 . S
C263 C259 1.460 1_655 S
C263 C262 1.477 . S
C263 H283 0.930 1_655 S
C264 N260 1.362 1_655 S
C264 C261 1.431 . S
C264 C274 1.476 . S
H265 C259 0.929 . S
C266 O257 1.250 . S
C266 O258 1.258 . S
O267 Mn252 2.162 . S
O267 C255 1.281 . S
O268 Mn252 2.297 . S
O268 C255 1.236 . S
N269 Mn253 2.282 1_655 S
N269 C270 1.328 . S
N269 C274 1.318 . S
C270 N269 1.328 . S
C270 C271 1.457 . S
C270 H275 0.929 . S
C271 C270 1.457 . S
C271 C272 1.291 . S
C271 H284 0.931 . S
C272 C271 1.291 . S
C272 C273 1.373 . S
C272 H285 0.929 . S
C273 C272 1.373 . S
C273 C274 1.396 . S
C273 C280 1.403 . S
C274 C264 1.476 . S
C274 N269 1.318 . S
C274 C273 1.396 . S
H275 C270 0.929 . S
O276 Mn252 2.385 . S
O276 C254 1.234 . S
O277 Mn252 2.209 . S
O277 Mn253 2.215 . S
O277 C254 1.283 . S
O278 Mn252 2.094 . S
O278 C256 1.240 . S
O279 Mn253 2.117 . S
O279 C256 1.264 . S
C280 C273 1.403 . S
C280 C281 1.399 . S
C280 H286 0.929 . S
C281 C261 1.449 . S
C281 C280 1.399 . S
C281 H287 0.930 . S
H282 C262 0.931 . S
H283 C263 0.930 1_455 S
H284 C271 0.931 . S
H285 C272 0.929 . S
H286 C280 0.929 . S
H287 C281 0.930 . S
Mn288 O293 2.095 . S
Mn288 O303 2.162 . S
Mn288 O304 2.297 . S
Mn288 O312 2.385 . S
Mn288 O313 2.209 . S
Mn288 O314 2.094 . S
Mn289 O294 2.121 . S
Mn289 N296 2.257 . S
Mn289 N305 2.282 1_545 S
Mn289 O313 2.215 . S
Mn289 O315 2.117 . S
C290 O312 1.234 . S
C290 O313 1.283 . S
C291 O303 1.281 . S
C291 O304 1.236 . S
C292 O314 1.240 . S
C292 O315 1.264 . S
O293 Mn288 2.095 . S
O293 C302 1.250 . S
O294 Mn289 2.121 . S
O294 C302 1.258 . S
C295 N296 1.326 . S
C295 C299 1.460 1_545 S
C295 H301 0.929 . S
N296 Mn289 2.257 . S
N296 C295 1.326 . S
N296 C300 1.362 1_545 S
C297 C298 1.258 . S
C297 C300 1.431 . S
C297 C317 1.449 . S
C298 C297 1.258 . S
C298 C299 1.477 . S
C298 H318 0.931 . S
C299 C295 1.460 1_565 S
C299 C298 1.477 . S
C299 H319 0.930 1_565 S
C300 N296 1.362 1_565 S
C300 C297 1.431 . S
C300 C310 1.476 . S
H301 C295 0.929 . S
C302 O293 1.250 . S
C302 O294 1.258 . S
O303 Mn288 2.162 . S
O303 C291 1.281 . S
O304 Mn288 2.297 . S
O304 C291 1.236 . S
N305 Mn289 2.282 1_565 S
N305 C306 1.328 . S
N305 C310 1.318 . S
C306 N305 1.328 . S
C306 C307 1.457 . S
C306 H311 0.929 . S
C307 C306 1.457 . S
C307 C308 1.291 . S
C307 H320 0.931 . S
C308 C307 1.291 . S
C308 C309 1.373 . S
C308 H321 0.929 . S
C309 C308 1.373 . S
C309 C310 1.396 . S
C309 C316 1.403 . S
C310 C300 1.476 . S
C310 N305 1.318 . S
C310 C309 1.396 . S
H311 C306 0.929 . S
O312 Mn288 2.385 . S
O312 C290 1.234 . S
O313 Mn288 2.209 . S
O313 Mn289 2.215 . S
O313 C290 1.283 . S
O314 Mn288 2.094 . S
O314 C292 1.240 . S
O315 Mn289 2.117 . S
O315 C292 1.264 . S
C316 C309 1.403 . S
C316 C317 1.399 . S
C316 H322 0.929 . S
C317 C297 1.449 . S
C317 C316 1.399 . S
C317 H323 0.930 . S
H318 C298 0.931 . S
H319 C299 0.930 1_545 S
H320 C307 0.931 . S
H321 C308 0.929 . S
H322 C316 0.929 . S
H323 C317 0.930 . S
Mn324 O329 2.095 . S
Mn324 O339 2.162 . S
Mn324 O340 2.297 . S
Mn324 O348 2.385 . S
Mn324 O349 2.209 . S
Mn324 O350 2.094 1_556 S
Mn325 O330 2.121 . S
Mn325 N332 2.257 . S
Mn325 N341 2.282 . S
Mn325 O349 2.215 . S
Mn325 O351 2.117 . S
C326 O348 1.234 . S
C326 O349 1.283 . S
C327 O339 1.281 . S
C327 O340 1.236 . S
C328 O350 1.240 . S
C328 O351 1.264 1_554 S
O329 Mn324 2.095 . S
O329 C338 1.250 . S
O330 Mn325 2.121 . S
O330 C338 1.258 . S
C331 N332 1.326 . S
C331 C335 1.460 . S
C331 H337 0.929 . S
N332 Mn325 2.257 . S
N332 C331 1.326 . S
N332 C336 1.362 . S
C333 C334 1.258 . S
C333 C336 1.431 . S
C333 C353 1.449 . S
C334 C333 1.258 . S
C334 C335 1.477 . S
C334 H354 0.931 . S
C335 C331 1.460 . S
C335 C334 1.477 . S
C335 H355 0.930 . S
C336 N332 1.362 . S
C336 C333 1.431 . S
C336 C346 1.476 . S
H337 C331 0.929 . S
C338 O329 1.250 . S
C338 O330 1.258 . S
O339 Mn324 2.162 . S
O339 C327 1.281 . S
O340 Mn324 2.297 . S
O340 C327 1.236 . S
N341 Mn325 2.282 . S
N341 C342 1.328 . S
N341 C346 1.318 . S
C342 N341 1.328 . S
C342 C343 1.457 . S
C342 H347 0.929 . S
C343 C342 1.457 . S
C343 C344 1.291 . S
C343 H356 0.931 . S
C344 C343 1.291 . S
C344 C345 1.373 . S
C344 H357 0.929 . S
C345 C344 1.373 . S
C345 C346 1.396 . S
C345 C352 1.403 . S
C346 C336 1.476 . S
C346 N341 1.318 . S
C346 C345 1.396 . S
H347 C342 0.929 . S
O348 Mn324 2.385 . S
O348 C326 1.234 . S
O349 Mn324 2.209 . S
O349 Mn325 2.215 . S
O349 C326 1.283 . S
O350 Mn324 2.094 1_554 S
O350 C328 1.240 . S
O351 Mn325 2.117 . S
O351 C328 1.264 1_556 S
C352 C345 1.403 . S
C352 C353 1.399 . S
C352 H358 0.929 . S
C353 C333 1.449 . S
C353 C352 1.399 . S
C353 H359 0.930 . S
H354 C334 0.931 . S
H355 C335 0.930 . S
H356 C343 0.931 . S
H357 C344 0.929 . S
H358 C352 0.929 . S
H359 C353 0.930 . S
Mn360 O365 2.095 . S
Mn360 O375 2.162 . S
Mn360 O376 2.297 1_554 S
Mn360 O384 2.385 1_554 S
Mn360 O385 2.209 1_554 S
Mn360 O386 2.094 . S
Mn361 O366 2.121 . S
Mn361 N368 2.257 1_554 S
Mn361 N377 2.282 1_655 S
Mn361 O385 2.215 1_554 S
Mn361 O387 2.117 . S
C362 O384 1.234 . S
C362 O385 1.283 . S
C363 O375 1.281 . S
C363 O376 1.236 1_554 S
C364 O386 1.240 . S
C364 O387 1.264 . S
O365 Mn360 2.095 . S
O365 C374 1.250 . S
O366 Mn361 2.121 . S
O366 C374 1.258 . S
C367 N368 1.326 . S
C367 C371 1.460 1_655 S
C367 H373 0.929 . S
N368 Mn361 2.257 1_556 S
N368 C367 1.326 . S
N368 C372 1.362 1_655 S
C369 C370 1.258 . S
C369 C372 1.431 . S
C369 C389 1.449 . S
C370 C369 1.258 . S
C370 C371 1.477 . S
C370 H390 0.931 . S
C371 C367 1.460 1_455 S
C371 C370 1.477 . S
C371 H391 0.930 1_455 S
C372 N368 1.362 1_455 S
C372 C369 1.431 . S
C372 C382 1.476 . S
H373 C367 0.929 . S
C374 O365 1.250 . S
C374 O366 1.258 . S
O375 Mn360 2.162 . S
O375 C363 1.281 . S
O376 Mn360 2.297 1_556 S
O376 C363 1.236 1_556 S
N377 Mn361 2.282 1_455 S
N377 C378 1.328 . S
N377 C382 1.318 1_554 S
C378 N377 1.328 . S
C378 C379 1.457 . S
C378 H383 0.929 . S
C379 C378 1.457 . S
C379 C380 1.291 1_554 S
C379 H392 0.931 . S
C380 C379 1.291 1_556 S
C380 C381 1.373 . S
C380 H393 0.929 . S
C381 C380 1.373 . S
C381 C382 1.396 . S
C381 C388 1.403 . S
C382 C372 1.476 . S
C382 N377 1.318 1_556 S
C382 C381 1.396 . S
H383 C378 0.929 . S
O384 Mn360 2.385 1_556 S
O384 C362 1.234 . S
O385 Mn360 2.209 1_556 S
O385 Mn361 2.215 1_556 S
O385 C362 1.283 . S
O386 Mn360 2.094 . S
O386 C364 1.240 . S
O387 Mn361 2.117 . S
O387 C364 1.264 . S
C388 C381 1.403 . S
C388 C389 1.399 . S
C388 H394 0.929 . S
C389 C369 1.449 . S
C389 C388 1.399 . S
C389 H395 0.930 . S
H390 C370 0.931 . S
H391 C371 0.930 1_655 S
H392 C379 0.931 . S
H393 C380 0.929 . S
H394 C388 0.929 . S
H395 C389 0.930 . S
Mn396 O401 2.095 . S
Mn396 O411 2.162 . S
Mn396 O412 2.297 . S
Mn396 O420 2.385 . S
Mn396 O421 2.209 . S
Mn396 O422 2.094 . S
Mn397 O402 2.121 . S
Mn397 N404 2.257 . S
Mn397 N413 2.282 1_565 S
Mn397 O421 2.215 . S
Mn397 O423 2.117 . S
C398 O420 1.234 . S
C398 O421 1.283 . S
C399 O411 1.281 . S
C399 O412 1.236 . S
C400 O422 1.240 . S
C400 O423 1.264 . S
O401 Mn396 2.095 . S
O401 C410 1.250 . S
O402 Mn397 2.121 . S
O402 C410 1.258 . S
C403 N404 1.326 . S
C403 C407 1.460 1_565 S
C403 H409 0.929 . S
N404 Mn397 2.257 . S
N404 C403 1.326 . S
N404 C408 1.362 1_565 S
C405 C406 1.258 . S
C405 C408 1.431 . S
C405 C425 1.449 . S
C406 C405 1.258 . S
C406 C407 1.477 . S
C406 H426 0.931 1_554 S
C407 C403 1.460 1_545 S
C407 C406 1.477 . S
C407 H427 0.930 1_545 S
C408 N404 1.362 1_545 S
C408 C405 1.431 . S
C408 C418 1.476 . S
H409 C403 0.929 . S
C410 O401 1.250 . S
C410 O402 1.258 . S
O411 Mn396 2.162 . S
O411 C399 1.281 . S
O412 Mn396 2.297 . S
O412 C399 1.236 . S
N413 Mn397 2.282 1_545 S
N413 C414 1.328 . S
N413 C418 1.318 . S
C414 N413 1.328 . S
C414 C415 1.457 . S
C414 H419 0.929 . S
C415 C414 1.457 . S
C415 C416 1.291 . S
C415 H428 0.931 . S
C416 C415 1.291 . S
C416 C417 1.373 . S
C416 H429 0.929 . S
C417 C416 1.373 . S
C417 C418 1.396 . S
C417 C424 1.403 . S
C418 C408 1.476 . S
C418 N413 1.318 . S
C418 C417 1.396 . S
H419 C414 0.929 . S
O420 Mn396 2.385 . S
O420 C398 1.234 . S
O421 Mn396 2.209 . S
O421 Mn397 2.215 . S
O421 C398 1.283 . S
O422 Mn396 2.094 . S
O422 C400 1.240 . S
O423 Mn397 2.117 . S
O423 C400 1.264 . S
C424 C417 1.403 . S
C424 C425 1.399 . S
C424 H430 0.929 . S
C425 C405 1.449 . S
C425 C424 1.399 . S
C425 H431 0.930 1_554 S
H426 C406 0.931 1_556 S
H427 C407 0.930 1_565 S
H428 C415 0.931 . S
H429 C416 0.929 . S
H430 C424 0.929 . S
H431 C425 0.930 1_556 S
C432 C433 1.387 . S
C432 H436 0.950 . S
C432 C441 1.390 . S
C433 C432 1.387 . S
C433 C435 1.387 . S
H434 C441 0.950 . S
C435 C433 1.387 . S
C435 C437 1.390 . S
C435 H439 0.950 . S
H436 C432 0.950 . S
C437 C435 1.390 . S
C437 C438 1.387 . S
C437 H440 0.950 . S
C438 C437 1.387 . S
C438 C441 1.387 . S
H439 C435 0.950 . S
H440 C437 0.950 . S
C441 C432 1.390 . S
C441 H434 0.950 . S
C441 C438 1.387 . S
C442 C443 1.387 . S
C442 H446 0.950 . S
C442 C451 1.390 1_455 S
C443 C442 1.387 . S
C443 C445 1.387 . S
H444 C451 0.950 . S
C445 C443 1.387 . S
C445 C447 1.390 1_455 S
C445 H449 0.950 . S
H446 C442 0.950 . S
C447 C445 1.390 1_655 S
C447 C448 1.387 . S
C447 H450 0.950 . S
C448 C447 1.387 . S
C448 C451 1.387 . S
H449 C445 0.950 . S
H450 C447 0.950 . S
C451 C442 1.390 1_655 S
C451 H444 0.950 . S
C451 C448 1.387 . S
C452 C453 1.387 . S
C452 H456 0.950 . S
C452 C461 1.390 1_565 S
C453 C452 1.387 . S
C453 C455 1.387 . S
H454 C461 0.950 . S
C455 C453 1.387 . S
C455 C457 1.390 1_565 S
C455 H459 0.950 . S
H456 C452 0.950 . S
C457 C455 1.390 1_545 S
C457 C458 1.387 . S
C457 H460 0.950 . S
C458 C457 1.387 . S
C458 C461 1.387 . S
H459 C455 0.950 . S
H460 C457 0.950 . S
C461 C452 1.390 1_545 S
C461 H454 0.950 . S
C461 C458 1.387 . S
C462 C463 1.387 . S
C462 H466 0.950 . S
C462 C471 1.390 . S
C463 C462 1.387 . S
C463 C465 1.387 . S
H464 C471 0.950 . S
C465 C463 1.387 . S
C465 C467 1.390 . S
C465 H469 0.950 . S
H466 C462 0.950 . S
C467 C465 1.390 . S
C467 C468 1.387 . S
C467 H470 0.950 . S
C468 C467 1.387 . S
C468 C471 1.387 . S
H469 C465 0.950 . S
H470 C467 0.950 . S
C471 C462 1.390 . S
C471 H464 0.950 . S
C471 C468 1.387 . S
C472 C473 1.387 1_655 S
C472 H476 0.950 . S
C472 C481 1.390 . S
C473 C472 1.387 1_455 S
C473 C475 1.387 . S
H474 C481 0.950 . S
C475 C473 1.387 . S
C475 C477 1.390 . S
C475 H479 0.950 . S
H476 C472 0.950 . S
C477 C475 1.390 . S
C477 C478 1.387 1_455 S
C477 H480 0.950 . S
C478 C477 1.387 1_655 S
C478 C481 1.387 . S
H479 C475 0.950 . S
H480 C477 0.950 . S
C481 C472 1.390 . S
C481 H474 0.950 . S
C481 C478 1.387 . S
C482 C483 1.387 . S
C482 H486 0.950 . S
C482 C491 1.390 1_546 S
C483 C482 1.387 . S
C483 C485 1.387 . S
H484 C491 0.950 . S
C485 C483 1.387 . S
C485 C487 1.390 1_546 S
C485 H489 0.950 . S
H486 C482 0.950 . S
C487 C485 1.390 1_564 S
C487 C488 1.387 . S
C487 H490 0.950 . S
C488 C487 1.387 . S
C488 C491 1.387 . S
H489 C485 0.950 . S
H490 C487 0.950 . S
C491 C482 1.390 1_564 S
C491 H484 0.950 . S
C491 C488 1.387 . S
C492 C493 1.387 . S
C492 H496 0.950 . S
C492 C501 1.390 . S
C493 C492 1.387 . S
C493 C495 1.387 . S
H494 C501 0.950 . S
C495 C493 1.387 . S
C495 C497 1.390 . S
C495 H499 0.950 . S
H496 C492 0.950 . S
C497 C495 1.390 . S
C497 C498 1.387 . S
C497 H500 0.950 . S
C498 C497 1.387 . S
C498 C501 1.387 . S
H499 C495 0.950 . S
H500 C497 0.950 . S
C501 C492 1.390 . S
C501 H494 0.950 . S
C501 C498 1.387 . S
C502 C503 1.387 . S
C502 H506 0.950 . S
C502 C511 1.390 . S
C503 C502 1.387 . S
C503 C505 1.387 . S
H504 C511 0.950 . S
C505 C503 1.387 . S
C505 C507 1.390 . S
C505 H509 0.950 . S
H506 C502 0.950 . S
C507 C505 1.390 . S
C507 C508 1.387 . S
C507 H510 0.950 . S
C508 C507 1.387 . S
C508 C511 1.387 . S
H509 C505 0.950 . S
H510 C507 0.950 . S
C511 C502 1.390 . S
C511 H504 0.950 . S
C511 C508 1.387 . S
C512 C513 1.387 . S
C512 H516 0.950 . S
C512 C521 1.390 . S
C513 C512 1.387 . S
C513 C515 1.387 . S
H514 C521 0.950 . S
C515 C513 1.387 . S
C515 C517 1.390 . S
C515 H519 0.950 . S
H516 C512 0.950 . S
C517 C515 1.390 . S
C517 C518 1.387 . S
C517 H520 0.950 . S
C518 C517 1.387 . S
C518 C521 1.387 . S
H519 C515 0.950 . S
H520 C517 0.950 . S
C521 C512 1.390 . S
C521 H514 0.950 . S
C521 C518 1.387 . S
C522 C523 1.387 . S
C522 H526 0.950 1_556 S
C522 C531 1.390 . S
C523 C522 1.387 . S
C523 C525 1.387 . S
H524 C531 0.950 1_554 S
C525 C523 1.387 . S
C525 C527 1.390 . S
C525 H529 0.950 . S
H526 C522 0.950 1_554 S
C527 C525 1.390 . S
C527 C528 1.387 . S
C527 H530 0.950 . S
C528 C527 1.387 . S
C528 C531 1.387 . S
H529 C525 0.950 . S
H530 C527 0.950 . S
C531 C522 1.390 . S
C531 H524 0.950 1_556 S
C531 C528 1.387 . S
C532 C533 1.387 . S
C532 H536 0.950 1_554 S
C532 C541 1.390 . S
C533 C532 1.387 . S
C533 C535 1.387 . S
H534 C541 0.950 1_556 S
C535 C533 1.387 . S
C535 C537 1.390 . S
C535 H539 0.950 . S
H536 C532 0.950 1_556 S
C537 C535 1.390 . S
C537 C538 1.387 . S
C537 H540 0.950 . S
C538 C537 1.387 . S
C538 C541 1.387 . S
H539 C535 0.950 . S
H540 C537 0.950 . S
C541 C532 1.390 . S
C541 H534 0.950 1_554 S
C541 C538 1.387 . S
C542 C543 1.387 . S
C542 H546 0.950 . S
C542 C551 1.390 . S
C543 C542 1.387 . S
C543 C545 1.387 . S
H544 C551 0.950 . S
C545 C543 1.387 . S
C545 C547 1.390 . S
C545 H549 0.950 . S
H546 C542 0.950 . S
C547 C545 1.390 . S
C547 C548 1.387 . S
C547 H550 0.950 . S
C548 C547 1.387 . S
C548 C551 1.387 . S
H549 C545 0.950 . S
H550 C547 0.950 . S
C551 C542 1.390 . S
C551 H544 0.950 . S
C551 C548 1.387 . S
C552 C553 1.387 . S
C552 H556 0.950 . S
C552 C561 1.390 . S
C553 C552 1.387 . S
C553 C555 1.387 . S
H554 C561 0.950 . S
C555 C553 1.387 . S
C555 C557 1.390 . S
C555 H559 0.950 . S
H556 C552 0.950 . S
C557 C555 1.390 . S
C557 C558 1.387 . S
C557 H560 0.950 . S
C558 C557 1.387 . S
C558 C561 1.387 . S
H559 C555 0.950 . S
H560 C557 0.950 . S
C561 C552 1.390 . S
C561 H554 0.950 . S
C561 C558 1.387 . S
C562 C563 1.387 1_455 S
C562 H566 0.950 . S
C562 C571 1.390 . S
C563 C562 1.387 1_655 S
C563 C565 1.387 . S
H564 C571 0.950 . S
C565 C563 1.387 . S
C565 C567 1.390 . S
C565 H569 0.950 . S
H566 C562 0.950 . S
C567 C565 1.390 . S
C567 C568 1.387 1_655 S
C567 H570 0.950 . S
C568 C567 1.387 1_455 S
C568 C571 1.387 . S
H569 C565 0.950 . S
H570 C567 0.950 . S
C571 C562 1.390 . S
C571 H564 0.950 . S
C571 C568 1.387 . S
C572 C573 1.387 . S
C572 H576 0.950 . S
C572 C581 1.390 1_564 S
C573 C572 1.387 . S
C573 C575 1.387 . S
H574 C581 0.950 . S
C575 C573 1.387 . S
C575 C577 1.390 1_564 S
C575 H579 0.950 . S
H576 C572 0.950 . S
C577 C575 1.390 1_546 S
C577 C578 1.387 . S
C577 H580 0.950 . S
C578 C577 1.387 . S
C578 C581 1.387 . S
H579 C575 0.950 . S
H580 C577 0.950 . S
C581 C572 1.390 1_546 S
C581 H574 0.950 . S
C581 C578 1.387 . S
C582 C583 1.387 . S
C582 H586 0.950 . S
C582 C591 1.390 . S
C583 C582 1.387 . S
C583 C585 1.387 . S
H584 C591 0.950 . S
C585 C583 1.387 . S
C585 C587 1.390 . S
C585 H589 0.950 . S
H586 C582 0.950 . S
C587 C585 1.390 . S
C587 C588 1.387 . S
C587 H590 0.950 . S
C588 C587 1.387 . S
C588 C591 1.387 . S
H589 C585 0.950 . S
H590 C587 0.950 . S
C591 C582 1.390 . S
C591 H584 0.950 . S
C591 C588 1.387 . S
C592 C593 1.387 . S
C592 H596 0.950 . S
C592 C601 1.390 1_455 S
C593 C592 1.387 . S
C593 C595 1.387 . S
H594 C601 0.950 . S
C595 C593 1.387 . S
C595 C597 1.390 1_455 S
C595 H599 0.950 . S
H596 C592 0.950 . S
C597 C595 1.390 1_655 S
C597 C598 1.387 . S
C597 H600 0.950 . S
C598 C597 1.387 . S
C598 C601 1.387 . S
H599 C595 0.950 . S
H600 C597 0.950 . S
C601 C592 1.390 1_655 S
C601 H594 0.950 . S
C601 C598 1.387 . S
C602 C603 1.387 . S
C602 H606 0.950 . S
C602 C611 1.390 1_565 S
C603 C602 1.387 . S
C603 C605 1.387 . S
H604 C611 0.950 . S
C605 C603 1.387 . S
C605 C607 1.390 1_565 S
C605 H609 0.950 . S
H606 C602 0.950 . S
C607 C605 1.390 1_545 S
C607 C608 1.387 . S
C607 H610 0.950 . S
C608 C607 1.387 . S
C608 C611 1.387 . S
H609 C605 0.950 . S
H610 C607 0.950 . S
C611 C602 1.390 1_545 S
C611 H604 0.950 . S
C611 C608 1.387 . S
C612 C613 1.387 . S
C612 H616 0.950 . S
C612 C621 1.390 . S
C613 C612 1.387 . S
C613 C615 1.387 . S
H614 C621 0.950 . S
C615 C613 1.387 . S
C615 C617 1.390 . S
C615 H619 0.950 . S
H616 C612 0.950 . S
C617 C615 1.390 . S
C617 C618 1.387 . S
C617 H620 0.950 . S
C618 C617 1.387 . S
C618 C621 1.387 . S
H619 C615 0.950 . S
H620 C617 0.950 . S
C621 C612 1.390 . S
C621 H614 0.950 . S
C621 C618 1.387 . S
C622 C623 1.387 . S
C622 H626 0.950 . S
C622 C631 1.390 . S
C623 C622 1.387 . S
C623 C625 1.387 . S
H624 C631 0.950 . S
C625 C623 1.387 . S
C625 C627 1.390 . S
C625 H629 0.950 . S
H626 C622 0.950 . S
C627 C625 1.390 . S
C627 C628 1.387 . S
C627 H630 0.950 . S
C628 C627 1.387 . S
C628 C631 1.387 . S
H629 C625 0.950 . S
H630 C627 0.950 . S
C631 C622 1.390 . S
C631 H624 0.950 . S
C631 C628 1.387 . S
C632 C633 1.387 . S
C632 H636 0.950 . S
C632 C641 1.390 . S
C633 C632 1.387 . S
C633 C635 1.387 . S
H634 C641 0.950 . S
C635 C633 1.387 . S
C635 C637 1.390 . S
C635 H639 0.950 1_556 S
H636 C632 0.950 . S
C637 C635 1.390 . S
C637 C638 1.387 . S
C637 H640 0.950 . S
C638 C637 1.387 . S
C638 C641 1.387 . S
H639 C635 0.950 1_554 S
H640 C637 0.950 . S
C641 C632 1.390 . S
C641 H634 0.950 . S
C641 C638 1.387 . S
C642 C643 1.387 . S
C642 H646 0.950 . S
C642 C651 1.390 . S
C643 C642 1.387 . S
C643 C645 1.387 . S
H644 C651 0.950 1_556 S
C645 C643 1.387 . S
C645 C647 1.390 . S
C645 H649 0.950 . S
H646 C642 0.950 . S
C647 C645 1.390 . S
C647 C648 1.387 . S
C647 H650 0.950 . S
C648 C647 1.387 . S
C648 C651 1.387 . S
H649 C645 0.950 . S
H650 C647 0.950 . S
C651 C642 1.390 . S
C651 H644 0.950 1_554 S
C651 C648 1.387 . S
C652 C653 1.387 . S
C652 H656 0.950 . S
C652 C661 1.390 . S
C653 C652 1.387 . S
C653 C655 1.387 . S
H654 C661 0.950 . S
C655 C653 1.387 . S
C655 C657 1.390 . S
C655 H659 0.950 . S
H656 C652 0.950 . S
C657 C655 1.390 . S
C657 C658 1.387 . S
C657 H660 0.950 . S
C658 C657 1.387 . S
C658 C661 1.387 . S
H659 C655 0.950 . S
H660 C657 0.950 . S
C661 C652 1.390 . S
C661 H654 0.950 . S
C661 C658 1.387 . S
C662 C663 1.387 . S
C662 H666 0.950 . S
C662 C671 1.390 . S
C663 C662 1.387 . S
C663 C665 1.387 . S
H664 C671 0.950 . S
C665 C663 1.387 . S
C665 C667 1.390 . S
C665 H669 0.950 . S
H666 C662 0.950 . S
C667 C665 1.390 . S
C667 C668 1.387 . S
C667 H670 0.950 . S
C668 C667 1.387 . S
C668 C671 1.387 . S
H669 C665 0.950 . S
H670 C667 0.950 . S
C671 C662 1.390 . S
C671 H664 0.950 . S
C671 C668 1.387 . S
C433 C328 1.458 . S
C438 C4 1.457 . S
C443 C40 1.458 . S
C448 C364 1.458 . S
C453 C400 1.458 . S
C458 C76 1.458 . S
C463 C220 1.458 . S
C468 C112 1.458 . S
C473 C256 1.457 . S
C478 C148 1.456 . S
C483 C292 1.458 . S
C488 C184 1.458 . S
C493 C230 1.424 . S
C498 C14 1.429 . S
C503 C50 1.425 . S
C508 C266 1.429 . S
C513 C302 1.427 . S
C518 C86 1.427 . S
C523 C122 1.425 . S
C528 C338 1.428 . S
C533 C374 1.425 . S
C538 C158 1.429 . S
C543 C194 1.427 . S
C548 C410 1.427 . S
C553 C326 1.492 . S
C558 C2 1.492 . S
C563 C362 1.492 . S
C568 C38 1.492 . S
C573 C398 1.492 . S
C578 C74 1.492 . S
C583 C110 1.492 . S
C588 C218 1.492 . S
C593 C254 1.492 . S
C598 C146 1.492 . S
C603 C182 1.492 . S
C608 C290 1.492 . S
C613 C3 1.312 . S
C618 C291 1.312 . S
C623 C327 1.312 . S
C628 C39 1.312 . S
C633 C363 1.313 1_556 S
C638 C75 1.313 . S
C643 C399 1.312 . S
C648 C111 1.312 1_554 S
C653 C219 1.314 . S
C658 C147 1.314 . S
C663 C255 1.313 . S
C668 C183 1.313 . S
