# Generated by pormake.
# Topology ulh, (4)-cn, num edge types: 1
# Building blocks:
#     Node 0, Type 0, BuildingBlock: QUQFOY_clean_sbu_3, # of connection points: 4
#     Node 1, Type 0, BuildingBlock: QUQFOY_clean_sbu_3, # of connection points: 4
#     Node 2, Type 0, BuildingBlock: QUQFOY_clean_sbu_3, # of connection points: 4
#     Node 3, Type 0, BuildingBlock: QUQFOY_clean_sbu_3, # of connection points: 4
#     Node 4, Type 0, BuildingBlock: QUQFOY_clean_sbu_3, # of connection points: 4
#     Node 5, Type 0, BuildingBlock: QUQFOY_clean_sbu_3, # of connection points: 4
#     Node 6, Type 0, BuildingBlock: QUQFOY_clean_sbu_3, # of connection points: 4
#     Node 7, Type 0, BuildingBlock: QUQFOY_clean_sbu_3, # of connection points: 4
#     Node 8, Type 0, BuildingBlock: QUQFOY_clean_sbu_3, # of connection points: 4
#     Node 9, Type 0, BuildingBlock: QUQFOY_clean_sbu_3, # of connection points: 4
#     Node 10, Type 0, BuildingBlock: QUQFOY_clean_sbu_3, # of connection points: 4
#     Node 11, Type 0, BuildingBlock: QUQFOY_clean_sbu_3, # of connection points: 4
#     Node 12, Type 0, BuildingBlock: QUQFOY_clean_sbu_3, # of connection points: 4
#     Node 13, Type 0, BuildingBlock: QUQFOY_clean_sbu_3, # of connection points: 4
#     Node 14, Type 0, BuildingBlock: QUQFOY_clean_sbu_3, # of connection points: 4
#     Node 15, Type 0, BuildingBlock: QUQFOY_clean_sbu_3, # of connection points: 4
#     Node 16, Type 0, BuildingBlock: QUQFOY_clean_sbu_3, # of connection points: 4
#     Node 17, Type 0, BuildingBlock: QUQFOY_clean_sbu_3, # of connection points: 4
#     Node 18, Type 0, BuildingBlock: QUQFOY_clean_sbu_3, # of connection points: 4
#     Node 19, Type 0, BuildingBlock: QUQFOY_clean_sbu_3, # of connection points: 4
#     Node 20, Type 0, BuildingBlock: QUQFOY_clean_sbu_3, # of connection points: 4
#     Node 21, Type 0, BuildingBlock: QUQFOY_clean_sbu_3, # of connection points: 4
#     Node 22, Type 0, BuildingBlock: QUQFOY_clean_sbu_3, # of connection points: 4
#     Node 23, Type 0, BuildingBlock: QUQFOY_clean_sbu_3, # of connection points: 4
#     Node 24, Type 0, BuildingBlock: QUQFOY_clean_sbu_3, # of connection points: 4
#     Node 25, Type 0, BuildingBlock: QUQFOY_clean_sbu_3, # of connection points: 4
#     Node 26, Type 0, BuildingBlock: QUQFOY_clean_sbu_3, # of connection points: 4
#     Node 27, Type 0, BuildingBlock: QUQFOY_clean_sbu_3, # of connection points: 4
#     Node 28, Type 0, BuildingBlock: QUQFOY_clean_sbu_3, # of connection points: 4
#     Node 29, Type 0, BuildingBlock: QUQFOY_clean_sbu_3, # of connection points: 4
#     Node 30, Type 0, BuildingBlock: QUQFOY_clean_sbu_3, # of connection points: 4
#     Node 31, Type 0, BuildingBlock: QUQFOY_clean_sbu_3, # of connection points: 4
#     Node 32, Type 0, BuildingBlock: QUQFOY_clean_sbu_3, # of connection points: 4
#     Node 33, Type 0, BuildingBlock: QUQFOY_clean_sbu_3, # of connection points: 4
#     Node 34, Type 0, BuildingBlock: QUQFOY_clean_sbu_3, # of connection points: 4
#     Node 35, Type 0, BuildingBlock: QUQFOY_clean_sbu_3, # of connection points: 4
#     Node 36, Type 0, BuildingBlock: QUQFOY_clean_sbu_3, # of connection points: 4
#     Node 37, Type 0, BuildingBlock: QUQFOY_clean_sbu_3, # of connection points: 4
#     Node 38, Type 0, BuildingBlock: QUQFOY_clean_sbu_3, # of connection points: 4
#     Node 39, Type 0, BuildingBlock: QUQFOY_clean_sbu_3, # of connection points: 4
#     Node 40, Type 0, BuildingBlock: QUQFOY_clean_sbu_3, # of connection points: 4
#     Node 41, Type 0, BuildingBlock: QUQFOY_clean_sbu_3, # of connection points: 4
#     Node 42, Type 0, BuildingBlock: QUQFOY_clean_sbu_3, # of connection points: 4
#     Node 43, Type 0, BuildingBlock: QUQFOY_clean_sbu_3, # of connection points: 4
#     Node 44, Type 0, BuildingBlock: QUQFOY_clean_sbu_3, # of connection points: 4
#     Node 45, Type 0, BuildingBlock: QUQFOY_clean_sbu_3, # of connection points: 4
#     Node 46, Type 0, BuildingBlock: QUQFOY_clean_sbu_3, # of connection points: 4
#     Node 47, Type 0, BuildingBlock: QUQFOY_clean_sbu_3, # of connection points: 4
#     Node 48, Type 0, BuildingBlock: QUQFOY_clean_sbu_3, # of connection points: 4
#     Node 49, Type 0, BuildingBlock: QUQFOY_clean_sbu_3, # of connection points: 4
#     Node 50, Type 0, BuildingBlock: QUQFOY_clean_sbu_3, # of connection points: 4
#     Node 51, Type 0, BuildingBlock: QUQFOY_clean_sbu_3, # of connection points: 4
#     Node 52, Type 0, BuildingBlock: QUQFOY_clean_sbu_3, # of connection points: 4
#     Node 53, Type 0, BuildingBlock: QUQFOY_clean_sbu_3, # of connection points: 4
#     Node 54, Type 0, BuildingBlock: QUQFOY_clean_sbu_3, # of connection points: 4
#     Node 55, Type 0, BuildingBlock: QUQFOY_clean_sbu_3, # of connection points: 4
#     Node 56, Type 0, BuildingBlock: QUQFOY_clean_sbu_3, # of connection points: 4
#     Node 57, Type 0, BuildingBlock: QUQFOY_clean_sbu_3, # of connection points: 4
#     Node 58, Type 0, BuildingBlock: QUQFOY_clean_sbu_3, # of connection points: 4
#     Node 59, Type 0, BuildingBlock: QUQFOY_clean_sbu_3, # of connection points: 4
#     Node 60, Type 0, BuildingBlock: QUQFOY_clean_sbu_3, # of connection points: 4
#     Node 61, Type 0, BuildingBlock: QUQFOY_clean_sbu_3, # of connection points: 4
#     Node 62, Type 0, BuildingBlock: QUQFOY_clean_sbu_3, # of connection points: 4
#     Node 63, Type 0, BuildingBlock: QUQFOY_clean_sbu_3, # of connection points: 4
#     Node 64, Type 0, BuildingBlock: QUQFOY_clean_sbu_3, # of connection points: 4
#     Node 65, Type 0, BuildingBlock: QUQFOY_clean_sbu_3, # of connection points: 4
#     Node 66, Type 0, BuildingBlock: QUQFOY_clean_sbu_3, # of connection points: 4
#     Node 67, Type 0, BuildingBlock: QUQFOY_clean_sbu_3, # of connection points: 4
#     Node 68, Type 0, BuildingBlock: QUQFOY_clean_sbu_3, # of connection points: 4
#     Node 69, Type 0, BuildingBlock: QUQFOY_clean_sbu_3, # of connection points: 4
#     Node 70, Type 0, BuildingBlock: QUQFOY_clean_sbu_3, # of connection points: 4
#     Node 71, Type 0, BuildingBlock: QUQFOY_clean_sbu_3, # of connection points: 4
#     Node 72, Type 0, BuildingBlock: QUQFOY_clean_sbu_3, # of connection points: 4
#     Node 73, Type 0, BuildingBlock: QUQFOY_clean_sbu_3, # of connection points: 4
#     Node 74, Type 0, BuildingBlock: QUQFOY_clean_sbu_3, # of connection points: 4
#     Node 75, Type 0, BuildingBlock: QUQFOY_clean_sbu_3, # of connection points: 4
#     Node 76, Type 0, BuildingBlock: QUQFOY_clean_sbu_3, # of connection points: 4
#     Node 77, Type 0, BuildingBlock: QUQFOY_clean_sbu_3, # of connection points: 4
#     Node 78, Type 0, BuildingBlock: QUQFOY_clean_sbu_3, # of connection points: 4
#     Node 79, Type 0, BuildingBlock: QUQFOY_clean_sbu_3, # of connection points: 4
#     Node 80, Type 0, BuildingBlock: QUQFOY_clean_sbu_3, # of connection points: 4
#     Node 81, Type 0, BuildingBlock: QUQFOY_clean_sbu_3, # of connection points: 4
#     Node 82, Type 0, BuildingBlock: QUQFOY_clean_sbu_3, # of connection points: 4
#     Node 83, Type 0, BuildingBlock: QUQFOY_clean_sbu_3, # of connection points: 4
#     Node 84, Type 0, BuildingBlock: QUQFOY_clean_sbu_3, # of connection points: 4
#     Node 85, Type 0, BuildingBlock: QUQFOY_clean_sbu_3, # of connection points: 4
#     Node 86, Type 0, BuildingBlock: QUQFOY_clean_sbu_3, # of connection points: 4
#     Node 87, Type 0, BuildingBlock: QUQFOY_clean_sbu_3, # of connection points: 4
#     Node 88, Type 0, BuildingBlock: QUQFOY_clean_sbu_3, # of connection points: 4
#     Node 89, Type 0, BuildingBlock: QUQFOY_clean_sbu_3, # of connection points: 4
#     Node 90, Type 0, BuildingBlock: QUQFOY_clean_sbu_3, # of connection points: 4
#     Node 91, Type 0, BuildingBlock: QUQFOY_clean_sbu_3, # of connection points: 4
#     Node 92, Type 0, BuildingBlock: QUQFOY_clean_sbu_3, # of connection points: 4
#     Node 93, Type 0, BuildingBlock: QUQFOY_clean_sbu_3, # of connection points: 4
#     Node 94, Type 0, BuildingBlock: QUQFOY_clean_sbu_3, # of connection points: 4
#     Node 95, Type 0, BuildingBlock: QUQFOY_clean_sbu_3, # of connection points: 4
#     Edge 96, Type (0, 0), None
#     Edge 97, Type (0, 0), None
#     Edge 98, Type (0, 0), None
#     Edge 99, Type (0, 0), None
#     Edge 100, Type (0, 0), None
#     Edge 101, Type (0, 0), None
#     Edge 102, Type (0, 0), None
#     Edge 103, Type (0, 0), None
#     Edge 104, Type (0, 0), None
#     Edge 105, Type (0, 0), None
#     Edge 106, Type (0, 0), None
#     Edge 107, Type (0, 0), None
#     Edge 108, Type (0, 0), None
#     Edge 109, Type (0, 0), None
#     Edge 110, Type (0, 0), None
#     Edge 111, Type (0, 0), None
#     Edge 112, Type (0, 0), None
#     Edge 113, Type (0, 0), None
#     Edge 114, Type (0, 0), None
#     Edge 115, Type (0, 0), None
#     Edge 116, Type (0, 0), None
#     Edge 117, Type (0, 0), None
#     Edge 118, Type (0, 0), None
#     Edge 119, Type (0, 0), None
#     Edge 120, Type (0, 0), None
#     Edge 121, Type (0, 0), None
#     Edge 122, Type (0, 0), None
#     Edge 123, Type (0, 0), None
#     Edge 124, Type (0, 0), None
#     Edge 125, Type (0, 0), None
#     Edge 126, Type (0, 0), None
#     Edge 127, Type (0, 0), None
#     Edge 128, Type (0, 0), None
#     Edge 129, Type (0, 0), None
#     Edge 130, Type (0, 0), None
#     Edge 131, Type (0, 0), None
#     Edge 132, Type (0, 0), None
#     Edge 133, Type (0, 0), None
#     Edge 134, Type (0, 0), None
#     Edge 135, Type (0, 0), None
#     Edge 136, Type (0, 0), None
#     Edge 137, Type (0, 0), None
#     Edge 138, Type (0, 0), None
#     Edge 139, Type (0, 0), None
#     Edge 140, Type (0, 0), None
#     Edge 141, Type (0, 0), None
#     Edge 142, Type (0, 0), None
#     Edge 143, Type (0, 0), None
#     Edge 144, Type (0, 0), None
#     Edge 145, Type (0, 0), None
#     Edge 146, Type (0, 0), None
#     Edge 147, Type (0, 0), None
#     Edge 148, Type (0, 0), None
#     Edge 149, Type (0, 0), None
#     Edge 150, Type (0, 0), None
#     Edge 151, Type (0, 0), None
#     Edge 152, Type (0, 0), None
#     Edge 153, Type (0, 0), None
#     Edge 154, Type (0, 0), None
#     Edge 155, Type (0, 0), None
#     Edge 156, Type (0, 0), None
#     Edge 157, Type (0, 0), None
#     Edge 158, Type (0, 0), None
#     Edge 159, Type (0, 0), None
#     Edge 160, Type (0, 0), None
#     Edge 161, Type (0, 0), None
#     Edge 162, Type (0, 0), None
#     Edge 163, Type (0, 0), None
#     Edge 164, Type (0, 0), None
#     Edge 165, Type (0, 0), None
#     Edge 166, Type (0, 0), None
#     Edge 167, Type (0, 0), None
#     Edge 168, Type (0, 0), None
#     Edge 169, Type (0, 0), None
#     Edge 170, Type (0, 0), None
#     Edge 171, Type (0, 0), None
#     Edge 172, Type (0, 0), None
#     Edge 173, Type (0, 0), None
#     Edge 174, Type (0, 0), None
#     Edge 175, Type (0, 0), None
#     Edge 176, Type (0, 0), None
#     Edge 177, Type (0, 0), None
#     Edge 178, Type (0, 0), None
#     Edge 179, Type (0, 0), None
#     Edge 180, Type (0, 0), None
#     Edge 181, Type (0, 0), None
#     Edge 182, Type (0, 0), None
#     Edge 183, Type (0, 0), None
#     Edge 184, Type (0, 0), None
#     Edge 185, Type (0, 0), None
#     Edge 186, Type (0, 0), None
#     Edge 187, Type (0, 0), None
#     Edge 188, Type (0, 0), None
#     Edge 189, Type (0, 0), None
#     Edge 190, Type (0, 0), None
#     Edge 191, Type (0, 0), None
#     Edge 192, Type (0, 0), None
#     Edge 193, Type (0, 0), None
#     Edge 194, Type (0, 0), None
#     Edge 195, Type (0, 0), None
#     Edge 196, Type (0, 0), None
#     Edge 197, Type (0, 0), None
#     Edge 198, Type (0, 0), None
#     Edge 199, Type (0, 0), None
#     Edge 200, Type (0, 0), None
#     Edge 201, Type (0, 0), None
#     Edge 202, Type (0, 0), None
#     Edge 203, Type (0, 0), None
#     Edge 204, Type (0, 0), None
#     Edge 205, Type (0, 0), None
#     Edge 206, Type (0, 0), None
#     Edge 207, Type (0, 0), None
#     Edge 208, Type (0, 0), None
#     Edge 209, Type (0, 0), None
#     Edge 210, Type (0, 0), None
#     Edge 211, Type (0, 0), None
#     Edge 212, Type (0, 0), None
#     Edge 213, Type (0, 0), None
#     Edge 214, Type (0, 0), None
#     Edge 215, Type (0, 0), None
#     Edge 216, Type (0, 0), None
#     Edge 217, Type (0, 0), None
#     Edge 218, Type (0, 0), None
#     Edge 219, Type (0, 0), None
#     Edge 220, Type (0, 0), None
#     Edge 221, Type (0, 0), None
#     Edge 222, Type (0, 0), None
#     Edge 223, Type (0, 0), None
#     Edge 224, Type (0, 0), None
#     Edge 225, Type (0, 0), None
#     Edge 226, Type (0, 0), None
#     Edge 227, Type (0, 0), None
#     Edge 228, Type (0, 0), None
#     Edge 229, Type (0, 0), None
#     Edge 230, Type (0, 0), None
#     Edge 231, Type (0, 0), None
#     Edge 232, Type (0, 0), None
#     Edge 233, Type (0, 0), None
#     Edge 234, Type (0, 0), None
#     Edge 235, Type (0, 0), None
#     Edge 236, Type (0, 0), None
#     Edge 237, Type (0, 0), None
#     Edge 238, Type (0, 0), None
#     Edge 239, Type (0, 0), None
#     Edge 240, Type (0, 0), None
#     Edge 241, Type (0, 0), None
#     Edge 242, Type (0, 0), None
#     Edge 243, Type (0, 0), None
#     Edge 244, Type (0, 0), None
#     Edge 245, Type (0, 0), None
#     Edge 246, Type (0, 0), None
#     Edge 247, Type (0, 0), None
#     Edge 248, Type (0, 0), None
#     Edge 249, Type (0, 0), None
#     Edge 250, Type (0, 0), None
#     Edge 251, Type (0, 0), None
#     Edge 252, Type (0, 0), None
#     Edge 253, Type (0, 0), None
#     Edge 254, Type (0, 0), None
#     Edge 255, Type (0, 0), None
#     Edge 256, Type (0, 0), None
#     Edge 257, Type (0, 0), None
#     Edge 258, Type (0, 0), None
#     Edge 259, Type (0, 0), None
#     Edge 260, Type (0, 0), None
#     Edge 261, Type (0, 0), None
#     Edge 262, Type (0, 0), None
#     Edge 263, Type (0, 0), None
#     Edge 264, Type (0, 0), None
#     Edge 265, Type (0, 0), None
#     Edge 266, Type (0, 0), None
#     Edge 267, Type (0, 0), None
#     Edge 268, Type (0, 0), None
#     Edge 269, Type (0, 0), None
#     Edge 270, Type (0, 0), None
#     Edge 271, Type (0, 0), None
#     Edge 272, Type (0, 0), None
#     Edge 273, Type (0, 0), None
#     Edge 274, Type (0, 0), None
#     Edge 275, Type (0, 0), None
#     Edge 276, Type (0, 0), None
#     Edge 277, Type (0, 0), None
#     Edge 278, Type (0, 0), None
#     Edge 279, Type (0, 0), None
#     Edge 280, Type (0, 0), None
#     Edge 281, Type (0, 0), None
#     Edge 282, Type (0, 0), None
#     Edge 283, Type (0, 0), None
#     Edge 284, Type (0, 0), None
#     Edge 285, Type (0, 0), None
#     Edge 286, Type (0, 0), None
#     Edge 287, Type (0, 0), None
# Relax obj value: 0.193
# Max RMSD: 0.236
# Mean RMSD: 0.236
data_MOF--net-ulh--node1-QUQFOY_clean_sbu_3--edge1-none
_symmetry_space_group_name_H-M    P1
_symmetry_Int_Tables_number       1
_symmetry_cell_setting            triclinic
loop_
_symmetry_equiv_pos_as_xyz
'x, y, z'
_cell_length_a     37.822787
_cell_length_b     37.821008
_cell_length_c     37.817622
_cell_angle_alpha  90.006739
_cell_angle_beta   90.011636
_cell_angle_gamma 89.999305
loop_
_atom_site_label
_atom_site_type_symbol
_atom_site_fract_x
_atom_site_fract_y
_atom_site_fract_z
_atom_type_partial_charge
C0 C 0.02453 0.36936 0.12054 0.0
O1 O 0.00124 0.37656 0.09745 0.0
Cd2 Cd 0.00331 0.3518 0.03983 0.0
O3 O 0.04439 0.34231 0.11691 0.0
Cd4 Cd 0.04752 0.2894 0.07582 0.0
C5 C 0.09687 0.34767 0.03487 0.0
O6 O 0.99224 0.29165 0.04305 0.0
O7 O 0.03778 0.27302 0.01423 0.0
O8 O 0.02422 0.25989 0.12583 0.0
C9 C 0.00465 0.27806 0.01507 0.0
O10 O 0.06609 0.35891 0.02683 0.0
C11 C 0.03341 0.22873 0.11762 0.0
O12 O 0.10097 0.32138 0.05577 0.0
O13 O 0.05467 0.22552 0.09171 0.0
C14 C 0.87553 0.26913 0.36857 0.0
O15 O 0.86824 0.24604 0.34535 0.0
Cd16 Cd 0.89118 0.25096 0.2874 0.0
O17 O 0.90127 0.29043 0.364 0.0
Cd18 Cd 0.95185 0.2991 0.32129 0.0
C19 C 0.88816 0.34445 0.28265 0.0
O20 O 0.95198 0.24281 0.29086 0.0
O21 O 0.96703 0.28784 0.25934 0.0
O22 O 0.98307 0.28678 0.37517 0.0
C23 C 0.96422 0.25453 0.262 0.0
O24 O 0.87843 0.3131 0.27491 0.0
C25 C 0.01414 0.28955 0.36301 0.0
O26 O 0.91542 0.35006 0.30194 0.0
O27 O 0.01672 0.30377 0.33269 0.0
C28 C 0.97244 0.12811 0.61807 0.0
O29 O 0.99538 0.12086 0.59468 0.0
Cd30 Cd 0.99129 0.14414 0.53659 0.0
O31 O 0.95164 0.15438 0.61402 0.0
Cd32 Cd 0.94579 0.20568 0.57141 0.0
C33 C 0.89792 0.14396 0.53284 0.0
O34 O 0.00076 0.20474 0.53843 0.0
O35 O 0.95465 0.22123 0.50916 0.0
O36 O 0.96873 0.23676 0.62069 0.0
C37 C 0.98795 0.21742 0.51021 0.0
O38 O 0.92884 0.1336 0.52423 0.0
C39 C 0.95786 0.26737 0.61246 0.0
O40 O 0.89346 0.17069 0.55311 0.0
O41 O 0.93623 0.26943 0.58672 0.0
C42 C 0.11733 0.22585 0.85795 0.0
O43 O 0.12407 0.24754 0.83327 0.0
Cd44 Cd 0.09716 0.24127 0.77732 0.0
O45 O 0.09081 0.20511 0.8557 0.0
Cd46 Cd 0.03759 0.19492 0.81616 0.0
C47 C 0.09681 0.14725 0.77496 0.0
O48 O 0.03723 0.25116 0.78592 0.0
O49 O 0.019 0.20692 0.75505 0.0
O50 O 0.01106 0.20267 0.87322 0.0
C51 C 0.02315 0.24012 0.75764 0.0
O52 O 0.10702 0.17826 0.7665 0.0
C53 C 0.97933 0.20559 0.863 0.0
O54 O 0.07034 0.14255 0.79548 0.0
O55 O 0.97333 0.19567 0.83153 0.0
C56 C 0.02435 0.62756 0.8717 0.0
O57 O 0.00092 0.62151 0.89495 0.0
Cd58 Cd 0.00557 0.64663 0.95244 0.0
O59 O 0.04615 0.65297 0.87566 0.0
Cd60 Cd 0.05552 0.70463 0.91658 0.0
C61 C 0.09848 0.63943 0.95645 0.0
O62 O 0.0001 0.70799 0.94845 0.0
O63 O 0.04644 0.72453 0.97746 0.0
O64 O 0.03727 0.73265 0.86341 0.0
C65 C 0.01302 0.72226 0.97591 0.0
O66 O 0.06697 0.63136 0.96533 0.0
C67 C 0.04616 0.76392 0.87144 0.0
O68 O 0.10475 0.66579 0.93612 0.0
O69 O 0.06528 0.76754 0.89891 0.0
C70 C 0.61519 0.26989 0.13831 0.0
O71 O 0.62163 0.24759 0.16254 0.0
Cd72 Cd 0.59408 0.25241 0.21831 0.0
O73 O 0.58846 0.29036 0.14063 0.0
Cd74 Cd 0.53434 0.29817 0.17987 0.0
C75 C 0.5917 0.34636 0.22211 0.0
O76 O 0.53443 0.24148 0.20942 0.0
O77 O 0.51567 0.28514 0.24077 0.0
O78 O 0.50875 0.28921 0.12296 0.0
C79 C 0.52023 0.25203 0.23782 0.0
O80 O 0.60244 0.3154 0.23008 0.0
C81 C 0.47675 0.28734 0.13254 0.0
O82 O 0.56535 0.35093 0.20143 0.0
O83 O 0.47018 0.2981 0.16363 0.0
C84 C 0.96941 0.86738 0.37781 0.0
O85 O 0.99217 0.87421 0.40152 0.0
Cd86 Cd 0.98749 0.84791 0.45829 0.0
O87 O 0.94855 0.84112 0.38127 0.0
Cd88 Cd 0.93959 0.78877 0.42171 0.0
C89 C 0.89395 0.85028 0.46256 0.0
O90 O 0.9957 0.78705 0.45277 0.0
O91 O 0.95036 0.76981 0.48277 0.0
O92 O 0.9514 0.76133 0.3658 0.0
C93 C 0.98369 0.77295 0.4807 0.0
O94 O 0.92527 0.85971 0.47077 0.0
C95 C 0.94894 0.72951 0.37585 0.0
O96 O 0.8884 0.82383 0.44219 0.0
O97 O 0.93532 0.72478 0.40618 0.0
C98 C 0.37796 0.22386 0.63555 0.0
O99 O 0.37101 0.24571 0.66004 0.0
Cd100 Cd 0.39744 0.24035 0.71616 0.0
O101 O 0.40457 0.20324 0.63804 0.0
Cd102 Cd 0.45746 0.19395 0.67835 0.0
C103 C 0.39843 0.14632 0.71956 0.0
O104 O 0.4572 0.25075 0.70751 0.0
O105 O 0.47434 0.20718 0.73982 0.0
O106 O 0.48586 0.2016 0.62206 0.0
C107 C 0.47036 0.24032 0.73643 0.0
O108 O 0.38803 0.17739 0.72759 0.0
C109 C 0.51738 0.20312 0.63319 0.0
O110 O 0.42501 0.14152 0.69922 0.0
O111 O 0.52204 0.19296 0.66481 0.0
C112 C 0.11443 0.01934 0.36522 0.0
O113 O 0.09063 0.99639 0.37093 0.0
Cd114 Cd 0.03373 0.00124 0.34538 0.0
O115 O 0.11161 0.0408 0.33934 0.0
Cd116 Cd 0.07102 0.04783 0.28657 0.0
C117 C 0.0299 0.09448 0.34734 0.0
O118 O 0.03915 0.99226 0.28485 0.0
O119 O 0.00936 0.03787 0.26849 0.0
O120 O 0.12294 0.02893 0.25677 0.0
C121 C 0.01095 0.00454 0.27171 0.0
O122 O 0.02071 0.06349 0.35693 0.0
C123 C 0.11518 0.04034 0.22624 0.0
O124 O 0.05115 0.09919 0.32146 0.0
O125 O 0.08795 0.05995 0.22381 0.0
C126 C 0.22242 0.37463 0.61687 0.0
O127 O 0.2443 0.35061 0.62531 0.0
Cd128 Cd 0.2427 0.2931 0.60099 0.0
O129 O 0.20265 0.37113 0.58972 0.0
Cd130 Cd 0.19508 0.32773 0.53935 0.0
C131 C 0.1492 0.28637 0.60086 0.0
O132 O 0.25282 0.29919 0.54068 0.0
O133 O 0.20871 0.26702 0.52446 0.0
O134 O 0.20314 0.37995 0.50344 0.0
C135 C 0.2419 0.27023 0.52791 0.0
O136 O 0.18039 0.27884 0.61131 0.0
C137 C 0.19994 0.36466 0.47379 0.0
O138 O 0.14407 0.30637 0.57407 0.0
O139 O 0.18719 0.33366 0.47469 0.0
C140 C 0.8796 0.47487 0.86505 0.0
O141 O 0.90363 0.49775 0.87011 0.0
Cd142 Cd 0.96025 0.49267 0.84394 0.0
O143 O 0.88188 0.4531 0.83935 0.0
Cd144 Cd 0.92202 0.44529 0.78611 0.0
C145 C 0.96389 0.39952 0.84745 0.0
O146 O 0.95392 0.50081 0.78336 0.0
O147 O 0.98328 0.45495 0.76691 0.0
O148 O 0.86972 0.46354 0.75621 0.0
C149 C 0.98171 0.48833 0.76953 0.0
O150 O 0.97336 0.43062 0.85643 0.0
C151 C 0.87819 0.45321 0.72548 0.0
O152 O 0.94237 0.39448 0.82182 0.0
O153 O 0.90558 0.43382 0.72313 0.0
C154 C 0.76826 0.116 0.11726 0.0
O155 O 0.74534 0.13922 0.1251 0.0
Cd156 Cd 0.74727 0.1974 0.10235 0.0
O157 O 0.78878 0.12038 0.09082 0.0
Cd158 Cd 0.7959 0.16431 0.04075 0.0
C159 C 0.84082 0.20492 0.10307 0.0
O160 O 0.73855 0.19385 0.04177 0.0
O161 O 0.78365 0.22559 0.02744 0.0
O162 O 0.78709 0.11291 0.00383 0.0
C163 C 0.75036 0.22306 0.03037 0.0
O164 O 0.80942 0.21183 0.1133 0.0
C165 C 0.791 0.12862 0.97447 0.0
O166 O 0.84656 0.1853 0.07611 0.0
O167 O 0.80452 0.15927 0.97607 0.0
C168 C 0.11462 0.96676 0.62217 0.0
O169 O 0.09076 0.98902 0.61437 0.0
Cd170 Cd 0.0343 0.98448 0.64099 0.0
O171 O 0.11118 0.94686 0.6492 0.0
Cd172 Cd 0.07054 0.93898 0.70185 0.0
C173 C 0.03038 0.89058 0.64242 0.0
O174 O 0.04054 0.9956 0.70122 0.0
O175 O 0.00934 0.95151 0.71946 0.0
O176 O 0.12642 0.95046 0.72922 0.0
C177 C 0.01229 0.98469 0.7155 0.0
O178 O 0.0226 0.92164 0.63185 0.0
C179 C 0.11568 0.95183 0.76089 0.0
O180 O 0.05035 0.88585 0.66932 0.0
O181 O 0.08504 0.93929 0.76637 0.0
C182 C 0.26939 0.37588 0.87839 0.0
O183 O 0.2474 0.35177 0.87053 0.0
Cd184 Cd 0.25019 0.29433 0.89485 0.0
O185 O 0.28988 0.37245 0.905 0.0
Cd186 Cd 0.299 0.32921 0.95526 0.0
C187 C 0.34374 0.28776 0.89312 0.0
O188 O 0.24125 0.30059 0.95531 0.0
O189 O 0.28572 0.26853 0.97063 0.0
O190 O 0.29272 0.3817 0.99108 0.0
C191 C 0.25247 0.27159 0.96774 0.0
O192 O 0.31238 0.28017 0.88323 0.0
C193 C 0.29644 0.36648 0.0207 0.0
O194 O 0.3493 0.30782 0.91977 0.0
O195 O 0.30851 0.33523 0.01962 0.0
C196 C 0.88391 0.53333 0.11719 0.0
O197 O 0.90696 0.51009 0.10966 0.0
Cd198 Cd 0.9651 0.51156 0.13439 0.0
O199 O 0.88781 0.55318 0.14416 0.0
Cd200 Cd 0.92846 0.55461 0.19675 0.0
C201 C 0.96776 0.60375 0.13476 0.0
O202 O 0.96355 0.50227 0.19518 0.0
O203 O 0.98982 0.54754 0.21827 0.0
O204 O 0.88765 0.51394 0.21445 0.0
C205 C 0.98989 0.5146 0.21165 0.0
O206 O 0.97827 0.57341 0.12453 0.0
C207 C 0.8821 0.52489 0.24565 0.0
O208 O 0.9463 0.60699 0.16074 0.0
O209 O 0.89571 0.55457 0.25479 0.0
C210 C 0.72126 0.12324 0.37996 0.0
O211 O 0.74312 0.14749 0.37218 0.0
Cd212 Cd 0.73866 0.20477 0.39715 0.0
O213 O 0.70083 0.12658 0.40661 0.0
Cd214 Cd 0.69182 0.16892 0.4578 0.0
C215 C 0.64498 0.20855 0.39615 0.0
O216 O 0.74808 0.19982 0.45779 0.0
O217 O 0.70279 0.2304 0.47413 0.0
O218 O 0.70319 0.11499 0.48967 0.0
C219 C 0.73611 0.22815 0.47111 0.0
O220 O 0.67608 0.21685 0.38608 0.0
C221 C 0.70027 0.12769 0.52051 0.0
O222 O 0.64007 0.18854 0.42299 0.0
O223 O 0.68657 0.15826 0.52247 0.0
C224 C 0.37087 0.10693 0.02618 0.0
O225 O 0.37816 0.08318 0.00356 0.0
Cd226 Cd 0.35429 0.02476 0.00695 0.0
O227 O 0.34423 0.10355 0.04655 0.0
Cd228 Cd 0.29173 0.06278 0.04942 0.0
C229 C 0.35466 0.02504 0.09909 0.0
O230 O 0.29346 0.02624 -0.00163 0.0
O231 O 0.26999 0.00113 0.04407 0.0
O232 O 0.2734 0.10187 0.00732 0.0
C233 C 0.27711 0.0001 0.01124 0.0
O234 O 0.3649 0.01346 0.06915 0.0
C235 C 0.24293 0.10912 0.01926 0.0
O236 O 0.32853 0.04643 0.10161 0.0
O237 O 0.23443 0.09688 0.04973 0.0
C238 C 0.86587 0.8757 0.47127 0.0
O239 O 0.87301 0.89889 0.49447 0.0
Cd240 Cd 0.84984 0.95715 0.49056 0.0
O241 O 0.83982 0.88001 0.45029 0.0
Cd242 Cd 0.78864 0.92255 0.44527 0.0
C243 C 0.85117 0.96099 0.39767 0.0
O244 O 0.78904 0.95588 0.49981 0.0
O245 O 0.77158 0.98486 0.45394 0.0
O246 O 0.75995 0.87521 0.47298 0.0
C247 C 0.77567 0.98383 0.48722 0.0
O248 O 0.86135 0.97012 0.42849 0.0
C249 C 0.72942 0.8794 0.45983 0.0
O250 O 0.82451 0.94058 0.39339 0.0
O251 O 0.72618 0.90211 0.43507 0.0
C252 C 0.37363 0.1176 0.72787 0.0
O253 O 0.35027 0.12408 0.75109 0.0
Cd254 Cd 0.29185 0.10159 0.74617 0.0
O255 O 0.3695 0.09218 0.70608 0.0
Cd256 Cd 0.32694 0.0415 0.6979 0.0
C257 C 0.28861 0.10629 0.65305 0.0
O258 O 0.29301 0.0405 0.7523 0.0
O259 O 0.2651 0.02527 0.70486 0.0
O260 O 0.37574 0.00882 0.71987 0.0
C261 C 0.2652 0.02816 0.73827 0.0
O262 O 0.27956 0.11532 0.68426 0.0
C263 C 0.367 0.97885 0.70767 0.0
O264 O 0.30888 0.0797 0.64765 0.0
O265 O 0.34146 0.9782 0.68572 0.0
C266 C 0.12584 0.61307 0.96498 0.0
O267 O 0.11829 0.59007 0.98827 0.0
Cd268 Cd 0.14053 0.53098 0.98551 0.0
O269 O 0.15211 0.60845 0.94436 0.0
Cd270 Cd 0.20348 0.56592 0.94247 0.0
C271 C 0.14022 0.52873 0.89338 0.0
O272 O 0.20132 0.53013 0.99429 0.0
O273 O 0.2232 0.50365 0.94856 0.0
O274 O 0.22284 0.60445 0.98434 0.0
C275 C 0.21673 0.50336 0.98154 0.0
O276 O 0.12969 0.51836 0.92366 0.0
C277 C 0.25372 0.61039 0.97274 0.0
O278 O 0.16681 0.54944 0.89025 0.0
O279 O 0.26199 0.59798 0.94227 0.0
C280 C 0.12855 0.88015 0.21907 0.0
O281 O 0.15229 0.873 0.24168 0.0
Cd282 Cd 0.20885 0.89949 0.23745 0.0
O283 O 0.13205 0.90665 0.19848 0.0
Cd284 Cd 0.17303 0.9589 0.1892 0.0
C285 C 0.21451 0.89911 0.14341 0.0
O286 O 0.20251 0.96003 0.24626 0.0
O287 O 0.23424 0.97601 0.20168 0.0
O288 O 0.11666 0.98863 0.19439 0.0
C289 C 0.23116 0.97323 0.23496 0.0
O290 O 0.22146 0.88924 0.17491 0.0
C291 C 0.12874 0.01977 0.19646 0.0
O292 O 0.19461 0.92579 0.13748 0.0
O293 O 0.16082 0.02337 0.18747 0.0
C294 C 0.62004 0.88479 0.02866 0.0
O295 O 0.61224 0.90806 0.00573 0.0
Cd296 Cd 0.63515 0.96677 0.00825 0.0
O297 O 0.64702 0.8887 0.04851 0.0
Cd298 Cd 0.69921 0.93014 0.04965 0.0
C299 C 0.63765 0.96749 0.10065 0.0
O300 O 0.69561 0.96636 -0.00168 0.0
O301 O 0.71875 0.99247 0.04359 0.0
O302 O 0.71841 0.89109 0.00766 0.0
C303 C 0.71111 0.99315 0.01088 0.0
O304 O 0.62649 0.97819 0.0707 0.0
C305 C 0.74937 0.88527 0.01913 0.0
O306 O 0.66411 0.94649 0.10301 0.0
O307 O 0.75779 0.89809 0.04937 0.0
C308 C 0.36393 0.38178 0.77349 0.0
O309 O 0.33982 0.37423 0.75141 0.0
Cd310 Cd 0.28342 0.40093 0.75623 0.0
O311 O 0.3606 0.40848 0.79385 0.0
Cd312 Cd 0.31944 0.46051 0.80373 0.0
C313 C 0.27813 0.40115 0.85022 0.0
O314 O 0.28978 0.4614 0.7468 0.0
O315 O 0.25804 0.47738 0.7914 0.0
O316 O 0.37597 0.49047 0.80046 0.0
C317 C 0.26106 0.47447 0.75811 0.0
O318 O 0.27103 0.39098 0.81885 0.0
C319 C 0.36388 0.52142 0.79653 0.0
O320 O 0.29802 0.4279 0.85579 0.0
O321 O 0.33138 0.52504 0.80376 0.0
C322 C 0.62652 0.1128 0.27627 0.0
O323 O 0.6504 0.12054 0.25401 0.0
Cd324 Cd 0.70745 0.09499 0.25836 0.0
O325 O 0.63036 0.08635 0.29686 0.0
Cd326 Cd 0.67247 0.03527 0.30686 0.0
C327 C 0.71295 0.09744 0.35203 0.0
O328 O 0.70193 0.03422 0.24989 0.0
O329 O 0.73359 0.0181 0.2946 0.0
O330 O 0.61675 0.00456 0.30048 0.0
C331 C 0.73042 0.0207 0.2613 0.0
O332 O 0.72036 0.10706 0.32057 0.0
C333 C 0.62931 0.97354 0.29965 0.0
O334 O 0.69334 0.0705 0.35787 0.0
O335 O 0.66114 0.97065 0.30978 0.0
C336 C 0.02172 0.86181 0.61767 0.0
O337 O -0.00105 0.86877 0.59402 0.0
Cd338 Cd 0.00305 0.84414 0.53668 0.0
O339 O 0.04262 0.83554 0.61403 0.0
Cd340 Cd 0.0503 0.7837 0.57186 0.0
C341 C 0.09696 0.84383 0.53134 0.0
O342 O 0.99369 0.78373 0.54138 0.0
O343 O 0.03883 0.76866 0.50998 0.0
O344 O 0.03938 0.75132 0.6256 0.0
C345 C 0.00552 0.77153 0.5125 0.0
O346 O 0.06568 0.85408 0.52394 0.0
C347 C 0.04321 0.72059 0.61286 0.0
O348 O 0.1023 0.81717 0.55143 0.0
O349 O 0.05658 0.71903 0.58212 0.0
C350 C 0.88104 0.77112 0.86028 0.0
O351 O 0.87515 0.74807 0.83662 0.0
Cd352 Cd 0.90098 0.75286 0.78003 0.0
O353 O 0.90713 0.79233 0.85729 0.0
Cd354 Cd 0.96022 0.79961 0.81655 0.0
C355 C 0.9012 0.84655 0.77492 0.0
O356 O 0.96113 0.74303 0.78626 0.0
O357 O 0.97623 0.7879 0.75468 0.0
O358 O 0.99059 0.78885 0.87135 0.0
C359 C 0.97342 0.75459 0.75735 0.0
O360 O 0.89101 0.81537 0.76712 0.0
C361 C 0.02183 0.79158 0.85961 0.0
O362 O 0.9275 0.8517 0.79554 0.0
O363 O 0.02479 0.80472 0.82887 0.0
C364 C 0.97537 0.63311 0.11036 0.0
O365 O -0.00235 0.6269 0.08606 0.0
Cd366 Cd 0.99238 0.65311 0.02973 0.0
O367 O 0.95446 0.65951 0.10801 0.0
Cd368 Cd 0.94687 0.71268 0.06745 0.0
C369 C 0.89853 0.65492 0.02572 0.0
O370 O 0.00328 0.71292 0.03674 0.0
O371 O 0.95836 0.72863 0.00557 0.0
O372 O 0.95785 0.74305 0.12227 0.0
C373 C 0.99163 0.72522 0.00788 0.0
O374 O 0.9295 0.64439 0.01752 0.0
C375 C 0.95511 0.77427 0.11052 0.0
O376 O 0.89398 0.68102 0.04673 0.0
O377 O 0.94232 0.77723 0.07964 0.0
C378 C 0.11576 0.7257 0.36238 0.0
O379 O 0.12165 0.7486 0.33858 0.0
Cd380 Cd 0.09631 0.74351 0.28166 0.0
O381 O 0.08989 0.70423 0.3594 0.0
Cd382 Cd 0.03713 0.69702 0.31868 0.0
C383 C 0.09771 0.6501 0.27787 0.0
O384 O 0.03594 0.75275 0.28718 0.0
O385 O 0.01968 0.70749 0.25681 0.0
O386 O 0.00824 0.71529 0.37143 0.0
C387 C 0.02299 0.7408 0.25876 0.0
O388 O 0.10742 0.68115 0.26898 0.0
C389 C 0.9771 0.70625 0.36309 0.0
O390 O 0.07166 0.64529 0.29891 0.0
O391 O 0.97373 0.68765 0.33524 0.0
C392 C 0.02134 0.1232 0.37208 0.0
O393 O -0.00221 0.11698 0.39517 0.0
Cd394 Cd 0.00192 0.1415 0.45284 0.0
O395 O 0.04273 0.14898 0.37596 0.0
Cd396 Cd 0.05005 0.20095 0.41693 0.0
C397 C 0.09499 0.13708 0.45645 0.0
O398 O 0.99524 0.20266 0.44998 0.0
O399 O 0.04189 0.21904 0.47846 0.0
O400 O 0.02844 0.23013 0.36574 0.0
C401 C 0.0085 0.21612 0.47763 0.0
O402 O 0.06373 0.12821 0.46543 0.0
C403 C 0.03833 0.26118 0.37356 0.0
O404 O 0.10053 0.16346 0.43594 0.0
O405 O 0.05928 0.26423 0.39975 0.0
C406 C 0.6159 0.76831 0.62487 0.0
O407 O 0.62361 0.7457 0.64843 0.0
Cd408 Cd 0.60041 0.75096 0.70619 0.0
O409 O 0.58991 0.78935 0.62928 0.0
Cd410 Cd 0.53959 0.79881 0.67238 0.0
C411 C 0.60281 0.84461 0.71078 0.0
O412 O 0.5397 0.74218 0.70239 0.0
O413 O 0.52509 0.78696 0.73447 0.0
O414 O 0.50734 0.79072 0.61785 0.0
C415 C 0.52777 0.75364 0.7315 0.0
O416 O 0.61272 0.81328 0.71834 0.0
C417 C 0.47661 0.79031 0.63112 0.0
O418 O 0.57537 0.85016 0.69173 0.0
O419 O 0.47446 0.8014 0.6627 0.0
C420 C 0.97252 0.37118 0.87265 0.0
O421 O 0.99658 0.37749 0.89522 0.0
Cd422 Cd 0.99381 0.35478 0.95408 0.0
O423 O 0.95084 0.34583 0.87745 0.0
Cd424 Cd 0.9454 0.29512 0.92011 0.0
C425 C 0.9017 0.36091 0.95915 0.0
O426 O -0.00118 0.29338 0.9549 0.0
O427 O 0.9512 0.27694 0.98203 0.0
O428 O 0.97689 0.26546 0.87641 0.0
C429 C 0.98463 0.2801 0.98219 0.0
O430 O 0.93292 0.36966 0.96835 0.0
C431 C 0.96055 0.23621 0.8774 0.0
O432 O 0.89617 0.33451 0.93866 0.0
O433 O 0.93256 0.23442 0.89627 0.0
C434 C 0.3799 0.72517 0.13457 0.0
O435 O 0.37279 0.74695 0.15907 0.0
Cd436 Cd 0.39836 0.74107 0.21558 0.0
O437 O 0.40634 0.70437 0.13734 0.0
Cd438 Cd 0.4584 0.69427 0.1786 0.0
C439 C 0.39888 0.64702 0.21935 0.0
O440 O 0.45836 0.75098 0.20817 0.0
O441 O 0.47386 0.70673 0.24047 0.0
O442 O 0.48917 0.69842 0.12266 0.0
C443 C 0.47063 0.73998 0.2373 0.0
O444 O 0.38849 0.67817 0.22707 0.0
C445 C 0.51991 0.70272 0.13518 0.0
O446 O 0.42566 0.64199 0.19933 0.0
O447 O 0.52325 0.69497 0.1676 0.0
C448 C 0.11576 0.52195 0.86389 0.0
O449 O 0.09123 0.49976 0.86953 0.0
Cd450 Cd 0.03492 0.50576 0.84308 0.0
O451 O 0.11371 0.54349 0.83799 0.0
Cd452 Cd 0.0734 0.55295 0.78516 0.0
C453 C 0.03224 0.5991 0.84642 0.0
O454 O 0.04195 0.4971 0.78268 0.0
O455 O 0.01216 0.54286 0.76651 0.0
O456 O 0.12744 0.53928 0.75506 0.0
C457 C 0.01396 0.50949 0.76914 0.0
O458 O 0.02272 0.56808 0.85561 0.0
C459 C 0.11716 0.54682 0.72409 0.0
O460 O 0.05344 0.60394 0.82052 0.0
O461 O 0.08776 0.56289 0.72169 0.0
C462 C 0.22348 0.8736 0.11552 0.0
O463 O 0.24525 0.84945 0.12386 0.0
Cd464 Cd 0.24325 0.79194 0.09968 0.0
O465 O 0.20337 0.87011 0.08862 0.0
Cd466 Cd 0.19476 0.82632 0.03872 0.0
C467 C 0.14982 0.78489 0.10093 0.0
O468 O 0.25289 0.79864 0.03932 0.0
O469 O 0.2091 0.76579 0.02372 0.0
O470 O 0.20041 0.87844 0.00215 0.0
C471 C 0.24228 0.76952 0.02667 0.0
O472 O 0.1811 0.77738 0.1111 0.0
C473 C 0.19761 0.8626 0.97275 0.0
O474 O 0.14444 0.80477 0.0741 0.0
O475 O 0.18591 0.83122 0.9742 0.0
C476 C 0.87582 0.96895 0.36864 0.0
O477 O 0.89968 0.99176 0.37478 0.0
Cd478 Cd 0.95664 0.98849 0.34848 0.0
O479 O 0.8786 0.94791 0.34241 0.0
Cd480 Cd 0.91927 0.94061 0.28988 0.0
C481 C 0.96112 0.8956 0.35236 0.0
O482 O 0.95121 0.99613 0.28757 0.0
O483 O 0.98003 0.95016 0.26994 0.0
O484 O 0.86735 0.96008 0.26047 0.0
C485 C 0.97865 0.98352 0.27306 0.0
O486 O 0.97051 0.92674 0.3613 0.0
C487 C 0.87491 0.94874 0.22986 0.0
O488 O 0.93979 0.89045 0.32658 0.0
O489 O 0.90168 0.92849 0.22736 0.0
C490 C 0.77314 0.62405 0.61452 0.0
O491 O 0.75099 0.64805 0.62225 0.0
Cd492 Cd 0.75476 0.70537 0.59725 0.0
O493 O 0.79348 0.62754 0.58783 0.0
Cd494 Cd 0.80144 0.66993 0.53651 0.0
C495 C 0.84832 0.71001 0.59801 0.0
O496 O 0.7449 0.70031 0.53667 0.0
O497 O 0.78978 0.73132 0.52004 0.0
O498 O 0.78894 0.61626 0.50477 0.0
C499 C 0.75649 0.72866 0.52308 0.0
O500 O 0.81722 0.71818 0.60818 0.0
C501 C 0.79285 0.6286 0.47389 0.0
O502 O 0.85321 0.68993 0.57121 0.0
O503 O 0.80735 0.65881 0.47191 0.0
C504 C 0.12273 0.47075 0.12355 0.0
O505 O 0.09905 0.49311 0.11552 0.0
Cd506 Cd 0.04254 0.49183 0.14197 0.0
O507 O 0.11953 0.45148 0.15108 0.0
Cd508 Cd 0.07832 0.44522 0.20334 0.0
C509 C 0.03486 0.39825 0.14451 0.0
O510 O 0.05031 0.50317 0.20184 0.0
O511 O 0.01799 0.45988 0.21967 0.0
O512 O 0.13255 0.45335 0.23606 0.0
C513 C 0.02146 0.49295 0.21537 0.0
O514 O 0.02777 0.42941 0.13371 0.0
C515 C 0.11878 0.453 0.26661 0.0
O516 O 0.05545 0.39316 0.17087 0.0
O517 O 0.08751 0.441 0.26813 0.0
C518 C 0.27027 0.87641 0.37853 0.0
O519 O 0.24829 0.85227 0.37077 0.0
Cd520 Cd 0.25055 0.79507 0.3958 0.0
O521 O 0.29044 0.87331 0.40544 0.0
Cd522 Cd 0.29866 0.83064 0.45633 0.0
C523 C 0.344 0.78859 0.39465 0.0
O524 O 0.24117 0.80155 0.45618 0.0
O525 O 0.28575 0.77008 0.47237 0.0
O526 O 0.29008 0.8831 0.49172 0.0
C527 C 0.2525 0.77286 0.46921 0.0
O528 O 0.31273 0.78074 0.38471 0.0
C529 C 0.29449 0.86833 0.52149 0.0
O530 O 0.34933 0.80902 0.4211 0.0
O531 O 0.30797 0.83763 0.52069 0.0
C532 C 0.87687 0.02455 0.62599 0.0
O533 O 0.90058 0.00209 0.61831 0.0
Cd534 Cd 0.95773 0.00591 0.64327 0.0
O535 O 0.88066 0.04497 0.6526 0.0
Cd536 Cd 0.92301 0.05347 0.7039 0.0
C537 C 0.96348 0.09978 0.64314 0.0
O538 O 0.95213 0.99628 0.70364 0.0
O539 O 0.98457 0.04069 0.71883 0.0
O540 O 0.86838 0.04643 0.73652 0.0
C541 C 0.98114 0.00742 0.71617 0.0
O542 O 0.97065 0.06844 0.63292 0.0
C543 C 0.88222 0.04522 0.76699 0.0
O544 O 0.9438 0.1053 0.67009 0.0
O545 O 0.91394 0.05594 0.76875 0.0
C546 C 0.72629 0.61813 0.87651 0.0
O547 O 0.74871 0.64179 0.86853 0.0
Cd548 Cd 0.74636 0.69978 0.89179 0.0
O549 O 0.70575 0.62217 0.90299 0.0
Cd550 Cd 0.69717 0.66602 0.95279 0.0
C551 C 0.6529 0.70641 0.88944 0.0
O552 O 0.75452 0.69545 0.95253 0.0
O553 O 0.70941 0.72706 0.96713 0.0
O554 O 0.70478 0.61422 0.98947 0.0
C555 C 0.74272 0.72445 0.96446 0.0
O556 O 0.68432 0.71382 0.87964 0.0
C557 C 0.70111 0.62989 0.01887 0.0
O558 O 0.64711 0.6868 0.9164 0.0
O559 O 0.68809 0.66076 0.01735 0.0
C560 C 0.37293 0.60939 0.52773 0.0
O561 O 0.38013 0.58629 0.50441 0.0
Cd562 Cd 0.35698 0.52754 0.50678 0.0
O563 O 0.34652 0.60528 0.54826 0.0
Cd564 Cd 0.29437 0.56396 0.55033 0.0
C565 C 0.35765 0.52582 0.59892 0.0
O566 O 0.2961 0.52813 0.49867 0.0
O567 O 0.27351 0.50213 0.54432 0.0
O568 O 0.2754 0.60347 0.50903 0.0
C569 C 0.28038 0.50154 0.51143 0.0
O570 O 0.3679 0.51502 0.56868 0.0
C571 C 0.24487 0.61011 0.5212 0.0
O572 O 0.33138 0.54694 0.60204 0.0
O573 O 0.23665 0.59729 0.5515 0.0
C574 C 0.87365 0.38647 0.96767 0.0
O575 O 0.88089 0.41021 0.99032 0.0
Cd576 Cd 0.85696 0.4685 0.98737 0.0
O577 O 0.84669 0.38949 0.94765 0.0
Cd578 Cd 0.79368 0.42968 0.94546 0.0
C579 C 0.85565 0.46793 0.89496 0.0
O580 O 0.79636 0.46662 0.99609 0.0
O581 O 0.77262 0.49157 0.95047 0.0
O582 O 0.7751 0.39088 0.98814 0.0
C583 C 0.78033 0.49291 0.98315 0.0
O584 O 0.86621 0.47933 0.92488 0.0
C585 C 0.74434 0.38419 0.97658 0.0
O586 O 0.82965 0.44634 0.89258 0.0
O587 O 0.73584 0.39636 0.94609 0.0
C588 C 0.37404 0.6184 0.22781 0.0
O589 O 0.35117 0.62475 0.25154 0.0
Cd590 Cd 0.29235 0.60332 0.24624 0.0
O591 O 0.36927 0.59332 0.20577 0.0
Cd592 Cd 0.32632 0.54289 0.19867 0.0
C593 C 0.28951 0.60827 0.15343 0.0
O594 O 0.29151 0.54218 0.25214 0.0
O595 O 0.26362 0.52729 0.20464 0.0
O596 O 0.37205 0.51135 0.22637 0.0
C597 C 0.26356 0.53036 0.23804 0.0
O598 O 0.28033 0.61748 0.18454 0.0
C599 C 0.36693 0.48154 0.21191 0.0
O600 O 0.30942 0.58138 0.14824 0.0
O601 O 0.34479 0.48026 0.18647 0.0
C602 C 0.123 0.11154 0.46526 0.0
O603 O 0.11598 0.08874 0.48891 0.0
Cd604 Cd 0.13867 0.02989 0.48691 0.0
O605 O 0.14926 0.10716 0.44456 0.0
Cd606 Cd 0.20144 0.06561 0.44308 0.0
C607 C 0.13872 0.02696 0.39461 0.0
O608 O 0.19936 0.0305 0.49523 0.0
O609 O 0.22155 0.00357 0.44997 0.0
O610 O 0.2202 0.10525 0.48418 0.0
C611 C 0.21479 0.00358 0.48288 0.0
O612 O 0.1283 0.01686 0.42503 0.0
C613 C 0.25125 0.11085 0.47283 0.0
O614 O 0.16501 0.048 0.39116 0.0
O615 O 0.25984 0.09778 0.44274 0.0
C616 C 0.1256 0.38251 0.7186 0.0
O617 O 0.14891 0.37551 0.74171 0.0
Cd618 Cd 0.20608 0.4009 0.73854 0.0
O619 O 0.12957 0.40879 0.69779 0.0
Cd620 Cd 0.17153 0.46064 0.6898 0.0
C621 C 0.21305 0.40007 0.6447 0.0
O622 O 0.20092 0.46153 0.747 0.0
O623 O 0.23283 0.47695 0.70227 0.0
O624 O 0.11652 0.49203 0.69756 0.0
C625 C 0.22971 0.47436 0.73556 0.0
O626 O 0.21977 0.39024 0.67627 0.0
C627 C 0.12929 0.52295 0.69621 0.0
O628 O 0.19317 0.42673 0.63857 0.0
O629 O 0.16076 0.52522 0.68484 0.0
C630 C 0.62538 0.37966 0.5256 0.0
O631 O 0.61839 0.4029 0.50242 0.0
Cd632 Cd 0.64275 0.46063 0.50611 0.0
O633 O 0.65176 0.38355 0.54626 0.0
Cd634 Cd 0.70403 0.42506 0.55051 0.0
C635 C 0.64319 0.464 0.59918 0.0
O636 O 0.70317 0.45774 0.49554 0.0
O637 O 0.72194 0.48694 0.5408 0.0
O638 O 0.73003 0.37587 0.5237 0.0
C639 C 0.71739 0.48552 0.50759 0.0
O640 O 0.63263 0.47319 0.56851 0.0
C641 C 0.76146 0.38029 0.5344 0.0
O642 O 0.66974 0.4434 0.60308 0.0
O643 O 0.76661 0.40391 0.55794 0.0
C644 C 0.36632 0.88219 0.27546 0.0
O645 O 0.34267 0.87472 0.25285 0.0
Cd646 Cd 0.28564 0.90027 0.25621 0.0
O647 O 0.36262 0.90888 0.29581 0.0
Cd648 Cd 0.32064 0.96083 0.30362 0.0
C649 C 0.27935 0.90134 0.35016 0.0
O650 O 0.29127 0.96065 0.24641 0.0
O651 O 0.25925 0.97672 0.29082 0.0
O652 O 0.3759 0.9922 0.29688 0.0
C653 C 0.26245 0.9736 0.25758 0.0
O654 O 0.2725 0.89087 0.31882 0.0
C655 C 0.36297 0.02307 0.29624 0.0
O656 O 0.2992 0.92816 0.35566 0.0
O657 O 0.33109 0.02558 0.30626 0.0
C658 C 0.63019 0.61063 0.77206 0.0
O659 O 0.65419 0.61789 0.74978 0.0
Cd660 Cd 0.71096 0.59243 0.75455 0.0
O661 O 0.63367 0.58431 0.7929 0.0
Cd662 Cd 0.67576 0.53288 0.8026 0.0
C663 C 0.71713 0.5928 0.8485 0.0
O664 O 0.70468 0.53211 0.74532 0.0
O665 O 0.73752 0.5179 0.78966 0.0
O666 O 0.62048 0.50052 0.79892 0.0
C667 C 0.73398 0.52027 0.75637 0.0
O668 O 0.72397 0.60281 0.81703 0.0
C669 C 0.63397 0.46999 0.79649 0.0
O670 O 0.69726 0.56609 0.85435 0.0
O671 O 0.66641 0.46802 0.80461 0.0
C672 C 0.5256 0.36839 0.61968 0.0
O673 O 0.50201 0.37482 0.59666 0.0
Cd674 Cd 0.50464 0.35004 0.5387 0.0
O675 O 0.54672 0.34242 0.6157 0.0
Cd676 Cd 0.55226 0.2905 0.57442 0.0
C677 C 0.59721 0.35426 0.53419 0.0
O678 O 0.498 0.28878 0.54073 0.0
O679 O 0.54469 0.27077 0.51311 0.0
O680 O 0.52397 0.26303 0.62204 0.0
C681 C 0.51133 0.2743 0.51361 0.0
O682 O 0.56608 0.36317 0.5248 0.0
C683 C 0.538 0.23273 0.61926 0.0
O684 O 0.60242 0.32825 0.55524 0.0
O685 O 0.56347 0.22928 0.59737 0.0
C686 C 0.37211 0.27914 0.86797 0.0
O687 O 0.36496 0.25698 0.8438 0.0
Cd688 Cd 0.39248 0.26035 0.78759 0.0
O689 O 0.39889 0.29947 0.86518 0.0
Cd690 Cd 0.4511 0.30882 0.8245 0.0
C691 C 0.38957 0.35375 0.78204 0.0
O692 O 0.45315 0.25173 0.79534 0.0
O693 O 0.47053 0.29631 0.76426 0.0
O694 O 0.48138 0.29923 0.87971 0.0
C695 C 0.46801 0.26303 0.7675 0.0
O696 O 0.38032 0.32237 0.77379 0.0
C697 C 0.51251 0.30269 0.86787 0.0
O698 O 0.41575 0.35937 0.80273 0.0
O699 O 0.51506 0.31608 0.8372 0.0
C700 C 0.46975 0.12452 0.11948 0.0
O701 O 0.49348 0.1186 0.09647 0.0
Cd702 Cd 0.48988 0.14261 0.03805 0.0
O703 O 0.44774 0.14966 0.11521 0.0
Cd704 Cd 0.44057 0.20054 0.07337 0.0
C705 C 0.3984 0.13331 0.03399 0.0
O706 O 0.4936 0.20441 0.03868 0.0
O707 O 0.4459 0.22158 0.01216 0.0
O708 O 0.47339 0.22817 0.11686 0.0
C709 C 0.47939 0.21906 0.01212 0.0
O710 O 0.42959 0.12561 0.02385 0.0
C711 C 0.45719 0.2575 0.11761 0.0
O712 O 0.39264 0.15937 0.05484 0.0
O713 O 0.42835 0.26014 0.10011 0.0
C714 C 0.61639 0.21634 0.37092 0.0
O715 O 0.62318 0.23846 0.34662 0.0
Cd716 Cd 0.5965 0.23397 0.29012 0.0
O717 O 0.59015 0.19532 0.36806 0.0
Cd718 Cd 0.53843 0.18456 0.32687 0.0
C719 C 0.60053 0.14047 0.28477 0.0
O720 O 0.53575 0.24141 0.29732 0.0
O721 O 0.51982 0.19631 0.26618 0.0
O722 O 0.50757 0.19148 0.38241 0.0
C723 C 0.52178 0.22966 0.2692 0.0
O724 O 0.60946 0.17199 0.27673 0.0
C725 C 0.47658 0.19038 0.36977 0.0
O726 O 0.57428 0.13443 0.30524 0.0
O727 O 0.47421 0.1787 0.33842 0.0
C728 C 0.5207 0.62835 0.3756 0.0
O729 O 0.49793 0.62121 0.39918 0.0
Cd730 Cd 0.50233 0.64513 0.45692 0.0
O731 O 0.54144 0.65471 0.3793 0.0
Cd732 Cd 0.54778 0.70638 0.4215 0.0
C733 C 0.59581 0.64521 0.46041 0.0
O734 O 0.49274 0.70566 0.45442 0.0
O735 O 0.53888 0.72188 0.48373 0.0
O736 O 0.52645 0.7377 0.37137 0.0
C737 C 0.50558 0.7182 0.48268 0.0
O738 O 0.56489 0.63489 0.46904 0.0
C739 C 0.53618 0.7684 0.38059 0.0
O740 O 0.60028 0.67181 0.43997 0.0
O741 O 0.55667 0.7704 0.40722 0.0
C742 C 0.12047 0.27776 0.62562 0.0
O743 O 0.12737 0.25571 0.64995 0.0
Cd744 Cd 0.09964 0.26032 0.70591 0.0
O745 O 0.09363 0.29807 0.62807 0.0
Cd746 Cd 0.0405 0.307 0.66787 0.0
C747 C 0.10057 0.35402 0.70972 0.0
O748 O 0.03929 0.25058 0.69831 0.0
O749 O 0.0212 0.29547 0.72853 0.0
O750 O 0.01208 0.29496 0.61234 0.0
C751 C 0.02442 0.26217 0.72602 0.0
O752 O 0.11028 0.32288 0.71827 0.0
C753 C 0.98049 0.29687 0.62328 0.0
O754 O 0.07442 0.35902 0.68882 0.0
O755 O 0.97637 0.31099 0.65345 0.0
C756 C 0.47099 0.86508 0.8763 0.0
O757 O 0.49418 0.87242 0.89943 0.0
Cd758 Cd 0.49149 0.84841 0.95744 0.0
O759 O 0.45094 0.8382 0.88019 0.0
Cd760 Cd 0.44803 0.78571 0.92183 0.0
C761 C 0.39805 0.84423 0.96169 0.0
O762 O 0.50267 0.78821 0.95549 0.0
O763 O 0.45694 0.76938 0.98386 0.0
O764 O 0.47485 0.7572 0.87357 0.0
C765 C 0.49003 0.77474 0.98341 0.0
O766 O 0.42867 0.85564 0.97009 0.0
C767 C 0.46359 0.72617 0.8793 0.0
O768 O 0.39435 0.81783 0.94086 0.0
O769 O 0.44013 0.72248 0.90323 0.0
C770 C 0.8692 0.21425 0.12795 0.0
O771 O 0.86188 0.2368 0.1517 0.0
Cd772 Cd 0.88842 0.2335 0.20834 0.0
O773 O 0.8962 0.19426 0.13107 0.0
Cd774 Cd 0.949 0.18792 0.17157 0.0
C775 C 0.88919 0.13992 0.21227 0.0
O776 O 0.94875 0.24402 0.2025 0.0
O777 O 0.96706 0.19924 0.23274 0.0
O778 O 0.97707 0.20548 0.11803 0.0
C779 C 0.96321 0.23245 0.23042 0.0
O780 O 0.87894 0.17092 0.22069 0.0
C781 C 0.00874 0.2007 0.12782 0.0
O782 O 0.9156 0.13527 0.19163 0.0
O783 O 0.01306 0.18323 0.15622 0.0
C784 C 0.60959 0.03222 0.87415 0.0
O785 O 0.58691 0.0086 0.88154 0.0
Cd786 Cd 0.52913 0.01069 0.85673 0.0
O787 O 0.60532 0.05222 0.84733 0.0
Cd788 Cd 0.56507 0.05337 0.79414 0.0
C789 C 0.52574 0.10361 0.85328 0.0
O790 O 0.53212 -0.00061 0.79655 0.0
O791 O 0.50363 0.04332 0.77387 0.0
O792 O 0.60923 0.01667 0.77676 0.0
C793 C 0.50501 0.01044 0.78051 0.0
O794 O 0.5166 0.07314 0.8644 0.0
C795 C 0.61208 0.02608 0.74474 0.0
O796 O 0.54672 0.10703 0.82698 0.0
O797 O 0.59548 0.05386 0.73475 0.0
C798 C 0.71255 0.36281 0.12857 0.0
O799 O 0.73637 0.34018 0.1356 0.0
Cd800 Cd 0.73586 0.28159 0.11145 0.0
O801 O 0.69237 0.35862 0.1019 0.0
Cd802 Cd 0.6914 0.31765 0.04955 0.0
C803 C 0.64421 0.27771 0.11355 0.0
O804 O 0.74294 0.28146 0.05029 0.0
O805 O 0.6966 0.2562 0.02802 0.0
O806 O 0.7334 0.35691 0.03061 0.0
C807 C 0.72957 0.2552 0.03443 0.0
O808 O 0.67471 0.2671 0.12316 0.0
C809 C 0.72131 0.36354 2e-05 0.0
O810 O 0.64048 0.29926 0.08767 0.0
O811 O 0.69077 0.35116 0.99194 0.0
C812 C 0.3784 0.46482 0.37192 0.0
O813 O 0.40203 0.48736 0.37961 0.0
Cd814 Cd 0.45856 0.48364 0.35314 0.0
O815 O 0.38187 0.44501 0.34483 0.0
Cd816 Cd 0.42247 0.43807 0.29202 0.0
C817 C 0.4633 0.3897 0.3508 0.0
O818 O 0.45218 0.49487 0.29301 0.0
O819 O 0.48371 0.45094 0.27502 0.0
O820 O 0.36692 0.44976 0.26373 0.0
C821 C 0.48059 0.48409 0.27899 0.0
O822 O 0.4708 0.42078 0.36155 0.0
C823 C 0.3782 0.45055 0.23222 0.0
O824 O 0.44318 0.3849 0.32403 0.0
O825 O 0.40883 0.43768 0.22744 0.0
C826 C 0.27993 0.13161 0.6248 0.0
O827 O 0.25592 0.1542 0.63128 0.0
Cd828 Cd 0.2573 0.21277 0.60767 0.0
O829 O 0.30088 0.13589 0.59874 0.0
Cd830 Cd 0.30306 0.17686 0.54625 0.0
C831 C 0.34938 0.21632 0.61028 0.0
O832 O 0.2507 0.21176 0.54668 0.0
O833 O 0.29645 0.23847 0.52514 0.0
O834 O 0.26261 0.13668 0.52726 0.0
C835 C 0.26339 0.23848 0.53114 0.0
O836 O 0.31866 0.22643 0.61972 0.0
C837 C 0.2745 0.13093 0.49644 0.0
O838 O 0.35366 0.19515 0.5842 0.0
O839 O 0.30466 0.1441 0.48823 0.0
C840 C 0.61396 0.9744 0.13072 0.0
O841 O 0.58968 0.99702 0.12573 0.0
Cd842 Cd 0.53345 0.9911 0.1523 0.0
O843 O 0.61202 0.95265 0.15646 0.0
Cd844 Cd 0.57228 0.94447 0.20992 0.0
C845 C 0.53042 0.89793 0.14921 0.0
O846 O 0.54032 -5e-05 0.21269 0.0
O847 O 0.51086 0.95416 0.22903 0.0
O848 O 0.62504 0.96205 0.23962 0.0
C849 C 0.51238 0.98754 0.22623 0.0
O850 O 0.52069 0.9289 0.14007 0.0
C851 C 0.6166 0.9517 0.27034 0.0
O852 O 0.55211 0.89325 0.17475 0.0
O853 O 0.58886 0.93285 0.27282 0.0
C854 C 0.77185 0.36084 0.37467 0.0
O855 O 0.74879 0.3371 0.36914 0.0
Cd856 Cd 0.75388 0.28079 0.39598 0.0
O857 O 0.79332 0.35812 0.40055 0.0
Cd858 Cd 0.80151 0.31924 0.45441 0.0
C859 C 0.84756 0.27771 0.39411 0.0
O860 O 0.7458 0.28788 0.45636 0.0
O861 O 0.79095 0.25832 0.47457 0.0
O862 O 0.78462 0.37439 0.47846 0.0
C863 C 0.75768 0.26011 0.47076 0.0
O864 O 0.81631 0.26904 0.38487 0.0
C865 C 0.78916 0.36714 0.51081 0.0
O866 O 0.85295 0.29877 0.42003 0.0
O867 O 0.80619 0.33893 0.51757 0.0
C868 C 0.38205 0.51892 0.62841 0.0
O869 O 0.4063 0.49636 0.62302 0.0
Cd870 Cd 0.46273 0.50185 0.64962 0.0
O871 O 0.3842 0.54051 0.65424 0.0
Cd872 Cd 0.42403 0.54843 0.70737 0.0
C873 C 0.46554 0.59486 0.64635 0.0
O874 O 0.45644 0.49334 0.71022 0.0
O875 O 0.48532 0.53929 0.72728 0.0
O876 O 0.3725 0.52773 0.73617 0.0
C877 C 0.4841 0.50591 0.7242 0.0
O878 O 0.47556 0.56396 0.63727 0.0
C879 C 0.37853 0.54073 0.76645 0.0
O880 O 0.44378 0.5994 0.67184 0.0
O881 O 0.40461 0.56185 0.76918 0.0
C882 C 0.21513 0.13456 0.86852 0.0
O883 O 0.23873 0.1576 0.86212 0.0
Cd884 Cd 0.23772 0.21583 0.88679 0.0
O885 O 0.1944 0.13813 0.89485 0.0
Cd886 Cd 0.1919 0.17826 0.94782 0.0
C887 C 0.14591 0.21871 0.88338 0.0
O888 O 0.24387 0.21345 0.94788 0.0
O889 O 0.19822 0.2393 0.97066 0.0
O890 O 0.23268 0.13775 0.96594 0.0
C891 C 0.23119 0.23972 0.9642 0.0
O892 O 0.17647 0.22967 0.87435 0.0
C893 C 0.22036 0.13072 0.99633 0.0
O894 O 0.1419 0.19699 0.90905 0.0
O895 O 0.19013 0.14365 0.00469 0.0
C896 C 0.86896 0.11939 0.52438 0.0
O897 O 0.87547 0.09567 0.50155 0.0
Cd898 Cd 0.84964 0.03865 0.50441 0.0
O899 O 0.84255 0.11637 0.54517 0.0
Cd900 Cd 0.79021 0.07519 0.55244 0.0
C901 C 0.85146 0.03345 0.59792 0.0
O902 O 0.78902 0.04418 0.49608 0.0
O903 O 0.77259 0.01416 0.5417 0.0
O904 O 0.75883 0.12824 0.53787 0.0
C905 C 0.77554 0.01608 0.50836 0.0
O906 O 0.86086 0.0252 0.56659 0.0
C907 C 0.72809 0.11719 0.54526 0.0
O908 O 0.82538 0.05429 0.60344 0.0
O909 O 0.72636 0.08809 0.56198 0.0
C910 C 0.36837 0.86754 0.97096 0.0
O911 O 0.37464 0.89119 0.99395 0.0
Cd912 Cd 0.34786 0.94763 0.9932 0.0
O913 O 0.34161 0.87005 0.95052 0.0
Cd914 Cd 0.28881 0.91077 0.9439 0.0
C915 C 0.34853 0.95578 0.89975 0.0
O916 O 0.2877 0.93942 0.00173 0.0
O917 O 0.27089 0.97062 0.95717 0.0
O918 O 0.2548 0.85756 0.95235 0.0
C919 C 0.27415 0.96788 0.99041 0.0
O920 O 0.35813 0.96324 0.93124 0.0
C921 C 0.22481 0.87147 0.94679 0.0
O922 O 0.32292 0.93451 0.89383 0.0
O923 O 0.22509 0.90194 0.93277 0.0
C924 C 0.86446 0.11117 0.22097 0.0
O925 O 0.84069 0.11815 0.24359 0.0
Cd926 Cd 0.78408 0.0922 0.23949 0.0
O927 O 0.86113 0.08466 0.20034 0.0
Cd928 Cd 0.81978 0.03231 0.19227 0.0
C929 C 0.77791 0.09111 0.14551 0.0
O930 O 0.79065 0.03204 0.2495 0.0
O931 O 0.75818 0.01662 0.2053 0.0
O932 O 0.87519 0.00129 0.19925 0.0
C933 C 0.76159 0.01953 0.23855 0.0
O934 O 0.77099 0.10139 0.17688 0.0
C935 C 0.86243 0.97035 0.20031 0.0
O936 O 0.79813 0.06459 0.13993 0.0
O937 O 0.83062 0.96751 0.19014 0.0
C938 C 0.62476 0.62069 0.46905 0.0
O939 O 0.6182 0.59714 0.49205 0.0
Cd940 Cd 0.64389 0.54012 0.48937 0.0
O941 O 0.65114 0.61746 0.44826 0.0
Cd942 Cd 0.70344 0.57617 0.44114 0.0
C943 C 0.64217 0.53431 0.3958 0.0
O944 O 0.70444 0.54584 0.49788 0.0
O945 O 0.72072 0.51513 0.45269 0.0
O946 O 0.73484 0.62957 0.45481 0.0
C947 C 0.71782 0.51751 0.48601 0.0
O948 O 0.63275 0.52643 0.42722 0.0
C949 C 0.76566 0.61812 0.4484 0.0
O950 O 0.66836 0.55497 0.3901 0.0
O951 O 0.76748 0.58863 0.43241 0.0
C952 C 0.62827 0.87288 0.71898 0.0
O953 O 0.65126 0.86636 0.74259 0.0
Cd954 Cd 0.71039 0.88852 0.73921 0.0
O955 O 0.63273 0.89841 0.69741 0.0
Cd956 Cd 0.67487 0.94991 0.6933 0.0
C957 C 0.71285 0.88506 0.64709 0.0
O958 O 0.71142 0.94966 0.74465 0.0
O959 O 0.73693 0.96979 0.6976 0.0
O960 O 0.63749 0.97136 0.73475 0.0
C961 C 0.73807 0.96423 0.73072 0.0
O962 O 0.72309 0.87551 0.67775 0.0
C963 C 0.63132 0.00164 0.72175 0.0
O964 O 0.692 0.9114 0.64292 0.0
O965 O 0.64287 0.00836 0.69058 0.0
C966 C 0.12539 0.86871 0.52228 0.0
O967 O 0.1179 0.89253 0.49985 0.0
Cd968 Cd 0.14308 0.94975 0.50105 0.0
O969 O 0.15208 0.87204 0.54268 0.0
Cd970 Cd 0.20283 0.91474 0.55102 0.0
C971 C 0.14017 0.95758 0.59431 0.0
O972 O 0.20369 0.94305 0.49313 0.0
O973 O 0.21947 0.97493 0.53766 0.0
O974 O 0.23818 0.86204 0.54388 0.0
C975 C 0.2168 0.97175 0.50439 0.0
O976 O 0.13088 0.96505 0.56275 0.0
C977 C 0.26789 0.87693 0.54821 0.0
O978 O 0.16648 0.9372 0.60048 0.0
O979 O 0.26701 0.90779 0.56132 0.0
C980 C 0.8627 0.37267 0.27428 0.0
O981 O 0.83934 0.36589 0.25108 0.0
Cd982 Cd 0.78038 0.38885 0.25371 0.0
O983 O 0.85888 0.39879 0.29526 0.0
Cd984 Cd 0.81743 0.45072 0.29875 0.0
C985 C 0.77902 0.38563 0.34558 0.0
O986 O 0.78001 0.45005 0.24832 0.0
O987 O 0.75562 0.47162 0.29539 0.0
O988 O 0.85466 0.47096 0.25595 0.0
C989 C 0.75379 0.46526 0.26244 0.0
O990 O 0.76784 0.37617 0.31522 0.0
C991 C 0.86178 0.5012 0.26862 0.0
O992 O 0.8004 0.41167 0.34915 0.0
O993 O 0.85062 0.50847 0.29982 0.0
C994 C 0.12166 0.11851 0.7668 0.0
O995 O 0.14463 0.12458 0.74309 0.0
Cd996 Cd 0.20353 0.10277 0.74795 0.0
O997 O 0.12619 0.09352 0.78896 0.0
Cd998 Cd 0.16897 0.04304 0.79591 0.0
C999 C 0.20683 0.10913 0.84027 0.0
O1000 O 0.20453 0.04146 0.74306 0.0
O1001 O 0.2313 0.02586 0.79104 0.0
O1002 O 0.12529 0.01235 0.76501 0.0
C1003 C 0.23193 0.02893 0.75763 0.0
O1004 O 0.21642 0.11792 0.80917 0.0
C1005 C 0.12785 0.98283 0.78068 0.0
O1006 O 0.18644 0.08259 0.84552 0.0
O1007 O 0.14733 0.98138 0.80827 0.0
C1008 C 0.52189 0.86933 0.12427 0.0
O1009 O 0.49767 0.87523 0.10176 0.0
Cd1010 Cd 0.50023 0.85165 0.04325 0.0
O1011 O 0.54373 0.84408 0.11962 0.0
Cd1012 Cd 0.55006 0.79293 0.07765 0.0
C1013 C 0.59253 0.8588 0.03766 0.0
O1014 O 0.49587 0.79014 0.04367 0.0
O1015 O 0.54341 0.77406 0.01626 0.0
O1016 O 0.52319 0.76312 0.12489 0.0
C1017 C 0.50997 0.77677 0.01635 0.0
O1018 O 0.56106 0.86698 0.02874 0.0
C1019 C 0.53867 0.7336 0.12138 0.0
O1020 O 0.59871 0.83265 0.05829 0.0
O1021 O 0.56402 0.73181 0.09916 0.0
C1022 C 0.37253 0.77959 0.36978 0.0
O1023 O 0.36548 0.75707 0.3459 0.0
Cd1024 Cd 0.39269 0.76032 0.28948 0.0
O1025 O 0.39939 0.7998 0.36681 0.0
Cd1026 Cd 0.45221 0.80757 0.32641 0.0
C1027 C 0.39155 0.8539 0.28445 0.0
O1028 O 0.45324 0.75091 0.29629 0.0
O1029 O 0.47136 0.79569 0.26587 0.0
O1030 O 0.48109 0.79429 0.38131 0.0
C1031 C 0.46822 0.76241 0.26859 0.0
O1032 O 0.38189 0.82264 0.27627 0.0
C1033 C 0.51258 0.79736 0.37036 0.0
O1034 O 0.4178 0.8592 0.30516 0.0
O1035 O 0.51633 0.81252 0.34062 0.0
C1036 C 0.4737 0.62348 0.62136 0.0
O1037 O 0.49737 0.61747 0.59833 0.0
Cd1038 Cd 0.49334 0.64174 0.54044 0.0
O1039 O 0.45197 0.64893 0.61732 0.0
Cd1040 Cd 0.44411 0.70048 0.57606 0.0
C1041 C 0.40064 0.63533 0.53631 0.0
O1042 O 0.49871 0.70311 0.54288 0.0
O1043 O 0.45173 0.71907 0.51466 0.0
O1044 O 0.46633 0.7301 0.62659 0.0
C1045 C 0.48516 0.71649 0.51532 0.0
O1046 O 0.43199 0.62697 0.52717 0.0
C1047 C 0.45447 0.76067 0.61967 0.0
O1048 O 0.39476 0.6616 0.55689 0.0
O1049 O 0.43258 0.76311 0.59415 0.0
C1050 C 0.62468 0.71498 0.86409 0.0
O1051 O 0.63187 0.73719 0.83999 0.0
Cd1052 Cd 0.60442 0.73271 0.78383 0.0
O1053 O 0.59786 0.69472 0.8612 0.0
Cd1054 Cd 0.54493 0.68631 0.82125 0.0
C1055 C 0.60492 0.63902 0.78033 0.0
O1056 O 0.54401 0.7427 0.79076 0.0
O1057 O 0.52555 0.69809 0.76044 0.0
O1058 O 0.51841 0.69999 0.87679 0.0
C1059 C 0.52925 0.73133 0.76293 0.0
O1060 O 0.61476 0.67015 0.77189 0.0
C1061 C 0.48643 0.69736 0.86727 0.0
O1062 O 0.57855 0.63406 0.80093 0.0
O1063 O 0.48105 0.68246 0.83764 0.0
C1064 C 0.51729 0.13319 0.87703 0.0
O1065 O 0.49466 0.1269 0.90098 0.0
Cd1066 Cd 0.49872 0.15221 0.95775 0.0
O1067 O 0.53812 0.15964 0.87963 0.0
Cd1068 Cd 0.54479 0.21258 0.9204 0.0
C1069 C 0.59254 0.15433 0.96287 0.0
O1070 O 0.48825 0.21199 0.95092 0.0
O1071 O 0.53307 0.22812 0.98197 0.0
O1072 O 0.53191 0.24471 0.86711 0.0
C1073 C 0.49987 0.22402 0.97989 0.0
O1074 O 0.5615 0.14379 0.97081 0.0
C1075 C 0.53746 0.27543 0.87925 0.0
O1076 O 0.59728 0.18028 0.9417 0.0
O1077 O 0.5522 0.27703 0.90938 0.0
C1078 C 0.12125 0.77652 0.12594 0.0
O1079 O 0.12806 0.7544 0.15024 0.0
Cd1080 Cd 0.10036 0.75853 0.20645 0.0
O1081 O 0.09459 0.79703 0.12844 0.0
Cd1082 Cd 0.04187 0.80628 0.16827 0.0
C1083 C 0.10317 0.8519 0.2105 0.0
O1084 O 0.03952 0.7502 0.19931 0.0
O1085 O 0.02131 0.79556 0.22865 0.0
O1086 O 0.01335 0.79225 0.11356 0.0
C1087 C 0.02455 0.76224 0.22675 0.0
O1088 O 0.11232 0.82071 0.21949 0.0
C1089 C 0.98199 0.79906 0.12309 0.0
O1090 O 0.0773 0.85711 0.1893 0.0
O1091 O 0.9785 0.81516 0.15237 0.0
C1092 C 0.47258 0.36086 0.37523 0.0
O1093 O 0.49567 0.36791 0.39855 0.0
Cd1094 Cd 0.49277 0.34391 0.45628 0.0
O1095 O 0.45192 0.33443 0.37906 0.0
Cd1096 Cd 0.44621 0.28257 0.42137 0.0
C1097 C 0.39907 0.34258 0.46214 0.0
O1098 O 0.50257 0.28355 0.45251 0.0
O1099 O 0.45726 0.26759 0.48315 0.0
O1100 O 0.46178 0.24979 0.36954 0.0
C1101 C 0.49051 0.27136 0.48128 0.0
O1102 O 0.4302 0.35315 0.46972 0.0
C1103 C 0.45357 0.21939 0.38095 0.0
O1104 O 0.39409 0.31607 0.44173 0.0
O1105 O 0.4367 0.21832 0.40999 0.0
C1106 C 0.87701 0.71818 0.62304 0.0
O1107 O 0.87029 0.74062 0.64708 0.0
Cd1108 Cd 0.89669 0.73666 0.70387 0.0
O1109 O 0.90332 0.69727 0.62606 0.0
Cd1110 Cd 0.95536 0.68818 0.66727 0.0
C1111 C 0.89348 0.64326 0.70897 0.0
O1112 O 0.95751 0.74463 0.69776 0.0
O1113 O 0.97409 0.69924 0.72812 0.0
O1114 O 0.98589 0.69977 0.61273 0.0
C1115 C 0.97161 0.73259 0.7257 0.0
O1116 O 0.88429 0.67463 0.71733 0.0
C1117 C 0.01693 0.69457 0.62417 0.0
O1118 O 0.91967 0.63764 0.68831 0.0
O1119 O 0.01929 0.67995 0.65431 0.0
C1120 C 0.61671 0.52513 0.36784 0.0
O1121 O 0.59311 0.50265 0.37577 0.0
Cd1122 Cd 0.5357 0.50598 0.3513 0.0
O1123 O 0.61272 0.5454 0.34114 0.0
Cd1124 Cd 0.56977 0.55313 0.29012 0.0
C1125 C 0.5296 0.59982 0.35072 0.0
O1126 O 0.54072 0.49586 0.29093 0.0
O1127 O 0.50811 0.54019 0.2758 0.0
O1128 O 0.62379 0.54553 0.25661 0.0
C1129 C 0.51164 0.50694 0.27848 0.0
O1130 O 0.52259 0.56855 0.36124 0.0
C1131 C 0.60948 0.54494 0.22633 0.0
O1132 O 0.54911 0.60517 0.32362 0.0
O1133 O 0.57785 0.55597 0.22515 0.0
C1134 C 0.72025 0.86007 0.61827 0.0
O1135 O 0.74278 0.83597 0.62442 0.0
Cd1136 Cd 0.73766 0.77995 0.59731 0.0
O1137 O 0.69916 0.85755 0.59206 0.0
Cd1138 Cd 0.68941 0.81861 0.53857 0.0
C1139 C 0.6437 0.77683 0.59907 0.0
O1140 O 0.74568 0.78837 0.53709 0.0
O1141 O 0.70117 0.75777 0.51899 0.0
O1142 O 0.70034 0.87541 0.51305 0.0
C1143 C 0.73439 0.76026 0.52286 0.0
O1144 O 0.67507 0.76862 0.60833 0.0
C1145 C 0.69984 0.86606 0.48092 0.0
O1146 O 0.63803 0.79749 0.57288 0.0
O1147 O 0.68703 0.83564 0.47475 0.0
C1148 C 0.37329 0.96599 0.87162 0.0
O1149 O 0.39695 0.9884 0.87965 0.0
Cd1150 Cd 0.45343 0.98723 0.853 0.0
O1151 O 0.37656 0.94661 0.84419 0.0
Cd1152 Cd 0.41771 0.93994 0.79203 0.0
C1153 C 0.461 0.89367 0.85182 0.0
O1154 O 0.44529 -0.00202 0.79293 0.0
O1155 O 0.4778 0.95487 0.77491 0.0
O1156 O 0.36315 0.94834 0.76006 0.0
C1157 C 0.47388 0.98795 0.77875 0.0
O1158 O 0.46819 0.92495 0.86222 0.0
C1159 C 0.3766 0.94827 0.72937 0.0
O1160 O 0.44055 0.88833 0.82538 0.0
O1161 O 0.40773 0.93596 0.72731 0.0
C1162 C 0.28127 0.63357 0.12506 0.0
O1163 O 0.25771 0.65665 0.13147 0.0
Cd1164 Cd 0.25916 0.71469 0.10684 0.0
O1165 O 0.30209 0.63712 0.09878 0.0
Cd1166 Cd 0.30491 0.67731 0.04571 0.0
C1167 C 0.35142 0.71771 0.10913 0.0
O1168 O 0.2522 0.7115 0.04603 0.0
O1169 O 0.29727 0.73855 0.02364 0.0
O1170 O 0.2654 0.63589 0.02726 0.0
C1171 C 0.26425 0.73811 0.02987 0.0
O1172 O 0.32072 0.72807 0.11839 0.0
C1173 C 0.27703 0.63049 0.99628 0.0
O1174 O 0.35562 0.69614 0.08336 0.0
O1175 O 0.30676 0.64438 0.98776 0.0
C1176 C 0.61881 0.47173 0.62844 0.0
O1177 O 0.59478 0.49441 0.62258 0.0
Cd1178 Cd 0.53811 0.48977 0.64898 0.0
O1179 O 0.6162 0.45037 0.65441 0.0
Cd1180 Cd 0.57597 0.44201 0.70706 0.0
C1181 C 0.53418 0.39675 0.6449 0.0
O1182 O 0.54416 0.49762 0.70979 0.0
O1183 O 0.51514 0.45171 0.72704 0.0
O1184 O 0.62885 0.45947 0.73639 0.0
C1185 C 0.51656 0.48508 0.72402 0.0
O1186 O 0.52472 0.42787 0.63597 0.0
C1187 C 0.62073 0.44871 0.76705 0.0
O1188 O 0.55555 0.39166 0.67065 0.0
O1189 O 0.59302 0.4298 0.76962 0.0
C1190 C 0.78051 0.86262 0.8664 0.0
O1191 O 0.75735 0.83932 0.8594 0.0
Cd1192 Cd 0.75937 0.78121 0.88419 0.0
O1193 O 0.80063 0.85918 0.89324 0.0
Cd1194 Cd 0.8024 0.81889 0.94625 0.0
C1195 C 0.8516 0.77905 0.88448 0.0
O1196 O 0.75074 0.78283 0.94497 0.0
O1197 O 0.79654 0.75739 0.96792 0.0
O1198 O 0.76096 0.85873 0.96494 0.0
C1199 C 0.76364 0.75659 0.96116 0.0
O1200 O 0.8213 0.7683 0.87435 0.0
C1201 C 0.77272 0.86497 0.99572 0.0
O1202 O 0.85475 0.80087 0.91019 0.0
O1203 O 0.80299 0.85218 0.00409 0.0
C1204 C 0.37909 0.0189 0.12875 0.0
O1205 O 0.40372 0.99667 0.12366 0.0
Cd1206 Cd 0.45992 0.00324 0.15042 0.0
O1207 O 0.3809 0.04087 0.1543 0.0
Cd1208 Cd 0.42058 0.05115 0.20727 0.0
C1209 C 0.46205 0.09632 0.14511 0.0
O1210 O 0.45251 0.99575 0.21112 0.0
O1211 O 0.48142 0.04186 0.22774 0.0
O1212 O 0.36686 0.03575 0.23656 0.0
C1213 C 0.48001 0.00846 0.22535 0.0
O1214 O 0.47211 0.06528 0.13654 0.0
C1215 C 0.3757 0.04541 0.26738 0.0
O1216 O 0.44057 0.10131 0.17075 0.0
O1217 O 0.40414 0.06314 0.27001 0.0
C1218 C 0.21627 0.63571 0.3708 0.0
O1219 O 0.23945 0.65909 0.36414 0.0
Cd1220 Cd 0.23706 0.7172 0.3888 0.0
O1221 O 0.19564 0.63906 0.39724 0.0
Cd1222 Cd 0.19259 0.67886 0.45036 0.0
C1223 C 0.14484 0.71836 0.38715 0.0
O1224 O 0.24419 0.71461 0.44973 0.0
O1225 O 0.19858 0.74009 0.47292 0.0
O1226 O 0.23377 0.63867 0.46806 0.0
C1227 C 0.23148 0.74079 0.46612 0.0
O1228 O 0.17518 0.72949 0.37761 0.0
C1229 C 0.22186 0.63154 0.49858 0.0
O1230 O 0.14139 0.69662 0.41287 0.0
O1231 O 0.19166 0.64427 0.5073 0.0
C1232 C 0.86961 0.63058 0.01684 0.0
O1233 O 0.87619 0.60729 0.99357 0.0
Cd1234 Cd 0.85231 0.54945 0.99646 0.0
O1235 O 0.8439 0.62662 0.0383 0.0
Cd1236 Cd 0.79344 0.58411 0.0477 0.0
C1237 C 0.85814 0.54272 0.08961 0.0
O1238 O 0.79122 0.55393 0.99078 0.0
O1239 O 0.77674 0.52359 0.03686 0.0
O1240 O 0.75818 0.63653 0.03913 0.0
C1241 C 0.77867 0.52554 0.00345 0.0
O1242 O 0.86678 0.53499 0.05792 0.0
C1243 C 0.72851 0.62208 0.04502 0.0
O1244 O 0.83166 0.56274 0.09623 0.0
O1245 O 0.72957 0.59182 0.05948 0.0
C1246 C 0.37027 0.36692 0.47155 0.0
O1247 O 0.37746 0.3906 0.49424 0.0
Cd1248 Cd 0.35173 0.4476 0.49339 0.0
O1249 O 0.34341 0.37002 0.45134 0.0
Cd1250 Cd 0.29179 0.41193 0.4442 0.0
C1251 C 0.35329 0.45525 0.40004 0.0
O1252 O 0.29125 0.44087 0.50184 0.0
O1253 O 0.2748 0.47214 0.45714 0.0
O1254 O 0.25717 0.35922 0.45346 0.0
C1255 C 0.27795 0.46941 0.4904 0.0
O1256 O 0.36285 0.46285 0.4315 0.0
C1257 C 0.22728 0.37331 0.44786 0.0
O1258 O 0.3272 0.43451 0.39417 0.0
O1259 O 0.22777 0.40367 0.43359 0.0
C1260 C 0.86791 0.61523 0.7176 0.0
O1261 O 0.84412 0.62265 0.74006 0.0
Cd1262 Cd 0.78726 0.59661 0.73621 0.0
O1263 O 0.86435 0.58869 0.69707 0.0
Cd1264 Cd 0.82291 0.53695 0.68801 0.0
C1265 C 0.78178 0.59847 0.64255 0.0
O1266 O 0.79336 0.53586 0.74489 0.0
O1267 O 0.76195 0.51903 0.70034 0.0
O1268 O 0.87839 0.5069 0.69687 0.0
C1269 C 0.76507 0.5219 0.73361 0.0
O1270 O 0.7742 0.60812 0.67397 0.0
C1271 C 0.86633 0.47568 0.69628 0.0
O1272 O 0.80176 0.57176 0.63683 0.0
O1273 O 0.83515 0.47239 0.68434 0.0
C1274 C 0.62147 0.13033 0.97268 0.0
O1275 O 0.61469 0.1075 0.99634 0.0
Cd1276 Cd 0.639 0.04979 0.99504 0.0
O1277 O 0.64766 0.12616 0.95182 0.0
Cd1278 Cd 0.69856 0.08357 0.94477 0.0
C1279 C 0.63496 0.04193 0.90195 0.0
O1280 O 0.69995 0.05404 0.00215 0.0
O1281 O 0.71456 0.02296 0.9566 0.0
O1282 O 0.734 0.13567 0.95415 0.0
C1283 C 0.71251 0.02544 0.98997 0.0
O1284 O 0.62585 0.0345 0.93357 0.0
C1285 C 0.76362 0.12116 0.94818 0.0
O1286 O 0.66148 0.06194 0.89555 0.0
O1287 O 0.76251 0.09107 0.93335 0.0
C1288 C 0.61612 0.3753 0.23058 0.0
O1289 O 0.63985 0.36884 0.25342 0.0
Cd1290 Cd 0.69739 0.39339 0.24955 0.0
O1291 O 0.61953 0.40107 0.20911 0.0
Cd1292 Cd 0.6611 0.45214 0.19986 0.0
C1293 C 0.703 0.38813 0.15657 0.0
O1294 O 0.69273 0.45442 0.25588 0.0
O1295 O 0.72174 0.47042 0.20956 0.0
O1296 O 0.60886 0.48502 0.21393 0.0
C1297 C 0.72071 0.46747 0.24293 0.0
O1298 O 0.71164 0.37946 0.18801 0.0
C1299 C 0.61993 0.51507 0.20407 0.0
O1300 O 0.68212 0.41412 0.15064 0.0
O1301 O 0.64867 0.51544 0.18666 0.0
C1302 C 0.1263 0.3711 0.02504 0.0
O1303 O 0.11958 0.39455 0.00199 0.0
Cd1304 Cd 0.14628 0.45103 0.00187 0.0
O1305 O 0.15334 0.37391 0.04507 0.0
Cd1306 Cd 0.20602 0.41502 0.0506 0.0
C1307 C 0.1472 0.46029 0.09527 0.0
O1308 O 0.20626 0.4428 0.99227 0.0
O1309 O 0.22322 0.47486 0.03616 0.0
O1310 O 0.24006 0.36161 0.04315 0.0
C1311 C 0.21972 0.47154 0.00299 0.0
O1312 O 0.1371 0.46725 0.06383 0.0
C1313 C 0.27011 0.37584 0.04735 0.0
O1314 O 0.17293 0.43916 0.10111 0.0
O1315 O 0.27002 0.40676 0.06034 0.0
C1316 C 0.87651 0.87509 0.76585 0.0
O1317 O 0.85321 0.86816 0.7427 0.0
Cd1318 Cd 0.79532 0.89213 0.74532 0.0
O1319 O 0.87261 0.90116 0.78688 0.0
Cd1320 Cd 0.83047 0.95206 0.79418 0.0
C1321 C 0.78955 0.88789 0.8382 0.0
O1322 O 0.799 0.95315 0.73809 0.0
O1323 O 0.7696 0.9697 0.78401 0.0
O1324 O 0.88154 0.98482 0.77715 0.0
C1325 C 0.7709 0.96629 0.75069 0.0
O1326 O 0.781 0.87877 0.80687 0.0
C1327 C 0.8715 0.01478 0.78832 0.0
O1328 O 0.81002 0.91427 0.84383 0.0
O1329 O 0.84384 0.01528 0.80745 0.0
C1330 C 0.12263 0.62151 0.26937 0.0
O1331 O 0.14569 0.62796 0.24584 0.0
Cd1332 Cd 0.20411 0.60504 0.24975 0.0
O1333 O 0.12692 0.596 0.29099 0.0
Cd1334 Cd 0.16931 0.54518 0.29848 0.0
C1335 C 0.20799 0.61019 0.34266 0.0
O1336 O 0.20283 0.5438 0.24388 0.0
O1337 O 0.23083 0.52817 0.2912 0.0
O1338 O 0.11965 0.51325 0.27739 0.0
C1339 C 0.2305 0.53095 0.25779 0.0
O1340 O 0.21692 0.61919 0.31141 0.0
C1341 C 0.12852 0.48306 0.28894 0.0
O1342 O 0.18787 0.58352 0.34821 0.0
O1343 O 0.15452 0.48196 0.31031 0.0
loop_
_geom_bond_atom_site_label_1
_geom_bond_atom_site_label_2
_geom_bond_distance
_geom_bond_site_symmetry_2
_ccdc_geom_bond_type
C0 O1 1.306 . S
C0 O3 1.160 . S
O1 C0 1.306 . S
O1 Cd2 2.228 . S
Cd2 O1 2.228 . S
Cd2 O6 2.273 . S
Cd2 O10 2.277 . S
O3 C0 1.160 . S
O3 Cd4 2.203 . S
Cd4 O3 2.203 . S
Cd4 O6 2.411 . S
Cd4 O7 2.333 . S
Cd4 O8 2.352 1_455 S
Cd4 O12 2.277 . S
Cd4 O13 2.356 . S
C5 O10 1.209 . S
C5 O12 1.226 . S
O6 Cd2 2.273 . S
O6 Cd4 2.411 . S
O6 C9 1.320 . S
O7 Cd4 2.333 . S
O7 C9 1.214 . S
O8 Cd4 2.352 1_655 S
O8 C11 1.258 1_655 S
C9 O6 1.320 . S
C9 O7 1.214 . S
O10 Cd2 2.277 . S
O10 C5 1.209 . S
C11 O8 1.258 1_455 S
C11 O13 1.282 . S
O12 Cd4 2.277 . S
O12 C5 1.226 . S
O13 Cd4 2.356 . S
O13 C11 1.282 . S
C14 O15 1.306 . S
C14 O17 1.160 . S
O15 C14 1.306 . S
O15 Cd16 2.228 . S
Cd16 O15 2.228 . S
Cd16 O20 2.273 . S
Cd16 O24 2.277 . S
O17 C14 1.160 . S
O17 Cd18 2.203 . S
Cd18 O17 2.203 . S
Cd18 O20 2.411 . S
Cd18 O21 2.333 . S
Cd18 O22 2.352 . S
Cd18 O26 2.277 . S
Cd18 O27 2.356 . S
C19 O24 1.209 . S
C19 O26 1.226 . S
O20 Cd16 2.273 . S
O20 Cd18 2.411 . S
O20 C23 1.320 . S
O21 Cd18 2.333 . S
O21 C23 1.214 . S
O22 Cd18 2.352 . S
O22 C25 1.258 . S
C23 O20 1.320 . S
C23 O21 1.214 . S
O24 Cd16 2.277 . S
O24 C19 1.209 . S
C25 O22 1.258 . S
C25 O27 1.282 . S
O26 Cd18 2.277 . S
O26 C19 1.226 . S
O27 Cd18 2.356 . S
O27 C25 1.282 . S
C28 O29 1.306 . S
C28 O31 1.160 . S
O29 C28 1.306 . S
O29 Cd30 2.228 . S
Cd30 O29 2.228 . S
Cd30 O34 2.273 . S
Cd30 O38 2.277 . S
O31 C28 1.160 . S
O31 Cd32 2.203 . S
Cd32 O31 2.203 . S
Cd32 O34 2.411 . S
Cd32 O35 2.333 . S
Cd32 O36 2.352 1_655 S
Cd32 O40 2.277 . S
Cd32 O41 2.356 . S
C33 O38 1.209 . S
C33 O40 1.226 . S
O34 Cd30 2.273 . S
O34 Cd32 2.411 . S
O34 C37 1.320 . S
O35 Cd32 2.333 . S
O35 C37 1.214 . S
O36 Cd32 2.352 1_455 S
O36 C39 1.258 1_455 S
C37 O34 1.320 . S
C37 O35 1.214 . S
O38 Cd30 2.277 . S
O38 C33 1.209 . S
C39 O36 1.258 1_655 S
C39 O41 1.282 . S
O40 Cd32 2.277 . S
O40 C33 1.226 . S
O41 Cd32 2.356 . S
O41 C39 1.282 . S
C42 O43 1.306 . S
C42 O45 1.160 . S
O43 C42 1.306 . S
O43 Cd44 2.228 . S
Cd44 O43 2.228 . S
Cd44 O48 2.273 . S
Cd44 O52 2.277 . S
O45 C42 1.160 . S
O45 Cd46 2.203 . S
Cd46 O45 2.203 . S
Cd46 O48 2.411 . S
Cd46 O49 2.333 . S
Cd46 O50 2.352 . S
Cd46 O54 2.277 . S
Cd46 O55 2.356 . S
C47 O52 1.209 . S
C47 O54 1.226 . S
O48 Cd44 2.273 . S
O48 Cd46 2.411 . S
O48 C51 1.320 . S
O49 Cd46 2.333 . S
O49 C51 1.214 . S
O50 Cd46 2.352 . S
O50 C53 1.258 . S
C51 O48 1.320 . S
C51 O49 1.214 . S
O52 Cd44 2.277 . S
O52 C47 1.209 . S
C53 O50 1.258 . S
C53 O55 1.282 . S
O54 Cd46 2.277 . S
O54 C47 1.226 . S
O55 Cd46 2.356 . S
O55 C53 1.282 . S
C56 O57 1.306 . S
C56 O59 1.160 . S
O57 C56 1.306 . S
O57 Cd58 2.228 . S
Cd58 O57 2.228 . S
Cd58 O62 2.273 . S
Cd58 O66 2.277 . S
O59 C56 1.160 . S
O59 Cd60 2.203 . S
Cd60 O59 2.203 . S
Cd60 O62 2.411 . S
Cd60 O63 2.333 . S
Cd60 O64 2.352 1_455 S
Cd60 O68 2.277 . S
Cd60 O69 2.356 . S
C61 O66 1.209 . S
C61 O68 1.226 . S
O62 Cd58 2.273 . S
O62 Cd60 2.411 . S
O62 C65 1.320 . S
O63 Cd60 2.333 . S
O63 C65 1.214 . S
O64 Cd60 2.352 1_655 S
O64 C67 1.258 1_655 S
C65 O62 1.320 . S
C65 O63 1.214 . S
O66 Cd58 2.277 . S
O66 C61 1.209 . S
C67 O64 1.258 1_455 S
C67 O69 1.282 . S
O68 Cd60 2.277 . S
O68 C61 1.226 . S
O69 Cd60 2.356 . S
O69 C67 1.282 . S
C70 O71 1.306 . S
C70 O73 1.160 . S
O71 C70 1.306 . S
O71 Cd72 2.228 . S
Cd72 O71 2.228 . S
Cd72 O76 2.273 . S
Cd72 O80 2.277 . S
O73 C70 1.160 . S
O73 Cd74 2.203 . S
Cd74 O73 2.203 . S
Cd74 O76 2.411 . S
Cd74 O77 2.333 . S
Cd74 O78 2.352 . S
Cd74 O82 2.277 . S
Cd74 O83 2.356 . S
C75 O80 1.209 . S
C75 O82 1.226 . S
O76 Cd72 2.273 . S
O76 Cd74 2.411 . S
O76 C79 1.320 . S
O77 Cd74 2.333 . S
O77 C79 1.214 . S
O78 Cd74 2.352 . S
O78 C81 1.258 . S
C79 O76 1.320 . S
C79 O77 1.214 . S
O80 Cd72 2.277 . S
O80 C75 1.209 . S
C81 O78 1.258 . S
C81 O83 1.282 . S
O82 Cd74 2.277 . S
O82 C75 1.226 . S
O83 Cd74 2.356 . S
O83 C81 1.282 . S
C84 O85 1.306 . S
C84 O87 1.160 . S
O85 C84 1.306 . S
O85 Cd86 2.228 . S
Cd86 O85 2.228 . S
Cd86 O90 2.273 . S
Cd86 O94 2.277 . S
O87 C84 1.160 . S
O87 Cd88 2.203 . S
Cd88 O87 2.203 . S
Cd88 O90 2.411 . S
Cd88 O91 2.333 . S
Cd88 O92 2.352 1_655 S
Cd88 O96 2.277 . S
Cd88 O97 2.356 . S
C89 O94 1.209 . S
C89 O96 1.226 . S
O90 Cd86 2.273 . S
O90 Cd88 2.411 . S
O90 C93 1.320 . S
O91 Cd88 2.333 . S
O91 C93 1.214 . S
O92 Cd88 2.352 1_455 S
O92 C95 1.258 1_455 S
C93 O90 1.320 . S
C93 O91 1.214 . S
O94 Cd86 2.277 . S
O94 C89 1.209 . S
C95 O92 1.258 1_655 S
C95 O97 1.282 . S
O96 Cd88 2.277 . S
O96 C89 1.226 . S
O97 Cd88 2.356 . S
O97 C95 1.282 . S
C98 O99 1.306 . S
C98 O101 1.160 . S
O99 C98 1.306 . S
O99 Cd100 2.228 . S
Cd100 O99 2.228 . S
Cd100 O104 2.273 . S
Cd100 O108 2.277 . S
O101 C98 1.160 . S
O101 Cd102 2.203 . S
Cd102 O101 2.203 . S
Cd102 O104 2.411 . S
Cd102 O105 2.333 . S
Cd102 O106 2.352 . S
Cd102 O110 2.277 . S
Cd102 O111 2.356 . S
C103 O108 1.209 . S
C103 O110 1.226 . S
O104 Cd100 2.273 . S
O104 Cd102 2.411 . S
O104 C107 1.320 . S
O105 Cd102 2.333 . S
O105 C107 1.214 . S
O106 Cd102 2.352 . S
O106 C109 1.258 . S
C107 O104 1.320 . S
C107 O105 1.214 . S
O108 Cd100 2.277 . S
O108 C103 1.209 . S
C109 O106 1.258 . S
C109 O111 1.282 . S
O110 Cd102 2.277 . S
O110 C103 1.226 . S
O111 Cd102 2.356 . S
O111 C109 1.282 . S
C112 O113 1.306 . S
C112 O115 1.160 . S
O113 C112 1.306 . S
O113 Cd114 2.228 . S
Cd114 O113 2.228 . S
Cd114 O118 2.273 . S
Cd114 O122 2.277 . S
O115 C112 1.160 . S
O115 Cd116 2.203 . S
Cd116 O115 2.203 . S
Cd116 O118 2.411 . S
Cd116 O119 2.333 . S
Cd116 O120 2.352 1_545 S
Cd116 O124 2.277 . S
Cd116 O125 2.356 . S
C117 O122 1.209 . S
C117 O124 1.226 . S
O118 Cd114 2.273 . S
O118 Cd116 2.411 . S
O118 C121 1.320 . S
O119 Cd116 2.333 . S
O119 C121 1.214 . S
O120 Cd116 2.352 1_565 S
O120 C123 1.258 1_565 S
C121 O118 1.320 . S
C121 O119 1.214 . S
O122 Cd114 2.277 . S
O122 C117 1.209 . S
C123 O120 1.258 1_545 S
C123 O125 1.282 . S
O124 Cd116 2.277 . S
O124 C117 1.226 . S
O125 Cd116 2.356 . S
O125 C123 1.282 . S
C126 O127 1.306 . S
C126 O129 1.160 . S
O127 C126 1.306 . S
O127 Cd128 2.228 . S
Cd128 O127 2.228 . S
Cd128 O132 2.273 . S
Cd128 O136 2.277 . S
O129 C126 1.160 . S
O129 Cd130 2.203 . S
Cd130 O129 2.203 . S
Cd130 O132 2.411 . S
Cd130 O133 2.333 . S
Cd130 O134 2.352 . S
Cd130 O138 2.277 . S
Cd130 O139 2.356 . S
C131 O136 1.209 . S
C131 O138 1.226 . S
O132 Cd128 2.273 . S
O132 Cd130 2.411 . S
O132 C135 1.320 . S
O133 Cd130 2.333 . S
O133 C135 1.214 . S
O134 Cd130 2.352 . S
O134 C137 1.258 . S
C135 O132 1.320 . S
C135 O133 1.214 . S
O136 Cd128 2.277 . S
O136 C131 1.209 . S
C137 O134 1.258 . S
C137 O139 1.282 . S
O138 Cd130 2.277 . S
O138 C131 1.226 . S
O139 Cd130 2.356 . S
O139 C137 1.282 . S
C140 O141 1.306 . S
C140 O143 1.160 . S
O141 C140 1.306 . S
O141 Cd142 2.228 . S
Cd142 O141 2.228 . S
Cd142 O146 2.273 . S
Cd142 O150 2.277 . S
O143 C140 1.160 . S
O143 Cd144 2.203 . S
Cd144 O143 2.203 . S
Cd144 O146 2.411 . S
Cd144 O147 2.333 . S
Cd144 O148 2.352 . S
Cd144 O152 2.277 . S
Cd144 O153 2.356 . S
C145 O150 1.209 . S
C145 O152 1.226 . S
O146 Cd142 2.273 . S
O146 Cd144 2.411 . S
O146 C149 1.320 . S
O147 Cd144 2.333 . S
O147 C149 1.214 . S
O148 Cd144 2.352 . S
O148 C151 1.258 . S
C149 O146 1.320 . S
C149 O147 1.214 . S
O150 Cd142 2.277 . S
O150 C145 1.209 . S
C151 O148 1.258 . S
C151 O153 1.282 . S
O152 Cd144 2.277 . S
O152 C145 1.226 . S
O153 Cd144 2.356 . S
O153 C151 1.282 . S
C154 O155 1.306 . S
C154 O157 1.160 . S
O155 C154 1.306 . S
O155 Cd156 2.228 . S
Cd156 O155 2.228 . S
Cd156 O160 2.273 . S
Cd156 O164 2.277 . S
O157 C154 1.160 . S
O157 Cd158 2.203 . S
Cd158 O157 2.203 . S
Cd158 O160 2.411 . S
Cd158 O161 2.333 . S
Cd158 O162 2.352 . S
Cd158 O166 2.277 . S
Cd158 O167 2.356 . S
C159 O164 1.209 . S
C159 O166 1.226 . S
O160 Cd156 2.273 . S
O160 Cd158 2.411 . S
O160 C163 1.320 . S
O161 Cd158 2.333 . S
O161 C163 1.214 . S
O162 Cd158 2.352 . S
O162 C165 1.258 . S
C163 O160 1.320 . S
C163 O161 1.214 . S
O164 Cd156 2.277 . S
O164 C159 1.209 . S
C165 O162 1.258 . S
C165 O167 1.282 . S
O166 Cd158 2.277 . S
O166 C159 1.226 . S
O167 Cd158 2.356 . S
O167 C165 1.282 . S
C168 O169 1.306 . S
C168 O171 1.160 . S
O169 C168 1.306 . S
O169 Cd170 2.228 . S
Cd170 O169 2.228 . S
Cd170 O174 2.273 . S
Cd170 O178 2.277 . S
O171 C168 1.160 . S
O171 Cd172 2.203 . S
Cd172 O171 2.203 . S
Cd172 O174 2.411 . S
Cd172 O175 2.333 . S
Cd172 O176 2.352 1_565 S
Cd172 O180 2.277 . S
Cd172 O181 2.356 . S
C173 O178 1.209 . S
C173 O180 1.226 . S
O174 Cd170 2.273 . S
O174 Cd172 2.411 . S
O174 C177 1.320 . S
O175 Cd172 2.333 . S
O175 C177 1.214 . S
O176 Cd172 2.352 1_545 S
O176 C179 1.258 1_545 S
C177 O174 1.320 . S
C177 O175 1.214 . S
O178 Cd170 2.277 . S
O178 C173 1.209 . S
C179 O176 1.258 1_565 S
C179 O181 1.282 . S
O180 Cd172 2.277 . S
O180 C173 1.226 . S
O181 Cd172 2.356 . S
O181 C179 1.282 . S
C182 O183 1.306 . S
C182 O185 1.160 . S
O183 C182 1.306 . S
O183 Cd184 2.228 . S
Cd184 O183 2.228 . S
Cd184 O188 2.273 . S
Cd184 O192 2.277 . S
O185 C182 1.160 . S
O185 Cd186 2.203 . S
Cd186 O185 2.203 . S
Cd186 O188 2.411 . S
Cd186 O189 2.333 . S
Cd186 O190 2.352 . S
Cd186 O194 2.277 . S
Cd186 O195 2.356 . S
C187 O192 1.209 . S
C187 O194 1.226 . S
O188 Cd184 2.273 . S
O188 Cd186 2.411 . S
O188 C191 1.320 . S
O189 Cd186 2.333 . S
O189 C191 1.214 . S
O190 Cd186 2.352 . S
O190 C193 1.258 . S
C191 O188 1.320 . S
C191 O189 1.214 . S
O192 Cd184 2.277 . S
O192 C187 1.209 . S
C193 O190 1.258 . S
C193 O195 1.282 . S
O194 Cd186 2.277 . S
O194 C187 1.226 . S
O195 Cd186 2.356 . S
O195 C193 1.282 . S
C196 O197 1.306 . S
C196 O199 1.160 . S
O197 C196 1.306 . S
O197 Cd198 2.228 . S
Cd198 O197 2.228 . S
Cd198 O202 2.273 . S
Cd198 O206 2.277 . S
O199 C196 1.160 . S
O199 Cd200 2.203 . S
Cd200 O199 2.203 . S
Cd200 O202 2.411 . S
Cd200 O203 2.333 . S
Cd200 O204 2.352 . S
Cd200 O208 2.277 . S
Cd200 O209 2.356 . S
C201 O206 1.209 . S
C201 O208 1.226 . S
O202 Cd198 2.273 . S
O202 Cd200 2.411 . S
O202 C205 1.320 . S
O203 Cd200 2.333 . S
O203 C205 1.214 . S
O204 Cd200 2.352 . S
O204 C207 1.258 . S
C205 O202 1.320 . S
C205 O203 1.214 . S
O206 Cd198 2.277 . S
O206 C201 1.209 . S
C207 O204 1.258 . S
C207 O209 1.282 . S
O208 Cd200 2.277 . S
O208 C201 1.226 . S
O209 Cd200 2.356 . S
O209 C207 1.282 . S
C210 O211 1.306 . S
C210 O213 1.160 . S
O211 C210 1.306 . S
O211 Cd212 2.228 . S
Cd212 O211 2.228 . S
Cd212 O216 2.273 . S
Cd212 O220 2.277 . S
O213 C210 1.160 . S
O213 Cd214 2.203 . S
Cd214 O213 2.203 . S
Cd214 O216 2.411 . S
Cd214 O217 2.333 . S
Cd214 O218 2.352 . S
Cd214 O222 2.277 . S
Cd214 O223 2.356 . S
C215 O220 1.209 . S
C215 O222 1.226 . S
O216 Cd212 2.273 . S
O216 Cd214 2.411 . S
O216 C219 1.320 . S
O217 Cd214 2.333 . S
O217 C219 1.214 . S
O218 Cd214 2.352 . S
O218 C221 1.258 . S
C219 O216 1.320 . S
C219 O217 1.214 . S
O220 Cd212 2.277 . S
O220 C215 1.209 . S
C221 O218 1.258 . S
C221 O223 1.282 . S
O222 Cd214 2.277 . S
O222 C215 1.226 . S
O223 Cd214 2.356 . S
O223 C221 1.282 . S
C224 O225 1.306 . S
C224 O227 1.160 . S
O225 C224 1.306 . S
O225 Cd226 2.228 . S
Cd226 O225 2.228 . S
Cd226 O230 2.273 . S
Cd226 O234 2.277 . S
O227 C224 1.160 . S
O227 Cd228 2.203 . S
Cd228 O227 2.203 . S
Cd228 O230 2.411 . S
Cd228 O231 2.333 . S
Cd228 O232 2.352 1_554 S
Cd228 O236 2.277 . S
Cd228 O237 2.356 . S
C229 O234 1.209 . S
C229 O236 1.226 . S
O230 Cd226 2.273 . S
O230 Cd228 2.411 . S
O230 C233 1.320 . S
O231 Cd228 2.333 . S
O231 C233 1.214 . S
O232 Cd228 2.352 1_556 S
O232 C235 1.258 1_556 S
C233 O230 1.320 . S
C233 O231 1.214 . S
O234 Cd226 2.277 . S
O234 C229 1.209 . S
C235 O232 1.258 1_554 S
C235 O237 1.282 . S
O236 Cd228 2.277 . S
O236 C229 1.226 . S
O237 Cd228 2.356 . S
O237 C235 1.282 . S
C238 O239 1.306 . S
C238 O241 1.160 . S
O239 C238 1.306 . S
O239 Cd240 2.228 . S
Cd240 O239 2.228 . S
Cd240 O244 2.273 . S
Cd240 O248 2.277 . S
O241 C238 1.160 . S
O241 Cd242 2.203 . S
Cd242 O241 2.203 . S
Cd242 O244 2.411 . S
Cd242 O245 2.333 . S
Cd242 O246 2.352 . S
Cd242 O250 2.277 . S
Cd242 O251 2.356 . S
C243 O248 1.209 . S
C243 O250 1.226 . S
O244 Cd240 2.273 . S
O244 Cd242 2.411 . S
O244 C247 1.320 . S
O245 Cd242 2.333 . S
O245 C247 1.214 . S
O246 Cd242 2.352 . S
O246 C249 1.258 . S
C247 O244 1.320 . S
C247 O245 1.214 . S
O248 Cd240 2.277 . S
O248 C243 1.209 . S
C249 O246 1.258 . S
C249 O251 1.282 . S
O250 Cd242 2.277 . S
O250 C243 1.226 . S
O251 Cd242 2.356 . S
O251 C249 1.282 . S
C252 O253 1.306 . S
C252 O255 1.160 . S
O253 C252 1.306 . S
O253 Cd254 2.228 . S
Cd254 O253 2.228 . S
Cd254 O258 2.273 . S
Cd254 O262 2.277 . S
O255 C252 1.160 . S
O255 Cd256 2.203 . S
Cd256 O255 2.203 . S
Cd256 O258 2.411 . S
Cd256 O259 2.333 . S
Cd256 O260 2.352 . S
Cd256 O264 2.277 . S
Cd256 O265 2.356 . S
C257 O262 1.209 . S
C257 O264 1.226 . S
O258 Cd254 2.273 . S
O258 Cd256 2.411 . S
O258 C261 1.320 . S
O259 Cd256 2.333 . S
O259 C261 1.214 . S
O260 Cd256 2.352 . S
O260 C263 1.258 . S
C261 O258 1.320 . S
C261 O259 1.214 . S
O262 Cd254 2.277 . S
O262 C257 1.209 . S
C263 O260 1.258 . S
C263 O265 1.282 . S
O264 Cd256 2.277 . S
O264 C257 1.226 . S
O265 Cd256 2.356 . S
O265 C263 1.282 . S
C266 O267 1.306 . S
C266 O269 1.160 . S
O267 C266 1.306 . S
O267 Cd268 2.228 . S
Cd268 O267 2.228 . S
Cd268 O272 2.273 . S
Cd268 O276 2.277 . S
O269 C266 1.160 . S
O269 Cd270 2.203 . S
Cd270 O269 2.203 . S
Cd270 O272 2.411 . S
Cd270 O273 2.333 . S
Cd270 O274 2.352 1_556 S
Cd270 O278 2.277 . S
Cd270 O279 2.356 . S
C271 O276 1.209 . S
C271 O278 1.226 . S
O272 Cd268 2.273 . S
O272 Cd270 2.411 . S
O272 C275 1.320 . S
O273 Cd270 2.333 . S
O273 C275 1.214 . S
O274 Cd270 2.352 1_554 S
O274 C277 1.258 1_554 S
C275 O272 1.320 . S
C275 O273 1.214 . S
O276 Cd268 2.277 . S
O276 C271 1.209 . S
C277 O274 1.258 1_556 S
C277 O279 1.282 . S
O278 Cd270 2.277 . S
O278 C271 1.226 . S
O279 Cd270 2.356 . S
O279 C277 1.282 . S
C280 O281 1.306 . S
C280 O283 1.160 . S
O281 C280 1.306 . S
O281 Cd282 2.228 . S
Cd282 O281 2.228 . S
Cd282 O286 2.273 . S
Cd282 O290 2.277 . S
O283 C280 1.160 . S
O283 Cd284 2.203 . S
Cd284 O283 2.203 . S
Cd284 O286 2.411 . S
Cd284 O287 2.333 . S
Cd284 O288 2.352 . S
Cd284 O292 2.277 . S
Cd284 O293 2.356 . S
C285 O290 1.209 . S
C285 O292 1.226 . S
O286 Cd282 2.273 . S
O286 Cd284 2.411 . S
O286 C289 1.320 . S
O287 Cd284 2.333 . S
O287 C289 1.214 . S
O288 Cd284 2.352 . S
O288 C291 1.258 . S
C289 O286 1.320 . S
C289 O287 1.214 . S
O290 Cd282 2.277 . S
O290 C285 1.209 . S
C291 O288 1.258 . S
C291 O293 1.282 . S
O292 Cd284 2.277 . S
O292 C285 1.226 . S
O293 Cd284 2.356 . S
O293 C291 1.282 . S
C294 O295 1.306 . S
C294 O297 1.160 . S
O295 C294 1.306 . S
O295 Cd296 2.228 . S
Cd296 O295 2.228 . S
Cd296 O300 2.273 . S
Cd296 O304 2.277 . S
O297 C294 1.160 . S
O297 Cd298 2.203 . S
Cd298 O297 2.203 . S
Cd298 O300 2.411 . S
Cd298 O301 2.333 . S
Cd298 O302 2.352 1_554 S
Cd298 O306 2.277 . S
Cd298 O307 2.356 . S
C299 O304 1.209 . S
C299 O306 1.226 . S
O300 Cd296 2.273 . S
O300 Cd298 2.411 . S
O300 C303 1.320 . S
O301 Cd298 2.333 . S
O301 C303 1.214 . S
O302 Cd298 2.352 1_556 S
O302 C305 1.258 1_556 S
C303 O300 1.320 . S
C303 O301 1.214 . S
O304 Cd296 2.277 . S
O304 C299 1.209 . S
C305 O302 1.258 1_554 S
C305 O307 1.282 . S
O306 Cd298 2.277 . S
O306 C299 1.226 . S
O307 Cd298 2.356 . S
O307 C305 1.282 . S
C308 O309 1.306 . S
C308 O311 1.160 . S
O309 C308 1.306 . S
O309 Cd310 2.228 . S
Cd310 O309 2.228 . S
Cd310 O314 2.273 . S
Cd310 O318 2.277 . S
O311 C308 1.160 . S
O311 Cd312 2.203 . S
Cd312 O311 2.203 . S
Cd312 O314 2.411 . S
Cd312 O315 2.333 . S
Cd312 O316 2.352 . S
Cd312 O320 2.277 . S
Cd312 O321 2.356 . S
C313 O318 1.209 . S
C313 O320 1.226 . S
O314 Cd310 2.273 . S
O314 Cd312 2.411 . S
O314 C317 1.320 . S
O315 Cd312 2.333 . S
O315 C317 1.214 . S
O316 Cd312 2.352 . S
O316 C319 1.258 . S
C317 O314 1.320 . S
C317 O315 1.214 . S
O318 Cd310 2.277 . S
O318 C313 1.209 . S
C319 O316 1.258 . S
C319 O321 1.282 . S
O320 Cd312 2.277 . S
O320 C313 1.226 . S
O321 Cd312 2.356 . S
O321 C319 1.282 . S
C322 O323 1.306 . S
C322 O325 1.160 . S
O323 C322 1.306 . S
O323 Cd324 2.228 . S
Cd324 O323 2.228 . S
Cd324 O328 2.273 . S
Cd324 O332 2.277 . S
O325 C322 1.160 . S
O325 Cd326 2.203 . S
Cd326 O325 2.203 . S
Cd326 O328 2.411 . S
Cd326 O329 2.333 . S
Cd326 O330 2.352 . S
Cd326 O334 2.277 . S
Cd326 O335 2.356 . S
C327 O332 1.209 . S
C327 O334 1.226 . S
O328 Cd324 2.273 . S
O328 Cd326 2.411 . S
O328 C331 1.320 . S
O329 Cd326 2.333 . S
O329 C331 1.214 . S
O330 Cd326 2.352 . S
O330 C333 1.258 . S
C331 O328 1.320 . S
C331 O329 1.214 . S
O332 Cd324 2.277 . S
O332 C327 1.209 . S
C333 O330 1.258 . S
C333 O335 1.282 . S
O334 Cd326 2.277 . S
O334 C327 1.226 . S
O335 Cd326 2.356 . S
O335 C333 1.282 . S
C336 O337 1.306 . S
C336 O339 1.160 . S
O337 C336 1.306 . S
O337 Cd338 2.228 . S
Cd338 O337 2.228 . S
Cd338 O342 2.273 . S
Cd338 O346 2.277 . S
O339 C336 1.160 . S
O339 Cd340 2.203 . S
Cd340 O339 2.203 . S
Cd340 O342 2.411 . S
Cd340 O343 2.333 . S
Cd340 O344 2.352 1_455 S
Cd340 O348 2.277 . S
Cd340 O349 2.356 . S
C341 O346 1.209 . S
C341 O348 1.226 . S
O342 Cd338 2.273 . S
O342 Cd340 2.411 . S
O342 C345 1.320 . S
O343 Cd340 2.333 . S
O343 C345 1.214 . S
O344 Cd340 2.352 1_655 S
O344 C347 1.258 1_655 S
C345 O342 1.320 . S
C345 O343 1.214 . S
O346 Cd338 2.277 . S
O346 C341 1.209 . S
C347 O344 1.258 1_455 S
C347 O349 1.282 . S
O348 Cd340 2.277 . S
O348 C341 1.226 . S
O349 Cd340 2.356 . S
O349 C347 1.282 . S
C350 O351 1.306 . S
C350 O353 1.160 . S
O351 C350 1.306 . S
O351 Cd352 2.228 . S
Cd352 O351 2.228 . S
Cd352 O356 2.273 . S
Cd352 O360 2.277 . S
O353 C350 1.160 . S
O353 Cd354 2.203 . S
Cd354 O353 2.203 . S
Cd354 O356 2.411 . S
Cd354 O357 2.333 . S
Cd354 O358 2.352 . S
Cd354 O362 2.277 . S
Cd354 O363 2.356 . S
C355 O360 1.209 . S
C355 O362 1.226 . S
O356 Cd352 2.273 . S
O356 Cd354 2.411 . S
O356 C359 1.320 . S
O357 Cd354 2.333 . S
O357 C359 1.214 . S
O358 Cd354 2.352 . S
O358 C361 1.258 . S
C359 O356 1.320 . S
C359 O357 1.214 . S
O360 Cd352 2.277 . S
O360 C355 1.209 . S
C361 O358 1.258 . S
C361 O363 1.282 . S
O362 Cd354 2.277 . S
O362 C355 1.226 . S
O363 Cd354 2.356 . S
O363 C361 1.282 . S
C364 O365 1.306 . S
C364 O367 1.160 . S
O365 C364 1.306 . S
O365 Cd366 2.228 . S
Cd366 O365 2.228 . S
Cd366 O370 2.273 . S
Cd366 O374 2.277 . S
O367 C364 1.160 . S
O367 Cd368 2.203 . S
Cd368 O367 2.203 . S
Cd368 O370 2.411 . S
Cd368 O371 2.333 . S
Cd368 O372 2.352 1_655 S
Cd368 O376 2.277 . S
Cd368 O377 2.356 . S
C369 O374 1.209 . S
C369 O376 1.226 . S
O370 Cd366 2.273 . S
O370 Cd368 2.411 . S
O370 C373 1.320 . S
O371 Cd368 2.333 . S
O371 C373 1.214 . S
O372 Cd368 2.352 1_455 S
O372 C375 1.258 1_455 S
C373 O370 1.320 . S
C373 O371 1.214 . S
O374 Cd366 2.277 . S
O374 C369 1.209 . S
C375 O372 1.258 1_655 S
C375 O377 1.282 . S
O376 Cd368 2.277 . S
O376 C369 1.226 . S
O377 Cd368 2.356 . S
O377 C375 1.282 . S
C378 O379 1.306 . S
C378 O381 1.160 . S
O379 C378 1.306 . S
O379 Cd380 2.228 . S
Cd380 O379 2.228 . S
Cd380 O384 2.273 . S
Cd380 O388 2.277 . S
O381 C378 1.160 . S
O381 Cd382 2.203 . S
Cd382 O381 2.203 . S
Cd382 O384 2.411 . S
Cd382 O385 2.333 . S
Cd382 O386 2.352 . S
Cd382 O390 2.277 . S
Cd382 O391 2.356 . S
C383 O388 1.209 . S
C383 O390 1.226 . S
O384 Cd380 2.273 . S
O384 Cd382 2.411 . S
O384 C387 1.320 . S
O385 Cd382 2.333 . S
O385 C387 1.214 . S
O386 Cd382 2.352 . S
O386 C389 1.258 . S
C387 O384 1.320 . S
C387 O385 1.214 . S
O388 Cd380 2.277 . S
O388 C383 1.209 . S
C389 O386 1.258 . S
C389 O391 1.282 . S
O390 Cd382 2.277 . S
O390 C383 1.226 . S
O391 Cd382 2.356 . S
O391 C389 1.282 . S
C392 O393 1.306 . S
C392 O395 1.160 . S
O393 C392 1.306 . S
O393 Cd394 2.228 . S
Cd394 O393 2.228 . S
Cd394 O398 2.273 . S
Cd394 O402 2.277 . S
O395 C392 1.160 . S
O395 Cd396 2.203 . S
Cd396 O395 2.203 . S
Cd396 O398 2.411 . S
Cd396 O399 2.333 . S
Cd396 O400 2.352 1_455 S
Cd396 O404 2.277 . S
Cd396 O405 2.356 . S
C397 O402 1.209 . S
C397 O404 1.226 . S
O398 Cd394 2.273 . S
O398 Cd396 2.411 . S
O398 C401 1.320 . S
O399 Cd396 2.333 . S
O399 C401 1.214 . S
O400 Cd396 2.352 1_655 S
O400 C403 1.258 1_655 S
C401 O398 1.320 . S
C401 O399 1.214 . S
O402 Cd394 2.277 . S
O402 C397 1.209 . S
C403 O400 1.258 1_455 S
C403 O405 1.282 . S
O404 Cd396 2.277 . S
O404 C397 1.226 . S
O405 Cd396 2.356 . S
O405 C403 1.282 . S
C406 O407 1.306 . S
C406 O409 1.160 . S
O407 C406 1.306 . S
O407 Cd408 2.228 . S
Cd408 O407 2.228 . S
Cd408 O412 2.273 . S
Cd408 O416 2.277 . S
O409 C406 1.160 . S
O409 Cd410 2.203 . S
Cd410 O409 2.203 . S
Cd410 O412 2.411 . S
Cd410 O413 2.333 . S
Cd410 O414 2.352 . S
Cd410 O418 2.277 . S
Cd410 O419 2.356 . S
C411 O416 1.209 . S
C411 O418 1.226 . S
O412 Cd408 2.273 . S
O412 Cd410 2.411 . S
O412 C415 1.320 . S
O413 Cd410 2.333 . S
O413 C415 1.214 . S
O414 Cd410 2.352 . S
O414 C417 1.258 . S
C415 O412 1.320 . S
C415 O413 1.214 . S
O416 Cd408 2.277 . S
O416 C411 1.209 . S
C417 O414 1.258 . S
C417 O419 1.282 . S
O418 Cd410 2.277 . S
O418 C411 1.226 . S
O419 Cd410 2.356 . S
O419 C417 1.282 . S
C420 O421 1.306 . S
C420 O423 1.160 . S
O421 C420 1.306 . S
O421 Cd422 2.228 . S
Cd422 O421 2.228 . S
Cd422 O426 2.273 . S
Cd422 O430 2.277 . S
O423 C420 1.160 . S
O423 Cd424 2.203 . S
Cd424 O423 2.203 . S
Cd424 O426 2.411 . S
Cd424 O427 2.333 . S
Cd424 O428 2.352 1_655 S
Cd424 O432 2.277 . S
Cd424 O433 2.356 . S
C425 O430 1.209 . S
C425 O432 1.226 . S
O426 Cd422 2.273 . S
O426 Cd424 2.411 . S
O426 C429 1.320 . S
O427 Cd424 2.333 . S
O427 C429 1.214 . S
O428 Cd424 2.352 1_455 S
O428 C431 1.258 1_455 S
C429 O426 1.320 . S
C429 O427 1.214 . S
O430 Cd422 2.277 . S
O430 C425 1.209 . S
C431 O428 1.258 1_655 S
C431 O433 1.282 . S
O432 Cd424 2.277 . S
O432 C425 1.226 . S
O433 Cd424 2.356 . S
O433 C431 1.282 . S
C434 O435 1.306 . S
C434 O437 1.160 . S
O435 C434 1.306 . S
O435 Cd436 2.228 . S
Cd436 O435 2.228 . S
Cd436 O440 2.273 . S
Cd436 O444 2.277 . S
O437 C434 1.160 . S
O437 Cd438 2.203 . S
Cd438 O437 2.203 . S
Cd438 O440 2.411 . S
Cd438 O441 2.333 . S
Cd438 O442 2.352 . S
Cd438 O446 2.277 . S
Cd438 O447 2.356 . S
C439 O444 1.209 . S
C439 O446 1.226 . S
O440 Cd436 2.273 . S
O440 Cd438 2.411 . S
O440 C443 1.320 . S
O441 Cd438 2.333 . S
O441 C443 1.214 . S
O442 Cd438 2.352 . S
O442 C445 1.258 . S
C443 O440 1.320 . S
C443 O441 1.214 . S
O444 Cd436 2.277 . S
O444 C439 1.209 . S
C445 O442 1.258 . S
C445 O447 1.282 . S
O446 Cd438 2.277 . S
O446 C439 1.226 . S
O447 Cd438 2.356 . S
O447 C445 1.282 . S
C448 O449 1.306 . S
C448 O451 1.160 . S
O449 C448 1.306 . S
O449 Cd450 2.228 . S
Cd450 O449 2.228 . S
Cd450 O454 2.273 . S
Cd450 O458 2.277 . S
O451 C448 1.160 . S
O451 Cd452 2.203 . S
Cd452 O451 2.203 . S
Cd452 O454 2.411 . S
Cd452 O455 2.333 . S
Cd452 O456 2.352 . S
Cd452 O460 2.277 . S
Cd452 O461 2.356 . S
C453 O458 1.209 . S
C453 O460 1.226 . S
O454 Cd450 2.273 . S
O454 Cd452 2.411 . S
O454 C457 1.320 . S
O455 Cd452 2.333 . S
O455 C457 1.214 . S
O456 Cd452 2.352 . S
O456 C459 1.258 . S
C457 O454 1.320 . S
C457 O455 1.214 . S
O458 Cd450 2.277 . S
O458 C453 1.209 . S
C459 O456 1.258 . S
C459 O461 1.282 . S
O460 Cd452 2.277 . S
O460 C453 1.226 . S
O461 Cd452 2.356 . S
O461 C459 1.282 . S
C462 O463 1.306 . S
C462 O465 1.160 . S
O463 C462 1.306 . S
O463 Cd464 2.228 . S
Cd464 O463 2.228 . S
Cd464 O468 2.273 . S
Cd464 O472 2.277 . S
O465 C462 1.160 . S
O465 Cd466 2.203 . S
Cd466 O465 2.203 . S
Cd466 O468 2.411 . S
Cd466 O469 2.333 . S
Cd466 O470 2.352 . S
Cd466 O474 2.277 . S
Cd466 O475 2.356 . S
C467 O472 1.209 . S
C467 O474 1.226 . S
O468 Cd464 2.273 . S
O468 Cd466 2.411 . S
O468 C471 1.320 . S
O469 Cd466 2.333 . S
O469 C471 1.214 . S
O470 Cd466 2.352 . S
O470 C473 1.258 . S
C471 O468 1.320 . S
C471 O469 1.214 . S
O472 Cd464 2.277 . S
O472 C467 1.209 . S
C473 O470 1.258 . S
C473 O475 1.282 . S
O474 Cd466 2.277 . S
O474 C467 1.226 . S
O475 Cd466 2.356 . S
O475 C473 1.282 . S
C476 O477 1.306 . S
C476 O479 1.160 . S
O477 C476 1.306 . S
O477 Cd478 2.228 . S
Cd478 O477 2.228 . S
Cd478 O482 2.273 . S
Cd478 O486 2.277 . S
O479 C476 1.160 . S
O479 Cd480 2.203 . S
Cd480 O479 2.203 . S
Cd480 O482 2.411 . S
Cd480 O483 2.333 . S
Cd480 O484 2.352 1_565 S
Cd480 O488 2.277 . S
Cd480 O489 2.356 . S
C481 O486 1.209 . S
C481 O488 1.226 . S
O482 Cd478 2.273 . S
O482 Cd480 2.411 . S
O482 C485 1.320 . S
O483 Cd480 2.333 . S
O483 C485 1.214 . S
O484 Cd480 2.352 1_545 S
O484 C487 1.258 1_545 S
C485 O482 1.320 . S
C485 O483 1.214 . S
O486 Cd478 2.277 . S
O486 C481 1.209 . S
C487 O484 1.258 1_565 S
C487 O489 1.282 . S
O488 Cd480 2.277 . S
O488 C481 1.226 . S
O489 Cd480 2.356 . S
O489 C487 1.282 . S
C490 O491 1.306 . S
C490 O493 1.160 . S
O491 C490 1.306 . S
O491 Cd492 2.228 . S
Cd492 O491 2.228 . S
Cd492 O496 2.273 . S
Cd492 O500 2.277 . S
O493 C490 1.160 . S
O493 Cd494 2.203 . S
Cd494 O493 2.203 . S
Cd494 O496 2.411 . S
Cd494 O497 2.333 . S
Cd494 O498 2.352 . S
Cd494 O502 2.277 . S
Cd494 O503 2.356 . S
C495 O500 1.209 . S
C495 O502 1.226 . S
O496 Cd492 2.273 . S
O496 Cd494 2.411 . S
O496 C499 1.320 . S
O497 Cd494 2.333 . S
O497 C499 1.214 . S
O498 Cd494 2.352 . S
O498 C501 1.258 . S
C499 O496 1.320 . S
C499 O497 1.214 . S
O500 Cd492 2.277 . S
O500 C495 1.209 . S
C501 O498 1.258 . S
C501 O503 1.282 . S
O502 Cd494 2.277 . S
O502 C495 1.226 . S
O503 Cd494 2.356 . S
O503 C501 1.282 . S
C504 O505 1.306 . S
C504 O507 1.160 . S
O505 C504 1.306 . S
O505 Cd506 2.228 . S
Cd506 O505 2.228 . S
Cd506 O510 2.273 . S
Cd506 O514 2.277 . S
O507 C504 1.160 . S
O507 Cd508 2.203 . S
Cd508 O507 2.203 . S
Cd508 O510 2.411 . S
Cd508 O511 2.333 . S
Cd508 O512 2.352 . S
Cd508 O516 2.277 . S
Cd508 O517 2.356 . S
C509 O514 1.209 . S
C509 O516 1.226 . S
O510 Cd506 2.273 . S
O510 Cd508 2.411 . S
O510 C513 1.320 . S
O511 Cd508 2.333 . S
O511 C513 1.214 . S
O512 Cd508 2.352 . S
O512 C515 1.258 . S
C513 O510 1.320 . S
C513 O511 1.214 . S
O514 Cd506 2.277 . S
O514 C509 1.209 . S
C515 O512 1.258 . S
C515 O517 1.282 . S
O516 Cd508 2.277 . S
O516 C509 1.226 . S
O517 Cd508 2.356 . S
O517 C515 1.282 . S
C518 O519 1.306 . S
C518 O521 1.160 . S
O519 C518 1.306 . S
O519 Cd520 2.228 . S
Cd520 O519 2.228 . S
Cd520 O524 2.273 . S
Cd520 O528 2.277 . S
O521 C518 1.160 . S
O521 Cd522 2.203 . S
Cd522 O521 2.203 . S
Cd522 O524 2.411 . S
Cd522 O525 2.333 . S
Cd522 O526 2.352 . S
Cd522 O530 2.277 . S
Cd522 O531 2.356 . S
C523 O528 1.209 . S
C523 O530 1.226 . S
O524 Cd520 2.273 . S
O524 Cd522 2.411 . S
O524 C527 1.320 . S
O525 Cd522 2.333 . S
O525 C527 1.214 . S
O526 Cd522 2.352 . S
O526 C529 1.258 . S
C527 O524 1.320 . S
C527 O525 1.214 . S
O528 Cd520 2.277 . S
O528 C523 1.209 . S
C529 O526 1.258 . S
C529 O531 1.282 . S
O530 Cd522 2.277 . S
O530 C523 1.226 . S
O531 Cd522 2.356 . S
O531 C529 1.282 . S
C532 O533 1.306 . S
C532 O535 1.160 . S
O533 C532 1.306 . S
O533 Cd534 2.228 . S
Cd534 O533 2.228 . S
Cd534 O538 2.273 . S
Cd534 O542 2.277 . S
O535 C532 1.160 . S
O535 Cd536 2.203 . S
Cd536 O535 2.203 . S
Cd536 O538 2.411 . S
Cd536 O539 2.333 . S
Cd536 O540 2.352 1_545 S
Cd536 O544 2.277 . S
Cd536 O545 2.356 . S
C537 O542 1.209 . S
C537 O544 1.226 . S
O538 Cd534 2.273 . S
O538 Cd536 2.411 . S
O538 C541 1.320 . S
O539 Cd536 2.333 . S
O539 C541 1.214 . S
O540 Cd536 2.352 1_565 S
O540 C543 1.258 1_565 S
C541 O538 1.320 . S
C541 O539 1.214 . S
O542 Cd534 2.277 . S
O542 C537 1.209 . S
C543 O540 1.258 1_545 S
C543 O545 1.282 . S
O544 Cd536 2.277 . S
O544 C537 1.226 . S
O545 Cd536 2.356 . S
O545 C543 1.282 . S
C546 O547 1.306 . S
C546 O549 1.160 . S
O547 C546 1.306 . S
O547 Cd548 2.228 . S
Cd548 O547 2.228 . S
Cd548 O552 2.273 . S
Cd548 O556 2.277 . S
O549 C546 1.160 . S
O549 Cd550 2.203 . S
Cd550 O549 2.203 . S
Cd550 O552 2.411 . S
Cd550 O553 2.333 . S
Cd550 O554 2.352 . S
Cd550 O558 2.277 . S
Cd550 O559 2.356 . S
C551 O556 1.209 . S
C551 O558 1.226 . S
O552 Cd548 2.273 . S
O552 Cd550 2.411 . S
O552 C555 1.320 . S
O553 Cd550 2.333 . S
O553 C555 1.214 . S
O554 Cd550 2.352 . S
O554 C557 1.258 . S
C555 O552 1.320 . S
C555 O553 1.214 . S
O556 Cd548 2.277 . S
O556 C551 1.209 . S
C557 O554 1.258 . S
C557 O559 1.282 . S
O558 Cd550 2.277 . S
O558 C551 1.226 . S
O559 Cd550 2.356 . S
O559 C557 1.282 . S
C560 O561 1.306 . S
C560 O563 1.160 . S
O561 C560 1.306 . S
O561 Cd562 2.228 . S
Cd562 O561 2.228 . S
Cd562 O566 2.273 . S
Cd562 O570 2.277 . S
O563 C560 1.160 . S
O563 Cd564 2.203 . S
Cd564 O563 2.203 . S
Cd564 O566 2.411 . S
Cd564 O567 2.333 . S
Cd564 O568 2.352 . S
Cd564 O572 2.277 . S
Cd564 O573 2.356 . S
C565 O570 1.209 . S
C565 O572 1.226 . S
O566 Cd562 2.273 . S
O566 Cd564 2.411 . S
O566 C569 1.320 . S
O567 Cd564 2.333 . S
O567 C569 1.214 . S
O568 Cd564 2.352 . S
O568 C571 1.258 . S
C569 O566 1.320 . S
C569 O567 1.214 . S
O570 Cd562 2.277 . S
O570 C565 1.209 . S
C571 O568 1.258 . S
C571 O573 1.282 . S
O572 Cd564 2.277 . S
O572 C565 1.226 . S
O573 Cd564 2.356 . S
O573 C571 1.282 . S
C574 O575 1.306 . S
C574 O577 1.160 . S
O575 C574 1.306 . S
O575 Cd576 2.228 . S
Cd576 O575 2.228 . S
Cd576 O580 2.273 . S
Cd576 O584 2.277 . S
O577 C574 1.160 . S
O577 Cd578 2.203 . S
Cd578 O577 2.203 . S
Cd578 O580 2.411 . S
Cd578 O581 2.333 . S
Cd578 O582 2.352 1_556 S
Cd578 O586 2.277 . S
Cd578 O587 2.356 . S
C579 O584 1.209 . S
C579 O586 1.226 . S
O580 Cd576 2.273 . S
O580 Cd578 2.411 . S
O580 C583 1.320 . S
O581 Cd578 2.333 . S
O581 C583 1.214 . S
O582 Cd578 2.352 1_554 S
O582 C585 1.258 1_554 S
C583 O580 1.320 . S
C583 O581 1.214 . S
O584 Cd576 2.277 . S
O584 C579 1.209 . S
C585 O582 1.258 1_556 S
C585 O587 1.282 . S
O586 Cd578 2.277 . S
O586 C579 1.226 . S
O587 Cd578 2.356 . S
O587 C585 1.282 . S
C588 O589 1.306 . S
C588 O591 1.160 . S
O589 C588 1.306 . S
O589 Cd590 2.228 . S
Cd590 O589 2.228 . S
Cd590 O594 2.273 . S
Cd590 O598 2.277 . S
O591 C588 1.160 . S
O591 Cd592 2.203 . S
Cd592 O591 2.203 . S
Cd592 O594 2.411 . S
Cd592 O595 2.333 . S
Cd592 O596 2.352 . S
Cd592 O600 2.277 . S
Cd592 O601 2.356 . S
C593 O598 1.209 . S
C593 O600 1.226 . S
O594 Cd590 2.273 . S
O594 Cd592 2.411 . S
O594 C597 1.320 . S
O595 Cd592 2.333 . S
O595 C597 1.214 . S
O596 Cd592 2.352 . S
O596 C599 1.258 . S
C597 O594 1.320 . S
C597 O595 1.214 . S
O598 Cd590 2.277 . S
O598 C593 1.209 . S
C599 O596 1.258 . S
C599 O601 1.282 . S
O600 Cd592 2.277 . S
O600 C593 1.226 . S
O601 Cd592 2.356 . S
O601 C599 1.282 . S
C602 O603 1.306 . S
C602 O605 1.160 . S
O603 C602 1.306 . S
O603 Cd604 2.228 . S
Cd604 O603 2.228 . S
Cd604 O608 2.273 . S
Cd604 O612 2.277 . S
O605 C602 1.160 . S
O605 Cd606 2.203 . S
Cd606 O605 2.203 . S
Cd606 O608 2.411 . S
Cd606 O609 2.333 . S
Cd606 O610 2.352 . S
Cd606 O614 2.277 . S
Cd606 O615 2.356 . S
C607 O612 1.209 . S
C607 O614 1.226 . S
O608 Cd604 2.273 . S
O608 Cd606 2.411 . S
O608 C611 1.320 . S
O609 Cd606 2.333 . S
O609 C611 1.214 . S
O610 Cd606 2.352 . S
O610 C613 1.258 . S
C611 O608 1.320 . S
C611 O609 1.214 . S
O612 Cd604 2.277 . S
O612 C607 1.209 . S
C613 O610 1.258 . S
C613 O615 1.282 . S
O614 Cd606 2.277 . S
O614 C607 1.226 . S
O615 Cd606 2.356 . S
O615 C613 1.282 . S
C616 O617 1.306 . S
C616 O619 1.160 . S
O617 C616 1.306 . S
O617 Cd618 2.228 . S
Cd618 O617 2.228 . S
Cd618 O622 2.273 . S
Cd618 O626 2.277 . S
O619 C616 1.160 . S
O619 Cd620 2.203 . S
Cd620 O619 2.203 . S
Cd620 O622 2.411 . S
Cd620 O623 2.333 . S
Cd620 O624 2.352 . S
Cd620 O628 2.277 . S
Cd620 O629 2.356 . S
C621 O626 1.209 . S
C621 O628 1.226 . S
O622 Cd618 2.273 . S
O622 Cd620 2.411 . S
O622 C625 1.320 . S
O623 Cd620 2.333 . S
O623 C625 1.214 . S
O624 Cd620 2.352 . S
O624 C627 1.258 . S
C625 O622 1.320 . S
C625 O623 1.214 . S
O626 Cd618 2.277 . S
O626 C621 1.209 . S
C627 O624 1.258 . S
C627 O629 1.282 . S
O628 Cd620 2.277 . S
O628 C621 1.226 . S
O629 Cd620 2.356 . S
O629 C627 1.282 . S
C630 O631 1.306 . S
C630 O633 1.160 . S
O631 C630 1.306 . S
O631 Cd632 2.228 . S
Cd632 O631 2.228 . S
Cd632 O636 2.273 . S
Cd632 O640 2.277 . S
O633 C630 1.160 . S
O633 Cd634 2.203 . S
Cd634 O633 2.203 . S
Cd634 O636 2.411 . S
Cd634 O637 2.333 . S
Cd634 O638 2.352 . S
Cd634 O642 2.277 . S
Cd634 O643 2.356 . S
C635 O640 1.209 . S
C635 O642 1.226 . S
O636 Cd632 2.273 . S
O636 Cd634 2.411 . S
O636 C639 1.320 . S
O637 Cd634 2.333 . S
O637 C639 1.214 . S
O638 Cd634 2.352 . S
O638 C641 1.258 . S
C639 O636 1.320 . S
C639 O637 1.214 . S
O640 Cd632 2.277 . S
O640 C635 1.209 . S
C641 O638 1.258 . S
C641 O643 1.282 . S
O642 Cd634 2.277 . S
O642 C635 1.226 . S
O643 Cd634 2.356 . S
O643 C641 1.282 . S
C644 O645 1.306 . S
C644 O647 1.160 . S
O645 C644 1.306 . S
O645 Cd646 2.228 . S
Cd646 O645 2.228 . S
Cd646 O650 2.273 . S
Cd646 O654 2.277 . S
O647 C644 1.160 . S
O647 Cd648 2.203 . S
Cd648 O647 2.203 . S
Cd648 O650 2.411 . S
Cd648 O651 2.333 . S
Cd648 O652 2.352 . S
Cd648 O656 2.277 . S
Cd648 O657 2.356 . S
C649 O654 1.209 . S
C649 O656 1.226 . S
O650 Cd646 2.273 . S
O650 Cd648 2.411 . S
O650 C653 1.320 . S
O651 Cd648 2.333 . S
O651 C653 1.214 . S
O652 Cd648 2.352 . S
O652 C655 1.258 . S
C653 O650 1.320 . S
C653 O651 1.214 . S
O654 Cd646 2.277 . S
O654 C649 1.209 . S
C655 O652 1.258 . S
C655 O657 1.282 . S
O656 Cd648 2.277 . S
O656 C649 1.226 . S
O657 Cd648 2.356 . S
O657 C655 1.282 . S
C658 O659 1.306 . S
C658 O661 1.160 . S
O659 C658 1.306 . S
O659 Cd660 2.228 . S
Cd660 O659 2.228 . S
Cd660 O664 2.273 . S
Cd660 O668 2.277 . S
O661 C658 1.160 . S
O661 Cd662 2.203 . S
Cd662 O661 2.203 . S
Cd662 O664 2.411 . S
Cd662 O665 2.333 . S
Cd662 O666 2.352 . S
Cd662 O670 2.277 . S
Cd662 O671 2.356 . S
C663 O668 1.209 . S
C663 O670 1.226 . S
O664 Cd660 2.273 . S
O664 Cd662 2.411 . S
O664 C667 1.320 . S
O665 Cd662 2.333 . S
O665 C667 1.214 . S
O666 Cd662 2.352 . S
O666 C669 1.258 . S
C667 O664 1.320 . S
C667 O665 1.214 . S
O668 Cd660 2.277 . S
O668 C663 1.209 . S
C669 O666 1.258 . S
C669 O671 1.282 . S
O670 Cd662 2.277 . S
O670 C663 1.226 . S
O671 Cd662 2.356 . S
O671 C669 1.282 . S
C672 O673 1.306 . S
C672 O675 1.160 . S
O673 C672 1.306 . S
O673 Cd674 2.228 . S
Cd674 O673 2.228 . S
Cd674 O678 2.273 . S
Cd674 O682 2.277 . S
O675 C672 1.160 . S
O675 Cd676 2.203 . S
Cd676 O675 2.203 . S
Cd676 O678 2.411 . S
Cd676 O679 2.333 . S
Cd676 O680 2.352 . S
Cd676 O684 2.277 . S
Cd676 O685 2.356 . S
C677 O682 1.209 . S
C677 O684 1.226 . S
O678 Cd674 2.273 . S
O678 Cd676 2.411 . S
O678 C681 1.320 . S
O679 Cd676 2.333 . S
O679 C681 1.214 . S
O680 Cd676 2.352 . S
O680 C683 1.258 . S
C681 O678 1.320 . S
C681 O679 1.214 . S
O682 Cd674 2.277 . S
O682 C677 1.209 . S
C683 O680 1.258 . S
C683 O685 1.282 . S
O684 Cd676 2.277 . S
O684 C677 1.226 . S
O685 Cd676 2.356 . S
O685 C683 1.282 . S
C686 O687 1.306 . S
C686 O689 1.160 . S
O687 C686 1.306 . S
O687 Cd688 2.228 . S
Cd688 O687 2.228 . S
Cd688 O692 2.273 . S
Cd688 O696 2.277 . S
O689 C686 1.160 . S
O689 Cd690 2.203 . S
Cd690 O689 2.203 . S
Cd690 O692 2.411 . S
Cd690 O693 2.333 . S
Cd690 O694 2.352 . S
Cd690 O698 2.277 . S
Cd690 O699 2.356 . S
C691 O696 1.209 . S
C691 O698 1.226 . S
O692 Cd688 2.273 . S
O692 Cd690 2.411 . S
O692 C695 1.320 . S
O693 Cd690 2.333 . S
O693 C695 1.214 . S
O694 Cd690 2.352 . S
O694 C697 1.258 . S
C695 O692 1.320 . S
C695 O693 1.214 . S
O696 Cd688 2.277 . S
O696 C691 1.209 . S
C697 O694 1.258 . S
C697 O699 1.282 . S
O698 Cd690 2.277 . S
O698 C691 1.226 . S
O699 Cd690 2.356 . S
O699 C697 1.282 . S
C700 O701 1.306 . S
C700 O703 1.160 . S
O701 C700 1.306 . S
O701 Cd702 2.228 . S
Cd702 O701 2.228 . S
Cd702 O706 2.273 . S
Cd702 O710 2.277 . S
O703 C700 1.160 . S
O703 Cd704 2.203 . S
Cd704 O703 2.203 . S
Cd704 O706 2.411 . S
Cd704 O707 2.333 . S
Cd704 O708 2.352 . S
Cd704 O712 2.277 . S
Cd704 O713 2.356 . S
C705 O710 1.209 . S
C705 O712 1.226 . S
O706 Cd702 2.273 . S
O706 Cd704 2.411 . S
O706 C709 1.320 . S
O707 Cd704 2.333 . S
O707 C709 1.214 . S
O708 Cd704 2.352 . S
O708 C711 1.258 . S
C709 O706 1.320 . S
C709 O707 1.214 . S
O710 Cd702 2.277 . S
O710 C705 1.209 . S
C711 O708 1.258 . S
C711 O713 1.282 . S
O712 Cd704 2.277 . S
O712 C705 1.226 . S
O713 Cd704 2.356 . S
O713 C711 1.282 . S
C714 O715 1.306 . S
C714 O717 1.160 . S
O715 C714 1.306 . S
O715 Cd716 2.228 . S
Cd716 O715 2.228 . S
Cd716 O720 2.273 . S
Cd716 O724 2.277 . S
O717 C714 1.160 . S
O717 Cd718 2.203 . S
Cd718 O717 2.203 . S
Cd718 O720 2.411 . S
Cd718 O721 2.333 . S
Cd718 O722 2.352 . S
Cd718 O726 2.277 . S
Cd718 O727 2.356 . S
C719 O724 1.209 . S
C719 O726 1.226 . S
O720 Cd716 2.273 . S
O720 Cd718 2.411 . S
O720 C723 1.320 . S
O721 Cd718 2.333 . S
O721 C723 1.214 . S
O722 Cd718 2.352 . S
O722 C725 1.258 . S
C723 O720 1.320 . S
C723 O721 1.214 . S
O724 Cd716 2.277 . S
O724 C719 1.209 . S
C725 O722 1.258 . S
C725 O727 1.282 . S
O726 Cd718 2.277 . S
O726 C719 1.226 . S
O727 Cd718 2.356 . S
O727 C725 1.282 . S
C728 O729 1.306 . S
C728 O731 1.160 . S
O729 C728 1.306 . S
O729 Cd730 2.228 . S
Cd730 O729 2.228 . S
Cd730 O734 2.273 . S
Cd730 O738 2.277 . S
O731 C728 1.160 . S
O731 Cd732 2.203 . S
Cd732 O731 2.203 . S
Cd732 O734 2.411 . S
Cd732 O735 2.333 . S
Cd732 O736 2.352 . S
Cd732 O740 2.277 . S
Cd732 O741 2.356 . S
C733 O738 1.209 . S
C733 O740 1.226 . S
O734 Cd730 2.273 . S
O734 Cd732 2.411 . S
O734 C737 1.320 . S
O735 Cd732 2.333 . S
O735 C737 1.214 . S
O736 Cd732 2.352 . S
O736 C739 1.258 . S
C737 O734 1.320 . S
C737 O735 1.214 . S
O738 Cd730 2.277 . S
O738 C733 1.209 . S
C739 O736 1.258 . S
C739 O741 1.282 . S
O740 Cd732 2.277 . S
O740 C733 1.226 . S
O741 Cd732 2.356 . S
O741 C739 1.282 . S
C742 O743 1.306 . S
C742 O745 1.160 . S
O743 C742 1.306 . S
O743 Cd744 2.228 . S
Cd744 O743 2.228 . S
Cd744 O748 2.273 . S
Cd744 O752 2.277 . S
O745 C742 1.160 . S
O745 Cd746 2.203 . S
Cd746 O745 2.203 . S
Cd746 O748 2.411 . S
Cd746 O749 2.333 . S
Cd746 O750 2.352 . S
Cd746 O754 2.277 . S
Cd746 O755 2.356 . S
C747 O752 1.209 . S
C747 O754 1.226 . S
O748 Cd744 2.273 . S
O748 Cd746 2.411 . S
O748 C751 1.320 . S
O749 Cd746 2.333 . S
O749 C751 1.214 . S
O750 Cd746 2.352 . S
O750 C753 1.258 . S
C751 O748 1.320 . S
C751 O749 1.214 . S
O752 Cd744 2.277 . S
O752 C747 1.209 . S
C753 O750 1.258 . S
C753 O755 1.282 . S
O754 Cd746 2.277 . S
O754 C747 1.226 . S
O755 Cd746 2.356 . S
O755 C753 1.282 . S
C756 O757 1.306 . S
C756 O759 1.160 . S
O757 C756 1.306 . S
O757 Cd758 2.228 . S
Cd758 O757 2.228 . S
Cd758 O762 2.273 . S
Cd758 O766 2.277 . S
O759 C756 1.160 . S
O759 Cd760 2.203 . S
Cd760 O759 2.203 . S
Cd760 O762 2.411 . S
Cd760 O763 2.333 . S
Cd760 O764 2.352 . S
Cd760 O768 2.277 . S
Cd760 O769 2.356 . S
C761 O766 1.209 . S
C761 O768 1.226 . S
O762 Cd758 2.273 . S
O762 Cd760 2.411 . S
O762 C765 1.320 . S
O763 Cd760 2.333 . S
O763 C765 1.214 . S
O764 Cd760 2.352 . S
O764 C767 1.258 . S
C765 O762 1.320 . S
C765 O763 1.214 . S
O766 Cd758 2.277 . S
O766 C761 1.209 . S
C767 O764 1.258 . S
C767 O769 1.282 . S
O768 Cd760 2.277 . S
O768 C761 1.226 . S
O769 Cd760 2.356 . S
O769 C767 1.282 . S
C770 O771 1.306 . S
C770 O773 1.160 . S
O771 C770 1.306 . S
O771 Cd772 2.228 . S
Cd772 O771 2.228 . S
Cd772 O776 2.273 . S
Cd772 O780 2.277 . S
O773 C770 1.160 . S
O773 Cd774 2.203 . S
Cd774 O773 2.203 . S
Cd774 O776 2.411 . S
Cd774 O777 2.333 . S
Cd774 O778 2.352 . S
Cd774 O782 2.277 . S
Cd774 O783 2.356 . S
C775 O780 1.209 . S
C775 O782 1.226 . S
O776 Cd772 2.273 . S
O776 Cd774 2.411 . S
O776 C779 1.320 . S
O777 Cd774 2.333 . S
O777 C779 1.214 . S
O778 Cd774 2.352 . S
O778 C781 1.258 . S
C779 O776 1.320 . S
C779 O777 1.214 . S
O780 Cd772 2.277 . S
O780 C775 1.209 . S
C781 O778 1.258 . S
C781 O783 1.282 . S
O782 Cd774 2.277 . S
O782 C775 1.226 . S
O783 Cd774 2.356 . S
O783 C781 1.282 . S
C784 O785 1.306 . S
C784 O787 1.160 . S
O785 C784 1.306 . S
O785 Cd786 2.228 . S
Cd786 O785 2.228 . S
Cd786 O790 2.273 . S
Cd786 O794 2.277 . S
O787 C784 1.160 . S
O787 Cd788 2.203 . S
Cd788 O787 2.203 . S
Cd788 O790 2.411 . S
Cd788 O791 2.333 . S
Cd788 O792 2.352 1_545 S
Cd788 O796 2.277 . S
Cd788 O797 2.356 . S
C789 O794 1.209 . S
C789 O796 1.226 . S
O790 Cd786 2.273 . S
O790 Cd788 2.411 . S
O790 C793 1.320 . S
O791 Cd788 2.333 . S
O791 C793 1.214 . S
O792 Cd788 2.352 1_565 S
O792 C795 1.258 1_565 S
C793 O790 1.320 . S
C793 O791 1.214 . S
O794 Cd786 2.277 . S
O794 C789 1.209 . S
C795 O792 1.258 1_545 S
C795 O797 1.282 . S
O796 Cd788 2.277 . S
O796 C789 1.226 . S
O797 Cd788 2.356 . S
O797 C795 1.282 . S
C798 O799 1.306 . S
C798 O801 1.160 . S
O799 C798 1.306 . S
O799 Cd800 2.228 . S
Cd800 O799 2.228 . S
Cd800 O804 2.273 . S
Cd800 O808 2.277 . S
O801 C798 1.160 . S
O801 Cd802 2.203 . S
Cd802 O801 2.203 . S
Cd802 O804 2.411 . S
Cd802 O805 2.333 . S
Cd802 O806 2.352 . S
Cd802 O810 2.277 . S
Cd802 O811 2.356 . S
C803 O808 1.209 . S
C803 O810 1.226 . S
O804 Cd800 2.273 . S
O804 Cd802 2.411 . S
O804 C807 1.320 . S
O805 Cd802 2.333 . S
O805 C807 1.214 . S
O806 Cd802 2.352 . S
O806 C809 1.258 . S
C807 O804 1.320 . S
C807 O805 1.214 . S
O808 Cd800 2.277 . S
O808 C803 1.209 . S
C809 O806 1.258 . S
C809 O811 1.282 . S
O810 Cd802 2.277 . S
O810 C803 1.226 . S
O811 Cd802 2.356 . S
O811 C809 1.282 . S
C812 O813 1.306 . S
C812 O815 1.160 . S
O813 C812 1.306 . S
O813 Cd814 2.228 . S
Cd814 O813 2.228 . S
Cd814 O818 2.273 . S
Cd814 O822 2.277 . S
O815 C812 1.160 . S
O815 Cd816 2.203 . S
Cd816 O815 2.203 . S
Cd816 O818 2.411 . S
Cd816 O819 2.333 . S
Cd816 O820 2.352 . S
Cd816 O824 2.277 . S
Cd816 O825 2.356 . S
C817 O822 1.209 . S
C817 O824 1.226 . S
O818 Cd814 2.273 . S
O818 Cd816 2.411 . S
O818 C821 1.320 . S
O819 Cd816 2.333 . S
O819 C821 1.214 . S
O820 Cd816 2.352 . S
O820 C823 1.258 . S
C821 O818 1.320 . S
C821 O819 1.214 . S
O822 Cd814 2.277 . S
O822 C817 1.209 . S
C823 O820 1.258 . S
C823 O825 1.282 . S
O824 Cd816 2.277 . S
O824 C817 1.226 . S
O825 Cd816 2.356 . S
O825 C823 1.282 . S
C826 O827 1.306 . S
C826 O829 1.160 . S
O827 C826 1.306 . S
O827 Cd828 2.228 . S
Cd828 O827 2.228 . S
Cd828 O832 2.273 . S
Cd828 O836 2.277 . S
O829 C826 1.160 . S
O829 Cd830 2.203 . S
Cd830 O829 2.203 . S
Cd830 O832 2.411 . S
Cd830 O833 2.333 . S
Cd830 O834 2.352 . S
Cd830 O838 2.277 . S
Cd830 O839 2.356 . S
C831 O836 1.209 . S
C831 O838 1.226 . S
O832 Cd828 2.273 . S
O832 Cd830 2.411 . S
O832 C835 1.320 . S
O833 Cd830 2.333 . S
O833 C835 1.214 . S
O834 Cd830 2.352 . S
O834 C837 1.258 . S
C835 O832 1.320 . S
C835 O833 1.214 . S
O836 Cd828 2.277 . S
O836 C831 1.209 . S
C837 O834 1.258 . S
C837 O839 1.282 . S
O838 Cd830 2.277 . S
O838 C831 1.226 . S
O839 Cd830 2.356 . S
O839 C837 1.282 . S
C840 O841 1.306 . S
C840 O843 1.160 . S
O841 C840 1.306 . S
O841 Cd842 2.228 . S
Cd842 O841 2.228 . S
Cd842 O846 2.273 . S
Cd842 O850 2.277 . S
O843 C840 1.160 . S
O843 Cd844 2.203 . S
Cd844 O843 2.203 . S
Cd844 O846 2.411 . S
Cd844 O847 2.333 . S
Cd844 O848 2.352 1_565 S
Cd844 O852 2.277 . S
Cd844 O853 2.356 . S
C845 O850 1.209 . S
C845 O852 1.226 . S
O846 Cd842 2.273 . S
O846 Cd844 2.411 . S
O846 C849 1.320 . S
O847 Cd844 2.333 . S
O847 C849 1.214 . S
O848 Cd844 2.352 1_545 S
O848 C851 1.258 1_545 S
C849 O846 1.320 . S
C849 O847 1.214 . S
O850 Cd842 2.277 . S
O850 C845 1.209 . S
C851 O848 1.258 1_565 S
C851 O853 1.282 . S
O852 Cd844 2.277 . S
O852 C845 1.226 . S
O853 Cd844 2.356 . S
O853 C851 1.282 . S
C854 O855 1.306 . S
C854 O857 1.160 . S
O855 C854 1.306 . S
O855 Cd856 2.228 . S
Cd856 O855 2.228 . S
Cd856 O860 2.273 . S
Cd856 O864 2.277 . S
O857 C854 1.160 . S
O857 Cd858 2.203 . S
Cd858 O857 2.203 . S
Cd858 O860 2.411 . S
Cd858 O861 2.333 . S
Cd858 O862 2.352 . S
Cd858 O866 2.277 . S
Cd858 O867 2.356 . S
C859 O864 1.209 . S
C859 O866 1.226 . S
O860 Cd856 2.273 . S
O860 Cd858 2.411 . S
O860 C863 1.320 . S
O861 Cd858 2.333 . S
O861 C863 1.214 . S
O862 Cd858 2.352 . S
O862 C865 1.258 . S
C863 O860 1.320 . S
C863 O861 1.214 . S
O864 Cd856 2.277 . S
O864 C859 1.209 . S
C865 O862 1.258 . S
C865 O867 1.282 . S
O866 Cd858 2.277 . S
O866 C859 1.226 . S
O867 Cd858 2.356 . S
O867 C865 1.282 . S
C868 O869 1.306 . S
C868 O871 1.160 . S
O869 C868 1.306 . S
O869 Cd870 2.228 . S
Cd870 O869 2.228 . S
Cd870 O874 2.273 . S
Cd870 O878 2.277 . S
O871 C868 1.160 . S
O871 Cd872 2.203 . S
Cd872 O871 2.203 . S
Cd872 O874 2.411 . S
Cd872 O875 2.333 . S
Cd872 O876 2.352 . S
Cd872 O880 2.277 . S
Cd872 O881 2.356 . S
C873 O878 1.209 . S
C873 O880 1.226 . S
O874 Cd870 2.273 . S
O874 Cd872 2.411 . S
O874 C877 1.320 . S
O875 Cd872 2.333 . S
O875 C877 1.214 . S
O876 Cd872 2.352 . S
O876 C879 1.258 . S
C877 O874 1.320 . S
C877 O875 1.214 . S
O878 Cd870 2.277 . S
O878 C873 1.209 . S
C879 O876 1.258 . S
C879 O881 1.282 . S
O880 Cd872 2.277 . S
O880 C873 1.226 . S
O881 Cd872 2.356 . S
O881 C879 1.282 . S
C882 O883 1.306 . S
C882 O885 1.160 . S
O883 C882 1.306 . S
O883 Cd884 2.228 . S
Cd884 O883 2.228 . S
Cd884 O888 2.273 . S
Cd884 O892 2.277 . S
O885 C882 1.160 . S
O885 Cd886 2.203 . S
Cd886 O885 2.203 . S
Cd886 O888 2.411 . S
Cd886 O889 2.333 . S
Cd886 O890 2.352 . S
Cd886 O894 2.277 . S
Cd886 O895 2.356 . S
C887 O892 1.209 . S
C887 O894 1.226 . S
O888 Cd884 2.273 . S
O888 Cd886 2.411 . S
O888 C891 1.320 . S
O889 Cd886 2.333 . S
O889 C891 1.214 . S
O890 Cd886 2.352 . S
O890 C893 1.258 . S
C891 O888 1.320 . S
C891 O889 1.214 . S
O892 Cd884 2.277 . S
O892 C887 1.209 . S
C893 O890 1.258 . S
C893 O895 1.282 . S
O894 Cd886 2.277 . S
O894 C887 1.226 . S
O895 Cd886 2.356 . S
O895 C893 1.282 . S
C896 O897 1.306 . S
C896 O899 1.160 . S
O897 C896 1.306 . S
O897 Cd898 2.228 . S
Cd898 O897 2.228 . S
Cd898 O902 2.273 . S
Cd898 O906 2.277 . S
O899 C896 1.160 . S
O899 Cd900 2.203 . S
Cd900 O899 2.203 . S
Cd900 O902 2.411 . S
Cd900 O903 2.333 . S
Cd900 O904 2.352 . S
Cd900 O908 2.277 . S
Cd900 O909 2.356 . S
C901 O906 1.209 . S
C901 O908 1.226 . S
O902 Cd898 2.273 . S
O902 Cd900 2.411 . S
O902 C905 1.320 . S
O903 Cd900 2.333 . S
O903 C905 1.214 . S
O904 Cd900 2.352 . S
O904 C907 1.258 . S
C905 O902 1.320 . S
C905 O903 1.214 . S
O906 Cd898 2.277 . S
O906 C901 1.209 . S
C907 O904 1.258 . S
C907 O909 1.282 . S
O908 Cd900 2.277 . S
O908 C901 1.226 . S
O909 Cd900 2.356 . S
O909 C907 1.282 . S
C910 O911 1.306 . S
C910 O913 1.160 . S
O911 C910 1.306 . S
O911 Cd912 2.228 . S
Cd912 O911 2.228 . S
Cd912 O916 2.273 . S
Cd912 O920 2.277 . S
O913 C910 1.160 . S
O913 Cd914 2.203 . S
Cd914 O913 2.203 . S
Cd914 O916 2.411 . S
Cd914 O917 2.333 . S
Cd914 O918 2.352 1_556 S
Cd914 O922 2.277 . S
Cd914 O923 2.356 . S
C915 O920 1.209 . S
C915 O922 1.226 . S
O916 Cd912 2.273 . S
O916 Cd914 2.411 . S
O916 C919 1.320 . S
O917 Cd914 2.333 . S
O917 C919 1.214 . S
O918 Cd914 2.352 1_554 S
O918 C921 1.258 1_554 S
C919 O916 1.320 . S
C919 O917 1.214 . S
O920 Cd912 2.277 . S
O920 C915 1.209 . S
C921 O918 1.258 1_556 S
C921 O923 1.282 . S
O922 Cd914 2.277 . S
O922 C915 1.226 . S
O923 Cd914 2.356 . S
O923 C921 1.282 . S
C924 O925 1.306 . S
C924 O927 1.160 . S
O925 C924 1.306 . S
O925 Cd926 2.228 . S
Cd926 O925 2.228 . S
Cd926 O930 2.273 . S
Cd926 O934 2.277 . S
O927 C924 1.160 . S
O927 Cd928 2.203 . S
Cd928 O927 2.203 . S
Cd928 O930 2.411 . S
Cd928 O931 2.333 . S
Cd928 O932 2.352 . S
Cd928 O936 2.277 . S
Cd928 O937 2.356 . S
C929 O934 1.209 . S
C929 O936 1.226 . S
O930 Cd926 2.273 . S
O930 Cd928 2.411 . S
O930 C933 1.320 . S
O931 Cd928 2.333 . S
O931 C933 1.214 . S
O932 Cd928 2.352 . S
O932 C935 1.258 . S
C933 O930 1.320 . S
C933 O931 1.214 . S
O934 Cd926 2.277 . S
O934 C929 1.209 . S
C935 O932 1.258 . S
C935 O937 1.282 . S
O936 Cd928 2.277 . S
O936 C929 1.226 . S
O937 Cd928 2.356 . S
O937 C935 1.282 . S
C938 O939 1.306 . S
C938 O941 1.160 . S
O939 C938 1.306 . S
O939 Cd940 2.228 . S
Cd940 O939 2.228 . S
Cd940 O944 2.273 . S
Cd940 O948 2.277 . S
O941 C938 1.160 . S
O941 Cd942 2.203 . S
Cd942 O941 2.203 . S
Cd942 O944 2.411 . S
Cd942 O945 2.333 . S
Cd942 O946 2.352 . S
Cd942 O950 2.277 . S
Cd942 O951 2.356 . S
C943 O948 1.209 . S
C943 O950 1.226 . S
O944 Cd940 2.273 . S
O944 Cd942 2.411 . S
O944 C947 1.320 . S
O945 Cd942 2.333 . S
O945 C947 1.214 . S
O946 Cd942 2.352 . S
O946 C949 1.258 . S
C947 O944 1.320 . S
C947 O945 1.214 . S
O948 Cd940 2.277 . S
O948 C943 1.209 . S
C949 O946 1.258 . S
C949 O951 1.282 . S
O950 Cd942 2.277 . S
O950 C943 1.226 . S
O951 Cd942 2.356 . S
O951 C949 1.282 . S
C952 O953 1.306 . S
C952 O955 1.160 . S
O953 C952 1.306 . S
O953 Cd954 2.228 . S
Cd954 O953 2.228 . S
Cd954 O958 2.273 . S
Cd954 O962 2.277 . S
O955 C952 1.160 . S
O955 Cd956 2.203 . S
Cd956 O955 2.203 . S
Cd956 O958 2.411 . S
Cd956 O959 2.333 . S
Cd956 O960 2.352 . S
Cd956 O964 2.277 . S
Cd956 O965 2.356 . S
C957 O962 1.209 . S
C957 O964 1.226 . S
O958 Cd954 2.273 . S
O958 Cd956 2.411 . S
O958 C961 1.320 . S
O959 Cd956 2.333 . S
O959 C961 1.214 . S
O960 Cd956 2.352 . S
O960 C963 1.258 . S
C961 O958 1.320 . S
C961 O959 1.214 . S
O962 Cd954 2.277 . S
O962 C957 1.209 . S
C963 O960 1.258 . S
C963 O965 1.282 . S
O964 Cd956 2.277 . S
O964 C957 1.226 . S
O965 Cd956 2.356 . S
O965 C963 1.282 . S
C966 O967 1.306 . S
C966 O969 1.160 . S
O967 C966 1.306 . S
O967 Cd968 2.228 . S
Cd968 O967 2.228 . S
Cd968 O972 2.273 . S
Cd968 O976 2.277 . S
O969 C966 1.160 . S
O969 Cd970 2.203 . S
Cd970 O969 2.203 . S
Cd970 O972 2.411 . S
Cd970 O973 2.333 . S
Cd970 O974 2.352 . S
Cd970 O978 2.277 . S
Cd970 O979 2.356 . S
C971 O976 1.209 . S
C971 O978 1.226 . S
O972 Cd968 2.273 . S
O972 Cd970 2.411 . S
O972 C975 1.320 . S
O973 Cd970 2.333 . S
O973 C975 1.214 . S
O974 Cd970 2.352 . S
O974 C977 1.258 . S
C975 O972 1.320 . S
C975 O973 1.214 . S
O976 Cd968 2.277 . S
O976 C971 1.209 . S
C977 O974 1.258 . S
C977 O979 1.282 . S
O978 Cd970 2.277 . S
O978 C971 1.226 . S
O979 Cd970 2.356 . S
O979 C977 1.282 . S
C980 O981 1.306 . S
C980 O983 1.160 . S
O981 C980 1.306 . S
O981 Cd982 2.228 . S
Cd982 O981 2.228 . S
Cd982 O986 2.273 . S
Cd982 O990 2.277 . S
O983 C980 1.160 . S
O983 Cd984 2.203 . S
Cd984 O983 2.203 . S
Cd984 O986 2.411 . S
Cd984 O987 2.333 . S
Cd984 O988 2.352 . S
Cd984 O992 2.277 . S
Cd984 O993 2.356 . S
C985 O990 1.209 . S
C985 O992 1.226 . S
O986 Cd982 2.273 . S
O986 Cd984 2.411 . S
O986 C989 1.320 . S
O987 Cd984 2.333 . S
O987 C989 1.214 . S
O988 Cd984 2.352 . S
O988 C991 1.258 . S
C989 O986 1.320 . S
C989 O987 1.214 . S
O990 Cd982 2.277 . S
O990 C985 1.209 . S
C991 O988 1.258 . S
C991 O993 1.282 . S
O992 Cd984 2.277 . S
O992 C985 1.226 . S
O993 Cd984 2.356 . S
O993 C991 1.282 . S
C994 O995 1.306 . S
C994 O997 1.160 . S
O995 C994 1.306 . S
O995 Cd996 2.228 . S
Cd996 O995 2.228 . S
Cd996 O1000 2.273 . S
Cd996 O1004 2.277 . S
O997 C994 1.160 . S
O997 Cd998 2.203 . S
Cd998 O997 2.203 . S
Cd998 O1000 2.411 . S
Cd998 O1001 2.333 . S
Cd998 O1002 2.352 . S
Cd998 O1006 2.277 . S
Cd998 O1007 2.356 . S
C999 O1004 1.209 . S
C999 O1006 1.226 . S
O1000 Cd996 2.273 . S
O1000 Cd998 2.411 . S
O1000 C1003 1.320 . S
O1001 Cd998 2.333 . S
O1001 C1003 1.214 . S
O1002 Cd998 2.352 . S
O1002 C1005 1.258 . S
C1003 O1000 1.320 . S
C1003 O1001 1.214 . S
O1004 Cd996 2.277 . S
O1004 C999 1.209 . S
C1005 O1002 1.258 . S
C1005 O1007 1.282 . S
O1006 Cd998 2.277 . S
O1006 C999 1.226 . S
O1007 Cd998 2.356 . S
O1007 C1005 1.282 . S
C1008 O1009 1.306 . S
C1008 O1011 1.160 . S
O1009 C1008 1.306 . S
O1009 Cd1010 2.228 . S
Cd1010 O1009 2.228 . S
Cd1010 O1014 2.273 . S
Cd1010 O1018 2.277 . S
O1011 C1008 1.160 . S
O1011 Cd1012 2.203 . S
Cd1012 O1011 2.203 . S
Cd1012 O1014 2.411 . S
Cd1012 O1015 2.333 . S
Cd1012 O1016 2.352 . S
Cd1012 O1020 2.277 . S
Cd1012 O1021 2.356 . S
C1013 O1018 1.209 . S
C1013 O1020 1.226 . S
O1014 Cd1010 2.273 . S
O1014 Cd1012 2.411 . S
O1014 C1017 1.320 . S
O1015 Cd1012 2.333 . S
O1015 C1017 1.214 . S
O1016 Cd1012 2.352 . S
O1016 C1019 1.258 . S
C1017 O1014 1.320 . S
C1017 O1015 1.214 . S
O1018 Cd1010 2.277 . S
O1018 C1013 1.209 . S
C1019 O1016 1.258 . S
C1019 O1021 1.282 . S
O1020 Cd1012 2.277 . S
O1020 C1013 1.226 . S
O1021 Cd1012 2.356 . S
O1021 C1019 1.282 . S
C1022 O1023 1.306 . S
C1022 O1025 1.160 . S
O1023 C1022 1.306 . S
O1023 Cd1024 2.228 . S
Cd1024 O1023 2.228 . S
Cd1024 O1028 2.273 . S
Cd1024 O1032 2.277 . S
O1025 C1022 1.160 . S
O1025 Cd1026 2.203 . S
Cd1026 O1025 2.203 . S
Cd1026 O1028 2.411 . S
Cd1026 O1029 2.333 . S
Cd1026 O1030 2.352 . S
Cd1026 O1034 2.277 . S
Cd1026 O1035 2.356 . S
C1027 O1032 1.209 . S
C1027 O1034 1.226 . S
O1028 Cd1024 2.273 . S
O1028 Cd1026 2.411 . S
O1028 C1031 1.320 . S
O1029 Cd1026 2.333 . S
O1029 C1031 1.214 . S
O1030 Cd1026 2.352 . S
O1030 C1033 1.258 . S
C1031 O1028 1.320 . S
C1031 O1029 1.214 . S
O1032 Cd1024 2.277 . S
O1032 C1027 1.209 . S
C1033 O1030 1.258 . S
C1033 O1035 1.282 . S
O1034 Cd1026 2.277 . S
O1034 C1027 1.226 . S
O1035 Cd1026 2.356 . S
O1035 C1033 1.282 . S
C1036 O1037 1.306 . S
C1036 O1039 1.160 . S
O1037 C1036 1.306 . S
O1037 Cd1038 2.228 . S
Cd1038 O1037 2.228 . S
Cd1038 O1042 2.273 . S
Cd1038 O1046 2.277 . S
O1039 C1036 1.160 . S
O1039 Cd1040 2.203 . S
Cd1040 O1039 2.203 . S
Cd1040 O1042 2.411 . S
Cd1040 O1043 2.333 . S
Cd1040 O1044 2.352 . S
Cd1040 O1048 2.277 . S
Cd1040 O1049 2.356 . S
C1041 O1046 1.209 . S
C1041 O1048 1.226 . S
O1042 Cd1038 2.273 . S
O1042 Cd1040 2.411 . S
O1042 C1045 1.320 . S
O1043 Cd1040 2.333 . S
O1043 C1045 1.214 . S
O1044 Cd1040 2.352 . S
O1044 C1047 1.258 . S
C1045 O1042 1.320 . S
C1045 O1043 1.214 . S
O1046 Cd1038 2.277 . S
O1046 C1041 1.209 . S
C1047 O1044 1.258 . S
C1047 O1049 1.282 . S
O1048 Cd1040 2.277 . S
O1048 C1041 1.226 . S
O1049 Cd1040 2.356 . S
O1049 C1047 1.282 . S
C1050 O1051 1.306 . S
C1050 O1053 1.160 . S
O1051 C1050 1.306 . S
O1051 Cd1052 2.228 . S
Cd1052 O1051 2.228 . S
Cd1052 O1056 2.273 . S
Cd1052 O1060 2.277 . S
O1053 C1050 1.160 . S
O1053 Cd1054 2.203 . S
Cd1054 O1053 2.203 . S
Cd1054 O1056 2.411 . S
Cd1054 O1057 2.333 . S
Cd1054 O1058 2.352 . S
Cd1054 O1062 2.277 . S
Cd1054 O1063 2.356 . S
C1055 O1060 1.209 . S
C1055 O1062 1.226 . S
O1056 Cd1052 2.273 . S
O1056 Cd1054 2.411 . S
O1056 C1059 1.320 . S
O1057 Cd1054 2.333 . S
O1057 C1059 1.214 . S
O1058 Cd1054 2.352 . S
O1058 C1061 1.258 . S
C1059 O1056 1.320 . S
C1059 O1057 1.214 . S
O1060 Cd1052 2.277 . S
O1060 C1055 1.209 . S
C1061 O1058 1.258 . S
C1061 O1063 1.282 . S
O1062 Cd1054 2.277 . S
O1062 C1055 1.226 . S
O1063 Cd1054 2.356 . S
O1063 C1061 1.282 . S
C1064 O1065 1.306 . S
C1064 O1067 1.160 . S
O1065 C1064 1.306 . S
O1065 Cd1066 2.228 . S
Cd1066 O1065 2.228 . S
Cd1066 O1070 2.273 . S
Cd1066 O1074 2.277 . S
O1067 C1064 1.160 . S
O1067 Cd1068 2.203 . S
Cd1068 O1067 2.203 . S
Cd1068 O1070 2.411 . S
Cd1068 O1071 2.333 . S
Cd1068 O1072 2.352 . S
Cd1068 O1076 2.277 . S
Cd1068 O1077 2.356 . S
C1069 O1074 1.209 . S
C1069 O1076 1.226 . S
O1070 Cd1066 2.273 . S
O1070 Cd1068 2.411 . S
O1070 C1073 1.320 . S
O1071 Cd1068 2.333 . S
O1071 C1073 1.214 . S
O1072 Cd1068 2.352 . S
O1072 C1075 1.258 . S
C1073 O1070 1.320 . S
C1073 O1071 1.214 . S
O1074 Cd1066 2.277 . S
O1074 C1069 1.209 . S
C1075 O1072 1.258 . S
C1075 O1077 1.282 . S
O1076 Cd1068 2.277 . S
O1076 C1069 1.226 . S
O1077 Cd1068 2.356 . S
O1077 C1075 1.282 . S
C1078 O1079 1.306 . S
C1078 O1081 1.160 . S
O1079 C1078 1.306 . S
O1079 Cd1080 2.228 . S
Cd1080 O1079 2.228 . S
Cd1080 O1084 2.273 . S
Cd1080 O1088 2.277 . S
O1081 C1078 1.160 . S
O1081 Cd1082 2.203 . S
Cd1082 O1081 2.203 . S
Cd1082 O1084 2.411 . S
Cd1082 O1085 2.333 . S
Cd1082 O1086 2.352 . S
Cd1082 O1090 2.277 . S
Cd1082 O1091 2.356 . S
C1083 O1088 1.209 . S
C1083 O1090 1.226 . S
O1084 Cd1080 2.273 . S
O1084 Cd1082 2.411 . S
O1084 C1087 1.320 . S
O1085 Cd1082 2.333 . S
O1085 C1087 1.214 . S
O1086 Cd1082 2.352 . S
O1086 C1089 1.258 . S
C1087 O1084 1.320 . S
C1087 O1085 1.214 . S
O1088 Cd1080 2.277 . S
O1088 C1083 1.209 . S
C1089 O1086 1.258 . S
C1089 O1091 1.282 . S
O1090 Cd1082 2.277 . S
O1090 C1083 1.226 . S
O1091 Cd1082 2.356 . S
O1091 C1089 1.282 . S
C1092 O1093 1.306 . S
C1092 O1095 1.160 . S
O1093 C1092 1.306 . S
O1093 Cd1094 2.228 . S
Cd1094 O1093 2.228 . S
Cd1094 O1098 2.273 . S
Cd1094 O1102 2.277 . S
O1095 C1092 1.160 . S
O1095 Cd1096 2.203 . S
Cd1096 O1095 2.203 . S
Cd1096 O1098 2.411 . S
Cd1096 O1099 2.333 . S
Cd1096 O1100 2.352 . S
Cd1096 O1104 2.277 . S
Cd1096 O1105 2.356 . S
C1097 O1102 1.209 . S
C1097 O1104 1.226 . S
O1098 Cd1094 2.273 . S
O1098 Cd1096 2.411 . S
O1098 C1101 1.320 . S
O1099 Cd1096 2.333 . S
O1099 C1101 1.214 . S
O1100 Cd1096 2.352 . S
O1100 C1103 1.258 . S
C1101 O1098 1.320 . S
C1101 O1099 1.214 . S
O1102 Cd1094 2.277 . S
O1102 C1097 1.209 . S
C1103 O1100 1.258 . S
C1103 O1105 1.282 . S
O1104 Cd1096 2.277 . S
O1104 C1097 1.226 . S
O1105 Cd1096 2.356 . S
O1105 C1103 1.282 . S
C1106 O1107 1.306 . S
C1106 O1109 1.160 . S
O1107 C1106 1.306 . S
O1107 Cd1108 2.228 . S
Cd1108 O1107 2.228 . S
Cd1108 O1112 2.273 . S
Cd1108 O1116 2.277 . S
O1109 C1106 1.160 . S
O1109 Cd1110 2.203 . S
Cd1110 O1109 2.203 . S
Cd1110 O1112 2.411 . S
Cd1110 O1113 2.333 . S
Cd1110 O1114 2.352 . S
Cd1110 O1118 2.277 . S
Cd1110 O1119 2.356 . S
C1111 O1116 1.209 . S
C1111 O1118 1.226 . S
O1112 Cd1108 2.273 . S
O1112 Cd1110 2.411 . S
O1112 C1115 1.320 . S
O1113 Cd1110 2.333 . S
O1113 C1115 1.214 . S
O1114 Cd1110 2.352 . S
O1114 C1117 1.258 . S
C1115 O1112 1.320 . S
C1115 O1113 1.214 . S
O1116 Cd1108 2.277 . S
O1116 C1111 1.209 . S
C1117 O1114 1.258 . S
C1117 O1119 1.282 . S
O1118 Cd1110 2.277 . S
O1118 C1111 1.226 . S
O1119 Cd1110 2.356 . S
O1119 C1117 1.282 . S
C1120 O1121 1.306 . S
C1120 O1123 1.160 . S
O1121 C1120 1.306 . S
O1121 Cd1122 2.228 . S
Cd1122 O1121 2.228 . S
Cd1122 O1126 2.273 . S
Cd1122 O1130 2.277 . S
O1123 C1120 1.160 . S
O1123 Cd1124 2.203 . S
Cd1124 O1123 2.203 . S
Cd1124 O1126 2.411 . S
Cd1124 O1127 2.333 . S
Cd1124 O1128 2.352 . S
Cd1124 O1132 2.277 . S
Cd1124 O1133 2.356 . S
C1125 O1130 1.209 . S
C1125 O1132 1.226 . S
O1126 Cd1122 2.273 . S
O1126 Cd1124 2.411 . S
O1126 C1129 1.320 . S
O1127 Cd1124 2.333 . S
O1127 C1129 1.214 . S
O1128 Cd1124 2.352 . S
O1128 C1131 1.258 . S
C1129 O1126 1.320 . S
C1129 O1127 1.214 . S
O1130 Cd1122 2.277 . S
O1130 C1125 1.209 . S
C1131 O1128 1.258 . S
C1131 O1133 1.282 . S
O1132 Cd1124 2.277 . S
O1132 C1125 1.226 . S
O1133 Cd1124 2.356 . S
O1133 C1131 1.282 . S
C1134 O1135 1.306 . S
C1134 O1137 1.160 . S
O1135 C1134 1.306 . S
O1135 Cd1136 2.228 . S
Cd1136 O1135 2.228 . S
Cd1136 O1140 2.273 . S
Cd1136 O1144 2.277 . S
O1137 C1134 1.160 . S
O1137 Cd1138 2.203 . S
Cd1138 O1137 2.203 . S
Cd1138 O1140 2.411 . S
Cd1138 O1141 2.333 . S
Cd1138 O1142 2.352 . S
Cd1138 O1146 2.277 . S
Cd1138 O1147 2.356 . S
C1139 O1144 1.209 . S
C1139 O1146 1.226 . S
O1140 Cd1136 2.273 . S
O1140 Cd1138 2.411 . S
O1140 C1143 1.320 . S
O1141 Cd1138 2.333 . S
O1141 C1143 1.214 . S
O1142 Cd1138 2.352 . S
O1142 C1145 1.258 . S
C1143 O1140 1.320 . S
C1143 O1141 1.214 . S
O1144 Cd1136 2.277 . S
O1144 C1139 1.209 . S
C1145 O1142 1.258 . S
C1145 O1147 1.282 . S
O1146 Cd1138 2.277 . S
O1146 C1139 1.226 . S
O1147 Cd1138 2.356 . S
O1147 C1145 1.282 . S
C1148 O1149 1.306 . S
C1148 O1151 1.160 . S
O1149 C1148 1.306 . S
O1149 Cd1150 2.228 . S
Cd1150 O1149 2.228 . S
Cd1150 O1154 2.273 . S
Cd1150 O1158 2.277 . S
O1151 C1148 1.160 . S
O1151 Cd1152 2.203 . S
Cd1152 O1151 2.203 . S
Cd1152 O1154 2.411 . S
Cd1152 O1155 2.333 . S
Cd1152 O1156 2.352 1_565 S
Cd1152 O1160 2.277 . S
Cd1152 O1161 2.356 . S
C1153 O1158 1.209 . S
C1153 O1160 1.226 . S
O1154 Cd1150 2.273 . S
O1154 Cd1152 2.411 . S
O1154 C1157 1.320 . S
O1155 Cd1152 2.333 . S
O1155 C1157 1.214 . S
O1156 Cd1152 2.352 1_545 S
O1156 C1159 1.258 1_545 S
C1157 O1154 1.320 . S
C1157 O1155 1.214 . S
O1158 Cd1150 2.277 . S
O1158 C1153 1.209 . S
C1159 O1156 1.258 1_565 S
C1159 O1161 1.282 . S
O1160 Cd1152 2.277 . S
O1160 C1153 1.226 . S
O1161 Cd1152 2.356 . S
O1161 C1159 1.282 . S
C1162 O1163 1.306 . S
C1162 O1165 1.160 . S
O1163 C1162 1.306 . S
O1163 Cd1164 2.228 . S
Cd1164 O1163 2.228 . S
Cd1164 O1168 2.273 . S
Cd1164 O1172 2.277 . S
O1165 C1162 1.160 . S
O1165 Cd1166 2.203 . S
Cd1166 O1165 2.203 . S
Cd1166 O1168 2.411 . S
Cd1166 O1169 2.333 . S
Cd1166 O1170 2.352 . S
Cd1166 O1174 2.277 . S
Cd1166 O1175 2.356 . S
C1167 O1172 1.209 . S
C1167 O1174 1.226 . S
O1168 Cd1164 2.273 . S
O1168 Cd1166 2.411 . S
O1168 C1171 1.320 . S
O1169 Cd1166 2.333 . S
O1169 C1171 1.214 . S
O1170 Cd1166 2.352 . S
O1170 C1173 1.258 . S
C1171 O1168 1.320 . S
C1171 O1169 1.214 . S
O1172 Cd1164 2.277 . S
O1172 C1167 1.209 . S
C1173 O1170 1.258 . S
C1173 O1175 1.282 . S
O1174 Cd1166 2.277 . S
O1174 C1167 1.226 . S
O1175 Cd1166 2.356 . S
O1175 C1173 1.282 . S
C1176 O1177 1.306 . S
C1176 O1179 1.160 . S
O1177 C1176 1.306 . S
O1177 Cd1178 2.228 . S
Cd1178 O1177 2.228 . S
Cd1178 O1182 2.273 . S
Cd1178 O1186 2.277 . S
O1179 C1176 1.160 . S
O1179 Cd1180 2.203 . S
Cd1180 O1179 2.203 . S
Cd1180 O1182 2.411 . S
Cd1180 O1183 2.333 . S
Cd1180 O1184 2.352 . S
Cd1180 O1188 2.277 . S
Cd1180 O1189 2.356 . S
C1181 O1186 1.209 . S
C1181 O1188 1.226 . S
O1182 Cd1178 2.273 . S
O1182 Cd1180 2.411 . S
O1182 C1185 1.320 . S
O1183 Cd1180 2.333 . S
O1183 C1185 1.214 . S
O1184 Cd1180 2.352 . S
O1184 C1187 1.258 . S
C1185 O1182 1.320 . S
C1185 O1183 1.214 . S
O1186 Cd1178 2.277 . S
O1186 C1181 1.209 . S
C1187 O1184 1.258 . S
C1187 O1189 1.282 . S
O1188 Cd1180 2.277 . S
O1188 C1181 1.226 . S
O1189 Cd1180 2.356 . S
O1189 C1187 1.282 . S
C1190 O1191 1.306 . S
C1190 O1193 1.160 . S
O1191 C1190 1.306 . S
O1191 Cd1192 2.228 . S
Cd1192 O1191 2.228 . S
Cd1192 O1196 2.273 . S
Cd1192 O1200 2.277 . S
O1193 C1190 1.160 . S
O1193 Cd1194 2.203 . S
Cd1194 O1193 2.203 . S
Cd1194 O1196 2.411 . S
Cd1194 O1197 2.333 . S
Cd1194 O1198 2.352 . S
Cd1194 O1202 2.277 . S
Cd1194 O1203 2.356 . S
C1195 O1200 1.209 . S
C1195 O1202 1.226 . S
O1196 Cd1192 2.273 . S
O1196 Cd1194 2.411 . S
O1196 C1199 1.320 . S
O1197 Cd1194 2.333 . S
O1197 C1199 1.214 . S
O1198 Cd1194 2.352 . S
O1198 C1201 1.258 . S
C1199 O1196 1.320 . S
C1199 O1197 1.214 . S
O1200 Cd1192 2.277 . S
O1200 C1195 1.209 . S
C1201 O1198 1.258 . S
C1201 O1203 1.282 . S
O1202 Cd1194 2.277 . S
O1202 C1195 1.226 . S
O1203 Cd1194 2.356 . S
O1203 C1201 1.282 . S
C1204 O1205 1.306 . S
C1204 O1207 1.160 . S
O1205 C1204 1.306 . S
O1205 Cd1206 2.228 . S
Cd1206 O1205 2.228 . S
Cd1206 O1210 2.273 . S
Cd1206 O1214 2.277 . S
O1207 C1204 1.160 . S
O1207 Cd1208 2.203 . S
Cd1208 O1207 2.203 . S
Cd1208 O1210 2.411 . S
Cd1208 O1211 2.333 . S
Cd1208 O1212 2.352 1_545 S
Cd1208 O1216 2.277 . S
Cd1208 O1217 2.356 . S
C1209 O1214 1.209 . S
C1209 O1216 1.226 . S
O1210 Cd1206 2.273 . S
O1210 Cd1208 2.411 . S
O1210 C1213 1.320 . S
O1211 Cd1208 2.333 . S
O1211 C1213 1.214 . S
O1212 Cd1208 2.352 1_565 S
O1212 C1215 1.258 1_565 S
C1213 O1210 1.320 . S
C1213 O1211 1.214 . S
O1214 Cd1206 2.277 . S
O1214 C1209 1.209 . S
C1215 O1212 1.258 1_545 S
C1215 O1217 1.282 . S
O1216 Cd1208 2.277 . S
O1216 C1209 1.226 . S
O1217 Cd1208 2.356 . S
O1217 C1215 1.282 . S
C1218 O1219 1.306 . S
C1218 O1221 1.160 . S
O1219 C1218 1.306 . S
O1219 Cd1220 2.228 . S
Cd1220 O1219 2.228 . S
Cd1220 O1224 2.273 . S
Cd1220 O1228 2.277 . S
O1221 C1218 1.160 . S
O1221 Cd1222 2.203 . S
Cd1222 O1221 2.203 . S
Cd1222 O1224 2.411 . S
Cd1222 O1225 2.333 . S
Cd1222 O1226 2.352 . S
Cd1222 O1230 2.277 . S
Cd1222 O1231 2.356 . S
C1223 O1228 1.209 . S
C1223 O1230 1.226 . S
O1224 Cd1220 2.273 . S
O1224 Cd1222 2.411 . S
O1224 C1227 1.320 . S
O1225 Cd1222 2.333 . S
O1225 C1227 1.214 . S
O1226 Cd1222 2.352 . S
O1226 C1229 1.258 . S
C1227 O1224 1.320 . S
C1227 O1225 1.214 . S
O1228 Cd1220 2.277 . S
O1228 C1223 1.209 . S
C1229 O1226 1.258 . S
C1229 O1231 1.282 . S
O1230 Cd1222 2.277 . S
O1230 C1223 1.226 . S
O1231 Cd1222 2.356 . S
O1231 C1229 1.282 . S
C1232 O1233 1.306 . S
C1232 O1235 1.160 . S
O1233 C1232 1.306 . S
O1233 Cd1234 2.228 . S
Cd1234 O1233 2.228 . S
Cd1234 O1238 2.273 . S
Cd1234 O1242 2.277 . S
O1235 C1232 1.160 . S
O1235 Cd1236 2.203 . S
Cd1236 O1235 2.203 . S
Cd1236 O1238 2.411 . S
Cd1236 O1239 2.333 . S
Cd1236 O1240 2.352 1_554 S
Cd1236 O1244 2.277 . S
Cd1236 O1245 2.356 . S
C1237 O1242 1.209 . S
C1237 O1244 1.226 . S
O1238 Cd1234 2.273 . S
O1238 Cd1236 2.411 . S
O1238 C1241 1.320 . S
O1239 Cd1236 2.333 . S
O1239 C1241 1.214 . S
O1240 Cd1236 2.352 1_556 S
O1240 C1243 1.258 1_556 S
C1241 O1238 1.320 . S
C1241 O1239 1.214 . S
O1242 Cd1234 2.277 . S
O1242 C1237 1.209 . S
C1243 O1240 1.258 1_554 S
C1243 O1245 1.282 . S
O1244 Cd1236 2.277 . S
O1244 C1237 1.226 . S
O1245 Cd1236 2.356 . S
O1245 C1243 1.282 . S
C1246 O1247 1.306 . S
C1246 O1249 1.160 . S
O1247 C1246 1.306 . S
O1247 Cd1248 2.228 . S
Cd1248 O1247 2.228 . S
Cd1248 O1252 2.273 . S
Cd1248 O1256 2.277 . S
O1249 C1246 1.160 . S
O1249 Cd1250 2.203 . S
Cd1250 O1249 2.203 . S
Cd1250 O1252 2.411 . S
Cd1250 O1253 2.333 . S
Cd1250 O1254 2.352 . S
Cd1250 O1258 2.277 . S
Cd1250 O1259 2.356 . S
C1251 O1256 1.209 . S
C1251 O1258 1.226 . S
O1252 Cd1248 2.273 . S
O1252 Cd1250 2.411 . S
O1252 C1255 1.320 . S
O1253 Cd1250 2.333 . S
O1253 C1255 1.214 . S
O1254 Cd1250 2.352 . S
O1254 C1257 1.258 . S
C1255 O1252 1.320 . S
C1255 O1253 1.214 . S
O1256 Cd1248 2.277 . S
O1256 C1251 1.209 . S
C1257 O1254 1.258 . S
C1257 O1259 1.282 . S
O1258 Cd1250 2.277 . S
O1258 C1251 1.226 . S
O1259 Cd1250 2.356 . S
O1259 C1257 1.282 . S
C1260 O1261 1.306 . S
C1260 O1263 1.160 . S
O1261 C1260 1.306 . S
O1261 Cd1262 2.228 . S
Cd1262 O1261 2.228 . S
Cd1262 O1266 2.273 . S
Cd1262 O1270 2.277 . S
O1263 C1260 1.160 . S
O1263 Cd1264 2.203 . S
Cd1264 O1263 2.203 . S
Cd1264 O1266 2.411 . S
Cd1264 O1267 2.333 . S
Cd1264 O1268 2.352 . S
Cd1264 O1272 2.277 . S
Cd1264 O1273 2.356 . S
C1265 O1270 1.209 . S
C1265 O1272 1.226 . S
O1266 Cd1262 2.273 . S
O1266 Cd1264 2.411 . S
O1266 C1269 1.320 . S
O1267 Cd1264 2.333 . S
O1267 C1269 1.214 . S
O1268 Cd1264 2.352 . S
O1268 C1271 1.258 . S
C1269 O1266 1.320 . S
C1269 O1267 1.214 . S
O1270 Cd1262 2.277 . S
O1270 C1265 1.209 . S
C1271 O1268 1.258 . S
C1271 O1273 1.282 . S
O1272 Cd1264 2.277 . S
O1272 C1265 1.226 . S
O1273 Cd1264 2.356 . S
O1273 C1271 1.282 . S
C1274 O1275 1.306 . S
C1274 O1277 1.160 . S
O1275 C1274 1.306 . S
O1275 Cd1276 2.228 . S
Cd1276 O1275 2.228 . S
Cd1276 O1280 2.273 . S
Cd1276 O1284 2.277 . S
O1277 C1274 1.160 . S
O1277 Cd1278 2.203 . S
Cd1278 O1277 2.203 . S
Cd1278 O1280 2.411 . S
Cd1278 O1281 2.333 . S
Cd1278 O1282 2.352 1_556 S
Cd1278 O1286 2.277 . S
Cd1278 O1287 2.356 . S
C1279 O1284 1.209 . S
C1279 O1286 1.226 . S
O1280 Cd1276 2.273 . S
O1280 Cd1278 2.411 . S
O1280 C1283 1.320 . S
O1281 Cd1278 2.333 . S
O1281 C1283 1.214 . S
O1282 Cd1278 2.352 1_554 S
O1282 C1285 1.258 1_554 S
C1283 O1280 1.320 . S
C1283 O1281 1.214 . S
O1284 Cd1276 2.277 . S
O1284 C1279 1.209 . S
C1285 O1282 1.258 1_556 S
C1285 O1287 1.282 . S
O1286 Cd1278 2.277 . S
O1286 C1279 1.226 . S
O1287 Cd1278 2.356 . S
O1287 C1285 1.282 . S
C1288 O1289 1.306 . S
C1288 O1291 1.160 . S
O1289 C1288 1.306 . S
O1289 Cd1290 2.228 . S
Cd1290 O1289 2.228 . S
Cd1290 O1294 2.273 . S
Cd1290 O1298 2.277 . S
O1291 C1288 1.160 . S
O1291 Cd1292 2.203 . S
Cd1292 O1291 2.203 . S
Cd1292 O1294 2.411 . S
Cd1292 O1295 2.333 . S
Cd1292 O1296 2.352 . S
Cd1292 O1300 2.277 . S
Cd1292 O1301 2.356 . S
C1293 O1298 1.209 . S
C1293 O1300 1.226 . S
O1294 Cd1290 2.273 . S
O1294 Cd1292 2.411 . S
O1294 C1297 1.320 . S
O1295 Cd1292 2.333 . S
O1295 C1297 1.214 . S
O1296 Cd1292 2.352 . S
O1296 C1299 1.258 . S
C1297 O1294 1.320 . S
C1297 O1295 1.214 . S
O1298 Cd1290 2.277 . S
O1298 C1293 1.209 . S
C1299 O1296 1.258 . S
C1299 O1301 1.282 . S
O1300 Cd1292 2.277 . S
O1300 C1293 1.226 . S
O1301 Cd1292 2.356 . S
O1301 C1299 1.282 . S
C1302 O1303 1.306 . S
C1302 O1305 1.160 . S
O1303 C1302 1.306 . S
O1303 Cd1304 2.228 . S
Cd1304 O1303 2.228 . S
Cd1304 O1308 2.273 . S
Cd1304 O1312 2.277 . S
O1305 C1302 1.160 . S
O1305 Cd1306 2.203 . S
Cd1306 O1305 2.203 . S
Cd1306 O1308 2.411 . S
Cd1306 O1309 2.333 . S
Cd1306 O1310 2.352 1_554 S
Cd1306 O1314 2.277 . S
Cd1306 O1315 2.356 . S
C1307 O1312 1.209 . S
C1307 O1314 1.226 . S
O1308 Cd1304 2.273 . S
O1308 Cd1306 2.411 . S
O1308 C1311 1.320 . S
O1309 Cd1306 2.333 . S
O1309 C1311 1.214 . S
O1310 Cd1306 2.352 1_556 S
O1310 C1313 1.258 1_556 S
C1311 O1308 1.320 . S
C1311 O1309 1.214 . S
O1312 Cd1304 2.277 . S
O1312 C1307 1.209 . S
C1313 O1310 1.258 1_554 S
C1313 O1315 1.282 . S
O1314 Cd1306 2.277 . S
O1314 C1307 1.226 . S
O1315 Cd1306 2.356 . S
O1315 C1313 1.282 . S
C1316 O1317 1.306 . S
C1316 O1319 1.160 . S
O1317 C1316 1.306 . S
O1317 Cd1318 2.228 . S
Cd1318 O1317 2.228 . S
Cd1318 O1322 2.273 . S
Cd1318 O1326 2.277 . S
O1319 C1316 1.160 . S
O1319 Cd1320 2.203 . S
Cd1320 O1319 2.203 . S
Cd1320 O1322 2.411 . S
Cd1320 O1323 2.333 . S
Cd1320 O1324 2.352 . S
Cd1320 O1328 2.277 . S
Cd1320 O1329 2.356 . S
C1321 O1326 1.209 . S
C1321 O1328 1.226 . S
O1322 Cd1318 2.273 . S
O1322 Cd1320 2.411 . S
O1322 C1325 1.320 . S
O1323 Cd1320 2.333 . S
O1323 C1325 1.214 . S
O1324 Cd1320 2.352 . S
O1324 C1327 1.258 . S
C1325 O1322 1.320 . S
C1325 O1323 1.214 . S
O1326 Cd1318 2.277 . S
O1326 C1321 1.209 . S
C1327 O1324 1.258 . S
C1327 O1329 1.282 . S
O1328 Cd1320 2.277 . S
O1328 C1321 1.226 . S
O1329 Cd1320 2.356 . S
O1329 C1327 1.282 . S
C1330 O1331 1.306 . S
C1330 O1333 1.160 . S
O1331 C1330 1.306 . S
O1331 Cd1332 2.228 . S
Cd1332 O1331 2.228 . S
Cd1332 O1336 2.273 . S
Cd1332 O1340 2.277 . S
O1333 C1330 1.160 . S
O1333 Cd1334 2.203 . S
Cd1334 O1333 2.203 . S
Cd1334 O1336 2.411 . S
Cd1334 O1337 2.333 . S
Cd1334 O1338 2.352 . S
Cd1334 O1342 2.277 . S
Cd1334 O1343 2.356 . S
C1335 O1340 1.209 . S
C1335 O1342 1.226 . S
O1336 Cd1332 2.273 . S
O1336 Cd1334 2.411 . S
O1336 C1339 1.320 . S
O1337 Cd1334 2.333 . S
O1337 C1339 1.214 . S
O1338 Cd1334 2.352 . S
O1338 C1341 1.258 . S
C1339 O1336 1.320 . S
C1339 O1337 1.214 . S
O1340 Cd1332 2.277 . S
O1340 C1335 1.209 . S
C1341 O1338 1.258 . S
C1341 O1343 1.282 . S
O1342 Cd1334 2.277 . S
O1342 C1335 1.226 . S
O1343 Cd1334 2.356 . S
O1343 C1341 1.282 . S
C9 C429 1.387 1_454 S
C779 C23 1.387 . S
C37 C401 1.387 1_655 S
C51 C751 1.387 . S
C373 C65 1.387 1_654 S
C79 C723 1.387 . S
C345 C93 1.387 1_455 S
C107 C695 1.387 . S
C485 C121 1.387 1_665 S
C135 C835 1.387 . S
C149 C457 1.387 1_655 S
C163 C807 1.387 . S
C177 C541 1.387 1_465 S
C891 C191 1.387 . S
C513 C205 1.387 1_455 S
C219 C863 1.387 . S
C919 C233 1.387 1_566 S
C905 C247 1.387 1_545 S
C261 C1003 1.387 . S
C1311 C275 1.387 1_554 S
C653 C289 1.387 . S
C303 C1283 1.387 1_564 S
C317 C625 1.387 . S
C331 C933 1.387 . S
C359 C1115 1.387 . S
C387 C1087 1.387 . S
C415 C1059 1.387 . S
C443 C1031 1.387 . S
C1171 C471 1.387 . S
C499 C1143 1.387 . S
C1227 C527 1.387 . S
C555 C1199 1.387 . S
C569 C1255 1.387 . S
C583 C1241 1.387 1_556 S
C597 C1339 1.387 . S
C975 C611 1.387 1_565 S
C947 C639 1.387 . S
C667 C1269 1.387 . S
C681 C1101 1.387 . S
C1073 C709 1.387 1_556 S
C737 C1045 1.387 . S
C765 C1017 1.387 1_556 S
C1157 C793 1.387 1_565 S
C1129 C821 1.387 . S
C849 C1213 1.387 1_565 S
C1185 C877 1.387 . S
C961 C1325 1.387 . S
C989 C1297 1.387 . S
C11 C781 1.505 1_455 S
C25 C403 1.505 1_655 S
C39 C753 1.505 1_655 S
C431 C53 1.505 1_655 S
C67 C361 1.505 1_455 S
C81 C711 1.505 . S
C95 C389 1.505 1_655 S
C683 C109 1.504 . S
C123 C291 1.505 1_545 S
C137 C1257 1.504 . S
C1271 C151 1.505 . S
C165 C1285 1.505 1_554 S
C1005 C179 1.505 1_545 S
C1313 C193 1.505 1_554 S
C207 C991 1.505 . S
C907 C221 1.505 . S
C893 C235 1.505 1_556 S
C1145 C249 1.505 . S
C263 C1159 1.505 1_545 S
C277 C1173 1.505 1_556 S
C305 C1201 1.505 1_554 S
C319 C879 1.504 . S
C851 C333 1.505 1_565 S
C347 C1117 1.505 1_455 S
C1089 C375 1.505 1_455 S
C1047 C417 1.504 . S
C445 C1019 1.505 . S
C459 C627 1.505 . S
C473 C921 1.505 1_554 S
C487 C935 1.505 1_565 S
C501 C949 1.504 . S
C515 C1341 1.505 . S
C977 C529 1.505 . S
C1327 C543 1.505 1_565 S
C1243 C557 1.505 1_554 S
C1229 C571 1.504 . S
C585 C809 1.505 1_556 S
C599 C823 1.504 . S
C613 C837 1.505 . S
C865 C641 1.504 . S
C1215 C655 1.505 1_545 S
C1187 C669 1.504 . S
C697 C1075 1.505 . S
C725 C1103 1.504 . S
C1033 C739 1.504 . S
C1061 C767 1.505 . S
C963 C795 1.505 1_565 S
C1299 C1131 1.504 . S
C5 C1302 1.631 . S
C19 C980 1.631 . S
C896 C33 1.631 . S
C994 C47 1.631 . S
C61 C266 1.631 . S
C75 C1288 1.631 . S
C238 C89 1.631 . S
C252 C103 1.631 . S
C392 C117 1.631 . S
C131 C742 1.631 . S
C145 C420 1.631 . S
C159 C770 1.631 . S
C336 C173 1.631 . S
C187 C686 1.631 . S
C364 C201 1.631 . S
C215 C714 1.631 . S
C229 C1204 1.631 . S
C476 C243 1.631 . S
C257 C826 1.631 . S
C448 C271 1.631 . S
C285 C462 1.631 . S
C840 C299 1.631 . S
C182 C313 1.631 . S
C210 C327 1.631 . S
C966 C341 1.631 . S
C355 C1316 1.631 . S
C1232 C369 1.631 . S
C383 C1330 1.631 . S
C602 C397 1.631 . S
C952 C411 1.631 . S
C425 C574 1.631 . S
C439 C588 1.631 . S
C453 C56 1.631 . S
C467 C1078 1.631 . S
C84 C481 1.631 . S
C495 C1106 1.631 . S
C0 C509 1.631 . S
C523 C1022 1.631 . S
C28 C537 1.631 . S
C1050 C551 1.631 . S
C565 C868 1.631 . S
C579 C140 1.631 . S
C1162 C593 1.631 . S
C607 C112 1.631 . S
C126 C621 1.631 . S
C635 C1176 1.631 . S
C518 C649 1.631 . S
C663 C546 1.631 . S
C630 C677 1.631 . S
C691 C308 1.631 . S
C705 C224 1.631 . S
C719 C322 1.631 . S
C733 C938 1.631 . S
C616 C747 1.631 . S
C910 C761 1.631 . S
C775 C924 1.631 . S
C1064 C789 1.631 . S
C70 C803 1.631 . S
C1092 C817 1.631 . S
C831 C98 1.631 . S
C1008 C845 1.631 . S
C859 C14 1.631 . S
C1036 C873 1.631 . S
C42 C887 1.631 . S
C532 C901 1.631 . S
C915 C1148 1.631 . S
C929 C154 1.631 . S
C1120 C943 1.631 . S
C957 C1134 1.631 . S
C168 C971 1.631 . S
C854 C985 1.631 . S
C999 C882 1.631 . S
C1013 C294 1.631 . S
C644 C1027 1.631 . S
C560 C1041 1.631 . S
C1055 C658 1.631 . S
C1069 C1274 1.631 . S
C280 C1083 1.631 . S
C1246 C1097 1.631 . S
C1260 C1111 1.631 . S
C728 C1125 1.631 . S
C1139 C406 1.631 . S
C1153 C756 1.631 . S
C1167 C434 1.631 . S
C672 C1181 1.631 . S
C1195 C350 1.631 . S
C1209 C700 1.631 . S
C1223 C378 1.631 . S
C196 C1237 1.631 . S
C1251 C812 1.631 . S
C1265 C490 1.631 . S
C1279 C784 1.631 . S
C1293 C798 1.631 . S
C504 C1307 1.631 . S
C1190 C1321 1.631 . S
C1218 C1335 1.631 . S
