# Generated by pormake.
# Topology vmg, (6)-cn, num edge types: 1
# Building blocks:
#     Node 0, Type 0, BuildingBlock: MIDCAF_clean_sbu_0, # of connection points: 6
#     Node 1, Type 0, BuildingBlock: MIDCAF_clean_sbu_0, # of connection points: 6
#     Node 2, Type 0, BuildingBlock: MIDCAF_clean_sbu_0, # of connection points: 6
#     Node 3, Type 0, BuildingBlock: MIDCAF_clean_sbu_0, # of connection points: 6
#     Node 4, Type 0, BuildingBlock: MIDCAF_clean_sbu_0, # of connection points: 6
#     Node 5, Type 0, BuildingBlock: MIDCAF_clean_sbu_0, # of connection points: 6
#     Node 6, Type 0, BuildingBlock: MIDCAF_clean_sbu_0, # of connection points: 6
#     Node 7, Type 0, BuildingBlock: MIDCAF_clean_sbu_0, # of connection points: 6
#     Edge 8, Type (0, 0), BuildingBlock: AJUNOK_clean_linker_0, # of connection points: 2
#     Edge 9, Type (0, 0), BuildingBlock: AJUNOK_clean_linker_0, # of connection points: 2
#     Edge 10, Type (0, 0), BuildingBlock: AJUNOK_clean_linker_0, # of connection points: 2
#     Edge 11, Type (0, 0), BuildingBlock: AJUNOK_clean_linker_0, # of connection points: 2
#     Edge 12, Type (0, 0), BuildingBlock: AJUNOK_clean_linker_0, # of connection points: 2
#     Edge 13, Type (0, 0), BuildingBlock: AJUNOK_clean_linker_0, # of connection points: 2
#     Edge 14, Type (0, 0), BuildingBlock: AJUNOK_clean_linker_0, # of connection points: 2
#     Edge 15, Type (0, 0), BuildingBlock: AJUNOK_clean_linker_0, # of connection points: 2
#     Edge 16, Type (0, 0), BuildingBlock: AJUNOK_clean_linker_0, # of connection points: 2
#     Edge 17, Type (0, 0), BuildingBlock: AJUNOK_clean_linker_0, # of connection points: 2
#     Edge 18, Type (0, 0), BuildingBlock: AJUNOK_clean_linker_0, # of connection points: 2
#     Edge 19, Type (0, 0), BuildingBlock: AJUNOK_clean_linker_0, # of connection points: 2
#     Edge 20, Type (0, 0), BuildingBlock: AJUNOK_clean_linker_0, # of connection points: 2
#     Edge 21, Type (0, 0), BuildingBlock: AJUNOK_clean_linker_0, # of connection points: 2
#     Edge 22, Type (0, 0), BuildingBlock: AJUNOK_clean_linker_0, # of connection points: 2
#     Edge 23, Type (0, 0), BuildingBlock: AJUNOK_clean_linker_0, # of connection points: 2
#     Edge 24, Type (0, 0), BuildingBlock: AJUNOK_clean_linker_0, # of connection points: 2
#     Edge 25, Type (0, 0), BuildingBlock: AJUNOK_clean_linker_0, # of connection points: 2
#     Edge 26, Type (0, 0), BuildingBlock: AJUNOK_clean_linker_0, # of connection points: 2
#     Edge 27, Type (0, 0), BuildingBlock: AJUNOK_clean_linker_0, # of connection points: 2
#     Edge 28, Type (0, 0), BuildingBlock: AJUNOK_clean_linker_0, # of connection points: 2
#     Edge 29, Type (0, 0), BuildingBlock: AJUNOK_clean_linker_0, # of connection points: 2
#     Edge 30, Type (0, 0), BuildingBlock: AJUNOK_clean_linker_0, # of connection points: 2
#     Edge 31, Type (0, 0), BuildingBlock: AJUNOK_clean_linker_0, # of connection points: 2
# Relax obj value: 0.369
# Max RMSD: 0.252
# Mean RMSD: 0.252
data_MOF--net-vmg--node1-MIDCAF_clean_sbu_0--edge1-AJUNOK_clean_linker_0
_symmetry_space_group_name_H-M    P1
_symmetry_Int_Tables_number       1
_symmetry_cell_setting            triclinic
loop_
_symmetry_equiv_pos_as_xyz
'x, y, z'
_cell_length_a     18.43344
_cell_length_b     33.585494
_cell_length_c     19.408657
_cell_angle_alpha  89.495608
_cell_angle_beta   92.050009
_cell_angle_gamma 90.201888
loop_
_atom_site_label
_atom_site_type_symbol
_atom_site_fract_x
_atom_site_fract_y
_atom_site_fract_z
_atom_type_partial_charge
Zn0 Zn 0.00817 0.41085 0.22378 0.0
Zn1 Zn 0.32452 0.40358 0.03768 0.0
Zn2 Zn 0.2181 0.3963 0.10753 0.0
C3 C 0.36849 0.42651 0.16676 0.0
C4 C 0.2831 0.32112 0.04701 0.0
O5 O 0.14459 0.43514 0.05655 0.0
O6 O 0.08122 0.41932 0.14507 0.0
C7 C 0.18458 0.43909 0.24955 0.0
O8 O 0.30216 0.41733 0.17747 0.0
O9 O 0.39266 0.4252 0.10702 0.0
O10 O 0.32704 0.34559 0.02133 0.0
O11 O 0.23264 0.33352 0.08554 0.0
O12 O 0.11837 0.42852 0.23995 0.0
O13 O 0.23287 0.42704 0.20801 0.0
O14 O 0.16593 0.3379 0.1335 0.0
O15 O 0.09697 0.38235 0.17836 0.0
C16 C 0.1122 0.34576 0.17126 0.0
O17 O 0.1974 0.43394 0.00924 0.0
O18 O 0.30261 0.43772 0.95863 0.0
C19 C 0.08814 0.44051 0.09117 0.0
C20 C 0.23658 0.447 0.95962 0.0
Zn21 Zn 0.86515 0.41262 0.34809 0.0
Zn22 Zn 0.67539 0.36916 0.46589 0.0
Zn23 Zn 0.77254 0.3903 0.40041 0.0
C24 C 0.60842 0.40254 0.35498 0.0
C25 C 0.74888 0.30112 0.4425 0.0
O26 O 0.83496 0.42957 0.46735 0.0
O27 O 0.93762 0.40911 0.42622 0.0
C28 C 0.77085 0.45844 0.2916 0.0
O29 O 0.67466 0.4052 0.33662 0.0
O30 O 0.594 0.38944 0.4137 0.0
O31 O 0.68793 0.3126 0.46144 0.0
O32 O 0.79316 0.32622 0.41609 0.0
O33 O 0.83009 0.46604 0.32325 0.0
O34 O 0.73751 0.42564 0.30598 0.0
O35 O 0.84905 0.34063 0.36564 0.0
O36 O 0.86811 0.37439 0.27117 0.0
C37 C 0.87517 0.34228 0.30456 0.0
O38 O 0.76754 0.42387 0.50187 0.0
O39 O 0.68265 0.39147 0.55729 0.0
C40 C 0.90478 0.42905 0.47021 0.0
C41 C 0.72828 0.41928 0.55535 0.0
Zn42 Zn 0.84996 0.56925 0.83997 0.0
Zn43 Zn 0.66761 0.60964 0.96804 0.0
Zn44 Zn 0.75766 0.58973 0.89531 0.0
C45 C 0.59091 0.57319 0.8669 0.0
C46 C 0.72742 0.67911 0.9254 0.0
O47 O 0.82344 0.55007 0.96108 0.0
O48 O 0.92482 0.5697 0.91507 0.0
C49 C 0.75021 0.5235 0.78768 0.0
O50 O 0.65356 0.57583 0.83961 0.0
O51 O 0.58514 0.58051 0.92982 0.0
O52 O 0.66754 0.66642 0.94601 0.0
O53 O 0.77524 0.65418 0.90606 0.0
O54 O 0.81206 0.51682 0.81476 0.0
O55 O 0.71686 0.55573 0.80317 0.0
O56 O 0.83332 0.64024 0.86031 0.0
O57 O 0.85826 0.60889 0.76537 0.0
C58 C 0.86294 0.64009 0.80079 0.0
O59 O 0.75805 0.55643 0.99772 0.0
O60 O 0.69115 0.59384 0.0635 0.0
C61 C 0.8932 0.55092 0.96191 0.0
C62 C 0.72939 0.5633 0.05627 0.0
Zn63 Zn 0.32027 0.60912 0.5406 0.0
Zn64 Zn 0.99176 0.59115 0.67047 0.0
Zn65 Zn 0.20253 0.60348 0.60196 0.0
C66 C 0.07546 0.65926 0.63002 0.0
C67 C 0.13655 0.55803 0.74403 0.0
O68 O 0.20822 0.56677 0.50349 0.0
O69 O 0.32133 0.56792 0.46895 0.0
C70 C 0.24509 0.68321 0.53142 0.0
O71 O 0.14473 0.66125 0.62585 0.0
O72 O 0.0467 0.62821 0.6045 0.0
O73 O 0.06805 0.56413 0.73587 0.0
O74 O 0.18442 0.5717 0.70199 0.0
O75 O 0.29882 0.66419 0.51026 0.0
O76 O 0.20264 0.66675 0.57446 0.0
O77 O 0.27959 0.58381 0.68186 0.0
O78 O 0.378 0.59739 0.62385 0.0
C79 C 0.34891 0.58477 0.67767 0.0
O80 O 0.14743 0.56073 0.53783 0.0
O81 O 0.06526 0.58659 0.59765 0.0
C82 C 0.25716 0.55522 0.46183 0.0
C83 C 0.08368 0.55858 0.55965 0.0
Zn84 Zn 0.59531 0.91008 0.14656 0.0
Zn85 Zn 0.9013 0.83877 0.05936 0.0
Zn86 Zn 0.71489 0.886 0.13729 0.0
C87 C 0.85967 0.88972 0.18668 0.0
C88 C 0.75562 0.80999 0.10153 0.0
O89 O 0.6898 0.92278 0.04487 0.0
O90 O 0.57224 0.9309 0.05574 0.0
C91 C 0.68299 0.94542 0.25145 0.0
O92 O 0.80265 0.9052 0.21048 0.0
O93 O 0.84818 0.86455 0.13929 0.0
O94 O 0.81255 0.8298 0.11573 0.0
O95 O 0.69771 0.82307 0.12685 0.0
O96 O 0.62189 0.94844 0.22034 0.0
O97 O 0.73055 0.92087 0.23045 0.0
O98 O 0.63904 0.83401 0.16587 0.0
O99 O 0.53534 0.86584 0.17355 0.0
C100 C 0.57072 0.83397 0.17941 0.0
O101 O 0.7662 0.90305 0.03581 0.0
O102 O 0.86665 0.87824 0.98571 0.0
C103 C 0.62816 0.9357 0.02145 0.0
C104 C 0.81247 0.90202 0.98657 0.0
Zn105 Zn 0.40272 0.91312 0.318 0.0
Zn106 Zn 0.11272 0.91484 0.39468 0.0
Zn107 Zn 0.28063 0.90964 0.34018 0.0
C108 C 0.15135 0.9416 0.26769 0.0
C109 C 0.19647 0.8357 0.39574 0.0
O110 O 0.33722 0.95212 0.41146 0.0
O111 O 0.43433 0.96473 0.35215 0.0
C112 C 0.34098 0.92245 0.19096 0.0
O113 O 0.20941 0.92391 0.2519 0.0
O114 O 0.15102 0.95516 0.32746 0.0
O115 O 0.13857 0.85562 0.40168 0.0
O116 O 0.2544 0.85139 0.37264 0.0
O117 O 0.40064 0.90992 0.21634 0.0
O118 O 0.28689 0.92728 0.23037 0.0
O119 O 0.33003 0.84893 0.34163 0.0
O120 O 0.43968 0.86682 0.3736 0.0
C121 C 0.39654 0.83929 0.35581 0.0
O122 O 0.26049 0.94854 0.43194 0.0
O123 O 0.15025 0.94189 0.47727 0.0
C124 C 0.39702 0.97142 0.40375 0.0
C125 C 0.21359 0.95676 0.47824 0.0
Zn126 Zn 0.42411 0.09754 0.7576 0.0
Zn127 Zn 0.24753 0.08998 0.92523 0.0
Zn128 Zn 0.34055 0.09011 0.84894 0.0
C129 C 0.16989 0.08383 0.81272 0.0
C130 C 0.31164 0.15719 0.9608 0.0
O131 O 0.42367 0.04736 0.87348 0.0
O132 O 0.51034 0.07649 0.81476 0.0
C133 C 0.31942 0.05933 0.69288 0.0
O134 O 0.23547 0.07825 0.79416 0.0
O135 O 0.15817 0.09781 0.87121 0.0
O136 O 0.27377 0.13151 0.99062 0.0
O137 O 0.33947 0.14851 0.90278 0.0
O138 O 0.3868 0.06271 0.68615 0.0
O139 O 0.28987 0.07178 0.74799 0.0
O140 O 0.40131 0.14823 0.85025 0.0
O141 O 0.39865 0.15477 0.73925 0.0
C142 C 0.41958 0.16836 0.79666 0.0
O143 O 0.36495 0.03844 0.91936 0.0
O144 O 0.25436 0.03536 0.95758 0.0
C145 C 0.49034 0.04984 0.8566 0.0
C146 C 0.31592 0.01985 0.95294 0.0
Zn147 Zn 0.83425 0.08054 0.56468 0.0
Zn148 Zn 0.65613 0.06106 0.72018 0.0
Zn149 Zn 0.74402 0.07389 0.64513 0.0
C150 C 0.68094 0.13707 0.74191 0.0
C151 C 0.75338 0.01113 0.76413 0.0
O152 O 0.71315 0.04002 0.54973 0.0
O153 O 0.7887 0.0665 0.47624 0.0
C154 C 0.80386 0.15599 0.59141 0.0
O155 O 0.6982 0.13185 0.67882 0.0
O156 O 0.68114 0.10694 0.78113 0.0
O157 O 0.68596 0.00841 0.75303 0.0
O158 O 0.78946 0.03912 0.73479 0.0
O159 O 0.85907 0.13712 0.57406 0.0
O160 O 0.7514 0.13731 0.61971 0.0
O161 O 0.85074 0.05348 0.69092 0.0
O162 O 0.90964 0.04365 0.59594 0.0
C163 C 0.90904 0.04322 0.6607 0.0
O164 O 0.65292 0.04225 0.59369 0.0
O165 O 0.56593 0.06104 0.66172 0.0
C166 C 0.73693 0.0433 0.48822 0.0
C167 C 0.58501 0.04523 0.60654 0.0
C168 C 0.54259 0.44475 0.26684 0.0
C169 C 0.54671 0.41019 0.30777 0.0
C170 C 0.48091 0.4521 0.22445 0.0
C171 C 0.42194 0.42542 0.2234 0.0
H172 H 0.58692 0.46599 0.2676 0.0
H173 H 0.48018 0.47798 0.19069 0.0
S174 S 0.408 0.33023 0.32005 0.0
N175 N 0.48781 0.34883 0.34405 0.0
N176 N 0.37212 0.36292 0.26497 0.0
C177 C 0.42529 0.39118 0.26499 0.0
C178 C 0.48777 0.38351 0.30719 0.0
C179 C 0.52206 0.54884 0.76229 0.0
C180 C 0.52306 0.56907 0.82505 0.0
C181 C 0.46071 0.55039 0.71778 0.0
C182 C 0.39909 0.57274 0.73413 0.0
H183 H 0.56975 0.53313 0.74628 0.0
H184 H 0.46336 0.53628 0.66793 0.0
S185 S 0.37347 0.63003 0.89305 0.0
N186 N 0.45502 0.61026 0.90338 0.0
N187 N 0.34182 0.61449 0.81735 0.0
C188 C 0.39789 0.59139 0.79801 0.0
C189 C 0.45954 0.58924 0.84409 0.0
C190 C 0.01926 0.95412 0.24722 0.0
C191 C 0.07983 0.92952 0.23707 0.0
C192 C 0.94812 0.9411 0.23162 0.0
C193 C 0.93476 0.90291 0.20517 0.0
H194 H 0.02687 0.98342 0.26931 0.0
H195 H 0.9034 0.96106 0.24042 0.0
S196 S 0.07379 0.82606 0.1721 0.0
N197 N 0.12119 0.86476 0.20028 0.0
N198 N 0.98802 0.84006 0.17143 0.0
C199 C 0.99486 0.87808 0.19426 0.0
C200 C 0.06726 0.89143 0.20988 0.0
C201 C 0.10147 0.07519 0.70109 0.0
C202 C 0.10816 0.06814 0.77203 0.0
C203 C 0.03841 0.06369 0.66431 0.0
C204 C 0.98022 0.04489 0.69755 0.0
H205 H 0.14338 0.09132 0.67465 0.0
H206 H 0.03355 0.07204 0.61031 0.0
S207 S 0.98249 0.00993 0.87877 0.0
N208 N 0.0597 0.03432 0.87167 0.0
N209 N 0.94053 0.01307 0.80226 0.0
C210 C 0.98977 0.03446 0.76712 0.0
C211 C 0.05405 0.04601 0.80447 0.0
C212 C 0.32632 0.26938 0.96736 0.0
C213 C 0.29177 0.27881 0.02888 0.0
C214 C 0.3364 0.22994 0.94745 0.0
C215 C 0.31272 0.19822 0.98843 0.0
H216 H 0.34439 0.29275 0.93311 0.0
H217 H 0.36055 0.2245 0.89841 0.0
S218 S 0.22766 0.20691 0.15897 0.0
N219 N 0.23958 0.25339 0.13343 0.0
N220 N 0.25906 0.17895 0.09723 0.0
C221 C 0.28126 0.20722 0.05198 0.0
C222 C 0.27036 0.24755 0.07177 0.0
C223 C 0.71506 0.23315 0.47681 0.0
C224 C 0.77063 0.26135 0.46733 0.0
C225 C 0.72512 0.20063 0.5212 0.0
C226 C 0.79155 0.1946 0.55713 0.0
H227 H 0.66188 0.23733 0.45219 0.0
H228 H 0.68097 0.1795 0.52591 0.0
S229 S 0.95654 0.25756 0.54619 0.0
N230 N 0.89563 0.28016 0.49518 0.0
N231 N 0.91576 0.21758 0.57681 0.0
C232 C 0.84893 0.22133 0.54561 0.0
C233 C 0.83836 0.25491 0.50082 0.0
C234 C 0.81398 0.75713 0.0336 0.0
C235 C 0.7538 0.78172 0.04406 0.0
C236 C 0.81012 0.7266 0.98474 0.0
C237 C 0.74603 0.72014 0.94494 0.0
H238 H 0.86237 0.75965 0.06667 0.0
H239 H 0.8543 0.70543 0.98375 0.0
S240 S 0.58198 0.78384 0.93898 0.0
N241 N 0.63464 0.8031 0.0008 0.0
N242 N 0.62762 0.74598 0.90861 0.0
C243 C 0.68974 0.74813 0.94837 0.0
C244 C 0.69319 0.77869 -0.00139 0.0
C245 C 0.26392 0.73224 0.43707 0.0
C246 C 0.22878 0.72226 0.49837 0.0
C247 C 0.25023 0.76804 0.40224 0.0
C248 C 0.20084 0.79556 0.42698 0.0
H249 H 0.30265 0.71219 0.41519 0.0
H250 H 0.27924 0.77431 0.35589 0.0
S251 S 0.09362 0.78436 0.58463 0.0
N252 N 0.14159 0.74305 0.58186 0.0
N253 N 0.11549 0.81065 0.5161 0.0
C254 C 0.16374 0.78583 0.48722 0.0
C255 C 0.17794 0.74919 0.52307 0.0
C256 C 0.01087 0.53545 0.01994 0.0
C257 C 0.93709 0.52582 0.00912 0.0
C258 C 0.05917 0.50787 0.0493 0.0
C259 C 0.03484 0.47024 0.06988 0.0
H260 H 0.03229 0.56362 0.00194 0.0
H261 H 0.11633 0.5155 0.05367 0.0
S262 S 0.84796 0.43042 0.05484 0.0
N263 N 0.84215 0.47595 0.02222 0.0
N264 N 0.93356 0.42465 0.08072 0.0
C265 C 0.96096 0.46088 0.06356 0.0
C266 C 0.91166 0.4887 0.03241 0.0
C267 C 0.06646 0.48673 0.53625 0.0
C268 C 0.03644 0.52438 0.54673 0.0
C269 C 0.02195 0.45447 0.51836 0.0
C270 C 0.94636 0.45918 0.50923 0.0
H271 H 0.12471 0.48241 0.54015 0.0
H272 H 0.04732 0.42625 0.50758 0.0
S273 S 0.84253 0.5525 0.53114 0.0
N274 N 0.92767 0.56478 0.54936 0.0
N275 N 0.84391 0.5046 0.51313 0.0
C276 C 0.91572 0.49648 0.52265 0.0
C277 C 0.96098 0.5291 0.54179 0.0
C278 C 0.63655 0.00179 0.96799 0.0
C279 C 0.61971 0.96118 0.96039 0.0
C280 C 0.59905 0.03091 0.92882 0.0
C281 C 0.54203 0.01998 0.88303 0.0
H282 H 0.6725 0.01135 0.00998 0.0
H283 H 0.60972 0.06205 0.93939 0.0
S284 S 0.48253 0.91772 0.83893 0.0
N285 N 0.54832 0.91153 0.89808 0.0
N286 N 0.47557 0.96628 0.82636 0.0
C287 C 0.52874 0.97951 0.87087 0.0
C288 C 0.5683 0.95001 0.90915 0.0
C289 C 0.47957 0.02612 0.44056 0.0
C290 C 0.4317 -0.00466 0.45899 0.0
C291 C 0.52818 0.04284 0.48915 0.0
C292 C 0.52961 0.0298 0.55789 0.0
H293 H 0.48208 0.03594 0.38734 0.0
H294 H 0.56584 0.06554 0.47264 0.0
S295 S 0.41572 0.95087 0.6335 0.0
N296 N 0.38999 0.95227 0.5511 0.0
N297 N 0.47827 0.98588 0.64348 0.0
C298 C 0.47996 0.00059 0.57809 0.0
C299 C 0.4317 0.98274 0.52827 0.0
C300 C 0.06489 0.31648 0.27687 0.0
C301 C 0.06344 0.31654 0.20411 0.0
C302 C 0.00024 0.31587 0.31377 0.0
C303 C 0.93192 0.31525 0.27898 0.0
H304 H 0.1151 0.3236 0.3049 0.0
H305 H 0.00383 0.32261 0.36829 0.0
S306 S 0.89993 0.30164 0.09103 0.0
N307 N 0.98911 0.30543 0.10064 0.0
N308 N 0.86813 0.30407 0.1694 0.0
C309 C 0.93095 0.30725 0.20777 0.0
C310 C 0.99667 0.30797 0.17035 0.0
C311 C 0.96409 0.69131 0.66756 0.0
C312 C 0.03483 0.67821 0.68569 0.0
C313 C 0.90682 0.68676 0.71303 0.0
C314 C 0.91825 0.66918 0.77854 0.0
H315 H 0.95066 0.69956 0.61453 0.0
H316 H 0.85188 0.69139 0.69288 0.0
S317 S 0.09671 0.64061 0.85774 0.0
N318 N 0.11574 0.65525 0.77887 0.0
N319 N 0.00843 0.64713 0.86451 0.0
C320 C 0.99074 0.66281 0.8014 0.0
C321 C 0.04912 0.66715 0.75483 0.0
C322 C 0.5045 0.79775 0.33748 0.0
C323 C 0.43068 0.80539 0.3201 0.0
C324 C 0.55605 0.79598 0.28573 0.0
C325 C 0.53422 0.80118 0.21609 0.0
H326 H 0.52438 0.80152 0.39025 0.0
H327 H 0.61291 0.79885 0.30112 0.0
S328 S 0.34551 0.79679 0.14515 0.0
N329 N 0.33692 0.79929 0.22942 0.0
N330 N 0.43368 0.79526 0.13289 0.0
C331 C 0.46007 0.79559 0.19916 0.0
C332 C 0.40766 0.79792 0.25151 0.0
C333 C 0.61448 0.17113 0.83327 0.0
C334 C 0.63581 0.1711 0.76395 0.0
C335 C 0.54255 0.17973 0.84946 0.0
C336 C 0.49112 0.18932 0.79673 0.0
H337 H 0.64907 0.15759 0.8732 0.0
H338 H 0.52507 0.17197 0.90058 0.0
S339 S 0.53302 0.21759 0.61725 0.0
N340 N 0.6094 0.19838 0.64957 0.0
N341 N 0.47565 0.217 0.68077 0.0
C342 C 0.51845 0.20149 0.73273 0.0
C343 C 0.59092 0.19146 0.71571 0.0
C344 C 0.25668 0.50118 0.87394 0.0
C345 C 0.20797 0.47533 0.90651 0.0
C346 C 0.23299 0.52795 0.82244 0.0
C347 C 0.15964 0.53059 0.80145 0.0
H348 H 0.31406 0.5008 0.88818 0.0
H349 H 0.27273 0.54644 0.79864 0.0
S350 S 0.01043 0.46701 0.86691 0.0
N351 N 0.08351 0.45209 0.91134 0.0
N352 N 0.038 0.5032 0.81595 0.0
C353 C 0.10999 0.50472 0.83369 0.0
C354 C 0.13441 0.477 0.88582 0.0
C355 C 0.71483 0.48672 0.60712 0.0
C356 C 0.73272 0.44619 0.61476 0.0
C357 C 0.7126 0.51176 0.66482 0.0
C358 C 0.72678 0.49662 0.7317 0.0
H359 H 0.70271 0.49911 0.55632 0.0
H360 H 0.70378 0.54336 0.65674 0.0
S361 S 0.76595 0.3915 0.77931 0.0
N362 N 0.75736 0.39138 0.69433 0.0
N363 N 0.75267 0.43802 0.80248 0.0
C364 C 0.73986 0.45561 0.73987 0.0
C365 C 0.74278 0.43045 0.6815 0.0
C366 C 0.7765 0.52471 0.23478 0.0
C367 C 0.74918 0.4854 0.23387 0.0
C368 C 0.77085 0.54943 0.17658 0.0
C369 C 0.73843 0.5357 0.11497 0.0
H370 H 0.80431 0.53625 0.28055 0.0
H371 H 0.79289 0.57935 0.17953 0.0
S372 S 0.65046 0.43751 0.08674 0.0
N373 N 0.68364 0.43509 0.16691 0.0
N374 N 0.67171 0.48227 0.05746 0.0
C375 C 0.70769 0.49735 0.11375 0.0
C376 C 0.71329 0.47201 0.17329 0.0
C377 C 0.16021 0.5016 0.314 0.0
C378 C 0.204 0.46784 0.30501 0.0
C379 C 0.1774 0.52975 0.36522 0.0
C380 C 0.23938 0.5253 0.40868 0.0
H381 H 0.11264 0.5065 0.28064 0.0
H382 H 0.14262 0.55543 0.3702 0.0
S383 S 0.36631 0.44001 0.41284 0.0
N384 N 0.30782 0.42995 0.34878 0.0
N385 N 0.34162 0.48345 0.44336 0.0
C386 C 0.283 0.49154 0.40113 0.0
C387 C 0.26499 0.46267 0.34961 0.0
C388 C 0.79264 0.91666 0.86183 0.0
C389 C 0.80441 0.93055 0.92927 0.0
C390 C 0.78191 0.94342 0.80672 0.0
C391 C 0.78476 0.98472 0.81733 0.0
H392 H 0.78894 0.88498 0.8521 0.0
H393 H 0.76833 0.9318 0.75595 0.0
S394 S 0.82134 0.03578 0.98333 0.0
N395 N 0.8238 0.98783 0.00334 0.0
N396 N 0.803 0.03828 0.89941 0.0
C397 C 0.79928 -0.00111 0.88414 0.0
C398 C 0.80965 0.97169 0.9403 0.0
C399 C 0.29393 0.04593 0.56969 0.0
C400 C 0.27795 0.03825 0.63881 0.0
C401 C 0.27039 0.02012 0.51743 0.0
C402 C 0.23196 0.9853 0.53305 0.0
H403 H 0.32775 0.07111 0.55634 0.0
H404 H 0.28453 0.02674 0.46486 0.0
S405 S 0.17019 0.95397 0.70517 0.0
N406 N 0.21624 -0.00449 0.71965 0.0
N407 N 0.17233 0.94644 0.62126 0.0
C408 C 0.21126 0.97872 0.60131 0.0
C409 C 0.23453 0.00532 0.65445 0.0
C410 C 0.40083 0.95755 0.0945 0.0
C411 C 0.33914 0.93783 0.11952 0.0
C412 C 0.39645 0.98063 0.03385 0.0
C413 C 0.33028 0.9843 0.99646 0.0
H414 H 0.45118 0.95805 0.12504 0.0
H415 H 0.44281 -0.00138 0.02028 0.0
S416 S 0.15935 0.92946 0.02992 0.0
N417 N 0.21478 0.91718 0.09531 0.0
N418 N 0.20647 0.95938 0.9803 0.0
C419 C 0.27131 0.96024 0.01601 0.0
C420 C 0.27552 0.93748 0.07819 0.0
C421 C 0.72712 0.97689 0.43469 0.0
C422 C 0.71094 0.01774 0.43205 0.0
C423 C 0.72059 0.95354 0.37516 0.0
C424 C 0.6966 0.97046 0.31201 0.0
H425 H 0.74827 0.96339 0.48215 0.0
H426 H 0.73372 0.92215 0.37861 0.0
S427 S 0.64588 0.07583 0.27933 0.0
N428 N 0.67022 0.07407 0.36202 0.0
N429 N 0.65467 0.02998 0.25075 0.0
C430 C 0.67829 0.01101 0.30948 0.0
C431 C 0.68635 0.03477 0.36945 0.0
loop_
_geom_bond_atom_site_label_1
_geom_bond_atom_site_label_2
_geom_bond_distance
_geom_bond_site_symmetry_2
_ccdc_geom_bond_type
Zn0 O6 1.920 . S
Zn0 O12 1.898 . S
Zn0 O15 1.905 . S
Zn1 O9 1.905 . S
Zn1 O10 1.898 . S
Zn1 O18 1.920 1_554 S
Zn2 O5 2.080 . S
Zn2 O8 2.114 . S
Zn2 O11 2.120 . S
Zn2 O13 2.120 . S
Zn2 O14 2.114 . S
Zn2 O17 2.080 . S
C3 O8 1.166 . S
C3 O9 1.182 . S
C4 O10 1.167 . S
C4 O11 1.299 . S
O5 Zn2 2.080 . S
O5 C19 1.305 . S
O6 Zn0 1.920 . S
O6 C19 1.234 . S
C7 O12 1.167 . S
C7 O13 1.299 . S
O8 Zn2 2.114 . S
O8 C3 1.166 . S
O9 Zn1 1.905 . S
O9 C3 1.182 . S
O10 Zn1 1.898 . S
O10 C4 1.167 . S
O11 Zn2 2.120 . S
O11 C4 1.299 . S
O12 Zn0 1.898 . S
O12 C7 1.167 . S
O13 Zn2 2.120 . S
O13 C7 1.299 . S
O14 Zn2 2.114 . S
O14 C16 1.166 . S
O15 Zn0 1.905 . S
O15 C16 1.182 . S
C16 O14 1.166 . S
C16 O15 1.182 . S
O17 Zn2 2.080 . S
O17 C20 1.305 1_554 S
O18 Zn1 1.920 1_556 S
O18 C20 1.234 . S
C19 O5 1.305 . S
C19 O6 1.234 . S
C20 O17 1.305 1_556 S
C20 O18 1.234 . S
Zn21 O27 1.920 . S
Zn21 O33 1.898 . S
Zn21 O36 1.905 . S
Zn22 O30 1.905 . S
Zn22 O31 1.898 . S
Zn22 O39 1.920 . S
Zn23 O26 2.080 . S
Zn23 O29 2.114 . S
Zn23 O32 2.120 . S
Zn23 O34 2.120 . S
Zn23 O35 2.114 . S
Zn23 O38 2.080 . S
C24 O29 1.166 . S
C24 O30 1.182 . S
C25 O31 1.167 . S
C25 O32 1.299 . S
O26 Zn23 2.080 . S
O26 C40 1.305 . S
O27 Zn21 1.920 . S
O27 C40 1.234 . S
C28 O33 1.167 . S
C28 O34 1.299 . S
O29 Zn23 2.114 . S
O29 C24 1.166 . S
O30 Zn22 1.905 . S
O30 C24 1.182 . S
O31 Zn22 1.898 . S
O31 C25 1.167 . S
O32 Zn23 2.120 . S
O32 C25 1.299 . S
O33 Zn21 1.898 . S
O33 C28 1.167 . S
O34 Zn23 2.120 . S
O34 C28 1.299 . S
O35 Zn23 2.114 . S
O35 C37 1.166 . S
O36 Zn21 1.905 . S
O36 C37 1.182 . S
C37 O35 1.166 . S
C37 O36 1.182 . S
O38 Zn23 2.080 . S
O38 C41 1.305 . S
O39 Zn22 1.920 . S
O39 C41 1.234 . S
C40 O26 1.305 . S
C40 O27 1.234 . S
C41 O38 1.305 . S
C41 O39 1.234 . S
Zn42 O48 1.920 . S
Zn42 O54 1.898 . S
Zn42 O57 1.905 . S
Zn43 O51 1.905 . S
Zn43 O52 1.898 . S
Zn43 O60 1.920 1_556 S
Zn44 O47 2.080 . S
Zn44 O50 2.114 . S
Zn44 O53 2.120 . S
Zn44 O55 2.120 . S
Zn44 O56 2.114 . S
Zn44 O59 2.080 . S
C45 O50 1.166 . S
C45 O51 1.182 . S
C46 O52 1.167 . S
C46 O53 1.299 . S
O47 Zn44 2.080 . S
O47 C61 1.305 . S
O48 Zn42 1.920 . S
O48 C61 1.234 . S
C49 O54 1.167 . S
C49 O55 1.299 . S
O50 Zn44 2.114 . S
O50 C45 1.166 . S
O51 Zn43 1.905 . S
O51 C45 1.182 . S
O52 Zn43 1.898 . S
O52 C46 1.167 . S
O53 Zn44 2.120 . S
O53 C46 1.299 . S
O54 Zn42 1.898 . S
O54 C49 1.167 . S
O55 Zn44 2.120 . S
O55 C49 1.299 . S
O56 Zn44 2.114 . S
O56 C58 1.166 . S
O57 Zn42 1.905 . S
O57 C58 1.182 . S
C58 O56 1.166 . S
C58 O57 1.182 . S
O59 Zn44 2.080 . S
O59 C62 1.305 1_556 S
O60 Zn43 1.920 1_554 S
O60 C62 1.234 . S
C61 O47 1.305 . S
C61 O48 1.234 . S
C62 O59 1.305 1_554 S
C62 O60 1.234 . S
Zn63 O69 1.920 . S
Zn63 O75 1.898 . S
Zn63 O78 1.905 . S
Zn64 O72 1.905 . S
Zn64 O73 1.898 . S
Zn64 O81 1.920 . S
Zn65 O68 2.080 . S
Zn65 O71 2.114 . S
Zn65 O74 2.120 . S
Zn65 O76 2.120 . S
Zn65 O77 2.114 . S
Zn65 O80 2.080 . S
C66 O71 1.166 . S
C66 O72 1.182 . S
C67 O73 1.167 . S
C67 O74 1.299 . S
O68 Zn65 2.080 . S
O68 C82 1.305 . S
O69 Zn63 1.920 . S
O69 C82 1.234 . S
C70 O75 1.167 . S
C70 O76 1.299 . S
O71 Zn65 2.114 . S
O71 C66 1.166 . S
O72 Zn64 1.905 . S
O72 C66 1.182 . S
O73 Zn64 1.898 . S
O73 C67 1.167 . S
O74 Zn65 2.120 . S
O74 C67 1.299 . S
O75 Zn63 1.898 . S
O75 C70 1.167 . S
O76 Zn65 2.120 . S
O76 C70 1.299 . S
O77 Zn65 2.114 . S
O77 C79 1.166 . S
O78 Zn63 1.905 . S
O78 C79 1.182 . S
C79 O77 1.166 . S
C79 O78 1.182 . S
O80 Zn65 2.080 . S
O80 C83 1.305 . S
O81 Zn64 1.920 . S
O81 C83 1.234 . S
C82 O68 1.305 . S
C82 O69 1.234 . S
C83 O80 1.305 . S
C83 O81 1.234 . S
Zn84 O90 1.920 . S
Zn84 O96 1.898 . S
Zn84 O99 1.905 . S
Zn85 O93 1.905 . S
Zn85 O94 1.898 . S
Zn85 O102 1.920 1_554 S
Zn86 O89 2.080 . S
Zn86 O92 2.114 . S
Zn86 O95 2.120 . S
Zn86 O97 2.120 . S
Zn86 O98 2.114 . S
Zn86 O101 2.080 . S
C87 O92 1.166 . S
C87 O93 1.182 . S
C88 O94 1.167 . S
C88 O95 1.299 . S
O89 Zn86 2.080 . S
O89 C103 1.305 . S
O90 Zn84 1.920 . S
O90 C103 1.234 . S
C91 O96 1.167 . S
C91 O97 1.299 . S
O92 Zn86 2.114 . S
O92 C87 1.166 . S
O93 Zn85 1.905 . S
O93 C87 1.182 . S
O94 Zn85 1.898 . S
O94 C88 1.167 . S
O95 Zn86 2.120 . S
O95 C88 1.299 . S
O96 Zn84 1.898 . S
O96 C91 1.167 . S
O97 Zn86 2.120 . S
O97 C91 1.299 . S
O98 Zn86 2.114 . S
O98 C100 1.166 . S
O99 Zn84 1.905 . S
O99 C100 1.182 . S
C100 O98 1.166 . S
C100 O99 1.182 . S
O101 Zn86 2.080 . S
O101 C104 1.305 1_554 S
O102 Zn85 1.920 1_556 S
O102 C104 1.234 . S
C103 O89 1.305 . S
C103 O90 1.234 . S
C104 O101 1.305 1_556 S
C104 O102 1.234 . S
Zn105 O111 1.920 . S
Zn105 O117 1.898 . S
Zn105 O120 1.905 . S
Zn106 O114 1.905 . S
Zn106 O115 1.898 . S
Zn106 O123 1.920 . S
Zn107 O110 2.080 . S
Zn107 O113 2.114 . S
Zn107 O116 2.120 . S
Zn107 O118 2.120 . S
Zn107 O119 2.114 . S
Zn107 O122 2.080 . S
C108 O113 1.166 . S
C108 O114 1.182 . S
C109 O115 1.167 . S
C109 O116 1.299 . S
O110 Zn107 2.080 . S
O110 C124 1.305 . S
O111 Zn105 1.920 . S
O111 C124 1.234 . S
C112 O117 1.167 . S
C112 O118 1.299 . S
O113 Zn107 2.114 . S
O113 C108 1.166 . S
O114 Zn106 1.905 . S
O114 C108 1.182 . S
O115 Zn106 1.898 . S
O115 C109 1.167 . S
O116 Zn107 2.120 . S
O116 C109 1.299 . S
O117 Zn105 1.898 . S
O117 C112 1.167 . S
O118 Zn107 2.120 . S
O118 C112 1.299 . S
O119 Zn107 2.114 . S
O119 C121 1.166 . S
O120 Zn105 1.905 . S
O120 C121 1.182 . S
C121 O119 1.166 . S
C121 O120 1.182 . S
O122 Zn107 2.080 . S
O122 C125 1.305 . S
O123 Zn106 1.920 . S
O123 C125 1.234 . S
C124 O110 1.305 . S
C124 O111 1.234 . S
C125 O122 1.305 . S
C125 O123 1.234 . S
Zn126 O132 1.920 . S
Zn126 O138 1.898 . S
Zn126 O141 1.905 . S
Zn127 O135 1.905 . S
Zn127 O136 1.898 . S
Zn127 O144 1.920 1_556 S
Zn128 O131 2.080 . S
Zn128 O134 2.114 . S
Zn128 O137 2.120 . S
Zn128 O139 2.120 . S
Zn128 O140 2.114 . S
Zn128 O143 2.080 . S
C129 O134 1.166 . S
C129 O135 1.182 . S
C130 O136 1.167 . S
C130 O137 1.299 . S
O131 Zn128 2.080 . S
O131 C145 1.305 . S
O132 Zn126 1.920 . S
O132 C145 1.234 . S
C133 O138 1.167 . S
C133 O139 1.299 . S
O134 Zn128 2.114 . S
O134 C129 1.166 . S
O135 Zn127 1.905 . S
O135 C129 1.182 . S
O136 Zn127 1.898 . S
O136 C130 1.167 . S
O137 Zn128 2.120 . S
O137 C130 1.299 . S
O138 Zn126 1.898 . S
O138 C133 1.167 . S
O139 Zn128 2.120 . S
O139 C133 1.299 . S
O140 Zn128 2.114 . S
O140 C142 1.166 . S
O141 Zn126 1.905 . S
O141 C142 1.182 . S
C142 O140 1.166 . S
C142 O141 1.182 . S
O143 Zn128 2.080 . S
O143 C146 1.305 1_556 S
O144 Zn127 1.920 1_554 S
O144 C146 1.234 . S
C145 O131 1.305 . S
C145 O132 1.234 . S
C146 O143 1.305 1_554 S
C146 O144 1.234 . S
Zn147 O153 1.920 . S
Zn147 O159 1.898 . S
Zn147 O162 1.905 . S
Zn148 O156 1.905 . S
Zn148 O157 1.898 . S
Zn148 O165 1.920 . S
Zn149 O152 2.080 . S
Zn149 O155 2.114 . S
Zn149 O158 2.120 . S
Zn149 O160 2.120 . S
Zn149 O161 2.114 . S
Zn149 O164 2.080 . S
C150 O155 1.166 . S
C150 O156 1.182 . S
C151 O157 1.167 . S
C151 O158 1.299 . S
O152 Zn149 2.080 . S
O152 C166 1.305 . S
O153 Zn147 1.920 . S
O153 C166 1.234 . S
C154 O159 1.167 . S
C154 O160 1.299 . S
O155 Zn149 2.114 . S
O155 C150 1.166 . S
O156 Zn148 1.905 . S
O156 C150 1.182 . S
O157 Zn148 1.898 . S
O157 C151 1.167 . S
O158 Zn149 2.120 . S
O158 C151 1.299 . S
O159 Zn147 1.898 . S
O159 C154 1.167 . S
O160 Zn149 2.120 . S
O160 C154 1.299 . S
O161 Zn149 2.114 . S
O161 C163 1.166 . S
O162 Zn147 1.905 . S
O162 C163 1.182 . S
C163 O161 1.166 . S
C163 O162 1.182 . S
O164 Zn149 2.080 . S
O164 C167 1.305 . S
O165 Zn148 1.920 . S
O165 C167 1.234 . S
C166 O152 1.305 . S
C166 O153 1.234 . S
C167 O164 1.305 . S
C167 O165 1.234 . S
C168 C169 1.369 . S
C168 C170 1.419 . S
C168 H172 0.930 . S
C169 C168 1.369 . S
C169 C178 1.429 . S
C170 C168 1.419 . S
C170 C171 1.363 . S
C170 H173 0.929 . S
C171 C170 1.363 . S
C171 C177 1.428 . S
H172 C168 0.930 . S
H173 C170 0.929 . S
S174 N175 1.613 . S
S174 N176 1.610 . S
N175 S174 1.613 . S
N175 C178 1.350 . S
N176 S174 1.610 . S
N176 C177 1.351 . S
C177 C171 1.428 . S
C177 N176 1.351 . S
C177 C178 1.434 . S
C178 C169 1.429 . S
C178 N175 1.350 . S
C178 C177 1.434 . S
C179 C180 1.369 . S
C179 C181 1.419 . S
C179 H183 0.930 . S
C180 C179 1.369 . S
C180 C189 1.429 . S
C181 C179 1.419 . S
C181 C182 1.363 . S
C181 H184 0.929 . S
C182 C181 1.363 . S
C182 C188 1.428 . S
H183 C179 0.930 . S
H184 C181 0.929 . S
S185 N186 1.613 . S
S185 N187 1.610 . S
N186 S185 1.613 . S
N186 C189 1.350 . S
N187 S185 1.610 . S
N187 C188 1.351 . S
C188 C182 1.428 . S
C188 N187 1.351 . S
C188 C189 1.434 . S
C189 C180 1.429 . S
C189 N186 1.350 . S
C189 C188 1.434 . S
C190 C191 1.369 . S
C190 C192 1.419 1_455 S
C190 H194 0.930 . S
C191 C190 1.369 . S
C191 C200 1.429 . S
C192 C190 1.419 1_655 S
C192 C193 1.363 . S
C192 H195 0.929 . S
C193 C192 1.363 . S
C193 C199 1.428 . S
H194 C190 0.930 . S
H195 C192 0.929 . S
S196 N197 1.613 1_655 S
S196 N198 1.610 . S
N197 S196 1.613 1_455 S
N197 C200 1.350 . S
N198 S196 1.610 . S
N198 C199 1.351 . S
C199 C193 1.428 . S
C199 N198 1.351 . S
C199 C200 1.434 1_655 S
C200 C191 1.429 . S
C200 N197 1.350 . S
C200 C199 1.434 1_455 S
C201 C202 1.369 . S
C201 C203 1.419 1_455 S
C201 H205 0.930 . S
C202 C201 1.369 . S
C202 C211 1.429 . S
C203 C201 1.419 1_655 S
C203 C204 1.363 . S
C203 H206 0.929 . S
C204 C203 1.363 . S
C204 C210 1.428 . S
H205 C201 0.930 . S
H206 C203 0.929 . S
S207 N208 1.613 1_655 S
S207 N209 1.610 . S
N208 S207 1.613 1_455 S
N208 C211 1.350 . S
N209 S207 1.610 . S
N209 C210 1.351 . S
C210 C204 1.428 . S
C210 N209 1.351 . S
C210 C211 1.434 1_655 S
C211 C202 1.429 . S
C211 N208 1.350 . S
C211 C210 1.434 1_455 S
C212 C213 1.369 1_556 S
C212 C214 1.419 . S
C212 H216 0.930 . S
C213 C212 1.369 1_554 S
C213 C222 1.429 . S
C214 C212 1.419 . S
C214 C215 1.363 . S
C214 H217 0.929 . S
C215 C214 1.363 . S
C215 C221 1.428 1_556 S
H216 C212 0.930 . S
H217 C214 0.929 . S
S218 N219 1.613 . S
S218 N220 1.610 . S
N219 S218 1.613 . S
N219 C222 1.350 . S
N220 S218 1.610 . S
N220 C221 1.351 . S
C221 C215 1.428 1_554 S
C221 N220 1.351 . S
C221 C222 1.434 . S
C222 C213 1.429 . S
C222 N219 1.350 . S
C222 C221 1.434 . S
C223 C224 1.369 . S
C223 C225 1.419 . S
C223 H227 0.930 . S
C224 C223 1.369 . S
C224 C233 1.429 . S
C225 C223 1.419 . S
C225 C226 1.363 . S
C225 H228 0.929 . S
C226 C225 1.363 . S
C226 C232 1.428 . S
H227 C223 0.930 . S
H228 C225 0.929 . S
S229 N230 1.613 . S
S229 N231 1.610 . S
N230 S229 1.613 . S
N230 C233 1.350 . S
N231 S229 1.610 . S
N231 C232 1.351 . S
C232 C226 1.428 . S
C232 N231 1.351 . S
C232 C233 1.434 . S
C233 C224 1.429 . S
C233 N230 1.350 . S
C233 C232 1.434 . S
C234 C235 1.369 . S
C234 C236 1.419 1_554 S
C234 H238 0.930 . S
C235 C234 1.369 . S
C235 C244 1.429 . S
C236 C234 1.419 1_556 S
C236 C237 1.363 . S
C236 H239 0.929 . S
C237 C236 1.363 . S
C237 C243 1.428 . S
H238 C234 0.930 . S
H239 C236 0.929 . S
S240 N241 1.613 . S
S240 N242 1.610 . S
N241 S240 1.613 . S
N241 C244 1.350 . S
N242 S240 1.610 . S
N242 C243 1.351 1_554 S
C243 C237 1.428 . S
C243 N242 1.351 1_556 S
C243 C244 1.434 1_556 S
C244 C235 1.429 . S
C244 N241 1.350 . S
C244 C243 1.434 1_554 S
C245 C246 1.369 . S
C245 C247 1.419 . S
C245 H249 0.930 . S
C246 C245 1.369 . S
C246 C255 1.429 . S
C247 C245 1.419 . S
C247 C248 1.363 . S
C247 H250 0.929 . S
C248 C247 1.363 . S
C248 C254 1.428 . S
H249 C245 0.930 . S
H250 C247 0.929 . S
S251 N252 1.613 . S
S251 N253 1.610 . S
N252 S251 1.613 . S
N252 C255 1.350 . S
N253 S251 1.610 . S
N253 C254 1.351 . S
C254 C248 1.428 . S
C254 N253 1.351 . S
C254 C255 1.434 . S
C255 C246 1.429 . S
C255 N252 1.350 . S
C255 C254 1.434 . S
C256 C257 1.369 1_554 S
C256 C258 1.419 1_655 S
C256 H260 0.930 . S
C257 C256 1.369 1_556 S
C257 C266 1.429 . S
C258 C256 1.419 1_455 S
C258 C259 1.363 . S
C258 H261 0.929 . S
C259 C258 1.363 . S
C259 C265 1.429 1_454 S
H260 C256 0.930 . S
H261 C258 0.929 . S
S262 N263 1.613 . S
S262 N264 1.610 . S
N263 S262 1.613 . S
N263 C266 1.350 . S
N264 S262 1.610 . S
N264 C265 1.351 . S
C265 C259 1.429 1_656 S
C265 N264 1.351 . S
C265 C266 1.434 . S
C266 C257 1.429 . S
C266 N263 1.350 . S
C266 C265 1.434 . S
C267 C268 1.369 . S
C267 C269 1.419 . S
C267 H271 0.930 . S
C268 C267 1.369 . S
C268 C277 1.429 1_455 S
C269 C267 1.419 . S
C269 C270 1.363 1_455 S
C269 H272 0.929 . S
C270 C269 1.363 1_655 S
C270 C276 1.428 . S
H271 C267 0.930 . S
H272 C269 0.929 . S
S273 N274 1.613 . S
S273 N275 1.610 . S
N274 S273 1.613 . S
N274 C277 1.350 . S
N275 S273 1.610 . S
N275 C276 1.351 . S
C276 C270 1.428 . S
C276 N275 1.351 . S
C276 C277 1.434 . S
C277 C268 1.429 1_655 S
C277 N274 1.350 . S
C277 C276 1.434 . S
C278 C279 1.369 1_545 S
C278 C280 1.419 . S
C278 H282 0.930 . S
C279 C278 1.369 1_565 S
C279 C288 1.429 1_554 S
C280 C278 1.419 . S
C280 C281 1.363 1_554 S
C280 H283 0.929 . S
C281 C280 1.363 1_556 S
C281 C287 1.428 1_545 S
H282 C278 0.930 . S
H283 C280 0.929 . S
S284 N285 1.613 . S
S284 N286 1.610 . S
N285 S284 1.613 . S
N285 C288 1.350 . S
N286 S284 1.610 . S
N286 C287 1.351 . S
C287 C281 1.428 1_565 S
C287 N286 1.351 . S
C287 C288 1.434 . S
C288 C279 1.429 1_556 S
C288 N285 1.350 . S
C288 C287 1.434 . S
C289 C290 1.369 1_545 S
C289 C291 1.419 . S
C289 H293 0.930 . S
C290 C289 1.369 1_565 S
C290 C299 1.429 . S
C291 C289 1.419 . S
C291 C292 1.363 . S
C291 H294 0.929 . S
C292 C291 1.363 . S
C292 C298 1.428 1_545 S
H293 C289 0.930 . S
H294 C291 0.929 . S
S295 N296 1.613 . S
S295 N297 1.610 . S
N296 S295 1.613 . S
N296 C299 1.350 . S
N297 S295 1.610 . S
N297 C298 1.351 . S
C298 C292 1.428 1_565 S
C298 N297 1.351 . S
C298 C299 1.434 . S
C299 C290 1.429 . S
C299 N296 1.350 . S
C299 C298 1.434 . S
C300 C301 1.369 . S
C300 C302 1.419 1_455 S
C300 H304 0.930 . S
C301 C300 1.369 . S
C301 C310 1.429 . S
C302 C300 1.419 1_655 S
C302 C303 1.363 . S
C302 H305 0.929 . S
C303 C302 1.363 . S
C303 C309 1.428 . S
H304 C300 0.930 . S
H305 C302 0.929 . S
S306 N307 1.613 1_655 S
S306 N308 1.610 . S
N307 S306 1.613 1_455 S
N307 C310 1.350 . S
N308 S306 1.610 . S
N308 C309 1.351 . S
C309 C303 1.428 . S
C309 N308 1.351 . S
C309 C310 1.434 1_655 S
C310 C301 1.429 . S
C310 N307 1.350 . S
C310 C309 1.434 1_455 S
C311 C312 1.369 . S
C311 C313 1.419 1_455 S
C311 H315 0.930 . S
C312 C311 1.369 . S
C312 C321 1.429 . S
C313 C311 1.419 1_655 S
C313 C314 1.363 . S
C313 H316 0.929 . S
C314 C313 1.363 . S
C314 C320 1.428 . S
H315 C311 0.930 . S
H316 C313 0.929 . S
S317 N318 1.613 . S
S317 N319 1.610 1_455 S
N318 S317 1.613 . S
N318 C321 1.350 . S
N319 S317 1.610 1_655 S
N319 C320 1.351 . S
C320 C314 1.428 . S
C320 N319 1.351 . S
C320 C321 1.434 1_655 S
C321 C312 1.429 . S
C321 N318 1.350 . S
C321 C320 1.434 1_455 S
C322 C323 1.369 . S
C322 C324 1.419 . S
C322 H326 0.930 . S
C323 C322 1.369 . S
C323 C332 1.429 . S
C324 C322 1.419 . S
C324 C325 1.363 . S
C324 H327 0.929 . S
C325 C324 1.363 . S
C325 C331 1.428 . S
H326 C322 0.930 . S
H327 C324 0.929 . S
S328 N329 1.613 . S
S328 N330 1.610 . S
N329 S328 1.613 . S
N329 C332 1.350 . S
N330 S328 1.610 . S
N330 C331 1.351 . S
C331 C325 1.428 . S
C331 N330 1.351 . S
C331 C332 1.434 . S
C332 C323 1.429 . S
C332 N329 1.350 . S
C332 C331 1.434 . S
C333 C334 1.369 . S
C333 C335 1.419 . S
C333 H337 0.930 . S
C334 C333 1.369 . S
C334 C343 1.429 . S
C335 C333 1.419 . S
C335 C336 1.363 . S
C335 H338 0.929 . S
C336 C335 1.363 . S
C336 C342 1.428 . S
H337 C333 0.930 . S
H338 C335 0.929 . S
S339 N340 1.613 . S
S339 N341 1.610 . S
N340 S339 1.613 . S
N340 C343 1.350 . S
N341 S339 1.610 . S
N341 C342 1.351 . S
C342 C336 1.428 . S
C342 N341 1.351 . S
C342 C343 1.434 . S
C343 C334 1.429 . S
C343 N340 1.350 . S
C343 C342 1.434 . S
C344 C345 1.369 . S
C344 C346 1.419 . S
C344 H348 0.930 . S
C345 C344 1.369 . S
C345 C354 1.429 . S
C346 C344 1.419 . S
C346 C347 1.363 . S
C346 H349 0.929 . S
C347 C346 1.363 . S
C347 C353 1.428 . S
H348 C344 0.930 . S
H349 C346 0.929 . S
S350 N351 1.613 . S
S350 N352 1.610 . S
N351 S350 1.613 . S
N351 C354 1.350 . S
N352 S350 1.610 . S
N352 C353 1.351 . S
C353 C347 1.428 . S
C353 N352 1.351 . S
C353 C354 1.434 . S
C354 C345 1.429 . S
C354 N351 1.350 . S
C354 C353 1.434 . S
C355 C356 1.369 . S
C355 C357 1.419 . S
C355 H359 0.930 . S
C356 C355 1.369 . S
C356 C365 1.429 . S
C357 C355 1.419 . S
C357 C358 1.363 . S
C357 H360 0.929 . S
C358 C357 1.363 . S
C358 C364 1.428 . S
H359 C355 0.930 . S
H360 C357 0.929 . S
S361 N362 1.613 . S
S361 N363 1.610 . S
N362 S361 1.613 . S
N362 C365 1.350 . S
N363 S361 1.610 . S
N363 C364 1.351 . S
C364 C358 1.428 . S
C364 N363 1.351 . S
C364 C365 1.434 . S
C365 C356 1.429 . S
C365 N362 1.350 . S
C365 C364 1.434 . S
C366 C367 1.369 . S
C366 C368 1.419 . S
C366 H370 0.930 . S
C367 C366 1.369 . S
C367 C376 1.429 . S
C368 C366 1.419 . S
C368 C369 1.363 . S
C368 H371 0.929 . S
C369 C368 1.363 . S
C369 C375 1.428 . S
H370 C366 0.930 . S
H371 C368 0.929 . S
S372 N373 1.613 . S
S372 N374 1.610 . S
N373 S372 1.613 . S
N373 C376 1.350 . S
N374 S372 1.610 . S
N374 C375 1.351 . S
C375 C369 1.428 . S
C375 N374 1.351 . S
C375 C376 1.434 . S
C376 C367 1.429 . S
C376 N373 1.350 . S
C376 C375 1.434 . S
C377 C378 1.369 . S
C377 C379 1.419 . S
C377 H381 0.930 . S
C378 C377 1.369 . S
C378 C387 1.429 . S
C379 C377 1.419 . S
C379 C380 1.363 . S
C379 H382 0.929 . S
C380 C379 1.363 . S
C380 C386 1.428 . S
H381 C377 0.930 . S
H382 C379 0.929 . S
S383 N384 1.613 . S
S383 N385 1.610 . S
N384 S383 1.613 . S
N384 C387 1.350 . S
N385 S383 1.610 . S
N385 C386 1.351 . S
C386 C380 1.428 . S
C386 N385 1.351 . S
C386 C387 1.434 . S
C387 C378 1.429 . S
C387 N384 1.350 . S
C387 C386 1.434 . S
C388 C389 1.369 . S
C388 C390 1.419 . S
C388 H392 0.930 . S
C389 C388 1.369 . S
C389 C398 1.429 1_565 S
C390 C388 1.419 . S
C390 C391 1.363 1_565 S
C390 H393 0.929 . S
C391 C390 1.363 1_545 S
C391 C397 1.428 . S
H392 C388 0.930 . S
H393 C390 0.929 . S
S394 N395 1.613 . S
S394 N396 1.610 . S
N395 S394 1.613 . S
N395 C398 1.350 . S
N396 S394 1.610 . S
N396 C397 1.351 . S
C397 C391 1.428 . S
C397 N396 1.351 . S
C397 C398 1.434 . S
C398 C389 1.429 1_545 S
C398 N395 1.350 . S
C398 C397 1.434 . S
C399 C400 1.369 . S
C399 C401 1.419 . S
C399 H403 0.930 . S
C400 C399 1.369 . S
C400 C409 1.429 1_545 S
C401 C399 1.419 . S
C401 C402 1.363 1_545 S
C401 H404 0.929 . S
C402 C401 1.363 1_565 S
C402 C408 1.428 . S
H403 C399 0.930 . S
H404 C401 0.929 . S
S405 N406 1.613 . S
S405 N407 1.610 . S
N406 S405 1.613 . S
N406 C409 1.350 . S
N407 S405 1.610 . S
N407 C408 1.351 . S
C408 C402 1.428 . S
C408 N407 1.351 . S
C408 C409 1.434 . S
C409 C400 1.429 1_565 S
C409 N406 1.350 . S
C409 C408 1.434 . S
C410 C411 1.369 1_545 S
C410 C412 1.419 . S
C410 H414 0.930 . S
C411 C410 1.369 1_565 S
C411 C420 1.429 . S
C412 C410 1.419 . S
C412 C413 1.363 . S
C412 H415 0.929 . S
C413 C412 1.363 . S
C413 C419 1.428 1_545 S
H414 C410 0.930 . S
H415 C412 0.929 . S
S416 N417 1.613 . S
S416 N418 1.610 . S
N417 S416 1.613 . S
N417 C420 1.350 . S
N418 S416 1.610 . S
N418 C419 1.351 . S
C419 C413 1.428 1_565 S
C419 N418 1.351 . S
C419 C420 1.434 . S
C420 C411 1.429 . S
C420 N417 1.350 . S
C420 C419 1.434 . S
C421 C422 1.369 1_565 S
C421 C423 1.419 . S
C421 H425 0.930 . S
C422 C421 1.369 1_545 S
C422 C431 1.429 . S
C423 C421 1.419 . S
C423 C424 1.363 . S
C423 H426 0.929 . S
C424 C423 1.363 . S
C424 C430 1.428 1_565 S
H425 C421 0.930 . S
H426 C423 0.929 . S
S427 N428 1.613 . S
S427 N429 1.610 . S
N428 S427 1.613 . S
N428 C431 1.350 . S
N429 S427 1.610 . S
N429 C430 1.351 . S
C430 C424 1.428 1_545 S
C430 N429 1.351 . S
C430 C431 1.434 . S
C431 C422 1.429 . S
C431 N428 1.350 . S
C431 C430 1.434 . S
C169 C24 1.151 . S
C171 C3 1.159 . S
C180 C45 1.150 . S
C182 C79 1.159 . S
C191 C108 1.153 . S
C193 C87 1.157 . S
C202 C129 1.155 . S
C204 C163 1.162 . S
C213 C4 1.272 . S
C215 C130 1.273 . S
C224 C25 1.273 . S
C226 C154 1.274 . S
C235 C88 1.281 . S
C237 C46 1.266 . S
C246 C70 1.279 . S
C248 C109 1.269 . S
C257 C61 1.048 . S
C259 C19 1.050 . S
C268 C83 1.046 . S
C270 C40 1.050 . S
C279 C103 1.059 . S
C281 C145 1.041 . S
C290 C124 1.052 . S
C292 C167 1.046 . S
C301 C16 1.189 . S
C303 C37 1.192 . S
C312 C66 1.178 . S
C314 C58 1.180 . S
C323 C121 1.191 . S
C325 C100 1.188 . S
C334 C150 1.196 . S
C336 C142 1.195 . S
C345 C20 1.518 . S
C347 C67 1.426 . S
C356 C41 1.522 . S
C358 C49 1.429 . S
C367 C28 1.424 . S
C369 C62 1.525 . S
C378 C7 1.423 . S
C380 C82 1.525 . S
C389 C104 1.527 . S
C391 C151 1.423 . S
C400 C133 1.420 . S
C402 C125 1.521 . S
C411 C112 1.424 . S
C413 C146 1.525 . S
C422 C166 1.519 . S
C424 C91 1.423 . S
