# Generated by pormake.
# Topology ukf, (4)-cn, num edge types: 1
# Building blocks:
#     Node 0, Type 0, BuildingBlock: QUQFOY_clean_sbu_1, # of connection points: 4
#     Node 1, Type 0, BuildingBlock: QUQFOY_clean_sbu_1, # of connection points: 4
#     Node 2, Type 0, BuildingBlock: QUQFOY_clean_sbu_1, # of connection points: 4
#     Node 3, Type 0, BuildingBlock: QUQFOY_clean_sbu_1, # of connection points: 4
#     Node 4, Type 0, BuildingBlock: QUQFOY_clean_sbu_1, # of connection points: 4
#     Node 5, Type 0, BuildingBlock: QUQFOY_clean_sbu_1, # of connection points: 4
#     Node 6, Type 0, BuildingBlock: QUQFOY_clean_sbu_1, # of connection points: 4
#     Node 7, Type 0, BuildingBlock: QUQFOY_clean_sbu_1, # of connection points: 4
#     Node 8, Type 0, BuildingBlock: QUQFOY_clean_sbu_1, # of connection points: 4
#     Node 9, Type 0, BuildingBlock: QUQFOY_clean_sbu_1, # of connection points: 4
#     Node 10, Type 0, BuildingBlock: QUQFOY_clean_sbu_1, # of connection points: 4
#     Node 11, Type 0, BuildingBlock: QUQFOY_clean_sbu_1, # of connection points: 4
#     Edge 12, Type (0, 0), BuildingBlock: MIFKUJ_clean_linker_0, # of connection points: 2
#     Edge 13, Type (0, 0), BuildingBlock: MIFKUJ_clean_linker_0, # of connection points: 2
#     Edge 14, Type (0, 0), BuildingBlock: MIFKUJ_clean_linker_0, # of connection points: 2
#     Edge 15, Type (0, 0), BuildingBlock: MIFKUJ_clean_linker_0, # of connection points: 2
#     Edge 16, Type (0, 0), BuildingBlock: MIFKUJ_clean_linker_0, # of connection points: 2
#     Edge 17, Type (0, 0), BuildingBlock: MIFKUJ_clean_linker_0, # of connection points: 2
#     Edge 18, Type (0, 0), BuildingBlock: MIFKUJ_clean_linker_0, # of connection points: 2
#     Edge 19, Type (0, 0), BuildingBlock: MIFKUJ_clean_linker_0, # of connection points: 2
#     Edge 20, Type (0, 0), BuildingBlock: MIFKUJ_clean_linker_0, # of connection points: 2
#     Edge 21, Type (0, 0), BuildingBlock: MIFKUJ_clean_linker_0, # of connection points: 2
#     Edge 22, Type (0, 0), BuildingBlock: MIFKUJ_clean_linker_0, # of connection points: 2
#     Edge 23, Type (0, 0), BuildingBlock: MIFKUJ_clean_linker_0, # of connection points: 2
#     Edge 24, Type (0, 0), BuildingBlock: MIFKUJ_clean_linker_0, # of connection points: 2
#     Edge 25, Type (0, 0), BuildingBlock: MIFKUJ_clean_linker_0, # of connection points: 2
#     Edge 26, Type (0, 0), BuildingBlock: MIFKUJ_clean_linker_0, # of connection points: 2
#     Edge 27, Type (0, 0), BuildingBlock: MIFKUJ_clean_linker_0, # of connection points: 2
#     Edge 28, Type (0, 0), BuildingBlock: MIFKUJ_clean_linker_0, # of connection points: 2
#     Edge 29, Type (0, 0), BuildingBlock: MIFKUJ_clean_linker_0, # of connection points: 2
#     Edge 30, Type (0, 0), BuildingBlock: MIFKUJ_clean_linker_0, # of connection points: 2
#     Edge 31, Type (0, 0), BuildingBlock: MIFKUJ_clean_linker_0, # of connection points: 2
#     Edge 32, Type (0, 0), BuildingBlock: MIFKUJ_clean_linker_0, # of connection points: 2
#     Edge 33, Type (0, 0), BuildingBlock: MIFKUJ_clean_linker_0, # of connection points: 2
#     Edge 34, Type (0, 0), BuildingBlock: MIFKUJ_clean_linker_0, # of connection points: 2
#     Edge 35, Type (0, 0), BuildingBlock: MIFKUJ_clean_linker_0, # of connection points: 2
# Relax obj value: 0.115
# Max RMSD: 0.131
# Mean RMSD: 0.131
data_MOF--net-ukf--node1-QUQFOY_clean_sbu_1--edge1-MIFKUJ_clean_linker_0
_symmetry_space_group_name_H-M    P1
_symmetry_Int_Tables_number       1
_symmetry_cell_setting            triclinic
loop_
_symmetry_equiv_pos_as_xyz
'x, y, z'
_cell_length_a     41.336626
_cell_length_b     41.281105
_cell_length_c     94.575267
_cell_angle_alpha  90.040284
_cell_angle_beta   89.989958
_cell_angle_gamma 119.92382
loop_
_atom_site_label
_atom_site_type_symbol
_atom_site_fract_x
_atom_site_fract_y
_atom_site_fract_z
_atom_type_partial_charge
O0 O 0.44636 0.29002 0.06762 0.0
Cd1 Cd 0.43995 0.23807 0.07192 0.0
Cd2 Cd 0.39781 0.2236 0.04692 0.0
O3 O 0.40547 0.27658 0.0504 0.0
O4 O 0.46326 0.24542 0.09102 0.0
O5 O 0.40355 0.20603 0.08721 0.0
C6 C 0.43103 0.22163 0.09601 0.0
C7 C 0.34207 0.17183 0.03935 0.0
C8 C 0.42941 0.30007 0.05899 0.0
C9 C 0.4681 0.21838 0.04601 0.0
O10 O 0.44312 0.22135 0.03929 0.0
O11 O 0.47001 0.22113 0.05942 0.0
O12 O 0.36063 0.20042 0.03128 0.0
O13 O 0.35351 0.17391 0.05222 0.0
O14 O 0.15791 0.44966 0.40035 0.0
Cd15 Cd 0.19985 0.43764 0.40451 0.0
Cd16 Cd 0.16865 0.39607 0.38097 0.0
O17 O 0.12349 0.40303 0.38589 0.0
O18 O 0.2184 0.46085 0.42346 0.0
O19 O 0.19178 0.40006 0.41984 0.0
C20 C 0.20657 0.42789 0.42854 0.0
C21 C 0.16715 0.34053 0.37497 0.0
C22 C 0.12808 0.4308 0.39328 0.0
C23 C 0.24458 0.46293 0.3782 0.0
O24 O 0.21417 0.44108 0.37194 0.0
O25 O 0.24637 0.46288 0.39162 0.0
O26 O 0.15357 0.3555 0.36663 0.0
O27 O 0.17827 0.3552 0.38737 0.0
O28 O 0.70866 0.14623 0.73265 0.0
Cd29 Cd 0.75931 0.19352 0.73669 0.0
Cd30 Cd 0.77475 0.16774 0.7112 0.0
O31 O 0.72168 0.12255 0.71396 0.0
O32 O 0.75058 0.20875 0.7557 0.0
O33 O 0.7921 0.19093 0.7521 0.0
C34 C 0.77517 0.20156 0.76081 0.0
C35 C 0.82665 0.16332 0.70423 0.0
C36 C 0.69878 0.12079 0.72333 0.0
C37 C 0.77824 0.24254 0.71093 0.0
O38 O 0.77763 0.2159 0.704 0.0
O39 O 0.77376 0.24026 0.72427 0.0
O40 O 0.79929 0.15511 0.6957 0.0
O41 O 0.82322 0.17128 0.71717 0.0
O42 O 0.5566 0.70728 0.06613 0.0
Cd43 Cd 0.56279 0.75899 0.07062 0.0
Cd44 Cd 0.60214 0.77306 0.04444 0.0
O45 O 0.59266 0.71913 0.04736 0.0
O46 O 0.54056 0.75131 0.08991 0.0
O47 O 0.59987 0.7914 0.08568 0.0
C48 C 0.57288 0.77558 0.09467 0.0
C49 C 0.65792 0.82286 0.03579 0.0
C50 C 0.57107 0.69645 0.05671 0.0
C51 C 0.53249 0.78006 0.04563 0.0
O52 O 0.55727 0.77825 0.0383 0.0
O53 O 0.531 0.77529 0.05894 0.0
O54 O 0.6362 0.79495 0.02787 0.0
O55 O 0.64953 0.82105 0.04904 0.0
O56 O 0.84061 0.55309 0.39937 0.0
Cd57 Cd 0.80107 0.56858 0.4038 0.0
Cd58 Cd 0.83391 0.60822 0.38013 0.0
O59 O 0.87794 0.60027 0.38566 0.0
O60 O 0.78173 0.54489 0.42261 0.0
O61 O 0.81181 0.606 0.41954 0.0
C62 C 0.79573 0.5778 0.42802 0.0
C63 C 0.83847 0.664 0.37222 0.0
C64 C 0.87131 0.57141 0.39274 0.0
C65 C 0.75666 0.54363 0.37776 0.0
O66 O 0.78794 0.56251 0.37162 0.0
O67 O 0.75414 0.54638 0.39105 0.0
O68 O 0.85001 0.64583 0.36461 0.0
O69 O 0.82735 0.6522 0.38494 0.0
O70 O 0.29143 0.85239 0.73372 0.0
Cd71 Cd 0.24023 0.80628 0.73825 0.0
Cd72 Cd 0.22513 0.83342 0.71229 0.0
O73 O 0.2793 0.87673 0.71501 0.0
O74 O 0.24948 0.79141 0.75726 0.0
O75 O 0.20899 0.81065 0.75388 0.0
C76 C 0.22585 0.79976 0.76252 0.0
C77 C 0.17689 0.84143 0.70323 0.0
C78 C 0.30197 0.8777 0.72432 0.0
C79 C 0.21716 0.75613 0.71267 0.0
O80 O 0.21877 0.78325 0.70577 0.0
O81 O 0.22292 0.75866 0.72595 0.0
O82 O 0.2051 0.84722 0.6956 0.0
O83 O 0.17754 0.83412 0.71648 0.0
O84 O 0.70942 0.56294 0.60649 0.0
Cd85 Cd 0.76045 0.56606 0.60337 0.0
Cd86 Cd 0.77337 0.60698 0.62838 0.0
O87 O 0.72179 0.60158 0.62448 0.0
O88 O 0.75353 0.54238 0.58438 0.0
O89 O 0.79509 0.60148 0.58836 0.0
C90 C 0.77888 0.57412 0.57952 0.0
C91 C 0.82643 0.66235 0.63532 0.0
C92 C 0.69929 0.57974 0.61516 0.0
C93 C 0.7748 0.53493 0.62982 0.0
O94 O 0.77249 0.56049 0.63641 0.0
O95 O 0.77381 0.5338 0.61637 0.0
O96 O 0.79819 0.64486 0.64364 0.0
O97 O 0.82342 0.64983 0.62257 0.0
O98 O 0.15406 0.71193 0.94047 0.0
Cd99 Cd 0.19784 0.76592 0.93779 0.0
Cd100 Cd 0.16454 0.77382 0.96146 0.0
O101 O 0.12064 0.72163 0.95632 0.0
O102 O 0.21872 0.76298 0.91911 0.0
O103 O 0.19281 0.79784 0.92264 0.0
C104 C 0.20817 0.78516 0.91404 0.0
C105 C 0.16064 0.82668 0.96713 0.0
C106 C 0.12459 0.69983 0.94788 0.0
C107 C 0.24013 0.78269 0.965 0.0
O108 O 0.20955 0.77469 0.97099 0.0
O109 O 0.24276 0.78471 0.95159 0.0
O110 O 0.14745 0.79818 0.97547 0.0
O111 O 0.17311 0.8238 0.95492 0.0
O112 O 0.45333 0.16444 0.27612 0.0
Cd113 Cd 0.43802 0.20425 0.27181 0.0
Cd114 Cd 0.39913 0.17174 0.29525 0.0
O115 O 0.40518 0.12678 0.28933 0.0
O116 O 0.46139 0.22357 0.25295 0.0
O117 O 0.4004 0.19344 0.25618 0.0
C118 C 0.42841 0.20943 0.24763 0.0
C119 C 0.34436 0.17014 0.30243 0.0
C120 C 0.43426 0.13333 0.28244 0.0
C121 C 0.46364 0.24804 0.29793 0.0
O122 O 0.44565 0.21643 0.30394 0.0
O123 O 0.45982 0.25102 0.28474 0.0
O124 O 0.36011 0.15626 0.31021 0.0
O125 O 0.35795 0.18197 0.28995 0.0
O126 O 0.2908 0.44348 0.60747 0.0
Cd127 Cd 0.23843 0.43711 0.6041 0.0
Cd128 Cd 0.22808 0.39718 0.62967 0.0
O129 O 0.28099 0.40618 0.62571 0.0
O130 O 0.24519 0.46113 0.58519 0.0
O131 O 0.20614 0.40116 0.58871 0.0
C132 C 0.22168 0.42897 0.58004 0.0
C133 C 0.17861 0.34093 0.63805 0.0
C134 C 0.30252 0.42834 0.61626 0.0
C135 C 0.22061 0.46616 0.63042 0.0
O136 O 0.22531 0.44225 0.63716 0.0
O137 O 0.22156 0.46692 0.61696 0.0
O138 O 0.2074 0.36144 0.64578 0.0
O139 O 0.17918 0.35092 0.62506 0.0
O140 O 0.84959 0.29 0.9393 0.0
Cd141 Cd 0.80424 0.23727 0.93618 0.0
Cd142 Cd 0.83523 0.22709 0.96082 0.0
O143 O 0.87997 0.27936 0.95619 0.0
O144 O 0.7856 0.24273 0.91737 0.0
O145 O 0.80756 0.20446 0.92094 0.0
C146 C 0.79426 0.21911 0.9123 0.0
C147 C 0.83958 0.17549 0.96841 0.0
C148 C 0.8779 0.30145 0.94733 0.0
C149 C 0.75981 0.22107 0.96283 0.0
O150 O 0.78908 0.22635 0.9692 0.0
O151 O 0.75861 0.22077 0.94939 0.0
O152 O 0.85049 0.20465 0.97628 0.0
O153 O 0.8291 0.17691 0.95565 0.0
O154 O 0.55031 0.84204 0.2746 0.0
Cd155 Cd 0.56107 0.79947 0.26996 0.0
Cd156 Cd 0.60311 0.8293 0.29456 0.0
O157 O 0.59411 0.87375 0.29048 0.0
O158 O 0.53829 0.78317 0.25084 0.0
O159 O 0.59865 0.80741 0.25464 0.0
C160 C 0.57113 0.79426 0.24582 0.0
C161 C 0.65933 0.83513 0.30267 0.0
C162 C 0.56781 0.87052 0.28252 0.0
C163 C 0.53527 0.75164 0.29554 0.0
O164 O 0.55857 0.78076 0.3022 0.0
O165 O 0.53385 0.75176 0.28212 0.0
O166 O 0.63938 0.84388 0.31054 0.0
O167 O 0.64907 0.82624 0.28966 0.0
H168 H 0.20661 0.89617 0.95619 0.0
H169 H 0.2279 0.95603 0.96816 0.0
H170 H 0.15044 0.89963 1.00215 0.0
H171 H 0.12925 0.83957 0.99034 0.0
H172 H 0.16229 0.97505 0.99441 0.0
H173 H 0.22931 0.90959 0.00744 0.0
H174 H 0.26275 0.87645 1.00053 0.0
H175 H 0.34438 0.97401 0.9784 0.0
H176 H 0.31114 0.00755 0.98504 0.0
H177 H 0.31298 0.10141 0.05026 0.0
H178 H 0.27251 0.04224 0.03813 0.0
H179 H 0.26343 0.10249 1.00257 0.0
H180 H 0.30428 0.16178 0.01453 0.0
H181 H 0.29173 0.02354 0.01181 0.0
H182 H 0.17461 0.04347 0.98779 0.0
H183 H 0.13925 0.07552 0.99331 0.0
H184 H 0.15714 0.06889 0.03768 0.0
H185 H 0.19213 0.03635 0.03244 0.0
C186 C 0.19322 0.89657 0.96598 0.0
C187 C 0.16648 0.86306 0.97238 0.0
C188 C 0.20549 0.93083 0.97282 0.0
C189 C 0.19096 0.93217 0.9861 0.0
C190 C 0.16194 0.89918 0.9919 0.0
C191 C 0.14996 0.86487 0.98515 0.0
C192 C 0.20965 0.96666 0.9948 0.0
C193 C 0.19061 0.9858 0.99819 0.0
C194 C 0.24639 0.98029 0.99988 0.0
C195 C 0.2676 0.96094 0.99663 0.0
C196 C 0.25437 0.92393 1.00108 0.0
C197 C 0.27322 0.90506 0.99719 0.0
C198 C 0.30548 0.92302 0.98893 0.0
C199 C 0.31928 0.96008 0.98474 0.0
C200 C 0.3005 0.97906 0.98859 0.0
C201 C 0.30167 0.10208 0.04001 0.0
C202 C 0.31191 0.13632 0.03335 0.0
C203 C 0.27876 0.06823 0.03305 0.0
C204 C 0.26507 0.06797 0.01943 0.0
C205 C 0.27353 0.10203 0.01309 0.0
C206 C 0.29687 0.13589 0.01996 0.0
C207 C 0.24455 0.03239 0.0114 0.0
C208 C 0.26339 0.01295 0.00808 0.0
C209 C 0.20768 0.01865 0.0064 0.0
C210 C 0.18631 0.0378 0.0097 0.0
C211 C 0.17088 0.04873 0.99873 0.0
C212 C 0.15091 0.067 1.00181 0.0
C213 C 0.14606 0.07435 0.01583 0.0
C214 C 0.16105 0.06333 0.02682 0.0
C215 C 0.18102 0.04503 0.0238 0.0
H216 H 0.13061 0.08851 0.01819 0.0
H217 H 0.31987 0.90827 0.98583 0.0
H218 H 0.13828 0.29695 0.35138 0.0
H219 H 0.16077 0.25868 0.33993 0.0
H220 H 0.23769 0.28155 0.37432 0.0
H221 H 0.21499 0.31942 0.38595 0.0
H222 H 0.27161 0.3 0.34748 0.0
H223 H 0.16932 0.19653 0.37083 0.0
H224 H 0.10353 0.15583 0.37766 0.0
H225 H 0.07319 0.12862 0.33405 0.0
H226 H 0.13876 0.1696 0.32693 0.0
H227 H 0.30352 0.14019 0.3265 0.0
H228 H 0.26521 0.161 0.33896 0.0
H229 H 0.28223 0.23761 0.30504 0.0
H230 H 0.3203 0.21671 0.29243 0.0
H231 H 0.20076 0.16698 0.33269 0.0
H232 H 0.30522 0.32235 0.32202 0.0
H233 H 0.37155 0.36288 0.31579 0.0
H234 H 0.39859 0.28579 0.33559 0.0
H235 H 0.33258 0.24522 0.34219 0.0
C236 C 0.15929 0.29304 0.3567 0.0
C237 C 0.17487 0.31128 0.36958 0.0
C238 C 0.17214 0.27117 0.35012 0.0
C239 C 0.20105 0.26743 0.35623 0.0
C240 C 0.2154 0.28414 0.36941 0.0
C241 C 0.20219 0.30555 0.37609 0.0
C242 C 0.21856 0.24905 0.34829 0.0
C243 C 0.25609 0.2709 0.34426 0.0
C244 C 0.19834 0.2111 0.34409 0.0
C245 C 0.15891 0.18643 0.34834 0.0
C246 C 0.14857 0.18215 0.36268 0.0
C247 C 0.11133 0.15896 0.36661 0.0
C248 C 0.08418 0.13973 0.35629 0.0
C249 C 0.09424 0.14357 0.34203 0.0
C250 C 0.13145 0.16675 0.33804 0.0
C251 C 0.29836 0.1608 0.32151 0.0
C252 C 0.31514 0.17693 0.30849 0.0
C253 C 0.2764 0.17262 0.32866 0.0
C254 C 0.27126 0.20117 0.32302 0.0
C255 C 0.28607 0.21571 0.30963 0.0
C256 C 0.30768 0.20359 0.30239 0.0
C257 C 0.2536 0.21813 0.33173 0.0
C258 C 0.21615 0.1961 0.33588 0.0
C259 C 0.27389 0.25598 0.33609 0.0
C260 C 0.31384 0.28049 0.33242 0.0
C261 C 0.32534 0.31411 0.32508 0.0
C262 C 0.36289 0.33711 0.3215 0.0
C263 C 0.38924 0.32682 0.32523 0.0
C264 C 0.37813 0.29364 0.33265 0.0
C265 C 0.34064 0.27062 0.3363 0.0
H266 H 0.41828 0.3446 0.32242 0.0
H267 H 0.05536 0.12178 0.35935 0.0
H268 H 0.84232 0.15158 0.6773 0.0
H269 H 0.90348 0.1709 0.6672 0.0
H270 H 0.95367 0.20576 0.70846 0.0
H271 H 0.89238 0.18724 0.71862 0.0
H272 H 0.98882 0.25983 0.69031 0.0
H273 H 0.95101 0.13042 0.69033 0.0
H274 H 0.90981 0.0631 0.6859 0.0
H275 H 0.91514 0.08365 0.64122 0.0
H276 H 0.95597 0.1512 0.6454 0.0
H277 H 0.16895 0.31673 0.66538 0.0
H278 H 0.11007 0.2756 0.67729 0.0
H279 H 0.05148 0.25472 0.63764 0.0
H280 H 0.11047 0.29612 0.62557 0.0
H281 H 0.02295 0.19048 0.65617 0.0
H282 H 0.05514 0.3202 0.65679 0.0
H283 H 0.09677 0.38746 0.66127 0.0
H284 H 0.1017 0.36506 0.70531 0.0
H285 H 0.06056 0.29753 0.70104 0.0
C286 C 0.8662 0.16257 0.68432 0.0
C287 C 0.86243 0.16804 0.69878 0.0
C288 C 0.90126 0.17348 0.67851 0.0
C289 C 0.93333 0.1897 0.68705 0.0
C290 C 0.92937 0.19336 0.70164 0.0
C291 C 0.89426 0.18258 0.70746 0.0
C292 C 0.97108 0.20639 0.6805 0.0
C293 C 0.99647 0.2443 0.68311 0.0
C294 C 0.9809 0.18658 0.67076 0.0
C295 C 0.95634 0.14595 0.66819 0.0
C296 C 0.94317 0.12064 0.67957 0.0
C297 C 0.91992 0.08242 0.6771 0.0
C298 C 0.9098 0.06911 0.66329 0.0
C299 C 0.92298 0.094 0.65192 0.0
C300 C 0.94622 0.13226 0.65433 0.0
C301 C 0.14373 0.30277 0.65909 0.0
C302 C 0.14439 0.31008 0.64453 0.0
C303 C 0.11006 0.27928 0.66594 0.0
C304 C 0.07638 0.26255 0.65838 0.0
C305 C 0.0772 0.26742 0.64367 0.0
C306 C 0.11094 0.29113 0.63679 0.0
C307 C 0.04024 0.24359 0.66606 0.0
C308 C 0.01525 0.20557 0.66357 0.0
C309 C 0.03068 0.26318 0.67595 0.0
C310 C 0.05514 0.30379 0.67856 0.0
C311 C 0.06537 0.32959 0.66741 0.0
C312 C 0.08883 0.36776 0.66991 0.0
C313 C 0.10196 0.38052 0.68356 0.0
C314 C 0.09157 0.35512 0.69474 0.0
C315 C 0.06817 0.3169 0.69228 0.0
H316 H 0.12012 0.41008 0.68547 0.0
H317 H 0.8918 0.03951 0.6614 0.0
H318 H 0.70875 0.8875 0.04922 0.0
H319 H 0.75119 0.9477 0.03819 0.0
H320 H 0.71677 0.89754 0.9969 0.0
H321 H 0.67545 0.83725 0.00781 0.0
H322 H 0.78729 0.94828 0.99579 0.0
H323 H 0.67638 0.9444 0.01339 0.0
H324 H 0.62951 0.93652 0.03126 0.0
H325 H 0.7144 0.02652 0.05569 0.0
H326 H 0.76188 0.0346 0.03805 0.0
H327 H 0.80896 0.10632 0.95591 0.0
H328 H 0.78962 0.04659 0.96769 0.0
H329 H 0.83805 0.10475 0.00673 0.0
H330 H 0.85736 0.1644 0.99508 0.0
H331 H 0.7655 0.05159 0.00988 0.0
H332 H 0.87525 0.05883 0.98949 0.0
H333 H 0.91858 0.06635 0.97019 0.0
H334 H 0.83173 0.96959 0.94929 0.0
H335 H 0.78771 0.96178 0.96836 0.0
C336 C 0.71085 0.88911 0.0378 0.0
C337 C 0.6884 0.85759 0.02941 0.0
C338 C 0.73494 0.92364 0.03149 0.0
C339 C 0.73655 0.92747 0.01668 0.0
C340 C 0.71597 0.89547 0.00833 0.0
C341 C 0.69224 0.86092 0.01461 0.0
C342 C 0.75723 0.96499 0.00986 0.0
C343 C 0.78239 0.97081 0.99883 0.0
C344 C 0.7512 0.99466 0.01386 0.0
C345 C 0.72274 0.98978 0.0245 0.0
C346 C 0.68509 0.9623 0.02264 0.0
C347 C 0.65842 0.95783 0.03271 0.0
C348 C 0.669 0.98093 0.04462 0.0
C349 C 0.70627 0.0086 0.04647 0.0
C350 C 0.73307 0.01313 0.03644 0.0
C351 C 0.81635 0.10647 0.96691 0.0
C352 C 0.83454 0.14018 0.97456 0.0
C353 C 0.80528 0.07226 0.97364 0.0
C354 C 0.81229 0.07114 0.98812 0.0
C355 C 0.83222 0.10489 0.99556 0.0
C356 C 0.84337 0.13903 0.98885 0.0
C357 C 0.79562 0.03493 0.99584 0.0
C358 C 0.77091 0.02928 0.00698 0.0
C359 C 0.80162 0.00535 0.99176 0.0
C360 C 0.82809 0.0099 0.98031 0.0
C361 C 0.8653 0.03932 0.98072 0.0
C362 C 0.89001 0.04361 0.96983 0.0
C363 C 0.8779 0.01852 0.95851 0.0
C364 C 0.84107 0.98902 0.95806 0.0
C365 C 0.81624 0.98463 0.96892 0.0
H366 H 0.89707 0.02188 0.95009 0.0
H367 H 0.6483 0.97744 0.05241 0.0
H368 H 0.68109 0.84398 0.33032 0.0
H369 H 0.72216 0.82514 0.3415 0.0
H370 H 0.74763 0.79664 0.30069 0.0
H371 H 0.70539 0.8144 0.28944 0.0
H372 H 0.72903 0.74145 0.31785 0.0
H373 H 0.81407 0.87244 0.32149 0.0
H374 H 0.83492 0.93821 0.32729 0.0
H375 H 0.81049 0.90951 0.37114 0.0
H376 H 0.78901 0.84345 0.36559 0.0
H377 H 0.8556 0.69129 0.34531 0.0
H378 H 0.83576 0.73075 0.33327 0.0
H379 H 0.78894 0.74345 0.37219 0.0
H380 H 0.80866 0.70376 0.38438 0.0
H381 H 0.82332 0.80969 0.35517 0.0
H382 H 0.7333 0.67832 0.35086 0.0
H383 H 0.71306 0.61266 0.34507 0.0
H384 H 0.74796 0.64341 0.30203 0.0
H385 H 0.76898 0.70941 0.30763 0.0
C386 C 0.69602 0.83449 0.32365 0.0
C387 C 0.68981 0.83063 0.30896 0.0
C388 C 0.71973 0.82383 0.33009 0.0
C389 C 0.73834 0.80961 0.32198 0.0
C390 C 0.7336 0.80746 0.30721 0.0
C391 C 0.70958 0.81783 0.30076 0.0
C392 C 0.75968 0.79373 0.32903 0.0
C393 C 0.75023 0.75682 0.32577 0.0
C394 C 0.78668 0.81318 0.3397 0.0
C395 C 0.79965 0.85291 0.3431 0.0
C396 C 0.81288 0.88009 0.33236 0.0
C397 C 0.82486 0.91744 0.3356 0.0
C398 C 0.82396 0.92802 0.34957 0.0
C399 C 0.81115 0.90127 0.36033 0.0
C400 C 0.79912 0.86388 0.35714 0.0
C401 C 0.84184 0.7031 0.35142 0.0
C402 C 0.8334 0.69401 0.3658 0.0
C403 C 0.83043 0.72562 0.34449 0.0
C404 C 0.81038 0.73958 0.35178 0.0
C405 C 0.80432 0.7329 0.36636 0.0
C406 C 0.8156 0.71018 0.37331 0.0
C407 C 0.7926 0.75779 0.34389 0.0
C408 C 0.8025 0.7948 0.34708 0.0
C409 C 0.76605 0.73857 0.33311 0.0
C410 C 0.75309 0.69885 0.3297 0.0
C411 C 0.73694 0.67113 0.34019 0.0
C412 C 0.72529 0.63385 0.33694 0.0
C413 C 0.72932 0.62389 0.32321 0.0
C414 C 0.74492 0.65118 0.31268 0.0
C415 C 0.75669 0.68852 0.31588 0.0
H416 H 0.72028 0.59501 0.32071 0.0
H417 H 0.83324 0.95695 0.35206 0.0
H418 H 0.84113 0.69202 0.66192 0.0
H419 H 0.90196 0.7338 0.6723 0.0
H420 H 0.95442 0.74352 0.63187 0.0
H421 H 0.89344 0.70086 0.62144 0.0
H422 H 0.98798 0.72616 0.65147 0.0
H423 H 0.95141 0.81857 0.64764 0.0
H424 H 0.91039 0.84564 0.65034 0.0
H425 H 0.91343 0.83644 0.69548 0.0
H426 H 0.95407 0.80883 0.69305 0.0
H427 H 0.16757 0.85279 0.67549 0.0
H428 H 0.10878 0.83364 0.66326 0.0
H429 H 0.0501 0.80196 0.70303 0.0
H430 H 0.10901 0.82093 0.71543 0.0
H431 H 0.02172 0.83496 0.68281 0.0
H432 H 0.05336 0.73737 0.68617 0.0
H433 H 0.09524 0.71128 0.6835 0.0
H434 H 0.10127 0.731 0.63875 0.0
H435 H 0.05993 0.75787 0.64121 0.0
C436 C 0.86547 0.70361 0.65513 0.0
C437 C 0.86238 0.69294 0.64084 0.0
C438 C 0.90034 0.72771 0.6611 0.0
C439 C 0.93291 0.74205 0.65288 0.0
C440 C 0.92972 0.73281 0.63844 0.0
C441 C 0.8948 0.70856 0.63247 0.0
C442 C 0.9703 0.7636 0.65967 0.0
C443 C 0.99554 0.75044 0.65806 0.0
C444 C 0.97998 0.7947 0.66863 0.0
C445 C 0.95556 0.81134 0.67015 0.0
C446 C 0.9431 0.82204 0.65814 0.0
C447 C 0.91996 0.83754 0.65962 0.0
C448 C 0.90925 0.84268 0.67307 0.0
C449 C 0.92173 0.83242 0.68507 0.0
C450 C 0.94486 0.81689 0.68365 0.0
C451 C 0.14237 0.84262 0.68172 0.0
C452 C 0.14296 0.83797 0.69644 0.0
C453 C 0.10875 0.83165 0.67469 0.0
C454 C 0.07506 0.81588 0.68222 0.0
C455 C 0.07584 0.81402 0.69703 0.0
C456 C 0.10953 0.82485 0.7041 0.0
C457 C 0.03898 0.79745 0.6745 0.0
C458 C 0.01408 0.811 0.67603 0.0
C459 C 0.0295 0.76669 0.66543 0.0
C460 C 0.0539 0.75002 0.6639 0.0
C461 C 0.06386 0.73643 0.67578 0.0
C462 C 0.08747 0.72147 0.6743 0.0
C463 C 0.101 0.71959 0.66097 0.0
C464 C 0.09083 0.73255 0.64908 0.0
C465 C 0.06731 0.74764 0.6505 0.0
H466 H 0.11929 0.708 0.65985 0.0
H467 H 0.89133 0.85469 0.6742 0.0
H468 H 0.75482 0.22308 0.99156 0.0
H469 H 0.70292 0.21772 0.00555 0.0
H470 H 0.63942 0.20228 0.96745 0.0
H471 H 0.69172 0.20834 0.95326 0.0
H472 H 0.63667 0.25237 0.98457 0.0
H473 H 0.61875 0.12896 0.99001 0.0
H474 H 0.63732 0.08216 0.9956 0.0
H475 H 0.66313 0.12324 0.0382 0.0
H476 H 0.64521 0.17065 0.03282 0.0
H477 H 0.46661 0.20308 0.01789 0.0
H478 H 0.51409 0.19884 0.00408 0.0
H479 H 0.58009 0.21779 0.04173 0.0
H480 H 0.53221 0.22153 0.05578 0.0
H481 H 0.58058 0.16439 0.02477 0.0
H482 H 0.60114 0.28881 0.01931 0.0
H483 H 0.58345 0.3364 0.01399 0.0
H484 H 0.5539 0.2942 0.97164 0.0
H485 H 0.57093 0.246 0.97677 0.0
C486 C 0.72977 0.21831 0.98612 0.0
C487 C 0.72746 0.21614 0.97126 0.0
C488 C 0.70001 0.21504 0.99416 0.0
C489 C 0.6671 0.20911 0.98757 0.0
C490 C 0.66455 0.20672 0.97276 0.0
C491 C 0.69442 0.21013 0.96467 0.0
C492 C 0.63612 0.20716 0.99614 0.0
C493 C 0.62395 0.23267 0.9932 0.0
C494 C 0.62034 0.18223 0.00768 0.0
C495 C 0.63092 0.15357 0.01097 0.0
C496 C 0.62864 0.1282 1.00054 0.0
C497 C 0.63901 0.10153 1.00368 0.0
C498 C 0.65148 0.09978 0.01723 0.0
C499 C 0.6535 0.12464 0.0277 0.0
C500 C 0.6432 0.15139 0.02461 0.0
C501 C 0.49108 0.20615 0.0233 0.0
C502 C 0.4958 0.21305 0.03794 0.0
C503 C 0.51824 0.20378 0.01536 0.0
C504 C 0.5509 0.20867 0.02183 0.0
C505 C 0.55512 0.21409 0.03652 0.0
C506 C 0.52779 0.2163 0.04452 0.0
C507 C 0.58111 0.20945 0.01313 0.0
C508 C 0.59319 0.18389 0.01608 0.0
C509 C 0.59697 0.23443 1.00162 0.0
C510 C 0.58697 0.26357 0.99847 0.0
C511 C 0.59061 0.28951 0.0089 0.0
C512 C 0.58075 0.31662 0.00591 0.0
C513 C 0.56747 0.31826 0.9925 0.0
C514 C 0.56414 0.29286 0.98203 0.0
C515 C 0.57393 0.26566 0.98497 0.0
H516 H 0.55984 0.33927 0.9902 0.0
H517 H 0.6595 0.07912 0.01964 0.0
H518 H 0.25069 0.4687 0.34942 0.0
H519 H 0.30376 0.51409 0.33554 0.0
H520 H 0.36635 0.56167 0.37386 0.0
H521 H 0.31313 0.51656 0.3879 0.0
H522 H 0.36865 0.61446 0.35665 0.0
H523 H 0.38814 0.51001 0.35187 0.0
H524 H 0.37089 0.4449 0.34646 0.0
H525 H 0.3472 0.45947 0.30349 0.0
H526 H 0.36381 0.52454 0.30868 0.0
H527 H 0.53772 0.73847 0.32366 0.0
H528 H 0.49172 0.68575 0.33751 0.0
H529 H 0.42665 0.63627 0.29984 0.0
H530 H 0.47311 0.68877 0.28578 0.0
H531 H 0.42724 0.58355 0.31699 0.0
H532 H 0.40384 0.68596 0.32202 0.0
H533 H 0.42018 0.75091 0.32725 0.0
H534 H 0.44986 0.7394 0.36971 0.0
H535 H 0.43418 0.67451 0.36466 0.0
C536 C 0.27582 0.48862 0.35493 0.0
C537 C 0.2776 0.48909 0.36979 0.0
C538 C 0.30624 0.5144 0.34695 0.0
C539 C 0.33912 0.54104 0.35366 0.0
C540 C 0.34123 0.54127 0.36848 0.0
C541 C 0.31081 0.51545 0.37648 0.0
C542 C 0.37035 0.57014 0.34525 0.0
C543 C 0.38193 0.60769 0.34815 0.0
C544 C 0.38685 0.56122 0.33388 0.0
C545 C 0.37692 0.52209 0.33071 0.0
C546 C 0.37896 0.49926 0.3413 0.0
C547 C 0.36935 0.46236 0.33826 0.0
C548 C 0.35787 0.44803 0.32465 0.0
C549 C 0.35606 0.47059 0.31403 0.0
C550 C 0.36562 0.5075 0.31701 0.0
C551 C 0.51379 0.71628 0.31827 0.0
C552 C 0.50884 0.71806 0.30363 0.0
C553 C 0.4875 0.68616 0.32622 0.0
C554 C 0.45543 0.65745 0.31975 0.0
C555 C 0.45116 0.65823 0.30505 0.0
C556 C 0.47766 0.6883 0.29704 0.0
C557 C 0.42555 0.62776 0.32846 0.0
C558 C 0.41411 0.59021 0.32557 0.0
C559 C 0.40898 0.63657 0.33983 0.0
C560 C 0.41819 0.67551 0.34292 0.0
C561 C 0.41411 0.69737 0.33244 0.0
C562 C 0.42321 0.73416 0.33538 0.0
C563 C 0.43614 0.7493 0.34879 0.0
C564 C 0.43989 0.72765 0.35931 0.0
C565 C 0.43088 0.69086 0.35642 0.0
H566 H 0.44318 0.77779 0.35105 0.0
H567 H 0.35045 0.41946 0.32232 0.0
H568 H 0.76861 0.29967 0.72086 0.0
H569 H 0.77107 0.35124 0.7072 0.0
H570 H 0.79971 0.31137 0.66973 0.0
H571 H 0.79759 0.26007 0.68325 0.0
H572 H 0.84062 0.38714 0.67184 0.0
H573 H 0.71209 0.29137 0.67448 0.0
H574 H 0.65377 0.24601 0.68637 0.0
H575 H 0.65163 0.33531 0.70886 0.0
H576 H 0.71028 0.38119 0.69725 0.0
H577 H 0.78983 0.48102 0.62012 0.0
H578 H 0.79343 0.43287 0.63409 0.0
H579 H 0.76947 0.4751 0.67202 0.0
H580 H 0.76596 0.52314 0.65826 0.0
H581 H 0.72659 0.39824 0.66955 0.0
H582 H 0.85565 0.49412 0.66624 0.0
H583 H 0.91351 0.53847 0.65385 0.0
H584 H 0.91372 0.44754 0.63186 0.0
H585 H 0.85551 0.40266 0.64398 0.0
C586 C 0.77581 0.30211 0.70975 0.0
C587 C 0.78262 0.27558 0.70313 0.0
C588 C 0.77705 0.33148 0.70195 0.0
C589 C 0.78514 0.33482 0.68741 0.0
C590 C 0.79335 0.30925 0.68092 0.0
C591 C 0.79195 0.27984 0.68867 0.0
C592 C 0.78372 0.36409 0.67882 0.0
C593 C 0.81558 0.38935 0.67122 0.0
C594 C 0.75115 0.36716 0.67815 0.0
C595 C 0.71581 0.33967 0.68511 0.0
C596 C 0.69936 0.30131 0.68205 0.0
C597 C 0.66621 0.27551 0.68872 0.0
C598 C 0.64906 0.28776 0.69839 0.0
C599 C 0.66498 0.32586 0.70138 0.0
C600 C 0.69817 0.35178 0.69475 0.0
C601 C 0.78542 0.48008 0.63143 0.0
C602 C 0.77768 0.50597 0.63806 0.0
C603 C 0.78759 0.45265 0.6394 0.0
C604 C 0.78185 0.45058 0.65409 0.0
C605 C 0.77395 0.47623 0.66069 0.0
C606 C 0.77212 0.50377 0.65279 0.0
C607 C 0.78356 0.42142 0.66263 0.0
C608 C 0.75166 0.39608 0.6702 0.0
C609 C 0.816 0.41815 0.66319 0.0
C610 C 0.851 0.44507 0.6559 0.0
C611 C 0.86784 0.4836 0.65867 0.0
C612 C 0.90074 0.50884 0.65171 0.0
C613 C 0.91723 0.49584 0.64204 0.0
C614 C 0.90089 0.45757 0.63933 0.0
C615 C 0.86795 0.43222 0.64625 0.0
H616 H 0.94271 0.51542 0.63668 0.0
H617 H 0.6234 0.26774 0.70354 0.0
H618 H 0.24073 0.77048 0.99335 0.0
H619 H 0.29228 0.77578 0.00755 0.0
H620 H 0.36416 0.81398 0.97096 0.0
H621 H 0.3122 0.80759 0.95651 0.0
H622 H 0.37047 0.76151 0.98386 0.0
H623 H 0.376 0.87573 0.99997 0.0
H624 H 0.35103 0.91418 0.00984 0.0
H625 H 0.31263 0.84415 0.04664 0.0
H626 H 0.3381 0.80575 0.03713 0.0
H627 H 0.53699 0.8076 0.0191 0.0
H628 H 0.48909 0.81345 0.00622 0.0
H629 H 0.41631 0.77194 0.04249 0.0
H630 H 0.46474 0.76699 0.05565 0.0
H631 H 0.4107 0.82697 0.03001 0.0
H632 H 0.40659 0.71429 0.01461 0.0
H633 H 0.43237 0.67598 0.00535 0.0
H634 H 0.46544 0.74066 0.96712 0.0
H635 H 0.4403 0.7797 0.97624 0.0
C636 C 0.26758 0.78035 0.98832 0.0
C637 C 0.27229 0.78846 0.97376 0.0
C638 C 0.29717 0.78366 0.99651 0.0
C639 C 0.33231 0.79578 0.99039 0.0
C640 C 0.33731 0.80463 0.97592 0.0
C641 C 0.30759 0.80097 0.96767 0.0
C642 C 0.36298 0.79657 0.99884 0.0
C643 C 0.37974 0.77644 0.99382 0.0
C644 C 0.37416 0.81484 0.0121 0.0
C645 C 0.35865 0.83772 0.01778 0.0
C646 C 0.36205 0.86843 0.01013 0.0
C647 C 0.34786 0.89024 0.01566 0.0
C648 C 0.32989 0.88138 0.02877 0.0
C649 C 0.32645 0.85093 0.03646 0.0
C650 C 0.34097 0.82928 0.03105 0.0
C651 C 0.51089 0.79993 0.02439 0.0
C652 C 0.50447 0.78642 0.03835 0.0
C653 C 0.48348 0.80319 0.01699 0.0
C654 C 0.4488 0.79233 0.02328 0.0
C655 C 0.44282 0.78028 0.03741 0.0
C656 C 0.47048 0.77743 0.04491 0.0
C657 C 0.41847 0.79237 0.0149 0.0
C658 C 0.40161 0.81234 0.01999 0.0
C659 C 0.40699 0.77376 1.00171 0.0
C660 C 0.42187 0.75012 0.99616 0.0
C661 C 0.41959 0.7205 0.00427 0.0
C662 C 0.43405 0.69863 0.99904 0.0
C663 C 0.45061 0.70594 0.98567 0.0
C664 C 0.45264 0.73506 0.97748 0.0
C665 C 0.43826 0.75704 0.98267 0.0
H666 H 0.4618 0.68899 0.98164 0.0
H667 H 0.3188 0.89823 0.033 0.0
H668 H 0.48173 0.32097 0.29453 0.0
H669 H 0.52618 0.37488 0.30858 0.0
H670 H 0.5513 0.30247 0.33349 0.0
H671 H 0.50516 0.24861 0.32016 0.0
H672 H 0.5509 0.34864 0.3501 0.0
H673 H 0.60833 0.36163 0.30455 0.0
H674 H 0.61319 0.3674 0.27857 0.0
H675 H 0.60565 0.46734 0.28071 0.0
H676 H 0.60033 0.46191 0.3067 0.0
H677 H 0.75651 0.51094 0.35283 0.0
H678 H 0.70286 0.46432 0.33961 0.0
H679 H 0.62876 0.4714 0.37007 0.0
H680 H 0.68276 0.51665 0.38384 0.0
H681 H 0.64965 0.46141 0.326 0.0
H682 H 0.54842 0.38925 0.37264 0.0
H683 H 0.55045 0.37803 0.39818 0.0
H684 H 0.65779 0.38683 0.39308 0.0
H685 H 0.65617 0.39766 0.36751 0.0
C686 C 0.49673 0.31675 0.30306 0.0
C687 C 0.49024 0.28078 0.30625 0.0
C688 C 0.52224 0.34753 0.31104 0.0
C689 C 0.54273 0.343 0.32198 0.0
C690 C 0.53584 0.30687 0.32519 0.0
C691 C 0.50959 0.27606 0.31751 0.0
C692 C 0.57191 0.37559 0.32998 0.0
C693 C 0.57241 0.37333 0.3448 0.0
C694 C 0.60031 0.4078 0.32315 0.0
C695 C 0.60348 0.41111 0.30754 0.0
C696 C 0.60745 0.38469 0.29946 0.0
C697 C 0.61033 0.38792 0.28474 0.0
C698 C 0.6096 0.41765 0.27799 0.0
C699 C 0.60612 0.44428 0.28595 0.0
C700 C 0.60319 0.44115 0.30068 0.0
C701 C 0.72878 0.5026 0.35671 0.0
C702 C 0.72379 0.51713 0.36944 0.0
C703 C 0.69806 0.47603 0.3491 0.0
C704 C 0.66161 0.46384 0.35389 0.0
C705 C 0.65654 0.47957 0.36631 0.0
C706 C 0.68738 0.50554 0.37415 0.0
C707 C 0.62935 0.43383 0.34605 0.0
C708 C 0.62799 0.43681 0.33129 0.0
C709 C 0.6012 0.40144 0.35287 0.0
C710 C 0.60236 0.39475 0.36821 0.0
C711 C 0.57241 0.38873 0.37698 0.0
C712 C 0.57349 0.38244 0.39145 0.0
C713 C 0.6043 0.38187 0.39726 0.0
C714 C 0.63402 0.38744 0.38859 0.0
C715 C 0.63305 0.39368 0.37411 0.0
H716 H 0.60509 0.37703 0.40846 0.0
H717 H 0.61184 0.4201 0.26659 0.0
H718 H 0.19921 0.51529 0.62052 0.0
H719 H 0.1915 0.56135 0.63426 0.0
H720 H 0.22278 0.52587 0.67225 0.0
H721 H 0.22925 0.47923 0.65877 0.0
H722 H 0.16777 0.53707 0.678 0.0
H723 H 0.28499 0.60657 0.65325 0.0
H724 H 0.32586 0.62855 0.63227 0.0
H725 H 0.26245 0.67621 0.6154 0.0
H726 H 0.22091 0.6541 0.6362 0.0
H727 H 0.22748 0.69863 0.72165 0.0
H728 H 0.22117 0.64601 0.70753 0.0
H729 H 0.18385 0.68405 0.67192 0.0
H730 H 0.19061 0.7368 0.68581 0.0
H731 H 0.2378 0.67074 0.66425 0.0
H732 H 0.12363 0.60503 0.69053 0.0
H733 H 0.08459 0.58387 0.71199 0.0
H734 H 0.14426 0.52994 0.72661 0.0
H735 H 0.18401 0.5512 0.70532 0.0
C736 C 0.2043 0.51726 0.63181 0.0
C737 C 0.21503 0.49371 0.63852 0.0
C738 C 0.20001 0.54367 0.63964 0.0
C739 C 0.20707 0.54746 0.65428 0.0
C740 C 0.21712 0.52349 0.661 0.0
C741 C 0.22095 0.49688 0.65323 0.0
C742 C 0.20492 0.5768 0.66265 0.0
C743 C 0.18334 0.56635 0.67506 0.0
C744 C 0.2246 0.61494 0.65868 0.0
C745 C 0.24962 0.62833 0.6462 0.0
C746 C 0.27961 0.6215 0.64501 0.0
C747 C 0.30292 0.63402 0.63316 0.0
C748 C 0.29669 0.65366 0.62249 0.0
C749 C 0.2672 0.66093 0.62366 0.0
C750 C 0.24379 0.64844 0.63548 0.0
C751 C 0.21746 0.69548 0.71088 0.0
C752 C 0.20985 0.72207 0.70483 0.0
C753 C 0.21377 0.66534 0.70282 0.0
C754 C 0.20195 0.66105 0.68866 0.0
C755 C 0.1932 0.6869 0.68278 0.0
C756 C 0.19708 0.71705 0.69077 0.0
C757 C 0.20091 0.63106 0.67967 0.0
C758 C 0.22197 0.64143 0.66715 0.0
C759 C 0.18099 0.59294 0.6836 0.0
C760 C 0.15701 0.58 0.69638 0.0
C761 C 0.12862 0.5889 0.69837 0.0
C762 C 0.10633 0.57684 0.7105 0.0
C763 C 0.112 0.55565 0.72067 0.0
C764 C 0.13992 0.54638 0.71873 0.0
C765 C 0.16231 0.5584 0.70662 0.0
H766 H 0.09471 0.54634 0.73005 0.0
H767 H 0.31476 0.66333 0.61332 0.0
H768 H 0.3656 0.18048 0.11081 0.0
H769 H 0.35817 0.1721 0.13654 0.0
H770 H 0.47758 0.23788 0.14171 0.0
H771 H 0.4852 0.24608 0.11618 0.0
H772 H 0.44841 0.17692 0.15845 0.0
H773 H 0.42114 0.27541 0.14706 0.0
H774 H 0.38682 0.30205 0.13499 0.0
H775 H 0.2843 0.21811 0.15367 0.0
H776 H 0.31799 0.19069 0.16571 0.0
H777 H 0.48271 0.24313 0.22769 0.0
H778 H 0.47585 0.23908 0.20207 0.0
H779 H 0.35637 0.17183 0.20648 0.0
H780 H 0.363 0.17602 0.23234 0.0
H781 H 0.37657 0.22387 0.18504 0.0
H782 H 0.4046 0.12953 0.19855 0.0
H783 H 0.43876 0.10315 0.21091 0.0
H784 H 0.53873 0.1778 0.18833 0.0
H785 H 0.50532 0.20502 0.17598 0.0
C786 C 0.39026 0.19286 0.11744 0.0
C787 C 0.42599 0.21404 0.11143 0.0
C788 C 0.38596 0.18822 0.13214 0.0
C789 C 0.41731 0.20466 0.14109 0.0
C790 C 0.45297 0.22491 0.13505 0.0
C791 C 0.45727 0.22966 0.12042 0.0
C792 C 0.41347 0.20172 0.15676 0.0
C793 C 0.43284 0.18736 0.16426 0.0
C794 C 0.39219 0.21423 0.16436 0.0
C795 C 0.37199 0.23074 0.15714 0.0
C796 C 0.39123 0.26246 0.1485 0.0
C797 C 0.37191 0.27773 0.14168 0.0
C798 C 0.33339 0.26171 0.14352 0.0
C799 C 0.31413 0.23044 0.15222 0.0
C800 C 0.33332 0.21504 0.15905 0.0
C801 C 0.45488 0.22768 0.22326 0.0
C802 C 0.4234 0.20968 0.23209 0.0
C803 C 0.45103 0.22525 0.20858 0.0
C804 C 0.41566 0.20455 0.20234 0.0
C805 C 0.38396 0.18776 0.21107 0.0
C806 C 0.3878 0.19019 0.22584 0.0
C807 C 0.41238 0.20005 0.1867 0.0
C808 C 0.39167 0.21292 0.17923 0.0
C809 C 0.43231 0.18602 0.1791 0.0
C810 C 0.45249 0.1695 0.1864 0.0
C811 C 0.43393 0.1405 0.19628 0.0
C812 C 0.45315 0.12537 0.20328 0.0
C813 C 0.4909 0.13884 0.20042 0.0
C814 C 0.50949 0.1674 0.19053 0.0
C815 C 0.49041 0.18266 0.18352 0.0
H816 H 0.50573 0.1271 0.20586 0.0
H817 H 0.31847 0.27357 0.13824 0.0
H818 H 0.24222 0.48194 0.44845 0.0
H819 H 0.24268 0.47448 0.47398 0.0
H820 H 0.17583 0.35484 0.46937 0.0
H821 H 0.17503 0.36213 0.4436 0.0
H822 H 0.14957 0.38163 0.49053 0.0
H823 H 0.26602 0.39239 0.47787 0.0
H824 H 0.32721 0.41938 0.46605 0.0
H825 H 0.36495 0.52223 0.48872 0.0
H826 H 0.30379 0.49606 0.50053 0.0
H827 H 0.1798 0.36395 0.56501 0.0
H828 H 0.17458 0.35681 0.53919 0.0
H829 H 0.24364 0.47617 0.53439 0.0
H830 H 0.24921 0.48346 0.55998 0.0
H831 H 0.26778 0.43989 0.51785 0.0
H832 H 0.1493 0.43123 0.52848 0.0
H833 H 0.08787 0.40478 0.54009 0.0
H834 H 0.0541 0.29793 0.52122 0.0
H835 H 0.11556 0.32365 0.50963 0.0
C836 C 0.22782 0.45395 0.45281 0.0
C837 C 0.20867 0.42261 0.44396 0.0
C838 C 0.22821 0.44973 0.46744 0.0
C839 C 0.20958 0.41408 0.4736 0.0
C840 C 0.19047 0.38261 0.46483 0.0
C841 C 0.19021 0.38681 0.45012 0.0
C842 C 0.20958 0.41029 0.48924 0.0
C843 C 0.17539 0.39367 0.49651 0.0
C844 C 0.24326 0.42646 0.49706 0.0
C845 C 0.28019 0.44231 0.49002 0.0
C846 C 0.28727 0.42086 0.48027 0.0
C847 C 0.32197 0.436 0.47358 0.0
C848 C 0.34992 0.47252 0.47661 0.0
C849 C 0.34326 0.49395 0.48637 0.0
C850 C 0.30859 0.47895 0.49308 0.0
C851 C 0.19348 0.38867 0.55844 0.0
C852 C 0.21499 0.42426 0.56457 0.0
C853 C 0.19047 0.38456 0.54368 0.0
C854 C 0.20878 0.41597 0.53483 0.0
C855 C 0.22946 0.4515 0.54098 0.0
C856 C 0.23248 0.45562 0.55565 0.0
C857 C 0.20782 0.41224 0.51916 0.0
C858 C 0.24191 0.42738 0.51188 0.0
C859 C 0.17407 0.39471 0.51137 0.0
C860 C 0.13718 0.37924 0.51834 0.0
C861 C 0.1289 0.402 0.52691 0.0
C862 C 0.09405 0.38717 0.53347 0.0
C863 C 0.06714 0.34967 0.53143 0.0
C864 C 0.075 0.32695 0.52281 0.0
C865 C 0.10982 0.34165 0.51624 0.0
H866 H 0.04017 0.33824 0.53651 0.0
H867 H 0.37677 0.48419 0.47142 0.0
H868 H 0.76189 0.24175 0.89254 0.0
H869 H 0.75968 0.23283 0.86703 0.0
H870 H 0.81648 0.16966 0.87144 0.0
H871 H 0.81912 0.17879 0.89718 0.0
H872 H 0.8467 0.22201 0.85027 0.0
H873 H 0.72509 0.12485 0.86326 0.0
H874 H 0.664 0.09684 0.87522 0.0
H875 H 0.63683 0.17002 0.85242 0.0
H876 H 0.69798 0.19886 0.84046 0.0
H877 H 0.81399 0.17521 0.77599 0.0
H878 H 0.81873 0.17323 0.80181 0.0
H879 H 0.7559 0.23043 0.8063 0.0
H880 H 0.75041 0.23175 0.78069 0.0
H881 H 0.72861 0.17228 0.82319 0.0
H882 H 0.85213 0.27383 0.81223 0.0
H883 H 0.91363 0.30337 0.80052 0.0
H884 H 0.93726 0.22301 0.81954 0.0
H885 H 0.87567 0.19269 0.83123 0.0
C886 C 0.77366 0.22564 0.88814 0.0
C887 C 0.7906 0.21088 0.89692 0.0
C888 C 0.77226 0.22047 0.87353 0.0
C889 C 0.7876 0.20028 0.86731 0.0
C890 C 0.80438 0.18526 0.87602 0.0
C891 C 0.80568 0.19032 0.89072 0.0
C892 C 0.78687 0.1961 0.85167 0.0
C893 C 0.82083 0.21044 0.84433 0.0
C894 C 0.75319 0.1816 0.84392 0.0
C895 C 0.71625 0.16418 0.85103 0.0
C896 C 0.7062 0.13515 0.86086 0.0
C897 C 0.67154 0.11909 0.86763 0.0
C898 C 0.64658 0.13168 0.8646 0.0
C899 C 0.6562 0.1603 0.85476 0.0
C900 C 0.69083 0.17648 0.84797 0.0
C901 C 0.8016 0.18774 0.7825 0.0
C902 C 0.78176 0.20356 0.77629 0.0
C903 C 0.80434 0.18663 0.79726 0.0
C904 C 0.78769 0.20172 0.80604 0.0
C905 C 0.76876 0.21836 0.79979 0.0
C906 C 0.76579 0.21923 0.78511 0.0
C907 C 0.78853 0.19922 0.82174 0.0
C908 C 0.7545 0.18346 0.82909 0.0
C909 C 0.82214 0.21254 0.82948 0.0
C910 C 0.85913 0.23073 0.82246 0.0
C911 C 0.87031 0.26227 0.81381 0.0
C912 C 0.90521 0.27919 0.8072 0.0
C913 C 0.92928 0.265 0.80925 0.0
C914 C 0.91855 0.23392 0.81794 0.0
C915 C 0.88367 0.21687 0.82457 0.0
H916 H 0.95629 0.27815 0.80413 0.0
H917 H 0.61976 0.11922 0.86985 0.0
H918 H 0.51924 0.75351 0.1149 0.0
H919 H 0.52741 0.76367 0.14033 0.0
H920 H 0.64691 0.82564 0.13494 0.0
H921 H 0.63892 0.81549 0.10924 0.0
H922 H 0.62405 0.77308 0.15682 0.0
H923 H 0.6044 0.87275 0.14293 0.0
H924 H 0.57353 0.90259 0.13059 0.0
H925 H 0.47244 0.83395 0.15365 0.0
H926 H 0.50253 0.80328 0.16598 0.0
H927 H 0.63716 0.82181 0.23111 0.0
H928 H 0.64526 0.82444 0.20534 0.0
H929 H 0.52575 0.76777 0.19992 0.0
H930 H 0.5175 0.76542 0.22546 0.0
H931 H 0.55914 0.82785 0.18327 0.0
H932 H 0.57631 0.72321 0.19482 0.0
H933 H 0.60627 0.69207 0.20691 0.0
H934 H 0.71158 0.76973 0.18821 0.0
H935 H 0.68231 0.80163 0.17614 0.0
C936 C 0.54732 0.76952 0.11906 0.0
C937 C 0.57844 0.78379 0.11002 0.0
C938 C 0.55193 0.7754 0.13363 0.0
C939 C 0.58775 0.79568 0.13953 0.0
C940 C 0.61901 0.80999 0.13058 0.0
C941 C 0.61439 0.80433 0.11592 0.0
C942 C 0.59193 0.80096 0.15511 0.0
C943 C 0.61057 0.78579 0.16261 0.0
C944 C 0.5739 0.81706 0.16267 0.0
C945 C 0.55568 0.83555 0.15532 0.0
C946 C 0.5755 0.86382 0.1453 0.0
C947 C 0.55816 0.88092 0.13832 0.0
C948 C 0.52103 0.87013 0.14132 0.0
C949 C 0.5012 0.84227 0.15133 0.0
C950 C 0.51841 0.82506 0.15834 0.0
C951 C 0.61264 0.80961 0.22441 0.0
C952 C 0.57669 0.79347 0.23036 0.0
C953 C 0.61731 0.81111 0.20969 0.0
C954 C 0.5861 0.79631 0.20068 0.0
C955 C 0.55026 0.77959 0.20664 0.0
C956 C 0.5456 0.77813 0.22128 0.0
C957 C 0.59021 0.79888 0.18502 0.0
C958 C 0.57316 0.81567 0.17749 0.0
C959 C 0.60965 0.78422 0.17748 0.0
C960 C 0.62723 0.76508 0.18473 0.0
C961 C 0.60593 0.73385 0.19339 0.0
C962 C 0.62276 0.71602 0.20022 0.0
C963 C 0.66083 0.72899 0.19837 0.0
C964 C 0.68211 0.75976 0.18965 0.0
C965 C 0.66542 0.77772 0.18281 0.0
H966 H 0.67381 0.71515 0.20366 0.0
H967 H 0.50765 0.8834 0.1359 0.0
H968 H 0.75119 0.52014 0.55923 0.0
H969 H 0.76084 0.52765 0.53378 0.0
H970 H 0.83482 0.64607 0.53928 0.0
H971 H 0.82486 0.63881 0.56496 0.0
H972 H 0.78501 0.63167 0.51798 0.0
H973 H 0.87021 0.5904 0.53043 0.0
H974 H 0.8912 0.55052 0.54196 0.0
H975 H 0.81012 0.45561 0.5184 0.0
H976 H 0.78826 0.49479 0.50688 0.0
H977 H 0.83122 0.64269 0.4436 0.0
H978 H 0.83418 0.64856 0.46946 0.0
H979 H 0.76174 0.52937 0.4733 0.0
H980 H 0.75912 0.52327 0.44764 0.0
H981 H 0.82071 0.55254 0.49008 0.0
H982 H 0.73128 0.59245 0.4797 0.0
H983 H 0.70956 0.63196 0.46836 0.0
H984 H 0.79883 0.72943 0.48801 0.0
H985 H 0.82136 0.69051 0.49934 0.0
C986 C 0.76981 0.5478 0.55509 0.0
C987 C 0.78736 0.57887 0.56416 0.0
C988 C 0.7754 0.55202 0.5405 0.0
C989 C 0.79888 0.58736 0.5346 0.0
C990 C 0.81666 0.61852 0.5436 0.0
C991 C 0.8111 0.61429 0.55828 0.0
C992 C 0.80361 0.59139 0.51898 0.0
C993 C 0.79356 0.61495 0.51188 0.0
C994 C 0.81426 0.56921 0.51099 0.0
C995 C 0.82744 0.54553 0.51785 0.0
C996 C 0.85668 0.56097 0.52778 0.0
C997 C 0.86876 0.53849 0.5343 0.0
C998 C 0.85196 0.50054 0.53093 0.0
C999 C 0.8231 0.48501 0.52101 0.0
C1000 C 0.81089 0.50736 0.51446 0.0
C1001 C 0.8156 0.61783 0.44997 0.0
C1002 C 0.795 0.58251 0.44355 0.0
C1003 C 0.8173 0.62122 0.46475 0.0
C1004 C 0.79817 0.58939 0.47335 0.0
C1005 C 0.77693 0.55431 0.46691 0.0
C1006 C 0.77534 0.55089 0.45221 0.0
C1007 C 0.80099 0.59192 0.48905 0.0
C1008 C 0.81262 0.56965 0.49618 0.0
C1009 C 0.7918 0.61527 0.49702 0.0
C1010 C 0.77826 0.63864 0.49023 0.0
C1011 C 0.74646 0.62235 0.48151 0.0
C1012 C 0.73396 0.64462 0.4751 0.0
C1013 C 0.75287 0.6832 0.47742 0.0
C1014 C 0.78425 0.69956 0.4862 0.0
C1015 C 0.79689 0.67741 0.49262 0.0
H1016 H 0.74315 0.7004 0.47246 0.0
H1017 H 0.86135 0.48319 0.536 0.0
H1018 H 0.24639 0.76883 0.89453 0.0
H1019 H 0.24843 0.77762 0.869 0.0
H1020 H 0.17999 0.82889 0.87301 0.0
H1021 H 0.17764 0.81997 0.89875 0.0
H1022 H 0.15495 0.7757 0.85199 0.0
H1023 H 0.27056 0.88233 0.86486 0.0
H1024 H 0.33153 0.91706 0.87681 0.0
H1025 H 0.3707 0.85285 0.85434 0.0
H1026 H 0.30977 0.81734 0.84239 0.0
H1027 H 0.18358 0.82223 0.77766 0.0
H1028 H 0.17912 0.82485 0.80347 0.0
H1029 H 0.25111 0.77776 0.80821 0.0
H1030 H 0.25604 0.7755 0.7826 0.0
H1031 H 0.27352 0.83702 0.82494 0.0
H1032 H 0.15637 0.72616 0.81417 0.0
H1033 H 0.09518 0.6901 0.80246 0.0
H1034 H 0.05904 0.76163 0.82107 0.0
H1035 H 0.12024 0.79842 0.83276 0.0
C1036 C 0.23205 0.78235 0.89004 0.0
C1037 C 0.2119 0.79378 0.8987 0.0
C1038 C 0.23335 0.78746 0.87542 0.0
C1039 C 0.21461 0.80418 0.86907 0.0
C1040 C 0.19473 0.816 0.87768 0.0
C1041 C 0.19359 0.81108 0.89238 0.0
C1042 C 0.2149 0.80781 0.85342 0.0
C1043 C 0.18084 0.78979 0.84607 0.0
C1044 C 0.24869 0.82561 0.84567 0.0
C1045 C 0.28547 0.84699 0.8528 0.0
C1046 C 0.29207 0.87542 0.86254 0.0
C1047 C 0.32665 0.89528 0.8693 0.0
C1048 C 0.35494 0.88712 0.86635 0.0
C1049 C 0.34875 0.85913 0.85661 0.0
C1050 C 0.31421 0.83916 0.84983 0.0
C1051 C 0.19814 0.81211 0.78421 0.0
C1052 C 0.22019 0.79868 0.77805 0.0
C1053 C 0.19555 0.81359 0.79897 0.0
C1054 C 0.21477 0.80147 0.80781 0.0
C1055 C 0.2362 0.78748 0.80164 0.0
C1056 C 0.23884 0.78605 0.78696 0.0
C1057 C 0.21362 0.80406 0.82349 0.0
C1058 C 0.24758 0.82336 0.83085 0.0
C1059 C 0.17976 0.78736 0.83122 0.0
C1060 C 0.14302 0.76531 0.82419 0.0
C1061 C 0.13549 0.7344 0.81566 0.0
C1062 C 0.10078 0.71379 0.80905 0.0
C1063 C 0.07328 0.72365 0.81098 0.0
C1064 C 0.0804 0.75408 0.81956 0.0
C1065 C 0.11508 0.77481 0.82619 0.0
H1066 H 0.04643 0.70764 0.80586 0.0
H1067 H 0.38169 0.90253 0.8716 0.0
H1068 H 0.58727 0.65911 0.03625 0.0
H1069 H 0.56284 0.59149 0.03456 0.0
H1070 H 0.50554 0.57549 0.07427 0.0
H1071 H 0.52937 0.64247 0.07601 0.0
H1072 H 0.56819 0.54032 0.05095 0.0
H1073 H 0.42068 0.4981 0.07261 0.0
H1074 H 0.37732 0.52286 0.07284 0.0
H1075 H 0.42768 0.58512 0.03498 0.0
H1076 H 0.47095 0.56032 0.0344 0.0
H1077 H 0.47823 0.35649 0.07621 0.0
H1078 H 0.50173 0.42328 0.07368 0.0
H1079 H 0.43019 0.40226 0.03758 0.0
H1080 H 0.40614 0.33491 0.04007 0.0
H1081 H 0.43121 0.45563 0.05463 0.0
H1082 H 0.52092 0.43272 0.03234 0.0
H1083 H 0.56387 0.40778 0.03011 0.0
H1084 H 0.62833 0.47545 0.06513 0.0
H1085 H 0.58543 0.50039 0.06771 0.0
C1086 C 0.56977 0.64122 0.04469 0.0
C1087 C 0.56006 0.65627 0.05621 0.0
C1088 C 0.5558 0.60258 0.04369 0.0
C1089 C 0.53177 0.57837 0.05415 0.0
C1090 C 0.52338 0.59353 0.06593 0.0
C1091 C 0.53724 0.63195 0.06693 0.0
C1092 C 0.51479 0.53717 0.05279 0.0
C1093 C 0.53826 0.52182 0.05171 0.0
C1094 C 0.47562 0.51298 0.0534 0.0
C1095 C 0.44926 0.52756 0.05353 0.0
C1096 C 0.42237 0.51691 0.06429 0.0
C1097 C 0.39783 0.53099 0.06449 0.0
C1098 C 0.39981 0.55563 0.05395 0.0
C1099 C 0.42625 0.56614 0.04316 0.0
C1100 C 0.45082 0.55211 0.0429 0.0
C1101 C 0.46715 0.36588 0.06777 0.0
C1102 C 0.4404 0.34022 0.05828 0.0
C1103 C 0.48084 0.40419 0.06631 0.0
C1104 C 0.46829 0.41784 0.05528 0.0
C1105 C 0.44046 0.39233 0.04612 0.0
C1106 C 0.4267 0.35384 0.04757 0.0
C1107 C 0.48471 0.45881 0.05334 0.0
C1108 C 0.46113 0.47413 0.05378 0.0
C1109 C 0.52371 0.48293 0.05185 0.0
C1110 C 0.54978 0.46822 0.05028 0.0
C1111 C 0.5441 0.44209 0.03963 0.0
C1112 C 0.56846 0.42798 0.0383 0.0
C1113 C 0.59877 0.43997 0.04749 0.0
C1114 C 0.60483 0.46617 0.05802 0.0
C1115 C 0.58052 0.48034 0.05942 0.0
H1116 H 0.6176 0.42901 0.04644 0.0
H1117 H 0.38081 0.56652 0.05414 0.0
H1118 H 0.94718 0.61066 0.38859 0.0
H1119 H 0.99016 0.58596 0.38851 0.0
H1120 H 0.89754 0.47476 0.39561 0.0
H1121 H 0.85517 0.49968 0.39657 0.0
H1122 H 0.94962 0.48055 0.41049 0.0
H1123 H 0.94438 0.50928 0.36192 0.0
H1124 H 0.94846 0.548 0.34141 0.0
H1125 H 0.06411 0.62355 0.35047 0.0
H1126 H 0.0606 0.58551 0.37115 0.0
H1127 H 0.05311 0.38985 0.38702 0.0
H1128 H 0.00801 0.41234 0.38663 0.0
H1129 H 0.09555 0.52282 0.39799 0.0
H1130 H 0.14026 0.50057 0.39882 0.0
H1131 H 0.04534 0.51483 0.37307 0.0
H1132 H 0.04585 0.48239 0.42263 0.0
H1133 H 0.03875 0.43884 0.4418 0.0
H1134 H 0.92642 0.3633 0.4284 0.0
H1135 H 0.93308 0.40621 0.40901 0.0
C1136 C 0.93613 0.58099 0.39017 0.0
C1137 C 0.89785 0.55715 0.39261 0.0
C1138 C 0.96064 0.56677 0.39001 0.0
C1139 C 0.94716 0.52824 0.3918 0.0
C1140 C 0.90885 0.50454 0.39424 0.0
C1141 C 0.88458 0.51885 0.39477 0.0
C1142 C 0.97276 0.51248 0.39137 0.0
C1143 C 0.97009 0.48775 0.40214 0.0
C1144 C 0.99988 0.5218 0.3806 0.0
C1145 C 0.00212 0.54474 0.36817 0.0
C1146 C 0.97062 0.53429 0.3596 0.0
C1147 C 0.97284 0.5561 0.34793 0.0
C1148 C 0.0065 0.58827 0.34466 0.0
C1149 C 0.03804 0.59865 0.35303 0.0
C1150 C 0.03597 0.57696 0.36472 0.0
C1151 C 0.06263 0.41887 0.38947 0.0
C1152 C 0.10017 0.44336 0.39303 0.0
C1153 C 0.03692 0.43166 0.38924 0.0
C1154 C 0.04859 0.46924 0.39226 0.0
C1155 C 0.08607 0.49376 0.39561 0.0
C1156 C 0.1115 0.48088 0.39615 0.0
C1157 C 0.02187 0.48327 0.39211 0.0
C1158 C 0.02451 0.50764 0.38127 0.0
C1159 C 0.99415 0.47294 0.4026 0.0
C1160 C 0.99013 0.44727 0.41428 0.0
C1161 C 0.01978 0.45632 0.42369 0.0
C1162 C 0.0158 0.43179 0.43461 0.0
C1163 C 0.9822 0.39826 0.43629 0.0
C1164 C 0.95246 0.38924 0.42707 0.0
C1165 C 0.95631 0.41366 0.41612 0.0
H1166 H 0.97917 0.37931 0.44475 0.0
H1167 H 0.00816 0.60511 0.33563 0.0
H1168 H 0.65789 0.08194 0.70025 0.0
H1169 H 0.59015 0.03916 0.69923 0.0
H1170 H 0.58285 0.04961 0.74432 0.0
H1171 H 0.65018 0.09294 0.74538 0.0
H1172 H 0.54001 0.97341 0.73255 0.0
H1173 H 0.56254 0.09994 0.72621 0.0
H1174 H 0.59156 0.16123 0.71431 0.0
H1175 H 0.54079 0.10776 0.67504 0.0
H1176 H 0.51192 0.04606 0.68668 0.0
H1177 H 0.3513 0.90442 0.74617 0.0
H1178 H 0.41876 0.94564 0.74491 0.0
H1179 H 0.411 0.9556 0.69977 0.0
H1180 H 0.34301 0.91564 0.70112 0.0
H1181 H 0.46251 0.01926 0.70952 0.0
H1182 H 0.43679 0.89388 0.71496 0.0
H1183 H 0.40875 0.83111 0.72562 0.0
H1184 H 0.46626 0.879 0.76457 0.0
H1185 H 0.49426 0.94214 0.75421 0.0
C1186 C 0.64191 0.07457 0.70996 0.0
C1187 C 0.65926 0.09079 0.72289 0.0
C1188 C 0.60327 0.05035 0.70935 0.0
C1189 C 0.5816 0.04152 0.72169 0.0
C1190 C 0.59914 0.05615 0.73469 0.0
C1191 C 0.63756 0.0809 0.73527 0.0
C1192 C 0.54041 0.01851 0.72106 0.0
C1193 C 0.52296 0.98343 0.72761 0.0
C1194 C 0.51841 0.03128 0.71423 0.0
C1195 C 0.53546 0.06837 0.70727 0.0
C1196 C 0.55785 0.10123 0.71501 0.0
C1197 C 0.57421 0.13604 0.70832 0.0
C1198 C 0.56813 0.13838 0.69391 0.0
C1199 C 0.54555 0.1059 0.68619 0.0
C1200 C 0.52916 0.07101 0.69283 0.0
C1201 C 0.36391 0.91583 0.73601 0.0
C1202 C 0.34193 0.90659 0.72373 0.0
C1203 C 0.40254 0.93916 0.73527 0.0
C1204 C 0.42021 0.95282 0.72218 0.0
C1205 C 0.39811 0.94517 0.70998 0.0
C1206 C 0.35925 0.92239 0.71076 0.0
C1207 C 0.46171 0.97406 0.72124 0.0
C1208 C 0.47934 0.00887 0.71437 0.0
C1209 C 0.48396 0.96072 0.72758 0.0
C1210 C 0.46739 0.92277 0.73383 0.0
C1211 C 0.44328 0.89104 0.72582 0.0
C1212 C 0.42741 0.8554 0.73181 0.0
C1213 C 0.43565 0.85108 0.74577 0.0
C1214 C 0.45987 0.8824 0.75376 0.0
C1215 C 0.47578 0.91812 0.74783 0.0
H1216 H 0.42333 0.82346 0.75039 0.0
H1217 H 0.58082 0.16537 0.68875 0.0
H1218 H 0.65074 0.55487 0.59297 0.0
H1219 H 0.58346 0.53162 0.5936 0.0
H1220 H 0.59081 0.55839 0.63797 0.0
H1221 H 0.65842 0.58261 0.63736 0.0
H1222 H 0.53545 0.48004 0.62907 0.0
H1223 H 0.57451 0.60923 0.61909 0.0
H1224 H 0.60858 0.66814 0.60573 0.0
H1225 H 0.54903 0.6124 0.56799 0.0
H1226 H 0.51499 0.55301 0.58108 0.0
H1227 H 0.34641 0.43328 0.63864 0.0
H1228 H 0.41415 0.46023 0.63874 0.0
H1229 H 0.41644 0.47469 0.59346 0.0
H1230 H 0.34901 0.44988 0.5935 0.0
H1231 H 0.4685 0.53385 0.60348 0.0
H1232 H 0.43146 0.40562 0.6113 0.0
H1233 H 0.3985 0.34379 0.62277 0.0
H1234 H 0.45454 0.39237 0.66189 0.0
H1235 H 0.4875 0.45461 0.6507 0.0
C1236 C 0.63815 0.55643 0.6028 0.0
C1237 C 0.65984 0.5706 0.61512 0.0
C1238 C 0.59975 0.54312 0.60314 0.0
C1239 C 0.58228 0.5432 0.61584 0.0
C1240 C 0.6039 0.55812 0.62808 0.0
C1241 C 0.64249 0.57216 0.62769 0.0
C1242 C 0.54116 0.52587 0.61642 0.0
C1243 C 0.52066 0.49199 0.62369 0.0
C1244 C 0.52212 0.54086 0.60891 0.0
C1245 C 0.54247 0.57659 0.60104 0.0
C1246 C 0.56893 0.60945 0.60791 0.0
C1247 C 0.58818 0.64295 0.6004 0.0
C1248 C 0.58105 0.64399 0.58601 0.0
C1249 C 0.55456 0.61155 0.57912 0.0
C1250 C 0.53526 0.57797 0.58659 0.0
C1251 C 0.36135 0.44166 0.62869 0.0
C1252 C 0.34248 0.43941 0.61605 0.0
C1253 C 0.40013 0.457 0.62874 0.0
C1254 C 0.42065 0.46925 0.61608 0.0
C1255 C 0.40146 0.46572 0.60339 0.0
C1256 C 0.36287 0.4513 0.60339 0.0
C1257 C 0.46218 0.48749 0.61611 0.0
C1258 C 0.48295 0.52165 0.60893 0.0
C1259 C 0.48145 0.47221 0.62342 0.0
C1260 C 0.46165 0.43484 0.63019 0.0
C1261 C 0.43653 0.40317 0.62238 0.0
C1262 C 0.4179 0.36804 0.62882 0.0
C1263 C 0.42434 0.36418 0.64306 0.0
C1264 C 0.44953 0.39542 0.65087 0.0
C1265 C 0.46822 0.43062 0.64448 0.0
H1266 H 0.40989 0.33695 0.64803 0.0
H1267 H 0.59597 0.66996 0.58021 0.0
H1268 H 0.06517 0.66012 0.96571 0.0
H1269 H 0.02369 0.59226 0.96636 0.0
H1270 H 0.07875 0.58035 0.92962 0.0
H1271 H 0.12062 0.64781 0.92905 0.0
H1272 H 0.97394 0.54139 0.94899 0.0
H1273 H 0.08543 0.50246 0.93233 0.0
H1274 H 0.15354 0.52858 0.93404 0.0
H1275 H 0.157 0.59067 0.97101 0.0
H1276 H 0.08886 0.56452 0.96964 0.0
H1277 H 0.88536 0.35369 0.92796 0.0
H1278 H 0.9278 0.42098 0.92877 0.0
H1279 H 0.97774 0.40827 0.96687 0.0
H1280 H 0.93552 0.34048 0.96603 0.0
H1281 H 0.03 0.45942 0.94973 0.0
H1282 H 0.91359 0.43635 0.96879 0.0
H1283 H 0.84539 0.41022 0.96937 0.0
H1284 H 0.85166 0.47225 0.93204 0.0
H1285 H 0.91987 0.49834 0.93112 0.0
C1286 C 0.0682 0.64309 0.95768 0.0
C1287 C 0.09646 0.65941 0.9474 0.0
C1288 C 0.04449 0.60428 0.95808 0.0
C1289 C 0.0486 0.58112 0.94822 0.0
C1290 C 0.07561 0.59754 0.93755 0.0
C1291 C 0.09941 0.6362 0.93719 0.0
C1292 C 0.02519 0.53975 0.94918 0.0
C1293 C 0.98621 0.5235 0.94916 0.0
C1294 C 0.04115 0.51633 0.94974 0.0
C1295 C 0.08208 0.53177 0.95079 0.0
C1296 C 0.1007 0.52155 0.94086 0.0
C1297 C 0.13932 0.53639 0.94177 0.0
C1298 C 0.1596 0.56136 0.9526 0.0
C1299 C 0.14128 0.57143 0.96259 0.0
C1300 C 0.10267 0.55664 0.96175 0.0
C1301 C 0.90557 0.36505 0.93646 0.0
C1302 C 0.90678 0.34164 0.94701 0.0
C1303 C 0.92972 0.40362 0.93694 0.0
C1304 C 0.95541 0.41978 0.94804 0.0
C1305 C 0.95796 0.39641 0.95824 0.0
C1306 C 0.93383 0.35766 0.95775 0.0
C1307 C 0.97879 0.4611 0.94913 0.0
C1308 C 0.01775 0.47733 0.94957 0.0
C1309 C 0.96281 0.48452 0.94927 0.0
C1310 C 0.92181 0.46906 0.94983 0.0
C1311 C 0.9004 0.44422 0.96065 0.0
C1312 C 0.86174 0.42944 0.96104 0.0
C1313 C 0.8442 0.43951 0.95073 0.0
C1314 C 0.86529 0.46445 0.94001 0.0
C1315 C 0.90395 0.47927 0.93956 0.0
H1316 H 0.81426 0.42804 0.95105 0.0
H1317 H 0.18949 0.57284 0.95328 0.0
H1318 H 0.60791 0.94447 0.29049 0.0
H1319 H 0.58663 0.99031 0.29047 0.0
H1320 H 0.47808 0.90516 0.27591 0.0
H1321 H 0.49978 0.86019 0.27519 0.0
H1322 H 0.49388 0.96335 0.26246 0.0
H1323 H 0.49931 0.9397 0.3118 0.0
H1324 H 0.52809 0.93517 0.334 0.0
H1325 H 0.60933 0.05202 0.33157 0.0
H1326 H 0.5813 0.05714 0.30925 0.0
H1327 H 0.39384 0.05732 0.28644 0.0
H1328 H 0.41759 0.01325 0.28647 0.0
H1329 H 0.52908 0.10434 0.27916 0.0
H1330 H 0.50559 0.14823 0.27864 0.0
H1331 H 0.51207 0.04493 0.30374 0.0
H1332 H 0.50384 0.06488 0.25323 0.0
H1333 H 0.46992 0.06664 0.23205 0.0
H1334 H 0.38704 0.95152 0.23842 0.0
H1335 H 0.42023 0.94931 0.25978 0.0
C1336 C 0.57956 0.93566 0.28728 0.0
C1337 C 0.5556 0.89875 0.28281 0.0
C1338 C 0.56728 0.9618 0.28735 0.0
C1339 C 0.53046 0.95122 0.28337 0.0
C1340 C 0.50662 0.91427 0.27897 0.0
C1341 C 0.51909 0.88848 0.27859 0.0
C1342 C 0.51657 0.9784 0.28356 0.0
C1343 C 0.49762 0.98079 0.27159 0.0
C1344 C 0.52155 0.00169 0.29536 0.0
C1345 C 0.53845 0.9987 0.30878 0.0
C1346 C 0.52348 0.96436 0.31595 0.0
C1347 C 0.53963 0.9617 0.32856 0.0
C1348 C 0.57058 0.99326 0.33417 0.0
C1349 C 0.58539 0.02758 0.3272 0.0
C1350 C 0.56937 0.03039 0.31458 0.0
C1351 C 0.42337 0.06788 0.2848 0.0
C1352 C 0.4478 0.10618 0.28245 0.0
C1353 C 0.43687 0.04274 0.28483 0.0
C1354 C 0.47506 0.05569 0.28284 0.0
C1355 C 0.49954 0.09391 0.28073 0.0
C1356 C 0.48599 0.11886 0.28035 0.0
C1357 C 0.48955 0.02934 0.28275 0.0
C1358 C 0.50851 0.02727 0.29469 0.0
C1359 C 0.48401 0.00585 0.27107 0.0
C1360 C 0.46424 0.00708 0.25819 0.0
C1361 C 0.47817 0.04008 0.2502 0.0
C1362 C 0.45914 0.04113 0.23815 0.0
C1363 C 0.42628 0.00925 0.23392 0.0
C1364 C 0.41246 0.97622 0.24172 0.0
C1365 C 0.43138 0.97505 0.2538 0.0
H1366 H 0.41158 0.01011 0.22459 0.0
H1367 H 0.58305 0.99114 0.34394 0.0
loop_
_geom_bond_atom_site_label_1
_geom_bond_atom_site_label_2
_geom_bond_distance
_geom_bond_site_symmetry_2
_ccdc_geom_bond_type
O0 Cd1 2.223 . S
O0 C8 1.315 . S
Cd1 O0 2.223 . S
Cd1 O4 2.297 . S
Cd1 O5 2.439 . S
Cd1 O11 2.240 . S
Cd2 O3 2.240 . S
Cd2 O10 2.223 . S
Cd2 O12 2.297 . S
Cd2 O13 2.439 . S
O3 Cd2 2.240 . S
O3 C8 1.279 . S
O4 Cd1 2.297 . S
O4 C6 1.247 . S
O5 Cd1 2.439 . S
O5 C6 1.208 . S
C6 O4 1.247 . S
C6 O5 1.208 . S
C7 O12 1.247 . S
C7 O13 1.208 . S
C8 O0 1.315 . S
C8 O3 1.279 . S
C9 O10 1.315 . S
C9 O11 1.279 . S
O10 Cd2 2.223 . S
O10 C9 1.315 . S
O11 Cd1 2.240 . S
O11 C9 1.279 . S
O12 Cd2 2.297 . S
O12 C7 1.247 . S
O13 Cd2 2.439 . S
O13 C7 1.208 . S
O14 Cd15 2.223 . S
O14 C22 1.315 . S
Cd15 O14 2.223 . S
Cd15 O18 2.297 . S
Cd15 O19 2.439 . S
Cd15 O25 2.240 . S
Cd16 O17 2.240 . S
Cd16 O24 2.223 . S
Cd16 O26 2.297 . S
Cd16 O27 2.439 . S
O17 Cd16 2.240 . S
O17 C22 1.279 . S
O18 Cd15 2.297 . S
O18 C20 1.247 . S
O19 Cd15 2.439 . S
O19 C20 1.208 . S
C20 O18 1.247 . S
C20 O19 1.208 . S
C21 O26 1.247 . S
C21 O27 1.208 . S
C22 O14 1.315 . S
C22 O17 1.279 . S
C23 O24 1.315 . S
C23 O25 1.279 . S
O24 Cd16 2.223 . S
O24 C23 1.315 . S
O25 Cd15 2.240 . S
O25 C23 1.279 . S
O26 Cd16 2.297 . S
O26 C21 1.247 . S
O27 Cd16 2.439 . S
O27 C21 1.208 . S
O28 Cd29 2.223 . S
O28 C36 1.315 . S
Cd29 O28 2.223 . S
Cd29 O32 2.297 . S
Cd29 O33 2.439 . S
Cd29 O39 2.240 . S
Cd30 O31 2.240 . S
Cd30 O38 2.223 . S
Cd30 O40 2.297 . S
Cd30 O41 2.439 . S
O31 Cd30 2.240 . S
O31 C36 1.279 . S
O32 Cd29 2.297 . S
O32 C34 1.247 . S
O33 Cd29 2.439 . S
O33 C34 1.208 . S
C34 O32 1.247 . S
C34 O33 1.208 . S
C35 O40 1.247 . S
C35 O41 1.208 . S
C36 O28 1.315 . S
C36 O31 1.279 . S
C37 O38 1.315 . S
C37 O39 1.279 . S
O38 Cd30 2.223 . S
O38 C37 1.315 . S
O39 Cd29 2.240 . S
O39 C37 1.279 . S
O40 Cd30 2.297 . S
O40 C35 1.247 . S
O41 Cd30 2.439 . S
O41 C35 1.208 . S
O42 Cd43 2.223 . S
O42 C50 1.315 . S
Cd43 O42 2.223 . S
Cd43 O46 2.297 . S
Cd43 O47 2.439 . S
Cd43 O53 2.240 . S
Cd44 O45 2.240 . S
Cd44 O52 2.223 . S
Cd44 O54 2.297 . S
Cd44 O55 2.439 . S
O45 Cd44 2.240 . S
O45 C50 1.279 . S
O46 Cd43 2.297 . S
O46 C48 1.247 . S
O47 Cd43 2.439 . S
O47 C48 1.208 . S
C48 O46 1.247 . S
C48 O47 1.208 . S
C49 O54 1.247 . S
C49 O55 1.208 . S
C50 O42 1.315 . S
C50 O45 1.279 . S
C51 O52 1.315 . S
C51 O53 1.279 . S
O52 Cd44 2.223 . S
O52 C51 1.315 . S
O53 Cd43 2.240 . S
O53 C51 1.279 . S
O54 Cd44 2.297 . S
O54 C49 1.247 . S
O55 Cd44 2.439 . S
O55 C49 1.208 . S
O56 Cd57 2.223 . S
O56 C64 1.315 . S
Cd57 O56 2.223 . S
Cd57 O60 2.297 . S
Cd57 O61 2.439 . S
Cd57 O67 2.240 . S
Cd58 O59 2.240 . S
Cd58 O66 2.223 . S
Cd58 O68 2.297 . S
Cd58 O69 2.439 . S
O59 Cd58 2.240 . S
O59 C64 1.279 . S
O60 Cd57 2.297 . S
O60 C62 1.247 . S
O61 Cd57 2.439 . S
O61 C62 1.208 . S
C62 O60 1.247 . S
C62 O61 1.208 . S
C63 O68 1.247 . S
C63 O69 1.208 . S
C64 O56 1.315 . S
C64 O59 1.279 . S
C65 O66 1.315 . S
C65 O67 1.279 . S
O66 Cd58 2.223 . S
O66 C65 1.315 . S
O67 Cd57 2.240 . S
O67 C65 1.279 . S
O68 Cd58 2.297 . S
O68 C63 1.247 . S
O69 Cd58 2.439 . S
O69 C63 1.208 . S
O70 Cd71 2.223 . S
O70 C78 1.315 . S
Cd71 O70 2.223 . S
Cd71 O74 2.297 . S
Cd71 O75 2.439 . S
Cd71 O81 2.240 . S
Cd72 O73 2.240 . S
Cd72 O80 2.223 . S
Cd72 O82 2.297 . S
Cd72 O83 2.439 . S
O73 Cd72 2.240 . S
O73 C78 1.279 . S
O74 Cd71 2.297 . S
O74 C76 1.247 . S
O75 Cd71 2.439 . S
O75 C76 1.208 . S
C76 O74 1.247 . S
C76 O75 1.208 . S
C77 O82 1.247 . S
C77 O83 1.208 . S
C78 O70 1.315 . S
C78 O73 1.279 . S
C79 O80 1.315 . S
C79 O81 1.279 . S
O80 Cd72 2.223 . S
O80 C79 1.315 . S
O81 Cd71 2.240 . S
O81 C79 1.279 . S
O82 Cd72 2.297 . S
O82 C77 1.247 . S
O83 Cd72 2.439 . S
O83 C77 1.208 . S
O84 Cd85 2.223 . S
O84 C92 1.315 . S
Cd85 O84 2.223 . S
Cd85 O88 2.297 . S
Cd85 O89 2.439 . S
Cd85 O95 2.240 . S
Cd86 O87 2.240 . S
Cd86 O94 2.223 . S
Cd86 O96 2.297 . S
Cd86 O97 2.439 . S
O87 Cd86 2.240 . S
O87 C92 1.279 . S
O88 Cd85 2.297 . S
O88 C90 1.247 . S
O89 Cd85 2.439 . S
O89 C90 1.208 . S
C90 O88 1.247 . S
C90 O89 1.208 . S
C91 O96 1.247 . S
C91 O97 1.208 . S
C92 O84 1.315 . S
C92 O87 1.279 . S
C93 O94 1.315 . S
C93 O95 1.279 . S
O94 Cd86 2.223 . S
O94 C93 1.315 . S
O95 Cd85 2.240 . S
O95 C93 1.279 . S
O96 Cd86 2.297 . S
O96 C91 1.247 . S
O97 Cd86 2.439 . S
O97 C91 1.208 . S
O98 Cd99 2.223 . S
O98 C106 1.315 . S
Cd99 O98 2.223 . S
Cd99 O102 2.297 . S
Cd99 O103 2.439 . S
Cd99 O109 2.240 . S
Cd100 O101 2.240 . S
Cd100 O108 2.223 . S
Cd100 O110 2.297 . S
Cd100 O111 2.439 . S
O101 Cd100 2.240 . S
O101 C106 1.279 . S
O102 Cd99 2.297 . S
O102 C104 1.247 . S
O103 Cd99 2.439 . S
O103 C104 1.208 . S
C104 O102 1.247 . S
C104 O103 1.208 . S
C105 O110 1.247 . S
C105 O111 1.208 . S
C106 O98 1.315 . S
C106 O101 1.279 . S
C107 O108 1.315 . S
C107 O109 1.279 . S
O108 Cd100 2.223 . S
O108 C107 1.315 . S
O109 Cd99 2.240 . S
O109 C107 1.279 . S
O110 Cd100 2.297 . S
O110 C105 1.247 . S
O111 Cd100 2.439 . S
O111 C105 1.208 . S
O112 Cd113 2.223 . S
O112 C120 1.315 . S
Cd113 O112 2.223 . S
Cd113 O116 2.297 . S
Cd113 O117 2.439 . S
Cd113 O123 2.240 . S
Cd114 O115 2.240 . S
Cd114 O122 2.223 . S
Cd114 O124 2.297 . S
Cd114 O125 2.439 . S
O115 Cd114 2.240 . S
O115 C120 1.279 . S
O116 Cd113 2.297 . S
O116 C118 1.247 . S
O117 Cd113 2.439 . S
O117 C118 1.208 . S
C118 O116 1.247 . S
C118 O117 1.208 . S
C119 O124 1.247 . S
C119 O125 1.208 . S
C120 O112 1.315 . S
C120 O115 1.279 . S
C121 O122 1.315 . S
C121 O123 1.279 . S
O122 Cd114 2.223 . S
O122 C121 1.315 . S
O123 Cd113 2.240 . S
O123 C121 1.279 . S
O124 Cd114 2.297 . S
O124 C119 1.247 . S
O125 Cd114 2.439 . S
O125 C119 1.208 . S
O126 Cd127 2.223 . S
O126 C134 1.315 . S
Cd127 O126 2.223 . S
Cd127 O130 2.297 . S
Cd127 O131 2.439 . S
Cd127 O137 2.240 . S
Cd128 O129 2.240 . S
Cd128 O136 2.223 . S
Cd128 O138 2.297 . S
Cd128 O139 2.439 . S
O129 Cd128 2.240 . S
O129 C134 1.279 . S
O130 Cd127 2.297 . S
O130 C132 1.247 . S
O131 Cd127 2.439 . S
O131 C132 1.208 . S
C132 O130 1.247 . S
C132 O131 1.208 . S
C133 O138 1.247 . S
C133 O139 1.208 . S
C134 O126 1.315 . S
C134 O129 1.279 . S
C135 O136 1.315 . S
C135 O137 1.279 . S
O136 Cd128 2.223 . S
O136 C135 1.315 . S
O137 Cd127 2.240 . S
O137 C135 1.279 . S
O138 Cd128 2.297 . S
O138 C133 1.247 . S
O139 Cd128 2.439 . S
O139 C133 1.208 . S
O140 Cd141 2.223 . S
O140 C148 1.315 . S
Cd141 O140 2.223 . S
Cd141 O144 2.297 . S
Cd141 O145 2.439 . S
Cd141 O151 2.240 . S
Cd142 O143 2.240 . S
Cd142 O150 2.223 . S
Cd142 O152 2.297 . S
Cd142 O153 2.439 . S
O143 Cd142 2.240 . S
O143 C148 1.279 . S
O144 Cd141 2.297 . S
O144 C146 1.247 . S
O145 Cd141 2.439 . S
O145 C146 1.208 . S
C146 O144 1.247 . S
C146 O145 1.208 . S
C147 O152 1.247 . S
C147 O153 1.208 . S
C148 O140 1.315 . S
C148 O143 1.279 . S
C149 O150 1.315 . S
C149 O151 1.279 . S
O150 Cd142 2.223 . S
O150 C149 1.315 . S
O151 Cd141 2.240 . S
O151 C149 1.279 . S
O152 Cd142 2.297 . S
O152 C147 1.247 . S
O153 Cd142 2.439 . S
O153 C147 1.208 . S
O154 Cd155 2.223 . S
O154 C162 1.315 . S
Cd155 O154 2.223 . S
Cd155 O158 2.297 . S
Cd155 O159 2.439 . S
Cd155 O165 2.240 . S
Cd156 O157 2.240 . S
Cd156 O164 2.223 . S
Cd156 O166 2.297 . S
Cd156 O167 2.439 . S
O157 Cd156 2.240 . S
O157 C162 1.279 . S
O158 Cd155 2.297 . S
O158 C160 1.247 . S
O159 Cd155 2.439 . S
O159 C160 1.208 . S
C160 O158 1.247 . S
C160 O159 1.208 . S
C161 O166 1.247 . S
C161 O167 1.208 . S
C162 O154 1.315 . S
C162 O157 1.279 . S
C163 O164 1.315 . S
C163 O165 1.279 . S
O164 Cd156 2.223 . S
O164 C163 1.315 . S
O165 Cd155 2.240 . S
O165 C163 1.279 . S
O166 Cd156 2.297 . S
O166 C161 1.247 . S
O167 Cd156 2.439 . S
O167 C161 1.208 . S
H168 C186 0.951 . S
H169 C188 0.951 . S
H170 C190 0.950 . S
H171 C191 0.950 . S
H172 C193 0.950 . S
H173 C196 0.950 . S
H174 C197 0.950 . S
H175 C199 0.950 . S
H176 C200 0.950 . S
H177 C201 0.951 . S
H178 C203 0.951 . S
H179 C205 0.950 . S
H180 C206 0.950 . S
H181 C208 0.950 . S
H182 C211 0.950 . S
H183 C212 0.950 . S
H184 C214 0.950 . S
H185 C215 0.950 . S
C186 H168 0.951 . S
C186 C187 1.366 . S
C186 C188 1.388 . S
C187 C186 1.366 . S
C187 C191 1.385 . S
C188 H169 0.951 . S
C188 C186 1.388 . S
C188 C189 1.366 . S
C189 C188 1.366 . S
C189 C190 1.414 . S
C189 C192 1.499 . S
C190 H170 0.950 . S
C190 C189 1.414 . S
C190 C191 1.374 . S
C191 H171 0.950 . S
C191 C187 1.385 . S
C191 C190 1.374 . S
C192 C189 1.499 . S
C192 C193 1.373 . S
C192 C194 1.389 1_556 S
C193 H172 0.950 . S
C193 C192 1.373 . S
C193 C209 1.377 1_565 S
C194 C192 1.389 1_554 S
C194 C195 1.524 . S
C194 C208 1.377 1_565 S
C195 C194 1.524 . S
C195 C196 1.397 . S
C195 C200 1.363 . S
C196 H173 0.950 . S
C196 C195 1.397 . S
C196 C197 1.334 . S
C197 H174 0.950 . S
C197 C196 1.334 . S
C197 C198 1.287 . S
C198 C197 1.287 . S
C198 C199 1.524 . S
C198 H217 0.913 . S
C199 H175 0.950 . S
C199 C198 1.524 . S
C199 C200 1.415 . S
C200 H176 0.950 . S
C200 C195 1.363 . S
C200 C199 1.415 . S
C201 H177 0.951 . S
C201 C202 1.366 . S
C201 C203 1.388 . S
C202 C201 1.366 . S
C202 C206 1.385 . S
C203 H178 0.951 . S
C203 C201 1.388 . S
C203 C204 1.366 . S
C204 C203 1.366 . S
C204 C205 1.414 . S
C204 C207 1.499 . S
C205 H179 0.950 . S
C205 C204 1.414 . S
C205 C206 1.374 . S
C206 H180 0.950 . S
C206 C202 1.385 . S
C206 C205 1.374 . S
C207 C204 1.499 . S
C207 C208 1.373 . S
C207 C209 1.389 1_554 S
C208 H181 0.950 . S
C208 C194 1.377 1_545 S
C208 C207 1.373 . S
C209 C193 1.377 1_545 S
C209 C207 1.389 1_556 S
C209 C210 1.524 . S
C210 C209 1.524 . S
C210 C211 1.397 . S
C210 C215 1.363 . S
C211 H182 0.950 . S
C211 C210 1.397 . S
C211 C212 1.334 . S
C212 H183 0.950 . S
C212 C211 1.334 . S
C212 C213 1.287 . S
C213 C212 1.287 . S
C213 C214 1.524 . S
C213 H216 0.999 . S
C214 H184 0.950 . S
C214 C213 1.524 . S
C214 C215 1.415 . S
C215 H185 0.950 . S
C215 C210 1.363 . S
C215 C214 1.415 . S
H216 C213 0.999 . S
H217 C198 0.913 . S
H218 C236 0.951 . S
H219 C238 0.951 . S
H220 C240 0.950 . S
H221 C241 0.950 . S
H222 C243 0.950 . S
H223 C246 0.950 . S
H224 C247 0.950 . S
H225 C249 0.950 . S
H226 C250 0.950 . S
H227 C251 0.951 . S
H228 C253 0.951 . S
H229 C255 0.950 . S
H230 C256 0.950 . S
H231 C258 0.950 . S
H232 C261 0.950 . S
H233 C262 0.950 . S
H234 C264 0.950 . S
H235 C265 0.950 . S
C236 H218 0.951 . S
C236 C237 1.366 . S
C236 C238 1.388 . S
C237 C236 1.366 . S
C237 C241 1.385 . S
C238 H219 0.951 . S
C238 C236 1.388 . S
C238 C239 1.366 . S
C239 C238 1.366 . S
C239 C240 1.414 . S
C239 C242 1.499 . S
C240 H220 0.950 . S
C240 C239 1.414 . S
C240 C241 1.374 . S
C241 H221 0.950 . S
C241 C237 1.385 . S
C241 C240 1.374 . S
C242 C239 1.499 . S
C242 C243 1.373 . S
C242 C244 1.389 . S
C243 H222 0.950 . S
C243 C242 1.373 . S
C243 C259 1.377 . S
C244 C242 1.389 . S
C244 C245 1.524 . S
C244 C258 1.377 . S
C245 C244 1.524 . S
C245 C246 1.397 . S
C245 C250 1.363 . S
C246 H223 0.950 . S
C246 C245 1.397 . S
C246 C247 1.334 . S
C247 H224 0.950 . S
C247 C246 1.334 . S
C247 C248 1.287 . S
C248 C247 1.287 . S
C248 C249 1.524 . S
C248 H267 0.913 . S
C249 H225 0.950 . S
C249 C248 1.524 . S
C249 C250 1.415 . S
C250 H226 0.950 . S
C250 C245 1.363 . S
C250 C249 1.415 . S
C251 H227 0.951 . S
C251 C252 1.366 . S
C251 C253 1.388 . S
C252 C251 1.366 . S
C252 C256 1.385 . S
C253 H228 0.951 . S
C253 C251 1.388 . S
C253 C254 1.366 . S
C254 C253 1.366 . S
C254 C255 1.414 . S
C254 C257 1.499 . S
C255 H229 0.950 . S
C255 C254 1.414 . S
C255 C256 1.374 . S
C256 H230 0.950 . S
C256 C252 1.385 . S
C256 C255 1.374 . S
C257 C254 1.499 . S
C257 C258 1.373 . S
C257 C259 1.389 . S
C258 H231 0.950 . S
C258 C244 1.377 . S
C258 C257 1.373 . S
C259 C243 1.377 . S
C259 C257 1.389 . S
C259 C260 1.524 . S
C260 C259 1.524 . S
C260 C261 1.397 . S
C260 C265 1.363 . S
C261 H232 0.950 . S
C261 C260 1.397 . S
C261 C262 1.334 . S
C262 H233 0.950 . S
C262 C261 1.334 . S
C262 C263 1.287 . S
C263 C262 1.287 . S
C263 C264 1.524 . S
C263 H266 0.999 . S
C264 H234 0.950 . S
C264 C263 1.524 . S
C264 C265 1.415 . S
C265 H235 0.950 . S
C265 C260 1.363 . S
C265 C264 1.415 . S
H266 C263 0.999 . S
H267 C248 0.913 . S
H268 C286 0.951 . S
H269 C288 0.951 . S
H270 C290 0.950 . S
H271 C291 0.950 . S
H272 C293 0.950 . S
H273 C296 0.950 . S
H274 C297 0.950 . S
H275 C299 0.950 . S
H276 C300 0.950 . S
H277 C301 0.951 . S
H278 C303 0.951 . S
H279 C305 0.950 . S
H280 C306 0.950 . S
H281 C308 0.950 . S
H282 C311 0.950 . S
H283 C312 0.950 . S
H284 C314 0.950 . S
H285 C315 0.950 . S
C286 H268 0.951 . S
C286 C287 1.366 . S
C286 C288 1.388 . S
C287 C286 1.366 . S
C287 C291 1.385 . S
C288 H269 0.951 . S
C288 C286 1.388 . S
C288 C289 1.366 . S
C289 C288 1.366 . S
C289 C290 1.414 . S
C289 C292 1.499 . S
C290 H270 0.950 . S
C290 C289 1.414 . S
C290 C291 1.374 . S
C291 H271 0.950 . S
C291 C287 1.385 . S
C291 C290 1.374 . S
C292 C289 1.499 . S
C292 C293 1.373 . S
C292 C294 1.389 . S
C293 H272 0.950 . S
C293 C292 1.373 . S
C293 C309 1.377 1_655 S
C294 C292 1.389 . S
C294 C295 1.524 . S
C294 C308 1.377 1_655 S
C295 C294 1.524 . S
C295 C296 1.397 . S
C295 C300 1.363 . S
C296 H273 0.950 . S
C296 C295 1.397 . S
C296 C297 1.334 . S
C297 H274 0.950 . S
C297 C296 1.334 . S
C297 C298 1.287 . S
C298 C297 1.287 . S
C298 C299 1.524 . S
C298 H317 0.913 . S
C299 H275 0.950 . S
C299 C298 1.524 . S
C299 C300 1.415 . S
C300 H276 0.950 . S
C300 C295 1.363 . S
C300 C299 1.415 . S
C301 H277 0.951 . S
C301 C302 1.366 . S
C301 C303 1.388 . S
C302 C301 1.366 . S
C302 C306 1.385 . S
C303 H278 0.951 . S
C303 C301 1.388 . S
C303 C304 1.366 . S
C304 C303 1.366 . S
C304 C305 1.414 . S
C304 C307 1.499 . S
C305 H279 0.950 . S
C305 C304 1.414 . S
C305 C306 1.374 . S
C306 H280 0.950 . S
C306 C302 1.385 . S
C306 C305 1.374 . S
C307 C304 1.499 . S
C307 C308 1.373 . S
C307 C309 1.389 . S
C308 H281 0.950 . S
C308 C294 1.377 1_455 S
C308 C307 1.373 . S
C309 C293 1.377 1_455 S
C309 C307 1.389 . S
C309 C310 1.524 . S
C310 C309 1.524 . S
C310 C311 1.397 . S
C310 C315 1.363 . S
C311 H282 0.950 . S
C311 C310 1.397 . S
C311 C312 1.334 . S
C312 H283 0.950 . S
C312 C311 1.334 . S
C312 C313 1.287 . S
C313 C312 1.287 . S
C313 C314 1.524 . S
C313 H316 0.999 . S
C314 H284 0.950 . S
C314 C313 1.524 . S
C314 C315 1.415 . S
C315 H285 0.950 . S
C315 C310 1.363 . S
C315 C314 1.415 . S
H316 C313 0.999 . S
H317 C298 0.913 . S
H318 C336 0.951 . S
H319 C338 0.951 . S
H320 C340 0.950 . S
H321 C341 0.950 . S
H322 C343 0.950 . S
H323 C346 0.950 . S
H324 C347 0.950 . S
H325 C349 0.950 . S
H326 C350 0.950 . S
H327 C351 0.951 . S
H328 C353 0.951 . S
H329 C355 0.950 . S
H330 C356 0.950 . S
H331 C358 0.950 . S
H332 C361 0.950 . S
H333 C362 0.950 . S
H334 C364 0.950 . S
H335 C365 0.950 . S
C336 H318 0.951 . S
C336 C337 1.366 . S
C336 C338 1.388 . S
C337 C336 1.366 . S
C337 C341 1.385 . S
C338 H319 0.951 . S
C338 C336 1.388 . S
C338 C339 1.366 . S
C339 C338 1.366 . S
C339 C340 1.414 . S
C339 C342 1.499 . S
C340 H320 0.950 . S
C340 C339 1.414 . S
C340 C341 1.374 . S
C341 H321 0.950 . S
C341 C337 1.385 . S
C341 C340 1.374 . S
C342 C339 1.499 . S
C342 C343 1.373 1_554 S
C342 C344 1.389 1_565 S
C343 H322 0.950 . S
C343 C342 1.373 1_556 S
C343 C359 1.377 . S
C344 C342 1.389 1_545 S
C344 C345 1.524 . S
C344 C358 1.377 . S
C345 C344 1.524 . S
C345 C346 1.397 1_545 S
C345 C350 1.363 . S
C346 H323 0.950 . S
C346 C345 1.397 1_565 S
C346 C347 1.334 . S
C347 H324 0.950 . S
C347 C346 1.334 . S
C347 C348 1.287 1_565 S
C348 C347 1.287 1_545 S
C348 C349 1.524 . S
C348 H367 0.913 . S
C349 H325 0.950 . S
C349 C348 1.524 . S
C349 C350 1.415 . S
C350 H326 0.950 . S
C350 C345 1.363 . S
C350 C349 1.415 . S
C351 H327 0.951 . S
C351 C352 1.366 . S
C351 C353 1.388 . S
C352 C351 1.366 . S
C352 C356 1.385 . S
C353 H328 0.951 . S
C353 C351 1.388 . S
C353 C354 1.366 . S
C354 C353 1.366 . S
C354 C355 1.414 . S
C354 C357 1.499 . S
C355 H329 0.950 . S
C355 C354 1.414 . S
C355 C356 1.374 . S
C356 H330 0.950 . S
C356 C352 1.385 . S
C356 C355 1.374 . S
C357 C354 1.499 . S
C357 C358 1.373 1_556 S
C357 C359 1.389 1_545 S
C358 H331 0.950 . S
C358 C344 1.377 . S
C358 C357 1.373 1_554 S
C359 C343 1.377 . S
C359 C357 1.389 1_565 S
C359 C360 1.524 . S
C360 C359 1.524 . S
C360 C361 1.397 1_565 S
C360 C365 1.363 . S
C361 H332 0.950 . S
C361 C360 1.397 1_545 S
C361 C362 1.334 . S
C362 H333 0.950 . S
C362 C361 1.334 . S
C362 C363 1.287 1_545 S
C363 C362 1.287 1_565 S
C363 C364 1.524 . S
C363 H366 0.999 . S
C364 H334 0.950 . S
C364 C363 1.524 . S
C364 C365 1.415 . S
C365 H335 0.950 . S
C365 C360 1.363 . S
C365 C364 1.415 . S
H366 C363 0.999 . S
H367 C348 0.913 . S
H368 C386 0.951 . S
H369 C388 0.951 . S
H370 C390 0.950 . S
H371 C391 0.950 . S
H372 C393 0.950 . S
H373 C396 0.950 . S
H374 C397 0.950 . S
H375 C399 0.950 . S
H376 C400 0.950 . S
H377 C401 0.951 . S
H378 C403 0.951 . S
H379 C405 0.950 . S
H380 C406 0.950 . S
H381 C408 0.950 . S
H382 C411 0.950 . S
H383 C412 0.950 . S
H384 C414 0.950 . S
H385 C415 0.950 . S
C386 H368 0.951 . S
C386 C387 1.366 . S
C386 C388 1.388 . S
C387 C386 1.366 . S
C387 C391 1.385 . S
C388 H369 0.951 . S
C388 C386 1.388 . S
C388 C389 1.366 . S
C389 C388 1.366 . S
C389 C390 1.414 . S
C389 C392 1.499 . S
C390 H370 0.950 . S
C390 C389 1.414 . S
C390 C391 1.374 . S
C391 H371 0.950 . S
C391 C387 1.385 . S
C391 C390 1.374 . S
C392 C389 1.499 . S
C392 C393 1.373 . S
C392 C394 1.389 . S
C393 H372 0.950 . S
C393 C392 1.373 . S
C393 C409 1.377 . S
C394 C392 1.389 . S
C394 C395 1.524 . S
C394 C408 1.377 . S
C395 C394 1.524 . S
C395 C396 1.397 . S
C395 C400 1.363 . S
C396 H373 0.950 . S
C396 C395 1.397 . S
C396 C397 1.334 . S
C397 H374 0.950 . S
C397 C396 1.334 . S
C397 C398 1.287 . S
C398 C397 1.287 . S
C398 C399 1.524 . S
C398 H417 0.913 . S
C399 H375 0.950 . S
C399 C398 1.524 . S
C399 C400 1.415 . S
C400 H376 0.950 . S
C400 C395 1.363 . S
C400 C399 1.415 . S
C401 H377 0.951 . S
C401 C402 1.366 . S
C401 C403 1.388 . S
C402 C401 1.366 . S
C402 C406 1.385 . S
C403 H378 0.951 . S
C403 C401 1.388 . S
C403 C404 1.366 . S
C404 C403 1.366 . S
C404 C405 1.414 . S
C404 C407 1.499 . S
C405 H379 0.950 . S
C405 C404 1.414 . S
C405 C406 1.374 . S
C406 H380 0.950 . S
C406 C402 1.385 . S
C406 C405 1.374 . S
C407 C404 1.499 . S
C407 C408 1.373 . S
C407 C409 1.389 . S
C408 H381 0.950 . S
C408 C394 1.377 . S
C408 C407 1.373 . S
C409 C393 1.377 . S
C409 C407 1.389 . S
C409 C410 1.524 . S
C410 C409 1.524 . S
C410 C411 1.397 . S
C410 C415 1.363 . S
C411 H382 0.950 . S
C411 C410 1.397 . S
C411 C412 1.334 . S
C412 H383 0.950 . S
C412 C411 1.334 . S
C412 C413 1.287 . S
C413 C412 1.287 . S
C413 C414 1.524 . S
C413 H416 0.999 . S
C414 H384 0.950 . S
C414 C413 1.524 . S
C414 C415 1.415 . S
C415 H385 0.950 . S
C415 C410 1.363 . S
C415 C414 1.415 . S
H416 C413 0.999 . S
H417 C398 0.913 . S
H418 C436 0.951 . S
H419 C438 0.951 . S
H420 C440 0.950 . S
H421 C441 0.950 . S
H422 C443 0.950 . S
H423 C446 0.950 . S
H424 C447 0.950 . S
H425 C449 0.950 . S
H426 C450 0.950 . S
H427 C451 0.951 . S
H428 C453 0.951 . S
H429 C455 0.950 . S
H430 C456 0.950 . S
H431 C458 0.950 . S
H432 C461 0.950 . S
H433 C462 0.950 . S
H434 C464 0.950 . S
H435 C465 0.950 . S
C436 H418 0.951 . S
C436 C437 1.366 . S
C436 C438 1.388 . S
C437 C436 1.366 . S
C437 C441 1.385 . S
C438 H419 0.951 . S
C438 C436 1.388 . S
C438 C439 1.366 . S
C439 C438 1.366 . S
C439 C440 1.414 . S
C439 C442 1.499 . S
C440 H420 0.950 . S
C440 C439 1.414 . S
C440 C441 1.374 . S
C441 H421 0.950 . S
C441 C437 1.385 . S
C441 C440 1.374 . S
C442 C439 1.499 . S
C442 C443 1.373 . S
C442 C444 1.389 . S
C443 H422 0.950 . S
C443 C442 1.373 . S
C443 C459 1.377 1_655 S
C444 C442 1.389 . S
C444 C445 1.524 . S
C444 C458 1.377 1_655 S
C445 C444 1.524 . S
C445 C446 1.397 . S
C445 C450 1.363 . S
C446 H423 0.950 . S
C446 C445 1.397 . S
C446 C447 1.334 . S
C447 H424 0.950 . S
C447 C446 1.334 . S
C447 C448 1.287 . S
C448 C447 1.287 . S
C448 C449 1.524 . S
C448 H467 0.913 . S
C449 H425 0.950 . S
C449 C448 1.524 . S
C449 C450 1.415 . S
C450 H426 0.950 . S
C450 C445 1.363 . S
C450 C449 1.415 . S
C451 H427 0.951 . S
C451 C452 1.366 . S
C451 C453 1.388 . S
C452 C451 1.366 . S
C452 C456 1.385 . S
C453 H428 0.951 . S
C453 C451 1.388 . S
C453 C454 1.366 . S
C454 C453 1.366 . S
C454 C455 1.414 . S
C454 C457 1.499 . S
C455 H429 0.950 . S
C455 C454 1.414 . S
C455 C456 1.374 . S
C456 H430 0.950 . S
C456 C452 1.385 . S
C456 C455 1.374 . S
C457 C454 1.499 . S
C457 C458 1.373 . S
C457 C459 1.389 . S
C458 H431 0.950 . S
C458 C444 1.377 1_455 S
C458 C457 1.373 . S
C459 C443 1.377 1_455 S
C459 C457 1.389 . S
C459 C460 1.524 . S
C460 C459 1.524 . S
C460 C461 1.397 . S
C460 C465 1.363 . S
C461 H432 0.950 . S
C461 C460 1.397 . S
C461 C462 1.334 . S
C462 H433 0.950 . S
C462 C461 1.334 . S
C462 C463 1.287 . S
C463 C462 1.287 . S
C463 C464 1.524 . S
C463 H466 0.999 . S
C464 H434 0.950 . S
C464 C463 1.524 . S
C464 C465 1.415 . S
C465 H435 0.950 . S
C465 C460 1.363 . S
C465 C464 1.415 . S
H466 C463 0.999 . S
H467 C448 0.913 . S
H468 C486 0.951 . S
H469 C488 0.951 . S
H470 C490 0.950 . S
H471 C491 0.950 . S
H472 C493 0.950 . S
H473 C496 0.950 . S
H474 C497 0.950 . S
H475 C499 0.950 . S
H476 C500 0.950 . S
H477 C501 0.951 . S
H478 C503 0.951 . S
H479 C505 0.950 . S
H480 C506 0.950 . S
H481 C508 0.950 . S
H482 C511 0.950 . S
H483 C512 0.950 . S
H484 C514 0.950 . S
H485 C515 0.950 . S
C486 H468 0.951 . S
C486 C487 1.366 . S
C486 C488 1.388 . S
C487 C486 1.366 . S
C487 C491 1.385 . S
C488 H469 0.951 . S
C488 C486 1.388 . S
C488 C489 1.366 . S
C489 C488 1.366 . S
C489 C490 1.414 . S
C489 C492 1.499 . S
C490 H470 0.950 . S
C490 C489 1.414 . S
C490 C491 1.374 . S
C491 H471 0.950 . S
C491 C487 1.385 . S
C491 C490 1.374 . S
C492 C489 1.499 . S
C492 C493 1.373 . S
C492 C494 1.389 1_556 S
C493 H472 0.950 . S
C493 C492 1.373 . S
C493 C509 1.377 . S
C494 C492 1.389 1_554 S
C494 C495 1.524 . S
C494 C508 1.377 . S
C495 C494 1.524 . S
C495 C496 1.397 . S
C495 C500 1.363 . S
C496 H473 0.950 . S
C496 C495 1.397 . S
C496 C497 1.334 . S
C497 H474 0.950 . S
C497 C496 1.334 . S
C497 C498 1.287 . S
C498 C497 1.287 . S
C498 C499 1.524 . S
C498 H517 0.913 . S
C499 H475 0.950 . S
C499 C498 1.524 . S
C499 C500 1.415 . S
C500 H476 0.950 . S
C500 C495 1.363 . S
C500 C499 1.415 . S
C501 H477 0.951 . S
C501 C502 1.366 . S
C501 C503 1.388 . S
C502 C501 1.366 . S
C502 C506 1.385 . S
C503 H478 0.951 . S
C503 C501 1.388 . S
C503 C504 1.366 . S
C504 C503 1.366 . S
C504 C505 1.414 . S
C504 C507 1.499 . S
C505 H479 0.950 . S
C505 C504 1.414 . S
C505 C506 1.374 . S
C506 H480 0.950 . S
C506 C502 1.385 . S
C506 C505 1.374 . S
C507 C504 1.499 . S
C507 C508 1.373 . S
C507 C509 1.389 1_554 S
C508 H481 0.950 . S
C508 C494 1.377 . S
C508 C507 1.373 . S
C509 C493 1.377 . S
C509 C507 1.389 1_556 S
C509 C510 1.524 . S
C510 C509 1.524 . S
C510 C511 1.397 . S
C510 C515 1.363 . S
C511 H482 0.950 . S
C511 C510 1.397 . S
C511 C512 1.334 . S
C512 H483 0.950 . S
C512 C511 1.334 . S
C512 C513 1.287 . S
C513 C512 1.287 . S
C513 C514 1.524 . S
C513 H516 0.999 . S
C514 H484 0.950 . S
C514 C513 1.524 . S
C514 C515 1.415 . S
C515 H485 0.950 . S
C515 C510 1.363 . S
C515 C514 1.415 . S
H516 C513 0.999 . S
H517 C498 0.913 . S
H518 C536 0.951 . S
H519 C538 0.951 . S
H520 C540 0.950 . S
H521 C541 0.950 . S
H522 C543 0.950 . S
H523 C546 0.950 . S
H524 C547 0.950 . S
H525 C549 0.950 . S
H526 C550 0.950 . S
H527 C551 0.951 . S
H528 C553 0.951 . S
H529 C555 0.950 . S
H530 C556 0.950 . S
H531 C558 0.950 . S
H532 C561 0.950 . S
H533 C562 0.950 . S
H534 C564 0.950 . S
H535 C565 0.950 . S
C536 H518 0.951 . S
C536 C537 1.366 . S
C536 C538 1.388 . S
C537 C536 1.366 . S
C537 C541 1.385 . S
C538 H519 0.951 . S
C538 C536 1.388 . S
C538 C539 1.366 . S
C539 C538 1.366 . S
C539 C540 1.414 . S
C539 C542 1.499 . S
C540 H520 0.950 . S
C540 C539 1.414 . S
C540 C541 1.374 . S
C541 H521 0.950 . S
C541 C537 1.385 . S
C541 C540 1.374 . S
C542 C539 1.499 . S
C542 C543 1.373 . S
C542 C544 1.389 . S
C543 H522 0.950 . S
C543 C542 1.373 . S
C543 C559 1.377 . S
C544 C542 1.389 . S
C544 C545 1.524 . S
C544 C558 1.377 . S
C545 C544 1.524 . S
C545 C546 1.397 . S
C545 C550 1.363 . S
C546 H523 0.950 . S
C546 C545 1.397 . S
C546 C547 1.334 . S
C547 H524 0.950 . S
C547 C546 1.334 . S
C547 C548 1.287 . S
C548 C547 1.287 . S
C548 C549 1.524 . S
C548 H567 0.913 . S
C549 H525 0.950 . S
C549 C548 1.524 . S
C549 C550 1.415 . S
C550 H526 0.950 . S
C550 C545 1.363 . S
C550 C549 1.415 . S
C551 H527 0.951 . S
C551 C552 1.366 . S
C551 C553 1.388 . S
C552 C551 1.366 . S
C552 C556 1.385 . S
C553 H528 0.951 . S
C553 C551 1.388 . S
C553 C554 1.366 . S
C554 C553 1.366 . S
C554 C555 1.414 . S
C554 C557 1.499 . S
C555 H529 0.950 . S
C555 C554 1.414 . S
C555 C556 1.374 . S
C556 H530 0.950 . S
C556 C552 1.385 . S
C556 C555 1.374 . S
C557 C554 1.499 . S
C557 C558 1.373 . S
C557 C559 1.389 . S
C558 H531 0.950 . S
C558 C544 1.377 . S
C558 C557 1.373 . S
C559 C543 1.377 . S
C559 C557 1.389 . S
C559 C560 1.524 . S
C560 C559 1.524 . S
C560 C561 1.397 . S
C560 C565 1.363 . S
C561 H532 0.950 . S
C561 C560 1.397 . S
C561 C562 1.334 . S
C562 H533 0.950 . S
C562 C561 1.334 . S
C562 C563 1.287 . S
C563 C562 1.287 . S
C563 C564 1.524 . S
C563 H566 0.999 . S
C564 H534 0.950 . S
C564 C563 1.524 . S
C564 C565 1.415 . S
C565 H535 0.950 . S
C565 C560 1.363 . S
C565 C564 1.415 . S
H566 C563 0.999 . S
H567 C548 0.913 . S
H568 C586 0.951 . S
H569 C588 0.951 . S
H570 C590 0.950 . S
H571 C591 0.950 . S
H572 C593 0.950 . S
H573 C596 0.950 . S
H574 C597 0.950 . S
H575 C599 0.950 . S
H576 C600 0.950 . S
H577 C601 0.951 . S
H578 C603 0.951 . S
H579 C605 0.950 . S
H580 C606 0.950 . S
H581 C608 0.950 . S
H582 C611 0.950 . S
H583 C612 0.950 . S
H584 C614 0.950 . S
H585 C615 0.950 . S
C586 H568 0.951 . S
C586 C587 1.366 . S
C586 C588 1.388 . S
C587 C586 1.366 . S
C587 C591 1.385 . S
C588 H569 0.951 . S
C588 C586 1.388 . S
C588 C589 1.366 . S
C589 C588 1.366 . S
C589 C590 1.414 . S
C589 C592 1.499 . S
C590 H570 0.950 . S
C590 C589 1.414 . S
C590 C591 1.374 . S
C591 H571 0.950 . S
C591 C587 1.385 . S
C591 C590 1.374 . S
C592 C589 1.499 . S
C592 C593 1.373 . S
C592 C594 1.389 . S
C593 H572 0.950 . S
C593 C592 1.373 . S
C593 C609 1.377 . S
C594 C592 1.389 . S
C594 C595 1.524 . S
C594 C608 1.377 . S
C595 C594 1.524 . S
C595 C596 1.397 . S
C595 C600 1.363 . S
C596 H573 0.950 . S
C596 C595 1.397 . S
C596 C597 1.334 . S
C597 H574 0.950 . S
C597 C596 1.334 . S
C597 C598 1.287 . S
C598 C597 1.287 . S
C598 C599 1.524 . S
C598 H617 0.913 . S
C599 H575 0.950 . S
C599 C598 1.524 . S
C599 C600 1.415 . S
C600 H576 0.950 . S
C600 C595 1.363 . S
C600 C599 1.415 . S
C601 H577 0.951 . S
C601 C602 1.366 . S
C601 C603 1.388 . S
C602 C601 1.366 . S
C602 C606 1.385 . S
C603 H578 0.951 . S
C603 C601 1.388 . S
C603 C604 1.366 . S
C604 C603 1.366 . S
C604 C605 1.414 . S
C604 C607 1.499 . S
C605 H579 0.950 . S
C605 C604 1.414 . S
C605 C606 1.374 . S
C606 H580 0.950 . S
C606 C602 1.385 . S
C606 C605 1.374 . S
C607 C604 1.499 . S
C607 C608 1.373 . S
C607 C609 1.389 . S
C608 H581 0.950 . S
C608 C594 1.377 . S
C608 C607 1.373 . S
C609 C593 1.377 . S
C609 C607 1.389 . S
C609 C610 1.524 . S
C610 C609 1.524 . S
C610 C611 1.397 . S
C610 C615 1.363 . S
C611 H582 0.950 . S
C611 C610 1.397 . S
C611 C612 1.334 . S
C612 H583 0.950 . S
C612 C611 1.334 . S
C612 C613 1.287 . S
C613 C612 1.287 . S
C613 C614 1.524 . S
C613 H616 0.999 . S
C614 H584 0.950 . S
C614 C613 1.524 . S
C614 C615 1.415 . S
C615 H585 0.950 . S
C615 C610 1.363 . S
C615 C614 1.415 . S
H616 C613 0.999 . S
H617 C598 0.913 . S
H618 C636 0.951 . S
H619 C638 0.951 . S
H620 C640 0.950 . S
H621 C641 0.950 . S
H622 C643 0.950 . S
H623 C646 0.950 . S
H624 C647 0.950 . S
H625 C649 0.950 . S
H626 C650 0.950 . S
H627 C651 0.951 . S
H628 C653 0.951 . S
H629 C655 0.950 . S
H630 C656 0.950 . S
H631 C658 0.950 . S
H632 C661 0.950 . S
H633 C662 0.950 . S
H634 C664 0.950 . S
H635 C665 0.950 . S
C636 H618 0.951 . S
C636 C637 1.366 . S
C636 C638 1.388 . S
C637 C636 1.366 . S
C637 C641 1.385 . S
C638 H619 0.951 . S
C638 C636 1.388 . S
C638 C639 1.366 . S
C639 C638 1.366 . S
C639 C640 1.414 . S
C639 C642 1.499 . S
C640 H620 0.950 . S
C640 C639 1.414 . S
C640 C641 1.374 . S
C641 H621 0.950 . S
C641 C637 1.385 . S
C641 C640 1.374 . S
C642 C639 1.499 . S
C642 C643 1.373 . S
C642 C644 1.389 1_556 S
C643 H622 0.950 . S
C643 C642 1.373 . S
C643 C659 1.377 . S
C644 C642 1.389 1_554 S
C644 C645 1.524 . S
C644 C658 1.377 . S
C645 C644 1.524 . S
C645 C646 1.397 . S
C645 C650 1.363 . S
C646 H623 0.950 . S
C646 C645 1.397 . S
C646 C647 1.334 . S
C647 H624 0.950 . S
C647 C646 1.334 . S
C647 C648 1.287 . S
C648 C647 1.287 . S
C648 C649 1.524 . S
C648 H667 0.913 . S
C649 H625 0.950 . S
C649 C648 1.524 . S
C649 C650 1.415 . S
C650 H626 0.950 . S
C650 C645 1.363 . S
C650 C649 1.415 . S
C651 H627 0.951 . S
C651 C652 1.366 . S
C651 C653 1.388 . S
C652 C651 1.366 . S
C652 C656 1.385 . S
C653 H628 0.951 . S
C653 C651 1.388 . S
C653 C654 1.366 . S
C654 C653 1.366 . S
C654 C655 1.414 . S
C654 C657 1.499 . S
C655 H629 0.950 . S
C655 C654 1.414 . S
C655 C656 1.374 . S
C656 H630 0.950 . S
C656 C652 1.385 . S
C656 C655 1.374 . S
C657 C654 1.499 . S
C657 C658 1.373 . S
C657 C659 1.389 1_554 S
C658 H631 0.950 . S
C658 C644 1.377 . S
C658 C657 1.373 . S
C659 C643 1.377 . S
C659 C657 1.389 1_556 S
C659 C660 1.524 . S
C660 C659 1.524 . S
C660 C661 1.397 . S
C660 C665 1.363 . S
C661 H632 0.950 . S
C661 C660 1.397 . S
C661 C662 1.334 . S
C662 H633 0.950 . S
C662 C661 1.334 . S
C662 C663 1.287 . S
C663 C662 1.287 . S
C663 C664 1.524 . S
C663 H666 0.999 . S
C664 H634 0.950 . S
C664 C663 1.524 . S
C664 C665 1.415 . S
C665 H635 0.950 . S
C665 C660 1.363 . S
C665 C664 1.415 . S
H666 C663 0.999 . S
H667 C648 0.913 . S
H668 C686 0.951 . S
H669 C688 0.951 . S
H670 C690 0.950 . S
H671 C691 0.950 . S
H672 C693 0.950 . S
H673 C696 0.950 . S
H674 C697 0.950 . S
H675 C699 0.950 . S
H676 C700 0.950 . S
H677 C701 0.951 . S
H678 C703 0.951 . S
H679 C705 0.950 . S
H680 C706 0.950 . S
H681 C708 0.950 . S
H682 C711 0.950 . S
H683 C712 0.950 . S
H684 C714 0.950 . S
H685 C715 0.950 . S
C686 H668 0.951 . S
C686 C687 1.366 . S
C686 C688 1.388 . S
C687 C686 1.366 . S
C687 C691 1.385 . S
C688 H669 0.951 . S
C688 C686 1.388 . S
C688 C689 1.366 . S
C689 C688 1.366 . S
C689 C690 1.414 . S
C689 C692 1.499 . S
C690 H670 0.950 . S
C690 C689 1.414 . S
C690 C691 1.374 . S
C691 H671 0.950 . S
C691 C687 1.385 . S
C691 C690 1.374 . S
C692 C689 1.499 . S
C692 C693 1.373 . S
C692 C694 1.389 . S
C693 H672 0.950 . S
C693 C692 1.373 . S
C693 C709 1.377 . S
C694 C692 1.389 . S
C694 C695 1.524 . S
C694 C708 1.377 . S
C695 C694 1.524 . S
C695 C696 1.397 . S
C695 C700 1.363 . S
C696 H673 0.950 . S
C696 C695 1.397 . S
C696 C697 1.334 . S
C697 H674 0.950 . S
C697 C696 1.334 . S
C697 C698 1.287 . S
C698 C697 1.287 . S
C698 C699 1.524 . S
C698 H717 0.913 . S
C699 H675 0.950 . S
C699 C698 1.524 . S
C699 C700 1.415 . S
C700 H676 0.950 . S
C700 C695 1.363 . S
C700 C699 1.415 . S
C701 H677 0.951 . S
C701 C702 1.366 . S
C701 C703 1.388 . S
C702 C701 1.366 . S
C702 C706 1.385 . S
C703 H678 0.951 . S
C703 C701 1.388 . S
C703 C704 1.366 . S
C704 C703 1.366 . S
C704 C705 1.414 . S
C704 C707 1.499 . S
C705 H679 0.950 . S
C705 C704 1.414 . S
C705 C706 1.374 . S
C706 H680 0.950 . S
C706 C702 1.385 . S
C706 C705 1.374 . S
C707 C704 1.499 . S
C707 C708 1.373 . S
C707 C709 1.389 . S
C708 H681 0.950 . S
C708 C694 1.377 . S
C708 C707 1.373 . S
C709 C693 1.377 . S
C709 C707 1.389 . S
C709 C710 1.524 . S
C710 C709 1.524 . S
C710 C711 1.397 . S
C710 C715 1.363 . S
C711 H682 0.950 . S
C711 C710 1.397 . S
C711 C712 1.334 . S
C712 H683 0.950 . S
C712 C711 1.334 . S
C712 C713 1.287 . S
C713 C712 1.287 . S
C713 C714 1.524 . S
C713 H716 0.999 . S
C714 H684 0.950 . S
C714 C713 1.524 . S
C714 C715 1.415 . S
C715 H685 0.950 . S
C715 C710 1.363 . S
C715 C714 1.415 . S
H716 C713 0.999 . S
H717 C698 0.913 . S
H718 C736 0.951 . S
H719 C738 0.951 . S
H720 C740 0.950 . S
H721 C741 0.950 . S
H722 C743 0.950 . S
H723 C746 0.950 . S
H724 C747 0.950 . S
H725 C749 0.950 . S
H726 C750 0.950 . S
H727 C751 0.951 . S
H728 C753 0.951 . S
H729 C755 0.950 . S
H730 C756 0.950 . S
H731 C758 0.950 . S
H732 C761 0.950 . S
H733 C762 0.950 . S
H734 C764 0.950 . S
H735 C765 0.950 . S
C736 H718 0.951 . S
C736 C737 1.366 . S
C736 C738 1.388 . S
C737 C736 1.366 . S
C737 C741 1.385 . S
C738 H719 0.951 . S
C738 C736 1.388 . S
C738 C739 1.366 . S
C739 C738 1.366 . S
C739 C740 1.414 . S
C739 C742 1.499 . S
C740 H720 0.950 . S
C740 C739 1.414 . S
C740 C741 1.374 . S
C741 H721 0.950 . S
C741 C737 1.385 . S
C741 C740 1.374 . S
C742 C739 1.499 . S
C742 C743 1.373 . S
C742 C744 1.389 . S
C743 H722 0.950 . S
C743 C742 1.373 . S
C743 C759 1.377 . S
C744 C742 1.389 . S
C744 C745 1.524 . S
C744 C758 1.377 . S
C745 C744 1.524 . S
C745 C746 1.397 . S
C745 C750 1.363 . S
C746 H723 0.950 . S
C746 C745 1.397 . S
C746 C747 1.334 . S
C747 H724 0.950 . S
C747 C746 1.334 . S
C747 C748 1.287 . S
C748 C747 1.287 . S
C748 C749 1.524 . S
C748 H767 0.913 . S
C749 H725 0.950 . S
C749 C748 1.524 . S
C749 C750 1.415 . S
C750 H726 0.950 . S
C750 C745 1.363 . S
C750 C749 1.415 . S
C751 H727 0.951 . S
C751 C752 1.366 . S
C751 C753 1.388 . S
C752 C751 1.366 . S
C752 C756 1.385 . S
C753 H728 0.951 . S
C753 C751 1.388 . S
C753 C754 1.366 . S
C754 C753 1.366 . S
C754 C755 1.414 . S
C754 C757 1.499 . S
C755 H729 0.950 . S
C755 C754 1.414 . S
C755 C756 1.374 . S
C756 H730 0.950 . S
C756 C752 1.385 . S
C756 C755 1.374 . S
C757 C754 1.499 . S
C757 C758 1.373 . S
C757 C759 1.389 . S
C758 H731 0.950 . S
C758 C744 1.377 . S
C758 C757 1.373 . S
C759 C743 1.377 . S
C759 C757 1.389 . S
C759 C760 1.524 . S
C760 C759 1.524 . S
C760 C761 1.397 . S
C760 C765 1.363 . S
C761 H732 0.950 . S
C761 C760 1.397 . S
C761 C762 1.334 . S
C762 H733 0.950 . S
C762 C761 1.334 . S
C762 C763 1.287 . S
C763 C762 1.287 . S
C763 C764 1.524 . S
C763 H766 0.999 . S
C764 H734 0.950 . S
C764 C763 1.524 . S
C764 C765 1.415 . S
C765 H735 0.950 . S
C765 C760 1.363 . S
C765 C764 1.415 . S
H766 C763 0.999 . S
H767 C748 0.913 . S
H768 C786 0.951 . S
H769 C788 0.951 . S
H770 C790 0.950 . S
H771 C791 0.950 . S
H772 C793 0.950 . S
H773 C796 0.950 . S
H774 C797 0.950 . S
H775 C799 0.950 . S
H776 C800 0.950 . S
H777 C801 0.951 . S
H778 C803 0.951 . S
H779 C805 0.950 . S
H780 C806 0.950 . S
H781 C808 0.950 . S
H782 C811 0.950 . S
H783 C812 0.950 . S
H784 C814 0.950 . S
H785 C815 0.950 . S
C786 H768 0.951 . S
C786 C787 1.366 . S
C786 C788 1.388 . S
C787 C786 1.366 . S
C787 C791 1.385 . S
C788 H769 0.951 . S
C788 C786 1.388 . S
C788 C789 1.366 . S
C789 C788 1.366 . S
C789 C790 1.414 . S
C789 C792 1.499 . S
C790 H770 0.950 . S
C790 C789 1.414 . S
C790 C791 1.374 . S
C791 H771 0.950 . S
C791 C787 1.385 . S
C791 C790 1.374 . S
C792 C789 1.499 . S
C792 C793 1.373 . S
C792 C794 1.389 . S
C793 H772 0.950 . S
C793 C792 1.373 . S
C793 C809 1.377 . S
C794 C792 1.389 . S
C794 C795 1.524 . S
C794 C808 1.377 . S
C795 C794 1.524 . S
C795 C796 1.397 . S
C795 C800 1.363 . S
C796 H773 0.950 . S
C796 C795 1.397 . S
C796 C797 1.334 . S
C797 H774 0.950 . S
C797 C796 1.334 . S
C797 C798 1.287 . S
C798 C797 1.287 . S
C798 C799 1.524 . S
C798 H817 0.913 . S
C799 H775 0.950 . S
C799 C798 1.524 . S
C799 C800 1.415 . S
C800 H776 0.950 . S
C800 C795 1.363 . S
C800 C799 1.415 . S
C801 H777 0.951 . S
C801 C802 1.366 . S
C801 C803 1.388 . S
C802 C801 1.366 . S
C802 C806 1.385 . S
C803 H778 0.951 . S
C803 C801 1.388 . S
C803 C804 1.366 . S
C804 C803 1.366 . S
C804 C805 1.414 . S
C804 C807 1.499 . S
C805 H779 0.950 . S
C805 C804 1.414 . S
C805 C806 1.374 . S
C806 H780 0.950 . S
C806 C802 1.385 . S
C806 C805 1.374 . S
C807 C804 1.499 . S
C807 C808 1.373 . S
C807 C809 1.389 . S
C808 H781 0.950 . S
C808 C794 1.377 . S
C808 C807 1.373 . S
C809 C793 1.377 . S
C809 C807 1.389 . S
C809 C810 1.524 . S
C810 C809 1.524 . S
C810 C811 1.397 . S
C810 C815 1.363 . S
C811 H782 0.950 . S
C811 C810 1.397 . S
C811 C812 1.334 . S
C812 H783 0.950 . S
C812 C811 1.334 . S
C812 C813 1.287 . S
C813 C812 1.287 . S
C813 C814 1.524 . S
C813 H816 0.999 . S
C814 H784 0.950 . S
C814 C813 1.524 . S
C814 C815 1.415 . S
C815 H785 0.950 . S
C815 C810 1.363 . S
C815 C814 1.415 . S
H816 C813 0.999 . S
H817 C798 0.913 . S
H818 C836 0.951 . S
H819 C838 0.951 . S
H820 C840 0.950 . S
H821 C841 0.950 . S
H822 C843 0.950 . S
H823 C846 0.950 . S
H824 C847 0.950 . S
H825 C849 0.950 . S
H826 C850 0.950 . S
H827 C851 0.951 . S
H828 C853 0.951 . S
H829 C855 0.950 . S
H830 C856 0.950 . S
H831 C858 0.950 . S
H832 C861 0.950 . S
H833 C862 0.950 . S
H834 C864 0.950 . S
H835 C865 0.950 . S
C836 H818 0.951 . S
C836 C837 1.366 . S
C836 C838 1.388 . S
C837 C836 1.366 . S
C837 C841 1.385 . S
C838 H819 0.951 . S
C838 C836 1.388 . S
C838 C839 1.366 . S
C839 C838 1.366 . S
C839 C840 1.414 . S
C839 C842 1.499 . S
C840 H820 0.950 . S
C840 C839 1.414 . S
C840 C841 1.374 . S
C841 H821 0.950 . S
C841 C837 1.385 . S
C841 C840 1.374 . S
C842 C839 1.499 . S
C842 C843 1.373 . S
C842 C844 1.389 . S
C843 H822 0.950 . S
C843 C842 1.373 . S
C843 C859 1.377 . S
C844 C842 1.389 . S
C844 C845 1.524 . S
C844 C858 1.377 . S
C845 C844 1.524 . S
C845 C846 1.397 . S
C845 C850 1.363 . S
C846 H823 0.950 . S
C846 C845 1.397 . S
C846 C847 1.334 . S
C847 H824 0.950 . S
C847 C846 1.334 . S
C847 C848 1.287 . S
C848 C847 1.287 . S
C848 C849 1.524 . S
C848 H867 0.913 . S
C849 H825 0.950 . S
C849 C848 1.524 . S
C849 C850 1.415 . S
C850 H826 0.950 . S
C850 C845 1.363 . S
C850 C849 1.415 . S
C851 H827 0.951 . S
C851 C852 1.366 . S
C851 C853 1.388 . S
C852 C851 1.366 . S
C852 C856 1.385 . S
C853 H828 0.951 . S
C853 C851 1.388 . S
C853 C854 1.366 . S
C854 C853 1.366 . S
C854 C855 1.414 . S
C854 C857 1.499 . S
C855 H829 0.950 . S
C855 C854 1.414 . S
C855 C856 1.374 . S
C856 H830 0.950 . S
C856 C852 1.385 . S
C856 C855 1.374 . S
C857 C854 1.499 . S
C857 C858 1.373 . S
C857 C859 1.389 . S
C858 H831 0.950 . S
C858 C844 1.377 . S
C858 C857 1.373 . S
C859 C843 1.377 . S
C859 C857 1.389 . S
C859 C860 1.524 . S
C860 C859 1.524 . S
C860 C861 1.397 . S
C860 C865 1.363 . S
C861 H832 0.950 . S
C861 C860 1.397 . S
C861 C862 1.334 . S
C862 H833 0.950 . S
C862 C861 1.334 . S
C862 C863 1.287 . S
C863 C862 1.287 . S
C863 C864 1.524 . S
C863 H866 0.999 . S
C864 H834 0.950 . S
C864 C863 1.524 . S
C864 C865 1.415 . S
C865 H835 0.950 . S
C865 C860 1.363 . S
C865 C864 1.415 . S
H866 C863 0.999 . S
H867 C848 0.913 . S
H868 C886 0.951 . S
H869 C888 0.951 . S
H870 C890 0.950 . S
H871 C891 0.950 . S
H872 C893 0.950 . S
H873 C896 0.950 . S
H874 C897 0.950 . S
H875 C899 0.950 . S
H876 C900 0.950 . S
H877 C901 0.951 . S
H878 C903 0.951 . S
H879 C905 0.950 . S
H880 C906 0.950 . S
H881 C908 0.950 . S
H882 C911 0.950 . S
H883 C912 0.950 . S
H884 C914 0.950 . S
H885 C915 0.950 . S
C886 H868 0.951 . S
C886 C887 1.366 . S
C886 C888 1.388 . S
C887 C886 1.366 . S
C887 C891 1.385 . S
C888 H869 0.951 . S
C888 C886 1.388 . S
C888 C889 1.366 . S
C889 C888 1.366 . S
C889 C890 1.414 . S
C889 C892 1.499 . S
C890 H870 0.950 . S
C890 C889 1.414 . S
C890 C891 1.374 . S
C891 H871 0.950 . S
C891 C887 1.385 . S
C891 C890 1.374 . S
C892 C889 1.499 . S
C892 C893 1.373 . S
C892 C894 1.389 . S
C893 H872 0.950 . S
C893 C892 1.373 . S
C893 C909 1.377 . S
C894 C892 1.389 . S
C894 C895 1.524 . S
C894 C908 1.377 . S
C895 C894 1.524 . S
C895 C896 1.397 . S
C895 C900 1.363 . S
C896 H873 0.950 . S
C896 C895 1.397 . S
C896 C897 1.334 . S
C897 H874 0.950 . S
C897 C896 1.334 . S
C897 C898 1.287 . S
C898 C897 1.287 . S
C898 C899 1.524 . S
C898 H917 0.913 . S
C899 H875 0.950 . S
C899 C898 1.524 . S
C899 C900 1.415 . S
C900 H876 0.950 . S
C900 C895 1.363 . S
C900 C899 1.415 . S
C901 H877 0.951 . S
C901 C902 1.366 . S
C901 C903 1.388 . S
C902 C901 1.366 . S
C902 C906 1.385 . S
C903 H878 0.951 . S
C903 C901 1.388 . S
C903 C904 1.366 . S
C904 C903 1.366 . S
C904 C905 1.414 . S
C904 C907 1.499 . S
C905 H879 0.950 . S
C905 C904 1.414 . S
C905 C906 1.374 . S
C906 H880 0.950 . S
C906 C902 1.385 . S
C906 C905 1.374 . S
C907 C904 1.499 . S
C907 C908 1.373 . S
C907 C909 1.389 . S
C908 H881 0.950 . S
C908 C894 1.377 . S
C908 C907 1.373 . S
C909 C893 1.377 . S
C909 C907 1.389 . S
C909 C910 1.524 . S
C910 C909 1.524 . S
C910 C911 1.397 . S
C910 C915 1.363 . S
C911 H882 0.950 . S
C911 C910 1.397 . S
C911 C912 1.334 . S
C912 H883 0.950 . S
C912 C911 1.334 . S
C912 C913 1.287 . S
C913 C912 1.287 . S
C913 C914 1.524 . S
C913 H916 0.999 . S
C914 H884 0.950 . S
C914 C913 1.524 . S
C914 C915 1.415 . S
C915 H885 0.950 . S
C915 C910 1.363 . S
C915 C914 1.415 . S
H916 C913 0.999 . S
H917 C898 0.913 . S
H918 C936 0.951 . S
H919 C938 0.951 . S
H920 C940 0.950 . S
H921 C941 0.950 . S
H922 C943 0.950 . S
H923 C946 0.950 . S
H924 C947 0.950 . S
H925 C949 0.950 . S
H926 C950 0.950 . S
H927 C951 0.951 . S
H928 C953 0.951 . S
H929 C955 0.950 . S
H930 C956 0.950 . S
H931 C958 0.950 . S
H932 C961 0.950 . S
H933 C962 0.950 . S
H934 C964 0.950 . S
H935 C965 0.950 . S
C936 H918 0.951 . S
C936 C937 1.366 . S
C936 C938 1.388 . S
C937 C936 1.366 . S
C937 C941 1.385 . S
C938 H919 0.951 . S
C938 C936 1.388 . S
C938 C939 1.366 . S
C939 C938 1.366 . S
C939 C940 1.414 . S
C939 C942 1.499 . S
C940 H920 0.950 . S
C940 C939 1.414 . S
C940 C941 1.374 . S
C941 H921 0.950 . S
C941 C937 1.385 . S
C941 C940 1.374 . S
C942 C939 1.499 . S
C942 C943 1.373 . S
C942 C944 1.389 . S
C943 H922 0.950 . S
C943 C942 1.373 . S
C943 C959 1.377 . S
C944 C942 1.389 . S
C944 C945 1.524 . S
C944 C958 1.377 . S
C945 C944 1.524 . S
C945 C946 1.397 . S
C945 C950 1.363 . S
C946 H923 0.950 . S
C946 C945 1.397 . S
C946 C947 1.334 . S
C947 H924 0.950 . S
C947 C946 1.334 . S
C947 C948 1.287 . S
C948 C947 1.287 . S
C948 C949 1.524 . S
C948 H967 0.913 . S
C949 H925 0.950 . S
C949 C948 1.524 . S
C949 C950 1.415 . S
C950 H926 0.950 . S
C950 C945 1.363 . S
C950 C949 1.415 . S
C951 H927 0.951 . S
C951 C952 1.366 . S
C951 C953 1.388 . S
C952 C951 1.366 . S
C952 C956 1.385 . S
C953 H928 0.951 . S
C953 C951 1.388 . S
C953 C954 1.366 . S
C954 C953 1.366 . S
C954 C955 1.414 . S
C954 C957 1.499 . S
C955 H929 0.950 . S
C955 C954 1.414 . S
C955 C956 1.374 . S
C956 H930 0.950 . S
C956 C952 1.385 . S
C956 C955 1.374 . S
C957 C954 1.499 . S
C957 C958 1.373 . S
C957 C959 1.389 . S
C958 H931 0.950 . S
C958 C944 1.377 . S
C958 C957 1.373 . S
C959 C943 1.377 . S
C959 C957 1.389 . S
C959 C960 1.524 . S
C960 C959 1.524 . S
C960 C961 1.397 . S
C960 C965 1.363 . S
C961 H932 0.950 . S
C961 C960 1.397 . S
C961 C962 1.334 . S
C962 H933 0.950 . S
C962 C961 1.334 . S
C962 C963 1.287 . S
C963 C962 1.287 . S
C963 C964 1.524 . S
C963 H966 0.999 . S
C964 H934 0.950 . S
C964 C963 1.524 . S
C964 C965 1.415 . S
C965 H935 0.950 . S
C965 C960 1.363 . S
C965 C964 1.415 . S
H966 C963 0.999 . S
H967 C948 0.913 . S
H968 C986 0.951 . S
H969 C988 0.951 . S
H970 C990 0.950 . S
H971 C991 0.950 . S
H972 C993 0.950 . S
H973 C996 0.950 . S
H974 C997 0.950 . S
H975 C999 0.950 . S
H976 C1000 0.950 . S
H977 C1001 0.951 . S
H978 C1003 0.951 . S
H979 C1005 0.950 . S
H980 C1006 0.950 . S
H981 C1008 0.950 . S
H982 C1011 0.950 . S
H983 C1012 0.950 . S
H984 C1014 0.950 . S
H985 C1015 0.950 . S
C986 H968 0.951 . S
C986 C987 1.366 . S
C986 C988 1.388 . S
C987 C986 1.366 . S
C987 C991 1.385 . S
C988 H969 0.951 . S
C988 C986 1.388 . S
C988 C989 1.366 . S
C989 C988 1.366 . S
C989 C990 1.414 . S
C989 C992 1.499 . S
C990 H970 0.950 . S
C990 C989 1.414 . S
C990 C991 1.374 . S
C991 H971 0.950 . S
C991 C987 1.385 . S
C991 C990 1.374 . S
C992 C989 1.499 . S
C992 C993 1.373 . S
C992 C994 1.389 . S
C993 H972 0.950 . S
C993 C992 1.373 . S
C993 C1009 1.377 . S
C994 C992 1.389 . S
C994 C995 1.524 . S
C994 C1008 1.377 . S
C995 C994 1.524 . S
C995 C996 1.397 . S
C995 C1000 1.363 . S
C996 H973 0.950 . S
C996 C995 1.397 . S
C996 C997 1.334 . S
C997 H974 0.950 . S
C997 C996 1.334 . S
C997 C998 1.287 . S
C998 C997 1.287 . S
C998 C999 1.524 . S
C998 H1017 0.913 . S
C999 H975 0.950 . S
C999 C998 1.524 . S
C999 C1000 1.415 . S
C1000 H976 0.950 . S
C1000 C995 1.363 . S
C1000 C999 1.415 . S
C1001 H977 0.951 . S
C1001 C1002 1.366 . S
C1001 C1003 1.388 . S
C1002 C1001 1.366 . S
C1002 C1006 1.385 . S
C1003 H978 0.951 . S
C1003 C1001 1.388 . S
C1003 C1004 1.366 . S
C1004 C1003 1.366 . S
C1004 C1005 1.414 . S
C1004 C1007 1.499 . S
C1005 H979 0.950 . S
C1005 C1004 1.414 . S
C1005 C1006 1.374 . S
C1006 H980 0.950 . S
C1006 C1002 1.385 . S
C1006 C1005 1.374 . S
C1007 C1004 1.499 . S
C1007 C1008 1.373 . S
C1007 C1009 1.389 . S
C1008 H981 0.950 . S
C1008 C994 1.377 . S
C1008 C1007 1.373 . S
C1009 C993 1.377 . S
C1009 C1007 1.389 . S
C1009 C1010 1.524 . S
C1010 C1009 1.524 . S
C1010 C1011 1.397 . S
C1010 C1015 1.363 . S
C1011 H982 0.950 . S
C1011 C1010 1.397 . S
C1011 C1012 1.334 . S
C1012 H983 0.950 . S
C1012 C1011 1.334 . S
C1012 C1013 1.287 . S
C1013 C1012 1.287 . S
C1013 C1014 1.524 . S
C1013 H1016 0.999 . S
C1014 H984 0.950 . S
C1014 C1013 1.524 . S
C1014 C1015 1.415 . S
C1015 H985 0.950 . S
C1015 C1010 1.363 . S
C1015 C1014 1.415 . S
H1016 C1013 0.999 . S
H1017 C998 0.913 . S
H1018 C1036 0.951 . S
H1019 C1038 0.951 . S
H1020 C1040 0.950 . S
H1021 C1041 0.950 . S
H1022 C1043 0.950 . S
H1023 C1046 0.950 . S
H1024 C1047 0.950 . S
H1025 C1049 0.950 . S
H1026 C1050 0.950 . S
H1027 C1051 0.951 . S
H1028 C1053 0.951 . S
H1029 C1055 0.950 . S
H1030 C1056 0.950 . S
H1031 C1058 0.950 . S
H1032 C1061 0.950 . S
H1033 C1062 0.950 . S
H1034 C1064 0.950 . S
H1035 C1065 0.950 . S
C1036 H1018 0.951 . S
C1036 C1037 1.366 . S
C1036 C1038 1.388 . S
C1037 C1036 1.366 . S
C1037 C1041 1.385 . S
C1038 H1019 0.951 . S
C1038 C1036 1.388 . S
C1038 C1039 1.366 . S
C1039 C1038 1.366 . S
C1039 C1040 1.414 . S
C1039 C1042 1.499 . S
C1040 H1020 0.950 . S
C1040 C1039 1.414 . S
C1040 C1041 1.374 . S
C1041 H1021 0.950 . S
C1041 C1037 1.385 . S
C1041 C1040 1.374 . S
C1042 C1039 1.499 . S
C1042 C1043 1.373 . S
C1042 C1044 1.389 . S
C1043 H1022 0.950 . S
C1043 C1042 1.373 . S
C1043 C1059 1.377 . S
C1044 C1042 1.389 . S
C1044 C1045 1.524 . S
C1044 C1058 1.377 . S
C1045 C1044 1.524 . S
C1045 C1046 1.397 . S
C1045 C1050 1.363 . S
C1046 H1023 0.950 . S
C1046 C1045 1.397 . S
C1046 C1047 1.334 . S
C1047 H1024 0.950 . S
C1047 C1046 1.334 . S
C1047 C1048 1.287 . S
C1048 C1047 1.287 . S
C1048 C1049 1.524 . S
C1048 H1067 0.913 . S
C1049 H1025 0.950 . S
C1049 C1048 1.524 . S
C1049 C1050 1.415 . S
C1050 H1026 0.950 . S
C1050 C1045 1.363 . S
C1050 C1049 1.415 . S
C1051 H1027 0.951 . S
C1051 C1052 1.366 . S
C1051 C1053 1.388 . S
C1052 C1051 1.366 . S
C1052 C1056 1.385 . S
C1053 H1028 0.951 . S
C1053 C1051 1.388 . S
C1053 C1054 1.366 . S
C1054 C1053 1.366 . S
C1054 C1055 1.414 . S
C1054 C1057 1.499 . S
C1055 H1029 0.950 . S
C1055 C1054 1.414 . S
C1055 C1056 1.374 . S
C1056 H1030 0.950 . S
C1056 C1052 1.385 . S
C1056 C1055 1.374 . S
C1057 C1054 1.499 . S
C1057 C1058 1.373 . S
C1057 C1059 1.389 . S
C1058 H1031 0.950 . S
C1058 C1044 1.377 . S
C1058 C1057 1.373 . S
C1059 C1043 1.377 . S
C1059 C1057 1.389 . S
C1059 C1060 1.524 . S
C1060 C1059 1.524 . S
C1060 C1061 1.397 . S
C1060 C1065 1.363 . S
C1061 H1032 0.950 . S
C1061 C1060 1.397 . S
C1061 C1062 1.334 . S
C1062 H1033 0.950 . S
C1062 C1061 1.334 . S
C1062 C1063 1.287 . S
C1063 C1062 1.287 . S
C1063 C1064 1.524 . S
C1063 H1066 0.999 . S
C1064 H1034 0.950 . S
C1064 C1063 1.524 . S
C1064 C1065 1.415 . S
C1065 H1035 0.950 . S
C1065 C1060 1.363 . S
C1065 C1064 1.415 . S
H1066 C1063 0.999 . S
H1067 C1048 0.913 . S
H1068 C1086 0.951 . S
H1069 C1088 0.951 . S
H1070 C1090 0.950 . S
H1071 C1091 0.950 . S
H1072 C1093 0.950 . S
H1073 C1096 0.950 . S
H1074 C1097 0.950 . S
H1075 C1099 0.950 . S
H1076 C1100 0.950 . S
H1077 C1101 0.951 . S
H1078 C1103 0.951 . S
H1079 C1105 0.950 . S
H1080 C1106 0.950 . S
H1081 C1108 0.950 . S
H1082 C1111 0.950 . S
H1083 C1112 0.950 . S
H1084 C1114 0.950 . S
H1085 C1115 0.950 . S
C1086 H1068 0.951 . S
C1086 C1087 1.366 . S
C1086 C1088 1.388 . S
C1087 C1086 1.366 . S
C1087 C1091 1.385 . S
C1088 H1069 0.951 . S
C1088 C1086 1.388 . S
C1088 C1089 1.366 . S
C1089 C1088 1.366 . S
C1089 C1090 1.414 . S
C1089 C1092 1.499 . S
C1090 H1070 0.950 . S
C1090 C1089 1.414 . S
C1090 C1091 1.374 . S
C1091 H1071 0.950 . S
C1091 C1087 1.385 . S
C1091 C1090 1.374 . S
C1092 C1089 1.499 . S
C1092 C1093 1.373 . S
C1092 C1094 1.389 . S
C1093 H1072 0.950 . S
C1093 C1092 1.373 . S
C1093 C1109 1.377 . S
C1094 C1092 1.389 . S
C1094 C1095 1.524 . S
C1094 C1108 1.377 . S
C1095 C1094 1.524 . S
C1095 C1096 1.397 . S
C1095 C1100 1.363 . S
C1096 H1073 0.950 . S
C1096 C1095 1.397 . S
C1096 C1097 1.334 . S
C1097 H1074 0.950 . S
C1097 C1096 1.334 . S
C1097 C1098 1.287 . S
C1098 C1097 1.287 . S
C1098 C1099 1.524 . S
C1098 H1117 0.913 . S
C1099 H1075 0.950 . S
C1099 C1098 1.524 . S
C1099 C1100 1.415 . S
C1100 H1076 0.950 . S
C1100 C1095 1.363 . S
C1100 C1099 1.415 . S
C1101 H1077 0.951 . S
C1101 C1102 1.366 . S
C1101 C1103 1.388 . S
C1102 C1101 1.366 . S
C1102 C1106 1.385 . S
C1103 H1078 0.951 . S
C1103 C1101 1.388 . S
C1103 C1104 1.366 . S
C1104 C1103 1.366 . S
C1104 C1105 1.414 . S
C1104 C1107 1.499 . S
C1105 H1079 0.950 . S
C1105 C1104 1.414 . S
C1105 C1106 1.374 . S
C1106 H1080 0.950 . S
C1106 C1102 1.385 . S
C1106 C1105 1.374 . S
C1107 C1104 1.499 . S
C1107 C1108 1.373 . S
C1107 C1109 1.389 . S
C1108 H1081 0.950 . S
C1108 C1094 1.377 . S
C1108 C1107 1.373 . S
C1109 C1093 1.377 . S
C1109 C1107 1.389 . S
C1109 C1110 1.524 . S
C1110 C1109 1.524 . S
C1110 C1111 1.397 . S
C1110 C1115 1.363 . S
C1111 H1082 0.950 . S
C1111 C1110 1.397 . S
C1111 C1112 1.334 . S
C1112 H1083 0.950 . S
C1112 C1111 1.334 . S
C1112 C1113 1.287 . S
C1113 C1112 1.287 . S
C1113 C1114 1.524 . S
C1113 H1116 0.999 . S
C1114 H1084 0.950 . S
C1114 C1113 1.524 . S
C1114 C1115 1.415 . S
C1115 H1085 0.950 . S
C1115 C1110 1.363 . S
C1115 C1114 1.415 . S
H1116 C1113 0.999 . S
H1117 C1098 0.913 . S
H1118 C1136 0.951 . S
H1119 C1138 0.951 . S
H1120 C1140 0.950 . S
H1121 C1141 0.950 . S
H1122 C1143 0.950 . S
H1123 C1146 0.950 . S
H1124 C1147 0.950 . S
H1125 C1149 0.950 . S
H1126 C1150 0.950 . S
H1127 C1151 0.951 . S
H1128 C1153 0.951 . S
H1129 C1155 0.950 . S
H1130 C1156 0.950 . S
H1131 C1158 0.950 . S
H1132 C1161 0.950 . S
H1133 C1162 0.950 . S
H1134 C1164 0.950 . S
H1135 C1165 0.950 . S
C1136 H1118 0.951 . S
C1136 C1137 1.366 . S
C1136 C1138 1.388 . S
C1137 C1136 1.366 . S
C1137 C1141 1.385 . S
C1138 H1119 0.951 . S
C1138 C1136 1.388 . S
C1138 C1139 1.366 . S
C1139 C1138 1.366 . S
C1139 C1140 1.414 . S
C1139 C1142 1.499 . S
C1140 H1120 0.950 . S
C1140 C1139 1.414 . S
C1140 C1141 1.374 . S
C1141 H1121 0.950 . S
C1141 C1137 1.385 . S
C1141 C1140 1.374 . S
C1142 C1139 1.499 . S
C1142 C1143 1.373 . S
C1142 C1144 1.389 1_655 S
C1143 H1122 0.950 . S
C1143 C1142 1.373 . S
C1143 C1159 1.377 . S
C1144 C1142 1.389 1_455 S
C1144 C1145 1.524 . S
C1144 C1158 1.377 . S
C1145 C1144 1.524 . S
C1145 C1146 1.397 1_455 S
C1145 C1150 1.363 . S
C1146 H1123 0.950 . S
C1146 C1145 1.397 1_655 S
C1146 C1147 1.334 . S
C1147 H1124 0.950 . S
C1147 C1146 1.334 . S
C1147 C1148 1.287 1_655 S
C1148 C1147 1.287 1_455 S
C1148 C1149 1.524 . S
C1148 H1167 0.913 . S
C1149 H1125 0.950 . S
C1149 C1148 1.524 . S
C1149 C1150 1.415 . S
C1150 H1126 0.950 . S
C1150 C1145 1.363 . S
C1150 C1149 1.415 . S
C1151 H1127 0.951 . S
C1151 C1152 1.366 . S
C1151 C1153 1.388 . S
C1152 C1151 1.366 . S
C1152 C1156 1.385 . S
C1153 H1128 0.951 . S
C1153 C1151 1.388 . S
C1153 C1154 1.366 . S
C1154 C1153 1.366 . S
C1154 C1155 1.414 . S
C1154 C1157 1.499 . S
C1155 H1129 0.950 . S
C1155 C1154 1.414 . S
C1155 C1156 1.374 . S
C1156 H1130 0.950 . S
C1156 C1152 1.385 . S
C1156 C1155 1.374 . S
C1157 C1154 1.499 . S
C1157 C1158 1.373 . S
C1157 C1159 1.389 1_455 S
C1158 H1131 0.950 . S
C1158 C1144 1.377 . S
C1158 C1157 1.373 . S
C1159 C1143 1.377 . S
C1159 C1157 1.389 1_655 S
C1159 C1160 1.524 . S
C1160 C1159 1.524 . S
C1160 C1161 1.397 1_655 S
C1160 C1165 1.363 . S
C1161 H1132 0.950 . S
C1161 C1160 1.397 1_455 S
C1161 C1162 1.334 . S
C1162 H1133 0.950 . S
C1162 C1161 1.334 . S
C1162 C1163 1.287 1_455 S
C1163 C1162 1.287 1_655 S
C1163 C1164 1.524 . S
C1163 H1166 0.999 . S
C1164 H1134 0.950 . S
C1164 C1163 1.524 . S
C1164 C1165 1.415 . S
C1165 H1135 0.950 . S
C1165 C1160 1.363 . S
C1165 C1164 1.415 . S
H1166 C1163 0.999 . S
H1167 C1148 0.913 . S
H1168 C1186 0.951 . S
H1169 C1188 0.951 . S
H1170 C1190 0.950 . S
H1171 C1191 0.950 . S
H1172 C1193 0.940 . S
H1173 C1196 0.950 . S
H1174 C1197 0.950 . S
H1175 C1199 0.950 . S
H1176 C1200 0.950 . S
H1177 C1201 0.951 . S
H1178 C1203 0.951 . S
H1179 C1205 0.950 . S
H1180 C1206 0.950 . S
H1181 C1208 0.940 . S
H1182 C1211 0.950 . S
H1183 C1212 0.950 . S
H1184 C1214 0.950 . S
H1185 C1215 0.950 . S
C1186 H1168 0.951 . S
C1186 C1187 1.366 . S
C1186 C1188 1.388 . S
C1187 C1186 1.366 . S
C1187 C1191 1.385 . S
C1188 H1169 0.951 . S
C1188 C1186 1.388 . S
C1188 C1189 1.366 . S
C1189 C1188 1.366 . S
C1189 C1190 1.414 . S
C1189 C1192 1.499 . S
C1190 H1170 0.950 . S
C1190 C1189 1.414 . S
C1190 C1191 1.374 . S
C1191 H1171 0.950 . S
C1191 C1187 1.385 . S
C1191 C1190 1.374 . S
C1192 C1189 1.499 . S
C1192 C1193 1.393 . S
C1192 C1194 1.389 . S
C1193 H1172 0.940 . S
C1193 C1192 1.393 . S
C1193 C1209 1.368 1_545 S
C1194 C1192 1.389 . S
C1194 C1195 1.524 . S
C1194 C1208 1.368 1_545 S
C1195 C1194 1.524 . S
C1195 C1196 1.397 . S
C1195 C1200 1.363 . S
C1196 H1173 0.950 . S
C1196 C1195 1.397 . S
C1196 C1197 1.334 . S
C1197 H1174 0.950 . S
C1197 C1196 1.334 . S
C1197 C1198 1.287 . S
C1198 C1197 1.287 . S
C1198 C1199 1.524 . S
C1198 H1217 0.913 . S
C1199 H1175 0.950 . S
C1199 C1198 1.524 . S
C1199 C1200 1.415 . S
C1200 H1176 0.950 . S
C1200 C1195 1.363 . S
C1200 C1199 1.415 . S
C1201 H1177 0.951 . S
C1201 C1202 1.366 . S
C1201 C1203 1.388 . S
C1202 C1201 1.366 . S
C1202 C1206 1.385 . S
C1203 H1178 0.951 . S
C1203 C1201 1.388 . S
C1203 C1204 1.366 . S
C1204 C1203 1.366 . S
C1204 C1205 1.414 . S
C1204 C1207 1.499 . S
C1205 H1179 0.950 . S
C1205 C1204 1.414 . S
C1205 C1206 1.374 . S
C1206 H1180 0.950 . S
C1206 C1202 1.385 . S
C1206 C1205 1.374 . S
C1207 C1204 1.499 . S
C1207 C1208 1.393 . S
C1207 C1209 1.389 . S
C1208 H1181 0.940 . S
C1208 C1194 1.368 1_565 S
C1208 C1207 1.393 . S
C1209 C1193 1.368 1_565 S
C1209 C1207 1.389 . S
C1209 C1210 1.524 . S
C1210 C1209 1.524 . S
C1210 C1211 1.397 . S
C1210 C1215 1.363 . S
C1211 H1182 0.950 . S
C1211 C1210 1.397 . S
C1211 C1212 1.334 . S
C1212 H1183 0.950 . S
C1212 C1211 1.334 . S
C1212 C1213 1.287 . S
C1213 C1212 1.287 . S
C1213 C1214 1.524 . S
C1213 H1216 0.999 . S
C1214 H1184 0.950 . S
C1214 C1213 1.524 . S
C1214 C1215 1.415 . S
C1215 H1185 0.950 . S
C1215 C1210 1.363 . S
C1215 C1214 1.415 . S
H1216 C1213 0.999 . S
H1217 C1198 0.913 . S
H1218 C1236 0.951 . S
H1219 C1238 0.951 . S
H1220 C1240 0.950 . S
H1221 C1241 0.950 . S
H1222 C1243 0.950 . S
H1223 C1246 0.950 . S
H1224 C1247 0.950 . S
H1225 C1249 0.950 . S
H1226 C1250 0.950 . S
H1227 C1251 0.951 . S
H1228 C1253 0.951 . S
H1229 C1255 0.950 . S
H1230 C1256 0.950 . S
H1231 C1258 0.950 . S
H1232 C1261 0.950 . S
H1233 C1262 0.950 . S
H1234 C1264 0.950 . S
H1235 C1265 0.950 . S
C1236 H1218 0.951 . S
C1236 C1237 1.366 . S
C1236 C1238 1.388 . S
C1237 C1236 1.366 . S
C1237 C1241 1.385 . S
C1238 H1219 0.951 . S
C1238 C1236 1.388 . S
C1238 C1239 1.366 . S
C1239 C1238 1.366 . S
C1239 C1240 1.414 . S
C1239 C1242 1.499 . S
C1240 H1220 0.950 . S
C1240 C1239 1.414 . S
C1240 C1241 1.374 . S
C1241 H1221 0.950 . S
C1241 C1237 1.385 . S
C1241 C1240 1.374 . S
C1242 C1239 1.499 . S
C1242 C1243 1.373 . S
C1242 C1244 1.389 . S
C1243 H1222 0.950 . S
C1243 C1242 1.373 . S
C1243 C1259 1.377 . S
C1244 C1242 1.389 . S
C1244 C1245 1.524 . S
C1244 C1258 1.377 . S
C1245 C1244 1.524 . S
C1245 C1246 1.397 . S
C1245 C1250 1.363 . S
C1246 H1223 0.950 . S
C1246 C1245 1.397 . S
C1246 C1247 1.334 . S
C1247 H1224 0.950 . S
C1247 C1246 1.334 . S
C1247 C1248 1.287 . S
C1248 C1247 1.287 . S
C1248 C1249 1.524 . S
C1248 H1267 0.913 . S
C1249 H1225 0.950 . S
C1249 C1248 1.524 . S
C1249 C1250 1.415 . S
C1250 H1226 0.950 . S
C1250 C1245 1.363 . S
C1250 C1249 1.415 . S
C1251 H1227 0.951 . S
C1251 C1252 1.366 . S
C1251 C1253 1.388 . S
C1252 C1251 1.366 . S
C1252 C1256 1.385 . S
C1253 H1228 0.951 . S
C1253 C1251 1.388 . S
C1253 C1254 1.366 . S
C1254 C1253 1.366 . S
C1254 C1255 1.414 . S
C1254 C1257 1.499 . S
C1255 H1229 0.950 . S
C1255 C1254 1.414 . S
C1255 C1256 1.374 . S
C1256 H1230 0.950 . S
C1256 C1252 1.385 . S
C1256 C1255 1.374 . S
C1257 C1254 1.499 . S
C1257 C1258 1.373 . S
C1257 C1259 1.389 . S
C1258 H1231 0.950 . S
C1258 C1244 1.377 . S
C1258 C1257 1.373 . S
C1259 C1243 1.377 . S
C1259 C1257 1.389 . S
C1259 C1260 1.524 . S
C1260 C1259 1.524 . S
C1260 C1261 1.397 . S
C1260 C1265 1.363 . S
C1261 H1232 0.950 . S
C1261 C1260 1.397 . S
C1261 C1262 1.334 . S
C1262 H1233 0.950 . S
C1262 C1261 1.334 . S
C1262 C1263 1.287 . S
C1263 C1262 1.287 . S
C1263 C1264 1.524 . S
C1263 H1266 0.999 . S
C1264 H1234 0.950 . S
C1264 C1263 1.524 . S
C1264 C1265 1.415 . S
C1265 H1235 0.950 . S
C1265 C1260 1.363 . S
C1265 C1264 1.415 . S
H1266 C1263 0.999 . S
H1267 C1248 0.913 . S
H1268 C1286 0.951 . S
H1269 C1288 0.951 . S
H1270 C1290 0.950 . S
H1271 C1291 0.950 . S
H1272 C1293 0.950 . S
H1273 C1296 0.950 . S
H1274 C1297 0.950 . S
H1275 C1299 0.950 . S
H1276 C1300 0.950 . S
H1277 C1301 0.951 . S
H1278 C1303 0.951 . S
H1279 C1305 0.950 . S
H1280 C1306 0.950 . S
H1281 C1308 0.950 . S
H1282 C1311 0.950 . S
H1283 C1312 0.950 . S
H1284 C1314 0.950 . S
H1285 C1315 0.950 . S
C1286 H1268 0.951 . S
C1286 C1287 1.366 . S
C1286 C1288 1.388 . S
C1287 C1286 1.366 . S
C1287 C1291 1.385 . S
C1288 H1269 0.951 . S
C1288 C1286 1.388 . S
C1288 C1289 1.366 . S
C1289 C1288 1.366 . S
C1289 C1290 1.414 . S
C1289 C1292 1.499 . S
C1290 H1270 0.950 . S
C1290 C1289 1.414 . S
C1290 C1291 1.374 . S
C1291 H1271 0.950 . S
C1291 C1287 1.385 . S
C1291 C1290 1.374 . S
C1292 C1289 1.499 . S
C1292 C1293 1.373 1_455 S
C1292 C1294 1.389 . S
C1293 H1272 0.950 . S
C1293 C1292 1.373 1_655 S
C1293 C1309 1.377 . S
C1294 C1292 1.389 . S
C1294 C1295 1.524 . S
C1294 C1308 1.377 . S
C1295 C1294 1.524 . S
C1295 C1296 1.397 . S
C1295 C1300 1.363 . S
C1296 H1273 0.950 . S
C1296 C1295 1.397 . S
C1296 C1297 1.334 . S
C1297 H1274 0.950 . S
C1297 C1296 1.334 . S
C1297 C1298 1.287 . S
C1298 C1297 1.287 . S
C1298 C1299 1.524 . S
C1298 H1317 0.913 . S
C1299 H1275 0.950 . S
C1299 C1298 1.524 . S
C1299 C1300 1.415 . S
C1300 H1276 0.950 . S
C1300 C1295 1.363 . S
C1300 C1299 1.415 . S
C1301 H1277 0.951 . S
C1301 C1302 1.366 . S
C1301 C1303 1.388 . S
C1302 C1301 1.366 . S
C1302 C1306 1.385 . S
C1303 H1278 0.951 . S
C1303 C1301 1.388 . S
C1303 C1304 1.366 . S
C1304 C1303 1.366 . S
C1304 C1305 1.414 . S
C1304 C1307 1.499 . S
C1305 H1279 0.950 . S
C1305 C1304 1.414 . S
C1305 C1306 1.374 . S
C1306 H1280 0.950 . S
C1306 C1302 1.385 . S
C1306 C1305 1.374 . S
C1307 C1304 1.499 . S
C1307 C1308 1.373 1_655 S
C1307 C1309 1.389 . S
C1308 H1281 0.950 . S
C1308 C1294 1.377 . S
C1308 C1307 1.373 1_455 S
C1309 C1293 1.377 . S
C1309 C1307 1.389 . S
C1309 C1310 1.524 . S
C1310 C1309 1.524 . S
C1310 C1311 1.397 . S
C1310 C1315 1.363 . S
C1311 H1282 0.950 . S
C1311 C1310 1.397 . S
C1311 C1312 1.334 . S
C1312 H1283 0.950 . S
C1312 C1311 1.334 . S
C1312 C1313 1.287 . S
C1313 C1312 1.287 . S
C1313 C1314 1.524 . S
C1313 H1316 0.999 . S
C1314 H1284 0.950 . S
C1314 C1313 1.524 . S
C1314 C1315 1.415 . S
C1315 H1285 0.950 . S
C1315 C1310 1.363 . S
C1315 C1314 1.415 . S
H1316 C1313 0.999 . S
H1317 C1298 0.913 . S
H1318 C1336 0.951 . S
H1319 C1338 0.951 . S
H1320 C1340 0.950 . S
H1321 C1341 0.950 . S
H1322 C1343 0.950 . S
H1323 C1346 0.950 . S
H1324 C1347 0.950 . S
H1325 C1349 0.950 . S
H1326 C1350 0.950 . S
H1327 C1351 0.951 . S
H1328 C1353 0.951 . S
H1329 C1355 0.950 . S
H1330 C1356 0.950 . S
H1331 C1358 0.950 . S
H1332 C1361 0.950 . S
H1333 C1362 0.950 . S
H1334 C1364 0.950 . S
H1335 C1365 0.950 . S
C1336 H1318 0.951 . S
C1336 C1337 1.366 . S
C1336 C1338 1.388 . S
C1337 C1336 1.366 . S
C1337 C1341 1.385 . S
C1338 H1319 0.951 . S
C1338 C1336 1.388 . S
C1338 C1339 1.366 . S
C1339 C1338 1.366 . S
C1339 C1340 1.414 . S
C1339 C1342 1.499 . S
C1340 H1320 0.950 . S
C1340 C1339 1.414 . S
C1340 C1341 1.374 . S
C1341 H1321 0.950 . S
C1341 C1337 1.385 . S
C1341 C1340 1.374 . S
C1342 C1339 1.499 . S
C1342 C1343 1.373 . S
C1342 C1344 1.389 1_565 S
C1343 H1322 0.950 . S
C1343 C1342 1.373 . S
C1343 C1359 1.377 . S
C1344 C1342 1.389 1_545 S
C1344 C1345 1.524 . S
C1344 C1358 1.377 . S
C1345 C1344 1.524 . S
C1345 C1346 1.397 1_545 S
C1345 C1350 1.363 . S
C1346 H1323 0.950 . S
C1346 C1345 1.397 1_565 S
C1346 C1347 1.334 . S
C1347 H1324 0.950 . S
C1347 C1346 1.334 . S
C1347 C1348 1.287 1_565 S
C1348 C1347 1.287 1_545 S
C1348 C1349 1.524 . S
C1348 H1367 0.913 . S
C1349 H1325 0.950 . S
C1349 C1348 1.524 . S
C1349 C1350 1.415 . S
C1350 H1326 0.950 . S
C1350 C1345 1.363 . S
C1350 C1349 1.415 . S
C1351 H1327 0.951 . S
C1351 C1352 1.366 . S
C1351 C1353 1.388 . S
C1352 C1351 1.366 . S
C1352 C1356 1.385 . S
C1353 H1328 0.951 . S
C1353 C1351 1.388 . S
C1353 C1354 1.366 . S
C1354 C1353 1.366 . S
C1354 C1355 1.414 . S
C1354 C1357 1.499 . S
C1355 H1329 0.950 . S
C1355 C1354 1.414 . S
C1355 C1356 1.374 . S
C1356 H1330 0.950 . S
C1356 C1352 1.385 . S
C1356 C1355 1.374 . S
C1357 C1354 1.499 . S
C1357 C1358 1.373 . S
C1357 C1359 1.389 1_545 S
C1358 H1331 0.950 . S
C1358 C1344 1.377 . S
C1358 C1357 1.373 . S
C1359 C1343 1.377 . S
C1359 C1357 1.389 1_565 S
C1359 C1360 1.524 . S
C1360 C1359 1.524 . S
C1360 C1361 1.397 1_565 S
C1360 C1365 1.363 . S
C1361 H1332 0.950 . S
C1361 C1360 1.397 1_545 S
C1361 C1362 1.334 . S
C1362 H1333 0.950 . S
C1362 C1361 1.334 . S
C1362 C1363 1.287 1_545 S
C1363 C1362 1.287 1_565 S
C1363 C1364 1.524 . S
C1363 H1366 0.999 . S
C1364 H1334 0.950 . S
C1364 C1363 1.524 . S
C1364 C1365 1.415 . S
C1365 H1335 0.950 . S
C1365 C1360 1.363 . S
C1365 C1364 1.415 . S
H1366 C1363 0.999 . S
H1367 C1348 0.913 . S
C187 C105 1.065 . S
C202 C7 1.065 . S
C237 C21 1.064 . S
C252 C119 1.064 . S
C287 C35 1.064 . S
C302 C133 1.064 . S
C337 C49 1.064 . S
C352 C147 1.064 . S
C387 C161 1.065 . S
C402 C63 1.065 . S
C437 C91 1.064 . S
C452 C77 1.064 . S
C487 C149 1.729 . S
C502 C9 1.729 . S
C537 C23 1.729 . S
C552 C163 1.729 . S
C587 C37 1.729 . S
C602 C93 1.729 . S
C637 C107 1.729 . S
C652 C51 1.729 . S
C687 C121 1.729 . S
C702 C65 1.729 . S
C737 C135 1.729 . S
C752 C79 1.729 . S
C787 C6 1.806 . S
C802 C118 1.807 . S
C837 C20 1.807 . S
C852 C132 1.807 . S
C887 C146 1.807 . S
C902 C34 1.807 . S
C937 C48 1.807 . S
C952 C160 1.807 . S
C987 C90 1.807 . S
C1002 C62 1.807 . S
C1037 C104 1.807 . S
C1052 C76 1.807 . S
C1087 C50 1.281 . S
C1102 C8 1.281 . S
C1137 C64 1.280 . S
C1152 C22 1.281 . S
C1187 C36 1.281 . S
C1202 C78 1.281 . S
C1237 C92 1.281 . S
C1252 C134 1.280 . S
C1287 C106 1.281 . S
C1302 C148 1.281 . S
C1337 C162 1.280 . S
C1352 C120 1.281 . S
