# Generated by pormake.
# Topology ukg, (4)-cn, num edge types: 1
# Building blocks:
#     Node 0, Type 0, BuildingBlock: ESEHIV_clean_sbu_0, # of connection points: 4
#     Node 1, Type 0, BuildingBlock: ESEHIV_clean_sbu_0, # of connection points: 4
#     Node 2, Type 0, BuildingBlock: ESEHIV_clean_sbu_0, # of connection points: 4
#     Node 3, Type 0, BuildingBlock: ESEHIV_clean_sbu_0, # of connection points: 4
#     Node 4, Type 0, BuildingBlock: ESEHIV_clean_sbu_0, # of connection points: 4
#     Node 5, Type 0, BuildingBlock: ESEHIV_clean_sbu_0, # of connection points: 4
#     Node 6, Type 0, BuildingBlock: ESEHIV_clean_sbu_0, # of connection points: 4
#     Node 7, Type 0, BuildingBlock: ESEHIV_clean_sbu_0, # of connection points: 4
#     Edge 8, Type (0, 0), BuildingBlock: TEMPAE_clean_linker_10, # of connection points: 2
#     Edge 9, Type (0, 0), BuildingBlock: TEMPAE_clean_linker_10, # of connection points: 2
#     Edge 10, Type (0, 0), BuildingBlock: TEMPAE_clean_linker_10, # of connection points: 2
#     Edge 11, Type (0, 0), BuildingBlock: TEMPAE_clean_linker_10, # of connection points: 2
#     Edge 12, Type (0, 0), BuildingBlock: TEMPAE_clean_linker_10, # of connection points: 2
#     Edge 13, Type (0, 0), BuildingBlock: TEMPAE_clean_linker_10, # of connection points: 2
#     Edge 14, Type (0, 0), BuildingBlock: TEMPAE_clean_linker_10, # of connection points: 2
#     Edge 15, Type (0, 0), BuildingBlock: TEMPAE_clean_linker_10, # of connection points: 2
#     Edge 16, Type (0, 0), BuildingBlock: TEMPAE_clean_linker_10, # of connection points: 2
#     Edge 17, Type (0, 0), BuildingBlock: TEMPAE_clean_linker_10, # of connection points: 2
#     Edge 18, Type (0, 0), BuildingBlock: TEMPAE_clean_linker_10, # of connection points: 2
#     Edge 19, Type (0, 0), BuildingBlock: TEMPAE_clean_linker_10, # of connection points: 2
#     Edge 20, Type (0, 0), BuildingBlock: TEMPAE_clean_linker_10, # of connection points: 2
#     Edge 21, Type (0, 0), BuildingBlock: TEMPAE_clean_linker_10, # of connection points: 2
#     Edge 22, Type (0, 0), BuildingBlock: TEMPAE_clean_linker_10, # of connection points: 2
#     Edge 23, Type (0, 0), BuildingBlock: TEMPAE_clean_linker_10, # of connection points: 2
# Relax obj value: 0.121
# Max RMSD: 0.192
# Mean RMSD: 0.176
data_MOF--net-ukg--node1-ESEHIV_clean_sbu_0--edge1-TEMPAE_clean_linker_10
_symmetry_space_group_name_H-M    P1
_symmetry_Int_Tables_number       1
_symmetry_cell_setting            triclinic
loop_
_symmetry_equiv_pos_as_xyz
'x, y, z'
_cell_length_a     31.737375
_cell_length_b     31.732062
_cell_length_c     43.175977
_cell_angle_alpha  90.397546
_cell_angle_beta   89.586541
_cell_angle_gamma 89.748619
loop_
_atom_site_label
_atom_site_type_symbol
_atom_site_fract_x
_atom_site_fract_y
_atom_site_fract_z
_atom_type_partial_charge
Cu0 Cu 0.03435 0.69858 0.16004 0.0
N1 N 0.99747 0.74309 0.17112 0.0
N2 N 0.95266 0.78199 0.19996 0.0
C3 C 0.97823 0.74794 0.19892 0.0
C4 C 0.95589 0.79954 0.17166 0.0
C5 C 0.98324 0.77529 0.15385 0.0
O6 O 1.00983 0.64992 0.18124 0.0
C7 C 0.10563 0.75171 0.17064 0.0
O8 O 0.07791 0.78121 0.1644 0.0
H9 H 0.98306 0.72728 0.2183 0.0
H10 H 0.992 0.78076 0.12998 0.0
N11 N 0.03274 0.68796 0.117 0.0
N12 N 0.03064 0.65463 0.07086 0.0
C13 C 1.02548 0.65113 0.10197 0.0
C14 C 0.04275 0.71556 0.09465 0.0
C15 C 0.04139 0.69528 0.06633 0.0
C16 C 1.01019 0.64577 0.21058 0.0
O17 O 0.03606 0.66918 0.22687 0.0
H18 H 1.01817 0.62202 0.11373 0.0
H19 H 0.0515 0.74801 0.09876 0.0
O20 O 0.0934 0.71326 0.17105 0.0
H21 H 0.93921 0.82748 0.16423 0.0
H22 H 0.04819 0.70941 0.04412 0.0
Cu23 Cu 0.36021 0.57397 0.65987 0.0
N24 N 0.31253 0.54418 0.67286 0.0
N25 N 0.27288 0.50271 0.703 0.0
C26 C 0.31162 0.51849 0.69758 0.0
C27 C 0.24824 0.51949 0.6808 0.0
C28 C 0.27277 0.54516 0.66231 0.0
O29 O 0.4047 0.54854 0.68538 0.0
C30 C 0.33298 0.65828 0.64623 0.0
O31 O 0.32825 0.64219 0.61838 0.0
H32 H 0.33861 0.51272 0.71209 0.0
H33 H 0.2622 0.56378 0.64295 0.0
N34 N 0.37186 0.56336 0.61746 0.0
N35 N 0.40535 0.55659 0.5716 0.0
C36 C 0.40863 0.56807 0.60182 0.0
C37 C 0.34462 0.5482 0.59645 0.0
C38 C 0.365 0.54414 0.56829 0.0
C39 C 0.41659 0.511 0.67847 0.0
O40 O 0.40367 0.49423 0.65233 0.0
H41 H 0.43712 0.57979 0.6124 0.0
H42 H 0.31218 0.54026 0.60127 0.0
O43 O 0.34808 0.63481 0.66752 0.0
H44 H 0.21487 0.51382 0.6781 0.0
H45 H 0.3513 0.53202 0.54717 0.0
Cu46 Cu 0.48627 0.89002 0.15931 0.0
N47 N 0.51609 0.84193 0.17163 0.0
N48 N 0.5574 0.80133 0.20108 0.0
C49 C 0.54146 0.8403 0.19651 0.0
C50 C 0.54112 0.77739 0.1781 0.0
C51 C 0.51559 0.8025 0.16004 0.0
O52 O 0.51016 0.93436 0.18597 0.0
C53 C 0.40925 0.85525 0.18485 0.0
O54 O 0.43382 0.84147 0.20698 0.0
H55 H 0.54694 0.86697 0.21163 0.0
H56 H 0.49746 0.79258 0.14019 0.0
N57 N 0.49772 0.90242 0.11733 0.0
N58 N 0.50506 0.93723 0.07242 0.0
C59 C 0.49063 0.93886 0.10206 0.0
C60 C 0.51697 0.87692 0.09656 0.0
C61 C 0.52154 0.89816 0.06901 0.0
C62 C 0.54708 0.94769 0.17913 0.0
O63 O 0.56424 0.93591 0.15268 0.0
H64 H 0.47643 0.96642 0.11282 0.0
H65 H 0.52761 0.84521 0.10122 0.0
O66 O 0.42513 0.87852 0.16373 0.0
H67 H 0.54709 0.74411 0.17452 0.0
H68 H 0.53595 0.88569 0.04806 0.0
Cu69 Cu 0.14967 1.02185 0.67494 0.0
N70 N 0.18902 0.06072 0.69036 0.0
N71 N 0.22683 0.10401 0.72046 0.0
C72 C 0.19461 0.07618 0.71931 0.0
C73 C 0.2419 0.10592 0.69119 0.0
C74 C 0.21871 0.07929 0.67285 0.0
O75 O 0.10457 1.01143 0.70477 0.0
C76 C 0.21302 0.95521 0.6773 0.0
O77 O 0.23437 0.98245 0.69391 0.0
H78 H 0.17629 0.06649 0.73921 0.0
H79 H 0.22305 0.07381 0.64827 0.0
N80 N 0.12619 0.0441 0.63836 0.0
N81 N 0.09239 0.05307 0.59321 0.0
C82 C 0.10369 1.02535 0.61556 0.0
C83 C 0.12854 0.08489 0.63025 0.0
C84 C 0.10804 0.09046 0.60262 0.0
C85 C 0.08344 0.03131 0.72555 0.0
O86 O 0.05635 1.00962 0.74209 0.0
H87 H 0.09582 0.9922 0.61536 0.0
H88 H 0.14352 0.10924 0.64384 0.0
O89 O 0.17714 0.96629 0.66656 0.0
H90 H 0.2677 0.12552 0.68346 0.0
H91 H 0.10387 0.12019 0.59086 0.0
Cu92 Cu 1.02608 0.34024 0.88278 0.0
N93 N 0.98682 0.31098 0.90702 0.0
N94 N 0.92271 0.29465 0.92518 0.0
C95 C 0.94532 0.31981 0.90635 0.0
C96 C 0.95137 0.26927 0.93875 0.0
C97 C 0.99101 0.27938 0.92742 0.0
O98 O 1.02164 0.39975 0.89653 0.0
C99 C 0.99963 0.29064 0.83084 0.0
O100 O 0.97506 0.27221 0.85115 0.0
H101 H 0.93202 0.34426 0.892 0.0
H102 H 1.0206 0.26459 0.93341 0.0
N103 N 0.08287 0.32556 0.88767 0.0
N104 N 0.14941 0.33161 0.87066 0.0
C105 C 0.10856 0.32909 0.86293 0.0
C106 C 0.10868 0.32514 0.91234 0.0
C107 C 0.14987 0.32932 0.90185 0.0
C108 C 1.02694 0.40437 0.92575 0.0
O109 O 0.03235 0.3705 0.94256 0.0
H110 H 0.09716 0.33612 0.84002 0.0
H111 H 0.09844 0.32607 0.93625 0.0
O112 O 1.01809 0.3249 0.83859 0.0
H113 H 0.94414 0.24453 0.95505 0.0
H114 H 0.17742 0.33394 0.91609 0.0
Cu115 Cu 0.71869 0.55249 0.38544 0.0
N116 N 0.74507 0.51556 0.41292 0.0
N117 N 0.7578 0.45288 0.43461 0.0
C118 C 0.73328 0.47501 0.41511 0.0
C119 C 0.78626 0.48096 0.44529 0.0
C120 C 0.7782 0.51975 0.43194 0.0
O121 O 0.65805 0.54729 0.39466 0.0
C122 C 0.77472 0.52232 0.33815 0.0
O123 O 0.79097 0.49968 0.36045 0.0
H124 H 0.70819 0.46168 0.40138 0.0
H125 H 0.7958 0.54853 0.43525 0.0
N126 N 0.7306 0.60997 0.38965 0.0
N127 N 0.72229 0.67548 0.37156 0.0
C128 C 0.7278 0.63447 0.36442 0.0
C129 C 0.72766 0.63673 0.41396 0.0
C130 C 0.72214 0.67722 0.4028 0.0
C131 C 0.64893 0.55403 0.4232 0.0
O132 O 0.67947 0.5622 0.44262 0.0
H133 H 0.7238 0.6218 0.34131 0.0
H134 H 0.72535 0.62737 0.43792 0.0
O135 O 0.73951 0.54112 0.34297 0.0
H136 H 0.81138 0.47395 0.46129 0.0
H137 H 0.715 0.70507 0.41651 0.0
Cu138 Cu 0.50109 0.25462 0.89191 0.0
N139 N 0.54174 0.28275 0.91558 0.0
N140 N 0.60655 0.29716 0.93284 0.0
C141 C 0.58305 0.27325 0.91366 0.0
C142 C 0.57866 0.32293 0.94745 0.0
C143 C 0.53861 0.31381 0.93686 0.0
O144 O 0.50765 0.19479 0.90299 0.0
C145 C 0.51771 0.31083 0.84323 0.0
O146 O 0.53231 0.33341 0.86631 0.0
H147 H 0.59558 0.24959 0.8979 0.0
H148 H 0.50942 0.32873 0.94409 0.0
N149 N 0.44498 0.26729 0.90092 0.0
N150 N 0.37782 0.25814 0.88663 0.0
C151 C 0.41516 0.23949 0.89263 0.0
C152 C 0.42578 0.30517 0.90081 0.0
C153 C 0.38425 0.29959 0.89215 0.0
C154 C 0.50517 0.18937 0.93232 0.0
O155 O 0.4981 0.22243 0.95012 0.0
H156 H 0.42265 0.20725 0.88624 0.0
H157 H 0.44198 0.33499 0.90269 0.0
O158 O 0.50604 0.27289 0.84837 0.0
H159 H 0.5865 0.3464 0.96475 0.0
H160 H 0.36194 0.32453 0.88729 0.0
Cu161 Cu 0.80027 0.03307 0.39312 0.0
N162 N 0.76914 0.07243 0.41673 0.0
N163 N 0.75111 0.13707 0.43344 0.0
C164 C 0.77483 0.11416 0.41342 0.0
C165 C 0.72954 0.10841 0.45021 0.0
C166 C 0.74064 0.06844 0.43977 0.0
O167 O 0.85945 0.04054 0.40635 0.0
C168 C 0.74414 0.04685 0.34517 0.0
O169 O 0.71917 0.05071 0.36938 0.0
H170 H 0.79701 0.12732 0.39701 0.0
H171 H 0.7293 0.03873 0.4486 0.0
N172 N 0.78892 0.97574 0.39885 0.0
N173 N 0.80124 0.9104 0.38057 0.0
C174 C 0.78884 0.94994 0.37389 0.0
C175 C 0.80069 0.95108 0.42258 0.0
C176 C 0.80846 0.91083 0.41133 0.0
C177 C 0.86384 0.04305 0.43581 0.0
O178 O 0.83012 0.04088 0.45348 0.0
H179 H 0.78704 0.96148 0.35046 0.0
H180 H 0.80887 0.96251 0.44537 0.0
O181 O 0.78376 0.04173 0.34952 0.0
H182 H 0.70726 0.11574 0.46858 0.0
H183 H 0.82289 0.88534 0.42405 0.0
C184 C 0.05621 0.44991 0.96728 0.0
C185 C 0.02923 0.44598 0.94179 0.0
C186 C 0.05584 0.48598 0.98629 0.0
C187 C 1.02725 0.51919 0.98015 0.0
C188 C 1.00071 0.51612 0.95384 0.0
C189 C 1.00222 0.47962 0.93478 0.0
C190 C 0.08538 0.48791 1.01355 0.0
C191 C 0.9696 0.55064 0.94655 0.0
C192 C 1.00127 0.58701 0.05143 0.0
C193 C 1.02799 0.62171 0.04742 0.0
C194 C 0.99921 0.55448 0.02904 0.0
C195 C 1.02485 0.55623 1.00201 0.0
C196 C 0.05132 0.59154 0.99758 0.0
C197 C 0.05246 0.62376 1.02018 0.0
C198 C 0.97027 0.51767 0.03469 0.0
C199 C 0.07975 0.59457 0.9695 0.0
H200 H 0.07737 0.42414 0.97276 0.0
H201 H 0.98098 0.47661 0.91536 0.0
H202 H 0.10421 0.51726 1.01277 0.0
H203 H 0.06692 0.48856 0.03547 0.0
H204 H 0.10733 0.46056 1.01412 0.0
H205 H 0.95304 0.54485 0.92435 0.0
H206 H 0.9458 0.55305 0.96544 0.0
H207 H 0.98585 0.58146 0.94528 0.0
H208 H 0.98182 0.58531 0.07209 0.0
H209 H 0.07363 0.65003 1.0169 0.0
H210 H 0.98924 0.48867 0.0382 0.0
H211 H 0.95009 0.51217 1.01419 0.0
H212 H 0.94972 0.52265 0.05534 0.0
H213 H 0.10409 0.5694 0.97033 0.0
H214 H 0.09584 0.62553 0.96812 0.0
H215 H 0.06143 0.58961 0.94801 0.0
C216 C 0.48036 0.55082 0.55531 0.0
C217 C 0.43779 0.55647 0.54775 0.0
C218 C 0.51194 0.54956 0.53219 0.0
C219 C 0.50092 0.55442 0.50061 0.0
C220 C 0.45803 0.56026 0.49283 0.0
C221 C 0.4271 0.56111 0.51639 0.0
C222 C 0.55721 0.54307 0.54159 0.0
C223 C 0.44484 0.5661 0.45961 0.0
C224 C 0.59052 0.59273 0.44896 0.0
C225 C 0.60542 0.5551 0.4356 0.0
C226 C 0.55515 0.59327 0.46876 0.0
C227 C 0.53457 0.555 0.476 0.0
C228 C 0.54831 0.51712 0.46132 0.0
C229 C 0.58362 0.51763 0.44125 0.0
C230 C 0.54149 0.63449 0.48343 0.0
C231 C 0.52748 0.47561 0.46839 0.0
H232 H 0.48897 0.54665 0.57932 0.0
H233 H 0.39445 0.56607 0.51025 0.0
H234 H 0.5706 0.5151 0.52943 0.0
H235 H 0.57629 0.5707 0.53465 0.0
H236 H 0.56052 0.53856 0.56695 0.0
H237 H 0.41013 0.5692 0.45725 0.0
H238 H 0.45986 0.59475 0.45003 0.0
H239 H 0.45576 0.53897 0.44529 0.0
H240 H 0.60797 0.62157 0.44515 0.0
H241 H 0.59587 0.48832 0.43168 0.0
H242 H 0.54853 0.63402 0.50856 0.0
H243 H 0.50699 0.63898 0.48105 0.0
H244 H 0.55779 0.6619 0.47296 0.0
H245 H 0.53407 0.46677 0.49271 0.0
H246 H 0.53896 0.44986 0.4529 0.0
H247 H 0.49279 0.47837 0.4661 0.0
C248 C 0.47336 1.00161 0.0497 0.0
C249 C 0.50489 0.97046 0.04949 0.0
C250 C 0.47336 0.03434 1.02777 0.0
C251 C 0.50595 0.03645 1.00516 0.0
C252 C 0.5375 1.00474 1.00454 0.0
C253 C 0.53651 0.97219 1.02655 0.0
C254 C 0.43889 0.06723 0.02922 0.0
C255 C 0.57321 1.00597 0.98128 0.0
C256 C 0.49109 0.11125 0.93649 0.0
C257 C 0.51044 0.14791 0.94762 0.0
C258 C 0.48999 0.07428 0.95462 0.0
C259 C 0.50922 0.07394 0.98426 0.0
C260 C 0.53061 0.11037 0.99468 0.0
C261 C 0.53061 0.1468 0.97643 0.0
C262 C 0.46663 0.03626 0.9427 0.0
C263 C 0.5523 0.11148 1.02571 0.0
H264 H 0.4485 1.00029 0.06697 0.0
H265 H 0.56134 0.9487 1.02631 0.0
H266 H 0.45253 0.09824 0.03552 0.0
H267 H 0.42408 0.07065 1.00617 0.0
H268 H 0.41404 0.05939 0.04647 0.0
H269 H 0.59346 0.97737 0.98225 0.0
H270 H 0.56069 1.00901 0.95747 0.0
H271 H 0.59308 0.034 0.98579 0.0
H272 H 0.47494 0.11214 0.91447 0.0
H273 H 0.5457 0.17506 0.98512 0.0
H274 H 0.43861 0.03053 0.95758 0.0
H275 H 0.48691 1.00777 0.94389 0.0
H276 H 0.45601 0.04035 0.91844 0.0
H277 H 0.52859 0.10826 0.04454 0.0
H278 H 0.56992 0.14122 0.02949 0.0
H279 H 0.57459 0.08461 1.02761 0.0
C280 C 0.93981 1.02221 0.44446 0.0
C281 C 0.90496 0.04787 0.45165 0.0
C282 C 0.9749 1.02045 0.4645 0.0
C283 C 0.97505 0.04504 0.49215 0.0
C284 C 0.94077 0.07261 0.49839 0.0
C285 C 0.90631 0.07348 0.47823 0.0
C286 C 1.01077 0.99075 0.45687 0.0
C287 C 0.93953 0.09996 0.52717 0.0
C288 C 0.03441 1.0163 0.56577 0.0
C289 C 0.06683 0.04622 0.56591 0.0
C290 C 1.00586 1.01368 0.54092 0.0
C291 C 1.00981 0.04149 0.51544 0.0
C292 C 0.04411 0.06986 0.5146 0.0
C293 C 0.07202 0.07189 0.53975 0.0
C294 C 0.96992 0.98282 0.54282 0.0
C295 C 0.04999 0.09984 0.48794 0.0
H296 H 0.93861 1.00178 0.42427 0.0
H297 H 0.87937 0.09329 0.48393 0.0
H298 H 0.04145 1.00701 0.45931 0.0
H299 H 1.01056 0.9642 0.47346 0.0
H300 H 1.00845 0.97768 0.43301 0.0
H301 H 0.91156 0.12113 0.52788 0.0
H302 H 0.93884 0.07978 0.54805 0.0
H303 H 0.96832 0.11957 0.52847 0.0
H304 H 0.03002 0.99637 0.58579 0.0
H305 H 0.09751 0.09446 0.53925 0.0
H306 H 0.96712 0.96493 0.52077 0.0
H307 H 0.9399 1.00028 0.54651 0.0
H308 H 0.97389 0.96014 0.56209 0.0
H309 H 0.04722 0.08289 0.4655 0.0
H310 H 0.08101 0.11588 0.48868 0.0
H311 H 1.02484 0.12424 0.48875 0.0
C312 C 0.15995 0.80613 0.18374 0.0
C313 C 0.15061 0.76427 0.17545 0.0
C314 C 0.20177 0.82049 0.18601 0.0
C315 C 0.23573 0.79268 0.17931 0.0
C316 C 0.22664 0.75015 0.17131 0.0
C317 C 0.1843 0.73638 0.16975 0.0
C318 C 0.20955 0.86575 0.19528 0.0
C319 C 0.26166 0.71945 0.16365 0.0
C320 C 0.34083 0.84375 0.15614 0.0
C321 C 0.36432 0.84078 0.18351 0.0
C322 C 0.29946 0.82757 0.15428 0.0
C323 C 0.28051 0.80844 0.18053 0.0
C324 C 0.30392 0.80587 0.20831 0.0
C325 C 0.3454 0.82166 0.20938 0.0
C326 C 0.27608 0.83074 0.12407 0.0
C327 C 0.285 0.78666 0.23709 0.0
H328 H 0.13432 0.82802 0.18838 0.0
H329 H 0.17758 0.70413 0.16306 0.0
H330 H 0.23056 0.86703 0.21569 0.0
H331 H 0.22575 0.88247 0.17615 0.0
H332 H 0.17991 0.88293 0.20102 0.0
H333 H 0.24964 0.68743 0.15822 0.0
H334 H 0.27994 0.73096 0.14342 0.0
H335 H 0.28376 0.71722 0.18336 0.0
H336 H 0.35507 0.85801 0.1359 0.0
H337 H 0.36304 0.81912 0.23069 0.0
H338 H 0.24717 0.85007 0.12734 0.0
H339 H 0.266 0.79893 0.11635 0.0
H340 H 0.29555 0.84504 0.10546 0.0
H341 H 0.25605 0.8042 0.24396 0.0
H342 H 0.30717 0.78697 0.25688 0.0
H343 H 0.27565 0.75362 0.23235 0.0
C344 C 0.31444 0.73075 0.62742 0.0
C345 C 0.31832 0.7026 0.65226 0.0
C346 C 0.29778 0.77168 0.63156 0.0
C347 C 0.28357 0.78507 0.66125 0.0
C348 C 0.28761 0.75692 0.68654 0.0
C349 C 0.30529 0.71629 0.68183 0.0
C350 C 0.29524 0.80059 0.604 0.0
C351 C 0.27241 0.76942 0.7185 0.0
C352 C 0.27369 0.90373 0.67735 0.0
C353 C 0.23065 0.91169 0.6723 0.0
C354 C 0.29115 0.86299 0.67387 0.0
C355 C 0.26499 0.82863 0.66567 0.0
C356 C 0.22142 0.83635 0.66071 0.0
C357 C 0.20491 0.87769 0.66376 0.0
C358 C 0.33783 0.85682 0.6787 0.0
C359 C 0.19213 0.80078 0.65236 0.0
H360 H 0.32448 0.72072 0.60447 0.0
H361 H 0.30765 0.69478 0.70113 0.0
H362 H 0.2619 0.80902 0.5995 0.0
H363 H 0.31224 0.83034 0.60894 0.0
H364 H 0.30887 0.78605 0.58268 0.0
H365 H 0.27741 0.74405 0.73571 0.0
H366 H 0.28911 0.79812 0.72645 0.0
H367 H 0.23831 0.77724 0.71783 0.0
H368 H 0.29406 0.92961 0.68384 0.0
H369 H 0.17161 0.88322 0.66004 0.0
H370 H 0.35256 0.84371 0.65731 0.0
H371 H 0.34326 0.83374 0.69744 0.0
H372 H 0.354 0.88669 0.68483 0.0
H373 H 0.20201 0.78639 0.62997 0.0
H374 H 0.15888 0.81147 0.65043 0.0
H375 H 0.19387 0.77576 0.67014 0.0
C376 C 0.67438 0.25862 0.92893 0.0
C377 C 0.65194 0.2958 0.9359 0.0
C378 C 0.71863 0.25745 0.9294 0.0
C379 C 0.7413 0.2943 0.93719 0.0
C380 C 0.71891 0.33154 0.94538 0.0
C381 C 0.67455 0.33185 0.94463 0.0
C382 C 0.74114 0.21704 0.92058 0.0
C383 C 0.74184 0.3715 0.95389 0.0
C384 C 0.8581 0.28301 0.95659 0.0
C385 C 0.87734 0.29411 0.92846 0.0
C386 C 0.8139 0.28335 0.95998 0.0
C387 C 0.78831 0.29462 0.93452 0.0
C388 C 0.80763 0.30548 0.90603 0.0
C389 C 0.85174 0.30518 0.9034 0.0
C390 C 0.79456 0.27184 0.99079 0.0
C391 C 0.78166 0.31712 0.87815 0.0
H392 H 0.65731 0.23033 0.92284 0.0
H393 H 0.65765 0.36077 0.94989 0.0
H394 H 0.75954 0.22177 0.89894 0.0
H395 H 0.76377 0.20808 0.93888 0.0
H396 H 0.71898 0.1905 0.91687 0.0
H397 H 0.72001 0.39674 0.96207 0.0
H398 H 0.76519 0.36516 0.9723 0.0
H399 H 0.75949 0.3832 0.93343 0.0
H400 H 0.87767 0.27476 0.97611 0.0
H401 H 0.86626 0.31303 0.88142 0.0
H402 H 0.77358 0.24424 0.98795 0.0
H403 H 0.77482 0.29832 0.99962 0.0
H404 H 0.81873 0.26423 1.00839 0.0
H405 H 0.7608 0.29053 0.87175 0.0
H406 H 0.80152 0.32511 0.85774 0.0
H407 H 0.76111 0.34453 0.88378 0.0
C408 C 0.79196 0.38465 0.44718 0.0
C409 C 0.75566 0.40794 0.44 0.0
C410 C 0.79087 0.34036 0.44907 0.0
C411 C 0.7526 0.31875 0.44359 0.0
C412 C 0.7155 0.34222 0.43772 0.0
C413 C 0.71746 0.38637 0.43613 0.0
C414 C 0.8311 0.31659 0.45558 0.0
C415 C 0.674 0.32061 0.43181 0.0
C416 C 0.75885 0.20758 0.41022 0.0
C417 C 0.75024 0.18255 0.43617 0.0
C418 C 0.75981 0.25173 0.41242 0.0
C419 C 0.75198 0.2717 0.44134 0.0
C420 C 0.74293 0.24673 0.46764 0.0
C421 C 0.74203 0.20246 0.46473 0.0
C422 C 0.76912 0.27704 0.38369 0.0
C423 C 0.73454 0.26676 0.49889 0.0
H424 H 0.82164 0.40083 0.45009 0.0
H425 H 0.68902 0.40404 0.4313 0.0
H426 H 0.82595 0.29347 0.47437 0.0
H427 H 0.84097 0.29862 0.4346 0.0
H428 H 0.85717 0.33794 0.46233 0.0
H429 H 0.64747 0.34337 0.42988 0.0
H430 H 0.67613 0.30207 0.40996 0.0
H431 H 0.66675 0.2982 0.4507 0.0
H432 H 0.7645 0.1926 0.38796 0.0
H433 H 0.73577 0.18341 0.48494 0.0
H434 H 0.79734 0.2969 0.38741 0.0
H435 H 0.74236 0.29854 0.37881 0.0
H436 H 0.77477 0.25672 0.363 0.0
H437 H 0.76215 0.28572 0.50604 0.0
H438 H 0.72794 0.24303 0.51707 0.0
H439 H 0.70725 0.28862 0.49749 0.0
C440 C 0.8399 0.51116 0.30609 0.0
C441 C 0.80284 0.53439 0.31183 0.0
C442 C 0.87198 0.52656 0.28664 0.0
C443 C 0.86722 0.56641 0.27248 0.0
C444 C 0.82866 0.58874 0.27642 0.0
C445 C 0.79691 0.57242 0.29595 0.0
C446 C 0.91215 0.50131 0.28289 0.0
C447 C 0.82193 0.63126 0.26178 0.0
C448 C 0.96844 0.62822 0.25841 0.0
C449 C 0.97535 0.62263 0.22647 0.0
C450 C 0.93321 0.61062 0.2734 0.0
C451 C 0.90408 0.58623 0.25625 0.0
C452 C 0.91109 0.57994 0.22408 0.0
C453 C 0.94646 0.59831 0.20957 0.0
C454 C 0.92695 0.61856 0.30766 0.0
C455 C 0.88097 0.55415 0.20493 0.0
H456 H 0.8448 0.48162 0.31805 0.0
H457 H 0.76856 0.59077 0.30017 0.0
H458 H 0.92116 0.49872 0.25808 0.0
H459 H 0.93815 0.51768 0.29502 0.0
H460 H 0.90922 0.46907 0.29252 0.0
H461 H 0.78835 0.64129 0.2628 0.0
H462 H 0.84093 0.65512 0.27422 0.0
H463 H 0.83258 0.63094 0.23725 0.0
H464 H 0.99008 0.64733 0.27172 0.0
H465 H 0.95117 0.59401 0.18486 0.0
H466 H 0.92657 0.58817 0.32021 0.0
H467 H 0.89605 0.63415 0.31186 0.0
H468 H 0.95205 0.63871 0.31761 0.0
H469 H 0.87862 0.52182 0.2144 0.0
H470 H 0.89088 0.55195 0.18023 0.0
H471 H 0.84899 0.56834 0.20616 0.0
C472 C 0.42992 0.48823 0.73333 0.0
C473 C 0.43719 0.48293 0.70146 0.0
C474 C 0.44356 0.45773 0.75473 0.0
C475 C 0.46613 0.42159 0.74418 0.0
C476 C 0.47442 0.41669 0.71209 0.0
C477 C 0.45954 0.4471 0.69118 0.0
C478 C 0.43265 0.46349 0.78857 0.0
C479 C 0.49823 0.37882 0.69977 0.0
C480 C 0.5331 0.36773 0.80535 0.0
C481 C 0.50818 0.33322 0.81392 0.0
C482 C 0.5206 0.39545 0.78184 0.0
C483 C 0.48154 0.38936 0.76683 0.0
C484 C 0.457 0.35341 0.77443 0.0
C485 C 0.47088 0.32554 0.79765 0.0
C486 C 0.54869 0.43211 0.77376 0.0
C487 C 0.41576 0.34412 0.75864 0.0
H488 H 0.41186 0.51525 0.74146 0.0
H489 H 0.46494 0.44249 0.66656 0.0
H490 H 0.41594 0.43521 0.79725 0.0
H491 H 0.46192 0.46683 0.80224 0.0
H492 H 0.41245 0.49165 0.79285 0.0
H493 H 0.50443 0.38085 0.67447 0.0
H494 H 0.52876 0.37553 0.71191 0.0
H495 H 0.47979 0.34986 0.70434 0.0
H496 H 0.56203 0.37383 0.81779 0.0
H497 H 0.45123 0.29917 0.80426 0.0
H498 H 0.533 0.46211 0.78056 0.0
H499 H 0.55424 0.43308 0.74837 0.0
H500 H 0.57964 0.43038 0.78556 0.0
H501 H 0.40093 0.37258 0.74864 0.0
H502 H 0.39308 0.32945 0.77503 0.0
H503 H 0.42161 0.32117 0.73956 0.0
C504 C 0.60773 0.99457 0.19209 0.0
C505 C 0.57426 0.96923 0.20226 0.0
C506 C 0.63784 1.01045 0.21287 0.0
C507 C 0.63523 0.99991 0.24464 0.0
C508 C 0.60122 0.97464 0.25512 0.0
C509 C 0.57087 0.96009 0.23391 0.0
C510 C 0.67283 0.03798 0.20071 0.0
C511 C 0.59758 0.96193 0.28865 0.0
C512 C 0.73267 1.00504 0.2964 0.0
C513 C 0.72362 0.04065 0.3147 0.0
C514 C 0.70477 0.99188 0.27294 0.0
C515 C 0.66764 1.01562 0.26705 0.0
C516 C 0.66029 0.05337 0.28395 0.0
C517 C 0.68796 0.06503 0.30778 0.0
C518 C 0.71386 0.95133 0.25563 0.0
C519 C 0.62192 0.08035 0.27804 0.0
H520 H 0.61071 1.00158 0.16763 0.0
H521 H 0.54563 0.93988 0.24188 0.0
H522 H 0.67394 0.06795 0.21407 0.0
H523 H 0.7036 1.02191 0.20375 0.0
H524 H 0.66897 0.04543 0.17579 0.0
H525 H 0.57053 0.94058 0.29288 0.0
H526 H 0.62693 0.9458 0.29597 0.0
H527 H 0.59369 0.99038 0.30348 0.0
H528 H 0.7598 0.98573 0.30188 0.0
H529 H 0.68064 0.09239 0.32205 0.0
H530 H 0.71933 0.9581 0.23077 0.0
H531 H 0.68628 0.93009 0.25711 0.0
H532 H 0.74192 0.93458 0.26476 0.0
H533 H 0.61879 0.08665 0.25291 0.0
H534 H 0.62318 0.11095 0.29066 0.0
H535 H 0.59319 0.06336 0.28558 0.0
C536 C 0.05523 0.26795 0.79179 0.0
C537 C 1.01394 0.26497 0.80354 0.0
C538 C 0.07271 0.23571 0.77286 0.0
C539 C 0.04824 0.19983 0.76526 0.0
C540 C 1.00523 0.19909 0.77433 0.0
C541 C 0.98877 0.23141 0.79337 0.0
C542 C 0.11847 0.23854 0.76357 0.0
C543 C 0.97741 0.16215 0.76634 0.0
C544 C 0.07829 0.10797 0.71135 0.0
C545 C 0.08789 0.07676 0.73305 0.0
C546 C 0.06865 0.14963 0.72107 0.0
C547 C 0.06848 0.16 0.75315 0.0
C548 C 0.08209 0.12933 0.77461 0.0
C549 C 0.0913 0.08825 0.76433 0.0
C550 C 0.05529 0.18142 0.69727 0.0
C551 C 0.08282 0.13848 0.80897 0.0
H552 H 0.07506 0.29371 0.79917 0.0
H553 H 0.95669 0.22896 0.80196 0.0
H554 H 0.13801 0.22357 0.78167 0.0
H555 H 0.12495 0.22206 0.74129 0.0
H556 H 0.12834 0.27193 0.76152 0.0
H557 H 0.94364 0.16885 0.77136 0.0
H558 H 0.98085 0.15364 0.74149 0.0
H559 H 0.98712 0.13436 0.78008 0.0
H560 H 0.07487 0.09913 0.68722 0.0
H561 H 0.09849 0.06413 0.7812 0.0
H562 H 0.06863 0.2129 0.70258 0.0
H563 H 1.02045 0.18451 0.69772 0.0
H564 H 0.06523 0.17175 0.67352 0.0
H565 H 0.09606 0.17012 0.81373 0.0
H566 H 0.10153 0.11463 0.82172 0.0
H567 H 0.0501 0.13815 0.81821 0.0
C568 C 0.18402 0.33216 0.81969 0.0
C569 C 0.18114 0.34796 0.85005 0.0
C570 C 0.20512 0.35462 0.79641 0.0
C571 C 0.22321 0.39416 0.80359 0.0
C572 C 0.22365 0.40839 0.83477 0.0
C573 C 0.20269 0.385 0.85772 0.0
C574 C 0.20538 0.33748 0.76373 0.0
C575 C 0.24356 0.44986 0.84347 0.0
C576 C 0.29022 0.44863 0.74217 0.0
C577 C 0.26058 0.47536 0.72816 0.0
C578 C 0.27894 0.42252 0.76706 0.0
C579 C 0.23681 0.42268 0.77807 0.0
C580 C 0.2068 0.44965 0.76411 0.0
C581 C 0.21902 0.47555 0.7394 0.0
C582 C 0.31211 0.39408 0.78071 0.0
C583 C 0.16162 0.45118 0.77534 0.0
H584 H 0.16746 0.30341 0.81384 0.0
H585 H 0.20019 0.39745 0.88109 0.0
H586 H 0.18177 0.3548 0.74982 0.0
H587 H 0.23668 0.34197 0.75266 0.0
H588 H 0.1976 0.30343 0.76299 0.0
H589 H 0.24501 0.45448 0.86897 0.0
H590 H 0.27596 0.4517 0.83374 0.0
H591 H 0.22501 0.47609 0.83343 0.0
H592 H 0.32229 0.44758 0.73344 0.0
H593 H 0.19604 0.49645 0.72916 0.0
H594 H 0.30622 0.38754 0.80557 0.0
H595 H 0.34393 0.40814 0.77828 0.0
H596 H 0.31217 0.36358 0.76798 0.0
H597 H 0.14694 0.41973 0.77247 0.0
H598 H 0.14244 0.47466 0.76261 0.0
H599 H 0.16053 0.4592 0.80039 0.0
C600 C 0.72403 0.70901 0.32042 0.0
C601 C 0.7061 0.70601 0.35009 0.0
C602 C 0.70321 0.7305 0.29661 0.0
C603 C 0.66294 0.74838 0.3024 0.0
C604 C 0.64638 0.74847 0.33297 0.0
C605 C 0.66825 0.72736 0.35653 0.0
C606 C 0.72322 0.73207 0.26485 0.0
C607 C 0.60436 0.76869 0.34033 0.0
C608 C 0.61036 0.8173 0.24144 0.0
C609 C 0.58451 0.78811 0.22609 0.0
C610 C 0.63614 0.80515 0.26623 0.0
C611 C 0.63626 0.76263 0.27603 0.0
C612 C 0.61031 0.73302 0.26059 0.0
C613 C 0.58491 0.74606 0.23588 0.0
C614 C 0.6628 0.83857 0.28139 0.0
C615 C 0.60899 0.68745 0.27044 0.0
H616 H 0.7535 0.69278 0.31555 0.0
H617 H 0.65424 0.72495 0.3794 0.0
H618 H 0.70572 0.71115 0.2488 0.0
H619 H 0.72146 0.76457 0.25556 0.0
H620 H 0.75675 0.72184 0.26512 0.0
H621 H 0.59725 0.76884 0.36556 0.0
H622 H 0.60389 0.80164 0.33187 0.0
H623 H 0.57901 0.75135 0.32816 0.0
H624 H 0.61091 0.84981 0.23398 0.0
H625 H 0.56469 0.72334 0.22462 0.0
H626 H 0.68314 0.82658 0.30017 0.0
H627 H 0.64201 0.86372 0.29104 0.0
H628 H 0.68306 0.85342 0.26353 0.0
H629 H 0.6409 0.67322 0.26841 0.0
H630 H 0.58689 0.66844 0.25629 0.0
H631 H 0.59919 0.68546 0.29512 0.0
C632 C 0.32419 0.26149 0.84521 0.0
C633 C 0.34471 0.2389 0.8686 0.0
C634 C 0.29891 0.24078 0.82325 0.0
C635 C 0.29413 0.19644 0.82459 0.0
C636 C 0.31198 0.17407 0.84959 0.0
C637 C 0.33687 0.19557 0.87128 0.0
C638 C 0.27982 0.26597 0.79737 0.0
C639 C 0.30732 0.1269 0.8522 0.0
C640 C 0.21659 0.13927 0.77156 0.0
C641 C 0.24312 0.12649 0.74703 0.0
C642 C 0.23249 0.1623 0.79697 0.0
C643 C 0.27585 0.17277 0.79783 0.0
C644 C 0.30265 0.15972 0.77318 0.0
C645 C 0.28601 0.13684 0.74823 0.0
C646 C 0.2028 0.17596 0.8226 0.0
C647 C 0.34916 0.16975 0.77319 0.0
H648 H 0.33002 0.2949 0.84276 0.0
H649 H 0.35202 0.17807 0.88959 0.0
H650 H 0.29681 0.25888 0.77538 0.0
H651 H 0.24638 0.2571 0.79411 0.0
H652 H 0.28161 0.30042 0.80186 0.0
H653 H 0.3189 0.11492 0.87473 0.0
H654 H 0.27386 0.1177 0.84952 0.0
H655 H 0.32553 0.11122 0.83331 0.0
H656 H 0.18331 0.13194 0.77061 0.0
H657 H 0.30686 0.12658 0.72968 0.0
H658 H 0.19728 0.21043 0.82112 0.0
H659 H 0.21662 0.1696 0.84563 0.0
H660 H 0.17202 0.15971 0.8211 0.0
H661 H 0.35377 0.20435 0.77449 0.0
H662 H 0.36568 0.15753 0.75219 0.0
H663 H 0.36421 0.15585 0.7939 0.0
C664 C 0.92177 0.83966 0.23162 0.0
C665 C 0.92776 0.79647 0.22613 0.0
C666 C 0.89927 0.85423 0.25778 0.0
C667 C 0.88164 0.82491 0.27883 0.0
C668 C 0.88696 0.78117 0.27311 0.0
C669 C 0.91004 0.76752 0.24692 0.0
C670 C 0.89509 0.90113 0.26324 0.0
C671 C 0.86787 0.74863 0.29429 0.0
C672 C 0.86054 0.86797 0.36003 0.0
C673 C 0.8186 0.88161 0.35779 0.0
C674 C 0.88097 0.84785 0.33494 0.0
C675 C 0.8587 0.8405 0.30709 0.0
C676 C 0.81548 0.85156 0.30553 0.0
C677 C 0.79612 0.87254 0.33073 0.0
C678 C 0.92707 0.83668 0.3376 0.0
C679 C 0.79019 0.84279 0.27678 0.0
H680 H 0.93571 0.86212 0.21584 0.0
H681 H 0.91391 0.73406 0.24251 0.0
H682 H 0.86132 0.91028 0.26418 0.0
H683 H 0.90905 0.90969 0.28591 0.0
H684 H 0.91088 0.91977 0.24486 0.0
H685 H 0.88243 0.71707 0.29067 0.0
H686 H 0.87139 0.75768 0.31899 0.0
H687 H 0.83364 0.74619 0.28954 0.0
H688 H 0.87821 0.87557 0.38069 0.0
H689 H 0.76374 0.88322 0.32898 0.0
H690 H 0.94569 0.85591 0.3211 0.0
H691 H 0.93228 0.80309 0.33131 0.0
H692 H 0.93927 0.84224 0.36133 0.0
H693 H 0.80284 0.86132 0.25713 0.0
H694 H 0.75643 0.85093 0.27999 0.0
H695 H 0.79286 0.80896 0.27032 0.0
loop_
_geom_bond_atom_site_label_1
_geom_bond_atom_site_label_2
_geom_bond_distance
_geom_bond_site_symmetry_2
_ccdc_geom_bond_type
Cu0 N1 1.999 . S
Cu0 O6 1.974 . S
Cu0 N11 1.983 1_655 S
Cu0 O20 1.959 1_655 S
N1 Cu0 1.999 . S
N1 C3 1.263 . S
N1 C5 1.389 . S
N2 C3 1.358 . S
N2 C4 1.400 . S
C3 N1 1.263 . S
C3 N2 1.358 . S
C3 H9 0.930 . S
C4 N2 1.400 . S
C4 C5 1.351 . S
C4 H21 0.930 . S
C5 N1 1.389 . S
C5 C4 1.351 . S
C5 H10 0.930 1_655 S
O6 Cu0 1.974 . S
O6 C16 1.282 . S
C7 O8 1.261 . S
C7 O20 1.251 . S
O8 C7 1.261 . S
H9 C3 0.930 . S
H10 C5 0.930 1_455 S
N11 Cu0 1.983 1_455 S
N11 C13 1.341 . S
N11 C14 1.386 1_455 S
N12 C13 1.345 . S
N12 C15 1.333 1_455 S
C13 N11 1.341 . S
C13 N12 1.345 . S
C13 H18 0.930 . S
C14 N11 1.386 1_655 S
C14 C15 1.348 . S
C14 H19 0.930 . S
C15 N12 1.333 1_655 S
C15 C14 1.348 . S
C15 H22 0.930 . S
C16 O6 1.282 . S
C16 O17 1.216 . S
O17 C16 1.216 . S
H18 C13 0.930 . S
H19 C14 0.930 . S
O20 Cu0 1.959 1_455 S
O20 C7 1.251 . S
H21 C4 0.930 . S
H22 C15 0.930 . S
Cu23 N24 1.999 . S
Cu23 O29 1.974 . S
Cu23 N34 1.985 . S
Cu23 O43 1.959 . S
N24 Cu23 1.999 . S
N24 C26 1.263 . S
N24 C28 1.389 . S
N25 C26 1.358 . S
N25 C27 1.400 . S
C26 N24 1.263 . S
C26 N25 1.358 . S
C26 H32 0.930 . S
C27 N25 1.400 . S
C27 C28 1.351 . S
C27 H44 0.930 . S
C28 N24 1.389 . S
C28 C27 1.351 . S
C28 H33 0.930 . S
O29 Cu23 1.974 . S
O29 C39 1.282 . S
C30 O31 1.261 . S
C30 O43 1.251 . S
O31 C30 1.261 . S
H32 C26 0.930 . S
H33 C28 0.930 . S
N34 Cu23 1.985 . S
N34 C36 1.335 . S
N34 C37 1.390 . S
N35 C36 1.345 . S
N35 C38 1.336 . S
C36 N34 1.335 . S
C36 N35 1.345 . S
C36 H41 0.930 . S
C37 N34 1.390 . S
C37 C38 1.346 . S
C37 H42 0.930 . S
C38 N35 1.336 . S
C38 C37 1.346 . S
C38 H45 0.929 . S
C39 O29 1.282 . S
C39 O40 1.216 . S
O40 C39 1.216 . S
H41 C36 0.930 . S
H42 C37 0.930 . S
O43 Cu23 1.959 . S
O43 C30 1.251 . S
H44 C27 0.930 . S
H45 C38 0.929 . S
Cu46 N47 1.999 . S
Cu46 O52 1.974 . S
Cu46 N57 1.985 . S
Cu46 O66 1.959 . S
N47 Cu46 1.999 . S
N47 C49 1.263 . S
N47 C51 1.389 . S
N48 C49 1.358 . S
N48 C50 1.400 . S
C49 N47 1.263 . S
C49 N48 1.358 . S
C49 H55 0.930 . S
C50 N48 1.400 . S
C50 C51 1.351 . S
C50 H67 0.930 . S
C51 N47 1.389 . S
C51 C50 1.351 . S
C51 H56 0.930 . S
O52 Cu46 1.974 . S
O52 C62 1.282 . S
C53 O54 1.261 . S
C53 O66 1.251 . S
O54 C53 1.261 . S
H55 C49 0.930 . S
H56 C51 0.930 . S
N57 Cu46 1.985 . S
N57 C59 1.335 . S
N57 C60 1.390 . S
N58 C59 1.345 . S
N58 C61 1.336 . S
C59 N57 1.335 . S
C59 N58 1.345 . S
C59 H64 0.930 . S
C60 N57 1.390 . S
C60 C61 1.346 . S
C60 H65 0.930 . S
C61 N58 1.336 . S
C61 C60 1.346 . S
C61 H68 0.929 . S
C62 O52 1.282 . S
C62 O63 1.216 . S
O63 C62 1.216 . S
H64 C59 0.930 . S
H65 C60 0.930 . S
O66 Cu46 1.959 . S
O66 C53 1.251 . S
H67 C50 0.930 . S
H68 C61 0.929 . S
Cu69 N70 1.999 . S
Cu69 O75 1.974 . S
Cu69 N80 1.982 1_545 S
Cu69 O89 1.959 1_545 S
N70 Cu69 1.999 . S
N70 C72 1.263 . S
N70 C74 1.389 . S
N71 C72 1.358 . S
N71 C73 1.400 . S
C72 N70 1.263 . S
C72 N71 1.358 . S
C72 H78 0.930 . S
C73 N71 1.400 . S
C73 C74 1.351 . S
C73 H90 0.930 . S
C74 N70 1.389 . S
C74 C73 1.351 . S
C74 H79 0.930 1_545 S
O75 Cu69 1.974 . S
O75 C85 1.282 . S
C76 O77 1.261 . S
C76 O89 1.251 . S
O77 C76 1.261 . S
H78 C72 0.930 . S
H79 C74 0.930 1_565 S
N80 Cu69 1.982 1_565 S
N80 C82 1.344 . S
N80 C83 1.384 1_565 S
N81 C82 1.345 . S
N81 C84 1.337 1_565 S
C82 N80 1.344 . S
C82 N81 1.345 . S
C82 H87 0.930 . S
C83 N80 1.384 1_545 S
C83 C84 1.346 . S
C83 H88 0.930 . S
C84 N81 1.337 1_545 S
C84 C83 1.346 . S
C84 H91 0.929 . S
C85 O75 1.282 . S
C85 O86 1.216 . S
O86 C85 1.216 . S
H87 C82 0.930 . S
H88 C83 0.930 . S
O89 Cu69 1.959 1_565 S
O89 C76 1.251 . S
H90 C73 0.930 . S
H91 C84 0.929 . S
Cu92 N93 1.999 . S
Cu92 O98 1.974 . S
Cu92 N103 1.985 1_655 S
Cu92 O112 1.959 1_655 S
N93 Cu92 1.999 . S
N93 C95 1.263 . S
N93 C97 1.389 . S
N94 C95 1.358 . S
N94 C96 1.400 . S
C95 N93 1.263 . S
C95 N94 1.358 . S
C95 H101 0.930 . S
C96 N94 1.400 . S
C96 C97 1.351 . S
C96 H113 0.930 . S
C97 N93 1.389 . S
C97 C96 1.351 . S
C97 H102 0.930 . S
O98 Cu92 1.974 . S
O98 C108 1.282 . S
C99 O100 1.261 . S
C99 O112 1.251 . S
O100 C99 1.261 . S
H101 C95 0.930 . S
H102 C97 0.930 . S
N103 Cu92 1.985 1_455 S
N103 C105 1.335 . S
N103 C106 1.390 . S
N104 C105 1.345 . S
N104 C107 1.336 . S
C105 N103 1.335 . S
C105 N104 1.345 . S
C105 H110 0.930 . S
C106 N103 1.390 . S
C106 C107 1.346 . S
C106 H111 0.930 . S
C107 N104 1.336 . S
C107 C106 1.346 . S
C107 H114 0.929 . S
C108 O98 1.282 . S
C108 O109 1.216 1_655 S
O109 C108 1.216 1_455 S
H110 C105 0.930 . S
H111 C106 0.930 . S
O112 Cu92 1.959 1_455 S
O112 C99 1.251 . S
H113 C96 0.930 . S
H114 C107 0.929 . S
Cu115 N116 1.999 . S
Cu115 O121 1.974 . S
Cu115 N126 1.985 . S
Cu115 O135 1.959 . S
N116 Cu115 1.999 . S
N116 C118 1.263 . S
N116 C120 1.389 . S
N117 C118 1.358 . S
N117 C119 1.400 . S
C118 N116 1.263 . S
C118 N117 1.358 . S
C118 H124 0.930 . S
C119 N117 1.400 . S
C119 C120 1.351 . S
C119 H136 0.930 . S
C120 N116 1.389 . S
C120 C119 1.351 . S
C120 H125 0.930 . S
O121 Cu115 1.974 . S
O121 C131 1.282 . S
C122 O123 1.261 . S
C122 O135 1.251 . S
O123 C122 1.261 . S
H124 C118 0.930 . S
H125 C120 0.930 . S
N126 Cu115 1.985 . S
N126 C128 1.335 . S
N126 C129 1.390 . S
N127 C128 1.345 . S
N127 C130 1.336 . S
C128 N126 1.335 . S
C128 N127 1.345 . S
C128 H133 0.930 . S
C129 N126 1.390 . S
C129 C130 1.346 . S
C129 H134 0.930 . S
C130 N127 1.336 . S
C130 C129 1.346 . S
C130 H137 0.929 . S
C131 O121 1.282 . S
C131 O132 1.216 . S
O132 C131 1.216 . S
H133 C128 0.930 . S
H134 C129 0.930 . S
O135 Cu115 1.959 . S
O135 C122 1.251 . S
H136 C119 0.930 . S
H137 C130 0.929 . S
Cu138 N139 1.999 . S
Cu138 O144 1.974 . S
Cu138 N149 1.985 . S
Cu138 O158 1.959 . S
N139 Cu138 1.999 . S
N139 C141 1.263 . S
N139 C143 1.389 . S
N140 C141 1.358 . S
N140 C142 1.400 . S
C141 N139 1.263 . S
C141 N140 1.358 . S
C141 H147 0.930 . S
C142 N140 1.400 . S
C142 C143 1.351 . S
C142 H159 0.930 . S
C143 N139 1.389 . S
C143 C142 1.351 . S
C143 H148 0.930 . S
O144 Cu138 1.974 . S
O144 C154 1.282 . S
C145 O146 1.261 . S
C145 O158 1.251 . S
O146 C145 1.261 . S
H147 C141 0.930 . S
H148 C143 0.930 . S
N149 Cu138 1.985 . S
N149 C151 1.335 . S
N149 C152 1.390 . S
N150 C151 1.345 . S
N150 C153 1.336 . S
C151 N149 1.335 . S
C151 N150 1.345 . S
C151 H156 0.930 . S
C152 N149 1.390 . S
C152 C153 1.346 . S
C152 H157 0.930 . S
C153 N150 1.336 . S
C153 C152 1.346 . S
C153 H160 0.929 . S
C154 O144 1.282 . S
C154 O155 1.216 . S
O155 C154 1.216 . S
H156 C151 0.930 . S
H157 C152 0.930 . S
O158 Cu138 1.959 . S
O158 C145 1.251 . S
H159 C142 0.930 . S
H160 C153 0.929 . S
Cu161 N162 1.999 . S
Cu161 O167 1.974 . S
Cu161 N172 1.985 1_545 S
Cu161 O181 1.958 1_545 S
N162 Cu161 1.999 . S
N162 C164 1.263 . S
N162 C166 1.389 . S
N163 C164 1.358 . S
N163 C165 1.400 . S
C164 N162 1.263 . S
C164 N163 1.358 . S
C164 H170 0.930 . S
C165 N163 1.400 . S
C165 C166 1.351 . S
C165 H182 0.930 . S
C166 N162 1.389 . S
C166 C165 1.351 . S
C166 H171 0.930 . S
O167 Cu161 1.974 . S
O167 C177 1.282 . S
C168 O169 1.261 . S
C168 O181 1.254 . S
O169 C168 1.261 . S
H170 C164 0.930 . S
H171 C166 0.930 . S
N172 Cu161 1.985 1_565 S
N172 C174 1.335 . S
N172 C175 1.390 . S
N173 C174 1.345 . S
N173 C176 1.336 . S
C174 N172 1.335 . S
C174 N173 1.345 . S
C174 H179 0.930 . S
C175 N172 1.390 . S
C175 C176 1.346 . S
C175 H180 0.930 . S
C176 N173 1.336 . S
C176 C175 1.346 . S
C176 H183 0.929 . S
C177 O167 1.282 . S
C177 O178 1.216 1_545 S
O178 C177 1.216 1_565 S
H179 C174 0.930 . S
H180 C175 0.930 . S
O181 Cu161 1.958 1_565 S
O181 C168 1.254 . S
H182 C165 0.930 . S
H183 C176 0.929 . S
C184 C185 1.391 1_455 S
C184 C186 1.394 . S
C184 H200 0.931 . S
C185 C184 1.391 1_655 S
C185 C189 1.376 . S
C186 C184 1.394 . S
C186 C187 1.369 . S
C186 C190 1.531 1_556 S
C187 C186 1.369 . S
C187 C188 1.410 1_455 S
C187 C195 1.522 . S
C188 C187 1.410 1_655 S
C188 C189 1.392 . S
C188 C191 1.511 . S
C189 C185 1.376 . S
C189 C188 1.392 . S
C189 H201 0.929 . S
C190 C186 1.531 1_554 S
C190 H202 0.960 . S
C190 H203 0.962 . S
C190 H204 0.960 . S
C191 C188 1.511 . S
C191 H205 0.961 . S
C191 H206 0.961 . S
C191 H207 0.961 . S
C192 C193 1.370 1_655 S
C192 C194 1.363 . S
C192 H208 0.931 . S
C193 C192 1.370 1_455 S
C193 C197 1.408 . S
C194 C192 1.363 . S
C194 C195 1.351 1_654 S
C194 C198 1.524 . S
C195 C187 1.522 . S
C195 C194 1.351 1_456 S
C195 C196 1.405 . S
C196 C195 1.405 . S
C196 C197 1.404 1_556 S
C196 C199 1.539 . S
C197 C193 1.408 . S
C197 C196 1.404 1_554 S
C197 H209 0.930 . S
C198 C194 1.524 . S
C198 H210 0.956 . S
C198 H211 0.961 . S
C198 H212 0.961 . S
C199 C196 1.539 . S
C199 H213 0.958 . S
C199 H214 0.961 . S
C199 H215 0.960 . S
H200 C184 0.931 . S
H201 C189 0.929 . S
H202 C190 0.960 . S
H203 C190 0.962 . S
H204 C190 0.960 . S
H205 C191 0.961 . S
H206 C191 0.961 . S
H207 C191 0.961 . S
H208 C192 0.931 . S
H209 C197 0.930 . S
H210 C198 0.956 . S
H211 C198 0.961 . S
H212 C198 0.961 . S
H213 C199 0.958 . S
H214 C199 0.961 . S
H215 C199 0.960 . S
C216 C217 1.391 . S
C216 C218 1.394 . S
C216 H232 0.931 . S
C217 C216 1.391 . S
C217 C221 1.376 . S
C218 C216 1.394 . S
C218 C219 1.369 . S
C218 C222 1.531 . S
C219 C218 1.369 . S
C219 C220 1.410 . S
C219 C227 1.503 . S
C220 C219 1.410 . S
C220 C221 1.392 . S
C220 C223 1.511 . S
C221 C217 1.376 . S
C221 C220 1.392 . S
C221 H233 0.929 . S
C222 C218 1.531 . S
C222 H234 0.960 . S
C222 H235 0.962 . S
C222 H236 0.960 . S
C223 C220 1.511 . S
C223 H237 0.961 . S
C223 H238 0.961 . S
C223 H239 0.961 . S
C224 C225 1.370 . S
C224 C226 1.363 . S
C224 H240 0.931 . S
C225 C224 1.370 . S
C225 C229 1.408 . S
C226 C224 1.363 . S
C226 C227 1.370 . S
C226 C230 1.524 . S
C227 C219 1.503 . S
C227 C226 1.370 . S
C227 C228 1.403 . S
C228 C227 1.403 . S
C228 C229 1.404 . S
C228 C231 1.539 . S
C229 C225 1.408 . S
C229 C228 1.404 . S
C229 H241 0.930 . S
C230 C226 1.524 . S
C230 H242 0.956 . S
C230 H243 0.961 . S
C230 H244 0.961 . S
C231 C228 1.539 . S
C231 H245 0.958 . S
C231 H246 0.961 . S
C231 H247 0.960 . S
H232 C216 0.931 . S
H233 C221 0.929 . S
H234 C222 0.960 . S
H235 C222 0.962 . S
H236 C222 0.960 . S
H237 C223 0.961 . S
H238 C223 0.961 . S
H239 C223 0.961 . S
H240 C224 0.931 . S
H241 C229 0.930 . S
H242 C230 0.956 . S
H243 C230 0.961 . S
H244 C230 0.961 . S
H245 C231 0.958 . S
H246 C231 0.961 . S
H247 C231 0.960 . S
C248 C249 1.391 1_545 S
C248 C250 1.394 . S
C248 H264 0.931 1_545 S
C249 C248 1.391 1_565 S
C249 C253 1.376 . S
C250 C248 1.394 . S
C250 C251 1.369 . S
C250 C254 1.531 . S
C251 C250 1.369 . S
C251 C252 1.410 . S
C251 C259 1.503 1_554 S
C252 C251 1.410 . S
C252 C253 1.392 1_545 S
C252 C255 1.523 . S
C253 C249 1.376 . S
C253 C252 1.392 1_565 S
C253 H265 0.929 . S
C254 C250 1.531 . S
C254 H266 0.960 . S
C254 H267 0.962 1_554 S
C254 H268 0.960 . S
C255 C252 1.523 . S
C255 H269 0.958 1_554 S
C255 H270 0.933 1_554 S
C255 H271 0.981 . S
C256 C257 1.370 . S
C256 C258 1.363 . S
C256 H272 0.931 . S
C257 C256 1.370 . S
C257 C261 1.408 . S
C258 C256 1.363 . S
C258 C259 1.370 . S
C258 C262 1.524 . S
C259 C251 1.503 1_556 S
C259 C258 1.370 . S
C259 C260 1.403 . S
C260 C259 1.403 . S
C260 C261 1.404 . S
C260 C263 1.539 1_556 S
C261 C257 1.408 . S
C261 C260 1.404 . S
C261 H273 0.930 . S
C262 C258 1.524 . S
C262 H274 0.956 . S
C262 H275 0.961 . S
C262 H276 0.961 . S
C263 C260 1.539 1_554 S
C263 H277 0.958 . S
C263 H278 0.961 . S
C263 H279 0.960 . S
H264 C248 0.931 1_565 S
H265 C253 0.929 . S
H266 C254 0.960 . S
H267 C254 0.962 1_556 S
H268 C254 0.960 . S
H269 C255 0.958 1_556 S
H270 C255 0.933 1_556 S
H271 C255 0.981 . S
H272 C256 0.931 . S
H273 C261 0.930 . S
H274 C262 0.956 . S
H275 C262 0.961 . S
H276 C262 0.961 . S
H277 C263 0.958 . S
H278 C263 0.961 . S
H279 C263 0.960 . S
C280 C281 1.393 . S
C280 C282 1.393 1_545 S
C280 H296 0.929 1_545 S
C281 C280 1.393 . S
C281 C285 1.376 . S
C282 C280 1.393 1_565 S
C282 C283 1.369 1_565 S
C282 C286 1.531 . S
C283 C282 1.369 1_545 S
C283 C284 1.410 . S
C283 C291 1.503 1_545 S
C284 C283 1.410 . S
C284 C285 1.392 . S
C284 C287 1.511 . S
C285 C281 1.376 . S
C285 C284 1.392 . S
C285 H297 0.929 . S
C286 C282 1.531 . S
C286 H298 0.960 . S
C286 H299 0.962 . S
C286 H300 0.960 . S
C287 C284 1.511 . S
C287 H301 0.961 . S
C287 H302 0.961 . S
C287 H303 0.961 . S
C288 C289 1.370 1_655 S
C288 C290 1.363 . S
C288 H304 0.931 . S
C289 C288 1.370 1_455 S
C289 C293 1.408 1_565 S
C290 C288 1.363 . S
C290 C291 1.370 . S
C290 C294 1.524 . S
C291 C283 1.503 1_565 S
C291 C290 1.370 . S
C291 C292 1.403 1_565 S
C292 C291 1.403 1_545 S
C292 C293 1.404 1_655 S
C292 C295 1.539 . S
C293 C289 1.408 1_545 S
C293 C292 1.404 1_455 S
C293 H305 0.930 . S
C294 C290 1.524 . S
C294 H306 0.956 . S
C294 H307 0.961 . S
C294 H308 0.961 . S
C295 C292 1.539 . S
C295 H309 0.958 1_655 S
C295 H310 0.961 . S
C295 H311 0.960 . S
H296 C280 0.929 1_565 S
H297 C285 0.929 . S
H298 C286 0.960 . S
H299 C286 0.962 . S
H300 C286 0.960 . S
H301 C287 0.961 . S
H302 C287 0.961 . S
H303 C287 0.961 . S
H304 C288 0.931 . S
H305 C293 0.930 . S
H306 C294 0.956 . S
H307 C294 0.961 . S
H308 C294 0.961 . S
H309 C295 0.958 1_455 S
H310 C295 0.961 . S
H311 C295 0.960 . S
C312 C313 1.391 . S
C312 C314 1.394 . S
C312 H328 0.931 . S
C313 C312 1.391 . S
C313 C317 1.376 . S
C314 C312 1.394 . S
C314 C315 1.369 . S
C314 C318 1.531 . S
C315 C314 1.369 . S
C315 C316 1.410 . S
C315 C323 1.503 . S
C316 C315 1.410 . S
C316 C317 1.392 . S
C316 C319 1.511 . S
C317 C313 1.376 . S
C317 C316 1.392 . S
C317 H329 0.929 . S
C318 C314 1.531 . S
C318 H330 0.960 . S
C318 H331 0.962 . S
C318 H332 0.960 . S
C319 C316 1.511 . S
C319 H333 0.961 . S
C319 H334 0.961 . S
C319 H335 0.961 . S
C320 C321 1.370 . S
C320 C322 1.363 . S
C320 H336 0.931 . S
C321 C320 1.370 . S
C321 C325 1.408 . S
C322 C320 1.363 . S
C322 C323 1.370 . S
C322 C326 1.524 . S
C323 C315 1.503 . S
C323 C322 1.370 . S
C323 C324 1.403 . S
C324 C323 1.403 . S
C324 C325 1.404 . S
C324 C327 1.539 . S
C325 C321 1.408 . S
C325 C324 1.404 . S
C325 H337 0.930 . S
C326 C322 1.524 . S
C326 H338 0.956 . S
C326 H339 0.961 . S
C326 H340 0.961 . S
C327 C324 1.539 . S
C327 H341 0.958 . S
C327 H342 0.961 . S
C327 H343 0.960 . S
H328 C312 0.931 . S
H329 C317 0.929 . S
H330 C318 0.960 . S
H331 C318 0.962 . S
H332 C318 0.960 . S
H333 C319 0.961 . S
H334 C319 0.961 . S
H335 C319 0.961 . S
H336 C320 0.931 . S
H337 C325 0.930 . S
H338 C326 0.956 . S
H339 C326 0.961 . S
H340 C326 0.961 . S
H341 C327 0.958 . S
H342 C327 0.961 . S
H343 C327 0.960 . S
C344 C345 1.391 . S
C344 C346 1.394 . S
C344 H360 0.931 . S
C345 C344 1.391 . S
C345 C349 1.376 . S
C346 C344 1.394 . S
C346 C347 1.369 . S
C346 C350 1.531 . S
C347 C346 1.369 . S
C347 C348 1.410 . S
C347 C355 1.503 . S
C348 C347 1.410 . S
C348 C349 1.392 . S
C348 C351 1.511 . S
C349 C345 1.376 . S
C349 C348 1.392 . S
C349 H361 0.929 . S
C350 C346 1.531 . S
C350 H362 0.960 . S
C350 H363 0.962 . S
C350 H364 0.960 . S
C351 C348 1.511 . S
C351 H365 0.961 . S
C351 H366 0.961 . S
C351 H367 0.961 . S
C352 C353 1.370 . S
C352 C354 1.363 . S
C352 H368 0.931 . S
C353 C352 1.370 . S
C353 C357 1.408 . S
C354 C352 1.363 . S
C354 C355 1.370 . S
C354 C358 1.524 . S
C355 C347 1.503 . S
C355 C354 1.370 . S
C355 C356 1.403 . S
C356 C355 1.403 . S
C356 C357 1.404 . S
C356 C359 1.539 . S
C357 C353 1.408 . S
C357 C356 1.404 . S
C357 H369 0.930 . S
C358 C354 1.524 . S
C358 H370 0.956 . S
C358 H371 0.961 . S
C358 H372 0.961 . S
C359 C356 1.539 . S
C359 H373 0.958 . S
C359 H374 0.961 . S
C359 H375 0.960 . S
H360 C344 0.931 . S
H361 C349 0.929 . S
H362 C350 0.960 . S
H363 C350 0.962 . S
H364 C350 0.960 . S
H365 C351 0.961 . S
H366 C351 0.961 . S
H367 C351 0.961 . S
H368 C352 0.931 . S
H369 C357 0.930 . S
H370 C358 0.956 . S
H371 C358 0.961 . S
H372 C358 0.961 . S
H373 C359 0.958 . S
H374 C359 0.961 . S
H375 C359 0.960 . S
C376 C377 1.391 . S
C376 C378 1.394 . S
C376 H392 0.931 . S
C377 C376 1.391 . S
C377 C381 1.376 . S
C378 C376 1.394 . S
C378 C379 1.369 . S
C378 C382 1.531 . S
C379 C378 1.369 . S
C379 C380 1.410 . S
C379 C387 1.503 . S
C380 C379 1.410 . S
C380 C381 1.392 . S
C380 C383 1.511 . S
C381 C377 1.376 . S
C381 C380 1.392 . S
C381 H393 0.929 . S
C382 C378 1.531 . S
C382 H394 0.960 . S
C382 H395 0.962 . S
C382 H396 0.960 . S
C383 C380 1.511 . S
C383 H397 0.961 . S
C383 H398 0.961 . S
C383 H399 0.961 . S
C384 C385 1.370 . S
C384 C386 1.363 . S
C384 H400 0.931 . S
C385 C384 1.370 . S
C385 C389 1.408 . S
C386 C384 1.363 . S
C386 C387 1.370 . S
C386 C390 1.524 . S
C387 C379 1.503 . S
C387 C386 1.370 . S
C387 C388 1.403 . S
C388 C387 1.403 . S
C388 C389 1.404 . S
C388 C391 1.539 . S
C389 C385 1.408 . S
C389 C388 1.404 . S
C389 H401 0.930 . S
C390 C386 1.524 . S
C390 H402 0.956 . S
C390 H403 0.961 . S
C390 H404 0.961 . S
C391 C388 1.539 . S
C391 H405 0.958 . S
C391 H406 0.961 . S
C391 H407 0.960 . S
H392 C376 0.931 . S
H393 C381 0.929 . S
H394 C382 0.960 . S
H395 C382 0.962 . S
H396 C382 0.960 . S
H397 C383 0.961 . S
H398 C383 0.961 . S
H399 C383 0.961 . S
H400 C384 0.931 . S
H401 C389 0.930 . S
H402 C390 0.956 . S
H403 C390 0.961 . S
H404 C390 0.961 . S
H405 C391 0.958 . S
H406 C391 0.961 . S
H407 C391 0.960 . S
C408 C409 1.391 . S
C408 C410 1.394 . S
C408 H424 0.931 . S
C409 C408 1.391 . S
C409 C413 1.376 . S
C410 C408 1.394 . S
C410 C411 1.369 . S
C410 C414 1.531 . S
C411 C410 1.369 . S
C411 C412 1.410 . S
C411 C419 1.503 . S
C412 C411 1.410 . S
C412 C413 1.392 . S
C412 C415 1.511 . S
C413 C409 1.376 . S
C413 C412 1.392 . S
C413 H425 0.929 . S
C414 C410 1.531 . S
C414 H426 0.960 . S
C414 H427 0.962 . S
C414 H428 0.960 . S
C415 C412 1.511 . S
C415 H429 0.961 . S
C415 H430 0.961 . S
C415 H431 0.961 . S
C416 C417 1.370 . S
C416 C418 1.363 . S
C416 H432 0.931 . S
C417 C416 1.370 . S
C417 C421 1.408 . S
C418 C416 1.363 . S
C418 C419 1.370 . S
C418 C422 1.524 . S
C419 C411 1.503 . S
C419 C418 1.370 . S
C419 C420 1.403 . S
C420 C419 1.403 . S
C420 C421 1.404 . S
C420 C423 1.539 . S
C421 C417 1.408 . S
C421 C420 1.404 . S
C421 H433 0.930 . S
C422 C418 1.524 . S
C422 H434 0.956 . S
C422 H435 0.961 . S
C422 H436 0.961 . S
C423 C420 1.539 . S
C423 H437 0.958 . S
C423 H438 0.961 . S
C423 H439 0.960 . S
H424 C408 0.931 . S
H425 C413 0.929 . S
H426 C414 0.960 . S
H427 C414 0.962 . S
H428 C414 0.960 . S
H429 C415 0.961 . S
H430 C415 0.961 . S
H431 C415 0.961 . S
H432 C416 0.931 . S
H433 C421 0.930 . S
H434 C422 0.956 . S
H435 C422 0.961 . S
H436 C422 0.961 . S
H437 C423 0.958 . S
H438 C423 0.961 . S
H439 C423 0.960 . S
C440 C441 1.391 . S
C440 C442 1.394 . S
C440 H456 0.931 . S
C441 C440 1.391 . S
C441 C445 1.376 . S
C442 C440 1.394 . S
C442 C443 1.369 . S
C442 C446 1.531 . S
C443 C442 1.369 . S
C443 C444 1.410 . S
C443 C451 1.503 . S
C444 C443 1.410 . S
C444 C445 1.392 . S
C444 C447 1.511 . S
C445 C441 1.376 . S
C445 C444 1.392 . S
C445 H457 0.929 . S
C446 C442 1.531 . S
C446 H458 0.960 . S
C446 H459 0.962 . S
C446 H460 0.960 . S
C447 C444 1.511 . S
C447 H461 0.961 . S
C447 H462 0.961 . S
C447 H463 0.961 . S
C448 C449 1.370 . S
C448 C450 1.363 . S
C448 H464 0.931 . S
C449 C448 1.370 . S
C449 C453 1.408 . S
C450 C448 1.363 . S
C450 C451 1.370 . S
C450 C454 1.524 . S
C451 C443 1.503 . S
C451 C450 1.370 . S
C451 C452 1.403 . S
C452 C451 1.403 . S
C452 C453 1.404 . S
C452 C455 1.539 . S
C453 C449 1.408 . S
C453 C452 1.404 . S
C453 H465 0.930 . S
C454 C450 1.524 . S
C454 H466 0.956 . S
C454 H467 0.961 . S
C454 H468 0.961 . S
C455 C452 1.539 . S
C455 H469 0.958 . S
C455 H470 0.961 . S
C455 H471 0.960 . S
H456 C440 0.931 . S
H457 C445 0.929 . S
H458 C446 0.960 . S
H459 C446 0.962 . S
H460 C446 0.960 . S
H461 C447 0.961 . S
H462 C447 0.961 . S
H463 C447 0.961 . S
H464 C448 0.931 . S
H465 C453 0.930 . S
H466 C454 0.956 . S
H467 C454 0.961 . S
H468 C454 0.961 . S
H469 C455 0.958 . S
H470 C455 0.961 . S
H471 C455 0.960 . S
C472 C473 1.391 . S
C472 C474 1.394 . S
C472 H488 0.931 . S
C473 C472 1.391 . S
C473 C477 1.376 . S
C474 C472 1.394 . S
C474 C475 1.369 . S
C474 C478 1.531 . S
C475 C474 1.369 . S
C475 C476 1.410 . S
C475 C483 1.503 . S
C476 C475 1.410 . S
C476 C477 1.392 . S
C476 C479 1.511 . S
C477 C473 1.376 . S
C477 C476 1.392 . S
C477 H489 0.929 . S
C478 C474 1.531 . S
C478 H490 0.960 . S
C478 H491 0.962 . S
C478 H492 0.960 . S
C479 C476 1.511 . S
C479 H493 0.961 . S
C479 H494 0.961 . S
C479 H495 0.961 . S
C480 C481 1.370 . S
C480 C482 1.363 . S
C480 H496 0.931 . S
C481 C480 1.370 . S
C481 C485 1.408 . S
C482 C480 1.363 . S
C482 C483 1.370 . S
C482 C486 1.524 . S
C483 C475 1.503 . S
C483 C482 1.370 . S
C483 C484 1.403 . S
C484 C483 1.403 . S
C484 C485 1.404 . S
C484 C487 1.539 . S
C485 C481 1.408 . S
C485 C484 1.404 . S
C485 H497 0.930 . S
C486 C482 1.524 . S
C486 H498 0.956 . S
C486 H499 0.961 . S
C486 H500 0.961 . S
C487 C484 1.539 . S
C487 H501 0.958 . S
C487 H502 0.961 . S
C487 H503 0.960 . S
H488 C472 0.931 . S
H489 C477 0.929 . S
H490 C478 0.960 . S
H491 C478 0.962 . S
H492 C478 0.960 . S
H493 C479 0.961 . S
H494 C479 0.961 . S
H495 C479 0.961 . S
H496 C480 0.931 . S
H497 C485 0.930 . S
H498 C486 0.956 . S
H499 C486 0.961 . S
H500 C486 0.961 . S
H501 C487 0.958 . S
H502 C487 0.961 . S
H503 C487 0.960 . S
C504 C505 1.391 . S
C504 C506 1.394 . S
C504 H520 0.931 . S
C505 C504 1.391 . S
C505 C509 1.376 . S
C506 C504 1.394 . S
C506 C507 1.369 . S
C506 C510 1.531 . S
C507 C506 1.369 . S
C507 C508 1.410 . S
C507 C515 1.503 . S
C508 C507 1.410 . S
C508 C509 1.392 . S
C508 C511 1.511 . S
C509 C505 1.376 . S
C509 C508 1.392 . S
C509 H521 0.929 . S
C510 C506 1.531 . S
C510 H522 0.960 . S
C510 H523 0.962 . S
C510 H524 0.960 . S
C511 C508 1.511 . S
C511 H525 0.961 . S
C511 H526 0.961 . S
C511 H527 0.961 1_565 S
C512 C513 1.370 . S
C512 C514 1.363 . S
C512 H528 0.931 . S
C513 C512 1.370 . S
C513 C517 1.408 . S
C514 C512 1.363 . S
C514 C515 1.370 . S
C514 C518 1.524 . S
C515 C507 1.503 . S
C515 C514 1.370 . S
C515 C516 1.403 . S
C516 C515 1.403 . S
C516 C517 1.404 . S
C516 C519 1.539 1_565 S
C517 C513 1.408 . S
C517 C516 1.404 . S
C517 H529 0.930 1_565 S
C518 C514 1.524 . S
C518 H530 0.956 . S
C518 H531 0.961 . S
C518 H532 0.961 . S
C519 C516 1.539 1_545 S
C519 H533 0.958 1_545 S
C519 H534 0.961 . S
C519 H535 0.960 . S
H520 C504 0.931 . S
H521 C509 0.929 . S
H522 C510 0.960 . S
H523 C510 0.962 . S
H524 C510 0.960 . S
H525 C511 0.961 . S
H526 C511 0.961 . S
H527 C511 0.961 1_545 S
H528 C512 0.931 . S
H529 C517 0.930 1_545 S
H530 C518 0.956 . S
H531 C518 0.961 . S
H532 C518 0.961 . S
H533 C519 0.958 1_565 S
H534 C519 0.961 . S
H535 C519 0.960 . S
C536 C537 1.391 . S
C536 C538 1.394 . S
C536 H552 0.931 . S
C537 C536 1.391 . S
C537 C541 1.376 . S
C538 C536 1.394 . S
C538 C539 1.369 . S
C538 C542 1.531 . S
C539 C538 1.369 . S
C539 C540 1.410 . S
C539 C547 1.503 . S
C540 C539 1.410 . S
C540 C541 1.392 . S
C540 C543 1.507 1_455 S
C541 C537 1.376 . S
C541 C540 1.392 . S
C541 H553 0.929 1_455 S
C542 C538 1.531 . S
C542 H554 0.960 . S
C542 H555 0.962 . S
C542 H556 0.960 . S
C543 C540 1.507 1_655 S
C543 H557 0.967 . S
C543 H558 0.961 1_655 S
C543 H559 0.958 1_655 S
C544 C545 1.370 . S
C544 C546 1.363 . S
C544 H560 0.931 . S
C545 C544 1.370 . S
C545 C549 1.408 . S
C546 C544 1.363 . S
C546 C547 1.370 . S
C546 C550 1.524 . S
C547 C539 1.503 . S
C547 C546 1.370 . S
C547 C548 1.403 . S
C548 C547 1.403 . S
C548 C549 1.404 . S
C548 C551 1.539 . S
C549 C545 1.408 . S
C549 C548 1.404 . S
C549 H561 0.930 . S
C550 C546 1.524 . S
C550 H562 0.956 . S
C550 H563 0.961 . S
C550 H564 0.961 . S
C551 C548 1.539 . S
C551 H565 0.958 . S
C551 H566 0.961 . S
C551 H567 0.960 . S
H552 C536 0.931 . S
H553 C541 0.929 1_655 S
H554 C542 0.960 . S
H555 C542 0.962 . S
H556 C542 0.960 . S
H557 C543 0.967 . S
H558 C543 0.961 1_455 S
H559 C543 0.958 1_455 S
H560 C544 0.931 . S
H561 C549 0.930 . S
H562 C550 0.956 . S
H563 C550 0.961 . S
H564 C550 0.961 . S
H565 C551 0.958 . S
H566 C551 0.961 . S
H567 C551 0.960 . S
C568 C569 1.391 . S
C568 C570 1.394 . S
C568 H584 0.931 . S
C569 C568 1.391 . S
C569 C573 1.376 . S
C570 C568 1.394 . S
C570 C571 1.369 . S
C570 C574 1.531 . S
C571 C570 1.369 . S
C571 C572 1.410 . S
C571 C579 1.503 . S
C572 C571 1.410 . S
C572 C573 1.392 . S
C572 C575 1.511 . S
C573 C569 1.376 . S
C573 C572 1.392 . S
C573 H585 0.929 . S
C574 C570 1.531 . S
C574 H586 0.960 . S
C574 H587 0.962 . S
C574 H588 0.960 . S
C575 C572 1.511 . S
C575 H589 0.961 . S
C575 H590 0.961 . S
C575 H591 0.961 . S
C576 C577 1.370 . S
C576 C578 1.363 . S
C576 H592 0.931 . S
C577 C576 1.370 . S
C577 C581 1.408 . S
C578 C576 1.363 . S
C578 C579 1.370 . S
C578 C582 1.524 . S
C579 C571 1.503 . S
C579 C578 1.370 . S
C579 C580 1.403 . S
C580 C579 1.403 . S
C580 C581 1.404 . S
C580 C583 1.539 . S
C581 C577 1.408 . S
C581 C580 1.404 . S
C581 H593 0.930 . S
C582 C578 1.524 . S
C582 H594 0.956 . S
C582 H595 0.961 . S
C582 H596 0.961 . S
C583 C580 1.539 . S
C583 H597 0.958 . S
C583 H598 0.961 . S
C583 H599 0.960 . S
H584 C568 0.931 . S
H585 C573 0.929 . S
H586 C574 0.960 . S
H587 C574 0.962 . S
H588 C574 0.960 . S
H589 C575 0.961 . S
H590 C575 0.961 . S
H591 C575 0.961 . S
H592 C576 0.931 . S
H593 C581 0.930 . S
H594 C582 0.956 . S
H595 C582 0.961 . S
H596 C582 0.961 . S
H597 C583 0.958 . S
H598 C583 0.961 . S
H599 C583 0.960 . S
C600 C601 1.391 . S
C600 C602 1.394 . S
C600 H616 0.931 . S
C601 C600 1.391 . S
C601 C605 1.376 . S
C602 C600 1.394 . S
C602 C603 1.369 . S
C602 C606 1.531 . S
C603 C602 1.369 . S
C603 C604 1.410 . S
C603 C611 1.503 . S
C604 C603 1.410 . S
C604 C605 1.392 . S
C604 C607 1.511 . S
C605 C601 1.376 . S
C605 C604 1.392 . S
C605 H617 0.929 . S
C606 C602 1.531 . S
C606 H618 0.960 . S
C606 H619 0.962 . S
C606 H620 0.960 . S
C607 C604 1.511 . S
C607 H621 0.961 . S
C607 H622 0.961 . S
C607 H623 0.961 . S
C608 C609 1.370 . S
C608 C610 1.363 . S
C608 H624 0.931 . S
C609 C608 1.370 . S
C609 C613 1.408 . S
C610 C608 1.363 . S
C610 C611 1.370 . S
C610 C614 1.524 . S
C611 C603 1.503 . S
C611 C610 1.370 . S
C611 C612 1.403 . S
C612 C611 1.403 . S
C612 C613 1.404 . S
C612 C615 1.539 . S
C613 C609 1.408 . S
C613 C612 1.404 . S
C613 H625 0.930 . S
C614 C610 1.524 . S
C614 H626 0.956 . S
C614 H627 0.961 . S
C614 H628 0.961 . S
C615 C612 1.539 . S
C615 H629 0.958 . S
C615 H630 0.961 . S
C615 H631 0.960 . S
H616 C600 0.931 . S
H617 C605 0.929 . S
H618 C606 0.960 . S
H619 C606 0.962 . S
H620 C606 0.960 . S
H621 C607 0.961 . S
H622 C607 0.961 . S
H623 C607 0.961 . S
H624 C608 0.931 . S
H625 C613 0.930 . S
H626 C614 0.956 . S
H627 C614 0.961 . S
H628 C614 0.961 . S
H629 C615 0.958 . S
H630 C615 0.961 . S
H631 C615 0.960 . S
C632 C633 1.391 . S
C632 C634 1.394 . S
C632 H648 0.931 . S
C633 C632 1.391 . S
C633 C637 1.376 . S
C634 C632 1.394 . S
C634 C635 1.369 . S
C634 C638 1.531 . S
C635 C634 1.369 . S
C635 C636 1.410 . S
C635 C643 1.503 . S
C636 C635 1.410 . S
C636 C637 1.392 . S
C636 C639 1.511 . S
C637 C633 1.376 . S
C637 C636 1.392 . S
C637 H649 0.929 . S
C638 C634 1.531 . S
C638 H650 0.960 . S
C638 H651 0.962 . S
C638 H652 0.960 . S
C639 C636 1.511 . S
C639 H653 0.961 . S
C639 H654 0.961 . S
C639 H655 0.961 . S
C640 C641 1.370 . S
C640 C642 1.363 . S
C640 H656 0.931 . S
C641 C640 1.370 . S
C641 C645 1.408 . S
C642 C640 1.363 . S
C642 C643 1.370 . S
C642 C646 1.524 . S
C643 C635 1.503 . S
C643 C642 1.370 . S
C643 C644 1.403 . S
C644 C643 1.403 . S
C644 C645 1.404 . S
C644 C647 1.539 . S
C645 C641 1.408 . S
C645 C644 1.404 . S
C645 H657 0.930 . S
C646 C642 1.524 . S
C646 H658 0.956 . S
C646 H659 0.961 . S
C646 H660 0.961 . S
C647 C644 1.539 . S
C647 H661 0.958 . S
C647 H662 0.961 . S
C647 H663 0.960 . S
H648 C632 0.931 . S
H649 C637 0.929 . S
H650 C638 0.960 . S
H651 C638 0.962 . S
H652 C638 0.960 . S
H653 C639 0.961 . S
H654 C639 0.961 . S
H655 C639 0.961 . S
H656 C640 0.931 . S
H657 C645 0.930 . S
H658 C646 0.956 . S
H659 C646 0.961 . S
H660 C646 0.961 . S
H661 C647 0.958 . S
H662 C647 0.961 . S
H663 C647 0.960 . S
C664 C665 1.391 . S
C664 C666 1.394 . S
C664 H680 0.931 . S
C665 C664 1.391 . S
C665 C669 1.376 . S
C666 C664 1.394 . S
C666 C667 1.369 . S
C666 C670 1.531 . S
C667 C666 1.369 . S
C667 C668 1.410 . S
C667 C675 1.503 . S
C668 C667 1.410 . S
C668 C669 1.392 . S
C668 C671 1.511 . S
C669 C665 1.376 . S
C669 C668 1.392 . S
C669 H681 0.929 . S
C670 C666 1.531 . S
C670 H682 0.960 . S
C670 H683 0.962 . S
C670 H684 0.960 . S
C671 C668 1.511 . S
C671 H685 0.961 . S
C671 H686 0.961 . S
C671 H687 0.961 . S
C672 C673 1.370 . S
C672 C674 1.363 . S
C672 H688 0.931 . S
C673 C672 1.370 . S
C673 C677 1.408 . S
C674 C672 1.363 . S
C674 C675 1.370 . S
C674 C678 1.524 . S
C675 C667 1.503 . S
C675 C674 1.370 . S
C675 C676 1.403 . S
C676 C675 1.403 . S
C676 C677 1.404 . S
C676 C679 1.539 . S
C677 C673 1.408 . S
C677 C676 1.404 . S
C677 H689 0.930 . S
C678 C674 1.524 . S
C678 H690 0.956 . S
C678 H691 0.961 . S
C678 H692 0.961 . S
C679 C676 1.539 . S
C679 H693 0.958 . S
C679 H694 0.961 . S
C679 H695 0.960 . S
H680 C664 0.931 . S
H681 C669 0.929 . S
H682 C670 0.960 . S
H683 C670 0.962 . S
H684 C670 0.960 . S
H685 C671 0.961 . S
H686 C671 0.961 . S
H687 C671 0.961 . S
H688 C672 0.931 . S
H689 C677 0.930 . S
H690 C678 0.956 . S
H691 C678 0.961 . S
H692 C678 0.961 . S
H693 C679 0.958 . S
H694 C679 0.961 . S
H695 C679 0.960 . S
C185 C108 1.835 . S
C193 N12 1.797 . S
C217 N35 1.730 . S
C225 C131 1.845 . S
C249 N58 1.668 . S
C257 C154 1.783 . S
C281 C177 1.829 . S
C289 N81 1.718 . S
C313 C7 2.675 . S
C321 C53 2.688 . S
C345 C30 2.705 . S
C353 C76 2.707 . S
C377 N140 1.869 . S
C385 N94 1.877 . S
C409 N117 1.905 . S
C417 N163 1.912 . S
C441 C122 1.689 . S
C449 C16 1.638 . S
C473 C39 1.647 . S
C481 C145 1.732 . S
C505 C62 1.626 . S
C513 C168 1.689 . S
C537 C99 1.658 . S
C545 C85 1.579 . S
C569 N104 1.143 . S
C577 N25 1.229 . S
C601 N127 1.183 . S
C609 N48 1.289 . S
C633 N150 1.240 . S
C641 N71 1.262 . S
C665 N2 1.189 . S
C673 N173 1.179 . S
