# Generated by pormake.
# Topology ukj, (4)-cn, num edge types: 1
# Building blocks:
#     Node 0, Type 0, BuildingBlock: MUDLON_clean_sbu_0, # of connection points: 4
#     Node 1, Type 0, BuildingBlock: MUDLON_clean_sbu_0, # of connection points: 4
#     Node 2, Type 0, BuildingBlock: MUDLON_clean_sbu_0, # of connection points: 4
#     Node 3, Type 0, BuildingBlock: MUDLON_clean_sbu_0, # of connection points: 4
#     Node 4, Type 0, BuildingBlock: MUDLON_clean_sbu_0, # of connection points: 4
#     Node 5, Type 0, BuildingBlock: MUDLON_clean_sbu_0, # of connection points: 4
#     Node 6, Type 0, BuildingBlock: MUDLON_clean_sbu_0, # of connection points: 4
#     Node 7, Type 0, BuildingBlock: MUDLON_clean_sbu_0, # of connection points: 4
#     Node 8, Type 0, BuildingBlock: MUDLON_clean_sbu_0, # of connection points: 4
#     Node 9, Type 0, BuildingBlock: MUDLON_clean_sbu_0, # of connection points: 4
#     Node 10, Type 0, BuildingBlock: MUDLON_clean_sbu_0, # of connection points: 4
#     Node 11, Type 0, BuildingBlock: MUDLON_clean_sbu_0, # of connection points: 4
#     Node 12, Type 0, BuildingBlock: MUDLON_clean_sbu_0, # of connection points: 4
#     Node 13, Type 0, BuildingBlock: MUDLON_clean_sbu_0, # of connection points: 4
#     Node 14, Type 0, BuildingBlock: MUDLON_clean_sbu_0, # of connection points: 4
#     Node 15, Type 0, BuildingBlock: MUDLON_clean_sbu_0, # of connection points: 4
#     Node 16, Type 0, BuildingBlock: MUDLON_clean_sbu_0, # of connection points: 4
#     Node 17, Type 0, BuildingBlock: MUDLON_clean_sbu_0, # of connection points: 4
#     Node 18, Type 0, BuildingBlock: MUDLON_clean_sbu_0, # of connection points: 4
#     Node 19, Type 0, BuildingBlock: MUDLON_clean_sbu_0, # of connection points: 4
#     Node 20, Type 0, BuildingBlock: MUDLON_clean_sbu_0, # of connection points: 4
#     Node 21, Type 0, BuildingBlock: MUDLON_clean_sbu_0, # of connection points: 4
#     Node 22, Type 0, BuildingBlock: MUDLON_clean_sbu_0, # of connection points: 4
#     Node 23, Type 0, BuildingBlock: MUDLON_clean_sbu_0, # of connection points: 4
#     Node 24, Type 0, BuildingBlock: MUDLON_clean_sbu_0, # of connection points: 4
#     Node 25, Type 0, BuildingBlock: MUDLON_clean_sbu_0, # of connection points: 4
#     Node 26, Type 0, BuildingBlock: MUDLON_clean_sbu_0, # of connection points: 4
#     Node 27, Type 0, BuildingBlock: MUDLON_clean_sbu_0, # of connection points: 4
#     Node 28, Type 0, BuildingBlock: MUDLON_clean_sbu_0, # of connection points: 4
#     Node 29, Type 0, BuildingBlock: MUDLON_clean_sbu_0, # of connection points: 4
#     Node 30, Type 0, BuildingBlock: MUDLON_clean_sbu_0, # of connection points: 4
#     Node 31, Type 0, BuildingBlock: MUDLON_clean_sbu_0, # of connection points: 4
#     Edge 32, Type (0, 0), BuildingBlock: OJICUG_clean_linker_0, # of connection points: 2
#     Edge 33, Type (0, 0), BuildingBlock: OJICUG_clean_linker_0, # of connection points: 2
#     Edge 34, Type (0, 0), BuildingBlock: OJICUG_clean_linker_0, # of connection points: 2
#     Edge 35, Type (0, 0), BuildingBlock: OJICUG_clean_linker_0, # of connection points: 2
#     Edge 36, Type (0, 0), BuildingBlock: OJICUG_clean_linker_0, # of connection points: 2
#     Edge 37, Type (0, 0), BuildingBlock: OJICUG_clean_linker_0, # of connection points: 2
#     Edge 38, Type (0, 0), BuildingBlock: OJICUG_clean_linker_0, # of connection points: 2
#     Edge 39, Type (0, 0), BuildingBlock: OJICUG_clean_linker_0, # of connection points: 2
#     Edge 40, Type (0, 0), BuildingBlock: OJICUG_clean_linker_0, # of connection points: 2
#     Edge 41, Type (0, 0), BuildingBlock: OJICUG_clean_linker_0, # of connection points: 2
#     Edge 42, Type (0, 0), BuildingBlock: OJICUG_clean_linker_0, # of connection points: 2
#     Edge 43, Type (0, 0), BuildingBlock: OJICUG_clean_linker_0, # of connection points: 2
#     Edge 44, Type (0, 0), BuildingBlock: OJICUG_clean_linker_0, # of connection points: 2
#     Edge 45, Type (0, 0), BuildingBlock: OJICUG_clean_linker_0, # of connection points: 2
#     Edge 46, Type (0, 0), BuildingBlock: OJICUG_clean_linker_0, # of connection points: 2
#     Edge 47, Type (0, 0), BuildingBlock: OJICUG_clean_linker_0, # of connection points: 2
#     Edge 48, Type (0, 0), BuildingBlock: OJICUG_clean_linker_0, # of connection points: 2
#     Edge 49, Type (0, 0), BuildingBlock: OJICUG_clean_linker_0, # of connection points: 2
#     Edge 50, Type (0, 0), BuildingBlock: OJICUG_clean_linker_0, # of connection points: 2
#     Edge 51, Type (0, 0), BuildingBlock: OJICUG_clean_linker_0, # of connection points: 2
#     Edge 52, Type (0, 0), BuildingBlock: OJICUG_clean_linker_0, # of connection points: 2
#     Edge 53, Type (0, 0), BuildingBlock: OJICUG_clean_linker_0, # of connection points: 2
#     Edge 54, Type (0, 0), BuildingBlock: OJICUG_clean_linker_0, # of connection points: 2
#     Edge 55, Type (0, 0), BuildingBlock: OJICUG_clean_linker_0, # of connection points: 2
#     Edge 56, Type (0, 0), BuildingBlock: OJICUG_clean_linker_0, # of connection points: 2
#     Edge 57, Type (0, 0), BuildingBlock: OJICUG_clean_linker_0, # of connection points: 2
#     Edge 58, Type (0, 0), BuildingBlock: OJICUG_clean_linker_0, # of connection points: 2
#     Edge 59, Type (0, 0), BuildingBlock: OJICUG_clean_linker_0, # of connection points: 2
#     Edge 60, Type (0, 0), BuildingBlock: OJICUG_clean_linker_0, # of connection points: 2
#     Edge 61, Type (0, 0), BuildingBlock: OJICUG_clean_linker_0, # of connection points: 2
#     Edge 62, Type (0, 0), BuildingBlock: OJICUG_clean_linker_0, # of connection points: 2
#     Edge 63, Type (0, 0), BuildingBlock: OJICUG_clean_linker_0, # of connection points: 2
#     Edge 64, Type (0, 0), BuildingBlock: OJICUG_clean_linker_0, # of connection points: 2
#     Edge 65, Type (0, 0), BuildingBlock: OJICUG_clean_linker_0, # of connection points: 2
#     Edge 66, Type (0, 0), BuildingBlock: OJICUG_clean_linker_0, # of connection points: 2
#     Edge 67, Type (0, 0), BuildingBlock: OJICUG_clean_linker_0, # of connection points: 2
#     Edge 68, Type (0, 0), BuildingBlock: OJICUG_clean_linker_0, # of connection points: 2
#     Edge 69, Type (0, 0), BuildingBlock: OJICUG_clean_linker_0, # of connection points: 2
#     Edge 70, Type (0, 0), BuildingBlock: OJICUG_clean_linker_0, # of connection points: 2
#     Edge 71, Type (0, 0), BuildingBlock: OJICUG_clean_linker_0, # of connection points: 2
#     Edge 72, Type (0, 0), BuildingBlock: OJICUG_clean_linker_0, # of connection points: 2
#     Edge 73, Type (0, 0), BuildingBlock: OJICUG_clean_linker_0, # of connection points: 2
#     Edge 74, Type (0, 0), BuildingBlock: OJICUG_clean_linker_0, # of connection points: 2
#     Edge 75, Type (0, 0), BuildingBlock: OJICUG_clean_linker_0, # of connection points: 2
#     Edge 76, Type (0, 0), BuildingBlock: OJICUG_clean_linker_0, # of connection points: 2
#     Edge 77, Type (0, 0), BuildingBlock: OJICUG_clean_linker_0, # of connection points: 2
#     Edge 78, Type (0, 0), BuildingBlock: OJICUG_clean_linker_0, # of connection points: 2
#     Edge 79, Type (0, 0), BuildingBlock: OJICUG_clean_linker_0, # of connection points: 2
#     Edge 80, Type (0, 0), BuildingBlock: OJICUG_clean_linker_0, # of connection points: 2
#     Edge 81, Type (0, 0), BuildingBlock: OJICUG_clean_linker_0, # of connection points: 2
#     Edge 82, Type (0, 0), BuildingBlock: OJICUG_clean_linker_0, # of connection points: 2
#     Edge 83, Type (0, 0), BuildingBlock: OJICUG_clean_linker_0, # of connection points: 2
#     Edge 84, Type (0, 0), BuildingBlock: OJICUG_clean_linker_0, # of connection points: 2
#     Edge 85, Type (0, 0), BuildingBlock: OJICUG_clean_linker_0, # of connection points: 2
#     Edge 86, Type (0, 0), BuildingBlock: OJICUG_clean_linker_0, # of connection points: 2
#     Edge 87, Type (0, 0), BuildingBlock: OJICUG_clean_linker_0, # of connection points: 2
#     Edge 88, Type (0, 0), BuildingBlock: OJICUG_clean_linker_0, # of connection points: 2
#     Edge 89, Type (0, 0), BuildingBlock: OJICUG_clean_linker_0, # of connection points: 2
#     Edge 90, Type (0, 0), BuildingBlock: OJICUG_clean_linker_0, # of connection points: 2
#     Edge 91, Type (0, 0), BuildingBlock: OJICUG_clean_linker_0, # of connection points: 2
#     Edge 92, Type (0, 0), BuildingBlock: OJICUG_clean_linker_0, # of connection points: 2
#     Edge 93, Type (0, 0), BuildingBlock: OJICUG_clean_linker_0, # of connection points: 2
#     Edge 94, Type (0, 0), BuildingBlock: OJICUG_clean_linker_0, # of connection points: 2
#     Edge 95, Type (0, 0), BuildingBlock: OJICUG_clean_linker_0, # of connection points: 2
# Relax obj value: 0.028
# Max RMSD: 0.218
# Mean RMSD: 0.216
data_MOF--net-ukj--node1-MUDLON_clean_sbu_0--edge1-OJICUG_clean_linker_0
_symmetry_space_group_name_H-M    P1
_symmetry_Int_Tables_number       1
_symmetry_cell_setting            triclinic
loop_
_symmetry_equiv_pos_as_xyz
'x, y, z'
_cell_length_a     25.320626
_cell_length_b     43.584634
_cell_length_c     43.627051
_cell_angle_alpha  90.063036
_cell_angle_beta   89.980978
_cell_angle_gamma 90.016568
loop_
_atom_site_label
_atom_site_type_symbol
_atom_site_fract_x
_atom_site_fract_y
_atom_site_fract_z
_atom_type_partial_charge
Mg0 Mg 0.17404 0.33095 0.27882 0.0
C1 C 0.14351 0.32217 0.21633 0.0
O2 O 0.1611 0.29566 0.22634 0.0
C3 C 0.18703 0.34964 0.34061 0.0
O4 O 0.22355 0.32905 0.33479 0.0
C5 C 0.08804 0.2874 0.28741 0.0
O6 O 0.06521 0.31397 0.28225 0.0
O7 O 0.13835 0.28632 0.28796 0.0
O8 O 0.14217 0.3448 0.23474 0.0
O9 O 0.2601 0.33474 0.27495 0.0
C10 C 0.2799 0.34941 0.25247 0.0
O11 O 0.24882 0.35877 0.2303 0.0
O12 O 0.15516 0.35725 0.31942 0.0
Mg13 Mg 0.11832 0.91111 0.28065 0.0
C14 C 0.10508 0.91295 0.21609 0.0
O15 O 0.0737 0.9336 0.22839 0.0
C16 C 0.16136 0.90232 0.34177 0.0
O17 O 0.14968 0.93165 0.34064 0.0
C18 C 0.20292 0.95608 0.27707 0.0
O19 O 0.22483 0.92955 0.27046 0.0
O20 O 0.15349 0.95674 0.28254 0.0
O21 O 0.13315 0.89658 0.23387 0.0
O22 O 0.03306 0.90621 0.28705 0.0
C23 C 1.01347 0.88283 0.27366 0.0
O24 O 0.04462 0.86479 0.25772 0.0
O25 O 0.15447 0.88605 0.31784 0.0
Mg26 Mg 0.18405 0.91553 1.02518 0.0
C27 C 0.14429 0.91946 0.08704 0.0
O28 O 0.15598 0.94769 0.07907 0.0
C29 C 0.19684 0.90211 0.96208 0.0
O30 O 0.23117 0.92358 0.96918 0.0
C31 C 0.09771 0.95839 1.01671 0.0
O32 O 0.076 0.93102 1.01804 0.0
O33 O 0.14783 0.96037 1.01839 0.0
O34 O 0.15124 0.89793 0.06776 0.0
O35 O 0.26986 0.91206 0.0289 0.0
C36 C 0.2915 0.90185 0.05316 0.0
O37 O 0.2625 0.89744 0.07771 0.0
O38 O 0.16648 0.89181 0.9829 0.0
Mg39 Mg 0.10997 0.33337 1.02173 0.0
C40 C 0.10702 0.32557 0.08626 0.0
O41 O 0.08026 0.30301 0.07362 0.0
C42 C 0.14981 0.34477 0.96036 0.0
O43 O 0.13772 0.31546 0.9605 0.0
C44 C 0.19463 0.28858 1.02149 0.0
O45 O 0.21664 0.31483 0.02905 0.0
O46 O 0.14497 0.28798 1.01686 0.0
O47 O 0.12788 0.34555 0.06881 0.0
O48 O 0.02447 0.3379 1.01685 0.0
C49 C 1.00321 0.35789 0.03424 0.0
O50 O 0.03282 0.37312 0.0537 0.0
O51 O 0.14418 0.3601 0.98501 0.0
Mg52 Mg 0.87661 0.64508 0.77995 0.0
C53 C 0.91886 0.60475 0.8357 0.0
O54 O 0.95971 0.59686 0.81888 0.0
C55 C 0.93735 0.63139 0.72025 0.0
O56 O 0.97451 0.64797 0.73312 0.0
C57 C 0.96938 0.68628 0.7923 0.0
O58 O 0.9891 0.65947 0.79985 0.0
O59 O 0.92146 0.68774 0.78348 0.0
O60 O 0.88312 0.62169 0.82422 0.0
O61 O 0.79166 0.65135 0.77572 0.0
C62 C 0.76517 0.62672 0.77907 0.0
O63 O 0.79069 0.60118 0.7851 0.0
O64 O 0.89661 0.62406 0.73578 0.0
Mg65 Mg 0.92739 0.10812 0.78767 0.0
C66 C 0.87636 0.14646 0.84321 0.0
O67 O 0.83738 0.1553 0.82543 0.0
C68 C 0.86701 0.12056 0.72755 0.0
O69 O 0.82962 0.10442 0.74074 0.0
C70 C 0.83907 0.06407 0.79815 0.0
O71 O 0.81811 0.09021 0.80692 0.0
O72 O 0.88706 0.06382 0.7893 0.0
O73 O 0.91294 0.12974 0.83228 0.0
O74 O 1.01356 0.10651 0.78642 0.0
C75 C 0.03564 0.13108 0.7958 0.0
O76 O 1.00566 0.15368 0.80551 0.0
O77 O 0.90765 0.12821 0.74302 0.0
Mg78 Mg 0.87045 0.10589 0.03189 0.0
C79 C 0.85573 0.14591 0.97485 0.0
O80 O 0.80737 0.14751 0.98555 0.0
C81 C 0.92633 0.11436 0.0943 0.0
O82 O 0.96607 0.10115 0.08017 0.0
C83 C 0.96295 0.06569 1.01792 0.0
O84 O 0.98265 0.09301 1.01235 0.0
O85 O 0.91487 0.06351 1.02628 0.0
O86 O 0.89132 0.13335 0.99131 0.0
O87 O 0.78539 0.09887 0.02941 0.0
C88 C 0.75644 0.1201 0.04041 0.0
O89 O 0.77929 0.14375 0.0536 0.0
O90 O 0.88505 0.12137 0.07911 0.0
Mg91 Mg 0.9137 0.63908 1.02583 0.0
C92 C 0.93019 0.60095 0.96766 0.0
O93 O 0.9776 0.59803 0.97944 0.0
C94 C 0.857 0.62823 0.08758 0.0
O95 O 0.81797 0.6429 0.07429 0.0
C96 C 0.82216 0.68082 1.01369 0.0
O97 O 0.80139 0.65406 1.00679 0.0
O98 O 0.87027 0.68197 1.02216 0.0
O99 O 0.89418 0.61367 0.9837 0.0
O100 O 0.99887 0.64592 1.02496 0.0
C101 C 0.02709 0.62438 0.03592 0.0
O102 O 1.00344 0.60036 0.04787 0.0
O103 O 0.89782 0.62124 0.07197 0.0
Mg104 Mg 0.19157 0.83592 0.77728 0.0
C105 C 0.15467 0.82915 0.71518 0.0
O106 O 0.16799 0.80151 0.72428 0.0
C107 C 0.20336 0.85408 0.8396 0.0
O108 O 0.24099 0.83413 0.8339 0.0
C109 C 0.10469 0.79337 0.78632 0.0
O110 O 0.08307 0.82057 0.78296 0.0
O111 O 0.15491 0.79137 0.78566 0.0
O112 O 0.15949 0.85146 0.73378 0.0
O113 O 0.27764 0.83956 0.77402 0.0
C114 C 0.29947 0.85025 0.75 0.0
O115 O 0.27057 0.85526 0.72554 0.0
O116 O 0.17181 0.86146 0.81818 0.0
Mg117 Mg 0.11156 0.41466 0.78188 0.0
C118 C 0.10895 0.42001 0.71706 0.0
O119 O 0.08167 0.44287 0.72873 0.0
C120 C 0.15165 0.40416 0.84354 0.0
O121 O 0.14108 0.43366 0.84298 0.0
C122 C 0.19772 0.45862 0.78027 0.0
O123 O 0.21886 0.43189 0.77363 0.0
O124 O 0.14816 0.45984 0.7852 0.0
O125 O 0.1296 0.40072 0.73532 0.0
O126 O 0.02583 0.41078 0.78691 0.0
C127 C 1.00397 0.39047 0.77015 0.0
O128 O 0.03304 0.37454 0.75098 0.0
O129 O 0.14512 0.38855 0.81915 0.0
Mg130 Mg 0.18478 0.41331 0.52558 0.0
C131 C 0.15528 0.42121 0.58815 0.0
O132 O 0.17581 0.44725 0.57877 0.0
C133 C 0.19187 0.3991 0.46256 0.0
O134 O 0.22732 0.42026 0.46869 0.0
C135 C 0.09992 0.45754 0.5189 0.0
O136 O 0.07723 0.4307 0.52279 0.0
O137 O 0.15025 0.45869 0.51828 0.0
O138 O 0.15218 0.39896 0.56934 0.0
O139 O 0.27079 0.40743 0.52851 0.0
C140 C 0.28963 0.39152 0.55043 0.0
O141 O 0.25788 0.3821 0.57227 0.0
O142 O 0.16295 0.38915 0.48422 0.0
Mg143 Mg 0.12175 0.83644 0.52139 0.0
C144 C 0.11239 0.83329 0.58609 0.0
O145 O 0.08255 0.8117 0.57408 0.0
C146 C 0.16352 0.8461 0.46006 0.0
O147 O 0.15328 0.81658 0.46116 0.0
C148 C 0.20831 0.79225 0.52441 0.0
O149 O 0.2295 0.81878 0.53178 0.0
O150 O 0.15891 0.79129 0.51881 0.0
O151 O 0.13767 0.85087 0.56804 0.0
O152 O 0.03601 0.84047 0.51565 0.0
C153 C 1.01524 0.86284 0.53014 0.0
O154 O 0.04548 0.88052 0.54706 0.0
O155 O 0.15617 0.86219 0.48406 0.0
Mg156 Mg 0.87052 0.13388 0.28803 0.0
C157 C 0.92181 0.09609 0.34401 0.0
O158 O 0.9619 0.08795 0.3267 0.0
C159 C 0.92859 0.12292 0.22698 0.0
O160 O 0.9646 0.14058 0.23952 0.0
C161 C 0.95851 0.1783 0.29848 0.0
O162 O 0.98017 0.15223 0.30677 0.0
O163 O 0.9104 0.1783 0.28988 0.0
O164 O 0.88476 0.11216 0.33264 0.0
O165 O 0.78441 0.13568 0.28683 0.0
C166 C 0.76202 0.11119 0.29612 0.0
O167 O 0.79169 0.08847 0.30583 0.0
O168 O 0.88964 0.11385 0.24314 0.0
Mg169 Mg 0.91473 0.60247 0.2803 0.0
C170 C 0.87212 0.64246 0.33646 0.0
O171 O 0.83049 0.64974 0.32005 0.0
C172 C 0.85639 0.61482 0.21976 0.0
O173 O 0.82065 0.5967 0.23187 0.0
C174 C 0.82198 0.561 0.29244 0.0
O175 O 0.80164 0.58778 0.29963 0.0
O176 O 0.87006 0.55974 0.28386 0.0
O177 O 0.90829 0.62604 0.3246 0.0
O178 O 0.99965 0.59598 0.27626 0.0
C179 C 0.02606 0.62074 0.27878 0.0
O180 O 1.00043 0.64647 0.28383 0.0
O181 O 0.89548 0.6235 0.23602 0.0
Mg182 Mg 0.88047 0.60992 0.52665 0.0
C183 C 0.86489 0.64824 0.46867 0.0
O184 O 0.81896 0.65363 0.4816 0.0
C185 C 0.93944 0.61901 0.58801 0.0
O186 O 0.97563 0.60164 0.57523 0.0
C187 C 0.96867 0.56648 0.51416 0.0
O188 O 0.98957 0.59306 0.50677 0.0
O189 O 0.92069 0.56574 0.52303 0.0
O190 O 0.90014 0.63407 0.48399 0.0
O191 O 0.79446 0.60823 0.52856 0.0
C192 C 0.7645 0.59575 0.50879 0.0
O193 O 0.78558 0.58018 0.48607 0.0
O194 O 0.90032 0.62817 0.57207 0.0
Mg195 Mg 0.92304 0.1358 0.53268 0.0
C196 C 0.93685 0.09496 0.47613 0.0
O197 O 0.98364 0.0906 0.48835 0.0
C198 C 0.86574 0.12886 0.59492 0.0
O199 O 0.82826 0.14465 0.58142 0.0
C200 C 0.83324 0.17759 0.51884 0.0
O201 O 0.81311 0.15042 0.51298 0.0
O202 O 0.88137 0.17934 0.52728 0.0
O203 O 0.90195 0.10934 0.49158 0.0
O204 O 1.00908 0.13834 0.53256 0.0
C205 C 0.0369 0.15015 0.51139 0.0
O206 O 1.01337 0.16443 0.48868 0.0
O207 O 0.90539 0.11985 0.5793 0.0
Mg208 Mg 0.67638 0.33503 0.78025 0.0
C209 C 0.68726 0.3314 0.71566 0.0
O210 O 0.71763 0.31034 0.72807 0.0
C211 C 0.63279 0.34536 0.84128 0.0
O212 O 0.64171 0.31569 0.84051 0.0
C213 C 0.59185 0.28978 0.77723 0.0
O214 O 0.56963 0.31611 0.77026 0.0
O215 O 0.64124 0.28942 0.78285 0.0
O216 O 0.66086 0.34881 0.73337 0.0
O217 O 0.76177 0.33977 0.78615 0.0
C218 C 0.78176 0.36242 0.7718 0.0
O219 O 0.75094 0.37991 0.7551 0.0
O220 O 0.64125 0.36106 0.81719 0.0
Mg221 Mg 0.62033 0.91307 0.77754 0.0
C222 C 0.65388 0.92117 0.71548 0.0
O223 O 0.63683 0.94794 0.72516 0.0
C224 C 0.60539 0.89597 0.83957 0.0
O225 O 0.56959 0.91673 0.83293 0.0
C226 C 0.70694 0.95606 0.78655 0.0
O227 O 0.72923 0.92925 0.78178 0.0
O228 O 0.65665 0.95758 0.78666 0.0
O229 O 0.6535 0.89859 0.73392 0.0
O230 O 0.53435 0.9095 0.77281 0.0
C231 C 0.51537 0.89373 0.75081 0.0
O232 O 0.54734 0.88319 0.72958 0.0
O233 O 0.63753 0.8875 0.81881 0.0
Mg234 Mg 0.68434 0.91365 0.52089 0.0
C235 C 0.69173 0.91916 0.58568 0.0
O236 O 0.71915 0.94163 0.5734 0.0
C237 C 0.64318 0.90131 0.45987 0.0
O238 O 0.65248 0.93095 0.45994 0.0
C239 C 0.59651 0.9573 0.52201 0.0
O240 O 0.5756 0.93089 0.53001 0.0
O241 O 0.64602 0.95838 0.51676 0.0
O242 O 0.66879 0.90026 0.56789 0.0
O243 O 0.77017 0.91041 0.51511 0.0
C244 C 0.79226 0.88934 0.53077 0.0
O245 O 0.76332 0.87241 0.54912 0.0
O246 O 0.65094 0.88621 0.48443 0.0
Mg247 Mg 0.61113 0.32827 0.52439 0.0
C248 C 0.64625 0.32461 0.5867 0.0
O249 O 0.63073 0.29694 0.57889 0.0
C250 C 0.6033 0.33749 0.46073 0.0
O251 O 0.57247 0.31444 0.4683 0.0
C252 C 0.69822 0.28508 0.51855 0.0
O253 O 0.71993 0.31239 0.52067 0.0
O254 O 0.64795 0.2832 0.51879 0.0
O255 O 0.64351 0.34605 0.56701 0.0
O256 O 0.52495 0.3328 0.52728 0.0
C257 C 0.50379 0.34497 0.55083 0.0
O258 O 0.53324 0.35092 0.57487 0.0
O259 O 0.62994 0.35069 0.48165 0.0
Mg260 Mg 0.36637 0.63993 0.27956 0.0
C261 C 0.34936 0.60309 0.33825 0.0
O262 O 0.3006 0.60287 0.32807 0.0
C263 C 0.38912 0.64132 0.21351 0.0
O264 O 0.38004 0.67014 0.22063 0.0
C265 C 0.46074 0.68007 0.28423 0.0
O266 O 0.4816 0.65246 0.28384 0.0
O267 O 0.41065 0.68263 0.28325 0.0
O268 O 0.3856 0.61432 0.32133 0.0
O269 O 0.28088 0.64567 0.27837 0.0
C270 C 0.25418 0.62308 0.26816 0.0
O271 O 0.27952 0.59878 0.25805 0.0
O272 O 0.3879 0.62132 0.23482 0.0
Mg273 Mg 0.42241 0.10824 0.27071 0.0
C274 C 0.43579 0.14766 0.32815 0.0
O275 O 0.48237 0.15257 0.31585 0.0
C276 C 0.36266 0.11697 0.20976 0.0
O277 O 0.32467 0.10224 0.22399 0.0
C278 C 0.33477 0.06461 0.28382 0.0
O279 O 0.31415 0.09097 0.29224 0.0
O280 O 0.38239 0.06412 0.27436 0.0
O281 O 0.401 0.13336 0.31255 0.0
O282 O 0.50826 0.10589 0.27073 0.0
C283 C 0.53557 0.09297 0.29144 0.0
O284 O 0.51148 0.07772 0.31333 0.0
O285 O 0.40376 0.12497 0.22462 0.0
Mg286 Mg 0.37142 0.10716 0.51651 0.0
C287 C 0.42178 0.14518 0.46033 0.0
O288 O 0.46081 0.15463 0.47778 0.0
C289 C 0.43202 0.12075 0.57623 0.0
O290 O 0.46983 0.10506 0.56289 0.0
C291 C 0.46019 0.06316 0.50675 0.0
O292 O 0.48017 0.08898 0.49644 0.0
O293 O 0.41245 0.06298 0.51606 0.0
O294 O 0.38586 0.12821 0.47163 0.0
O295 O 0.28509 0.10566 0.51777 0.0
C296 C 0.26314 0.13012 0.50802 0.0
O297 O 0.29329 0.15251 0.498 0.0
O298 O 0.391 0.12792 0.56089 0.0
Mg299 Mg 0.43166 0.64124 0.5225 0.0
C300 C 0.37654 0.60211 0.46915 0.0
O301 O 0.33882 0.59362 0.488 0.0
C302 C 0.37115 0.62755 0.582 0.0
O303 O 0.33297 0.64271 0.56845 0.0
C304 C 0.34333 0.68539 0.51248 0.0
O305 O 0.32307 0.65946 0.50264 0.0
O306 O 0.39114 0.6856 0.52169 0.0
O307 O 0.41381 0.61909 0.47879 0.0
O308 O 0.51804 0.64199 0.52193 0.0
C309 C 0.53861 0.61708 0.51224 0.0
O310 O 0.50718 0.59469 0.50362 0.0
O311 O 0.41274 0.62093 0.56695 0.0
Mg312 Mg 0.68354 0.83066 0.2814 0.0
C313 C 0.68885 0.82683 0.21646 0.0
O314 O 0.71691 0.80418 0.22785 0.0
C315 C 0.64488 0.8411 0.34328 0.0
O316 O 0.65708 0.81181 0.34273 0.0
C317 C 0.59624 0.78728 0.28177 0.0
O318 O 0.57467 0.81447 0.27825 0.0
O319 O 0.64634 0.78558 0.28403 0.0
O320 O 0.66655 0.84528 0.23498 0.0
O321 O 0.76921 0.83417 0.28693 0.0
C322 C 0.79119 0.8552 0.27118 0.0
O323 O 0.76227 0.87199 0.25272 0.0
O324 O 0.64995 0.85666 0.31878 0.0
Mg325 Mg 0.60263 0.40996 0.27789 0.0
C326 C 0.63237 0.41961 0.21534 0.0
O327 O 0.61424 0.44591 0.22563 0.0
C328 C 0.59065 0.38569 0.33869 0.0
O329 O 0.54867 0.4027 0.33396 0.0
C330 C 0.68877 0.453 0.28652 0.0
O331 O 0.71083 0.42611 0.28182 0.0
O332 O 0.63851 0.45456 0.28706 0.0
O333 O 0.63391 0.39679 0.23345 0.0
O334 O 0.51652 0.40604 0.27459 0.0
C335 C 0.49608 0.39207 0.25184 0.0
O336 O 0.52645 0.38353 0.22899 0.0
O337 O 0.62458 0.38281 0.3174 0.0
Mg338 Mg 0.67521 0.41222 1.02135 0.0
C339 C 0.67604 0.41813 0.08597 0.0
O340 O 0.70379 0.44077 0.07427 0.0
C341 C 0.63803 0.40288 0.95911 0.0
O342 O 0.65257 0.4318 0.96002 0.0
C343 C 0.59073 0.45706 1.0189 0.0
O344 O 0.56747 0.43016 1.02073 0.0
O345 O 0.64101 0.45797 1.01837 0.0
O346 O 0.65557 0.39867 0.06776 0.0
O347 O 0.76076 0.4074 1.01703 0.0
C348 C 0.78139 0.38687 0.03397 0.0
O349 O 0.75116 0.37126 0.05278 0.0
O350 O 0.64129 0.38698 0.98349 0.0
Mg351 Mg 0.6096 0.83477 1.02563 0.0
C352 C 0.64271 0.82666 0.08769 0.0
O353 O 0.62273 0.8004 0.07853 0.0
C354 C 0.59941 0.84976 0.96275 0.0
O355 O 0.56251 0.82961 0.96933 0.0
C356 C 0.69259 0.79022 1.01705 0.0
O357 O 0.71576 0.81706 1.01989 0.0
O358 O 0.64231 0.7892 1.01775 0.0
O359 O 0.64406 0.84901 0.06899 0.0
O360 O 0.52408 0.84042 0.02986 0.0
C361 C 0.50559 0.85567 0.05236 0.0
O362 O 0.53765 0.86462 0.07425 0.0
O363 O 0.63021 0.85874 0.98396 0.0
Mg364 Mg 0.37548 0.13608 0.77068 0.0
C365 C 0.3636 0.09684 0.82829 0.0
O366 O 0.31727 0.09128 0.81595 0.0
C367 C 0.43332 0.12842 0.7089 0.0
O368 O 0.47033 0.1446 0.72242 0.0
C369 C 0.4622 0.18034 0.78346 0.0
O370 O 0.48345 0.15408 0.79162 0.0
O371 O 0.41448 0.18052 0.77417 0.0
O372 O 0.3979 0.11147 0.81264 0.0
O373 O 0.28954 0.13771 0.77093 0.0
C374 C 0.2619 0.15039 0.79168 0.0
O375 O 0.2856 0.16581 0.81362 0.0
O376 O 0.39375 0.11923 0.72447 0.0
Mg377 Mg 0.42458 0.60738 0.77588 0.0
C378 C 0.43907 0.6454 0.83396 0.0
O379 O 0.4873 0.64717 0.82311 0.0
C380 C 0.36808 0.61777 0.71435 0.0
O381 O 0.32947 0.60268 0.72761 0.0
C382 C 0.3332 0.56558 0.78783 0.0
O383 O 0.31355 0.59222 0.79614 0.0
O384 O 0.38104 0.56435 0.77883 0.0
O385 O 0.40332 0.63314 0.81741 0.0
O386 O 0.5102 0.60164 0.77678 0.0
C387 C 0.53744 0.62371 0.76597 0.0
O388 O 0.51264 0.64744 0.75424 0.0
O389 O 0.40852 0.6253 0.73001 0.0
Mg390 Mg 0.36637 0.60714 1.01999 0.0
C391 C 0.41738 0.64234 0.9652 0.0
O392 O 0.46081 0.64201 0.98166 0.0
C393 C 0.38964 0.6074 0.08533 0.0
O394 O 0.37904 0.57869 0.07846 0.0
C395 C 0.46088 0.56635 1.01959 0.0
O396 O 0.4822 0.59312 1.02581 0.0
O397 O 0.41111 0.56474 1.01569 0.0
O398 O 0.37495 0.63184 0.97671 0.0
O399 O 0.28176 0.60056 1.02468 0.0
C400 C 0.25448 0.6249 1.02168 0.0
O401 O 0.27899 0.65077 1.01559 0.0
O402 O 0.3896 0.62717 0.06379 0.0
Mg403 Mg 0.41859 0.13858 1.01759 0.0
C404 C 0.37566 0.10038 0.96054 0.0
O405 O 0.33479 0.09236 0.97727 0.0
C406 C 0.35892 0.12491 0.07723 0.0
O407 O 0.32272 0.14251 0.06485 0.0
C408 C 0.32712 0.18125 1.00694 0.0
O409 O 0.30679 0.1553 0.99716 0.0
O410 O 0.37483 0.18157 1.01617 0.0
O411 O 0.41197 0.11668 0.97243 0.0
O412 O 0.50312 0.14516 1.02292 0.0
C413 C 0.53048 0.12083 1.01985 0.0
O414 O 0.50618 0.09511 1.01289 0.0
O415 O 0.39845 0.11655 0.06116 0.0
C416 C 0.13866 0.35213 0.16723 0.0
C417 C 0.12913 0.32505 0.18379 0.0
H418 H 0.14012 0.37351 0.12283 0.0
C419 C 0.11033 0.29905 0.16833 0.0
H420 H 0.15368 0.37239 0.1787 0.0
C421 C 0.10225 0.29972 0.13682 0.0
C422 C 0.11363 0.32628 0.11987 0.0
H423 H 0.10261 0.27789 0.18058 0.0
H424 H 0.08838 0.27902 0.12566 0.0
C425 C 0.13142 0.35266 0.13534 0.0
C426 C 0.09501 0.93548 0.13305 0.0
C427 C 0.12734 0.91373 0.1187 0.0
H428 H 0.062 0.9519 0.17481 0.0
C429 C 0.1488 0.88963 0.13604 0.0
H430 H 0.07805 0.95426 0.12008 0.0
C431 C 0.14058 0.88857 0.16784 0.0
C432 C 0.1101 0.91132 0.18239 0.0
H433 H 0.17437 0.87279 0.12538 0.0
H434 H 0.1593 0.87061 0.18108 0.0
C435 C 0.08603 0.93414 0.16446 0.0
C436 C 0.96205 0.58574 0.88404 0.0
C437 C 0.9179 0.59841 0.86923 0.0
H438 H 1.00023 0.57613 0.92674 0.0
C439 C 0.87463 0.60785 0.88724 0.0
H440 H 0.99593 0.57805 0.87096 0.0
C441 C 0.877 0.60669 0.9193 0.0
C442 C 0.92275 0.59612 0.93416 0.0
H443 H 0.83969 0.61746 0.87663 0.0
H444 H 0.84405 0.61562 0.93239 0.0
C445 C 0.96446 0.58463 0.91611 0.0
C446 C 0.82418 0.16331 0.92311 0.0
C447 C 0.8652 0.15193 0.94173 0.0
H448 H 0.79551 0.17079 0.87748 0.0
C449 C 0.9124 0.14253 0.92761 0.0
H450 H 0.78734 0.17092 0.93318 0.0
C451 C 0.91697 0.14238 0.89561 0.0
C452 C 0.87453 0.1517 0.87692 0.0
H453 H 0.94486 0.13372 0.94115 0.0
H454 H 0.95308 0.13367 0.88552 0.0
C455 C 0.82882 0.16324 0.89109 0.0
C456 C 0.1547 0.85859 0.66579 0.0
C457 C 0.13766 0.83341 0.68327 0.0
H458 H 0.16082 0.8782 0.62073 0.0
C459 C 0.1091 0.80983 0.66907 0.0
H460 H 0.17725 0.8769 0.67633 0.0
C461 C 0.09932 0.81066 0.63774 0.0
C462 C 0.11878 0.83485 0.61971 0.0
H463 H 0.09546 0.79022 0.68213 0.0
H464 H 0.07816 0.79163 0.62751 0.0
C465 C 0.1457 0.85917 0.63406 0.0
C466 C 0.1174 0.44483 0.63461 0.0
C467 C 0.13795 0.41869 0.62019 0.0
H468 H 0.09169 0.4655 0.67625 0.0
C469 C 0.14646 0.39195 0.63744 0.0
H470 H 0.11041 0.46571 0.62176 0.0
C471 C 0.1367 0.39197 0.66911 0.0
C472 C 0.11734 0.41853 0.68361 0.0
H473 H 0.16279 0.37161 0.62674 0.0
H474 H 0.14488 0.37144 0.68225 0.0
C475 C 0.10673 0.44467 0.66586 0.0
C476 C 0.87942 0.09991 0.39598 0.0
C477 C 0.92255 0.09074 0.37773 0.0
H478 H 0.84962 0.10799 0.44122 0.0
C479 C 0.96774 0.07911 0.39237 0.0
H480 H 0.8437 0.1087 0.38554 0.0
C481 C 0.97104 0.07862 0.42446 0.0
C482 C 0.92922 0.08972 0.44268 0.0
H483 H 1.00158 0.07171 0.3791 0.0
H484 H 1.00746 0.07088 0.43492 0.0
C485 C 0.8827 0.0994 0.42802 0.0
C486 C 0.83005 0.66184 0.38512 0.0
C487 C 0.87381 0.64901 0.36997 0.0
H488 H 0.79319 0.67211 0.42811 0.0
C489 C 0.91753 0.63975 0.38765 0.0
H490 H 0.79581 0.66937 0.3723 0.0
C491 C 0.91609 0.64134 0.41971 0.0
C492 C 0.87089 0.65224 0.43495 0.0
H493 H 0.95217 0.63 0.37681 0.0
H494 H 0.94948 0.63263 0.43255 0.0
C495 C 0.82861 0.66343 0.41721 0.0
C496 C 0.6925 0.30677 0.63302 0.0
C497 C 0.66354 0.32986 0.61838 0.0
H498 H 0.72328 0.28948 0.67496 0.0
C499 C 0.64571 0.35519 0.63541 0.0
H500 H 0.70661 0.28702 0.6203 0.0
C501 C 0.65425 0.35636 0.66718 0.0
C502 C 0.68151 0.33247 0.68199 0.0
H503 H 0.62274 0.37308 0.62452 0.0
H504 H 0.63845 0.37544 0.68018 0.0
C505 C 0.70187 0.3082 0.66438 0.0
C506 C 0.65682 0.89188 0.66593 0.0
C507 C 0.6697 0.91806 0.6832 0.0
H508 H 0.6528 0.87178 0.62095 0.0
C509 C 0.69264 0.94336 0.66856 0.0
H510 H 0.63857 0.87221 0.67678 0.0
C511 C 0.70114 0.94306 0.63707 0.0
C512 C 0.68598 0.91763 0.61934 0.0
H513 H 0.70297 0.96379 0.68141 0.0
H514 H 0.71801 0.96331 0.62653 0.0
C515 C 0.66448 0.89177 0.63406 0.0
C516 C 0.31817 0.58708 0.39051 0.0
C517 C 0.35955 0.59671 0.37117 0.0
H518 H 0.29107 0.58091 0.43668 0.0
C519 C 0.40861 0.60393 0.38436 0.0
H520 H 0.27991 0.58114 0.38112 0.0
C521 C 0.41488 0.60387 0.41621 0.0
C522 C 0.37233 0.59648 0.43565 0.0
H523 H 0.44143 0.61125 0.37022 0.0
H524 H 0.45255 0.61098 0.42562 0.0
C525 C 0.32452 0.58691 0.42242 0.0
C526 C 0.37945 0.14088 0.40843 0.0
C527 C 0.42227 0.15059 0.42663 0.0
H528 H 0.34962 0.1328 0.36321 0.0
C529 C 0.46681 0.16304 0.41198 0.0
H530 H 0.3442 0.13146 0.41889 0.0
C531 C 0.46983 0.16388 0.37989 0.0
C532 C 0.42834 0.15233 0.36169 0.0
H533 H 0.50038 0.17088 0.42523 0.0
H534 H 0.50578 0.1723 0.36938 0.0
C535 C 0.38242 0.14177 0.3764 0.0
C536 C 0.6593 0.85507 0.16905 0.0
C537 C 0.68128 0.82891 0.18297 0.0
H538 H 0.63097 0.87529 0.12717 0.0
C539 C 0.69489 0.80364 0.1646 0.0
H540 H 0.64878 0.87494 0.18267 0.0
C541 C 0.68431 0.80376 0.13334 0.0
C542 C 0.66086 0.82937 0.11955 0.0
H543 H 0.71205 0.78316 0.17451 0.0
H544 H 0.69336 0.78343 0.12 0.0
C545 C 0.6496 0.85541 0.13738 0.0
C546 C 0.67761 0.44329 0.13697 0.0
C547 C 0.66747 0.41693 0.11941 0.0
H548 H 0.6745 0.46454 0.18102 0.0
C549 C 0.64891 0.39031 0.1341 0.0
H550 H 0.69199 0.46417 0.1264 0.0
C551 C 0.63979 0.3904 0.16584 0.0
C552 C 0.64814 0.41729 0.18297 0.0
H553 H 0.64112 0.36962 0.1211 0.0
H554 H 0.62434 0.36995 0.17671 0.0
C555 C 0.66762 0.44354 0.16829 0.0
C556 C 0.32993 0.08036 0.87996 0.0
C557 C 0.37105 0.09247 0.86187 0.0
H558 H 0.29913 0.07313 0.92516 0.0
C559 C 0.4163 0.10382 0.87672 0.0
H560 H 0.29451 0.07131 0.86937 0.0
C561 C 0.41888 0.1049 0.90878 0.0
C562 C 0.37628 0.09464 0.92686 0.0
H563 H 0.4488 0.11325 0.8636 0.0
H564 H 0.45349 0.11498 0.91935 0.0
C565 C 0.33252 0.08143 0.91205 0.0
C566 C 0.38113 0.64372 0.88082 0.0
C567 C 0.42988 0.65092 0.86718 0.0
H568 H 0.33865 0.63577 0.92249 0.0
C569 C 0.47221 0.65959 0.88625 0.0
H570 H 0.34763 0.63709 0.86687 0.0
C571 C 0.46721 0.65863 0.91819 0.0
C572 C 0.41968 0.64917 0.93184 0.0
H573 H 0.51026 0.66553 0.87659 0.0
H574 H 0.50145 0.66389 0.93211 0.0
C575 C 0.37605 0.64293 0.91279 0.0
C576 C 0.96862 0.23484 0.28924 0.0
C577 C 0.99128 0.20647 0.29684 0.0
H578 H 0.98129 0.28252 0.28047 0.0
C579 C 0.04616 0.205 0.30194 0.0
H580 H 0.92656 0.2368 0.28516 0.0
C581 C 0.07775 0.23121 0.29904 0.0
C582 C 0.0551 0.25952 0.2912 0.0
H583 H 0.06498 0.18347 0.30777 0.0
H584 H 0.11989 0.22924 0.30283 0.0
C585 C 1.00012 0.26107 0.28656 0.0
C586 C 0.29029 0.98242 0.27154 0.0
C587 C 0.23624 0.984 0.27897 0.0
H588 H 0.36375 0.0064 0.26734 0.0
C589 C 0.21514 0.01221 0.28858 0.0
H590 H 0.30794 0.96104 0.2641 0.0
C591 C 0.24737 0.03824 0.29059 0.0
C592 C 0.30136 0.03667 0.28294 0.0
H593 H 0.17376 0.01419 0.29458 0.0
H594 H 0.22976 0.05968 0.29791 0.0
C595 C 0.32243 0.00843 0.27346 0.0
C596 C 0.08512 0.01546 1.01232 0.0
C597 C 0.06356 0.98597 1.01567 0.0
H598 H 0.07018 0.06376 1.01013 0.0
C599 C 1.0085 0.98289 1.0189 0.0
H600 H 0.12733 0.0186 1.00976 0.0
C601 C 0.9758 0.00871 1.01934 0.0
C602 C 0.99732 0.03822 1.0163 0.0
H603 H 0.9905 0.96051 1.02157 0.0
H604 H 0.93367 0.0055 1.02224 0.0
C605 C 0.0523 0.04132 1.01249 0.0
C606 C 0.23911 0.20747 1.00283 0.0
C607 C 0.29337 0.20889 1.00976 0.0
H608 H 0.16514 0.2314 1.00127 0.0
C609 C 0.31459 0.23666 1.02046 0.0
H610 H 0.22143 0.18638 0.99462 0.0
C611 C 0.28233 0.26238 1.02427 0.0
C612 C 0.22802 0.26095 1.01757 0.0
H613 H 0.35614 0.23855 1.02606 0.0
H614 H 0.30011 0.28339 0.03261 0.0
C615 C 0.20674 0.23322 1.00675 0.0
C616 C 0.9826 0.74299 0.78631 0.0
C617 C 1.00383 0.71381 0.79197 0.0
H618 H 0.99764 0.79084 0.78033 0.0
C619 C 0.05871 0.71101 0.79648 0.0
H620 H 0.94057 0.74598 0.78277 0.0
C621 C 0.09168 0.73677 0.79485 0.0
C622 C 0.0704 0.76591 0.78896 0.0
H623 H 0.07642 0.68882 0.80082 0.0
H624 H 0.13379 0.73382 0.79808 0.0
C625 C 1.01544 0.76873 0.78495 0.0
C626 C 0.71852 0.01218 0.79827 0.0
C627 C 0.74052 0.98368 0.7904 0.0
H628 H 0.73243 0.05978 0.8072 0.0
C629 C 0.79548 0.98169 0.78582 0.0
H630 H 0.67642 0.01448 0.80201 0.0
C631 C 0.82762 0.00764 0.78862 0.0
C632 C 0.80562 0.03618 0.79631 0.0
H633 H 0.81381 0.96008 0.77969 0.0
H634 H 0.86965 0.00534 0.78461 0.0
C635 C 0.75075 0.03811 0.80132 0.0
C636 C 0.7804 0.76411 1.01867 0.0
C637 C 0.72528 0.7621 1.015 0.0
H638 H 0.85405 0.7402 1.02121 0.0
C639 C 0.70237 0.73316 1.01011 0.0
H640 H 0.79943 0.78603 1.02252 0.0
C641 C 0.73396 0.7068 1.00916 0.0
C642 C 0.78901 0.70882 1.01334 0.0
H643 H 0.66008 0.73085 1.00717 0.0
H644 H 0.71509 0.68478 1.00559 0.0
C645 C 0.81184 0.7378 1.01797 0.0
C646 C 0.24461 0.54033 0.7939 0.0
C647 C 0.29872 0.53808 0.78674 0.0
H648 H 0.17008 0.51714 0.79735 0.0
C649 C 0.31906 0.50954 0.77761 0.0
H650 H 0.22758 0.56201 0.80095 0.0
C651 C 0.2861 0.4839 0.77555 0.0
C652 C 0.23193 0.48615 0.78249 0.0
H653 H 0.36045 0.50699 0.77187 0.0
H654 H 0.30322 0.46229 0.76837 0.0
C655 C 0.21154 0.51465 0.79175 0.0
C656 C 0.05683 0.54051 0.50907 0.0
C657 C 1.002 0.53847 0.51427 0.0
H658 H 0.13093 0.51671 0.5066 0.0
C659 C 0.97986 0.5096 0.52039 0.0
H660 H 0.07526 0.56242 0.50435 0.0
C661 C 1.01176 0.48344 0.5215 0.0
C662 C 0.06668 0.4855 0.51674 0.0
H663 H 0.93787 0.50718 0.52448 0.0
H664 H 0.99326 0.4616 0.52647 0.0
C665 C 0.08886 0.51433 0.51041 0.0
C666 C 0.25527 0.71127 0.50723 0.0
C667 C 0.30921 0.71298 0.51499 0.0
H668 H 0.18101 0.73474 0.50428 0.0
C669 C 0.32939 0.74089 0.526 0.0
H670 H 0.2383 0.69009 0.49876 0.0
C671 C 0.29643 0.76647 0.52917 0.0
C672 C 0.24247 0.76474 0.5215 0.0
H673 H 0.37061 0.74299 0.53228 0.0
H674 H 0.31339 0.78763 0.5377 0.0
C675 C 0.22227 0.73683 0.5105 0.0
C676 C 0.73325 0.53562 0.29719 0.0
C677 C 0.78809 0.53324 0.29224 0.0
H678 H 0.6587 0.51226 0.29917 0.0
C679 C 0.80981 0.50423 0.28624 0.0
H680 H 0.71517 0.55766 0.30184 0.0
C681 C 0.77749 0.47827 0.28489 0.0
C682 C 0.72255 0.48068 0.2893 0.0
H683 H 0.85182 0.50156 0.28236 0.0
H684 H 0.79566 0.45632 0.27995 0.0
C685 C 0.7008 0.50963 0.29563 0.0
C686 C 0.7112 0.22805 0.51314 0.0
C687 C 0.73248 0.25746 0.51763 0.0
H688 H 0.72636 0.17985 0.50973 0.0
C689 C 0.78741 0.26044 0.5218 0.0
H690 H 0.66914 0.22496 0.50983 0.0
C691 C 0.82021 0.23463 0.52193 0.0
C692 C 0.79896 0.20519 0.51766 0.0
H693 H 0.80522 0.28275 0.52536 0.0
H694 H 0.86219 0.23776 0.52553 0.0
C695 C 0.74411 0.20222 0.51304 0.0
C696 C 0.54897 0.20733 0.79048 0.0
C697 C 0.49499 0.20853 0.78277 0.0
H698 H 0.62205 0.23189 0.79465 0.0
C699 C 0.47335 0.23665 0.77343 0.0
H700 H 0.567 0.186 0.79771 0.0
C701 C 0.50495 0.2629 0.77167 0.0
C702 C 0.55901 0.26167 0.77914 0.0
H703 H 0.43202 0.2384 0.76728 0.0
H704 H 0.48689 0.28417 0.76431 0.0
C705 C 0.58065 0.2336 0.78864 0.0
C706 C 0.54866 0.03752 0.50236 0.0
C707 C 0.49464 0.03578 0.50993 0.0
H708 H 0.62329 0.01433 0.5004 0.0
C709 C 0.47467 0.00808 0.52153 0.0
H710 H 0.56547 0.05855 0.49345 0.0
C711 C 0.50792 0.98276 0.52552 0.0
C712 C 0.56199 0.98453 0.51811 0.0
H713 H 0.43339 0.00596 0.52769 0.0
H714 H 0.49111 0.96176 0.53452 0.0
C715 C 0.58197 0.01221 0.50646 0.0
C716 C 0.58369 0.7301 0.28535 0.0
C717 C 0.56205 0.75967 0.28311 0.0
H718 H 0.56871 0.6818 0.28752 0.0
C719 C 0.50675 0.76285 0.28189 0.0
H720 H 0.62606 0.72686 0.28637 0.0
C721 C 0.47386 0.7371 0.28263 0.0
C722 C 0.49544 0.7075 0.28453 0.0
H723 H 0.48864 0.78529 0.28023 0.0
H724 H 0.43152 0.74042 0.28142 0.0
C725 C 0.55074 0.70429 0.28602 0.0
C726 C 0.58133 0.51447 1.02031 0.0
C727 C 0.55821 0.48528 1.01792 0.0
H728 H 0.56869 0.56298 1.0228 0.0
C729 C 0.50296 0.48305 1.01524 0.0
H730 H 0.62374 0.51696 1.02242 0.0
C731 C 0.47143 0.50934 1.01533 0.0
C732 C 0.49438 0.53851 1.01828 0.0
H733 H 0.48382 0.46091 1.01323 0.0
H734 H 0.42901 0.50674 1.01348 0.0
C735 C 0.54971 0.54082 1.02059 0.0
C736 C 0.14062 0.37763 0.41815 0.0
C737 C 0.1889 0.38652 0.43134 0.0
H738 H 0.10178 0.35985 0.37798 0.0
C739 C 0.23542 0.38442 0.414 0.0
H740 H 0.10423 0.37935 0.4311 0.0
C741 C 0.23413 0.37291 0.38427 0.0
C742 C 0.1861 0.36416 0.37094 0.0
H743 H 0.27312 0.39113 0.42366 0.0
H744 H 0.27083 0.37081 0.37164 0.0
C745 C 0.13913 0.36691 0.38783 0.0
C746 C 0.17603 0.85603 0.37451 0.0
C747 C 0.17284 0.88803 0.37169 0.0
H748 H 0.17643 0.81764 0.40488 0.0
C749 C 0.17471 0.90625 0.39832 0.0
H750 H 0.17523 0.84139 0.35444 0.0
C751 C 0.17517 0.89267 0.42728 0.0
C752 C 0.17391 0.86063 0.43011 0.0
H753 H 0.173 0.93104 0.39691 0.0
H754 H 0.17365 0.90729 0.44736 0.0
C755 C 0.17664 0.84245 0.40347 0.0
C756 C 0.15127 0.87137 0.8853 0.0
C757 C 0.19995 0.86772 0.87029 0.0
H758 H 0.11209 0.8843 0.92716 0.0
C759 C 0.24682 0.87514 0.88567 0.0
H760 H 0.11472 0.86539 0.87385 0.0
C761 C 0.24527 0.88636 0.91551 0.0
C762 C 0.19693 0.88947 0.93088 0.0
H763 H 0.28479 0.87238 0.87453 0.0
H764 H 0.28209 0.89219 0.92676 0.0
C765 C 0.14982 0.88177 0.91572 0.0
C766 C 0.1634 0.40651 0.90033 0.0
C767 C 0.16175 0.38901 0.87321 0.0
H768 H 0.16133 0.40623 0.94938 0.0
C769 C 0.16402 0.35692 0.8752 0.0
H770 H 0.16235 0.43134 0.89956 0.0
C771 C 0.16362 0.34258 0.90378 0.0
C772 C 0.16085 0.36005 0.93088 0.0
H773 H 0.16336 0.34282 0.85474 0.0
H774 H 0.16282 0.31774 0.90453 0.0
C775 C 0.16291 0.39215 0.92892 0.0
C776 C 0.89074 0.62629 0.66988 0.0
C777 C 0.93821 0.62661 0.68659 0.0
H778 H 0.85406 0.62476 0.62565 0.0
C779 C 0.9863 0.62517 0.67053 0.0
H780 H 0.85306 0.62784 0.68155 0.0
C781 C 0.98685 0.62295 0.63845 0.0
C782 C 0.93937 0.62319 0.62175 0.0
H783 H 0.02349 0.62563 0.68279 0.0
H784 H 0.02443 0.62132 0.62669 0.0
C785 C 0.89134 0.625 0.63783 0.0
C786 C 0.81846 0.12497 0.67753 0.0
C787 C 0.86642 0.12445 0.69376 0.0
H788 H 0.7806 0.12705 0.63353 0.0
C789 C 0.91402 0.12477 0.67715 0.0
H790 H 0.78116 0.1245 0.68969 0.0
C791 C 0.91368 0.1251 0.64505 0.0
C792 C 0.86575 0.12592 0.62881 0.0
H793 H 0.95164 0.12392 0.68895 0.0
H794 H 0.95105 0.12532 0.63296 0.0
C795 C 0.81814 0.1262 0.64541 0.0
C796 C 0.88035 0.11621 0.17718 0.0
C797 C 0.92835 0.11871 0.1932 0.0
H798 H 0.84197 0.11393 0.1334 0.0
C799 C 0.97565 0.1202 0.17637 0.0
H800 H 0.84316 0.11547 0.18944 0.0
C801 C 0.97501 0.11892 0.14426 0.0
C802 C 0.92695 0.11708 0.12823 0.0
H803 H 1.01321 0.12237 0.18806 0.0
H804 H 1.01215 0.11975 0.13195 0.0
C805 C 0.87962 0.11578 0.14505 0.0
C806 C 0.8088 0.62202 0.13753 0.0
C807 C 0.85669 0.62412 0.12134 0.0
H808 H 0.77117 0.61722 0.18138 0.0
C809 C 0.90428 0.62444 0.13794 0.0
H810 H 0.77149 0.62194 0.12538 0.0
C811 C 0.904 0.62285 0.17001 0.0
C812 C 0.85617 0.62012 0.18617 0.0
H813 H 0.9418 0.62647 0.12617 0.0
H814 H 0.94137 0.6229 0.18209 0.0
C815 C 0.80859 0.61954 0.16957 0.0
C816 C 0.62604 0.40642 0.90244 0.0
C817 C 0.62623 0.38849 0.92924 0.0
H818 H 0.62736 0.40686 0.85341 0.0
C819 C 0.62051 0.35657 0.92672 0.0
H820 H 0.62967 0.43116 0.90363 0.0
C821 C 0.61897 0.34268 0.89788 0.0
C822 C 0.62321 0.36045 0.87108 0.0
H823 H 0.61998 0.34217 0.94694 0.0
H824 H 0.61722 0.31787 0.89669 0.0
C825 C 0.62456 0.39253 0.87362 0.0
C826 C 0.55573 0.86575 0.9147 0.0
C827 C 0.60257 0.86195 0.93141 0.0
H828 H 0.52037 0.87974 0.87251 0.0
C829 C 0.65128 0.86837 0.91736 0.0
H830 H 0.51771 0.86089 0.92503 0.0
C831 C 0.65287 0.87825 0.88678 0.0
C832 C 0.60569 0.88261 0.87043 0.0
H833 H 0.6879 0.86527 0.9298 0.0
H834 H 0.69062 0.88329 0.87623 0.0
C835 C 0.55724 0.87641 0.88468 0.0
C836 C 0.63358 0.85344 0.42865 0.0
C837 C 0.63316 0.88558 0.43046 0.0
H838 H 0.63694 0.8141 0.39947 0.0
C839 C 0.62895 0.90278 0.40329 0.0
H840 H 0.63633 0.83955 0.44916 0.0
C841 C 0.6295 0.88823 0.37478 0.0
C842 C 0.63416 0.85622 0.37293 0.0
H843 H 0.62786 0.92762 0.40393 0.0
H844 H 0.62894 0.90219 0.35426 0.0
C845 C 0.63404 0.83889 0.40013 0.0
C846 C 0.64679 0.36271 0.41551 0.0
C847 C 0.6024 0.34887 0.42901 0.0
H848 H 0.6785 0.38439 0.37519 0.0
C849 C 0.55589 0.34556 0.41182 0.0
H850 H 0.68316 0.36529 0.42832 0.0
C851 C 0.553 0.35684 0.38207 0.0
C852 C 0.59703 0.3708 0.36856 0.0
H853 H 0.52105 0.33503 0.42171 0.0
H854 H 0.51605 0.35495 0.36967 0.0
C855 C 0.64434 0.37325 0.38518 0.0
C856 C 0.39677 0.65528 0.15791 0.0
C857 C 0.39536 0.63253 0.18083 0.0
H858 H 0.39651 0.66532 0.10979 0.0
C859 C 0.39657 0.60158 0.17197 0.0
H860 H 0.39623 0.67939 0.16393 0.0
C861 C 0.39673 0.59357 0.14091 0.0
C862 C 0.39581 0.61631 0.11797 0.0
H863 H 0.39571 0.58351 0.18898 0.0
H864 H 0.39615 0.56945 0.13491 0.0
C865 C 0.39706 0.64726 0.12683 0.0
C866 C 0.40863 0.11899 0.15893 0.0
C867 C 0.36139 0.11959 0.17587 0.0
H868 H 0.44476 0.11901 0.11451 0.0
C869 C 0.3131 0.12044 0.16 0.0
H870 H 0.44645 0.11786 0.17047 0.0
C871 C 0.31215 0.12149 0.12788 0.0
C872 C 0.3594 0.1207 0.11096 0.0
H873 H 0.27606 0.12066 0.17243 0.0
H874 H 0.27443 0.12296 0.11626 0.0
C875 C 0.40763 0.11916 0.12685 0.0
C876 C 0.38542 0.12436 0.65878 0.0
C877 C 0.43335 0.12553 0.675 0.0
H878 H 0.34741 0.12309 0.61491 0.0
C879 C 0.48092 0.12636 0.65838 0.0
H880 H 0.34807 0.12416 0.67089 0.0
C881 C 0.48057 0.12534 0.62625 0.0
C882 C 0.4326 0.12448 0.61004 0.0
H883 H 0.51845 0.12751 0.67024 0.0
H884 H 0.51786 0.12529 0.61406 0.0
C885 C 0.38503 0.12422 0.62668 0.0
C886 C 0.4166 0.62225 0.66455 0.0
C887 C 0.36845 0.62126 0.68057 0.0
H888 H 0.45517 0.62394 0.6209 0.0
C889 C 0.32103 0.62127 0.6638 0.0
H890 H 0.45384 0.62184 0.67677 0.0
C891 C 0.32178 0.62284 0.63171 0.0
C892 C 0.36999 0.62351 0.61572 0.0
H893 H 0.28334 0.6203 0.67551 0.0
H894 H 0.28465 0.62344 0.61941 0.0
C895 C 0.41737 0.623 0.6325 0.0
C896 C 0.36281 0.36428 0.28031 0.0
C897 C 0.33587 0.35913 0.2526 0.0
H898 H 0.43428 0.37974 0.30184 0.0
C899 C 0.36159 0.36564 0.22482 0.0
H900 H 0.34367 0.35984 0.30207 0.0
C901 C 0.41342 0.37667 0.22468 0.0
C902 C 0.44018 0.38222 0.25233 0.0
H903 H 0.34169 0.36205 0.20313 0.0
H904 H 0.43248 0.38104 0.20288 0.0
C905 C 0.41432 0.37607 0.28018 0.0
C906 C 0.877 0.86377 0.24519 0.0
C907 C 0.84846 0.86087 0.27259 0.0
H908 H 0.9521 0.87256 0.22433 0.0
C909 C 0.87418 0.86593 0.30068 0.0
H910 H 0.85779 0.8602 0.22328 0.0
C911 C 0.92774 0.87428 0.30121 0.0
C912 C 0.95632 0.87666 0.27372 0.0
H913 H 0.85259 0.86421 0.32205 0.0
H914 H 0.94705 0.87821 0.32302 0.0
C915 C 0.93068 0.871 0.24578 0.0
C916 C 0.37482 0.88724 0.08024 0.0
C917 C 0.34692 0.89108 0.05269 0.0
H918 H 0.44688 0.87307 0.10168 0.0
C919 C 0.37117 0.88244 1.02498 0.0
H920 H 0.35707 0.89353 0.10195 0.0
C921 C 0.42211 0.86993 1.0249 0.0
C922 C 0.45018 0.86643 0.05246 0.0
H923 H 0.35039 0.88477 1.0034 0.0
H924 H 0.43989 0.86358 1.00321 0.0
C925 C 0.42611 0.87538 0.08009 0.0
C926 C 0.91864 0.36778 0.06113 0.0
C927 C 0.9461 0.36414 0.03344 0.0
H928 H 0.84457 0.3774 0.08278 0.0
C929 C 0.9194 0.3687 1.00559 0.0
H930 H 0.93856 0.36453 0.08287 0.0
C931 C 0.86598 0.37729 1.00557 0.0
C932 C 0.83845 0.3804 0.03337 0.0
H933 H 0.94011 0.36637 0.98398 0.0
H934 H 0.84594 0.3808 0.98393 0.0
C935 C 0.86509 0.37526 0.06108 0.0
C936 C 0.67932 0.65191 0.76493 0.0
C937 C 0.7069 0.62618 0.77576 0.0
H938 H 0.60439 0.67119 0.75304 0.0
C939 C 0.6783 0.59945 0.78304 0.0
H940 H 0.70014 0.6728 0.75902 0.0
C941 C 0.62338 0.59851 0.77973 0.0
C942 C 0.5958 0.62422 0.76883 0.0
H943 H 0.6983 0.57918 0.79146 0.0
H944 H 0.60258 0.57764 0.78571 0.0
C945 C 0.62441 0.6509 0.76139 0.0
C946 C 0.11722 0.15888 0.81231 0.0
C947 C 0.09373 0.13517 0.79515 0.0
H948 H 0.18855 0.18218 0.8248 0.0
C949 C 0.12599 0.1165 0.77676 0.0
H950 H 0.09347 0.17365 0.82677 0.0
C951 C 0.18052 0.12177 0.77524 0.0
C952 C 0.20398 0.14548 0.79248 0.0
H953 H 0.10904 0.09817 0.76317 0.0
H954 H 0.20437 0.10704 0.7608 0.0
C955 C 0.17174 0.16382 0.81118 0.0
C956 C 0.61384 0.14662 0.03741 0.0
C957 C 0.58832 0.12085 1.02498 0.0
H958 H 0.68672 0.16643 0.05239 0.0
C959 C 0.61846 0.09462 1.01805 0.0
H960 H 0.59175 0.16712 0.04313 0.0
C961 C 0.67296 0.09422 1.02325 0.0
C962 C 0.69848 0.11996 0.03575 0.0
H963 H 0.60003 0.07434 1.00845 0.0
H964 H 0.69505 0.07374 1.01746 0.0
C965 C 0.66827 0.14613 0.04286 0.0
C966 C 0.1701 0.59847 0.03637 0.0
C967 C 0.19633 0.62464 1.02542 0.0
H968 H 0.09626 0.57799 0.04859 0.0
C969 C 0.16649 0.65094 1.01837 0.0
H970 H 0.19193 0.57789 0.04213 0.0
C971 C 0.11161 0.65099 1.02195 0.0
C972 C 0.08537 0.62483 0.03291 0.0
H973 H 0.18547 0.67152 1.00987 0.0
H974 H 0.08979 0.67154 1.0161 0.0
C975 C 0.11525 0.5986 0.0402 0.0
C976 C 0.431 0.88106 0.77827 0.0
C977 C 0.45937 0.88397 0.75072 0.0
H978 H 0.35859 0.86719 0.79976 0.0
C979 C 0.4351 0.87512 0.72313 0.0
H980 H 0.44894 0.88733 0.79993 0.0
C981 C 0.38337 0.8639 0.72299 0.0
C982 C 0.35519 0.86055 0.75053 0.0
H983 H 0.4561 0.87696 0.70157 0.0
H984 H 0.36553 0.85763 0.7013 0.0
C985 C 0.37958 0.86915 0.77821 0.0
C986 C 0.86491 0.3742 0.74423 0.0
C987 C 0.83892 0.36862 0.77207 0.0
H988 H 0.93799 0.38506 0.722 0.0
C989 C 0.86714 0.37114 0.79967 0.0
H990 H 0.84378 0.37254 0.72269 0.0
C991 C 0.92066 0.37958 0.79934 0.0
C992 C 0.94674 0.38457 0.77135 0.0
H993 H 0.84757 0.36728 0.82141 0.0
H994 H 0.94195 0.38142 0.8208 0.0
C995 C 0.91855 0.38151 0.74384 0.0
C996 C 0.36975 0.37246 0.57783 0.0
C997 C 0.34514 0.38078 0.5502 0.0
H998 H 0.43907 0.35473 0.59963 0.0
C999 C 0.37265 0.37649 0.52251 0.0
H1000 H 0.34947 0.37536 0.5995 0.0
C1001 C 0.42357 0.36379 0.52252 0.0
C1002 C 0.44832 0.35581 0.55026 0.0
H1003 H 0.3544 0.38232 0.50083 0.0
H1004 H 0.44395 0.36081 0.50089 0.0
C1005 C 0.42096 0.36048 0.57789 0.0
C1006 C 0.92969 0.87027 0.5019 0.0
C1007 C 0.95789 0.8687 0.52959 0.0
H1008 H 0.85474 0.87944 0.48043 0.0
C1009 C 0.93162 0.87494 0.55723 0.0
H1010 H 0.94941 0.8659 0.48029 0.0
C1011 C 0.87784 0.88195 0.55735 0.0
C1012 C 0.8497 0.88404 0.52975 0.0
H1013 H 0.95264 0.87402 0.57885 0.0
H1014 H 0.8582 0.88595 0.57907 0.0
C1015 C 0.87599 0.87839 0.50194 0.0
C1016 C 0.61748 0.12115 0.27523 0.0
C1017 C 0.59356 0.09753 0.29232 0.0
H1018 H 0.68937 0.14443 0.26341 0.0
C1019 C 0.62539 0.07901 0.31103 0.0
H1020 H 0.59396 0.13602 0.26078 0.0
C1021 C 0.67996 0.08369 0.3123 0.0
C1022 C 0.70391 0.10732 0.2953 0.0
H1023 H 0.6082 0.06071 0.32454 0.0
H1024 H 0.7034 0.06879 0.32677 0.0
C1025 C 0.67206 0.12615 0.27689 0.0
C1026 C 0.11278 0.64821 0.28217 0.0
C1027 C 0.0844 0.62116 0.27584 0.0
H1028 H 0.18842 0.6701 0.28474 0.0
C1029 C 0.11228 0.59493 0.26647 0.0
H1030 H 0.09255 0.66887 0.28946 0.0
C1031 C 0.16731 0.59576 0.26352 0.0
C1032 C 0.19572 0.62275 0.27011 0.0
H1033 H 0.09163 0.57379 0.26131 0.0
H1034 H 0.1876 0.57509 0.25636 0.0
C1035 C 0.1678 0.64897 0.27945 0.0
C1036 C 0.67213 0.58302 0.49253 0.0
C1037 C 0.70669 0.60114 0.50999 0.0
H1038 H 0.59217 0.57382 0.47969 0.0
C1039 C 0.68561 0.62512 0.52789 0.0
H1040 H 0.68704 0.56445 0.47845 0.0
C1041 C 0.63115 0.63088 0.52822 0.0
C1042 C 0.59659 0.61244 0.51106 0.0
H1043 H 0.71125 0.63971 0.54142 0.0
H1044 H 0.61607 0.64943 0.54225 0.0
C1045 C 0.61771 0.58843 0.49326 0.0
C1046 C 0.1273 0.16275 0.49166 0.0
C1047 C 0.09484 0.14513 0.51089 0.0
H1048 H 0.20569 0.17183 0.47581 0.0
C1049 C 0.11807 0.12192 0.52885 0.0
H1050 H 0.11068 0.1807 0.47749 0.0
C1051 C 0.17257 0.11642 0.52749 0.0
C1052 C 0.20505 0.13437 0.50855 0.0
H1053 H 0.09406 0.10773 0.54371 0.0
H1054 H 0.18934 0.09848 0.54162 0.0
C1055 C 0.18178 0.15761 0.49071 0.0
loop_
_geom_bond_atom_site_label_1
_geom_bond_atom_site_label_2
_geom_bond_distance
_geom_bond_site_symmetry_2
_ccdc_geom_bond_type
Mg0 O7 2.141 . S
Mg0 O8 2.048 . S
Mg0 O9 2.048 . S
Mg0 O12 2.141 . S
C1 O2 1.313 . S
C1 O8 1.195 . S
O2 C1 1.313 . S
C3 O4 1.245 . S
C3 O12 1.289 . S
O4 C3 1.245 . S
C5 O6 1.245 . S
C5 O7 1.289 . S
O6 C5 1.245 . S
O7 Mg0 2.141 . S
O7 C5 1.289 . S
O8 Mg0 2.048 . S
O8 C1 1.195 . S
O9 Mg0 2.048 . S
O9 C10 1.195 . S
C10 O9 1.195 . S
C10 O11 1.313 . S
O11 C10 1.313 . S
O12 Mg0 2.141 . S
O12 C3 1.289 . S
Mg13 O20 2.141 . S
Mg13 O21 2.048 . S
Mg13 O22 2.048 . S
Mg13 O25 2.141 . S
C14 O15 1.313 . S
C14 O21 1.195 . S
O15 C14 1.313 . S
C16 O17 1.245 . S
C16 O25 1.289 . S
O17 C16 1.245 . S
C18 O19 1.245 . S
C18 O20 1.289 . S
O19 C18 1.245 . S
O20 Mg13 2.141 . S
O20 C18 1.289 . S
O21 Mg13 2.048 . S
O21 C14 1.195 . S
O22 Mg13 2.048 . S
O22 C23 1.174 1_455 S
C23 O22 1.174 1_655 S
C23 O24 1.320 . S
O24 C23 1.320 . S
O25 Mg13 2.141 . S
O25 C16 1.289 . S
Mg26 O33 2.141 1_554 S
Mg26 O34 2.053 . S
Mg26 O35 2.048 . S
Mg26 O38 2.137 1_554 S
C27 O28 1.313 . S
C27 O34 1.195 . S
O28 C27 1.313 . S
C29 O30 1.245 . S
C29 O38 1.289 . S
O30 C29 1.245 . S
C31 O32 1.245 . S
C31 O33 1.289 . S
O32 C31 1.245 . S
O33 Mg26 2.141 1_556 S
O33 C31 1.289 . S
O34 Mg26 2.053 . S
O34 C27 1.195 . S
O35 Mg26 2.048 . S
O35 C36 1.195 . S
C36 O35 1.195 . S
C36 O37 1.313 . S
O37 C36 1.313 . S
O38 Mg26 2.137 1_556 S
O38 C29 1.289 . S
Mg39 O46 2.141 1_554 S
Mg39 O47 2.053 . S
Mg39 O48 2.048 . S
Mg39 O51 2.137 1_554 S
C40 O41 1.313 . S
C40 O47 1.195 . S
O41 C40 1.313 . S
C42 O43 1.245 . S
C42 O51 1.289 . S
O43 C42 1.245 . S
C44 O45 1.245 . S
C44 O46 1.289 . S
O45 C44 1.245 . S
O46 Mg39 2.141 1_556 S
O46 C44 1.289 . S
O47 Mg39 2.053 . S
O47 C40 1.195 . S
O48 Mg39 2.048 . S
O48 C49 1.195 1_455 S
C49 O48 1.195 1_655 S
C49 O50 1.313 . S
O50 C49 1.313 . S
O51 Mg39 2.137 1_556 S
O51 C42 1.289 . S
Mg52 O59 2.141 . S
Mg52 O60 2.048 . S
Mg52 O61 2.048 . S
Mg52 O64 2.141 . S
C53 O54 1.313 . S
C53 O60 1.195 . S
O54 C53 1.313 . S
C55 O56 1.245 . S
C55 O64 1.289 . S
O56 C55 1.245 . S
C57 O58 1.245 . S
C57 O59 1.289 . S
O58 C57 1.245 . S
O59 Mg52 2.141 . S
O59 C57 1.289 . S
O60 Mg52 2.048 . S
O60 C53 1.195 . S
O61 Mg52 2.048 . S
O61 C62 1.195 . S
C62 O61 1.195 . S
C62 O63 1.313 . S
O63 C62 1.313 . S
O64 Mg52 2.141 . S
O64 C55 1.289 . S
Mg65 O72 2.141 . S
Mg65 O73 2.048 . S
Mg65 O74 2.048 . S
Mg65 O77 2.141 . S
C66 O67 1.313 . S
C66 O73 1.195 . S
O67 C66 1.313 . S
C68 O69 1.245 . S
C68 O77 1.289 . S
O69 C68 1.245 . S
C70 O71 1.245 . S
C70 O72 1.289 . S
O71 C70 1.245 . S
O72 Mg65 2.141 . S
O72 C70 1.289 . S
O73 Mg65 2.048 . S
O73 C66 1.195 . S
O74 Mg65 2.048 . S
O74 C75 1.195 . S
C75 O74 1.195 . S
C75 O76 1.313 . S
O76 C75 1.313 . S
O77 Mg65 2.141 . S
O77 C68 1.289 . S
Mg78 O85 2.141 . S
Mg78 O86 2.048 1_554 S
Mg78 O87 2.048 . S
Mg78 O90 2.141 . S
C79 O80 1.313 . S
C79 O86 1.195 . S
O80 C79 1.313 . S
C81 O82 1.245 . S
C81 O90 1.289 . S
O82 C81 1.245 . S
C83 O84 1.245 1_554 S
C83 O85 1.289 . S
O84 C83 1.245 1_556 S
O85 Mg78 2.141 . S
O85 C83 1.289 . S
O86 Mg78 2.048 1_556 S
O86 C79 1.195 . S
O87 Mg78 2.048 . S
O87 C88 1.190 1_554 S
C88 O87 1.190 1_556 S
C88 O89 1.313 . S
O89 C88 1.313 . S
O90 Mg78 2.141 . S
O90 C81 1.289 . S
Mg91 O98 2.141 . S
Mg91 O99 2.048 1_554 S
Mg91 O100 2.048 . S
Mg91 O103 2.141 . S
C92 O93 1.313 . S
C92 O99 1.195 . S
O93 C92 1.313 . S
C94 O95 1.245 . S
C94 O103 1.289 . S
O95 C94 1.245 . S
C96 O97 1.245 1_554 S
C96 O98 1.289 . S
O97 C96 1.245 1_556 S
O98 Mg91 2.141 . S
O98 C96 1.289 . S
O99 Mg91 2.048 1_556 S
O99 C92 1.195 . S
O100 Mg91 2.048 . S
O100 C101 1.190 1_554 S
C101 O100 1.190 1_556 S
C101 O102 1.313 . S
O102 C101 1.313 . S
O103 Mg91 2.141 . S
O103 C94 1.289 . S
Mg104 O111 2.141 . S
Mg104 O112 2.048 . S
Mg104 O113 2.048 . S
Mg104 O116 2.141 . S
C105 O106 1.313 . S
C105 O112 1.195 . S
O106 C105 1.313 . S
C107 O108 1.245 . S
C107 O116 1.289 . S
O108 C107 1.245 . S
C109 O110 1.245 . S
C109 O111 1.289 . S
O110 C109 1.245 . S
O111 Mg104 2.141 . S
O111 C109 1.289 . S
O112 Mg104 2.048 . S
O112 C105 1.195 . S
O113 Mg104 2.048 . S
O113 C114 1.195 . S
C114 O113 1.195 . S
C114 O115 1.313 . S
O115 C114 1.313 . S
O116 Mg104 2.141 . S
O116 C107 1.289 . S
Mg117 O124 2.141 . S
Mg117 O125 2.048 . S
Mg117 O126 2.048 . S
Mg117 O129 2.141 . S
C118 O119 1.313 . S
C118 O125 1.195 . S
O119 C118 1.313 . S
C120 O121 1.245 . S
C120 O129 1.289 . S
O121 C120 1.245 . S
C122 O123 1.245 . S
C122 O124 1.289 . S
O123 C122 1.245 . S
O124 Mg117 2.141 . S
O124 C122 1.289 . S
O125 Mg117 2.048 . S
O125 C118 1.195 . S
O126 Mg117 2.048 . S
O126 C127 1.195 1_455 S
C127 O126 1.195 1_655 S
C127 O128 1.313 . S
O128 C127 1.313 . S
O129 Mg117 2.141 . S
O129 C120 1.289 . S
Mg130 O137 2.141 . S
Mg130 O138 2.048 . S
Mg130 O139 2.048 . S
Mg130 O142 2.141 . S
C131 O132 1.313 . S
C131 O138 1.195 . S
O132 C131 1.313 . S
C133 O134 1.245 . S
C133 O142 1.289 . S
O134 C133 1.245 . S
C135 O136 1.245 . S
C135 O137 1.289 . S
O136 C135 1.245 . S
O137 Mg130 2.141 . S
O137 C135 1.289 . S
O138 Mg130 2.048 . S
O138 C131 1.195 . S
O139 Mg130 2.048 . S
O139 C140 1.195 . S
C140 O139 1.195 . S
C140 O141 1.313 . S
O141 C140 1.313 . S
O142 Mg130 2.141 . S
O142 C133 1.289 . S
Mg143 O150 2.141 . S
Mg143 O151 2.048 . S
Mg143 O152 2.048 . S
Mg143 O155 2.141 . S
C144 O145 1.313 . S
C144 O151 1.195 . S
O145 C144 1.313 . S
C146 O147 1.245 . S
C146 O155 1.289 . S
O147 C146 1.245 . S
C148 O149 1.245 . S
C148 O150 1.289 . S
O149 C148 1.245 . S
O150 Mg143 2.141 . S
O150 C148 1.289 . S
O151 Mg143 2.048 . S
O151 C144 1.195 . S
O152 Mg143 2.048 . S
O152 C153 1.195 1_455 S
C153 O152 1.195 1_655 S
C153 O154 1.313 . S
O154 C153 1.313 . S
O155 Mg143 2.141 . S
O155 C146 1.289 . S
Mg156 O163 2.141 . S
Mg156 O164 2.048 . S
Mg156 O165 2.048 . S
Mg156 O168 2.141 . S
C157 O158 1.313 . S
C157 O164 1.195 . S
O158 C157 1.313 . S
C159 O160 1.245 . S
C159 O168 1.289 . S
O160 C159 1.245 . S
C161 O162 1.245 . S
C161 O163 1.289 . S
O162 C161 1.245 . S
O163 Mg156 2.141 . S
O163 C161 1.289 . S
O164 Mg156 2.048 . S
O164 C157 1.195 . S
O165 Mg156 2.048 . S
O165 C166 1.195 . S
C166 O165 1.195 . S
C166 O167 1.313 . S
O167 C166 1.313 . S
O168 Mg156 2.141 . S
O168 C159 1.289 . S
Mg169 O176 2.141 . S
Mg169 O177 2.048 . S
Mg169 O178 2.048 . S
Mg169 O181 2.141 . S
C170 O171 1.313 . S
C170 O177 1.195 . S
O171 C170 1.313 . S
C172 O173 1.245 . S
C172 O181 1.289 . S
O173 C172 1.245 . S
C174 O175 1.245 . S
C174 O176 1.289 . S
O175 C174 1.245 . S
O176 Mg169 2.141 . S
O176 C174 1.289 . S
O177 Mg169 2.048 . S
O177 C170 1.195 . S
O178 Mg169 2.048 . S
O178 C179 1.195 . S
C179 O178 1.195 . S
C179 O180 1.313 . S
O180 C179 1.313 . S
O181 Mg169 2.141 . S
O181 C172 1.289 . S
Mg182 O189 2.141 . S
Mg182 O190 2.048 . S
Mg182 O191 2.048 . S
Mg182 O194 2.141 . S
C183 O184 1.313 . S
C183 O190 1.195 . S
O184 C183 1.313 . S
C185 O186 1.245 . S
C185 O194 1.289 . S
O186 C185 1.245 . S
C187 O188 1.245 . S
C187 O189 1.289 . S
O188 C187 1.245 . S
O189 Mg182 2.141 . S
O189 C187 1.289 . S
O190 Mg182 2.048 . S
O190 C183 1.195 . S
O191 Mg182 2.048 . S
O191 C192 1.195 . S
C192 O191 1.195 . S
C192 O193 1.313 . S
O193 C192 1.313 . S
O194 Mg182 2.141 . S
O194 C185 1.289 . S
Mg195 O202 2.141 . S
Mg195 O203 2.048 . S
Mg195 O204 2.048 . S
Mg195 O207 2.141 . S
C196 O197 1.313 . S
C196 O203 1.195 . S
O197 C196 1.313 . S
C198 O199 1.245 . S
C198 O207 1.289 . S
O199 C198 1.245 . S
C200 O201 1.245 . S
C200 O202 1.289 . S
O201 C200 1.245 . S
O202 Mg195 2.141 . S
O202 C200 1.289 . S
O203 Mg195 2.048 . S
O203 C196 1.195 . S
O204 Mg195 2.048 . S
O204 C205 1.195 . S
C205 O204 1.195 . S
C205 O206 1.313 . S
O206 C205 1.313 . S
O207 Mg195 2.141 . S
O207 C198 1.289 . S
Mg208 O215 2.141 . S
Mg208 O216 2.048 . S
Mg208 O217 2.048 . S
Mg208 O220 2.141 . S
C209 O210 1.313 . S
C209 O216 1.195 . S
O210 C209 1.313 . S
C211 O212 1.245 . S
C211 O220 1.289 . S
O212 C211 1.245 . S
C213 O214 1.245 . S
C213 O215 1.289 . S
O214 C213 1.245 . S
O215 Mg208 2.141 . S
O215 C213 1.289 . S
O216 Mg208 2.048 . S
O216 C209 1.195 . S
O217 Mg208 2.048 . S
O217 C218 1.195 . S
C218 O217 1.195 . S
C218 O219 1.313 . S
O219 C218 1.313 . S
O220 Mg208 2.141 . S
O220 C211 1.289 . S
Mg221 O228 2.141 . S
Mg221 O229 2.048 . S
Mg221 O230 2.048 . S
Mg221 O233 2.141 . S
C222 O223 1.313 . S
C222 O229 1.195 . S
O223 C222 1.313 . S
C224 O225 1.245 . S
C224 O233 1.289 . S
O225 C224 1.245 . S
C226 O227 1.245 . S
C226 O228 1.289 . S
O227 C226 1.245 . S
O228 Mg221 2.141 . S
O228 C226 1.289 . S
O229 Mg221 2.048 . S
O229 C222 1.195 . S
O230 Mg221 2.048 . S
O230 C231 1.195 . S
C231 O230 1.195 . S
C231 O232 1.313 . S
O232 C231 1.313 . S
O233 Mg221 2.141 . S
O233 C224 1.289 . S
Mg234 O241 2.141 . S
Mg234 O242 2.048 . S
Mg234 O243 2.048 . S
Mg234 O246 2.141 . S
C235 O236 1.313 . S
C235 O242 1.195 . S
O236 C235 1.313 . S
C237 O238 1.245 . S
C237 O246 1.289 . S
O238 C237 1.245 . S
C239 O240 1.245 . S
C239 O241 1.289 . S
O240 C239 1.245 . S
O241 Mg234 2.141 . S
O241 C239 1.289 . S
O242 Mg234 2.048 . S
O242 C235 1.195 . S
O243 Mg234 2.048 . S
O243 C244 1.195 . S
C244 O243 1.195 . S
C244 O245 1.313 . S
O245 C244 1.313 . S
O246 Mg234 2.141 . S
O246 C237 1.289 . S
Mg247 O254 2.141 . S
Mg247 O255 2.048 . S
Mg247 O256 2.048 . S
Mg247 O259 2.141 . S
C248 O249 1.313 . S
C248 O255 1.195 . S
O249 C248 1.313 . S
C250 O251 1.245 . S
C250 O259 1.289 . S
O251 C250 1.245 . S
C252 O253 1.245 . S
C252 O254 1.289 . S
O253 C252 1.245 . S
O254 Mg247 2.141 . S
O254 C252 1.289 . S
O255 Mg247 2.048 . S
O255 C248 1.195 . S
O256 Mg247 2.048 . S
O256 C257 1.195 . S
C257 O256 1.195 . S
C257 O258 1.313 . S
O258 C257 1.313 . S
O259 Mg247 2.141 . S
O259 C250 1.289 . S
Mg260 O267 2.141 . S
Mg260 O268 2.048 . S
Mg260 O269 2.048 . S
Mg260 O272 2.141 . S
C261 O262 1.313 . S
C261 O268 1.195 . S
O262 C261 1.313 . S
C263 O264 1.245 . S
C263 O272 1.289 . S
O264 C263 1.245 . S
C265 O266 1.245 . S
C265 O267 1.289 . S
O266 C265 1.245 . S
O267 Mg260 2.141 . S
O267 C265 1.289 . S
O268 Mg260 2.048 . S
O268 C261 1.195 . S
O269 Mg260 2.048 . S
O269 C270 1.195 . S
C270 O269 1.195 . S
C270 O271 1.313 . S
O271 C270 1.313 . S
O272 Mg260 2.141 . S
O272 C263 1.289 . S
Mg273 O280 2.141 . S
Mg273 O281 2.048 . S
Mg273 O282 2.048 . S
Mg273 O285 2.141 . S
C274 O275 1.313 . S
C274 O281 1.195 . S
O275 C274 1.313 . S
C276 O277 1.245 . S
C276 O285 1.289 . S
O277 C276 1.245 . S
C278 O279 1.245 . S
C278 O280 1.289 . S
O279 C278 1.245 . S
O280 Mg273 2.141 . S
O280 C278 1.289 . S
O281 Mg273 2.048 . S
O281 C274 1.195 . S
O282 Mg273 2.048 . S
O282 C283 1.195 . S
C283 O282 1.195 . S
C283 O284 1.313 . S
O284 C283 1.313 . S
O285 Mg273 2.141 . S
O285 C276 1.289 . S
Mg286 O293 2.141 . S
Mg286 O294 2.048 . S
Mg286 O295 2.048 . S
Mg286 O298 2.141 . S
C287 O288 1.313 . S
C287 O294 1.195 . S
O288 C287 1.313 . S
C289 O290 1.245 . S
C289 O298 1.289 . S
O290 C289 1.245 . S
C291 O292 1.245 . S
C291 O293 1.289 . S
O292 C291 1.245 . S
O293 Mg286 2.141 . S
O293 C291 1.289 . S
O294 Mg286 2.048 . S
O294 C287 1.195 . S
O295 Mg286 2.048 . S
O295 C296 1.195 . S
C296 O295 1.195 . S
C296 O297 1.313 . S
O297 C296 1.313 . S
O298 Mg286 2.141 . S
O298 C289 1.289 . S
Mg299 O306 2.141 . S
Mg299 O307 2.048 . S
Mg299 O308 2.048 . S
Mg299 O311 2.141 . S
C300 O301 1.313 . S
C300 O307 1.195 . S
O301 C300 1.313 . S
C302 O303 1.245 . S
C302 O311 1.289 . S
O303 C302 1.245 . S
C304 O305 1.245 . S
C304 O306 1.289 . S
O305 C304 1.245 . S
O306 Mg299 2.141 . S
O306 C304 1.289 . S
O307 Mg299 2.048 . S
O307 C300 1.195 . S
O308 Mg299 2.048 . S
O308 C309 1.195 . S
C309 O308 1.195 . S
C309 O310 1.313 . S
O310 C309 1.313 . S
O311 Mg299 2.141 . S
O311 C302 1.289 . S
Mg312 O319 2.141 . S
Mg312 O320 2.048 . S
Mg312 O321 2.048 . S
Mg312 O324 2.141 . S
C313 O314 1.313 . S
C313 O320 1.195 . S
O314 C313 1.313 . S
C315 O316 1.245 . S
C315 O324 1.289 . S
O316 C315 1.245 . S
C317 O318 1.245 . S
C317 O319 1.289 . S
O318 C317 1.245 . S
O319 Mg312 2.141 . S
O319 C317 1.289 . S
O320 Mg312 2.048 . S
O320 C313 1.195 . S
O321 Mg312 2.048 . S
O321 C322 1.195 . S
C322 O321 1.195 . S
C322 O323 1.313 . S
O323 C322 1.313 . S
O324 Mg312 2.141 . S
O324 C315 1.289 . S
Mg325 O332 2.141 . S
Mg325 O333 2.048 . S
Mg325 O334 2.048 . S
Mg325 O337 2.141 . S
C326 O327 1.313 . S
C326 O333 1.195 . S
O327 C326 1.313 . S
C328 O329 1.245 . S
C328 O337 1.289 . S
O329 C328 1.245 . S
C330 O331 1.245 . S
C330 O332 1.289 . S
O331 C330 1.245 . S
O332 Mg325 2.141 . S
O332 C330 1.289 . S
O333 Mg325 2.048 . S
O333 C326 1.195 . S
O334 Mg325 2.048 . S
O334 C335 1.195 . S
C335 O334 1.195 . S
C335 O336 1.313 . S
O336 C335 1.313 . S
O337 Mg325 2.141 . S
O337 C328 1.289 . S
Mg338 O345 2.141 1_554 S
Mg338 O346 2.053 . S
Mg338 O347 2.048 . S
Mg338 O350 2.137 1_554 S
C339 O340 1.313 . S
C339 O346 1.195 . S
O340 C339 1.313 . S
C341 O342 1.245 . S
C341 O350 1.289 . S
O342 C341 1.245 . S
C343 O344 1.245 . S
C343 O345 1.289 . S
O344 C343 1.245 . S
O345 Mg338 2.141 1_556 S
O345 C343 1.289 . S
O346 Mg338 2.053 . S
O346 C339 1.195 . S
O347 Mg338 2.048 . S
O347 C348 1.195 . S
C348 O347 1.195 . S
C348 O349 1.313 . S
O349 C348 1.313 . S
O350 Mg338 2.137 1_556 S
O350 C341 1.289 . S
Mg351 O358 2.141 1_554 S
Mg351 O359 2.053 . S
Mg351 O360 2.048 . S
Mg351 O363 2.137 1_554 S
C352 O353 1.313 . S
C352 O359 1.195 . S
O353 C352 1.313 . S
C354 O355 1.245 . S
C354 O363 1.289 . S
O355 C354 1.245 . S
C356 O357 1.245 . S
C356 O358 1.289 . S
O357 C356 1.245 . S
O358 Mg351 2.141 1_556 S
O358 C356 1.289 . S
O359 Mg351 2.053 . S
O359 C352 1.195 . S
O360 Mg351 2.048 . S
O360 C361 1.195 . S
C361 O360 1.195 . S
C361 O362 1.313 . S
O362 C361 1.313 . S
O363 Mg351 2.137 1_556 S
O363 C354 1.289 . S
Mg364 O371 2.141 . S
Mg364 O372 2.048 . S
Mg364 O373 2.048 . S
Mg364 O376 2.141 . S
C365 O366 1.313 . S
C365 O372 1.195 . S
O366 C365 1.313 . S
C367 O368 1.245 . S
C367 O376 1.289 . S
O368 C367 1.245 . S
C369 O370 1.245 . S
C369 O371 1.289 . S
O370 C369 1.245 . S
O371 Mg364 2.141 . S
O371 C369 1.289 . S
O372 Mg364 2.048 . S
O372 C365 1.195 . S
O373 Mg364 2.048 . S
O373 C374 1.195 . S
C374 O373 1.195 . S
C374 O375 1.313 . S
O375 C374 1.313 . S
O376 Mg364 2.141 . S
O376 C367 1.289 . S
Mg377 O384 2.141 . S
Mg377 O385 2.048 . S
Mg377 O386 2.048 . S
Mg377 O389 2.141 . S
C378 O379 1.313 . S
C378 O385 1.195 . S
O379 C378 1.313 . S
C380 O381 1.245 . S
C380 O389 1.289 . S
O381 C380 1.245 . S
C382 O383 1.245 . S
C382 O384 1.289 . S
O383 C382 1.245 . S
O384 Mg377 2.141 . S
O384 C382 1.289 . S
O385 Mg377 2.048 . S
O385 C378 1.195 . S
O386 Mg377 2.048 . S
O386 C387 1.195 . S
C387 O386 1.195 . S
C387 O388 1.313 . S
O388 C387 1.313 . S
O389 Mg377 2.141 . S
O389 C380 1.289 . S
Mg390 O397 2.141 . S
Mg390 O398 2.048 1_554 S
Mg390 O399 2.048 . S
Mg390 O402 2.141 . S
C391 O392 1.313 . S
C391 O398 1.195 . S
O392 C391 1.313 . S
C393 O394 1.245 . S
C393 O402 1.289 . S
O394 C393 1.245 . S
C395 O396 1.245 1_554 S
C395 O397 1.289 . S
O396 C395 1.245 1_556 S
O397 Mg390 2.141 . S
O397 C395 1.289 . S
O398 Mg390 2.048 1_556 S
O398 C391 1.195 . S
O399 Mg390 2.048 . S
O399 C400 1.190 1_554 S
C400 O399 1.190 1_556 S
C400 O401 1.313 . S
O401 C400 1.313 . S
O402 Mg390 2.141 . S
O402 C393 1.289 . S
Mg403 O410 2.141 . S
Mg403 O411 2.048 1_554 S
Mg403 O412 2.048 . S
Mg403 O415 2.141 . S
C404 O405 1.313 . S
C404 O411 1.195 . S
O405 C404 1.313 . S
C406 O407 1.245 . S
C406 O415 1.289 . S
O407 C406 1.245 . S
C408 O409 1.245 1_554 S
C408 O410 1.289 . S
O409 C408 1.245 1_556 S
O410 Mg403 2.141 . S
O410 C408 1.289 . S
O411 Mg403 2.048 1_556 S
O411 C404 1.195 . S
O412 Mg403 2.048 . S
O412 C413 1.190 1_554 S
C413 O412 1.190 1_556 S
C413 O414 1.313 . S
O414 C413 1.313 . S
O415 Mg403 2.141 . S
O415 C406 1.289 . S
C416 C417 1.387 . S
C416 H420 0.950 . S
C416 C425 1.390 . S
C417 C416 1.387 . S
C417 C419 1.387 . S
H418 C425 0.950 . S
C419 C417 1.387 . S
C419 C421 1.390 . S
C419 H423 0.950 . S
H420 C416 0.950 . S
C421 C419 1.390 . S
C421 C422 1.387 . S
C421 H424 0.950 . S
C422 C421 1.387 . S
C422 C425 1.387 . S
H423 C419 0.950 . S
H424 C421 0.950 . S
C425 C416 1.390 . S
C425 H418 0.950 . S
C425 C422 1.387 . S
C426 C427 1.387 . S
C426 H430 0.950 . S
C426 C435 1.390 . S
C427 C426 1.387 . S
C427 C429 1.387 . S
H428 C435 0.950 . S
C429 C427 1.387 . S
C429 C431 1.390 . S
C429 H433 0.950 . S
H430 C426 0.950 . S
C431 C429 1.390 . S
C431 C432 1.387 . S
C431 H434 0.950 . S
C432 C431 1.387 . S
C432 C435 1.387 . S
H433 C429 0.950 . S
H434 C431 0.950 . S
C435 C426 1.390 . S
C435 H428 0.950 . S
C435 C432 1.387 . S
C436 C437 1.387 . S
C436 H440 0.950 . S
C436 C445 1.390 . S
C437 C436 1.387 . S
C437 C439 1.387 . S
H438 C445 0.950 . S
C439 C437 1.387 . S
C439 C441 1.390 . S
C439 H443 0.950 . S
H440 C436 0.950 . S
C441 C439 1.390 . S
C441 C442 1.387 . S
C441 H444 0.950 . S
C442 C441 1.387 . S
C442 C445 1.387 . S
H443 C439 0.950 . S
H444 C441 0.950 . S
C445 C436 1.390 . S
C445 H438 0.950 . S
C445 C442 1.387 . S
C446 C447 1.387 . S
C446 H450 0.950 . S
C446 C455 1.390 . S
C447 C446 1.387 . S
C447 C449 1.387 . S
H448 C455 0.950 . S
C449 C447 1.387 . S
C449 C451 1.390 . S
C449 H453 0.950 . S
H450 C446 0.950 . S
C451 C449 1.390 . S
C451 C452 1.387 . S
C451 H454 0.950 . S
C452 C451 1.387 . S
C452 C455 1.387 . S
H453 C449 0.950 . S
H454 C451 0.950 . S
C455 C446 1.390 . S
C455 H448 0.950 . S
C455 C452 1.387 . S
C456 C457 1.387 . S
C456 H460 0.950 . S
C456 C465 1.390 . S
C457 C456 1.387 . S
C457 C459 1.387 . S
H458 C465 0.950 . S
C459 C457 1.387 . S
C459 C461 1.390 . S
C459 H463 0.950 . S
H460 C456 0.950 . S
C461 C459 1.390 . S
C461 C462 1.387 . S
C461 H464 0.950 . S
C462 C461 1.387 . S
C462 C465 1.387 . S
H463 C459 0.950 . S
H464 C461 0.950 . S
C465 C456 1.390 . S
C465 H458 0.950 . S
C465 C462 1.387 . S
C466 C467 1.387 . S
C466 H470 0.950 . S
C466 C475 1.390 . S
C467 C466 1.387 . S
C467 C469 1.387 . S
H468 C475 0.950 . S
C469 C467 1.387 . S
C469 C471 1.390 . S
C469 H473 0.950 . S
H470 C466 0.950 . S
C471 C469 1.390 . S
C471 C472 1.387 . S
C471 H474 0.950 . S
C472 C471 1.387 . S
C472 C475 1.387 . S
H473 C469 0.950 . S
H474 C471 0.950 . S
C475 C466 1.390 . S
C475 H468 0.950 . S
C475 C472 1.387 . S
C476 C477 1.387 . S
C476 H480 0.950 . S
C476 C485 1.390 . S
C477 C476 1.387 . S
C477 C479 1.387 . S
H478 C485 0.950 . S
C479 C477 1.387 . S
C479 C481 1.390 . S
C479 H483 0.950 . S
H480 C476 0.950 . S
C481 C479 1.390 . S
C481 C482 1.387 . S
C481 H484 0.950 . S
C482 C481 1.387 . S
C482 C485 1.387 . S
H483 C479 0.950 . S
H484 C481 0.950 . S
C485 C476 1.390 . S
C485 H478 0.950 . S
C485 C482 1.387 . S
C486 C487 1.387 . S
C486 H490 0.950 . S
C486 C495 1.390 . S
C487 C486 1.387 . S
C487 C489 1.387 . S
H488 C495 0.950 . S
C489 C487 1.387 . S
C489 C491 1.390 . S
C489 H493 0.950 . S
H490 C486 0.950 . S
C491 C489 1.390 . S
C491 C492 1.387 . S
C491 H494 0.950 . S
C492 C491 1.387 . S
C492 C495 1.387 . S
H493 C489 0.950 . S
H494 C491 0.950 . S
C495 C486 1.390 . S
C495 H488 0.950 . S
C495 C492 1.387 . S
C496 C497 1.387 . S
C496 H500 0.950 . S
C496 C505 1.390 . S
C497 C496 1.387 . S
C497 C499 1.387 . S
H498 C505 0.950 . S
C499 C497 1.387 . S
C499 C501 1.390 . S
C499 H503 0.950 . S
H500 C496 0.950 . S
C501 C499 1.390 . S
C501 C502 1.387 . S
C501 H504 0.950 . S
C502 C501 1.387 . S
C502 C505 1.387 . S
H503 C499 0.950 . S
H504 C501 0.950 . S
C505 C496 1.390 . S
C505 H498 0.950 . S
C505 C502 1.387 . S
C506 C507 1.387 . S
C506 H510 0.950 . S
C506 C515 1.390 . S
C507 C506 1.387 . S
C507 C509 1.387 . S
H508 C515 0.950 . S
C509 C507 1.387 . S
C509 C511 1.390 . S
C509 H513 0.950 . S
H510 C506 0.950 . S
C511 C509 1.390 . S
C511 C512 1.387 . S
C511 H514 0.950 . S
C512 C511 1.387 . S
C512 C515 1.387 . S
H513 C509 0.950 . S
H514 C511 0.950 . S
C515 C506 1.390 . S
C515 H508 0.950 . S
C515 C512 1.387 . S
C516 C517 1.387 . S
C516 H520 0.950 . S
C516 C525 1.390 . S
C517 C516 1.387 . S
C517 C519 1.387 . S
H518 C525 0.950 . S
C519 C517 1.387 . S
C519 C521 1.390 . S
C519 H523 0.950 . S
H520 C516 0.950 . S
C521 C519 1.390 . S
C521 C522 1.387 . S
C521 H524 0.950 . S
C522 C521 1.387 . S
C522 C525 1.387 . S
H523 C519 0.950 . S
H524 C521 0.950 . S
C525 C516 1.390 . S
C525 H518 0.950 . S
C525 C522 1.387 . S
C526 C527 1.387 . S
C526 H530 0.950 . S
C526 C535 1.390 . S
C527 C526 1.387 . S
C527 C529 1.387 . S
H528 C535 0.950 . S
C529 C527 1.387 . S
C529 C531 1.390 . S
C529 H533 0.950 . S
H530 C526 0.950 . S
C531 C529 1.390 . S
C531 C532 1.387 . S
C531 H534 0.950 . S
C532 C531 1.387 . S
C532 C535 1.387 . S
H533 C529 0.950 . S
H534 C531 0.950 . S
C535 C526 1.390 . S
C535 H528 0.950 . S
C535 C532 1.387 . S
C536 C537 1.387 . S
C536 H540 0.950 . S
C536 C545 1.390 . S
C537 C536 1.387 . S
C537 C539 1.387 . S
H538 C545 0.950 . S
C539 C537 1.387 . S
C539 C541 1.390 . S
C539 H543 0.950 . S
H540 C536 0.950 . S
C541 C539 1.390 . S
C541 C542 1.387 . S
C541 H544 0.950 . S
C542 C541 1.387 . S
C542 C545 1.387 . S
H543 C539 0.950 . S
H544 C541 0.950 . S
C545 C536 1.390 . S
C545 H538 0.950 . S
C545 C542 1.387 . S
C546 C547 1.387 . S
C546 H550 0.950 . S
C546 C555 1.390 . S
C547 C546 1.387 . S
C547 C549 1.387 . S
H548 C555 0.950 . S
C549 C547 1.387 . S
C549 C551 1.390 . S
C549 H553 0.950 . S
H550 C546 0.950 . S
C551 C549 1.390 . S
C551 C552 1.387 . S
C551 H554 0.950 . S
C552 C551 1.387 . S
C552 C555 1.387 . S
H553 C549 0.950 . S
H554 C551 0.950 . S
C555 C546 1.390 . S
C555 H548 0.950 . S
C555 C552 1.387 . S
C556 C557 1.387 . S
C556 H560 0.950 . S
C556 C565 1.390 . S
C557 C556 1.387 . S
C557 C559 1.387 . S
H558 C565 0.950 . S
C559 C557 1.387 . S
C559 C561 1.390 . S
C559 H563 0.950 . S
H560 C556 0.950 . S
C561 C559 1.390 . S
C561 C562 1.387 . S
C561 H564 0.950 . S
C562 C561 1.387 . S
C562 C565 1.387 . S
H563 C559 0.950 . S
H564 C561 0.950 . S
C565 C556 1.390 . S
C565 H558 0.950 . S
C565 C562 1.387 . S
C566 C567 1.387 . S
C566 H570 0.950 . S
C566 C575 1.390 . S
C567 C566 1.387 . S
C567 C569 1.387 . S
H568 C575 0.950 . S
C569 C567 1.387 . S
C569 C571 1.390 . S
C569 H573 0.950 . S
H570 C566 0.950 . S
C571 C569 1.390 . S
C571 C572 1.387 . S
C571 H574 0.950 . S
C572 C571 1.387 . S
C572 C575 1.387 . S
H573 C569 0.950 . S
H574 C571 0.950 . S
C575 C566 1.390 . S
C575 H568 0.950 . S
C575 C572 1.387 . S
C576 C577 1.387 . S
C576 H580 0.950 . S
C576 C585 1.390 1_655 S
C577 C576 1.387 . S
C577 C579 1.387 . S
H578 C585 0.950 . S
C579 C577 1.387 . S
C579 C581 1.390 1_655 S
C579 H583 0.950 . S
H580 C576 0.950 . S
C581 C579 1.390 1_455 S
C581 C582 1.387 . S
C581 H584 0.950 . S
C582 C581 1.387 . S
C582 C585 1.387 . S
H583 C579 0.950 . S
H584 C581 0.950 . S
C585 C576 1.390 1_455 S
C585 H578 0.950 . S
C585 C582 1.387 . S
C586 C587 1.387 . S
C586 H590 0.950 . S
C586 C595 1.390 1_565 S
C587 C586 1.387 . S
C587 C589 1.387 . S
H588 C595 0.950 . S
C589 C587 1.387 . S
C589 C591 1.390 1_565 S
C589 H593 0.950 . S
H590 C586 0.950 . S
C591 C589 1.390 1_545 S
C591 C592 1.387 . S
C591 H594 0.950 . S
C592 C591 1.387 . S
C592 C595 1.387 . S
H593 C589 0.950 . S
H594 C591 0.950 . S
C595 C586 1.390 1_545 S
C595 H588 0.950 . S
C595 C592 1.387 . S
C596 C597 1.387 . S
C596 H600 0.950 . S
C596 C605 1.390 1_465 S
C597 C596 1.387 . S
C597 C599 1.387 1_556 S
H598 C605 0.950 . S
C599 C597 1.387 1_554 S
C599 C601 1.390 1_465 S
C599 H603 0.950 . S
H600 C596 0.950 . S
C601 C599 1.390 1_645 S
C601 C602 1.387 . S
C601 H604 0.950 . S
C602 C601 1.387 . S
C602 C605 1.387 1_554 S
H603 C599 0.950 . S
H604 C601 0.950 . S
C605 C596 1.390 1_645 S
C605 H598 0.950 . S
C605 C602 1.387 1_556 S
C606 C607 1.387 1_556 S
C606 H610 0.950 . S
C606 C615 1.390 . S
C607 C606 1.387 1_554 S
C607 C609 1.387 . S
H608 C615 0.950 . S
C609 C607 1.387 . S
C609 C611 1.390 . S
C609 H613 0.950 . S
H610 C606 0.950 . S
C611 C609 1.390 . S
C611 C612 1.387 1_554 S
C611 H614 0.950 . S
C612 C611 1.387 1_556 S
C612 C615 1.387 . S
H613 C609 0.950 . S
H614 C611 0.950 . S
C615 C606 1.390 . S
C615 H608 0.950 . S
C615 C612 1.387 . S
C616 C617 1.387 . S
C616 H620 0.950 . S
C616 C625 1.390 1_655 S
C617 C616 1.387 . S
C617 C619 1.387 . S
H618 C625 0.950 . S
C619 C617 1.387 . S
C619 C621 1.390 1_655 S
C619 H623 0.950 . S
H620 C616 0.950 . S
C621 C619 1.390 1_455 S
C621 C622 1.387 . S
C621 H624 0.950 . S
C622 C621 1.387 . S
C622 C625 1.387 . S
H623 C619 0.950 . S
H624 C621 0.950 . S
C625 C616 1.390 1_455 S
C625 H618 0.950 . S
C625 C622 1.387 . S
C626 C627 1.387 . S
C626 H630 0.950 . S
C626 C635 1.390 1_565 S
C627 C626 1.387 . S
C627 C629 1.387 . S
H628 C635 0.950 . S
C629 C627 1.387 . S
C629 C631 1.390 1_565 S
C629 H633 0.950 . S
H630 C626 0.950 . S
C631 C629 1.390 1_545 S
C631 C632 1.387 . S
C631 H634 0.950 . S
C632 C631 1.387 . S
C632 C635 1.387 . S
H633 C629 0.950 . S
H634 C631 0.950 . S
C635 C626 1.390 1_545 S
C635 H628 0.950 . S
C635 C632 1.387 . S
C636 C637 1.387 1_554 S
C636 H640 0.950 . S
C636 C645 1.390 . S
C637 C636 1.387 1_556 S
C637 C639 1.387 . S
H638 C645 0.950 . S
C639 C637 1.387 . S
C639 C641 1.390 . S
C639 H643 0.950 . S
H640 C636 0.950 . S
C641 C639 1.390 . S
C641 C642 1.387 1_556 S
C641 H644 0.950 . S
C642 C641 1.387 1_554 S
C642 C645 1.387 . S
H643 C639 0.950 . S
H644 C641 0.950 . S
C645 C636 1.390 . S
C645 H638 0.950 . S
C645 C642 1.387 . S
C646 C647 1.387 . S
C646 H650 0.950 . S
C646 C655 1.390 . S
C647 C646 1.387 . S
C647 C649 1.387 . S
H648 C655 0.950 . S
C649 C647 1.387 . S
C649 C651 1.390 . S
C649 H653 0.950 . S
H650 C646 0.950 . S
C651 C649 1.390 . S
C651 C652 1.387 . S
C651 H654 0.950 . S
C652 C651 1.387 . S
C652 C655 1.387 . S
H653 C649 0.950 . S
H654 C651 0.950 . S
C655 C646 1.390 . S
C655 H648 0.950 . S
C655 C652 1.387 . S
C656 C657 1.387 . S
C656 H660 0.950 . S
C656 C665 1.390 1_655 S
C657 C656 1.387 . S
C657 C659 1.387 . S
H658 C665 0.950 . S
C659 C657 1.387 . S
C659 C661 1.390 1_655 S
C659 H663 0.950 . S
H660 C656 0.950 . S
C661 C659 1.390 1_455 S
C661 C662 1.387 . S
C661 H664 0.950 . S
C662 C661 1.387 . S
C662 C665 1.387 . S
H663 C659 0.950 . S
H664 C661 0.950 . S
C665 C656 1.390 1_455 S
C665 H658 0.950 . S
C665 C662 1.387 . S
C666 C667 1.387 . S
C666 H670 0.950 . S
C666 C675 1.390 . S
C667 C666 1.387 . S
C667 C669 1.387 . S
H668 C675 0.950 . S
C669 C667 1.387 . S
C669 C671 1.390 . S
C669 H673 0.950 . S
H670 C666 0.950 . S
C671 C669 1.390 . S
C671 C672 1.387 . S
C671 H674 0.950 . S
C672 C671 1.387 . S
C672 C675 1.387 . S
H673 C669 0.950 . S
H674 C671 0.950 . S
C675 C666 1.390 . S
C675 H668 0.950 . S
C675 C672 1.387 . S
C676 C677 1.387 . S
C676 H680 0.950 . S
C676 C685 1.390 . S
C677 C676 1.387 . S
C677 C679 1.387 . S
H678 C685 0.950 . S
C679 C677 1.387 . S
C679 C681 1.390 . S
C679 H683 0.950 . S
H680 C676 0.950 . S
C681 C679 1.390 . S
C681 C682 1.387 . S
C681 H684 0.950 . S
C682 C681 1.387 . S
C682 C685 1.387 . S
H683 C679 0.950 . S
H684 C681 0.950 . S
C685 C676 1.390 . S
C685 H678 0.950 . S
C685 C682 1.387 . S
C686 C687 1.387 . S
C686 H690 0.950 . S
C686 C695 1.390 . S
C687 C686 1.387 . S
C687 C689 1.387 . S
H688 C695 0.950 . S
C689 C687 1.387 . S
C689 C691 1.390 . S
C689 H693 0.950 . S
H690 C686 0.950 . S
C691 C689 1.390 . S
C691 C692 1.387 . S
C691 H694 0.950 . S
C692 C691 1.387 . S
C692 C695 1.387 . S
H693 C689 0.950 . S
H694 C691 0.950 . S
C695 C686 1.390 . S
C695 H688 0.950 . S
C695 C692 1.387 . S
C696 C697 1.387 . S
C696 H700 0.950 . S
C696 C705 1.390 . S
C697 C696 1.387 . S
C697 C699 1.387 . S
H698 C705 0.950 . S
C699 C697 1.387 . S
C699 C701 1.390 . S
C699 H703 0.950 . S
H700 C696 0.950 . S
C701 C699 1.390 . S
C701 C702 1.387 . S
C701 H704 0.950 . S
C702 C701 1.387 . S
C702 C705 1.387 . S
H703 C699 0.950 . S
H704 C701 0.950 . S
C705 C696 1.390 . S
C705 H698 0.950 . S
C705 C702 1.387 . S
C706 C707 1.387 . S
C706 H710 0.950 . S
C706 C715 1.390 1_545 S
C707 C706 1.387 . S
C707 C709 1.387 . S
H708 C715 0.950 . S
C709 C707 1.387 . S
C709 C711 1.390 1_545 S
C709 H713 0.950 . S
H710 C706 0.950 . S
C711 C709 1.390 1_565 S
C711 C712 1.387 . S
C711 H714 0.950 . S
C712 C711 1.387 . S
C712 C715 1.387 . S
H713 C709 0.950 . S
H714 C711 0.950 . S
C715 C706 1.390 1_565 S
C715 H708 0.950 . S
C715 C712 1.387 . S
C716 C717 1.387 . S
C716 H720 0.950 . S
C716 C725 1.390 . S
C717 C716 1.387 . S
C717 C719 1.387 . S
H718 C725 0.950 . S
C719 C717 1.387 . S
C719 C721 1.390 . S
C719 H723 0.950 . S
H720 C716 0.950 . S
C721 C719 1.390 . S
C721 C722 1.387 . S
C721 H724 0.950 . S
C722 C721 1.387 . S
C722 C725 1.387 . S
H723 C719 0.950 . S
H724 C721 0.950 . S
C725 C716 1.390 . S
C725 H718 0.950 . S
C725 C722 1.387 . S
C726 C727 1.387 . S
C726 H730 0.950 . S
C726 C735 1.390 . S
C727 C726 1.387 . S
C727 C729 1.387 1_556 S
H728 C735 0.950 . S
C729 C727 1.387 1_554 S
C729 C731 1.390 . S
C729 H733 0.950 . S
H730 C726 0.950 . S
C731 C729 1.390 . S
C731 C732 1.387 . S
C731 H734 0.950 . S
C732 C731 1.387 . S
C732 C735 1.387 1_554 S
H733 C729 0.950 . S
H734 C731 0.950 . S
C735 C726 1.390 . S
C735 H728 0.950 . S
C735 C732 1.387 1_556 S
C736 C737 1.387 . S
C736 H740 0.950 . S
C736 C745 1.390 . S
C737 C736 1.387 . S
C737 C739 1.387 . S
H738 C745 0.950 . S
C739 C737 1.387 . S
C739 C741 1.390 . S
C739 H743 0.950 . S
H740 C736 0.950 . S
C741 C739 1.390 . S
C741 C742 1.387 . S
C741 H744 0.950 . S
C742 C741 1.387 . S
C742 C745 1.387 . S
H743 C739 0.950 . S
H744 C741 0.950 . S
C745 C736 1.390 . S
C745 H738 0.950 . S
C745 C742 1.387 . S
C746 C747 1.387 . S
C746 H750 0.950 . S
C746 C755 1.390 . S
C747 C746 1.387 . S
C747 C749 1.387 . S
H748 C755 0.950 . S
C749 C747 1.387 . S
C749 C751 1.390 . S
C749 H753 0.950 . S
H750 C746 0.950 . S
C751 C749 1.390 . S
C751 C752 1.387 . S
C751 H754 0.950 . S
C752 C751 1.387 . S
C752 C755 1.387 . S
H753 C749 0.950 . S
H754 C751 0.950 . S
C755 C746 1.390 . S
C755 H748 0.950 . S
C755 C752 1.387 . S
C756 C757 1.387 . S
C756 H760 0.950 . S
C756 C765 1.390 . S
C757 C756 1.387 . S
C757 C759 1.387 . S
H758 C765 0.950 . S
C759 C757 1.387 . S
C759 C761 1.390 . S
C759 H763 0.950 . S
H760 C756 0.950 . S
C761 C759 1.390 . S
C761 C762 1.387 . S
C761 H764 0.950 . S
C762 C761 1.387 . S
C762 C765 1.387 . S
H763 C759 0.950 . S
H764 C761 0.950 . S
C765 C756 1.390 . S
C765 H758 0.950 . S
C765 C762 1.387 . S
C766 C767 1.387 . S
C766 H770 0.950 . S
C766 C775 1.390 . S
C767 C766 1.387 . S
C767 C769 1.387 . S
H768 C775 0.950 . S
C769 C767 1.387 . S
C769 C771 1.390 . S
C769 H773 0.950 . S
H770 C766 0.950 . S
C771 C769 1.390 . S
C771 C772 1.387 . S
C771 H774 0.950 . S
C772 C771 1.387 . S
C772 C775 1.387 . S
H773 C769 0.950 . S
H774 C771 0.950 . S
C775 C766 1.390 . S
C775 H768 0.950 . S
C775 C772 1.387 . S
C776 C777 1.387 . S
C776 H780 0.950 . S
C776 C785 1.390 . S
C777 C776 1.387 . S
C777 C779 1.387 . S
H778 C785 0.950 . S
C779 C777 1.387 . S
C779 C781 1.390 . S
C779 H783 0.950 . S
H780 C776 0.950 . S
C781 C779 1.390 . S
C781 C782 1.387 . S
C781 H784 0.950 . S
C782 C781 1.387 . S
C782 C785 1.387 . S
H783 C779 0.950 . S
H784 C781 0.950 . S
C785 C776 1.390 . S
C785 H778 0.950 . S
C785 C782 1.387 . S
C786 C787 1.387 . S
C786 H790 0.950 . S
C786 C795 1.390 . S
C787 C786 1.387 . S
C787 C789 1.387 . S
H788 C795 0.950 . S
C789 C787 1.387 . S
C789 C791 1.390 . S
C789 H793 0.950 . S
H790 C786 0.950 . S
C791 C789 1.390 . S
C791 C792 1.387 . S
C791 H794 0.950 . S
C792 C791 1.387 . S
C792 C795 1.387 . S
H793 C789 0.950 . S
H794 C791 0.950 . S
C795 C786 1.390 . S
C795 H788 0.950 . S
C795 C792 1.387 . S
C796 C797 1.387 . S
C796 H800 0.950 . S
C796 C805 1.390 . S
C797 C796 1.387 . S
C797 C799 1.387 . S
H798 C805 0.950 . S
C799 C797 1.387 . S
C799 C801 1.390 . S
C799 H803 0.950 . S
H800 C796 0.950 . S
C801 C799 1.390 . S
C801 C802 1.387 . S
C801 H804 0.950 . S
C802 C801 1.387 . S
C802 C805 1.387 . S
H803 C799 0.950 . S
H804 C801 0.950 . S
C805 C796 1.390 . S
C805 H798 0.950 . S
C805 C802 1.387 . S
C806 C807 1.387 . S
C806 H810 0.950 . S
C806 C815 1.390 . S
C807 C806 1.387 . S
C807 C809 1.387 . S
H808 C815 0.950 . S
C809 C807 1.387 . S
C809 C811 1.390 . S
C809 H813 0.950 . S
H810 C806 0.950 . S
C811 C809 1.390 . S
C811 C812 1.387 . S
C811 H814 0.950 . S
C812 C811 1.387 . S
C812 C815 1.387 . S
H813 C809 0.950 . S
H814 C811 0.950 . S
C815 C806 1.390 . S
C815 H808 0.950 . S
C815 C812 1.387 . S
C816 C817 1.387 . S
C816 H820 0.950 . S
C816 C825 1.390 . S
C817 C816 1.387 . S
C817 C819 1.387 . S
H818 C825 0.950 . S
C819 C817 1.387 . S
C819 C821 1.390 . S
C819 H823 0.950 . S
H820 C816 0.950 . S
C821 C819 1.390 . S
C821 C822 1.387 . S
C821 H824 0.950 . S
C822 C821 1.387 . S
C822 C825 1.387 . S
H823 C819 0.950 . S
H824 C821 0.950 . S
C825 C816 1.390 . S
C825 H818 0.950 . S
C825 C822 1.387 . S
C826 C827 1.387 . S
C826 H830 0.950 . S
C826 C835 1.390 . S
C827 C826 1.387 . S
C827 C829 1.387 . S
H828 C835 0.950 . S
C829 C827 1.387 . S
C829 C831 1.390 . S
C829 H833 0.950 . S
H830 C826 0.950 . S
C831 C829 1.390 . S
C831 C832 1.387 . S
C831 H834 0.950 . S
C832 C831 1.387 . S
C832 C835 1.387 . S
H833 C829 0.950 . S
H834 C831 0.950 . S
C835 C826 1.390 . S
C835 H828 0.950 . S
C835 C832 1.387 . S
C836 C837 1.387 . S
C836 H840 0.950 . S
C836 C845 1.390 . S
C837 C836 1.387 . S
C837 C839 1.387 . S
H838 C845 0.950 . S
C839 C837 1.387 . S
C839 C841 1.390 . S
C839 H843 0.950 . S
H840 C836 0.950 . S
C841 C839 1.390 . S
C841 C842 1.387 . S
C841 H844 0.950 . S
C842 C841 1.387 . S
C842 C845 1.387 . S
H843 C839 0.950 . S
H844 C841 0.950 . S
C845 C836 1.390 . S
C845 H838 0.950 . S
C845 C842 1.387 . S
C846 C847 1.387 . S
C846 H850 0.950 . S
C846 C855 1.390 . S
C847 C846 1.387 . S
C847 C849 1.387 . S
H848 C855 0.950 . S
C849 C847 1.387 . S
C849 C851 1.390 . S
C849 H853 0.950 . S
H850 C846 0.950 . S
C851 C849 1.390 . S
C851 C852 1.387 . S
C851 H854 0.950 . S
C852 C851 1.387 . S
C852 C855 1.387 . S
H853 C849 0.950 . S
H854 C851 0.950 . S
C855 C846 1.390 . S
C855 H848 0.950 . S
C855 C852 1.387 . S
C856 C857 1.387 . S
C856 H860 0.950 . S
C856 C865 1.390 . S
C857 C856 1.387 . S
C857 C859 1.387 . S
H858 C865 0.950 . S
C859 C857 1.387 . S
C859 C861 1.390 . S
C859 H863 0.950 . S
H860 C856 0.950 . S
C861 C859 1.390 . S
C861 C862 1.387 . S
C861 H864 0.950 . S
C862 C861 1.387 . S
C862 C865 1.387 . S
H863 C859 0.950 . S
H864 C861 0.950 . S
C865 C856 1.390 . S
C865 H858 0.950 . S
C865 C862 1.387 . S
C866 C867 1.387 . S
C866 H870 0.950 . S
C866 C875 1.390 . S
C867 C866 1.387 . S
C867 C869 1.387 . S
H868 C875 0.950 . S
C869 C867 1.387 . S
C869 C871 1.390 . S
C869 H873 0.950 . S
H870 C866 0.950 . S
C871 C869 1.390 . S
C871 C872 1.387 . S
C871 H874 0.950 . S
C872 C871 1.387 . S
C872 C875 1.387 . S
H873 C869 0.950 . S
H874 C871 0.950 . S
C875 C866 1.390 . S
C875 H868 0.950 . S
C875 C872 1.387 . S
C876 C877 1.387 . S
C876 H880 0.950 . S
C876 C885 1.390 . S
C877 C876 1.387 . S
C877 C879 1.387 . S
H878 C885 0.950 . S
C879 C877 1.387 . S
C879 C881 1.390 . S
C879 H883 0.950 . S
H880 C876 0.950 . S
C881 C879 1.390 . S
C881 C882 1.387 . S
C881 H884 0.950 . S
C882 C881 1.387 . S
C882 C885 1.387 . S
H883 C879 0.950 . S
H884 C881 0.950 . S
C885 C876 1.390 . S
C885 H878 0.950 . S
C885 C882 1.387 . S
C886 C887 1.387 . S
C886 H890 0.950 . S
C886 C895 1.390 . S
C887 C886 1.387 . S
C887 C889 1.387 . S
H888 C895 0.950 . S
C889 C887 1.387 . S
C889 C891 1.390 . S
C889 H893 0.950 . S
H890 C886 0.950 . S
C891 C889 1.390 . S
C891 C892 1.387 . S
C891 H894 0.950 . S
C892 C891 1.387 . S
C892 C895 1.387 . S
H893 C889 0.950 . S
H894 C891 0.950 . S
C895 C886 1.390 . S
C895 H888 0.950 . S
C895 C892 1.387 . S
C896 C897 1.387 . S
C896 H900 0.950 . S
C896 C905 1.390 . S
C897 C896 1.387 . S
C897 C899 1.387 . S
H898 C905 0.950 . S
C899 C897 1.387 . S
C899 C901 1.390 . S
C899 H903 0.950 . S
H900 C896 0.950 . S
C901 C899 1.390 . S
C901 C902 1.387 . S
C901 H904 0.950 . S
C902 C901 1.387 . S
C902 C905 1.387 . S
H903 C899 0.950 . S
H904 C901 0.950 . S
C905 C896 1.390 . S
C905 H898 0.950 . S
C905 C902 1.387 . S
C906 C907 1.387 . S
C906 H910 0.950 . S
C906 C915 1.390 . S
C907 C906 1.387 . S
C907 C909 1.387 . S
H908 C915 0.950 . S
C909 C907 1.387 . S
C909 C911 1.390 . S
C909 H913 0.950 . S
H910 C906 0.950 . S
C911 C909 1.390 . S
C911 C912 1.387 . S
C911 H914 0.950 . S
C912 C911 1.387 . S
C912 C915 1.387 . S
H913 C909 0.950 . S
H914 C911 0.950 . S
C915 C906 1.390 . S
C915 H908 0.950 . S
C915 C912 1.387 . S
C916 C917 1.387 . S
C916 H920 0.950 . S
C916 C925 1.390 . S
C917 C916 1.387 . S
C917 C919 1.387 1_554 S
H918 C925 0.950 . S
C919 C917 1.387 1_556 S
C919 C921 1.390 . S
C919 H923 0.950 . S
H920 C916 0.950 . S
C921 C919 1.390 . S
C921 C922 1.387 1_556 S
C921 H924 0.950 . S
C922 C921 1.387 1_554 S
C922 C925 1.387 . S
H923 C919 0.950 . S
H924 C921 0.950 . S
C925 C916 1.390 . S
C925 H918 0.950 . S
C925 C922 1.387 . S
C926 C927 1.387 . S
C926 H930 0.950 . S
C926 C935 1.390 . S
C927 C926 1.387 . S
C927 C929 1.387 1_554 S
H928 C935 0.950 . S
C929 C927 1.387 1_556 S
C929 C931 1.390 . S
C929 H933 0.950 . S
H930 C926 0.950 . S
C931 C929 1.390 . S
C931 C932 1.387 1_556 S
C931 H934 0.950 . S
C932 C931 1.387 1_554 S
C932 C935 1.387 . S
H933 C929 0.950 . S
H934 C931 0.950 . S
C935 C926 1.390 . S
C935 H928 0.950 . S
C935 C932 1.387 . S
C936 C937 1.387 . S
C936 H940 0.950 . S
C936 C945 1.390 . S
C937 C936 1.387 . S
C937 C939 1.387 . S
H938 C945 0.950 . S
C939 C937 1.387 . S
C939 C941 1.390 . S
C939 H943 0.950 . S
H940 C936 0.950 . S
C941 C939 1.390 . S
C941 C942 1.387 . S
C941 H944 0.950 . S
C942 C941 1.387 . S
C942 C945 1.387 . S
H943 C939 0.950 . S
H944 C941 0.950 . S
C945 C936 1.390 . S
C945 H938 0.950 . S
C945 C942 1.387 . S
C946 C947 1.387 . S
C946 H950 0.950 . S
C946 C955 1.390 . S
C947 C946 1.387 . S
C947 C949 1.387 . S
H948 C955 0.950 . S
C949 C947 1.387 . S
C949 C951 1.390 . S
C949 H953 0.950 . S
H950 C946 0.950 . S
C951 C949 1.390 . S
C951 C952 1.387 . S
C951 H954 0.950 . S
C952 C951 1.387 . S
C952 C955 1.387 . S
H953 C949 0.950 . S
H954 C951 0.950 . S
C955 C946 1.390 . S
C955 H948 0.950 . S
C955 C952 1.387 . S
C956 C957 1.387 1_554 S
C956 H960 0.950 . S
C956 C965 1.390 . S
C957 C956 1.387 1_556 S
C957 C959 1.387 . S
H958 C965 0.950 . S
C959 C957 1.387 . S
C959 C961 1.390 . S
C959 H963 0.950 . S
H960 C956 0.950 . S
C961 C959 1.390 . S
C961 C962 1.387 . S
C961 H964 0.950 . S
C962 C961 1.387 . S
C962 C965 1.387 1_556 S
H963 C959 0.950 . S
H964 C961 0.950 . S
C965 C956 1.390 . S
C965 H958 0.950 . S
C965 C962 1.387 1_554 S
C966 C967 1.387 1_554 S
C966 H970 0.950 . S
C966 C975 1.390 . S
C967 C966 1.387 1_556 S
C967 C969 1.387 . S
H968 C975 0.950 . S
C969 C967 1.387 . S
C969 C971 1.390 . S
C969 H973 0.950 . S
H970 C966 0.950 . S
C971 C969 1.390 . S
C971 C972 1.387 . S
C971 H974 0.950 . S
C972 C971 1.387 . S
C972 C975 1.387 1_556 S
H973 C969 0.950 . S
H974 C971 0.950 . S
C975 C966 1.390 . S
C975 H968 0.950 . S
C975 C972 1.387 1_554 S
C976 C977 1.387 . S
C976 H980 0.950 . S
C976 C985 1.390 . S
C977 C976 1.387 . S
C977 C979 1.387 . S
H978 C985 0.950 . S
C979 C977 1.387 . S
C979 C981 1.390 . S
C979 H983 0.950 . S
H980 C976 0.950 . S
C981 C979 1.390 . S
C981 C982 1.387 . S
C981 H984 0.950 . S
C982 C981 1.387 . S
C982 C985 1.387 . S
H983 C979 0.950 . S
H984 C981 0.950 . S
C985 C976 1.390 . S
C985 H978 0.950 . S
C985 C982 1.387 . S
C986 C987 1.387 . S
C986 H990 0.950 . S
C986 C995 1.390 . S
C987 C986 1.387 . S
C987 C989 1.387 . S
H988 C995 0.950 . S
C989 C987 1.387 . S
C989 C991 1.390 . S
C989 H993 0.950 . S
H990 C986 0.950 . S
C991 C989 1.390 . S
C991 C992 1.387 . S
C991 H994 0.950 . S
C992 C991 1.387 . S
C992 C995 1.387 . S
H993 C989 0.950 . S
H994 C991 0.950 . S
C995 C986 1.390 . S
C995 H988 0.950 . S
C995 C992 1.387 . S
C996 C997 1.387 . S
C996 H1000 0.950 . S
C996 C1005 1.390 . S
C997 C996 1.387 . S
C997 C999 1.387 . S
H998 C1005 0.950 . S
C999 C997 1.387 . S
C999 C1001 1.390 . S
C999 H1003 0.950 . S
H1000 C996 0.950 . S
C1001 C999 1.390 . S
C1001 C1002 1.387 . S
C1001 H1004 0.950 . S
C1002 C1001 1.387 . S
C1002 C1005 1.387 . S
H1003 C999 0.950 . S
H1004 C1001 0.950 . S
C1005 C996 1.390 . S
C1005 H998 0.950 . S
C1005 C1002 1.387 . S
C1006 C1007 1.387 . S
C1006 H1010 0.950 . S
C1006 C1015 1.390 . S
C1007 C1006 1.387 . S
C1007 C1009 1.387 . S
H1008 C1015 0.950 . S
C1009 C1007 1.387 . S
C1009 C1011 1.390 . S
C1009 H1013 0.950 . S
H1010 C1006 0.950 . S
C1011 C1009 1.390 . S
C1011 C1012 1.387 . S
C1011 H1014 0.950 . S
C1012 C1011 1.387 . S
C1012 C1015 1.387 . S
H1013 C1009 0.950 . S
H1014 C1011 0.950 . S
C1015 C1006 1.390 . S
C1015 H1008 0.950 . S
C1015 C1012 1.387 . S
C1016 C1017 1.387 . S
C1016 H1020 0.950 . S
C1016 C1025 1.390 . S
C1017 C1016 1.387 . S
C1017 C1019 1.387 . S
H1018 C1025 0.950 . S
C1019 C1017 1.387 . S
C1019 C1021 1.390 . S
C1019 H1023 0.950 . S
H1020 C1016 0.950 . S
C1021 C1019 1.390 . S
C1021 C1022 1.387 . S
C1021 H1024 0.950 . S
C1022 C1021 1.387 . S
C1022 C1025 1.387 . S
H1023 C1019 0.950 . S
H1024 C1021 0.950 . S
C1025 C1016 1.390 . S
C1025 H1018 0.950 . S
C1025 C1022 1.387 . S
C1026 C1027 1.387 . S
C1026 H1030 0.950 . S
C1026 C1035 1.390 . S
C1027 C1026 1.387 . S
C1027 C1029 1.387 . S
H1028 C1035 0.950 . S
C1029 C1027 1.387 . S
C1029 C1031 1.390 . S
C1029 H1033 0.950 . S
H1030 C1026 0.950 . S
C1031 C1029 1.390 . S
C1031 C1032 1.387 . S
C1031 H1034 0.950 . S
C1032 C1031 1.387 . S
C1032 C1035 1.387 . S
H1033 C1029 0.950 . S
H1034 C1031 0.950 . S
C1035 C1026 1.390 . S
C1035 H1028 0.950 . S
C1035 C1032 1.387 . S
C1036 C1037 1.387 . S
C1036 H1040 0.950 . S
C1036 C1045 1.390 . S
C1037 C1036 1.387 . S
C1037 C1039 1.387 . S
H1038 C1045 0.950 . S
C1039 C1037 1.387 . S
C1039 C1041 1.390 . S
C1039 H1043 0.950 . S
H1040 C1036 0.950 . S
C1041 C1039 1.390 . S
C1041 C1042 1.387 . S
C1041 H1044 0.950 . S
C1042 C1041 1.387 . S
C1042 C1045 1.387 . S
H1043 C1039 0.950 . S
H1044 C1041 0.950 . S
C1045 C1036 1.390 . S
C1045 H1038 0.950 . S
C1045 C1042 1.387 . S
C1046 C1047 1.387 . S
C1046 H1050 0.950 . S
C1046 C1055 1.390 . S
C1047 C1046 1.387 . S
C1047 C1049 1.387 . S
H1048 C1055 0.950 . S
C1049 C1047 1.387 . S
C1049 C1051 1.390 . S
C1049 H1053 0.950 . S
H1050 C1046 0.950 . S
C1051 C1049 1.390 . S
C1051 C1052 1.387 . S
C1051 H1054 0.950 . S
C1052 C1051 1.387 . S
C1052 C1055 1.387 . S
H1053 C1049 0.950 . S
H1054 C1051 0.950 . S
C1055 C1046 1.390 . S
C1055 H1048 0.950 . S
C1055 C1052 1.387 . S
C417 C1 1.539 . S
C422 C40 1.543 . S
C427 C27 1.539 . S
C432 C14 1.544 . S
C437 C53 1.512 . S
C442 C92 1.514 . S
C447 C79 1.509 . S
C452 C66 1.516 . S
C457 C105 1.506 . S
C462 C144 1.506 . S
C467 C131 1.507 . S
C472 C118 1.507 . S
C477 C157 1.477 . S
C482 C196 1.476 . S
C487 C170 1.479 . S
C492 C183 1.478 . S
C497 C248 1.507 . S
C502 C209 1.507 . S
C507 C222 1.506 . S
C512 C235 1.506 . S
C517 C261 1.479 . S
C522 C300 1.478 . S
C527 C287 1.476 . S
C532 C274 1.477 . S
C537 C313 1.539 . S
C542 C352 1.543 . S
C547 C339 1.539 . S
C552 C326 1.544 . S
C557 C365 1.512 . S
C562 C404 1.514 . S
C567 C378 1.510 . S
C572 C391 1.512 . S
C577 C161 1.908 . S
C582 C5 1.748 . S
C587 C18 1.749 . S
C592 C278 1.908 . S
C597 C31 1.705 . S
C602 C83 1.858 . S
C607 C408 1.858 . S
C612 C44 1.705 . S
C617 C57 1.908 . S
C622 C109 1.749 . S
C627 C226 1.745 . S
C632 C70 1.905 . S
C637 C356 1.709 . S
C642 C96 1.861 . S
C647 C382 1.905 . S
C652 C122 1.745 . S
C657 C187 1.863 . S
C662 C135 1.709 . S
C667 C304 1.863 . S
C672 C148 1.709 . S
C677 C174 1.906 . S
C682 C330 1.744 . S
C687 C252 1.709 . S
C692 C200 1.863 . S
C697 C369 1.905 . S
C702 C213 1.745 . S
C707 C291 1.863 . S
C712 C239 1.709 . S
C717 C317 1.744 . S
C722 C265 1.906 . S
C727 C343 1.705 . S
C732 C395 1.858 . S
C737 C133 1.677 . S
C742 C3 1.677 . S
C747 C16 1.677 . S
C752 C146 1.677 . S
C757 C107 1.650 . S
C762 C29 1.645 . S
C767 C120 1.650 . S
C772 C42 1.645 . S
C777 C55 1.625 . S
C782 C185 1.623 . S
C787 C68 1.627 . S
C792 C198 1.626 . S
C797 C159 1.597 . S
C802 C81 1.591 . S
C807 C94 1.598 . S
C812 C172 1.595 . S
C817 C341 1.650 . S
C822 C211 1.646 . S
C827 C354 1.650 . S
C832 C224 1.646 . S
C837 C237 1.677 . S
C842 C315 1.677 . S
C847 C250 1.677 . S
C852 C328 1.677 . S
C857 C263 1.599 . S
C862 C393 1.593 . S
C867 C276 1.597 . S
C872 C406 1.591 . S
C877 C367 1.625 . S
C882 C289 1.623 . S
C887 C380 1.625 . S
C892 C302 1.623 . S
C897 C10 1.932 . S
C902 C335 1.932 . S
C907 C322 1.929 . S
C912 C23 1.951 . S
C917 C36 1.887 . S
C922 C361 1.887 . S
C927 C49 1.887 . S
C932 C348 1.887 . S
C937 C62 2.052 . S
C942 C387 2.052 . S
C947 C75 2.052 1_455 S
C952 C374 2.052 . S
C957 C413 2.003 . S
C962 C88 2.003 . S
C967 C400 2.003 . S
C972 C101 2.003 1_455 S
C977 C231 1.928 . S
C982 C114 1.928 . S
C987 C218 1.924 . S
C992 C127 1.924 . S
C997 C140 1.889 . S
C1002 C257 1.889 . S
C1007 C153 1.893 . S
C1012 C244 1.893 . S
C1017 C283 2.045 . S
C1022 C166 2.045 . S
C1027 C179 2.048 1_455 S
C1032 C270 2.048 . S
C1037 C192 2.008 . S
C1042 C309 2.008 . S
C1047 C205 2.008 1_455 S
C1052 C296 2.008 . S
