# Generated by pormake.
# Topology mok, (4)-cn, num edge types: 1
# Building blocks:
#     Node 0, Type 0, BuildingBlock: AZAVOO_clean_sbu_0, # of connection points: 4
#     Node 1, Type 0, BuildingBlock: AZAVOO_clean_sbu_0, # of connection points: 4
#     Node 2, Type 0, BuildingBlock: AZAVOO_clean_sbu_0, # of connection points: 4
#     Node 3, Type 0, BuildingBlock: AZAVOO_clean_sbu_0, # of connection points: 4
#     Node 4, Type 0, BuildingBlock: AZAVOO_clean_sbu_0, # of connection points: 4
#     Node 5, Type 0, BuildingBlock: AZAVOO_clean_sbu_0, # of connection points: 4
#     Node 6, Type 0, BuildingBlock: AZAVOO_clean_sbu_0, # of connection points: 4
#     Node 7, Type 0, BuildingBlock: AZAVOO_clean_sbu_0, # of connection points: 4
#     Edge 8, Type (0, 0), BuildingBlock: FUNLAD_clean_linker_1, # of connection points: 2
#     Edge 9, Type (0, 0), BuildingBlock: FUNLAD_clean_linker_1, # of connection points: 2
#     Edge 10, Type (0, 0), BuildingBlock: FUNLAD_clean_linker_1, # of connection points: 2
#     Edge 11, Type (0, 0), BuildingBlock: FUNLAD_clean_linker_1, # of connection points: 2
#     Edge 12, Type (0, 0), BuildingBlock: FUNLAD_clean_linker_1, # of connection points: 2
#     Edge 13, Type (0, 0), BuildingBlock: FUNLAD_clean_linker_1, # of connection points: 2
#     Edge 14, Type (0, 0), BuildingBlock: FUNLAD_clean_linker_1, # of connection points: 2
#     Edge 15, Type (0, 0), BuildingBlock: FUNLAD_clean_linker_1, # of connection points: 2
#     Edge 16, Type (0, 0), BuildingBlock: FUNLAD_clean_linker_1, # of connection points: 2
#     Edge 17, Type (0, 0), BuildingBlock: FUNLAD_clean_linker_1, # of connection points: 2
#     Edge 18, Type (0, 0), BuildingBlock: FUNLAD_clean_linker_1, # of connection points: 2
#     Edge 19, Type (0, 0), BuildingBlock: FUNLAD_clean_linker_1, # of connection points: 2
#     Edge 20, Type (0, 0), BuildingBlock: FUNLAD_clean_linker_1, # of connection points: 2
#     Edge 21, Type (0, 0), BuildingBlock: FUNLAD_clean_linker_1, # of connection points: 2
#     Edge 22, Type (0, 0), BuildingBlock: FUNLAD_clean_linker_1, # of connection points: 2
#     Edge 23, Type (0, 0), BuildingBlock: FUNLAD_clean_linker_1, # of connection points: 2
# Relax obj value: 0.033
# Max RMSD: 0.042
# Mean RMSD: 0.042
data_MOF--net-mok--node1-AZAVOO_clean_sbu_0--edge1-FUNLAD_clean_linker_1
_symmetry_space_group_name_H-M    P1
_symmetry_Int_Tables_number       1
_symmetry_cell_setting            triclinic
loop_
_symmetry_equiv_pos_as_xyz
'x, y, z'
_cell_length_a     44.943412
_cell_length_b     22.155369
_cell_length_c     27.682874
_cell_angle_alpha  90.020547
_cell_angle_beta   90.034344
_cell_angle_gamma 89.912386
loop_
_atom_site_label
_atom_site_type_symbol
_atom_site_fract_x
_atom_site_fract_y
_atom_site_fract_z
_atom_type_partial_charge
Mg0 Mg 0.5809 0.34454 0.01403 0.0
O1 O 0.63006 0.31393 0.01677 0.0
O2 O 0.63798 0.27998 0.09192 0.0
Mg3 Mg 0.59595 0.29359 0.13712 0.0
C4 C 0.64685 0.29017 0.04886 0.0
C5 C 0.5608 0.38469 0.91615 0.0
O6 O 0.54151 0.40723 0.94697 0.0
O7 O 0.56482 0.24626 0.01412 0.0
O8 O 0.57276 0.22068 0.0913 0.0
O9 O 0.59483 0.43692 0.03546 0.0
O10 O 0.582 0.36579 0.08747 0.0
C11 C 0.56329 0.20844 0.0489 0.0
C12 C 0.59185 0.4196 0.07977 0.0
O13 O 0.58136 0.35056 0.93197 0.0
Mg14 Mg 0.42774 0.667 0.01281 0.0
O15 O 0.38006 0.70596 0.01968 0.0
O16 O 0.3792 0.75588 0.09015 0.0
Mg17 Mg 0.42352 0.74402 0.12953 0.0
C18 C 0.36671 0.73855 0.05113 0.0
C19 C 0.39952 0.6159 0.91816 0.0
O20 O 0.37771 0.60471 0.94835 0.0
O21 O 0.44626 0.76147 0.99752 0.0
O22 O 0.44573 0.80295 0.07122 0.0
O23 O 0.41324 0.58202 0.04825 0.0
O24 O 0.4308 0.66095 0.08788 0.0
C25 C 0.45192 0.80518 0.02617 0.0
C26 C 0.41927 0.60768 0.08902 0.0
O27 O 0.4221 0.64525 0.93273 0.0
Mg28 Mg 0.5611 0.65975 0.49539 0.0
O29 O 0.61152 0.67975 0.50059 0.0
O30 O 0.62221 0.738 0.43673 0.0
Mg31 Mg 0.58114 0.74762 0.38848 0.0
C32 C 0.62981 0.71109 0.47568 0.0
C33 C 0.53398 0.60928 0.58853 0.0
O34 O 0.51081 0.61219 0.55973 0.0
O35 O 0.54979 0.75711 0.51579 0.0
O36 O 0.55847 0.80652 0.44681 0.0
O37 O 0.57013 0.57477 0.45579 0.0
O38 O 0.56426 0.66334 0.42016 0.0
C39 C 0.54923 0.80523 0.4905 0.0
C40 C 0.57065 0.60669 0.41673 0.0
O41 O 0.55901 0.6285 0.57368 0.0
Mg42 Mg 0.42609 0.34914 0.50149 0.0
O43 O 0.37615 0.3243 0.50016 0.0
O44 O 0.36695 0.28484 0.42718 0.0
Mg45 Mg 0.40923 0.2882 0.38155 0.0
C46 C 0.35852 0.30018 0.4695 0.0
C47 C 0.44871 0.38573 0.60147 0.0
O48 O 0.47259 0.39093 0.57452 0.0
O49 O 0.43972 0.24919 0.50751 0.0
O50 O 0.43074 0.21818 0.43188 0.0
O51 O 0.41501 0.44065 0.47359 0.0
O52 O 0.42544 0.36249 0.42688 0.0
C53 C 0.44018 0.2085 0.4747 0.0
C54 C 0.41724 0.41806 0.43069 0.0
O55 O 0.42508 0.36422 0.58293 0.0
Mg56 Mg 0.07481 0.82124 0.01784 0.0
O57 O 0.12411 0.7907 0.02335 0.0
O58 O 0.1259 0.72946 0.08781 0.0
Mg59 Mg 0.08098 0.7273 0.12622 0.0
C60 C 0.13823 0.75515 0.05177 0.0
C61 C 0.05601 0.87286 0.92168 0.0
O62 O 0.03106 0.86741 0.94589 0.0
O63 O 0.06116 0.72722 0.99202 0.0
O64 O 0.06202 0.67543 0.06138 0.0
O65 O 0.08361 0.90258 0.06345 0.0
O66 O 0.07044 0.81342 0.09194 0.0
C67 C 0.05672 0.67894 0.01608 0.0
C68 C 0.07825 0.86821 0.10023 0.0
O69 O 0.08019 0.85518 0.94095 0.0
Mg70 Mg 0.94254 0.14135 0.03548 0.0
O71 O 0.89169 0.15844 0.03273 0.0
O72 O 0.88072 0.20877 0.10067 0.0
Mg73 Mg 0.92208 0.21714 0.14801 0.0
C74 C 0.87315 0.18571 0.06019 0.0
C75 C 0.96908 0.12451 0.93416 0.0
O76 O 0.99152 0.14942 0.95702 0.0
O77 O 0.95177 0.2407 0.02058 0.0
O78 O 0.94194 0.28273 0.09236 0.0
O79 O 0.93536 0.05262 0.07063 0.0
O80 O 0.94089 0.13856 0.11039 0.0
C81 C 0.95091 0.28633 0.0487 0.0
C82 C 0.93549 0.08143 0.11127 0.0
O83 O 0.9444 0.11782 0.95591 0.0
Mg84 Mg 0.06489 0.15153 0.50483 0.0
O85 O 0.11456 0.17698 0.5001 0.0
O86 O 0.11956 0.2389 0.43674 0.0
Mg87 Mg 0.07456 0.24785 0.3986 0.0
C88 C 0.13039 0.21067 0.47295 0.0
C89 C 0.08986 0.0739 0.58855 0.0
O90 O 0.10657 0.05511 0.5527 0.0
O91 O 0.05294 0.2459 0.53204 0.0
O92 O 0.05611 0.29993 0.46398 0.0
O93 O 0.07303 0.07132 0.45819 0.0
O94 O 0.06076 0.16154 0.43038 0.0
C95 C 0.04999 0.2954 0.50894 0.0
C96 C 0.06852 0.1067 0.4217 0.0
O97 O 0.07097 0.11567 0.58122 0.0
Mg98 Mg 0.9267 0.83143 0.52509 0.0
O99 O 0.87639 0.80999 0.52232 0.0
O100 O 0.86782 0.77144 0.44883 0.0
Mg101 Mg 0.91069 0.77349 0.40446 0.0
C102 C 0.85895 0.78685 0.4909 0.0
C103 C 0.94845 0.87398 0.62019 0.0
O104 O 0.96872 0.88933 0.58828 0.0
O105 O 0.93849 0.73148 0.53048 0.0
O106 O 0.93077 0.70097 0.45438 0.0
O107 O 0.91763 0.92414 0.4987 0.0
O108 O 0.92734 0.84623 0.45111 0.0
C109 C 0.93919 0.6909 0.49772 0.0
C110 C 0.92033 0.90241 0.45557 0.0
O111 O 0.92606 0.84371 0.60625 0.0
H112 H 0.83241 0.15163 0.02429 0.0
C113 C 0.84139 0.18782 0.04639 0.0
H114 H 0.83289 0.26755 0.0852 0.0
H115 H 0.70476 0.21588 0.96709 0.0
H116 H 0.7331 0.21727 0.89259 0.0
H117 H 0.78772 0.22792 0.89396 0.0
H118 H 0.81439 0.23509 0.96984 0.0
C119 C 0.8234 0.23163 0.06331 0.0
C120 C 0.79025 0.22855 0.06071 0.0
C121 C 0.77491 0.2283 0.01585 0.0
C122 C 0.74319 0.2267 0.01493 0.0
C123 C 0.72862 0.221 0.96982 0.0
C124 C 0.74465 0.22114 0.92677 0.0
C125 C 0.77541 0.22681 0.92756 0.0
C126 C 0.79048 0.23041 0.97144 0.0
H127 H 0.68972 0.30966 0.01313 0.0
C128 C 0.6784 0.27863 0.03729 0.0
H129 H 0.68166 0.20283 0.08246 0.0
H130 H 0.81237 0.22234 0.15308 0.0
H131 H 0.7841 0.22737 0.22723 0.0
H132 H 0.72943 0.23649 0.22557 0.0
H133 H 0.70275 0.2393 0.14992 0.0
C134 C 0.69359 0.23377 0.05896 0.0
C135 C 0.72682 0.23042 0.05873 0.0
C136 C 0.74222 0.23113 0.10356 0.0
C137 C 0.77384 0.22869 0.10452 0.0
C138 C 0.78846 0.22642 0.14994 0.0
C139 C 0.7725 0.22892 0.19296 0.0
C140 C 0.74174 0.23384 0.19203 0.0
C141 C 0.72667 0.23504 0.14809 0.0
H142 H 0.17915 0.70249 0.06172 0.0
C143 C 0.17013 0.74254 0.04429 0.0
H144 H 0.1804 0.82113 0.00455 0.0
H145 H 0.30315 0.70456 0.1108 0.0
H146 H 0.27778 0.72215 0.18662 0.0
H147 H 0.22754 0.76716 0.18813 0.0
H148 H 0.20193 0.79181 0.11366 0.0
C149 C 0.18888 0.78072 0.02206 0.0
C150 C 0.22167 0.76866 0.02153 0.0
C151 C 0.23747 0.76052 0.06555 0.0
C152 C 0.26757 0.74065 0.06485 0.0
C153 C 0.28127 0.72474 0.10922 0.0
C154 C 0.2668 0.73387 0.15308 0.0
C155 C 0.23845 0.75877 0.15392 0.0
C156 C 0.22387 0.77205 0.11082 0.0
H157 H 0.32733 0.79503 0.06425 0.0
C158 C 0.33535 0.75613 0.04409 0.0
H159 H 0.32328 0.68269 -0.00034 0.0
H160 H 0.19858 0.7821 0.93067 0.0
H161 H 0.22535 0.77297 0.85499 0.0
H162 H 0.27891 0.74851 0.85402 0.0
H163 H 0.30596 0.73213 0.9287 0.0
C164 C 0.31572 0.72207 0.01963 0.0
C165 C 0.28316 0.73641 0.02029 0.0
C166 C 0.26776 0.74712 0.97635 0.0
C167 C 0.23694 0.76254 0.97694 0.0
C168 C 0.22201 0.77116 0.93241 0.0
C169 C 0.23712 0.76601 0.88867 0.0
C170 C 0.26727 0.75219 0.88813 0.0
C171 C 0.28253 0.74283 0.9313 0.0
H172 H 0.81726 0.81387 0.52755 0.0
C173 C 0.82687 0.78214 0.50198 0.0
H174 H 0.81935 0.71093 0.45332 0.0
H175 H 0.6889 0.75219 0.56907 0.0
H176 H 0.71535 0.73338 0.6439 0.0
H177 H 0.7696 0.71627 0.64401 0.0
H178 H 0.79783 0.71988 0.56949 0.0
C179 C 0.80932 0.74254 0.4786 0.0
C180 C 0.77612 0.74639 0.47933 0.0
C181 C 0.75972 0.74022 0.5229 0.0
C182 C 0.7281 0.7458 0.52241 0.0
C183 C 0.71263 0.74478 0.56693 0.0
C184 C 0.72759 0.73453 0.61025 0.0
C185 C 0.75816 0.72521 0.61034 0.0
C186 C 0.77414 0.72792 0.5673 0.0
H187 H 0.6705 0.67379 0.50949 0.0
C188 C 0.66152 0.71221 0.48989 0.0
H189 H 0.67014 0.79548 0.45642 0.0
H190 H 0.80048 0.76416 0.38939 0.0
H191 H 0.77383 0.77515 0.31409 0.0
H192 H 0.71899 0.77355 0.31215 0.0
H193 H 0.69056 0.76223 0.38561 0.0
C194 C 0.67959 0.75728 0.47578 0.0
C195 C 0.71274 0.75284 0.4779 0.0
C196 C 0.72914 0.75708 0.43418 0.0
C197 C 0.76078 0.75528 0.43504 0.0
C198 C 0.77646 0.76293 0.39097 0.0
C199 C 0.76143 0.76965 0.34732 0.0
C200 C 0.73058 0.76896 0.34625 0.0
C201 C 0.71453 0.76276 0.38894 0.0
H202 H 0.1734 0.1762 0.50028 0.0
C203 C 0.16278 0.21372 0.48174 0.0
H204 H 0.16839 0.29739 0.4471 0.0
H205 H 0.30035 0.23012 0.55065 0.0
H206 H 0.27425 0.22573 0.62713 0.0
H207 H 0.2199 0.24068 0.6309 0.0
H208 H 0.19124 0.25796 0.55801 0.0
C209 C 0.1793 0.26004 0.46545 0.0
C210 C 0.21254 0.25859 0.46513 0.0
C211 C 0.22918 0.25283 0.50855 0.0
C212 C 0.26083 0.24884 0.5068 0.0
C213 C 0.27656 0.23726 0.55015 0.0
C214 C 0.26181 0.23406 0.5943 0.0
C215 C 0.23119 0.24214 0.59639 0.0
C216 C 0.21496 0.25147 0.55416 0.0
H217 H 0.31724 0.32512 0.50816 0.0
C218 C 0.32669 0.29412 0.48187 0.0
H219 H 0.31899 0.22311 0.43307 0.0
H220 H 0.18775 0.26676 0.37458 0.0
H221 H 0.21401 0.27937 0.29912 0.0
H222 H 0.2688 0.284 0.29715 0.0
H223 H 0.29761 0.27475 0.3705 0.0
C224 C 0.30914 0.25396 0.45911 0.0
C225 C 0.27595 0.25582 0.4621 0.0
C226 C 0.25931 0.26376 0.41893 0.0
C227 C 0.22767 0.26375 0.42031 0.0
C228 C 0.21177 0.26853 0.37616 0.0
C229 C 0.22657 0.27551 0.33237 0.0
C230 C 0.25739 0.27792 0.33124 0.0
C231 C 0.27367 0.27218 0.37379 0.0
H232 H 0.61155 0.50203 0.11094 0.0
C233 C 0.59934 0.46111 0.11952 0.0
H234 H 0.57676 0.41197 0.17336 0.0
H235 H 0.63338 0.53281 0.35575 0.0
H236 H 0.66013 0.43742 0.35521 0.0
H237 H 0.65656 0.36849 0.2854 0.0
H238 H 0.62665 0.39497 0.21546 0.0
C239 C 0.58888 0.45287 0.1644 0.0
C240 C 0.59369 0.49783 0.20368 0.0
C241 C 0.61079 0.48116 0.24456 0.0
C242 C 0.61212 0.51997 0.28539 0.0
C243 C 0.63052 0.50355 0.32479 0.0
C244 C 0.64624 0.44931 0.32468 0.0
C245 C 0.64427 0.41056 0.28535 0.0
C246 C 0.6269 0.42616 0.24556 0.0
H247 H 0.57405 0.52918 0.36803 0.0
C248 C 0.57805 0.57746 0.37055 0.0
H249 H 0.59422 0.65483 0.33508 0.0
H250 H 0.56036 0.54658 0.12977 0.0
H251 H 0.53684 0.64465 0.12876 0.0
H252 H 0.53993 0.71228 0.19931 0.0
H253 H 0.56648 0.68186 0.27142 0.0
C254 C 0.58989 0.60675 0.33268 0.0
C255 C 0.59528 0.57424 0.28614 0.0
C256 C 0.5809 0.59402 0.24337 0.0
C257 C 0.57971 0.55542 0.20221 0.0
C258 C 0.56318 0.57458 0.16134 0.0
C259 C 0.54925 0.63078 0.1604 0.0
C260 C 0.55093 0.66879 0.20016 0.0
C261 C 0.56629 0.6507 0.24139 0.0
H262 H 0.40385 0.53054 0.13223 0.0
C263 C 0.41318 0.5757 0.1346 0.0
H264 H 0.43114 0.64205 0.18082 0.0
H265 H 0.35995 0.447 0.32601 0.0
H266 H 0.31442 0.48354 0.28867 0.0
H267 H 0.31618 0.55665 0.2215 0.0
H268 H 0.36345 0.59319 0.19088 0.0
C269 C 0.42059 0.5981 0.17802 0.0
C270 C 0.4189 0.55958 0.22204 0.0
C271 C 0.39103 0.53996 0.24028 0.0
C272 C 0.38996 0.49908 0.2799 0.0
C273 C 0.36194 0.47882 0.29655 0.0
C274 C 0.33567 0.49936 0.27541 0.0
C275 C 0.33667 0.54042 0.2375 0.0
C276 C 0.36395 0.56074 0.22006 0.0
H277 H 0.40467 0.50255 0.39389 0.0
C278 C 0.41113 0.45581 0.38803 0.0
H279 H 0.42403 0.39042 0.33664 0.0
H280 H 0.47608 0.59001 0.19739 0.0
H281 H 0.52101 0.5561 0.23707 0.0
H282 H 0.51923 0.48754 0.30674 0.0
H283 H 0.47196 0.45133 0.33726 0.0
C284 C 0.41612 0.43609 0.34295 0.0
C285 C 0.4167 0.47903 0.30178 0.0
C286 C 0.44448 0.50005 0.28457 0.0
C287 C 0.4456 0.5404 0.2447 0.0
C288 C 0.47374 0.55987 0.22788 0.0
C289 C 0.49984 0.54077 0.25026 0.0
C290 C 0.49878 0.50199 0.28952 0.0
C291 C 0.47149 0.48159 0.3066 0.0
H292 H 0.37866 0.56662 0.85779 0.0
C293 C 0.39927 0.5872 0.87006 0.0
H294 H 0.44537 0.59661 0.85726 0.0
H295 H 0.44939 0.35307 0.7366 0.0
H296 H 0.47286 0.32148 0.81132 0.0
H297 H 0.47536 0.39018 0.8813 0.0
H298 H 0.45378 0.49047 0.87739 0.0
C299 C 0.42421 0.57973 0.84393 0.0
C300 C 0.42445 0.54036 0.80032 0.0
C301 C 0.43823 0.48276 0.8026 0.0
C302 C 0.43742 0.4436 0.76186 0.0
C303 C 0.45001 0.3852 0.766 0.0
C304 C 0.46339 0.36633 0.80881 0.0
C305 C 0.46476 0.40498 0.84823 0.0
C306 C 0.45234 0.46251 0.84542 0.0
H307 H 0.46957 0.43064 0.66388 0.0
C308 C 0.44866 0.41308 0.65006 0.0
H309 H 0.40217 0.40924 0.66018 0.0
H310 H 0.39774 0.64928 0.78289 0.0
H311 H 0.37402 0.68082 0.70831 0.0
H312 H 0.37277 0.61324 0.63751 0.0
H313 H 0.3952 0.51378 0.64081 0.0
C314 C 0.42349 0.42329 0.67489 0.0
C315 C 0.42353 0.46277 0.71848 0.0
C316 C 0.40995 0.52057 0.71611 0.0
C317 C 0.4105 0.55947 0.75701 0.0
C318 C 0.39745 0.6175 0.75322 0.0
C319 C 0.38391 0.63633 0.71053 0.0
C320 C 0.38322 0.59829 0.67066 0.0
C321 C 0.39613 0.54118 0.67313 0.0
H322 H 0.57852 0.38921 0.84167 0.0
C323 C 0.56085 0.40492 0.86537 0.0
H324 H 0.52416 0.46367 0.87347 0.0
H325 H 0.56502 0.65483 0.72075 0.0
H326 H 0.57274 0.70912 0.79581 0.0
H327 H 0.56786 0.65744 0.8743 0.0
H328 H 0.5552 0.5513 0.87827 0.0
C329 C 0.54112 0.44599 0.8493 0.0
C330 C 0.54447 0.47598 0.80155 0.0
C331 C 0.55201 0.53812 0.79992 0.0
C332 C 0.55515 0.5678 0.7547 0.0
C333 C 0.5626 0.62992 0.75413 0.0
C334 C 0.56705 0.66168 0.79694 0.0
C335 C 0.56427 0.6326 0.84113 0.0
C336 C 0.55689 0.5716 0.84285 0.0
H337 H 0.5087 0.56665 0.64762 0.0
C338 C 0.53085 0.58012 0.63611 0.0
H339 H 0.57662 0.58069 0.65359 0.0
H340 H 0.52792 0.35771 0.7919 0.0
H341 H 0.52008 0.30353 0.71688 0.0
H342 H 0.5272 0.35405 0.63835 0.0
H343 H 0.54169 0.45928 0.63442 0.0
C344 C 0.55436 0.56688 0.6641 0.0
C345 C 0.55061 0.53546 0.71119 0.0
C346 C 0.54295 0.47333 0.71274 0.0
C347 C 0.53964 0.44369 0.75802 0.0
C348 C 0.53123 0.38216 0.75856 0.0
C349 C 0.52663 0.35051 0.71573 0.0
C350 C 0.53058 0.37899 0.67153 0.0
C351 C 0.53874 0.43958 0.66982 0.0
H352 H 0.08068 0.85709 0.1791 0.0
C353 C 0.08072 0.89023 0.15014 0.0
H354 H 0.08 0.98284 0.13219 0.0
H355 H 0.03376 0.95929 0.36197 0.0
H356 H 0.99261 0.90088 0.32996 0.0
H357 H 0.98916 0.87877 0.24286 0.0
H358 H 0.02769 0.91174 0.18776 0.0
C359 C 0.08002 0.94933 0.16086 0.0
C360 C 0.07945 0.97062 0.21188 0.0
C361 C 0.05578 0.95378 0.24308 0.0
C362 C 0.05674 0.96997 0.29272 0.0
C363 C 0.03379 0.94949 0.32369 0.0
C364 C 0.00998 0.91606 0.30579 0.0
C365 C 0.00812 0.90334 0.25681 0.0
C366 C 0.03061 0.92201 0.22563 0.0
H367 H 0.06896 0.11801 0.34261 0.0
C368 C 0.07261 0.08584 0.37168 0.0
H369 H 0.0818 0.99503 0.38972 0.0
H370 H 0.12771 0.01236 0.16155 0.0
H371 H 0.16773 0.07423 0.19307 0.0
H372 H 0.16829 0.1056 0.27858 0.0
H373 H 0.12889 0.07504 0.33313 0.0
C374 C 0.07928 0.02825 0.36114 0.0
C375 C 0.08003 0.00705 0.31023 0.0
C376 C 0.10321 0.02547 0.27882 0.0
C377 C 0.10294 0.00714 0.22958 0.0
C378 C 0.12665 0.02528 0.19919 0.0
C379 C 0.14982 0.06072 0.21684 0.0
C380 C 0.15012 0.07843 0.26497 0.0
C381 C 0.12724 0.06091 0.29582 0.0
H382 H 0.90841 0.9877 0.41946 0.0
C383 C 0.91612 0.94178 0.41342 0.0
H384 H 0.93202 0.87885 0.3621 0.0
H385 H 0.87434 0.02586 0.1878 0.0
H386 H 0.83592 0.95031 0.1987 0.0
H387 H 0.83728 0.88079 0.26829 0.0
H388 H 0.87682 0.88724 0.32787 0.0
C389 C 0.92417 0.92447 0.36892 0.0
C390 C 0.92313 0.96718 0.32771 0.0
C391 C 0.90053 0.96131 0.29242 0.0
C392 C 0.90033 0.99996 0.25148 0.0
C393 C 0.87637 0.99576 0.21837 0.0
C394 C 0.85399 0.953 0.22448 0.0
C395 C 0.85472 0.91394 0.26371 0.0
C396 C 0.87759 0.918 0.29753 0.0
H397 H 0.92894 0.99988 0.15507 0.0
C398 C 0.92964 0.0489 0.15653 0.0
H399 H 0.92735 0.126 0.20105 0.0
H400 H 0.96826 0.99384 0.3911 0.0
H401 H 0.00606 0.07038 0.38107 0.0
H402 H 0.00777 0.13297 0.30751 0.0
H403 H 0.97082 0.12109 0.24452 0.0
C404 C 0.92608 0.07716 0.19902 0.0
C405 C 0.92368 0.04225 0.24476 0.0
C406 C 0.94568 0.04964 0.28105 0.0
C407 C 0.94516 0.01257 0.32293 0.0
C408 C 0.96733 0.02104 0.35873 0.0
C409 C 0.98935 0.06463 0.3533 0.0
C410 C 0.9903 0.09984 0.31189 0.0
C411 C 0.96886 0.09255 0.27602 0.0
H412 H 0.93168 0.88719 0.69439 0.0
C413 C 0.94977 0.89779 0.66979 0.0
H414 H 0.98879 0.94865 0.65846 0.0
H415 H 0.95108 0.15243 0.80538 0.0
H416 H 0.95214 0.20638 0.72931 0.0
H417 H 0.96138 0.15252 0.65277 0.0
H418 H 0.96939 0.04446 0.65184 0.0
C419 C 0.97139 0.93593 0.68366 0.0
C420 C 0.9697 0.96875 0.73038 0.0
C421 C 0.96581 0.03232 0.73026 0.0
C422 C 0.96087 0.06353 0.77442 0.0
C423 C 0.95567 0.1266 0.77309 0.0
C424 C 0.95604 0.15815 0.72959 0.0
C425 C 0.96121 0.12783 0.68651 0.0
C426 C 0.96586 0.06566 0.68656 0.0
H427 H 0.99473 0.10839 0.86744 0.0
C428 C 0.97372 0.09942 0.88549 0.0
H429 H 0.93342 0.05057 0.88355 0.0
H430 H 0.98189 0.84881 0.7438 0.0
H431 H 0.98281 0.79531 0.82021 0.0
H432 H 0.973 0.84886 0.89673 0.0
H433 H 0.96294 0.95649 0.89735 0.0
C434 C 0.95378 0.06261 0.86472 0.0
C435 C 0.96042 0.03117 0.81858 0.0
C436 C 0.96574 0.96807 0.81887 0.0
C437 C 0.97074 0.93692 0.77474 0.0
C438 C 0.97709 0.87433 0.77617 0.0
C439 C 0.97785 0.84313 0.81982 0.0
C440 C 0.97237 0.8733 0.8629 0.0
C441 C 0.96652 0.93508 0.8627 0.0
H442 H 0.034 0.91512 0.85921 0.0
C443 C 0.05548 0.90219 0.874 0.0
H444 H 0.10208 0.90615 0.86462 0.0
H445 H 0.04831 0.95539 0.64344 0.0
H446 H 0.03301 0.85052 0.64549 0.0
H447 H 0.03901 0.78982 0.71954 0.0
H448 H 0.06004 0.83381 0.7921 0.0
C449 C 0.08028 0.91594 0.84951 0.0
C450 C 0.07851 0.95082 0.80373 0.0
C451 C 0.0668 0.92385 0.76133 0.0
C452 C 0.0642 0.9583 0.71822 0.0
C453 C 0.05163 0.93084 0.67677 0.0
C454 C 0.04264 0.87071 0.67749 0.0
C455 C 0.04592 0.8366 0.71922 0.0
C456 C 0.05786 0.86257 0.76074 0.0
H457 H 0.10819 0.00741 0.63971 0.0
C458 C 0.09165 0.0429 0.6355 0.0
H459 H 0.05616 0.09019 0.66871 0.0
H460 H 0.10149 0.01629 0.87892 0.0
H461 H 0.11724 0.12094 0.87651 0.0
H462 H 0.11344 0.18015 0.80129 0.0
H463 H 0.09376 0.13509 0.72801 0.0
C464 C 0.07265 0.05446 0.67176 0.0
C465 C 0.07396 0.01916 0.71734 0.0
C466 C 0.08548 0.04617 0.75977 0.0
C467 C 0.08786 0.01189 0.803 0.0
C468 C 0.09937 0.04008 0.84496 0.0
C469 C 0.10846 0.10016 0.84411 0.0
C470 C 0.10631 0.13351 0.80177 0.0
C471 C 0.09498 0.10708 0.75997 0.0
H472 H 0.47261 0.861 0.9687 0.0
C473 C 0.46659 0.85987 0.00671 0.0
H474 H 0.46638 0.90739 0.07289 0.0
H475 H 0.57755 0.05847 0.9835 0.0
H476 H 0.60495 0.96383 0.98556 0.0
H477 H 0.57928 0.86788 0.00286 0.0
H478 H 0.52613 0.86574 0.01764 0.0
C479 C 0.47309 0.90733 0.03519 0.0
C480 C 0.48814 0.96274 0.01711 0.0
C481 C 0.51929 0.96301 0.00878 0.0
C482 C 0.53427 0.01854 0.00013 0.0
C483 C 0.5653 0.01765 0.99143 0.0
C484 C 0.58123 0.96368 0.99228 0.0
C485 C 0.56676 0.90965 0.00193 0.0
C486 C 0.53618 0.90904 0.01025 0.0
H487 H 0.55104 0.11675 0.07159 0.0
C488 C 0.54972 0.14844 0.04164 0.0
H489 H 0.53138 0.16418 0.97238 0.0
H490 H 0.42799 0.97701 0.02563 0.0
H491 H 0.40062 0.07156 0.02214 0.0
H492 H 0.42674 0.16793 0.00852 0.0
H493 H 0.48037 0.17044 0.99821 0.0
C494 C 0.53442 0.13249 0.00192 0.0
C495 C 0.51825 0.07371 0.00092 0.0
C496 C 0.48687 0.07294 0.0058 0.0
C497 C 0.47183 0.01741 0.01404 0.0
C498 C 0.44052 0.01804 0.0198 0.0
C499 C 0.42455 0.07193 0.01772 0.0
C500 C 0.43926 0.12619 0.01001 0.0
C501 C 0.47005 0.12699 0.00419 0.0
H502 H 0.52836 0.85876 0.54913 0.0
C503 C 0.53598 0.86036 0.51189 0.0
H504 H 0.5395 0.91322 0.44871 0.0
H505 H 0.42669 0.05925 0.54268 0.0
H506 H 0.39926 0.96506 0.53678 0.0
H507 H 0.42483 0.87033 0.51489 0.0
H508 H 0.47786 0.8688 0.49964 0.0
C509 C 0.53143 0.91066 0.48564 0.0
C510 C 0.51612 0.96526 0.50514 0.0
C511 C 0.48491 0.9652 0.51315 0.0
C512 C 0.46989 0.02024 0.52384 0.0
C513 C 0.4389 0.01893 0.53285 0.0
C514 C 0.42296 0.96521 0.52987 0.0
C515 C 0.43738 0.91185 0.51768 0.0
C516 C 0.46795 0.91159 0.50922 0.0
H517 H 0.45075 0.11486 0.4556 0.0
C518 C 0.45302 0.14828 0.48418 0.0
H519 H 0.47347 0.16772 0.55116 0.0
H520 H 0.57633 0.97971 0.49856 0.0
H521 H 0.60358 0.07391 0.50545 0.0
H522 H 0.57726 0.16971 0.52127 0.0
H523 H 0.52361 0.17196 0.53055 0.0
C524 C 0.46943 0.13427 0.52322 0.0
C525 C 0.48578 0.07548 0.52451 0.0
C526 C 0.5172 0.07485 0.52009 0.0
C527 C 0.53236 0.01969 0.51039 0.0
C528 C 0.5637 0.02048 0.50534 0.0
C529 C 0.57961 0.07417 0.50936 0.0
C530 C 0.5648 0.1281 0.5183 0.0
C531 C 0.53397 0.12875 0.52352 0.0
H532 H 0.03792 0.6295 0.9533 0.0
C533 C 0.04375 0.62603 0.9913 0.0
H534 H 0.04405 0.57084 0.0535 0.0
H535 H 0.93232 0.42656 0.96797 0.0
H536 H 0.90492 0.52135 0.97201 0.0
H537 H 0.93113 0.6174 0.98688 0.0
H538 H 0.98472 0.61956 0.99706 0.0
C539 C 0.03765 0.57516 0.01579 0.0
C540 C 0.02254 0.52219 0.99405 0.0
C541 C 0.99122 0.52225 0.98797 0.0
C542 C 0.97597 0.4668 0.9808 0.0
C543 C 0.94472 0.46755 0.97474 0.0
C544 C 0.92883 0.52153 0.97674 0.0
C545 C 0.9436 0.57562 0.98502 0.0
C546 C 0.97442 0.57624 0.99078 0.0
H547 H 0.96098 0.38243 0.0579 0.0
C548 C 0.96217 0.34523 0.03229 0.0
H549 H 0.97874 0.31666 0.96452 0.0
H550 H 0.08288 0.5088 0.99414 0.0
H551 H 0.11024 0.41442 0.98646 0.0
H552 H 0.08369 0.3179 0.97576 0.0
H553 H 0.02972 0.31504 0.97252 0.0
C554 C 0.97606 0.35374 0.98984 0.0
C555 C 0.99197 0.41165 0.98118 0.0
C556 C 0.02348 0.41243 0.98138 0.0
C557 C 0.03878 0.46791 0.98796 0.0
C558 C 0.07025 0.46758 0.98972 0.0
C559 C 0.08617 0.41387 0.9852 0.0
C560 C 0.07122 0.35953 0.97914 0.0
C561 C 0.04023 0.35849 0.97741 0.0
H562 H 0.03098 0.34377 0.57202 0.0
C563 C 0.03719 0.34818 0.53424 0.0
H564 H 0.03768 0.40489 0.47291 0.0
H565 H 0.9241 0.54056 0.5662 0.0
H566 H 0.89789 0.44509 0.55805 0.0
H567 H 0.92508 0.35178 0.53729 0.0
H568 H 0.97847 0.35298 0.5253 0.0
C569 C 0.03107 0.39961 0.51043 0.0
C570 C 0.01525 0.45152 0.53278 0.0
C571 C 0.98397 0.44962 0.53946 0.0
C572 C 0.96811 0.50367 0.54987 0.0
C573 C 0.93696 0.50088 0.5569 0.0
C574 C 0.92173 0.44644 0.55258 0.0
C575 C 0.93705 0.39389 0.541 0.0
C576 C 0.96778 0.39521 0.53431 0.0
H577 H 0.95062 0.59731 0.4795 0.0
C578 C 0.95165 0.63076 0.50825 0.0
H579 H 0.96921 0.65093 0.57728 0.0
H580 H 0.07538 0.46832 0.5304 0.0
H581 H 0.10153 0.56343 0.54097 0.0
H582 H 0.07387 0.65761 0.55708 0.0
H583 H 0.01998 0.65736 0.56289 0.0
C584 C 0.96653 0.61736 0.549 0.0
C585 C 0.98339 0.55951 0.55201 0.0
C586 C 0.01489 0.56039 0.55004 0.0
C587 C 0.03083 0.50625 0.54032 0.0
C588 C 0.06224 0.50842 0.5372 0.0
C589 C 0.07749 0.56259 0.54334 0.0
C590 C 0.06192 0.61561 0.55246 0.0
C591 C 0.03098 0.61485 0.55566 0.0
loop_
_geom_bond_atom_site_label_1
_geom_bond_atom_site_label_2
_geom_bond_distance
_geom_bond_site_symmetry_2
_ccdc_geom_bond_type
Mg0 O1 2.028 . S
Mg0 O7 1.986 . S
Mg0 O9 2.114 . S
Mg0 O10 2.251 . S
Mg0 O13 2.010 1_554 S
O1 Mg0 2.028 . S
O1 C4 1.250 . S
O2 Mg3 2.028 . S
O2 C4 1.248 . S
Mg3 O2 2.028 . S
Mg3 O8 2.032 . S
Mg3 O10 2.079 . S
C4 O1 1.250 . S
C4 O2 1.248 . S
C5 O6 1.264 . S
C5 O13 1.249 . S
O6 C5 1.264 . S
O7 Mg0 1.986 . S
O7 C11 1.246 . S
O8 Mg3 2.032 . S
O8 C11 1.259 . S
O9 Mg0 2.114 . S
O9 C12 1.252 . S
O10 Mg0 2.251 . S
O10 Mg3 2.079 . S
O10 C12 1.273 . S
C11 O7 1.246 . S
C11 O8 1.259 . S
C12 O9 1.252 . S
C12 O10 1.273 . S
O13 Mg0 2.010 1_556 S
O13 C5 1.249 . S
Mg14 O15 2.028 . S
Mg14 O21 1.986 . S
Mg14 O23 2.114 . S
Mg14 O24 2.251 . S
Mg14 O27 2.010 1_554 S
O15 Mg14 2.028 . S
O15 C18 1.250 . S
O16 Mg17 2.028 . S
O16 C18 1.248 . S
Mg17 O16 2.028 . S
Mg17 O22 2.032 . S
Mg17 O24 2.079 . S
C18 O15 1.250 . S
C18 O16 1.248 . S
C19 O20 1.264 . S
C19 O27 1.249 . S
O20 C19 1.264 . S
O21 Mg14 1.986 . S
O21 C25 1.246 . S
O22 Mg17 2.032 . S
O22 C25 1.259 . S
O23 Mg14 2.114 . S
O23 C26 1.252 . S
O24 Mg14 2.251 . S
O24 Mg17 2.079 . S
O24 C26 1.273 . S
C25 O21 1.246 . S
C25 O22 1.259 . S
C26 O23 1.252 . S
C26 O24 1.273 . S
O27 Mg14 2.010 1_556 S
O27 C19 1.249 . S
Mg28 O29 2.028 . S
Mg28 O35 1.986 . S
Mg28 O37 2.114 . S
Mg28 O38 2.251 . S
Mg28 O41 2.010 . S
O29 Mg28 2.028 . S
O29 C32 1.250 . S
O30 Mg31 2.028 . S
O30 C32 1.248 . S
Mg31 O30 2.028 . S
Mg31 O36 2.032 . S
Mg31 O38 2.079 . S
C32 O29 1.250 . S
C32 O30 1.248 . S
C33 O34 1.264 . S
C33 O41 1.249 . S
O34 C33 1.264 . S
O35 Mg28 1.986 . S
O35 C39 1.246 . S
O36 Mg31 2.032 . S
O36 C39 1.259 . S
O37 Mg28 2.114 . S
O37 C40 1.252 . S
O38 Mg28 2.251 . S
O38 Mg31 2.079 . S
O38 C40 1.273 . S
C39 O35 1.246 . S
C39 O36 1.259 . S
C40 O37 1.252 . S
C40 O38 1.273 . S
O41 Mg28 2.010 . S
O41 C33 1.249 . S
Mg42 O43 2.028 . S
Mg42 O49 1.986 . S
Mg42 O51 2.114 . S
Mg42 O52 2.251 . S
Mg42 O55 2.010 . S
O43 Mg42 2.028 . S
O43 C46 1.250 . S
O44 Mg45 2.028 . S
O44 C46 1.248 . S
Mg45 O44 2.028 . S
Mg45 O50 2.032 . S
Mg45 O52 2.079 . S
C46 O43 1.250 . S
C46 O44 1.248 . S
C47 O48 1.264 . S
C47 O55 1.249 . S
O48 C47 1.264 . S
O49 Mg42 1.986 . S
O49 C53 1.246 . S
O50 Mg45 2.032 . S
O50 C53 1.259 . S
O51 Mg42 2.114 . S
O51 C54 1.252 . S
O52 Mg42 2.251 . S
O52 Mg45 2.079 . S
O52 C54 1.273 . S
C53 O49 1.246 . S
C53 O50 1.259 . S
C54 O51 1.252 . S
C54 O52 1.273 . S
O55 Mg42 2.010 . S
O55 C47 1.249 . S
Mg56 O57 2.028 . S
Mg56 O63 1.986 . S
Mg56 O65 2.114 . S
Mg56 O66 2.251 . S
Mg56 O69 2.010 1_554 S
O57 Mg56 2.028 . S
O57 C60 1.250 . S
O58 Mg59 2.028 . S
O58 C60 1.248 . S
Mg59 O58 2.028 . S
Mg59 O64 2.032 . S
Mg59 O66 2.079 . S
C60 O57 1.250 . S
C60 O58 1.248 . S
C61 O62 1.264 . S
C61 O69 1.249 . S
O62 C61 1.264 . S
O63 Mg56 1.986 . S
O63 C67 1.246 . S
O64 Mg59 2.032 . S
O64 C67 1.259 . S
O65 Mg56 2.114 . S
O65 C68 1.252 . S
O66 Mg56 2.251 . S
O66 Mg59 2.079 . S
O66 C68 1.273 . S
C67 O63 1.246 . S
C67 O64 1.259 . S
C68 O65 1.252 . S
C68 O66 1.273 . S
O69 Mg56 2.010 1_556 S
O69 C61 1.249 . S
Mg70 O71 2.028 . S
Mg70 O77 1.986 . S
Mg70 O79 2.114 . S
Mg70 O80 2.251 . S
Mg70 O83 2.010 1_554 S
O71 Mg70 2.028 . S
O71 C74 1.250 . S
O72 Mg73 2.028 . S
O72 C74 1.248 . S
Mg73 O72 2.028 . S
Mg73 O78 2.032 . S
Mg73 O80 2.079 . S
C74 O71 1.250 . S
C74 O72 1.248 . S
C75 O76 1.264 . S
C75 O83 1.249 . S
O76 C75 1.264 . S
O77 Mg70 1.986 . S
O77 C81 1.246 . S
O78 Mg73 2.032 . S
O78 C81 1.259 . S
O79 Mg70 2.114 . S
O79 C82 1.252 . S
O80 Mg70 2.251 . S
O80 Mg73 2.079 . S
O80 C82 1.273 . S
C81 O77 1.246 . S
C81 O78 1.259 . S
C82 O79 1.252 . S
C82 O80 1.273 . S
O83 Mg70 2.010 1_556 S
O83 C75 1.249 . S
Mg84 O85 2.028 . S
Mg84 O91 1.986 . S
Mg84 O93 2.114 . S
Mg84 O94 2.251 . S
Mg84 O97 2.010 . S
O85 Mg84 2.028 . S
O85 C88 1.250 . S
O86 Mg87 2.028 . S
O86 C88 1.248 . S
Mg87 O86 2.028 . S
Mg87 O92 2.032 . S
Mg87 O94 2.079 . S
C88 O85 1.250 . S
C88 O86 1.248 . S
C89 O90 1.264 . S
C89 O97 1.249 . S
O90 C89 1.264 . S
O91 Mg84 1.986 . S
O91 C95 1.246 . S
O92 Mg87 2.032 . S
O92 C95 1.259 . S
O93 Mg84 2.114 . S
O93 C96 1.252 . S
O94 Mg84 2.251 . S
O94 Mg87 2.079 . S
O94 C96 1.273 . S
C95 O91 1.246 . S
C95 O92 1.259 . S
C96 O93 1.252 . S
C96 O94 1.273 . S
O97 Mg84 2.010 . S
O97 C89 1.249 . S
Mg98 O99 2.028 . S
Mg98 O105 1.986 . S
Mg98 O107 2.114 . S
Mg98 O108 2.251 . S
Mg98 O111 2.010 . S
O99 Mg98 2.028 . S
O99 C102 1.250 . S
O100 Mg101 2.028 . S
O100 C102 1.248 . S
Mg101 O100 2.028 . S
Mg101 O106 2.032 . S
Mg101 O108 2.079 . S
C102 O99 1.250 . S
C102 O100 1.248 . S
C103 O104 1.264 . S
C103 O111 1.249 . S
O104 C103 1.264 . S
O105 Mg98 1.986 . S
O105 C109 1.246 . S
O106 Mg101 2.032 . S
O106 C109 1.259 . S
O107 Mg98 2.114 . S
O107 C110 1.252 . S
O108 Mg98 2.251 . S
O108 Mg101 2.079 . S
O108 C110 1.273 . S
C109 O105 1.246 . S
C109 O106 1.259 . S
C110 O107 1.252 . S
C110 O108 1.273 . S
O111 Mg98 2.010 . S
O111 C103 1.249 . S
H112 C113 0.951 . S
C113 H112 0.951 . S
C113 C119 1.265 . S
H114 C119 0.950 . S
H115 C123 0.949 . S
H116 C124 0.950 . S
H117 C125 0.951 . S
H118 C126 0.951 . S
C119 C113 1.265 . S
C119 H114 0.950 . S
C119 C120 1.478 . S
C120 C119 1.478 . S
C120 C121 1.397 1_554 S
C120 C137 1.394 . S
C121 C120 1.397 1_556 S
C121 C122 1.438 . S
C121 C126 1.429 . S
C122 C121 1.438 . S
C122 C123 1.428 . S
C122 C135 1.394 1_556 S
C123 H115 0.949 . S
C123 C122 1.428 . S
C123 C124 1.345 . S
C124 H116 0.950 . S
C124 C123 1.345 . S
C124 C125 1.424 . S
C125 H117 0.951 . S
C125 C124 1.424 . S
C125 C126 1.347 . S
C126 H118 0.951 . S
C126 C121 1.429 . S
C126 C125 1.347 . S
H127 C128 0.951 . S
C128 H127 0.951 . S
C128 C134 1.265 . S
H129 C134 0.950 . S
H130 C138 0.949 . S
H131 C139 0.950 . S
H132 C140 0.951 . S
H133 C141 0.951 . S
C134 C128 1.265 . S
C134 H129 0.950 . S
C134 C135 1.478 . S
C135 C122 1.394 1_554 S
C135 C134 1.478 . S
C135 C136 1.397 . S
C136 C135 1.397 . S
C136 C137 1.438 . S
C136 C141 1.429 . S
C137 C120 1.394 . S
C137 C136 1.438 . S
C137 C138 1.428 . S
C138 H130 0.949 . S
C138 C137 1.428 . S
C138 C139 1.345 . S
C139 H131 0.950 . S
C139 C138 1.345 . S
C139 C140 1.424 . S
C140 H132 0.951 . S
C140 C139 1.424 . S
C140 C141 1.347 . S
C141 H133 0.951 . S
C141 C136 1.429 . S
C141 C140 1.347 . S
H142 C143 0.951 . S
C143 H142 0.951 . S
C143 C149 1.265 . S
H144 C149 0.950 . S
H145 C153 0.949 . S
H146 C154 0.950 . S
H147 C155 0.951 . S
H148 C156 0.951 . S
C149 C143 1.265 . S
C149 H144 0.950 . S
C149 C150 1.478 . S
C150 C149 1.478 . S
C150 C151 1.397 . S
C150 C167 1.394 1_554 S
C151 C150 1.397 . S
C151 C152 1.438 . S
C151 C156 1.429 . S
C152 C151 1.438 . S
C152 C153 1.428 . S
C152 C165 1.394 . S
C153 H145 0.949 . S
C153 C152 1.428 . S
C153 C154 1.345 . S
C154 H146 0.950 . S
C154 C153 1.345 . S
C154 C155 1.424 . S
C155 H147 0.951 . S
C155 C154 1.424 . S
C155 C156 1.347 . S
C156 H148 0.951 . S
C156 C151 1.429 . S
C156 C155 1.347 . S
H157 C158 0.951 . S
C158 H157 0.951 . S
C158 C164 1.265 . S
H159 C164 0.950 . S
H160 C168 0.949 . S
H161 C169 0.950 . S
H162 C170 0.951 . S
H163 C171 0.951 . S
C164 C158 1.265 . S
C164 H159 0.950 . S
C164 C165 1.478 . S
C165 C152 1.394 . S
C165 C164 1.478 . S
C165 C166 1.397 1_554 S
C166 C165 1.397 1_556 S
C166 C167 1.438 . S
C166 C171 1.429 . S
C167 C150 1.394 1_556 S
C167 C166 1.438 . S
C167 C168 1.428 . S
C168 H160 0.949 . S
C168 C167 1.428 . S
C168 C169 1.345 . S
C169 H161 0.950 . S
C169 C168 1.345 . S
C169 C170 1.424 . S
C170 H162 0.951 . S
C170 C169 1.424 . S
C170 C171 1.347 . S
C171 H163 0.951 . S
C171 C166 1.429 . S
C171 C170 1.347 . S
H172 C173 0.951 . S
C173 H172 0.951 . S
C173 C179 1.265 . S
H174 C179 0.950 . S
H175 C183 0.949 . S
H176 C184 0.950 . S
H177 C185 0.951 . S
H178 C186 0.951 . S
C179 C173 1.265 . S
C179 H174 0.950 . S
C179 C180 1.478 . S
C180 C179 1.478 . S
C180 C181 1.397 . S
C180 C197 1.394 . S
C181 C180 1.397 . S
C181 C182 1.438 . S
C181 C186 1.429 . S
C182 C181 1.438 . S
C182 C183 1.428 . S
C182 C195 1.394 . S
C183 H175 0.949 . S
C183 C182 1.428 . S
C183 C184 1.345 . S
C184 H176 0.950 . S
C184 C183 1.345 . S
C184 C185 1.424 . S
C185 H177 0.951 . S
C185 C184 1.424 . S
C185 C186 1.347 . S
C186 H178 0.951 . S
C186 C181 1.429 . S
C186 C185 1.347 . S
H187 C188 0.951 . S
C188 H187 0.951 . S
C188 C194 1.265 . S
H189 C194 0.950 . S
H190 C198 0.949 . S
H191 C199 0.950 . S
H192 C200 0.951 . S
H193 C201 0.951 . S
C194 C188 1.265 . S
C194 H189 0.950 . S
C194 C195 1.478 . S
C195 C182 1.394 . S
C195 C194 1.478 . S
C195 C196 1.397 . S
C196 C195 1.397 . S
C196 C197 1.438 . S
C196 C201 1.429 . S
C197 C180 1.394 . S
C197 C196 1.438 . S
C197 C198 1.428 . S
C198 H190 0.949 . S
C198 C197 1.428 . S
C198 C199 1.345 . S
C199 H191 0.950 . S
C199 C198 1.345 . S
C199 C200 1.424 . S
C200 H192 0.951 . S
C200 C199 1.424 . S
C200 C201 1.347 . S
C201 H193 0.951 . S
C201 C196 1.429 . S
C201 C200 1.347 . S
H202 C203 0.951 . S
C203 H202 0.951 . S
C203 C209 1.265 . S
H204 C209 0.950 . S
H205 C213 0.949 . S
H206 C214 0.950 . S
H207 C215 0.951 . S
H208 C216 0.951 . S
C209 C203 1.265 . S
C209 H204 0.950 . S
C209 C210 1.478 . S
C210 C209 1.478 . S
C210 C211 1.397 . S
C210 C227 1.394 . S
C211 C210 1.397 . S
C211 C212 1.438 . S
C211 C216 1.429 . S
C212 C211 1.438 . S
C212 C213 1.428 . S
C212 C225 1.394 . S
C213 H205 0.949 . S
C213 C212 1.428 . S
C213 C214 1.345 . S
C214 H206 0.950 . S
C214 C213 1.345 . S
C214 C215 1.424 . S
C215 H207 0.951 . S
C215 C214 1.424 . S
C215 C216 1.347 . S
C216 H208 0.951 . S
C216 C211 1.429 . S
C216 C215 1.347 . S
H217 C218 0.951 . S
C218 H217 0.951 . S
C218 C224 1.265 . S
H219 C224 0.950 . S
H220 C228 0.949 . S
H221 C229 0.950 . S
H222 C230 0.951 . S
H223 C231 0.951 . S
C224 C218 1.265 . S
C224 H219 0.950 . S
C224 C225 1.478 . S
C225 C212 1.394 . S
C225 C224 1.478 . S
C225 C226 1.397 . S
C226 C225 1.397 . S
C226 C227 1.438 . S
C226 C231 1.429 . S
C227 C210 1.394 . S
C227 C226 1.438 . S
C227 C228 1.428 . S
C228 H220 0.949 . S
C228 C227 1.428 . S
C228 C229 1.345 . S
C229 H221 0.950 . S
C229 C228 1.345 . S
C229 C230 1.424 . S
C230 H222 0.951 . S
C230 C229 1.424 . S
C230 C231 1.347 . S
C231 H223 0.951 . S
C231 C226 1.429 . S
C231 C230 1.347 . S
H232 C233 0.951 . S
C233 H232 0.951 . S
C233 C239 1.265 . S
H234 C239 0.950 . S
H235 C243 0.949 . S
H236 C244 0.950 . S
H237 C245 0.951 . S
H238 C246 0.951 . S
C239 C233 1.265 . S
C239 H234 0.950 . S
C239 C240 1.478 . S
C240 C239 1.478 . S
C240 C241 1.397 . S
C240 C257 1.394 . S
C241 C240 1.397 . S
C241 C242 1.438 . S
C241 C246 1.429 . S
C242 C241 1.438 . S
C242 C243 1.428 . S
C242 C255 1.394 . S
C243 H235 0.949 . S
C243 C242 1.428 . S
C243 C244 1.345 . S
C244 H236 0.950 . S
C244 C243 1.345 . S
C244 C245 1.424 . S
C245 H237 0.951 . S
C245 C244 1.424 . S
C245 C246 1.347 . S
C246 H238 0.951 . S
C246 C241 1.429 . S
C246 C245 1.347 . S
H247 C248 0.951 . S
C248 H247 0.951 . S
C248 C254 1.265 . S
H249 C254 0.950 . S
H250 C258 0.949 . S
H251 C259 0.950 . S
H252 C260 0.951 . S
H253 C261 0.951 . S
C254 C248 1.265 . S
C254 H249 0.950 . S
C254 C255 1.478 . S
C255 C242 1.394 . S
C255 C254 1.478 . S
C255 C256 1.397 . S
C256 C255 1.397 . S
C256 C257 1.438 . S
C256 C261 1.429 . S
C257 C240 1.394 . S
C257 C256 1.438 . S
C257 C258 1.428 . S
C258 H250 0.949 . S
C258 C257 1.428 . S
C258 C259 1.345 . S
C259 H251 0.950 . S
C259 C258 1.345 . S
C259 C260 1.424 . S
C260 H252 0.951 . S
C260 C259 1.424 . S
C260 C261 1.347 . S
C261 H253 0.951 . S
C261 C256 1.429 . S
C261 C260 1.347 . S
H262 C263 0.951 . S
C263 H262 0.951 . S
C263 C269 1.265 . S
H264 C269 0.950 . S
H265 C273 0.949 . S
H266 C274 0.950 . S
H267 C275 0.951 . S
H268 C276 0.951 . S
C269 C263 1.265 . S
C269 H264 0.950 . S
C269 C270 1.478 . S
C270 C269 1.478 . S
C270 C271 1.397 . S
C270 C287 1.394 . S
C271 C270 1.397 . S
C271 C272 1.438 . S
C271 C276 1.429 . S
C272 C271 1.438 . S
C272 C273 1.428 . S
C272 C285 1.394 . S
C273 H265 0.949 . S
C273 C272 1.428 . S
C273 C274 1.345 . S
C274 H266 0.950 . S
C274 C273 1.345 . S
C274 C275 1.424 . S
C275 H267 0.951 . S
C275 C274 1.424 . S
C275 C276 1.347 . S
C276 H268 0.951 . S
C276 C271 1.429 . S
C276 C275 1.347 . S
H277 C278 0.951 . S
C278 H277 0.951 . S
C278 C284 1.265 . S
H279 C284 0.950 . S
H280 C288 0.949 . S
H281 C289 0.950 . S
H282 C290 0.951 . S
H283 C291 0.951 . S
C284 C278 1.265 . S
C284 H279 0.950 . S
C284 C285 1.478 . S
C285 C272 1.394 . S
C285 C284 1.478 . S
C285 C286 1.397 . S
C286 C285 1.397 . S
C286 C287 1.438 . S
C286 C291 1.429 . S
C287 C270 1.394 . S
C287 C286 1.438 . S
C287 C288 1.428 . S
C288 H280 0.949 . S
C288 C287 1.428 . S
C288 C289 1.345 . S
C289 H281 0.950 . S
C289 C288 1.345 . S
C289 C290 1.424 . S
C290 H282 0.951 . S
C290 C289 1.424 . S
C290 C291 1.347 . S
C291 H283 0.951 . S
C291 C286 1.429 . S
C291 C290 1.347 . S
H292 C293 0.951 . S
C293 H292 0.951 . S
C293 C299 1.265 . S
H294 C299 0.950 . S
H295 C303 0.949 . S
H296 C304 0.950 . S
H297 C305 0.951 . S
H298 C306 0.951 . S
C299 C293 1.265 . S
C299 H294 0.950 . S
C299 C300 1.478 . S
C300 C299 1.478 . S
C300 C301 1.397 . S
C300 C317 1.394 . S
C301 C300 1.397 . S
C301 C302 1.438 . S
C301 C306 1.429 . S
C302 C301 1.438 . S
C302 C303 1.428 . S
C302 C315 1.394 . S
C303 H295 0.949 . S
C303 C302 1.428 . S
C303 C304 1.345 . S
C304 H296 0.950 . S
C304 C303 1.345 . S
C304 C305 1.424 . S
C305 H297 0.951 . S
C305 C304 1.424 . S
C305 C306 1.347 . S
C306 H298 0.951 . S
C306 C301 1.429 . S
C306 C305 1.347 . S
H307 C308 0.951 . S
C308 H307 0.951 . S
C308 C314 1.265 . S
H309 C314 0.950 . S
H310 C318 0.949 . S
H311 C319 0.950 . S
H312 C320 0.951 . S
H313 C321 0.951 . S
C314 C308 1.265 . S
C314 H309 0.950 . S
C314 C315 1.478 . S
C315 C302 1.394 . S
C315 C314 1.478 . S
C315 C316 1.397 . S
C316 C315 1.397 . S
C316 C317 1.438 . S
C316 C321 1.429 . S
C317 C300 1.394 . S
C317 C316 1.438 . S
C317 C318 1.428 . S
C318 H310 0.949 . S
C318 C317 1.428 . S
C318 C319 1.345 . S
C319 H311 0.950 . S
C319 C318 1.345 . S
C319 C320 1.424 . S
C320 H312 0.951 . S
C320 C319 1.424 . S
C320 C321 1.347 . S
C321 H313 0.951 . S
C321 C316 1.429 . S
C321 C320 1.347 . S
H322 C323 0.951 . S
C323 H322 0.951 . S
C323 C329 1.265 . S
H324 C329 0.950 . S
H325 C333 0.949 . S
H326 C334 0.950 . S
H327 C335 0.951 . S
H328 C336 0.951 . S
C329 C323 1.265 . S
C329 H324 0.950 . S
C329 C330 1.478 . S
C330 C329 1.478 . S
C330 C331 1.397 . S
C330 C347 1.394 . S
C331 C330 1.397 . S
C331 C332 1.438 . S
C331 C336 1.429 . S
C332 C331 1.438 . S
C332 C333 1.428 . S
C332 C345 1.394 . S
C333 H325 0.949 . S
C333 C332 1.428 . S
C333 C334 1.345 . S
C334 H326 0.950 . S
C334 C333 1.345 . S
C334 C335 1.424 . S
C335 H327 0.951 . S
C335 C334 1.424 . S
C335 C336 1.347 . S
C336 H328 0.951 . S
C336 C331 1.429 . S
C336 C335 1.347 . S
H337 C338 0.951 . S
C338 H337 0.951 . S
C338 C344 1.265 . S
H339 C344 0.950 . S
H340 C348 0.949 . S
H341 C349 0.950 . S
H342 C350 0.951 . S
H343 C351 0.951 . S
C344 C338 1.265 . S
C344 H339 0.950 . S
C344 C345 1.478 . S
C345 C332 1.394 . S
C345 C344 1.478 . S
C345 C346 1.397 . S
C346 C345 1.397 . S
C346 C347 1.438 . S
C346 C351 1.429 . S
C347 C330 1.394 . S
C347 C346 1.438 . S
C347 C348 1.428 . S
C348 H340 0.949 . S
C348 C347 1.428 . S
C348 C349 1.345 . S
C349 H341 0.950 . S
C349 C348 1.345 . S
C349 C350 1.424 . S
C350 H342 0.951 . S
C350 C349 1.424 . S
C350 C351 1.347 . S
C351 H343 0.951 . S
C351 C346 1.429 . S
C351 C350 1.347 . S
H352 C353 0.951 . S
C353 H352 0.951 . S
C353 C359 1.265 . S
H354 C359 0.950 . S
H355 C363 0.949 . S
H356 C364 0.950 1_655 S
H357 C365 0.951 1_655 S
H358 C366 0.951 . S
C359 C353 1.265 . S
C359 H354 0.950 . S
C359 C360 1.478 . S
C360 C359 1.478 . S
C360 C361 1.397 . S
C360 C377 1.394 1_565 S
C361 C360 1.397 . S
C361 C362 1.438 . S
C361 C366 1.429 . S
C362 C361 1.438 . S
C362 C363 1.428 . S
C362 C375 1.394 1_565 S
C363 H355 0.949 . S
C363 C362 1.428 . S
C363 C364 1.345 . S
C364 H356 0.950 1_455 S
C364 C363 1.345 . S
C364 C365 1.424 . S
C365 H357 0.951 1_455 S
C365 C364 1.424 . S
C365 C366 1.347 . S
C366 H358 0.951 . S
C366 C361 1.429 . S
C366 C365 1.347 . S
H367 C368 0.951 . S
C368 H367 0.951 . S
C368 C374 1.265 . S
H369 C374 0.950 . S
H370 C378 0.949 . S
H371 C379 0.950 . S
H372 C380 0.951 . S
H373 C381 0.951 . S
C374 C368 1.265 . S
C374 H369 0.950 . S
C374 C375 1.478 . S
C375 C362 1.394 1_545 S
C375 C374 1.478 . S
C375 C376 1.397 . S
C376 C375 1.397 . S
C376 C377 1.438 . S
C376 C381 1.429 . S
C377 C360 1.394 1_545 S
C377 C376 1.438 . S
C377 C378 1.428 . S
C378 H370 0.949 . S
C378 C377 1.428 . S
C378 C379 1.345 . S
C379 H371 0.950 . S
C379 C378 1.345 . S
C379 C380 1.424 . S
C380 H372 0.951 . S
C380 C379 1.424 . S
C380 C381 1.347 . S
C381 H373 0.951 . S
C381 C376 1.429 . S
C381 C380 1.347 . S
H382 C383 0.951 . S
C383 H382 0.951 . S
C383 C389 1.265 . S
H384 C389 0.950 . S
H385 C393 0.949 . S
H386 C394 0.950 . S
H387 C395 0.951 . S
H388 C396 0.951 . S
C389 C383 1.265 . S
C389 H384 0.950 . S
C389 C390 1.478 . S
C390 C389 1.478 . S
C390 C391 1.397 . S
C390 C407 1.394 1_565 S
C391 C390 1.397 . S
C391 C392 1.438 . S
C391 C396 1.429 . S
C392 C391 1.438 . S
C392 C393 1.428 . S
C392 C405 1.394 1_565 S
C393 H385 0.949 . S
C393 C392 1.428 . S
C393 C394 1.345 . S
C394 H386 0.950 . S
C394 C393 1.345 . S
C394 C395 1.424 . S
C395 H387 0.951 . S
C395 C394 1.424 . S
C395 C396 1.347 . S
C396 H388 0.951 . S
C396 C391 1.429 . S
C396 C395 1.347 . S
H397 C398 0.951 . S
C398 H397 0.951 . S
C398 C404 1.265 . S
H399 C404 0.950 . S
H400 C408 0.949 . S
H401 C409 0.950 . S
H402 C410 0.951 . S
H403 C411 0.951 . S
C404 C398 1.265 . S
C404 H399 0.950 . S
C404 C405 1.478 . S
C405 C392 1.394 1_545 S
C405 C404 1.478 . S
C405 C406 1.397 . S
C406 C405 1.397 . S
C406 C407 1.438 . S
C406 C411 1.429 . S
C407 C390 1.394 1_545 S
C407 C406 1.438 . S
C407 C408 1.428 . S
C408 H400 0.949 . S
C408 C407 1.428 . S
C408 C409 1.345 . S
C409 H401 0.950 . S
C409 C408 1.345 . S
C409 C410 1.424 . S
C410 H402 0.951 . S
C410 C409 1.424 . S
C410 C411 1.347 . S
C411 H403 0.951 . S
C411 C406 1.429 . S
C411 C410 1.347 . S
H412 C413 0.951 . S
C413 H412 0.951 . S
C413 C419 1.265 . S
H414 C419 0.950 . S
H415 C423 0.949 . S
H416 C424 0.950 . S
H417 C425 0.951 . S
H418 C426 0.951 . S
C419 C413 1.265 . S
C419 H414 0.950 . S
C419 C420 1.478 . S
C420 C419 1.478 . S
C420 C421 1.397 1_565 S
C420 C437 1.394 . S
C421 C420 1.397 1_545 S
C421 C422 1.438 . S
C421 C426 1.429 . S
C422 C421 1.438 . S
C422 C423 1.428 . S
C422 C435 1.394 . S
C423 H415 0.949 . S
C423 C422 1.428 . S
C423 C424 1.345 . S
C424 H416 0.950 . S
C424 C423 1.345 . S
C424 C425 1.424 . S
C425 H417 0.951 . S
C425 C424 1.424 . S
C425 C426 1.347 . S
C426 H418 0.951 . S
C426 C421 1.429 . S
C426 C425 1.347 . S
H427 C428 0.951 . S
C428 H427 0.951 . S
C428 C434 1.265 . S
H429 C434 0.950 . S
H430 C438 0.949 . S
H431 C439 0.950 . S
H432 C440 0.951 . S
H433 C441 0.951 . S
C434 C428 1.265 . S
C434 H429 0.950 . S
C434 C435 1.478 . S
C435 C422 1.394 . S
C435 C434 1.478 . S
C435 C436 1.397 1_545 S
C436 C435 1.397 1_565 S
C436 C437 1.438 . S
C436 C441 1.429 . S
C437 C420 1.394 . S
C437 C436 1.438 . S
C437 C438 1.428 . S
C438 H430 0.949 . S
C438 C437 1.428 . S
C438 C439 1.345 . S
C439 H431 0.950 . S
C439 C438 1.345 . S
C439 C440 1.424 . S
C440 H432 0.951 . S
C440 C439 1.424 . S
C440 C441 1.347 . S
C441 H433 0.951 . S
C441 C436 1.429 . S
C441 C440 1.347 . S
H442 C443 0.951 . S
C443 H442 0.951 . S
C443 C449 1.265 . S
H444 C449 0.950 . S
H445 C453 0.939 1_545 S
H446 C454 0.950 1_655 S
H447 C455 0.951 1_655 S
H448 C456 0.951 . S
C449 C443 1.265 . S
C449 H444 0.950 . S
C449 C450 1.478 . S
C450 C449 1.478 . S
C450 C451 1.397 . S
C450 C467 1.399 . S
C451 C450 1.397 . S
C451 C452 1.433 1_565 S
C451 C456 1.429 . S
C452 C451 1.433 1_545 S
C452 C453 1.427 1_545 S
C452 C465 1.399 . S
C453 H445 0.939 1_565 S
C453 C452 1.427 1_565 S
C453 C454 1.355 . S
C454 H446 0.950 1_455 S
C454 C453 1.355 . S
C454 C455 1.424 . S
C455 H447 0.951 1_455 S
C455 C454 1.424 . S
C455 C456 1.347 . S
C456 H448 0.951 . S
C456 C451 1.429 . S
C456 C455 1.347 . S
H457 C458 0.951 . S
C458 H457 0.951 . S
C458 C464 1.265 . S
H459 C464 0.950 . S
H460 C468 0.939 1_565 S
H461 C469 0.950 . S
H462 C470 0.951 . S
H463 C471 0.951 . S
C464 C458 1.265 . S
C464 H459 0.950 . S
C464 C465 1.478 . S
C465 C452 1.399 . S
C465 C464 1.478 . S
C465 C466 1.397 . S
C466 C465 1.397 . S
C466 C467 1.433 1_545 S
C466 C471 1.429 . S
C467 C450 1.399 . S
C467 C466 1.433 1_565 S
C467 C468 1.427 1_565 S
C468 H460 0.939 1_545 S
C468 C467 1.427 1_545 S
C468 C469 1.355 . S
C469 H461 0.950 . S
C469 C468 1.355 . S
C469 C470 1.424 . S
C470 H462 0.951 . S
C470 C469 1.424 . S
C470 C471 1.347 . S
C471 H463 0.951 . S
C471 C466 1.429 . S
C471 C470 1.347 . S
H472 C473 0.951 . S
C473 H472 0.951 . S
C473 C479 1.265 . S
H474 C479 0.950 . S
H475 C483 0.949 . S
H476 C484 0.950 . S
H477 C485 0.951 . S
H478 C486 0.951 . S
C479 C473 1.265 . S
C479 H474 0.950 . S
C479 C480 1.478 . S
C480 C479 1.478 . S
C480 C481 1.397 1_554 S
C480 C497 1.394 . S
C481 C480 1.397 1_556 S
C481 C482 1.438 1_565 S
C481 C486 1.429 . S
C482 C481 1.438 1_545 S
C482 C483 1.428 . S
C482 C495 1.394 1_556 S
C483 H475 0.949 . S
C483 C482 1.428 . S
C483 C484 1.345 . S
C484 H476 0.950 . S
C484 C483 1.345 . S
C484 C485 1.424 1_545 S
C485 H477 0.951 . S
C485 C484 1.424 1_565 S
C485 C486 1.347 . S
C486 H478 0.951 . S
C486 C481 1.429 . S
C486 C485 1.347 . S
H487 C488 0.951 . S
C488 H487 0.951 . S
C488 C494 1.265 . S
H489 C494 0.950 . S
H490 C498 0.949 . S
H491 C499 0.950 . S
H492 C500 0.951 . S
H493 C501 0.951 . S
C494 C488 1.265 . S
C494 H489 0.950 . S
C494 C495 1.478 . S
C495 C482 1.394 1_554 S
C495 C494 1.478 . S
C495 C496 1.397 . S
C496 C495 1.397 . S
C496 C497 1.438 1_545 S
C496 C501 1.429 . S
C497 C480 1.394 . S
C497 C496 1.438 1_565 S
C497 C498 1.428 . S
C498 H490 0.949 . S
C498 C497 1.428 . S
C498 C499 1.345 . S
C499 H491 0.950 . S
C499 C498 1.345 . S
C499 C500 1.424 1_565 S
C500 H492 0.951 . S
C500 C499 1.424 1_545 S
C500 C501 1.347 . S
C501 H493 0.951 . S
C501 C496 1.429 . S
C501 C500 1.347 . S
H502 C503 0.951 . S
C503 H502 0.951 . S
C503 C509 1.265 . S
H504 C509 0.950 . S
H505 C513 0.949 . S
H506 C514 0.950 . S
H507 C515 0.951 . S
H508 C516 0.951 . S
C509 C503 1.265 . S
C509 H504 0.950 . S
C509 C510 1.478 . S
C510 C509 1.478 . S
C510 C511 1.397 . S
C510 C527 1.394 . S
C511 C510 1.397 . S
C511 C512 1.438 1_565 S
C511 C516 1.429 . S
C512 C511 1.438 1_545 S
C512 C513 1.428 . S
C512 C525 1.394 . S
C513 H505 0.949 . S
C513 C512 1.428 . S
C513 C514 1.345 . S
C514 H506 0.950 . S
C514 C513 1.345 . S
C514 C515 1.424 1_545 S
C515 H507 0.951 . S
C515 C514 1.424 1_565 S
C515 C516 1.347 . S
C516 H508 0.951 . S
C516 C511 1.429 . S
C516 C515 1.347 . S
H517 C518 0.951 . S
C518 H517 0.951 . S
C518 C524 1.265 . S
H519 C524 0.950 . S
H520 C528 0.949 . S
H521 C529 0.950 . S
H522 C530 0.951 . S
H523 C531 0.951 . S
C524 C518 1.265 . S
C524 H519 0.950 . S
C524 C525 1.478 . S
C525 C512 1.394 . S
C525 C524 1.478 . S
C525 C526 1.397 . S
C526 C525 1.397 . S
C526 C527 1.438 1_545 S
C526 C531 1.429 . S
C527 C510 1.394 . S
C527 C526 1.438 1_565 S
C527 C528 1.428 . S
C528 H520 0.949 . S
C528 C527 1.428 . S
C528 C529 1.345 . S
C529 H521 0.950 . S
C529 C528 1.345 . S
C529 C530 1.424 1_565 S
C530 H522 0.951 . S
C530 C529 1.424 1_545 S
C530 C531 1.347 . S
C531 H523 0.951 . S
C531 C526 1.429 . S
C531 C530 1.347 . S
H532 C533 0.951 . S
C533 H532 0.951 . S
C533 C539 1.265 . S
H534 C539 0.919 1_655 S
H535 C543 0.949 . S
H536 C544 0.950 . S
H537 C545 0.951 . S
H538 C546 0.951 . S
C539 C533 1.265 . S
C539 H534 0.919 1_455 S
C539 C540 1.478 . S
C540 C539 1.478 . S
C540 C541 1.397 1_454 S
C540 C557 1.394 . S
C541 C540 1.397 1_656 S
C541 C542 1.438 . S
C541 C546 1.429 . S
C542 C541 1.438 . S
C542 C543 1.428 . S
C542 C555 1.394 1_556 S
C543 H535 0.949 . S
C543 C542 1.428 . S
C543 C544 1.345 . S
C544 H536 0.950 . S
C544 C543 1.345 . S
C544 C545 1.424 . S
C545 H537 0.951 . S
C545 C544 1.424 . S
C545 C546 1.347 . S
C546 H538 0.951 . S
C546 C541 1.429 . S
C546 C545 1.347 . S
H547 C548 0.951 . S
C548 H547 0.951 . S
C548 C554 1.265 . S
H549 C554 0.919 1_455 S
H550 C558 0.949 . S
H551 C559 0.950 . S
H552 C560 0.951 . S
H553 C561 0.951 . S
C554 C548 1.265 . S
C554 H549 0.919 1_655 S
C554 C555 1.478 . S
C555 C542 1.394 1_554 S
C555 C554 1.478 . S
C555 C556 1.397 1_655 S
C556 C555 1.397 1_455 S
C556 C557 1.438 . S
C556 C561 1.429 . S
C557 C540 1.394 . S
C557 C556 1.438 . S
C557 C558 1.428 . S
C558 H550 0.949 . S
C558 C557 1.428 . S
C558 C559 1.345 . S
C559 H551 0.950 . S
C559 C558 1.345 . S
C559 C560 1.424 . S
C560 H552 0.951 . S
C560 C559 1.424 . S
C560 C561 1.347 . S
C561 H553 0.951 . S
C561 C556 1.429 . S
C561 C560 1.347 . S
H562 C563 0.951 . S
C563 H562 0.951 . S
C563 C569 1.265 . S
H564 C569 0.920 1_655 S
H565 C573 0.949 . S
H566 C574 0.950 . S
H567 C575 0.951 . S
H568 C576 0.951 . S
C569 C563 1.265 . S
C569 H564 0.920 1_455 S
C569 C570 1.478 . S
C570 C569 1.478 . S
C570 C571 1.397 1_455 S
C570 C587 1.394 . S
C571 C570 1.397 1_655 S
C571 C572 1.438 . S
C571 C576 1.429 . S
C572 C571 1.438 . S
C572 C573 1.428 . S
C572 C585 1.394 . S
C573 H565 0.949 . S
C573 C572 1.428 . S
C573 C574 1.345 . S
C574 H566 0.950 . S
C574 C573 1.345 . S
C574 C575 1.424 . S
C575 H567 0.951 . S
C575 C574 1.424 . S
C575 C576 1.347 . S
C576 H568 0.951 . S
C576 C571 1.429 . S
C576 C575 1.347 . S
H577 C578 0.951 . S
C578 H577 0.951 . S
C578 C584 1.265 . S
H579 C584 0.920 1_455 S
H580 C588 0.949 . S
H581 C589 0.950 . S
H582 C590 0.951 . S
H583 C591 0.951 . S
C584 C578 1.265 . S
C584 H579 0.920 1_655 S
C584 C585 1.478 . S
C585 C572 1.394 . S
C585 C584 1.478 . S
C585 C586 1.397 1_655 S
C586 C585 1.397 1_455 S
C586 C587 1.438 . S
C586 C591 1.429 . S
C587 C570 1.394 . S
C587 C586 1.438 . S
C587 C588 1.428 . S
C588 H580 0.949 . S
C588 C587 1.428 . S
C588 C589 1.345 . S
C589 H581 0.950 . S
C589 C588 1.345 . S
C589 C590 1.424 . S
C590 H582 0.951 . S
C590 C589 1.424 . S
C590 C591 1.347 . S
C591 H583 0.951 . S
C591 C586 1.429 . S
C591 C590 1.347 . S
C113 C74 1.486 . S
C128 C4 1.481 . S
C143 C60 1.464 . S
C158 C18 1.460 . S
C173 C102 1.486 . S
C188 C32 1.481 . S
C203 C88 1.477 . S
C218 C46 1.490 . S
C233 C12 1.376 . S
C248 C40 1.399 . S
C263 C26 1.397 . S
C278 C54 1.378 . S
C293 C19 1.292 . S
C308 C47 1.156 . S
C323 C5 1.326 . S
C338 C33 1.151 . S
C353 C68 1.378 . S
C368 C96 1.397 . S
C383 C110 1.377 . S
C398 C82 1.397 . S
C413 C103 1.327 . S
C428 C75 1.160 . S
C443 C61 1.212 . S
C458 C89 1.224 . S
C473 C25 1.468 . S
C488 C11 1.470 . S
C503 C39 1.475 . S
C518 C53 1.464 . S
C533 C67 1.468 . S
C548 C81 1.469 . S
C563 C95 1.468 . S
C578 C109 1.469 . S
