# Generated by pormake.
# Topology vbe, (5)-cn, num edge types: 1
# Building blocks:
#     Node 0, Type 0, BuildingBlock: BEQFEK_clean_sbu_0, # of connection points: 5
#     Node 1, Type 0, BuildingBlock: BEQFEK_clean_sbu_0, # of connection points: 5
#     Node 2, Type 0, BuildingBlock: BEQFEK_clean_sbu_0, # of connection points: 5
#     Node 3, Type 0, BuildingBlock: BEQFEK_clean_sbu_0, # of connection points: 5
#     Node 4, Type 0, BuildingBlock: BEQFEK_clean_sbu_0, # of connection points: 5
#     Node 5, Type 0, BuildingBlock: BEQFEK_clean_sbu_0, # of connection points: 5
#     Node 6, Type 0, BuildingBlock: BEQFEK_clean_sbu_0, # of connection points: 5
#     Node 7, Type 0, BuildingBlock: BEQFEK_clean_sbu_0, # of connection points: 5
#     Node 8, Type 0, BuildingBlock: BEQFEK_clean_sbu_0, # of connection points: 5
#     Node 9, Type 0, BuildingBlock: BEQFEK_clean_sbu_0, # of connection points: 5
#     Node 10, Type 0, BuildingBlock: BEQFEK_clean_sbu_0, # of connection points: 5
#     Node 11, Type 0, BuildingBlock: BEQFEK_clean_sbu_0, # of connection points: 5
#     Node 12, Type 0, BuildingBlock: BEQFEK_clean_sbu_0, # of connection points: 5
#     Node 13, Type 0, BuildingBlock: BEQFEK_clean_sbu_0, # of connection points: 5
#     Node 14, Type 0, BuildingBlock: BEQFEK_clean_sbu_0, # of connection points: 5
#     Node 15, Type 0, BuildingBlock: BEQFEK_clean_sbu_0, # of connection points: 5
#     Edge 16, Type (0, 0), BuildingBlock: AJUNOK_clean_linker_0, # of connection points: 2
#     Edge 17, Type (0, 0), BuildingBlock: AJUNOK_clean_linker_0, # of connection points: 2
#     Edge 18, Type (0, 0), BuildingBlock: AJUNOK_clean_linker_0, # of connection points: 2
#     Edge 19, Type (0, 0), BuildingBlock: AJUNOK_clean_linker_0, # of connection points: 2
#     Edge 20, Type (0, 0), BuildingBlock: AJUNOK_clean_linker_0, # of connection points: 2
#     Edge 21, Type (0, 0), BuildingBlock: AJUNOK_clean_linker_0, # of connection points: 2
#     Edge 22, Type (0, 0), BuildingBlock: AJUNOK_clean_linker_0, # of connection points: 2
#     Edge 23, Type (0, 0), BuildingBlock: AJUNOK_clean_linker_0, # of connection points: 2
#     Edge 24, Type (0, 0), BuildingBlock: AJUNOK_clean_linker_0, # of connection points: 2
#     Edge 25, Type (0, 0), BuildingBlock: AJUNOK_clean_linker_0, # of connection points: 2
#     Edge 26, Type (0, 0), BuildingBlock: AJUNOK_clean_linker_0, # of connection points: 2
#     Edge 27, Type (0, 0), BuildingBlock: AJUNOK_clean_linker_0, # of connection points: 2
#     Edge 28, Type (0, 0), BuildingBlock: AJUNOK_clean_linker_0, # of connection points: 2
#     Edge 29, Type (0, 0), BuildingBlock: AJUNOK_clean_linker_0, # of connection points: 2
#     Edge 30, Type (0, 0), BuildingBlock: AJUNOK_clean_linker_0, # of connection points: 2
#     Edge 31, Type (0, 0), BuildingBlock: AJUNOK_clean_linker_0, # of connection points: 2
#     Edge 32, Type (0, 0), BuildingBlock: AJUNOK_clean_linker_0, # of connection points: 2
#     Edge 33, Type (0, 0), BuildingBlock: AJUNOK_clean_linker_0, # of connection points: 2
#     Edge 34, Type (0, 0), BuildingBlock: AJUNOK_clean_linker_0, # of connection points: 2
#     Edge 35, Type (0, 0), BuildingBlock: AJUNOK_clean_linker_0, # of connection points: 2
#     Edge 36, Type (0, 0), BuildingBlock: AJUNOK_clean_linker_0, # of connection points: 2
#     Edge 37, Type (0, 0), BuildingBlock: AJUNOK_clean_linker_0, # of connection points: 2
#     Edge 38, Type (0, 0), BuildingBlock: AJUNOK_clean_linker_0, # of connection points: 2
#     Edge 39, Type (0, 0), BuildingBlock: AJUNOK_clean_linker_0, # of connection points: 2
#     Edge 40, Type (0, 0), BuildingBlock: AJUNOK_clean_linker_0, # of connection points: 2
#     Edge 41, Type (0, 0), BuildingBlock: AJUNOK_clean_linker_0, # of connection points: 2
#     Edge 42, Type (0, 0), BuildingBlock: AJUNOK_clean_linker_0, # of connection points: 2
#     Edge 43, Type (0, 0), BuildingBlock: AJUNOK_clean_linker_0, # of connection points: 2
#     Edge 44, Type (0, 0), BuildingBlock: AJUNOK_clean_linker_0, # of connection points: 2
#     Edge 45, Type (0, 0), BuildingBlock: AJUNOK_clean_linker_0, # of connection points: 2
#     Edge 46, Type (0, 0), BuildingBlock: AJUNOK_clean_linker_0, # of connection points: 2
#     Edge 47, Type (0, 0), BuildingBlock: AJUNOK_clean_linker_0, # of connection points: 2
#     Edge 48, Type (0, 0), BuildingBlock: AJUNOK_clean_linker_0, # of connection points: 2
#     Edge 49, Type (0, 0), BuildingBlock: AJUNOK_clean_linker_0, # of connection points: 2
#     Edge 50, Type (0, 0), BuildingBlock: AJUNOK_clean_linker_0, # of connection points: 2
#     Edge 51, Type (0, 0), BuildingBlock: AJUNOK_clean_linker_0, # of connection points: 2
#     Edge 52, Type (0, 0), BuildingBlock: AJUNOK_clean_linker_0, # of connection points: 2
#     Edge 53, Type (0, 0), BuildingBlock: AJUNOK_clean_linker_0, # of connection points: 2
#     Edge 54, Type (0, 0), BuildingBlock: AJUNOK_clean_linker_0, # of connection points: 2
#     Edge 55, Type (0, 0), BuildingBlock: AJUNOK_clean_linker_0, # of connection points: 2
# Relax obj value: 0.332
# Max RMSD: 0.206
# Mean RMSD: 0.206
data_MOF--net-vbe--node1-BEQFEK_clean_sbu_0--edge1-AJUNOK_clean_linker_0
_symmetry_space_group_name_H-M    P1
_symmetry_Int_Tables_number       1
_symmetry_cell_setting            triclinic
loop_
_symmetry_equiv_pos_as_xyz
'x, y, z'
_cell_length_a     33.620096
_cell_length_b     31.061651
_cell_length_c     45.77424
_cell_angle_alpha  89.988747
_cell_angle_beta   90.008056
_cell_angle_gamma 89.840332
loop_
_atom_site_label
_atom_site_type_symbol
_atom_site_fract_x
_atom_site_fract_y
_atom_site_fract_z
_atom_type_partial_charge
Co0 Co 0.10591 0.13167 0.32397 0.0
Co1 Co 0.05677 0.07755 0.36888 0.0
C2 C 0.04654 0.17357 0.36372 0.0
O3 O 0.07395 0.17608 0.34461 0.0
O4 O 0.03684 0.1376 0.37502 0.0
C5 C 0.15944 0.19619 0.30171 0.0
O6 O 0.15783 0.21231 0.32823 0.0
C7 C 0.03122 0.05016 0.42733 0.0
C8 C 0.01343 0.98264 0.41976 0.0
C9 C 0.01783 0.01337 0.44143 0.0
N10 N 0.03545 0.04124 0.39876 0.0
N11 N 0.0244 0.00095 0.39433 0.0
C12 C 0.03874 0.09361 0.44034 0.0
H13 H 0.0203 0.11791 0.42882 0.0
H14 H 0.07037 0.10246 0.43701 0.0
H15 H 0.0313 0.09466 0.46392 0.0
C16 C 0.1725 0.08405 0.35007 0.0
N17 N 0.13393 0.09555 0.34954 0.0
N18 N 0.11413 0.07346 0.36923 0.0
C19 C 0.14016 0.04792 0.38371 0.0
C20 C 0.17815 0.05388 0.37214 0.0
C21 C 0.20153 0.09665 0.32675 0.0
H22 H 0.18645 0.09727 0.30522 0.0
H23 H 0.21283 0.12947 0.3314 0.0
H24 H 0.22699 0.07396 0.32544 0.0
O25 O 0.07009 0.09755 0.29953 0.0
O26 O 0.03389 0.05872 0.33035 0.0
H27 H 0.10934 0.99209 0.39887 0.0
H28 H 0.1552 0.00295 0.41828 0.0
C29 C 0.12877 0.01774 0.40776 0.0
H30 H 0.11186 0.03559 0.42462 0.0
H31 H 0.02509 0.9857 0.37403 0.0
O32 O 0.14105 0.1615 0.29625 0.0
C33 C 0.04275 0.07032 0.30442 0.0
Co34 Co 0.39286 0.87826 0.31905 0.0
Co35 Co 0.44312 0.92313 0.3679 0.0
C36 C 0.45185 0.82964 0.35745 0.0
O37 O 0.42721 0.83318 0.33647 0.0
O38 O 0.46023 0.86174 0.37365 0.0
C39 C 0.34052 0.81337 0.29756 0.0
O40 O 0.34317 0.79868 0.3244 0.0
C41 C 0.47218 0.94926 0.42631 0.0
C42 C 0.48983 0.0167 0.41826 0.0
C43 C 0.48735 0.98572 0.43995 0.0
N44 N 0.46565 0.95855 0.39798 0.0
N45 N 0.47648 0.99885 0.39333 0.0
C46 C 0.4657 0.9056 0.43931 0.0
H47 H 0.48409 0.88177 0.42731 0.0
H48 H 0.43413 0.89616 0.43649 0.0
H49 H 0.47394 0.90438 0.46274 0.0
C50 C 0.32778 0.9249 0.34735 0.0
N51 N 0.36577 0.91142 0.34672 0.0
N52 N 0.38592 0.92983 0.36791 0.0
C53 C 0.3606 0.95476 0.3835 0.0
C54 C 0.32286 0.9528 0.3708 0.0
C55 C 0.29856 0.91578 0.32343 0.0
H56 H 0.31411 0.91444 0.3021 0.0
H57 H 0.28457 0.88402 0.32746 0.0
H58 H 0.27498 0.94074 0.32221 0.0
O59 O 0.42678 0.9152 0.29575 0.0
O60 O 0.46725 0.94256 0.32929 0.0
H61 H 0.39179 0.00668 0.40377 0.0
H62 H 0.34583 0.99215 0.42193 0.0
C63 C 0.37226 0.97955 0.41016 0.0
H64 H 0.38923 0.95834 0.42512 0.0
H65 H 0.4743 0.01435 0.37316 0.0
O66 O 0.35721 0.84883 0.29137 0.0
C67 C 0.45668 0.93791 0.30264 0.0
Co68 Co 0.61277 0.86766 0.17727 0.0
Co69 Co 0.56173 0.92589 0.13604 0.0
C70 C 0.55091 0.82892 0.13952 0.0
O71 O 0.57934 0.82498 0.1576 0.0
O72 O 0.54056 0.86574 0.12971 0.0
C73 C 0.66215 0.79901 0.19773 0.0
O74 O 0.65534 0.78285 0.17169 0.0
C75 C 0.53796 0.95294 0.07759 0.0
C76 C 0.5079 0.0152 0.08533 0.0
C77 C 0.51817 0.98633 0.06347 0.0
N78 N 0.53882 0.96145 0.10635 0.0
N79 N 0.52075 0.99868 0.11089 0.0
C80 C 0.55847 0.915 0.06413 0.0
H81 H 0.58538 0.90652 0.07697 0.0
H82 H 0.56681 0.92166 0.04111 0.0
H83 H 0.53822 0.88687 0.06475 0.0
C84 C 0.67842 0.91196 0.14835 0.0
N85 N 0.63961 0.90239 0.15038 0.0
N86 N 0.61879 0.92935 0.1343 0.0
C87 C 0.64398 0.95821 0.12229 0.0
C88 C 0.68269 0.94829 0.13098 0.0
C89 C 0.71046 0.88834 0.16452 0.0
H90 H 0.70666 0.89339 0.18835 0.0
H91 H 0.70774 0.85337 0.16015 0.0
H92 H 0.74053 0.89914 0.15779 0.0
O93 O 0.57914 0.90334 0.20346 0.0
O94 O 0.54247 0.94557 0.17505 0.0
H95 H 0.60554 0.01302 0.11848 0.0
H96 H 0.65507 0.02144 0.10399 0.0
C97 C 0.63059 0.99785 0.10648 0.0
H98 H 0.61964 0.98866 0.0845 0.0
H99 H 0.51734 0.0129 0.1314 0.0
O100 O 0.64911 0.83642 0.20356 0.0
C101 C 0.55277 0.93252 0.20038 0.0
Co102 Co 0.89163 0.14014 0.17454 0.0
Co103 Co 0.94399 0.07984 0.13571 0.0
C104 C 0.95482 0.17722 0.13764 0.0
O105 O 0.9255 0.18228 0.15481 0.0
O106 O 0.96548 0.13985 0.12903 0.0
C107 C 0.84233 0.20912 0.19566 0.0
O108 O 0.8509 0.22743 0.17057 0.0
C109 C 0.96609 0.0472 0.07798 0.0
C110 C 0.00585 0.99272 0.08864 0.0
C111 C 0.98985 0.01558 0.0654 0.0
N112 N 0.96798 0.04315 0.10718 0.0
N113 N 0.99166 0.01039 0.11343 0.0
C114 C 0.94393 0.08251 0.06276 0.0
H115 H 0.93711 0.10913 0.07812 0.0
H116 H 0.91539 0.06972 0.0543 0.0
H117 H 0.96143 0.09475 0.04396 0.0
C118 C 0.82698 0.09489 0.14547 0.0
N119 N 0.86574 0.10447 0.14777 0.0
N120 N 0.88696 0.07621 0.13309 0.0
C121 C 0.86205 0.04632 0.12195 0.0
C122 C 0.8231 0.0571 0.12958 0.0
C123 C 0.79457 0.11993 0.16021 0.0
H124 H 0.79839 0.15468 0.15543 0.0
H125 H 0.76471 0.10957 0.15268 0.0
H126 H 0.79681 0.11559 0.18421 0.0
O127 O 0.92441 0.10525 0.20178 0.0
O128 O 0.96202 0.06144 0.17522 0.0
H129 H 0.85234 0.97991 0.10951 0.0
H130 H 0.88307 0.01085 0.08512 0.0
C131 C 0.87572 0.005 0.1084 0.0
H132 H 0.90299 0.99329 0.11954 0.0
H133 H 0.99867 1.00054 0.13462 0.0
O134 O 0.85441 0.17101 0.20035 0.0
C135 C 0.95053 0.07563 0.19995 0.0
Co136 Co 0.89479 0.87273 0.68365 0.0
Co137 Co 0.94645 0.92231 0.63778 0.0
C138 C 0.95302 0.82634 0.64495 0.0
O139 O 0.92574 0.82643 0.66422 0.0
O140 O 0.96427 0.86118 0.63286 0.0
C141 C 0.84071 0.80954 0.7053 0.0
O142 O 0.84223 0.79497 0.67839 0.0
C143 C 0.9728 0.94826 0.57861 0.0
C144 C 0.99847 0.01237 0.58729 0.0
C145 C 0.99064 0.98328 0.56512 0.0
N146 N 0.96977 0.95654 0.60742 0.0
N147 N 0.98539 0.99485 0.61242 0.0
C148 C 0.9598 0.90721 0.56438 0.0
H149 H 0.95734 0.88092 0.58056 0.0
H150 H 0.93017 0.91187 0.55421 0.0
H151 H 0.98103 0.89791 0.5469 0.0
C152 C 0.83034 0.92225 0.6563 0.0
N153 N 0.86835 0.90872 0.65711 0.0
N154 N 0.88922 0.92913 0.63716 0.0
C155 C 0.86448 0.95574 0.62235 0.0
C156 C 0.8263 0.95249 0.63412 0.0
C157 C 0.80016 0.91066 0.67904 0.0
H158 H 0.81449 0.9094 0.70083 0.0
H159 H 0.78805 0.87828 0.6741 0.0
H160 H 0.77532 0.93418 0.67989 0.0
O161 O 0.93089 0.90695 0.70771 0.0
O162 O 0.96937 0.94196 0.67626 0.0
H163 H 0.89858 0.00815 0.60535 0.0
H164 H 0.85143 0.99983 0.58686 0.0
C165 C 0.87714 0.9837 0.59743 0.0
H166 H 0.89224 0.9637 0.58082 0.0
H167 H 0.98677 0.00924 0.63299 0.0
O168 O 0.85864 0.84431 0.71139 0.0
C169 C 0.95923 0.93277 0.70241 0.0
Co170 Co 0.60938 0.1252 0.68558 0.0
Co171 Co 0.56095 0.07993 0.63596 0.0
C172 C 0.55069 0.17334 0.64685 0.0
O173 O 0.575 0.17004 0.66806 0.0
O174 O 0.54302 0.14123 0.63046 0.0
C175 C 0.66309 0.18871 0.70767 0.0
O176 O 0.66207 0.20347 0.68077 0.0
C177 C 0.53387 0.05375 0.57701 0.0
C178 C 0.51859 0.98543 0.58428 0.0
C179 C 0.5209 0.01675 0.56283 0.0
N180 N 0.53978 0.04435 0.6054 0.0
N181 N 0.53025 0.00355 0.6096 0.0
C182 C 0.53901 0.09781 0.56433 0.0
H183 H 0.52184 0.12133 0.57751 0.0
H184 H 0.57081 0.10712 0.56555 0.0
H185 H 0.52854 0.09951 0.54139 0.0
C186 C 0.67593 0.08109 0.65758 0.0
N187 N 0.63755 0.09316 0.65797 0.0
N188 N 0.61828 0.07442 0.63648 0.0
C189 C 0.64462 0.05061 0.62096 0.0
C190 C 0.68218 0.05423 0.63374 0.0
C191 C 0.70396 0.08945 0.6824 0.0
H192 H 0.68758 0.08862 0.70341 0.0
H193 H 0.71709 0.12196 0.67981 0.0
H194 H 0.72825 0.06526 0.68331 0.0
O195 O 0.57543 0.0876 0.70833 0.0
O196 O 0.53625 0.05976 0.67418 0.0
H197 H 0.61524 0.99651 0.60196 0.0
H198 H 0.6607 0.01171 0.5835 0.0
C199 C 0.63388 0.02403 0.5949 0.0
H200 H 0.61632 0.0438 0.57941 0.0
H201 H 0.53235 0.98785 0.6297 0.0
O202 O 0.64434 0.15445 0.71371 0.0
C203 C 0.54588 0.06467 0.70101 0.0
Co204 Co 0.39176 0.13449 0.82779 0.0
Co205 Co 0.44397 0.07598 0.868 0.0
C206 C 0.45484 0.173 0.86474 0.0
O207 O 0.42572 0.17715 0.84726 0.0
O208 O 0.46556 0.13604 0.87413 0.0
C209 C 0.3418 0.20286 0.80674 0.0
O210 O 0.34892 0.22047 0.83231 0.0
C211 C 0.46891 0.04729 0.92599 0.0
C212 C 0.49544 0.98348 0.91727 0.0
C213 C 0.48663 0.01216 0.93959 0.0
N214 N 0.4673 0.03969 0.89711 0.0
N215 N 0.48343 0.00158 0.89199 0.0
C216 C 0.45099 0.08615 0.94016 0.0
H217 H 0.42764 0.10031 0.92592 0.0
H218 H 0.43818 0.07776 0.96177 0.0
H219 H 0.47452 0.11065 0.94347 0.0
C220 C 0.32686 0.08922 0.857 0.0
N221 N 0.36555 0.0993 0.85472 0.0
N222 N 0.38685 0.07276 0.87078 0.0
C223 C 0.36204 0.04398 0.88333 0.0
C224 C 0.32308 0.05349 0.87497 0.0
C225 C 0.29457 0.11111 0.84002 0.0
H226 H 0.2973 0.14644 0.84265 0.0
H227 H 0.26462 0.10102 0.84751 0.0
H228 H 0.29801 0.10341 0.81648 0.0
O229 O 0.42445 0.09898 0.80112 0.0
O230 O 0.46197 0.05623 0.82853 0.0
H231 H 0.35162 0.98079 0.90199 0.0
H232 H 0.38752 0.01377 0.92083 0.0
C233 C 0.37594 0.00445 0.89905 0.0
H234 H 0.40056 0.98918 0.88666 0.0
H235 H 0.48566 0.98765 0.87131 0.0
O236 O 0.35498 0.1653 0.80166 0.0
C237 C 0.45054 0.06943 0.8035 0.0
Co238 Co 0.11303 0.86304 0.82879 0.0
Co239 Co 0.06246 0.92192 0.86991 0.0
C240 C 0.05035 0.82491 0.86591 0.0
O241 O 0.07937 0.82007 0.8484 0.0
O242 O 0.04063 0.86206 0.87548 0.0
C243 C 0.16213 0.79498 0.80591 0.0
O244 O 0.15515 0.77616 0.8311 0.0
C245 C 0.04182 0.9522 0.92859 0.0
C246 C 0.00569 0.01018 0.91947 0.0
C247 C 0.02082 0.9853 0.94203 0.0
N248 N 0.03971 0.95773 0.89951 0.0
N249 N 0.01807 0.99245 0.89418 0.0
C250 C 0.06151 0.91432 0.94281 0.0
H251 H 0.05885 0.88546 0.92871 0.0
H252 H 0.09367 0.92109 0.94555 0.0
H253 H 0.04831 0.90765 0.96456 0.0
C254 C 0.17903 0.90749 0.85742 0.0
N255 N 0.14018 0.89791 0.85557 0.0
N256 N 0.11954 0.92484 0.87178 0.0
C257 C 0.14487 0.95355 0.88381 0.0
C258 C 0.18355 0.9434 0.87514 0.0
C259 C 0.21079 0.88468 0.84047 0.0
H260 H 0.2077 0.89269 0.81694 0.0
H261 H 0.20708 0.84944 0.84296 0.0
H262 H 0.24096 0.89376 0.84808 0.0
O263 O 0.0792 0.89882 0.80282 0.0
O264 O 0.04335 0.94207 0.83106 0.0
H265 H 0.15507 0.01894 0.89845 0.0
H266 H 0.1251 0.98618 0.92224 0.0
C267 C 0.13173 0.99378 0.89908 0.0
H268 H 0.10423 0.00647 0.88879 0.0
H269 H 0.0115 0.00386 0.87328 0.0
O270 O 0.14911 0.83285 0.80172 0.0
C271 C 0.05326 0.92843 0.80582 0.0
Co272 Co 0.6089 0.62643 0.32 0.0
Co273 Co 0.559 0.57993 0.36827 0.0
C274 C 0.54832 0.6737 0.35712 0.0
O275 O 0.5738 0.67138 0.33662 0.0
O276 O 0.53999 0.641 0.37276 0.0
C277 C 0.66278 0.6898 0.29723 0.0
O278 O 0.66114 0.70627 0.32364 0.0
C279 C 0.53221 0.553 0.42735 0.0
C280 C 0.50936 0.48777 0.41821 0.0
C281 C 0.51533 0.51712 0.44054 0.0
N282 N 0.53643 0.54496 0.39859 0.0
N283 N 0.52252 0.50595 0.39333 0.0
C284 C 0.54304 0.59464 0.44176 0.0
H285 H 0.54481 0.62101 0.42558 0.0
H286 H 0.57254 0.59144 0.45236 0.0
H287 H 0.52095 0.60289 0.45892 0.0
C288 C 0.67463 0.58251 0.34919 0.0
N289 N 0.63626 0.59456 0.34823 0.0
N290 N 0.61627 0.57506 0.36905 0.0
C291 C 0.64201 0.55059 0.38462 0.0
C292 C 0.68 0.55476 0.37269 0.0
C293 C 0.70343 0.59141 0.32493 0.0
H294 H 0.68782 0.59019 0.30361 0.0
H295 H 0.71585 0.6242 0.32773 0.0
H296 H 0.72815 0.56773 0.32446 0.0
O297 O 0.57612 0.58838 0.29668 0.0
O298 O 0.53657 0.55848 0.32971 0.0
H299 H 0.60999 0.49673 0.40162 0.0
H300 H 0.65634 0.50755 0.42046 0.0
C301 C 0.63017 0.52235 0.40961 0.0
H302 H 0.61389 0.54176 0.42596 0.0
H303 H 0.5223 0.49156 0.37273 0.0
O304 O 0.64446 0.655 0.29203 0.0
C305 C 0.54716 0.56409 0.30315 0.0
Co306 Co 0.89236 0.37323 0.32335 0.0
Co307 Co 0.9439 0.42522 0.36773 0.0
C308 C 0.95174 0.32901 0.36204 0.0
O309 O 0.92383 0.32763 0.34325 0.0
O310 O 0.96298 0.36463 0.37308 0.0
C311 C 0.83855 0.31005 0.29906 0.0
O312 O 0.8405 0.29118 0.32472 0.0
C313 C 0.97206 0.4505 0.42586 0.0
C314 C 0.98868 0.51857 0.4191 0.0
C315 C 0.98549 0.48695 0.44029 0.0
N316 N 0.96661 0.46044 0.39756 0.0
N317 N 0.97703 0.50102 0.39359 0.0
C318 C 0.96549 0.40648 0.43828 0.0
H319 H 0.98439 0.38302 0.42637 0.0
H320 H 0.93405 0.39692 0.43489 0.0
H321 H 0.97311 0.40486 0.46182 0.0
C322 C 0.8277 0.42247 0.35056 0.0
N323 N 0.86581 0.4094 0.34957 0.0
N324 N 0.88667 0.43011 0.36936 0.0
C325 C 0.86176 0.45598 0.38455 0.0
C326 C 0.82355 0.45246 0.3729 0.0
C327 C 0.79758 0.41082 0.32777 0.0
H328 H 0.81194 0.40972 0.30599 0.0
H329 H 0.78559 0.37836 0.33265 0.0
H330 H 0.77268 0.43424 0.32687 0.0
O331 O 0.9274 0.40769 0.29879 0.0
O332 O 0.96495 0.44586 0.32899 0.0
H333 H 0.89385 0.50916 0.40251 0.0
H334 H 0.84809 0.49671 0.42166 0.0
C335 C 0.87415 0.48286 0.41009 0.0
H336 H 0.89102 0.46266 0.4257 0.0
H337 H 0.97526 0.51706 0.37359 0.0
O338 O 0.85643 0.3455 0.29531 0.0
C339 C 0.9545 0.4353 0.30316 0.0
Co340 Co 0.11006 0.37162 0.18027 0.0
Co341 Co 0.06113 0.42615 0.13557 0.0
C342 C 0.05102 0.33033 0.13992 0.0
O343 O 0.07794 0.32763 0.1594 0.0
O344 O 0.04143 0.36649 0.12881 0.0
C345 C 0.1618 0.30511 0.20196 0.0
O346 O 0.15936 0.28969 0.17531 0.0
C347 C 0.03303 0.45169 0.0778 0.0
C348 C 0.01536 0.51956 0.08442 0.0
C349 C 0.01776 0.48748 0.06344 0.0
N350 N 0.03906 0.4621 0.10593 0.0
N351 N 0.02818 0.5026 0.10984 0.0
C352 C 0.04572 0.40965 0.06474 0.0
H353 H 0.07211 0.39688 0.07651 0.0
H354 H 0.05274 0.41323 0.04118 0.0
H355 H 0.02132 0.38596 0.06728 0.0
C356 C 0.17635 0.41939 0.15443 0.0
N357 N 0.13796 0.40759 0.15469 0.0
N358 N 0.1182 0.42942 0.13478 0.0
C359 C 0.14409 0.45474 0.12021 0.0
C360 C 0.18195 0.44925 0.13214 0.0
C361 C 0.20482 0.40784 0.17842 0.0
H362 H 0.18887 0.40669 0.19959 0.0
H363 H 0.21744 0.37542 0.1741 0.0
H364 H 0.22935 0.43146 0.18029 0.0
O365 O 0.07519 0.40645 0.20503 0.0
O366 O 0.03935 0.44586 0.17427 0.0
H367 H 0.11452 0.51133 0.10471 0.0
H368 H 0.15897 0.4974 0.08437 0.0
C369 C 0.13255 0.48438 0.09584 0.0
H370 H 0.11417 0.46673 0.07979 0.0
H371 H 0.03021 0.51888 0.12972 0.0
O372 O 0.14517 0.34085 0.20767 0.0
C373 C 0.04845 0.43453 0.20023 0.0
Co374 Co 0.3937 0.63391 0.17921 0.0
Co375 Co 0.44461 0.57907 0.13562 0.0
C376 C 0.45515 0.67508 0.14111 0.0
O377 O 0.42668 0.67808 0.15932 0.0
O378 O 0.46548 0.63877 0.13062 0.0
C379 C 0.34074 0.70012 0.19985 0.0
O380 O 0.34389 0.71555 0.17322 0.0
C381 C 0.47144 0.55135 0.07709 0.0
C382 C 0.49536 0.48644 0.08625 0.0
C383 C 0.48868 0.51566 0.06391 0.0
N384 N 0.46761 0.54338 0.10587 0.0
N385 N 0.48217 0.50458 0.11118 0.0
C386 C 0.45984 0.59276 0.06258 0.0
H387 H 0.45593 0.61883 0.07877 0.0
H388 H 0.43123 0.58859 0.0509 0.0
H389 H 0.48265 0.60209 0.04625 0.0
C390 C 0.32881 0.58455 0.15282 0.0
N391 N 0.36683 0.59781 0.15309 0.0
N392 N 0.38746 0.57604 0.13363 0.0
C393 C 0.36252 0.54924 0.11937 0.0
C394 C 0.32453 0.55325 0.13135 0.0
C395 C 0.29923 0.59683 0.17588 0.0
H396 H 0.31427 0.5992 0.19737 0.0
H397 H 0.28648 0.62885 0.17051 0.0
H398 H 0.27481 0.5731 0.17774 0.0
O399 O 0.42726 0.59833 0.20454 0.0
O400 O 0.46374 0.55776 0.17486 0.0
H401 H 0.39548 0.49538 0.10292 0.0
H402 H 0.34888 0.50534 0.08395 0.0
C403 C 0.37485 0.52056 0.0947 0.0
H404 H 0.39072 0.53981 0.07812 0.0
H405 H 0.48281 0.49031 0.13181 0.0
O406 O 0.35768 0.66469 0.20596 0.0
C407 C 0.45327 0.56915 0.20056 0.0
Co408 Co 0.39311 0.3762 0.68433 0.0
Co409 Co 0.44305 0.42272 0.63624 0.0
C410 C 0.454 0.32921 0.64696 0.0
O411 O 0.42871 0.33174 0.66759 0.0
O412 O 0.46212 0.36179 0.63113 0.0
C413 C 0.34116 0.31107 0.70656 0.0
O414 O 0.34416 0.29498 0.68011 0.0
C415 C 0.47112 0.44878 0.5778 0.0
C416 C 0.48616 0.51718 0.585 0.0
C417 C 0.48407 0.48574 0.56363 0.0
N418 N 0.46497 0.45829 0.60611 0.0
N419 N 0.4744 0.49912 0.6103 0.0
C420 C 0.46596 0.40469 0.56517 0.0
H421 H 0.43441 0.39477 0.56727 0.0
H422 H 0.47529 0.40324 0.54195 0.0
H423 H 0.48415 0.38145 0.57784 0.0
C424 C 0.32731 0.41961 0.65494 0.0
N425 N 0.36573 0.40785 0.6561 0.0
N426 N 0.38573 0.42707 0.63518 0.0
C427 C 0.35987 0.45079 0.61917 0.0
C428 C 0.32186 0.44674 0.63111 0.0
C429 C 0.29852 0.41093 0.67923 0.0
H430 H 0.31417 0.41211 0.70054 0.0
H431 H 0.28597 0.37818 0.67649 0.0
H432 H 0.27391 0.43476 0.67966 0.0
O433 O 0.42524 0.41455 0.70781 0.0
O434 O 0.46533 0.44405 0.67495 0.0
H435 H 0.3899 0.50514 0.60102 0.0
H436 H 0.34504 0.49025 0.58166 0.0
C437 C 0.37146 0.47776 0.59348 0.0
H438 H 0.3894 0.45816 0.57817 0.0
H439 H 0.47201 0.5149 0.63035 0.0
O440 O 0.35761 0.34689 0.71201 0.0
C441 C 0.45419 0.43891 0.70143 0.0
Co442 Co 0.10942 0.6275 0.67997 0.0
Co443 Co 0.05794 0.57444 0.63607 0.0
C444 C 0.0473 0.67011 0.64291 0.0
O445 O 0.07601 0.67247 0.66097 0.0
O446 O 0.03699 0.63431 0.63169 0.0
C447 C 0.16182 0.69258 0.70293 0.0
O448 O 0.15821 0.7105 0.67707 0.0
C449 C 0.02927 0.54946 0.57813 0.0
C450 C 0.00997 0.48232 0.58528 0.0
C451 C 0.01377 0.51374 0.56398 0.0
N452 N 0.03486 0.53939 0.60639 0.0
N453 N 0.023 0.49933 0.61058 0.0
C454 C 0.03734 0.59315 0.56567 0.0
H455 H 0.01734 0.61689 0.57631 0.0
H456 H 0.06834 0.60276 0.57079 0.0
H457 H 0.03222 0.59444 0.54178 0.0
C458 C 0.17429 0.57952 0.6519 0.0
N459 N 0.13606 0.59217 0.65316 0.0
N460 N 0.11511 0.57094 0.63368 0.0
C461 C 0.14 0.54505 0.61847 0.0
C462 C 0.17836 0.54916 0.62978 0.0
C463 C 0.20457 0.59166 0.67446 0.0
H464 H 0.19052 0.59237 0.69636 0.0
H465 H 0.21589 0.6244 0.66957 0.0
H466 H 0.2299 0.56877 0.67511 0.0
O467 O 0.07556 0.59192 0.7049 0.0
O468 O 0.03824 0.55313 0.67487 0.0
H469 H 0.10751 0.49129 0.60172 0.0
H470 H 0.1532 0.50266 0.58212 0.0
C471 C 0.1273 0.51713 0.59353 0.0
H472 H 0.11039 0.5367 0.57757 0.0
H473 H 0.02439 0.48338 0.63063 0.0
O474 O 0.14562 0.65634 0.70743 0.0
C475 C 0.04882 0.56382 0.70063 0.0
Co476 Co 0.89404 0.63029 0.82375 0.0
Co477 Co 0.94355 0.57621 0.86838 0.0
C478 C 0.95343 0.67195 0.86387 0.0
O479 O 0.9264 0.67405 0.84444 0.0
O480 O 0.96371 0.63602 0.87505 0.0
C481 C 0.8412 0.69656 0.80304 0.0
O482 O 0.84378 0.71161 0.8298 0.0
C483 C 0.97126 0.5484 0.926 0.0
C484 C 0.98667 0.48015 0.91831 0.0
C485 C 0.98462 0.51137 0.9399 0.0
N486 N 0.96544 0.53938 0.89762 0.0
N487 N 0.9751 0.49865 0.89308 0.0
C488 C 0.96025 0.59045 0.93979 0.0
H489 H 0.93665 0.60671 0.92688 0.0
H490 H 0.94987 0.58564 0.96258 0.0
H491 H 0.9868 0.61159 0.94018 0.0
C492 C 0.828 0.58274 0.85002 0.0
N493 N 0.86638 0.59458 0.84957 0.0
N494 N 0.88636 0.57288 0.86942 0.0
C495 C 0.8606 0.54746 0.88408 0.0
C496 C 0.82264 0.55287 0.87231 0.0
C497 C 0.79917 0.5944 0.82629 0.0
H498 H 0.81479 0.5956 0.80498 0.0
H499 H 0.78665 0.62681 0.83077 0.0
H500 H 0.77456 0.57084 0.82461 0.0
O501 O 0.92847 0.59523 0.79877 0.0
O502 O 0.96474 0.55634 0.82957 0.0
H503 H 0.89065 0.49112 0.8995 0.0
H504 H 0.84591 0.5043 0.91967 0.0
C505 C 0.87227 0.51778 0.90839 0.0
H506 H 0.89027 0.53559 0.92459 0.0
H507 H 0.9728 0.48321 0.87291 0.0
O508 O 0.85857 0.66143 0.7968 0.0
C509 C 0.9553 0.56724 0.80359 0.0
Co510 Co 0.61027 0.36952 0.82394 0.0
Co511 Co 0.56002 0.42323 0.86836 0.0
C512 C 0.54995 0.32751 0.86313 0.0
O513 O 0.5775 0.32526 0.84412 0.0
O514 O 0.53993 0.36347 0.87434 0.0
C515 C 0.66334 0.30337 0.8043 0.0
O516 O 0.66081 0.28977 0.83141 0.0
C517 C 0.53208 0.44981 0.92629 0.0
C518 C 0.51603 0.51805 0.91918 0.0
C519 C 0.51881 0.48658 0.94052 0.0
N520 N 0.53781 0.45941 0.89796 0.0
N521 N 0.52775 0.50012 0.89378 0.0
C522 C 0.53797 0.40575 0.93887 0.0
H523 H 0.51781 0.38293 0.92761 0.0
H524 H 0.56892 0.39484 0.93474 0.0
H525 H 0.53141 0.40473 0.96259 0.0
C526 C 0.67559 0.41861 0.85038 0.0
N527 N 0.63751 0.40553 0.84995 0.0
N528 N 0.61711 0.42654 0.86991 0.0
C529 C 0.64226 0.45245 0.8847 0.0
C530 C 0.68014 0.44888 0.8725 0.0
C531 C 0.70518 0.40686 0.82722 0.0
H532 H 0.69001 0.40363 0.80584 0.0
H533 H 0.71893 0.3754 0.8328 0.0
H534 H 0.72891 0.43138 0.8251 0.0
O535 O 0.57618 0.40477 0.79872 0.0
O536 O 0.53979 0.44388 0.8293 0.0
H537 H 0.61082 0.50602 0.90303 0.0
H538 H 0.6567 0.4927 0.92185 0.0
C539 C 0.63038 0.47935 0.9104 0.0
H540 H 0.61351 0.45931 0.92606 0.0
H541 H 0.52972 0.51592 0.87372 0.0
O542 O 0.64619 0.33836 0.79736 0.0
C543 C 0.54953 0.43307 0.80334 0.0
C544 C 0.01245 0.05328 0.2261 0.0
C545 C 0.97144 0.0623 0.22701 0.0
C546 C 0.03512 0.05183 0.25181 0.0
C547 C 0.01745 0.0582 0.27936 0.0
H548 H 0.02776 0.05092 0.20533 0.0
H549 H 0.06712 0.04847 0.25 0.0
S550 S 0.9102 0.0759 0.29387 0.0
N551 N 0.91333 0.07265 0.25792 0.0
N552 N 0.95593 0.06892 0.30622 0.0
C553 C 0.97595 0.06294 0.28075 0.0
C554 C 0.95294 0.06529 0.25455 0.0
C555 C 0.54726 0.93993 0.25473 0.0
C556 C 0.53062 0.94679 0.22681 0.0
C557 C 0.52394 0.94248 0.28012 0.0
C558 C 0.48302 0.95138 0.27843 0.0
H559 H 0.57797 0.92976 0.25689 0.0
H560 H 0.53725 0.93338 0.30079 0.0
S561 S 0.42647 0.97975 0.21154 0.0
N562 N 0.47189 0.96942 0.19969 0.0
N563 N 0.42805 0.97328 0.24733 0.0
C564 C 0.46694 0.96254 0.25107 0.0
C565 C 0.49075 0.96052 0.22526 0.0
C566 C 0.02557 0.93988 0.72605 0.0
C567 C 0.98418 0.94583 0.72745 0.0
C568 C 0.04851 0.93779 0.75165 0.0
C569 C 0.03096 0.94237 0.77946 0.0
H570 H 0.03978 0.93283 0.70534 0.0
H571 H 0.0798 0.92984 0.7497 0.0
S572 S 0.92469 0.96647 0.79422 0.0
N573 N 0.92732 0.96187 0.75833 0.0
N574 N 0.97046 0.9591 0.80638 0.0
C575 C 0.99029 0.95295 0.78084 0.0
C576 C 0.96688 0.95433 0.75482 0.0
C577 C 0.53533 0.04205 0.75262 0.0
C578 C 0.51901 0.05106 0.72492 0.0
C579 C 0.51195 0.0437 0.77799 0.0
C580 C 0.47151 0.05519 0.7766 0.0
H581 H 0.56707 0.03691 0.75497 0.0
H582 H 0.52651 0.03969 0.79893 0.0
S583 S 0.41295 0.07406 0.70898 0.0
N584 N 0.45877 0.0656 0.69727 0.0
N585 N 0.41482 0.06917 0.74488 0.0
C586 C 0.45401 0.05992 0.74879 0.0
C587 C 0.47775 0.05764 0.72293 0.0
C588 C 0.53923 0.54449 0.25066 0.0
C589 C 0.52189 0.54953 0.27853 0.0
C590 C 0.51612 0.54601 0.22515 0.0
C591 C 0.47491 0.5532 0.22664 0.0
H592 H 0.57129 0.5429 0.24842 0.0
H593 H 0.53115 0.54568 0.20421 0.0
S594 S 0.41406 0.55927 0.2942 0.0
N595 N 0.46027 0.55475 0.30607 0.0
N596 N 0.41684 0.55795 0.25819 0.0
C597 C 0.45673 0.55331 0.25438 0.0
C598 C 0.48022 0.55127 0.28035 0.0
C599 C 0.01922 0.45119 0.27895 0.0
C600 C 0.97753 0.44963 0.27742 0.0
C601 C 0.04232 0.45046 0.25343 0.0
C602 C 0.02452 0.44896 0.22556 0.0
H603 H 0.03415 0.44884 0.29987 0.0
H604 H 0.07435 0.44799 0.25559 0.0
S605 S 0.91639 0.45282 0.20994 0.0
N606 N 0.9193 0.45273 0.24595 0.0
N607 N 0.96276 0.45211 0.19804 0.0
C608 C 0.98294 0.45236 0.22377 0.0
C609 C 0.95941 0.45245 0.24973 0.0
C610 C 0.54401 0.44636 0.74964 0.0
C611 C 0.52674 0.44891 0.77769 0.0
C612 C 0.5207 0.44892 0.72427 0.0
C613 C 0.47922 0.45356 0.72609 0.0
H614 H 0.57541 0.4392 0.74727 0.0
H615 H 0.53479 0.44285 0.70338 0.0
S616 S 0.4205 0.47089 0.79373 0.0
N617 N 0.46652 0.46365 0.80539 0.0
N618 N 0.42267 0.46788 0.75774 0.0
C619 C 0.46226 0.46109 0.75377 0.0
C620 C 0.48604 0.45893 0.77959 0.0
C621 C 0.96092 0.55124 0.75037 0.0
C622 C 0.97883 0.55217 0.77821 0.0
C623 C 0.98393 0.54966 0.72484 0.0
C624 C 0.02566 0.54974 0.72633 0.0
H625 H 0.92898 0.55483 0.74823 0.0
H626 H 0.96902 0.55261 0.70394 0.0
S627 S 0.08683 0.54401 0.79366 0.0
N628 N 0.04054 0.54648 0.80565 0.0
N629 N 0.08384 0.54442 0.75765 0.0
C630 C 0.04375 0.54624 0.75396 0.0
C631 C 0.0203 0.54716 0.77995 0.0
C632 C 0.17383 0.26795 0.27983 0.0
C633 C 0.17287 0.22294 0.27687 0.0
C634 C 0.17435 0.29465 0.2552 0.0
C635 C 0.17399 0.2773 0.22675 0.0
H636 H 0.17076 0.28282 0.30112 0.0
H637 H 0.17196 0.32908 0.25856 0.0
S638 S 0.18273 0.1615 0.20771 0.0
N639 N 0.18 0.1622 0.24372 0.0
N640 N 0.18092 0.21238 0.19735 0.0
C641 C 0.17835 0.23248 0.22366 0.0
C642 C 0.17774 0.20527 0.24878 0.0
C643 C 0.32799 0.77322 0.22037 0.0
C644 C 0.32795 0.72832 0.22419 0.0
C645 C 0.32809 0.80097 0.24447 0.0
C646 C 0.32805 0.78485 0.27325 0.0
H647 H 0.33133 0.78711 0.19881 0.0
H648 H 0.3312 0.83517 0.24043 0.0
S649 S 0.31707 0.67014 0.29456 0.0
N650 N 0.31971 0.66925 0.25856 0.0
N651 N 0.31989 0.72138 0.3039 0.0
C652 C 0.3228 0.74029 0.2772 0.0
C653 C 0.3228 0.71201 0.25263 0.0
C654 C 0.67742 0.76139 0.2752 0.0
C655 C 0.67571 0.71642 0.27218 0.0
C656 C 0.67712 0.78821 0.25062 0.0
C657 C 0.67512 0.77098 0.22218 0.0
H658 H 0.67553 0.77622 0.29657 0.0
H659 H 0.67532 0.82265 0.25412 0.0
S660 S 0.68171 0.65518 0.20268 0.0
N661 N 0.68066 0.65575 0.23874 0.0
N662 N 0.67997 0.70614 0.19249 0.0
C663 C 0.67882 0.72612 0.21889 0.0
C664 C 0.67911 0.69881 0.24395 0.0
C665 C 0.82443 0.24039 0.27414 0.0
C666 C 0.82624 0.28553 0.27286 0.0
C667 C 0.82552 0.21565 0.24859 0.0
C668 C 0.82854 0.23517 0.22087 0.0
H669 H 0.82563 0.22381 0.29495 0.0
H670 H 0.82718 0.18097 0.25084 0.0
S671 S 0.82277 0.35241 0.20565 0.0
N672 N 0.82246 0.34887 0.24163 0.0
N673 N 0.82483 0.30236 0.19359 0.0
C674 C 0.82499 0.28023 0.21922 0.0
C675 C 0.82379 0.30544 0.24526 0.0
C676 C 0.82886 0.76977 0.7826 0.0
C677 C 0.8283 0.72488 0.77881 0.0
C678 C 0.82884 0.79748 0.75848 0.0
C679 C 0.82815 0.7813 0.72972 0.0
H680 H 0.83277 0.78363 0.80413 0.0
H681 H 0.8324 0.83164 0.76245 0.0
S682 S 0.81581 0.66672 0.7086 0.0
N683 N 0.81898 0.66585 0.74459 0.0
N684 N 0.81895 0.7179 0.69919 0.0
C685 C 0.82241 0.73681 0.72584 0.0
C686 C 0.82254 0.70858 0.75044 0.0
C687 C 0.67748 0.28969 0.75164 0.0
C688 C 0.67618 0.27407 0.78053 0.0
C689 C 0.6775 0.26154 0.72778 0.0
C690 C 0.67608 0.21676 0.73196 0.0
H691 H 0.67542 0.32392 0.74731 0.0
H692 H 0.67516 0.27517 0.70606 0.0
S693 S 0.68343 0.15943 0.8029 0.0
N694 N 0.68174 0.21091 0.81181 0.0
N695 N 0.68175 0.15799 0.76687 0.0
C696 C 0.68001 0.20073 0.76058 0.0
C697 C 0.68013 0.22943 0.78493 0.0
C698 C 0.32899 0.30143 0.75989 0.0
C699 C 0.32855 0.28388 0.7315 0.0
C700 C 0.32909 0.27492 0.78459 0.0
C701 C 0.32875 0.22986 0.78182 0.0
H702 H 0.33233 0.33579 0.76313 0.0
H703 H 0.33277 0.28989 0.80579 0.0
S704 S 0.31628 0.16837 0.71286 0.0
N705 N 0.31944 0.21909 0.70236 0.0
N706 N 0.31939 0.16921 0.74885 0.0
C707 C 0.32295 0.21218 0.7538 0.0
C708 C 0.32288 0.23924 0.72859 0.0
C709 C 0.17371 0.69893 0.75655 0.0
C710 C 0.17471 0.71807 0.72864 0.0
C711 C 0.17381 0.72401 0.78193 0.0
C712 C 0.17494 0.76917 0.78035 0.0
H713 H 0.16975 0.6645 0.75889 0.0
H714 H 0.16966 0.70791 0.8027 0.0
S715 S 0.1896 0.83421 0.71315 0.0
N716 N 0.1855 0.78423 0.70128 0.0
N717 N 0.18593 0.83142 0.74906 0.0
C718 C 0.18139 0.7883 0.75285 0.0
C719 C 0.18125 0.76271 0.72694 0.0
C720 C 0.97579 0.98801 0.48285 0.0
C721 C 0.01159 0.00614 0.47301 0.0
C722 C 0.96921 0.98046 0.51268 0.0
C723 C 0.99848 0.99019 0.53362 0.0
H724 H 0.95243 0.98027 0.46742 0.0
H725 H 0.94065 0.96786 0.51936 0.0
S726 S 0.09882 0.03423 0.51868 0.0
N727 N 0.07775 0.03075 0.48618 0.0
N728 N 0.06523 0.01709 0.54228 0.0
C729 C 0.03465 0.0077 0.52396 0.0
C730 C 0.04134 0.01534 0.49362 0.0
C731 C 0.46975 0.98079 0.49308 0.0
C732 C 0.49695 0.99267 0.47119 0.0
C733 C 0.47774 0.98885 0.52268 0.0
C734 C 0.51287 0.00974 0.53138 0.0
H735 H 0.44179 0.96581 0.48727 0.0
H736 H 0.45602 0.9792 0.53887 0.0
S737 S 0.59486 0.04458 0.48271 0.0
N738 N 0.561 0.02487 0.46028 0.0
N739 N 0.57627 0.03943 0.51591 0.0
C740 C 0.54053 0.02125 0.50975 0.0
C741 C 0.53239 0.01306 0.47964 0.0
C742 C 0.50924 0.03843 0.9887 0.0
C743 C 0.49401 0.00512 0.97118 0.0
C744 C 0.51688 0.03199 0.01853 0.0
C745 C 0.50994 0.9919 0.03187 0.0
H746 H 0.51599 0.0695 0.97924 0.0
H747 H 0.52887 0.05843 0.03117 0.0
S748 S 0.46673 0.89555 0.9962 0.0
N749 N 0.47037 0.93132 0.96965 0.0
N750 N 0.48399 0.91951 0.02578 0.0
C751 C 0.49402 0.9586 0.01473 0.0
C752 C 0.48638 0.9651 0.98435 0.0
C753 C 0.96758 0.00943 0.01327 0.0
C754 C 0.9984 0.0081 0.03404 0.0
C755 C 0.97522 0.00212 0.98354 0.0
C756 C 0.01384 0.99275 0.97357 0.0
H757 H 0.93722 0.01535 0.02002 0.0
H758 H 0.95058 0.00317 0.9683 0.0
S759 S 0.10535 0.98905 0.01874 0.0
N760 N 0.06928 0.99865 0.04237 0.0
N761 N 0.08365 0.98561 0.98646 0.0
C762 C 0.045 0.99197 0.99401 0.0
C763 C 0.03723 0.9993 0.02427 0.0
C764 C 0.53432 0.52102 0.49348 0.0
C765 C 0.50651 0.50969 0.47185 0.0
C766 C 0.52684 0.51297 0.52314 0.0
C767 C 0.49159 0.49272 0.53215 0.0
H768 H 0.56245 0.53536 0.48749 0.0
H769 H 0.54904 0.52213 0.53911 0.0
S770 S 0.40794 0.45972 0.48444 0.0
N771 N 0.44162 0.47888 0.46165 0.0
N772 N 0.4274 0.46428 0.51741 0.0
C773 C 0.46329 0.4818 0.51084 0.0
C774 C 0.4709 0.48996 0.48067 0.0
C775 C 0.03464 0.51834 0.51162 0.0
C776 C 0.00559 0.50782 0.53253 0.0
C777 C 0.02784 0.51154 0.48175 0.0
C778 C 0.99208 0.49329 0.47189 0.0
H779 H 0.06305 0.53131 0.51843 0.0
H780 H 0.05093 0.52 0.46629 0.0
S781 S 0.90567 0.46281 0.51771 0.0
N782 N 0.93934 0.47975 0.54132 0.0
N783 N 0.92631 0.46749 0.48513 0.0
C784 C 0.96262 0.48318 0.49254 0.0
C785 C 0.96956 0.49008 0.52291 0.0
C786 C 0.02208 0.52958 0.01715 0.0
C787 C 0.00867 0.49275 0.03202 0.0
C788 C 0.01429 0.53542 0.98731 0.0
C789 C 0.99255 0.50478 0.97138 0.0
H790 H 0.03928 0.55376 0.02856 0.0
H791 H 0.02589 0.56381 0.97659 0.0
S792 S 0.94735 0.40502 1.00079 0.0
N793 N 0.97 0.4269 0.02912 0.0
N794 N 0.95601 0.43743 0.97292 0.0
C795 C 0.97849 0.46813 0.98608 0.0
C796 C 0.98626 0.46229 0.01647 0.0
C797 C 0.47567 0.5115 0.98149 0.0
C798 C 0.51167 0.49318 0.97204 0.0
C799 C 0.46837 0.51871 0.01126 0.0
C800 C 0.49711 0.5085 0.03254 0.0
H801 H 0.45276 0.51972 0.96578 0.0
H802 H 0.4397 0.53153 0.01762 0.0
S803 S 0.59755 0.46337 0.01873 0.0
N804 N 0.57733 0.46752 0.98597 0.0
N805 N 0.56346 0.48064 0.04197 0.0
C806 C 0.5334 0.49062 0.02329 0.0
C807 C 0.54082 0.48329 0.993 0.0
C808 C 0.21399 0.98336 0.37721 0.0
C809 C 0.21501 0.0286 0.37775 0.0
C810 C 0.2492 0.95902 0.37724 0.0
C811 C 0.28674 0.97899 0.37703 0.0
H812 H 0.18591 0.96662 0.37516 0.0
H813 H 0.24706 0.92429 0.37581 0.0
S814 S 0.30536 0.09657 0.38059 0.0
N815 N 0.25644 0.0923 0.38131 0.0
N816 N 0.3226 0.04683 0.37857 0.0
C817 C 0.28812 0.02414 0.3789 0.0
C818 C 0.25224 0.04884 0.37986 0.0
C819 C 0.7706 0.0141 0.10353 0.0
C820 C 0.78788 0.02851 0.12974 0.0
C821 C 0.73603 0.98857 0.10385 0.0
C822 C 0.71793 0.97684 0.13038 0.0
H823 H 0.78368 0.02291 0.08276 0.0
H824 H 0.72358 0.97767 0.08332 0.0
S825 S 0.75192 0.00619 0.20482 0.0
N826 N 0.78528 0.02762 0.1828 0.0
N827 N 0.71912 0.98272 0.18331 0.0
C828 C 0.73485 0.99147 0.1566 0.0
C829 C 0.77023 0.01642 0.15631 0.0
C830 C 0.71792 0.98433 0.62538 0.0
C831 C 0.7191 0.02946 0.62747 0.0
C832 C 0.75307 0.95981 0.62547 0.0
C833 C 0.79055 0.97947 0.62832 0.0
H834 H 0.68969 0.96764 0.62537 0.0
H835 H 0.7508 0.92504 0.62488 0.0
S836 S 0.80963 0.09693 0.63218 0.0
N837 N 0.76084 0.09309 0.62915 0.0
N838 N 0.82659 0.047 0.63214 0.0
C839 C 0.79216 0.02467 0.62906 0.0
C840 C 0.75647 0.04963 0.62797 0.0
C841 C 0.271 0.01029 0.85001 0.0
C842 C 0.28801 0.02479 0.87625 0.0
C843 C 0.23704 0.98448 0.85003 0.0
C844 C 0.21911 0.97146 0.8763 0.0
H845 H 0.28402 0.0191 0.82921 0.0
H846 H 0.22461 0.97478 0.82922 0.0
S847 S 0.25227 1.00027 0.95095 0.0
N848 N 0.28447 0.02456 0.92924 0.0
N849 N 0.22084 0.97471 0.9293 0.0
C850 C 0.23584 0.98547 0.90276 0.0
C851 C 0.27042 0.01222 0.90273 0.0
C852 C 0.7502 0.45976 0.38068 0.0
C853 C 0.78781 0.47935 0.37876 0.0
C854 C 0.71517 0.48439 0.38041 0.0
C855 C 0.71657 0.52959 0.37917 0.0
H856 H 0.74779 0.42498 0.38069 0.0
H857 H 0.68692 0.46779 0.37949 0.0
S858 S 0.80738 0.59686 0.37722 0.0
N859 N 0.82417 0.54688 0.37669 0.0
N860 N 0.7585 0.5931 0.37937 0.0
C861 C 0.75398 0.54963 0.37975 0.0
C862 C 0.7896 0.52457 0.37883 0.0
C863 C 0.25117 0.54492 0.12479 0.0
C864 C 0.28903 0.52574 0.12664 0.0
C865 C 0.21651 0.51996 0.12532 0.0
C866 C 0.21848 0.47477 0.12658 0.0
H867 H 0.24827 0.57967 0.12444 0.0
H868 H 0.18808 0.53636 0.1262 0.0
S869 S 0.31021 0.40839 0.12872 0.0
N870 N 0.32628 0.45855 0.12936 0.0
N871 N 0.26131 0.41167 0.12635 0.0
C872 C 0.25616 0.45509 0.1261 0.0
C873 C 0.29142 0.48051 0.12704 0.0
C874 C 0.28666 0.51678 0.62212 0.0
C875 C 0.28523 0.47165 0.62428 0.0
C876 C 0.25164 0.54146 0.62164 0.0
C877 C 0.21404 0.52201 0.62417 0.0
H878 H 0.31493 0.53337 0.62252 0.0
H879 H 0.25407 0.57622 0.62098 0.0
S880 S 0.19438 0.4046 0.62791 0.0
N881 N 0.24324 0.40822 0.62537 0.0
N882 N 0.17765 0.45461 0.6277 0.0
C883 C 0.21222 0.47679 0.62494 0.0
C884 C 0.2478 0.45165 0.62425 0.0
C885 C 0.75363 0.4569 0.87878 0.0
C886 C 0.71573 0.47613 0.87763 0.0
C887 C 0.78828 0.48192 0.87844 0.0
C888 C 0.78626 0.52714 0.87791 0.0
H889 H 0.75655 0.42216 0.87846 0.0
H890 H 0.81673 0.46562 0.87711 0.0
S891 S 0.69449 0.59349 0.87779 0.0
N892 N 0.67841 0.54336 0.87664 0.0
N893 N 0.74344 0.59018 0.87945 0.0
C894 C 0.74859 0.54676 0.87904 0.0
C895 C 0.71332 0.52135 0.87813 0.0
C896 C 0.03958 0.25322 0.37065 0.0
C897 C 0.02183 0.21231 0.36927 0.0
C898 C 0.01639 0.29094 0.37059 0.0
C899 C 0.97467 0.28912 0.36813 0.0
H900 H 0.07169 0.25612 0.3708 0.0
H901 H 0.03144 0.32174 0.37058 0.0
S902 S 0.91361 0.18994 0.36527 0.0
N903 N 0.9599 0.17221 0.36719 0.0
N904 N 0.9165 0.243 0.3659 0.0
C905 C 0.95652 0.2484 0.36785 0.0
C906 C 0.98005 0.21002 0.36873 0.0
C907 C 0.48672 0.76914 0.333 0.0
C908 C 0.47561 0.7894 0.35925 0.0
C909 C 0.51063 0.73228 0.33289 0.0
C910 C 0.52375 0.71327 0.35905 0.0
H911 H 0.47756 0.7824 0.31215 0.0
H912 H 0.51847 0.71818 0.31201 0.0
S913 S 0.50234 0.75278 0.43384 0.0
N914 N 0.47966 0.7878 0.41227 0.0
N915 N 0.52343 0.71688 0.41208 0.0
C916 C 0.51238 0.73253 0.38559 0.0
C917 C 0.48874 0.77108 0.38568 0.0
C918 C 0.48494 0.79267 0.13465 0.0
C919 C 0.52668 0.79027 0.13322 0.0
C920 C 0.46169 0.75516 0.1358 0.0
C921 C 0.47929 0.71396 0.13479 0.0
H922 H 0.4703 0.82361 0.13694 0.0
H923 H 0.42982 0.75843 0.13855 0.0
S924 S 0.58724 0.69062 0.12787 0.0
N925 N 0.58448 0.74369 0.12878 0.0
N926 N 0.54092 0.67333 0.12995 0.0
C927 C 0.52081 0.71131 0.13125 0.0
C928 C 0.54447 0.74943 0.13075 0.0
C929 C 0.02124 0.21273 0.13449 0.0
C930 C 0.97971 0.21529 0.1312 0.0
C931 C 0.04459 0.25015 0.13573 0.0
C932 C 0.02736 0.29135 0.13296 0.0
H933 H 0.03545 0.18187 0.13825 0.0
H934 H 0.07614 0.24685 0.14006 0.0
S935 S 0.92036 0.31482 0.12045 0.0
N936 N 0.92269 0.26184 0.12291 0.0
N937 N 0.96653 0.332 0.12418 0.0
C938 C 0.98624 0.29402 0.1274 0.0
C939 C 0.96242 0.25603 0.12683 0.0
C940 C 0.01641 0.78699 0.63377 0.0
C941 C 0.97522 0.78571 0.63944 0.0
C942 C 0.03954 0.74921 0.63375 0.0
C943 C 0.02211 0.70869 0.63838 0.0
H944 H 0.03133 0.81759 0.63103 0.0
H945 H 0.07143 0.75181 0.63085 0.0
S946 S 0.91529 0.68736 0.65238 0.0
N947 N 0.91788 0.74018 0.64875 0.0
N948 N 0.96107 0.66927 0.6476 0.0
C949 C 0.98071 0.70672 0.6425 0.0
C950 C 0.95734 0.74519 0.6433 0.0
C951 C 0.49052 0.26977 0.67123 0.0
C952 C 0.47842 0.28949 0.64504 0.0
C953 C 0.51437 0.23289 0.67119 0.0
C954 C 0.52653 0.21329 0.64496 0.0
H955 H 0.48197 0.28337 0.69212 0.0
H956 H 0.52279 0.21915 0.69207 0.0
S957 S 0.50246 0.25158 0.57028 0.0
N958 N 0.48058 0.28699 0.59199 0.0
N959 N 0.52437 0.21608 0.59192 0.0
C960 C 0.51432 0.23219 0.61848 0.0
C961 C 0.49068 0.27076 0.61853 0.0
C962 C 0.5209 0.20949 0.8681 0.0
C963 C 0.47927 0.21158 0.87089 0.0
C964 C 0.54395 0.24717 0.86703 0.0
C965 C 0.52632 0.28823 0.8695 0.0
H966 H 0.53548 0.17874 0.86471 0.0
H967 H 0.57563 0.24417 0.86319 0.0
S968 S 0.4188 0.3106 0.8804 0.0
N969 N 0.42166 0.25762 0.87816 0.0
N970 N 0.46489 0.32825 0.87723 0.0
C971 C 0.48502 0.29047 0.8744 0.0
C972 C 0.46152 0.2522 0.87479 0.0
C973 C 0.01807 0.70868 0.87405 0.0
C974 C 0.97655 0.71137 0.87051 0.0
C975 C 0.04174 0.74587 0.87423 0.0
C976 C 0.02468 0.78715 0.87177 0.0
H977 H 0.03268 0.67756 0.87472 0.0
H978 H 0.07378 0.74222 0.87515 0.0
S979 S 0.91701 0.81181 0.86523 0.0
N980 N 0.91914 0.75872 0.86656 0.0
N981 N 0.96345 0.82858 0.86791 0.0
C982 C 0.98299 0.79038 0.87035 0.0
C983 C 0.95897 0.7525 0.86943 0.0
loop_
_geom_bond_atom_site_label_1
_geom_bond_atom_site_label_2
_geom_bond_distance
_geom_bond_site_symmetry_2
_ccdc_geom_bond_type
Co0 O3 1.970 . S
Co0 N17 1.989 . S
Co0 O25 1.967 . S
Co0 O32 1.920 . S
Co1 O4 1.966 . S
Co1 N10 2.022 . S
Co1 N18 1.993 . S
Co1 O26 1.941 . S
C2 O3 1.258 . S
C2 O4 1.263 . S
O3 Co0 1.970 . S
O3 C2 1.258 . S
O4 Co1 1.966 . S
O4 C2 1.263 . S
C5 O6 1.235 . S
C5 O32 1.289 . S
O6 C5 1.235 . S
C7 C9 1.400 . S
C7 N10 1.351 . S
C7 C12 1.501 . S
C8 C9 1.387 1_565 S
C8 N11 1.341 1_565 S
C9 C7 1.400 . S
C9 C8 1.387 1_545 S
N10 Co1 2.022 . S
N10 C7 1.351 . S
N10 N11 1.365 . S
N11 C8 1.341 1_545 S
N11 N10 1.365 . S
N11 H31 0.862 1_545 S
C12 C7 1.501 . S
C12 H13 0.961 . S
C12 H14 0.961 . S
C12 H15 0.960 . S
H13 C12 0.961 . S
H14 C12 0.961 . S
H15 C12 0.960 . S
C16 N17 1.342 . S
C16 C20 1.401 . S
C16 C21 1.499 . S
N17 Co0 1.989 . S
N17 C16 1.342 . S
N17 N18 1.388 . S
N18 Co1 1.993 . S
N18 N17 1.388 . S
N18 C19 1.346 . S
C19 N18 1.346 . S
C19 C20 1.396 . S
C19 C29 1.510 . S
C20 C16 1.401 . S
C20 C19 1.396 . S
C21 C16 1.499 . S
C21 H22 0.959 . S
C21 H23 0.960 . S
C21 H24 0.961 . S
H22 C21 0.959 . S
H23 C21 0.960 . S
H24 C21 0.961 . S
O25 Co0 1.967 . S
O25 C33 1.258 . S
O26 Co1 1.941 . S
O26 C33 1.266 . S
H27 C29 0.959 1_565 S
H28 C29 0.961 . S
C29 C19 1.510 . S
C29 H27 0.959 1_545 S
C29 H28 0.961 . S
C29 H30 0.960 . S
H30 C29 0.960 . S
H31 N11 0.862 1_565 S
O32 Co0 1.920 . S
O32 C5 1.289 . S
C33 O25 1.258 . S
C33 O26 1.266 . S
Co34 O37 1.970 . S
Co34 N51 1.989 . S
Co34 O59 1.967 . S
Co34 O66 1.920 . S
Co35 O38 1.966 . S
Co35 N44 2.022 . S
Co35 N52 1.993 . S
Co35 O60 1.941 . S
C36 O37 1.258 . S
C36 O38 1.263 . S
O37 Co34 1.970 . S
O37 C36 1.258 . S
O38 Co35 1.966 . S
O38 C36 1.263 . S
C39 O40 1.235 . S
C39 O66 1.289 . S
O40 C39 1.235 . S
C41 C43 1.400 . S
C41 N44 1.351 . S
C41 C46 1.501 . S
C42 C43 1.387 1_545 S
C42 N45 1.341 1_545 S
C43 C41 1.400 . S
C43 C42 1.387 1_565 S
N44 Co35 2.022 . S
N44 C41 1.351 . S
N44 N45 1.365 . S
N45 C42 1.341 1_565 S
N45 N44 1.365 . S
N45 H65 0.862 1_565 S
C46 C41 1.501 . S
C46 H47 0.961 . S
C46 H48 0.961 . S
C46 H49 0.960 . S
H47 C46 0.961 . S
H48 C46 0.961 . S
H49 C46 0.960 . S
C50 N51 1.342 . S
C50 C54 1.401 . S
C50 C55 1.499 . S
N51 Co34 1.989 . S
N51 C50 1.342 . S
N51 N52 1.388 . S
N52 Co35 1.993 . S
N52 N51 1.388 . S
N52 C53 1.346 . S
C53 N52 1.346 . S
C53 C54 1.396 . S
C53 C63 1.510 . S
C54 C50 1.401 . S
C54 C53 1.396 . S
C55 C50 1.499 . S
C55 H56 0.959 . S
C55 H57 0.960 . S
C55 H58 0.961 . S
H56 C55 0.959 . S
H57 C55 0.960 . S
H58 C55 0.961 . S
O59 Co34 1.967 . S
O59 C67 1.258 . S
O60 Co35 1.941 . S
O60 C67 1.266 . S
H61 C63 0.959 1_545 S
H62 C63 0.961 . S
C63 C53 1.510 . S
C63 H61 0.959 1_565 S
C63 H62 0.961 . S
C63 H64 0.960 . S
H64 C63 0.960 . S
H65 N45 0.862 1_545 S
O66 Co34 1.920 . S
O66 C39 1.289 . S
C67 O59 1.258 . S
C67 O60 1.266 . S
Co68 O71 1.970 . S
Co68 N85 1.989 . S
Co68 O93 1.967 . S
Co68 O100 1.920 . S
Co69 O72 1.966 . S
Co69 N78 2.022 . S
Co69 N86 1.993 . S
Co69 O94 1.941 . S
C70 O71 1.258 . S
C70 O72 1.263 . S
O71 Co68 1.970 . S
O71 C70 1.258 . S
O72 Co69 1.966 . S
O72 C70 1.263 . S
C73 O74 1.235 . S
C73 O100 1.289 . S
O74 C73 1.235 . S
C75 C77 1.400 . S
C75 N78 1.351 . S
C75 C80 1.501 . S
C76 C77 1.387 1_545 S
C76 N79 1.341 1_545 S
C77 C75 1.400 . S
C77 C76 1.387 1_565 S
N78 Co69 2.022 . S
N78 C75 1.351 . S
N78 N79 1.365 . S
N79 C76 1.341 1_565 S
N79 N78 1.365 . S
N79 H99 0.862 1_565 S
C80 C75 1.501 . S
C80 H81 0.961 . S
C80 H82 0.961 . S
C80 H83 0.960 . S
H81 C80 0.961 . S
H82 C80 0.961 . S
H83 C80 0.960 . S
C84 N85 1.342 . S
C84 C88 1.401 . S
C84 C89 1.499 . S
N85 Co68 1.989 . S
N85 C84 1.342 . S
N85 N86 1.388 . S
N86 Co69 1.993 . S
N86 N85 1.388 . S
N86 C87 1.346 . S
C87 N86 1.346 . S
C87 C88 1.396 . S
C87 C97 1.510 . S
C88 C84 1.401 . S
C88 C87 1.396 . S
C89 C84 1.499 . S
C89 H90 0.959 . S
C89 H91 0.960 . S
C89 H92 0.961 . S
H90 C89 0.959 . S
H91 C89 0.960 . S
H92 C89 0.961 . S
O93 Co68 1.967 . S
O93 C101 1.258 . S
O94 Co69 1.941 . S
O94 C101 1.266 . S
H95 C97 0.959 1_545 S
H96 C97 0.961 . S
C97 C87 1.510 . S
C97 H95 0.959 1_565 S
C97 H96 0.961 . S
C97 H98 0.960 . S
H98 C97 0.960 . S
H99 N79 0.862 1_545 S
O100 Co68 1.920 . S
O100 C73 1.289 . S
C101 O93 1.258 . S
C101 O94 1.266 . S
Co102 O105 1.970 . S
Co102 N119 1.989 . S
Co102 O127 1.967 . S
Co102 O134 1.920 . S
Co103 O106 1.966 . S
Co103 N112 2.022 . S
Co103 N120 1.993 . S
Co103 O128 1.941 . S
C104 O105 1.258 . S
C104 O106 1.263 . S
O105 Co102 1.970 . S
O105 C104 1.258 . S
O106 Co103 1.966 . S
O106 C104 1.263 . S
C107 O108 1.235 . S
C107 O134 1.289 . S
O108 C107 1.235 . S
C109 C111 1.400 . S
C109 N112 1.351 . S
C109 C114 1.501 . S
C110 C111 1.387 1_565 S
C110 N113 1.341 1_565 S
C111 C109 1.400 . S
C111 C110 1.387 1_545 S
N112 Co103 2.022 . S
N112 C109 1.351 . S
N112 N113 1.365 . S
N113 C110 1.341 1_545 S
N113 N112 1.365 . S
N113 H133 0.862 1_545 S
C114 C109 1.501 . S
C114 H115 0.961 . S
C114 H116 0.961 . S
C114 H117 0.960 . S
H115 C114 0.961 . S
H116 C114 0.961 . S
H117 C114 0.960 . S
C118 N119 1.342 . S
C118 C122 1.401 . S
C118 C123 1.499 . S
N119 Co102 1.989 . S
N119 C118 1.342 . S
N119 N120 1.388 . S
N120 Co103 1.993 . S
N120 N119 1.388 . S
N120 C121 1.346 . S
C121 N120 1.346 . S
C121 C122 1.396 . S
C121 C131 1.510 . S
C122 C118 1.401 . S
C122 C121 1.396 . S
C123 C118 1.499 . S
C123 H124 0.959 . S
C123 H125 0.960 . S
C123 H126 0.961 . S
H124 C123 0.959 . S
H125 C123 0.960 . S
H126 C123 0.961 . S
O127 Co102 1.967 . S
O127 C135 1.258 . S
O128 Co103 1.941 . S
O128 C135 1.266 . S
H129 C131 0.959 1_565 S
H130 C131 0.961 . S
C131 C121 1.510 . S
C131 H129 0.959 1_545 S
C131 H130 0.961 . S
C131 H132 0.960 . S
H132 C131 0.960 . S
H133 N113 0.862 1_565 S
O134 Co102 1.920 . S
O134 C107 1.289 . S
C135 O127 1.258 . S
C135 O128 1.266 . S
Co136 O139 1.970 . S
Co136 N153 1.989 . S
Co136 O161 1.967 . S
Co136 O168 1.920 . S
Co137 O140 1.966 . S
Co137 N146 2.022 . S
Co137 N154 1.993 . S
Co137 O162 1.941 . S
C138 O139 1.258 . S
C138 O140 1.263 . S
O139 Co136 1.970 . S
O139 C138 1.258 . S
O140 Co137 1.966 . S
O140 C138 1.263 . S
C141 O142 1.235 . S
C141 O168 1.289 . S
O142 C141 1.235 . S
C143 C145 1.400 . S
C143 N146 1.351 . S
C143 C148 1.501 . S
C144 C145 1.387 1_545 S
C144 N147 1.341 1_545 S
C145 C143 1.400 . S
C145 C144 1.387 1_565 S
N146 Co137 2.022 . S
N146 C143 1.351 . S
N146 N147 1.365 . S
N147 C144 1.341 1_565 S
N147 N146 1.365 . S
N147 H167 0.862 1_565 S
C148 C143 1.501 . S
C148 H149 0.961 . S
C148 H150 0.961 . S
C148 H151 0.960 . S
H149 C148 0.961 . S
H150 C148 0.961 . S
H151 C148 0.960 . S
C152 N153 1.342 . S
C152 C156 1.401 . S
C152 C157 1.499 . S
N153 Co136 1.989 . S
N153 C152 1.342 . S
N153 N154 1.388 . S
N154 Co137 1.993 . S
N154 N153 1.388 . S
N154 C155 1.346 . S
C155 N154 1.346 . S
C155 C156 1.396 . S
C155 C165 1.510 . S
C156 C152 1.401 . S
C156 C155 1.396 . S
C157 C152 1.499 . S
C157 H158 0.959 . S
C157 H159 0.960 . S
C157 H160 0.961 . S
H158 C157 0.959 . S
H159 C157 0.960 . S
H160 C157 0.961 . S
O161 Co136 1.967 . S
O161 C169 1.258 . S
O162 Co137 1.941 . S
O162 C169 1.266 . S
H163 C165 0.959 1_545 S
H164 C165 0.961 . S
C165 C155 1.510 . S
C165 H163 0.959 1_565 S
C165 H164 0.961 . S
C165 H166 0.960 . S
H166 C165 0.960 . S
H167 N147 0.862 1_545 S
O168 Co136 1.920 . S
O168 C141 1.289 . S
C169 O161 1.258 . S
C169 O162 1.266 . S
Co170 O173 1.970 . S
Co170 N187 1.989 . S
Co170 O195 1.967 . S
Co170 O202 1.920 . S
Co171 O174 1.966 . S
Co171 N180 2.022 . S
Co171 N188 1.993 . S
Co171 O196 1.941 . S
C172 O173 1.258 . S
C172 O174 1.263 . S
O173 Co170 1.970 . S
O173 C172 1.258 . S
O174 Co171 1.966 . S
O174 C172 1.263 . S
C175 O176 1.235 . S
C175 O202 1.289 . S
O176 C175 1.235 . S
C177 C179 1.400 . S
C177 N180 1.351 . S
C177 C182 1.501 . S
C178 C179 1.387 1_565 S
C178 N181 1.341 1_565 S
C179 C177 1.400 . S
C179 C178 1.387 1_545 S
N180 Co171 2.022 . S
N180 C177 1.351 . S
N180 N181 1.365 . S
N181 C178 1.341 1_545 S
N181 N180 1.365 . S
N181 H201 0.862 1_545 S
C182 C177 1.501 . S
C182 H183 0.961 . S
C182 H184 0.961 . S
C182 H185 0.960 . S
H183 C182 0.961 . S
H184 C182 0.961 . S
H185 C182 0.960 . S
C186 N187 1.342 . S
C186 C190 1.401 . S
C186 C191 1.499 . S
N187 Co170 1.989 . S
N187 C186 1.342 . S
N187 N188 1.388 . S
N188 Co171 1.993 . S
N188 N187 1.388 . S
N188 C189 1.346 . S
C189 N188 1.346 . S
C189 C190 1.396 . S
C189 C199 1.510 . S
C190 C186 1.401 . S
C190 C189 1.396 . S
C191 C186 1.499 . S
C191 H192 0.959 . S
C191 H193 0.960 . S
C191 H194 0.961 . S
H192 C191 0.959 . S
H193 C191 0.960 . S
H194 C191 0.961 . S
O195 Co170 1.967 . S
O195 C203 1.258 . S
O196 Co171 1.941 . S
O196 C203 1.266 . S
H197 C199 0.959 1_565 S
H198 C199 0.961 . S
C199 C189 1.510 . S
C199 H197 0.959 1_545 S
C199 H198 0.961 . S
C199 H200 0.960 . S
H200 C199 0.960 . S
H201 N181 0.862 1_565 S
O202 Co170 1.920 . S
O202 C175 1.289 . S
C203 O195 1.258 . S
C203 O196 1.266 . S
Co204 O207 1.970 . S
Co204 N221 1.989 . S
Co204 O229 1.967 . S
Co204 O236 1.920 . S
Co205 O208 1.966 . S
Co205 N214 2.022 . S
Co205 N222 1.993 . S
Co205 O230 1.941 . S
C206 O207 1.258 . S
C206 O208 1.263 . S
O207 Co204 1.970 . S
O207 C206 1.258 . S
O208 Co205 1.966 . S
O208 C206 1.263 . S
C209 O210 1.235 . S
C209 O236 1.289 . S
O210 C209 1.235 . S
C211 C213 1.400 . S
C211 N214 1.351 . S
C211 C216 1.501 . S
C212 C213 1.387 1_565 S
C212 N215 1.341 1_565 S
C213 C211 1.400 . S
C213 C212 1.387 1_545 S
N214 Co205 2.022 . S
N214 C211 1.351 . S
N214 N215 1.365 . S
N215 C212 1.341 1_545 S
N215 N214 1.365 . S
N215 H235 0.862 1_545 S
C216 C211 1.501 . S
C216 H217 0.961 . S
C216 H218 0.961 . S
C216 H219 0.960 . S
H217 C216 0.961 . S
H218 C216 0.961 . S
H219 C216 0.960 . S
C220 N221 1.342 . S
C220 C224 1.401 . S
C220 C225 1.499 . S
N221 Co204 1.989 . S
N221 C220 1.342 . S
N221 N222 1.388 . S
N222 Co205 1.993 . S
N222 N221 1.388 . S
N222 C223 1.346 . S
C223 N222 1.346 . S
C223 C224 1.396 . S
C223 C233 1.510 . S
C224 C220 1.401 . S
C224 C223 1.396 . S
C225 C220 1.499 . S
C225 H226 0.959 . S
C225 H227 0.960 . S
C225 H228 0.961 . S
H226 C225 0.959 . S
H227 C225 0.960 . S
H228 C225 0.961 . S
O229 Co204 1.967 . S
O229 C237 1.258 . S
O230 Co205 1.941 . S
O230 C237 1.266 . S
H231 C233 0.959 1_565 S
H232 C233 0.961 . S
C233 C223 1.510 . S
C233 H231 0.959 1_545 S
C233 H232 0.961 . S
C233 H234 0.960 . S
H234 C233 0.960 . S
H235 N215 0.862 1_565 S
O236 Co204 1.920 . S
O236 C209 1.289 . S
C237 O229 1.258 . S
C237 O230 1.266 . S
Co238 O241 1.970 . S
Co238 N255 1.989 . S
Co238 O263 1.967 . S
Co238 O270 1.920 . S
Co239 O242 1.966 . S
Co239 N248 2.022 . S
Co239 N256 1.993 . S
Co239 O264 1.941 . S
C240 O241 1.258 . S
C240 O242 1.263 . S
O241 Co238 1.970 . S
O241 C240 1.258 . S
O242 Co239 1.966 . S
O242 C240 1.263 . S
C243 O244 1.235 . S
C243 O270 1.289 . S
O244 C243 1.235 . S
C245 C247 1.400 . S
C245 N248 1.351 . S
C245 C250 1.501 . S
C246 C247 1.387 1_545 S
C246 N249 1.341 1_545 S
C247 C245 1.400 . S
C247 C246 1.387 1_565 S
N248 Co239 2.022 . S
N248 C245 1.351 . S
N248 N249 1.365 . S
N249 C246 1.341 1_565 S
N249 N248 1.365 . S
N249 H269 0.862 1_565 S
C250 C245 1.501 . S
C250 H251 0.961 . S
C250 H252 0.961 . S
C250 H253 0.960 . S
H251 C250 0.961 . S
H252 C250 0.961 . S
H253 C250 0.960 . S
C254 N255 1.342 . S
C254 C258 1.401 . S
C254 C259 1.499 . S
N255 Co238 1.989 . S
N255 C254 1.342 . S
N255 N256 1.388 . S
N256 Co239 1.993 . S
N256 N255 1.388 . S
N256 C257 1.346 . S
C257 N256 1.346 . S
C257 C258 1.396 . S
C257 C267 1.510 . S
C258 C254 1.401 . S
C258 C257 1.396 . S
C259 C254 1.499 . S
C259 H260 0.959 . S
C259 H261 0.960 . S
C259 H262 0.961 . S
H260 C259 0.959 . S
H261 C259 0.960 . S
H262 C259 0.961 . S
O263 Co238 1.967 . S
O263 C271 1.258 . S
O264 Co239 1.941 . S
O264 C271 1.266 . S
H265 C267 0.959 1_545 S
H266 C267 0.961 . S
C267 C257 1.510 . S
C267 H265 0.959 1_565 S
C267 H266 0.961 . S
C267 H268 0.960 . S
H268 C267 0.960 . S
H269 N249 0.862 1_545 S
O270 Co238 1.920 . S
O270 C243 1.289 . S
C271 O263 1.258 . S
C271 O264 1.266 . S
Co272 O275 1.970 . S
Co272 N289 1.989 . S
Co272 O297 1.967 . S
Co272 O304 1.920 . S
Co273 O276 1.966 . S
Co273 N282 2.022 . S
Co273 N290 1.993 . S
Co273 O298 1.941 . S
C274 O275 1.258 . S
C274 O276 1.263 . S
O275 Co272 1.970 . S
O275 C274 1.258 . S
O276 Co273 1.966 . S
O276 C274 1.263 . S
C277 O278 1.235 . S
C277 O304 1.289 . S
O278 C277 1.235 . S
C279 C281 1.400 . S
C279 N282 1.351 . S
C279 C284 1.501 . S
C280 C281 1.387 . S
C280 N283 1.341 . S
C281 C279 1.400 . S
C281 C280 1.387 . S
N282 Co273 2.022 . S
N282 C279 1.351 . S
N282 N283 1.365 . S
N283 C280 1.341 . S
N283 N282 1.365 . S
N283 H303 0.862 . S
C284 C279 1.501 . S
C284 H285 0.961 . S
C284 H286 0.961 . S
C284 H287 0.960 . S
H285 C284 0.961 . S
H286 C284 0.961 . S
H287 C284 0.960 . S
C288 N289 1.342 . S
C288 C292 1.401 . S
C288 C293 1.499 . S
N289 Co272 1.989 . S
N289 C288 1.342 . S
N289 N290 1.388 . S
N290 Co273 1.993 . S
N290 N289 1.388 . S
N290 C291 1.346 . S
C291 N290 1.346 . S
C291 C292 1.396 . S
C291 C301 1.510 . S
C292 C288 1.401 . S
C292 C291 1.396 . S
C293 C288 1.499 . S
C293 H294 0.959 . S
C293 H295 0.960 . S
C293 H296 0.961 . S
H294 C293 0.959 . S
H295 C293 0.960 . S
H296 C293 0.961 . S
O297 Co272 1.967 . S
O297 C305 1.258 . S
O298 Co273 1.941 . S
O298 C305 1.266 . S
H299 C301 0.959 . S
H300 C301 0.961 . S
C301 C291 1.510 . S
C301 H299 0.959 . S
C301 H300 0.961 . S
C301 H302 0.960 . S
H302 C301 0.960 . S
H303 N283 0.862 . S
O304 Co272 1.920 . S
O304 C277 1.289 . S
C305 O297 1.258 . S
C305 O298 1.266 . S
Co306 O309 1.970 . S
Co306 N323 1.989 . S
Co306 O331 1.967 . S
Co306 O338 1.920 . S
Co307 O310 1.966 . S
Co307 N316 2.022 . S
Co307 N324 1.993 . S
Co307 O332 1.941 . S
C308 O309 1.258 . S
C308 O310 1.263 . S
O309 Co306 1.970 . S
O309 C308 1.258 . S
O310 Co307 1.966 . S
O310 C308 1.263 . S
C311 O312 1.235 . S
C311 O338 1.289 . S
O312 C311 1.235 . S
C313 C315 1.400 . S
C313 N316 1.351 . S
C313 C318 1.501 . S
C314 C315 1.387 . S
C314 N317 1.341 . S
C315 C313 1.400 . S
C315 C314 1.387 . S
N316 Co307 2.022 . S
N316 C313 1.351 . S
N316 N317 1.365 . S
N317 C314 1.341 . S
N317 N316 1.365 . S
N317 H337 0.862 . S
C318 C313 1.501 . S
C318 H319 0.961 . S
C318 H320 0.961 . S
C318 H321 0.960 . S
H319 C318 0.961 . S
H320 C318 0.961 . S
H321 C318 0.960 . S
C322 N323 1.342 . S
C322 C326 1.401 . S
C322 C327 1.499 . S
N323 Co306 1.989 . S
N323 C322 1.342 . S
N323 N324 1.388 . S
N324 Co307 1.993 . S
N324 N323 1.388 . S
N324 C325 1.346 . S
C325 N324 1.346 . S
C325 C326 1.396 . S
C325 C335 1.510 . S
C326 C322 1.401 . S
C326 C325 1.396 . S
C327 C322 1.499 . S
C327 H328 0.959 . S
C327 H329 0.960 . S
C327 H330 0.961 . S
H328 C327 0.959 . S
H329 C327 0.960 . S
H330 C327 0.961 . S
O331 Co306 1.967 . S
O331 C339 1.258 . S
O332 Co307 1.941 . S
O332 C339 1.266 . S
H333 C335 0.959 . S
H334 C335 0.961 . S
C335 C325 1.510 . S
C335 H333 0.959 . S
C335 H334 0.961 . S
C335 H336 0.960 . S
H336 C335 0.960 . S
H337 N317 0.862 . S
O338 Co306 1.920 . S
O338 C311 1.289 . S
C339 O331 1.258 . S
C339 O332 1.266 . S
Co340 O343 1.970 . S
Co340 N357 1.989 . S
Co340 O365 1.967 . S
Co340 O372 1.920 . S
Co341 O344 1.966 . S
Co341 N350 2.022 . S
Co341 N358 1.993 . S
Co341 O366 1.941 . S
C342 O343 1.258 . S
C342 O344 1.263 . S
O343 Co340 1.970 . S
O343 C342 1.258 . S
O344 Co341 1.966 . S
O344 C342 1.263 . S
C345 O346 1.235 . S
C345 O372 1.289 . S
O346 C345 1.235 . S
C347 C349 1.400 . S
C347 N350 1.351 . S
C347 C352 1.501 . S
C348 C349 1.387 . S
C348 N351 1.341 . S
C349 C347 1.400 . S
C349 C348 1.387 . S
N350 Co341 2.022 . S
N350 C347 1.351 . S
N350 N351 1.365 . S
N351 C348 1.341 . S
N351 N350 1.365 . S
N351 H371 0.862 . S
C352 C347 1.501 . S
C352 H353 0.961 . S
C352 H354 0.961 . S
C352 H355 0.960 . S
H353 C352 0.961 . S
H354 C352 0.961 . S
H355 C352 0.960 . S
C356 N357 1.342 . S
C356 C360 1.401 . S
C356 C361 1.499 . S
N357 Co340 1.989 . S
N357 C356 1.342 . S
N357 N358 1.388 . S
N358 Co341 1.993 . S
N358 N357 1.388 . S
N358 C359 1.346 . S
C359 N358 1.346 . S
C359 C360 1.396 . S
C359 C369 1.510 . S
C360 C356 1.401 . S
C360 C359 1.396 . S
C361 C356 1.499 . S
C361 H362 0.959 . S
C361 H363 0.960 . S
C361 H364 0.961 . S
H362 C361 0.959 . S
H363 C361 0.960 . S
H364 C361 0.961 . S
O365 Co340 1.967 . S
O365 C373 1.258 . S
O366 Co341 1.941 . S
O366 C373 1.266 . S
H367 C369 0.959 . S
H368 C369 0.961 . S
C369 C359 1.510 . S
C369 H367 0.959 . S
C369 H368 0.961 . S
C369 H370 0.960 . S
H370 C369 0.960 . S
H371 N351 0.862 . S
O372 Co340 1.920 . S
O372 C345 1.289 . S
C373 O365 1.258 . S
C373 O366 1.266 . S
Co374 O377 1.970 . S
Co374 N391 1.989 . S
Co374 O399 1.967 . S
Co374 O406 1.920 . S
Co375 O378 1.966 . S
Co375 N384 2.022 . S
Co375 N392 1.993 . S
Co375 O400 1.941 . S
C376 O377 1.258 . S
C376 O378 1.263 . S
O377 Co374 1.970 . S
O377 C376 1.258 . S
O378 Co375 1.966 . S
O378 C376 1.263 . S
C379 O380 1.235 . S
C379 O406 1.289 . S
O380 C379 1.235 . S
C381 C383 1.400 . S
C381 N384 1.351 . S
C381 C386 1.501 . S
C382 C383 1.387 . S
C382 N385 1.341 . S
C383 C381 1.400 . S
C383 C382 1.387 . S
N384 Co375 2.022 . S
N384 C381 1.351 . S
N384 N385 1.365 . S
N385 C382 1.341 . S
N385 N384 1.365 . S
N385 H405 0.862 . S
C386 C381 1.501 . S
C386 H387 0.961 . S
C386 H388 0.961 . S
C386 H389 0.960 . S
H387 C386 0.961 . S
H388 C386 0.961 . S
H389 C386 0.960 . S
C390 N391 1.342 . S
C390 C394 1.401 . S
C390 C395 1.499 . S
N391 Co374 1.989 . S
N391 C390 1.342 . S
N391 N392 1.388 . S
N392 Co375 1.993 . S
N392 N391 1.388 . S
N392 C393 1.346 . S
C393 N392 1.346 . S
C393 C394 1.396 . S
C393 C403 1.510 . S
C394 C390 1.401 . S
C394 C393 1.396 . S
C395 C390 1.499 . S
C395 H396 0.959 . S
C395 H397 0.960 . S
C395 H398 0.961 . S
H396 C395 0.959 . S
H397 C395 0.960 . S
H398 C395 0.961 . S
O399 Co374 1.967 . S
O399 C407 1.258 . S
O400 Co375 1.941 . S
O400 C407 1.266 . S
H401 C403 0.959 . S
H402 C403 0.961 . S
C403 C393 1.510 . S
C403 H401 0.959 . S
C403 H402 0.961 . S
C403 H404 0.960 . S
H404 C403 0.960 . S
H405 N385 0.862 . S
O406 Co374 1.920 . S
O406 C379 1.289 . S
C407 O399 1.258 . S
C407 O400 1.266 . S
Co408 O411 1.970 . S
Co408 N425 1.989 . S
Co408 O433 1.967 . S
Co408 O440 1.920 . S
Co409 O412 1.966 . S
Co409 N418 2.022 . S
Co409 N426 1.993 . S
Co409 O434 1.941 . S
C410 O411 1.258 . S
C410 O412 1.263 . S
O411 Co408 1.970 . S
O411 C410 1.258 . S
O412 Co409 1.966 . S
O412 C410 1.263 . S
C413 O414 1.235 . S
C413 O440 1.289 . S
O414 C413 1.235 . S
C415 C417 1.400 . S
C415 N418 1.351 . S
C415 C420 1.501 . S
C416 C417 1.387 . S
C416 N419 1.341 . S
C417 C415 1.400 . S
C417 C416 1.387 . S
N418 Co409 2.022 . S
N418 C415 1.351 . S
N418 N419 1.365 . S
N419 C416 1.341 . S
N419 N418 1.365 . S
N419 H439 0.862 . S
C420 C415 1.501 . S
C420 H421 0.961 . S
C420 H422 0.961 . S
C420 H423 0.960 . S
H421 C420 0.961 . S
H422 C420 0.961 . S
H423 C420 0.960 . S
C424 N425 1.342 . S
C424 C428 1.401 . S
C424 C429 1.499 . S
N425 Co408 1.989 . S
N425 C424 1.342 . S
N425 N426 1.388 . S
N426 Co409 1.993 . S
N426 N425 1.388 . S
N426 C427 1.346 . S
C427 N426 1.346 . S
C427 C428 1.396 . S
C427 C437 1.510 . S
C428 C424 1.401 . S
C428 C427 1.396 . S
C429 C424 1.499 . S
C429 H430 0.959 . S
C429 H431 0.960 . S
C429 H432 0.961 . S
H430 C429 0.959 . S
H431 C429 0.960 . S
H432 C429 0.961 . S
O433 Co408 1.967 . S
O433 C441 1.258 . S
O434 Co409 1.941 . S
O434 C441 1.266 . S
H435 C437 0.959 . S
H436 C437 0.961 . S
C437 C427 1.510 . S
C437 H435 0.959 . S
C437 H436 0.961 . S
C437 H438 0.960 . S
H438 C437 0.960 . S
H439 N419 0.862 . S
O440 Co408 1.920 . S
O440 C413 1.289 . S
C441 O433 1.258 . S
C441 O434 1.266 . S
Co442 O445 1.970 . S
Co442 N459 1.989 . S
Co442 O467 1.967 . S
Co442 O474 1.920 . S
Co443 O446 1.966 . S
Co443 N452 2.022 . S
Co443 N460 1.993 . S
Co443 O468 1.941 . S
C444 O445 1.258 . S
C444 O446 1.263 . S
O445 Co442 1.970 . S
O445 C444 1.258 . S
O446 Co443 1.966 . S
O446 C444 1.263 . S
C447 O448 1.235 . S
C447 O474 1.289 . S
O448 C447 1.235 . S
C449 C451 1.400 . S
C449 N452 1.351 . S
C449 C454 1.501 . S
C450 C451 1.387 . S
C450 N453 1.341 . S
C451 C449 1.400 . S
C451 C450 1.387 . S
N452 Co443 2.022 . S
N452 C449 1.351 . S
N452 N453 1.365 . S
N453 C450 1.341 . S
N453 N452 1.365 . S
N453 H473 0.862 . S
C454 C449 1.501 . S
C454 H455 0.961 . S
C454 H456 0.961 . S
C454 H457 0.960 . S
H455 C454 0.961 . S
H456 C454 0.961 . S
H457 C454 0.960 . S
C458 N459 1.342 . S
C458 C462 1.401 . S
C458 C463 1.499 . S
N459 Co442 1.989 . S
N459 C458 1.342 . S
N459 N460 1.388 . S
N460 Co443 1.993 . S
N460 N459 1.388 . S
N460 C461 1.346 . S
C461 N460 1.346 . S
C461 C462 1.396 . S
C461 C471 1.510 . S
C462 C458 1.401 . S
C462 C461 1.396 . S
C463 C458 1.499 . S
C463 H464 0.959 . S
C463 H465 0.960 . S
C463 H466 0.961 . S
H464 C463 0.959 . S
H465 C463 0.960 . S
H466 C463 0.961 . S
O467 Co442 1.967 . S
O467 C475 1.258 . S
O468 Co443 1.941 . S
O468 C475 1.266 . S
H469 C471 0.959 . S
H470 C471 0.961 . S
C471 C461 1.510 . S
C471 H469 0.959 . S
C471 H470 0.961 . S
C471 H472 0.960 . S
H472 C471 0.960 . S
H473 N453 0.862 . S
O474 Co442 1.920 . S
O474 C447 1.289 . S
C475 O467 1.258 . S
C475 O468 1.266 . S
Co476 O479 1.970 . S
Co476 N493 1.989 . S
Co476 O501 1.967 . S
Co476 O508 1.920 . S
Co477 O480 1.966 . S
Co477 N486 2.022 . S
Co477 N494 1.993 . S
Co477 O502 1.941 . S
C478 O479 1.258 . S
C478 O480 1.263 . S
O479 Co476 1.970 . S
O479 C478 1.258 . S
O480 Co477 1.966 . S
O480 C478 1.263 . S
C481 O482 1.235 . S
C481 O508 1.289 . S
O482 C481 1.235 . S
C483 C485 1.400 . S
C483 N486 1.351 . S
C483 C488 1.501 . S
C484 C485 1.387 . S
C484 N487 1.341 . S
C485 C483 1.400 . S
C485 C484 1.387 . S
N486 Co477 2.022 . S
N486 C483 1.351 . S
N486 N487 1.365 . S
N487 C484 1.341 . S
N487 N486 1.365 . S
N487 H507 0.862 . S
C488 C483 1.501 . S
C488 H489 0.961 . S
C488 H490 0.961 . S
C488 H491 0.960 . S
H489 C488 0.961 . S
H490 C488 0.961 . S
H491 C488 0.960 . S
C492 N493 1.342 . S
C492 C496 1.401 . S
C492 C497 1.499 . S
N493 Co476 1.989 . S
N493 C492 1.342 . S
N493 N494 1.388 . S
N494 Co477 1.993 . S
N494 N493 1.388 . S
N494 C495 1.346 . S
C495 N494 1.346 . S
C495 C496 1.396 . S
C495 C505 1.510 . S
C496 C492 1.401 . S
C496 C495 1.396 . S
C497 C492 1.499 . S
C497 H498 0.959 . S
C497 H499 0.960 . S
C497 H500 0.961 . S
H498 C497 0.959 . S
H499 C497 0.960 . S
H500 C497 0.961 . S
O501 Co476 1.967 . S
O501 C509 1.258 . S
O502 Co477 1.941 . S
O502 C509 1.266 . S
H503 C505 0.959 . S
H504 C505 0.961 . S
C505 C495 1.510 . S
C505 H503 0.959 . S
C505 H504 0.961 . S
C505 H506 0.960 . S
H506 C505 0.960 . S
H507 N487 0.862 . S
O508 Co476 1.920 . S
O508 C481 1.289 . S
C509 O501 1.258 . S
C509 O502 1.266 . S
Co510 O513 1.970 . S
Co510 N527 1.989 . S
Co510 O535 1.967 . S
Co510 O542 1.920 . S
Co511 O514 1.966 . S
Co511 N520 2.022 . S
Co511 N528 1.993 . S
Co511 O536 1.941 . S
C512 O513 1.258 . S
C512 O514 1.263 . S
O513 Co510 1.970 . S
O513 C512 1.258 . S
O514 Co511 1.966 . S
O514 C512 1.263 . S
C515 O516 1.235 . S
C515 O542 1.289 . S
O516 C515 1.235 . S
C517 C519 1.400 . S
C517 N520 1.351 . S
C517 C522 1.501 . S
C518 C519 1.387 . S
C518 N521 1.341 . S
C519 C517 1.400 . S
C519 C518 1.387 . S
N520 Co511 2.022 . S
N520 C517 1.351 . S
N520 N521 1.365 . S
N521 C518 1.341 . S
N521 N520 1.365 . S
N521 H541 0.862 . S
C522 C517 1.501 . S
C522 H523 0.961 . S
C522 H524 0.961 . S
C522 H525 0.960 . S
H523 C522 0.961 . S
H524 C522 0.961 . S
H525 C522 0.960 . S
C526 N527 1.342 . S
C526 C530 1.401 . S
C526 C531 1.499 . S
N527 Co510 1.989 . S
N527 C526 1.342 . S
N527 N528 1.388 . S
N528 Co511 1.993 . S
N528 N527 1.388 . S
N528 C529 1.346 . S
C529 N528 1.346 . S
C529 C530 1.396 . S
C529 C539 1.510 . S
C530 C526 1.401 . S
C530 C529 1.396 . S
C531 C526 1.499 . S
C531 H532 0.959 . S
C531 H533 0.960 . S
C531 H534 0.961 . S
H532 C531 0.959 . S
H533 C531 0.960 . S
H534 C531 0.961 . S
O535 Co510 1.967 . S
O535 C543 1.258 . S
O536 Co511 1.941 . S
O536 C543 1.266 . S
H537 C539 0.959 . S
H538 C539 0.961 . S
C539 C529 1.510 . S
C539 H537 0.959 . S
C539 H538 0.961 . S
C539 H540 0.960 . S
H540 C539 0.960 . S
H541 N521 0.862 . S
O542 Co510 1.920 . S
O542 C515 1.289 . S
C543 O535 1.258 . S
C543 O536 1.266 . S
C544 C545 1.369 . S
C544 C546 1.419 1_655 S
C544 H548 0.930 . S
C545 C544 1.369 . S
C545 C554 1.429 . S
C546 C544 1.419 1_455 S
C546 C547 1.363 . S
C546 H549 0.929 . S
C547 C546 1.363 . S
C547 C553 1.428 . S
H548 C544 0.930 . S
H549 C546 0.929 . S
S550 N551 1.613 . S
S550 N552 1.610 1_655 S
N551 S550 1.613 . S
N551 C554 1.350 . S
N552 S550 1.610 1_455 S
N552 C553 1.351 . S
C553 C547 1.428 . S
C553 N552 1.351 . S
C553 C554 1.434 1_455 S
C554 C545 1.429 . S
C554 N551 1.350 . S
C554 C553 1.434 1_655 S
C555 C556 1.369 . S
C555 C557 1.419 . S
C555 H559 0.930 . S
C556 C555 1.369 . S
C556 C565 1.429 . S
C557 C555 1.419 . S
C557 C558 1.363 . S
C557 H560 0.929 . S
C558 C557 1.363 . S
C558 C564 1.428 . S
H559 C555 0.930 . S
H560 C557 0.929 . S
S561 N562 1.613 1_545 S
S561 N563 1.610 1_545 S
N562 S561 1.613 1_565 S
N562 C565 1.350 . S
N563 S561 1.610 1_565 S
N563 C564 1.351 . S
C564 C558 1.428 . S
C564 N563 1.351 . S
C564 C565 1.434 . S
C565 C556 1.429 . S
C565 N562 1.350 . S
C565 C564 1.434 . S
C566 C567 1.369 1_455 S
C566 C568 1.419 . S
C566 H570 0.930 . S
C567 C566 1.369 1_655 S
C567 C576 1.429 . S
C568 C566 1.419 . S
C568 C569 1.363 . S
C568 H571 0.929 . S
C569 C568 1.363 . S
C569 C575 1.428 1_455 S
H570 C566 0.930 . S
H571 C568 0.929 . S
S572 N573 1.613 . S
S572 N574 1.610 . S
N573 S572 1.613 . S
N573 C576 1.350 . S
N574 S572 1.610 . S
N574 C575 1.351 . S
C575 C569 1.428 1_655 S
C575 N574 1.351 . S
C575 C576 1.434 . S
C576 C567 1.429 . S
C576 N573 1.350 . S
C576 C575 1.434 . S
C577 C578 1.369 . S
C577 C579 1.419 . S
C577 H581 0.930 . S
C578 C577 1.369 . S
C578 C587 1.429 . S
C579 C577 1.419 . S
C579 C580 1.363 . S
C579 H582 0.929 . S
C580 C579 1.363 . S
C580 C586 1.428 . S
H581 C577 0.930 . S
H582 C579 0.929 . S
S583 N584 1.613 . S
S583 N585 1.610 . S
N584 S583 1.613 . S
N584 C587 1.350 . S
N585 S583 1.610 . S
N585 C586 1.351 . S
C586 C580 1.428 . S
C586 N585 1.351 . S
C586 C587 1.434 . S
C587 C578 1.429 . S
C587 N584 1.350 . S
C587 C586 1.434 . S
C588 C589 1.369 . S
C588 C590 1.419 . S
C588 H592 0.930 . S
C589 C588 1.369 . S
C589 C598 1.429 . S
C590 C588 1.419 . S
C590 C591 1.363 . S
C590 H593 0.929 . S
C591 C590 1.363 . S
C591 C597 1.428 . S
H592 C588 0.930 . S
H593 C590 0.929 . S
S594 N595 1.613 . S
S594 N596 1.610 . S
N595 S594 1.613 . S
N595 C598 1.350 . S
N596 S594 1.610 . S
N596 C597 1.351 . S
C597 C591 1.428 . S
C597 N596 1.351 . S
C597 C598 1.434 . S
C598 C589 1.429 . S
C598 N595 1.350 . S
C598 C597 1.434 . S
C599 C600 1.369 1_455 S
C599 C601 1.419 . S
C599 H603 0.930 . S
C600 C599 1.369 1_655 S
C600 C609 1.429 . S
C601 C599 1.419 . S
C601 C602 1.363 . S
C601 H604 0.929 . S
C602 C601 1.363 . S
C602 C608 1.428 1_455 S
H603 C599 0.930 . S
H604 C601 0.929 . S
S605 N606 1.613 . S
S605 N607 1.610 . S
N606 S605 1.613 . S
N606 C609 1.350 . S
N607 S605 1.610 . S
N607 C608 1.351 . S
C608 C602 1.428 1_655 S
C608 N607 1.351 . S
C608 C609 1.434 . S
C609 C600 1.429 . S
C609 N606 1.350 . S
C609 C608 1.434 . S
C610 C611 1.369 . S
C610 C612 1.419 . S
C610 H614 0.930 . S
C611 C610 1.369 . S
C611 C620 1.429 . S
C612 C610 1.419 . S
C612 C613 1.363 . S
C612 H615 0.929 . S
C613 C612 1.363 . S
C613 C619 1.428 . S
H614 C610 0.930 . S
H615 C612 0.929 . S
S616 N617 1.613 . S
S616 N618 1.610 . S
N617 S616 1.613 . S
N617 C620 1.350 . S
N618 S616 1.610 . S
N618 C619 1.351 . S
C619 C613 1.428 . S
C619 N618 1.351 . S
C619 C620 1.434 . S
C620 C611 1.429 . S
C620 N617 1.350 . S
C620 C619 1.434 . S
C621 C622 1.369 . S
C621 C623 1.419 . S
C621 H625 0.930 . S
C622 C621 1.369 . S
C622 C631 1.429 1_655 S
C623 C621 1.419 . S
C623 C624 1.363 1_655 S
C623 H626 0.929 . S
C624 C623 1.363 1_455 S
C624 C630 1.428 . S
H625 C621 0.930 . S
H626 C623 0.929 . S
S627 N628 1.613 . S
S627 N629 1.610 . S
N628 S627 1.613 . S
N628 C631 1.350 . S
N629 S627 1.610 . S
N629 C630 1.351 . S
C630 C624 1.428 . S
C630 N629 1.351 . S
C630 C631 1.434 . S
C631 C622 1.429 1_455 S
C631 N628 1.350 . S
C631 C630 1.434 . S
C632 C633 1.369 . S
C632 C634 1.419 . S
C632 H636 0.930 . S
C633 C632 1.369 . S
C633 C642 1.429 . S
C634 C632 1.419 . S
C634 C635 1.363 . S
C634 H637 0.929 . S
C635 C634 1.363 . S
C635 C641 1.428 . S
H636 C632 0.930 . S
H637 C634 0.929 . S
S638 N639 1.613 . S
S638 N640 1.610 . S
N639 S638 1.613 . S
N639 C642 1.350 . S
N640 S638 1.610 . S
N640 C641 1.351 . S
C641 C635 1.428 . S
C641 N640 1.351 . S
C641 C642 1.434 . S
C642 C633 1.429 . S
C642 N639 1.350 . S
C642 C641 1.434 . S
C643 C644 1.369 . S
C643 C645 1.419 . S
C643 H647 0.930 . S
C644 C643 1.369 . S
C644 C653 1.429 . S
C645 C643 1.419 . S
C645 C646 1.363 . S
C645 H648 0.929 . S
C646 C645 1.363 . S
C646 C652 1.428 . S
H647 C643 0.930 . S
H648 C645 0.929 . S
S649 N650 1.613 . S
S649 N651 1.610 . S
N650 S649 1.613 . S
N650 C653 1.350 . S
N651 S649 1.610 . S
N651 C652 1.351 . S
C652 C646 1.428 . S
C652 N651 1.351 . S
C652 C653 1.434 . S
C653 C644 1.429 . S
C653 N650 1.350 . S
C653 C652 1.434 . S
C654 C655 1.369 . S
C654 C656 1.419 . S
C654 H658 0.930 . S
C655 C654 1.369 . S
C655 C664 1.429 . S
C656 C654 1.419 . S
C656 C657 1.363 . S
C656 H659 0.929 . S
C657 C656 1.363 . S
C657 C663 1.428 . S
H658 C654 0.930 . S
H659 C656 0.929 . S
S660 N661 1.613 . S
S660 N662 1.610 . S
N661 S660 1.613 . S
N661 C664 1.350 . S
N662 S660 1.610 . S
N662 C663 1.351 . S
C663 C657 1.428 . S
C663 N662 1.351 . S
C663 C664 1.434 . S
C664 C655 1.429 . S
C664 N661 1.350 . S
C664 C663 1.434 . S
C665 C666 1.369 . S
C665 C667 1.419 . S
C665 H669 0.930 . S
C666 C665 1.369 . S
C666 C675 1.429 . S
C667 C665 1.419 . S
C667 C668 1.363 . S
C667 H670 0.929 . S
C668 C667 1.363 . S
C668 C674 1.428 . S
H669 C665 0.930 . S
H670 C667 0.929 . S
S671 N672 1.613 . S
S671 N673 1.610 . S
N672 S671 1.613 . S
N672 C675 1.350 . S
N673 S671 1.610 . S
N673 C674 1.351 . S
C674 C668 1.428 . S
C674 N673 1.351 . S
C674 C675 1.434 . S
C675 C666 1.429 . S
C675 N672 1.350 . S
C675 C674 1.434 . S
C676 C677 1.369 . S
C676 C678 1.419 . S
C676 H680 0.930 . S
C677 C676 1.369 . S
C677 C686 1.429 . S
C678 C676 1.419 . S
C678 C679 1.363 . S
C678 H681 0.929 . S
C679 C678 1.363 . S
C679 C685 1.428 . S
H680 C676 0.930 . S
H681 C678 0.929 . S
S682 N683 1.613 . S
S682 N684 1.610 . S
N683 S682 1.613 . S
N683 C686 1.350 . S
N684 S682 1.610 . S
N684 C685 1.351 . S
C685 C679 1.428 . S
C685 N684 1.351 . S
C685 C686 1.434 . S
C686 C677 1.429 . S
C686 N683 1.350 . S
C686 C685 1.434 . S
C687 C688 1.369 . S
C687 C689 1.419 . S
C687 H691 0.930 . S
C688 C687 1.369 . S
C688 C697 1.429 . S
C689 C687 1.419 . S
C689 C690 1.363 . S
C689 H692 0.929 . S
C690 C689 1.363 . S
C690 C696 1.428 . S
H691 C687 0.930 . S
H692 C689 0.929 . S
S693 N694 1.613 . S
S693 N695 1.610 . S
N694 S693 1.613 . S
N694 C697 1.350 . S
N695 S693 1.610 . S
N695 C696 1.351 . S
C696 C690 1.428 . S
C696 N695 1.351 . S
C696 C697 1.434 . S
C697 C688 1.429 . S
C697 N694 1.350 . S
C697 C696 1.434 . S
C698 C699 1.369 . S
C698 C700 1.419 . S
C698 H702 0.930 . S
C699 C698 1.369 . S
C699 C708 1.429 . S
C700 C698 1.419 . S
C700 C701 1.363 . S
C700 H703 0.929 . S
C701 C700 1.363 . S
C701 C707 1.428 . S
H702 C698 0.930 . S
H703 C700 0.929 . S
S704 N705 1.613 . S
S704 N706 1.610 . S
N705 S704 1.613 . S
N705 C708 1.350 . S
N706 S704 1.610 . S
N706 C707 1.351 . S
C707 C701 1.428 . S
C707 N706 1.351 . S
C707 C708 1.434 . S
C708 C699 1.429 . S
C708 N705 1.350 . S
C708 C707 1.434 . S
C709 C710 1.369 . S
C709 C711 1.419 . S
C709 H713 0.930 . S
C710 C709 1.369 . S
C710 C719 1.429 . S
C711 C709 1.419 . S
C711 C712 1.363 . S
C711 H714 0.929 . S
C712 C711 1.363 . S
C712 C718 1.428 . S
H713 C709 0.930 . S
H714 C711 0.929 . S
S715 N716 1.613 . S
S715 N717 1.610 . S
N716 S715 1.613 . S
N716 C719 1.350 . S
N717 S715 1.610 . S
N717 C718 1.351 . S
C718 C712 1.428 . S
C718 N717 1.351 . S
C718 C719 1.434 . S
C719 C710 1.429 . S
C719 N716 1.350 . S
C719 C718 1.434 . S
C720 C721 1.364 1_665 S
C720 C722 1.423 . S
C720 H724 0.931 . S
C721 C720 1.364 1_445 S
C721 C730 1.429 . S
C722 C720 1.423 . S
C722 C723 1.363 . S
C722 H725 0.929 . S
C723 C722 1.363 . S
C723 C729 1.425 1_665 S
H724 C720 0.931 . S
H725 C722 0.929 . S
S726 N727 1.613 . S
S726 N728 1.610 . S
N727 S726 1.613 . S
N727 C730 1.350 . S
N728 S726 1.610 . S
N728 C729 1.351 . S
C729 C723 1.425 1_445 S
C729 N728 1.351 . S
C729 C730 1.437 . S
C730 C721 1.429 . S
C730 N727 1.350 . S
C730 C729 1.437 . S
C731 C732 1.369 . S
C731 C733 1.419 . S
C731 H735 0.930 . S
C732 C731 1.369 . S
C732 C741 1.429 1_565 S
C733 C731 1.419 . S
C733 C734 1.363 1_565 S
C733 H736 0.929 . S
C734 C733 1.363 1_545 S
C734 C740 1.428 . S
H735 C731 0.930 . S
H736 C733 0.929 . S
S737 N738 1.613 . S
S737 N739 1.610 . S
N738 S737 1.613 . S
N738 C741 1.350 . S
N739 S737 1.610 . S
N739 C740 1.351 . S
C740 C734 1.428 . S
C740 N739 1.351 . S
C740 C741 1.434 . S
C741 C732 1.429 1_545 S
C741 N738 1.350 . S
C741 C740 1.434 . S
C742 C743 1.369 . S
C742 C744 1.419 1_556 S
C742 H746 0.930 . S
C743 C742 1.369 . S
C743 C752 1.429 1_545 S
C744 C742 1.419 1_554 S
C744 C745 1.363 1_545 S
C744 H747 0.929 . S
C745 C744 1.363 1_565 S
C745 C751 1.428 . S
H746 C742 0.930 . S
H747 C744 0.929 . S
S748 N749 1.613 1_554 S
S748 N750 1.610 . S
N749 S748 1.613 1_556 S
N749 C752 1.350 . S
N750 S748 1.610 . S
N750 C751 1.351 . S
C751 C745 1.428 . S
C751 N750 1.351 . S
C751 C752 1.434 1_554 S
C752 C743 1.429 1_565 S
C752 N749 1.350 . S
C752 C751 1.434 1_556 S
C753 C754 1.369 1_556 S
C753 C755 1.419 . S
C753 H757 0.930 . S
C754 C753 1.369 1_554 S
C754 C763 1.429 1_645 S
C755 C753 1.419 . S
C755 C756 1.363 1_645 S
C755 H758 0.929 . S
C756 C755 1.363 1_465 S
C756 C762 1.428 1_556 S
H757 C753 0.930 . S
H758 C755 0.929 . S
S759 N760 1.613 . S
S759 N761 1.610 . S
N760 S759 1.613 . S
N760 C763 1.350 . S
N761 S759 1.610 . S
N761 C762 1.351 . S
C762 C756 1.428 1_554 S
C762 N761 1.351 . S
C762 C763 1.434 . S
C763 C754 1.429 1_465 S
C763 N760 1.350 . S
C763 C762 1.434 . S
C764 C765 1.369 . S
C764 C766 1.419 . S
C764 H768 0.930 . S
C765 C764 1.369 . S
C765 C774 1.429 . S
C766 C764 1.419 . S
C766 C767 1.363 . S
C766 H769 0.929 . S
C767 C766 1.363 . S
C767 C773 1.428 . S
H768 C764 0.930 . S
H769 C766 0.929 . S
S770 N771 1.613 . S
S770 N772 1.610 . S
N771 S770 1.613 . S
N771 C774 1.350 . S
N772 S770 1.610 . S
N772 C773 1.351 . S
C773 C767 1.428 . S
C773 N772 1.351 . S
C773 C774 1.434 . S
C774 C765 1.429 . S
C774 N771 1.350 . S
C774 C773 1.434 . S
C775 C776 1.369 . S
C775 C777 1.419 . S
C775 H779 0.930 . S
C776 C775 1.369 . S
C776 C785 1.429 1_455 S
C777 C775 1.419 . S
C777 C778 1.363 1_455 S
C777 H780 0.929 . S
C778 C777 1.363 1_655 S
C778 C784 1.428 . S
H779 C775 0.930 . S
H780 C777 0.929 . S
S781 N782 1.613 . S
S781 N783 1.610 . S
N782 S781 1.613 . S
N782 C785 1.350 . S
N783 S781 1.610 . S
N783 C784 1.351 . S
C784 C778 1.428 . S
C784 N783 1.351 . S
C784 C785 1.434 . S
C785 C776 1.429 1_655 S
C785 N782 1.350 . S
C785 C784 1.434 . S
C786 C787 1.369 . S
C786 C788 1.419 1_554 S
C786 H790 0.930 . S
C787 C786 1.369 . S
C787 C796 1.429 1_455 S
C788 C786 1.419 1_556 S
C788 C789 1.363 1_455 S
C788 H791 0.929 . S
C789 C788 1.363 1_655 S
C789 C795 1.428 . S
H790 C786 0.930 . S
H791 C788 0.929 . S
S792 N793 1.613 . S
S792 N794 1.598 1_554 S
N793 S792 1.613 . S
N793 C796 1.350 . S
N794 S792 1.598 1_556 S
N794 C795 1.352 . S
C795 C789 1.428 . S
C795 N794 1.352 . S
C795 C796 1.434 1_556 S
C796 C787 1.429 1_655 S
C796 N793 1.350 . S
C796 C795 1.434 1_554 S
C797 C798 1.369 . S
C797 C799 1.419 . S
C797 H801 0.930 . S
C798 C797 1.369 . S
C798 C807 1.429 1_556 S
C799 C797 1.419 . S
C799 C800 1.363 1_556 S
C799 H802 0.929 . S
C800 C799 1.363 1_554 S
C800 C806 1.428 . S
H801 C797 0.930 . S
H802 C799 0.929 . S
S803 N804 1.613 . S
S803 N805 1.610 . S
N804 S803 1.613 . S
N804 C807 1.350 . S
N805 S803 1.610 . S
N805 C806 1.351 . S
C806 C800 1.428 . S
C806 N805 1.351 . S
C806 C807 1.434 . S
C807 C798 1.429 1_554 S
C807 N804 1.350 . S
C807 C806 1.434 . S
C808 C809 1.369 1_565 S
C808 C810 1.419 . S
C808 H812 0.930 . S
C809 C808 1.369 1_545 S
C809 C818 1.429 . S
C810 C808 1.419 . S
C810 C811 1.363 . S
C810 H813 0.929 . S
C811 C810 1.363 . S
C811 C817 1.428 1_565 S
H812 C808 0.930 . S
H813 C810 0.929 . S
S814 N815 1.613 . S
S814 N816 1.610 . S
N815 S814 1.613 . S
N815 C818 1.350 . S
N816 S814 1.610 . S
N816 C817 1.351 . S
C817 C811 1.428 1_545 S
C817 N816 1.351 . S
C817 C818 1.434 . S
C818 C809 1.429 . S
C818 N815 1.350 . S
C818 C817 1.434 . S
C819 C820 1.369 . S
C819 C821 1.419 1_545 S
C819 H823 0.930 . S
C820 C819 1.369 . S
C820 C829 1.429 . S
C821 C819 1.419 1_565 S
C821 C822 1.363 . S
C821 H824 0.929 . S
C822 C821 1.363 . S
C822 C828 1.428 . S
H823 C819 0.930 . S
H824 C821 0.929 . S
S825 N826 1.613 . S
S825 N827 1.610 1_545 S
N826 S825 1.613 . S
N826 C829 1.350 . S
N827 S825 1.610 1_565 S
N827 C828 1.351 . S
C828 C822 1.428 . S
C828 N827 1.351 . S
C828 C829 1.434 1_565 S
C829 C820 1.429 . S
C829 N826 1.350 . S
C829 C828 1.434 1_545 S
C830 C831 1.369 1_565 S
C830 C832 1.419 . S
C830 H834 0.930 . S
C831 C830 1.369 1_545 S
C831 C840 1.429 . S
C832 C830 1.419 . S
C832 C833 1.363 . S
C832 H835 0.929 . S
C833 C832 1.363 . S
C833 C839 1.428 1_565 S
H834 C830 0.930 . S
H835 C832 0.929 . S
S836 N837 1.613 . S
S836 N838 1.610 . S
N837 S836 1.613 . S
N837 C840 1.350 . S
N838 S836 1.610 . S
N838 C839 1.351 . S
C839 C833 1.428 1_545 S
C839 N838 1.351 . S
C839 C840 1.434 . S
C840 C831 1.429 . S
C840 N837 1.350 . S
C840 C839 1.434 . S
C841 C842 1.369 . S
C841 C843 1.419 1_545 S
C841 H845 0.930 . S
C842 C841 1.369 . S
C842 C851 1.429 . S
C843 C841 1.419 1_565 S
C843 C844 1.363 . S
C843 H846 0.929 . S
C844 C843 1.363 . S
C844 C850 1.428 . S
H845 C841 0.930 . S
H846 C843 0.929 . S
S847 N848 1.613 1_565 S
S847 N849 1.610 . S
N848 S847 1.613 1_545 S
N848 C851 1.350 . S
N849 S847 1.610 . S
N849 C850 1.351 . S
C850 C844 1.428 . S
C850 N849 1.351 . S
C850 C851 1.434 1_565 S
C851 C842 1.429 . S
C851 N848 1.350 . S
C851 C850 1.434 1_545 S
C852 C853 1.369 . S
C852 C854 1.419 . S
C852 H856 0.930 . S
C853 C852 1.369 . S
C853 C862 1.429 . S
C854 C852 1.419 . S
C854 C855 1.363 . S
C854 H857 0.929 . S
C855 C854 1.363 . S
C855 C861 1.428 . S
H856 C852 0.930 . S
H857 C854 0.929 . S
S858 N859 1.613 . S
S858 N860 1.610 . S
N859 S858 1.613 . S
N859 C862 1.350 . S
N860 S858 1.610 . S
N860 C861 1.351 . S
C861 C855 1.428 . S
C861 N860 1.351 . S
C861 C862 1.434 . S
C862 C853 1.429 . S
C862 N859 1.350 . S
C862 C861 1.434 . S
C863 C864 1.369 . S
C863 C865 1.419 . S
C863 H867 0.930 . S
C864 C863 1.369 . S
C864 C873 1.429 . S
C865 C863 1.419 . S
C865 C866 1.363 . S
C865 H868 0.929 . S
C866 C865 1.363 . S
C866 C872 1.428 . S
H867 C863 0.930 . S
H868 C865 0.929 . S
S869 N870 1.613 . S
S869 N871 1.610 . S
N870 S869 1.613 . S
N870 C873 1.350 . S
N871 S869 1.610 . S
N871 C872 1.351 . S
C872 C866 1.428 . S
C872 N871 1.351 . S
C872 C873 1.434 . S
C873 C864 1.429 . S
C873 N870 1.350 . S
C873 C872 1.434 . S
C874 C875 1.369 . S
C874 C876 1.419 . S
C874 H878 0.930 . S
C875 C874 1.369 . S
C875 C884 1.429 . S
C876 C874 1.419 . S
C876 C877 1.363 . S
C876 H879 0.929 . S
C877 C876 1.363 . S
C877 C883 1.428 . S
H878 C874 0.930 . S
H879 C876 0.929 . S
S880 N881 1.613 . S
S880 N882 1.610 . S
N881 S880 1.613 . S
N881 C884 1.350 . S
N882 S880 1.610 . S
N882 C883 1.351 . S
C883 C877 1.428 . S
C883 N882 1.351 . S
C883 C884 1.434 . S
C884 C875 1.429 . S
C884 N881 1.350 . S
C884 C883 1.434 . S
C885 C886 1.369 . S
C885 C887 1.419 . S
C885 H889 0.930 . S
C886 C885 1.369 . S
C886 C895 1.429 . S
C887 C885 1.419 . S
C887 C888 1.363 . S
C887 H890 0.929 . S
C888 C887 1.363 . S
C888 C894 1.428 . S
H889 C885 0.930 . S
H890 C887 0.929 . S
S891 N892 1.613 . S
S891 N893 1.610 . S
N892 S891 1.613 . S
N892 C895 1.350 . S
N893 S891 1.610 . S
N893 C894 1.351 . S
C894 C888 1.428 . S
C894 N893 1.351 . S
C894 C895 1.434 . S
C895 C886 1.429 . S
C895 N892 1.350 . S
C895 C894 1.434 . S
C896 C897 1.369 . S
C896 C898 1.436 . S
C896 H900 0.930 . S
C897 C896 1.369 . S
C897 C906 1.429 1_455 S
C898 C896 1.436 . S
C898 C899 1.344 1_455 S
C898 H901 0.931 . S
C899 C898 1.344 1_655 S
C899 C905 1.428 . S
H900 C896 0.930 . S
H901 C898 0.931 . S
S902 N903 1.613 . S
S902 N904 1.610 . S
N903 S902 1.613 . S
N903 C906 1.350 . S
N904 S902 1.610 . S
N904 C905 1.351 . S
C905 C899 1.428 . S
C905 N904 1.351 . S
C905 C906 1.434 . S
C906 C897 1.429 1_655 S
C906 N903 1.350 . S
C906 C905 1.434 . S
C907 C908 1.369 . S
C907 C909 1.419 . S
C907 H911 0.930 . S
C908 C907 1.369 . S
C908 C917 1.429 . S
C909 C907 1.419 . S
C909 C910 1.363 . S
C909 H912 0.929 . S
C910 C909 1.363 . S
C910 C916 1.428 . S
H911 C907 0.930 . S
H912 C909 0.929 . S
S913 N914 1.613 . S
S913 N915 1.610 . S
N914 S913 1.613 . S
N914 C917 1.350 . S
N915 S913 1.610 . S
N915 C916 1.351 . S
C916 C910 1.428 . S
C916 N915 1.351 . S
C916 C917 1.434 . S
C917 C908 1.429 . S
C917 N914 1.350 . S
C917 C916 1.434 . S
C918 C919 1.369 . S
C918 C920 1.419 . S
C918 H922 0.930 . S
C919 C918 1.369 . S
C919 C928 1.429 . S
C920 C918 1.419 . S
C920 C921 1.363 . S
C920 H923 0.929 . S
C921 C920 1.363 . S
C921 C927 1.428 . S
H922 C918 0.930 . S
H923 C920 0.929 . S
S924 N925 1.613 . S
S924 N926 1.610 . S
N925 S924 1.613 . S
N925 C928 1.350 . S
N926 S924 1.610 . S
N926 C927 1.351 . S
C927 C921 1.428 . S
C927 N926 1.351 . S
C927 C928 1.434 . S
C928 C919 1.429 . S
C928 N925 1.350 . S
C928 C927 1.434 . S
C929 C930 1.365 1_455 S
C929 C931 1.422 . S
C929 H933 0.930 . S
C930 C929 1.365 1_655 S
C930 C939 1.429 . S
C931 C929 1.422 . S
C931 C932 1.363 . S
C931 H934 0.929 . S
C932 C931 1.363 . S
C932 C938 1.409 1_455 S
H933 C929 0.930 . S
H934 C931 0.929 . S
S935 N936 1.613 . S
S935 N937 1.610 . S
N936 S935 1.613 . S
N936 C939 1.350 . S
N937 S935 1.610 . S
N937 C938 1.354 . S
C938 C932 1.409 1_655 S
C938 N937 1.354 . S
C938 C939 1.453 . S
C939 C930 1.429 . S
C939 N936 1.350 . S
C939 C938 1.453 . S
C940 C941 1.369 . S
C940 C942 1.419 1_655 S
C940 H944 0.930 . S
C941 C940 1.369 . S
C941 C950 1.429 . S
C942 C940 1.419 1_455 S
C942 C943 1.363 . S
C942 H945 0.929 . S
C943 C942 1.363 . S
C943 C949 1.428 . S
H944 C940 0.930 . S
H945 C942 0.929 . S
S946 N947 1.613 . S
S946 N948 1.610 1_655 S
N947 S946 1.613 . S
N947 C950 1.350 . S
N948 S946 1.610 1_455 S
N948 C949 1.351 . S
C949 C943 1.428 . S
C949 N948 1.351 . S
C949 C950 1.434 1_455 S
C950 C941 1.429 . S
C950 N947 1.350 . S
C950 C949 1.434 1_655 S
C951 C952 1.369 . S
C951 C953 1.419 . S
C951 H955 0.930 . S
C952 C951 1.369 . S
C952 C961 1.429 . S
C953 C951 1.419 . S
C953 C954 1.363 . S
C953 H956 0.929 . S
C954 C953 1.363 . S
C954 C960 1.428 . S
H955 C951 0.930 . S
H956 C953 0.929 . S
S957 N958 1.613 . S
S957 N959 1.610 . S
N958 S957 1.613 . S
N958 C961 1.350 . S
N959 S957 1.610 . S
N959 C960 1.351 . S
C960 C954 1.428 . S
C960 N959 1.351 . S
C960 C961 1.434 . S
C961 C952 1.429 . S
C961 N958 1.350 . S
C961 C960 1.434 . S
C962 C963 1.369 . S
C962 C964 1.419 . S
C962 H966 0.930 . S
C963 C962 1.369 . S
C963 C972 1.429 . S
C964 C962 1.419 . S
C964 C965 1.363 . S
C964 H967 0.929 . S
C965 C964 1.363 . S
C965 C971 1.428 . S
H966 C962 0.930 . S
H967 C964 0.929 . S
S968 N969 1.613 . S
S968 N970 1.610 . S
N969 S968 1.613 . S
N969 C972 1.350 . S
N970 S968 1.610 . S
N970 C971 1.351 . S
C971 C965 1.428 . S
C971 N970 1.351 . S
C971 C972 1.434 . S
C972 C963 1.429 . S
C972 N969 1.350 . S
C972 C971 1.434 . S
C973 C974 1.369 1_455 S
C973 C975 1.419 . S
C973 H977 0.930 . S
C974 C973 1.369 1_655 S
C974 C983 1.429 . S
C975 C973 1.419 . S
C975 C976 1.363 . S
C975 H978 0.929 . S
C976 C975 1.363 . S
C976 C982 1.428 1_455 S
H977 C973 0.930 . S
H978 C975 0.929 . S
S979 N980 1.613 . S
S979 N981 1.610 . S
N980 S979 1.613 . S
N980 C983 1.350 . S
N981 S979 1.610 . S
N981 C982 1.351 . S
C982 C976 1.428 1_655 S
C982 N981 1.351 . S
C982 C983 1.434 . S
C983 C974 1.429 . S
C983 N980 1.350 . S
C983 C982 1.434 . S
C545 C135 1.446 . S
C547 C33 1.445 . S
C556 C101 1.450 . S
C558 C67 1.450 . S
C567 C169 1.448 . S
C569 C271 1.450 . S
C578 C203 1.444 . S
C580 C237 1.446 . S
C589 C305 1.451 . S
C591 C407 1.447 . S
C600 C339 1.446 . S
C602 C373 1.450 . S
C611 C543 1.450 . S
C613 C441 1.446 . S
C622 C509 1.451 . S
C624 C475 1.447 . S
C633 C5 0.909 . S
C635 C345 0.906 . S
C644 C379 0.908 . S
C646 C39 0.905 . S
C655 C277 0.908 . S
C657 C73 0.905 . S
C666 C311 0.912 . S
C668 C107 0.908 . S
C677 C481 0.911 . S
C679 C141 0.908 . S
C688 C515 0.903 . S
C690 C175 0.906 . S
C699 C413 0.904 . S
C701 C209 0.907 . S
C710 C447 0.912 . S
C712 C243 0.911 . S
C721 C9 1.624 . S
C723 C145 1.617 . S
C732 C43 1.616 . S
C734 C179 1.623 . S
C743 C213 1.623 . S
C745 C77 1.618 . S
C754 C111 1.616 . S
C756 C247 1.624 . S
C765 C281 1.617 . S
C767 C417 1.623 . S
C776 C451 1.618 . S
C778 C315 1.623 . S
C787 C349 1.619 . S
C789 C485 1.622 . S
C798 C519 1.624 . S
C800 C383 1.617 . S
C809 C20 1.425 . S
C811 C54 1.423 . S
C820 C122 1.423 . S
C822 C88 1.424 . S
C831 C190 1.426 . S
C833 C156 1.424 . S
C842 C224 1.424 . S
C844 C258 1.425 . S
C853 C326 1.423 . S
C855 C292 1.426 . S
C864 C394 1.423 . S
C866 C360 1.426 . S
C875 C428 1.426 . S
C877 C462 1.423 . S
C886 C530 1.422 . S
C888 C496 1.425 . S
C897 C2 1.365 . S
C899 C308 1.366 . S
C908 C36 1.370 . S
C910 C274 1.371 . S
C919 C70 1.369 . S
C921 C376 1.368 . S
C930 C104 1.372 . S
C932 C342 1.371 . S
C941 C138 1.365 . S
C943 C444 1.366 . S
C952 C410 1.371 . S
C954 C172 1.370 . S
C963 C206 1.367 . S
C965 C512 1.367 . S
C974 C478 1.370 . S
C976 C240 1.369 . S
