# Generated by pormake.
# Topology xfw, (5)-cn, num edge types: 1
# Building blocks:
#     Node 0, Type 0, BuildingBlock: XOMCOT_clean_sbu_1, # of connection points: 5
#     Node 1, Type 0, BuildingBlock: XOMCOT_clean_sbu_1, # of connection points: 5
#     Node 2, Type 0, BuildingBlock: XOMCOT_clean_sbu_1, # of connection points: 5
#     Node 3, Type 0, BuildingBlock: XOMCOT_clean_sbu_1, # of connection points: 5
#     Node 4, Type 0, BuildingBlock: XOMCOT_clean_sbu_1, # of connection points: 5
#     Node 5, Type 0, BuildingBlock: XOMCOT_clean_sbu_1, # of connection points: 5
#     Node 6, Type 0, BuildingBlock: XOMCOT_clean_sbu_1, # of connection points: 5
#     Node 7, Type 0, BuildingBlock: XOMCOT_clean_sbu_1, # of connection points: 5
#     Edge 8, Type (0, 0), BuildingBlock: MIFKUJ_clean_linker_0, # of connection points: 2
#     Edge 9, Type (0, 0), BuildingBlock: MIFKUJ_clean_linker_0, # of connection points: 2
#     Edge 10, Type (0, 0), BuildingBlock: MIFKUJ_clean_linker_0, # of connection points: 2
#     Edge 11, Type (0, 0), BuildingBlock: MIFKUJ_clean_linker_0, # of connection points: 2
#     Edge 12, Type (0, 0), BuildingBlock: MIFKUJ_clean_linker_0, # of connection points: 2
#     Edge 13, Type (0, 0), BuildingBlock: MIFKUJ_clean_linker_0, # of connection points: 2
#     Edge 14, Type (0, 0), BuildingBlock: MIFKUJ_clean_linker_0, # of connection points: 2
#     Edge 15, Type (0, 0), BuildingBlock: MIFKUJ_clean_linker_0, # of connection points: 2
#     Edge 16, Type (0, 0), BuildingBlock: MIFKUJ_clean_linker_0, # of connection points: 2
#     Edge 17, Type (0, 0), BuildingBlock: MIFKUJ_clean_linker_0, # of connection points: 2
#     Edge 18, Type (0, 0), BuildingBlock: MIFKUJ_clean_linker_0, # of connection points: 2
#     Edge 19, Type (0, 0), BuildingBlock: MIFKUJ_clean_linker_0, # of connection points: 2
#     Edge 20, Type (0, 0), BuildingBlock: MIFKUJ_clean_linker_0, # of connection points: 2
#     Edge 21, Type (0, 0), BuildingBlock: MIFKUJ_clean_linker_0, # of connection points: 2
#     Edge 22, Type (0, 0), BuildingBlock: MIFKUJ_clean_linker_0, # of connection points: 2
#     Edge 23, Type (0, 0), BuildingBlock: MIFKUJ_clean_linker_0, # of connection points: 2
#     Edge 24, Type (0, 0), BuildingBlock: MIFKUJ_clean_linker_0, # of connection points: 2
#     Edge 25, Type (0, 0), BuildingBlock: MIFKUJ_clean_linker_0, # of connection points: 2
#     Edge 26, Type (0, 0), BuildingBlock: MIFKUJ_clean_linker_0, # of connection points: 2
#     Edge 27, Type (0, 0), BuildingBlock: MIFKUJ_clean_linker_0, # of connection points: 2
# Relax obj value: 0.589
# Max RMSD: 0.301
# Mean RMSD: 0.301
data_MOF--net-xfw--node1-XOMCOT_clean_sbu_1--edge1-MIFKUJ_clean_linker_0
_symmetry_space_group_name_H-M    P1
_symmetry_Int_Tables_number       1
_symmetry_cell_setting            triclinic
loop_
_symmetry_equiv_pos_as_xyz
'x, y, z'
_cell_length_a     34.088815
_cell_length_b     34.002846
_cell_length_c     74.267444
_cell_angle_alpha  90.007246
_cell_angle_beta   90.131353
_cell_angle_gamma 90.033099
loop_
_atom_site_label
_atom_site_type_symbol
_atom_site_fract_x
_atom_site_fract_y
_atom_site_fract_z
_atom_type_partial_charge
C0 C 0.31513 0.09079 0.58394 0.0
C1 C 0.32725 0.06332 0.57162 0.0
N2 N 0.30351 0.03172 0.57288 0.0
N3 N 0.28392 0.07663 0.59292 0.0
C4 C 0.27762 0.04047 0.58602 0.0
H5 H 0.32794 0.1195 0.58615 0.0
Co6 Co 0.25843 0.10456 0.61063 0.0
C7 C 0.19987 0.04792 0.62396 0.0
O8 O 0.21735 0.04766 0.63974 0.0
N9 N 0.23341 0.13342 0.62849 0.0
C10 C 0.18849 0.1642 0.6449 0.0
C11 C 0.19521 0.14378 0.62922 0.0
C12 C 0.24934 0.1482 0.64366 0.0
N13 N 0.22264 0.16672 0.65397 0.0
O14 O 0.28686 0.07468 0.62809 0.0
H15 H 0.17345 0.1362 0.61917 0.0
H16 H 0.27987 0.14516 0.64725 0.0
O17 O 0.21463 0.06767 0.61103 0.0
C18 C 0.32141 0.08744 0.63105 0.0
O19 O 0.33173 0.12132 0.62397 0.0
N20 N 0.23342 0.13422 0.59297 0.0
C21 C 0.20495 0.17946 0.56472 0.0
C22 C 0.19647 0.13922 0.56567 0.0
C23 C 0.2111 0.11704 0.57988 0.0
C24 C 0.24193 0.17337 0.59235 0.0
C25 C 0.22746 0.19681 0.57839 0.0
H26 H 0.20559 0.08577 0.57994 0.0
H27 H 0.26063 0.18626 0.60255 0.0
H28 H 0.2538 0.02151 0.59014 0.0
H29 H 0.35156 0.06653 0.56239 0.0
H30 H 0.16038 0.17477 0.6496 0.0
H31 H 0.17892 0.12491 0.5554 0.0
H32 H 0.23476 0.2278 0.57798 0.0
C33 C 0.11555 0.6927 0.40929 0.0
C34 C 0.08617 0.69169 0.42184 0.0
N35 N 0.06391 0.72402 0.41964 0.0
N36 N 0.11193 0.72559 0.39932 0.0
C37 C 0.07997 0.7441 0.40583 0.0
H38 H 0.13857 0.67114 0.40762 0.0
Co39 Co 0.14737 0.73698 0.38157 0.0
C40 C 0.13407 0.81935 0.36978 0.0
O41 O 0.17239 0.82246 0.3685 0.0
N42 N 0.18411 0.74607 0.36323 0.0
C43 C 0.2372 0.75143 0.34601 0.0
C44 C 0.22377 0.74532 0.36324 0.0
C45 C 0.17431 0.75197 0.34582 0.0
N46 N 0.20592 0.75545 0.3351 0.0
O47 O 0.11587 0.70687 0.36517 0.0
H48 H 0.24224 0.74011 0.37479 0.0
H49 H 0.1443 0.75434 0.34117 0.0
O50 O 0.11903 0.78656 0.37499 0.0
C51 C 0.12902 0.67207 0.36312 0.0
O52 O 0.16306 0.66325 0.37042 0.0
N53 N 0.17836 0.76278 0.39894 0.0
C54 C 0.22146 0.78846 0.42863 0.0
C55 C 0.19057 0.81112 0.42184 0.0
C56 C 0.1685 0.79713 0.40738 0.0
C57 C 0.20738 0.73969 0.40591 0.0
C58 C 0.22961 0.75209 0.42069 0.0
H59 H 0.14233 0.81308 0.40384 0.0
H60 H 0.21251 0.71082 0.40026 0.0
H61 H 0.06944 0.77222 0.401 0.0
H62 H 0.08164 0.66913 0.43191 0.0
H63 H 0.26757 0.75201 0.34181 0.0
H64 H 0.18217 0.83841 0.42831 0.0
H65 H 0.25244 0.73323 0.42603 0.0
C66 C 0.6811 0.91646 0.58541 0.0
C67 C 0.67864 0.95003 0.57524 0.0
N68 N 0.71405 0.96763 0.57534 0.0
N69 N 0.71778 0.91292 0.59198 0.0
C70 C 0.73735 0.94446 0.58557 0.0
H71 H 0.65773 0.89556 0.58773 0.0
Co72 Co 0.7321 0.87124 0.60643 0.0
C73 C 0.81138 0.88779 0.62149 0.0
O74 O 0.81835 0.84982 0.62093 0.0
N75 N 0.74416 0.82812 0.62136 0.0
C76 C 0.75088 0.76882 0.63374 0.0
C77 C 0.74538 0.78909 0.61788 0.0
C78 C 0.7485 0.83058 0.63942 0.0
N79 N 0.75299 0.79514 0.64723 0.0
O80 O 0.69886 0.89204 0.62485 0.0
H81 H 0.74138 0.77568 0.60485 0.0
H82 H 0.74749 0.85804 0.64678 0.0
O83 O 0.77818 0.90112 0.61597 0.0
C84 C 0.66665 0.87324 0.62628 0.0
O85 O 0.662 0.84094 0.61678 0.0
N86 N 0.76132 0.85063 0.58718 0.0
C87 C 0.79489 0.82006 0.55607 0.0
C88 C 0.81402 0.84946 0.56589 0.0
C89 C 0.79626 0.86517 0.5811 0.0
C90 C 0.74132 0.82356 0.57717 0.0
C91 C 0.75772 0.80754 0.56156 0.0
H92 H 0.81023 0.89007 0.5873 0.0
H93 H 0.71223 0.81461 0.58128 0.0
H94 H 0.76798 0.95026 0.58823 0.0
H95 H 0.65314 0.95997 0.56782 0.0
H96 H 0.75283 0.73722 0.63525 0.0
H97 H 0.84197 0.86116 0.56146 0.0
H98 H 0.74167 0.78563 0.55394 0.0
C99 C 0.92111 0.32311 0.40315 0.0
C100 C 0.94838 0.33226 0.41602 0.0
N101 N 0.97063 0.30019 0.41899 0.0
N102 N 0.92614 0.28558 0.39788 0.0
C103 C 0.95678 0.27226 0.40765 0.0
H104 H 0.89831 0.34237 0.39817 0.0
Co105 Co 0.89189 0.26428 0.38146 0.0
C106 C 0.914 0.18197 0.3741 0.0
O107 O 0.87607 0.17524 0.3745 0.0
N108 N 0.85573 0.24535 0.36424 0.0
C109 C 0.80325 0.22564 0.34874 0.0
C110 C 0.81685 0.23755 0.3653 0.0
C111 C 0.8647 0.23845 0.3468 0.0
N112 N 0.83344 0.22643 0.33715 0.0
O113 O 0.91808 0.29438 0.36317 0.0
H114 H 0.79881 0.2406 0.37709 0.0
H115 H 0.8938 0.2421 0.34124 0.0
O116 O 0.92661 0.21726 0.3768 0.0
C117 C 0.90063 0.32629 0.35897 0.0
O118 O 0.86447 0.33146 0.36461 0.0
N119 N 0.86614 0.23864 0.40071 0.0
C120 C 0.82788 0.20925 0.431 0.0
C121 C 0.86356 0.19323 0.4254 0.0
C122 C 0.88282 0.20913 0.41062 0.0
C123 C 0.83309 0.25675 0.40691 0.0
C124 C 0.81301 0.24213 0.42191 0.0
H125 H 0.91171 0.19816 0.40768 0.0
H126 H 0.82224 0.28273 0.40013 0.0
H127 H 0.96758 0.24239 0.40704 0.0
H128 H 0.95114 0.36022 0.42287 0.0
H129 H 0.77321 0.21844 0.34531 0.0
H130 H 0.8771 0.16924 0.43274 0.0
H131 H 0.78615 0.25617 0.42627 0.0
C132 C 0.68501 0.12221 0.07359 0.0
C133 C 0.6857 0.09403 0.06036 0.0
N134 N 0.71696 0.07069 0.06329 0.0
N135 N 0.71584 0.11685 0.08468 0.0
C136 C 0.7347 0.08497 0.07818 0.0
H137 H 0.66393 0.14581 0.07486 0.0
Co138 Co 0.72659 0.15127 0.10316 0.0
C139 C 0.80766 0.13556 0.11593 0.0
O140 O 0.81193 0.1736 0.11834 0.0
N141 N 0.73544 0.18697 0.12215 0.0
C142 C 0.7444 0.23978 0.13938 0.0
C143 C 0.73593 0.22674 0.1223 0.0
C144 C 0.74231 0.17674 0.13947 0.0
N145 N 0.74859 0.20821 0.15011 0.0
O146 O 0.6961 0.11906 0.11889 0.0
H147 H 0.73075 0.24563 0.11091 0.0
H148 H 0.74451 0.14656 0.14399 0.0
O149 O 0.77523 0.12199 0.10965 0.0
C150 C 0.66201 0.13294 0.12184 0.0
O151 O 0.65324 0.16777 0.11531 0.0
N152 N 0.75328 0.18315 0.08656 0.0
C153 C 0.78204 0.22956 0.0587 0.0
C154 C 0.80381 0.19768 0.06518 0.0
C155 C 0.78836 0.17406 0.07872 0.0
C156 C 0.73084 0.2128 0.07969 0.0
C157 C 0.74482 0.23676 0.06585 0.0
H158 H 0.80396 0.14752 0.08203 0.0
H159 H 0.70154 0.21743 0.08484 0.0
H160 H 0.76161 0.07334 0.08376 0.0
H161 H 0.66508 0.09111 0.04933 0.0
H162 H 0.74723 0.27014 0.14357 0.0
H163 H 0.83172 0.1899 0.05918 0.0
H164 H 0.72663 0.2603 0.06066 0.0
C165 C 0.10706 0.29002 0.91272 0.0
C166 C 0.08114 0.30344 0.92542 0.0
N167 N 0.04649 0.28507 0.92287 0.0
N168 N 0.08893 0.26325 0.90227 0.0
C169 C 0.05203 0.26091 0.90865 0.0
H170 H 0.13717 0.29937 0.91105 0.0
Co171 Co 0.11243 0.23939 0.88287 0.0
C172 C 0.05319 0.18242 0.8707 0.0
O173 O 0.05064 0.20189 0.85546 0.0
N174 N 0.13697 0.21593 0.86337 0.0
C175 C 0.16686 0.17227 0.84593 0.0
C176 C 0.14633 0.17752 0.86163 0.0
C177 C 0.15206 0.23342 0.84865 0.0
N178 N 0.17042 0.20751 0.83786 0.0
O179 O 0.07945 0.27007 0.86735 0.0
H180 H 0.13905 0.15485 0.87128 0.0
H181 H 0.15037 0.26461 0.84599 0.0
O182 O 0.07512 0.19559 0.8833 0.0
C183 C 0.09304 0.30461 0.86498 0.0
O184 O 0.12789 0.31289 0.8716 0.0
N185 N 0.14584 0.2127 0.89851 0.0
C186 C 0.19844 0.18348 0.92381 0.0
C187 C 0.15851 0.17365 0.92467 0.0
C188 C 0.13257 0.18872 0.9119 0.0
C189 C 0.18458 0.22227 0.89733 0.0
C190 C 0.21158 0.20754 0.90976 0.0
H191 H 0.10165 0.18246 0.91326 0.0
H192 H 0.19436 0.24233 0.88696 0.0
H193 H 0.02983 0.24169 0.90306 0.0
H194 H 0.08725 0.32544 0.93558 0.0
H195 H 0.17773 0.14463 0.8407 0.0
H196 H 0.1473 0.15507 0.93534 0.0
H197 H 0.24209 0.2162 0.90882 0.0
C198 C 0.30485 0.91314 0.08014 0.0
C199 C 0.32366 0.93571 0.06749 0.0
N200 N 0.31078 0.97308 0.06901 0.0
N201 N 0.28 0.93602 0.0895 0.0
C202 C 0.2846 0.97242 0.08267 0.0
H203 H 0.30798 0.88175 0.08203 0.0
Co204 Co 0.24685 0.91749 0.10715 0.0
C205 C 0.19992 0.98649 0.11746 0.0
O206 O 0.2155 0.98555 0.13365 0.0
N207 N 0.21399 0.898 0.12504 0.0
C208 C 0.16174 0.88105 0.1411 0.0
C209 C 0.17438 0.89686 0.12509 0.0
C210 C 0.22471 0.88244 0.14097 0.0
N211 N 0.19353 0.87222 0.1511 0.0
O212 O 0.27961 0.9427 0.12461 0.0
H213 H 0.15586 0.90734 0.11426 0.0
H214 H 0.25484 0.87851 0.14509 0.0
O215 O 0.21268 0.96318 0.10536 0.0
C216 C 0.31071 0.92362 0.12836 0.0
O217 O 0.31429 0.88766 0.12207 0.0
N218 N 0.21703 0.89209 0.08947 0.0
C219 C 0.17943 0.85258 0.06155 0.0
C220 C 0.18321 0.89354 0.06119 0.0
C221 C 0.20223 0.91273 0.07522 0.0
C222 C 0.21379 0.85215 0.0901 0.0
C223 C 0.19453 0.83173 0.07632 0.0
H224 H 0.20615 0.94417 0.07426 0.0
H225 H 0.22669 0.83608 0.10119 0.0
H226 H 0.26825 0.99763 0.08735 0.0
H227 H 0.34369 0.92485 0.05737 0.0
H228 H 0.13154 0.87727 0.1452 0.0
H229 H 0.17179 0.91068 0.05005 0.0
H230 H 0.19245 0.79997 0.07694 0.0
C231 C 0.90186 0.66928 0.90337 0.0
C232 C 0.93036 0.66721 0.91638 0.0
N233 N 0.94904 0.70207 0.91696 0.0
N234 N 0.90249 0.70527 0.8958 0.0
C235 C 0.93183 0.72457 0.90423 0.0
H236 H 0.88076 0.64657 0.90016 0.0
Co237 Co 0.86441 0.72056 0.8797 0.0
C238 C 0.88911 0.79662 0.86314 0.0
O239 O 0.85189 0.80613 0.86176 0.0
N240 N 0.82444 0.7331 0.86327 0.0
C241 C 0.76666 0.73985 0.84955 0.0
C242 C 0.78523 0.73479 0.86587 0.0
C243 C 0.82879 0.73639 0.84524 0.0
N244 N 0.79427 0.74113 0.83668 0.0
O245 O 0.88593 0.68413 0.8627 0.0
H246 H 0.77055 0.73133 0.87861 0.0
H247 H 0.85684 0.73478 0.83847 0.0
O248 O 0.89873 0.76333 0.87009 0.0
C249 C 0.86818 0.6514 0.86075 0.0
O250 O 0.83391 0.64669 0.86853 0.0
N251 N 0.84336 0.75416 0.89768 0.0
C252 C 0.81504 0.79469 0.92768 0.0
C253 C 0.8459 0.80987 0.91753 0.0
C254 C 0.86018 0.78891 0.90292 0.0
C255 C 0.81436 0.73801 0.90797 0.0
C256 C 0.79945 0.75795 0.923 0.0
H257 H 0.8863 0.80014 0.8968 0.0
H258 H 0.80336 0.709 0.90473 0.0
H259 H 0.93878 0.75517 0.90197 0.0
H260 H 0.93588 0.64255 0.92524 0.0
H261 H 0.73537 0.74227 0.84729 0.0
H262 H 0.86015 0.83709 0.92136 0.0
H263 H 0.77623 0.74476 0.9309 0.0
H264 H 0.2759 0.95876 0.58079 0.0
H265 H 0.2723 0.90227 0.56034 0.0
H266 H 0.32694 0.9713 0.51858 0.0
H267 H 0.33057 0.02732 0.53875 0.0
H268 H 0.23257 0.8962 0.52987 0.0
H269 H 0.38109 0.91732 0.4911 0.0
H270 H 0.44923 0.93594 0.49831 0.0
H271 H 0.43257 0.89992 0.55317 0.0
H272 H 0.3646 0.88035 0.54626 0.0
H273 H 0.26118 0.85688 0.43324 0.0
H274 H 0.28675 0.88363 0.46159 0.0
H275 H 0.25228 0.77754 0.4892 0.0
H276 H 0.22746 0.75028 0.46071 0.0
H277 H 0.3416 0.85438 0.49003 0.0
H278 H 0.201 0.81648 0.5268 0.0
H279 H 0.13233 0.79783 0.52042 0.0
H280 H 0.13461 0.86579 0.4717 0.0
H281 H 0.20298 0.88534 0.47797 0.0
C282 C 0.28725 0.96177 0.56727 0.0
C283 C 0.3035 0.99759 0.56141 0.0
C284 C 0.28539 0.92943 0.55565 0.0
C285 C 0.29988 0.93237 0.53803 0.0
C286 C 0.31654 0.96794 0.53227 0.0
C287 C 0.31853 1.00008 0.54384 0.0
C288 C 0.2948 0.89984 0.52495 0.0
C289 C 0.25666 0.88615 0.52153 0.0
C290 C 0.3262 0.88677 0.51402 0.0
C291 C 0.36756 0.89747 0.51814 0.0
C292 C 0.39203 0.91299 0.50467 0.0
C293 C 0.43064 0.9238 0.50871 0.0
C294 C 0.4452 0.91917 0.52618 0.0
C295 C 0.42124 0.90356 0.53964 0.0
C296 C 0.38265 0.89262 0.53566 0.0
C297 C 0.26009 0.83895 0.44529 0.0
C298 C 0.24246 0.80166 0.44492 0.0
C299 C 0.27483 0.85408 0.4614 0.0
C300 C 0.2713 0.8325 0.47741 0.0
C301 C 0.25539 0.79445 0.47692 0.0
C302 C 0.24129 0.77898 0.46071 0.0
C303 C 0.27941 0.8522 0.49474 0.0
C304 C 0.31796 0.86347 0.49885 0.0
C305 C 0.24856 0.86268 0.50649 0.0
C306 C 0.20723 0.85182 0.50272 0.0
C307 C 0.18677 0.82747 0.51475 0.0
C308 C 0.14791 0.81678 0.51117 0.0
C309 C 0.12917 0.83046 0.49562 0.0
C310 C 0.14919 0.85506 0.48369 0.0
C311 C 0.18801 0.86592 0.48725 0.0
H312 H 0.09911 0.8221 0.49286 0.0
H313 H 0.47507 0.92764 0.52929 0.0
H314 H 0.86591 0.78538 0.55421 0.0
H315 H 0.90304 0.76982 0.52704 0.0
H316 H 0.80462 0.80516 0.49418 0.0
H317 H 0.76684 0.81994 0.52158 0.0
H318 H 0.84639 0.74077 0.47971 0.0
H319 H 0.8724 0.87016 0.50088 0.0
H320 H 0.8872 0.92096 0.52358 0.0
H321 H 0.99796 0.86597 0.53476 0.0
H322 H 0.98352 0.81438 0.51236 0.0
H323 H 0.99643 0.75919 0.40917 0.0
H324 H 0.94134 0.77813 0.42882 0.0
H325 H 0.00517 0.7349 0.47496 0.0
H326 H 0.05954 0.71569 0.45549 0.0
H327 H 0.97234 0.81412 0.47783 0.0
H328 H 0.93856 0.67895 0.46061 0.0
H329 H 0.9231 0.62776 0.43814 0.0
H330 H 0.82691 0.69708 0.41843 0.0
H331 H 0.84197 0.7488 0.44075 0.0
C332 C 0.85196 0.78895 0.54119 0.0
C333 C 0.81384 0.80409 0.53986 0.0
C334 C 0.87312 0.7802 0.52571 0.0
C335 C 0.85681 0.78725 0.50865 0.0
C336 C 0.8177 0.79976 0.50725 0.0
C337 C 0.79622 0.80813 0.52284 0.0
C338 C 0.88226 0.7848 0.49261 0.0
C339 C 0.87352 0.75741 0.47905 0.0
C340 C 0.9175 0.80678 0.49174 0.0
C341 C 0.92676 0.83826 0.50498 0.0
C342 C 0.89983 0.86876 0.50824 0.0
C343 C 0.90815 0.89771 0.52106 0.0
C344 C 0.94348 0.89667 0.53062 0.0
C345 C 0.9706 0.86674 0.52734 0.0
C346 C 0.96238 0.83765 0.51457 0.0
C347 C 0.99848 0.75394 0.42352 0.0
C348 C 0.03193 0.73589 0.43089 0.0
C349 C 0.96714 0.76453 0.43465 0.0
C350 C 0.9694 0.75775 0.45326 0.0
C351 C 0.003 0.74026 0.4606 0.0
C352 C 0.03386 0.72913 0.4495 0.0
C353 C 0.93725 0.76898 0.46543 0.0
C354 C 0.94473 0.79826 0.47824 0.0
C355 C 0.90086 0.74905 0.46547 0.0
C356 C 0.89167 0.7179 0.45217 0.0
C357 C 0.91432 0.6834 0.45138 0.0
C358 C 0.90558 0.65426 0.4387 0.0
C359 C 0.87418 0.65926 0.42679 0.0
C360 C 0.85129 0.6933 0.42762 0.0
C361 C 0.85987 0.72249 0.4403 0.0
H362 H 0.8675 0.63669 0.41698 0.0
H363 H 0.94986 0.91909 0.54056 0.0
H364 H 0.66784 0.02942 0.56681 0.0
H365 H 0.68292 0.08187 0.54539 0.0
H366 H 0.79974 0.03532 0.53891 0.0
H367 H 0.78483 0.9829 0.56039 0.0
H368 H 0.79933 0.1159 0.53742 0.0
H369 H 0.72795 0.00677 0.51088 0.0
H370 H 0.67231 0.96063 0.50846 0.0
H371 H 0.59318 0.05745 0.50078 0.0
H372 H 0.64835 0.10419 0.50342 0.0
H373 H 0.80955 0.13261 0.43584 0.0
H374 H 0.78412 0.10149 0.46304 0.0
H375 H 0.77559 0.21501 0.48872 0.0
H376 H 0.8013 0.24643 0.46133 0.0
H377 H 0.71665 0.10887 0.4824 0.0
H378 H 0.80593 0.198 0.53373 0.0
H379 H 0.86568 0.23895 0.53523 0.0
H380 H 0.91543 0.1744 0.49114 0.0
H381 H 0.85625 0.13276 0.48957 0.0
C382 C 0.69688 0.03069 0.56098 0.0
C383 C 0.72495 1.00171 0.56503 0.0
C384 C 0.7055 0.06073 0.54882 0.0
C385 C 0.74221 0.06206 0.54036 0.0
C386 C 0.77122 0.03481 0.54531 0.0
C387 C 0.76268 0.00486 0.55758 0.0
C388 C 0.749 0.08881 0.52495 0.0
C389 C 0.78098 0.11478 0.52548 0.0
C390 C 0.72525 0.08704 0.5093 0.0
C391 C 0.69216 0.05896 0.50756 0.0
C392 C 0.69864 0.01821 0.5088 0.0
C393 C 0.6672 0.99196 0.50738 0.0
C394 C 0.62922 0.00611 0.50452 0.0
C395 C 0.62261 0.04654 0.50303 0.0
C396 C 0.65394 0.07292 0.50449 0.0
C397 C 0.80175 0.15095 0.44721 0.0
C398 C 0.80751 0.19179 0.44659 0.0
C399 C 0.78709 0.13321 0.46269 0.0
C400 C 0.7783 0.15593 0.47792 0.0
C401 C 0.78246 0.197 0.47712 0.0
C402 C 0.79687 0.21488 0.46149 0.0
C403 C 0.76715 0.13577 0.49479 0.0
C404 C 0.73435 0.11089 0.49453 0.0
C405 C 0.79059 0.13805 0.51051 0.0
C406 C 0.82644 0.16268 0.51138 0.0
C407 C 0.82966 0.19255 0.52438 0.0
C408 C 0.86343 0.21585 0.52525 0.0
C409 C 0.89427 0.20938 0.51324 0.0
C410 C 0.89146 0.1795 0.50038 0.0
C411 C 0.85779 0.15608 0.49948 0.0
H412 H 0.92039 0.22745 0.51393 0.0
H413 H 0.60492 0.98574 0.50342 0.0
H414 H 0.16604 0.24958 0.56555 0.0
H415 H 0.1334 0.2823 0.54015 0.0
H416 H 0.17808 0.19362 0.50405 0.0
H417 H 0.21097 0.16121 0.52927 0.0
H418 H 0.17673 0.26775 0.48845 0.0
H419 H 0.09149 0.18087 0.5222 0.0
H420 H 0.0581 0.15682 0.54948 0.0
H421 H 1.00145 0.26872 0.55583 0.0
H422 H 0.03508 0.29365 0.52872 0.0
H423 H 0.03272 0.25035 0.41912 0.0
H424 H 0.07982 0.24071 0.4437 0.0
H425 H 0.02172 0.33074 0.47468 0.0
H426 H 0.97419 0.33969 0.45056 0.0
H427 H 0.03165 0.2646 0.49369 0.0
H428 H 0.11061 0.34856 0.45724 0.0
H429 H 0.143 0.37115 0.42946 0.0
H430 H 0.21028 0.26454 0.42752 0.0
H431 H 0.17787 0.24102 0.45516 0.0
C432 C 0.1696 0.23773 0.55211 0.0
C433 C 0.19038 0.20264 0.54932 0.0
C434 C 0.15095 0.25631 0.53767 0.0
C435 C 0.15302 0.24 0.52033 0.0
C436 C 0.17614 0.20658 0.51735 0.0
C437 C 0.19455 0.18793 0.53176 0.0
C438 C 0.12768 0.25466 0.50567 0.0
C439 C 0.145 0.26708 0.48953 0.0
C440 C 0.08635 0.25422 0.50727 0.0
C441 C 0.06623 0.23929 0.52359 0.0
C442 C 0.07223 0.20047 0.52952 0.0
C443 C 0.05321 0.18666 0.54493 0.0
C444 C 0.02778 0.21127 0.55442 0.0
C445 C 0.02125 0.24973 0.54849 0.0
C446 C 0.0403 0.26372 0.53312 0.0
C447 C 0.0301 0.26809 0.43116 0.0
C448 C 0.99978 0.29579 0.43287 0.0
C449 C 0.05722 0.26289 0.44509 0.0
C450 C 0.05439 0.28534 0.4609 0.0
C451 C 0.02452 0.31334 0.46252 0.0
C452 C 0.99753 0.31858 0.44864 0.0
C453 C 0.08059 0.27756 0.47635 0.0
C454 C 0.06337 0.26612 0.49265 0.0
C455 C 0.12191 0.27884 0.47482 0.0
C456 C 0.14154 0.29288 0.4582 0.0
C457 C 0.13207 0.32977 0.45081 0.0
C458 C 0.15048 0.34278 0.4351 0.0
C459 C 0.17862 0.31926 0.4267 0.0
C460 C 0.18846 0.28271 0.43403 0.0
C461 C 0.1701 0.26955 0.44973 0.0
H462 H 0.19285 0.32938 0.41454 0.0
H463 H 0.01303 0.20051 0.56634 0.0
H464 H 0.80781 0.7695 0.96254 0.0
H465 H 0.79449 0.81046 0.9891 0.0
H466 H 0.77877 0.91149 0.95463 0.0
H467 H 0.79279 0.87099 0.92831 0.0
H468 H 0.82683 0.92867 0.98129 0.0
H469 H 0.70083 0.86244 0.97563 0.0
H470 H 0.65756 0.80432 0.97439 0.0
H471 H 0.69714 0.7688 0.02686 0.0
H472 H 0.74102 0.82649 0.0283 0.0
H473 H 0.71476 0.06886 0.02711 0.0
H474 H 0.73611 0.01518 0.00755 0.0
H475 H 0.7699 0.94728 0.05411 0.0
H476 H 0.74891 1.0016 0.07384 0.0
H477 H 0.72168 0.90638 0.02624 0.0
H478 H 0.83908 0.97961 0.03361 0.0
H479 H 0.88022 0.03903 0.03493 0.0
H480 H 0.85694 0.06187 0.97907 0.0
H481 H 0.81453 1.00316 0.97753 0.0
C482 C 0.80064 0.80027 0.9607 0.0
C483 C 0.80114 0.81718 0.94344 0.0
C484 C 0.7932 0.82366 0.97584 0.0
C485 C 0.78569 0.86408 0.97385 0.0
C486 C 0.78483 0.88048 0.95652 0.0
C487 C 0.79257 0.85732 0.94149 0.0
C488 C 0.78004 0.89014 0.98966 0.0
C489 C 0.80369 0.92386 0.99106 0.0
C490 C 0.75096 0.88305 0.00285 0.0
C491 C 0.72453 0.84849 0.00198 0.0
C492 C 0.70053 0.84206 0.98684 0.0
C493 C 0.67585 0.80923 0.98611 0.0
C494 C 0.6747 0.78281 0.00051 0.0
C495 C 0.69813 0.78924 0.0157 0.0
C496 C 0.72288 0.822 0.01648 0.0
C497 C 0.7266 0.04244 0.03316 0.0
C498 C 0.7301 0.03917 0.05194 0.0
C499 C 0.73892 0.01193 0.02201 0.0
C500 C 0.75455 0.97741 0.02944 0.0
C501 C 0.75785 0.97378 0.0482 0.0
C502 C 0.74614 0.00474 0.05939 0.0
C503 C 0.76732 0.94551 0.01729 0.0
C504 C 0.74522 0.91073 0.01663 0.0
C505 C 0.79774 0.95165 0.00471 0.0
C506 C 0.82333 0.98704 0.0055 0.0
C507 C 0.84235 0.9975 0.02164 0.0
C508 C 0.86598 0.03106 0.02242 0.0
C509 C 0.87131 0.05418 0.00708 0.0
C510 C 0.85287 0.04385 0.99093 0.0
C511 C 0.82895 0.01047 0.99011 0.0
H512 H 0.88973 0.08009 0.00771 0.0
H513 H 0.65558 0.75742 -7e-05 0.0
H514 H 0.74661 0.24247 0.02637 0.0
H515 H 0.77811 0.26764 -0.001 0.0
H516 H 0.88335 0.29227 0.02935 0.0
H517 H 0.85217 0.2668 0.05661 0.0
H518 H 0.86657 0.34816 0.00087 0.0
H519 H 0.8766 0.20656 0.01272 0.0
H520 H 0.84594 0.14221 0.01877 0.0
H521 H 0.7831 0.14905 0.96869 0.0
H522 H 0.81281 0.21395 0.96254 0.0
H523 H 0.04233 0.30874 0.95758 0.0
H524 H 0.98392 0.31367 0.9761 0.0
H525 H 0.91251 0.27555 0.93136 0.0
H526 H 0.9712 0.27097 0.91251 0.0
H527 H 0.89704 0.23431 0.96144 0.0
H528 H 0.90402 0.36921 0.9463 0.0
H529 H 0.93489 0.43384 0.94126 0.0
H530 H 0.96613 0.44058 -0.00278 0.0
H531 H 0.93599 0.37571 0.00256 0.0
C532 C 0.77597 0.25454 0.02725 0.0
C533 C 0.79725 0.25254 0.04344 0.0
C534 C 0.79387 0.26885 0.01167 0.0
C535 C 0.83304 0.28153 0.01222 0.0
C536 C 0.85303 0.28277 0.02873 0.0
C537 C 0.83537 0.26803 0.04422 0.0
C538 C 0.85557 0.28699 -0.00452 0.0
C539 C 0.87312 0.3235 0.99211 0.0
C540 C 0.8632 0.25486 0.98392 0.0
C541 C 0.84648 0.21527 0.98729 0.0
C542 C 0.85606 0.19443 0.00305 0.0
C543 C 0.83885 0.15789 0.00651 0.0
C544 C 0.81244 0.14163 0.99416 0.0
C545 C 0.80344 0.16176 0.97827 0.0
C546 C 0.82043 0.19844 0.9748 0.0
C547 C 0.01422 0.30219 0.9515 0.0
C548 C 0.01153 0.28949 0.93353 0.0
C549 C 0.98076 0.30509 0.96212 0.0
C550 C 0.9438 0.29559 0.95502 0.0
C551 C 0.94078 0.28324 0.93705 0.0
C552 C 0.97437 0.28036 0.92635 0.0
C553 C 0.90923 0.29536 0.96703 0.0
C554 C 0.88953 0.25959 0.96965 0.0
C555 C 0.89976 0.32823 0.97789 0.0
C556 C 0.9178 0.36745 0.97481 0.0
C557 C 0.91768 0.38434 0.95752 0.0
C558 C 0.93503 0.42105 0.95461 0.0
C559 C 0.95248 0.44129 0.96891 0.0
C560 C 0.95257 0.42488 0.98615 0.0
C561 C 0.93528 0.38816 0.98914 0.0
H562 H 0.96591 0.4697 0.96663 0.0
H563 H 0.79899 0.11342 -0.00312 0.0
H564 H 0.18676 0.18671 0.95992 0.0
H565 H 0.22927 0.16153 0.98367 0.0
H566 H 0.31444 0.12599 0.94398 0.0
H567 H 0.27142 0.15092 0.91995 0.0
H568 H 0.29579 0.06695 0.96684 0.0
H569 H 0.33925 0.19769 0.97306 0.0
H570 H 0.33441 0.26988 0.97498 0.0
H571 H 0.26762 0.25989 0.0237 0.0
H572 H 0.27148 0.18762 0.02196 0.0
H573 H 0.3723 0.98072 0.04592 0.0
H574 H 0.37687 0.02708 0.02089 0.0
H575 H 0.2712 0.08435 0.0389 0.0
H576 H 0.26575 0.03807 0.06355 0.0
H577 H 0.32516 0.13693 0.02395 0.0
H578 H 0.26385 0.00928 0.01052 0.0
H579 H 0.26498 0.93684 0.00862 0.0
H580 H 0.36411 0.94236 0.97311 0.0
H581 H 0.36382 0.01489 0.97502 0.0
C582 C 0.21462 0.17369 0.95625 0.0
C583 C 0.22566 0.17033 0.93812 0.0
C584 C 0.23915 0.15983 0.96984 0.0
C585 C 0.27528 0.14242 0.9656 0.0
C586 C 0.28684 0.13971 0.94751 0.0
C587 C 0.26232 0.1539 0.93385 0.0
C588 C 0.29825 0.12331 0.98007 0.0
C589 C 0.30356 0.08248 0.9791 0.0
C590 C 0.30801 0.14355 -0.00387 0.0
C591 C 0.30563 0.18711 -0.00265 0.0
C592 C 0.32332 0.21084 0.98413 0.0
C593 C 0.32077 0.25181 0.9852 0.0
C594 C 0.30072 0.26946 -0.00055 0.0
C595 C 0.2832 0.24618 0.01268 0.0
C596 C 0.28563 0.20519 0.01168 0.0
C597 C 0.35025 0.00343 0.04472 0.0
C598 C 0.31807 0.00484 0.05657 0.0
C599 C 0.35319 0.03014 0.03049 0.0
C600 C 0.3241 0.05874 0.02795 0.0
C601 C 0.29403 0.0625 0.04066 0.0
C602 C 0.29094 0.03578 0.05481 0.0
C603 C 0.32087 0.08067 0.01085 0.0
C604 C 0.31912 0.12185 0.01138 0.0
C605 C 0.31419 0.06083 -0.00563 0.0
C606 C 0.31413 0.01736 0.99309 0.0
C607 C 0.28603 0.99499 0.00241 0.0
C608 C 0.2865 0.95395 0.00132 0.0
C609 C 0.31469 0.935 0.9908 0.0
C610 C 0.34237 0.95708 0.9813 0.0
C611 C 0.34208 0.99814 0.98238 0.0
H612 H 0.31501 0.90322 0.98996 0.0
H613 H 0.29877 0.30118 0.00024 0.0
H614 H 0.95153 0.67872 0.95164 0.0
H615 H 0.99511 0.70327 0.97517 0.0
H616 H 0.05183 0.7793 0.93672 0.0
H617 H 0.00793 0.75468 0.91291 0.0
H618 H 0.10384 0.73576 0.9616 0.0
H619 H 0.9933 0.82208 0.96092 0.0
H620 H 0.9229 0.83861 0.9603 0.0
H621 H 0.90695 0.78109 0.01123 0.0
H622 H 0.97717 0.76351 0.01198 0.0
H623 H 0.19279 0.86379 0.02584 0.0
H624 H 0.15688 0.83509 0.00053 0.0
H625 H 0.08697 0.76687 0.03749 0.0
H626 H 0.12265 0.79596 0.06297 0.0
H627 H 0.04253 0.80778 0.01243 0.0
H628 H 0.15451 0.72198 0.01277 0.0
H629 H 0.225 0.7058 0.01272 0.0
H630 H 0.23867 0.76426 0.96188 0.0
H631 H 0.16833 0.78129 0.96174 0.0
C632 C 0.97369 0.70014 0.94809 0.0
C633 C 0.97648 0.71478 0.93045 0.0
C634 C 0.99836 0.71429 0.96157 0.0
C635 C 0.02639 0.74313 0.95762 0.0
C636 C 0.03025 0.75699 0.93993 0.0
C637 C 0.00514 0.74315 0.92644 0.0
C638 C 0.05033 0.75973 0.9723 0.0
C639 C 0.09069 0.75205 0.9726 0.0
C640 C 0.0327 0.78028 0.98671 0.0
C641 C 0.99047 0.79112 0.98642 0.0
C642 C 0.97473 0.81262 0.97191 0.0
C643 C 0.93486 0.82224 0.97155 0.0
C644 C 0.91046 0.81085 0.9857 0.0
C645 C 0.92589 0.78986 0.00026 0.0
C646 C 0.96574 0.78007 0.00067 0.0
C647 C 0.16988 0.8425 0.02855 0.0
C648 C 0.16025 0.83219 0.04633 0.0
C649 C 0.14961 0.82598 0.0141 0.0
C650 C 0.1194 0.79883 0.01717 0.0
C651 C 0.11025 0.7878 0.03489 0.0
C652 C 0.13075 0.80417 0.04939 0.0
C653 C 0.09618 0.78351 0.00189 0.0
C654 C 0.05582 0.79153 0.00145 0.0
C655 C 0.11391 0.76355 0.9873 0.0
C656 C 0.15621 0.75324 0.98733 0.0
C657 C 0.1726 0.73168 0.00165 0.0
C658 C 0.21253 0.7223 0.00164 0.0
C659 C 0.23632 0.73408 0.98733 0.0
C660 C 0.22021 0.75519 0.97297 0.0
C661 C 0.18031 0.76468 0.97292 0.0
H662 H 0.26722 0.72678 0.98735 0.0
H663 H 0.87962 0.81838 0.98542 0.0
H664 H 0.65687 0.94886 0.63845 0.0
H665 H 0.59483 0.97945 0.64739 0.0
H666 H 0.53666 0.8671 0.64337 0.0
H667 H 0.59826 0.83643 0.63444 0.0
H668 H 0.50314 0.9226 0.62214 0.0
H669 H 0.54453 0.9113 0.68332 0.0
H670 H 0.5905 0.91862 0.70877 0.0
H671 H 0.58736 0.04417 0.70281 0.0
H672 H 0.54192 0.03761 0.67709 0.0
H673 H 0.3187 0.00789 0.63699 0.0
H674 H 0.37451 0.96521 0.64416 0.0
H675 H 0.44882 0.06718 0.65001 0.0
H676 H 0.39332 0.10984 0.64312 0.0
H677 H 0.47059 0.0102 0.67337 0.0
H678 H 0.44037 0.02206 0.61013 0.0
H679 H 0.40077 0.01704 0.5824 0.0
H680 H 0.38762 0.89279 0.59065 0.0
H681 H 0.42666 0.89716 0.61863 0.0
C682 C 0.63112 0.9305 0.64 0.0
C683 C 0.63231 0.89035 0.63552 0.0
C684 C 0.59569 0.94799 0.64512 0.0
C685 C 0.5611 0.92553 0.64594 0.0
C686 C 0.56295 0.88497 0.64272 0.0
C687 C 0.59822 0.86752 0.63763 0.0
C688 C 0.5224 0.94495 0.64782 0.0
C689 C 0.49559 0.94096 0.63357 0.0
C690 C 0.51319 0.96978 0.66248 0.0
C691 C 0.53999 0.97393 0.67817 0.0
C692 C 0.55384 0.94047 0.68734 0.0
C693 C 0.57979 0.94448 0.70183 0.0
C694 C 0.5919 0.98183 0.70738 0.0
C695 C 0.57797 0.01525 0.69849 0.0
C696 C 0.55207 0.0114 0.68396 0.0
C697 C 0.34665 0.02122 0.64034 0.0
C698 C 0.35181 0.06216 0.63924 0.0
C699 C 0.37855 0.99681 0.64434 0.0
C700 C 0.41597 0.01303 0.64728 0.0
C701 C 0.42028 0.05402 0.64772 0.0
C702 C 0.38852 0.07836 0.64369 0.0
C703 C 0.45144 0.9878 0.64767 0.0
C704 C 0.47776 0.99098 0.6622 0.0
C705 C 0.46059 0.96248 0.63313 0.0
C706 C 0.43596 0.96004 0.61663 0.0
C707 C 0.42858 0.99376 0.60618 0.0
C708 C 0.4063 0.99101 0.59039 0.0
C709 C 0.3916 0.95464 0.5848 0.0
C710 C 0.39895 0.92096 0.59503 0.0
C711 C 0.42111 0.92356 0.61087 0.0
H712 H 0.37478 0.95246 0.57247 0.0
H713 H 0.61203 0.98487 0.71859 0.0
H714 H 0.05099 0.67423 0.35347 0.0
H715 H 0.00919 0.61775 0.34602 0.0
H716 H 0.10981 0.54109 0.34885 0.0
H717 H 0.15163 0.59713 0.35576 0.0
H718 H 0.06153 0.51615 0.32327 0.0
H719 H 0.05025 0.55648 0.38534 0.0
H720 H 0.03744 0.60502 0.4093 0.0
H721 H 0.91933 0.61928 0.39019 0.0
H722 H 0.9317 0.57132 0.36588 0.0
H723 H 0.98033 0.33398 0.35443 0.0
H724 H 0.01652 0.39504 0.34891 0.0
H725 H 0.90737 0.45787 0.34311 0.0
H726 H 0.87108 0.39718 0.3486 0.0
H727 H 0.9552 0.49277 0.3675 0.0
H728 H 0.96644 0.44435 0.30714 0.0
H729 H 0.9821 0.39582 0.28356 0.0
H730 H 0.10256 0.39478 0.30059 0.0
H731 H 0.08751 0.44291 0.32444 0.0
C732 C 0.06431 0.64548 0.35207 0.0
C733 C 0.10454 0.64011 0.35546 0.0
C734 C 0.04037 0.61317 0.34791 0.0
C735 C 0.05622 0.57498 0.34725 0.0
C736 C 0.09681 0.57014 0.34935 0.0
C737 C 0.12069 0.6023 0.35341 0.0
C738 C 0.03057 0.5396 0.34612 0.0
C739 C 0.03834 0.51097 0.33296 0.0
C740 C 1.00001 0.53295 0.35866 0.0
C741 C 0.99204 0.56067 0.37366 0.0
C742 C 0.02159 0.57008 0.3862 0.0
C743 C 0.01443 0.5975 0.39984 0.0
C744 C 0.97765 0.61533 0.40122 0.0
C745 C 0.94785 0.60552 0.38906 0.0
C746 C 0.95491 0.57823 0.37535 0.0
C747 C 0.96403 0.36056 0.3515 0.0
C748 C 0.92279 0.36067 0.35204 0.0
C749 C 0.98477 0.39551 0.34838 0.0
C750 C 0.96465 0.43113 0.34566 0.0
C751 C 0.92352 0.43084 0.34528 0.0
C752 C 0.90283 0.396 0.34834 0.0
C753 C 0.98628 0.46912 0.34469 0.0
C754 C 0.97791 0.49816 0.35758 0.0
C755 C 0.01657 0.47586 0.33206 0.0
C756 C 0.02576 0.44702 0.31768 0.0
C757 C 0.99621 0.43355 0.30595 0.0
C758 C 0.00499 0.40615 0.29252 0.0
C759 C 0.04329 0.39216 0.2906 0.0
C760 C 0.0729 0.40562 0.30209 0.0
C761 C 0.06427 0.433 0.31556 0.0
H762 H 0.05003 0.37095 0.28019 0.0
H763 H 0.97226 0.63673 0.41171 0.0
H764 H 0.59275 0.15884 0.1354 0.0
H765 H 0.53614 0.11933 0.14399 0.0
H766 H 0.60305 0.01336 0.13539 0.0
H767 H 0.66009 0.05296 0.12663 0.0
H768 H 0.53529 0.01393 0.11631 0.0
H769 H 0.57189 0.03759 0.17739 0.0
H770 H 0.59171 0.07716 0.20369 0.0
H771 H 0.48347 0.14141 0.20089 0.0
H772 H 0.46322 0.10262 0.17438 0.0
H773 H 0.38018 0.89005 0.13779 0.0
H774 H 0.44186 0.9237 0.14407 0.0
H775 H 0.3824 0.0355 0.14285 0.0
H776 H 0.32017 1.00201 0.13635 0.0
H777 H 0.44836 0.02786 0.16949 0.0
H778 H 0.41756 0.01441 0.10641 0.0
H779 H 0.39583 0.97773 0.0796 0.0
H780 H 0.49229 0.89766 0.08581 0.0
H781 H 0.51438 0.93378 0.11286 0.0
C782 C 0.59574 0.12713 0.1357 0.0
C783 C 0.63078 0.10897 0.13021 0.0
C784 C 0.56337 0.10457 0.14074 0.0
C785 C 0.56535 0.06338 0.14039 0.0
C786 C 0.60094 0.04513 0.13579 0.0
C787 C 0.63353 0.06777 0.13086 0.0
C788 C 0.529 0.03984 0.14265 0.0
C789 C 0.51685 0.01629 0.12816 0.0
C790 C 0.50416 0.04401 0.15781 0.0
C791 C 0.51616 0.06734 0.1738 0.0
C792 C 0.55243 0.06036 0.18228 0.0
C793 C 0.56372 0.08262 0.19725 0.0
C794 C 0.5389 0.11183 0.20394 0.0
C795 C 0.50268 0.11878 0.19569 0.0
C796 C 0.49126 0.09662 0.18071 0.0
C797 C 0.37988 0.92174 0.13929 0.0
C798 C 0.34537 0.94343 0.13627 0.0
C799 C 0.4152 0.94088 0.14294 0.0
C800 C 0.41668 0.98203 0.14372 0.0
C801 C 0.38175 0.00367 0.14233 0.0
C802 C 0.34627 0.9845 0.13856 0.0
C803 C 0.45516 1.00219 0.14321 0.0
C804 C 0.46739 0.02514 0.15787 0.0
C805 C 0.48007 0.99797 0.12814 0.0
C806 C 0.46733 0.97648 0.11176 0.0
C807 C 0.43395 0.98879 0.10214 0.0
C808 C 0.42158 0.96813 0.08689 0.0
C809 C 0.44252 0.93524 0.08103 0.0
C810 C 0.47603 0.92309 0.09039 0.0
C811 C 0.48853 0.94367 0.10567 0.0
H812 H 0.43286 0.91927 0.06922 0.0
H813 H 0.5477 0.12903 0.21553 0.0
H814 H 0.01311 0.3066 0.85973 0.0
H815 H 0.97343 0.36482 0.85255 0.0
H816 H 0.07895 0.43355 0.84645 0.0
H817 H 0.11849 0.37597 0.85363 0.0
H818 H 0.0291 0.46576 0.87053 0.0
H819 H 0.02147 0.41317 0.8105 0.0
H820 H 0.00732 0.36256 0.78761 0.0
H821 H 0.88639 0.36065 0.80364 0.0
H822 H 0.89993 0.41087 0.82682 0.0
H823 H 0.94473 0.64636 0.84971 0.0
H824 H 0.98173 0.58617 0.84376 0.0
H825 H 0.87621 0.5175 0.84981 0.0
H826 H 0.83887 0.57749 0.85551 0.0
H827 H 0.92553 0.48511 0.82432 0.0
H828 H 0.93223 0.52898 0.88564 0.0
H829 H 0.94293 0.57742 0.90981 0.0
H830 H 0.06227 0.59281 0.89278 0.0
H831 H 0.05214 0.54442 0.8684 0.0
C832 C 0.0278 0.33389 0.8564 0.0
C833 C 0.0689 0.33679 0.85741 0.0
C834 C 0.00512 0.36714 0.8523 0.0
C835 C 0.02326 0.40361 0.84904 0.0
C836 C 0.06433 0.40582 0.84902 0.0
C837 C 0.08688 0.3728 0.85312 0.0
C838 C 0.99989 0.44034 0.84753 0.0
C839 C 0.007 0.47019 0.86019 0.0
C840 C 0.97003 0.44562 0.83448 0.0
C841 C 0.96181 0.41552 0.82052 0.0
C842 C 0.99193 0.40172 0.80925 0.0
C843 C 0.984 0.37315 0.7962 0.0
C844 C 0.946 0.35832 0.7942 0.0
C845 C 0.91583 0.37212 0.80522 0.0
C846 C 0.9236 0.40067 0.8183 0.0
C847 C 0.92916 0.61859 0.8493 0.0
C848 C 0.88895 0.61668 0.85338 0.0
C849 C 0.95039 0.58418 0.84595 0.0
C850 C 0.93184 0.54728 0.84669 0.0
C851 C 0.89114 0.5456 0.84924 0.0
C852 C 0.86988 0.57998 0.85258 0.0
C853 C 0.95544 0.51057 0.84709 0.0
C854 C 0.94808 0.48071 0.83445 0.0
C855 C 0.9848 0.50481 0.86032 0.0
C856 C 0.99131 0.53344 0.8751 0.0
C857 C 0.96069 0.54287 0.88699 0.0
C858 C 0.96666 0.5703 0.90074 0.0
C859 C 0.00321 0.5884 0.90278 0.0
C860 C 0.03395 0.57885 0.89115 0.0
C861 C 0.02813 0.55135 0.87739 0.0
H862 H 0.00775 0.60973 0.91341 0.0
H863 H 0.93993 0.33621 0.78409 0.0
H864 H 0.1647 0.99317 0.64549 0.0
H865 H 0.09675 0.96995 0.6441 0.0
H866 H 0.07592 0.04269 0.59751 0.0
H867 H 0.14399 0.06574 0.59867 0.0
H868 H 0.01705 0.04944 0.62451 0.0
H869 H 0.08218 0.94997 0.59052 0.0
H870 H 0.13275 0.90005 0.58423 0.0
H871 H 0.09616 0.83383 0.63047 0.0
H872 H 0.04572 0.88369 0.6372 0.0
H873 H 0.82995 0.95735 0.60458 0.0
H874 H 0.89444 0.98943 0.6046 0.0
H875 H 0.93466 0.90808 0.64523 0.0
H876 H 0.87094 0.87543 0.64479 0.0
H877 H 0.98363 0.90809 0.61847 0.0
H878 H 0.91979 0.00939 0.65317 0.0
H879 H 0.86945 0.05967 0.65932 0.0
H880 H 0.90317 0.12258 0.61167 0.0
H881 H 0.9534 0.07239 0.60511 0.0
C882 C 0.14581 0.00391 0.63482 0.0
C883 C 0.15988 0.03109 0.62212 0.0
C884 C 0.10696 0.99066 0.63406 0.0
C885 C 0.08125 0.00462 0.62071 0.0
C886 C 0.09523 0.0316 0.60794 0.0
C887 C 0.13427 0.04444 0.60853 0.0
C888 C 0.03976 0.99111 0.62027 0.0
C889 C 0.00959 0.01861 0.62294 0.0
C890 C 0.03013 0.95087 0.61846 0.0
C891 C 0.06042 0.92078 0.61446 0.0
C892 C 0.08515 0.92495 0.59945 0.0
C893 C 0.11374 0.89662 0.59578 0.0
C894 C 0.11773 0.86384 0.60697 0.0
C895 C 0.09307 0.85927 0.62183 0.0
C896 C 0.06444 0.88754 0.62557 0.0
C897 C 0.85218 0.94717 0.6139 0.0
C898 C 0.84546 0.91386 0.62467 0.0
C899 C 0.88916 0.96542 0.61386 0.0
C900 C 0.91969 0.95106 0.62484 0.0
C901 C 0.91187 0.91951 0.63649 0.0
C902 C 0.8753 0.90104 0.63634 0.0
C903 C 0.96063 0.96623 0.62326 0.0
C904 C 0.99085 0.93898 0.62006 0.0
C905 C 0.97018 0.00669 0.6246 0.0
C906 C 0.94006 0.03691 0.62855 0.0
C907 C 0.91625 0.03378 0.64392 0.0
C908 C 0.88778 0.06229 0.6475 0.0
C909 C 0.88304 0.09424 0.63586 0.0
C910 C 0.90684 0.09779 0.62065 0.0
C911 C 0.93533 0.06934 0.61701 0.0
H912 H 0.86098 0.11628 0.63865 0.0
H913 H 0.13988 0.84193 0.6041 0.0
H914 H 0.15992 0.892 0.36003 0.0
H915 H 0.12403 0.95376 0.35985 0.0
H916 H 0.01844 0.89282 0.37527 0.0
H917 H 0.05457 0.83012 0.37572 0.0
H918 H 0.00763 0.95092 0.34761 0.0
H919 H 0.0655 0.94001 0.40632 0.0
H920 H 0.11956 0.92915 0.42785 0.0
H921 H 0.18072 0.02925 0.40657 0.0
H922 H 0.1273 0.0403 0.38467 0.0
H923 H 0.89247 0.10572 0.3776 0.0
H924 H 0.93225 0.04718 0.37567 0.0
H925 H 0.03521 0.11807 0.36656 0.0
H926 H 0.99493 0.17825 0.36896 0.0
H927 H 0.05037 0.05652 0.38949 0.0
H928 H 0.99059 0.06946 0.3316 0.0
H929 H 0.93583 0.08047 0.31046 0.0
H930 H 0.87829 0.97659 0.32997 0.0
H931 H 0.93238 0.96529 0.35146 0.0
C932 C 0.129 0.89138 0.36332 0.0
C933 C 0.11025 0.85589 0.36804 0.0
C934 C 0.10854 0.92694 0.36323 0.0
C935 C 0.06869 0.9281 0.36778 0.0
C936 C 0.04927 0.89262 0.37179 0.0
C937 C 0.06993 0.85681 0.37203 0.0
C938 C 0.04797 0.96664 0.36871 0.0
C939 C 0.01664 0.97384 0.35691 0.0
C940 C 0.06057 0.99706 0.38044 0.0
C941 C 0.09257 0.99073 0.39372 0.0
C942 C 0.09063 0.95951 0.40612 0.0
C943 C 0.12113 0.95335 0.41841 0.0
C944 C 0.1536 0.97843 0.41855 0.0
C945 C 0.15558 0.0098 0.40642 0.0
C946 C 0.12518 0.01604 0.39407 0.0
C947 C 0.92355 0.10936 0.37511 0.0
C948 C 0.94031 0.14703 0.37316 0.0
C949 C 0.94633 0.0755 0.37396 0.0
C950 C 0.98662 0.07791 0.3705 0.0
C951 C 0.00404 0.11541 0.36905 0.0
C952 C 0.98104 0.14978 0.37038 0.0
C953 C 0.00968 0.04081 0.36847 0.0
C954 C 0.0415 0.0338 0.38007 0.0
C955 C 0.9976 0.01054 0.35649 0.0
C956 C 0.96547 0.01668 0.34324 0.0
C957 C 0.96619 0.04905 0.33144 0.0
C958 C 0.93526 0.05534 0.31939 0.0
C959 C 0.90356 0.02929 0.3189 0.0
C960 C 0.90285 0.99676 0.33038 0.0
C961 C 0.93366 0.99037 0.34249 0.0
H962 H 0.87954 0.0343 0.30963 0.0
H963 H 0.17719 0.97362 0.42807 0.0
H964 H 0.16387 0.04017 0.13935 0.0
H965 H 0.09581 0.06246 0.13773 0.0
H966 H 0.07949 0.99715 0.08848 0.0
H967 H 0.14776 0.97585 0.08969 0.0
H968 H 0.03844 0.06222 0.08667 0.0
H969 H 0.05121 0.95905 0.12961 0.0
H970 H 0.07888 0.92422 0.15584 0.0
H971 H 0.04472 0.01943 0.19037 0.0
H972 H 0.01722 0.05509 0.16431 0.0
H973 H 0.82914 0.07184 0.09534 0.0
H974 H 0.89425 0.04079 0.09455 0.0
H975 H 0.93164 0.11391 0.13885 0.0
H976 H 0.8671 0.1449 0.13962 0.0
H977 H 0.95947 0.03759 0.14159 0.0
H978 H 0.94753 0.14051 0.09638 0.0
H979 H 0.9175 0.17066 0.06949 0.0
H980 H 0.94876 0.06958 0.038 0.0
H981 H 0.97782 0.03823 0.06485 0.0
C982 C 0.14606 0.03119 0.12798 0.0
C983 C 0.16131 0.00592 0.11475 0.0
C984 C 0.10699 0.04369 0.12713 0.0
C985 C 0.08208 0.03059 0.11325 0.0
C986 C 0.09793 0.00745 0.09941 0.0
C987 C 0.13714 0.99532 0.10012 0.0
C988 C 0.03919 0.03926 0.11372 0.0
C989 C 0.02109 0.05633 0.0986 0.0
C990 C 0.01628 0.03139 0.12922 0.0
C991 C 0.03244 0.00989 0.14497 0.0
C992 C 0.04981 0.97267 0.14278 0.0
C993 C 0.06546 0.95277 0.15761 0.0
C994 C 0.06368 0.96965 0.17474 0.0
C995 C 0.04612 0.00642 0.17708 0.0
C996 C 0.03045 0.02647 0.16229 0.0
C997 C 0.85092 0.08042 0.10521 0.0
C998 C 0.84313 0.1108 0.11753 0.0
C999 C 0.8882 0.06295 0.10465 0.0
C1000 C 0.91797 0.07543 0.1165 0.0
C1001 C 0.90922 0.10388 0.12955 0.0
C1002 C 0.87233 0.12158 0.12997 0.0
C1003 C 0.95905 0.06132 0.11474 0.0
C1004 C 0.9768 0.04313 0.12962 0.0
C1005 C 0.98136 0.06755 0.09891 0.0
C1006 C 0.96438 0.08677 0.08271 0.0
C1007 C 0.94762 0.12451 0.08378 0.0
C1008 C 0.93073 0.14181 0.06854 0.0
C1009 C 0.93099 0.12194 0.05207 0.0
C1010 C 0.94832 0.08482 0.05079 0.0
C1011 C 0.96493 0.06723 0.06603 0.0
H1012 H 0.91791 0.13537 0.04028 0.0
H1013 H 0.07583 0.95419 0.18621 0.0
H1014 H 0.95696 0.80953 0.8825 0.0
H1015 H 0.99328 0.8718 0.88432 0.0
H1016 H 0.92132 0.91972 0.84183 0.0
H1017 H 0.88489 0.85802 0.84011 0.0
H1018 H 0.9981 0.94329 0.83895 0.0
H1019 H 0.89658 0.93824 0.88469 0.0
H1020 H 0.86289 0.90855 0.91071 0.0
H1021 H 0.96918 0.91524 0.94172 0.0
H1022 H 0.00349 0.94509 0.91582 0.0
H1023 H 0.99977 0.14806 0.84817 0.0
H1024 H 0.97912 0.07933 0.84752 0.0
H1025 H 0.05018 0.05548 0.89438 0.0
H1026 H 0.07028 0.12461 0.89538 0.0
H1027 H 0.98322 0.01581 0.89652 0.0
H1028 H 0.08143 0.03198 0.8511 0.0
H1029 H 0.11353 0.06049 0.82437 0.0
H1030 H 0.01323 0.03109 0.79198 0.0
H1031 H 0.98023 1.00304 0.81855 0.0
C1032 C 0.94969 0.83293 0.8732 0.0
C1033 C 0.91791 0.82898 0.86122 0.0
C1034 C 0.97021 0.86865 0.87438 0.0
C1035 C 0.95956 0.90069 0.86342 0.0
C1036 C 0.92997 0.89555 0.85048 0.0
C1037 C 0.90921 0.86021 0.84948 0.0
C1038 C 0.9768 0.9405 0.86614 0.0
C1039 C 0.99481 0.95923 0.85151 0.0
C1040 C 0.97323 0.96099 0.88265 0.0
C1041 C 0.95265 0.94354 0.89829 0.0
C1042 C 0.91279 0.93322 0.89703 0.0
C1043 C 0.89358 0.91643 0.91176 0.0
C1044 C 0.91392 0.90988 0.92784 0.0
C1045 C 0.95348 0.92032 0.92925 0.0
C1046 C 0.97279 0.93727 0.91456 0.0
C1047 C 0.0107 0.12835 0.85848 0.0
C1048 C 0.03685 0.14192 0.87177 0.0
C1049 C 0.99909 0.08889 0.85801 0.0
C1050 C 0.01386 0.06182 0.87062 0.0
C1051 C 0.03859 0.07563 0.88441 0.0
C1052 C 0.04998 0.11527 0.88499 0.0
C1053 C 0.00389 0.01916 0.86914 0.0
C1054 C 0.98723 0.99983 0.88402 0.0
C1055 C 0.00864 0.99809 0.8528 0.0
C1056 C 0.02825 0.01559 0.83686 0.0
C1057 C 0.06607 0.03191 0.83831 0.0
C1058 C 0.08445 0.04794 0.82318 0.0
C1059 C 0.06542 0.04755 0.80649 0.0
C1060 C 0.02792 0.03133 0.80491 0.0
C1061 C 0.00938 0.01536 0.82 0.0
H1062 H 0.0797 0.05965 0.79475 0.0
H1063 H 0.89898 0.89683 0.93922 0.0
H1064 H 0.1824 0.22494 0.67059 0.0
H1065 H 0.18651 0.24282 0.70251 0.0
H1066 H 0.27964 0.15855 0.71001 0.0
H1067 H 0.27528 0.14012 0.67838 0.0
H1068 H 0.21579 0.14698 0.73219 0.0
H1069 H 0.30027 0.25271 0.71418 0.0
H1070 H 0.31927 0.31119 0.69663 0.0
H1071 H 0.22071 0.37462 0.71776 0.0
H1072 H 0.20075 0.3163 0.73524 0.0
H1073 H 0.23419 0.17221 0.82389 0.0
H1074 H 0.25703 0.17716 0.79276 0.0
H1075 H 0.16829 0.26446 0.78182 0.0
H1076 H 0.14588 0.26006 0.81304 0.0
H1077 H 0.23547 0.27671 0.76153 0.0
H1078 H 0.1463 0.17268 0.7762 0.0
H1079 H 0.12371 0.11617 0.79408 0.0
H1080 H 0.22492 0.04998 0.77786 0.0
H1081 H 0.24891 0.10684 0.76038 0.0
C1082 C 0.20403 0.21063 0.67902 0.0
C1083 C 0.2283 0.18096 0.67201 0.0
C1084 C 0.20664 0.22114 0.69716 0.0
C1085 C 0.2335 0.20206 0.70851 0.0
C1086 C 0.25891 0.17373 0.70138 0.0
C1087 C 0.25647 0.16337 0.68328 0.0
C1088 C 0.23158 0.20772 0.72817 0.0
C1089 C 0.22096 0.17516 0.73864 0.0
C1090 C 0.23688 0.24485 0.7364 0.0
C1091 C 0.24882 0.27998 0.7259 0.0
C1092 C 0.28243 0.279 0.71496 0.0
C1093 C 0.29342 0.31215 0.70505 0.0
C1094 C 0.27116 0.34657 0.70604 0.0
C1095 C 0.2379 0.34793 0.71699 0.0
C1096 C 0.22677 0.31484 0.72692 0.0
C1097 C 0.22014 0.19296 0.8149 0.0
C1098 C 0.18783 0.21515 0.82066 0.0
C1099 C 0.23335 0.19601 0.79722 0.0
C1100 C 0.21382 0.22065 0.78498 0.0
C1101 C 0.18372 0.24531 0.7911 0.0
C1102 C 0.17083 0.24263 0.80888 0.0
C1103 C 0.22027 0.21583 0.76547 0.0
C1104 C 0.23112 0.24845 0.75504 0.0
C1105 C 0.2145 0.17886 0.75712 0.0
C1106 C 0.19964 0.14418 0.76716 0.0
C1107 C 0.16391 0.14618 0.77655 0.0
C1108 C 0.15084 0.11407 0.78662 0.0
C1109 C 0.17282 0.07942 0.7871 0.0
C1110 C 0.20794 0.07686 0.7775 0.0
C1111 C 0.22136 0.10907 0.76755 0.0
H1112 H 0.16262 0.05454 0.79489 0.0
H1113 H 0.27973 0.37221 0.69836 0.0
H1114 H 0.25036 0.88344 0.1761 0.0
H1115 H 0.25177 0.85802 0.20674 0.0
H1116 H 0.13971 0.80198 0.19816 0.0
H1117 H 0.13823 0.82712 0.16728 0.0
H1118 H 0.14277 0.84168 0.22998 0.0
H1119 H 0.22174 0.74723 0.19897 0.0
H1120 H 0.27488 0.72478 0.17899 0.0
H1121 H 0.36042 0.77782 0.2139 0.0
H1122 H 0.30774 0.8011 0.23397 0.0
H1123 H 0.15014 0.73329 0.31119 0.0
H1124 H 0.14783 0.74889 0.27912 0.0
H1125 H 0.25913 0.80862 0.28355 0.0
H1126 H 0.26151 0.79329 0.31572 0.0
H1127 H 0.25451 0.76302 0.25329 0.0
H1128 H 0.17597 0.86051 0.28325 0.0
H1129 H 0.12331 0.88355 0.30337 0.0
H1130 H 0.03737 0.82552 0.27038 0.0
H1131 H 0.08962 0.80158 0.25022 0.0
C1132 C 0.22627 0.86522 0.18058 0.0
C1133 C 0.19432 0.857 0.16917 0.0
C1134 C 0.22708 0.8508 0.19813 0.0
C1135 C 0.1961 0.82769 0.2046 0.0
C1136 C 0.16394 0.81971 0.19337 0.0
C1137 C 0.16309 0.83417 0.17577 0.0
C1138 C 0.19705 0.8128 0.22329 0.0
C1139 C 0.16681 0.82387 0.23501 0.0
C1140 C 0.22895 0.79036 0.22988 0.0
C1141 C 0.26074 0.77618 0.2179 0.0
C1142 C 0.25186 0.75437 0.20232 0.0
C1143 C 0.2819 0.74144 0.19099 0.0
C1144 C 0.32099 0.74994 0.19515 0.0
C1145 C 0.33012 0.77129 0.21068 0.0
C1146 C 0.30018 0.78432 0.22205 0.0
C1147 C 0.17403 0.7499 0.30537 0.0
C1148 C 0.2058 0.76249 0.31601 0.0
C1149 C 0.17274 0.75863 0.28704 0.0
C1150 C 0.20305 0.78034 0.27907 0.0
C1151 C 0.23545 0.79183 0.2895 0.0
C1152 C 0.23681 0.783 0.30784 0.0
C1153 C 0.20038 0.79213 0.25997 0.0
C1154 C 0.23031 0.78053 0.2482 0.0
C1155 C 0.16826 0.81418 0.25333 0.0
C1156 C 0.13675 0.82891 0.26533 0.0
C1157 C 0.14587 0.85241 0.28036 0.0
C1158 C 0.1161 0.86566 0.29176 0.0
C1159 C 0.07703 0.85592 0.28818 0.0
C1160 C 0.06765 0.83299 0.27316 0.0
C1161 C 0.09733 0.81958 0.26173 0.0
H1162 H 0.05402 0.8662 0.29702 0.0
H1163 H 0.34421 0.73991 0.18636 0.0
H1164 H 0.73784 0.70796 0.81619 0.0
H1165 H 0.72898 0.71582 0.7835 0.0
H1166 H 0.82804 0.79466 0.78193 0.0
H1167 H 0.83758 0.786 0.81449 0.0
H1168 H 0.74802 0.8177 0.76332 0.0
H1169 H 0.85152 0.71873 0.76792 0.0
H1170 H 0.87857 0.65611 0.77918 0.0
H1171 H 0.78221 0.59328 0.75539 0.0
H1172 H 0.75424 0.65569 0.74425 0.0
H1173 H 0.79013 0.84083 0.67156 0.0
H1174 H 0.79455 0.83005 0.704 0.0
H1175 H 0.72954 0.72177 0.69833 0.0
H1176 H 0.72555 0.7323 0.66573 0.0
H1177 H 0.78762 0.71172 0.72113 0.0
H1178 H 0.68552 0.80531 0.71435 0.0
H1179 H 0.65281 0.86567 0.70371 0.0
H1180 H 0.73748 0.93619 0.73192 0.0
H1181 H 0.77108 0.87623 0.74253 0.0
C1182 C 0.75753 0.72702 0.80881 0.0
C1183 C 0.78843 0.74631 0.8177 0.0
C1184 C 0.75253 0.73142 0.79024 0.0
C1185 C 0.77789 0.75579 0.78044 0.0
C1186 C 0.80824 0.77575 0.78935 0.0
C1187 C 0.81379 0.77064 0.80783 0.0
C1188 C 0.77319 0.75998 0.7608 0.0
C1189 C 0.75702 0.79483 0.75402 0.0
C1190 C 0.78361 0.72939 0.74889 0.0
C1191 C 0.80054 0.6919 0.75547 0.0
C1192 C 0.83588 0.69161 0.76527 0.0
C1193 C 0.85143 0.65615 0.77159 0.0
C1194 C 0.83205 0.62075 0.76805 0.0
C1195 C 0.79714 0.62073 0.75815 0.0
C1196 C 0.78144 0.65613 0.75183 0.0
C1197 C 0.77666 0.81482 0.67725 0.0
C1198 C 0.7572 0.78757 0.66617 0.0
C1199 C 0.77915 0.8087 0.69578 0.0
C1200 C 0.76168 0.7755 0.70364 0.0
C1201 C 0.7431 0.74767 0.69255 0.0
C1202 C 0.74092 0.75363 0.67395 0.0
C1203 C 0.76304 0.76996 0.72343 0.0
C1204 C 0.77843 0.73473 0.73032 0.0
C1205 C 0.75112 0.79999 0.73547 0.0
C1206 C 0.73104 0.83622 0.72911 0.0
C1207 C 0.69737 0.83368 0.71817 0.0
C1208 C 0.67863 0.86783 0.71216 0.0
C1209 C 0.69309 0.90474 0.71711 0.0
C1210 C 0.72632 0.90757 0.72809 0.0
C1211 C 0.74521 0.87351 0.73412 0.0
H1212 H 0.67852 0.93114 0.71245 0.0
H1213 H 0.84414 0.59332 0.77295 0.0
H1214 H 0.78955 0.17233 0.31978 0.0
H1215 H 0.78202 0.16524 0.28707 0.0
H1216 H 0.86505 0.25928 0.27885 0.0
H1217 H 0.87286 0.26621 0.3115 0.0
H1218 H 0.79113 0.26911 0.26149 0.0
H1219 H 0.89372 0.17432 0.26733 0.0
H1220 H 0.92777 0.11605 0.27938 0.0
H1221 H 0.83223 0.04244 0.2624 0.0
H1222 H 0.79735 0.1004 0.2504 0.0
H1223 H 0.79607 0.26042 0.16677 0.0
H1224 H 0.81571 0.26026 0.19841 0.0
H1225 H 0.74727 0.15525 0.20726 0.0
H1226 H 0.72791 0.15506 0.17547 0.0
H1227 H 0.8167 0.15068 0.22428 0.0
H1228 H 0.71267 0.24546 0.21974 0.0
H1229 H 0.6785 0.30349 0.20746 0.0
H1230 H 0.77566 0.37694 0.22257 0.0
H1231 H 0.81066 0.31922 0.23472 0.0
C1232 C 0.80644 0.19112 0.31094 0.0
C1233 C 0.83167 0.21985 0.31808 0.0
C1234 C 0.80235 0.18691 0.29233 0.0
C1235 C 0.82309 0.2117 0.28064 0.0
C1236 C 0.84897 0.23981 0.28772 0.0
C1237 C 0.85353 0.2436 0.30631 0.0
C1238 C 0.81512 0.21057 0.26112 0.0
C1239 C 0.79729 0.24349 0.25325 0.0
C1240 C 0.82222 0.17665 0.25063 0.0
C1241 C 0.84273 0.1418 0.25812 0.0
C1242 C 0.87974 0.14579 0.26635 0.0
C1243 C 0.89925 0.11279 0.27312 0.0
C1244 C 0.88214 0.07558 0.27169 0.0
C1245 C 0.84543 0.0713 0.2635 0.0
C1246 C 0.8258 0.10421 0.25669 0.0
C1247 C 0.78497 0.23749 0.17549 0.0
C1248 C 0.76011 0.208 0.16873 0.0
C1249 C 0.79631 0.23734 0.19354 0.0
C1250 C 0.78248 0.20806 0.20523 0.0
C1251 C 0.75826 0.17811 0.19845 0.0
C1252 C 0.7472 0.17805 0.18033 0.0
C1253 C 0.79261 0.20928 0.22461 0.0
C1254 C 0.81067 0.17637 0.23248 0.0
C1255 C 0.78552 0.24316 0.23519 0.0
C1256 C 0.76443 0.27796 0.22798 0.0
C1257 C 0.72687 0.27394 0.22033 0.0
C1258 C 0.70733 0.30678 0.21341 0.0
C1259 C 0.72494 0.34387 0.21419 0.0
C1260 C 0.76208 0.34819 0.22195 0.0
C1261 C 0.78176 0.31543 0.22886 0.0
H1262 H 0.70977 0.36926 0.20883 0.0
H1263 H 0.89741 0.05004 0.27684 0.0
loop_
_geom_bond_atom_site_label_1
_geom_bond_atom_site_label_2
_geom_bond_distance
_geom_bond_site_symmetry_2
_ccdc_geom_bond_type
C0 C1 1.351 . S
C0 N3 1.368 . S
C0 H5 0.931 . S
C1 C0 1.351 . S
C1 N2 1.373 . S
C1 H29 0.930 . S
N2 C1 1.373 . S
N2 C4 1.340 . S
N3 C0 1.368 . S
N3 C4 1.321 . S
N3 Co6 2.135 . S
C4 N2 1.340 . S
C4 N3 1.321 . S
C4 H28 0.930 . S
H5 C0 0.931 . S
Co6 N3 2.135 . S
Co6 N9 2.121 . S
Co6 O14 2.055 . S
Co6 O17 2.039 . S
Co6 N20 2.140 . S
C7 O8 1.227 . S
C7 O17 1.265 . S
O8 C7 1.227 . S
N9 Co6 2.121 . S
N9 C11 1.375 . S
N9 C12 1.313 . S
C10 C11 1.338 . S
C10 N13 1.377 . S
C10 H30 0.930 . S
C11 N9 1.375 . S
C11 C10 1.338 . S
C11 H15 0.931 . S
C12 N9 1.313 . S
C12 N13 1.344 . S
C12 H16 0.930 . S
N13 C10 1.377 . S
N13 C12 1.344 . S
O14 Co6 2.055 . S
O14 C18 1.253 . S
H15 C11 0.931 . S
H16 C12 0.930 . S
O17 Co6 2.039 . S
O17 C7 1.265 . S
C18 O14 1.253 . S
C18 O19 1.227 . S
O19 C18 1.227 . S
N20 Co6 2.140 . S
N20 C23 1.346 . S
N20 C24 1.345 . S
C21 C22 1.387 . S
C21 C25 1.391 . S
C22 C21 1.387 . S
C22 C23 1.369 . S
C22 H31 0.929 . S
C23 N20 1.346 . S
C23 C22 1.369 . S
C23 H26 0.928 . S
C24 N20 1.345 . S
C24 C25 1.371 . S
C24 H27 0.931 . S
C25 C21 1.391 . S
C25 C24 1.371 . S
C25 H32 0.930 . S
H26 C23 0.928 . S
H27 C24 0.931 . S
H28 C4 0.930 . S
H29 C1 0.930 . S
H30 C10 0.930 . S
H31 C22 0.929 . S
H32 C25 0.930 . S
C33 C34 1.351 . S
C33 N36 1.368 . S
C33 H38 0.931 . S
C34 C33 1.351 . S
C34 N35 1.373 . S
C34 H62 0.930 . S
N35 C34 1.373 . S
N35 C37 1.340 . S
N36 C33 1.368 . S
N36 C37 1.321 . S
N36 Co39 2.135 . S
C37 N35 1.340 . S
C37 N36 1.321 . S
C37 H61 0.930 . S
H38 C33 0.931 . S
Co39 N36 2.135 . S
Co39 N42 2.121 . S
Co39 O47 2.055 . S
Co39 O50 2.039 . S
Co39 N53 2.140 . S
C40 O41 1.227 . S
C40 O50 1.265 . S
O41 C40 1.227 . S
N42 Co39 2.121 . S
N42 C44 1.375 . S
N42 C45 1.313 . S
C43 C44 1.338 . S
C43 N46 1.377 . S
C43 H63 0.930 . S
C44 N42 1.375 . S
C44 C43 1.338 . S
C44 H48 0.931 . S
C45 N42 1.313 . S
C45 N46 1.344 . S
C45 H49 0.930 . S
N46 C43 1.377 . S
N46 C45 1.344 . S
O47 Co39 2.055 . S
O47 C51 1.253 . S
H48 C44 0.931 . S
H49 C45 0.930 . S
O50 Co39 2.039 . S
O50 C40 1.265 . S
C51 O47 1.253 . S
C51 O52 1.227 . S
O52 C51 1.227 . S
N53 Co39 2.140 . S
N53 C56 1.346 . S
N53 C57 1.345 . S
C54 C55 1.387 . S
C54 C58 1.391 . S
C55 C54 1.387 . S
C55 C56 1.369 . S
C55 H64 0.929 . S
C56 N53 1.346 . S
C56 C55 1.369 . S
C56 H59 0.928 . S
C57 N53 1.345 . S
C57 C58 1.371 . S
C57 H60 0.931 . S
C58 C54 1.391 . S
C58 C57 1.371 . S
C58 H65 0.930 . S
H59 C56 0.928 . S
H60 C57 0.931 . S
H61 C37 0.930 . S
H62 C34 0.930 . S
H63 C43 0.930 . S
H64 C55 0.929 . S
H65 C58 0.930 . S
C66 C67 1.351 . S
C66 N69 1.368 . S
C66 H71 0.931 . S
C67 C66 1.351 . S
C67 N68 1.373 . S
C67 H95 0.930 . S
N68 C67 1.373 . S
N68 C70 1.340 . S
N69 C66 1.368 . S
N69 C70 1.321 . S
N69 Co72 2.135 . S
C70 N68 1.340 . S
C70 N69 1.321 . S
C70 H94 0.930 . S
H71 C66 0.931 . S
Co72 N69 2.135 . S
Co72 N75 2.121 . S
Co72 O80 2.055 . S
Co72 O83 2.039 . S
Co72 N86 2.140 . S
C73 O74 1.227 . S
C73 O83 1.265 . S
O74 C73 1.227 . S
N75 Co72 2.121 . S
N75 C77 1.375 . S
N75 C78 1.313 . S
C76 C77 1.338 . S
C76 N79 1.377 . S
C76 H96 0.930 . S
C77 N75 1.375 . S
C77 C76 1.338 . S
C77 H81 0.931 . S
C78 N75 1.313 . S
C78 N79 1.344 . S
C78 H82 0.930 . S
N79 C76 1.377 . S
N79 C78 1.344 . S
O80 Co72 2.055 . S
O80 C84 1.253 . S
H81 C77 0.931 . S
H82 C78 0.930 . S
O83 Co72 2.039 . S
O83 C73 1.265 . S
C84 O80 1.253 . S
C84 O85 1.227 . S
O85 C84 1.227 . S
N86 Co72 2.140 . S
N86 C89 1.346 . S
N86 C90 1.345 . S
C87 C88 1.387 . S
C87 C91 1.391 . S
C88 C87 1.387 . S
C88 C89 1.369 . S
C88 H97 0.929 . S
C89 N86 1.346 . S
C89 C88 1.369 . S
C89 H92 0.928 . S
C90 N86 1.345 . S
C90 C91 1.371 . S
C90 H93 0.931 . S
C91 C87 1.391 . S
C91 C90 1.371 . S
C91 H98 0.930 . S
H92 C89 0.928 . S
H93 C90 0.931 . S
H94 C70 0.930 . S
H95 C67 0.930 . S
H96 C76 0.930 . S
H97 C88 0.929 . S
H98 C91 0.930 . S
C99 C100 1.351 . S
C99 N102 1.368 . S
C99 H104 0.931 . S
C100 C99 1.351 . S
C100 N101 1.373 . S
C100 H128 0.930 . S
N101 C100 1.373 . S
N101 C103 1.340 . S
N102 C99 1.368 . S
N102 C103 1.321 . S
N102 Co105 2.135 . S
C103 N101 1.340 . S
C103 N102 1.321 . S
C103 H127 0.930 . S
H104 C99 0.931 . S
Co105 N102 2.135 . S
Co105 N108 2.121 . S
Co105 O113 2.055 . S
Co105 O116 2.039 . S
Co105 N119 2.140 . S
C106 O107 1.227 . S
C106 O116 1.265 . S
O107 C106 1.227 . S
N108 Co105 2.121 . S
N108 C110 1.375 . S
N108 C111 1.313 . S
C109 C110 1.338 . S
C109 N112 1.377 . S
C109 H129 0.930 . S
C110 N108 1.375 . S
C110 C109 1.338 . S
C110 H114 0.931 . S
C111 N108 1.313 . S
C111 N112 1.344 . S
C111 H115 0.930 . S
N112 C109 1.377 . S
N112 C111 1.344 . S
O113 Co105 2.055 . S
O113 C117 1.253 . S
H114 C110 0.931 . S
H115 C111 0.930 . S
O116 Co105 2.039 . S
O116 C106 1.265 . S
C117 O113 1.253 . S
C117 O118 1.227 . S
O118 C117 1.227 . S
N119 Co105 2.140 . S
N119 C122 1.346 . S
N119 C123 1.345 . S
C120 C121 1.387 . S
C120 C124 1.391 . S
C121 C120 1.387 . S
C121 C122 1.369 . S
C121 H130 0.929 . S
C122 N119 1.346 . S
C122 C121 1.369 . S
C122 H125 0.928 . S
C123 N119 1.345 . S
C123 C124 1.371 . S
C123 H126 0.931 . S
C124 C120 1.391 . S
C124 C123 1.371 . S
C124 H131 0.930 . S
H125 C122 0.928 . S
H126 C123 0.931 . S
H127 C103 0.930 . S
H128 C100 0.930 . S
H129 C109 0.930 . S
H130 C121 0.929 . S
H131 C124 0.930 . S
C132 C133 1.351 . S
C132 N135 1.368 . S
C132 H137 0.931 . S
C133 C132 1.351 . S
C133 N134 1.373 . S
C133 H161 0.930 . S
N134 C133 1.373 . S
N134 C136 1.340 . S
N135 C132 1.368 . S
N135 C136 1.321 . S
N135 Co138 2.135 . S
C136 N134 1.340 . S
C136 N135 1.321 . S
C136 H160 0.930 . S
H137 C132 0.931 . S
Co138 N135 2.135 . S
Co138 N141 2.121 . S
Co138 O146 2.055 . S
Co138 O149 2.039 . S
Co138 N152 2.140 . S
C139 O140 1.227 . S
C139 O149 1.265 . S
O140 C139 1.227 . S
N141 Co138 2.121 . S
N141 C143 1.375 . S
N141 C144 1.313 . S
C142 C143 1.338 . S
C142 N145 1.377 . S
C142 H162 0.930 . S
C143 N141 1.375 . S
C143 C142 1.338 . S
C143 H147 0.931 . S
C144 N141 1.313 . S
C144 N145 1.344 . S
C144 H148 0.930 . S
N145 C142 1.377 . S
N145 C144 1.344 . S
O146 Co138 2.055 . S
O146 C150 1.253 . S
H147 C143 0.931 . S
H148 C144 0.930 . S
O149 Co138 2.039 . S
O149 C139 1.265 . S
C150 O146 1.253 . S
C150 O151 1.227 . S
O151 C150 1.227 . S
N152 Co138 2.140 . S
N152 C155 1.346 . S
N152 C156 1.345 . S
C153 C154 1.387 . S
C153 C157 1.391 . S
C154 C153 1.387 . S
C154 C155 1.369 . S
C154 H163 0.929 . S
C155 N152 1.346 . S
C155 C154 1.369 . S
C155 H158 0.928 . S
C156 N152 1.345 . S
C156 C157 1.371 . S
C156 H159 0.931 . S
C157 C153 1.391 . S
C157 C156 1.371 . S
C157 H164 0.930 . S
H158 C155 0.928 . S
H159 C156 0.931 . S
H160 C136 0.930 . S
H161 C133 0.930 . S
H162 C142 0.930 . S
H163 C154 0.929 . S
H164 C157 0.930 . S
C165 C166 1.351 . S
C165 N168 1.368 . S
C165 H170 0.931 . S
C166 C165 1.351 . S
C166 N167 1.373 . S
C166 H194 0.930 . S
N167 C166 1.373 . S
N167 C169 1.340 . S
N168 C165 1.368 . S
N168 C169 1.321 . S
N168 Co171 2.135 . S
C169 N167 1.340 . S
C169 N168 1.321 . S
C169 H193 0.930 . S
H170 C165 0.931 . S
Co171 N168 2.135 . S
Co171 N174 2.121 . S
Co171 O179 2.055 . S
Co171 O182 2.039 . S
Co171 N185 2.140 . S
C172 O173 1.227 . S
C172 O182 1.265 . S
O173 C172 1.227 . S
N174 Co171 2.121 . S
N174 C176 1.375 . S
N174 C177 1.313 . S
C175 C176 1.338 . S
C175 N178 1.377 . S
C175 H195 0.930 . S
C176 N174 1.375 . S
C176 C175 1.338 . S
C176 H180 0.931 . S
C177 N174 1.313 . S
C177 N178 1.344 . S
C177 H181 0.930 . S
N178 C175 1.377 . S
N178 C177 1.344 . S
O179 Co171 2.055 . S
O179 C183 1.253 . S
H180 C176 0.931 . S
H181 C177 0.930 . S
O182 Co171 2.039 . S
O182 C172 1.265 . S
C183 O179 1.253 . S
C183 O184 1.227 . S
O184 C183 1.227 . S
N185 Co171 2.140 . S
N185 C188 1.346 . S
N185 C189 1.345 . S
C186 C187 1.387 . S
C186 C190 1.391 . S
C187 C186 1.387 . S
C187 C188 1.369 . S
C187 H196 0.929 . S
C188 N185 1.346 . S
C188 C187 1.369 . S
C188 H191 0.928 . S
C189 N185 1.345 . S
C189 C190 1.371 . S
C189 H192 0.931 . S
C190 C186 1.391 . S
C190 C189 1.371 . S
C190 H197 0.930 . S
H191 C188 0.928 . S
H192 C189 0.931 . S
H193 C169 0.930 . S
H194 C166 0.930 . S
H195 C175 0.930 . S
H196 C187 0.929 . S
H197 C190 0.930 . S
C198 C199 1.351 . S
C198 N201 1.368 . S
C198 H203 0.931 . S
C199 C198 1.351 . S
C199 N200 1.373 . S
C199 H227 0.930 . S
N200 C199 1.373 . S
N200 C202 1.340 . S
N201 C198 1.368 . S
N201 C202 1.321 . S
N201 Co204 2.135 . S
C202 N200 1.340 . S
C202 N201 1.321 . S
C202 H226 0.930 . S
H203 C198 0.931 . S
Co204 N201 2.135 . S
Co204 N207 2.121 . S
Co204 O212 2.055 . S
Co204 O215 2.039 . S
Co204 N218 2.140 . S
C205 O206 1.227 . S
C205 O215 1.265 . S
O206 C205 1.227 . S
N207 Co204 2.121 . S
N207 C209 1.375 . S
N207 C210 1.313 . S
C208 C209 1.338 . S
C208 N211 1.377 . S
C208 H228 0.930 . S
C209 N207 1.375 . S
C209 C208 1.338 . S
C209 H213 0.931 . S
C210 N207 1.313 . S
C210 N211 1.344 . S
C210 H214 0.930 . S
N211 C208 1.377 . S
N211 C210 1.344 . S
O212 Co204 2.055 . S
O212 C216 1.253 . S
H213 C209 0.931 . S
H214 C210 0.930 . S
O215 Co204 2.039 . S
O215 C205 1.265 . S
C216 O212 1.253 . S
C216 O217 1.227 . S
O217 C216 1.227 . S
N218 Co204 2.140 . S
N218 C221 1.346 . S
N218 C222 1.345 . S
C219 C220 1.387 . S
C219 C223 1.391 . S
C220 C219 1.387 . S
C220 C221 1.369 . S
C220 H229 0.929 . S
C221 N218 1.346 . S
C221 C220 1.369 . S
C221 H224 0.928 . S
C222 N218 1.345 . S
C222 C223 1.371 . S
C222 H225 0.931 . S
C223 C219 1.391 . S
C223 C222 1.371 . S
C223 H230 0.930 . S
H224 C221 0.928 . S
H225 C222 0.931 . S
H226 C202 0.930 . S
H227 C199 0.930 . S
H228 C208 0.930 . S
H229 C220 0.929 . S
H230 C223 0.930 . S
C231 C232 1.351 . S
C231 N234 1.368 . S
C231 H236 0.931 . S
C232 C231 1.351 . S
C232 N233 1.373 . S
C232 H260 0.930 . S
N233 C232 1.373 . S
N233 C235 1.340 . S
N234 C231 1.368 . S
N234 C235 1.321 . S
N234 Co237 2.135 . S
C235 N233 1.340 . S
C235 N234 1.321 . S
C235 H259 0.930 . S
H236 C231 0.931 . S
Co237 N234 2.135 . S
Co237 N240 2.121 . S
Co237 O245 2.055 . S
Co237 O248 2.039 . S
Co237 N251 2.140 . S
C238 O239 1.227 . S
C238 O248 1.265 . S
O239 C238 1.227 . S
N240 Co237 2.121 . S
N240 C242 1.375 . S
N240 C243 1.313 . S
C241 C242 1.338 . S
C241 N244 1.377 . S
C241 H261 0.930 . S
C242 N240 1.375 . S
C242 C241 1.338 . S
C242 H246 0.931 . S
C243 N240 1.313 . S
C243 N244 1.344 . S
C243 H247 0.930 . S
N244 C241 1.377 . S
N244 C243 1.344 . S
O245 Co237 2.055 . S
O245 C249 1.253 . S
H246 C242 0.931 . S
H247 C243 0.930 . S
O248 Co237 2.039 . S
O248 C238 1.265 . S
C249 O245 1.253 . S
C249 O250 1.227 . S
O250 C249 1.227 . S
N251 Co237 2.140 . S
N251 C254 1.346 . S
N251 C255 1.345 . S
C252 C253 1.387 . S
C252 C256 1.391 . S
C253 C252 1.387 . S
C253 C254 1.369 . S
C253 H262 0.929 . S
C254 N251 1.346 . S
C254 C253 1.369 . S
C254 H257 0.928 . S
C255 N251 1.345 . S
C255 C256 1.371 . S
C255 H258 0.931 . S
C256 C252 1.391 . S
C256 C255 1.371 . S
C256 H263 0.930 . S
H257 C254 0.928 . S
H258 C255 0.931 . S
H259 C235 0.930 . S
H260 C232 0.930 . S
H261 C241 0.930 . S
H262 C253 0.929 . S
H263 C256 0.930 . S
H264 C282 0.951 . S
H265 C284 0.951 . S
H266 C286 0.950 1_545 S
H267 C287 0.950 . S
H268 C289 0.950 . S
H269 C292 0.950 1_545 S
H270 C293 0.950 . S
H271 C295 0.950 . S
H272 C296 0.950 . S
H273 C297 0.951 . S
H274 C299 0.951 . S
H275 C301 0.950 . S
H276 C302 0.950 . S
H277 C304 0.950 . S
H278 C307 0.950 . S
H279 C308 0.950 . S
H280 C310 0.950 . S
H281 C311 0.950 . S
C282 H264 0.951 . S
C282 C283 1.366 1_565 S
C282 C284 1.388 . S
C283 C282 1.366 1_545 S
C283 C287 1.385 . S
C284 H265 0.951 . S
C284 C282 1.388 . S
C284 C285 1.366 . S
C285 C284 1.366 . S
C285 C286 1.419 . S
C285 C288 1.499 . S
C286 H266 0.950 1_565 S
C286 C285 1.419 . S
C286 C287 1.369 1_565 S
C287 H267 0.950 . S
C287 C283 1.385 . S
C287 C286 1.369 1_545 S
C288 C285 1.499 . S
C288 C289 1.373 . S
C288 C290 1.389 . S
C289 H268 0.950 . S
C289 C288 1.373 . S
C289 C305 1.377 . S
C290 C288 1.389 . S
C290 C291 1.524 . S
C290 C304 1.377 . S
C291 C290 1.524 . S
C291 C292 1.397 . S
C291 C296 1.363 . S
C292 H269 0.950 1_565 S
C292 C291 1.397 . S
C292 C293 1.334 1_565 S
C293 H270 0.950 . S
C293 C292 1.334 1_545 S
C293 C294 1.287 . S
C294 C293 1.287 . S
C294 C295 1.524 1_545 S
C294 H313 0.913 . S
C295 H271 0.950 . S
C295 C294 1.524 1_565 S
C295 C296 1.415 . S
C296 H272 0.950 . S
C296 C291 1.363 . S
C296 C295 1.415 . S
C297 H273 0.951 . S
C297 C298 1.366 . S
C297 C299 1.388 . S
C298 C297 1.366 . S
C298 C302 1.385 . S
C299 H274 0.951 . S
C299 C297 1.388 . S
C299 C300 1.366 . S
C300 C299 1.366 . S
C300 C301 1.414 . S
C300 C303 1.499 . S
C301 H275 0.950 . S
C301 C300 1.414 . S
C301 C302 1.374 . S
C302 H276 0.950 . S
C302 C298 1.385 . S
C302 C301 1.374 . S
C303 C300 1.499 . S
C303 C304 1.373 . S
C303 C305 1.389 . S
C304 H277 0.950 . S
C304 C290 1.377 . S
C304 C303 1.373 . S
C305 C289 1.377 . S
C305 C303 1.389 . S
C305 C306 1.524 . S
C306 C305 1.524 . S
C306 C307 1.397 . S
C306 C311 1.363 . S
C307 H278 0.950 . S
C307 C306 1.397 . S
C307 C308 1.334 . S
C308 H279 0.950 . S
C308 C307 1.334 . S
C308 C309 1.287 . S
C309 C308 1.287 . S
C309 C310 1.524 . S
C309 H312 0.999 . S
C310 H280 0.950 . S
C310 C309 1.524 . S
C310 C311 1.415 . S
C311 H281 0.950 . S
C311 C306 1.363 . S
C311 C310 1.415 . S
H312 C309 0.999 . S
H313 C294 0.913 . S
H314 C332 0.951 . S
H315 C334 0.951 . S
H316 C336 0.950 . S
H317 C337 0.950 . S
H318 C339 0.950 . S
H319 C342 0.950 . S
H320 C343 0.950 . S
H321 C345 0.950 . S
H322 C346 0.950 . S
H323 C347 0.951 . S
H324 C349 0.951 . S
H325 C351 0.950 . S
H326 C352 0.950 . S
H327 C354 0.950 . S
H328 C357 0.950 . S
H329 C358 0.950 . S
H330 C360 0.950 . S
H331 C361 0.950 . S
C332 H314 0.951 . S
C332 C333 1.366 . S
C332 C334 1.388 . S
C333 C332 1.366 . S
C333 C337 1.385 . S
C334 H315 0.951 . S
C334 C332 1.388 . S
C334 C335 1.366 . S
C335 C334 1.366 . S
C335 C336 1.414 . S
C335 C338 1.499 . S
C336 H316 0.950 . S
C336 C335 1.414 . S
C336 C337 1.374 . S
C337 H317 0.950 . S
C337 C333 1.385 . S
C337 C336 1.374 . S
C338 C335 1.499 . S
C338 C339 1.373 . S
C338 C340 1.389 . S
C339 H318 0.950 . S
C339 C338 1.373 . S
C339 C355 1.377 . S
C340 C338 1.389 . S
C340 C341 1.524 . S
C340 C354 1.377 . S
C341 C340 1.524 . S
C341 C342 1.397 . S
C341 C346 1.363 . S
C342 H319 0.950 . S
C342 C341 1.397 . S
C342 C343 1.334 . S
C343 H320 0.950 . S
C343 C342 1.334 . S
C343 C344 1.287 . S
C344 C343 1.287 . S
C344 C345 1.524 . S
C344 H363 0.913 . S
C345 H321 0.950 . S
C345 C344 1.524 . S
C345 C346 1.415 . S
C346 H322 0.950 . S
C346 C341 1.363 . S
C346 C345 1.415 . S
C347 H323 0.951 . S
C347 C348 1.366 1_655 S
C347 C349 1.388 . S
C348 C347 1.366 1_455 S
C348 C352 1.385 . S
C349 H324 0.951 . S
C349 C347 1.388 . S
C349 C350 1.366 . S
C350 C349 1.366 . S
C350 C351 1.414 1_655 S
C350 C353 1.499 . S
C351 H325 0.950 . S
C351 C350 1.414 1_455 S
C351 C352 1.374 . S
C352 H326 0.950 . S
C352 C348 1.385 . S
C352 C351 1.374 . S
C353 C350 1.499 . S
C353 C354 1.373 . S
C353 C355 1.389 . S
C354 H327 0.950 . S
C354 C340 1.377 . S
C354 C353 1.373 . S
C355 C339 1.377 . S
C355 C353 1.389 . S
C355 C356 1.524 . S
C356 C355 1.524 . S
C356 C357 1.397 . S
C356 C361 1.363 . S
C357 H328 0.950 . S
C357 C356 1.397 . S
C357 C358 1.334 . S
C358 H329 0.950 . S
C358 C357 1.334 . S
C358 C359 1.287 . S
C359 C358 1.287 . S
C359 C360 1.524 . S
C359 H362 0.999 . S
C360 H330 0.950 . S
C360 C359 1.524 . S
C360 C361 1.415 . S
C361 H331 0.950 . S
C361 C356 1.363 . S
C361 C360 1.415 . S
H362 C359 0.999 . S
H363 C344 0.913 . S
H364 C382 0.951 . S
H365 C384 0.951 . S
H366 C386 0.950 . S
H367 C387 0.950 . S
H368 C389 0.950 . S
H369 C392 0.950 . S
H370 C393 0.950 . S
H371 C395 0.950 . S
H372 C396 0.950 . S
H373 C397 0.951 . S
H374 C399 0.951 . S
H375 C401 0.950 . S
H376 C402 0.950 . S
H377 C404 0.950 . S
H378 C407 0.950 . S
H379 C408 0.950 . S
H380 C410 0.950 . S
H381 C411 0.950 . S
C382 H364 0.951 . S
C382 C383 1.366 . S
C382 C384 1.388 1_565 S
C383 C382 1.366 . S
C383 C387 1.385 . S
C384 H365 0.951 . S
C384 C382 1.388 1_545 S
C384 C385 1.366 . S
C385 C384 1.366 . S
C385 C386 1.414 . S
C385 C388 1.499 . S
C386 H366 0.950 . S
C386 C385 1.414 . S
C386 C387 1.374 1_545 S
C387 H367 0.950 . S
C387 C383 1.385 . S
C387 C386 1.374 1_565 S
C388 C385 1.499 . S
C388 C389 1.373 . S
C388 C390 1.389 . S
C389 H368 0.950 . S
C389 C388 1.373 . S
C389 C405 1.377 . S
C390 C388 1.389 . S
C390 C391 1.524 . S
C390 C404 1.377 . S
C391 C390 1.524 . S
C391 C392 1.397 1_545 S
C391 C396 1.363 . S
C392 H369 0.950 . S
C392 C391 1.397 1_565 S
C392 C393 1.334 . S
C393 H370 0.950 . S
C393 C392 1.334 . S
C393 C394 1.287 . S
C394 C393 1.287 . S
C394 C395 1.524 1_565 S
C394 H413 0.913 . S
C395 H371 0.950 . S
C395 C394 1.524 1_545 S
C395 C396 1.415 . S
C396 H372 0.950 . S
C396 C391 1.363 . S
C396 C395 1.415 . S
C397 H373 0.951 . S
C397 C398 1.366 . S
C397 C399 1.388 . S
C398 C397 1.366 . S
C398 C402 1.385 . S
C399 H374 0.951 . S
C399 C397 1.388 . S
C399 C400 1.366 . S
C400 C399 1.366 . S
C400 C401 1.414 . S
C400 C403 1.499 . S
C401 H375 0.950 . S
C401 C400 1.414 . S
C401 C402 1.374 . S
C402 H376 0.950 . S
C402 C398 1.385 . S
C402 C401 1.374 . S
C403 C400 1.499 . S
C403 C404 1.373 . S
C403 C405 1.389 . S
C404 H377 0.950 . S
C404 C390 1.377 . S
C404 C403 1.373 . S
C405 C389 1.377 . S
C405 C403 1.389 . S
C405 C406 1.524 . S
C406 C405 1.524 . S
C406 C407 1.397 . S
C406 C411 1.363 . S
C407 H378 0.950 . S
C407 C406 1.397 . S
C407 C408 1.334 . S
C408 H379 0.950 . S
C408 C407 1.334 . S
C408 C409 1.287 . S
C409 C408 1.287 . S
C409 C410 1.524 . S
C409 H412 0.999 . S
C410 H380 0.950 . S
C410 C409 1.524 . S
C410 C411 1.415 . S
C411 H381 0.950 . S
C411 C406 1.363 . S
C411 C410 1.415 . S
H412 C409 0.999 . S
H413 C394 0.913 . S
H414 C432 0.951 . S
H415 C434 0.951 . S
H416 C436 0.950 . S
H417 C437 0.950 . S
H418 C439 0.950 . S
H419 C442 0.950 . S
H420 C443 0.950 . S
H421 C445 0.950 . S
H422 C446 0.950 . S
H423 C447 0.951 . S
H424 C449 0.951 . S
H425 C451 0.950 . S
H426 C452 0.950 . S
H427 C454 0.950 . S
H428 C457 0.950 . S
H429 C458 0.950 . S
H430 C460 0.950 . S
H431 C461 0.950 . S
C432 H414 0.951 . S
C432 C433 1.366 . S
C432 C434 1.388 . S
C433 C432 1.366 . S
C433 C437 1.385 . S
C434 H415 0.951 . S
C434 C432 1.388 . S
C434 C435 1.366 . S
C435 C434 1.366 . S
C435 C436 1.414 . S
C435 C438 1.499 . S
C436 H416 0.950 . S
C436 C435 1.414 . S
C436 C437 1.374 . S
C437 H417 0.950 . S
C437 C433 1.385 . S
C437 C436 1.374 . S
C438 C435 1.499 . S
C438 C439 1.373 . S
C438 C440 1.389 . S
C439 H418 0.950 . S
C439 C438 1.373 . S
C439 C455 1.377 . S
C440 C438 1.389 . S
C440 C441 1.524 . S
C440 C454 1.377 . S
C441 C440 1.524 . S
C441 C442 1.397 . S
C441 C446 1.363 . S
C442 H419 0.950 . S
C442 C441 1.397 . S
C442 C443 1.334 . S
C443 H420 0.950 . S
C443 C442 1.334 . S
C443 C444 1.287 . S
C444 C443 1.287 . S
C444 C445 1.524 . S
C444 H463 0.913 . S
C445 H421 0.950 . S
C445 C444 1.524 . S
C445 C446 1.415 . S
C446 H422 0.950 . S
C446 C441 1.363 . S
C446 C445 1.415 . S
C447 H423 0.951 . S
C447 C448 1.366 1_455 S
C447 C449 1.388 . S
C448 C447 1.366 1_655 S
C448 C452 1.385 . S
C449 H424 0.951 . S
C449 C447 1.388 . S
C449 C450 1.366 . S
C450 C449 1.366 . S
C450 C451 1.414 1_455 S
C450 C453 1.499 . S
C451 H425 0.950 . S
C451 C450 1.414 1_655 S
C451 C452 1.374 . S
C452 H426 0.950 . S
C452 C448 1.385 . S
C452 C451 1.374 . S
C453 C450 1.499 . S
C453 C454 1.373 . S
C453 C455 1.389 . S
C454 H427 0.950 . S
C454 C440 1.377 . S
C454 C453 1.373 . S
C455 C439 1.377 . S
C455 C453 1.389 . S
C455 C456 1.524 . S
C456 C455 1.524 . S
C456 C457 1.397 . S
C456 C461 1.363 . S
C457 H428 0.950 . S
C457 C456 1.397 . S
C457 C458 1.334 . S
C458 H429 0.950 . S
C458 C457 1.334 . S
C458 C459 1.287 . S
C459 C458 1.287 . S
C459 C460 1.524 . S
C459 H462 0.999 . S
C460 H430 0.950 . S
C460 C459 1.524 . S
C460 C461 1.415 . S
C461 H431 0.950 . S
C461 C456 1.363 . S
C461 C460 1.415 . S
H462 C459 0.999 . S
H463 C444 0.913 . S
H464 C482 0.951 . S
H465 C484 0.951 . S
H466 C486 0.950 . S
H467 C487 0.950 . S
H468 C489 0.950 . S
H469 C492 0.950 . S
H470 C493 0.950 . S
H471 C495 0.950 . S
H472 C496 0.950 . S
H473 C497 0.951 . S
H474 C499 0.951 . S
H475 C501 0.950 . S
H476 C502 0.950 . S
H477 C504 0.950 . S
H478 C507 0.950 . S
H479 C508 0.939 1_554 S
H480 C510 0.950 . S
H481 C511 0.953 . S
C482 H464 0.951 . S
C482 C483 1.366 . S
C482 C484 1.388 . S
C483 C482 1.366 . S
C483 C487 1.385 . S
C484 H465 0.951 . S
C484 C482 1.388 . S
C484 C485 1.366 . S
C485 C484 1.366 . S
C485 C486 1.414 . S
C485 C488 1.499 . S
C486 H466 0.950 . S
C486 C485 1.414 . S
C486 C487 1.374 . S
C487 H467 0.950 . S
C487 C483 1.385 . S
C487 C486 1.374 . S
C488 C485 1.499 . S
C488 C489 1.373 . S
C488 C490 1.389 . S
C489 H468 0.950 . S
C489 C488 1.373 . S
C489 C505 1.377 . S
C490 C488 1.389 . S
C490 C491 1.524 . S
C490 C504 1.377 1_556 S
C491 C490 1.524 . S
C491 C492 1.397 . S
C491 C496 1.363 1_556 S
C492 H469 0.950 . S
C492 C491 1.397 . S
C492 C493 1.334 . S
C493 H470 0.950 . S
C493 C492 1.334 . S
C493 C494 1.268 1_556 S
C494 C493 1.268 1_554 S
C494 C495 1.541 . S
C494 H513 0.915 . S
C495 H471 0.950 . S
C495 C494 1.541 . S
C495 C496 1.415 . S
C496 H472 0.950 . S
C496 C491 1.363 1_554 S
C496 C495 1.415 . S
C497 H473 0.951 . S
C497 C498 1.366 . S
C497 C499 1.388 . S
C498 C497 1.366 . S
C498 C502 1.385 1_545 S
C499 H474 0.951 . S
C499 C497 1.388 . S
C499 C500 1.366 1_545 S
C500 C499 1.366 1_565 S
C500 C501 1.414 . S
C500 C503 1.499 . S
C501 H475 0.950 . S
C501 C500 1.414 . S
C501 C502 1.374 . S
C502 H476 0.950 . S
C502 C498 1.385 1_565 S
C502 C501 1.374 . S
C503 C500 1.499 . S
C503 C504 1.373 . S
C503 C505 1.389 1_554 S
C504 H477 0.950 . S
C504 C490 1.377 1_554 S
C504 C503 1.373 . S
C505 C489 1.377 . S
C505 C503 1.389 1_556 S
C505 C506 1.524 . S
C506 C505 1.524 . S
C506 C507 1.397 1_556 S
C506 C511 1.372 . S
C507 H478 0.950 . S
C507 C506 1.397 1_554 S
C507 C508 1.333 1_564 S
C508 H479 0.939 1_556 S
C508 C507 1.333 1_546 S
C508 C509 1.300 . S
C509 C508 1.300 . S
C509 C510 1.524 . S
C509 H512 0.999 . S
C510 H480 0.950 . S
C510 C509 1.524 . S
C510 C511 1.403 1_545 S
C511 H481 0.953 . S
C511 C506 1.372 . S
C511 C510 1.403 1_565 S
H512 C509 0.999 . S
H513 C494 0.915 . S
H514 C532 0.951 . S
H515 C534 0.951 . S
H516 C536 0.950 . S
H517 C537 0.950 . S
H518 C539 0.950 . S
H519 C542 0.950 . S
H520 C543 0.950 . S
H521 C545 0.950 . S
H522 C546 0.950 . S
H523 C547 0.951 . S
H524 C549 0.951 . S
H525 C551 0.950 . S
H526 C552 0.950 . S
H527 C554 0.950 . S
H528 C557 0.950 1_656 S
H529 C558 0.950 . S
H530 C560 0.950 . S
H531 C561 0.950 1_655 S
C532 H514 0.951 . S
C532 C533 1.366 . S
C532 C534 1.388 . S
C533 C532 1.366 . S
C533 C537 1.385 . S
C534 H515 0.951 . S
C534 C532 1.388 . S
C534 C535 1.366 . S
C535 C534 1.366 . S
C535 C536 1.414 . S
C535 C538 1.499 . S
C536 H516 0.950 . S
C536 C535 1.414 . S
C536 C537 1.374 . S
C537 H517 0.950 . S
C537 C533 1.385 . S
C537 C536 1.374 . S
C538 C535 1.499 . S
C538 C539 1.373 . S
C538 C540 1.389 . S
C539 H518 0.950 . S
C539 C538 1.373 . S
C539 C555 1.377 . S
C540 C538 1.389 . S
C540 C541 1.524 1_554 S
C540 C554 1.377 1_554 S
C541 C540 1.524 1_556 S
C541 C542 1.397 1_556 S
C541 C546 1.363 . S
C542 H519 0.950 . S
C542 C541 1.397 1_554 S
C542 C543 1.334 . S
C543 H520 0.950 . S
C543 C542 1.334 . S
C543 C544 1.287 1_554 S
C544 C543 1.287 1_556 S
C544 C545 1.524 . S
C544 H563 0.913 . S
C545 H521 0.950 . S
C545 C544 1.524 . S
C545 C546 1.415 . S
C546 H522 0.950 . S
C546 C541 1.363 . S
C546 C545 1.415 . S
C547 H523 0.951 . S
C547 C548 1.366 . S
C547 C549 1.388 . S
C548 C547 1.366 . S
C548 C552 1.385 1_455 S
C549 H524 0.951 . S
C549 C547 1.388 . S
C549 C550 1.366 1_455 S
C550 C549 1.366 1_655 S
C550 C551 1.414 . S
C550 C553 1.499 . S
C551 H525 0.950 . S
C551 C550 1.414 . S
C551 C552 1.374 . S
C552 H526 0.950 . S
C552 C548 1.385 1_655 S
C552 C551 1.374 . S
C553 C550 1.499 . S
C553 C554 1.373 . S
C553 C555 1.389 1_556 S
C554 H527 0.950 . S
C554 C540 1.377 1_556 S
C554 C553 1.373 . S
C555 C539 1.377 . S
C555 C553 1.389 1_554 S
C555 C556 1.524 . S
C556 C555 1.524 . S
C556 C557 1.397 1_655 S
C556 C561 1.363 1_655 S
C557 H528 0.950 1_454 S
C557 C556 1.397 1_455 S
C557 C558 1.334 . S
C558 H529 0.950 . S
C558 C557 1.334 . S
C558 C559 1.287 . S
C559 C558 1.287 . S
C559 C560 1.524 . S
C559 H562 0.999 . S
C560 H530 0.950 . S
C560 C559 1.524 . S
C560 C561 1.415 . S
C561 H531 0.950 1_455 S
C561 C556 1.363 1_455 S
C561 C560 1.415 . S
H562 C559 0.999 . S
H563 C544 0.913 . S
H564 C582 0.951 . S
H565 C584 0.951 . S
H566 C586 0.950 . S
H567 C587 0.950 . S
H568 C589 0.950 . S
H569 C592 0.943 1_556 S
H570 C593 0.950 . S
H571 C595 0.950 . S
H572 C596 0.950 . S
H573 C597 0.951 . S
H574 C599 0.951 . S
H575 C601 0.950 . S
H576 C602 0.950 . S
H577 C604 0.950 . S
H578 C607 0.950 . S
H579 C608 0.950 . S
H580 C610 0.950 . S
H581 C611 0.950 . S
C582 H564 0.951 . S
C582 C583 1.366 . S
C582 C584 1.388 . S
C583 C582 1.366 . S
C583 C587 1.385 . S
C584 H565 0.951 . S
C584 C582 1.388 . S
C584 C585 1.366 . S
C585 C584 1.366 . S
C585 C586 1.414 . S
C585 C588 1.499 . S
C586 H566 0.950 . S
C586 C585 1.414 . S
C586 C587 1.374 . S
C587 H567 0.950 . S
C587 C583 1.385 . S
C587 C586 1.374 . S
C588 C585 1.499 . S
C588 C589 1.373 . S
C588 C590 1.389 . S
C589 H568 0.950 . S
C589 C588 1.373 . S
C589 C605 1.377 . S
C590 C588 1.389 . S
C590 C591 1.524 1_556 S
C590 C604 1.377 1_556 S
C591 C590 1.524 1_554 S
C591 C592 1.398 . S
C591 C596 1.363 . S
C592 H569 0.943 1_554 S
C592 C591 1.398 . S
C592 C593 1.339 . S
C593 H570 0.950 . S
C593 C592 1.339 . S
C593 C594 1.287 . S
C594 C593 1.287 . S
C594 C595 1.524 . S
C594 H613 0.913 . S
C595 H571 0.950 . S
C595 C594 1.524 . S
C595 C596 1.415 . S
C596 H572 0.950 . S
C596 C591 1.363 . S
C596 C595 1.415 . S
C597 H573 0.951 . S
C597 C598 1.366 . S
C597 C599 1.388 1_565 S
C598 C597 1.366 . S
C598 C602 1.385 . S
C599 H574 0.951 . S
C599 C597 1.388 1_545 S
C599 C600 1.366 . S
C600 C599 1.366 . S
C600 C601 1.414 . S
C600 C603 1.499 . S
C601 H575 0.950 . S
C601 C600 1.414 . S
C601 C602 1.374 1_545 S
C602 H576 0.950 . S
C602 C598 1.385 . S
C602 C601 1.374 1_565 S
C603 C600 1.499 . S
C603 C604 1.373 . S
C603 C605 1.389 1_554 S
C604 H577 0.950 . S
C604 C590 1.377 1_554 S
C604 C603 1.373 . S
C605 C589 1.377 . S
C605 C603 1.389 1_556 S
C605 C606 1.524 . S
C606 C605 1.524 . S
C606 C607 1.397 1_545 S
C606 C611 1.363 . S
C607 H578 0.950 . S
C607 C606 1.397 1_565 S
C607 C608 1.334 . S
C608 H579 0.950 . S
C608 C607 1.334 . S
C608 C609 1.287 . S
C609 C608 1.287 . S
C609 C610 1.524 . S
C609 H612 0.999 . S
C610 H580 0.950 . S
C610 C609 1.524 . S
C610 C611 1.415 1_565 S
C611 H581 0.950 . S
C611 C606 1.363 . S
C611 C610 1.415 1_545 S
H612 C609 0.999 . S
H613 C594 0.913 . S
H614 C632 0.951 . S
H615 C634 0.951 . S
H616 C636 0.950 . S
H617 C637 0.950 . S
H618 C639 0.950 . S
H619 C642 0.950 1_556 S
H620 C643 0.950 1_556 S
H621 C645 0.950 . S
H622 C646 0.950 1_455 S
H623 C647 0.951 . S
H624 C649 0.951 . S
H625 C651 0.950 . S
H626 C652 0.950 . S
H627 C654 0.950 . S
H628 C657 0.950 . S
H629 C658 0.950 . S
H630 C660 0.950 . S
H631 C661 0.950 . S
C632 H614 0.951 . S
C632 C633 1.366 . S
C632 C634 1.388 . S
C633 C632 1.366 . S
C633 C637 1.385 1_655 S
C634 H615 0.951 . S
C634 C632 1.388 . S
C634 C635 1.366 1_655 S
C635 C634 1.366 1_455 S
C635 C636 1.414 . S
C635 C638 1.499 . S
C636 H616 0.950 . S
C636 C635 1.414 . S
C636 C637 1.374 . S
C637 H617 0.950 . S
C637 C633 1.385 1_455 S
C637 C636 1.374 . S
C638 C635 1.499 . S
C638 C639 1.373 . S
C638 C640 1.389 1_556 S
C639 H618 0.950 . S
C639 C638 1.373 . S
C639 C655 1.377 1_556 S
C640 C638 1.389 1_554 S
C640 C641 1.524 . S
C640 C654 1.377 . S
C641 C640 1.524 . S
C641 C642 1.397 . S
C641 C646 1.363 1_455 S
C642 H619 0.950 1_554 S
C642 C641 1.397 . S
C642 C643 1.334 1_455 S
C643 H620 0.950 1_554 S
C643 C642 1.334 1_655 S
C643 C644 1.287 . S
C644 C643 1.287 . S
C644 C645 1.524 . S
C644 H663 0.913 . S
C645 H621 0.950 . S
C645 C644 1.524 . S
C645 C646 1.415 . S
C646 H622 0.950 1_655 S
C646 C641 1.363 1_655 S
C646 C645 1.415 . S
C647 H623 0.951 . S
C647 C648 1.366 . S
C647 C649 1.388 . S
C648 C647 1.366 . S
C648 C652 1.385 . S
C649 H624 0.951 . S
C649 C647 1.388 . S
C649 C650 1.366 . S
C650 C649 1.366 . S
C650 C651 1.414 . S
C650 C653 1.499 . S
C651 H625 0.950 . S
C651 C650 1.414 . S
C651 C652 1.374 . S
C652 H626 0.950 . S
C652 C648 1.385 . S
C652 C651 1.374 . S
C653 C650 1.499 . S
C653 C654 1.373 . S
C653 C655 1.389 . S
C654 H627 0.950 . S
C654 C640 1.377 . S
C654 C653 1.373 . S
C655 C639 1.377 1_554 S
C655 C653 1.389 . S
C655 C656 1.526 1_554 S
C656 C655 1.526 1_556 S
C656 C657 1.401 1_556 S
C656 C661 1.357 . S
C657 H628 0.950 . S
C657 C656 1.401 1_554 S
C657 C658 1.334 . S
C658 H629 0.950 . S
C658 C657 1.334 . S
C658 C659 1.287 1_554 S
C659 C658 1.287 1_556 S
C659 C660 1.524 . S
C659 H662 0.999 . S
C660 H630 0.950 . S
C660 C659 1.524 . S
C660 C661 1.415 . S
C661 H631 0.950 . S
C661 C656 1.357 . S
C661 C660 1.415 . S
H662 C659 0.999 . S
H663 C644 0.913 . S
H664 C682 0.951 . S
H665 C684 0.951 . S
H666 C686 0.950 . S
H667 C687 0.950 . S
H668 C689 0.950 . S
H669 C692 0.950 . S
H670 C693 0.950 . S
H671 C695 0.950 1_545 S
H672 C696 0.950 . S
H673 C697 0.951 . S
H674 C699 0.951 . S
H675 C701 0.950 . S
H676 C702 0.950 . S
H677 C704 0.950 . S
H678 C707 0.950 . S
H679 C708 0.950 . S
H680 C710 0.950 1_565 S
H681 C711 0.950 . S
C682 H664 0.951 . S
C682 C683 1.366 . S
C682 C684 1.388 . S
C683 C682 1.366 . S
C683 C687 1.385 . S
C684 H665 0.951 . S
C684 C682 1.388 . S
C684 C685 1.366 . S
C685 C684 1.366 . S
C685 C686 1.414 . S
C685 C688 1.499 . S
C686 H666 0.950 . S
C686 C685 1.414 . S
C686 C687 1.374 . S
C687 H667 0.950 . S
C687 C683 1.385 . S
C687 C686 1.374 . S
C688 C685 1.499 . S
C688 C689 1.373 . S
C688 C690 1.389 . S
C689 H668 0.950 . S
C689 C688 1.373 . S
C689 C705 1.377 1_565 S
C690 C688 1.389 . S
C690 C691 1.524 . S
C690 C704 1.377 1_565 S
C691 C690 1.524 . S
C691 C692 1.397 . S
C691 C696 1.363 1_565 S
C692 H669 0.950 . S
C692 C691 1.397 . S
C692 C693 1.334 . S
C693 H670 0.950 . S
C693 C692 1.334 . S
C693 C694 1.287 . S
C694 C693 1.287 . S
C694 C695 1.524 . S
C694 H713 0.913 . S
C695 H671 0.950 1_565 S
C695 C694 1.524 . S
C695 C696 1.415 1_565 S
C696 H672 0.950 . S
C696 C691 1.363 1_545 S
C696 C695 1.415 1_545 S
C697 H673 0.951 . S
C697 C698 1.366 . S
C697 C699 1.388 . S
C698 C697 1.366 . S
C698 C702 1.385 . S
C699 H674 0.951 . S
C699 C697 1.388 . S
C699 C700 1.366 . S
C700 C699 1.366 . S
C700 C701 1.414 . S
C700 C703 1.499 . S
C701 H675 0.950 . S
C701 C700 1.414 . S
C701 C702 1.374 . S
C702 H676 0.950 . S
C702 C698 1.385 . S
C702 C701 1.374 . S
C703 C700 1.499 . S
C703 C704 1.373 . S
C703 C705 1.389 . S
C704 H677 0.950 . S
C704 C690 1.377 1_545 S
C704 C703 1.373 . S
C705 C689 1.377 1_545 S
C705 C703 1.389 . S
C705 C706 1.524 . S
C706 C705 1.524 . S
C706 C707 1.397 . S
C706 C711 1.363 1_545 S
C707 H678 0.950 . S
C707 C706 1.397 . S
C707 C708 1.334 . S
C708 H679 0.950 . S
C708 C707 1.334 . S
C708 C709 1.287 . S
C709 C708 1.287 . S
C709 C710 1.524 . S
C709 H712 0.999 . S
C710 H680 0.950 1_545 S
C710 C709 1.524 . S
C710 C711 1.415 1_545 S
C711 H681 0.950 . S
C711 C706 1.363 1_565 S
C711 C710 1.415 1_565 S
H712 C709 0.999 . S
H713 C694 0.913 . S
H714 C732 0.951 . S
H715 C734 0.951 1_655 S
H716 C736 0.950 . S
H717 C737 0.950 . S
H718 C739 0.950 . S
H719 C742 0.950 . S
H720 C743 0.950 1_455 S
H721 C745 0.950 . S
H722 C746 0.950 . S
H723 C747 0.951 . S
H724 C749 0.951 1_455 S
H725 C751 0.950 . S
H726 C752 0.950 . S
H727 C754 0.950 . S
H728 C757 0.950 . S
H729 C758 0.950 1_655 S
H730 C760 0.950 . S
H731 C761 0.950 . S
C732 H714 0.951 . S
C732 C733 1.366 . S
C732 C734 1.388 . S
C733 C732 1.366 . S
C733 C737 1.385 . S
C734 H715 0.951 1_455 S
C734 C732 1.388 . S
C734 C735 1.366 . S
C735 C734 1.366 . S
C735 C736 1.414 . S
C735 C738 1.499 . S
C736 H716 0.950 . S
C736 C735 1.414 . S
C736 C737 1.374 . S
C737 H717 0.950 . S
C737 C733 1.385 . S
C737 C736 1.374 . S
C738 C735 1.499 . S
C738 C739 1.373 . S
C738 C740 1.389 1_455 S
C739 H718 0.950 . S
C739 C738 1.373 . S
C739 C755 1.377 . S
C740 C738 1.389 1_655 S
C740 C741 1.524 . S
C740 C754 1.377 . S
C741 C740 1.524 . S
C741 C742 1.397 1_655 S
C741 C746 1.363 . S
C742 H719 0.950 . S
C742 C741 1.397 1_455 S
C742 C743 1.334 1_455 S
C743 H720 0.950 1_655 S
C743 C742 1.334 1_655 S
C743 C744 1.287 . S
C744 C743 1.287 . S
C744 C745 1.524 . S
C744 H763 0.913 . S
C745 H721 0.950 . S
C745 C744 1.524 . S
C745 C746 1.415 . S
C746 H722 0.950 . S
C746 C741 1.363 . S
C746 C745 1.415 . S
C747 H723 0.951 . S
C747 C748 1.366 . S
C747 C749 1.388 . S
C748 C747 1.366 . S
C748 C752 1.385 . S
C749 H724 0.951 1_655 S
C749 C747 1.388 . S
C749 C750 1.366 . S
C750 C749 1.366 . S
C750 C751 1.414 . S
C750 C753 1.499 . S
C751 H725 0.950 . S
C751 C750 1.414 . S
C751 C752 1.374 . S
C752 H726 0.950 . S
C752 C748 1.385 . S
C752 C751 1.374 . S
C753 C750 1.499 . S
C753 C754 1.373 . S
C753 C755 1.389 1_655 S
C754 H727 0.950 . S
C754 C740 1.377 . S
C754 C753 1.373 . S
C755 C739 1.377 . S
C755 C753 1.389 1_455 S
C755 C756 1.524 . S
C756 C755 1.524 . S
C756 C757 1.397 1_455 S
C756 C761 1.363 . S
C757 H728 0.950 . S
C757 C756 1.397 1_655 S
C757 C758 1.334 1_655 S
C758 H729 0.950 1_455 S
C758 C757 1.334 1_455 S
C758 C759 1.287 . S
C759 C758 1.287 . S
C759 C760 1.524 . S
C759 H762 0.999 . S
C760 H730 0.950 . S
C760 C759 1.524 . S
C760 C761 1.415 . S
C761 H731 0.950 . S
C761 C756 1.363 . S
C761 C760 1.415 . S
H762 C759 0.999 . S
H763 C744 0.913 . S
H764 C782 0.951 . S
H765 C784 0.951 . S
H766 C786 0.970 . S
H767 C787 0.950 . S
H768 C789 0.950 . S
H769 C792 0.950 . S
H770 C793 0.950 . S
H771 C795 0.950 . S
H772 C796 0.950 . S
H773 C797 0.951 . S
H774 C799 0.951 . S
H775 C801 0.970 . S
H776 C802 0.950 . S
H777 C804 0.950 . S
H778 C807 0.950 . S
H779 C808 0.950 . S
H780 C810 0.950 . S
H781 C811 0.950 . S
C782 H764 0.951 . S
C782 C783 1.366 . S
C782 C784 1.388 . S
C783 C782 1.366 . S
C783 C787 1.385 . S
C784 H765 0.951 . S
C784 C782 1.388 . S
C784 C785 1.366 . S
C785 C784 1.366 . S
C785 C786 1.414 . S
C785 C788 1.499 . S
C786 H766 0.970 . S
C786 C785 1.414 . S
C786 C787 1.374 . S
C787 H767 0.950 . S
C787 C783 1.385 . S
C787 C786 1.374 . S
C788 C785 1.499 . S
C788 C789 1.373 . S
C788 C790 1.389 . S
C789 H768 0.950 . S
C789 C788 1.373 . S
C789 C805 1.377 1_545 S
C790 C788 1.389 . S
C790 C791 1.524 . S
C790 C804 1.377 1_545 S
C791 C790 1.524 . S
C791 C792 1.397 . S
C791 C796 1.363 . S
C792 H769 0.950 . S
C792 C791 1.397 . S
C792 C793 1.334 . S
C793 H770 0.950 . S
C793 C792 1.334 . S
C793 C794 1.287 . S
C794 C793 1.287 . S
C794 C795 1.524 . S
C794 H813 0.913 . S
C795 H771 0.950 . S
C795 C794 1.524 . S
C795 C796 1.415 . S
C796 H772 0.950 . S
C796 C791 1.363 . S
C796 C795 1.415 . S
C797 H773 0.951 . S
C797 C798 1.366 . S
C797 C799 1.388 . S
C798 C797 1.366 . S
C798 C802 1.385 . S
C799 H774 0.951 . S
C799 C797 1.388 . S
C799 C800 1.366 . S
C800 C799 1.366 . S
C800 C801 1.414 . S
C800 C803 1.499 . S
C801 H775 0.970 . S
C801 C800 1.414 . S
C801 C802 1.374 . S
C802 H776 0.950 . S
C802 C798 1.385 . S
C802 C801 1.374 . S
C803 C800 1.499 . S
C803 C804 1.373 . S
C803 C805 1.389 . S
C804 H777 0.950 . S
C804 C790 1.377 1_565 S
C804 C803 1.373 . S
C805 C789 1.377 1_565 S
C805 C803 1.389 . S
C805 C806 1.524 . S
C806 C805 1.524 . S
C806 C807 1.397 . S
C806 C811 1.363 . S
C807 H778 0.950 . S
C807 C806 1.397 . S
C807 C808 1.334 . S
C808 H779 0.950 . S
C808 C807 1.334 . S
C808 C809 1.287 . S
C809 C808 1.287 . S
C809 C810 1.524 . S
C809 H812 0.999 . S
C810 H780 0.950 . S
C810 C809 1.524 . S
C810 C811 1.415 . S
C811 H781 0.950 . S
C811 C806 1.363 . S
C811 C810 1.415 . S
H812 C809 0.999 . S
H813 C794 0.913 . S
H814 C832 0.951 . S
H815 C834 0.951 . S
H816 C836 0.950 . S
H817 C837 0.950 . S
H818 C839 0.950 . S
H819 C842 0.950 . S
H820 C843 0.950 . S
H821 C845 0.950 . S
H822 C846 0.950 . S
H823 C847 0.951 . S
H824 C849 0.951 . S
H825 C851 0.950 . S
H826 C852 0.950 . S
H827 C854 0.950 . S
H828 C857 0.950 . S
H829 C858 0.950 . S
H830 C860 0.950 . S
H831 C861 0.950 . S
C832 H814 0.951 . S
C832 C833 1.366 . S
C832 C834 1.388 . S
C833 C832 1.366 . S
C833 C837 1.385 . S
C834 H815 0.951 . S
C834 C832 1.388 . S
C834 C835 1.366 . S
C835 C834 1.366 . S
C835 C836 1.414 . S
C835 C838 1.499 . S
C836 H816 0.950 . S
C836 C835 1.414 . S
C836 C837 1.374 . S
C837 H817 0.950 . S
C837 C833 1.385 . S
C837 C836 1.374 . S
C838 C835 1.499 . S
C838 C839 1.373 . S
C838 C840 1.389 1_455 S
C839 H818 0.950 . S
C839 C838 1.373 . S
C839 C855 1.377 . S
C840 C838 1.389 1_655 S
C840 C841 1.524 . S
C840 C854 1.377 . S
C841 C840 1.524 . S
C841 C842 1.397 . S
C841 C846 1.363 . S
C842 H819 0.950 . S
C842 C841 1.397 . S
C842 C843 1.334 . S
C843 H820 0.950 . S
C843 C842 1.334 . S
C843 C844 1.287 . S
C844 C843 1.287 . S
C844 C845 1.524 . S
C844 H863 0.913 . S
C845 H821 0.950 . S
C845 C844 1.524 . S
C845 C846 1.415 . S
C846 H822 0.950 . S
C846 C841 1.363 . S
C846 C845 1.415 . S
C847 H823 0.951 . S
C847 C848 1.366 . S
C847 C849 1.388 . S
C848 C847 1.366 . S
C848 C852 1.385 . S
C849 H824 0.951 . S
C849 C847 1.388 . S
C849 C850 1.366 . S
C850 C849 1.366 . S
C850 C851 1.414 . S
C850 C853 1.499 . S
C851 H825 0.950 . S
C851 C850 1.414 . S
C851 C852 1.374 . S
C852 H826 0.950 . S
C852 C848 1.385 . S
C852 C851 1.374 . S
C853 C850 1.499 . S
C853 C854 1.373 . S
C853 C855 1.389 1_655 S
C854 H827 0.950 . S
C854 C840 1.377 . S
C854 C853 1.373 . S
C855 C839 1.377 . S
C855 C853 1.389 1_455 S
C855 C856 1.524 . S
C856 C855 1.524 . S
C856 C857 1.397 . S
C856 C861 1.363 . S
C857 H828 0.950 . S
C857 C856 1.397 . S
C857 C858 1.334 . S
C858 H829 0.950 . S
C858 C857 1.334 . S
C858 C859 1.287 . S
C859 C858 1.287 . S
C859 C860 1.524 . S
C859 H862 0.999 . S
C860 H830 0.950 . S
C860 C859 1.524 . S
C860 C861 1.415 . S
C861 H831 0.950 . S
C861 C856 1.363 . S
C861 C860 1.415 . S
H862 C859 0.999 . S
H863 C844 0.913 . S
H864 C882 0.951 . S
H865 C884 0.951 1_565 S
H866 C886 0.950 . S
H867 C887 0.950 . S
H868 C889 0.950 . S
H869 C892 0.950 1_545 S
H870 C893 0.950 . S
H871 C895 0.950 . S
H872 C896 0.950 . S
H873 C897 0.951 . S
H874 C899 0.951 1_545 S
H875 C901 0.950 . S
H876 C902 0.950 . S
H877 C904 0.950 . S
H878 C907 0.950 1_565 S
H879 C908 0.950 . S
H880 C910 0.950 . S
H881 C911 0.950 . S
C882 H864 0.951 . S
C882 C883 1.366 . S
C882 C884 1.388 . S
C883 C882 1.366 . S
C883 C887 1.385 . S
C884 H865 0.951 1_545 S
C884 C882 1.388 . S
C884 C885 1.366 . S
C885 C884 1.366 . S
C885 C886 1.414 . S
C885 C888 1.499 . S
C886 H866 0.950 . S
C886 C885 1.414 . S
C886 C887 1.374 . S
C887 H867 0.950 . S
C887 C883 1.385 . S
C887 C886 1.374 . S
C888 C885 1.499 . S
C888 C889 1.373 . S
C888 C890 1.389 1_545 S
C889 H868 0.950 . S
C889 C888 1.373 . S
C889 C905 1.377 1_455 S
C890 C888 1.389 1_565 S
C890 C891 1.524 . S
C890 C904 1.377 1_455 S
C891 C890 1.524 . S
C891 C892 1.397 . S
C891 C896 1.363 . S
C892 H869 0.950 1_565 S
C892 C891 1.397 . S
C892 C893 1.334 . S
C893 H870 0.950 . S
C893 C892 1.334 . S
C893 C894 1.287 . S
C894 C893 1.287 . S
C894 C895 1.524 . S
C894 H913 0.913 . S
C895 H871 0.950 . S
C895 C894 1.524 . S
C895 C896 1.415 . S
C896 H872 0.950 . S
C896 C891 1.363 . S
C896 C895 1.415 . S
C897 H873 0.951 . S
C897 C898 1.366 . S
C897 C899 1.388 . S
C898 C897 1.366 . S
C898 C902 1.385 . S
C899 H874 0.951 1_565 S
C899 C897 1.388 . S
C899 C900 1.366 . S
C900 C899 1.366 . S
C900 C901 1.414 . S
C900 C903 1.499 . S
C901 H875 0.950 . S
C901 C900 1.414 . S
C901 C902 1.374 . S
C902 H876 0.950 . S
C902 C898 1.385 . S
C902 C901 1.374 . S
C903 C900 1.499 . S
C903 C904 1.373 . S
C903 C905 1.389 1_565 S
C904 H877 0.950 . S
C904 C890 1.377 1_655 S
C904 C903 1.373 . S
C905 C889 1.377 1_655 S
C905 C903 1.389 1_545 S
C905 C906 1.524 . S
C906 C905 1.524 . S
C906 C907 1.397 . S
C906 C911 1.363 . S
C907 H878 0.950 1_545 S
C907 C906 1.397 . S
C907 C908 1.334 . S
C908 H879 0.950 . S
C908 C907 1.334 . S
C908 C909 1.287 . S
C909 C908 1.287 . S
C909 C910 1.524 . S
C909 H912 0.999 . S
C910 H880 0.950 . S
C910 C909 1.524 . S
C910 C911 1.415 . S
C911 H881 0.950 . S
C911 C906 1.363 . S
C911 C910 1.415 . S
H912 C909 0.999 . S
H913 C894 0.913 . S
H914 C932 0.951 . S
H915 C934 0.951 . S
H916 C936 0.950 1_655 S
H917 C937 0.938 1_655 S
H918 C939 0.950 . S
H919 C942 0.950 . S
H920 C943 0.950 . S
H921 C945 0.950 1_545 S
H922 C946 0.950 . S
H923 C947 0.951 . S
H924 C949 0.951 . S
H925 C951 0.950 1_455 S
H926 C952 0.938 1_455 S
H927 C954 0.950 . S
H928 C957 0.950 . S
H929 C958 0.950 . S
H930 C960 0.950 1_565 S
H931 C961 0.950 . S
C932 H914 0.951 . S
C932 C933 1.366 . S
C932 C934 1.388 . S
C933 C932 1.366 . S
C933 C937 1.385 . S
C934 H915 0.951 . S
C934 C932 1.388 . S
C934 C935 1.366 . S
C935 C934 1.366 . S
C935 C936 1.414 . S
C935 C938 1.499 . S
C936 H916 0.950 1_455 S
C936 C935 1.414 . S
C936 C937 1.374 . S
C937 H917 0.938 1_455 S
C937 C933 1.385 . S
C937 C936 1.374 . S
C938 C935 1.499 . S
C938 C939 1.373 1_455 S
C938 C940 1.389 . S
C939 H918 0.950 . S
C939 C938 1.373 1_655 S
C939 C955 1.377 1_565 S
C940 C938 1.389 . S
C940 C941 1.524 . S
C940 C954 1.377 1_565 S
C941 C940 1.524 . S
C941 C942 1.397 . S
C941 C946 1.363 1_565 S
C942 H919 0.950 . S
C942 C941 1.397 . S
C942 C943 1.334 . S
C943 H920 0.950 . S
C943 C942 1.334 . S
C943 C944 1.287 . S
C944 C943 1.287 . S
C944 C945 1.524 . S
C944 H963 0.913 . S
C945 H921 0.950 1_565 S
C945 C944 1.524 . S
C945 C946 1.415 1_565 S
C946 H922 0.950 . S
C946 C941 1.363 1_545 S
C946 C945 1.415 1_545 S
C947 H923 0.951 . S
C947 C948 1.366 . S
C947 C949 1.388 . S
C948 C947 1.366 . S
C948 C952 1.385 . S
C949 H924 0.951 . S
C949 C947 1.388 . S
C949 C950 1.366 . S
C950 C949 1.366 . S
C950 C951 1.414 . S
C950 C953 1.499 . S
C951 H925 0.950 1_655 S
C951 C950 1.414 . S
C951 C952 1.374 . S
C952 H926 0.938 1_655 S
C952 C948 1.385 . S
C952 C951 1.374 . S
C953 C950 1.499 . S
C953 C954 1.373 1_655 S
C953 C955 1.389 . S
C954 H927 0.950 . S
C954 C940 1.377 1_545 S
C954 C953 1.373 1_455 S
C955 C939 1.377 1_545 S
C955 C953 1.389 . S
C955 C956 1.524 . S
C956 C955 1.524 . S
C956 C957 1.397 . S
C956 C961 1.363 1_545 S
C957 H928 0.950 . S
C957 C956 1.397 . S
C957 C958 1.334 . S
C958 H929 0.950 . S
C958 C957 1.334 . S
C958 C959 1.287 . S
C959 C958 1.287 . S
C959 C960 1.524 . S
C959 H962 0.999 . S
C960 H930 0.950 1_545 S
C960 C959 1.524 . S
C960 C961 1.415 1_545 S
C961 H931 0.950 . S
C961 C956 1.363 1_565 S
C961 C960 1.415 1_565 S
H962 C959 0.999 . S
H963 C944 0.913 . S
H964 C982 0.945 1_545 S
H965 C984 0.951 1_545 S
H966 C986 0.950 . S
H967 C987 0.950 . S
H968 C989 0.950 . S
H969 C992 0.950 1_565 S
H970 C993 0.950 1_565 S
H971 C995 0.950 . S
H972 C996 0.950 . S
H973 C997 0.945 1_565 S
H974 C999 0.951 1_565 S
H975 C1001 0.950 . S
H976 C1002 0.950 . S
H977 C1004 0.950 . S
H978 C1007 0.950 1_545 S
H979 C1008 0.950 1_545 S
H980 C1010 0.950 . S
H981 C1011 0.950 . S
C982 H964 0.945 1_565 S
C982 C983 1.366 . S
C982 C984 1.388 . S
C983 C982 1.366 . S
C983 C987 1.385 . S
C984 H965 0.951 1_565 S
C984 C982 1.388 . S
C984 C985 1.366 . S
C985 C984 1.366 . S
C985 C986 1.414 . S
C985 C988 1.499 . S
C986 H966 0.950 . S
C986 C985 1.414 . S
C986 C987 1.374 . S
C987 H967 0.950 . S
C987 C983 1.385 . S
C987 C986 1.374 . S
C988 C985 1.499 . S
C988 C989 1.373 . S
C988 C990 1.389 1_565 S
C989 H968 0.950 . S
C989 C988 1.373 . S
C989 C1005 1.377 1_455 S
C990 C988 1.389 1_545 S
C990 C991 1.524 . S
C990 C1004 1.377 1_455 S
C991 C990 1.524 . S
C991 C992 1.397 . S
C991 C996 1.363 . S
C992 H969 0.950 1_545 S
C992 C991 1.397 . S
C992 C993 1.334 . S
C993 H970 0.950 1_545 S
C993 C992 1.334 . S
C993 C994 1.287 . S
C994 C993 1.287 . S
C994 C995 1.524 . S
C994 H1013 0.913 . S
C995 H971 0.950 . S
C995 C994 1.524 . S
C995 C996 1.415 . S
C996 H972 0.950 . S
C996 C991 1.363 . S
C996 C995 1.415 . S
C997 H973 0.945 1_545 S
C997 C998 1.366 . S
C997 C999 1.388 . S
C998 C997 1.366 . S
C998 C1002 1.385 . S
C999 H974 0.951 1_545 S
C999 C997 1.388 . S
C999 C1000 1.366 . S
C1000 C999 1.366 . S
C1000 C1001 1.414 . S
C1000 C1003 1.499 . S
C1001 H975 0.950 . S
C1001 C1000 1.414 . S
C1001 C1002 1.374 . S
C1002 H976 0.950 . S
C1002 C998 1.385 . S
C1002 C1001 1.374 . S
C1003 C1000 1.499 . S
C1003 C1004 1.373 . S
C1003 C1005 1.389 1_545 S
C1004 H977 0.950 . S
C1004 C990 1.377 1_655 S
C1004 C1003 1.373 . S
C1005 C989 1.377 1_655 S
C1005 C1003 1.389 1_565 S
C1005 C1006 1.524 . S
C1006 C1005 1.524 . S
C1006 C1007 1.397 . S
C1006 C1011 1.363 . S
C1007 H978 0.950 1_565 S
C1007 C1006 1.397 . S
C1007 C1008 1.334 . S
C1008 H979 0.950 1_565 S
C1008 C1007 1.334 . S
C1008 C1009 1.287 . S
C1009 C1008 1.287 . S
C1009 C1010 1.524 . S
C1009 H1012 0.999 . S
C1010 H980 0.950 . S
C1010 C1009 1.524 . S
C1010 C1011 1.415 . S
C1011 H981 0.950 . S
C1011 C1006 1.363 . S
C1011 C1010 1.415 . S
H1012 C1009 0.999 . S
H1013 C994 0.913 . S
H1014 C1032 0.967 . S
H1015 C1034 0.951 1_455 S
H1016 C1036 0.950 . S
H1017 C1037 0.950 . S
H1018 C1039 0.950 . S
H1019 C1042 0.950 . S
H1020 C1043 0.950 . S
H1021 C1045 0.950 . S
H1022 C1046 0.950 . S
H1023 C1047 0.967 . S
H1024 C1049 0.951 1_655 S
H1025 C1051 0.950 . S
H1026 C1052 0.950 . S
H1027 C1054 0.950 . S
H1028 C1057 0.950 . S
H1029 C1058 0.950 . S
H1030 C1060 0.950 . S
H1031 C1061 0.950 . S
C1032 H1014 0.967 . S
C1032 C1033 1.366 . S
C1032 C1034 1.388 . S
C1033 C1032 1.366 . S
C1033 C1037 1.385 . S
C1034 H1015 0.951 1_655 S
C1034 C1032 1.388 . S
C1034 C1035 1.366 . S
C1035 C1034 1.366 . S
C1035 C1036 1.414 . S
C1035 C1038 1.499 . S
C1036 H1016 0.950 . S
C1036 C1035 1.414 . S
C1036 C1037 1.374 . S
C1037 H1017 0.950 . S
C1037 C1033 1.385 . S
C1037 C1036 1.374 . S
C1038 C1035 1.499 . S
C1038 C1039 1.373 . S
C1038 C1040 1.389 1_655 S
C1039 H1018 0.950 . S
C1039 C1038 1.373 . S
C1039 C1055 1.377 1_565 S
C1040 C1038 1.389 1_455 S
C1040 C1041 1.524 . S
C1040 C1054 1.377 1_565 S
C1041 C1040 1.524 . S
C1041 C1042 1.397 1_455 S
C1041 C1046 1.363 . S
C1042 H1019 0.950 . S
C1042 C1041 1.397 1_655 S
C1042 C1043 1.334 . S
C1043 H1020 0.950 . S
C1043 C1042 1.334 . S
C1043 C1044 1.287 1_655 S
C1044 C1043 1.287 1_455 S
C1044 C1045 1.524 . S
C1044 H1063 0.913 . S
C1045 H1021 0.950 . S
C1045 C1044 1.524 . S
C1045 C1046 1.415 . S
C1046 H1022 0.950 . S
C1046 C1041 1.363 . S
C1046 C1045 1.415 . S
C1047 H1023 0.967 . S
C1047 C1048 1.366 . S
C1047 C1049 1.388 . S
C1048 C1047 1.366 . S
C1048 C1052 1.385 . S
C1049 H1024 0.951 1_455 S
C1049 C1047 1.388 . S
C1049 C1050 1.366 . S
C1050 C1049 1.366 . S
C1050 C1051 1.414 . S
C1050 C1053 1.499 . S
C1051 H1025 0.950 . S
C1051 C1050 1.414 . S
C1051 C1052 1.374 . S
C1052 H1026 0.950 . S
C1052 C1048 1.385 . S
C1052 C1051 1.374 . S
C1053 C1050 1.499 . S
C1053 C1054 1.373 . S
C1053 C1055 1.389 1_455 S
C1054 H1027 0.950 . S
C1054 C1040 1.377 1_545 S
C1054 C1053 1.373 . S
C1055 C1039 1.377 1_545 S
C1055 C1053 1.389 1_655 S
C1055 C1056 1.524 . S
C1056 C1055 1.524 . S
C1056 C1057 1.397 1_655 S
C1056 C1061 1.363 . S
C1057 H1028 0.950 . S
C1057 C1056 1.397 1_455 S
C1057 C1058 1.334 . S
C1058 H1029 0.950 . S
C1058 C1057 1.334 . S
C1058 C1059 1.287 1_455 S
C1059 C1058 1.287 1_655 S
C1059 C1060 1.524 . S
C1059 H1062 0.999 . S
C1060 H1030 0.950 . S
C1060 C1059 1.524 . S
C1060 C1061 1.415 . S
C1061 H1031 0.950 . S
C1061 C1056 1.363 . S
C1061 C1060 1.415 . S
H1062 C1059 0.999 . S
H1063 C1044 0.913 . S
H1064 C1082 0.951 . S
H1065 C1084 0.951 . S
H1066 C1086 0.950 . S
H1067 C1087 0.950 . S
H1068 C1089 0.950 . S
H1069 C1092 0.950 . S
H1070 C1093 0.950 . S
H1071 C1095 0.950 . S
H1072 C1096 0.950 . S
H1073 C1097 0.951 . S
H1074 C1099 0.951 . S
H1075 C1101 0.950 . S
H1076 C1102 0.950 . S
H1077 C1104 0.950 . S
H1078 C1107 0.950 . S
H1079 C1108 0.950 . S
H1080 C1110 0.950 . S
H1081 C1111 0.950 . S
C1082 H1064 0.951 . S
C1082 C1083 1.366 . S
C1082 C1084 1.388 . S
C1083 C1082 1.366 . S
C1083 C1087 1.385 . S
C1084 H1065 0.951 . S
C1084 C1082 1.388 . S
C1084 C1085 1.366 . S
C1085 C1084 1.366 . S
C1085 C1086 1.414 . S
C1085 C1088 1.499 . S
C1086 H1066 0.950 . S
C1086 C1085 1.414 . S
C1086 C1087 1.374 . S
C1087 H1067 0.950 . S
C1087 C1083 1.385 . S
C1087 C1086 1.374 . S
C1088 C1085 1.499 . S
C1088 C1089 1.373 . S
C1088 C1090 1.389 . S
C1089 H1068 0.950 . S
C1089 C1088 1.373 . S
C1089 C1105 1.377 . S
C1090 C1088 1.389 . S
C1090 C1091 1.524 . S
C1090 C1104 1.377 . S
C1091 C1090 1.524 . S
C1091 C1092 1.397 . S
C1091 C1096 1.363 . S
C1092 H1069 0.950 . S
C1092 C1091 1.397 . S
C1092 C1093 1.334 . S
C1093 H1070 0.950 . S
C1093 C1092 1.334 . S
C1093 C1094 1.287 . S
C1094 C1093 1.287 . S
C1094 C1095 1.524 . S
C1094 H1113 0.913 . S
C1095 H1071 0.950 . S
C1095 C1094 1.524 . S
C1095 C1096 1.415 . S
C1096 H1072 0.950 . S
C1096 C1091 1.363 . S
C1096 C1095 1.415 . S
C1097 H1073 0.951 . S
C1097 C1098 1.366 . S
C1097 C1099 1.388 . S
C1098 C1097 1.366 . S
C1098 C1102 1.385 . S
C1099 H1074 0.951 . S
C1099 C1097 1.388 . S
C1099 C1100 1.366 . S
C1100 C1099 1.366 . S
C1100 C1101 1.414 . S
C1100 C1103 1.499 . S
C1101 H1075 0.950 . S
C1101 C1100 1.414 . S
C1101 C1102 1.374 . S
C1102 H1076 0.950 . S
C1102 C1098 1.385 . S
C1102 C1101 1.374 . S
C1103 C1100 1.499 . S
C1103 C1104 1.373 . S
C1103 C1105 1.389 . S
C1104 H1077 0.950 . S
C1104 C1090 1.377 . S
C1104 C1103 1.373 . S
C1105 C1089 1.377 . S
C1105 C1103 1.389 . S
C1105 C1106 1.524 . S
C1106 C1105 1.524 . S
C1106 C1107 1.397 . S
C1106 C1111 1.363 . S
C1107 H1078 0.950 . S
C1107 C1106 1.397 . S
C1107 C1108 1.334 . S
C1108 H1079 0.950 . S
C1108 C1107 1.334 . S
C1108 C1109 1.287 . S
C1109 C1108 1.287 . S
C1109 C1110 1.524 . S
C1109 H1112 0.999 . S
C1110 H1080 0.950 . S
C1110 C1109 1.524 . S
C1110 C1111 1.415 . S
C1111 H1081 0.950 . S
C1111 C1106 1.363 . S
C1111 C1110 1.415 . S
H1112 C1109 0.999 . S
H1113 C1094 0.913 . S
H1114 C1132 0.951 . S
H1115 C1134 0.951 . S
H1116 C1136 0.950 . S
H1117 C1137 0.950 . S
H1118 C1139 0.950 . S
H1119 C1142 0.950 . S
H1120 C1143 0.950 . S
H1121 C1145 0.950 . S
H1122 C1146 0.950 . S
H1123 C1147 0.951 . S
H1124 C1149 0.951 . S
H1125 C1151 0.950 . S
H1126 C1152 0.950 . S
H1127 C1154 0.950 . S
H1128 C1157 0.950 . S
H1129 C1158 0.950 . S
H1130 C1160 0.950 . S
H1131 C1161 0.950 . S
C1132 H1114 0.951 . S
C1132 C1133 1.366 . S
C1132 C1134 1.388 . S
C1133 C1132 1.366 . S
C1133 C1137 1.385 . S
C1134 H1115 0.951 . S
C1134 C1132 1.388 . S
C1134 C1135 1.366 . S
C1135 C1134 1.366 . S
C1135 C1136 1.414 . S
C1135 C1138 1.499 . S
C1136 H1116 0.950 . S
C1136 C1135 1.414 . S
C1136 C1137 1.374 . S
C1137 H1117 0.950 . S
C1137 C1133 1.385 . S
C1137 C1136 1.374 . S
C1138 C1135 1.499 . S
C1138 C1139 1.373 . S
C1138 C1140 1.389 . S
C1139 H1118 0.950 . S
C1139 C1138 1.373 . S
C1139 C1155 1.377 . S
C1140 C1138 1.389 . S
C1140 C1141 1.524 . S
C1140 C1154 1.377 . S
C1141 C1140 1.524 . S
C1141 C1142 1.397 . S
C1141 C1146 1.363 . S
C1142 H1119 0.950 . S
C1142 C1141 1.397 . S
C1142 C1143 1.334 . S
C1143 H1120 0.950 . S
C1143 C1142 1.334 . S
C1143 C1144 1.287 . S
C1144 C1143 1.287 . S
C1144 C1145 1.524 . S
C1144 H1163 0.913 . S
C1145 H1121 0.950 . S
C1145 C1144 1.524 . S
C1145 C1146 1.415 . S
C1146 H1122 0.950 . S
C1146 C1141 1.363 . S
C1146 C1145 1.415 . S
C1147 H1123 0.951 . S
C1147 C1148 1.366 . S
C1147 C1149 1.388 . S
C1148 C1147 1.366 . S
C1148 C1152 1.385 . S
C1149 H1124 0.951 . S
C1149 C1147 1.388 . S
C1149 C1150 1.366 . S
C1150 C1149 1.366 . S
C1150 C1151 1.414 . S
C1150 C1153 1.499 . S
C1151 H1125 0.950 . S
C1151 C1150 1.414 . S
C1151 C1152 1.374 . S
C1152 H1126 0.950 . S
C1152 C1148 1.385 . S
C1152 C1151 1.374 . S
C1153 C1150 1.499 . S
C1153 C1154 1.373 . S
C1153 C1155 1.389 . S
C1154 H1127 0.950 . S
C1154 C1140 1.377 . S
C1154 C1153 1.373 . S
C1155 C1139 1.377 . S
C1155 C1153 1.389 . S
C1155 C1156 1.524 . S
C1156 C1155 1.524 . S
C1156 C1157 1.397 . S
C1156 C1161 1.363 . S
C1157 H1128 0.950 . S
C1157 C1156 1.397 . S
C1157 C1158 1.334 . S
C1158 H1129 0.950 . S
C1158 C1157 1.334 . S
C1158 C1159 1.287 . S
C1159 C1158 1.287 . S
C1159 C1160 1.524 . S
C1159 H1162 0.999 . S
C1160 H1130 0.950 . S
C1160 C1159 1.524 . S
C1160 C1161 1.415 . S
C1161 H1131 0.950 . S
C1161 C1156 1.363 . S
C1161 C1160 1.415 . S
H1162 C1159 0.999 . S
H1163 C1144 0.913 . S
H1164 C1182 0.951 . S
H1165 C1184 0.951 . S
H1166 C1186 0.950 . S
H1167 C1187 0.950 . S
H1168 C1189 0.950 . S
H1169 C1192 0.950 . S
H1170 C1193 0.950 . S
H1171 C1195 0.950 . S
H1172 C1196 0.950 . S
H1173 C1197 0.951 . S
H1174 C1199 0.951 . S
H1175 C1201 0.950 . S
H1176 C1202 0.950 . S
H1177 C1204 0.950 . S
H1178 C1207 0.950 . S
H1179 C1208 0.950 . S
H1180 C1210 0.950 . S
H1181 C1211 0.950 . S
C1182 H1164 0.951 . S
C1182 C1183 1.366 . S
C1182 C1184 1.388 . S
C1183 C1182 1.366 . S
C1183 C1187 1.385 . S
C1184 H1165 0.951 . S
C1184 C1182 1.388 . S
C1184 C1185 1.366 . S
C1185 C1184 1.366 . S
C1185 C1186 1.414 . S
C1185 C1188 1.499 . S
C1186 H1166 0.950 . S
C1186 C1185 1.414 . S
C1186 C1187 1.374 . S
C1187 H1167 0.950 . S
C1187 C1183 1.385 . S
C1187 C1186 1.374 . S
C1188 C1185 1.499 . S
C1188 C1189 1.373 . S
C1188 C1190 1.389 . S
C1189 H1168 0.950 . S
C1189 C1188 1.373 . S
C1189 C1205 1.377 . S
C1190 C1188 1.389 . S
C1190 C1191 1.524 . S
C1190 C1204 1.377 . S
C1191 C1190 1.524 . S
C1191 C1192 1.397 . S
C1191 C1196 1.363 . S
C1192 H1169 0.950 . S
C1192 C1191 1.397 . S
C1192 C1193 1.334 . S
C1193 H1170 0.950 . S
C1193 C1192 1.334 . S
C1193 C1194 1.287 . S
C1194 C1193 1.287 . S
C1194 C1195 1.524 . S
C1194 H1213 0.913 . S
C1195 H1171 0.950 . S
C1195 C1194 1.524 . S
C1195 C1196 1.415 . S
C1196 H1172 0.950 . S
C1196 C1191 1.363 . S
C1196 C1195 1.415 . S
C1197 H1173 0.951 . S
C1197 C1198 1.366 . S
C1197 C1199 1.388 . S
C1198 C1197 1.366 . S
C1198 C1202 1.385 . S
C1199 H1174 0.951 . S
C1199 C1197 1.388 . S
C1199 C1200 1.366 . S
C1200 C1199 1.366 . S
C1200 C1201 1.414 . S
C1200 C1203 1.499 . S
C1201 H1175 0.950 . S
C1201 C1200 1.414 . S
C1201 C1202 1.374 . S
C1202 H1176 0.950 . S
C1202 C1198 1.385 . S
C1202 C1201 1.374 . S
C1203 C1200 1.499 . S
C1203 C1204 1.373 . S
C1203 C1205 1.389 . S
C1204 H1177 0.950 . S
C1204 C1190 1.377 . S
C1204 C1203 1.373 . S
C1205 C1189 1.377 . S
C1205 C1203 1.389 . S
C1205 C1206 1.524 . S
C1206 C1205 1.524 . S
C1206 C1207 1.397 . S
C1206 C1211 1.363 . S
C1207 H1178 0.950 . S
C1207 C1206 1.397 . S
C1207 C1208 1.334 . S
C1208 H1179 0.950 . S
C1208 C1207 1.334 . S
C1208 C1209 1.287 . S
C1209 C1208 1.287 . S
C1209 C1210 1.524 . S
C1209 H1212 0.999 . S
C1210 H1180 0.950 . S
C1210 C1209 1.524 . S
C1210 C1211 1.415 . S
C1211 H1181 0.950 . S
C1211 C1206 1.363 . S
C1211 C1210 1.415 . S
H1212 C1209 0.999 . S
H1213 C1194 0.913 . S
H1214 C1232 0.951 . S
H1215 C1234 0.951 . S
H1216 C1236 0.950 . S
H1217 C1237 0.950 . S
H1218 C1239 0.950 . S
H1219 C1242 0.950 . S
H1220 C1243 0.950 . S
H1221 C1245 0.950 . S
H1222 C1246 0.950 . S
H1223 C1247 0.951 . S
H1224 C1249 0.951 . S
H1225 C1251 0.950 . S
H1226 C1252 0.950 . S
H1227 C1254 0.950 . S
H1228 C1257 0.950 . S
H1229 C1258 0.950 . S
H1230 C1260 0.950 . S
H1231 C1261 0.950 . S
C1232 H1214 0.951 . S
C1232 C1233 1.366 . S
C1232 C1234 1.388 . S
C1233 C1232 1.366 . S
C1233 C1237 1.385 . S
C1234 H1215 0.951 . S
C1234 C1232 1.388 . S
C1234 C1235 1.366 . S
C1235 C1234 1.366 . S
C1235 C1236 1.414 . S
C1235 C1238 1.499 . S
C1236 H1216 0.950 . S
C1236 C1235 1.414 . S
C1236 C1237 1.374 . S
C1237 H1217 0.950 . S
C1237 C1233 1.385 . S
C1237 C1236 1.374 . S
C1238 C1235 1.499 . S
C1238 C1239 1.373 . S
C1238 C1240 1.389 . S
C1239 H1218 0.950 . S
C1239 C1238 1.373 . S
C1239 C1255 1.377 . S
C1240 C1238 1.389 . S
C1240 C1241 1.524 . S
C1240 C1254 1.377 . S
C1241 C1240 1.524 . S
C1241 C1242 1.397 . S
C1241 C1246 1.363 . S
C1242 H1219 0.950 . S
C1242 C1241 1.397 . S
C1242 C1243 1.334 . S
C1243 H1220 0.950 . S
C1243 C1242 1.334 . S
C1243 C1244 1.287 . S
C1244 C1243 1.287 . S
C1244 C1245 1.524 . S
C1244 H1263 0.913 . S
C1245 H1221 0.950 . S
C1245 C1244 1.524 . S
C1245 C1246 1.415 . S
C1246 H1222 0.950 . S
C1246 C1241 1.363 . S
C1246 C1245 1.415 . S
C1247 H1223 0.951 . S
C1247 C1248 1.366 . S
C1247 C1249 1.388 . S
C1248 C1247 1.366 . S
C1248 C1252 1.385 . S
C1249 H1224 0.951 . S
C1249 C1247 1.388 . S
C1249 C1250 1.366 . S
C1250 C1249 1.366 . S
C1250 C1251 1.414 . S
C1250 C1253 1.499 . S
C1251 H1225 0.950 . S
C1251 C1250 1.414 . S
C1251 C1252 1.374 . S
C1252 H1226 0.950 . S
C1252 C1248 1.385 . S
C1252 C1251 1.374 . S
C1253 C1250 1.499 . S
C1253 C1254 1.373 . S
C1253 C1255 1.389 . S
C1254 H1227 0.950 . S
C1254 C1240 1.377 . S
C1254 C1253 1.373 . S
C1255 C1239 1.377 . S
C1255 C1253 1.389 . S
C1255 C1256 1.524 . S
C1256 C1255 1.524 . S
C1256 C1257 1.397 . S
C1256 C1261 1.363 . S
C1257 H1228 0.950 . S
C1257 C1256 1.397 . S
C1257 C1258 1.334 . S
C1258 H1229 0.950 . S
C1258 C1257 1.334 . S
C1258 C1259 1.287 . S
C1259 C1258 1.287 . S
C1259 C1260 1.524 . S
C1259 H1262 0.999 . S
C1260 H1230 0.950 . S
C1260 C1259 1.524 . S
C1260 C1261 1.415 . S
C1261 H1231 0.950 . S
C1261 C1256 1.363 . S
C1261 C1260 1.415 . S
H1262 C1259 0.999 . S
H1263 C1244 0.913 . S
C283 N2 0.663 . S
C298 C54 0.699 . S
C333 C87 0.700 . S
C348 N35 0.664 . S
C383 N68 0.663 . S
C398 C120 0.699 . S
C433 C21 0.700 . S
C448 N101 0.664 . S
C483 C252 0.696 . S
C498 N134 0.661 . S
C533 C153 0.698 . S
C548 N167 0.663 . S
C583 C186 0.697 . S
C598 N200 0.662 . S
C633 N233 0.661 . S
C648 C219 0.696 . S
C683 C84 1.500 . S
C698 C18 1.501 . S
C733 C51 1.501 . S
C748 C117 1.501 . S
C783 C150 1.501 . S
C798 C216 1.501 . S
C833 C183 1.501 . S
C848 C249 1.501 . S
C883 C7 0.590 . S
C898 C73 0.588 . S
C933 C40 0.591 . S
C948 C106 0.589 . S
C983 C205 0.588 . S
C998 C139 0.591 . S
C1033 C238 0.591 . S
C1048 C172 0.589 . S
C1083 N13 1.658 . S
C1098 N178 1.659 . S
C1133 N211 1.658 . S
C1148 N46 1.659 . S
C1183 N244 1.658 . S
C1198 N79 1.658 . S
C1233 N112 1.659 . S
C1248 N145 1.658 . S
