# Generated by pormake.
# Topology bcg, (8)-cn, num edge types: 1
# Building blocks:
#     Node 0, Type 0, BuildingBlock: NUHRAL_clean_sbu_3, # of connection points: 8
#     Node 1, Type 0, BuildingBlock: NUHRAL_clean_sbu_3, # of connection points: 8
#     Node 2, Type 0, BuildingBlock: NUHRAL_clean_sbu_3, # of connection points: 8
#     Node 3, Type 0, BuildingBlock: NUHRAL_clean_sbu_3, # of connection points: 8
#     Edge 4, Type (0, 0), BuildingBlock: TEMPAE_clean_linker_10, # of connection points: 2
#     Edge 5, Type (0, 0), BuildingBlock: TEMPAE_clean_linker_10, # of connection points: 2
#     Edge 6, Type (0, 0), BuildingBlock: TEMPAE_clean_linker_10, # of connection points: 2
#     Edge 7, Type (0, 0), BuildingBlock: TEMPAE_clean_linker_10, # of connection points: 2
#     Edge 8, Type (0, 0), BuildingBlock: TEMPAE_clean_linker_10, # of connection points: 2
#     Edge 9, Type (0, 0), BuildingBlock: TEMPAE_clean_linker_10, # of connection points: 2
#     Edge 10, Type (0, 0), BuildingBlock: TEMPAE_clean_linker_10, # of connection points: 2
#     Edge 11, Type (0, 0), BuildingBlock: TEMPAE_clean_linker_10, # of connection points: 2
#     Edge 12, Type (0, 0), BuildingBlock: TEMPAE_clean_linker_10, # of connection points: 2
#     Edge 13, Type (0, 0), BuildingBlock: TEMPAE_clean_linker_10, # of connection points: 2
#     Edge 14, Type (0, 0), BuildingBlock: TEMPAE_clean_linker_10, # of connection points: 2
#     Edge 15, Type (0, 0), BuildingBlock: TEMPAE_clean_linker_10, # of connection points: 2
#     Edge 16, Type (0, 0), BuildingBlock: TEMPAE_clean_linker_10, # of connection points: 2
#     Edge 17, Type (0, 0), BuildingBlock: TEMPAE_clean_linker_10, # of connection points: 2
#     Edge 18, Type (0, 0), BuildingBlock: TEMPAE_clean_linker_10, # of connection points: 2
#     Edge 19, Type (0, 0), BuildingBlock: TEMPAE_clean_linker_10, # of connection points: 2
# Relax obj value: 0.166
# Max RMSD: 0.234
# Mean RMSD: 0.234
data_MOF--net-bcg--node1-NUHRAL_clean_sbu_3--edge1-TEMPAE_clean_linker_10
_symmetry_space_group_name_H-M    P1
_symmetry_Int_Tables_number       1
_symmetry_cell_setting            triclinic
loop_
_symmetry_equiv_pos_as_xyz
'x, y, z'
_cell_length_a     22.242604
_cell_length_b     18.026561
_cell_length_c     33.973956
_cell_angle_alpha  79.329172
_cell_angle_beta   90.057604
_cell_angle_gamma 90.139336
loop_
_atom_site_label
_atom_site_type_symbol
_atom_site_fract_x
_atom_site_fract_y
_atom_site_fract_z
_atom_type_partial_charge
C0 C 0.07857 0.32561 0.0545 0.0
C1 C 0.0268 0.32505 0.03097 0.0
C2 C 0.97001 0.33145 0.04785 0.0
C3 C 0.96562 0.33819 0.08819 0.0
C4 C 1.017 0.33744 0.11194 0.0
C5 C 0.07366 0.33083 0.0951 0.0
O6 O 0.23959 0.19431 0.98262 0.0
Tb7 Tb 0.18879 0.29937 0.97454 0.0
O8 O 0.13079 0.31094 0.92185 0.0
O9 O 0.26654 0.09804 0.03088 0.0
Eu10 Eu 0.35166 0.16663 0.02825 0.0
O11 O 0.15746 0.37367 0.01048 0.0
C12 C 0.41019 0.15026 0.96466 0.0
O13 O 0.14919 0.25086 0.02892 0.0
O14 O 0.30153 0.27684 0.02238 0.0
O15 O 0.27268 0.36323 0.96922 0.0
C16 C 0.13805 0.31723 0.03784 0.0
C17 C 0.39169 0.1365 0.11774 0.0
O18 O 0.34081 0.09865 0.12077 0.0
C19 C 0.22442 0.1308 0.00655 0.0
C20 C 0.31498 0.33576 0.99489 0.0
O21 O 0.40999 0.16975 0.08208 0.0
C22 C 0.46899 0.1598 0.94538 0.0
C23 C 0.52988 0.15096 0.88732 0.0
C24 C 0.4749 0.14071 0.90742 0.0
C25 C 0.51779 0.19126 0.96295 0.0
C26 C 0.57279 0.20295 0.9424 0.0
C27 C 0.57855 0.18107 0.90513 0.0
C28 C 0.14711 0.3529 0.88758 0.0
O29 O 0.19755 0.39141 0.88614 0.0
O30 O 0.40447 0.09573 0.99607 0.0
O31 O 0.38219 0.21258 0.96822 0.0
H32 H 0.03076 0.3193 -0.00014 0.0
H33 H 0.92173 0.34096 0.10176 0.0
H34 H 0.11364 0.32961 0.11351 0.0
H35 H 0.43672 0.11845 0.89341 0.0
H36 H 0.51248 0.20808 0.99178 0.0
H37 H 0.62107 0.18913 0.88926 0.0
C38 C 0.58066 0.80566 0.05334 0.0
C39 C 0.53038 0.78124 0.03349 0.0
C40 C 0.47628 0.76086 0.05468 0.0
C41 C 0.47336 0.766 0.09536 0.0
C42 C 0.52246 0.79121 0.1151 0.0
C43 C 0.57604 0.81046 0.09398 0.0
O44 O 0.70424 0.68532 0.97517 0.0
Tb45 Tb 0.7067 0.80342 0.97919 0.0
O46 O 0.66462 0.82924 0.92112 0.0
O47 O 0.73676 0.62364 0.03562 0.0
Eu48 Eu 0.82565 0.68659 0.02682 0.0
O49 O 0.63451 0.8659 0.99509 0.0
C50 C 0.89156 0.66429 0.96692 0.0
O51 O 0.68421 0.78553 0.04018 0.0
O52 O 0.82648 0.80815 0.03429 0.0
O53 O 0.79161 0.86478 0.97287 0.0
C54 C 0.63773 0.83124 0.03271 0.0
C55 C 0.85408 0.65855 0.11789 0.0
O56 O 0.79509 0.66045 0.11948 0.0
C57 C 0.69598 0.63337 0.00708 0.0
C58 C 0.82835 0.8635 0.0033 0.0
O59 O 0.88043 0.66308 0.08303 0.0
C60 C 0.94984 0.68531 0.94632 0.0
C61 C 1.00555 0.71091 0.88318 0.0
C62 C 0.95115 0.69608 0.90418 0.0
C63 C 1.00442 0.68852 0.96754 0.0
C64 C 0.05948 0.70142 0.94661 0.0
C65 C 0.05888 0.71433 0.90464 0.0
C66 C 0.68755 0.7997 0.89202 0.0
O67 O 0.73767 0.76087 0.89845 0.0
O68 O 0.89319 0.62059 0.00254 0.0
O69 O 0.84926 0.71619 0.96335 0.0
H70 H 0.53315 0.77865 0.00194 0.0
H71 H 0.43122 0.75433 0.11137 0.0
H72 H 0.61404 0.83063 0.10909 0.0
H73 H 0.90991 0.6915 0.88773 0.0
H74 H 1.0044 0.67817 -2e-05 0.0
H75 H 0.10104 0.72411 0.88846 0.0
C76 C 0.08659 0.69841 0.44105 0.0
C77 C 0.03297 0.70269 0.46232 0.0
C78 C 0.97762 0.70614 0.44215 0.0
C79 C 0.97673 0.70819 0.40074 0.0
C80 C 0.02992 0.70447 0.37943 0.0
C81 C 0.0849 0.6983 0.39975 0.0
O82 O 0.24475 0.82406 0.51631 0.0
Tb83 Tb 0.19599 0.71751 0.52372 0.0
O84 O 0.13931 0.70351 0.57702 0.0
O85 O 0.26934 0.92646 0.47158 0.0
Eu86 Eu 0.35459 0.85985 0.47226 0.0
O87 O 0.15987 0.64367 0.48876 0.0
C88 C 0.41801 0.87647 0.53392 0.0
O89 O 0.1606 0.76648 0.4682 0.0
O90 O 0.31253 0.74421 0.47661 0.0
O91 O 0.28127 0.65718 0.52915 0.0
C92 C 0.14527 0.70063 0.46016 0.0
C93 C 0.37959 0.88692 0.38094 0.0
O94 O 0.32358 0.90982 0.38138 0.0
C95 C 0.22782 0.88896 0.49456 0.0
C96 C 0.32528 0.68711 0.50545 0.0
O97 O 0.40697 0.86385 0.4153 0.0
C98 C 0.476 0.85855 0.55343 0.0
C99 C 0.5363 0.84871 0.61359 0.0
C100 C 0.48173 0.86559 0.59365 0.0
C101 C 0.52443 0.83223 0.53336 0.0
C102 C 0.57906 0.81394 0.55361 0.0
C103 C 0.58469 0.82383 0.59339 0.0
C104 C 0.16163 0.67284 0.61214 0.0
O105 O 0.21702 0.64726 0.6138 0.0
O106 O 0.41754 0.92648 0.50036 0.0
O107 O 0.38186 0.81903 0.53365 0.0
H108 H 0.03441 0.70326 0.49416 0.0
H109 H 0.93417 0.71274 0.38483 0.0
H110 H 0.12633 0.6958 0.38323 0.0
H111 H 0.44394 0.88453 0.60935 0.0
H112 H 0.51917 0.82473 0.50261 0.0
H113 H 0.62699 0.81116 0.60909 0.0
C114 C 0.58206 0.1974 0.44789 0.0
C115 C 0.52697 0.20374 0.46785 0.0
C116 C 0.47323 0.21926 0.44568 0.0
C117 C 0.47572 0.2305 0.40372 0.0
C118 C 0.52981 0.224 0.38353 0.0
C119 C 0.58284 0.20817 0.40587 0.0
O120 O 0.70175 0.31413 0.53046 0.0
Tb121 Tb 0.70619 0.19714 0.52416 0.0
O122 O 0.66454 0.16503 0.58203 0.0
O123 O 0.73344 0.37476 0.46923 0.0
Eu124 Eu 0.82043 0.30823 0.47422 0.0
O125 O 0.63432 0.13555 0.5067 0.0
C126 C 0.89132 0.3295 0.53214 0.0
O127 O 0.68534 0.21708 0.46286 0.0
O128 O 0.8202 0.18649 0.46729 0.0
O129 O 0.79066 0.1358 0.53047 0.0
C130 C 0.63851 0.17146 0.46935 0.0
C131 C 0.84138 0.31606 0.38364 0.0
O132 O 0.78753 0.28544 0.38787 0.0
C133 C 0.69565 0.36877 0.49946 0.0
C134 C 0.82416 0.13312 0.49903 0.0
O135 O 0.86707 0.33639 0.4148 0.0
C136 C 0.94815 0.3048 0.55364 0.0
C137 C 1.00382 0.2855 0.61703 0.0
C138 C 0.95006 0.30214 0.59532 0.0
C139 C 1.0009 0.28887 0.53352 0.0
C140 C 0.05497 0.27093 0.55502 0.0
C141 C 0.05564 0.27057 0.59635 0.0
C142 C 0.68711 0.19256 0.61198 0.0
O143 O 0.7361 0.23402 0.60614 0.0
O144 O 0.89518 0.36837 0.4954 0.0
O145 O 0.84526 0.2827 0.53758 0.0
H146 H 0.52541 0.19349 0.50028 0.0
H147 H 0.43436 0.24098 0.38671 0.0
H148 H 0.62475 0.20174 0.39058 0.0
H149 H 0.90964 0.31438 0.61072 0.0
H150 H 0.99995 0.29065 0.50147 0.0
H151 H 0.09799 0.26161 0.6123 0.0
C152 C 0.64492 0.21091 -0.00203 0.0
C153 C 0.62535 0.23747 0.95876 0.0
C154 C 0.70096 0.23313 0.01092 0.0
C155 C 0.73806 0.28215 0.98375 0.0
C156 C 0.7168 0.31263 0.94497 0.0
C157 C 0.66029 0.29069 0.93314 0.0
C158 C 0.72157 0.20165 0.05304 0.0
C159 C 0.75486 0.36551 0.91532 0.0
C160 C 0.86713 0.37628 0.02782 0.0
C161 C 0.91429 0.32632 0.02498 0.0
C162 C 0.80993 0.36382 0.01332 0.0
C163 C 0.79976 0.30003 0.99555 0.0
C164 C 0.84822 0.25203 0.99021 0.0
C165 C 0.90527 0.26603 0.00489 0.0
C166 C 0.75963 0.41596 0.01966 0.0
C167 C 0.83922 0.1841 0.97068 0.0
H168 H 0.61791 0.16995 0.01782 0.0
H169 H 0.64439 0.31278 0.90308 0.0
H170 H 0.76104 0.16448 0.05211 0.0
H171 H 0.73596 0.24815 0.06825 0.0
H172 H 0.68574 0.16856 0.07121 0.0
H173 H 0.73059 0.38654 0.88686 0.0
H174 H 0.76942 0.41467 0.92836 0.0
H175 H 0.79611 0.33585 0.90841 0.0
H176 H 0.87447 0.4235 0.04296 0.0
H177 H 0.94191 0.22762 0.00256 0.0
H178 H 0.72992 0.38604 0.04367 0.0
H179 H 0.73196 0.43163 0.99222 0.0
H180 H 0.77654 0.46841 0.02867 0.0
H181 H 0.80907 0.14291 0.98946 0.0
H182 H 0.88223 0.15537 0.96655 0.0
H183 H 0.81726 0.20115 0.94105 0.0
C184 C 0.13205 0.74326 0.99533 0.0
C185 C 0.11909 0.69794 0.96707 0.0
C186 C 0.19123 0.74887 0.00953 0.0
C187 C 0.2385 0.7083 0.99503 0.0
C188 C 0.22491 0.65969 0.96797 0.0
C189 C 0.16556 0.65501 0.95447 0.0
C190 C 0.2032 0.80086 0.03873 0.0
C191 C 0.27343 0.61455 0.95213 0.0
C192 C 0.39833 0.78475 -3e-05 0.0
C193 C 0.42024 0.73968 0.03513 0.0
C194 C 0.3397 0.77424 0.9861 0.0
C195 C 0.30222 0.71705 0.00776 0.0
C196 C 0.32534 0.66901 0.0421 0.0
C197 C 0.38387 0.68081 0.05524 0.0
C198 C 0.3169 0.82647 0.94925 0.0
C199 C 0.28732 0.60711 0.06599 0.0
H200 H 0.0965 0.77671 0.00507 0.0
H201 H 0.15564 0.6191 0.93296 0.0
H202 H 0.16172 0.81121 0.05499 0.0
H203 H 0.23792 0.77754 0.06105 0.0
H204 H 0.21979 0.8559 0.02206 0.0
H205 H 0.25508 0.57713 0.93244 0.0
H206 H 0.30673 0.65344 0.93482 0.0
H207 H 0.29797 0.57931 0.97727 0.0
H208 H 0.42575 0.83087 0.98453 0.0
H209 H 0.40049 0.64563 0.08241 0.0
H210 H 0.27934 0.86087 0.95763 0.0
H211 H 0.29901 0.79328 0.92738 0.0
H212 H 0.3525 0.86515 0.93445 0.0
H213 H 0.24507 0.63117 0.07558 0.0
H214 H 0.31098 0.57684 0.09304 0.0
H215 H 0.27464 0.56558 0.04707 0.0
C216 C 0.66608 0.72664 0.5562 0.0
C217 C 0.63128 0.78489 0.53428 0.0
C218 C 0.72157 0.70713 0.54189 0.0
C219 C 0.74231 0.74615 0.50445 0.0
C220 C 0.7055 0.80112 0.48077 0.0
C221 C 0.65022 0.82012 0.49608 0.0
C222 C 0.75913 0.64723 0.56764 0.0
C223 C 0.72585 0.84242 0.4402 0.0
C224 C 0.91041 0.76351 0.48715 0.0
C225 C 0.91985 0.70959 0.46302 0.0
C226 C 0.85259 0.7758 0.50105 0.0
C227 C 0.80384 0.732 0.49111 0.0
C228 C 0.8139 0.67487 0.46853 0.0
C229 C 0.87184 0.66431 0.45477 0.0
C230 C 0.84325 0.83683 0.52544 0.0
C231 C 0.76317 0.62729 0.45723 0.0
H232 H 0.65068 0.69785 0.58533 0.0
H233 H 0.62342 0.86512 0.47908 0.0
H234 H 0.77234 0.60323 0.55042 0.0
H235 H 0.80112 0.67295 0.57668 0.0
H236 H 0.73501 0.61962 0.59511 0.0
H237 H 0.69 0.87907 0.42427 0.0
H238 H 0.7655 0.8781 0.44376 0.0
H239 H 0.73992 0.80151 0.4213 0.0
H240 H 0.94758 0.79836 0.49354 0.0
H241 H 0.87939 0.62194 0.43644 0.0
H242 H 0.82633 0.81141 0.55566 0.0
H243 H 0.80891 0.8776 0.51107 0.0
H244 H 0.88516 0.86842 0.52879 0.0
H245 H 0.73372 0.60709 0.48335 0.0
H246 H 0.77984 0.57772 0.44535 0.0
H247 H 0.73528 0.6622 0.43381 0.0
C248 C 0.13401 0.30419 0.50133 0.0
C249 C 0.1126 0.25545 0.53548 0.0
C250 C 0.19284 0.29672 0.48707 0.0
C251 C 0.23094 0.23882 0.50722 0.0
C252 C 0.20855 0.18768 0.54069 0.0
C253 C 0.14998 0.19668 0.55436 0.0
C254 C 0.21502 0.35235 0.45127 0.0
C255 C 0.24728 0.12497 0.563 0.0
C256 C 0.36538 0.17887 0.45149 0.0
C257 C 0.41302 0.21891 0.46507 0.0
C258 C 0.30634 0.18474 0.46507 0.0
C259 C 0.29416 0.23122 0.49338 0.0
C260 C 0.34247 0.26929 0.50861 0.0
C261 C 0.40132 0.26296 0.49411 0.0
C262 C 0.2567 0.14242 0.44838 0.0
C263 C 0.33224 0.31911 0.53909 0.0
H264 H 0.10583 0.35027 0.48688 0.0
H265 H 0.1338 0.1586 0.58073 0.0
H266 H 0.2533 0.38508 0.46034 0.0
H267 H 0.23178 0.32189 0.42794 0.0
H268 H 0.17939 0.3924 0.438 0.0
H269 H 0.22273 0.08888 0.58794 0.0
H270 H 0.2638 0.08877 0.54223 0.0
H271 H 0.28728 0.14947 0.57547 0.0
H272 H 0.37421 0.14376 0.42946 0.0
H273 H 0.43775 0.29447 0.50448 0.0
H274 H 0.22555 0.1832 0.43033 0.0
H275 H 0.23017 0.1091 0.47313 0.0
H276 H 0.27413 0.1037 0.42916 0.0
H277 H 0.37311 0.32224 0.5575 0.0
H278 H 0.29435 0.29888 0.5595 0.0
H279 H 0.32154 0.37705 0.52316 0.0
C280 C 0.63657 0.51546 0.03332 0.0
C281 C 0.64014 0.58772 0.00973 0.0
C282 C 0.58567 0.46954 0.03158 0.0
C283 C 0.53537 0.49935 0.00824 0.0
C284 C 0.53681 0.57496 0.98739 0.0
C285 C 0.58971 0.61728 0.98739 0.0
C286 C 0.58707 0.38836 0.05308 0.0
C287 C 0.48241 0.61137 0.96512 0.0
C288 C 0.41595 0.3814 0.96812 0.0
C289 C 0.37175 0.37642 -0.00226 0.0
C290 C 0.47118 0.41723 0.97244 0.0
C291 C 0.48052 0.4528 0.00588 0.0
C292 C 0.43529 0.44861 0.03552 0.0
C293 C 0.38204 0.40886 0.03152 0.0
C294 C 0.51946 0.41706 0.94127 0.0
C295 C 0.44287 0.4862 0.07142 0.0
H296 H 0.67416 0.49408 0.05218 0.0
H297 H 0.59125 0.67428 0.97019 0.0
H298 H 0.6248 0.37739 0.07481 0.0
H299 H 0.54438 0.37201 0.06919 0.0
H300 H 0.59263 0.35124 0.03066 0.0
H301 H 0.48904 0.67277 0.95395 0.0
H302 H 0.47248 0.58391 0.9392 0.0
H303 H 0.44238 0.60366 0.98498 0.0
H304 H 0.40788 0.35608 0.94205 0.0
H305 H 0.34763 0.40459 0.05444 0.0
H306 H 0.56339 0.4011 0.95593 0.0
H307 H 0.52443 0.4746 0.92315 0.0
H308 H 0.50894 0.37734 0.9208 0.0
H309 H 0.47482 0.45316 0.09284 0.0
H310 H 0.39968 0.48997 0.0873 0.0
H311 H 0.4618 0.54383 0.06241 0.0
C312 C 0.59424 0.39657 0.52385 0.0
C313 C 0.64354 0.42008 0.49881 0.0
C314 C 0.54348 0.44232 0.52392 0.0
C315 C 0.54249 0.51478 0.49934 0.0
C316 C 0.59218 0.53927 0.47407 0.0
C317 C 0.64167 0.49083 0.4735 0.0
C318 C 0.49077 0.41265 0.55024 0.0
C319 C 0.59391 0.61722 0.44848 0.0
C320 C 0.38898 0.60244 0.47378 0.0
C321 C 0.38165 0.64545 0.50374 0.0
C322 C 0.44144 0.56027 0.47173 0.0
C323 C 0.48845 0.5634 0.49955 0.0
C324 C 0.48165 0.6085 0.5293 0.0
C325 C 0.42767 0.64793 0.53154 0.0
C326 C 0.44577 0.51046 0.44066 0.0
C327 C 0.53086 0.61395 0.55921 0.0
H328 H 0.59466 0.34132 0.54301 0.0
H329 H 0.67914 0.50862 0.45369 0.0
H330 H 0.48755 0.44356 0.57549 0.0
H331 H 0.44815 0.42203 0.53308 0.0
H332 H 0.49497 0.35144 0.56283 0.0
H333 H 0.6295 0.6224 0.42524 0.0
H334 H 0.55012 0.63203 0.43346 0.0
H335 H 0.6031 0.65914 0.46793 0.0
H336 H 0.35287 0.60038 0.45252 0.0
H337 H 0.42161 0.68071 0.55494 0.0
H338 H 0.4507 0.45063 0.45572 0.0
H339 H 0.48623 0.52558 0.42178 0.0
H340 H 0.40558 0.51516 0.42092 0.0
H341 H 0.53309 0.56058 0.58142 0.0
H342 H 0.52315 0.66095 0.57561 0.0
H343 H 0.57506 0.62201 0.54392 0.0
C344 C 0.12128 0.12905 0.97742 0.0
C345 C 0.16279 0.09897 0.00709 0.0
C346 C 0.06379 0.09759 0.97593 0.0
C347 C 0.04779 0.03277 0.00437 0.0
C348 C 0.0895 1.00201 0.03456 0.0
C349 C 0.14639 0.03569 0.03568 0.0
C350 C 0.02166 0.13445 0.94324 0.0
C351 C 0.07454 0.93231 0.06506 0.0
C352 C 0.88618 0.96717 0.02488 0.0
C353 C 0.88046 0.91432 -0.00027 0.0
C354 C 0.9395 0.00886 0.02551 0.0
C355 C 0.9889 0.9946 0.00162 0.0
C356 C 0.98265 0.94176 0.97571 0.0
C357 C 0.92811 0.90287 0.97475 0.0
C358 C 0.94286 0.06567 0.05299 0.0
C359 C 0.03403 0.92497 0.94971 0.0
H360 H 0.13408 0.17646 0.95463 0.0
H361 H 0.1784 0.01153 0.05853 0.0
H362 H 0.97727 0.10639 0.94357 0.0
H363 H 1.01444 0.19416 0.94611 0.0
H364 H 0.04292 0.13516 0.91361 0.0
H365 H 0.11253 0.91405 0.08583 0.0
H366 H 0.03508 0.94338 0.08302 0.0
H367 H 0.06229 0.88528 0.04959 0.0
H368 H 0.84925 0.97517 0.04449 0.0
H369 H 0.9236 0.86093 0.95578 0.0
H370 H 0.9774 0.1098 0.04346 0.0
H371 H 0.95412 0.03591 0.08368 0.0
H372 H 0.89865 0.09354 0.05457 0.0
H373 H 0.04426 0.97596 0.92693 0.0
H374 H 0.02366 0.87757 0.93402 0.0
H375 H 0.07513 0.91072 0.96809 0.0
C376 C 0.92007 0.08811 0.5317 0.0
C377 C 0.87682 0.08363 0.50236 0.0
C378 C 0.97596 0.05265 0.5309 0.0
C379 C 0.98774 0.0094 0.50089 0.0
C380 C 0.94239 1.00114 0.47261 0.0
C381 C 0.88794 0.04009 0.47312 0.0
C382 C 0.02291 0.06344 0.56146 0.0
C383 C 0.95105 0.9536 0.44084 0.0
C384 C 0.1478 0.98194 0.4675 0.0
C385 C 0.16529 0.91695 0.49434 0.0
C386 C 0.09046 0.01323 0.46981 0.0
C387 C 0.04838 0.97612 0.49816 0.0
C388 C 0.06554 0.90936 0.52471 0.0
C389 C 0.12411 0.88188 0.52292 0.0
C390 C 0.07591 0.08761 0.443 0.0
C391 C 0.02391 0.86669 0.55605 0.0
H392 H 0.91148 0.12297 0.55391 0.0
H393 H 0.85428 0.03716 0.45032 0.0
H394 H 0.02779 0.01036 0.58367 0.0
H395 H 0.06719 0.07665 0.54682 0.0
H396 H 1.01082 0.10923 0.57782 0.0
H397 H 0.90868 0.92355 0.43622 0.0
H398 H 0.96204 0.99097 0.41197 0.0
H399 H 0.98746 0.91137 0.44823 0.0
H400 H 0.17944 0.00953 0.44529 0.0
H401 H 0.13805 0.83369 0.54463 0.0
H402 H 0.0581 0.12803 0.4611 0.0
H403 H 0.04067 0.07911 0.42117 0.0
H404 H 0.11583 0.11339 0.4261 0.0
H405 H 0.04368 0.86558 0.58617 0.0
H406 H 0.02018 0.8072 0.55185 0.0
H407 H 0.97825 0.8909 0.55566 0.0
C408 C 0.49072 0.27394 0.31442 0.0
C409 C 0.52841 0.22401 0.33975 0.0
C410 C 0.47813 0.26338 0.27535 0.0
C411 C 0.50444 0.20191 0.2611 0.0
C412 C 0.54727 0.15622 0.28513 0.0
C413 C 0.55833 0.16737 0.32426 0.0
C414 C 0.43284 0.31428 0.25063 0.0
C415 C 0.57804 0.09126 0.27137 0.0
C416 C 0.40238 0.11556 0.1922 0.0
C417 C 0.42457 0.14758 0.15423 0.0
C418 C 0.42947 0.1308 0.22714 0.0
C419 C 0.48008 0.17935 0.22416 0.0
C420 C 0.50428 0.20948 0.18601 0.0
C421 C 0.47618 0.19331 0.15144 0.0
C422 C 0.40318 0.09587 0.26731 0.0
C423 C 0.5589 0.26014 0.18169 0.0
H424 H 0.46852 0.31901 0.32589 0.0
H425 H 0.58741 0.12821 0.34353 0.0
H426 H 0.44964 0.33334 0.21967 0.0
H427 H 0.39054 0.28238 0.24863 0.0
H428 H 0.4223 0.36472 0.26381 0.0
H429 H 0.62394 0.0827 0.28433 0.0
H430 H 0.55195 0.03898 0.28234 0.0
H431 H 0.58155 0.0999 0.23829 0.0
H432 H 0.36281 0.07982 0.1947 0.0
H433 H 0.4939 0.21797 0.12222 0.0
H434 H 0.39042 0.14062 0.28416 0.0
H435 H 0.43742 0.05977 0.28532 0.0
H436 H 0.3628 0.06095 0.2644 0.0
H437 H 0.54848 0.31282 0.19278 0.0
H438 H 0.57432 0.27539 0.15012 0.0
H439 H 0.5963 0.23189 0.20028 0.0
C440 C 0.48665 0.74903 0.18549 0.0
C441 C 0.51491 0.80374 0.15672 0.0
C442 C 0.47124 0.76439 0.2232 0.0
C443 C 0.48397 0.83645 0.23222 0.0
C444 C 0.51452 0.89085 0.20372 0.0
C445 C 0.5302 0.87353 0.16648 0.0
C446 C 0.43881 0.70467 0.25267 0.0
C447 C 0.53009 0.96784 0.21198 0.0
C448 C 0.3765 0.89787 0.30657 0.0
C449 C 0.40894 0.88069 0.34251 0.0
C450 C 0.40141 0.88631 0.2703 0.0
C451 C 0.46017 0.85647 0.26987 0.0
C452 C 0.4942 0.84209 0.30569 0.0
C453 C 0.46814 0.8542 0.34166 0.0
C454 C 0.36414 0.90405 0.23255 0.0
C455 C 0.55756 0.81227 0.30612 0.0
H456 H 0.4752 0.69476 0.17806 0.0
H457 H 0.55183 0.9161 0.14423 0.0
H458 H 0.46178 0.69574 0.28217 0.0
H459 H 0.39237 0.7238 0.25724 0.0
H460 H 0.43628 0.64983 0.24227 0.0
H461 H 0.53773 0.00947 0.18393 0.0
H462 H 0.49436 0.98972 0.22942 0.0
H463 H 0.57219 0.96318 0.22975 0.0
H464 H 0.33095 0.91898 0.3068 0.0
H465 H 0.49375 0.84145 0.36924 0.0
H466 H 0.35254 0.85084 0.22227 0.0
H467 H 0.39027 0.93953 0.20827 0.0
H468 H 0.32181 0.93394 0.2371 0.0
H469 H 0.55758 0.75665 0.29656 0.0
H470 H 0.57862 0.8057 0.33624 0.0
H471 H 0.58562 0.85115 0.28444 0.0
C472 C 0.50819 0.80843 0.68523 0.0
C473 C 0.54364 0.8533 0.65609 0.0
C474 C 0.5236 0.79917 0.72591 0.0
C475 C 0.57486 0.83694 0.73731 0.0
C476 C 0.60874 0.88555 0.70786 0.0
C477 C 0.5925 0.8932 0.66763 0.0
C478 C 0.48789 0.74479 0.75625 0.0
C479 C 0.66484 0.92592 0.71762 0.0
C480 C 0.60458 0.85142 0.84544 0.0
C481 C 0.6557 0.80581 0.85352 0.0
C482 C 0.57487 0.85883 0.80853 0.0
C483 C 0.59725 0.8198 0.77906 0.0
C484 C 0.64638 0.76974 0.78821 0.0
C485 C 0.6755 0.76413 0.82513 0.0
C486 C 0.52034 0.90933 0.80195 0.0
C487 C 0.66929 0.72331 0.75865 0.0
H488 H 0.47094 0.77672 0.67598 0.0
H489 H 0.61989 0.92781 0.64488 0.0
H490 H 0.51764 0.69869 0.77125 0.0
H491 H 0.47018 0.77407 0.77976 0.0
H492 H 0.44954 0.71945 0.74241 0.0
H493 H 0.66606 0.98426 0.69999 0.0
H494 H 0.66892 0.92839 0.74981 0.0
H495 H 0.70483 0.89629 0.70869 0.0
H496 H 0.58815 0.88255 0.86764 0.0
H497 H 0.71405 0.72719 0.8316 0.0
H498 H 0.48741 0.89085 0.82637 0.0
H499 H 0.49752 0.90986 0.77292 0.0
H500 H 0.53358 0.9678 0.80389 0.0
H501 H 0.63134 0.69969 0.74362 0.0
H502 H 0.6983 0.67606 0.77329 0.0
H503 H 0.69624 0.75973 0.73521 0.0
C504 C 0.58601 0.09534 0.83709 0.0
C505 C 0.53686 0.13726 0.84622 0.0
C506 C 0.60421 0.09888 0.79746 0.0
C507 C 0.57175 0.14482 0.76623 0.0
C508 C 0.51926 0.18284 0.77519 0.0
C509 C 0.50221 0.17826 0.8153 0.0
C510 C 0.66129 0.05828 0.7903 0.0
C511 C 0.4849 0.23482 0.74301 0.0
C512 C 0.6718 0.2257 0.67908 0.0
C513 C 0.65586 0.1816 0.6508 0.0
C514 C 0.64267 0.21645 0.71612 0.0
C515 C 0.59726 0.16085 0.72531 0.0
C516 C 0.58012 0.11714 0.6966 0.0
C517 C 0.60948 0.12831 0.65947 0.0
C518 C 0.66163 0.2649 0.74583 0.0
C519 C 0.53304 0.05615 0.70587 0.0
H520 H 0.61275 0.06367 0.86119 0.0
H521 H 0.46478 0.2117 0.8226 0.0
H522 H 0.66927 0.05646 0.75835 0.0
H523 H 0.70008 0.08716 0.80156 0.0
H524 H 0.6603 0.99969 0.80764 0.0
H525 H 0.44053 0.25072 0.7539 0.0
H526 H 0.51151 0.28714 0.7332 0.0
H527 H 0.47776 0.20847 0.71637 0.0
H528 H 0.70711 0.26767 0.67229 0.0
H529 H 0.59706 0.09406 0.63765 0.0
H530 H 0.6855 0.22956 0.77126 0.0
H531 H 0.62165 0.2894 0.75814 0.0
H532 H 0.69205 0.31163 0.73223 0.0
H533 H 0.55018 0.01147 0.73001 0.0
H534 H 0.52179 0.03059 0.67944 0.0
H535 H 0.49133 0.07852 0.71712 0.0
C536 C 0.04222 0.64176 0.32067 0.0
C537 C 0.02602 0.70562 0.33605 0.0
C538 C 0.02423 0.63402 0.28204 0.0
C539 C 0.9894 0.69164 0.25863 0.0
C540 C 0.97837 0.75948 0.27272 0.0
C541 C 0.99641 0.76539 0.31151 0.0
C542 C 0.0374 0.56086 0.26843 0.0
C543 C 0.9432 0.82337 0.2482 0.0
C544 C 0.95037 0.68585 0.1504 0.0
C545 C 0.8904 0.66106 0.15401 0.0
C546 C 0.98378 0.6951 0.18423 0.0
C547 C 0.95697 0.67731 0.22255 0.0
C548 C 0.8972 0.6495 0.22647 0.0
C549 C 0.8643 0.6429 0.19207 0.0
C550 C 0.047 0.72597 0.17889 0.0
C551 C 0.86788 0.62692 0.26702 0.0
H552 H 0.06483 0.59543 0.3399 0.0
H553 H 0.98432 0.81498 0.32357 0.0
H554 H 0.99966 0.52141 0.27789 0.0
H555 H 0.04189 0.56838 0.23544 0.0
H556 H 0.07917 0.53456 0.28251 0.0
H557 H 0.94687 0.87614 0.26053 0.0
H558 H 0.95912 0.83476 0.21671 0.0
H559 H 0.89503 0.80731 0.24792 0.0
H560 H 0.97064 0.70059 0.12097 0.0
H561 H 0.81818 0.62308 0.19501 0.0
H562 H 0.07879 0.68678 0.19738 0.0
H563 H 0.04957 0.7806 0.18943 0.0
H564 H 0.06194 0.73499 0.14716 0.0
H565 H 0.89669 0.58581 0.2869 0.0
H566 H 0.82281 0.60114 0.26505 0.0
H567 H 0.86286 0.67716 0.28128 0.0
C568 C 0.93523 0.34141 0.34257 0.0
C569 C 0.8741 0.32175 0.3453 0.0
C570 C 0.96708 0.34436 0.30663 0.0
C571 C 0.93695 0.32708 0.27268 0.0
C572 C 0.8754 0.30647 0.27546 0.0
C573 C 0.84473 0.30425 0.31166 0.0
C574 C 0.03308 0.36434 0.30579 0.0
C575 C 0.84169 0.28711 0.24005 0.0
C576 C 0.98102 0.40302 0.16523 0.0
C577 C 1.00935 0.34048 0.15465 0.0
C578 C 0.96051 0.40108 0.2043 0.0
C579 C 0.96796 0.33449 0.23341 0.0
C580 C 0.99959 0.27246 0.22331 0.0
C581 C 0.02035 0.27641 0.18391 0.0
C582 C 0.92724 0.46914 0.21271 0.0
C583 C 1.00744 0.20004 0.25321 0.0
H584 H 0.95855 0.35383 0.36864 0.0
H585 H 0.79758 0.28867 0.31356 0.0
H586 H 0.05956 0.31196 0.31512 0.0
H587 H 0.04845 0.39176 0.27553 0.0
H588 H 0.04337 0.40226 0.32725 0.0
H589 H 0.79591 0.26474 0.24827 0.0
H590 H 0.83733 0.33838 0.21648 0.0
H591 H 0.86695 0.2445 0.22697 0.0
H592 H 0.9722 0.45234 0.14234 0.0
H593 H 0.04153 0.22768 0.17532 0.0
H594 H 0.91975 0.4685 0.24499 0.0
H595 H 0.88291 0.47264 0.19744 0.0
H596 H 0.95271 0.52088 0.19979 0.0
H597 H 0.02976 0.21166 0.28063 0.0
H598 H 0.0345 0.15781 0.24097 0.0
H599 H 0.96269 0.17516 0.26218 0.0
C600 C 0.06153 0.3046 0.85076 0.0
C601 C 0.11289 0.35026 0.85014 0.0
C602 C 0.03318 0.29473 0.815 0.0
C603 C 0.05696 0.3309 0.77769 0.0
C604 C 0.10633 0.38096 0.77701 0.0
C605 C 0.13361 0.39008 0.81316 0.0
C606 C 0.97868 0.24419 0.81708 0.0
C607 C 0.1315 0.4232 0.73794 0.0
C608 C 0.04716 0.23977 0.68568 0.0
C609 C 1.00839 0.28888 0.66061 0.0
C610 C 0.06118 0.25099 0.72446 0.0
C611 C 0.0344 0.31147 0.73933 0.0
C612 C 0.99095 0.3568 0.71559 0.0
C613 C 0.9791 0.34567 0.67641 0.0
C614 C 0.1076 0.20083 0.74853 0.0
C615 C 0.9591 0.42044 0.72983 0.0
H616 H 0.04426 0.27501 0.87915 0.0
H617 H 0.17243 0.42679 0.81228 0.0
H618 H 0.9417 0.27425 0.79879 0.0
H619 H 0.98964 0.19346 0.80434 0.0
H620 H 0.9625 0.22553 0.84828 0.0
H621 H 0.17144 0.4578 0.74238 0.0
H622 H 0.14452 0.38292 0.71839 0.0
H623 H 0.09646 0.46099 0.72192 0.0
H624 H 0.0686 0.19401 0.67437 0.0
H625 H 0.94906 0.38421 0.65761 0.0
H626 H 0.0898 0.17685 0.7787 0.0
H627 H 0.14799 0.23483 0.75274 0.0
H628 H 0.12162 0.15363 0.73372 0.0
H629 H 0.96216 0.41694 0.76269 0.0
H630 H 0.91088 0.42123 0.72121 0.0
H631 H 0.9791 0.47442 0.71438 0.0
C632 C 0.07132 0.7092 0.64887 0.0
C633 C 0.1276 0.67386 0.64974 0.0
C634 C 0.04191 0.7174 0.6845 0.0
C635 C 0.06916 0.68892 0.72194 0.0
C636 C 0.12465 0.65012 0.72299 0.0
C637 C 0.15311 0.64311 0.68697 0.0
C638 C 0.98267 0.75865 0.68202 0.0
C639 C 0.15497 0.61787 0.76224 0.0
C640 C 0.04392 0.77138 0.81558 0.0
C641 C 1.00954 0.71463 0.8392 0.0
C642 C 0.06022 0.76631 0.77624 0.0
C643 C 0.04199 0.70269 0.76016 0.0
C644 C 1.00361 0.64818 0.78292 0.0
C645 C 0.98769 0.65486 0.82215 0.0
C646 C 0.10067 0.82623 0.75303 0.0
C647 C 0.98312 0.57973 0.76709 0.0
H648 H 0.0508 0.73202 0.62032 0.0
H649 H 0.1962 0.61486 0.68808 0.0
H650 H 0.94853 0.72393 0.70093 0.0
H651 H 0.98811 0.81176 0.69376 0.0
H652 H 0.96544 0.77284 0.65082 0.0
H653 H 0.19795 0.58915 0.75794 0.0
H654 H 0.1644 0.66358 0.77923 0.0
H655 H 0.1247 0.57668 0.7809 0.0
H656 H 0.06062 0.81792 0.82867 0.0
H657 H 0.96164 0.61047 0.84042 0.0
H658 H 0.08329 0.84508 0.72219 0.0
H659 H 0.14613 0.80232 0.7505 0.0
H660 H 0.105 0.87617 0.76772 0.0
H661 H 0.96689 0.59612 0.73582 0.0
H662 H 0.94669 0.54872 0.78563 0.0
H663 H 0.02178 0.54096 0.76699 0.0
loop_
_geom_bond_atom_site_label_1
_geom_bond_atom_site_label_2
_geom_bond_distance
_geom_bond_site_symmetry_2
_ccdc_geom_bond_type
C0 C1 1.387 . S
C0 C5 1.380 . S
C0 C16 1.494 . S
C1 C0 1.387 . S
C1 C2 1.386 1_455 S
C1 H32 0.930 1_455 S
C2 C1 1.386 1_655 S
C2 C3 1.397 . S
C3 C2 1.397 . S
C3 C4 1.393 1_655 S
C3 H33 0.930 . S
C4 C3 1.393 1_455 S
C4 C5 1.395 . S
C5 C0 1.380 . S
C5 C4 1.395 . S
C5 H34 0.930 . S
O6 Tb7 2.295 . S
O6 C19 1.240 1_556 S
Tb7 O6 2.295 . S
Tb7 O8 2.312 . S
Tb7 O11 2.438 . S
Tb7 O13 2.472 1_556 S
Tb7 O15 2.308 . S
Tb7 C16 2.821 1_556 S
O8 Tb7 2.312 . S
O8 C28 1.264 . S
O9 Eu10 2.308 . S
O9 C19 1.246 . S
Eu10 O9 2.308 . S
Eu10 C12 2.821 1_554 S
Eu10 O14 2.295 . S
Eu10 O21 2.312 . S
Eu10 O30 2.438 . S
Eu10 O31 2.472 1_554 S
O11 Tb7 2.438 . S
O11 C16 1.263 1_556 S
C12 Eu10 2.821 1_556 S
C12 C22 1.494 . S
C12 O30 1.263 1_556 S
C12 O31 1.264 . S
O13 Tb7 2.472 1_554 S
O13 C16 1.264 . S
O14 Eu10 2.295 . S
O14 C20 1.242 . S
O15 Tb7 2.308 . S
O15 C20 1.243 1_556 S
C16 C0 1.494 . S
C16 Tb7 2.821 1_554 S
C16 O11 1.263 1_554 S
C16 O13 1.264 . S
C17 O18 1.260 . S
C17 O21 1.264 . S
O18 C17 1.260 . S
C19 O6 1.240 1_554 S
C19 O9 1.246 . S
C20 O14 1.242 . S
C20 O15 1.243 1_554 S
O21 Eu10 2.312 . S
O21 C17 1.264 . S
C22 C12 1.494 . S
C22 C24 1.380 . S
C22 C25 1.387 . S
C23 C24 1.395 . S
C23 C27 1.393 . S
C24 C22 1.380 . S
C24 C23 1.395 . S
C24 H35 0.930 . S
C25 C22 1.387 . S
C25 C26 1.386 . S
C25 H36 0.930 . S
C26 C25 1.386 . S
C26 C27 1.397 . S
C27 C23 1.393 . S
C27 C26 1.397 . S
C27 H37 0.930 . S
C28 O8 1.264 . S
C28 O29 1.260 . S
O29 C28 1.260 . S
O30 Eu10 2.438 . S
O30 C12 1.263 1_554 S
O31 Eu10 2.472 1_556 S
O31 C12 1.264 . S
H32 C1 0.930 1_655 S
H33 C3 0.930 . S
H34 C5 0.930 . S
H35 C24 0.930 . S
H36 C25 0.930 . S
H37 C27 0.930 . S
C38 C39 1.387 . S
C38 C43 1.380 . S
C38 C54 1.494 . S
C39 C38 1.387 . S
C39 C40 1.386 . S
C39 H70 0.930 . S
C40 C39 1.386 . S
C40 C41 1.397 . S
C41 C40 1.397 . S
C41 C42 1.393 . S
C41 H71 0.930 . S
C42 C41 1.393 . S
C42 C43 1.395 . S
C43 C38 1.380 . S
C43 C42 1.395 . S
C43 H72 0.930 . S
O44 Tb45 2.295 . S
O44 C57 1.240 1_556 S
Tb45 O44 2.295 . S
Tb45 O46 2.312 . S
Tb45 O49 2.438 . S
Tb45 O51 2.472 1_556 S
Tb45 O53 2.308 . S
Tb45 C54 2.821 1_556 S
O46 Tb45 2.312 . S
O46 C66 1.264 . S
O47 Eu48 2.308 . S
O47 C57 1.246 . S
Eu48 O47 2.308 . S
Eu48 C50 2.821 1_554 S
Eu48 O52 2.295 . S
Eu48 O59 2.312 . S
Eu48 O68 2.438 . S
Eu48 O69 2.472 1_554 S
O49 Tb45 2.438 . S
O49 C54 1.263 1_556 S
C50 Eu48 2.821 1_556 S
C50 C60 1.494 . S
C50 O68 1.263 1_556 S
C50 O69 1.264 . S
O51 Tb45 2.472 1_554 S
O51 C54 1.264 . S
O52 Eu48 2.295 . S
O52 C58 1.242 . S
O53 Tb45 2.308 . S
O53 C58 1.243 1_556 S
C54 C38 1.494 . S
C54 Tb45 2.821 1_554 S
C54 O49 1.263 1_554 S
C54 O51 1.264 . S
C55 O56 1.260 . S
C55 O59 1.264 . S
O56 C55 1.260 . S
C57 O44 1.240 1_554 S
C57 O47 1.246 . S
C58 O52 1.242 . S
C58 O53 1.243 1_554 S
O59 Eu48 2.312 . S
O59 C55 1.264 . S
C60 C50 1.494 . S
C60 C62 1.380 . S
C60 C63 1.387 . S
C61 C62 1.395 . S
C61 C65 1.393 1_655 S
C62 C60 1.380 . S
C62 C61 1.395 . S
C62 H73 0.930 . S
C63 C60 1.387 . S
C63 C64 1.386 1_655 S
C63 H74 0.930 1_655 S
C64 C63 1.386 1_455 S
C64 C65 1.397 . S
C65 C61 1.393 1_455 S
C65 C64 1.397 . S
C65 H75 0.930 . S
C66 O46 1.264 . S
C66 O67 1.260 . S
O67 C66 1.260 . S
O68 Eu48 2.438 . S
O68 C50 1.263 1_554 S
O69 Eu48 2.472 1_556 S
O69 C50 1.264 . S
H70 C39 0.930 . S
H71 C41 0.930 . S
H72 C43 0.930 . S
H73 C62 0.930 . S
H74 C63 0.930 1_455 S
H75 C65 0.930 . S
C76 C77 1.387 . S
C76 C81 1.380 . S
C76 C92 1.494 . S
C77 C76 1.387 . S
C77 C78 1.386 1_455 S
C77 H108 0.930 1_455 S
C78 C77 1.386 1_655 S
C78 C79 1.397 . S
C79 C78 1.397 . S
C79 C80 1.393 1_655 S
C79 H109 0.930 . S
C80 C79 1.393 1_455 S
C80 C81 1.395 . S
C81 C76 1.380 . S
C81 C80 1.395 . S
C81 H110 0.930 . S
O82 Tb83 2.295 . S
O82 C95 1.242 . S
Tb83 O82 2.295 . S
Tb83 O84 2.312 . S
Tb83 O87 2.438 . S
Tb83 O89 2.472 . S
Tb83 O91 2.308 . S
Tb83 C92 2.821 . S
O84 Tb83 2.312 . S
O84 C104 1.264 . S
O85 Eu86 2.308 . S
O85 C95 1.243 . S
Eu86 O85 2.308 . S
Eu86 C88 2.821 . S
Eu86 O90 2.295 . S
Eu86 O97 2.312 . S
Eu86 O106 2.438 . S
Eu86 O107 2.472 . S
O87 Tb83 2.438 . S
O87 C92 1.263 . S
C88 Eu86 2.821 . S
C88 C98 1.494 . S
C88 O106 1.263 . S
C88 O107 1.264 . S
O89 Tb83 2.472 . S
O89 C92 1.264 . S
O90 Eu86 2.295 . S
O90 C96 1.242 . S
O91 Tb83 2.308 . S
O91 C96 1.243 . S
C92 C76 1.494 . S
C92 Tb83 2.821 . S
C92 O87 1.263 . S
C92 O89 1.264 . S
C93 O94 1.260 . S
C93 O97 1.264 . S
O94 C93 1.260 . S
C95 O82 1.242 . S
C95 O85 1.243 . S
C96 O90 1.242 . S
C96 O91 1.243 . S
O97 Eu86 2.312 . S
O97 C93 1.264 . S
C98 C88 1.494 . S
C98 C100 1.380 . S
C98 C101 1.387 . S
C99 C100 1.395 . S
C99 C103 1.393 . S
C100 C98 1.380 . S
C100 C99 1.395 . S
C100 H111 0.930 . S
C101 C98 1.387 . S
C101 C102 1.386 . S
C101 H112 0.930 . S
C102 C101 1.386 . S
C102 C103 1.397 . S
C103 C99 1.393 . S
C103 C102 1.397 . S
C103 H113 0.930 . S
C104 O84 1.264 . S
C104 O105 1.260 . S
O105 C104 1.260 . S
O106 Eu86 2.438 . S
O106 C88 1.263 . S
O107 Eu86 2.472 . S
O107 C88 1.264 . S
H108 C77 0.930 1_655 S
H109 C79 0.930 . S
H110 C81 0.930 . S
H111 C100 0.930 . S
H112 C101 0.930 . S
H113 C103 0.930 . S
C114 C115 1.387 . S
C114 C119 1.380 . S
C114 C130 1.494 . S
C115 C114 1.387 . S
C115 C116 1.386 . S
C115 H146 0.930 . S
C116 C115 1.386 . S
C116 C117 1.397 . S
C117 C116 1.397 . S
C117 C118 1.393 . S
C117 H147 0.930 . S
C118 C117 1.393 . S
C118 C119 1.395 . S
C119 C114 1.380 . S
C119 C118 1.395 . S
C119 H148 0.930 . S
O120 Tb121 2.295 . S
O120 C133 1.242 . S
Tb121 O120 2.295 . S
Tb121 O122 2.312 . S
Tb121 O125 2.438 . S
Tb121 O127 2.472 . S
Tb121 O129 2.308 . S
Tb121 C130 2.821 . S
O122 Tb121 2.312 . S
O122 C142 1.264 . S
O123 Eu124 2.308 . S
O123 C133 1.243 . S
Eu124 O123 2.308 . S
Eu124 C126 2.821 . S
Eu124 O128 2.295 . S
Eu124 O135 2.312 . S
Eu124 O144 2.438 . S
Eu124 O145 2.472 . S
O125 Tb121 2.438 . S
O125 C130 1.263 . S
C126 Eu124 2.821 . S
C126 C136 1.494 . S
C126 O144 1.263 . S
C126 O145 1.264 . S
O127 Tb121 2.472 . S
O127 C130 1.264 . S
O128 Eu124 2.295 . S
O128 C134 1.242 . S
O129 Tb121 2.308 . S
O129 C134 1.243 . S
C130 C114 1.494 . S
C130 Tb121 2.821 . S
C130 O125 1.263 . S
C130 O127 1.264 . S
C131 O132 1.260 . S
C131 O135 1.264 . S
O132 C131 1.260 . S
C133 O120 1.242 . S
C133 O123 1.243 . S
C134 O128 1.242 . S
C134 O129 1.243 . S
O135 Eu124 2.312 . S
O135 C131 1.264 . S
C136 C126 1.494 . S
C136 C138 1.380 . S
C136 C139 1.387 . S
C137 C138 1.395 . S
C137 C141 1.393 1_655 S
C138 C136 1.380 . S
C138 C137 1.395 . S
C138 H149 0.930 . S
C139 C136 1.387 . S
C139 C140 1.386 1_655 S
C139 H150 0.930 1_655 S
C140 C139 1.386 1_455 S
C140 C141 1.397 . S
C141 C137 1.393 1_455 S
C141 C140 1.397 . S
C141 H151 0.930 . S
C142 O122 1.264 . S
C142 O143 1.260 . S
O143 C142 1.260 . S
O144 Eu124 2.438 . S
O144 C126 1.263 . S
O145 Eu124 2.472 . S
O145 C126 1.264 . S
H146 C115 0.930 . S
H147 C117 0.930 . S
H148 C119 0.930 . S
H149 C138 0.930 . S
H150 C139 0.930 1_455 S
H151 C141 0.930 . S
C152 C153 1.391 . S
C152 C154 1.394 1_556 S
C152 H168 0.931 1_556 S
C153 C152 1.391 . S
C153 C157 1.376 . S
C154 C152 1.394 1_554 S
C154 C155 1.369 1_554 S
C154 C158 1.531 . S
C155 C154 1.369 1_556 S
C155 C156 1.410 . S
C155 C163 1.503 1_556 S
C156 C155 1.410 . S
C156 C157 1.392 . S
C156 C159 1.511 . S
C157 C153 1.376 . S
C157 C156 1.392 . S
C157 H169 0.929 . S
C158 C154 1.531 . S
C158 H170 0.960 . S
C158 H171 0.962 . S
C158 H172 0.960 . S
C159 C156 1.511 . S
C159 H173 0.961 . S
C159 H174 0.961 . S
C159 H175 0.961 . S
C160 C161 1.370 . S
C160 C162 1.363 . S
C160 H176 0.931 . S
C161 C160 1.370 . S
C161 C165 1.408 . S
C162 C160 1.363 . S
C162 C163 1.370 . S
C162 C166 1.524 . S
C163 C155 1.503 1_554 S
C163 C162 1.370 . S
C163 C164 1.403 . S
C164 C163 1.403 . S
C164 C165 1.404 . S
C164 C167 1.539 1_554 S
C165 C161 1.408 . S
C165 C164 1.404 . S
C165 H177 0.930 . S
C166 C162 1.524 . S
C166 H178 0.956 . S
C166 H179 0.972 . S
C166 H180 0.961 . S
C167 C164 1.539 1_556 S
C167 H181 0.958 1_556 S
C167 H182 0.961 . S
C167 H183 0.960 . S
H168 C152 0.931 1_554 S
H169 C157 0.929 . S
H170 C158 0.960 . S
H171 C158 0.962 . S
H172 C158 0.960 . S
H173 C159 0.961 . S
H174 C159 0.961 . S
H175 C159 0.961 . S
H176 C160 0.931 . S
H177 C165 0.930 . S
H178 C166 0.956 . S
H179 C166 0.972 . S
H180 C166 0.961 . S
H181 C167 0.958 1_554 S
H182 C167 0.961 . S
H183 C167 0.960 . S
C184 C185 1.391 . S
C184 C186 1.394 . S
C184 H200 0.931 . S
C185 C184 1.391 . S
C185 C189 1.376 . S
C186 C184 1.394 . S
C186 C187 1.368 1_556 S
C186 C190 1.531 1_556 S
C187 C186 1.368 1_554 S
C187 C188 1.402 1_554 S
C187 C195 1.510 . S
C188 C187 1.402 1_556 S
C188 C189 1.392 . S
C188 C191 1.511 . S
C189 C185 1.376 . S
C189 C188 1.392 . S
C189 H201 0.929 . S
C190 C186 1.531 1_554 S
C190 H202 0.960 . S
C190 H203 0.962 1_554 S
C190 H204 0.960 . S
C191 C188 1.511 . S
C191 H205 0.961 . S
C191 H206 0.961 . S
C191 H207 0.961 1_556 S
C192 C193 1.370 . S
C192 C194 1.363 1_554 S
C192 H208 0.931 1_554 S
C193 C192 1.370 . S
C193 C197 1.408 . S
C194 C192 1.363 1_556 S
C194 C195 1.370 1_556 S
C194 C198 1.524 . S
C195 C187 1.510 . S
C195 C194 1.370 1_554 S
C195 C196 1.403 . S
C196 C195 1.403 . S
C196 C197 1.404 . S
C196 C199 1.539 . S
C197 C193 1.408 . S
C197 C196 1.404 . S
C197 H209 0.930 . S
C198 C194 1.524 . S
C198 H210 0.956 . S
C198 H211 0.961 . S
C198 H212 0.961 . S
C199 C196 1.539 . S
C199 H213 0.958 . S
C199 H214 0.961 . S
C199 H215 0.960 . S
H200 C184 0.931 . S
H201 C189 0.929 . S
H202 C190 0.960 . S
H203 C190 0.962 1_556 S
H204 C190 0.960 . S
H205 C191 0.961 . S
H206 C191 0.961 . S
H207 C191 0.961 1_554 S
H208 C192 0.931 1_556 S
H209 C197 0.930 . S
H210 C198 0.956 . S
H211 C198 0.961 . S
H212 C198 0.961 . S
H213 C199 0.958 . S
H214 C199 0.961 . S
H215 C199 0.960 . S
C216 C217 1.391 . S
C216 C218 1.394 . S
C216 H232 0.931 . S
C217 C216 1.391 . S
C217 C221 1.376 . S
C218 C216 1.394 . S
C218 C219 1.369 . S
C218 C222 1.531 . S
C219 C218 1.369 . S
C219 C220 1.410 . S
C219 C227 1.503 . S
C220 C219 1.410 . S
C220 C221 1.392 . S
C220 C223 1.511 . S
C221 C217 1.376 . S
C221 C220 1.392 . S
C221 H233 0.929 . S
C222 C218 1.531 . S
C222 H234 0.960 . S
C222 H235 0.962 . S
C222 H236 0.960 . S
C223 C220 1.511 . S
C223 H237 0.961 . S
C223 H238 0.961 . S
C223 H239 0.961 . S
C224 C225 1.370 . S
C224 C226 1.363 . S
C224 H240 0.931 . S
C225 C224 1.370 . S
C225 C229 1.408 . S
C226 C224 1.363 . S
C226 C227 1.370 . S
C226 C230 1.524 . S
C227 C219 1.503 . S
C227 C226 1.370 . S
C227 C228 1.403 . S
C228 C227 1.403 . S
C228 C229 1.404 . S
C228 C231 1.539 . S
C229 C225 1.408 . S
C229 C228 1.404 . S
C229 H241 0.930 . S
C230 C226 1.524 . S
C230 H242 0.956 . S
C230 H243 0.961 . S
C230 H244 0.961 . S
C231 C228 1.539 . S
C231 H245 0.958 . S
C231 H246 0.961 . S
C231 H247 0.960 . S
H232 C216 0.931 . S
H233 C221 0.929 . S
H234 C222 0.960 . S
H235 C222 0.962 . S
H236 C222 0.960 . S
H237 C223 0.961 . S
H238 C223 0.961 . S
H239 C223 0.961 . S
H240 C224 0.931 . S
H241 C229 0.930 . S
H242 C230 0.956 . S
H243 C230 0.961 . S
H244 C230 0.961 . S
H245 C231 0.958 . S
H246 C231 0.961 . S
H247 C231 0.960 . S
C248 C249 1.391 . S
C248 C250 1.394 . S
C248 H264 0.931 . S
C249 C248 1.391 . S
C249 C253 1.376 . S
C250 C248 1.394 . S
C250 C251 1.369 . S
C250 C254 1.531 . S
C251 C250 1.369 . S
C251 C252 1.410 . S
C251 C259 1.503 . S
C252 C251 1.410 . S
C252 C253 1.392 . S
C252 C255 1.511 . S
C253 C249 1.376 . S
C253 C252 1.392 . S
C253 H265 0.929 . S
C254 C250 1.531 . S
C254 H266 0.960 . S
C254 H267 0.962 . S
C254 H268 0.960 . S
C255 C252 1.511 . S
C255 H269 0.961 . S
C255 H270 0.961 . S
C255 H271 0.961 . S
C256 C257 1.370 . S
C256 C258 1.363 . S
C256 H272 0.931 . S
C257 C256 1.370 . S
C257 C261 1.408 . S
C258 C256 1.363 . S
C258 C259 1.370 . S
C258 C262 1.524 . S
C259 C251 1.503 . S
C259 C258 1.370 . S
C259 C260 1.403 . S
C260 C259 1.403 . S
C260 C261 1.404 . S
C260 C263 1.539 . S
C261 C257 1.408 . S
C261 C260 1.404 . S
C261 H273 0.930 . S
C262 C258 1.524 . S
C262 H274 0.956 . S
C262 H275 0.961 . S
C262 H276 0.961 . S
C263 C260 1.539 . S
C263 H277 0.958 . S
C263 H278 0.961 . S
C263 H279 0.960 . S
H264 C248 0.931 . S
H265 C253 0.929 . S
H266 C254 0.960 . S
H267 C254 0.962 . S
H268 C254 0.960 . S
H269 C255 0.961 . S
H270 C255 0.961 . S
H271 C255 0.961 . S
H272 C256 0.931 . S
H273 C261 0.930 . S
H274 C262 0.956 . S
H275 C262 0.961 . S
H276 C262 0.961 . S
H277 C263 0.958 . S
H278 C263 0.961 . S
H279 C263 0.960 . S
C280 C281 1.391 . S
C280 C282 1.394 . S
C280 H296 0.931 . S
C281 C280 1.391 . S
C281 C285 1.376 . S
C282 C280 1.394 . S
C282 C283 1.369 . S
C282 C286 1.531 . S
C283 C282 1.369 . S
C283 C284 1.410 . S
C283 C291 1.503 . S
C284 C283 1.410 . S
C284 C285 1.392 . S
C284 C287 1.511 . S
C285 C281 1.376 . S
C285 C284 1.392 . S
C285 H297 0.929 . S
C286 C282 1.531 . S
C286 H298 0.960 . S
C286 H299 0.962 1_554 S
C286 H300 0.960 . S
C287 C284 1.511 . S
C287 H301 0.961 1_554 S
C287 H302 0.961 1_554 S
C287 H303 0.961 . S
C288 C289 1.370 1_556 S
C288 C290 1.363 . S
C288 H304 0.931 . S
C289 C288 1.370 1_554 S
C289 C293 1.408 . S
C290 C288 1.363 . S
C290 C291 1.370 1_556 S
C290 C294 1.524 . S
C291 C283 1.503 . S
C291 C290 1.370 1_554 S
C291 C292 1.403 . S
C292 C291 1.403 . S
C292 C293 1.404 . S
C292 C295 1.539 . S
C293 C289 1.408 . S
C293 C292 1.404 . S
C293 H305 0.930 . S
C294 C290 1.524 . S
C294 H306 0.956 . S
C294 H307 0.961 . S
C294 H308 0.961 . S
C295 C292 1.539 . S
C295 H309 0.958 . S
C295 H310 0.961 . S
C295 H311 0.960 . S
H296 C280 0.931 . S
H297 C285 0.929 . S
H298 C286 0.960 . S
H299 C286 0.962 1_556 S
H300 C286 0.960 . S
H301 C287 0.961 1_556 S
H302 C287 0.961 1_556 S
H303 C287 0.961 . S
H304 C288 0.931 . S
H305 C293 0.930 . S
H306 C294 0.956 . S
H307 C294 0.961 . S
H308 C294 0.961 . S
H309 C295 0.958 . S
H310 C295 0.961 . S
H311 C295 0.960 . S
C312 C313 1.391 . S
C312 C314 1.394 . S
C312 H328 0.931 . S
C313 C312 1.391 . S
C313 C317 1.376 . S
C314 C312 1.394 . S
C314 C315 1.369 . S
C314 C318 1.531 . S
C315 C314 1.369 . S
C315 C316 1.410 . S
C315 C323 1.503 . S
C316 C315 1.410 . S
C316 C317 1.392 . S
C316 C319 1.511 . S
C317 C313 1.376 . S
C317 C316 1.392 . S
C317 H329 0.929 . S
C318 C314 1.531 . S
C318 H330 0.960 . S
C318 H331 0.962 . S
C318 H332 0.960 . S
C319 C316 1.511 . S
C319 H333 0.961 . S
C319 H334 0.961 . S
C319 H335 0.961 . S
C320 C321 1.370 . S
C320 C322 1.363 . S
C320 H336 0.931 . S
C321 C320 1.370 . S
C321 C325 1.408 . S
C322 C320 1.363 . S
C322 C323 1.370 . S
C322 C326 1.524 . S
C323 C315 1.503 . S
C323 C322 1.370 . S
C323 C324 1.403 . S
C324 C323 1.403 . S
C324 C325 1.404 . S
C324 C327 1.539 . S
C325 C321 1.408 . S
C325 C324 1.404 . S
C325 H337 0.930 . S
C326 C322 1.524 . S
C326 H338 0.956 . S
C326 H339 0.961 . S
C326 H340 0.961 . S
C327 C324 1.539 . S
C327 H341 0.958 . S
C327 H342 0.961 . S
C327 H343 0.960 . S
H328 C312 0.931 . S
H329 C317 0.929 . S
H330 C318 0.960 . S
H331 C318 0.962 . S
H332 C318 0.960 . S
H333 C319 0.961 . S
H334 C319 0.961 . S
H335 C319 0.961 . S
H336 C320 0.931 . S
H337 C325 0.930 . S
H338 C326 0.956 . S
H339 C326 0.961 . S
H340 C326 0.961 . S
H341 C327 0.958 . S
H342 C327 0.961 . S
H343 C327 0.960 . S
C344 C345 1.391 . S
C344 C346 1.394 . S
C344 H360 0.931 . S
C345 C344 1.391 . S
C345 C349 1.376 1_556 S
C346 C344 1.394 . S
C346 C347 1.369 . S
C346 C350 1.531 1_455 S
C347 C346 1.369 . S
C347 C348 1.410 1_545 S
C347 C355 1.503 1_445 S
C348 C347 1.410 1_565 S
C348 C349 1.391 1_566 S
C348 C351 1.512 1_556 S
C349 C345 1.376 1_554 S
C349 C348 1.391 1_544 S
C349 H361 0.929 1_545 S
C350 C346 1.531 1_655 S
C350 H362 0.960 . S
C350 H363 0.938 1_556 S
C350 H364 0.960 . S
C351 C348 1.512 1_554 S
C351 H365 0.961 . S
C351 H366 0.961 . S
C351 H367 0.961 1_554 S
C352 C353 1.370 . S
C352 C354 1.363 . S
C352 H368 0.931 . S
C353 C352 1.370 . S
C353 C357 1.408 1_554 S
C354 C352 1.363 . S
C354 C355 1.370 1_554 S
C354 C358 1.524 . S
C355 C347 1.503 1_665 S
C355 C354 1.370 1_556 S
C355 C356 1.403 . S
C356 C355 1.403 . S
C356 C357 1.404 . S
C356 C359 1.539 . S
C357 C353 1.408 1_556 S
C357 C356 1.404 . S
C357 H369 0.930 . S
C358 C354 1.524 . S
C358 H370 0.956 1_565 S
C358 H371 0.961 1_655 S
C358 H372 0.961 . S
C359 C356 1.539 . S
C359 H373 0.958 1_565 S
C359 H374 0.961 . S
C359 H375 0.960 1_655 S
H360 C344 0.931 . S
H361 C349 0.929 1_565 S
H362 C350 0.960 . S
H363 C350 0.938 1_554 S
H364 C350 0.960 . S
H365 C351 0.961 . S
H366 C351 0.961 . S
H367 C351 0.961 1_556 S
H368 C352 0.931 . S
H369 C357 0.930 . S
H370 C358 0.956 1_545 S
H371 C358 0.961 1_455 S
H372 C358 0.961 . S
H373 C359 0.958 1_545 S
H374 C359 0.961 . S
H375 C359 0.960 1_455 S
C376 C377 1.391 . S
C376 C378 1.394 . S
C376 H392 0.931 . S
C377 C376 1.391 . S
C377 C381 1.376 . S
C378 C376 1.394 . S
C378 C379 1.369 . S
C378 C382 1.531 . S
C379 C378 1.369 . S
C379 C380 1.410 . S
C379 C387 1.503 1_645 S
C380 C379 1.410 . S
C380 C381 1.392 . S
C380 C383 1.511 1_545 S
C381 C377 1.376 . S
C381 C380 1.392 . S
C381 H393 0.929 . S
C382 C378 1.531 . S
C382 H394 0.960 1_655 S
C382 H395 0.962 1_655 S
C382 H396 0.960 . S
C383 C380 1.511 1_565 S
C383 H397 0.961 . S
C383 H398 0.961 . S
C383 H399 0.961 . S
C384 C385 1.370 . S
C384 C386 1.363 1_565 S
C384 H400 0.931 1_565 S
C385 C384 1.370 . S
C385 C389 1.408 . S
C386 C384 1.363 1_545 S
C386 C387 1.370 1_545 S
C386 C390 1.524 . S
C387 C379 1.503 1_465 S
C387 C386 1.370 1_565 S
C387 C388 1.403 . S
C388 C387 1.403 . S
C388 C389 1.404 . S
C388 C391 1.539 1_455 S
C389 C385 1.408 . S
C389 C388 1.404 . S
C389 H401 0.930 . S
C390 C386 1.524 . S
C390 H402 0.956 . S
C390 H403 0.961 . S
C390 H404 0.961 . S
C391 C388 1.539 1_655 S
C391 H405 0.958 . S
C391 H406 0.961 . S
C391 H407 0.960 . S
H392 C376 0.931 . S
H393 C381 0.929 . S
H394 C382 0.960 1_455 S
H395 C382 0.962 1_455 S
H396 C382 0.960 . S
H397 C383 0.961 . S
H398 C383 0.961 . S
H399 C383 0.961 . S
H400 C384 0.931 1_545 S
H401 C389 0.930 . S
H402 C390 0.956 . S
H403 C390 0.961 . S
H404 C390 0.961 . S
H405 C391 0.958 . S
H406 C391 0.961 . S
H407 C391 0.960 . S
C408 C409 1.391 . S
C408 C410 1.394 . S
C408 H424 0.931 . S
C409 C408 1.391 . S
C409 C413 1.376 . S
C410 C408 1.394 . S
C410 C411 1.369 . S
C410 C414 1.531 . S
C411 C410 1.369 . S
C411 C412 1.410 . S
C411 C419 1.503 . S
C412 C411 1.410 . S
C412 C413 1.392 . S
C412 C415 1.511 . S
C413 C409 1.376 . S
C413 C412 1.392 . S
C413 H425 0.929 . S
C414 C410 1.531 . S
C414 H426 0.960 . S
C414 H427 0.962 . S
C414 H428 0.960 . S
C415 C412 1.511 . S
C415 H429 0.961 . S
C415 H430 0.961 . S
C415 H431 0.961 . S
C416 C417 1.370 . S
C416 C418 1.363 . S
C416 H432 0.931 . S
C417 C416 1.370 . S
C417 C421 1.408 . S
C418 C416 1.363 . S
C418 C419 1.370 . S
C418 C422 1.524 . S
C419 C411 1.503 . S
C419 C418 1.370 . S
C419 C420 1.403 . S
C420 C419 1.403 . S
C420 C421 1.404 . S
C420 C423 1.539 . S
C421 C417 1.408 . S
C421 C420 1.404 . S
C421 H433 0.930 . S
C422 C418 1.524 . S
C422 H434 0.956 . S
C422 H435 0.961 . S
C422 H436 0.961 . S
C423 C420 1.539 . S
C423 H437 0.958 . S
C423 H438 0.961 . S
C423 H439 0.960 . S
H424 C408 0.931 . S
H425 C413 0.929 . S
H426 C414 0.960 . S
H427 C414 0.962 . S
H428 C414 0.960 . S
H429 C415 0.961 . S
H430 C415 0.961 . S
H431 C415 0.961 . S
H432 C416 0.931 . S
H433 C421 0.930 . S
H434 C422 0.956 . S
H435 C422 0.961 . S
H436 C422 0.961 . S
H437 C423 0.958 . S
H438 C423 0.961 . S
H439 C423 0.960 . S
C440 C441 1.391 . S
C440 C442 1.394 . S
C440 H456 0.931 . S
C441 C440 1.391 . S
C441 C445 1.376 . S
C442 C440 1.394 . S
C442 C443 1.369 . S
C442 C446 1.531 . S
C443 C442 1.369 . S
C443 C444 1.410 . S
C443 C451 1.503 . S
C444 C443 1.410 . S
C444 C445 1.392 . S
C444 C447 1.511 . S
C445 C441 1.376 . S
C445 C444 1.392 . S
C445 H457 0.929 . S
C446 C442 1.531 . S
C446 H458 0.960 . S
C446 H459 0.962 . S
C446 H460 0.960 . S
C447 C444 1.511 . S
C447 H461 0.961 . S
C447 H462 0.961 . S
C447 H463 0.961 . S
C448 C449 1.370 . S
C448 C450 1.363 . S
C448 H464 0.931 . S
C449 C448 1.370 . S
C449 C453 1.408 . S
C450 C448 1.363 . S
C450 C451 1.370 . S
C450 C454 1.524 . S
C451 C443 1.503 . S
C451 C450 1.370 . S
C451 C452 1.403 . S
C452 C451 1.403 . S
C452 C453 1.404 . S
C452 C455 1.539 . S
C453 C449 1.408 . S
C453 C452 1.404 . S
C453 H465 0.930 . S
C454 C450 1.524 . S
C454 H466 0.956 . S
C454 H467 0.961 . S
C454 H468 0.961 . S
C455 C452 1.539 . S
C455 H469 0.958 . S
C455 H470 0.961 . S
C455 H471 0.960 . S
H456 C440 0.931 . S
H457 C445 0.929 . S
H458 C446 0.960 . S
H459 C446 0.962 . S
H460 C446 0.960 . S
H461 C447 0.961 . S
H462 C447 0.961 . S
H463 C447 0.961 . S
H464 C448 0.931 . S
H465 C453 0.930 . S
H466 C454 0.956 . S
H467 C454 0.961 . S
H468 C454 0.961 . S
H469 C455 0.958 . S
H470 C455 0.961 . S
H471 C455 0.960 . S
C472 C473 1.391 . S
C472 C474 1.394 . S
C472 H488 0.931 . S
C473 C472 1.391 . S
C473 C477 1.376 . S
C474 C472 1.394 . S
C474 C475 1.369 . S
C474 C478 1.531 . S
C475 C474 1.369 . S
C475 C476 1.410 . S
C475 C483 1.503 . S
C476 C475 1.410 . S
C476 C477 1.392 . S
C476 C479 1.511 . S
C477 C473 1.376 . S
C477 C476 1.392 . S
C477 H489 0.929 . S
C478 C474 1.531 . S
C478 H490 0.960 . S
C478 H491 0.962 . S
C478 H492 0.960 . S
C479 C476 1.511 . S
C479 H493 0.961 . S
C479 H494 0.961 . S
C479 H495 0.961 . S
C480 C481 1.370 . S
C480 C482 1.363 . S
C480 H496 0.931 . S
C481 C480 1.370 . S
C481 C485 1.408 . S
C482 C480 1.363 . S
C482 C483 1.370 . S
C482 C486 1.524 . S
C483 C475 1.503 . S
C483 C482 1.370 . S
C483 C484 1.403 . S
C484 C483 1.403 . S
C484 C485 1.404 . S
C484 C487 1.539 . S
C485 C481 1.408 . S
C485 C484 1.404 . S
C485 H497 0.930 . S
C486 C482 1.524 . S
C486 H498 0.956 . S
C486 H499 0.961 . S
C486 H500 0.961 . S
C487 C484 1.539 . S
C487 H501 0.958 . S
C487 H502 0.961 . S
C487 H503 0.960 . S
H488 C472 0.931 . S
H489 C477 0.929 . S
H490 C478 0.960 . S
H491 C478 0.962 . S
H492 C478 0.960 . S
H493 C479 0.961 . S
H494 C479 0.961 . S
H495 C479 0.961 . S
H496 C480 0.931 . S
H497 C485 0.930 . S
H498 C486 0.956 . S
H499 C486 0.961 . S
H500 C486 0.961 . S
H501 C487 0.958 . S
H502 C487 0.961 . S
H503 C487 0.960 . S
C504 C505 1.391 . S
C504 C506 1.394 . S
C504 H520 0.931 . S
C505 C504 1.391 . S
C505 C509 1.376 . S
C506 C504 1.394 . S
C506 C507 1.369 . S
C506 C510 1.531 . S
C507 C506 1.369 . S
C507 C508 1.410 . S
C507 C515 1.503 . S
C508 C507 1.410 . S
C508 C509 1.392 . S
C508 C511 1.511 . S
C509 C505 1.376 . S
C509 C508 1.392 . S
C509 H521 0.929 . S
C510 C506 1.531 . S
C510 H522 0.960 . S
C510 H523 0.962 . S
C510 H524 0.960 . S
C511 C508 1.511 . S
C511 H525 0.961 . S
C511 H526 0.961 . S
C511 H527 0.961 . S
C512 C513 1.370 . S
C512 C514 1.363 . S
C512 H528 0.931 . S
C513 C512 1.370 . S
C513 C517 1.408 . S
C514 C512 1.363 . S
C514 C515 1.370 . S
C514 C518 1.524 . S
C515 C507 1.503 . S
C515 C514 1.370 . S
C515 C516 1.403 . S
C516 C515 1.403 . S
C516 C517 1.404 . S
C516 C519 1.539 . S
C517 C513 1.408 . S
C517 C516 1.404 . S
C517 H529 0.930 . S
C518 C514 1.524 . S
C518 H530 0.956 . S
C518 H531 0.961 . S
C518 H532 0.961 . S
C519 C516 1.539 . S
C519 H533 0.958 . S
C519 H534 0.961 . S
C519 H535 0.960 . S
H520 C504 0.931 . S
H521 C509 0.929 . S
H522 C510 0.960 . S
H523 C510 0.962 . S
H524 C510 0.960 . S
H525 C511 0.961 . S
H526 C511 0.961 . S
H527 C511 0.961 . S
H528 C512 0.931 . S
H529 C517 0.930 . S
H530 C518 0.956 . S
H531 C518 0.961 . S
H532 C518 0.961 . S
H533 C519 0.958 . S
H534 C519 0.961 . S
H535 C519 0.960 . S
C536 C537 1.391 . S
C536 C538 1.394 . S
C536 H552 0.931 . S
C537 C536 1.391 . S
C537 C541 1.376 1_455 S
C538 C536 1.394 . S
C538 C539 1.369 1_455 S
C538 C542 1.531 . S
C539 C538 1.369 1_655 S
C539 C540 1.410 . S
C539 C547 1.503 . S
C540 C539 1.410 . S
C540 C541 1.392 . S
C540 C543 1.511 . S
C541 C537 1.376 1_655 S
C541 C540 1.392 . S
C541 H553 0.929 . S
C542 C538 1.531 . S
C542 H554 0.960 . S
C542 H555 0.962 . S
C542 H556 0.960 . S
C543 C540 1.511 . S
C543 H557 0.961 . S
C543 H558 0.961 . S
C543 H559 0.961 . S
C544 C545 1.370 . S
C544 C546 1.363 . S
C544 H560 0.931 . S
C545 C544 1.370 . S
C545 C549 1.408 . S
C546 C544 1.363 . S
C546 C547 1.370 . S
C546 C550 1.524 . S
C547 C539 1.503 . S
C547 C546 1.370 . S
C547 C548 1.403 . S
C548 C547 1.403 . S
C548 C549 1.404 . S
C548 C551 1.539 . S
C549 C545 1.408 . S
C549 C548 1.404 . S
C549 H561 0.930 . S
C550 C546 1.524 . S
C550 H562 0.956 1_655 S
C550 H563 0.961 . S
C550 H564 0.961 . S
C551 C548 1.539 . S
C551 H565 0.958 . S
C551 H566 0.961 . S
C551 H567 0.960 . S
H552 C536 0.931 . S
H553 C541 0.929 . S
H554 C542 0.960 . S
H555 C542 0.962 . S
H556 C542 0.960 . S
H557 C543 0.961 . S
H558 C543 0.961 . S
H559 C543 0.961 . S
H560 C544 0.931 . S
H561 C549 0.930 . S
H562 C550 0.956 1_455 S
H563 C550 0.961 . S
H564 C550 0.961 . S
H565 C551 0.958 . S
H566 C551 0.961 . S
H567 C551 0.960 . S
C568 C569 1.391 . S
C568 C570 1.394 . S
C568 H584 0.931 . S
C569 C568 1.391 . S
C569 C573 1.376 . S
C570 C568 1.394 . S
C570 C571 1.369 . S
C570 C574 1.531 1_655 S
C571 C570 1.369 . S
C571 C572 1.410 . S
C571 C579 1.503 . S
C572 C571 1.410 . S
C572 C573 1.392 . S
C572 C575 1.511 . S
C573 C569 1.376 . S
C573 C572 1.392 . S
C573 H585 0.929 . S
C574 C570 1.531 1_455 S
C574 H586 0.960 . S
C574 H587 0.962 . S
C574 H588 0.960 . S
C575 C572 1.511 . S
C575 H589 0.961 . S
C575 H590 0.961 . S
C575 H591 0.961 . S
C576 C577 1.370 . S
C576 C578 1.363 1_455 S
C576 H592 0.931 . S
C577 C576 1.370 . S
C577 C581 1.408 . S
C578 C576 1.363 1_655 S
C578 C579 1.370 . S
C578 C582 1.524 . S
C579 C571 1.503 . S
C579 C578 1.370 . S
C579 C580 1.403 . S
C580 C579 1.403 . S
C580 C581 1.404 1_655 S
C580 C583 1.539 . S
C581 C577 1.408 . S
C581 C580 1.404 1_455 S
C581 H593 0.930 . S
C582 C578 1.524 . S
C582 H594 0.956 . S
C582 H595 0.961 . S
C582 H596 0.961 . S
C583 C580 1.539 . S
C583 H597 0.958 1_655 S
C583 H598 0.961 . S
C583 H599 0.960 . S
H584 C568 0.931 . S
H585 C573 0.929 . S
H586 C574 0.960 . S
H587 C574 0.962 . S
H588 C574 0.960 . S
H589 C575 0.961 . S
H590 C575 0.961 . S
H591 C575 0.961 . S
H592 C576 0.931 . S
H593 C581 0.930 . S
H594 C582 0.956 . S
H595 C582 0.961 . S
H596 C582 0.961 . S
H597 C583 0.958 1_455 S
H598 C583 0.961 . S
H599 C583 0.960 . S
C600 C601 1.391 . S
C600 C602 1.394 . S
C600 H616 0.931 . S
C601 C600 1.391 . S
C601 C605 1.376 . S
C602 C600 1.394 . S
C602 C603 1.369 . S
C602 C606 1.531 . S
C603 C602 1.369 . S
C603 C604 1.410 . S
C603 C611 1.503 . S
C604 C603 1.410 . S
C604 C605 1.392 . S
C604 C607 1.511 . S
C605 C601 1.376 . S
C605 C604 1.392 . S
C605 H617 0.929 . S
C606 C602 1.531 . S
C606 H618 0.960 1_455 S
C606 H619 0.962 . S
C606 H620 0.960 . S
C607 C604 1.511 . S
C607 H621 0.961 . S
C607 H622 0.961 . S
C607 H623 0.961 . S
C608 C609 1.370 1_455 S
C608 C610 1.363 . S
C608 H624 0.931 . S
C609 C608 1.370 1_655 S
C609 C613 1.408 . S
C610 C608 1.363 . S
C610 C611 1.370 . S
C610 C614 1.524 . S
C611 C603 1.503 . S
C611 C610 1.370 . S
C611 C612 1.403 1_455 S
C612 C611 1.403 1_655 S
C612 C613 1.404 . S
C612 C615 1.539 . S
C613 C609 1.408 . S
C613 C612 1.404 . S
C613 H625 0.930 . S
C614 C610 1.524 . S
C614 H626 0.956 . S
C614 H627 0.961 . S
C614 H628 0.961 . S
C615 C612 1.539 . S
C615 H629 0.958 . S
C615 H630 0.961 . S
C615 H631 0.960 . S
H616 C600 0.931 . S
H617 C605 0.929 . S
H618 C606 0.960 1_655 S
H619 C606 0.962 . S
H620 C606 0.960 . S
H621 C607 0.961 . S
H622 C607 0.961 . S
H623 C607 0.961 . S
H624 C608 0.931 . S
H625 C613 0.930 . S
H626 C614 0.956 . S
H627 C614 0.961 . S
H628 C614 0.961 . S
H629 C615 0.958 . S
H630 C615 0.961 . S
H631 C615 0.960 . S
C632 C633 1.391 . S
C632 C634 1.394 . S
C632 H648 0.931 . S
C633 C632 1.391 . S
C633 C637 1.376 . S
C634 C632 1.394 . S
C634 C635 1.369 . S
C634 C638 1.531 1_455 S
C635 C634 1.369 . S
C635 C636 1.410 . S
C635 C643 1.503 . S
C636 C635 1.410 . S
C636 C637 1.392 . S
C636 C639 1.511 . S
C637 C633 1.376 . S
C637 C636 1.392 . S
C637 H649 0.929 . S
C638 C634 1.531 1_655 S
C638 H650 0.960 . S
C638 H651 0.962 1_655 S
C638 H652 0.960 . S
C639 C636 1.511 . S
C639 H653 0.961 . S
C639 H654 0.961 . S
C639 H655 0.961 . S
C640 C641 1.370 1_455 S
C640 C642 1.363 . S
C640 H656 0.931 . S
C641 C640 1.370 1_655 S
C641 C645 1.408 . S
C642 C640 1.363 . S
C642 C643 1.370 . S
C642 C646 1.524 . S
C643 C635 1.503 . S
C643 C642 1.370 . S
C643 C644 1.403 1_455 S
C644 C643 1.403 1_655 S
C644 C645 1.404 . S
C644 C647 1.539 . S
C645 C641 1.408 . S
C645 C644 1.404 . S
C645 H657 0.930 . S
C646 C642 1.524 . S
C646 H658 0.956 . S
C646 H659 0.961 . S
C646 H660 0.961 . S
C647 C644 1.539 . S
C647 H661 0.958 . S
C647 H662 0.961 . S
C647 H663 0.960 . S
H648 C632 0.931 . S
H649 C637 0.929 . S
H650 C638 0.960 . S
H651 C638 0.962 1_455 S
H652 C638 0.960 . S
H653 C639 0.961 . S
H654 C639 0.961 . S
H655 C639 0.961 . S
H656 C640 0.931 . S
H657 C645 0.930 . S
H658 C646 0.956 . S
H659 C646 0.961 . S
H660 C646 0.961 . S
H661 C647 0.958 . S
H662 C647 0.961 . S
H663 C647 0.960 . S
C153 C26 2.039 . S
C161 C2 2.034 . S
C185 C64 2.023 . S
C193 C40 2.041 . S
C217 C102 2.022 . S
C225 C78 2.042 . S
C249 C140 2.040 . S
C257 C116 2.034 . S
C281 C57 1.639 . S
C289 C20 1.650 . S
C313 C133 1.648 . S
C321 C96 1.645 . S
C345 C19 1.648 1_556 S
C353 C58 1.644 . S
C377 C134 1.649 . S
C385 C95 1.644 . S
C409 C118 1.209 . S
C417 C17 1.235 . S
C441 C42 1.209 . S
C449 C93 1.234 . S
C473 C99 1.152 . S
C481 C66 1.220 . S
C505 C23 1.176 . S
C513 C142 1.205 . S
C537 C80 1.151 . S
C545 C55 1.200 . S
C569 C131 1.247 . S
C577 C4 1.180 . S
C601 C28 1.233 . S
C609 C137 1.202 . S
C633 C104 1.221 . S
C641 C61 1.199 . S
