# Generated by pormake.
# Topology vby, (6)-cn, num edge types: 1
# Building blocks:
#     Node 0, Type 0, BuildingBlock: PAMTOO_clean_sbu_0, # of connection points: 6
#     Node 1, Type 0, BuildingBlock: PAMTOO_clean_sbu_0, # of connection points: 6
#     Node 2, Type 0, BuildingBlock: PAMTOO_clean_sbu_0, # of connection points: 6
#     Node 3, Type 0, BuildingBlock: PAMTOO_clean_sbu_0, # of connection points: 6
#     Node 4, Type 0, BuildingBlock: PAMTOO_clean_sbu_0, # of connection points: 6
#     Node 5, Type 0, BuildingBlock: PAMTOO_clean_sbu_0, # of connection points: 6
#     Node 6, Type 0, BuildingBlock: PAMTOO_clean_sbu_0, # of connection points: 6
#     Node 7, Type 0, BuildingBlock: PAMTOO_clean_sbu_0, # of connection points: 6
#     Edge 8, Type (0, 0), BuildingBlock: XIVTED_clean_linker_0, # of connection points: 2
#     Edge 9, Type (0, 0), BuildingBlock: XIVTED_clean_linker_0, # of connection points: 2
#     Edge 10, Type (0, 0), BuildingBlock: XIVTED_clean_linker_0, # of connection points: 2
#     Edge 11, Type (0, 0), BuildingBlock: XIVTED_clean_linker_0, # of connection points: 2
#     Edge 12, Type (0, 0), BuildingBlock: XIVTED_clean_linker_0, # of connection points: 2
#     Edge 13, Type (0, 0), BuildingBlock: XIVTED_clean_linker_0, # of connection points: 2
#     Edge 14, Type (0, 0), BuildingBlock: XIVTED_clean_linker_0, # of connection points: 2
#     Edge 15, Type (0, 0), BuildingBlock: XIVTED_clean_linker_0, # of connection points: 2
#     Edge 16, Type (0, 0), BuildingBlock: XIVTED_clean_linker_0, # of connection points: 2
#     Edge 17, Type (0, 0), BuildingBlock: XIVTED_clean_linker_0, # of connection points: 2
#     Edge 18, Type (0, 0), BuildingBlock: XIVTED_clean_linker_0, # of connection points: 2
#     Edge 19, Type (0, 0), BuildingBlock: XIVTED_clean_linker_0, # of connection points: 2
#     Edge 20, Type (0, 0), BuildingBlock: XIVTED_clean_linker_0, # of connection points: 2
#     Edge 21, Type (0, 0), BuildingBlock: XIVTED_clean_linker_0, # of connection points: 2
#     Edge 22, Type (0, 0), BuildingBlock: XIVTED_clean_linker_0, # of connection points: 2
#     Edge 23, Type (0, 0), BuildingBlock: XIVTED_clean_linker_0, # of connection points: 2
#     Edge 24, Type (0, 0), BuildingBlock: XIVTED_clean_linker_0, # of connection points: 2
#     Edge 25, Type (0, 0), BuildingBlock: XIVTED_clean_linker_0, # of connection points: 2
#     Edge 26, Type (0, 0), BuildingBlock: XIVTED_clean_linker_0, # of connection points: 2
#     Edge 27, Type (0, 0), BuildingBlock: XIVTED_clean_linker_0, # of connection points: 2
#     Edge 28, Type (0, 0), BuildingBlock: XIVTED_clean_linker_0, # of connection points: 2
#     Edge 29, Type (0, 0), BuildingBlock: XIVTED_clean_linker_0, # of connection points: 2
#     Edge 30, Type (0, 0), BuildingBlock: XIVTED_clean_linker_0, # of connection points: 2
#     Edge 31, Type (0, 0), BuildingBlock: XIVTED_clean_linker_0, # of connection points: 2
# Relax obj value: 0.142
# Max RMSD: 0.192
# Mean RMSD: 0.183
data_MOF--net-vby--node1-PAMTOO_clean_sbu_0--edge1-XIVTED_clean_linker_0
_symmetry_space_group_name_H-M    P1
_symmetry_Int_Tables_number       1
_symmetry_cell_setting            triclinic
loop_
_symmetry_equiv_pos_as_xyz
'x, y, z'
_cell_length_a     15.54505
_cell_length_b     105.67019
_cell_length_c     30.088252
_cell_angle_alpha  85.628257
_cell_angle_beta   94.429532
_cell_angle_gamma 89.979383
loop_
_atom_site_label
_atom_site_type_symbol
_atom_site_fract_x
_atom_site_fract_y
_atom_site_fract_z
_atom_type_partial_charge
Dy0 Dy 0.11393 0.39959 -0.00435 0.0
Dy1 Dy 0.11071 0.36791 0.00879 0.0
C2 C 0.10289 0.385 0.09082 0.0
O3 O 0.24836 0.39307 0.01673 0.0
O4 O 0.24595 0.37279 -0.00589 0.0
O5 O 0.1637 0.41732 0.01717 0.0
O6 O 0.08301 0.41704 0.95479 0.0
O7 O 0.05598 0.37444 0.94039 0.0
O8 O 0.14164 0.39169 0.93179 0.0
O9 O 0.97612 0.37383 0.01762 0.0
O10 O 0.97308 0.39476 0.98847 0.0
O11 O 0.10734 0.35021 0.97793 0.0
O12 O 0.10306 0.35013 0.04988 0.0
C13 C 0.28817 0.38296 0.00559 0.0
O14 O 0.07318 0.39461 0.06382 0.0
O15 O 0.14156 0.37526 0.07592 0.0
C16 C 0.09388 0.43679 0.98894 0.0
C17 C 0.06342 0.46272 -0.00085 0.0
C18 C 0.07054 0.45388 0.03669 0.0
C19 C 0.08608 0.44102 0.03167 0.0
C20 C 0.08193 0.4455 0.95141 0.0
C21 C 0.06682 0.45832 0.95641 0.0
C22 C 0.12663 0.42399 0.98261 0.0
C23 C 0.09292 0.38295 0.91449 0.0
C24 C 0.93406 0.38432 0.00297 0.0
C25 C 0.15138 0.33109 0.02063 0.0
C26 C 0.21397 0.30599 0.01962 0.0
C27 C 0.24558 0.31586 0.99134 0.0
C28 C 0.21459 0.32829 0.9918 0.0
C29 C 0.12332 0.32141 0.05052 0.0
C30 C 0.15433 0.309 0.05014 0.0
C31 C 0.1042 0.34331 0.01557 0.0
H32 H 0.06844 0.457 0.07006 0.0
H33 H 0.09547 0.43451 0.06125 0.0
H34 H 0.08814 0.44248 0.91817 0.0
H35 H 0.06008 0.46485 0.92679 0.0
H36 H 0.29265 0.31391 0.96798 0.0
H37 H 0.23747 0.33558 0.96835 0.0
H38 H 0.07393 0.32331 0.0727 0.0
H39 H 0.12794 0.30164 0.07211 0.0
Dy40 Dy 0.93793 0.65194 0.98627 0.0
Dy41 Dy 0.93539 0.62028 0.98732 0.0
C42 C 0.95383 0.63447 0.07642 0.0
O43 O 0.0757 0.64596 -7e-05 0.0
O44 O 0.0741 0.62512 0.98115 0.0
O45 O 0.97434 0.66913 0.01736 0.0
O46 O 0.90999 0.67012 0.95042 0.0
O47 O 0.89779 0.62872 0.91833 0.0
O48 O 0.98164 0.64625 0.92213 0.0
O49 O 0.80295 0.62618 0.0004 0.0
O50 O 0.79932 0.64698 0.97161 0.0
O51 O 0.95276 0.60337 0.95296 0.0
O52 O 0.90034 0.60203 0.01801 0.0
C53 C 0.11543 0.63553 0.99118 0.0
O54 O 0.91178 0.64413 0.05476 0.0
O55 O 0.98499 0.62528 0.05522 0.0
C56 C 0.89716 0.68834 0.99219 0.0
C57 C 0.83882 0.71322 0.00279 0.0
C58 C 0.88621 0.7062 0.03808 0.0
C59 C 0.9153 0.69392 0.03279 0.0
C60 C 0.84654 0.69514 0.95762 0.0
C61 C 0.81745 0.70741 0.96291 0.0
C62 C 0.94174 0.67649 0.98337 0.0
C63 C 0.94381 0.63759 0.89887 0.0
C64 C 0.76031 0.63656 0.98569 0.0
C65 C 0.96559 0.58321 -0.00491 0.0
C66 C 1.0136 0.55725 0.0077 0.0
C67 C 0.0235 0.56425 0.96676 0.0
C68 C 0.99961 0.57704 0.96052 0.0
C69 C 0.95893 0.57638 0.03667 0.0
C70 C 0.98295 0.56355 0.04294 0.0
C71 C 0.92452 0.59586 0.98506 0.0
H72 H 0.90271 0.71032 0.06947 0.0
H73 H 0.95493 0.68901 0.05993 0.0
H74 H 0.83261 0.69122 0.92564 0.0
H75 H 0.78197 0.71258 0.93485 0.0
H76 H 0.04555 0.5597 0.93862 0.0
H77 H 1.00396 0.58194 0.92781 0.0
H78 H 0.93199 0.58079 0.06386 0.0
H79 H 0.97554 0.5585 0.07509 0.0
Dy80 Dy 0.10871 0.65001 0.49367 0.0
Dy81 Dy 0.11366 0.61832 0.49683 0.0
C82 C 0.09218 0.6353 0.40689 0.0
O83 O 0.97312 0.64414 0.50216 0.0
O84 O 0.97256 0.62301 0.48657 0.0
O85 O 0.1283 0.66801 0.45699 0.0
O86 O 0.0789 0.66746 0.52268 0.0
O87 O 0.07188 0.62352 0.56211 0.0
O88 O 0.14245 0.64254 0.56429 0.0
O89 O 0.24806 0.62441 0.51511 0.0
O90 O 0.24482 0.6449 0.48337 0.0
O91 O 0.15527 0.60016 0.52961 0.0
O92 O 0.09177 0.60129 0.46246 0.0
C93 C 0.9324 0.63355 0.49409 0.0
O94 O 0.05526 0.64391 0.42809 0.0
O95 O 0.1412 0.6265 0.42898 0.0
C96 C 0.14888 0.68663 0.49714 0.0
C97 C 0.20665 0.71179 0.50625 0.0
C98 C 0.21877 0.70573 0.46717 0.0
C99 C 0.18997 0.69332 0.46262 0.0
C100 C 0.14013 0.69248 0.53699 0.0
C101 C 0.16895 0.7049 0.54155 0.0
C102 C 0.10345 0.67461 0.4887 0.0
C103 C 0.10268 0.63298 0.58425 0.0
C104 C 0.2874 0.63463 0.49974 0.0
C105 C 0.08688 0.58124 0.50502 0.0
C106 C 0.0418 0.55529 0.51592 0.0
C107 C 0.0836 0.56136 0.55155 0.0
C108 C 0.10618 0.57418 0.54611 0.0
C109 C 0.04171 0.57533 0.4701 0.0
C110 C 1.0193 0.56253 0.4755 0.0
C111 C 0.12583 0.59388 0.49595 0.0
H112 H 0.24655 0.71077 0.43908 0.0
H113 H 0.19638 0.6892 0.43116 0.0
H114 H 0.10789 0.68767 0.56406 0.0
H115 H 0.15977 0.70921 0.57237 0.0
H116 H 0.1009 0.55612 0.58334 0.0
H117 H 0.14189 0.57839 0.57353 0.0
H118 H 0.02728 0.58041 0.43773 0.0
H119 H 0.98833 0.55817 0.44707 0.0
Dy120 Dy 0.94101 0.36671 0.50279 0.0
Dy121 Dy 0.93237 0.39833 0.48742 0.0
C122 C 0.94602 0.38133 0.40795 0.0
O123 O 0.07747 0.37289 0.51526 0.0
O124 O 0.07236 0.39371 0.48495 0.0
O125 O 0.93097 0.34874 0.47393 0.0
O126 O 0.96687 0.3493 0.54498 0.0
O127 O 0.98198 0.39348 0.55802 0.0
O128 O 0.91305 0.37439 0.56716 0.0
O129 O 0.80088 0.39187 0.50278 0.0
O130 O 0.80178 0.3712 0.48391 0.0
O131 O 0.88349 0.41604 0.50636 0.0
O132 O 0.9562 0.41578 0.44749 0.0
C133 C 0.11554 0.38339 0.5009 0.0
O134 O 0.98543 0.37281 0.43616 0.0
O135 O 0.89831 0.39015 0.42229 0.0
C136 C 0.90253 0.33013 0.52033 0.0
C137 C 0.84248 0.30488 0.52827 0.0
C138 C 0.81387 0.31318 0.49134 0.0
C139 C 0.84346 0.32567 0.4874 0.0
C140 C 0.92712 0.32207 0.55852 0.0
C141 C 0.89698 0.30958 0.56261 0.0
C142 C 0.94945 0.34215 0.51193 0.0
C143 C 0.95279 0.38413 0.58389 0.0
C144 C 0.76037 0.38145 0.49276 0.0
C145 C 0.94787 0.43552 0.4811 0.0
C146 C 0.97866 0.46135 0.49429 0.0
C147 C 0.98447 0.45217 0.53085 0.0
C148 C 0.96876 0.43935 0.52435 0.0
C149 C 0.9468 0.44457 0.44452 0.0
C150 C 0.96202 0.45734 0.45099 0.0
C151 C 0.91531 0.42271 0.47326 0.0
H152 H 0.77087 0.30987 0.46466 0.0
H153 H 0.82321 0.3316 0.45747 0.0
H154 H 0.97333 0.3252 0.58415 0.0
H155 H 0.9205 0.3034 0.59134 0.0
H156 H 0.99701 0.45498 0.56461 0.0
H157 H 0.96963 0.43255 0.55319 0.0
H158 H 0.93047 0.44185 0.41091 0.0
H159 H 0.95862 0.46415 0.42209 0.0
Dy160 Dy 0.6072 0.89884 0.03013 0.0
Dy161 Dy 0.60137 0.86721 0.03026 0.0
C162 C 0.596 0.88133 0.11812 0.0
O163 O 0.73918 0.89266 0.01723 0.0
O164 O 0.74037 0.87183 0.04568 0.0
O165 O 0.59282 0.91569 0.06529 0.0
O166 O 0.64314 0.9171 -0.00032 0.0
O167 O 0.62942 0.87512 0.96225 0.0
O168 O 0.55744 0.89406 0.96197 0.0
O169 O 0.46416 0.87352 0.01659 0.0
O170 O 0.46791 0.89432 0.03587 0.0
O171 O 0.56413 0.85018 -0.00172 0.0
O172 O 0.62668 0.8489 0.06563 0.0
C173 C 0.78064 0.88216 0.03187 0.0
O174 O 0.64279 0.8902 0.09912 0.0
O175 O 0.55766 0.87281 0.09444 0.0
C176 C 0.58452 0.93616 0.02491 0.0
C177 C 0.55037 0.96257 0.01596 0.0
C178 C 0.53955 0.95542 0.05645 0.0
C179 C 0.55658 0.94238 0.06089 0.0
C180 C 0.59071 0.94317 0.9836 0.0
C181 C 0.57325 0.95624 0.9791 0.0
C182 C 0.6215 0.9232 0.03332 0.0
C183 C 0.58804 0.88485 0.94066 0.0
C184 C 0.4255 0.88402 0.02557 0.0
C185 C 0.63954 0.83081 0.02327 0.0
C186 C 0.69756 0.80592 0.01239 0.0
C187 C 0.64949 0.81294 0.97733 0.0
C188 C 0.62055 0.82522 0.98276 0.0
C189 C 0.69079 0.82402 0.0576 0.0
C190 C 0.71969 0.81174 0.05218 0.0
C191 C 0.59534 0.84268 0.03222 0.0
H192 H 0.52074 0.95998 0.08527 0.0
H193 H 0.55212 0.93731 0.0933 0.0
H194 H 0.61323 0.93871 0.95537 0.0
H195 H 0.58254 0.9615 0.94753 0.0
H196 H 0.63237 0.80882 0.946 0.0
H197 H 0.58041 0.83013 0.95581 0.0
H198 H 0.70542 0.82794 0.08952 0.0
H199 H 0.7557 0.80658 0.08008 0.0
Dy200 Dy 0.44245 0.1518 -0.00307 0.0
Dy201 Dy 0.43492 0.12022 0.01198 0.0
C202 C 0.45763 0.13726 0.09147 0.0
O203 O 0.57545 0.14545 0.98682 0.0
O204 O 0.57644 0.12479 0.01845 0.0
O205 O 0.45442 0.16948 0.02777 0.0
O206 O 0.44648 0.16956 0.95547 0.0
O207 O 0.47317 0.12446 0.94286 0.0
O208 O 0.41367 0.14447 0.92964 0.0
O209 O 0.30128 0.12694 0.99032 0.0
O210 O 0.30634 0.14736 0.01168 0.0
O211 O 0.3836 0.10235 -0.00756 0.0
O212 O 0.46471 0.10303 0.05443 0.0
C213 C 0.61653 0.13498 0.00252 0.0
O214 O 0.49823 0.14518 0.0651 0.0
O215 O 0.40611 0.12878 0.07468 0.0
C216 C 0.40609 0.18866 0.98688 0.0
C217 C 0.34417 0.21372 0.99008 0.0
C218 C 0.31491 0.20377 0.01885 0.0
C219 C 0.34558 0.19135 0.01729 0.0
C220 C 0.4321 0.19844 0.95677 0.0
C221 C 0.40147 0.21082 0.95826 0.0
C222 C 0.45229 0.17638 0.98991 0.0
C223 C 0.44713 0.13421 0.91544 0.0
C224 C 0.26274 0.13724 0.00076 0.0
C225 C 0.45653 0.08319 0.02119 0.0
C226 C 0.49886 0.05751 0.01221 0.0
C227 C 0.4842 0.06608 0.97418 0.0
C228 C 0.46316 0.0788 0.9786 0.0
C229 C 0.47397 0.07475 0.05909 0.0
C230 C 0.49493 0.06208 0.05472 0.0
C231 C 0.42132 0.09588 0.02724 0.0
H232 H 0.26971 0.20562 0.04325 0.0
H233 H 0.3244 0.18398 0.04094 0.0
H234 H 0.47943 0.19661 0.93338 0.0
H235 H 0.42618 0.21823 0.93591 0.0
H236 H 0.48776 0.06292 0.94096 0.0
H237 H 0.44975 0.08509 0.94871 0.0
H238 H 0.46804 0.07785 0.09225 0.0
H239 H 0.50437 0.05576 0.08475 0.0
Dy240 Dy 0.59861 0.15107 0.50958 0.0
Dy241 Dy 0.60849 0.11967 0.50771 0.0
C242 C 0.58517 0.13763 0.4213 0.0
O243 O 0.46502 0.14462 0.51992 0.0
O244 O 0.46646 0.12403 0.49867 0.0
O245 O 0.60802 0.16929 0.47274 0.0
O246 O 0.57345 0.16821 0.54153 0.0
O247 O 0.5697 0.12346 0.57517 0.0
O248 O 0.63207 0.1431 0.57957 0.0
O249 O 0.7416 0.12583 0.52818 0.0
O250 O 0.736 0.14657 0.49897 0.0
O251 O 0.64899 0.10097 0.53593 0.0
O252 O 0.59163 0.10366 0.46752 0.0
C253 C 0.42522 0.13416 0.50936 0.0
O254 O 0.5429 0.14528 0.44394 0.0
O255 O 0.63894 0.12931 0.44233 0.0
C256 C 0.63648 0.18759 0.51278 0.0
C257 C 0.70421 0.21212 0.52321 0.0
C258 C 0.67585 0.20839 0.48067 0.0
C259 C 0.64242 0.19629 0.47558 0.0
C260 C 0.66662 0.19112 0.55532 0.0
C261 C 0.70032 0.20327 0.56046 0.0
C262 C 0.58969 0.1756 0.50643 0.0
C263 C 0.59688 0.13293 0.59839 0.0
C264 C 0.77988 0.13629 0.51423 0.0
C265 C 0.58859 0.08266 0.50255 0.0
C266 C 0.54697 0.05656 0.50694 0.0
C267 C 0.55324 0.06321 0.5459 0.0
C268 C 0.57414 0.07614 0.54376 0.0
C269 C 0.57936 0.07613 0.46359 0.0
C270 C 0.55883 0.06327 0.4657 0.0
C271 C 0.6245 0.09561 0.49937 0.0
H272 H 0.67613 0.21498 0.45131 0.0
H273 H 0.61827 0.1939 0.44253 0.0
H274 H 0.66231 0.18463 0.58471 0.0
H275 H 0.72239 0.20579 0.59364 0.0
H276 H 0.54342 0.05839 0.57815 0.0
H277 H 0.58138 0.08091 0.57443 0.0
H278 H 0.59165 0.08088 0.4315 0.0
H279 H 0.55616 0.05847 0.43509 0.0
Dy280 Dy 0.43477 0.86683 0.52394 0.0
Dy281 Dy 0.42594 0.89846 0.52185 0.0
C282 C 0.43908 0.88422 0.43378 0.0
O283 O 0.56978 0.87303 0.51576 0.0
O284 O 0.56784 0.89421 0.53079 0.0
O285 O 0.46525 0.84957 0.49389 0.0
O286 O 0.4185 0.84868 0.56021 0.0
O287 O 0.39991 0.89 0.58949 0.0
O288 O 0.48813 0.87288 0.58965 0.0
O289 O 0.29268 0.89195 0.50316 0.0
O290 O 0.29825 0.87149 0.53498 0.0
O291 O 0.45022 0.91559 0.55536 0.0
O292 O 0.37518 0.91638 0.49101 0.0
C293 C 0.60922 0.88375 0.52346 0.0
O294 O 0.40076 0.87446 0.45346 0.0
O295 O 0.46819 0.89372 0.45619 0.0
C296 C 0.39756 0.8302 0.51938 0.0
C297 C 0.34011 0.80504 0.50995 0.0
C298 C 0.37845 0.81194 0.47488 0.0
C299 C 0.40712 0.82435 0.4796 0.0
C300 C 0.35591 0.8235 0.55368 0.0
C301 C 0.32728 0.8111 0.54897 0.0
C302 C 0.44259 0.84225 0.52791 0.0
C303 C 0.45051 0.88135 0.61121 0.0
C304 C 0.25445 0.88166 0.51869 0.0
C305 C 0.43891 0.93576 0.51297 0.0
C306 C 0.47893 0.96189 0.50416 0.0
C307 C 0.53729 0.95313 0.52776 0.0
C308 C 0.5174 0.94018 0.53224 0.0
C309 C 0.38253 0.94441 0.48783 0.0
C310 C 0.4022 0.95731 0.48343 0.0
C311 C 0.40801 0.92276 0.52367 0.0
H312 H 0.38819 0.80763 0.44411 0.0
H313 H 0.43983 0.82917 0.45271 0.0
H314 H 0.34884 0.82762 0.58508 0.0
H315 H 0.29901 0.80605 0.57689 0.0
H316 H 0.59757 0.9563 0.54357 0.0
H317 H 0.56203 0.93374 0.552 0.0
H318 H 0.32102 0.94127 0.47323 0.0
H319 H 0.35503 0.96375 0.46557 0.0
H320 H 0.39412 0.4035 0.01254 0.0
H321 H 0.83017 0.36363 0.01334 0.0
H322 H 0.3997 0.36316 -0.00178 0.0
H323 H 0.82031 0.40451 -0.00761 0.0
H324 H 0.67359 0.36328 0.01386 0.0
H325 H 0.55089 0.40399 0.01133 0.0
C326 C 0.42823 0.39472 0.0093 0.0
C327 C 0.38346 0.38325 0.00555 0.0
C328 C 0.70557 0.37233 0.00905 0.0
C329 C 0.56336 0.38379 0.00416 0.0
C330 C 0.79518 0.37256 0.00892 0.0
C331 C 0.83874 0.38414 0.00288 0.0
C332 C 0.65873 0.38376 0.00355 0.0
C333 C 0.78954 0.39537 -0.00296 0.0
C334 C 0.51781 0.39504 0.0084 0.0
C335 C 0.43135 0.37221 0.00115 0.0
N336 N 0.70213 0.3949 -0.00226 0.0
N337 N 0.51872 0.37275 0.00076 0.0
H338 H 0.22164 0.65614 -0.00439 0.0
H339 H 0.65667 0.61591 -0.00232 0.0
H340 H 0.22666 0.61554 0.98683 0.0
H341 H 0.64675 0.65674 0.97411 0.0
H342 H 0.50026 0.61562 -0.00061 0.0
H343 H 0.37824 0.65651 -0.00622 0.0
C344 C 0.25557 0.64728 -0.00651 0.0
C345 C 0.21069 0.63577 0.9914 0.0
C346 C 0.5322 0.62465 -0.00627 0.0
C347 C 0.39034 0.63617 0.98923 0.0
C348 C 0.62168 0.62484 -0.00714 0.0
C349 C 0.66512 0.63639 0.98578 0.0
C350 C 0.48548 0.63608 0.98788 0.0
C351 C 0.61602 0.64762 0.97955 0.0
C352 C 0.34506 0.64752 0.99223 0.0
C353 C 0.25838 0.62463 0.98844 0.0
N354 N 0.52879 0.64719 0.98095 0.0
N355 N 0.34563 0.62511 0.98757 0.0
H356 H 0.82606 0.6542 0.49154 0.0
H357 H 0.39553 0.6141 0.51784 0.0
H358 H 0.82129 0.61325 0.49654 0.0
H359 H 0.39667 0.65444 0.48168 0.0
H360 H 0.55223 0.61366 0.5159 0.0
H361 H 0.66977 0.65446 0.49324 0.0
C362 C 0.79223 0.64524 0.493 0.0
C363 C 0.83713 0.63367 0.49396 0.0
C364 C 0.51816 0.6226 0.50837 0.0
C365 C 0.65745 0.63394 0.49605 0.0
C366 C 0.42864 0.62289 0.50967 0.0
C367 C 0.38266 0.63435 0.49992 0.0
C368 C 0.56232 0.63387 0.49763 0.0
C369 C 0.42926 0.6454 0.48935 0.0
C370 C 0.70277 0.64542 0.49384 0.0
C371 C 0.78941 0.62239 0.49561 0.0
N372 N 0.51651 0.64488 0.4886 0.0
N373 N 0.70211 0.62281 0.49682 0.0
H374 H 0.65053 0.36101 0.49142 0.0
H375 H 0.2231 0.40362 0.48597 0.0
H376 H 0.6527 0.40181 0.49411 0.0
H377 H 0.22554 0.36296 0.51528 0.0
H378 H 0.37977 0.40305 0.48315 0.0
H379 H 0.49323 0.36143 0.49383 0.0
C380 C 0.61805 0.37005 0.49233 0.0
C381 C 0.66504 0.38138 0.4927 0.0
C382 C 0.34599 0.39426 0.49035 0.0
C383 C 0.48534 0.38193 0.4954 0.0
C384 C 0.25647 0.39458 0.49195 0.0
C385 C 0.2109 0.38333 0.50099 0.0
C386 C 0.39035 0.3826 0.49738 0.0
C387 C 0.25785 0.37189 0.50844 0.0
C388 C 0.52834 0.37027 0.49391 0.0
C389 C 0.61941 0.39282 0.49403 0.0
N390 N 0.34487 0.37181 0.50626 0.0
N391 N 0.53229 0.39279 0.49524 0.0
H392 H 0.89195 0.86172 0.04362 0.0
H393 H 0.31649 0.90427 0.02988 0.0
H394 H 0.88666 0.90256 0.02018 0.0
H395 H 0.31711 0.86364 0.02153 0.0
H396 H 0.15963 0.90374 0.03203 0.0
H397 H 0.04925 0.86214 0.04177 0.0
C398 C 0.92375 0.87077 0.03823 0.0
C399 C 0.87591 0.88211 0.03194 0.0
C400 C 0.19416 0.89495 0.02959 0.0
C401 C 0.05564 0.88266 0.02989 0.0
C402 C 0.28376 0.89524 0.02841 0.0
C403 C 0.33021 0.88399 0.02542 0.0
C404 C 0.15065 0.88332 0.02823 0.0
C405 C 0.2841 0.87257 0.02361 0.0
C406 C 1.01347 0.87099 0.03701 0.0
C407 C 0.92067 0.89356 0.02497 0.0
N408 N 0.197 0.87252 0.02523 0.0
N409 N 1.00787 0.89353 0.02424 0.0
H410 H 0.15309 0.15738 0.00664 0.0
H411 H 0.72855 0.1146 0.01585 0.0
H412 H 0.15489 0.11686 -0.00416 0.0
H413 H 0.72231 0.15537 0.99009 0.0
H414 H 0.88628 0.11513 0.01581 0.0
H415 H 0.99576 0.15674 0.00773 0.0
C416 C 0.12054 0.14836 0.00448 0.0
C417 C 0.1674 0.13717 0.00095 0.0
C418 C 0.85016 0.12394 0.01011 0.0
C419 C 0.98748 0.13636 0.00255 0.0
C420 C 0.76019 0.12364 0.01024 0.0
C421 C 0.71193 0.13494 0.00278 0.0
C422 C 0.89218 0.13562 0.003 0.0
C423 C 0.75657 0.1464 -0.00433 0.0
C424 C 0.03072 0.148 0.00503 0.0
C425 C 0.12157 0.12575 -0.0017 0.0
N426 N 0.84398 0.14644 -0.00389 0.0
N427 N 0.03434 0.12563 -0.00068 0.0
H428 H 0.31522 0.11373 0.5069 0.0
H429 H 0.88791 0.15648 0.49935 0.0
H430 H 0.31765 0.15448 0.51149 0.0
H431 H 0.88923 0.11582 0.52842 0.0
H432 H 0.04487 0.15584 0.4974 0.0
H433 H 0.15761 0.11419 0.50814 0.0
C434 C 0.28277 0.12276 0.50805 0.0
C435 C 0.3299 0.13406 0.50927 0.0
C436 C 1.01074 0.14707 0.50433 0.0
C437 C 0.14995 0.13466 0.5105 0.0
C438 C 0.9211 0.14743 0.50541 0.0
C439 C 0.87519 0.13621 0.5142 0.0
C440 C 0.05482 0.13538 0.51163 0.0
C441 C 0.92184 0.12474 0.52176 0.0
C442 C 0.1929 0.12301 0.50892 0.0
C443 C 0.2843 0.1455 0.51082 0.0
N444 N 1.00895 0.12461 0.52012 0.0
N445 N 0.19708 0.1455 0.51127 0.0
H446 H 0.71832 0.90429 0.52114 0.0
H447 H 0.14708 0.86161 0.5367 0.0
H448 H 0.71767 0.86334 0.526 0.0
H449 H 0.14453 0.902 0.5013 0.0
H450 H 0.99018 0.86224 0.5385 0.0
H451 H 0.87581 0.90385 0.5198 0.0
C452 C 0.75114 0.89522 0.52207 0.0
C453 C 0.70453 0.88384 0.52356 0.0
C454 C 0.024 0.87096 0.53022 0.0
C455 C 0.88442 0.88327 0.52214 0.0
C456 C 0.11363 0.8706 0.52923 0.0
C457 C 0.15917 0.88175 0.51873 0.0
C458 C 0.97955 0.88256 0.52108 0.0
C459 C 0.11219 0.89314 0.50935 0.0
C460 C 0.84096 0.89498 0.52112 0.0
C461 C 0.75061 0.87236 0.52458 0.0
N462 N 0.02506 0.89326 0.51091 0.0
N463 N 0.8378 0.87238 0.52395 0.0
H464 H 0.14271 0.54388 0.97436 0.0
H465 H 0.96398 0.47532 0.05383 0.0
H466 H 0.9198 0.53867 0.05081 0.0
H467 H 0.1528 0.48167 0.9568 0.0
H468 H 0.95728 0.49831 0.06058 0.0
H469 H 0.15806 0.52088 0.97528 0.0
C470 C 0.09707 0.53791 0.99147 0.0
C471 C 0.0294 0.54328 0.01221 0.0
C472 C 1.00015 0.49465 0.03784 0.0
C473 C 0.04705 0.51683 0.01365 0.0
C474 C 1.00417 0.48154 0.03409 0.0
C475 C 0.05831 0.47658 0.00435 0.0
C476 C 0.05136 0.50283 0.01203 0.0
C477 C 0.10889 0.48508 0.97951 0.0
C478 C 0.10602 0.52476 0.99206 0.0
C479 C 0.97342 0.53501 0.03468 0.0
N480 N 0.10417 0.49775 0.98391 0.0
N481 N 0.98319 0.52221 0.03458 0.0
H482 H 0.87384 0.4804 0.45498 0.0
H483 H 0.14872 0.53651 0.55759 0.0
H484 H 0.09533 0.47366 0.54939 0.0
H485 H 0.90275 0.54208 0.48155 0.0
H486 H 0.13017 0.51357 0.55653 0.0
H487 H 0.88464 0.50306 0.46449 0.0
C488 C 0.92512 0.4837 0.47759 0.0
C489 C 0.9844 0.47512 0.50105 0.0
C490 C 0.07997 0.51981 0.5404 0.0
C491 C 0.99673 0.50115 0.51248 0.0
C492 C 0.09014 0.53294 0.54126 0.0
C493 C 0.02738 0.54131 0.5194 0.0
C494 C 1.00678 0.51498 0.51728 0.0
C495 C 0.95363 0.53605 0.49815 0.0
C496 C 0.93083 0.49665 0.48329 0.0
C497 C 0.04828 0.47994 0.53068 0.0
N498 N 0.94573 0.52326 0.49737 0.0
N499 N 0.05319 0.49265 0.5353 0.0
H500 H 0.61856 0.97829 0.07711 0.0
H501 H 0.42145 0.04226 0.95066 0.0
H502 H 0.47197 0.97897 0.9492 0.0
H503 H 0.60894 0.04119 0.0645 0.0
H504 H 0.43727 0.01926 0.94892 0.0
H505 H 0.61121 1.00138 0.07352 0.0
C506 C 0.58412 0.98331 0.04837 0.0
C507 C 0.54499 0.97666 0.01362 0.0
C508 C 0.47532 0.02408 0.97407 0.0
C509 C 0.53719 1.00324 0.009 0.0
C510 C 0.46683 0.03724 0.97492 0.0
C511 C 0.51351 0.04372 0.008 0.0
C512 C 0.53051 0.01731 0.00667 0.0
C513 C 0.57032 0.03662 0.03892 0.0
C514 C 0.58063 0.99652 0.04615 0.0
C515 C 0.50307 0.98371 0.97671 0.0
N516 N 0.57672 0.02384 0.03766 0.0
N517 N 0.49977 0.99662 0.97548 0.0
H518 H 0.61279 0.0384 0.57101 0.0
H519 H 0.44251 0.98008 0.4349 0.0
H520 H 0.45101 0.0427 0.44745 0.0
H521 H 0.54988 0.97557 0.57192 0.0
H522 H 0.45635 1.00304 0.43672 0.0
H523 H 0.59851 0.01537 0.57059 0.0
C524 C 0.57337 0.03454 0.54407 0.0
C525 C 0.53327 0.04257 0.50912 0.0
C526 C 0.47702 0.99703 0.46638 0.0
C527 C 0.51851 0.01614 0.50795 0.0
C528 C 0.46904 0.9839 0.4654 0.0
C529 C 0.49457 0.97582 0.5034 0.0
C530 C 0.51129 1.00219 0.50555 0.0
C531 C 0.53021 0.98137 0.54163 0.0
C532 C 0.56591 0.02137 0.54368 0.0
C533 C 0.48439 0.03693 0.47471 0.0
N534 N 0.53732 0.99419 0.54175 0.0
N535 N 0.47879 0.0241 0.4749 0.0
H536 H 0.23267 0.29427 0.94267 0.0
H537 H 0.32846 0.22542 0.06751 0.0
H538 H 0.24758 0.28685 0.08614 0.0
H539 H 0.30629 0.23281 0.92398 0.0
H540 H 0.29796 0.24779 0.07509 0.0
H541 H 0.26268 0.27188 0.9354 0.0
C542 C 0.24333 0.28797 0.97273 0.0
C543 C 0.23779 0.2925 0.01513 0.0
C544 C 0.29949 0.24452 0.04192 0.0
C545 C 0.27063 0.2667 0.00693 0.0
C546 C 0.31614 0.23169 0.03753 0.0
C547 C 0.31993 0.22716 -0.005 0.0
C548 C 0.28656 0.25294 0.00353 0.0
C549 C 0.30509 0.23586 0.95745 0.0
C550 C 0.25966 0.27514 0.9685 0.0
C551 C 0.25039 0.28379 0.05276 0.0
N552 N 0.28925 0.2483 0.96261 0.0
N553 N 0.26614 0.27133 0.04777 0.0
H554 H 0.59658 0.78767 0.97484 0.0
H555 H 0.93942 0.73147 0.04062 0.0
H556 H 0.84747 0.79308 0.04251 0.0
H557 H 0.68929 0.72608 0.9721 0.0
H558 H 0.906 0.75397 0.04259 0.0
H559 H 0.63004 0.76517 0.97276 0.0
C560 C 0.65918 0.78417 0.98881 0.0
C561 C 0.71939 0.79234 0.00879 0.0
C562 C 0.85828 0.74787 0.02723 0.0
C563 C 0.75748 0.76644 0.00726 0.0
C564 C 0.87699 0.73497 0.02644 0.0
C565 C 0.81698 0.72682 0.00627 0.0
C566 C 0.77891 0.75272 0.00768 0.0
C567 C 0.7379 0.73201 0.9876 0.0
C568 C 0.67792 0.77127 0.98795 0.0
C569 C 0.79869 0.78715 0.02718 0.0
N570 N 0.72123 0.74461 0.98874 0.0
N571 N 0.81536 0.77455 0.02601 0.0
H572 H 0.11382 0.73013 0.54173 0.0
H573 H 0.43331 0.78669 0.47466 0.0
H574 H 0.34675 0.7248 0.47586 0.0
H575 H 0.19951 0.79204 0.53978 0.0
H576 H 0.40179 0.76408 0.47398 0.0
H577 H 0.14526 0.75275 0.54226 0.0
C578 C 0.17217 0.73367 0.52783 0.0
C579 C 0.22783 0.72549 0.50883 0.0
C580 C 0.35722 0.7702 0.48832 0.0
C581 C 0.2634 0.75152 0.50857 0.0
C582 C 0.37476 0.78316 0.48836 0.0
C583 C 0.31889 0.79135 0.50722 0.0
C584 C 0.28324 0.76532 0.50731 0.0
C585 C 0.24497 0.78611 0.52532 0.0
C586 C 0.18966 0.74664 0.52778 0.0
C587 C 0.30147 0.73074 0.49046 0.0
N588 N 0.22939 0.77345 0.52495 0.0
N589 N 0.31704 0.7434 0.49077 0.0
H590 H 0.85035 0.28953 0.45996 0.0
H591 H 0.67252 0.22757 0.58995 0.0
H592 H 0.79101 0.28889 0.59783 0.0
H593 H 0.8013 0.2271 0.46796 0.0
H594 H 0.7091 0.25003 0.59334 0.0
H595 H 0.82233 0.26682 0.46105 0.0
C596 C 0.83053 0.28462 0.49039 0.0
C597 C 0.82228 0.29114 0.52877 0.0
C598 C 0.72978 0.24496 0.56604 0.0
C599 C 0.79106 0.26502 0.53043 0.0
C600 C 0.70948 0.23211 0.56421 0.0
C601 C 0.73318 0.2254 0.52838 0.0
C602 C 0.77345 0.25119 0.53162 0.0
C603 C 0.77996 0.2319 0.49571 0.0
C604 C 0.81539 0.27161 0.49112 0.0
C605 C 0.79822 0.28422 0.56754 0.0
N606 N 0.79787 0.24442 0.49794 0.0
N607 N 0.78293 0.27153 0.56734 0.0
H608 H 0.1472 0.36642 0.15735 0.0
H609 H 0.8962 0.39947 0.34075 0.0
H610 H 1.01805 0.40278 0.13275 0.0
H611 H 0.03733 0.36413 0.36702 0.0
H612 H 0.93674 0.40058 0.26365 0.0
H613 H 0.10692 0.36538 0.23435 0.0
C614 C 0.111 0.37423 0.16819 0.0
C615 C 0.0859 0.38469 0.13849 0.0
C616 C 0.95861 0.39257 0.28629 0.0
C617 C 0.03876 0.38349 0.22645 0.0
C618 C 0.93509 0.3919 0.33024 0.0
C619 C 0.96355 0.38171 0.36038 0.0
C620 C 1.01079 0.38298 0.27246 0.0
C621 C 1.0141 0.37219 0.34497 0.0
C622 C 0.08771 0.37361 0.21213 0.0
C623 C 0.03881 0.39452 0.15442 0.0
N624 N 0.03625 0.37307 0.30213 0.0
N625 N 1.01649 0.39365 0.19726 0.0
H626 H 0.89932 0.65171 0.13176 0.0
H627 H 0.1486 0.61801 0.35201 0.0
H628 H 0.04639 0.61697 0.13282 0.0
H629 H 0.99485 0.65212 0.35055 0.0
H630 H 0.11323 0.61752 0.27162 0.0
H631 H 0.9335 0.65191 0.21212 0.0
C632 C 0.93849 0.64408 0.14889 0.0
C633 C 0.97014 0.63431 0.12546 0.0
C634 C 0.08735 0.62512 0.28891 0.0
C635 C 1.00997 0.63454 0.21755 0.0
C636 C 0.10773 0.62543 0.33478 0.0
C637 C 0.07464 0.63513 0.35804 0.0
C638 C 0.03358 0.63458 0.26616 0.0
C639 C 1.02181 0.64446 0.33401 0.0
C640 C 0.95812 0.64422 0.19482 0.0
C641 C 1.02059 0.6247 0.1495 0.0
N642 N 1.00289 0.64394 0.28941 0.0
N643 N 0.03915 0.62507 0.19424 0.0
H644 H 0.89485 0.61936 0.84191 0.0
H645 H 0.14784 0.65145 0.64078 0.0
H646 H 0.03408 0.65463 0.84816 0.0
H647 H 1.01575 0.61557 0.63556 0.0
H648 H 0.10684 0.65274 0.71699 0.0
H649 H 0.93569 0.61801 0.76556 0.0
C650 C 0.93334 0.62687 0.82713 0.0
C651 C 0.96117 0.63711 0.85148 0.0
C652 C 0.08711 0.64456 0.69922 0.0
C653 C 1.00885 0.63556 0.76439 0.0
C654 C 0.11084 0.64379 0.65574 0.0
C655 C 0.08515 0.63339 0.63167 0.0
C656 C 0.03717 0.63488 0.71876 0.0
C657 C 0.03701 0.62377 0.65279 0.0
C658 C 0.95703 0.62606 0.78362 0.0
C659 C 1.01127 0.64654 0.8307 0.0
N660 N 1.01433 0.62477 0.69506 0.0
N661 N 0.03366 0.64552 0.78842 0.0
H662 H 0.90142 0.36665 0.64817 0.0
H663 H 0.14726 0.4003 0.8504 0.0
H664 H 0.04155 0.40177 0.63113 0.0
H665 H 0.99654 0.36618 0.8673 0.0
H666 H 0.11105 0.40088 0.76982 0.0
H667 H 0.93584 0.36636 0.72865 0.0
C668 C 0.93908 0.37434 0.66133 0.0
C669 C 0.96878 0.38424 0.63282 0.0
C670 C 0.08599 0.39326 0.79118 0.0
C671 C 1.00889 0.38391 0.72498 0.0
C672 C 0.10686 0.3929 0.83717 0.0
C673 C 0.07483 0.38318 0.86561 0.0
C674 C 0.03286 0.38382 0.77355 0.0
C675 C 0.02261 0.37386 0.84664 0.0
C676 C 0.95884 0.37415 0.70733 0.0
C677 C 1.01731 0.39394 0.65183 0.0
N678 N 1.00322 0.37442 0.80179 0.0
N679 N 0.0361 0.39351 0.69674 0.0
H680 H 0.6444 0.89936 0.17603 0.0
H681 H 0.39553 0.86591 0.37635 0.0
H682 H 0.50691 0.86399 0.16814 0.0
H683 H 0.52402 0.90204 0.38311 0.0
H684 H 0.43609 0.86506 0.29988 0.0
H685 H 0.60411 0.9003 0.2527 0.0
C686 C 0.60641 0.89175 0.19051 0.0
C687 C 0.57889 0.8816 0.16562 0.0
C688 C 0.45512 0.8732 0.31805 0.0
C689 C 0.53188 0.88267 0.25304 0.0
C690 C 0.43165 0.87371 0.36169 0.0
C691 C 0.45642 0.88405 0.38625 0.0
C692 C 0.50391 0.88308 0.29885 0.0
C693 C 0.50345 0.89387 0.36548 0.0
C694 C 0.58303 0.89232 0.23419 0.0
C695 C 0.52942 0.87202 0.18602 0.0
N696 N 0.52592 0.89312 0.32305 0.0
N697 N 0.50736 0.87281 0.22847 0.0
H698 H 0.34816 0.13062 0.15593 0.0
H699 H 0.69603 0.13141 0.36036 0.0
H700 H 0.60595 0.14405 0.1372 0.0
H701 H 0.43537 0.14409 0.37198 0.0
H702 H 0.6646 0.13146 0.27904 0.0
H703 H 0.37925 0.13094 0.23722 0.0
C704 C 0.41122 0.13359 0.169 0.0
C705 C 0.47457 0.13738 0.14013 0.0
C706 C 0.61462 0.13424 0.29957 0.0
C707 C 0.51065 0.1375 0.23216 0.0
C708 C 0.6323 0.13419 0.34573 0.0
C709 C 0.56823 0.13782 0.37256 0.0
C710 C 0.53173 0.1376 0.2806 0.0
C711 C 0.48664 0.14134 0.35221 0.0
C712 C 0.42866 0.13382 0.21512 0.0
C713 C 0.55525 0.14117 0.1585 0.0
N714 N 0.47028 0.14101 0.30733 0.0
N715 N 0.57143 0.14101 0.20352 0.0
H716 H 0.44684 0.15426 0.85225 0.0
H717 H 0.55338 0.11248 0.65336 0.0
H718 H 0.48361 0.11363 0.87017 0.0
H719 H 0.6001 0.15279 0.65164 0.0
H720 H 0.51333 0.11264 0.73035 0.0
H721 H 0.48531 0.15383 0.77511 0.0
C722 C 0.46206 0.14523 0.83984 0.0
C723 C 0.46219 0.13396 0.86769 0.0
C724 C 0.53289 0.12142 0.71315 0.0
C725 C 0.50667 0.13343 0.77969 0.0
C726 C 0.55582 0.12134 0.66926 0.0
C727 C 0.5803 0.13263 0.64609 0.0
C728 C 0.53322 0.13291 0.73372 0.0
C729 C 0.5822 0.14385 0.66832 0.0
C730 C 0.48472 0.14501 0.79595 0.0
C731 C 0.48308 0.12255 0.84991 0.0
N732 N 0.55829 0.14372 0.71081 0.0
N733 N 0.50442 0.12257 0.80698 0.0
H734 H 0.55078 0.86477 0.6671 0.0
H735 H 0.49563 0.90237 0.88425 0.0
H736 H 0.39443 0.89861 0.66618 0.0
H737 H 0.64162 0.86754 0.88541 0.0
H738 H 0.46167 0.9016 0.80388 0.0
H739 H 0.58689 0.86591 0.74699 0.0
C740 C 0.52373 0.87242 0.68372 0.0
C741 C 0.46944 0.8816 0.65993 0.0
C742 C 0.50132 0.89415 0.82174 0.0
C743 C 0.51099 0.88301 0.75139 0.0
C744 C 0.52099 0.8946 0.86761 0.0
C745 C 0.57141 0.88499 0.89165 0.0
C746 C 0.53233 0.88401 0.79978 0.0
C747 C 0.60238 0.87515 0.86831 0.0
C748 C 0.54454 0.87308 0.72936 0.0
C749 C 0.4364 0.8913 0.68322 0.0
N750 N 0.58217 0.8749 0.8237 0.0
N751 N 0.45785 0.89176 0.72769 0.0
loop_
_geom_bond_atom_site_label_1
_geom_bond_atom_site_label_2
_geom_bond_distance
_geom_bond_site_symmetry_2
_ccdc_geom_bond_type
Dy0 O3 2.307 . S
Dy0 O5 2.395 . S
Dy0 O6 2.379 1_554 S
Dy0 O8 2.339 1_554 S
Dy0 O10 2.298 1_454 S
Dy0 O14 2.275 . S
Dy0 C22 2.738 1_455 S
Dy1 O4 2.298 . S
Dy1 O7 2.275 1_554 S
Dy1 O9 2.307 1_455 S
Dy1 O11 2.395 1_554 S
Dy1 O12 2.379 . S
Dy1 O15 2.339 . S
Dy1 C31 2.738 . S
C2 O14 1.254 . S
C2 O15 1.257 . S
O3 Dy0 2.307 . S
O3 C13 1.266 . S
O4 Dy1 2.298 . S
O4 C13 1.236 . S
O5 Dy0 2.395 . S
O5 C22 1.255 1_455 S
O6 Dy0 2.379 1_556 S
O6 C22 1.249 1_456 S
O7 Dy1 2.275 1_556 S
O7 C23 1.254 . S
O8 Dy0 2.339 1_556 S
O8 C23 1.257 . S
O9 Dy1 2.307 1_655 S
O9 C24 1.266 . S
O10 Dy0 2.298 1_656 S
O10 C24 1.231 1_556 S
O11 Dy1 2.395 1_556 S
O11 C31 1.255 1_556 S
O12 Dy1 2.379 . S
O12 C31 1.249 . S
C13 O3 1.266 . S
C13 O4 1.236 . S
O14 Dy0 2.275 . S
O14 C2 1.254 . S
O15 Dy1 2.339 . S
O15 C2 1.257 . S
C16 C19 1.344 . S
C16 C20 1.328 1_554 S
C16 C22 1.516 . S
C17 C18 1.304 . S
C17 C21 1.323 1_554 S
C18 C17 1.304 . S
C18 C19 1.371 . S
C18 H32 0.930 . S
C19 C16 1.344 . S
C19 C18 1.371 . S
C19 H33 0.931 . S
C20 C16 1.328 1_556 S
C20 C21 1.433 . S
C20 H34 0.931 . S
C21 C17 1.323 1_556 S
C21 C20 1.433 . S
C21 H35 0.933 . S
C22 Dy0 2.738 1_655 S
C22 O5 1.255 1_655 S
C22 O6 1.249 1_654 S
C22 C16 1.516 . S
C23 O7 1.254 . S
C23 O8 1.257 . S
C24 O9 1.266 . S
C24 O10 1.231 1_554 S
C25 C28 1.344 1_554 S
C25 C29 1.328 . S
C25 C31 1.516 . S
C26 C27 1.304 1_554 S
C26 C30 1.323 . S
C27 C26 1.304 1_556 S
C27 C28 1.371 . S
C27 H36 0.930 . S
C28 C25 1.344 1_556 S
C28 C27 1.371 . S
C28 H37 0.931 . S
C29 C25 1.328 . S
C29 C30 1.433 . S
C29 H38 0.931 . S
C30 C26 1.323 . S
C30 C29 1.433 . S
C30 H39 0.933 . S
C31 Dy1 2.738 . S
C31 O11 1.255 1_554 S
C31 O12 1.249 . S
C31 C25 1.516 . S
H32 C18 0.930 . S
H33 C19 0.931 . S
H34 C20 0.931 . S
H35 C21 0.933 . S
H36 C27 0.930 . S
H37 C28 0.931 . S
H38 C29 0.931 . S
H39 C30 0.933 . S
Dy40 O43 2.307 1_655 S
Dy40 O45 2.395 . S
Dy40 O46 2.379 1_554 S
Dy40 O48 2.339 1_554 S
Dy40 O50 2.298 1_554 S
Dy40 O54 2.275 . S
Dy40 C62 2.738 . S
Dy41 O44 2.298 1_655 S
Dy41 O47 2.275 1_554 S
Dy41 O49 2.307 . S
Dy41 O51 2.395 1_554 S
Dy41 O52 2.379 . S
Dy41 O55 2.339 . S
Dy41 C71 2.738 1_655 S
C42 O54 1.254 . S
C42 O55 1.257 . S
O43 Dy40 2.307 1_455 S
O43 C53 1.266 . S
O44 Dy41 2.298 1_455 S
O44 C53 1.236 . S
O45 Dy40 2.395 . S
O45 C62 1.255 . S
O46 Dy40 2.379 1_556 S
O46 C62 1.249 1_556 S
O47 Dy41 2.275 1_556 S
O47 C63 1.254 . S
O48 Dy40 2.339 1_556 S
O48 C63 1.257 . S
O49 Dy41 2.307 . S
O49 C64 1.266 . S
O50 Dy40 2.298 1_556 S
O50 C64 1.236 1_556 S
O51 Dy41 2.395 1_556 S
O51 C71 1.255 1_656 S
O52 Dy41 2.379 . S
O52 C71 1.249 1_655 S
C53 O43 1.266 . S
C53 O44 1.236 . S
O54 Dy40 2.275 . S
O54 C42 1.254 . S
O55 Dy41 2.339 . S
O55 C42 1.257 . S
C56 C59 1.344 . S
C56 C60 1.328 1_554 S
C56 C62 1.516 . S
C57 C58 1.304 . S
C57 C61 1.323 1_554 S
C58 C57 1.304 . S
C58 C59 1.371 . S
C58 H72 0.930 . S
C59 C56 1.344 . S
C59 C58 1.371 . S
C59 H73 0.931 . S
C60 C56 1.328 1_556 S
C60 C61 1.433 . S
C60 H74 0.931 . S
C61 C57 1.323 1_556 S
C61 C60 1.433 . S
C61 H75 0.933 . S
C62 Dy40 2.738 . S
C62 O45 1.255 . S
C62 O46 1.249 1_554 S
C62 C56 1.516 . S
C63 O47 1.254 . S
C63 O48 1.257 . S
C64 O49 1.266 . S
C64 O50 1.236 1_554 S
C65 C68 1.344 1_554 S
C65 C69 1.328 . S
C65 C71 1.516 . S
C66 C67 1.304 1_554 S
C66 C70 1.323 . S
C67 C66 1.304 1_556 S
C67 C68 1.371 . S
C67 H76 0.930 . S
C68 C65 1.344 1_556 S
C68 C67 1.371 . S
C68 H77 0.931 . S
C69 C65 1.328 . S
C69 C70 1.433 . S
C69 H78 0.931 . S
C70 C66 1.323 . S
C70 C69 1.433 . S
C70 H79 0.933 . S
C71 Dy41 2.738 1_455 S
C71 O51 1.255 1_454 S
C71 O52 1.249 1_455 S
C71 C65 1.516 . S
H72 C58 0.930 . S
H73 C59 0.931 . S
H74 C60 0.931 . S
H75 C61 0.933 . S
H76 C67 0.930 . S
H77 C68 0.931 . S
H78 C69 0.931 . S
H79 C70 0.933 . S
Dy80 O83 2.307 1_455 S
Dy80 O85 2.395 . S
Dy80 O86 2.379 . S
Dy80 O88 2.339 . S
Dy80 O90 2.298 . S
Dy80 O94 2.275 . S
Dy80 C102 2.738 . S
Dy81 O84 2.298 1_455 S
Dy81 O87 2.275 . S
Dy81 O89 2.307 . S
Dy81 O91 2.395 . S
Dy81 O92 2.379 . S
Dy81 O95 2.339 . S
Dy81 C111 2.738 1_455 S
C82 O94 1.254 . S
C82 O95 1.257 . S
O83 Dy80 2.307 1_655 S
O83 C93 1.266 . S
O84 Dy81 2.298 1_655 S
O84 C93 1.236 . S
O85 Dy80 2.395 . S
O85 C102 1.255 . S
O86 Dy80 2.379 . S
O86 C102 1.249 . S
O87 Dy81 2.275 . S
O87 C103 1.254 . S
O88 Dy80 2.339 . S
O88 C103 1.257 . S
O89 Dy81 2.307 . S
O89 C104 1.266 . S
O90 Dy80 2.298 . S
O90 C104 1.236 . S
O91 Dy81 2.395 . S
O91 C111 1.255 1_455 S
O92 Dy81 2.379 . S
O92 C111 1.249 1_455 S
C93 O83 1.266 . S
C93 O84 1.236 . S
O94 Dy80 2.275 . S
O94 C82 1.254 . S
O95 Dy81 2.339 . S
O95 C82 1.257 . S
C96 C99 1.344 . S
C96 C100 1.328 . S
C96 C102 1.516 . S
C97 C98 1.304 . S
C97 C101 1.323 . S
C98 C97 1.304 . S
C98 C99 1.371 . S
C98 H112 0.930 . S
C99 C96 1.344 . S
C99 C98 1.371 . S
C99 H113 0.931 . S
C100 C96 1.328 . S
C100 C101 1.433 . S
C100 H114 0.931 . S
C101 C97 1.323 . S
C101 C100 1.433 . S
C101 H115 0.933 . S
C102 Dy80 2.738 . S
C102 O85 1.255 . S
C102 O86 1.249 . S
C102 C96 1.516 . S
C103 O87 1.254 . S
C103 O88 1.257 . S
C104 O89 1.266 . S
C104 O90 1.236 . S
C105 C108 1.344 . S
C105 C109 1.328 . S
C105 C111 1.516 . S
C106 C107 1.304 . S
C106 C110 1.323 . S
C107 C106 1.304 . S
C107 C108 1.371 . S
C107 H116 0.930 . S
C108 C105 1.344 . S
C108 C107 1.371 . S
C108 H117 0.931 . S
C109 C105 1.328 . S
C109 C110 1.433 . S
C109 H118 0.931 . S
C110 C106 1.323 . S
C110 C109 1.433 . S
C110 H119 0.933 . S
C111 Dy81 2.738 1_655 S
C111 O91 1.255 1_655 S
C111 O92 1.249 1_655 S
C111 C105 1.516 . S
H112 C98 0.930 . S
H113 C99 0.931 . S
H114 C100 0.931 . S
H115 C101 0.933 . S
H116 C107 0.930 . S
H117 C108 0.931 . S
H118 C109 0.931 . S
H119 C110 0.933 . S
Dy120 O123 2.307 1_655 S
Dy120 O125 2.395 . S
Dy120 O126 2.379 . S
Dy120 O128 2.339 . S
Dy120 O130 2.298 . S
Dy120 O134 2.275 . S
Dy120 C142 2.738 . S
Dy121 O124 2.298 1_655 S
Dy121 O127 2.275 . S
Dy121 O129 2.307 . S
Dy121 O131 2.395 . S
Dy121 O132 2.379 . S
Dy121 O135 2.339 . S
Dy121 C151 2.743 . S
C122 O134 1.254 . S
C122 O135 1.257 . S
O123 Dy120 2.307 1_455 S
O123 C133 1.266 . S
O124 Dy121 2.298 1_455 S
O124 C133 1.236 . S
O125 Dy120 2.395 . S
O125 C142 1.255 . S
O126 Dy120 2.379 . S
O126 C142 1.249 . S
O127 Dy121 2.275 . S
O127 C143 1.254 . S
O128 Dy120 2.339 . S
O128 C143 1.257 . S
O129 Dy121 2.307 . S
O129 C144 1.266 . S
O130 Dy120 2.298 . S
O130 C144 1.236 . S
O131 Dy121 2.395 . S
O131 C151 1.257 . S
O132 Dy121 2.379 . S
O132 C151 1.252 . S
C133 O123 1.266 . S
C133 O124 1.236 . S
O134 Dy120 2.275 . S
O134 C122 1.254 . S
O135 Dy121 2.339 . S
O135 C122 1.257 . S
C136 C139 1.344 . S
C136 C140 1.328 . S
C136 C142 1.516 . S
C137 C138 1.304 . S
C137 C141 1.323 . S
C138 C137 1.304 . S
C138 C139 1.371 . S
C138 H152 0.930 . S
C139 C136 1.344 . S
C139 C138 1.371 . S
C139 H153 0.931 . S
C140 C136 1.328 . S
C140 C141 1.433 . S
C140 H154 0.931 . S
C141 C137 1.323 . S
C141 C140 1.433 . S
C141 H155 0.933 . S
C142 Dy120 2.738 . S
C142 O125 1.255 . S
C142 O126 1.249 . S
C142 C136 1.516 . S
C143 O127 1.254 . S
C143 O128 1.257 . S
C144 O129 1.266 . S
C144 O130 1.236 . S
C145 C148 1.344 . S
C145 C149 1.328 . S
C145 C151 1.511 1_455 S
C146 C147 1.304 . S
C146 C150 1.323 . S
C147 C146 1.304 . S
C147 C148 1.371 . S
C147 H156 0.930 . S
C148 C145 1.344 . S
C148 C147 1.371 . S
C148 H157 0.931 . S
C149 C145 1.328 . S
C149 C150 1.433 . S
C149 H158 0.931 . S
C150 C146 1.323 . S
C150 C149 1.433 . S
C150 H159 0.933 . S
C151 Dy121 2.743 . S
C151 O131 1.257 . S
C151 O132 1.252 . S
C151 C145 1.511 1_655 S
H152 C138 0.930 . S
H153 C139 0.931 . S
H154 C140 0.931 . S
H155 C141 0.933 . S
H156 C147 0.930 . S
H157 C148 0.931 . S
H158 C149 0.931 . S
H159 C150 0.933 . S
Dy160 O163 2.307 . S
Dy160 O165 2.395 . S
Dy160 O166 2.379 1_554 S
Dy160 O168 2.339 1_554 S
Dy160 O170 2.298 1_554 S
Dy160 O174 2.275 . S
Dy160 C182 2.738 . S
Dy161 O164 2.298 . S
Dy161 O167 2.275 1_554 S
Dy161 O169 2.307 . S
Dy161 O171 2.395 1_554 S
Dy161 O172 2.379 . S
Dy161 O175 2.339 . S
Dy161 C191 2.738 . S
C162 O174 1.254 . S
C162 O175 1.257 . S
O163 Dy160 2.307 . S
O163 C173 1.266 . S
O164 Dy161 2.298 . S
O164 C173 1.236 . S
O165 Dy160 2.395 . S
O165 C182 1.255 . S
O166 Dy160 2.379 1_556 S
O166 C182 1.249 1_556 S
O167 Dy161 2.275 1_556 S
O167 C183 1.254 . S
O168 Dy160 2.339 1_556 S
O168 C183 1.257 . S
O169 Dy161 2.307 . S
O169 C184 1.266 . S
O170 Dy160 2.298 1_556 S
O170 C184 1.231 1_556 S
O171 Dy161 2.395 1_556 S
O171 C191 1.255 1_556 S
O172 Dy161 2.379 . S
O172 C191 1.249 . S
C173 O163 1.266 . S
C173 O164 1.236 . S
O174 Dy160 2.275 . S
O174 C162 1.254 . S
O175 Dy161 2.339 . S
O175 C162 1.257 . S
C176 C179 1.344 . S
C176 C180 1.328 1_554 S
C176 C182 1.516 . S
C177 C178 1.304 . S
C177 C181 1.323 1_554 S
C178 C177 1.304 . S
C178 C179 1.371 . S
C178 H192 0.930 . S
C179 C176 1.344 . S
C179 C178 1.371 . S
C179 H193 0.931 . S
C180 C176 1.328 1_556 S
C180 C181 1.433 . S
C180 H194 0.931 . S
C181 C177 1.323 1_556 S
C181 C180 1.433 . S
C181 H195 0.933 . S
C182 Dy160 2.738 . S
C182 O165 1.255 . S
C182 O166 1.249 1_554 S
C182 C176 1.516 . S
C183 O167 1.254 . S
C183 O168 1.257 . S
C184 O169 1.266 . S
C184 O170 1.231 1_554 S
C185 C188 1.344 1_554 S
C185 C189 1.328 . S
C185 C191 1.516 . S
C186 C187 1.304 1_554 S
C186 C190 1.323 . S
C187 C186 1.304 1_556 S
C187 C188 1.371 . S
C187 H196 0.930 . S
C188 C185 1.344 1_556 S
C188 C187 1.371 . S
C188 H197 0.931 . S
C189 C185 1.328 . S
C189 C190 1.433 . S
C189 H198 0.931 . S
C190 C186 1.323 . S
C190 C189 1.433 . S
C190 H199 0.933 . S
C191 Dy161 2.738 . S
C191 O171 1.255 1_554 S
C191 O172 1.249 . S
C191 C185 1.516 . S
H192 C178 0.930 . S
H193 C179 0.931 . S
H194 C180 0.931 . S
H195 C181 0.933 . S
H196 C187 0.930 . S
H197 C188 0.931 . S
H198 C189 0.931 . S
H199 C190 0.933 . S
Dy200 O203 2.307 . S
Dy200 O205 2.395 . S
Dy200 O206 2.379 1_554 S
Dy200 O208 2.339 1_554 S
Dy200 O210 2.298 1_554 S
Dy200 O214 2.275 . S
Dy200 C222 2.738 . S
Dy201 O204 2.298 . S
Dy201 O207 2.275 1_554 S
Dy201 O209 2.307 . S
Dy201 O211 2.395 1_554 S
Dy201 O212 2.379 . S
Dy201 O215 2.339 . S
Dy201 C231 2.738 . S
C202 O214 1.254 . S
C202 O215 1.257 . S
O203 Dy200 2.307 . S
O203 C213 1.266 . S
O204 Dy201 2.298 . S
O204 C213 1.236 . S
O205 Dy200 2.395 . S
O205 C222 1.255 . S
O206 Dy200 2.379 1_556 S
O206 C222 1.249 1_556 S
O207 Dy201 2.275 1_556 S
O207 C223 1.254 . S
O208 Dy200 2.339 1_556 S
O208 C223 1.257 . S
O209 Dy201 2.307 . S
O209 C224 1.266 . S
O210 Dy200 2.298 1_556 S
O210 C224 1.236 1_556 S
O211 Dy201 2.395 1_556 S
O211 C231 1.255 1_556 S
O212 Dy201 2.379 . S
O212 C231 1.249 . S
C213 O203 1.266 . S
C213 O204 1.236 . S
O214 Dy200 2.275 . S
O214 C202 1.254 . S
O215 Dy201 2.339 . S
O215 C202 1.257 . S
C216 C219 1.344 . S
C216 C220 1.328 1_554 S
C216 C222 1.516 . S
C217 C218 1.304 . S
C217 C221 1.323 1_554 S
C218 C217 1.304 . S
C218 C219 1.371 . S
C218 H232 0.930 . S
C219 C216 1.344 . S
C219 C218 1.371 . S
C219 H233 0.931 . S
C220 C216 1.328 1_556 S
C220 C221 1.433 . S
C220 H234 0.931 . S
C221 C217 1.323 1_556 S
C221 C220 1.433 . S
C221 H235 0.933 . S
C222 Dy200 2.738 . S
C222 O205 1.255 . S
C222 O206 1.249 1_554 S
C222 C216 1.516 . S
C223 O207 1.254 . S
C223 O208 1.257 . S
C224 O209 1.266 . S
C224 O210 1.236 1_554 S
C225 C228 1.344 1_554 S
C225 C229 1.328 . S
C225 C231 1.516 . S
C226 C227 1.304 1_554 S
C226 C230 1.323 . S
C227 C226 1.304 1_556 S
C227 C228 1.371 . S
C227 H236 0.930 . S
C228 C225 1.344 1_556 S
C228 C227 1.371 . S
C228 H237 0.931 . S
C229 C225 1.328 . S
C229 C230 1.433 . S
C229 H238 0.931 . S
C230 C226 1.323 . S
C230 C229 1.433 . S
C230 H239 0.933 . S
C231 Dy201 2.738 . S
C231 O211 1.255 1_554 S
C231 O212 1.249 . S
C231 C225 1.516 . S
H232 C218 0.930 . S
H233 C219 0.931 . S
H234 C220 0.931 . S
H235 C221 0.933 . S
H236 C227 0.930 . S
H237 C228 0.931 . S
H238 C229 0.931 . S
H239 C230 0.933 . S
Dy240 O243 2.307 . S
Dy240 O245 2.395 . S
Dy240 O246 2.379 . S
Dy240 O248 2.339 . S
Dy240 O250 2.298 . S
Dy240 O254 2.275 . S
Dy240 C262 2.738 . S
Dy241 O244 2.298 . S
Dy241 O247 2.275 . S
Dy241 O249 2.307 . S
Dy241 O251 2.395 . S
Dy241 O252 2.379 . S
Dy241 O255 2.339 . S
Dy241 C271 2.738 . S
C242 O254 1.254 . S
C242 O255 1.257 . S
O243 Dy240 2.307 . S
O243 C253 1.266 . S
O244 Dy241 2.298 . S
O244 C253 1.236 . S
O245 Dy240 2.395 . S
O245 C262 1.255 . S
O246 Dy240 2.379 . S
O246 C262 1.249 . S
O247 Dy241 2.275 . S
O247 C263 1.254 . S
O248 Dy240 2.339 . S
O248 C263 1.257 . S
O249 Dy241 2.307 . S
O249 C264 1.266 . S
O250 Dy240 2.298 . S
O250 C264 1.236 . S
O251 Dy241 2.395 . S
O251 C271 1.255 . S
O252 Dy241 2.379 . S
O252 C271 1.249 . S
C253 O243 1.266 . S
C253 O244 1.236 . S
O254 Dy240 2.275 . S
O254 C242 1.254 . S
O255 Dy241 2.339 . S
O255 C242 1.257 . S
C256 C259 1.344 . S
C256 C260 1.328 . S
C256 C262 1.516 . S
C257 C258 1.304 . S
C257 C261 1.323 . S
C258 C257 1.304 . S
C258 C259 1.371 . S
C258 H272 0.930 . S
C259 C256 1.344 . S
C259 C258 1.371 . S
C259 H273 0.931 . S
C260 C256 1.328 . S
C260 C261 1.433 . S
C260 H274 0.931 . S
C261 C257 1.323 . S
C261 C260 1.433 . S
C261 H275 0.933 . S
C262 Dy240 2.738 . S
C262 O245 1.255 . S
C262 O246 1.249 . S
C262 C256 1.516 . S
C263 O247 1.254 . S
C263 O248 1.257 . S
C264 O249 1.266 . S
C264 O250 1.236 . S
C265 C268 1.344 . S
C265 C269 1.328 . S
C265 C271 1.516 . S
C266 C267 1.304 . S
C266 C270 1.323 . S
C267 C266 1.304 . S
C267 C268 1.371 . S
C267 H276 0.930 . S
C268 C265 1.344 . S
C268 C267 1.371 . S
C268 H277 0.931 . S
C269 C265 1.328 . S
C269 C270 1.433 . S
C269 H278 0.931 . S
C270 C266 1.323 . S
C270 C269 1.433 . S
C270 H279 0.933 . S
C271 Dy241 2.738 . S
C271 O251 1.255 . S
C271 O252 1.249 . S
C271 C265 1.516 . S
H272 C258 0.930 . S
H273 C259 0.931 . S
H274 C260 0.931 . S
H275 C261 0.933 . S
H276 C267 0.930 . S
H277 C268 0.931 . S
H278 C269 0.931 . S
H279 C270 0.933 . S
Dy280 O283 2.307 . S
Dy280 O285 2.395 . S
Dy280 O286 2.379 . S
Dy280 O288 2.339 . S
Dy280 O290 2.298 . S
Dy280 O294 2.275 . S
Dy280 C302 2.738 . S
Dy281 O284 2.298 . S
Dy281 O287 2.275 . S
Dy281 O289 2.307 . S
Dy281 O291 2.395 . S
Dy281 O292 2.379 . S
Dy281 O295 2.339 . S
Dy281 C311 2.738 . S
C282 O294 1.254 . S
C282 O295 1.257 . S
O283 Dy280 2.307 . S
O283 C293 1.266 . S
O284 Dy281 2.298 . S
O284 C293 1.236 . S
O285 Dy280 2.395 . S
O285 C302 1.255 . S
O286 Dy280 2.379 . S
O286 C302 1.249 . S
O287 Dy281 2.275 . S
O287 C303 1.254 . S
O288 Dy280 2.339 . S
O288 C303 1.257 . S
O289 Dy281 2.307 . S
O289 C304 1.266 . S
O290 Dy280 2.298 . S
O290 C304 1.236 . S
O291 Dy281 2.395 . S
O291 C311 1.255 . S
O292 Dy281 2.379 . S
O292 C311 1.249 . S
C293 O283 1.266 . S
C293 O284 1.236 . S
O294 Dy280 2.275 . S
O294 C282 1.254 . S
O295 Dy281 2.339 . S
O295 C282 1.257 . S
C296 C299 1.344 . S
C296 C300 1.328 . S
C296 C302 1.516 . S
C297 C298 1.304 . S
C297 C301 1.323 . S
C298 C297 1.304 . S
C298 C299 1.371 . S
C298 H312 0.930 . S
C299 C296 1.344 . S
C299 C298 1.371 . S
C299 H313 0.931 . S
C300 C296 1.328 . S
C300 C301 1.433 . S
C300 H314 0.931 . S
C301 C297 1.323 . S
C301 C300 1.433 . S
C301 H315 0.933 . S
C302 Dy280 2.738 . S
C302 O285 1.255 . S
C302 O286 1.249 . S
C302 C296 1.516 . S
C303 O287 1.254 . S
C303 O288 1.257 . S
C304 O289 1.266 . S
C304 O290 1.236 . S
C305 C308 1.344 . S
C305 C309 1.328 . S
C305 C311 1.516 . S
C306 C307 1.304 . S
C306 C310 1.323 . S
C307 C306 1.304 . S
C307 C308 1.371 . S
C307 H316 0.930 . S
C308 C305 1.344 . S
C308 C307 1.371 . S
C308 H317 0.931 . S
C309 C305 1.328 . S
C309 C310 1.433 . S
C309 H318 0.931 . S
C310 C306 1.323 . S
C310 C309 1.433 . S
C310 H319 0.933 . S
C311 Dy281 2.738 . S
C311 O291 1.255 . S
C311 O292 1.249 . S
C311 C305 1.516 . S
H312 C298 0.930 . S
H313 C299 0.931 . S
H314 C300 0.931 . S
H315 C301 0.933 . S
H316 C307 0.930 . S
H317 C308 0.931 . S
H318 C309 0.931 . S
H319 C310 0.933 . S
H320 C326 0.930 . S
H321 C330 0.930 . S
H322 C335 0.929 . S
H323 C333 0.929 . S
H324 C328 0.929 . S
H325 C334 0.929 . S
C326 H320 0.930 . S
C326 C327 1.367 1_556 S
C326 C334 1.378 . S
C327 C326 1.367 1_554 S
C327 C335 1.433 . S
C328 H324 0.929 . S
C328 C330 1.378 . S
C328 C332 1.350 . S
C329 C332 1.463 . S
C329 C334 1.350 1_554 S
C329 N337 1.427 . S
C330 H321 0.930 . S
C330 C328 1.378 . S
C330 C331 1.367 . S
C331 C330 1.367 . S
C331 C333 1.433 1_554 S
C332 C328 1.350 . S
C332 C329 1.463 . S
C332 N336 1.427 1_554 S
C333 H323 0.929 . S
C333 C331 1.433 1_556 S
C333 N336 1.384 . S
C334 H325 0.929 . S
C334 C326 1.378 . S
C334 C329 1.350 1_556 S
C335 H322 0.929 . S
C335 C327 1.433 . S
C335 N337 1.384 . S
N336 C332 1.427 1_556 S
N336 C333 1.384 . S
N337 C329 1.427 . S
N337 C335 1.384 . S
H338 C344 0.930 . S
H339 C348 0.930 . S
H340 C353 0.929 . S
H341 C351 0.929 . S
H342 C346 0.929 . S
H343 C352 0.929 . S
C344 H338 0.930 . S
C344 C345 1.367 1_556 S
C344 C352 1.378 . S
C345 C344 1.367 1_554 S
C345 C353 1.433 . S
C346 H342 0.929 . S
C346 C348 1.378 . S
C346 C350 1.350 . S
C347 C350 1.463 . S
C347 C352 1.350 1_554 S
C347 N355 1.427 . S
C348 H339 0.930 . S
C348 C346 1.378 . S
C348 C349 1.367 . S
C349 C348 1.367 . S
C349 C351 1.433 1_554 S
C350 C346 1.350 . S
C350 C347 1.463 . S
C350 N354 1.427 1_554 S
C351 H341 0.929 . S
C351 C349 1.433 1_556 S
C351 N354 1.384 . S
C352 H343 0.929 . S
C352 C344 1.378 . S
C352 C347 1.350 1_556 S
C353 H340 0.929 . S
C353 C345 1.433 . S
C353 N355 1.384 . S
N354 C350 1.427 1_556 S
N354 C351 1.384 . S
N355 C347 1.427 . S
N355 C353 1.384 . S
H356 C362 0.930 . S
H357 C366 0.930 . S
H358 C371 0.929 . S
H359 C369 0.929 . S
H360 C364 0.929 . S
H361 C370 0.929 . S
C362 H356 0.930 . S
C362 C363 1.367 . S
C362 C370 1.378 . S
C363 C362 1.367 . S
C363 C371 1.433 . S
C364 H360 0.929 . S
C364 C366 1.378 . S
C364 C368 1.350 . S
C365 C368 1.463 . S
C365 C370 1.350 . S
C365 N373 1.427 . S
C366 H357 0.930 . S
C366 C364 1.378 . S
C366 C367 1.367 . S
C367 C366 1.367 . S
C367 C369 1.433 . S
C368 C364 1.350 . S
C368 C365 1.463 . S
C368 N372 1.427 . S
C369 H359 0.929 . S
C369 C367 1.433 . S
C369 N372 1.384 . S
C370 H361 0.929 . S
C370 C362 1.378 . S
C370 C365 1.350 . S
C371 H358 0.929 . S
C371 C363 1.433 . S
C371 N373 1.384 . S
N372 C368 1.427 . S
N372 C369 1.384 . S
N373 C365 1.427 . S
N373 C371 1.384 . S
H374 C380 0.930 . S
H375 C384 0.930 . S
H376 C389 0.929 . S
H377 C387 0.929 . S
H378 C382 0.929 . S
H379 C388 0.929 . S
C380 H374 0.930 . S
C380 C381 1.367 . S
C380 C388 1.378 . S
C381 C380 1.367 . S
C381 C389 1.433 . S
C382 H378 0.929 . S
C382 C384 1.378 . S
C382 C386 1.350 . S
C383 C386 1.463 . S
C383 C388 1.350 . S
C383 N391 1.427 . S
C384 H375 0.930 . S
C384 C382 1.378 . S
C384 C385 1.367 . S
C385 C384 1.367 . S
C385 C387 1.433 . S
C386 C382 1.350 . S
C386 C383 1.463 . S
C386 N390 1.427 . S
C387 H377 0.929 . S
C387 C385 1.433 . S
C387 N390 1.384 . S
C388 H379 0.929 . S
C388 C380 1.378 . S
C388 C383 1.350 . S
C389 H376 0.929 . S
C389 C381 1.433 . S
C389 N391 1.384 . S
N390 C386 1.427 . S
N390 C387 1.384 . S
N391 C383 1.427 . S
N391 C389 1.384 . S
H392 C398 0.930 . S
H393 C402 0.930 . S
H394 C407 0.929 . S
H395 C405 0.929 . S
H396 C400 0.929 . S
H397 C406 0.929 1_455 S
C398 H392 0.930 . S
C398 C399 1.367 . S
C398 C406 1.378 . S
C399 C398 1.367 . S
C399 C407 1.433 . S
C400 H396 0.929 . S
C400 C402 1.378 . S
C400 C404 1.350 . S
C401 C404 1.463 . S
C401 C406 1.350 1_455 S
C401 N409 1.427 1_455 S
C402 H393 0.930 . S
C402 C400 1.378 . S
C402 C403 1.367 . S
C403 C402 1.367 . S
C403 C405 1.433 . S
C404 C400 1.350 . S
C404 C401 1.463 . S
C404 N408 1.427 . S
C405 H395 0.929 . S
C405 C403 1.433 . S
C405 N408 1.384 . S
C406 H397 0.929 1_655 S
C406 C398 1.378 . S
C406 C401 1.350 1_655 S
C407 H394 0.929 . S
C407 C399 1.433 . S
C407 N409 1.384 . S
N408 C404 1.427 . S
N408 C405 1.384 . S
N409 C401 1.427 1_655 S
N409 C407 1.384 . S
H410 C416 0.930 . S
H411 C420 0.930 . S
H412 C425 0.929 . S
H413 C423 0.929 . S
H414 C418 0.929 . S
H415 C424 0.929 1_655 S
C416 H410 0.930 . S
C416 C417 1.367 . S
C416 C424 1.378 . S
C417 C416 1.367 . S
C417 C425 1.433 1_554 S
C418 H414 0.929 . S
C418 C420 1.378 . S
C418 C422 1.350 1_556 S
C419 C422 1.463 . S
C419 C424 1.350 1_655 S
C419 N427 1.427 1_654 S
C420 H411 0.930 . S
C420 C418 1.378 . S
C420 C421 1.367 1_556 S
C421 C420 1.367 1_554 S
C421 C423 1.433 . S
C422 C418 1.350 1_554 S
C422 C419 1.463 . S
C422 N426 1.427 . S
C423 H413 0.929 . S
C423 C421 1.433 . S
C423 N426 1.384 . S
C424 H415 0.929 1_455 S
C424 C416 1.378 . S
C424 C419 1.350 1_455 S
C425 H412 0.929 . S
C425 C417 1.433 1_556 S
C425 N427 1.384 . S
N426 C422 1.427 . S
N426 C423 1.384 . S
N427 C419 1.427 1_456 S
N427 C425 1.384 . S
H428 C434 0.930 . S
H429 C438 0.930 . S
H430 C443 0.929 . S
H431 C441 0.929 . S
H432 C436 0.929 1_455 S
H433 C442 0.929 . S
C434 H428 0.930 . S
C434 C435 1.367 . S
C434 C442 1.378 . S
C435 C434 1.367 . S
C435 C443 1.433 . S
C436 H432 0.929 1_655 S
C436 C438 1.378 . S
C436 C440 1.350 1_655 S
C437 C440 1.463 . S
C437 C442 1.350 . S
C437 N445 1.427 . S
C438 H429 0.930 . S
C438 C436 1.378 . S
C438 C439 1.367 . S
C439 C438 1.367 . S
C439 C441 1.433 . S
C440 C436 1.350 1_455 S
C440 C437 1.463 . S
C440 N444 1.427 1_455 S
C441 H431 0.929 . S
C441 C439 1.433 . S
C441 N444 1.384 . S
C442 H433 0.929 . S
C442 C434 1.378 . S
C442 C437 1.350 . S
C443 H430 0.929 . S
C443 C435 1.433 . S
C443 N445 1.384 . S
N444 C440 1.427 1_655 S
N444 C441 1.384 . S
N445 C437 1.427 . S
N445 C443 1.384 . S
H446 C452 0.930 . S
H447 C456 0.930 . S
H448 C461 0.929 . S
H449 C459 0.929 . S
H450 C454 0.929 . S
H451 C460 0.929 . S
C452 H446 0.930 . S
C452 C453 1.367 . S
C452 C460 1.378 . S
C453 C452 1.367 . S
C453 C461 1.433 . S
C454 H450 0.929 . S
C454 C456 1.378 . S
C454 C458 1.350 1_455 S
C455 C458 1.463 . S
C455 C460 1.350 . S
C455 N463 1.427 . S
C456 H447 0.930 . S
C456 C454 1.378 . S
C456 C457 1.367 . S
C457 C456 1.367 . S
C457 C459 1.433 . S
C458 C454 1.350 1_655 S
C458 C455 1.463 . S
C458 N462 1.427 1_655 S
C459 H449 0.929 . S
C459 C457 1.433 . S
C459 N462 1.384 . S
C460 H451 0.929 . S
C460 C452 1.378 . S
C460 C455 1.350 . S
C461 H448 0.929 . S
C461 C453 1.433 . S
C461 N463 1.384 . S
N462 C458 1.427 1_455 S
N462 C459 1.384 . S
N463 C455 1.427 . S
N463 C461 1.384 . S
H464 C470 0.930 . S
H465 C474 0.930 . S
H466 C479 0.929 . S
H467 C477 0.929 . S
H468 C472 0.929 . S
H469 C478 0.929 . S
C470 H464 0.930 . S
C470 C471 1.367 1_556 S
C470 C478 1.378 . S
C471 C470 1.367 1_554 S
C471 C479 1.433 . S
C472 H468 0.929 . S
C472 C474 1.378 . S
C472 C476 1.350 . S
C473 C476 1.463 1_455 S
C473 C478 1.350 1_554 S
C473 N481 1.427 1_455 S
C474 H465 0.930 . S
C474 C472 1.378 . S
C474 C475 1.367 . S
C475 C474 1.367 . S
C475 C477 1.433 1_554 S
C476 C472 1.350 . S
C476 C473 1.463 1_655 S
C476 N480 1.427 1_654 S
C477 H467 0.929 . S
C477 C475 1.433 1_556 S
C477 N480 1.384 1_655 S
C478 H469 0.929 . S
C478 C470 1.378 . S
C478 C473 1.350 1_556 S
C479 H466 0.929 . S
C479 C471 1.433 . S
C479 N481 1.384 1_455 S
N480 C476 1.427 1_456 S
N480 C477 1.384 1_455 S
N481 C473 1.427 1_655 S
N481 C479 1.384 1_655 S
H482 C488 0.930 . S
H483 C492 0.930 . S
H484 C497 0.929 . S
H485 C495 0.929 . S
H486 C490 0.929 . S
H487 C496 0.929 . S
C488 H482 0.930 . S
C488 C489 1.367 1_655 S
C488 C496 1.378 . S
C489 C488 1.367 1_455 S
C489 C497 1.433 . S
C490 H486 0.929 . S
C490 C492 1.378 . S
C490 C494 1.350 1_455 S
C491 C494 1.463 1_455 S
C491 C496 1.350 1_455 S
C491 N499 1.427 . S
C492 H483 0.930 . S
C492 C490 1.378 . S
C492 C493 1.367 1_455 S
C493 C492 1.367 1_655 S
C493 C495 1.433 . S
C494 C490 1.350 1_655 S
C494 C491 1.463 1_655 S
C494 N498 1.427 . S
C495 H485 0.929 . S
C495 C493 1.433 . S
C495 N498 1.384 . S
C496 H487 0.929 . S
C496 C488 1.378 . S
C496 C491 1.350 1_655 S
C497 H484 0.929 . S
C497 C489 1.433 . S
C497 N499 1.384 . S
N498 C494 1.427 . S
N498 C495 1.384 . S
N499 C491 1.427 . S
N499 C497 1.384 . S
H500 C506 0.930 . S
H501 C510 0.929 1_556 S
H502 C515 0.929 . S
H503 C513 0.929 . S
H504 C508 0.929 1_556 S
H505 C514 0.929 . S
C506 H500 0.930 . S
C506 C507 1.367 . S
C506 C514 1.378 . S
C507 C506 1.367 . S
C507 C515 1.433 . S
C508 H504 0.929 1_554 S
C508 C510 1.378 . S
C508 C512 1.350 . S
C509 C512 1.463 1_565 S
C509 C514 1.350 . S
C509 N517 1.427 . S
C510 H501 0.929 1_554 S
C510 C508 1.378 . S
C510 C511 1.368 . S
C511 C510 1.368 . S
C511 C513 1.433 . S
C512 C508 1.350 . S
C512 C509 1.463 1_545 S
C512 N516 1.427 . S
C513 H503 0.929 . S
C513 C511 1.433 . S
C513 N516 1.384 . S
C514 H505 0.929 . S
C514 C506 1.378 . S
C514 C509 1.350 . S
C515 H502 0.929 . S
C515 C507 1.433 . S
C515 N517 1.384 . S
N516 C512 1.427 . S
N516 C513 1.384 . S
N517 C509 1.427 . S
N517 C515 1.384 . S
H518 C524 0.930 . S
H519 C528 0.930 . S
H520 C533 0.929 . S
H521 C531 0.929 . S
H522 C526 0.929 . S
H523 C532 0.929 . S
C524 H518 0.930 . S
C524 C525 1.367 . S
C524 C532 1.378 . S
C525 C524 1.367 . S
C525 C533 1.433 . S
C526 H522 0.929 . S
C526 C528 1.378 . S
C526 C530 1.350 . S
C527 C530 1.463 1_545 S
C527 C532 1.350 . S
C527 N535 1.427 . S
C528 H519 0.930 . S
C528 C526 1.378 . S
C528 C529 1.367 . S
C529 C528 1.367 . S
C529 C531 1.433 . S
C530 C526 1.350 . S
C530 C527 1.463 1_565 S
C530 N534 1.427 . S
C531 H521 0.929 . S
C531 C529 1.433 . S
C531 N534 1.384 . S
C532 H523 0.929 . S
C532 C524 1.378 . S
C532 C527 1.350 . S
C533 H520 0.929 . S
C533 C525 1.433 . S
C533 N535 1.384 . S
N534 C530 1.427 . S
N534 C531 1.384 . S
N535 C527 1.427 . S
N535 C533 1.384 . S
H536 C542 0.930 . S
H537 C546 0.930 . S
H538 C551 0.929 . S
H539 C549 0.929 . S
H540 C544 0.929 . S
H541 C550 0.929 . S
C542 H536 0.930 . S
C542 C543 1.367 1_556 S
C542 C550 1.378 . S
C543 C542 1.367 1_554 S
C543 C551 1.433 . S
C544 H540 0.929 . S
C544 C546 1.378 . S
C544 C548 1.350 . S
C545 C548 1.463 . S
C545 C550 1.350 1_554 S
C545 N553 1.427 . S
C546 H537 0.930 . S
C546 C544 1.378 . S
C546 C547 1.367 . S
C547 C546 1.367 . S
C547 C549 1.433 1_554 S
C548 C544 1.350 . S
C548 C545 1.463 . S
C548 N552 1.427 1_554 S
C549 H539 0.929 . S
C549 C547 1.433 1_556 S
C549 N552 1.384 . S
C550 H541 0.929 . S
C550 C542 1.378 . S
C550 C545 1.350 1_556 S
C551 H538 0.929 . S
C551 C543 1.433 . S
C551 N553 1.384 . S
N552 C548 1.427 1_556 S
N552 C549 1.384 . S
N553 C545 1.427 . S
N553 C551 1.384 . S
H554 C560 0.929 1_556 S
H555 C564 0.930 . S
H556 C569 0.929 . S
H557 C567 0.929 . S
H558 C562 0.929 . S
H559 C568 0.929 1_556 S
C560 H554 0.929 1_554 S
C560 C561 1.369 . S
C560 C568 1.377 . S
C561 C560 1.369 . S
C561 C569 1.433 . S
C562 H558 0.929 . S
C562 C564 1.378 . S
C562 C566 1.350 . S
C563 C566 1.463 . S
C563 C568 1.350 . S
C563 N571 1.427 . S
C564 H555 0.930 . S
C564 C562 1.378 . S
C564 C565 1.367 . S
C565 C564 1.367 . S
C565 C567 1.433 . S
C566 C562 1.350 . S
C566 C563 1.463 . S
C566 N570 1.427 . S
C567 H557 0.929 . S
C567 C565 1.433 . S
C567 N570 1.384 . S
C568 H559 0.929 1_554 S
C568 C560 1.377 . S
C568 C563 1.350 . S
C569 H556 0.929 . S
C569 C561 1.433 . S
C569 N571 1.384 . S
N570 C566 1.427 . S
N570 C567 1.384 . S
N571 C563 1.427 . S
N571 C569 1.384 . S
H572 C578 0.930 . S
H573 C582 0.930 . S
H574 C587 0.929 . S
H575 C585 0.929 . S
H576 C580 0.929 . S
H577 C586 0.929 . S
C578 H572 0.930 . S
C578 C579 1.367 . S
C578 C586 1.378 . S
C579 C578 1.367 . S
C579 C587 1.433 . S
C580 H576 0.929 . S
C580 C582 1.378 . S
C580 C584 1.350 . S
C581 C584 1.463 . S
C581 C586 1.350 . S
C581 N589 1.427 . S
C582 H573 0.930 . S
C582 C580 1.378 . S
C582 C583 1.367 . S
C583 C582 1.367 . S
C583 C585 1.433 . S
C584 C580 1.350 . S
C584 C581 1.463 . S
C584 N588 1.427 . S
C585 H575 0.929 . S
C585 C583 1.433 . S
C585 N588 1.384 . S
C586 H577 0.929 . S
C586 C578 1.378 . S
C586 C581 1.350 . S
C587 H574 0.929 . S
C587 C579 1.433 . S
C587 N589 1.384 . S
N588 C584 1.427 . S
N588 C585 1.384 . S
N589 C581 1.427 . S
N589 C587 1.384 . S
H590 C596 0.930 . S
H591 C600 0.930 . S
H592 C605 0.929 . S
H593 C603 0.929 . S
H594 C598 0.929 . S
H595 C604 0.929 . S
C596 H590 0.930 . S
C596 C597 1.367 . S
C596 C604 1.378 . S
C597 C596 1.367 . S
C597 C605 1.433 . S
C598 H594 0.929 . S
C598 C600 1.378 . S
C598 C602 1.350 . S
C599 C602 1.463 . S
C599 C604 1.350 . S
C599 N607 1.427 . S
C600 H591 0.930 . S
C600 C598 1.378 . S
C600 C601 1.367 . S
C601 C600 1.367 . S
C601 C603 1.433 . S
C602 C598 1.350 . S
C602 C599 1.463 . S
C602 N606 1.427 . S
C603 H593 0.929 . S
C603 C601 1.433 . S
C603 N606 1.384 . S
C604 H595 0.929 . S
C604 C596 1.378 . S
C604 C599 1.350 . S
C605 H592 0.929 . S
C605 C597 1.433 . S
C605 N607 1.384 . S
N606 C602 1.427 . S
N606 C603 1.384 . S
N607 C599 1.427 . S
N607 C605 1.384 . S
H608 C614 0.930 . S
H609 C618 0.930 . S
H610 C623 0.929 . S
H611 C621 0.929 1_455 S
H612 C616 0.929 . S
H613 C622 0.929 . S
C614 H608 0.930 . S
C614 C615 1.367 . S
C614 C622 1.378 . S
C615 C614 1.367 . S
C615 C623 1.433 1_455 S
C616 H612 0.929 . S
C616 C618 1.378 . S
C616 C620 1.350 . S
C617 C620 1.463 1_455 S
C617 C622 1.350 . S
C617 N625 1.427 1_455 S
C618 H609 0.930 . S
C618 C616 1.378 . S
C618 C619 1.367 . S
C619 C618 1.367 . S
C619 C621 1.433 . S
C620 C616 1.350 . S
C620 C617 1.463 1_655 S
C620 N624 1.427 1_655 S
C621 H611 0.929 1_655 S
C621 C619 1.433 . S
C621 N624 1.384 1_655 S
C622 H613 0.929 . S
C622 C614 1.378 . S
C622 C617 1.350 . S
C623 H610 0.929 . S
C623 C615 1.433 1_655 S
C623 N625 1.384 . S
N624 C620 1.427 1_455 S
N624 C621 1.384 1_455 S
N625 C617 1.427 1_655 S
N625 C623 1.384 . S
H626 C632 0.930 . S
H627 C636 0.930 . S
H628 C641 0.929 . S
H629 C639 0.929 . S
H630 C634 0.929 . S
H631 C640 0.929 . S
C632 H626 0.930 . S
C632 C633 1.367 . S
C632 C640 1.378 . S
C633 C632 1.367 . S
C633 C641 1.433 1_655 S
C634 H630 0.929 . S
C634 C636 1.378 . S
C634 C638 1.350 . S
C635 C638 1.463 1_655 S
C635 C640 1.350 . S
C635 N643 1.427 1_655 S
C636 H627 0.930 . S
C636 C634 1.378 . S
C636 C637 1.367 . S
C637 C636 1.367 . S
C637 C639 1.433 1_455 S
C638 C634 1.350 . S
C638 C635 1.463 1_455 S
C638 N642 1.427 1_455 S
C639 H629 0.929 . S
C639 C637 1.433 1_655 S
C639 N642 1.384 . S
C640 H631 0.929 . S
C640 C632 1.378 . S
C640 C635 1.350 . S
C641 H628 0.929 . S
C641 C633 1.433 1_455 S
C641 N643 1.384 . S
N642 C638 1.427 1_655 S
N642 C639 1.384 . S
N643 C635 1.427 1_455 S
N643 C641 1.384 . S
H644 C650 0.934 . S
H645 C654 0.930 . S
H646 C659 0.929 . S
H647 C657 0.929 . S
H648 C652 0.929 . S
H649 C658 0.929 . S
C650 H644 0.934 . S
C650 C651 1.360 1_455 S
C650 C658 1.381 . S
C651 C650 1.360 1_655 S
C651 C659 1.433 . S
C652 H648 0.929 . S
C652 C654 1.378 . S
C652 C656 1.350 1_655 S
C653 C656 1.463 1_655 S
C653 C658 1.350 1_655 S
C653 N661 1.427 . S
C654 H645 0.930 . S
C654 C652 1.378 . S
C654 C655 1.367 1_655 S
C655 C654 1.367 1_455 S
C655 C657 1.433 . S
C656 C652 1.350 1_455 S
C656 C653 1.463 1_455 S
C656 N660 1.427 . S
C657 H647 0.929 . S
C657 C655 1.433 . S
C657 N660 1.384 . S
C658 H649 0.929 . S
C658 C650 1.381 . S
C658 C653 1.350 1_455 S
C659 H646 0.929 . S
C659 C651 1.433 . S
C659 N661 1.384 . S
N660 C656 1.427 . S
N660 C657 1.384 . S
N661 C653 1.427 . S
N661 C659 1.384 . S
H662 C668 0.930 . S
H663 C672 0.930 . S
H664 C677 0.929 . S
H665 C675 0.929 . S
H666 C670 0.929 1_655 S
H667 C676 0.929 . S
C668 H662 0.930 . S
C668 C669 1.367 1_455 S
C668 C676 1.378 . S
C669 C668 1.367 1_655 S
C669 C677 1.433 . S
C670 H666 0.929 1_455 S
C670 C672 1.378 . S
C670 C674 1.350 . S
C671 C674 1.463 . S
C671 C676 1.350 . S
C671 N679 1.427 1_455 S
C672 H663 0.930 . S
C672 C670 1.378 . S
C672 C673 1.367 . S
C673 C672 1.367 . S
C673 C675 1.433 . S
C674 C670 1.350 . S
C674 C671 1.463 . S
C674 N678 1.427 . S
C675 H665 0.929 . S
C675 C673 1.433 . S
C675 N678 1.384 . S
C676 H667 0.929 . S
C676 C668 1.378 . S
C676 C671 1.350 . S
C677 H664 0.929 . S
C677 C669 1.433 . S
C677 N679 1.384 . S
N678 C674 1.427 . S
N678 C675 1.384 . S
N679 C671 1.427 1_655 S
N679 C677 1.384 . S
H680 C686 0.930 . S
H681 C690 0.930 . S
H682 C695 0.929 . S
H683 C693 0.929 . S
H684 C688 0.929 . S
H685 C694 0.929 . S
C686 H680 0.930 . S
C686 C687 1.367 . S
C686 C694 1.378 . S
C687 C686 1.367 . S
C687 C695 1.433 . S
C688 H684 0.929 . S
C688 C690 1.378 . S
C688 C692 1.350 . S
C689 C692 1.463 . S
C689 C694 1.350 . S
C689 N697 1.427 . S
C690 H681 0.930 . S
C690 C688 1.378 . S
C690 C691 1.367 . S
C691 C690 1.367 . S
C691 C693 1.433 . S
C692 C688 1.350 . S
C692 C689 1.463 . S
C692 N696 1.427 . S
C693 H683 0.929 . S
C693 C691 1.433 . S
C693 N696 1.384 . S
C694 H685 0.929 . S
C694 C686 1.378 . S
C694 C689 1.350 . S
C695 H682 0.929 . S
C695 C687 1.433 . S
C695 N697 1.384 . S
N696 C692 1.427 . S
N696 C693 1.384 . S
N697 C689 1.427 . S
N697 C695 1.384 . S
H698 C704 0.930 . S
H699 C708 0.930 . S
H700 C713 0.929 . S
H701 C711 0.929 . S
H702 C706 0.929 . S
H703 C712 0.929 . S
C704 H698 0.930 . S
C704 C705 1.367 . S
C704 C712 1.378 . S
C705 C704 1.367 . S
C705 C713 1.433 . S
C706 H702 0.929 . S
C706 C708 1.378 . S
C706 C710 1.350 . S
C707 C710 1.463 . S
C707 C712 1.350 . S
C707 N715 1.427 . S
C708 H699 0.930 . S
C708 C706 1.378 . S
C708 C709 1.367 . S
C709 C708 1.367 . S
C709 C711 1.433 . S
C710 C706 1.350 . S
C710 C707 1.463 . S
C710 N714 1.427 . S
C711 H701 0.929 . S
C711 C709 1.433 . S
C711 N714 1.384 . S
C712 H703 0.929 . S
C712 C704 1.378 . S
C712 C707 1.350 . S
C713 H700 0.929 . S
C713 C705 1.433 . S
C713 N715 1.384 . S
N714 C710 1.427 . S
N714 C711 1.384 . S
N715 C707 1.427 . S
N715 C713 1.384 . S
H716 C722 0.930 . S
H717 C726 0.930 . S
H718 C731 0.929 . S
H719 C729 0.929 . S
H720 C724 0.929 . S
H721 C730 0.929 . S
C722 H716 0.930 . S
C722 C723 1.367 . S
C722 C730 1.378 . S
C723 C722 1.367 . S
C723 C731 1.433 . S
C724 H720 0.929 . S
C724 C726 1.378 . S
C724 C728 1.350 . S
C725 C728 1.463 . S
C725 C730 1.350 . S
C725 N733 1.427 . S
C726 H717 0.930 . S
C726 C724 1.378 . S
C726 C727 1.367 . S
C727 C726 1.367 . S
C727 C729 1.433 . S
C728 C724 1.350 . S
C728 C725 1.463 . S
C728 N732 1.427 . S
C729 H719 0.929 . S
C729 C727 1.433 . S
C729 N732 1.384 . S
C730 H721 0.929 . S
C730 C722 1.378 . S
C730 C725 1.350 . S
C731 H718 0.929 . S
C731 C723 1.433 . S
C731 N733 1.384 . S
N732 C728 1.427 . S
N732 C729 1.384 . S
N733 C725 1.427 . S
N733 C731 1.384 . S
H734 C740 0.930 . S
H735 C744 0.930 . S
H736 C749 0.929 . S
H737 C747 0.929 . S
H738 C742 0.929 . S
H739 C748 0.929 . S
C740 H734 0.930 . S
C740 C741 1.367 . S
C740 C748 1.378 . S
C741 C740 1.367 . S
C741 C749 1.433 . S
C742 H738 0.929 . S
C742 C744 1.378 . S
C742 C746 1.350 . S
C743 C746 1.463 . S
C743 C748 1.350 . S
C743 N751 1.427 . S
C744 H735 0.930 . S
C744 C742 1.378 . S
C744 C745 1.367 . S
C745 C744 1.367 . S
C745 C747 1.433 . S
C746 C742 1.350 . S
C746 C743 1.463 . S
C746 N750 1.427 . S
C747 H737 0.929 . S
C747 C745 1.433 . S
C747 N750 1.384 . S
C748 H739 0.929 . S
C748 C740 1.378 . S
C748 C743 1.350 . S
C749 H736 0.929 . S
C749 C741 1.433 . S
C749 N751 1.384 . S
N750 C746 1.427 . S
N750 C747 1.384 . S
N751 C743 1.427 . S
N751 C749 1.384 . S
C327 C13 2.095 . S
C331 C24 2.095 . S
C345 C53 2.095 . S
C349 C64 2.095 . S
C363 C93 2.091 . S
C367 C104 2.091 . S
C381 C144 2.110 . S
C385 C133 2.110 . S
C399 C173 2.100 . S
C403 C184 2.100 . S
C417 C224 2.100 . S
C421 C213 2.100 . S
C435 C253 2.098 . S
C439 C264 2.098 . S
C453 C293 2.112 . S
C457 C304 2.112 . S
C471 C66 2.325 . S
C475 C17 2.325 . S
C489 C146 2.331 . S
C493 C106 2.331 . S
C507 C177 2.315 . S
C511 C226 2.315 . S
C525 C266 2.340 . S
C529 C306 2.340 . S
C543 C26 1.677 . S
C547 C217 1.677 . S
C561 C186 1.674 . S
C565 C57 1.674 . S
C579 C97 1.699 . S
C583 C297 1.698 . S
C597 C137 1.698 . S
C601 C257 1.699 . S
C615 C2 1.640 . S
C619 C122 1.614 . S
C633 C42 1.521 . S
C637 C82 1.488 . S
C651 C63 1.610 . S
C655 C103 1.575 . S
C669 C143 1.466 . S
C673 C23 1.456 . S
C687 C162 1.649 . S
C691 C282 1.623 . S
C705 C202 1.518 . S
C709 C242 1.491 . S
C723 C223 1.603 . S
C727 C263 1.589 . S
C741 C303 1.467 . S
C745 C183 1.456 . S
