# Generated by pormake.
# Topology neb, (4)-cn, num edge types: 1
# Building blocks:
#     Node 0, Type 0, BuildingBlock: AZAVOO_clean_sbu_0, # of connection points: 4
#     Node 1, Type 0, BuildingBlock: AZAVOO_clean_sbu_0, # of connection points: 4
#     Node 2, Type 0, BuildingBlock: AZAVOO_clean_sbu_0, # of connection points: 4
#     Node 3, Type 0, BuildingBlock: AZAVOO_clean_sbu_0, # of connection points: 4
#     Node 4, Type 0, BuildingBlock: AZAVOO_clean_sbu_0, # of connection points: 4
#     Node 5, Type 0, BuildingBlock: AZAVOO_clean_sbu_0, # of connection points: 4
#     Node 6, Type 0, BuildingBlock: AZAVOO_clean_sbu_0, # of connection points: 4
#     Node 7, Type 0, BuildingBlock: AZAVOO_clean_sbu_0, # of connection points: 4
#     Node 8, Type 0, BuildingBlock: AZAVOO_clean_sbu_0, # of connection points: 4
#     Node 9, Type 0, BuildingBlock: AZAVOO_clean_sbu_0, # of connection points: 4
#     Node 10, Type 0, BuildingBlock: AZAVOO_clean_sbu_0, # of connection points: 4
#     Node 11, Type 0, BuildingBlock: AZAVOO_clean_sbu_0, # of connection points: 4
#     Node 12, Type 0, BuildingBlock: AZAVOO_clean_sbu_0, # of connection points: 4
#     Node 13, Type 0, BuildingBlock: AZAVOO_clean_sbu_0, # of connection points: 4
#     Node 14, Type 0, BuildingBlock: AZAVOO_clean_sbu_0, # of connection points: 4
#     Node 15, Type 0, BuildingBlock: AZAVOO_clean_sbu_0, # of connection points: 4
#     Edge 16, Type (0, 0), BuildingBlock: CIFDUS_clean_linker_0, # of connection points: 2
#     Edge 17, Type (0, 0), BuildingBlock: CIFDUS_clean_linker_0, # of connection points: 2
#     Edge 18, Type (0, 0), BuildingBlock: CIFDUS_clean_linker_0, # of connection points: 2
#     Edge 19, Type (0, 0), BuildingBlock: CIFDUS_clean_linker_0, # of connection points: 2
#     Edge 20, Type (0, 0), BuildingBlock: CIFDUS_clean_linker_0, # of connection points: 2
#     Edge 21, Type (0, 0), BuildingBlock: CIFDUS_clean_linker_0, # of connection points: 2
#     Edge 22, Type (0, 0), BuildingBlock: CIFDUS_clean_linker_0, # of connection points: 2
#     Edge 23, Type (0, 0), BuildingBlock: CIFDUS_clean_linker_0, # of connection points: 2
#     Edge 24, Type (0, 0), BuildingBlock: CIFDUS_clean_linker_0, # of connection points: 2
#     Edge 25, Type (0, 0), BuildingBlock: CIFDUS_clean_linker_0, # of connection points: 2
#     Edge 26, Type (0, 0), BuildingBlock: CIFDUS_clean_linker_0, # of connection points: 2
#     Edge 27, Type (0, 0), BuildingBlock: CIFDUS_clean_linker_0, # of connection points: 2
#     Edge 28, Type (0, 0), BuildingBlock: CIFDUS_clean_linker_0, # of connection points: 2
#     Edge 29, Type (0, 0), BuildingBlock: CIFDUS_clean_linker_0, # of connection points: 2
#     Edge 30, Type (0, 0), BuildingBlock: CIFDUS_clean_linker_0, # of connection points: 2
#     Edge 31, Type (0, 0), BuildingBlock: CIFDUS_clean_linker_0, # of connection points: 2
#     Edge 32, Type (0, 0), BuildingBlock: CIFDUS_clean_linker_0, # of connection points: 2
#     Edge 33, Type (0, 0), BuildingBlock: CIFDUS_clean_linker_0, # of connection points: 2
#     Edge 34, Type (0, 0), BuildingBlock: CIFDUS_clean_linker_0, # of connection points: 2
#     Edge 35, Type (0, 0), BuildingBlock: CIFDUS_clean_linker_0, # of connection points: 2
#     Edge 36, Type (0, 0), BuildingBlock: CIFDUS_clean_linker_0, # of connection points: 2
#     Edge 37, Type (0, 0), BuildingBlock: CIFDUS_clean_linker_0, # of connection points: 2
#     Edge 38, Type (0, 0), BuildingBlock: CIFDUS_clean_linker_0, # of connection points: 2
#     Edge 39, Type (0, 0), BuildingBlock: CIFDUS_clean_linker_0, # of connection points: 2
#     Edge 40, Type (0, 0), BuildingBlock: CIFDUS_clean_linker_0, # of connection points: 2
#     Edge 41, Type (0, 0), BuildingBlock: CIFDUS_clean_linker_0, # of connection points: 2
#     Edge 42, Type (0, 0), BuildingBlock: CIFDUS_clean_linker_0, # of connection points: 2
#     Edge 43, Type (0, 0), BuildingBlock: CIFDUS_clean_linker_0, # of connection points: 2
#     Edge 44, Type (0, 0), BuildingBlock: CIFDUS_clean_linker_0, # of connection points: 2
#     Edge 45, Type (0, 0), BuildingBlock: CIFDUS_clean_linker_0, # of connection points: 2
#     Edge 46, Type (0, 0), BuildingBlock: CIFDUS_clean_linker_0, # of connection points: 2
#     Edge 47, Type (0, 0), BuildingBlock: CIFDUS_clean_linker_0, # of connection points: 2
# Relax obj value: 0.094
# Max RMSD: 0.144
# Mean RMSD: 0.144
data_MOF--net-neb--node1-AZAVOO_clean_sbu_0--edge1-CIFDUS_clean_linker_0
_symmetry_space_group_name_H-M    P1
_symmetry_Int_Tables_number       1
_symmetry_cell_setting            triclinic
loop_
_symmetry_equiv_pos_as_xyz
'x, y, z'
_cell_length_a     42.368517
_cell_length_b     17.620769
_cell_length_c     66.230786
_cell_angle_alpha  100.65472
_cell_angle_beta   90.204973
_cell_angle_gamma 90.201029
loop_
_atom_site_label
_atom_site_type_symbol
_atom_site_fract_x
_atom_site_fract_y
_atom_site_fract_z
_atom_type_partial_charge
Mg0 Mg 0.13383 0.1789 0.42615 0.0
O1 O 0.14156 0.06936 0.40185 0.0
O2 O 0.17434 0.09608 0.37774 0.0
Mg3 Mg 0.18971 0.22273 0.38752 0.0
C4 C 0.15671 0.04914 0.38511 0.0
C5 C 0.07801 0.11198 0.44752 0.0
O6 O 0.06365 0.16099 0.43791 0.0
O7 O 0.18255 0.16546 0.44051 0.0
O8 O 0.21443 0.19765 0.41646 0.0
O9 O 0.09606 0.22193 0.40669 0.0
O10 O 0.14672 0.24935 0.40579 0.0
C11 C 0.21012 0.17841 0.43394 0.0
C12 C 0.11871 0.25738 0.39916 0.0
O13 O 0.10788 0.1057 0.44613 0.0
Mg14 Mg 0.11096 0.05264 0.78494 0.0
O15 O 0.12672 0.15404 0.81051 0.0
O16 O 0.15585 0.1044 0.83311 0.0
Mg17 Mg 0.15995 0.97404 0.82202 0.0
C18 C 0.14282 0.16165 0.82714 0.0
C19 C 0.06467 0.13432 0.76029 0.0
O20 O 0.04706 0.07976 0.76559 0.0
O21 O 0.16046 0.04425 0.77074 0.0
O22 O 0.1879 -0.00722 0.79381 0.0
O23 O 0.06875 0.03092 0.80381 0.0
O24 O 0.11553 0.97665 0.80507 0.0
C25 C 0.18609 0.01751 0.7769 0.0
C26 C 0.08736 0.98721 0.81209 0.0
O27 O 0.09361 0.13868 0.76557 0.0
Mg28 Mg 0.90091 0.84171 0.53391 0.0
O29 O 0.88734 0.95919 0.55357 0.0
O30 O 0.85077 0.93745 0.57623 0.0
Mg31 Mg 0.84373 0.80709 0.57297 0.0
C32 C 0.86812 0.98305 0.56818 0.0
C33 C 0.95443 0.89328 0.50798 0.0
O34 O 0.96885 0.84522 0.51787 0.0
O35 O 0.85285 0.83022 0.51696 0.0
O36 O 0.82094 0.80311 0.54157 0.0
O37 O 0.93952 0.82963 0.55648 0.0
O38 O 0.89032 0.78934 0.55853 0.0
C39 C 0.82565 0.81252 0.52317 0.0
C40 C 0.91799 0.80035 0.56655 0.0
O41 O 0.9249 0.90374 0.51058 0.0
Mg42 Mg 0.88673 0.95638 0.17558 0.0
O43 O 0.87776 0.86068 0.14752 0.0
O44 O 0.8429 0.90383 0.12692 0.0
Mg45 Mg 0.83323 0.03122 0.14034 0.0
C46 C 0.86055 0.85074 0.1314 0.0
C47 C 0.93806 0.8681 0.19537 0.0
O48 O 0.95526 0.92075 0.18883 0.0
O49 O 0.83723 0.94088 0.18821 0.0
O50 O 0.80682 -0.00561 0.16692 0.0
O51 O 0.92656 0.00358 0.15893 0.0
O52 O 0.87681 0.04039 0.15877 0.0
C53 C 0.81027 0.96267 0.18263 0.0
C54 C 0.90523 0.04648 0.15269 0.0
O55 O 0.90841 0.86715 0.19234 0.0
Mg56 Mg 0.12394 0.70268 0.9317 0.0
O57 O 0.13486 0.60625 0.90426 0.0
O58 O 0.1683 0.65237 0.88342 0.0
Mg59 Mg 0.18038 0.77748 0.89841 0.0
C60 C 0.1513 0.59787 0.88789 0.0
C61 C 0.07366 0.64631 0.95735 0.0
O62 O 0.06834 0.72047 0.95861 0.0
O63 O 0.17194 0.68518 0.94626 0.0
O64 O 0.20416 0.73871 0.92605 0.0
O65 O 0.08588 0.74927 0.91366 0.0
O66 O 0.13574 0.78719 0.91526 0.0
C67 C 0.19945 0.70706 0.94167 0.0
C68 C 0.10777 0.79258 0.90816 0.0
O69 O 0.09761 0.61693 0.94736 0.0
Mg70 Mg 0.09754 0.51938 0.27393 0.0
O71 O 0.11735 0.6259 0.29582 0.0
O72 O 0.15381 0.58685 0.31614 0.0
Mg73 Mg 0.15857 0.45521 0.30638 0.0
C74 C 0.13754 0.64002 0.31041 0.0
C75 C 0.04421 0.59715 0.25222 0.0
O76 O 0.02713 0.54734 0.26001 0.0
O77 O 0.14235 0.51258 0.25451 0.0
O78 O 0.17725 0.46713 0.27466 0.0
O79 O 0.06171 0.49886 0.29761 0.0
O80 O 0.10986 0.45037 0.29474 0.0
C81 C 0.16992 0.48805 0.25778 0.0
C82 C 0.08368 0.45972 0.30459 0.0
O83 O 0.0739 0.599 0.25507 0.0
Mg84 Mg 0.91369 0.29627 0.02651 0.0
O85 O 0.90399 0.40871 0.04972 0.0
O86 O 0.86771 0.3824 0.07198 0.0
Mg87 Mg 0.8576 0.25254 0.06498 0.0
C88 C 0.88586 0.42963 0.06512 0.0
C89 C 0.96261 0.33488 -0.00418 0.0
O90 O 0.96951 0.26293 -0.00329 0.0
O91 O 0.86483 0.30156 0.01125 0.0
O92 O 0.83341 0.26735 0.0352 0.0
O93 O 0.95303 0.26627 0.04643 0.0
O94 O 0.9029 0.23334 0.04886 0.0
C95 C 0.83752 0.28526 0.01758 0.0
C96 C 0.93127 0.23517 0.05591 0.0
O97 O 0.93873 0.36572 0.0056 0.0
Mg98 Mg 0.91228 0.50301 0.68311 0.0
O99 O 0.90459 0.40803 0.6548 0.0
O100 O 0.87271 0.45178 0.63258 0.0
Mg101 Mg 0.86182 0.57824 0.6463 0.0
C102 C 0.88937 0.3984 0.63785 0.0
C103 C 0.96204 0.41495 0.70433 0.0
O104 O 0.97951 0.46965 0.69898 0.0
O105 O 0.86173 0.48711 0.6943 0.0
O106 O 0.83328 0.53882 0.67174 0.0
O107 O 0.95355 0.54677 0.6672 0.0
O108 O 0.90439 0.58701 0.66577 0.0
C109 C 0.83525 0.50734 0.68759 0.0
C110 C 0.93319 0.58945 0.65995 0.0
O111 O 0.93267 0.41293 0.7002 0.0
Mg112 Mg 0.6273 0.18626 0.92369 0.0
O113 O 0.63877 0.06985 0.90271 0.0
O114 O 0.67034 0.09415 0.87763 0.0
Mg115 Mg 0.68029 0.22383 0.88281 0.0
C116 C 0.65468 0.04735 0.88635 0.0
C117 C 0.57928 0.14977 0.95508 0.0
O118 O 0.56974 0.21709 0.95161 0.0
O119 O 0.67665 0.19082 0.93835 0.0
O120 O 0.70661 0.218 0.91278 0.0
O121 O 0.58674 0.20393 0.90314 0.0
O122 O 0.63575 0.24334 0.89963 0.0
C123 C 0.70347 0.20599 0.93112 0.0
C124 C 0.60733 0.23477 0.89273 0.0
O125 O 0.60458 0.12129 0.94664 0.0
Mg126 Mg 0.60105 0.98551 0.27526 0.0
O127 O 0.6115 0.08297 0.30256 0.0
O128 O 0.6448 0.04051 0.32418 0.0
Mg129 Mg 0.65377 0.91239 0.31118 0.0
C130 C 0.62806 0.09389 0.31899 0.0
C131 C 0.55186 0.0663 0.25195 0.0
O132 O 0.53545 0.00706 0.2557 0.0
O133 O 0.6505 -0.00439 0.26211 0.0
O134 O 0.68056 0.94505 0.28414 0.0
O135 O 0.56077 0.94604 0.29297 0.0
O136 O 0.60989 0.90406 0.29298 0.0
C137 C 0.67732 0.97406 0.26796 0.0
C138 C 0.58157 0.90306 0.29972 0.0
O139 O 0.58042 0.0739 0.25793 0.0
Mg140 Mg 0.42723 0.78568 0.02802 0.0
O141 O 0.40862 0.88698 0.05248 0.0
O142 O 0.3734 0.83612 0.07142 0.0
Mg143 Mg 0.36832 0.70651 0.05913 0.0
C144 C 0.38897 0.89353 0.06733 0.0
C145 C 0.47871 0.84221 0.00305 0.0
O146 O 0.48674 0.77151 0.00458 0.0
O147 O 0.38121 0.78472 0.00939 0.0
O148 O 0.34823 0.7295 0.02872 0.0
O149 O 0.46434 0.75829 0.05006 0.0
O150 O 0.41616 0.70891 0.0471 0.0
C151 C 0.35406 0.7571 0.0126 0.0
C152 C 0.44286 0.7164 0.05653 0.0
O153 O 0.45276 0.86879 0.01094 0.0
Mg154 Mg 0.39614 0.95634 0.68482 0.0
O155 O 0.38856 0.85046 0.65951 0.0
O156 O 0.35685 0.87865 0.63499 0.0
Mg157 Mg 0.34204 0.00521 0.64579 0.0
C158 C 0.37404 0.83117 0.64243 0.0
C159 C 0.45069 0.87668 0.70412 0.0
O160 O 0.46639 0.92423 0.69472 0.0
O161 O 0.347 0.94014 0.69794 0.0
O162 O 0.3162 0.97571 0.67374 0.0
O163 O 0.43464 0.00229 0.6666 0.0
O164 O 0.3841 0.03067 0.66541 0.0
C165 C 0.31976 0.95388 0.69098 0.0
C166 C 0.41231 0.03964 0.65938 0.0
O167 O 0.42067 0.87728 0.70361 0.0
Mg168 Mg 0.62408 0.64912 0.42432 0.0
O169 O 0.63593 0.53188 0.40389 0.0
O170 O 0.67179 0.5532 0.38075 0.0
Mg171 Mg 0.67977 0.68346 0.38455 0.0
C172 C 0.6544 0.50787 0.38887 0.0
C173 C 0.57452 0.61745 0.45499 0.0
O174 O 0.56619 0.68491 0.45098 0.0
O175 O 0.67269 0.65686 0.44033 0.0
O176 O 0.70397 0.68498 0.41551 0.0
O177 O 0.58446 0.6646 0.4031 0.0
O178 O 0.63381 0.70269 0.39988 0.0
C179 C 0.69974 0.67432 0.43386 0.0
C180 C 0.60557 0.69344 0.39261 0.0
O181 O 0.59993 0.58688 0.44727 0.0
Mg182 Mg 0.61672 0.51447 0.7721 0.0
O183 O 0.63024 0.61727 0.79707 0.0
O184 O 0.65866 0.57839 0.82172 0.0
Mg185 Mg 0.6666 0.44832 0.81074 0.0
C186 C 0.64503 0.63137 0.81417 0.0
C187 C 0.56683 0.59508 0.75025 0.0
O188 O 0.55079 0.54124 0.75711 0.0
O189 O 0.66661 0.51567 0.75872 0.0
O190 O 0.69469 0.47311 0.78308 0.0
O191 O 0.57567 0.48754 0.79119 0.0
O192 O 0.62344 0.43831 0.79201 0.0
C193 C 0.69287 0.49609 0.7659 0.0
C194 C 0.59508 0.44389 0.79885 0.0
O195 O 0.59654 0.59897 0.75313 0.0
Mg196 Mg 0.41686 0.28395 0.53191 0.0
O197 O 0.40301 0.39735 0.55366 0.0
O198 O 0.37053 0.36657 0.57751 0.0
Mg199 Mg 0.36189 0.23607 0.57049 0.0
C200 C 0.38604 0.41628 0.56972 0.0
C201 C 0.46662 0.323 0.50277 0.0
O202 O 0.47458 0.2544 0.50615 0.0
O203 O 0.36842 0.27863 0.51577 0.0
O204 O 0.33755 0.24528 0.54012 0.0
O205 O 0.45654 0.26335 0.55297 0.0
O206 O 0.40747 0.22208 0.55482 0.0
C207 C 0.34142 0.26034 0.52214 0.0
C208 C 0.43557 0.22921 0.5623 0.0
O209 O 0.44109 0.35294 0.51048 0.0
Mg210 Mg 0.39527 0.42602 0.17501 0.0
O211 O 0.38522 0.33168 0.14695 0.0
O212 O 0.3523 0.37744 0.12571 0.0
Mg213 Mg 0.33954 0.50127 0.14128 0.0
C214 C 0.36941 0.32346 0.13025 0.0
C215 C 0.44708 0.34244 0.19599 0.0
O216 O 0.46324 0.40226 0.19239 0.0
O217 O 0.34704 0.40716 0.18847 0.0
O218 O 0.31472 0.46039 0.16826 0.0
O219 O 0.43386 0.4749 0.15773 0.0
O220 O 0.38402 0.51144 0.15878 0.0
C221 C 0.31951 0.42801 0.18376 0.0
C222 C 0.41203 0.51763 0.15196 0.0
O223 O 0.41821 0.33575 0.19069 0.0
H224 H 0.34116 0.22816 0.48021 0.0
H225 H 0.27941 0.26676 0.53276 0.0
H226 H 0.23352 0.23794 0.51032 0.0
H227 H 0.21064 0.20298 0.47575 0.0
H228 H 0.27215 0.16491 0.42308 0.0
H229 H 0.31823 0.19061 0.44556 0.0
C230 C 0.31764 0.23113 0.48671 0.0
C231 C 0.31377 0.25012 0.50812 0.0
C232 C 0.29124 0.21325 0.47371 0.0
C233 C 0.28311 0.25245 0.51632 0.0
C234 C 0.2568 0.23561 0.50351 0.0
C235 C 0.23414 0.19892 0.4692 0.0
C236 C 0.23788 0.18173 0.44777 0.0
C237 C 0.26057 0.21545 0.48219 0.0
C238 C 0.26855 0.17793 0.43955 0.0
C239 C 0.29496 0.19312 0.45238 0.0
H240 H 0.01782 0.88919 0.50159 0.0
H241 H 0.93252 -0.00226 0.48542 0.0
H242 H 0.96328 0.07445 0.46528 0.0
H243 H 0.01438 0.11218 0.45276 0.0
H244 H 0.09971 0.0043 0.46913 0.0
H245 H 0.06885 0.92592 0.48876 0.0
C246 C 1.00587 0.92937 0.4936 0.0
C247 C 0.97285 0.93761 0.49504 0.0
C248 C 0.02372 0.97366 0.48216 0.0
C249 C 0.95787 0.99013 0.48459 0.0
C250 C 0.97546 0.03414 0.4731 0.0
C251 C 0.02629 0.07156 0.46061 0.0
C252 C 0.05938 0.06437 0.45949 0.0
C253 C 1.00841 0.02667 0.47187 0.0
C254 C 0.07432 0.01123 0.46975 0.0
C255 C 0.05668 0.9663 0.48097 0.0
H256 H 0.3178 0.96271 0.73249 0.0
H257 H 0.25804 0.95031 0.67903 0.0
H258 H 0.21159 0.97277 0.70089 0.0
H259 H 0.18791 0.00064 0.73526 0.0
H260 H 0.2475 0.0116 0.78869 0.0
H261 H 0.29393 0.98625 0.76681 0.0
C262 C 0.29458 0.96358 0.7256 0.0
C263 C 0.2915 0.95485 0.70414 0.0
C264 C 0.26791 0.97783 0.73827 0.0
C265 C 0.26117 0.95699 0.69551 0.0
C266 C 0.23455 0.9703 0.708 0.0
C267 C 0.21111 -0.00166 0.7421 0.0
C268 C 0.21427 0.00877 0.76356 0.0
C269 C 0.23768 0.9822 0.72941 0.0
C270 C 0.24443 0.00409 0.77219 0.0
C271 C 0.271 0.98923 0.7597 0.0
H272 H 1.00338 0.14348 0.74881 0.0
H273 H 0.09413 0.25404 0.74678 0.0
H274 H 0.07033 0.35027 0.72927 0.0
H275 H 0.02372 0.40383 0.71491 0.0
H276 H 0.93295 0.29351 0.71716 0.0
H277 H 0.9569 0.19641 0.73426 0.0
C278 C 0.01803 0.18844 0.7445 0.0
C279 C 0.05052 0.19144 0.74912 0.0
C280 C 1.00418 0.24379 0.73453 0.0
C281 C 0.06907 0.25027 0.74342 0.0
C282 C 0.05547 0.30542 0.73342 0.0
C283 C 1.00913 0.35859 0.71913 0.0
C284 C 0.97655 0.35615 0.71477 0.0
C285 C 0.02304 0.3029 0.72897 0.0
C286 C 0.95806 0.29695 0.72035 0.0
C287 C 0.97174 0.24131 0.73012 0.0
H288 H 0.82776 0.7642 0.48159 0.0
H289 H 0.76315 0.82009 0.53234 0.0
H290 H 0.7187 0.777 0.5096 0.0
H291 H 0.69795 0.72202 0.47534 0.0
H292 H 0.7623 0.66679 0.42445 0.0
H293 H 0.8069 0.70949 0.4472 0.0
C294 C 0.80391 0.76799 0.48758 0.0
C295 C 0.79883 0.79562 0.50861 0.0
C296 C 0.77837 0.7418 0.47446 0.0
C297 C 0.76777 0.79905 0.5162 0.0
C298 C 0.74229 0.77403 0.50324 0.0
C299 C 0.72178 0.71821 0.4693 0.0
C300 C 0.72677 0.69076 0.44827 0.0
C301 C 0.74732 0.74443 0.48239 0.0
C302 C 0.75779 0.68752 0.44062 0.0
C303 C 0.78333 0.71236 0.45358 0.0
H304 H 0.67871 0.98037 0.22725 0.0
H305 H 0.73908 0.96946 0.27927 0.0
H306 H 0.78544 0.95949 0.25725 0.0
H307 H 0.80896 0.95357 0.22318 0.0
H308 H 0.74855 0.96466 0.17119 0.0
H309 H 0.70217 0.97346 0.19317 0.0
C310 C 0.70203 0.97675 0.23381 0.0
C311 C 0.7054 0.97603 0.25488 0.0
C312 C 0.72861 0.9698 0.22101 0.0
C313 C 0.73579 0.97018 0.26308 0.0
C314 C 0.76234 0.96413 0.25049 0.0
C315 C 0.78561 0.95679 0.21662 0.0
C316 C 0.78224 0.95824 0.19559 0.0
C317 C 0.75902 0.96322 0.2294 0.0
C318 C 0.75183 0.9635 0.18736 0.0
C319 C 0.72527 0.9689 0.19992 0.0
H320 H 1.00045 0.8543 0.20347 0.0
H321 H 0.90939 0.75351 0.21154 0.0
H322 H 0.93423 0.66029 0.2296 0.0
H323 H 0.98175 0.6082 0.24339 0.0
H324 H 0.07271 0.70945 0.23522 0.0
H325 H 0.04787 0.80154 0.21689 0.0
C326 C 0.98599 0.81196 0.20916 0.0
C327 C 0.95309 0.81109 0.20618 0.0
C328 C 1.0004 0.75854 0.21952 0.0
C329 C 0.93477 0.75562 0.21364 0.0
C330 C 0.94895 0.70224 0.22397 0.0
C331 C 0.99617 0.65029 0.23758 0.0
C332 C 0.02905 0.65184 0.24072 0.0
C333 C 0.98174 0.70328 0.22704 0.0
C334 C 0.04735 0.70683 0.23304 0.0
C335 C 0.03317 0.75964 0.22255 0.0
H336 H 0.29659 0.68838 0.01292 0.0
H337 H 0.35412 0.81614 0.97697 0.0
H338 H 0.31197 0.80748 0.9513 0.0
H339 H 0.25856 0.76642 0.93959 0.0
H340 H 0.20099 0.64 0.97589 0.0
H341 H 0.24386 0.64463 0.00083 0.0
C342 C 0.30003 0.71464 -0.00048 0.0
C343 C 0.32855 0.75338 -0.003 0.0
C344 C 0.2758 0.70922 -0.01517 0.0
C345 C 0.33247 0.78629 -0.02061 0.0
C346 C 0.30838 0.7812 0.96468 0.0
C347 C 0.25536 0.73915 0.95284 0.0
C348 C 0.22642 0.70293 0.95582 0.0
C349 C 0.27994 0.74299 0.96729 0.0
C350 C 0.22289 0.66826 0.97316 0.0
C351 C 0.24738 0.67115 -0.01251 0.0
H352 H 0.07182 0.48903 0.9525 0.0
H353 H 0.02365 0.69539 -0.01808 0.0
H354 H 0.98423 0.61735 -0.00454 0.0
H355 H 0.9635 0.49094 -0.00076 0.0
H356 H 0.0117 0.28405 0.97032 0.0
H357 H 0.05072 0.36184 0.95611 0.0
C358 C 0.05279 0.5169 0.96195 0.0
C359 C 0.05079 0.59797 0.96621 0.0
C360 C 0.03 0.47161 0.96964 0.0
C361 C 0.02583 0.63312 -0.02161 0.0
C362 C 1.00318 0.58854 -0.01388 0.0
C363 C 0.98235 0.46275 -0.01034 0.0
C364 C 0.98461 0.38178 -0.01418 0.0
C365 C 1.00497 0.5078 -0.0182 0.0
C366 C 1.00939 0.34631 0.97353 0.0
C367 C 0.03179 0.39075 0.96544 0.0
H368 H 0.26046 0.4875 0.18224 0.0
H369 H 0.31883 0.35904 0.21758 0.0
H370 H 0.27742 0.36579 0.24333 0.0
H371 H 0.22614 0.41396 0.25673 0.0
H372 H 0.16782 0.54367 0.22174 0.0
H373 H 0.20801 0.53081 0.19494 0.0
C374 C 0.26407 0.46007 0.19543 0.0
C375 C 0.2929 0.42308 0.19796 0.0
C376 C 0.24037 0.46523 0.21037 0.0
C377 C 0.297 0.38806 0.21521 0.0
C378 C 0.27337 0.39217 0.23002 0.0
C379 C 0.22214 0.43968 0.24328 0.0
C380 C 0.19407 0.48046 0.24139 0.0
C381 C 0.24524 0.43185 0.22793 0.0
C382 C 0.18923 0.51234 0.22368 0.0
C383 C 0.21219 0.50489 0.20833 0.0
H384 H 0.70542 0.23752 0.97291 0.0
H385 H 0.76522 0.19945 0.91941 0.0
H386 H 0.81197 0.22627 0.94121 0.0
H387 H 0.83611 0.2596 0.97563 0.0
H388 H 0.77597 0.29797 0.02899 0.0
H389 H 0.72934 0.27341 0.00711 0.0
C390 C 0.72869 0.2343 0.96604 0.0
C391 C 0.73176 0.21599 0.94458 0.0
C392 C 0.75551 0.25099 -0.02136 0.0
C393 C 0.76213 0.21328 0.93591 0.0
C394 C 0.78892 0.22892 0.94836 0.0
C395 C 0.81278 0.26375 -0.01758 0.0
C396 C 0.80959 0.28062 0.0039 0.0
C397 C 0.78592 0.24827 0.96975 0.0
C398 C 0.77915 0.28485 0.01248 0.0
C399 C 0.75241 0.27048 0.0 0.0
H400 H 0.69884 0.51084 0.72575 0.0
H401 H 0.75332 0.48177 0.77901 0.0
H402 H 0.80185 0.47773 0.75928 0.0
H403 H 0.82922 0.48458 0.72706 0.0
H404 H 0.77479 0.51438 0.67386 0.0
H405 H 0.72612 0.51502 0.69334 0.0
C406 C 0.72132 0.50401 0.73307 0.0
C407 C 0.72229 0.49691 0.75386 0.0
C408 C 0.74929 0.5012 0.72161 0.0
C409 C 0.75172 0.48739 0.76302 0.0
C410 C 0.77959 0.4849 0.75175 0.0
C411 C 0.8067 0.49029 0.71966 0.0
C412 C 0.80578 0.49953 0.69904 0.0
C413 C 0.77868 0.49167 0.73102 0.0
C414 C 0.77631 0.50749 0.68975 0.0
C415 C 0.74838 0.50807 0.70088 0.0
H416 H 0.5852 -0.00158 0.95804 0.0
H417 H 0.52681 0.19862 0.97751 0.0
H418 H 0.49034 0.12145 -0.00609 0.0
H419 H 0.47418 -0.00394 0.00197 0.0
H420 H 0.53258 0.79605 -0.01788 0.0
H421 H 0.56961 0.87406 0.96655 0.0
C422 C 0.56467 0.02541 0.96603 0.0
C423 C 0.5588 0.10422 0.96653 0.0
C424 C 0.54354 0.9805 0.97521 0.0
C425 C 0.53192 0.13803 0.97686 0.0
C426 C 0.51097 0.09389 -0.01379 0.0
C427 C 0.49495 0.96951 -0.00582 0.0
C428 C 0.50047 0.89022 -0.00682 0.0
C429 C 0.51634 0.01485 -0.01471 0.0
C430 C 0.52765 0.85691 -0.01687 0.0
C431 C 0.54894 0.90151 0.97423 0.0
H432 H 0.50786 0.34029 0.20924 0.0
H433 H 0.42031 0.21212 0.20541 0.0
H434 H 0.44512 0.11527 0.22215 0.0
H435 H 0.49146 0.06732 0.23807 0.0
H436 H 0.57902 0.19547 0.24202 0.0
H437 H 0.55435 0.29185 0.225 0.0
C438 C 0.49418 0.29119 0.21205 0.0
C439 C 0.46225 0.28364 0.20609 0.0
C440 C 0.50858 0.23563 0.2217 0.0
C441 C 0.44492 0.21952 0.20985 0.0
C442 C 0.45908 0.16401 0.21942 0.0
C443 C 0.5052 0.11623 0.23519 0.0
C444 C 0.53705 0.12407 0.24133 0.0
C445 C 0.49087 0.17155 0.22544 0.0
C446 C 0.55446 0.18792 0.23746 0.0
C447 C 0.54037 0.24314 0.22773 0.0
H448 H 0.51425 0.86209 0.70784 0.0
H449 H 0.42564 0.76385 0.72261 0.0
H450 H 0.45391 0.66755 0.73776 0.0
H451 H 0.50354 0.61076 0.74659 0.0
H452 H 0.59229 0.70929 0.73227 0.0
H453 H 0.56408 0.80588 0.71705 0.0
C454 C 0.50108 0.81979 0.71442 0.0
C455 C 0.46784 0.82028 0.71407 0.0
C456 C 0.51748 0.76444 0.72309 0.0
C457 C 0.4512 0.76498 0.72269 0.0
C458 C 0.46735 0.70973 0.73132 0.0
C459 C 0.5168 0.65313 0.74008 0.0
C460 C 0.55001 0.65255 0.7405 0.0
C461 C 0.50046 0.70876 0.73153 0.0
C462 C 0.56673 0.70829 0.73211 0.0
C463 C 0.55061 0.76361 0.72343 0.0
H464 H 0.46457 0.47605 0.50069 0.0
H465 H 0.51914 0.26916 0.48128 0.0
H466 H 0.55809 0.34244 0.46568 0.0
H467 H 0.57685 0.46519 0.45758 0.0
H468 H 0.52229 0.67216 0.47682 0.0
H469 H 0.48347 0.59913 0.49266 0.0
C470 C 0.48485 0.44688 0.49291 0.0
C471 C 0.48884 0.36716 0.49211 0.0
C472 C 0.50739 0.48954 0.48413 0.0
C473 C 0.51543 0.33045 0.48212 0.0
C474 C 0.53781 0.37235 0.47324 0.0
C475 C 0.55663 0.4945 0.46541 0.0
C476 C 0.55256 0.57408 0.46605 0.0
C477 C 0.53414 0.45198 0.47425 0.0
C478 C 0.52604 0.61095 0.4761 0.0
C479 C 0.50373 0.56918 0.48511 0.0
H480 H 0.14517 0.6903 0.35135 0.0
H481 H 0.1387 0.77009 0.29377 0.0
H482 H 0.14566 0.90381 0.31166 0.0
H483 H 0.15299 -0.00165 0.34386 0.0
H484 H 0.1537 0.9193 0.40169 0.0
H485 H 0.14957 0.78521 0.38365 0.0
C486 C 0.14546 0.73709 0.34276 0.0
C487 C 0.14179 0.72059 0.32129 0.0
C488 C 0.14835 0.81391 0.35323 0.0
C489 C 0.14154 0.7816 0.31032 0.0
C490 C 0.14555 0.85795 0.32053 0.0
C491 C 0.15235 0.95159 0.35245 0.0
C492 C 0.15391 0.96841 0.37403 0.0
C493 C 0.14891 0.87485 0.342 0.0
C494 C 0.1525 0.90761 0.38505 0.0
C495 C 0.15021 0.831 0.37475 0.0
H496 H 0.0671 0.26289 0.37401 0.0
H497 H 0.15893 0.36436 0.39001 0.0
H498 H 0.15356 0.44439 0.36414 0.0
H499 H 0.12504 0.47962 0.33558 0.0
H500 H 0.03528 0.3748 0.31672 0.0
H501 H 0.0367 0.30472 0.34562 0.0
C502 C 0.08577 0.30281 0.37183 0.0
C503 C 0.11359 0.30659 0.38368 0.0
C504 C 0.08277 0.34857 0.35657 0.0
C505 C 0.13753 0.35905 0.38084 0.0
C506 C 0.13445 0.40538 0.36613 0.0
C507 C 0.10587 0.44119 0.33774 0.0
C508 C 0.08053 0.43072 0.32392 0.0
C509 C 0.10755 0.39947 0.35369 0.0
C510 C 0.05507 0.38353 0.32731 0.0
C511 C 0.05609 0.34291 0.34365 0.0
H512 H 0.14708 0.304 0.81653 0.0
H513 H 0.14238 0.18984 0.86871 0.0
H514 H 0.14364 0.31443 0.89207 0.0
H515 H 0.14585 0.45602 0.89779 0.0
H516 H 0.15528 0.57098 0.84604 0.0
H517 H 0.15251 0.44644 0.82242 0.0
C518 C 0.14636 0.30669 0.83301 0.0
C519 C 0.14455 0.23795 0.84089 0.0
C520 C 0.14795 0.37869 0.84643 0.0
C521 C 0.14397 0.24199 0.86228 0.0
C522 C 0.14458 0.3132 0.87566 0.0
C523 C 0.14725 0.45371 0.88133 0.0
C524 C 0.15051 0.52249 0.87364 0.0
C525 C 0.14653 0.38191 0.86792 0.0
C526 C 0.15282 0.51869 0.85231 0.0
C527 C 0.15115 0.44755 0.83881 0.0
H528 H 0.06313 0.78052 0.87766 0.0
H529 H 0.13965 0.92331 0.90666 0.0
H530 H 0.13549 0.00579 0.88114 0.0
H531 H 0.11499 0.02769 0.84853 0.0
H532 H 0.04207 0.88119 0.81697 0.0
H533 H 0.03893 0.81105 0.84579 0.0
C534 C 0.07847 0.8304 0.87848 0.0
C535 C 0.10196 0.84535 0.89377 0.0
C536 C 0.07652 0.87676 0.86335 0.0
C537 C 0.12175 0.91004 0.89479 0.0
C538 C 0.11934 0.95741 0.88027 0.0
C539 C 0.0981 0.98124 0.84815 0.0
C540 C 0.07902 0.95887 0.83081 0.0
C541 C 0.09755 0.93984 0.86417 0.0
C542 C 0.05681 0.89941 0.8304 0.0
C543 C 0.05533 0.85891 0.84673 0.0
H544 H 0.8428 0.32395 0.61357 0.0
H545 H 0.93996 0.30288 0.63127 0.0
H546 H 0.94294 0.17545 0.60922 0.0
H547 H 0.91701 0.06675 0.58639 0.0
H548 H 0.81829 0.08109 0.57197 0.0
H549 H 0.81669 0.21451 0.59098 0.0
C550 C 0.86466 0.29159 0.61241 0.0
C551 C 0.89116 0.32264 0.62394 0.0
C552 C 0.86586 0.21724 0.60026 0.0
C553 C 0.91923 0.27985 0.62259 0.0
C554 C 0.92097 0.20715 0.60996 0.0
C555 C 0.89536 0.09989 0.58717 0.0
C556 C 0.86794 0.06541 0.5776 0.0
C557 C 0.89434 0.1749 0.59891 0.0
C558 C 0.83971 0.10739 0.5791 0.0
C559 C 0.8388 0.1833 0.59001 0.0
H560 H 0.90349 0.71533 0.65288 0.0
H561 H 0.98025 0.56247 0.63106 0.0
H562 H 0.98584 0.62417 0.60089 0.0
H563 H 0.96321 0.70924 0.5785 0.0
H564 H 0.88473 0.85606 0.60052 0.0
H565 H 0.8856 0.80995 0.63302 0.0
C566 C 0.92175 0.69622 0.64165 0.0
C567 C 0.94106 0.63382 0.64388 0.0
C568 C 0.9243 0.73068 0.62437 0.0
C569 C 0.96504 0.61037 0.62953 0.0
C570 C 0.96808 0.64531 0.61227 0.0
C571 C 0.94695 0.73228 0.5907 0.0
C572 C 0.92364 0.78492 0.58723 0.0
C573 C 0.94708 0.70376 0.60918 0.0
C574 C 0.90246 0.81447 0.60289 0.0
C575 C 0.90297 0.78819 0.62143 0.0
H576 H 0.83582 0.51967 0.0785 0.0
H577 H 0.93743 0.52059 0.07596 0.0
H578 H 0.93881 0.65125 0.09663 0.0
H579 H 0.91088 0.76354 0.11657 0.0
H580 H 0.80919 0.76728 0.11601 0.0
H581 H 0.80789 0.63669 0.09539 0.0
C582 C 0.85821 0.5489 0.0824 0.0
C583 C 0.8865 0.51075 0.07594 0.0
C584 C 0.85874 0.62459 0.09377 0.0
C585 C 0.91539 0.54919 0.08077 0.0
C586 C 0.91617 0.62362 0.09265 0.0
C587 C 0.88851 0.7356 0.11181 0.0
C588 C 0.86015 0.77416 0.1179 0.0
C589 C 0.88799 0.66158 0.09942 0.0
C590 C 0.83126 0.73836 0.11145 0.0
C591 C 0.83053 0.66377 0.09973 0.0
H592 H 0.95226 0.03654 0.12396 0.0
H593 H 0.87288 0.17437 0.14947 0.0
H594 H 0.87762 0.2537 0.1233 0.0
H595 H 0.8997 0.27396 0.09098 0.0
H596 H 0.97672 0.13402 0.06334 0.0
H597 H 0.97842 0.06697 0.09278 0.0
C598 C 0.93645 0.08478 0.12391 0.0
C599 C 0.91192 0.09888 0.13833 0.0
C600 C 0.93885 0.12953 0.10843 0.0
C601 C 0.89158 0.1616 0.13825 0.0
C602 C 0.89429 0.20717 0.12334 0.0
C603 C 0.91698 0.22914 0.09152 0.0
C604 C 0.93755 0.2074 0.07505 0.0
C605 C 0.91707 0.18996 0.108 0.0
C606 C 0.96061 0.15124 0.07602 0.0
C607 C 0.96135 0.11258 0.09271 0.0
H608 H 0.64697 0.68552 0.85554 0.0
H609 H 0.64823 0.75901 0.79691 0.0
H610 H 0.65275 0.89357 0.81412 0.0
H611 H 0.65584 -0.00942 0.84568 0.0
H612 H 0.64993 0.92029 0.90453 0.0
H613 H 0.64769 0.78435 0.88747 0.0
C614 C 0.64833 0.73115 0.8466 0.0
C615 C 0.64743 0.71245 0.825 0.0
C616 C 0.65007 0.80884 0.85662 0.0
C617 C 0.64876 0.77202 0.81356 0.0
C618 C 0.65143 0.84895 0.82337 0.0
C619 C 0.65428 0.94542 0.85477 0.0
C620 C 0.65345 0.96516 0.87631 0.0
C621 C 0.65207 0.86801 0.84487 0.0
C622 C 0.6507 0.90631 0.88791 0.0
C623 C 0.64945 0.8287 0.87817 0.0
H624 H 0.56773 0.34386 0.88332 0.0
H625 H 0.63198 0.16394 0.85693 0.0
H626 H 0.63062 0.20859 0.82426 0.0
H627 H 0.61729 0.30893 0.80503 0.0
H628 H 0.55426 0.49261 0.83073 0.0
H629 H 0.54844 0.4362 0.86182 0.0
C630 C 0.58063 0.31352 0.87017 0.0
C631 C 0.60016 0.25131 0.87237 0.0
C632 C 0.58026 0.34087 0.85152 0.0
C633 C 0.61711 0.21241 0.85549 0.0
C634 C 0.61637 0.23799 0.83686 0.0
C635 C 0.6019 0.33596 0.81734 0.0
C636 C 0.58663 0.40517 0.81591 0.0
C637 C 0.59906 0.30387 0.835 0.0
C638 C 0.56631 0.43924 0.83166 0.0
C639 C 0.56315 0.40724 0.84942 0.0
H640 H 0.67525 0.16467 0.34355 0.0
H641 H 0.57947 0.1959 0.32445 0.0
H642 H 0.5782 0.3241 0.34615 0.0
H643 H 0.6051 0.42995 0.36942 0.0
H644 H 0.7025 0.40487 0.38563 0.0
H645 H 0.70245 0.27153 0.36647 0.0
C646 C 0.65406 0.19944 0.34428 0.0
C647 C 0.62747 0.17085 0.33247 0.0
C648 C 0.65383 0.27409 0.35633 0.0
C649 C 0.60029 0.21684 0.33333 0.0
C650 C 0.59952 0.29003 0.34577 0.0
C651 C 0.62609 0.39454 0.36896 0.0
C652 C 0.6536 0.42589 0.37911 0.0
C653 C 0.6262 0.3195 0.35721 0.0
C654 C 0.68101 0.38098 0.37805 0.0
C655 C 0.68098 0.30512 0.36705 0.0
H656 H 0.5593 0.78512 0.38231 0.0
H657 H 0.63678 0.63934 0.35769 0.0
H658 H 0.63247 0.68424 0.32511 0.0
H659 H 0.61185 0.77697 0.3057 0.0
H660 H 0.53686 0.93106 0.33026 0.0
H661 H 0.53431 0.86996 0.36072 0.0
C662 C 0.57464 0.76225 0.36957 0.0
C663 C 0.5986 0.71008 0.37225 0.0
C664 C 0.5726 0.79027 0.35107 0.0
C665 C 0.61858 0.68061 0.3559 0.0
C666 C 0.61608 0.70611 0.33733 0.0
C667 C 0.59463 0.79656 0.3176 0.0
C668 C 0.57497 0.85906 0.31605 0.0
C669 C 0.59403 0.76297 0.33507 0.0
C670 C 0.55231 0.88306 0.33127 0.0
C671 C 0.55104 0.84853 0.3487 0.0
H672 H 0.37647 0.18088 0.13929 0.0
H673 H 0.36752 0.3002 0.08832 0.0
H674 H 0.37418 0.17819 0.0641 0.0
H675 H 0.3831 0.03667 0.05748 0.0
H676 H 0.38704 0.91753 0.10873 0.0
H677 H 0.38195 0.03994 0.13275 0.0
C678 C 0.37594 0.18006 0.12287 0.0
C679 C 0.37171 0.24935 0.11559 0.0
C680 C 0.379 0.10963 0.10909 0.0
C681 C 0.37063 0.24745 0.09429 0.0
C682 C 0.37457 0.17779 0.08044 0.0
C683 C 0.38289 0.03792 0.07391 0.0
C684 C 0.38564 0.96854 0.08138 0.0
C685 C 0.3789 0.10845 0.08767 0.0
C686 C 0.38488 0.97037 0.10267 0.0
C687 C 0.38201 0.04028 0.11641 0.0
H688 H 0.46134 0.51652 0.12504 0.0
H689 H 0.37517 0.63559 0.14596 0.0
H690 H 0.37962 0.71417 0.11965 0.0
H691 H 0.40477 0.74097 0.08896 0.0
H692 H 0.48972 0.62256 0.06626 0.0
H693 H 0.48967 0.5532 0.09531 0.0
C694 C 0.44384 0.56031 0.12393 0.0
C695 C 0.41765 0.56917 0.13716 0.0
C696 C 0.44631 0.60527 0.10848 0.0
C697 C 0.39521 0.62649 0.13569 0.0
C698 C 0.39775 0.67177 0.12071 0.0
C699 C 0.42332 0.70024 0.09043 0.0
C700 C 0.4468 0.68546 0.07547 0.0
C701 C 0.42266 0.66019 0.10673 0.0
C702 C 0.47136 0.63445 0.07774 0.0
C703 C 0.47115 0.59451 0.09421 0.0
H704 H 0.37696 0.77765 0.60107 0.0
H705 H 0.37653 0.70316 0.65954 0.0
H706 H 0.3794 0.56842 0.6422 0.0
H707 H 0.38186 0.4715 0.61049 0.0
H708 H 0.38728 0.54466 0.55199 0.0
H709 H 0.38283 0.67999 0.56916 0.0
C710 C 0.37744 0.73173 0.60994 0.0
C711 C 0.37628 0.75014 0.63153 0.0
C712 C 0.38006 0.65425 0.59986 0.0
C713 C 0.37743 0.69035 0.64291 0.0
C714 C 0.37901 0.61332 0.63301 0.0
C715 C 0.38201 0.51714 0.60151 0.0
C716 C 0.38456 0.49825 0.58001 0.0
C717 C 0.3803 0.59458 0.61152 0.0
C718 C 0.38533 0.5579 0.56857 0.0
C719 C 0.3827 0.63518 0.57838 0.0
H720 H 0.40274 0.26419 0.59698 0.0
H721 H 0.48327 0.13512 0.57055 0.0
H722 H 0.48587 0.06852 0.60006 0.0
H723 H 0.45986 0.03482 0.63099 0.0
H724 H 0.3768 0.16109 0.655 0.0
H725 H 0.38027 0.24044 0.6288 0.0
C726 C 0.42096 0.22185 0.59778 0.0
C727 C 0.44233 0.20309 0.58163 0.0
C728 C 0.42151 0.18255 0.61423 0.0
C729 C 0.46657 0.15016 0.58298 0.0
C730 C 0.46781 0.11165 0.5997 0.0
C731 C 0.4429 0.08044 0.63057 0.0
C732 C 0.41779 0.09121 0.64461 0.0
C733 C 0.4446 0.12531 0.61506 0.0
C734 C 0.39597 0.1507 0.64406 0.0
C735 C 0.39797 0.1964 0.62915 0.0
loop_
_geom_bond_atom_site_label_1
_geom_bond_atom_site_label_2
_geom_bond_distance
_geom_bond_site_symmetry_2
_ccdc_geom_bond_type
Mg0 O1 2.028 . S
Mg0 O7 1.986 . S
Mg0 O9 2.114 . S
Mg0 O10 2.251 . S
Mg0 O13 2.010 . S
O1 Mg0 2.028 . S
O1 C4 1.250 . S
O2 Mg3 2.028 . S
O2 C4 1.248 . S
Mg3 O2 2.028 . S
Mg3 O8 2.032 . S
Mg3 O10 2.079 . S
C4 O1 1.250 . S
C4 O2 1.248 . S
C5 O6 1.264 . S
C5 O13 1.249 . S
O6 C5 1.264 . S
O7 Mg0 1.986 . S
O7 C11 1.246 . S
O8 Mg3 2.032 . S
O8 C11 1.259 . S
O9 Mg0 2.114 . S
O9 C12 1.252 . S
O10 Mg0 2.251 . S
O10 Mg3 2.079 . S
O10 C12 1.273 . S
C11 O7 1.246 . S
C11 O8 1.259 . S
C12 O9 1.252 . S
C12 O10 1.273 . S
O13 Mg0 2.010 . S
O13 C5 1.249 . S
Mg14 O15 2.028 . S
Mg14 O21 1.986 . S
Mg14 O23 2.114 . S
Mg14 O24 2.251 . S
Mg14 O27 2.010 . S
O15 Mg14 2.028 . S
O15 C18 1.250 . S
O16 Mg17 2.028 . S
O16 C18 1.248 . S
Mg17 O16 2.028 . S
Mg17 O22 2.032 . S
Mg17 O24 2.079 . S
C18 O15 1.250 . S
C18 O16 1.248 . S
C19 O20 1.264 . S
C19 O27 1.249 . S
O20 C19 1.264 . S
O21 Mg14 1.986 . S
O21 C25 1.246 . S
O22 Mg17 2.032 . S
O22 C25 1.259 . S
O23 Mg14 2.114 . S
O23 C26 1.252 . S
O24 Mg14 2.251 . S
O24 Mg17 2.079 . S
O24 C26 1.273 . S
C25 O21 1.246 . S
C25 O22 1.259 . S
C26 O23 1.252 . S
C26 O24 1.273 . S
O27 Mg14 2.010 . S
O27 C19 1.249 . S
Mg28 O29 2.028 . S
Mg28 O35 1.986 . S
Mg28 O37 2.114 . S
Mg28 O38 2.251 . S
Mg28 O41 2.010 . S
O29 Mg28 2.028 . S
O29 C32 1.250 . S
O30 Mg31 2.028 . S
O30 C32 1.248 . S
Mg31 O30 2.028 . S
Mg31 O36 2.032 . S
Mg31 O38 2.079 . S
C32 O29 1.250 . S
C32 O30 1.248 . S
C33 O34 1.264 . S
C33 O41 1.249 . S
O34 C33 1.264 . S
O35 Mg28 1.986 . S
O35 C39 1.246 . S
O36 Mg31 2.032 . S
O36 C39 1.259 . S
O37 Mg28 2.114 . S
O37 C40 1.252 . S
O38 Mg28 2.251 . S
O38 Mg31 2.079 . S
O38 C40 1.273 . S
C39 O35 1.246 . S
C39 O36 1.259 . S
C40 O37 1.252 . S
C40 O38 1.273 . S
O41 Mg28 2.010 . S
O41 C33 1.249 . S
Mg42 O43 2.028 . S
Mg42 O49 1.986 . S
Mg42 O51 2.114 . S
Mg42 O52 2.251 . S
Mg42 O55 2.010 . S
O43 Mg42 2.028 . S
O43 C46 1.250 . S
O44 Mg45 2.028 . S
O44 C46 1.248 . S
Mg45 O44 2.028 . S
Mg45 O50 2.032 . S
Mg45 O52 2.079 . S
C46 O43 1.250 . S
C46 O44 1.248 . S
C47 O48 1.264 . S
C47 O55 1.249 . S
O48 C47 1.264 . S
O49 Mg42 1.986 . S
O49 C53 1.246 . S
O50 Mg45 2.032 . S
O50 C53 1.259 . S
O51 Mg42 2.114 . S
O51 C54 1.252 . S
O52 Mg42 2.251 . S
O52 Mg45 2.079 . S
O52 C54 1.273 . S
C53 O49 1.246 . S
C53 O50 1.259 . S
C54 O51 1.252 . S
C54 O52 1.273 . S
O55 Mg42 2.010 . S
O55 C47 1.249 . S
Mg56 O57 2.028 . S
Mg56 O63 1.986 . S
Mg56 O65 2.114 . S
Mg56 O66 2.251 . S
Mg56 O69 2.010 . S
O57 Mg56 2.028 . S
O57 C60 1.250 . S
O58 Mg59 2.028 . S
O58 C60 1.248 . S
Mg59 O58 2.028 . S
Mg59 O64 2.032 . S
Mg59 O66 2.079 . S
C60 O57 1.250 . S
C60 O58 1.248 . S
C61 O62 1.264 . S
C61 O69 1.249 . S
O62 C61 1.264 . S
O63 Mg56 1.986 . S
O63 C67 1.246 . S
O64 Mg59 2.032 . S
O64 C67 1.259 . S
O65 Mg56 2.114 . S
O65 C68 1.252 . S
O66 Mg56 2.251 . S
O66 Mg59 2.079 . S
O66 C68 1.273 . S
C67 O63 1.246 . S
C67 O64 1.259 . S
C68 O65 1.252 . S
C68 O66 1.273 . S
O69 Mg56 2.010 . S
O69 C61 1.249 . S
Mg70 O71 2.028 . S
Mg70 O77 1.986 . S
Mg70 O79 2.114 . S
Mg70 O80 2.251 . S
Mg70 O83 2.010 . S
O71 Mg70 2.028 . S
O71 C74 1.250 . S
O72 Mg73 2.028 . S
O72 C74 1.248 . S
Mg73 O72 2.028 . S
Mg73 O78 2.032 . S
Mg73 O80 2.079 . S
C74 O71 1.250 . S
C74 O72 1.248 . S
C75 O76 1.264 . S
C75 O83 1.249 . S
O76 C75 1.264 . S
O77 Mg70 1.986 . S
O77 C81 1.246 . S
O78 Mg73 2.032 . S
O78 C81 1.259 . S
O79 Mg70 2.114 . S
O79 C82 1.252 . S
O80 Mg70 2.251 . S
O80 Mg73 2.079 . S
O80 C82 1.273 . S
C81 O77 1.246 . S
C81 O78 1.259 . S
C82 O79 1.252 . S
C82 O80 1.273 . S
O83 Mg70 2.010 . S
O83 C75 1.249 . S
Mg84 O85 2.028 . S
Mg84 O91 1.986 . S
Mg84 O93 2.114 . S
Mg84 O94 2.251 . S
Mg84 O97 2.010 . S
O85 Mg84 2.028 . S
O85 C88 1.250 . S
O86 Mg87 2.028 . S
O86 C88 1.248 . S
Mg87 O86 2.028 . S
Mg87 O92 2.032 . S
Mg87 O94 2.079 . S
C88 O85 1.250 . S
C88 O86 1.248 . S
C89 O90 1.264 . S
C89 O97 1.249 . S
O90 C89 1.264 . S
O91 Mg84 1.986 . S
O91 C95 1.246 . S
O92 Mg87 2.032 . S
O92 C95 1.259 . S
O93 Mg84 2.114 . S
O93 C96 1.252 . S
O94 Mg84 2.251 . S
O94 Mg87 2.079 . S
O94 C96 1.273 . S
C95 O91 1.246 . S
C95 O92 1.259 . S
C96 O93 1.252 . S
C96 O94 1.273 . S
O97 Mg84 2.010 . S
O97 C89 1.249 . S
Mg98 O99 2.028 . S
Mg98 O105 1.986 . S
Mg98 O107 2.114 . S
Mg98 O108 2.251 . S
Mg98 O111 2.010 . S
O99 Mg98 2.028 . S
O99 C102 1.250 . S
O100 Mg101 2.028 . S
O100 C102 1.248 . S
Mg101 O100 2.028 . S
Mg101 O106 2.032 . S
Mg101 O108 2.079 . S
C102 O99 1.250 . S
C102 O100 1.248 . S
C103 O104 1.264 . S
C103 O111 1.249 . S
O104 C103 1.264 . S
O105 Mg98 1.986 . S
O105 C109 1.246 . S
O106 Mg101 2.032 . S
O106 C109 1.259 . S
O107 Mg98 2.114 . S
O107 C110 1.252 . S
O108 Mg98 2.251 . S
O108 Mg101 2.079 . S
O108 C110 1.273 . S
C109 O105 1.246 . S
C109 O106 1.259 . S
C110 O107 1.252 . S
C110 O108 1.273 . S
O111 Mg98 2.010 . S
O111 C103 1.249 . S
Mg112 O113 2.028 . S
Mg112 O119 1.986 . S
Mg112 O121 2.114 . S
Mg112 O122 2.251 . S
Mg112 O125 2.010 . S
O113 Mg112 2.028 . S
O113 C116 1.250 . S
O114 Mg115 2.028 . S
O114 C116 1.248 . S
Mg115 O114 2.028 . S
Mg115 O120 2.032 . S
Mg115 O122 2.079 . S
C116 O113 1.250 . S
C116 O114 1.248 . S
C117 O118 1.264 . S
C117 O125 1.249 . S
O118 C117 1.264 . S
O119 Mg112 1.986 . S
O119 C123 1.246 . S
O120 Mg115 2.032 . S
O120 C123 1.259 . S
O121 Mg112 2.114 . S
O121 C124 1.252 . S
O122 Mg112 2.251 . S
O122 Mg115 2.079 . S
O122 C124 1.273 . S
C123 O119 1.246 . S
C123 O120 1.259 . S
C124 O121 1.252 . S
C124 O122 1.273 . S
O125 Mg112 2.010 . S
O125 C117 1.249 . S
Mg126 O127 2.028 . S
Mg126 O133 1.986 . S
Mg126 O135 2.114 . S
Mg126 O136 2.251 . S
Mg126 O139 2.010 . S
O127 Mg126 2.028 . S
O127 C130 1.250 . S
O128 Mg129 2.028 . S
O128 C130 1.248 . S
Mg129 O128 2.028 . S
Mg129 O134 2.032 . S
Mg129 O136 2.079 . S
C130 O127 1.250 . S
C130 O128 1.248 . S
C131 O132 1.264 . S
C131 O139 1.249 . S
O132 C131 1.264 . S
O133 Mg126 1.986 . S
O133 C137 1.246 . S
O134 Mg129 2.032 . S
O134 C137 1.259 . S
O135 Mg126 2.114 . S
O135 C138 1.252 . S
O136 Mg126 2.251 . S
O136 Mg129 2.079 . S
O136 C138 1.273 . S
C137 O133 1.246 . S
C137 O134 1.259 . S
C138 O135 1.252 . S
C138 O136 1.273 . S
O139 Mg126 2.010 . S
O139 C131 1.249 . S
Mg140 O141 2.028 . S
Mg140 O147 1.986 . S
Mg140 O149 2.114 . S
Mg140 O150 2.251 . S
Mg140 O153 2.010 . S
O141 Mg140 2.028 . S
O141 C144 1.250 . S
O142 Mg143 2.028 . S
O142 C144 1.248 . S
Mg143 O142 2.028 . S
Mg143 O148 2.032 . S
Mg143 O150 2.079 . S
C144 O141 1.250 . S
C144 O142 1.248 . S
C145 O146 1.264 . S
C145 O153 1.249 . S
O146 C145 1.264 . S
O147 Mg140 1.986 . S
O147 C151 1.246 . S
O148 Mg143 2.032 . S
O148 C151 1.259 . S
O149 Mg140 2.114 . S
O149 C152 1.252 . S
O150 Mg140 2.251 . S
O150 Mg143 2.079 . S
O150 C152 1.273 . S
C151 O147 1.246 . S
C151 O148 1.259 . S
C152 O149 1.252 . S
C152 O150 1.273 . S
O153 Mg140 2.010 . S
O153 C145 1.249 . S
Mg154 O155 2.028 . S
Mg154 O161 1.986 . S
Mg154 O163 2.114 . S
Mg154 O164 2.251 . S
Mg154 O167 2.010 . S
O155 Mg154 2.028 . S
O155 C158 1.250 . S
O156 Mg157 2.028 . S
O156 C158 1.248 . S
Mg157 O156 2.028 . S
Mg157 O162 2.032 . S
Mg157 O164 2.079 . S
C158 O155 1.250 . S
C158 O156 1.248 . S
C159 O160 1.264 . S
C159 O167 1.249 . S
O160 C159 1.264 . S
O161 Mg154 1.986 . S
O161 C165 1.246 . S
O162 Mg157 2.032 . S
O162 C165 1.259 . S
O163 Mg154 2.114 . S
O163 C166 1.252 . S
O164 Mg154 2.251 . S
O164 Mg157 2.079 . S
O164 C166 1.273 . S
C165 O161 1.246 . S
C165 O162 1.259 . S
C166 O163 1.252 . S
C166 O164 1.273 . S
O167 Mg154 2.010 . S
O167 C159 1.249 . S
Mg168 O169 2.028 . S
Mg168 O175 1.986 . S
Mg168 O177 2.114 . S
Mg168 O178 2.251 . S
Mg168 O181 2.010 . S
O169 Mg168 2.028 . S
O169 C172 1.250 . S
O170 Mg171 2.028 . S
O170 C172 1.248 . S
Mg171 O170 2.028 . S
Mg171 O176 2.032 . S
Mg171 O178 2.079 . S
C172 O169 1.250 . S
C172 O170 1.248 . S
C173 O174 1.264 . S
C173 O181 1.249 . S
O174 C173 1.264 . S
O175 Mg168 1.986 . S
O175 C179 1.246 . S
O176 Mg171 2.032 . S
O176 C179 1.259 . S
O177 Mg168 2.114 . S
O177 C180 1.252 . S
O178 Mg168 2.251 . S
O178 Mg171 2.079 . S
O178 C180 1.273 . S
C179 O175 1.246 . S
C179 O176 1.259 . S
C180 O177 1.252 . S
C180 O178 1.273 . S
O181 Mg168 2.010 . S
O181 C173 1.249 . S
Mg182 O183 2.028 . S
Mg182 O189 1.986 . S
Mg182 O191 2.114 . S
Mg182 O192 2.251 . S
Mg182 O195 2.010 . S
O183 Mg182 2.028 . S
O183 C186 1.250 . S
O184 Mg185 2.028 . S
O184 C186 1.248 . S
Mg185 O184 2.028 . S
Mg185 O190 2.032 . S
Mg185 O192 2.079 . S
C186 O183 1.250 . S
C186 O184 1.248 . S
C187 O188 1.264 . S
C187 O195 1.249 . S
O188 C187 1.264 . S
O189 Mg182 1.986 . S
O189 C193 1.246 . S
O190 Mg185 2.032 . S
O190 C193 1.259 . S
O191 Mg182 2.114 . S
O191 C194 1.252 . S
O192 Mg182 2.251 . S
O192 Mg185 2.079 . S
O192 C194 1.273 . S
C193 O189 1.246 . S
C193 O190 1.259 . S
C194 O191 1.252 . S
C194 O192 1.273 . S
O195 Mg182 2.010 . S
O195 C187 1.249 . S
Mg196 O197 2.028 . S
Mg196 O203 1.986 . S
Mg196 O205 2.114 . S
Mg196 O206 2.251 . S
Mg196 O209 2.010 . S
O197 Mg196 2.028 . S
O197 C200 1.250 . S
O198 Mg199 2.028 . S
O198 C200 1.248 . S
Mg199 O198 2.028 . S
Mg199 O204 2.032 . S
Mg199 O206 2.079 . S
C200 O197 1.250 . S
C200 O198 1.248 . S
C201 O202 1.264 . S
C201 O209 1.249 . S
O202 C201 1.264 . S
O203 Mg196 1.986 . S
O203 C207 1.246 . S
O204 Mg199 2.032 . S
O204 C207 1.259 . S
O205 Mg196 2.114 . S
O205 C208 1.252 . S
O206 Mg196 2.251 . S
O206 Mg199 2.079 . S
O206 C208 1.273 . S
C207 O203 1.246 . S
C207 O204 1.259 . S
C208 O205 1.252 . S
C208 O206 1.273 . S
O209 Mg196 2.010 . S
O209 C201 1.249 . S
Mg210 O211 2.028 . S
Mg210 O217 1.986 . S
Mg210 O219 2.114 . S
Mg210 O220 2.251 . S
Mg210 O223 2.010 . S
O211 Mg210 2.028 . S
O211 C214 1.250 . S
O212 Mg213 2.028 . S
O212 C214 1.248 . S
Mg213 O212 2.028 . S
Mg213 O218 2.032 . S
Mg213 O220 2.079 . S
C214 O211 1.250 . S
C214 O212 1.248 . S
C215 O216 1.264 . S
C215 O223 1.249 . S
O216 C215 1.264 . S
O217 Mg210 1.986 . S
O217 C221 1.246 . S
O218 Mg213 2.032 . S
O218 C221 1.259 . S
O219 Mg210 2.114 . S
O219 C222 1.252 . S
O220 Mg210 2.251 . S
O220 Mg213 2.079 . S
O220 C222 1.273 . S
C221 O217 1.246 . S
C221 O218 1.259 . S
C222 O219 1.252 . S
C222 O220 1.273 . S
O223 Mg210 2.010 . S
O223 C215 1.249 . S
H224 C230 0.930 . S
H225 C233 0.930 . S
H226 C234 0.930 . S
H227 C235 0.930 . S
H228 C238 0.930 . S
H229 C239 0.930 . S
C230 H224 0.930 . S
C230 C231 1.355 . S
C230 C232 1.415 . S
C231 C230 1.355 . S
C231 C233 1.419 . S
C232 C230 1.415 . S
C232 C237 1.425 . S
C232 C239 1.409 . S
C233 H225 0.930 . S
C233 C231 1.419 . S
C233 C234 1.362 . S
C234 H226 0.930 . S
C234 C233 1.362 . S
C234 C237 1.409 . S
C235 H227 0.930 . S
C235 C236 1.355 . S
C235 C237 1.415 . S
C236 C235 1.355 . S
C236 C238 1.419 . S
C237 C232 1.425 . S
C237 C234 1.409 . S
C237 C235 1.415 . S
C238 H228 0.930 . S
C238 C236 1.419 . S
C238 C239 1.362 . S
C239 H229 0.930 . S
C239 C232 1.409 . S
C239 C238 1.362 . S
H240 C246 0.930 . S
H241 C249 0.930 . S
H242 C250 0.930 . S
H243 C251 0.930 . S
H244 C254 0.930 . S
H245 C255 0.930 . S
C246 H240 0.930 . S
C246 C247 1.355 . S
C246 C248 1.415 1_655 S
C247 C246 1.355 . S
C247 C249 1.419 1_565 S
C248 C246 1.415 1_455 S
C248 C253 1.425 1_465 S
C248 C255 1.409 . S
C249 H241 0.930 . S
C249 C247 1.419 1_545 S
C249 C250 1.362 . S
C250 H242 0.930 . S
C250 C249 1.362 . S
C250 C253 1.409 . S
C251 H243 0.930 . S
C251 C252 1.355 . S
C251 C253 1.415 1_455 S
C252 C251 1.355 . S
C252 C254 1.419 1_545 S
C253 C248 1.425 1_645 S
C253 C250 1.409 . S
C253 C251 1.415 1_655 S
C254 H244 0.930 . S
C254 C252 1.419 1_565 S
C254 C255 1.362 . S
C255 H245 0.930 . S
C255 C248 1.409 . S
C255 C254 1.362 . S
H256 C262 0.930 . S
H257 C265 0.930 . S
H258 C266 0.930 . S
H259 C267 0.930 . S
H260 C270 0.930 . S
H261 C271 0.930 . S
C262 H256 0.930 . S
C262 C263 1.355 . S
C262 C264 1.415 . S
C263 C262 1.355 . S
C263 C265 1.419 1_565 S
C264 C262 1.415 . S
C264 C269 1.425 1_565 S
C264 C271 1.409 . S
C265 H257 0.930 . S
C265 C263 1.419 1_545 S
C265 C266 1.362 . S
C266 H258 0.930 . S
C266 C265 1.362 . S
C266 C269 1.409 . S
C267 H259 0.930 . S
C267 C268 1.355 . S
C267 C269 1.415 . S
C268 C267 1.355 . S
C268 C270 1.419 1_545 S
C269 C264 1.425 1_545 S
C269 C266 1.409 . S
C269 C267 1.415 . S
C270 H260 0.930 . S
C270 C268 1.419 1_565 S
C270 C271 1.362 . S
C271 H261 0.930 . S
C271 C264 1.409 . S
C271 C270 1.362 . S
H272 C278 0.930 . S
H273 C281 0.930 . S
H274 C282 0.927 1_655 S
H275 C283 0.930 . S
H276 C286 0.930 . S
H277 C287 0.927 1_455 S
C278 H272 0.930 . S
C278 C279 1.355 . S
C278 C280 1.415 . S
C279 C278 1.355 . S
C279 C281 1.419 . S
C280 C278 1.415 . S
C280 C285 1.425 1_455 S
C280 C287 1.407 1_455 S
C281 H273 0.930 . S
C281 C279 1.419 . S
C281 C282 1.367 . S
C282 H274 0.927 1_455 S
C282 C281 1.367 . S
C282 C285 1.407 1_455 S
C283 H275 0.930 . S
C283 C284 1.355 . S
C283 C285 1.415 . S
C284 C283 1.355 . S
C284 C286 1.419 . S
C285 C280 1.425 1_655 S
C285 C282 1.407 1_655 S
C285 C283 1.415 . S
C286 H276 0.930 . S
C286 C284 1.419 . S
C286 C287 1.367 . S
C287 H277 0.927 1_655 S
C287 C280 1.407 1_655 S
C287 C286 1.367 . S
H288 C294 0.930 . S
H289 C297 0.930 . S
H290 C298 0.930 . S
H291 C299 0.930 . S
H292 C302 0.930 . S
H293 C303 0.930 . S
C294 H288 0.930 . S
C294 C295 1.355 . S
C294 C296 1.415 . S
C295 C294 1.355 . S
C295 C297 1.419 . S
C296 C294 1.415 . S
C296 C301 1.425 . S
C296 C303 1.409 . S
C297 H289 0.930 . S
C297 C295 1.419 . S
C297 C298 1.362 . S
C298 H290 0.930 . S
C298 C297 1.362 . S
C298 C301 1.409 . S
C299 H291 0.930 . S
C299 C300 1.355 . S
C299 C301 1.415 . S
C300 C299 1.355 . S
C300 C302 1.419 . S
C301 C296 1.425 . S
C301 C298 1.409 . S
C301 C299 1.415 . S
C302 H292 0.930 . S
C302 C300 1.419 . S
C302 C303 1.362 . S
C303 H293 0.930 . S
C303 C296 1.409 . S
C303 C302 1.362 . S
H304 C310 0.930 . S
H305 C313 0.930 . S
H306 C314 0.930 . S
H307 C315 0.930 . S
H308 C318 0.930 . S
H309 C319 0.930 . S
C310 H304 0.930 . S
C310 C311 1.355 . S
C310 C312 1.415 1_545 S
C311 C310 1.355 . S
C311 C313 1.419 . S
C312 C310 1.415 1_565 S
C312 C317 1.425 1_565 S
C312 C319 1.409 . S
C313 H305 0.930 . S
C313 C311 1.419 . S
C313 C314 1.362 . S
C314 H306 0.930 . S
C314 C313 1.362 . S
C314 C317 1.409 . S
C315 H307 0.930 . S
C315 C316 1.355 . S
C315 C317 1.415 1_565 S
C316 C315 1.355 . S
C316 C318 1.419 . S
C317 C312 1.425 1_545 S
C317 C314 1.409 . S
C317 C315 1.415 1_545 S
C318 H308 0.930 . S
C318 C316 1.419 . S
C318 C319 1.362 . S
C319 H309 0.930 . S
C319 C312 1.409 . S
C319 C318 1.362 . S
H320 C326 0.930 . S
H321 C329 0.930 . S
H322 C330 0.930 . S
H323 C331 0.930 . S
H324 C334 0.930 . S
H325 C335 0.930 . S
C326 H320 0.930 . S
C326 C327 1.355 . S
C326 C328 1.415 1_655 S
C327 C326 1.355 . S
C327 C329 1.419 . S
C328 C326 1.415 1_455 S
C328 C333 1.425 1_455 S
C328 C335 1.409 . S
C329 H321 0.930 . S
C329 C327 1.419 . S
C329 C330 1.362 . S
C330 H322 0.930 . S
C330 C329 1.362 . S
C330 C333 1.409 . S
C331 H323 0.930 . S
C331 C332 1.355 . S
C331 C333 1.415 1_455 S
C332 C331 1.355 . S
C332 C334 1.419 . S
C333 C328 1.425 1_655 S
C333 C330 1.409 . S
C333 C331 1.415 1_655 S
C334 H324 0.930 . S
C334 C332 1.419 . S
C334 C335 1.362 . S
C335 H325 0.930 . S
C335 C328 1.409 . S
C335 C334 1.362 . S
H336 C342 0.930 . S
H337 C345 0.930 . S
H338 C346 0.930 1_556 S
H339 C347 0.930 . S
H340 C350 0.930 . S
H341 C351 0.930 1_554 S
C342 H336 0.930 . S
C342 C343 1.355 . S
C342 C344 1.415 . S
C343 C342 1.355 . S
C343 C345 1.419 . S
C344 C342 1.415 . S
C344 C349 1.425 1_554 S
C344 C351 1.409 1_554 S
C345 H337 0.930 . S
C345 C343 1.419 . S
C345 C346 1.362 . S
C346 H338 0.930 1_554 S
C346 C345 1.362 . S
C346 C349 1.409 1_554 S
C347 H339 0.930 . S
C347 C348 1.355 . S
C347 C349 1.415 . S
C348 C347 1.355 . S
C348 C350 1.419 . S
C349 C344 1.425 1_556 S
C349 C346 1.409 1_556 S
C349 C347 1.415 . S
C350 H340 0.930 . S
C350 C348 1.419 . S
C350 C351 1.362 . S
C351 H341 0.930 1_556 S
C351 C344 1.409 1_556 S
C351 C350 1.362 . S
H352 C358 0.930 . S
H353 C361 0.930 . S
H354 C362 0.930 . S
H355 C363 0.930 . S
H356 C366 0.930 . S
H357 C367 0.930 . S
C358 H352 0.930 . S
C358 C359 1.355 . S
C358 C360 1.415 . S
C359 C358 1.355 . S
C359 C361 1.419 1_556 S
C360 C358 1.415 . S
C360 C365 1.425 1_456 S
C360 C367 1.409 1_455 S
C361 H353 0.930 . S
C361 C359 1.419 1_554 S
C361 C362 1.362 . S
C362 H354 0.930 . S
C362 C361 1.362 . S
C362 C365 1.409 1_455 S
C363 H355 0.930 . S
C363 C364 1.355 . S
C363 C365 1.415 . S
C364 C363 1.355 . S
C364 C366 1.419 1_554 S
C365 C360 1.425 1_654 S
C365 C362 1.409 1_655 S
C365 C363 1.415 . S
C366 H356 0.930 . S
C366 C364 1.419 1_556 S
C366 C367 1.362 . S
C367 H357 0.930 . S
C367 C360 1.409 1_655 S
C367 C366 1.362 . S
H368 C374 0.930 . S
H369 C377 0.930 . S
H370 C378 0.930 . S
H371 C379 0.930 . S
H372 C382 0.930 . S
H373 C383 0.930 . S
C374 H368 0.930 . S
C374 C375 1.355 . S
C374 C376 1.415 . S
C375 C374 1.355 . S
C375 C377 1.419 . S
C376 C374 1.415 . S
C376 C381 1.425 . S
C376 C383 1.409 . S
C377 H369 0.930 . S
C377 C375 1.419 . S
C377 C378 1.362 . S
C378 H370 0.930 . S
C378 C377 1.362 . S
C378 C381 1.409 . S
C379 H371 0.930 . S
C379 C380 1.355 . S
C379 C381 1.415 . S
C380 C379 1.355 . S
C380 C382 1.419 . S
C381 C376 1.425 . S
C381 C378 1.409 . S
C381 C379 1.415 . S
C382 H372 0.930 . S
C382 C380 1.419 . S
C382 C383 1.362 . S
C383 H373 0.930 . S
C383 C376 1.409 . S
C383 C382 1.362 . S
H384 C390 0.930 . S
H385 C393 0.930 . S
H386 C394 0.930 . S
H387 C395 0.930 . S
H388 C398 0.930 . S
H389 C399 0.930 . S
C390 H384 0.930 . S
C390 C391 1.355 . S
C390 C392 1.415 1_556 S
C391 C390 1.355 . S
C391 C393 1.419 . S
C392 C390 1.415 1_554 S
C392 C397 1.425 1_554 S
C392 C399 1.409 . S
C393 H385 0.930 . S
C393 C391 1.419 . S
C393 C394 1.362 . S
C394 H386 0.930 . S
C394 C393 1.362 . S
C394 C397 1.409 . S
C395 H387 0.930 . S
C395 C396 1.355 . S
C395 C397 1.415 1_554 S
C396 C395 1.355 . S
C396 C398 1.419 . S
C397 C392 1.425 1_556 S
C397 C394 1.409 . S
C397 C395 1.415 1_556 S
C398 H388 0.930 . S
C398 C396 1.419 . S
C398 C399 1.362 . S
C399 H389 0.930 . S
C399 C392 1.409 . S
C399 C398 1.362 . S
H400 C406 0.930 . S
H401 C409 0.930 . S
H402 C410 0.930 . S
H403 C411 0.930 . S
H404 C414 0.930 . S
H405 C415 0.930 . S
C406 H400 0.930 . S
C406 C407 1.355 . S
C406 C408 1.415 . S
C407 C406 1.355 . S
C407 C409 1.419 . S
C408 C406 1.415 . S
C408 C413 1.425 . S
C408 C415 1.409 . S
C409 H401 0.930 . S
C409 C407 1.419 . S
C409 C410 1.362 . S
C410 H402 0.930 . S
C410 C409 1.362 . S
C410 C413 1.409 . S
C411 H403 0.930 . S
C411 C412 1.355 . S
C411 C413 1.415 . S
C412 C411 1.355 . S
C412 C414 1.419 . S
C413 C408 1.425 . S
C413 C410 1.409 . S
C413 C411 1.415 . S
C414 H404 0.930 . S
C414 C412 1.419 . S
C414 C415 1.362 . S
C415 H405 0.930 . S
C415 C408 1.409 . S
C415 C414 1.362 . S
H416 C422 0.930 1_554 S
H417 C425 0.930 . S
H418 C426 0.930 . S
H419 C427 0.930 1_556 S
H420 C430 0.930 . S
H421 C431 0.930 . S
C422 H416 0.930 1_556 S
C422 C423 1.355 . S
C422 C424 1.415 1_556 S
C423 C422 1.355 . S
C423 C425 1.419 . S
C424 C422 1.415 1_554 S
C424 C429 1.425 1_544 S
C424 C431 1.409 1_545 S
C425 H417 0.930 . S
C425 C423 1.419 . S
C425 C426 1.362 . S
C426 H418 0.930 . S
C426 C425 1.362 . S
C426 C429 1.409 1_545 S
C427 H419 0.930 1_554 S
C427 C428 1.355 . S
C427 C429 1.415 1_554 S
C428 C427 1.355 . S
C428 C430 1.419 . S
C429 C424 1.425 1_566 S
C429 C426 1.409 1_565 S
C429 C427 1.415 1_556 S
C430 H420 0.930 . S
C430 C428 1.419 . S
C430 C431 1.362 . S
C431 H421 0.930 . S
C431 C424 1.409 1_565 S
C431 C430 1.362 . S
H432 C438 0.930 . S
H433 C441 0.930 . S
H434 C442 0.930 . S
H435 C443 0.930 . S
H436 C446 0.930 . S
H437 C447 0.930 . S
C438 H432 0.930 . S
C438 C439 1.355 . S
C438 C440 1.415 . S
C439 C438 1.355 . S
C439 C441 1.419 . S
C440 C438 1.415 . S
C440 C445 1.425 . S
C440 C447 1.409 . S
C441 H433 0.930 . S
C441 C439 1.419 . S
C441 C442 1.362 . S
C442 H434 0.930 . S
C442 C441 1.362 . S
C442 C445 1.409 . S
C443 H435 0.930 . S
C443 C444 1.355 . S
C443 C445 1.415 . S
C444 C443 1.355 . S
C444 C446 1.419 . S
C445 C440 1.425 . S
C445 C442 1.409 . S
C445 C443 1.415 . S
C446 H436 0.930 . S
C446 C444 1.419 . S
C446 C447 1.362 . S
C447 H437 0.930 . S
C447 C440 1.409 . S
C447 C446 1.362 . S
H448 C454 0.930 . S
H449 C457 0.930 . S
H450 C458 0.930 . S
H451 C459 0.930 . S
H452 C462 0.930 . S
H453 C463 0.930 . S
C454 H448 0.930 . S
C454 C455 1.355 . S
C454 C456 1.415 . S
C455 C454 1.355 . S
C455 C457 1.419 . S
C456 C454 1.415 . S
C456 C461 1.425 . S
C456 C463 1.409 . S
C457 H449 0.930 . S
C457 C455 1.419 . S
C457 C458 1.362 . S
C458 H450 0.930 . S
C458 C457 1.362 . S
C458 C461 1.409 . S
C459 H451 0.930 . S
C459 C460 1.355 . S
C459 C461 1.415 . S
C460 C459 1.355 . S
C460 C462 1.419 . S
C461 C456 1.425 . S
C461 C458 1.409 . S
C461 C459 1.415 . S
C462 H452 0.930 . S
C462 C460 1.419 . S
C462 C463 1.362 . S
C463 H453 0.930 . S
C463 C456 1.409 . S
C463 C462 1.362 . S
H464 C470 0.930 . S
H465 C473 0.930 . S
H466 C474 0.930 . S
H467 C475 0.930 . S
H468 C478 0.930 . S
H469 C479 0.930 . S
C470 H464 0.930 . S
C470 C471 1.355 . S
C470 C472 1.415 . S
C471 C470 1.355 . S
C471 C473 1.419 . S
C472 C470 1.415 . S
C472 C477 1.425 . S
C472 C479 1.409 . S
C473 H465 0.930 . S
C473 C471 1.419 . S
C473 C474 1.362 . S
C474 H466 0.930 . S
C474 C473 1.362 . S
C474 C477 1.409 . S
C475 H467 0.930 . S
C475 C476 1.355 . S
C475 C477 1.415 . S
C476 C475 1.355 . S
C476 C478 1.419 . S
C477 C472 1.425 . S
C477 C474 1.409 . S
C477 C475 1.415 . S
C478 H468 0.930 . S
C478 C476 1.419 . S
C478 C479 1.362 . S
C479 H469 0.930 . S
C479 C472 1.409 . S
C479 C478 1.362 . S
H480 C486 0.930 . S
H481 C489 0.930 . S
H482 C490 0.930 . S
H483 C491 0.930 1_545 S
H484 C494 0.930 . S
H485 C495 0.930 . S
C486 H480 0.930 . S
C486 C487 1.355 . S
C486 C488 1.415 . S
C487 C486 1.355 . S
C487 C489 1.419 . S
C488 C486 1.415 . S
C488 C493 1.425 . S
C488 C495 1.409 . S
C489 H481 0.930 . S
C489 C487 1.419 . S
C489 C490 1.362 . S
C490 H482 0.930 . S
C490 C489 1.362 . S
C490 C493 1.409 . S
C491 H483 0.930 1_565 S
C491 C492 1.355 . S
C491 C493 1.415 . S
C492 C491 1.355 . S
C492 C494 1.419 . S
C493 C488 1.425 . S
C493 C490 1.409 . S
C493 C491 1.415 . S
C494 H484 0.930 . S
C494 C492 1.419 . S
C494 C495 1.362 . S
C495 H485 0.930 . S
C495 C488 1.409 . S
C495 C494 1.362 . S
H496 C502 0.930 . S
H497 C505 0.930 . S
H498 C506 0.930 . S
H499 C507 0.930 . S
H500 C510 0.930 . S
H501 C511 0.930 . S
C502 H496 0.930 . S
C502 C503 1.355 . S
C502 C504 1.415 . S
C503 C502 1.355 . S
C503 C505 1.419 . S
C504 C502 1.415 . S
C504 C509 1.425 . S
C504 C511 1.409 . S
C505 H497 0.930 . S
C505 C503 1.419 . S
C505 C506 1.362 . S
C506 H498 0.930 . S
C506 C505 1.362 . S
C506 C509 1.409 . S
C507 H499 0.930 . S
C507 C508 1.355 . S
C507 C509 1.415 . S
C508 C507 1.355 . S
C508 C510 1.419 . S
C509 C504 1.425 . S
C509 C506 1.409 . S
C509 C507 1.415 . S
C510 H500 0.930 . S
C510 C508 1.419 . S
C510 C511 1.362 . S
C511 H501 0.930 . S
C511 C504 1.409 . S
C511 C510 1.362 . S
H512 C518 0.930 . S
H513 C521 0.930 . S
H514 C522 0.930 . S
H515 C523 0.930 . S
H516 C526 0.930 . S
H517 C527 0.930 . S
C518 H512 0.930 . S
C518 C519 1.355 . S
C518 C520 1.415 . S
C519 C518 1.355 . S
C519 C521 1.419 . S
C520 C518 1.415 . S
C520 C525 1.425 . S
C520 C527 1.409 . S
C521 H513 0.930 . S
C521 C519 1.419 . S
C521 C522 1.362 . S
C522 H514 0.930 . S
C522 C521 1.362 . S
C522 C525 1.409 . S
C523 H515 0.930 . S
C523 C524 1.355 . S
C523 C525 1.415 . S
C524 C523 1.355 . S
C524 C526 1.419 . S
C525 C520 1.425 . S
C525 C522 1.409 . S
C525 C523 1.415 . S
C526 H516 0.930 . S
C526 C524 1.419 . S
C526 C527 1.362 . S
C527 H517 0.930 . S
C527 C520 1.409 . S
C527 C526 1.362 . S
H528 C534 0.930 . S
H529 C537 0.930 . S
H530 C538 0.930 . S
H531 C539 0.930 1_545 S
H532 C542 0.930 . S
H533 C543 0.930 . S
C534 H528 0.930 . S
C534 C535 1.355 . S
C534 C536 1.415 . S
C535 C534 1.355 . S
C535 C537 1.419 . S
C536 C534 1.415 . S
C536 C541 1.425 . S
C536 C543 1.409 . S
C537 H529 0.930 . S
C537 C535 1.419 . S
C537 C538 1.362 . S
C538 H530 0.930 . S
C538 C537 1.362 . S
C538 C541 1.409 . S
C539 H531 0.930 1_565 S
C539 C540 1.355 . S
C539 C541 1.415 . S
C540 C539 1.355 . S
C540 C542 1.419 . S
C541 C536 1.425 . S
C541 C538 1.409 . S
C541 C539 1.415 . S
C542 H532 0.930 . S
C542 C540 1.419 . S
C542 C543 1.362 . S
C543 H533 0.930 . S
C543 C536 1.409 . S
C543 C542 1.362 . S
H544 C550 0.930 . S
H545 C553 0.930 . S
H546 C554 0.930 . S
H547 C555 0.930 . S
H548 C558 0.930 . S
H549 C559 0.930 . S
C550 H544 0.930 . S
C550 C551 1.355 . S
C550 C552 1.415 . S
C551 C550 1.355 . S
C551 C553 1.419 . S
C552 C550 1.415 . S
C552 C557 1.425 . S
C552 C559 1.409 . S
C553 H545 0.930 . S
C553 C551 1.419 . S
C553 C554 1.362 . S
C554 H546 0.930 . S
C554 C553 1.362 . S
C554 C557 1.409 . S
C555 H547 0.930 . S
C555 C556 1.355 . S
C555 C557 1.415 . S
C556 C555 1.355 . S
C556 C558 1.419 . S
C557 C552 1.425 . S
C557 C554 1.409 . S
C557 C555 1.415 . S
C558 H548 0.930 . S
C558 C556 1.419 . S
C558 C559 1.362 . S
C559 H549 0.930 . S
C559 C552 1.409 . S
C559 C558 1.362 . S
H560 C566 0.930 . S
H561 C569 0.930 . S
H562 C570 0.930 . S
H563 C571 0.930 . S
H564 C574 0.930 . S
H565 C575 0.930 . S
C566 H560 0.930 . S
C566 C567 1.355 . S
C566 C568 1.415 . S
C567 C566 1.355 . S
C567 C569 1.419 . S
C568 C566 1.415 . S
C568 C573 1.425 . S
C568 C575 1.409 . S
C569 H561 0.930 . S
C569 C567 1.419 . S
C569 C570 1.362 . S
C570 H562 0.930 . S
C570 C569 1.362 . S
C570 C573 1.409 . S
C571 H563 0.930 . S
C571 C572 1.355 . S
C571 C573 1.415 . S
C572 C571 1.355 . S
C572 C574 1.419 . S
C573 C568 1.425 . S
C573 C570 1.409 . S
C573 C571 1.415 . S
C574 H564 0.930 . S
C574 C572 1.419 . S
C574 C575 1.362 . S
C575 H565 0.930 . S
C575 C568 1.409 . S
C575 C574 1.362 . S
H576 C582 0.930 . S
H577 C585 0.930 . S
H578 C586 0.930 . S
H579 C587 0.930 . S
H580 C590 0.930 . S
H581 C591 0.930 . S
C582 H576 0.930 . S
C582 C583 1.355 . S
C582 C584 1.415 . S
C583 C582 1.355 . S
C583 C585 1.419 . S
C584 C582 1.415 . S
C584 C589 1.425 . S
C584 C591 1.409 . S
C585 H577 0.930 . S
C585 C583 1.419 . S
C585 C586 1.362 . S
C586 H578 0.930 . S
C586 C585 1.362 . S
C586 C589 1.409 . S
C587 H579 0.930 . S
C587 C588 1.355 . S
C587 C589 1.415 . S
C588 C587 1.355 . S
C588 C590 1.419 . S
C589 C584 1.425 . S
C589 C586 1.409 . S
C589 C587 1.415 . S
C590 H580 0.930 . S
C590 C588 1.419 . S
C590 C591 1.362 . S
C591 H581 0.930 . S
C591 C584 1.409 . S
C591 C590 1.362 . S
H592 C598 0.930 1_565 S
H593 C601 0.930 . S
H594 C602 0.930 . S
H595 C603 0.930 . S
H596 C606 0.930 . S
H597 C607 0.930 . S
C598 H592 0.930 1_545 S
C598 C599 1.355 . S
C598 C600 1.415 . S
C599 C598 1.355 . S
C599 C601 1.419 . S
C600 C598 1.415 . S
C600 C605 1.425 . S
C600 C607 1.409 . S
C601 H593 0.930 . S
C601 C599 1.419 . S
C601 C602 1.362 . S
C602 H594 0.930 . S
C602 C601 1.362 . S
C602 C605 1.409 . S
C603 H595 0.930 . S
C603 C604 1.355 . S
C603 C605 1.415 . S
C604 C603 1.355 . S
C604 C606 1.419 . S
C605 C600 1.425 . S
C605 C602 1.409 . S
C605 C603 1.415 . S
C606 H596 0.930 . S
C606 C604 1.419 . S
C606 C607 1.362 . S
C607 H597 0.930 . S
C607 C600 1.409 . S
C607 C606 1.362 . S
H608 C614 0.930 . S
H609 C617 0.930 . S
H610 C618 0.930 . S
H611 C619 0.930 . S
H612 C622 0.930 1_545 S
H613 C623 0.930 . S
C614 H608 0.930 . S
C614 C615 1.355 . S
C614 C616 1.415 . S
C615 C614 1.355 . S
C615 C617 1.419 . S
C616 C614 1.415 . S
C616 C621 1.425 . S
C616 C623 1.409 . S
C617 H609 0.930 . S
C617 C615 1.419 . S
C617 C618 1.362 . S
C618 H610 0.930 . S
C618 C617 1.362 . S
C618 C621 1.409 . S
C619 H611 0.930 . S
C619 C620 1.355 . S
C619 C621 1.415 . S
C620 C619 1.355 . S
C620 C622 1.419 . S
C621 C616 1.425 . S
C621 C618 1.409 . S
C621 C619 1.415 . S
C622 H612 0.930 1_565 S
C622 C620 1.419 . S
C622 C623 1.362 . S
C623 H613 0.930 . S
C623 C616 1.409 . S
C623 C622 1.362 . S
H624 C630 0.930 . S
H625 C633 0.930 . S
H626 C634 0.930 . S
H627 C635 0.930 . S
H628 C638 0.930 . S
H629 C639 0.930 . S
C630 H624 0.930 . S
C630 C631 1.355 . S
C630 C632 1.415 . S
C631 C630 1.355 . S
C631 C633 1.419 . S
C632 C630 1.415 . S
C632 C637 1.425 . S
C632 C639 1.409 . S
C633 H625 0.930 . S
C633 C631 1.419 . S
C633 C634 1.362 . S
C634 H626 0.930 . S
C634 C633 1.362 . S
C634 C637 1.409 . S
C635 H627 0.930 . S
C635 C636 1.355 . S
C635 C637 1.415 . S
C636 C635 1.355 . S
C636 C638 1.419 . S
C637 C632 1.425 . S
C637 C634 1.409 . S
C637 C635 1.415 . S
C638 H628 0.930 . S
C638 C636 1.419 . S
C638 C639 1.362 . S
C639 H629 0.930 . S
C639 C632 1.409 . S
C639 C638 1.362 . S
H640 C646 0.930 . S
H641 C649 0.930 . S
H642 C650 0.930 . S
H643 C651 0.930 . S
H644 C654 0.930 . S
H645 C655 0.930 . S
C646 H640 0.930 . S
C646 C647 1.355 . S
C646 C648 1.415 . S
C647 C646 1.355 . S
C647 C649 1.419 . S
C648 C646 1.415 . S
C648 C653 1.425 . S
C648 C655 1.409 . S
C649 H641 0.930 . S
C649 C647 1.419 . S
C649 C650 1.362 . S
C650 H642 0.930 . S
C650 C649 1.362 . S
C650 C653 1.409 . S
C651 H643 0.930 . S
C651 C652 1.355 . S
C651 C653 1.415 . S
C652 C651 1.355 . S
C652 C654 1.419 . S
C653 C648 1.425 . S
C653 C650 1.409 . S
C653 C651 1.415 . S
C654 H644 0.930 . S
C654 C652 1.419 . S
C654 C655 1.362 . S
C655 H645 0.930 . S
C655 C648 1.409 . S
C655 C654 1.362 . S
H656 C662 0.930 . S
H657 C665 0.930 . S
H658 C666 0.930 . S
H659 C667 0.930 . S
H660 C670 0.930 1_545 S
H661 C671 0.930 . S
C662 H656 0.930 . S
C662 C663 1.355 . S
C662 C664 1.415 . S
C663 C662 1.355 . S
C663 C665 1.419 . S
C664 C662 1.415 . S
C664 C669 1.425 . S
C664 C671 1.409 . S
C665 H657 0.930 . S
C665 C663 1.419 . S
C665 C666 1.362 . S
C666 H658 0.930 . S
C666 C665 1.362 . S
C666 C669 1.409 . S
C667 H659 0.930 . S
C667 C668 1.355 . S
C667 C669 1.415 . S
C668 C667 1.355 . S
C668 C670 1.419 . S
C669 C664 1.425 . S
C669 C666 1.409 . S
C669 C667 1.415 . S
C670 H660 0.930 1_565 S
C670 C668 1.419 . S
C670 C671 1.362 . S
C671 H661 0.930 . S
C671 C664 1.409 . S
C671 C670 1.362 . S
H672 C678 0.930 . S
H673 C681 0.930 . S
H674 C682 0.930 . S
H675 C683 0.930 . S
H676 C686 0.930 . S
H677 C687 0.930 . S
C678 H672 0.930 . S
C678 C679 1.355 . S
C678 C680 1.415 . S
C679 C678 1.355 . S
C679 C681 1.419 . S
C680 C678 1.415 . S
C680 C685 1.425 . S
C680 C687 1.409 . S
C681 H673 0.930 . S
C681 C679 1.419 . S
C681 C682 1.362 . S
C682 H674 0.930 . S
C682 C681 1.362 . S
C682 C685 1.409 . S
C683 H675 0.930 . S
C683 C684 1.355 . S
C683 C685 1.415 . S
C684 C683 1.355 . S
C684 C686 1.419 1_545 S
C685 C680 1.425 . S
C685 C682 1.409 . S
C685 C683 1.415 . S
C686 H676 0.930 . S
C686 C684 1.419 1_565 S
C686 C687 1.362 1_565 S
C687 H677 0.930 . S
C687 C680 1.409 . S
C687 C686 1.362 1_545 S
H688 C694 0.930 . S
H689 C697 0.930 . S
H690 C698 0.930 . S
H691 C699 0.930 . S
H692 C702 0.930 . S
H693 C703 0.930 . S
C694 H688 0.930 . S
C694 C695 1.355 . S
C694 C696 1.415 . S
C695 C694 1.355 . S
C695 C697 1.419 . S
C696 C694 1.415 . S
C696 C701 1.425 . S
C696 C703 1.409 . S
C697 H689 0.930 . S
C697 C695 1.419 . S
C697 C698 1.362 . S
C698 H690 0.930 . S
C698 C697 1.362 . S
C698 C701 1.409 . S
C699 H691 0.930 . S
C699 C700 1.355 . S
C699 C701 1.415 . S
C700 C699 1.355 . S
C700 C702 1.419 . S
C701 C696 1.425 . S
C701 C698 1.409 . S
C701 C699 1.415 . S
C702 H692 0.930 . S
C702 C700 1.419 . S
C702 C703 1.362 . S
C703 H693 0.930 . S
C703 C696 1.409 . S
C703 C702 1.362 . S
H704 C710 0.930 . S
H705 C713 0.930 . S
H706 C714 0.930 . S
H707 C715 0.930 . S
H708 C718 0.930 . S
H709 C719 0.930 . S
C710 H704 0.930 . S
C710 C711 1.355 . S
C710 C712 1.415 . S
C711 C710 1.355 . S
C711 C713 1.419 . S
C712 C710 1.415 . S
C712 C717 1.425 . S
C712 C719 1.409 . S
C713 H705 0.930 . S
C713 C711 1.419 . S
C713 C714 1.362 . S
C714 H706 0.930 . S
C714 C713 1.362 . S
C714 C717 1.409 . S
C715 H707 0.930 . S
C715 C716 1.355 . S
C715 C717 1.415 . S
C716 C715 1.355 . S
C716 C718 1.419 . S
C717 C712 1.425 . S
C717 C714 1.409 . S
C717 C715 1.415 . S
C718 H708 0.930 . S
C718 C716 1.419 . S
C718 C719 1.362 . S
C719 H709 0.930 . S
C719 C712 1.409 . S
C719 C718 1.362 . S
H720 C726 0.930 . S
H721 C729 0.930 . S
H722 C730 0.930 . S
H723 C731 0.930 1_565 S
H724 C734 0.930 . S
H725 C735 0.930 . S
C726 H720 0.930 . S
C726 C727 1.355 . S
C726 C728 1.415 . S
C727 C726 1.355 . S
C727 C729 1.419 . S
C728 C726 1.415 . S
C728 C733 1.425 . S
C728 C735 1.409 . S
C729 H721 0.930 . S
C729 C727 1.419 . S
C729 C730 1.362 . S
C730 H722 0.930 . S
C730 C729 1.362 . S
C730 C733 1.409 . S
C731 H723 0.930 1_545 S
C731 C732 1.355 . S
C731 C733 1.415 . S
C732 C731 1.355 . S
C732 C734 1.419 . S
C733 C728 1.425 . S
C733 C730 1.409 . S
C733 C731 1.415 . S
C734 H724 0.930 . S
C734 C732 1.419 . S
C734 C735 1.362 . S
C735 H725 0.930 . S
C735 C728 1.409 . S
C735 C734 1.362 . S
C231 C207 1.481 . S
C236 C11 1.481 . S
C247 C33 1.450 . S
C252 C5 1.450 . S
C263 C165 1.467 . S
C268 C25 1.467 . S
C279 C19 1.452 . S
C284 C103 1.452 . S
C295 C39 1.505 . S
C300 C179 1.505 . S
C311 C137 1.473 . S
C316 C53 1.473 . S
C327 C47 1.387 . S
C332 C75 1.387 . S
C343 C151 1.520 . S
C348 C67 1.520 . S
C359 C61 1.341 . S
C364 C89 1.341 . S
C375 C221 1.510 . S
C380 C81 1.510 . S
C391 C123 1.490 . S
C396 C95 1.490 . S
C407 C193 1.469 . S
C412 C109 1.469 . S
C423 C117 1.429 . S
C428 C145 1.429 . S
C439 C215 1.408 . S
C444 C131 1.408 . S
C455 C159 1.432 . S
C460 C187 1.432 . S
C471 C201 1.401 . S
C476 C173 1.401 . S
C487 C74 1.178 . S
C492 C4 1.145 1_565 S
C503 C12 1.214 . S
C508 C82 1.233 . S
C519 C18 1.109 . S
C524 C60 1.138 . S
C535 C68 1.229 . S
C540 C26 1.235 1_565 S
C551 C102 1.174 . S
C556 C32 1.139 1_545 S
C567 C110 1.201 . S
C572 C40 1.205 . S
C583 C88 1.175 . S
C588 C46 1.141 . S
C599 C54 1.235 1_545 S
C604 C96 1.230 . S
C615 C186 1.139 . S
C620 C116 1.110 1_565 S
C631 C124 1.200 . S
C636 C194 1.212 . S
C647 C130 1.134 . S
C652 C172 1.108 . S
C663 C180 1.200 . S
C668 C138 1.207 1_565 S
C679 C214 1.134 . S
C684 C144 1.107 1_545 S
C695 C222 1.230 . S
C700 C152 1.234 . S
C711 C158 1.158 . S
C716 C200 1.185 . S
C727 C208 1.235 . S
C732 C166 1.218 1_545 S
