# Generated by pormake.
# Topology snz, (6)-cn, num edge types: 1
# Building blocks:
#     Node 0, Type 0, BuildingBlock: BETDIP_clean_sbu_0, # of connection points: 6
#     Node 1, Type 0, BuildingBlock: BETDIP_clean_sbu_0, # of connection points: 6
#     Node 2, Type 0, BuildingBlock: BETDIP_clean_sbu_0, # of connection points: 6
#     Node 3, Type 0, BuildingBlock: BETDIP_clean_sbu_0, # of connection points: 6
#     Node 4, Type 0, BuildingBlock: BETDIP_clean_sbu_0, # of connection points: 6
#     Node 5, Type 0, BuildingBlock: BETDIP_clean_sbu_0, # of connection points: 6
#     Node 6, Type 0, BuildingBlock: BETDIP_clean_sbu_0, # of connection points: 6
#     Node 7, Type 0, BuildingBlock: BETDIP_clean_sbu_0, # of connection points: 6
#     Node 8, Type 0, BuildingBlock: BETDIP_clean_sbu_0, # of connection points: 6
#     Edge 9, Type (0, 0), BuildingBlock: XUDNAN_clean_linker_2, # of connection points: 2
#     Edge 10, Type (0, 0), BuildingBlock: XUDNAN_clean_linker_2, # of connection points: 2
#     Edge 11, Type (0, 0), BuildingBlock: XUDNAN_clean_linker_2, # of connection points: 2
#     Edge 12, Type (0, 0), BuildingBlock: XUDNAN_clean_linker_2, # of connection points: 2
#     Edge 13, Type (0, 0), BuildingBlock: XUDNAN_clean_linker_2, # of connection points: 2
#     Edge 14, Type (0, 0), BuildingBlock: XUDNAN_clean_linker_2, # of connection points: 2
#     Edge 15, Type (0, 0), BuildingBlock: XUDNAN_clean_linker_2, # of connection points: 2
#     Edge 16, Type (0, 0), BuildingBlock: XUDNAN_clean_linker_2, # of connection points: 2
#     Edge 17, Type (0, 0), BuildingBlock: XUDNAN_clean_linker_2, # of connection points: 2
#     Edge 18, Type (0, 0), BuildingBlock: XUDNAN_clean_linker_2, # of connection points: 2
#     Edge 19, Type (0, 0), BuildingBlock: XUDNAN_clean_linker_2, # of connection points: 2
#     Edge 20, Type (0, 0), BuildingBlock: XUDNAN_clean_linker_2, # of connection points: 2
#     Edge 21, Type (0, 0), BuildingBlock: XUDNAN_clean_linker_2, # of connection points: 2
#     Edge 22, Type (0, 0), BuildingBlock: XUDNAN_clean_linker_2, # of connection points: 2
#     Edge 23, Type (0, 0), BuildingBlock: XUDNAN_clean_linker_2, # of connection points: 2
#     Edge 24, Type (0, 0), BuildingBlock: XUDNAN_clean_linker_2, # of connection points: 2
#     Edge 25, Type (0, 0), BuildingBlock: XUDNAN_clean_linker_2, # of connection points: 2
#     Edge 26, Type (0, 0), BuildingBlock: XUDNAN_clean_linker_2, # of connection points: 2
#     Edge 27, Type (0, 0), BuildingBlock: XUDNAN_clean_linker_2, # of connection points: 2
#     Edge 28, Type (0, 0), BuildingBlock: XUDNAN_clean_linker_2, # of connection points: 2
#     Edge 29, Type (0, 0), BuildingBlock: XUDNAN_clean_linker_2, # of connection points: 2
#     Edge 30, Type (0, 0), BuildingBlock: XUDNAN_clean_linker_2, # of connection points: 2
#     Edge 31, Type (0, 0), BuildingBlock: XUDNAN_clean_linker_2, # of connection points: 2
#     Edge 32, Type (0, 0), BuildingBlock: XUDNAN_clean_linker_2, # of connection points: 2
#     Edge 33, Type (0, 0), BuildingBlock: XUDNAN_clean_linker_2, # of connection points: 2
#     Edge 34, Type (0, 0), BuildingBlock: XUDNAN_clean_linker_2, # of connection points: 2
#     Edge 35, Type (0, 0), BuildingBlock: XUDNAN_clean_linker_2, # of connection points: 2
# Relax obj value: 0.164
# Max RMSD: 0.233
# Mean RMSD: 0.208
data_MOF--net-snz--node1-BETDIP_clean_sbu_0--edge1-XUDNAN_clean_linker_2
_symmetry_space_group_name_H-M    P1
_symmetry_Int_Tables_number       1
_symmetry_cell_setting            triclinic
loop_
_symmetry_equiv_pos_as_xyz
'x, y, z'
_cell_length_a     66.217055
_cell_length_b     66.726326
_cell_length_c     14.415554
_cell_angle_alpha  89.897575
_cell_angle_beta   90.253184
_cell_angle_gamma 119.80382
loop_
_atom_site_label
_atom_site_type_symbol
_atom_site_fract_x
_atom_site_fract_y
_atom_site_fract_z
_atom_type_partial_charge
Tb0 Tb 0.22834 0.50774 0.02996 0.0
Tb1 Tb 0.18363 0.50834 1.00129 0.0
C2 C 0.26196 0.50422 0.09579 0.0
C3 C 0.28079 0.49811 0.09229 0.0
C4 C 0.2768 0.47552 0.10591 0.0
C5 C 0.29564 0.47131 0.11419 0.0
C6 C 0.3189 0.48962 0.11017 0.0
C7 C 0.32259 0.51211 0.09679 0.0
C8 C 0.30393 0.51622 0.08764 0.0
C9 C 0.22191 0.51668 0.8558 0.0
C10 C 0.18114 0.46073 0.97394 0.0
C11 C 0.15273 0.51668 0.94259 0.0
C12 C 0.14683 0.53519 0.95063 0.0
C13 C 0.13783 0.54076 0.87282 0.0
C14 C 0.13151 0.55782 0.87832 0.0
C15 C 0.13394 0.56958 0.9621 0.0
C16 C 0.14338 0.56428 0.03975 0.0
C17 C 0.14992 0.54731 0.03393 0.0
C18 C 0.1926 0.50099 0.17615 0.0
C19 C 0.22819 0.55515 0.05524 0.0
O20 O 0.24009 0.48862 0.1096 0.0
O21 O 0.26419 0.52113 0.04292 0.0
O22 O 0.20636 0.50287 0.9107 0.0
O23 O 0.2418 0.52411 0.89667 0.0
O24 O 0.20253 0.47012 0.01067 0.0
O25 O 0.17143 0.47343 0.95515 0.0
O26 O 0.1718 0.52203 0.89709 0.0
O27 O 0.15037 0.5044 0.01696 0.0
O28 O 0.20632 0.51376 0.11517 0.0
O29 O 0.17178 0.49306 0.14261 0.0
O30 O 0.20827 0.54549 0.00958 0.0
O31 O 0.2372 0.54227 0.08392 0.0
H32 H 0.2592 0.46119 0.11168 0.0
H33 H 0.29193 0.45372 0.12394 0.0
H34 H 0.33999 0.52689 0.09618 0.0
H35 H 0.30773 0.53392 0.08013 0.0
H36 H 0.13543 0.53169 0.80782 0.0
H37 H 0.12406 0.56132 0.81761 0.0
H38 H 0.14569 0.57324 0.10491 0.0
H39 H 0.15716 0.54353 0.09457 0.0
Tb40 Tb 0.79998 0.71437 0.02684 0.0
Tb41 Tb 0.79969 0.6694 0.00562 0.0
C42 C 0.80351 0.75153 0.08755 0.0
C43 C 0.81045 0.77651 0.08344 0.0
C44 C 0.83284 0.79428 0.10856 0.0
C45 C 0.83755 0.81727 0.11772 0.0
C46 C 0.81991 0.823 0.10309 0.0
C47 C 0.79762 0.80505 0.0777 0.0
C48 C 0.79304 0.78232 0.06776 0.0
C49 C 0.79367 0.69833 0.85245 0.0
C50 C 0.84791 0.71434 0.97995 0.0
C51 C 0.79248 0.62995 0.9598 0.0
C52 C 0.77251 0.60704 0.9379 0.0
C53 C 0.7519 0.60458 0.89915 0.0
C54 C 0.73364 0.58268 0.87497 0.0
C55 C 0.73562 0.56283 0.8891 0.0
C56 C 0.75612 0.56541 0.93001 0.0
C57 C 0.77435 0.5873 0.95409 0.0
C58 C 0.81026 0.6876 0.17428 0.0
C59 C 0.75243 0.66782 0.0442 0.0
O60 O 0.81863 0.74484 0.10718 0.0
O61 O 0.787 0.73723 0.03167 0.0
O62 O 0.80577 0.69696 0.91618 0.0
O63 O 0.78611 0.71164 0.88328 0.0
O64 O 0.83803 0.72643 0.01013 0.0
O65 O 0.83551 0.69178 0.96628 0.0
O66 O 0.797 0.64655 0.9005 0.0
O67 O 0.79428 0.63682 0.04587 0.0
O68 O 0.79487 0.68732 0.12114 0.0
O69 O 0.81951 0.67679 0.13373 0.0
O70 O 0.76263 0.6581 0.99957 0.0
O71 O 0.76486 0.68927 0.07541 0.0
H72 H 0.84658 0.79038 0.12308 0.0
H73 H 0.85498 0.83049 0.13673 0.0
H74 H 0.78326 0.80829 0.06841 0.0
H75 H 0.77542 0.76904 0.05121 0.0
H76 H 0.75006 0.61959 0.88629 0.0
H77 H 0.71802 0.58132 0.84454 0.0
H78 H 0.75841 0.5506 0.94077 0.0
H79 H 0.79012 0.58885 0.98389 0.0
Tb80 Tb 0.5949 0.08035 0.04257 0.0
Tb81 Tb 0.6386 0.12573 0.02217 0.0
C82 C 0.55839 0.04608 0.10429 0.0
C83 C 0.53355 0.02748 0.1011 0.0
C84 C 0.5149 0.0313 0.12019 0.0
C85 C 0.49204 1.01253 0.12868 0.0
C86 C 0.48738 0.98954 0.11939 0.0
C87 C 0.50624 0.98602 0.10034 0.0
C88 C 0.52881 1.00462 0.09097 0.0
C89 C 0.61153 0.08792 0.87173 0.0
C90 C 0.59243 0.12673 0.99382 0.0
C91 C 0.67794 0.15778 0.97406 0.0
C92 C 0.70115 0.16017 0.96221 0.0
C93 C 0.70417 0.14335 0.91568 0.0
C94 C 0.72644 0.14624 0.90445 0.0
C95 C 0.74611 0.16597 0.9398 0.0
C96 C 0.74286 0.18245 0.98829 0.0
C97 C 0.72064 0.1796 0.99899 0.0
C98 C 0.62104 0.11517 0.1934 0.0
C99 C 0.64322 0.08203 0.06615 0.0
O100 O 0.56451 0.06751 0.12531 0.0
O101 O 0.57276 0.04465 0.04635 0.0
O102 O 0.61181 0.10293 0.92609 0.0
O103 O 0.60008 0.06793 0.91137 0.0
O104 O 0.58092 0.10425 0.01526 0.0
O105 O 0.61534 0.13853 0.98835 0.0
O106 O 0.66172 0.14434 0.91518 0.0
O107 O 0.67028 0.15489 0.0592 0.0
O108 O 0.62181 0.10221 0.13274 0.0
O109 O 0.63212 0.13607 0.16101 0.0
O110 O 0.65241 0.10186 0.02142 0.0
O111 O 0.62141 0.07236 0.09572 0.0
H112 H 0.51801 0.04869 0.13014 0.0
H113 H 0.47807 1.01606 0.14285 0.0
H114 H 0.50382 0.96878 0.0955 0.0
H115 H 0.54282 1.00097 0.07905 0.0
H116 H 0.68937 0.12805 0.88728 0.0
H117 H 0.72827 0.13328 0.86627 0.0
H118 H 0.75752 0.19759 0.01825 0.0
H119 H 0.71867 0.19265 0.03599 0.0
Tb120 Tb 0.90352 0.0285 0.33975 0.0
Tb121 Tb 0.8588 0.02903 0.31435 0.0
C122 C 0.93463 1.01987 0.39311 0.0
C123 C 0.93994 1.00086 0.38357 0.0
C124 C 0.92565 0.97899 0.42336 0.0
C125 C 0.93184 0.96178 0.41821 0.0
C126 C 0.95231 0.96599 0.37255 0.0
C127 C 0.96631 0.9877 0.33137 0.0
C128 C 0.96025 1.00496 0.33726 0.0
C129 C 0.8941 0.0359 0.16612 0.0
C130 C 0.85869 0.98157 0.28808 0.0
C131 C 0.82499 0.03248 0.25057 0.0
C132 C 0.80621 0.03865 0.25304 0.0
C133 C 0.81013 0.06112 0.23649 0.0
C134 C 0.79123 0.06525 0.22806 0.0
C135 C 0.76801 0.04697 0.23494 0.0
C136 C 0.76442 1.02459 0.25077 0.0
C137 C 0.78311 1.02057 0.26007 0.0
C138 C 0.86562 1.0197 0.48707 0.0
C139 C 0.90622 0.07623 0.36848 0.0
O140 O 0.91651 1.01579 0.44307 0.0
O141 O 0.93636 0.03168 0.31806 0.0
O142 O 0.88045 1.02299 0.22702 0.0
O143 O 0.91499 0.04406 0.19908 0.0
O144 O 0.87884 0.99129 0.33213 0.0
O145 O 0.84958 0.99443 0.26049 0.0
O146 O 0.84679 0.0478 0.23364 0.0
O147 O 0.82295 1.01601 0.30576 0.0
O148 O 0.88103 0.03382 0.43244 0.0
O149 O 0.84563 1.01209 0.44667 0.0
O150 O 0.88429 0.0666 0.33716 0.0
O151 O 0.91635 0.06373 0.38323 0.0
H152 H 0.90984 0.97521 0.45944 0.0
H153 H 0.9206 0.94516 0.4499 0.0
H154 H 0.98234 0.99159 0.2968 0.0
H155 H 0.97166 1.02169 0.30668 0.0
H156 H 0.82769 0.07539 0.22874 0.0
H157 H 0.79484 0.08275 0.21618 0.0
H158 H 0.74702 1.00982 0.25347 0.0
H159 H 0.77936 1.00294 0.26976 0.0
Tb160 Tb 0.28223 0.86477 0.34879 0.0
Tb161 Tb 0.28194 0.82003 0.32518 0.0
C162 C 0.29077 0.90432 0.3994 0.0
C163 C 0.31148 0.92758 0.40653 0.0
C164 C 0.33231 0.93114 0.44765 0.0
C165 C 0.35125 0.9535 0.45778 0.0
C166 C 0.34978 0.97276 0.42684 0.0
C167 C 0.32909 0.969 0.38339 0.0
C168 C 0.31015 0.94667 0.37367 0.0
C169 C 0.27447 0.84764 0.17619 0.0
C170 C 0.32952 0.86697 0.30259 0.0
C171 C 0.27833 0.783 0.26234 0.0
C172 C 0.27135 0.75803 0.26683 0.0
C173 C 0.24948 0.74038 0.23588 0.0
C174 C 0.24498 0.71746 0.227 0.0
C175 C 0.26233 0.71168 0.24772 0.0
C176 C 0.28408 0.72948 0.27907 0.0
C177 C 0.28845 0.75213 0.28875 0.0
C178 C 0.29142 0.83615 0.49767 0.0
C179 C 0.23433 0.82006 0.37853 0.0
O180 O 0.2898 0.88856 0.45631 0.0
O181 O 0.28388 0.89626 0.31563 0.0
O182 O 0.28791 0.84742 0.23683 0.0
O183 O 0.26547 0.85951 0.20936 0.0
O184 O 0.31959 0.87677 0.34873 0.0
O185 O 0.31668 0.84544 0.27202 0.0
O186 O 0.26328 0.78981 0.24292 0.0
O187 O 0.29475 0.79714 0.31877 0.0
O188 O 0.27715 0.83732 0.44251 0.0
O189 O 0.29916 0.82394 0.45782 0.0
O190 O 0.2441 0.80793 0.34808 0.0
O191 O 0.24663 0.84266 0.38985 0.0
H192 H 0.33386 0.9167 0.47338 0.0
H193 H 0.36681 0.95571 0.4921 0.0
H194 H 0.32747 0.98334 0.35704 0.0
H195 H 0.29433 0.94433 0.34124 0.0
H196 H 0.23605 0.74436 0.21644 0.0
H197 H 0.22795 0.70434 0.20326 0.0
H198 H 0.29826 0.72622 0.29319 0.0
H199 H 0.30574 0.76531 0.30993 0.0
Tb200 Tb 0.44428 0.4061 0.33208 0.0
Tb201 Tb 0.48813 0.45154 0.32026 0.0
C202 C 0.40497 0.37321 0.37622 0.0
C203 C 0.38067 0.3682 0.37878 0.0
C204 C 0.37494 0.38512 0.40337 0.0
C205 C 0.35163 0.37969 0.40624 0.0
C206 C 0.33367 0.35723 0.38481 0.0
C207 C 0.33959 0.34046 0.35933 0.0
C208 C 0.36285 0.34592 0.35638 0.0
C209 C 0.4639 0.41516 0.167 0.0
C210 C 0.44089 0.45089 0.28429 0.0
C211 C 0.52704 0.48525 0.27802 0.0
C212 C 0.55011 0.50558 0.25562 0.0
C213 C 0.56169 0.50676 0.17244 0.0
C214 C 0.58307 0.52645 0.15085 0.0
C215 C 0.59343 0.54544 0.21206 0.0
C216 C 0.58196 0.54388 0.29615 0.0
C217 C 0.56062 0.52433 0.31735 0.0
C218 C 0.46956 0.43988 0.48943 0.0
C219 C 0.49019 0.40475 0.3655 0.0
O220 O 0.4195 0.38853 0.43545 0.0
O221 O 0.41403 0.37559 0.29372 0.0
O222 O 0.46262 0.42968 0.21956 0.0
O223 O 0.45327 0.39501 0.20587 0.0
O224 O 0.43058 0.43002 0.32141 0.0
O225 O 0.4635 0.46176 0.2661 0.0
O226 O 0.51795 0.46546 0.23377 0.0
O227 O 0.51411 0.48581 0.34526 0.0
O228 O 0.47053 0.42732 0.42733 0.0
O229 O 0.48089 0.46093 0.45907 0.0
O230 O 0.50171 0.42717 0.34354 0.0
O231 O 0.46729 0.39323 0.37257 0.0
H232 H 0.38843 0.40243 0.42127 0.0
H233 H 0.34767 0.39294 0.42704 0.0
H234 H 0.32622 0.32311 0.34107 0.0
H235 H 0.36694 0.33266 0.3368 0.0
H236 H 0.55404 0.49262 0.12327 0.0
H237 H 0.59118 0.52698 0.08515 0.0
H238 H 0.58951 0.55779 0.34632 0.0
H239 H 0.55232 0.52394 0.38246 0.0
Tb240 Tb 0.56533 0.28631 0.69382 0.0
Tb241 Tb 0.51894 0.24587 0.65703 0.0
C242 C 0.60172 0.32543 0.68326 0.0
C243 C 0.611 0.34992 0.7102 0.0
C244 C 0.60094 0.36277 0.67687 0.0
C245 C 0.61133 0.38644 0.69475 0.0
C246 C 0.63245 0.39807 0.74432 0.0
C247 C 0.64225 0.38506 0.77935 0.0
C248 C 0.6316 0.36126 0.76262 0.0
C249 C 0.56122 0.2466 0.75245 0.0
C250 C 0.53079 0.26989 0.85421 0.0
C251 C 0.48132 0.20786 0.65935 0.0
C252 C 0.47238 0.18365 0.6322 0.0
C253 C 0.48277 0.17746 0.56154 0.0
C254 C 0.47316 0.15428 0.53502 0.0
C255 C 0.45304 0.13694 0.57889 0.0
C256 C 0.44314 0.14331 0.6512 0.0
C257 C 0.4527 0.16641 0.67734 0.0
C258 C 0.52362 0.28605 0.60167 0.0
C259 C 0.55459 0.25838 0.50508 0.0
O260 O 0.58533 0.31697 0.62016 0.0
O261 O 0.59806 0.31054 0.74914 0.0
O262 O 0.55252 0.24963 0.67947 0.0
O263 O 0.57516 0.26663 0.78774 0.0
O264 O 0.54818 0.28869 0.81771 0.0
O265 O 0.51805 0.25136 0.80373 0.0
O266 O 0.49613 0.21547 0.72829 0.0
O267 O 0.48733 0.22296 0.59232 0.0
O268 O 0.53152 0.28244 0.67571 0.0
O269 O 0.51135 0.26656 0.5598 0.0
O270 O 0.53823 0.24056 0.55001 0.0
O271 O 0.56591 0.27882 0.54551 0.0
H272 H 0.58543 0.35477 0.6344 0.0
H273 H 0.60296 0.39567 0.66798 0.0
H274 H 0.65865 0.39336 0.81659 0.0
H275 H 0.63994 0.35186 0.78795 0.0
H276 H 0.49809 0.19056 0.52617 0.0
H277 H 0.48116 0.15002 0.47879 0.0
H278 H 0.42798 0.13041 0.68789 0.0
H279 H 0.44457 0.17085 0.73257 0.0
Tb280 Tb 1.02149 0.27115 0.70699 0.0
Tb281 Tb 0.06401 0.26393 0.68047 0.0
C282 C 0.98379 0.26997 0.74162 0.0
C283 C 0.95917 0.25357 0.76172 0.0
C284 C 0.95232 0.23612 0.82894 0.0
C285 C 0.9287 0.222 0.85012 0.0
C286 C 0.91165 0.22518 0.80452 0.0
C287 C 0.91865 0.24217 0.7352 0.0
C288 C 0.94214 0.25623 0.71433 0.0
C289 C 0.06354 0.30791 0.73407 0.0
C290 C 1.03378 0.24481 0.85705 0.0
C291 C 0.10634 0.27591 0.6785 0.0
C292 C 0.12584 0.27908 0.62002 0.0
C293 C 0.12812 0.28679 0.5279 0.0
C294 C 0.14911 0.29432 0.48064 0.0
C295 C 0.16811 0.29429 0.52484 0.0
C296 C 0.16514 0.28524 0.61516 0.0
C297 C 0.14421 0.27773 0.66213 0.0
C298 C 1.02513 0.22648 0.62384 0.0
C299 C 1.04051 0.27309 0.50773 0.0
O300 O 0.99081 0.26926 0.65753 0.0
O301 O 0.99929 0.27307 0.80531 0.0
O302 O 0.05677 0.28728 0.75539 0.0
O303 O 1.04589 0.30864 0.69943 0.0
O304 O 1.01687 0.24597 0.81254 0.0
O305 O 0.05506 0.25382 0.82335 0.0
O306 O 0.09827 0.29005 0.66291 0.0
O307 O 0.08997 0.25475 0.69814 0.0
O308 O 1.02765 0.24496 0.65817 0.0
O309 O 1.0458 0.22867 0.62085 0.0
O310 O 0.06032 0.27623 0.54413 0.0
O311 O 1.02246 0.26928 0.55888 0.0
H312 H 0.96517 0.23369 0.86623 0.0
H313 H 0.92386 0.20912 0.90408 0.0
H314 H 0.90595 0.24476 0.69742 0.0
H315 H 0.94706 0.26951 0.6619 0.0
H316 H 0.11411 0.28797 0.49407 0.0
H317 H 0.15072 0.30085 0.41064 0.0
H318 H 0.17942 0.2852 0.65189 0.0
H319 H 0.14284 0.27206 0.73349 0.0
Tb320 Tb 1.0354 0.7427 0.69061 0.0
Tb321 Tb 0.047 0.7917 0.67169 0.0
C322 C 1.03443 0.70484 0.71683 0.0
C323 C 0.04783 0.69489 0.75987 0.0
C324 C 0.05579 0.68312 0.70364 0.0
C325 C 0.06654 0.67161 0.74279 0.0
C326 C 0.06976 0.67168 0.83945 0.0
C327 C 0.06225 0.68398 0.8955 0.0
C328 C 0.05117 0.69522 0.8563 0.0
C329 C 0.99989 0.74988 0.72245 0.0
C330 C 0.05968 0.77658 0.85437 0.0
C331 C 0.04629 0.8289 0.65107 0.0
C332 C 1.03392 0.83847 0.59701 0.0
C333 C 1.01092 0.83267 0.61832 0.0
C334 C 1.00044 0.84388 0.57407 0.0
C335 C 1.01269 0.86113 0.50751 0.0
C336 C 1.03543 0.86642 0.48435 0.0
C337 C 1.04594 0.85529 0.52887 0.0
C338 C 0.08259 0.78481 0.63917 0.0
C339 C 1.02325 0.7567 0.50438 0.0
O340 O 1.04349 0.71777 0.64345 0.0
O341 O 1.02446 0.71295 0.77168 0.0
O342 O 1.02083 0.76271 0.74569 0.0
O343 O 0.99817 0.73159 0.68408 0.0
O344 O 0.05983 0.76036 0.80288 0.0
O345 O 0.05308 0.79065 0.81894 0.0
O346 O 1.03434 0.81338 0.7139 0.0
O347 O 0.06043 0.82404 0.60611 0.0
O348 O 0.06161 0.77175 0.61615 0.0
O349 O 0.08425 0.80302 0.67883 0.0
O350 O 1.02639 0.77579 0.5455 0.0
O351 O 1.02799 0.74202 0.54648 0.0
H352 H 0.05308 0.68225 0.62923 0.0
H353 H 0.07156 0.66197 0.69718 0.0
H354 H 0.06465 0.68474 0.97 0.0
H355 H 1.04478 0.70367 0.90183 0.0
H356 H 1.00114 0.81986 0.67076 0.0
H357 H 0.98281 0.83922 0.59273 0.0
H358 H 1.04547 0.87982 0.43429 0.0
H359 H 0.06377 0.86033 0.51186 0.0
H360 H 0.18238 0.49518 0.73957 0.0
H361 H 0.25773 0.53779 0.73697 0.0
H362 H 0.2575 0.53625 0.56731 0.0
H363 H 0.17715 0.45896 0.54307 0.0
H364 H 0.15161 0.45813 0.49456 0.0
H365 H 0.15702 0.46192 0.61771 0.0
H366 H 0.15471 0.49948 0.61218 0.0
H367 H 0.14918 0.49574 0.48911 0.0
H368 H 0.17315 0.5222 0.5332 0.0
H369 H 0.25049 0.52916 0.40138 0.0
H370 H 0.23652 0.52115 0.24098 0.0
H371 H 0.165 0.48524 0.33756 0.0
C372 C 0.19875 0.50426 0.70294 0.0
C373 C 0.22015 0.51644 0.75241 0.0
C374 C 0.24115 0.5282 0.70159 0.0
C375 C 0.24124 0.52739 0.60474 0.0
C376 C 0.22014 0.51502 0.55817 0.0
C377 C 0.19918 0.50396 0.60464 0.0
C378 C 0.1791 0.49269 0.53498 0.0
C379 C 0.16541 0.46636 0.54839 0.0
C380 C 0.16308 0.50315 0.54285 0.0
C381 C 0.19222 0.49915 0.44285 0.0
C382 C 0.2159 0.51178 0.45921 0.0
C383 C 0.23198 0.51953 0.38746 0.0
C384 C 0.2238 0.51485 0.29611 0.0
C385 C 0.19965 0.5028 0.27576 0.0
C386 C 0.18357 0.49452 0.35058 0.0
H387 H 0.77314 0.70424 0.69169 0.0
H388 H 0.8242 0.686 0.78765 0.0
H389 H 0.83463 0.68359 0.6272 0.0
H390 H 0.75407 0.66503 0.49199 0.0
H391 H 0.75003 0.68433 0.41645 0.0
H392 H 0.74653 0.68538 0.53994 0.0
H393 H 0.77708 0.72895 0.54001 0.0
H394 H 0.78082 0.72798 0.41662 0.0
H395 H 0.80562 0.7384 0.49315 0.0
H396 H 0.84106 0.68428 0.45997 0.0
H397 H 0.84005 0.68345 0.2898 0.0
H398 H 0.78352 0.69877 0.29106 0.0
C399 C 0.78641 0.69964 0.67854 0.0
C400 C 0.79793 0.69547 0.75311 0.0
C401 C 0.8151 0.68935 0.7327 0.0
C402 C 0.82127 0.688 0.64131 0.0
C403 C 0.80993 0.69247 0.56974 0.0
C404 C 0.79259 0.69779 0.58641 0.0
C405 C 0.78277 0.70083 0.49477 0.0
C406 C 0.75681 0.68282 0.48524 0.0
C407 C 0.78681 0.72551 0.48563 0.0
C408 C 0.79738 0.69643 0.42489 0.0
C409 C 0.81309 0.69195 0.47065 0.0
C410 C 0.82873 0.68758 0.42317 0.0
C411 C 0.82803 0.68719 0.32621 0.0
C412 C 0.81165 0.69089 0.27669 0.0
C413 C 0.79627 0.6959 0.32688 0.0
H414 H 0.6252 0.12644 0.75523 0.0
H415 H 0.60191 0.05299 0.75426 0.0
H416 H 0.60033 0.05263 0.58464 0.0
H417 H 0.59113 0.1265 0.55914 0.0
H418 H 0.61351 0.15311 0.50957 0.0
H419 H 0.61299 0.14839 0.63291 0.0
H420 H 0.65525 0.15589 0.62732 0.0
H421 H 0.65598 0.16089 0.50414 0.0
H422 H 0.6624 0.13939 0.54861 0.0
H423 H 0.59835 0.05851 0.41899 0.0
H424 H 0.60206 0.07172 0.25831 0.0
H425 H 0.62982 0.14238 0.35359 0.0
C426 C 0.61999 0.1104 0.71895 0.0
C427 C 0.6134 0.08965 0.76873 0.0
C428 C 0.60682 0.06905 0.71849 0.0
C429 C 0.60579 0.06861 0.62172 0.0
C430 C 0.61176 0.08901 0.57482 0.0
C431 C 0.61923 0.10968 0.62079 0.0
C432 C 0.62539 0.12908 0.55084 0.0
C433 C 0.60983 0.13991 0.56392 0.0
C434 C 0.6513 0.1474 0.55817 0.0
C435 C 0.62001 0.1159 0.4592 0.0
C436 C 0.61185 0.09274 0.47597 0.0
C437 C 0.60504 0.07665 0.40467 0.0
C438 C 0.60721 0.08439 0.31326 0.0
C439 C 0.61652 0.10813 0.29264 0.0
C440 C 0.6227 0.12413 0.36697 0.0
H441 H 0.90496 0.04199 0.60367 0.0
H442 H 0.82986 0.99729 0.605 0.0
H443 H 0.82983 0.99871 0.77457 0.0
H444 H 0.91507 1.01564 0.81072 0.0
H445 H 0.93844 0.04247 0.85504 0.0
H446 H 0.93311 0.03858 0.73188 0.0
H447 H 0.92949 0.07542 0.7258 0.0
H448 H 0.93457 0.07929 0.84912 0.0
H449 H 0.90871 0.07757 0.79952 0.0
H450 H 0.83644 1.00616 0.94026 0.0
H451 H 0.85017 1.01467 0.10089 0.0
H452 H 0.92176 0.05226 0.0056 0.0
C453 C 0.8886 0.03242 0.64003 0.0
C454 C 0.86734 1.01972 0.59028 0.0
C455 C 0.84634 1.00731 0.64066 0.0
C456 C 0.84609 1.00803 0.73744 0.0
C457 C 0.86705 1.02097 0.78429 0.0
C458 C 0.88803 0.03261 0.73823 0.0
C459 C 0.90796 0.0444 0.80819 0.0
C460 C 0.92463 0.03469 0.80102 0.0
C461 C 0.92095 0.07074 0.79483 0.0
C462 C 0.89471 0.03759 0.89993 0.0
C463 C 0.8711 1.02434 0.88318 0.0
C464 C 0.85491 1.01625 0.95454 0.0
C465 C 0.86295 1.02122 0.04597 0.0
C466 C 0.88706 0.03387 0.06664 0.0
C467 C 0.90322 0.0425 0.99223 0.0
H468 H 0.26834 0.85238 0.61303 0.0
H469 H 0.31427 0.8233 0.61697 0.0
H470 H 0.31262 0.82163 0.78653 0.0
H471 H 0.29419 0.88852 0.82048 0.0
H472 H 0.26693 0.88454 0.86364 0.0
H473 H 0.27103 0.8833 0.7407 0.0
H474 H 0.23442 0.84269 0.73347 0.0
H475 H 0.23023 0.84389 0.8564 0.0
H476 H 0.23248 0.82015 0.80833 0.0
H477 H 0.30491 0.82055 0.95189 0.0
H478 H 0.29621 0.82555 0.11204 0.0
H479 H 0.25748 0.85836 0.01462 0.0
C480 C 0.27815 0.84585 0.64994 0.0
C481 C 0.29126 0.83772 0.60091 0.0
C482 C 0.30394 0.82944 0.65205 0.0
C483 C 0.30308 0.82834 0.74883 0.0
C484 C 0.28973 0.83592 0.79495 0.0
C485 C 0.27783 0.84497 0.74818 0.0
C486 C 0.26561 0.85267 0.81747 0.0
C487 C 0.27501 0.87882 0.81013 0.0
C488 C 0.2391 0.83904 0.80308 0.0
C489 C 0.27255 0.8464 0.90973 0.0
C490 C 0.28619 0.83644 0.89371 0.0
C491 C 0.29451 0.8286 0.96558 0.0
C492 C 0.28942 0.83154 0.05675 0.0
C493 C 0.2764 0.84261 0.07678 0.0
C494 C 0.2675 0.84986 1.00182 0.0
H495 H 0.47361 0.46581 0.64816 0.0
H496 H 0.46001 0.39825 0.55587 0.0
H497 H 0.45968 0.38654 0.71706 0.0
H498 H 0.51054 0.47153 0.84313 0.0
H499 H 0.49878 0.48433 0.92038 0.0
H500 H 0.49836 0.48836 0.79685 0.0
H501 H 0.45376 0.47178 0.80132 0.0
H502 H 0.45411 0.46796 0.925 0.0
H503 H 0.43547 0.44376 0.85211 0.0
H504 H 0.46286 0.38217 0.88346 0.0
H505 H 0.46313 0.38288 0.05351 0.0
H506 H 0.47175 0.45181 0.0493 0.0
C507 C 0.47037 0.44853 0.66232 0.0
C508 C 0.46705 0.43304 0.58878 0.0
C509 C 0.46273 0.41051 0.61027 0.0
C510 C 0.46261 0.40367 0.70194 0.0
C511 C 0.46644 0.41936 0.77245 0.0
C512 C 0.46974 0.44114 0.75471 0.0
C513 C 0.47242 0.45396 0.84557 0.0
C514 C 0.49646 0.47585 0.85181 0.0
C515 C 0.45277 0.4597 0.85664 0.0
C516 C 0.47021 0.43594 0.91621 0.0
C517 C 0.46713 0.41632 0.87142 0.0
C518 C 0.46499 0.39731 0.91958 0.0
C519 C 0.46524 0.39793 0.0164 0.0
C520 C 0.46726 0.41728 0.06497 0.0
C521 C 0.47021 0.43679 0.0141 0.0
H522 H 0.57539 0.29311 0.37706 0.0
H523 H 0.53618 0.21844 0.40734 0.0
H524 H 0.52517 0.21457 0.24307 0.0
H525 H 0.53792 0.29941 0.23964 0.0
H526 H 0.5583 0.32102 0.16132 0.0
H527 H 0.56731 0.31891 0.27717 0.0
H528 H 0.60101 0.31364 0.21447 0.0
H529 H 0.59293 0.31698 0.09833 0.0
H530 H 0.59494 0.29178 0.1283 0.0
H531 H 0.5095 0.21917 0.09745 0.0
H532 H 0.5025 0.22985 0.94405 0.0
H533 H 0.55604 0.30125 0.99327 0.0
C534 C 0.56548 0.27593 0.34797 0.0
C535 C 0.55619 0.25609 0.40491 0.0
C536 C 0.54317 0.23387 0.36495 0.0
C537 C 0.53668 0.23148 0.27196 0.0
C538 C 0.54409 0.25145 0.22 0.0
C539 C 0.55922 0.27318 0.25431 0.0
C540 C 0.56399 0.29168 0.18259 0.0
C541 C 0.55643 0.30875 0.21732 0.0
C542 C 0.58975 0.30426 0.1542 0.0
C543 C 0.54841 0.27685 0.10445 0.0
C544 C 0.53667 0.25383 0.12945 0.0
C545 C 0.51936 0.23695 0.07473 0.0
C546 C 0.51535 0.24338 0.98796 0.0
C547 C 0.52937 0.26631 0.95507 0.0
C548 C 0.54537 0.28353 0.01578 0.0
H549 H 0.07154 0.278 0.37114 0.0
H550 H 0.99815 0.25318 0.42259 0.0
H551 H 0.98834 0.23529 0.2691 0.0
H552 H 0.06998 0.29378 0.13749 0.0
H553 H 0.09078 0.28577 0.09793 0.0
H554 H 0.09158 0.29455 0.21626 0.0
H555 H 0.08844 0.25596 0.27034 0.0
H556 H 0.08672 0.24676 0.15161 0.0
H557 H 0.06413 0.22895 0.23241 0.0
H558 H 0.9859 0.22118 0.11161 0.0
H559 H 0.992 0.22031 0.94397 0.0
H560 H 0.0667 0.2547 0.98997 0.0
C561 C 0.05345 0.26894 0.34977 0.0
C562 C 1.0357 0.26689 0.40929 0.0
C563 C 1.0122 0.25508 0.37847 0.0
C564 C 1.00631 0.24443 0.29189 0.0
C565 C 1.02408 0.24592 0.23653 0.0
C566 C 0.04722 0.25843 0.26272 0.0
C567 C 0.06303 0.25966 0.18507 0.0
C568 C 0.07981 0.28493 0.15753 0.0
C569 C 0.07637 0.24708 0.21148 0.0
C570 C 1.04512 0.24671 0.11019 0.0
C571 C 1.02273 0.23821 0.14272 0.0
C572 C 1.0033 0.22754 0.08505 0.0
C573 C 1.00693 0.22711 0.99003 0.0
C574 C 1.02981 0.23767 0.95441 0.0
C575 C 0.04901 0.24622 0.01559 0.0
H576 H 1.02779 0.78916 0.37459 0.0
H577 H 1.0118 0.71793 0.40606 0.0
H578 H 1.0225 0.7174 0.24417 0.0
H579 H 1.005 0.77981 0.1227 0.0
H580 H 1.0267 0.80885 0.09216 0.0
H581 H 1.01476 0.80261 0.20757 0.0
H582 H 0.05668 0.82079 0.27328 0.0
H583 H 0.06872 0.82596 0.15823 0.0
H584 H 0.07495 0.80913 0.23928 0.0
H585 H 1.04532 0.728 0.10138 0.0
H586 H 0.0616 0.74214 0.94721 0.0
H587 H 0.05617 0.80371 0.9911 0.0
C588 C 1.02542 0.77311 0.34613 0.0
C589 C 1.01974 0.75385 0.40356 0.0
C590 C 1.01671 0.73311 0.36385 0.0
C591 C 1.0229 0.73264 0.27214 0.0
C592 C 1.03091 0.75267 0.22025 0.0
C593 C 1.03071 0.77201 0.25301 0.0
C594 C 1.03973 0.79091 0.1801 0.0
C595 C 1.02039 0.79583 0.14875 0.0
C596 C 0.0613 0.813 0.21488 0.0
C597 C 0.04606 0.77941 0.10388 0.0
C598 C 1.04142 0.75765 0.13043 0.0
C599 C 0.04793 0.74449 0.07728 0.0
C600 C 0.0574 0.75282 0.99015 0.0
C601 C 0.05912 0.77348 0.95548 0.0
C602 C 0.05457 0.78759 0.01498 0.0
H603 H 0.39447 0.43541 0.32201 0.0
H604 H 0.45357 0.48841 0.17112 0.0
H605 H 0.42859 0.50294 0.10748 0.0
H606 H 0.35134 0.42414 0.14476 0.0
H607 H 0.32894 0.4196 0.22653 0.0
H608 H 0.35163 0.41346 0.25926 0.0
H609 H 0.3617 0.44083 0.40068 0.0
H610 H 0.3392 0.44713 0.36727 0.0
H611 H 0.3687 0.47033 0.38221 0.0
H612 H 0.39672 0.51048 0.05347 0.0
H613 H 0.36166 0.51335 0.02522 0.0
H614 H 0.32319 0.45709 0.21883 0.0
C615 C 0.40225 0.45018 0.27614 0.0
C616 C 0.42615 0.46076 0.25196 0.0
C617 C 0.43546 0.48004 0.19145 0.0
C618 C 0.42133 0.48836 0.15442 0.0
C619 C 0.39785 0.47736 0.17877 0.0
C620 C 0.38841 0.45884 0.23905 0.0
C621 C 0.36266 0.4503 0.25451 0.0
C622 C 0.34776 0.42539 0.21919 0.0
C623 C 0.35779 0.45228 0.35728 0.0
C624 C 0.35916 0.46712 0.19452 0.0
C625 C 0.37964 0.48231 0.15038 0.0
C626 C 0.38072 0.49894 0.08905 0.0
C627 C 0.36059 0.50052 0.07402 0.0
C628 C 0.33947 0.48588 0.12125 0.0
C629 C 0.33884 0.46865 0.1813 0.0
H630 H 0.84944 0.85716 0.22845 0.0
H631 H 0.80027 0.84447 0.00474 0.0
H632 H 0.80364 0.88228 0.03298 0.0
H633 H 0.83178 0.88768 0.38021 0.0
H634 H 0.8608 0.90877 0.41642 0.0
H635 H 0.85464 0.88045 0.38021 0.0
H636 H 0.8873 0.89878 0.25764 0.0
H637 H 0.89361 0.92716 0.29352 0.0
H638 H 0.88689 0.91866 0.17379 0.0
H639 H 0.81066 0.92082 0.08909 0.0
H640 H 0.8244 0.95934 0.15773 0.0
H641 H 0.87116 0.94907 0.33821 0.0
C642 C 0.8396 0.86238 0.18437 0.0
C643 C 0.82412 0.84723 0.11547 0.0
C644 C 0.81165 0.8551 0.06003 0.0
C645 C 0.81356 0.87675 0.07503 0.0
C646 C 0.82839 0.89086 0.14479 0.0
C647 C 0.84156 0.88424 0.19749 0.0
C648 C 0.85669 0.90316 0.2663 0.0
C649 C 0.8506 0.89449 0.36674 0.0
C650 C 0.88266 0.91249 0.24661 0.0
C651 C 0.84965 0.9212 0.24469 0.0
C652 C 0.83317 0.91363 0.17474 0.0
C653 C 0.82368 0.927 0.14354 0.0
C654 C 0.83151 0.94886 0.18348 0.0
C655 C 0.84886 0.95738 0.25362 0.0
C656 C 0.85787 0.94315 0.28484 0.0
H657 H 0.45169 0.98434 0.23725 0.0
H658 H 0.46797 0.94796 0.02702 0.0
H659 H 0.4307 0.91281 0.05656 0.0
H660 H 0.42234 0.93835 0.39638 0.0
H661 H 0.39965 0.94481 0.42409 0.0
H662 H 0.42774 0.96758 0.3875 0.0
H663 H 0.4084 0.97834 0.25512 0.0
H664 H 0.38017 0.95567 0.29129 0.0
H665 H 0.38956 0.95648 0.17361 0.0
H666 H 0.39235 0.8807 0.11298 0.0
H667 H 0.3536 0.85525 0.18036 0.0
H668 H 0.36052 0.91245 0.34739 0.0
C669 C 0.44736 0.96913 0.19634 0.0
C670 C 0.46336 0.96906 0.13118 0.0
C671 C 0.45666 0.94854 0.07961 0.0
C672 C 0.43534 0.92839 0.09536 0.0
C673 C 0.4204 0.92889 0.16176 0.0
C674 C 0.42585 0.94882 0.21014 0.0
C675 C 0.40616 0.94474 0.27536 0.0
C676 C 0.41448 0.94913 0.37685 0.0
C677 C 0.39544 0.9597 0.24718 0.0
C678 C 0.38922 0.91927 0.25787 0.0
C679 C 0.39781 0.91049 0.19202 0.0
C680 C 0.38538 0.88742 0.16432 0.0
C681 C 0.3634 0.87302 0.20347 0.0
C682 C 0.35389 0.8817 0.26953 0.0
C683 C 0.36722 0.90515 0.29744 0.0
H684 H 0.60642 0.17205 0.02321 0.0
H685 H 0.55143 0.11029 0.89409 0.0
H686 H 0.53594 0.13374 0.82114 0.0
H687 H 0.57123 0.20021 0.06763 0.0
H688 H 0.59555 0.22851 0.0447 0.0
H689 H 0.60046 0.20628 0.09209 0.0
H690 H 0.62829 0.21209 0.95591 0.0
H691 H 0.6232 0.23405 0.90737 0.0
H692 H 0.61787 0.20939 0.83829 0.0
H693 H 0.52967 0.16593 0.74692 0.0
H694 H 0.53097 0.20203 0.69399 0.0
H695 H 0.58915 0.24169 0.87917 0.0
C696 C 0.59075 0.16332 0.98143 0.0
C697 C 0.58002 0.13927 0.96496 0.0
C698 C 0.55971 0.12859 0.90907 0.0
C699 C 0.55093 0.14186 0.86672 0.0
C700 C 0.56243 0.16573 0.88221 0.0
C701 C 0.58165 0.1762 0.94008 0.0
C702 C 0.59141 0.20211 0.94433 0.0
C703 C 0.58954 0.20972 0.04305 0.0
C704 C 0.61668 0.21517 0.90938 0.0
C705 C 0.57512 0.20484 0.8781 0.0
C706 C 0.5585 0.18375 0.84242 0.0
C707 C 0.54242 0.18241 0.77581 0.0
C708 C 0.54332 0.20301 0.7458 0.0
C709 C 0.56007 0.22469 0.78275 0.0
C710 C 0.576 0.2254 0.85007 0.0
H711 H 0.07633 0.35354 0.71505 0.0
H712 H 0.0985 0.30858 0.84067 0.0
H713 H 0.1324 0.34263 0.91129 0.0
H714 H 0.13431 0.40219 0.66657 0.0
H715 H 0.12574 0.42324 0.69403 0.0
H716 H 0.10461 0.39542 0.64877 0.0
H717 H 0.07833 0.38911 0.79141 0.0
H718 H 0.09954 0.41681 0.83708 0.0
H719 H 0.09 0.39118 0.90647 0.0
H720 H 0.16386 0.38294 0.97381 0.0
H721 H 0.18802 0.42404 0.02199 0.0
H722 H 0.14379 0.44118 0.85657 0.0
C723 C 0.08848 0.35086 0.75639 0.0
C724 C 0.08485 0.32837 0.77148 0.0
C725 C 0.10104 0.32565 0.82716 0.0
C726 C 0.12034 0.34492 0.86778 0.0
C727 C 0.12328 0.3669 0.85233 0.0
C728 C 0.10771 0.36986 0.79763 0.0
C729 C 0.11398 0.39499 0.79445 0.0
C730 C 0.12002 0.40451 0.69505 0.0
C731 C 0.09429 0.3982 0.83478 0.0
C732 C 0.13532 0.40575 0.8566 0.0
C733 C 0.14068 0.38947 0.88906 0.0
C734 C 0.15973 0.39576 0.94842 0.0
C735 C 0.17342 0.41917 0.97548 0.0
C736 C 0.16785 0.43598 0.94403 0.0
C737 C 0.14859 0.42892 0.88314 0.0
H738 H 0.95382 0.71766 0.70638 0.0
H739 H 1.00033 0.78368 0.83408 0.0
H740 H 0.9666 0.78342 0.90974 0.0
H741 H 0.9048 0.72714 0.66689 0.0
H742 H 0.88361 0.69769 0.69419 0.0
H743 H 0.91124 0.7043 0.64536 0.0
H744 H 0.9187 0.68407 0.7843 0.0
H745 H 0.89115 0.67744 0.83357 0.0
H746 H 0.91747 0.69318 0.9008 0.0
H747 H 0.92625 0.77458 0.97604 0.0
H748 H 0.88509 0.75755 0.02771 0.0
H749 H 0.86684 0.69706 0.8592 0.0
C750 C 0.95693 0.73224 0.74926 0.0
C751 C 0.97974 0.75081 0.76344 0.0
C752 C 0.983 0.76938 0.82119 0.0
C753 C 0.96391 0.76934 0.86468 0.0
C754 C 0.9416 0.75055 0.85007 0.0
C755 C 0.93816 0.73235 0.79354 0.0
C756 C 0.91285 0.71362 0.79201 0.0
C757 C 0.90252 0.71052 0.69378 0.0
C758 C 0.90988 0.69074 0.82995 0.0
C759 C 0.90251 0.72388 0.85712 0.0
C760 C 0.91914 0.74529 0.88955 0.0
C761 C 0.91317 0.75779 0.95084 0.0
C762 C 0.88975 0.74803 0.97988 0.0
C763 C 0.87266 0.72585 0.94868 0.0
C764 C 0.87937 0.71392 0.88588 0.0
H765 H 0.10397 0.66379 0.76882 0.0
H766 H 0.05768 0.64768 0.00436 0.0
H767 H 0.07228 0.62312 0.06914 0.0
H768 H 0.09417 0.60739 0.73969 0.0
H769 H 0.12356 0.61609 0.70577 0.0
H770 H 0.11184 0.63488 0.68386 0.0
H771 H 0.14622 0.66777 0.77436 0.0
H772 H 0.15805 0.64904 0.79663 0.0
H773 H 0.15208 0.66278 0.89183 0.0
H774 H 0.0898 0.59797 0.10334 0.0
H775 H 0.10741 0.57287 0.09971 0.0
H776 H 0.14073 0.60377 0.83852 0.0
C777 C 0.0969 0.65521 0.83422 0.0
C778 C 0.07974 0.65798 0.88155 0.0
C779 C 0.07121 0.64644 0.96744 0.0
C780 C 0.07931 0.63228 0.00475 0.0
C781 C 0.09593 0.6297 0.95549 0.0
C782 C 0.10459 0.64081 0.87196 0.0
C783 C 0.12105 0.63379 0.8294 0.0
C784 C 0.11211 0.62236 0.73406 0.0
C785 C 0.14582 0.65459 0.82269 0.0
C786 C 0.1198 0.61654 0.90082 0.0
C787 C 0.10554 0.61473 0.97386 0.0
C788 C 0.10117 0.5994 0.04692 0.0
C789 C 0.11133 0.58529 0.0445 0.0
C790 C 0.12546 0.58639 0.96897 0.0
C791 C 0.12995 0.60249 0.89703 0.0
H792 H 0.7191 0.52067 0.97618 0.0
H793 H 0.71042 0.55251 0.7276 0.0
H794 H 0.68152 0.51411 0.66833 0.0
H795 H 0.7166 0.47229 0.86463 0.0
H796 H 0.70075 0.45212 0.95596 0.0
H797 H 0.7194 0.48222 0.98273 0.0
H798 H 0.68486 0.48362 0.05983 0.0
H799 H 0.66609 0.45347 0.03363 0.0
H800 H 0.65838 0.4745 0.99479 0.0
H801 H 0.65604 0.47224 0.63012 0.0
H802 H 0.63478 0.42991 0.61731 0.0
H803 H 0.65899 0.42483 0.89242 0.0
C804 C 0.71105 0.5196 0.90946 0.0
C805 C 0.71702 0.53971 0.85681 0.0
C806 C 0.70591 0.53748 0.77008 0.0
C807 C 0.68955 0.51569 0.7355 0.0
C808 C 0.68434 0.49625 0.78853 0.0
C809 C 0.69463 0.49797 0.87392 0.0
C810 C 0.68647 0.47428 0.91557 0.0
C811 C 0.70703 0.46998 0.93057 0.0
C812 C 0.67315 0.4713 0.00633 0.0
C813 C 0.67036 0.45896 0.83935 0.0
C814 C 0.66933 0.47202 0.76694 0.0
C815 C 0.6564 0.46183 0.68707 0.0
C816 C 0.64419 0.43767 0.68084 0.0
C817 C 0.64483 0.42378 0.75427 0.0
C818 C 0.65809 0.43477 0.83474 0.0
H819 H 0.88118 0.24117 0.82638 0.0
H820 H 0.88578 0.17862 0.84267 0.0
H821 H 0.84388 0.15634 0.88221 0.0
H822 H 0.84103 0.22816 0.01402 0.0
H823 H 0.82569 0.24074 0.95703 0.0
H824 H 0.85604 0.25157 0.93305 0.0
H825 H 0.84673 0.24419 0.75736 0.0
H826 H 0.81637 0.23338 0.78077 0.0
H827 H 0.82533 0.21574 0.71836 0.0
H828 H 0.80074 0.14087 0.91487 0.0
H829 H 0.76092 0.1339 0.94163 0.0
H830 H 0.78542 0.20685 0.89951 0.0
C831 C 0.8734 0.22275 0.83764 0.0
C832 C 0.88672 0.2116 0.83087 0.0
C833 C 0.87594 0.18755 0.8481 0.0
C834 C 0.85215 0.17475 0.87015 0.0
C835 C 0.83948 0.18632 0.87505 0.0
C836 C 0.84982 0.20981 0.85953 0.0
C837 C 0.83253 0.21824 0.86791 0.0
C838 C 0.83923 0.2357 0.94777 0.0
C839 C 0.8301 0.22848 0.7756 0.0
C840 C 0.81072 0.1958 0.89007 0.0
C841 C 0.81499 0.17755 0.89406 0.0
C842 C 0.79727 0.15509 0.91225 0.0
C843 C 0.77466 0.15128 0.92704 0.0
C844 C 0.76999 0.16985 0.92393 0.0
C845 C 0.78839 0.19233 0.90463 0.0
H846 H 0.68941 0.09776 0.02121 0.0
H847 H 0.63225 0.04588 0.18431 0.0
H848 H 0.65828 0.03264 0.24759 0.0
H849 H 0.71567 0.06286 0.96428 0.0
H850 H 0.74507 0.0866 0.97363 0.0
H851 H 0.72187 0.09193 0.9409 0.0
H852 H 0.73288 0.12091 0.07762 0.0
H853 H 0.75613 0.11554 0.1096 0.0
H854 H 0.73435 0.11157 0.19349 0.0
H855 H 0.69075 1.02633 0.30029 0.0
H856 H 0.72622 1.02414 0.32653 0.0
H857 H 0.76261 0.07831 0.12236 0.0
C858 C 0.68228 0.08348 0.0696 0.0
C859 C 0.65862 0.07286 0.09749 0.0
C860 C 0.65016 0.05427 0.16129 0.0
C861 C 0.66489 0.04669 0.19812 0.0
C862 C 0.68811 0.05773 0.17038 0.0
C863 C 0.69675 0.07554 0.10678 0.0
C864 C 0.72243 0.08425 0.08839 0.0
C865 C 0.72649 0.08122 0.9857 0.0
C866 C 0.73733 0.10957 0.11907 0.0
C867 C 0.72677 0.06828 0.15058 0.0
C868 C 0.70676 0.05343 0.19824 0.0
C869 C 0.70639 0.03758 0.26202 0.0
C870 C 0.72674 0.03637 0.27587 0.0
C871 C 0.74736 0.05057 0.22498 0.0
C872 C 0.74732 0.06709 0.16257 0.0
H873 H 0.23525 0.67843 0.11506 0.0
H874 H 0.28032 0.68964 0.35264 0.0
H875 H 0.2779 0.65226 0.32398 0.0
H876 H 0.19727 0.61617 0.15863 0.0
H877 H 0.19297 0.60907 0.03693 0.0
H878 H 0.19825 0.63691 0.07582 0.0
H879 H 0.23308 0.65661 0.96275 0.0
H880 H 0.22807 0.62878 0.92497 0.0
H881 H 0.25619 0.64979 0.9699 0.0
H882 H 0.2725 0.61444 0.26586 0.0
H883 H 0.26036 0.57657 0.19375 0.0
H884 H 0.21644 0.58782 1.00071 0.0
C885 C 0.24434 0.67295 0.16214 0.0
C886 C 0.25846 0.68759 0.2351 0.0
C887 C 0.27003 0.67942 0.29432 0.0
C888 C 0.26864 0.65801 0.2791 0.0
C889 C 0.25521 0.64444 0.20531 0.0
C890 C 0.24284 0.65131 0.14889 0.0
C891 C 0.2292 0.63298 0.07583 0.0
C892 C 0.20286 0.62321 0.08755 0.0
C893 C 0.23712 0.64263 0.97755 0.0
C894 C 0.23612 0.61497 0.0996 0.0
C895 C 0.2513 0.62206 0.17406 0.0
C896 C 0.26048 0.60863 0.20787 0.0
C897 C 0.2536 0.58717 0.16592 0.0
C898 C 0.23748 0.57911 0.09129 0.0
C899 C 0.22883 0.59342 0.05749 0.0
H900 H 0.72397 0.62098 0.01902 0.0
H901 H 0.72408 0.6817 0.1273 0.0
H902 H 0.68318 0.65724 0.1764 0.0
H903 H 0.66378 0.59107 0.9351 0.0
H904 H 0.65916 0.56303 0.96801 0.0
H905 H 0.68784 0.58562 0.93647 0.0
H906 H 0.70382 0.58051 0.09345 0.0
H907 H 0.67515 0.55814 0.12603 0.0
H908 H 0.69102 0.58296 0.19996 0.0
H909 H 0.64246 0.62591 0.21727 0.0
H910 H 0.60546 0.59043 0.24944 0.0
H911 H 0.63221 0.54963 0.12002 0.0
C912 C 0.71536 0.62926 0.05185 0.0
C913 C 0.72733 0.65342 0.06854 0.0
C914 C 0.71536 0.66333 0.11319 0.0
C915 C 0.69209 0.64954 0.14135 0.0
C916 C 0.68094 0.6258 0.12465 0.0
C917 C 0.69218 0.61573 0.08085 0.0
C918 C 0.67655 0.58969 0.07427 0.0
C919 C 0.67153 0.5819 0.9724 0.0
C920 C 0.68728 0.57709 0.12658 0.0
C921 C 0.65481 0.58661 0.12227 0.0
C922 C 0.65768 0.60769 0.15008 0.0
C923 C 0.64009 0.60932 0.1961 0.0
C924 C 0.61913 0.58895 0.21479 0.0
C925 C 0.61576 0.56698 0.18843 0.0
C926 C 0.63396 0.56601 0.14072 0.0
H927 H 0.98776 0.87829 0.59539 0.0
H928 H 1.01462 0.87449 0.3259 0.0
H929 H 0.99984 0.89894 0.25949 0.0
H930 H 0.93484 0.87736 0.51011 0.0
H931 H 0.93645 0.89744 0.59726 0.0
H932 H 0.94765 0.87828 0.62176 0.0
H933 H 0.98771 0.9134 0.66438 0.0
H934 H 0.97667 0.93264 0.63984 0.0
H935 H 1.00236 0.93643 0.5815 0.0
H936 H 0.98436 0.92587 0.22492 0.0
H937 H 0.96934 0.95319 0.22493 0.0
H938 H 0.95233 0.93907 0.51669 0.0
C939 C 0.99008 0.88214 0.52193 0.0
C940 C 1.0023 0.87438 0.46576 0.0
C941 C 1.00547 0.88036 0.37044 0.0
C942 C 0.99701 0.89412 0.33197 0.0
C943 C 0.98532 0.90171 0.38961 0.0
C944 C 0.98177 0.89586 0.48247 0.0
C945 C 0.96972 0.90721 0.53046 0.0
C946 C 0.94574 0.88898 0.56704 0.0
C947 C 0.98503 0.92338 0.60863 0.0
C948 C 0.96738 0.92068 0.45046 0.0
C949 C 0.97637 0.91718 0.36967 0.0
C950 C 0.97711 0.92859 0.2876 0.0
C951 C 0.96865 0.94416 0.28837 0.0
C952 C 0.9596 0.94821 0.37067 0.0
C953 C 0.95875 0.93604 0.4523 0.0
H954 H 0.40644 0.10587 0.56102 0.0
H955 H 0.47455 0.1123 0.52856 0.0
H956 H 0.4558 0.0712 0.48207 0.0
H957 H 0.37879 0.04942 0.66096 0.0
H958 H 0.35135 0.04038 0.60351 0.0
H959 H 0.3703 0.07042 0.63042 0.0
H960 H 0.36999 0.08098 0.45745 0.0
H961 H 0.35108 0.05095 0.42995 0.0
H962 H 0.37833 0.06726 0.36985 0.0
H963 H 0.42908 0.02864 0.44356 0.0
H964 H 0.39699 0.98894 0.41444 0.0
H965 H 0.34685 1.01086 0.47734 0.0
C966 C 0.41749 0.09867 0.54478 0.0
C967 C 0.44201 0.11237 0.54878 0.0
C968 C 0.45574 0.10226 0.52513 0.0
C969 C 0.44525 0.07889 0.49912 0.0
C970 C 0.421 0.06587 0.49687 0.0
C971 C 0.40734 0.07546 0.51899 0.0
C972 C 0.3817 0.05782 0.51263 0.0
C973 C 0.36985 0.0543 0.60753 0.0
C974 C 0.36957 0.06467 0.43802 0.0
C975 C 0.383 0.03671 0.48384 0.0
C976 C 0.40578 0.04163 0.47492 0.0
C977 C 0.41118 1.02465 0.45015 0.0
C978 C 0.39282 1.0021 0.4341 0.0
C979 C 0.36931 0.99671 0.44268 0.0
C980 C 0.36454 1.01439 0.46814 0.0
H981 H 0.20053 0.27993 0.52927 0.0
H982 H 0.18915 0.33465 0.4254 0.0
H983 H 0.22972 0.35581 0.37018 0.0
H984 H 0.25647 0.31629 0.61823 0.0
H985 H 0.26789 0.29763 0.58833 0.0
H986 H 0.23727 0.28552 0.6102 0.0
H987 H 0.22761 0.26583 0.44866 0.0
H988 H 0.25823 0.27776 0.42649 0.0
H989 H 0.24044 0.28308 0.34644 0.0
H990 H 0.27265 0.37274 0.33934 0.0
H991 H 0.3139 0.38297 0.32803 0.0
H992 H 0.29726 0.31767 0.45616 0.0
C993 C 0.20646 0.29624 0.49398 0.0
C994 C 0.19155 0.30553 0.48132 0.0
C995 C 0.20004 0.32691 0.43442 0.0
C996 C 0.22314 0.33917 0.4034 0.0
C997 C 0.23752 0.3298 0.41939 0.0
C998 C 0.22944 0.30871 0.46286 0.0
C999 C 0.24869 0.30295 0.47577 0.0
C1000 C 0.25282 0.30046 0.57927 0.0
C1001 C 0.24342 0.28111 0.42105 0.0
C1002 C 0.26896 0.32427 0.43422 0.0
C1003 C 0.26218 0.33953 0.40178 0.0
C1004 C 0.2781 0.36081 0.3637 0.0
C1005 C 0.30153 0.36655 0.35816 0.0
C1006 C 0.30883 0.35109 0.39052 0.0
C1007 C 0.2922 0.32969 0.42902 0.0
H1008 H 0.5 0.29218 0.45864 0.0
H1009 H 0.54669 0.32856 0.68683 0.0
H1010 H 0.54705 0.36459 0.63974 0.0
H1011 H 0.52226 0.33911 0.29145 0.0
H1012 H 0.49375 0.33146 0.24803 0.0
H1013 H 0.49918 0.30946 0.29425 0.0
H1014 H 0.46529 0.29712 0.41064 0.0
H1015 H 0.45959 0.31887 0.36415 0.0
H1016 H 0.46507 0.31845 0.48654 0.0
H1017 H 0.54161 0.39691 0.5655 0.0
H1018 H 0.52664 0.42027 0.48832 0.0
H1019 H 0.48066 0.36126 0.31956 0.0
C1020 C 0.5105 0.30778 0.49827 0.0
C1021 C 0.52383 0.30774 0.57519 0.0
C1022 C 0.53682 0.32837 0.62641 0.0
C1023 C 0.53708 0.34889 0.60009 0.0
C1024 C 0.52386 0.34838 0.52324 0.0
C1025 C 0.51049 0.32818 0.47422 0.0
C1026 C 0.4962 0.33149 0.39956 0.0
C1027 C 0.50327 0.32765 0.30258 0.0
C1028 C 0.46999 0.31554 0.41627 0.0
C1029 C 0.50332 0.35664 0.41454 0.0
C1030 C 0.51972 0.36632 0.48463 0.0
C1031 C 0.52879 0.38943 0.51055 0.0
C1032 C 0.52038 0.40267 0.46576 0.0
C1033 C 0.50272 0.39266 0.39726 0.0
C1034 C 0.49437 0.36943 0.37091 0.0
H1035 H 0.95289 0.10133 0.40095 0.0
H1036 H 0.89074 0.10753 0.40334 0.0
H1037 H 0.91408 0.14735 0.46688 0.0
H1038 H 0.97629 0.12958 0.61271 0.0
H1039 H 1.00607 0.14316 0.57424 0.0
H1040 H 0.98466 0.11617 0.52389 0.0
H1041 H 0.99481 0.13435 0.35962 0.0
H1042 H 1.01644 0.16136 0.40934 0.0
H1043 H 0.99375 0.16038 0.33662 0.0
H1044 H 0.9456 0.18695 0.5408 0.0
H1045 H 0.98077 0.22078 0.60747 0.0
H1046 H 1.0208 0.18682 0.55384 0.0
C1047 C 0.94403 0.111 0.41381 0.0
C1048 C 0.91983 0.10111 0.39688 0.0
C1049 C 0.90923 0.11466 0.41489 0.0
C1050 C 0.92239 0.1373 0.4515 0.0
C1051 C 0.94618 0.14623 0.46925 0.0
C1052 C 0.9568 0.13338 0.44989 0.0
C1053 C 0.98233 0.14621 0.47627 0.0
C1054 C 0.98764 0.13299 0.55122 0.0
C1055 C 0.99773 0.15085 0.39034 0.0
C1056 C 0.98465 0.16836 0.51444 0.0
C1057 C 0.96373 0.16828 0.51018 0.0
C1058 C 0.96198 0.18705 0.54369 0.0
C1059 C 0.98202 0.2062 0.58172 0.0
C1060 C 1.00354 0.20646 0.58594 0.0
C1061 C 1.00465 0.18722 0.55161 0.0
H1062 H 0.12846 0.81808 0.6481 0.0
H1063 H 0.08247 0.74996 0.53607 0.0
H1064 H 0.11622 0.75007 0.46099 0.0
H1065 H 0.16351 0.84028 0.44843 0.0
H1066 H 0.19011 0.8575 0.51231 0.0
H1067 H 0.16266 0.85098 0.56225 0.0
H1068 H 0.17132 0.83312 0.70685 0.0
H1069 H 0.19897 0.84016 0.65724 0.0
H1070 H 0.17887 0.81085 0.69105 0.0
H1071 H 0.15649 0.75893 0.39356 0.0
H1072 H 0.19745 0.77596 0.33953 0.0
H1073 H 0.21525 0.8384 0.49379 0.0
C1074 C 0.12548 0.80303 0.60879 0.0
C1075 C 0.10281 0.78393 0.59862 0.0
C1076 C 0.0997 0.76473 0.54545 0.0
C1077 C 0.1188 0.76467 0.50245 0.0
C1078 C 0.14095 0.78399 0.51291 0.0
C1079 C 0.14425 0.8028 0.565 0.0
C1080 C 0.16938 0.82194 0.56262 0.0
C1081 C 0.17153 0.84397 0.51877 0.0
C1082 C 0.18027 0.82678 0.66026 0.0
C1083 C 0.17981 0.81116 0.50073 0.0
C1084 C 0.16337 0.78919 0.47298 0.0
C1085 C 0.16942 0.77615 0.41511 0.0
C1086 C 0.19274 0.78592 0.38471 0.0
C1087 C 0.20966 0.80862 0.41122 0.0
C1088 C 0.20286 0.82111 0.47068 0.0
loop_
_geom_bond_atom_site_label_1
_geom_bond_atom_site_label_2
_geom_bond_distance
_geom_bond_site_symmetry_2
_ccdc_geom_bond_type
Tb0 C2 2.809 . S
Tb0 O20 2.484 . S
Tb0 O21 2.440 . S
Tb0 O22 2.658 . S
Tb0 O23 2.409 1_554 S
Tb0 O24 2.378 . S
Tb0 O28 2.325 . S
Tb0 O31 2.341 . S
Tb1 C11 2.809 . S
Tb1 O22 2.325 . S
Tb1 O25 2.341 . S
Tb1 O26 2.484 . S
Tb1 O27 2.440 . S
Tb1 O28 2.658 . S
Tb1 O29 2.409 . S
Tb1 O30 2.378 . S
C2 Tb0 2.809 . S
C2 C3 1.514 . S
C2 O20 1.248 . S
C2 O21 1.266 . S
C3 C2 1.514 . S
C3 C4 1.359 . S
C3 C8 1.348 . S
C4 C3 1.359 . S
C4 C5 1.380 . S
C4 H32 0.929 . S
C5 C4 1.380 . S
C5 C6 1.347 . S
C5 H33 0.931 . S
C6 C5 1.347 . S
C6 C7 1.369 . S
C7 C6 1.369 . S
C7 C8 1.408 . S
C7 H34 0.930 . S
C8 C3 1.348 . S
C8 C7 1.408 . S
C8 H35 0.930 . S
C9 O22 1.281 1_556 S
C9 O23 1.254 . S
C10 O24 1.236 . S
C10 O25 1.266 . S
C11 Tb1 2.809 . S
C11 C12 1.514 . S
C11 O26 1.248 . S
C11 O27 1.266 . S
C12 C11 1.514 . S
C12 C13 1.359 . S
C12 C17 1.348 . S
C13 C12 1.359 . S
C13 C14 1.379 1_554 S
C13 H36 0.929 1_554 S
C14 C13 1.379 1_556 S
C14 C15 1.342 1_556 S
C14 H37 0.936 . S
C15 C14 1.342 1_554 S
C15 C16 1.369 . S
C16 C15 1.369 . S
C16 C17 1.408 . S
C16 H38 0.930 . S
C17 C12 1.348 . S
C17 C16 1.408 . S
C17 H39 0.930 . S
C18 O28 1.281 . S
C18 O29 1.254 . S
C19 O30 1.236 . S
C19 O31 1.266 . S
O20 Tb0 2.484 . S
O20 C2 1.248 . S
O21 Tb0 2.440 . S
O21 C2 1.266 . S
O22 Tb0 2.658 . S
O22 Tb1 2.325 . S
O22 C9 1.281 1_554 S
O23 Tb0 2.409 1_556 S
O23 C9 1.254 . S
O24 Tb0 2.378 . S
O24 C10 1.236 . S
O25 Tb1 2.341 . S
O25 C10 1.266 . S
O26 Tb1 2.484 . S
O26 C11 1.248 . S
O27 Tb1 2.440 . S
O27 C11 1.266 . S
O28 Tb0 2.325 . S
O28 Tb1 2.658 . S
O28 C18 1.281 . S
O29 Tb1 2.409 . S
O29 C18 1.254 . S
O30 Tb1 2.378 . S
O30 C19 1.236 . S
O31 Tb0 2.341 . S
O31 C19 1.266 . S
H32 C4 0.929 . S
H33 C5 0.931 . S
H34 C7 0.930 . S
H35 C8 0.930 . S
H36 C13 0.929 1_556 S
H37 C14 0.936 . S
H38 C16 0.930 . S
H39 C17 0.930 . S
Tb40 C42 2.809 . S
Tb40 O60 2.484 . S
Tb40 O61 2.440 . S
Tb40 O62 2.658 . S
Tb40 O63 2.409 1_554 S
Tb40 O64 2.378 . S
Tb40 O68 2.325 . S
Tb40 O71 2.341 . S
Tb41 C51 2.809 . S
Tb41 O62 2.325 . S
Tb41 O65 2.341 . S
Tb41 O66 2.484 . S
Tb41 O67 2.440 . S
Tb41 O68 2.658 . S
Tb41 O69 2.409 . S
Tb41 O70 2.378 . S
C42 Tb40 2.809 . S
C42 C43 1.514 . S
C42 O60 1.248 . S
C42 O61 1.266 . S
C43 C42 1.514 . S
C43 C44 1.359 . S
C43 C48 1.348 . S
C44 C43 1.359 . S
C44 C45 1.380 . S
C44 H72 0.929 . S
C45 C44 1.380 . S
C45 C46 1.347 . S
C45 H73 0.931 . S
C46 C45 1.347 . S
C46 C47 1.369 . S
C47 C46 1.369 . S
C47 C48 1.408 . S
C47 H74 0.930 . S
C48 C43 1.348 . S
C48 C47 1.408 . S
C48 H75 0.930 . S
C49 O62 1.281 1_556 S
C49 O63 1.254 . S
C50 O64 1.236 . S
C50 O65 1.266 . S
C51 Tb41 2.809 . S
C51 C52 1.514 . S
C51 O66 1.248 . S
C51 O67 1.266 . S
C52 C51 1.514 . S
C52 C53 1.359 . S
C52 C57 1.348 . S
C53 C52 1.359 . S
C53 C54 1.379 1_554 S
C53 H76 0.929 1_554 S
C54 C53 1.379 1_556 S
C54 C55 1.342 1_556 S
C54 H77 0.936 . S
C55 C54 1.342 1_554 S
C55 C56 1.369 . S
C56 C55 1.369 . S
C56 C57 1.408 . S
C56 H78 0.930 . S
C57 C52 1.348 . S
C57 C56 1.408 . S
C57 H79 0.930 . S
C58 O68 1.281 . S
C58 O69 1.254 . S
C59 O70 1.236 . S
C59 O71 1.266 . S
O60 Tb40 2.484 . S
O60 C42 1.248 . S
O61 Tb40 2.440 . S
O61 C42 1.266 . S
O62 Tb40 2.658 . S
O62 Tb41 2.325 . S
O62 C49 1.281 1_554 S
O63 Tb40 2.409 1_556 S
O63 C49 1.254 . S
O64 Tb40 2.378 . S
O64 C50 1.236 . S
O65 Tb41 2.341 . S
O65 C50 1.266 . S
O66 Tb41 2.484 . S
O66 C51 1.248 . S
O67 Tb41 2.440 . S
O67 C51 1.266 . S
O68 Tb40 2.325 . S
O68 Tb41 2.658 . S
O68 C58 1.281 . S
O69 Tb41 2.409 . S
O69 C58 1.254 . S
O70 Tb41 2.378 . S
O70 C59 1.236 . S
O71 Tb40 2.341 . S
O71 C59 1.266 . S
H72 C44 0.929 . S
H73 C45 0.931 . S
H74 C47 0.930 . S
H75 C48 0.930 . S
H76 C53 0.929 1_556 S
H77 C54 0.936 . S
H78 C56 0.930 . S
H79 C57 0.930 . S
Tb80 C82 2.809 . S
Tb80 O100 2.484 . S
Tb80 O101 2.440 . S
Tb80 O102 2.658 . S
Tb80 O103 2.409 1_554 S
Tb80 O104 2.378 . S
Tb80 O108 2.325 . S
Tb80 O111 2.341 . S
Tb81 C91 2.809 . S
Tb81 O102 2.325 . S
Tb81 O105 2.341 . S
Tb81 O106 2.484 . S
Tb81 O107 2.440 . S
Tb81 O108 2.658 . S
Tb81 O109 2.409 . S
Tb81 O110 2.378 . S
C82 Tb80 2.809 . S
C82 C83 1.514 . S
C82 O100 1.248 . S
C82 O101 1.266 . S
C83 C82 1.514 . S
C83 C84 1.359 . S
C83 C88 1.348 . S
C84 C83 1.359 . S
C84 C85 1.380 . S
C84 H112 0.929 . S
C85 C84 1.380 . S
C85 C86 1.347 . S
C85 H113 0.931 . S
C86 C85 1.347 . S
C86 C87 1.369 . S
C87 C86 1.369 . S
C87 C88 1.408 . S
C87 H114 0.930 . S
C88 C83 1.348 . S
C88 C87 1.408 . S
C88 H115 0.930 . S
C89 O102 1.281 1_556 S
C89 O103 1.254 . S
C90 O104 1.236 . S
C90 O105 1.266 . S
C91 Tb81 2.809 . S
C91 C92 1.514 . S
C91 O106 1.248 . S
C91 O107 1.266 . S
C92 C91 1.514 . S
C92 C93 1.359 . S
C92 C97 1.348 . S
C93 C92 1.359 . S
C93 C94 1.379 1_554 S
C93 H116 0.929 1_554 S
C94 C93 1.379 1_556 S
C94 C95 1.342 1_556 S
C94 H117 0.937 . S
C95 C94 1.342 1_554 S
C95 C96 1.369 . S
C96 C95 1.369 . S
C96 C97 1.408 . S
C96 H118 0.930 . S
C97 C92 1.348 . S
C97 C96 1.408 . S
C97 H119 0.930 . S
C98 O108 1.281 . S
C98 O109 1.254 . S
C99 O110 1.236 . S
C99 O111 1.266 . S
O100 Tb80 2.484 . S
O100 C82 1.248 . S
O101 Tb80 2.440 . S
O101 C82 1.266 . S
O102 Tb80 2.658 . S
O102 Tb81 2.325 . S
O102 C89 1.281 1_554 S
O103 Tb80 2.409 1_556 S
O103 C89 1.254 . S
O104 Tb80 2.378 . S
O104 C90 1.236 . S
O105 Tb81 2.341 . S
O105 C90 1.266 . S
O106 Tb81 2.484 . S
O106 C91 1.248 . S
O107 Tb81 2.440 . S
O107 C91 1.266 . S
O108 Tb80 2.325 . S
O108 Tb81 2.658 . S
O108 C98 1.281 . S
O109 Tb81 2.409 . S
O109 C98 1.254 . S
O110 Tb81 2.378 . S
O110 C99 1.236 . S
O111 Tb80 2.341 . S
O111 C99 1.266 . S
H112 C84 0.929 . S
H113 C85 0.931 . S
H114 C87 0.930 . S
H115 C88 0.930 . S
H116 C93 0.929 1_556 S
H117 C94 0.937 . S
H118 C96 0.930 . S
H119 C97 0.930 . S
Tb120 C122 2.809 1_545 S
Tb120 O140 2.484 1_545 S
Tb120 O141 2.440 1_545 S
Tb120 O142 2.658 . S
Tb120 O143 2.409 . S
Tb120 O144 2.378 1_545 S
Tb120 O148 2.325 1_545 S
Tb120 O151 2.341 . S
Tb121 C131 2.809 1_565 S
Tb121 O142 2.325 1_565 S
Tb121 O145 2.341 . S
Tb121 O146 2.484 1_565 S
Tb121 O147 2.440 1_565 S
Tb121 O148 2.658 . S
Tb121 O149 2.409 . S
Tb121 O150 2.378 1_565 S
C122 Tb120 2.809 1_565 S
C122 C123 1.514 . S
C122 O140 1.248 . S
C122 O141 1.266 . S
C123 C122 1.514 . S
C123 C124 1.359 . S
C123 C128 1.348 . S
C124 C123 1.359 . S
C124 C125 1.380 . S
C124 H152 0.929 . S
C125 C124 1.380 . S
C125 C126 1.347 . S
C125 H153 0.931 . S
C126 C125 1.347 . S
C126 C127 1.369 . S
C127 C126 1.369 . S
C127 C128 1.408 . S
C127 H154 0.930 . S
C128 C123 1.348 . S
C128 C127 1.408 . S
C128 H155 0.930 . S
C129 O142 1.281 . S
C129 O143 1.254 . S
C130 O144 1.236 . S
C130 O145 1.266 . S
C131 Tb121 2.809 1_545 S
C131 C132 1.514 . S
C131 O146 1.248 . S
C131 O147 1.266 . S
C132 C131 1.514 . S
C132 C133 1.359 . S
C132 C137 1.348 . S
C133 C132 1.359 . S
C133 C134 1.380 . S
C133 H156 0.929 . S
C134 C133 1.380 . S
C134 C135 1.347 . S
C134 H157 0.931 . S
C135 C134 1.347 . S
C135 C136 1.369 . S
C136 C135 1.369 . S
C136 C137 1.408 . S
C136 H158 0.930 . S
C137 C132 1.348 . S
C137 C136 1.408 . S
C137 H159 0.930 . S
C138 O148 1.281 . S
C138 O149 1.254 . S
C139 O150 1.236 . S
C139 O151 1.266 . S
O140 Tb120 2.484 1_565 S
O140 C122 1.248 . S
O141 Tb120 2.440 1_565 S
O141 C122 1.266 . S
O142 Tb120 2.658 . S
O142 Tb121 2.325 1_545 S
O142 C129 1.281 . S
O143 Tb120 2.409 . S
O143 C129 1.254 . S
O144 Tb120 2.378 1_565 S
O144 C130 1.236 . S
O145 Tb121 2.341 . S
O145 C130 1.266 . S
O146 Tb121 2.484 1_545 S
O146 C131 1.248 . S
O147 Tb121 2.440 1_545 S
O147 C131 1.266 . S
O148 Tb120 2.325 1_565 S
O148 Tb121 2.658 . S
O148 C138 1.281 . S
O149 Tb121 2.409 . S
O149 C138 1.254 . S
O150 Tb121 2.378 1_545 S
O150 C139 1.236 . S
O151 Tb120 2.341 . S
O151 C139 1.266 . S
H152 C124 0.929 . S
H153 C125 0.931 . S
H154 C127 0.930 . S
H155 C128 0.930 . S
H156 C133 0.929 . S
H157 C134 0.931 . S
H158 C136 0.930 . S
H159 C137 0.930 . S
Tb160 C162 2.809 . S
Tb160 O180 2.484 . S
Tb160 O181 2.440 . S
Tb160 O182 2.658 . S
Tb160 O183 2.409 . S
Tb160 O184 2.378 . S
Tb160 O188 2.325 . S
Tb160 O191 2.341 . S
Tb161 C171 2.809 . S
Tb161 O182 2.325 . S
Tb161 O185 2.341 . S
Tb161 O186 2.484 . S
Tb161 O187 2.440 . S
Tb161 O188 2.658 . S
Tb161 O189 2.409 . S
Tb161 O190 2.378 . S
C162 Tb160 2.809 . S
C162 C163 1.514 . S
C162 O180 1.248 . S
C162 O181 1.266 . S
C163 C162 1.514 . S
C163 C164 1.359 . S
C163 C168 1.348 . S
C164 C163 1.359 . S
C164 C165 1.380 . S
C164 H192 0.929 . S
C165 C164 1.380 . S
C165 C166 1.347 . S
C165 H193 0.931 . S
C166 C165 1.347 . S
C166 C167 1.369 . S
C167 C166 1.369 . S
C167 C168 1.408 . S
C167 H194 0.930 . S
C168 C163 1.348 . S
C168 C167 1.408 . S
C168 H195 0.930 . S
C169 O182 1.281 . S
C169 O183 1.254 . S
C170 O184 1.236 . S
C170 O185 1.266 . S
C171 Tb161 2.809 . S
C171 C172 1.514 . S
C171 O186 1.248 . S
C171 O187 1.266 . S
C172 C171 1.514 . S
C172 C173 1.359 . S
C172 C177 1.348 . S
C173 C172 1.359 . S
C173 C174 1.380 . S
C173 H196 0.929 . S
C174 C173 1.380 . S
C174 C175 1.347 . S
C174 H197 0.931 . S
C175 C174 1.347 . S
C175 C176 1.369 . S
C176 C175 1.369 . S
C176 C177 1.408 . S
C176 H198 0.930 . S
C177 C172 1.348 . S
C177 C176 1.408 . S
C177 H199 0.930 . S
C178 O188 1.281 . S
C178 O189 1.254 . S
C179 O190 1.236 . S
C179 O191 1.266 . S
O180 Tb160 2.484 . S
O180 C162 1.248 . S
O181 Tb160 2.440 . S
O181 C162 1.266 . S
O182 Tb160 2.658 . S
O182 Tb161 2.325 . S
O182 C169 1.281 . S
O183 Tb160 2.409 . S
O183 C169 1.254 . S
O184 Tb160 2.378 . S
O184 C170 1.236 . S
O185 Tb161 2.341 . S
O185 C170 1.266 . S
O186 Tb161 2.484 . S
O186 C171 1.248 . S
O187 Tb161 2.440 . S
O187 C171 1.266 . S
O188 Tb160 2.325 . S
O188 Tb161 2.658 . S
O188 C178 1.281 . S
O189 Tb161 2.409 . S
O189 C178 1.254 . S
O190 Tb161 2.378 . S
O190 C179 1.236 . S
O191 Tb160 2.341 . S
O191 C179 1.266 . S
H192 C164 0.929 . S
H193 C165 0.931 . S
H194 C167 0.930 . S
H195 C168 0.930 . S
H196 C173 0.929 . S
H197 C174 0.931 . S
H198 C176 0.930 . S
H199 C177 0.930 . S
Tb200 C202 2.809 . S
Tb200 O220 2.484 . S
Tb200 O221 2.440 . S
Tb200 O222 2.658 . S
Tb200 O223 2.409 . S
Tb200 O224 2.378 . S
Tb200 O228 2.325 . S
Tb200 O231 2.341 . S
Tb201 C211 2.809 . S
Tb201 O222 2.325 . S
Tb201 O225 2.341 . S
Tb201 O226 2.484 . S
Tb201 O227 2.440 . S
Tb201 O228 2.658 . S
Tb201 O229 2.409 . S
Tb201 O230 2.378 . S
C202 Tb200 2.809 . S
C202 C203 1.514 . S
C202 O220 1.248 . S
C202 O221 1.266 . S
C203 C202 1.514 . S
C203 C204 1.359 . S
C203 C208 1.348 . S
C204 C203 1.359 . S
C204 C205 1.380 . S
C204 H232 0.929 . S
C205 C204 1.380 . S
C205 C206 1.347 . S
C205 H233 0.931 . S
C206 C205 1.347 . S
C206 C207 1.369 . S
C207 C206 1.369 . S
C207 C208 1.408 . S
C207 H234 0.930 . S
C208 C203 1.348 . S
C208 C207 1.408 . S
C208 H235 0.930 . S
C209 O222 1.281 . S
C209 O223 1.254 . S
C210 O224 1.236 . S
C210 O225 1.266 . S
C211 Tb201 2.809 . S
C211 C212 1.514 . S
C211 O226 1.248 . S
C211 O227 1.266 . S
C212 C211 1.514 . S
C212 C213 1.359 . S
C212 C217 1.348 . S
C213 C212 1.359 . S
C213 C214 1.380 . S
C213 H236 0.929 . S
C214 C213 1.380 . S
C214 C215 1.347 . S
C214 H237 0.931 . S
C215 C214 1.347 . S
C215 C216 1.369 . S
C216 C215 1.369 . S
C216 C217 1.408 . S
C216 H238 0.930 . S
C217 C212 1.348 . S
C217 C216 1.408 . S
C217 H239 0.930 . S
C218 O228 1.281 . S
C218 O229 1.254 . S
C219 O230 1.236 . S
C219 O231 1.266 . S
O220 Tb200 2.484 . S
O220 C202 1.248 . S
O221 Tb200 2.440 . S
O221 C202 1.266 . S
O222 Tb200 2.658 . S
O222 Tb201 2.325 . S
O222 C209 1.281 . S
O223 Tb200 2.409 . S
O223 C209 1.254 . S
O224 Tb200 2.378 . S
O224 C210 1.236 . S
O225 Tb201 2.341 . S
O225 C210 1.266 . S
O226 Tb201 2.484 . S
O226 C211 1.248 . S
O227 Tb201 2.440 . S
O227 C211 1.266 . S
O228 Tb200 2.325 . S
O228 Tb201 2.658 . S
O228 C218 1.281 . S
O229 Tb201 2.409 . S
O229 C218 1.254 . S
O230 Tb201 2.378 . S
O230 C219 1.236 . S
O231 Tb200 2.341 . S
O231 C219 1.266 . S
H232 C204 0.929 . S
H233 C205 0.931 . S
H234 C207 0.930 . S
H235 C208 0.930 . S
H236 C213 0.929 . S
H237 C214 0.931 . S
H238 C216 0.930 . S
H239 C217 0.930 . S
Tb240 C242 2.809 . S
Tb240 O260 2.484 . S
Tb240 O261 2.440 . S
Tb240 O262 2.658 . S
Tb240 O263 2.409 . S
Tb240 O264 2.378 . S
Tb240 O268 2.325 . S
Tb240 O271 2.341 . S
Tb241 C251 2.809 . S
Tb241 O262 2.325 . S
Tb241 O265 2.341 . S
Tb241 O266 2.484 . S
Tb241 O267 2.440 . S
Tb241 O268 2.658 . S
Tb241 O269 2.409 . S
Tb241 O270 2.378 . S
C242 Tb240 2.809 . S
C242 C243 1.514 . S
C242 O260 1.248 . S
C242 O261 1.266 . S
C243 C242 1.514 . S
C243 C244 1.359 . S
C243 C248 1.348 . S
C244 C243 1.359 . S
C244 C245 1.380 . S
C244 H272 0.929 . S
C245 C244 1.380 . S
C245 C246 1.347 . S
C245 H273 0.931 . S
C246 C245 1.347 . S
C246 C247 1.369 . S
C247 C246 1.369 . S
C247 C248 1.408 . S
C247 H274 0.930 . S
C248 C243 1.348 . S
C248 C247 1.408 . S
C248 H275 0.930 . S
C249 O262 1.281 . S
C249 O263 1.254 . S
C250 O264 1.236 . S
C250 O265 1.266 . S
C251 Tb241 2.809 . S
C251 C252 1.514 . S
C251 O266 1.248 . S
C251 O267 1.266 . S
C252 C251 1.514 . S
C252 C253 1.359 . S
C252 C257 1.348 . S
C253 C252 1.359 . S
C253 C254 1.380 . S
C253 H276 0.929 . S
C254 C253 1.380 . S
C254 C255 1.347 . S
C254 H277 0.931 . S
C255 C254 1.347 . S
C255 C256 1.369 . S
C256 C255 1.369 . S
C256 C257 1.408 . S
C256 H278 0.930 . S
C257 C252 1.348 . S
C257 C256 1.408 . S
C257 H279 0.930 . S
C258 O268 1.281 . S
C258 O269 1.254 . S
C259 O270 1.236 . S
C259 O271 1.266 . S
O260 Tb240 2.484 . S
O260 C242 1.248 . S
O261 Tb240 2.440 . S
O261 C242 1.266 . S
O262 Tb240 2.658 . S
O262 Tb241 2.325 . S
O262 C249 1.281 . S
O263 Tb240 2.409 . S
O263 C249 1.254 . S
O264 Tb240 2.378 . S
O264 C250 1.236 . S
O265 Tb241 2.341 . S
O265 C250 1.266 . S
O266 Tb241 2.484 . S
O266 C251 1.248 . S
O267 Tb241 2.440 . S
O267 C251 1.266 . S
O268 Tb240 2.325 . S
O268 Tb241 2.658 . S
O268 C258 1.281 . S
O269 Tb241 2.409 . S
O269 C258 1.254 . S
O270 Tb241 2.378 . S
O270 C259 1.236 . S
O271 Tb240 2.341 . S
O271 C259 1.266 . S
H272 C244 0.929 . S
H273 C245 0.931 . S
H274 C247 0.930 . S
H275 C248 0.930 . S
H276 C253 0.929 . S
H277 C254 0.931 . S
H278 C256 0.930 . S
H279 C257 0.930 . S
Tb280 C282 2.809 . S
Tb280 O300 2.484 . S
Tb280 O301 2.440 . S
Tb280 O302 2.658 1_655 S
Tb280 O303 2.409 . S
Tb280 O304 2.378 . S
Tb280 O308 2.325 . S
Tb280 O311 2.341 . S
Tb281 C291 2.809 . S
Tb281 O302 2.325 . S
Tb281 O305 2.341 . S
Tb281 O306 2.484 . S
Tb281 O307 2.440 . S
Tb281 O308 2.658 1_455 S
Tb281 O309 2.409 1_455 S
Tb281 O310 2.378 . S
C282 Tb280 2.809 . S
C282 C283 1.514 . S
C282 O300 1.248 . S
C282 O301 1.266 . S
C283 C282 1.514 . S
C283 C284 1.359 . S
C283 C288 1.348 . S
C284 C283 1.359 . S
C284 C285 1.380 . S
C284 H312 0.929 . S
C285 C284 1.380 . S
C285 C286 1.347 . S
C285 H313 0.931 . S
C286 C285 1.347 . S
C286 C287 1.369 . S
C287 C286 1.369 . S
C287 C288 1.408 . S
C287 H314 0.930 . S
C288 C283 1.348 . S
C288 C287 1.408 . S
C288 H315 0.930 . S
C289 O302 1.281 . S
C289 O303 1.254 1_455 S
C290 O304 1.236 . S
C290 O305 1.266 1_655 S
C291 Tb281 2.809 . S
C291 C292 1.514 . S
C291 O306 1.248 . S
C291 O307 1.266 . S
C292 C291 1.514 . S
C292 C293 1.359 . S
C292 C297 1.348 . S
C293 C292 1.359 . S
C293 C294 1.380 . S
C293 H316 0.929 . S
C294 C293 1.380 . S
C294 C295 1.347 . S
C294 H317 0.931 . S
C295 C294 1.347 . S
C295 C296 1.369 . S
C296 C295 1.369 . S
C296 C297 1.408 . S
C296 H318 0.930 . S
C297 C292 1.348 . S
C297 C296 1.408 . S
C297 H319 0.930 . S
C298 O308 1.281 . S
C298 O309 1.254 . S
C299 O310 1.236 . S
C299 O311 1.266 1_455 S
O300 Tb280 2.484 . S
O300 C282 1.248 . S
O301 Tb280 2.440 . S
O301 C282 1.266 . S
O302 Tb280 2.658 1_455 S
O302 Tb281 2.325 . S
O302 C289 1.281 . S
O303 Tb280 2.409 . S
O303 C289 1.254 1_655 S
O304 Tb280 2.378 . S
O304 C290 1.236 . S
O305 Tb281 2.341 . S
O305 C290 1.266 1_455 S
O306 Tb281 2.484 . S
O306 C291 1.248 . S
O307 Tb281 2.440 . S
O307 C291 1.266 . S
O308 Tb280 2.325 . S
O308 Tb281 2.658 1_655 S
O308 C298 1.281 . S
O309 Tb281 2.409 1_655 S
O309 C298 1.254 . S
O310 Tb281 2.378 . S
O310 C299 1.236 . S
O311 Tb280 2.341 . S
O311 C299 1.266 1_655 S
H312 C284 0.929 . S
H313 C285 0.931 . S
H314 C287 0.930 . S
H315 C288 0.930 . S
H316 C293 0.929 . S
H317 C294 0.931 . S
H318 C296 0.930 . S
H319 C297 0.930 . S
Tb320 C322 2.809 1_655 S
Tb320 O340 2.484 1_655 S
Tb320 O341 2.440 . S
Tb320 O342 2.658 . S
Tb320 O343 2.409 . S
Tb320 O344 2.378 . S
Tb320 O348 2.325 1_655 S
Tb320 O351 2.341 . S
Tb321 C331 2.809 . S
Tb321 O342 2.325 . S
Tb321 O345 2.341 1_655 S
Tb321 O346 2.484 . S
Tb321 O347 2.440 1_655 S
Tb321 O348 2.658 1_655 S
Tb321 O349 2.409 1_655 S
Tb321 O350 2.378 . S
C322 Tb320 2.809 1_455 S
C322 C323 1.514 . S
C322 O340 1.248 . S
C322 O341 1.266 1_455 S
C323 C322 1.514 . S
C323 C324 1.359 . S
C323 C328 1.348 1_455 S
C324 C323 1.359 . S
C324 C325 1.380 . S
C324 H352 0.929 . S
C325 C324 1.380 . S
C325 C326 1.347 . S
C325 H353 0.931 . S
C326 C325 1.347 . S
C326 C327 1.369 . S
C327 C326 1.369 . S
C327 C328 1.408 1_455 S
C327 H354 0.930 1_455 S
C328 C323 1.348 1_655 S
C328 C327 1.408 1_655 S
C328 H355 0.930 . S
C329 O342 1.281 . S
C329 O343 1.254 . S
C330 O344 1.236 1_455 S
C330 O345 1.266 . S
C331 Tb321 2.809 . S
C331 C332 1.514 . S
C331 O346 1.248 . S
C331 O347 1.266 1_655 S
C332 C331 1.514 . S
C332 C333 1.359 . S
C332 C337 1.348 . S
C333 C332 1.359 . S
C333 C334 1.380 . S
C333 H356 0.929 . S
C334 C333 1.380 . S
C334 C335 1.347 . S
C334 H357 0.931 . S
C335 C334 1.347 . S
C335 C336 1.369 . S
C336 C335 1.369 . S
C336 C337 1.408 . S
C336 H358 0.930 . S
C337 C332 1.348 . S
C337 C336 1.408 . S
C337 H359 0.930 1_655 S
C338 O348 1.281 . S
C338 O349 1.254 . S
C339 O350 1.236 . S
C339 O351 1.266 . S
O340 Tb320 2.484 1_455 S
O340 C322 1.248 . S
O341 Tb320 2.440 . S
O341 C322 1.266 1_655 S
O342 Tb320 2.658 . S
O342 Tb321 2.325 . S
O342 C329 1.281 . S
O343 Tb320 2.409 . S
O343 C329 1.254 . S
O344 Tb320 2.378 . S
O344 C330 1.236 1_655 S
O345 Tb321 2.341 1_455 S
O345 C330 1.266 . S
O346 Tb321 2.484 . S
O346 C331 1.248 . S
O347 Tb321 2.440 1_455 S
O347 C331 1.266 1_455 S
O348 Tb320 2.325 1_455 S
O348 Tb321 2.658 1_455 S
O348 C338 1.281 . S
O349 Tb321 2.409 1_455 S
O349 C338 1.254 . S
O350 Tb321 2.378 . S
O350 C339 1.236 . S
O351 Tb320 2.341 . S
O351 C339 1.266 . S
H352 C324 0.929 . S
H353 C325 0.931 . S
H354 C327 0.930 1_655 S
H355 C328 0.930 . S
H356 C333 0.929 . S
H357 C334 0.931 . S
H358 C336 0.930 . S
H359 C337 0.930 1_455 S
H360 C372 0.930 . S
H361 C374 0.930 . S
H362 C375 0.930 . S
H363 C379 0.959 . S
H364 C379 0.959 . S
H365 C379 0.961 . S
H366 C380 0.960 . S
H367 C380 0.961 . S
H368 C380 0.959 . S
H369 C383 0.929 . S
H370 C384 0.931 . S
H371 C386 0.930 . S
C372 H360 0.930 . S
C372 C373 1.399 . S
C372 C377 1.399 . S
C373 C372 1.399 . S
C373 C374 1.376 . S
C374 H361 0.930 . S
C374 C373 1.376 . S
C374 C375 1.388 . S
C375 H362 0.930 . S
C375 C374 1.388 . S
C375 C376 1.390 . S
C376 C375 1.390 . S
C376 C377 1.394 . S
C376 C382 1.465 . S
C377 C372 1.399 . S
C377 C376 1.394 . S
C377 C378 1.516 . S
C378 C377 1.516 . S
C378 C379 1.502 . S
C378 C380 1.561 . S
C378 C381 1.526 . S
C379 H363 0.959 . S
C379 H364 0.959 . S
C379 H365 0.961 . S
C379 C378 1.502 . S
C380 H366 0.960 . S
C380 H367 0.961 . S
C380 H368 0.959 . S
C380 C378 1.561 . S
C381 C378 1.526 . S
C381 C382 1.396 . S
C381 C386 1.390 . S
C382 C376 1.465 . S
C382 C381 1.396 . S
C382 C383 1.399 . S
C383 H369 0.929 . S
C383 C382 1.399 . S
C383 C384 1.385 . S
C384 H370 0.931 . S
C384 C383 1.385 . S
C384 C385 1.389 . S
C385 C384 1.389 . S
C385 C386 1.387 . S
C386 H371 0.930 . S
C386 C381 1.390 . S
C386 C385 1.387 . S
H387 C399 0.930 . S
H388 C401 0.930 . S
H389 C402 0.930 . S
H390 C406 0.959 . S
H391 C406 0.959 . S
H392 C406 0.961 . S
H393 C407 0.960 . S
H394 C407 0.961 . S
H395 C407 0.959 . S
H396 C410 0.929 . S
H397 C411 0.931 . S
H398 C413 0.930 . S
C399 H387 0.930 . S
C399 C400 1.399 . S
C399 C404 1.399 . S
C400 C399 1.399 . S
C400 C401 1.376 . S
C401 H388 0.930 . S
C401 C400 1.376 . S
C401 C402 1.388 . S
C402 H389 0.930 . S
C402 C401 1.388 . S
C402 C403 1.390 . S
C403 C402 1.390 . S
C403 C404 1.394 . S
C403 C409 1.465 . S
C404 C399 1.399 . S
C404 C403 1.394 . S
C404 C405 1.516 . S
C405 C404 1.516 . S
C405 C406 1.502 . S
C405 C407 1.561 . S
C405 C408 1.526 . S
C406 H390 0.959 . S
C406 H391 0.959 . S
C406 H392 0.961 . S
C406 C405 1.502 . S
C407 H393 0.960 . S
C407 H394 0.961 . S
C407 H395 0.959 . S
C407 C405 1.561 . S
C408 C405 1.526 . S
C408 C409 1.396 . S
C408 C413 1.390 . S
C409 C403 1.465 . S
C409 C408 1.396 . S
C409 C410 1.399 . S
C410 H396 0.929 . S
C410 C409 1.399 . S
C410 C411 1.385 . S
C411 H397 0.931 . S
C411 C410 1.385 . S
C411 C412 1.389 . S
C412 C411 1.389 . S
C412 C413 1.387 . S
C413 H398 0.930 . S
C413 C408 1.390 . S
C413 C412 1.387 . S
H414 C426 0.930 . S
H415 C428 0.930 . S
H416 C429 0.930 . S
H417 C433 0.959 . S
H418 C433 0.959 . S
H419 C433 0.961 . S
H420 C434 0.960 . S
H421 C434 0.961 . S
H422 C434 0.959 . S
H423 C437 0.929 . S
H424 C438 0.931 . S
H425 C440 0.930 . S
C426 H414 0.930 . S
C426 C427 1.399 . S
C426 C431 1.399 . S
C427 C426 1.399 . S
C427 C428 1.376 . S
C428 H415 0.930 . S
C428 C427 1.376 . S
C428 C429 1.388 . S
C429 H416 0.930 . S
C429 C428 1.388 . S
C429 C430 1.390 . S
C430 C429 1.390 . S
C430 C431 1.394 . S
C430 C436 1.465 . S
C431 C426 1.399 . S
C431 C430 1.394 . S
C431 C432 1.516 . S
C432 C431 1.516 . S
C432 C433 1.502 . S
C432 C434 1.561 . S
C432 C435 1.526 . S
C433 H417 0.959 . S
C433 H418 0.959 . S
C433 H419 0.961 . S
C433 C432 1.502 . S
C434 H420 0.960 . S
C434 H421 0.961 . S
C434 H422 0.959 . S
C434 C432 1.561 . S
C435 C432 1.526 . S
C435 C436 1.396 . S
C435 C440 1.390 . S
C436 C430 1.465 . S
C436 C435 1.396 . S
C436 C437 1.399 . S
C437 H423 0.929 . S
C437 C436 1.399 . S
C437 C438 1.385 . S
C438 H424 0.931 . S
C438 C437 1.385 . S
C438 C439 1.389 . S
C439 C438 1.389 . S
C439 C440 1.387 . S
C440 H425 0.930 . S
C440 C435 1.390 . S
C440 C439 1.387 . S
H441 C453 0.930 . S
H442 C455 0.930 . S
H443 C456 0.930 . S
H444 C460 0.959 . S
H445 C460 0.959 . S
H446 C460 0.961 . S
H447 C461 0.960 . S
H448 C461 0.961 . S
H449 C461 0.959 . S
H450 C464 0.929 . S
H451 C465 0.931 . S
H452 C467 0.930 . S
C453 H441 0.930 . S
C453 C454 1.399 1_545 S
C453 C458 1.399 . S
C454 C453 1.399 1_565 S
C454 C455 1.376 . S
C455 H442 0.930 . S
C455 C454 1.376 . S
C455 C456 1.388 . S
C456 H443 0.930 . S
C456 C455 1.388 . S
C456 C457 1.390 . S
C457 C456 1.390 . S
C457 C458 1.394 1_565 S
C457 C463 1.465 . S
C458 C453 1.399 . S
C458 C457 1.394 1_545 S
C458 C459 1.516 . S
C459 C458 1.516 . S
C459 C460 1.502 . S
C459 C461 1.561 . S
C459 C462 1.526 . S
C460 H444 0.959 . S
C460 H445 0.959 . S
C460 H446 0.961 . S
C460 C459 1.502 . S
C461 H447 0.960 . S
C461 H448 0.961 . S
C461 H449 0.959 . S
C461 C459 1.561 . S
C462 C459 1.526 . S
C462 C463 1.396 1_545 S
C462 C467 1.390 . S
C463 C457 1.465 . S
C463 C462 1.396 1_565 S
C463 C464 1.399 . S
C464 H450 0.929 . S
C464 C463 1.399 . S
C464 C465 1.385 . S
C465 H451 0.931 . S
C465 C464 1.385 . S
C465 C466 1.395 . S
C466 C465 1.395 . S
C466 C467 1.382 1_565 S
C467 H452 0.930 . S
C467 C462 1.390 . S
C467 C466 1.382 1_545 S
H468 C480 0.930 . S
H469 C482 0.930 . S
H470 C483 0.930 . S
H471 C487 0.959 . S
H472 C487 0.959 . S
H473 C487 0.961 . S
H474 C488 0.960 . S
H475 C488 0.961 . S
H476 C488 0.959 . S
H477 C491 0.929 . S
H478 C492 0.931 . S
H479 C494 0.930 . S
C480 H468 0.930 . S
C480 C481 1.399 . S
C480 C485 1.399 . S
C481 C480 1.399 . S
C481 C482 1.376 . S
C482 H469 0.930 . S
C482 C481 1.376 . S
C482 C483 1.388 . S
C483 H470 0.930 . S
C483 C482 1.388 . S
C483 C484 1.390 . S
C484 C483 1.390 . S
C484 C485 1.394 . S
C484 C490 1.465 . S
C485 C480 1.399 . S
C485 C484 1.394 . S
C485 C486 1.516 . S
C486 C485 1.516 . S
C486 C487 1.502 . S
C486 C488 1.561 . S
C486 C489 1.526 . S
C487 H471 0.959 . S
C487 H472 0.959 . S
C487 H473 0.961 . S
C487 C486 1.502 . S
C488 H474 0.960 . S
C488 H475 0.961 . S
C488 H476 0.959 . S
C488 C486 1.561 . S
C489 C486 1.526 . S
C489 C490 1.396 . S
C489 C494 1.390 . S
C490 C484 1.465 . S
C490 C489 1.396 . S
C490 C491 1.399 . S
C491 H477 0.929 . S
C491 C490 1.399 . S
C491 C492 1.385 . S
C492 H478 0.931 . S
C492 C491 1.385 . S
C492 C493 1.389 . S
C493 C492 1.389 . S
C493 C494 1.387 . S
C494 H479 0.930 . S
C494 C489 1.390 . S
C494 C493 1.387 . S
H495 C507 0.930 . S
H496 C509 0.930 . S
H497 C510 0.930 . S
H498 C514 0.959 . S
H499 C514 0.959 . S
H500 C514 0.961 . S
H501 C515 0.960 . S
H502 C515 0.961 . S
H503 C515 0.959 . S
H504 C518 0.929 . S
H505 C519 0.931 . S
H506 C521 0.930 . S
C507 H495 0.930 . S
C507 C508 1.399 . S
C507 C512 1.399 . S
C508 C507 1.399 . S
C508 C509 1.376 . S
C509 H496 0.930 . S
C509 C508 1.376 . S
C509 C510 1.388 . S
C510 H497 0.930 . S
C510 C509 1.388 . S
C510 C511 1.390 . S
C511 C510 1.390 . S
C511 C512 1.394 . S
C511 C517 1.465 . S
C512 C507 1.399 . S
C512 C511 1.394 . S
C512 C513 1.516 . S
C513 C512 1.516 . S
C513 C514 1.502 . S
C513 C515 1.561 . S
C513 C516 1.526 . S
C514 H498 0.959 . S
C514 H499 0.959 . S
C514 H500 0.961 . S
C514 C513 1.502 . S
C515 H501 0.960 . S
C515 H502 0.961 . S
C515 H503 0.959 . S
C515 C513 1.561 . S
C516 C513 1.526 . S
C516 C517 1.396 . S
C516 C521 1.390 . S
C517 C511 1.465 . S
C517 C516 1.396 . S
C517 C518 1.399 . S
C518 H504 0.929 . S
C518 C517 1.399 . S
C518 C519 1.385 . S
C519 H505 0.931 . S
C519 C518 1.385 . S
C519 C520 1.389 . S
C520 C519 1.389 . S
C520 C521 1.387 . S
C521 H506 0.930 . S
C521 C516 1.390 . S
C521 C520 1.387 . S
H522 C534 0.930 . S
H523 C536 0.930 . S
H524 C537 0.930 . S
H525 C541 0.959 . S
H526 C541 0.959 . S
H527 C541 0.961 . S
H528 C542 0.960 . S
H529 C542 0.961 . S
H530 C542 0.959 . S
H531 C545 0.929 . S
H532 C546 0.931 . S
H533 C548 0.930 . S
C534 H522 0.930 . S
C534 C535 1.399 . S
C534 C539 1.399 . S
C535 C534 1.399 . S
C535 C536 1.376 . S
C536 H523 0.930 . S
C536 C535 1.376 . S
C536 C537 1.388 . S
C537 H524 0.930 . S
C537 C536 1.388 . S
C537 C538 1.390 . S
C538 C537 1.390 . S
C538 C539 1.394 . S
C538 C544 1.465 . S
C539 C534 1.399 . S
C539 C538 1.394 . S
C539 C540 1.516 . S
C540 C539 1.516 . S
C540 C541 1.502 . S
C540 C542 1.561 . S
C540 C543 1.526 . S
C541 H525 0.959 . S
C541 H526 0.959 . S
C541 H527 0.961 . S
C541 C540 1.502 . S
C542 H528 0.960 . S
C542 H529 0.961 . S
C542 H530 0.959 . S
C542 C540 1.561 . S
C543 C540 1.526 . S
C543 C544 1.396 . S
C543 C548 1.390 . S
C544 C538 1.465 . S
C544 C543 1.396 . S
C544 C545 1.399 . S
C545 H531 0.929 . S
C545 C544 1.399 . S
C545 C546 1.385 1_554 S
C546 H532 0.931 . S
C546 C545 1.385 1_556 S
C546 C547 1.389 . S
C547 C546 1.389 . S
C547 C548 1.387 1_556 S
C548 H533 0.930 . S
C548 C543 1.390 . S
C548 C547 1.387 1_554 S
H549 C561 0.930 . S
H550 C563 0.930 . S
H551 C564 0.914 . S
H552 C568 0.959 . S
H553 C568 0.959 . S
H554 C568 0.961 . S
H555 C569 0.960 . S
H556 C569 0.961 . S
H557 C569 0.959 . S
H558 C572 0.929 . S
H559 C573 0.931 . S
H560 C575 0.930 1_556 S
C561 H549 0.930 . S
C561 C562 1.399 . S
C561 C566 1.399 1_455 S
C562 C561 1.399 . S
C562 C563 1.376 . S
C563 H550 0.930 . S
C563 C562 1.376 . S
C563 C564 1.396 . S
C564 H551 0.914 . S
C564 C563 1.396 . S
C564 C565 1.399 1_455 S
C565 C564 1.399 1_655 S
C565 C566 1.394 . S
C565 C571 1.465 . S
C566 C561 1.399 1_655 S
C566 C565 1.394 . S
C566 C567 1.516 . S
C567 C566 1.516 . S
C567 C568 1.502 1_655 S
C567 C569 1.561 . S
C567 C570 1.526 . S
C568 H552 0.959 . S
C568 H553 0.959 . S
C568 H554 0.961 . S
C568 C567 1.502 1_455 S
C569 H555 0.960 . S
C569 H556 0.961 . S
C569 H557 0.959 . S
C569 C567 1.561 . S
C570 C567 1.526 . S
C570 C571 1.396 . S
C570 C575 1.390 . S
C571 C565 1.465 . S
C571 C570 1.396 . S
C571 C572 1.399 . S
C572 H558 0.929 . S
C572 C571 1.399 . S
C572 C573 1.385 1_554 S
C573 H559 0.931 . S
C573 C572 1.385 1_556 S
C573 C574 1.389 . S
C574 C573 1.389 . S
C574 C575 1.387 1_556 S
C575 H560 0.930 1_554 S
C575 C570 1.390 . S
C575 C574 1.387 1_554 S
H576 C588 0.930 . S
H577 C590 0.926 1_455 S
H578 C591 0.930 . S
H579 C595 0.959 . S
H580 C595 0.959 . S
H581 C595 0.961 . S
H582 C596 0.960 1_655 S
H583 C596 0.981 . S
H584 C596 0.959 . S
H585 C599 0.929 . S
H586 C600 0.931 . S
H587 C602 0.930 . S
C588 H576 0.930 . S
C588 C589 1.399 . S
C588 C593 1.399 . S
C589 C588 1.399 . S
C589 C590 1.376 . S
C590 H577 0.926 1_655 S
C590 C589 1.376 . S
C590 C591 1.388 1_655 S
C591 H578 0.930 . S
C591 C590 1.388 1_455 S
C591 C592 1.393 1_455 S
C592 C591 1.393 1_655 S
C592 C593 1.388 . S
C592 C598 1.467 1_655 S
C593 C588 1.399 . S
C593 C592 1.388 . S
C593 C594 1.516 . S
C594 C593 1.516 . S
C594 C595 1.502 . S
C594 C596 1.561 1_655 S
C594 C597 1.526 . S
C595 H579 0.959 . S
C595 H580 0.959 . S
C595 H581 0.961 . S
C595 C594 1.502 . S
C596 H582 0.960 1_455 S
C596 H583 0.981 . S
C596 H584 0.959 . S
C596 C594 1.561 1_455 S
C597 C594 1.526 . S
C597 C598 1.396 1_655 S
C597 C602 1.390 1_554 S
C598 C592 1.467 1_455 S
C598 C597 1.396 1_455 S
C598 C599 1.399 . S
C599 H585 0.929 . S
C599 C598 1.399 . S
C599 C600 1.385 1_554 S
C600 H586 0.931 . S
C600 C599 1.385 1_556 S
C600 C601 1.389 . S
C601 C600 1.389 . S
C601 C602 1.387 1_455 S
C602 H587 0.930 . S
C602 C597 1.390 1_556 S
C602 C601 1.387 1_655 S
H603 C615 0.930 . S
H604 C617 0.930 . S
H605 C618 0.930 . S
H606 C622 0.959 . S
H607 C622 0.959 . S
H608 C622 0.961 . S
H609 C623 0.960 . S
H610 C623 0.961 . S
H611 C623 0.959 . S
H612 C626 0.929 . S
H613 C627 0.931 . S
H614 C629 0.930 . S
C615 H603 0.930 . S
C615 C616 1.399 . S
C615 C620 1.399 . S
C616 C615 1.399 . S
C616 C617 1.376 . S
C617 H604 0.930 . S
C617 C616 1.376 . S
C617 C618 1.388 . S
C618 H605 0.930 . S
C618 C617 1.388 . S
C618 C619 1.390 . S
C619 C618 1.390 . S
C619 C620 1.394 . S
C619 C625 1.465 . S
C620 C615 1.399 . S
C620 C619 1.394 . S
C620 C621 1.516 . S
C621 C620 1.516 . S
C621 C622 1.502 . S
C621 C623 1.561 . S
C621 C624 1.526 . S
C622 H606 0.959 . S
C622 H607 0.959 . S
C622 H608 0.961 . S
C622 C621 1.502 . S
C623 H609 0.960 . S
C623 H610 0.961 . S
C623 H611 0.959 . S
C623 C621 1.561 . S
C624 C621 1.526 . S
C624 C625 1.396 . S
C624 C629 1.390 . S
C625 C619 1.465 . S
C625 C624 1.396 . S
C625 C626 1.399 . S
C626 H612 0.929 . S
C626 C625 1.399 . S
C626 C627 1.385 . S
C627 H613 0.931 . S
C627 C626 1.385 . S
C627 C628 1.389 . S
C628 C627 1.389 . S
C628 C629 1.387 . S
C629 H614 0.930 . S
C629 C624 1.390 . S
C629 C628 1.387 . S
H630 C642 0.930 . S
H631 C644 0.930 . S
H632 C645 0.930 . S
H633 C649 0.959 . S
H634 C649 0.959 . S
H635 C649 0.961 . S
H636 C650 0.960 . S
H637 C650 0.961 . S
H638 C650 0.959 . S
H639 C653 0.929 . S
H640 C654 0.931 . S
H641 C656 0.930 . S
C642 H630 0.930 . S
C642 C643 1.399 . S
C642 C647 1.399 . S
C643 C642 1.399 . S
C643 C644 1.376 . S
C644 H631 0.930 . S
C644 C643 1.376 . S
C644 C645 1.388 . S
C645 H632 0.930 . S
C645 C644 1.388 . S
C645 C646 1.390 . S
C646 C645 1.390 . S
C646 C647 1.394 . S
C646 C652 1.465 . S
C647 C642 1.399 . S
C647 C646 1.394 . S
C647 C648 1.516 . S
C648 C647 1.516 . S
C648 C649 1.502 . S
C648 C650 1.561 . S
C648 C651 1.526 . S
C649 H633 0.959 . S
C649 H634 0.959 . S
C649 H635 0.961 . S
C649 C648 1.502 . S
C650 H636 0.960 . S
C650 H637 0.961 . S
C650 H638 0.959 . S
C650 C648 1.561 . S
C651 C648 1.526 . S
C651 C652 1.396 . S
C651 C656 1.390 . S
C652 C646 1.465 . S
C652 C651 1.396 . S
C652 C653 1.399 . S
C653 H639 0.929 . S
C653 C652 1.399 . S
C653 C654 1.385 . S
C654 H640 0.931 . S
C654 C653 1.385 . S
C654 C655 1.389 . S
C655 C654 1.389 . S
C655 C656 1.387 . S
C656 H641 0.930 . S
C656 C651 1.390 . S
C656 C655 1.387 . S
H657 C669 0.930 . S
H658 C671 0.930 1_545 S
H659 C672 0.930 . S
H660 C676 0.959 . S
H661 C676 0.959 . S
H662 C676 0.961 . S
H663 C677 0.960 . S
H664 C677 0.961 . S
H665 C677 0.959 . S
H666 C680 0.929 . S
H667 C681 0.931 . S
H668 C683 0.930 . S
C669 H657 0.930 . S
C669 C670 1.399 . S
C669 C674 1.399 . S
C670 C669 1.399 . S
C670 C671 1.376 . S
C671 H658 0.930 1_565 S
C671 C670 1.376 . S
C671 C672 1.388 . S
C672 H659 0.930 . S
C672 C671 1.388 . S
C672 C673 1.390 . S
C673 C672 1.390 . S
C673 C674 1.394 . S
C673 C679 1.465 . S
C674 C669 1.399 . S
C674 C673 1.394 . S
C674 C675 1.516 . S
C675 C674 1.516 . S
C675 C676 1.502 . S
C675 C677 1.561 . S
C675 C678 1.526 . S
C676 H660 0.959 . S
C676 H661 0.959 . S
C676 H662 0.961 . S
C676 C675 1.502 . S
C677 H663 0.960 . S
C677 H664 0.961 . S
C677 H665 0.959 . S
C677 C675 1.561 . S
C678 C675 1.526 . S
C678 C679 1.396 . S
C678 C683 1.390 . S
C679 C673 1.465 . S
C679 C678 1.396 . S
C679 C680 1.399 . S
C680 H666 0.929 . S
C680 C679 1.399 . S
C680 C681 1.385 . S
C681 H667 0.931 . S
C681 C680 1.385 . S
C681 C682 1.389 . S
C682 C681 1.389 . S
C682 C683 1.387 . S
C683 H668 0.930 . S
C683 C678 1.390 . S
C683 C682 1.387 . S
H684 C696 0.930 . S
H685 C698 0.930 . S
H686 C699 0.930 . S
H687 C703 0.959 . S
H688 C703 0.959 . S
H689 C703 0.961 . S
H690 C704 0.960 . S
H691 C704 0.961 . S
H692 C704 0.959 . S
H693 C707 0.929 . S
H694 C708 0.931 . S
H695 C710 0.930 . S
C696 H684 0.930 . S
C696 C697 1.399 . S
C696 C701 1.403 . S
C697 C696 1.399 . S
C697 C698 1.376 1_554 S
C698 H685 0.930 . S
C698 C697 1.376 1_556 S
C698 C699 1.388 . S
C699 H686 0.930 . S
C699 C698 1.388 . S
C699 C700 1.390 . S
C700 C699 1.390 . S
C700 C701 1.388 1_556 S
C700 C706 1.465 . S
C701 C696 1.403 . S
C701 C700 1.388 1_554 S
C701 C702 1.517 . S
C702 C701 1.517 . S
C702 C703 1.502 . S
C702 C704 1.561 . S
C702 C705 1.526 1_554 S
C703 H687 0.959 . S
C703 H688 0.959 . S
C703 H689 0.961 . S
C703 C702 1.502 . S
C704 H690 0.960 . S
C704 H691 0.961 . S
C704 H692 0.959 . S
C704 C702 1.561 . S
C705 C702 1.526 1_556 S
C705 C706 1.396 . S
C705 C710 1.390 . S
C706 C700 1.465 . S
C706 C705 1.396 . S
C706 C707 1.399 . S
C707 H693 0.929 . S
C707 C706 1.399 . S
C707 C708 1.385 . S
C708 H694 0.931 . S
C708 C707 1.385 . S
C708 C709 1.389 . S
C709 C708 1.389 . S
C709 C710 1.387 . S
C710 H695 0.930 . S
C710 C705 1.390 . S
C710 C709 1.387 . S
H711 C723 0.930 . S
H712 C725 0.930 . S
H713 C726 0.930 1_554 S
H714 C730 0.959 . S
H715 C730 0.959 . S
H716 C730 0.961 . S
H717 C731 0.960 . S
H718 C731 0.961 . S
H719 C731 0.959 . S
H720 C734 0.929 . S
H721 C735 0.931 . S
H722 C737 0.930 . S
C723 H711 0.930 . S
C723 C724 1.399 . S
C723 C728 1.399 . S
C724 C723 1.399 . S
C724 C725 1.376 . S
C725 H712 0.930 . S
C725 C724 1.376 . S
C725 C726 1.388 . S
C726 H713 0.930 1_556 S
C726 C725 1.388 . S
C726 C727 1.390 . S
C727 C726 1.390 . S
C727 C728 1.394 . S
C727 C733 1.465 . S
C728 C723 1.399 . S
C728 C727 1.394 . S
C728 C729 1.516 . S
C729 C728 1.516 . S
C729 C730 1.502 . S
C729 C731 1.561 . S
C729 C732 1.526 . S
C730 H714 0.959 . S
C730 H715 0.959 . S
C730 H716 0.961 . S
C730 C729 1.502 . S
C731 H717 0.960 . S
C731 H718 0.961 . S
C731 H719 0.959 . S
C731 C729 1.561 . S
C732 C729 1.526 . S
C732 C733 1.396 . S
C732 C737 1.390 . S
C733 C727 1.465 . S
C733 C732 1.396 . S
C733 C734 1.399 1_556 S
C734 H720 0.929 . S
C734 C733 1.399 1_554 S
C734 C735 1.385 . S
C735 H721 0.931 . S
C735 C734 1.385 . S
C735 C736 1.389 . S
C736 C735 1.389 . S
C736 C737 1.387 1_554 S
C737 H722 0.930 . S
C737 C732 1.390 . S
C737 C736 1.387 1_556 S
H738 C750 0.930 . S
H739 C752 0.930 . S
H740 C753 0.930 1_554 S
H741 C757 0.959 . S
H742 C757 0.959 . S
H743 C757 0.961 . S
H744 C758 0.960 . S
H745 C758 0.961 . S
H746 C758 0.959 . S
H747 C761 0.929 . S
H748 C762 0.931 . S
H749 C764 0.930 . S
C750 H738 0.930 . S
C750 C751 1.399 . S
C750 C755 1.399 . S
C751 C750 1.399 . S
C751 C752 1.376 . S
C752 H739 0.930 . S
C752 C751 1.376 . S
C752 C753 1.388 . S
C753 H740 0.930 1_556 S
C753 C752 1.388 . S
C753 C754 1.390 . S
C754 C753 1.390 . S
C754 C755 1.394 . S
C754 C760 1.465 . S
C755 C750 1.399 . S
C755 C754 1.394 . S
C755 C756 1.516 . S
C756 C755 1.516 . S
C756 C757 1.502 . S
C756 C758 1.561 . S
C756 C759 1.526 . S
C757 H741 0.959 . S
C757 H742 0.959 . S
C757 H743 0.961 . S
C757 C756 1.502 . S
C758 H744 0.960 . S
C758 H745 0.961 . S
C758 H746 0.959 . S
C758 C756 1.561 . S
C759 C756 1.526 . S
C759 C760 1.396 . S
C759 C764 1.390 . S
C760 C754 1.465 . S
C760 C759 1.396 . S
C760 C761 1.399 1_556 S
C761 H747 0.929 . S
C761 C760 1.399 1_554 S
C761 C762 1.385 . S
C762 H748 0.931 . S
C762 C761 1.385 . S
C762 C763 1.389 . S
C763 C762 1.389 . S
C763 C764 1.387 1_554 S
C764 H749 0.930 . S
C764 C759 1.390 . S
C764 C763 1.387 1_556 S
H765 C777 0.930 . S
H766 C779 0.930 . S
H767 C780 0.930 . S
H768 C784 0.959 . S
H769 C784 0.959 . S
H770 C784 0.961 . S
H771 C785 0.960 . S
H772 C785 0.961 . S
H773 C785 0.959 . S
H774 C788 0.929 . S
H775 C789 0.931 . S
H776 C791 0.930 . S
C777 H765 0.930 . S
C777 C778 1.399 1_554 S
C777 C782 1.399 . S
C778 C777 1.399 1_556 S
C778 C779 1.376 . S
C779 H766 0.930 . S
C779 C778 1.376 . S
C779 C780 1.388 . S
C780 H767 0.930 . S
C780 C779 1.388 . S
C780 C781 1.390 . S
C781 C780 1.390 . S
C781 C782 1.394 1_556 S
C781 C787 1.465 . S
C782 C777 1.399 . S
C782 C781 1.394 1_554 S
C782 C783 1.516 . S
C783 C782 1.516 . S
C783 C784 1.502 . S
C783 C785 1.561 . S
C783 C786 1.526 . S
C784 H768 0.959 . S
C784 H769 0.959 . S
C784 H770 0.961 . S
C784 C783 1.502 . S
C785 H771 0.960 . S
C785 H772 0.961 . S
C785 H773 0.959 . S
C785 C783 1.561 . S
C786 C783 1.526 . S
C786 C787 1.396 1_554 S
C786 C791 1.390 . S
C787 C781 1.465 . S
C787 C786 1.396 1_556 S
C787 C788 1.399 . S
C788 H774 0.929 . S
C788 C787 1.399 . S
C788 C789 1.385 . S
C789 H775 0.931 . S
C789 C788 1.385 . S
C789 C790 1.389 1_556 S
C790 C789 1.389 1_554 S
C790 C791 1.387 . S
C791 H776 0.930 . S
C791 C786 1.390 . S
C791 C790 1.387 . S
H792 C804 0.930 . S
H793 C806 0.930 . S
H794 C807 0.930 . S
H795 C811 0.959 . S
H796 C811 0.959 . S
H797 C811 0.961 . S
H798 C812 0.960 . S
H799 C812 0.961 . S
H800 C812 0.959 . S
H801 C815 0.929 . S
H802 C816 0.931 . S
H803 C818 0.930 . S
C804 H792 0.930 . S
C804 C805 1.399 . S
C804 C809 1.399 . S
C805 C804 1.399 . S
C805 C806 1.376 1_554 S
C806 H793 0.930 . S
C806 C805 1.376 1_556 S
C806 C807 1.388 . S
C807 H794 0.930 . S
C807 C806 1.388 . S
C807 C808 1.390 . S
C808 C807 1.390 . S
C808 C809 1.394 1_556 S
C808 C814 1.465 . S
C809 C804 1.399 . S
C809 C808 1.394 1_554 S
C809 C810 1.516 . S
C810 C809 1.516 . S
C810 C811 1.502 . S
C810 C812 1.561 . S
C810 C813 1.526 . S
C811 H795 0.959 . S
C811 H796 0.959 . S
C811 H797 0.961 . S
C811 C810 1.502 . S
C812 H798 0.960 . S
C812 H799 0.961 . S
C812 H800 0.959 . S
C812 C810 1.561 . S
C813 C810 1.526 . S
C813 C814 1.396 1_554 S
C813 C818 1.390 . S
C814 C808 1.465 . S
C814 C813 1.396 1_556 S
C814 C815 1.399 . S
C815 H801 0.929 . S
C815 C814 1.399 . S
C815 C816 1.385 . S
C816 H802 0.931 . S
C816 C815 1.385 . S
C816 C817 1.389 . S
C817 C816 1.389 . S
C817 C818 1.387 1_556 S
C818 H803 0.930 . S
C818 C813 1.390 . S
C818 C817 1.387 1_554 S
H819 C831 0.930 . S
H820 C833 0.930 . S
H821 C834 0.930 . S
H822 C838 0.959 . S
H823 C838 0.959 . S
H824 C838 0.961 . S
H825 C839 0.960 . S
H826 C839 0.961 . S
H827 C839 0.959 . S
H828 C842 0.929 . S
H829 C843 0.931 . S
H830 C845 0.930 . S
C831 H819 0.930 . S
C831 C832 1.399 1_554 S
C831 C836 1.399 . S
C832 C831 1.399 1_556 S
C832 C833 1.376 . S
C833 H820 0.930 . S
C833 C832 1.376 . S
C833 C834 1.388 . S
C834 H821 0.930 . S
C834 C833 1.388 . S
C834 C835 1.390 . S
C835 C834 1.390 . S
C835 C836 1.394 1_556 S
C835 C841 1.465 . S
C836 C831 1.399 . S
C836 C835 1.394 1_554 S
C836 C837 1.516 . S
C837 C836 1.516 . S
C837 C838 1.502 . S
C837 C839 1.561 . S
C837 C840 1.526 . S
C838 H822 0.959 . S
C838 H823 0.959 . S
C838 H824 0.961 . S
C838 C837 1.502 . S
C839 H825 0.960 . S
C839 H826 0.961 . S
C839 H827 0.959 . S
C839 C837 1.561 . S
C840 C837 1.526 . S
C840 C841 1.396 1_554 S
C840 C845 1.390 . S
C841 C835 1.465 . S
C841 C840 1.396 1_556 S
C841 C842 1.399 . S
C842 H828 0.929 . S
C842 C841 1.399 . S
C842 C843 1.385 . S
C843 H829 0.931 . S
C843 C842 1.385 . S
C843 C844 1.389 1_556 S
C844 C843 1.389 1_554 S
C844 C845 1.387 . S
C845 H830 0.930 . S
C845 C840 1.390 . S
C845 C844 1.387 . S
H846 C858 0.930 . S
H847 C860 0.930 . S
H848 C861 0.930 . S
H849 C865 0.959 . S
H850 C865 0.959 1_556 S
H851 C865 0.961 1_556 S
H852 C866 0.960 . S
H853 C866 0.961 . S
H854 C866 0.959 . S
H855 C869 0.929 . S
H856 C870 0.931 . S
H857 C872 0.930 . S
C858 H846 0.930 . S
C858 C859 1.399 . S
C858 C863 1.399 . S
C859 C858 1.399 . S
C859 C860 1.376 . S
C860 H847 0.930 . S
C860 C859 1.376 . S
C860 C861 1.388 . S
C861 H848 0.930 . S
C861 C860 1.388 . S
C861 C862 1.390 . S
C862 C861 1.390 . S
C862 C863 1.394 . S
C862 C868 1.465 . S
C863 C858 1.399 . S
C863 C862 1.394 . S
C863 C864 1.516 . S
C864 C863 1.516 . S
C864 C865 1.502 . S
C864 C866 1.561 1_554 S
C864 C867 1.526 . S
C865 H849 0.959 . S
C865 H850 0.959 1_554 S
C865 H851 0.961 1_554 S
C865 C864 1.502 . S
C866 H852 0.960 . S
C866 H853 0.961 . S
C866 H854 0.959 . S
C866 C864 1.561 1_556 S
C867 C864 1.526 . S
C867 C868 1.396 . S
C867 C872 1.390 . S
C868 C862 1.465 . S
C868 C867 1.396 . S
C868 C869 1.399 . S
C869 H855 0.929 . S
C869 C868 1.399 . S
C869 C870 1.385 . S
C870 H856 0.931 . S
C870 C869 1.385 . S
C870 C871 1.389 . S
C871 C870 1.389 . S
C871 C872 1.387 . S
C872 H857 0.930 . S
C872 C867 1.390 . S
C872 C871 1.387 . S
H873 C885 0.930 . S
H874 C887 0.930 . S
H875 C888 0.930 . S
H876 C892 0.959 1_556 S
H877 C892 0.959 1_556 S
H878 C892 0.961 1_556 S
H879 C893 0.960 . S
H880 C893 0.961 . S
H881 C893 0.959 . S
H882 C896 0.929 . S
H883 C897 0.931 . S
H884 C899 0.930 . S
C885 H873 0.930 . S
C885 C886 1.399 . S
C885 C890 1.399 . S
C886 C885 1.399 . S
C886 C887 1.376 . S
C887 H874 0.930 . S
C887 C886 1.376 . S
C887 C888 1.388 . S
C888 H875 0.930 . S
C888 C887 1.388 . S
C888 C889 1.390 . S
C889 C888 1.390 . S
C889 C890 1.394 . S
C889 C895 1.465 . S
C890 C885 1.399 . S
C890 C889 1.394 . S
C890 C891 1.516 . S
C891 C890 1.516 . S
C891 C892 1.502 . S
C891 C893 1.561 . S
C891 C894 1.526 . S
C892 H876 0.959 1_554 S
C892 H877 0.959 1_554 S
C892 H878 0.961 1_554 S
C892 C891 1.502 . S
C893 H879 0.960 . S
C893 H880 0.961 . S
C893 H881 0.959 . S
C893 C891 1.561 . S
C894 C891 1.526 . S
C894 C895 1.396 . S
C894 C899 1.390 . S
C895 C889 1.465 . S
C895 C894 1.396 . S
C895 C896 1.399 . S
C896 H882 0.929 . S
C896 C895 1.399 . S
C896 C897 1.385 . S
C897 H883 0.931 . S
C897 C896 1.385 . S
C897 C898 1.389 . S
C898 C897 1.389 . S
C898 C899 1.387 . S
C899 H884 0.930 . S
C899 C894 1.390 . S
C899 C898 1.387 . S
H900 C912 0.930 . S
H901 C914 0.930 . S
H902 C915 0.930 . S
H903 C919 0.965 . S
H904 C919 0.959 . S
H905 C919 0.961 . S
H906 C920 0.960 . S
H907 C920 0.961 . S
H908 C920 0.959 1_554 S
H909 C923 0.929 . S
H910 C924 0.931 . S
H911 C926 0.930 . S
C912 H900 0.930 . S
C912 C913 1.399 . S
C912 C917 1.399 . S
C913 C912 1.399 . S
C913 C914 1.376 . S
C914 H901 0.930 . S
C914 C913 1.376 . S
C914 C915 1.388 . S
C915 H902 0.930 . S
C915 C914 1.388 . S
C915 C916 1.390 . S
C916 C915 1.390 . S
C916 C917 1.394 . S
C916 C922 1.465 . S
C917 C912 1.399 . S
C917 C916 1.394 . S
C917 C918 1.516 . S
C918 C917 1.516 . S
C918 C919 1.502 1_554 S
C918 C920 1.561 1_554 S
C918 C921 1.526 . S
C919 H903 0.965 . S
C919 H904 0.959 . S
C919 H905 0.961 . S
C919 C918 1.502 1_556 S
C920 H906 0.960 . S
C920 H907 0.961 . S
C920 H908 0.959 1_556 S
C920 C918 1.561 1_556 S
C921 C918 1.526 . S
C921 C922 1.396 . S
C921 C926 1.390 . S
C922 C916 1.465 . S
C922 C921 1.396 . S
C922 C923 1.399 . S
C923 H909 0.929 . S
C923 C922 1.399 . S
C923 C924 1.385 . S
C924 H910 0.931 . S
C924 C923 1.385 . S
C924 C925 1.389 . S
C925 C924 1.389 . S
C925 C926 1.387 . S
C926 H911 0.930 . S
C926 C921 1.390 . S
C926 C925 1.387 . S
H927 C939 0.930 . S
H928 C941 0.930 . S
H929 C942 0.930 . S
H930 C946 0.959 . S
H931 C946 0.959 . S
H932 C946 0.961 . S
H933 C947 0.960 . S
H934 C947 0.961 . S
H935 C947 0.959 . S
H936 C950 0.929 . S
H937 C951 0.931 . S
H938 C953 0.930 . S
C939 H927 0.930 . S
C939 C940 1.399 . S
C939 C944 1.399 . S
C940 C939 1.399 . S
C940 C941 1.376 . S
C941 H928 0.930 . S
C941 C940 1.376 . S
C941 C942 1.388 . S
C942 H929 0.930 . S
C942 C941 1.388 . S
C942 C943 1.390 . S
C943 C942 1.390 . S
C943 C944 1.394 . S
C943 C949 1.465 . S
C944 C939 1.399 . S
C944 C943 1.394 . S
C944 C945 1.516 . S
C945 C944 1.516 . S
C945 C946 1.502 . S
C945 C947 1.561 . S
C945 C948 1.526 . S
C946 H930 0.959 . S
C946 H931 0.959 . S
C946 H932 0.961 . S
C946 C945 1.502 . S
C947 H933 0.960 . S
C947 H934 0.961 . S
C947 H935 0.959 . S
C947 C945 1.561 . S
C948 C945 1.526 . S
C948 C949 1.396 . S
C948 C953 1.390 . S
C949 C943 1.465 . S
C949 C948 1.396 . S
C949 C950 1.399 . S
C950 H936 0.929 . S
C950 C949 1.399 . S
C950 C951 1.385 . S
C951 H937 0.931 . S
C951 C950 1.385 . S
C951 C952 1.389 . S
C952 C951 1.389 . S
C952 C953 1.387 . S
C953 H938 0.930 . S
C953 C948 1.390 . S
C953 C952 1.387 . S
H954 C966 0.930 . S
H955 C968 0.930 . S
H956 C969 0.930 . S
H957 C973 0.959 . S
H958 C973 0.959 . S
H959 C973 0.961 . S
H960 C974 0.960 . S
H961 C974 0.961 . S
H962 C974 0.959 . S
H963 C977 0.929 . S
H964 C978 0.931 . S
H965 C980 0.930 . S
C966 H954 0.930 . S
C966 C967 1.399 . S
C966 C971 1.399 . S
C967 C966 1.399 . S
C967 C968 1.376 . S
C968 H955 0.930 . S
C968 C967 1.376 . S
C968 C969 1.388 . S
C969 H956 0.930 . S
C969 C968 1.388 . S
C969 C970 1.390 . S
C970 C969 1.390 . S
C970 C971 1.394 . S
C970 C976 1.465 . S
C971 C966 1.399 . S
C971 C970 1.394 . S
C971 C972 1.516 . S
C972 C971 1.516 . S
C972 C973 1.502 . S
C972 C974 1.561 . S
C972 C975 1.526 . S
C973 H957 0.959 . S
C973 H958 0.959 . S
C973 H959 0.961 . S
C973 C972 1.502 . S
C974 H960 0.960 . S
C974 H961 0.961 . S
C974 H962 0.959 . S
C974 C972 1.561 . S
C975 C972 1.526 . S
C975 C976 1.396 . S
C975 C980 1.390 . S
C976 C970 1.465 . S
C976 C975 1.396 . S
C976 C977 1.399 . S
C977 H963 0.929 . S
C977 C976 1.399 . S
C977 C978 1.385 1_545 S
C978 H964 0.931 . S
C978 C977 1.385 1_565 S
C978 C979 1.389 . S
C979 C978 1.389 . S
C979 C980 1.387 1_565 S
C980 H965 0.930 . S
C980 C975 1.390 . S
C980 C979 1.387 1_545 S
H981 C993 0.930 . S
H982 C995 0.930 . S
H983 C996 0.930 . S
H984 C1000 0.959 . S
H985 C1000 0.959 . S
H986 C1000 0.961 . S
H987 C1001 0.960 . S
H988 C1001 0.961 . S
H989 C1001 0.959 . S
H990 C1004 0.929 . S
H991 C1005 0.931 . S
H992 C1007 0.930 . S
C993 H981 0.930 . S
C993 C994 1.399 . S
C993 C998 1.399 . S
C994 C993 1.399 . S
C994 C995 1.376 . S
C995 H982 0.930 . S
C995 C994 1.376 . S
C995 C996 1.388 . S
C996 H983 0.930 . S
C996 C995 1.388 . S
C996 C997 1.390 . S
C997 C996 1.390 . S
C997 C998 1.394 . S
C997 C1003 1.465 . S
C998 C993 1.399 . S
C998 C997 1.394 . S
C998 C999 1.516 . S
C999 C998 1.516 . S
C999 C1000 1.502 . S
C999 C1001 1.561 . S
C999 C1002 1.526 . S
C1000 H984 0.959 . S
C1000 H985 0.959 . S
C1000 H986 0.961 . S
C1000 C999 1.502 . S
C1001 H987 0.960 . S
C1001 H988 0.961 . S
C1001 H989 0.959 . S
C1001 C999 1.561 . S
C1002 C999 1.526 . S
C1002 C1003 1.396 . S
C1002 C1007 1.390 . S
C1003 C997 1.465 . S
C1003 C1002 1.396 . S
C1003 C1004 1.399 . S
C1004 H990 0.929 . S
C1004 C1003 1.399 . S
C1004 C1005 1.385 . S
C1005 H991 0.931 . S
C1005 C1004 1.385 . S
C1005 C1006 1.389 . S
C1006 C1005 1.389 . S
C1006 C1007 1.387 . S
C1007 H992 0.930 . S
C1007 C1002 1.390 . S
C1007 C1006 1.387 . S
H1008 C1020 0.930 . S
H1009 C1022 0.930 . S
H1010 C1023 0.930 . S
H1011 C1027 0.959 . S
H1012 C1027 0.959 . S
H1013 C1027 0.961 . S
H1014 C1028 0.960 . S
H1015 C1028 0.961 . S
H1016 C1028 0.959 . S
H1017 C1031 0.929 . S
H1018 C1032 0.931 . S
H1019 C1034 0.930 . S
C1020 H1008 0.930 . S
C1020 C1021 1.399 . S
C1020 C1025 1.399 . S
C1021 C1020 1.399 . S
C1021 C1022 1.376 . S
C1022 H1009 0.930 . S
C1022 C1021 1.376 . S
C1022 C1023 1.388 . S
C1023 H1010 0.930 . S
C1023 C1022 1.388 . S
C1023 C1024 1.390 . S
C1024 C1023 1.390 . S
C1024 C1025 1.394 . S
C1024 C1030 1.465 . S
C1025 C1020 1.399 . S
C1025 C1024 1.394 . S
C1025 C1026 1.516 . S
C1026 C1025 1.516 . S
C1026 C1027 1.502 . S
C1026 C1028 1.561 . S
C1026 C1029 1.526 . S
C1027 H1011 0.959 . S
C1027 H1012 0.959 . S
C1027 H1013 0.961 . S
C1027 C1026 1.502 . S
C1028 H1014 0.960 . S
C1028 H1015 0.961 . S
C1028 H1016 0.959 . S
C1028 C1026 1.561 . S
C1029 C1026 1.526 . S
C1029 C1030 1.396 . S
C1029 C1034 1.390 . S
C1030 C1024 1.465 . S
C1030 C1029 1.396 . S
C1030 C1031 1.399 . S
C1031 H1017 0.929 . S
C1031 C1030 1.399 . S
C1031 C1032 1.385 . S
C1032 H1018 0.931 . S
C1032 C1031 1.385 . S
C1032 C1033 1.389 . S
C1033 C1032 1.389 . S
C1033 C1034 1.387 . S
C1034 H1019 0.930 . S
C1034 C1029 1.390 . S
C1034 C1033 1.387 . S
H1035 C1047 0.930 . S
H1036 C1049 0.930 . S
H1037 C1050 0.930 . S
H1038 C1054 0.959 . S
H1039 C1054 0.959 . S
H1040 C1054 0.961 . S
H1041 C1055 0.960 . S
H1042 C1055 0.961 . S
H1043 C1055 0.959 . S
H1044 C1058 0.929 . S
H1045 C1059 0.931 . S
H1046 C1061 0.930 . S
C1047 H1035 0.930 . S
C1047 C1048 1.399 . S
C1047 C1052 1.399 . S
C1048 C1047 1.399 . S
C1048 C1049 1.376 . S
C1049 H1036 0.930 . S
C1049 C1048 1.376 . S
C1049 C1050 1.388 . S
C1050 H1037 0.930 . S
C1050 C1049 1.388 . S
C1050 C1051 1.390 . S
C1051 C1050 1.390 . S
C1051 C1052 1.394 . S
C1051 C1057 1.465 . S
C1052 C1047 1.399 . S
C1052 C1051 1.394 . S
C1052 C1053 1.516 . S
C1053 C1052 1.516 . S
C1053 C1054 1.502 . S
C1053 C1055 1.561 . S
C1053 C1056 1.526 . S
C1054 H1038 0.959 . S
C1054 H1039 0.959 . S
C1054 H1040 0.961 . S
C1054 C1053 1.502 . S
C1055 H1041 0.960 . S
C1055 H1042 0.961 . S
C1055 H1043 0.959 . S
C1055 C1053 1.561 . S
C1056 C1053 1.526 . S
C1056 C1057 1.396 . S
C1056 C1061 1.390 . S
C1057 C1051 1.465 . S
C1057 C1056 1.396 . S
C1057 C1058 1.399 . S
C1058 H1044 0.929 . S
C1058 C1057 1.399 . S
C1058 C1059 1.385 . S
C1059 H1045 0.931 . S
C1059 C1058 1.385 . S
C1059 C1060 1.389 . S
C1060 C1059 1.389 . S
C1060 C1061 1.387 . S
C1061 H1046 0.930 . S
C1061 C1056 1.390 . S
C1061 C1060 1.387 . S
H1062 C1074 0.930 . S
H1063 C1076 0.930 . S
H1064 C1077 0.930 . S
H1065 C1081 0.959 . S
H1066 C1081 0.959 . S
H1067 C1081 0.961 . S
H1068 C1082 0.960 . S
H1069 C1082 0.961 . S
H1070 C1082 0.959 . S
H1071 C1085 0.929 . S
H1072 C1086 0.931 . S
H1073 C1088 0.930 . S
C1074 H1062 0.930 . S
C1074 C1075 1.399 . S
C1074 C1079 1.399 . S
C1075 C1074 1.399 . S
C1075 C1076 1.376 . S
C1076 H1063 0.930 . S
C1076 C1075 1.376 . S
C1076 C1077 1.388 . S
C1077 H1064 0.930 . S
C1077 C1076 1.388 . S
C1077 C1078 1.390 . S
C1078 C1077 1.390 . S
C1078 C1079 1.394 . S
C1078 C1084 1.465 . S
C1079 C1074 1.399 . S
C1079 C1078 1.394 . S
C1079 C1080 1.516 . S
C1080 C1079 1.516 . S
C1080 C1081 1.502 . S
C1080 C1082 1.561 . S
C1080 C1083 1.526 . S
C1081 H1065 0.959 . S
C1081 H1066 0.959 . S
C1081 H1067 0.961 . S
C1081 C1080 1.502 . S
C1082 H1068 0.960 . S
C1082 H1069 0.961 . S
C1082 H1070 0.959 . S
C1082 C1080 1.561 . S
C1083 C1080 1.526 . S
C1083 C1084 1.396 . S
C1083 C1088 1.390 . S
C1084 C1078 1.465 . S
C1084 C1083 1.396 . S
C1084 C1085 1.399 . S
C1085 H1071 0.929 . S
C1085 C1084 1.399 . S
C1085 C1086 1.385 . S
C1086 H1072 0.931 . S
C1086 C1085 1.385 . S
C1086 C1087 1.389 . S
C1087 C1086 1.389 . S
C1087 C1088 1.387 . S
C1088 H1073 0.930 . S
C1088 C1083 1.390 . S
C1088 C1087 1.387 . S
C373 C9 1.387 . S
C385 C18 1.341 . S
C400 C49 1.393 . S
C412 C58 1.329 . S
C427 C89 1.354 . S
C439 C98 1.376 . S
C454 C138 1.341 . S
C466 C129 1.370 1_566 S
C481 C178 1.367 . S
C493 C169 1.344 1_556 S
C508 C218 1.392 . S
C520 C209 1.328 1_556 S
C535 C259 1.344 . S
C547 C250 1.230 . S
C562 C299 1.301 . S
C574 C290 1.255 . S
C589 C339 1.228 . S
C601 C330 1.335 . S
C616 C210 2.592 . S
C628 C6 2.566 . S
C643 C46 2.570 . S
C655 C130 2.592 . S
C670 C86 2.562 1_565 S
C682 C170 2.595 . S
C697 C90 2.133 . S
C709 C249 2.314 . S
C724 C289 2.297 . S
C736 C10 2.206 . S
C751 C329 2.298 . S
C763 C50 2.207 . S
C778 C326 1.010 . S
C790 C15 1.039 . S
C805 C55 1.007 . S
C817 C246 1.002 . S
C832 C286 0.998 . S
C844 C95 1.011 . S
C859 C99 2.590 . S
C871 C135 2.563 . S
C886 C175 2.562 . S
C898 C19 2.591 . S
C913 C59 2.593 . S
C925 C215 2.551 . S
C940 C335 1.047 . S
C952 C126 1.049 . S
C967 C255 1.016 . S
C979 C166 1.007 . S
C994 C295 1.039 . S
C1006 C206 1.007 . S
C1021 C258 2.307 . S
C1033 C219 2.135 . S
C1048 C139 2.166 . S
C1060 C298 2.324 . S
C1075 C338 2.321 . S
C1087 C179 2.199 . S
