# Generated by pormake.
# Topology sow, (4)-cn, num edge types: 1
# Building blocks:
#     Node 0, Type 0, BuildingBlock: ICAMEG_clean_sbu_1, # of connection points: 4
#     Node 1, Type 0, BuildingBlock: ICAMEG_clean_sbu_1, # of connection points: 4
#     Node 2, Type 0, BuildingBlock: ICAMEG_clean_sbu_1, # of connection points: 4
#     Node 3, Type 0, BuildingBlock: ICAMEG_clean_sbu_1, # of connection points: 4
#     Node 4, Type 0, BuildingBlock: ICAMEG_clean_sbu_1, # of connection points: 4
#     Node 5, Type 0, BuildingBlock: ICAMEG_clean_sbu_1, # of connection points: 4
#     Node 6, Type 0, BuildingBlock: ICAMEG_clean_sbu_1, # of connection points: 4
#     Node 7, Type 0, BuildingBlock: ICAMEG_clean_sbu_1, # of connection points: 4
#     Edge 8, Type (0, 0), BuildingBlock: AJUNOK_clean_linker_0, # of connection points: 2
#     Edge 9, Type (0, 0), BuildingBlock: AJUNOK_clean_linker_0, # of connection points: 2
#     Edge 10, Type (0, 0), BuildingBlock: AJUNOK_clean_linker_0, # of connection points: 2
#     Edge 11, Type (0, 0), BuildingBlock: AJUNOK_clean_linker_0, # of connection points: 2
#     Edge 12, Type (0, 0), BuildingBlock: AJUNOK_clean_linker_0, # of connection points: 2
#     Edge 13, Type (0, 0), BuildingBlock: AJUNOK_clean_linker_0, # of connection points: 2
#     Edge 14, Type (0, 0), BuildingBlock: AJUNOK_clean_linker_0, # of connection points: 2
#     Edge 15, Type (0, 0), BuildingBlock: AJUNOK_clean_linker_0, # of connection points: 2
#     Edge 16, Type (0, 0), BuildingBlock: AJUNOK_clean_linker_0, # of connection points: 2
#     Edge 17, Type (0, 0), BuildingBlock: AJUNOK_clean_linker_0, # of connection points: 2
#     Edge 18, Type (0, 0), BuildingBlock: AJUNOK_clean_linker_0, # of connection points: 2
#     Edge 19, Type (0, 0), BuildingBlock: AJUNOK_clean_linker_0, # of connection points: 2
#     Edge 20, Type (0, 0), BuildingBlock: AJUNOK_clean_linker_0, # of connection points: 2
#     Edge 21, Type (0, 0), BuildingBlock: AJUNOK_clean_linker_0, # of connection points: 2
#     Edge 22, Type (0, 0), BuildingBlock: AJUNOK_clean_linker_0, # of connection points: 2
#     Edge 23, Type (0, 0), BuildingBlock: AJUNOK_clean_linker_0, # of connection points: 2
# Relax obj value: 0.047
# Max RMSD: 0.153
# Mean RMSD: 0.153
data_MOF--net-sow--node1-ICAMEG_clean_sbu_1--edge1-AJUNOK_clean_linker_0
_symmetry_space_group_name_H-M    P1
_symmetry_Int_Tables_number       1
_symmetry_cell_setting            triclinic
loop_
_symmetry_equiv_pos_as_xyz
'x, y, z'
_cell_length_a     32.23089
_cell_length_b     13.715122
_cell_length_c     20.202755
_cell_angle_alpha  89.998176
_cell_angle_beta   89.89312
_cell_angle_gamma 90.026667
loop_
_atom_site_label
_atom_site_type_symbol
_atom_site_fract_x
_atom_site_fract_y
_atom_site_fract_z
_atom_type_partial_charge
Co0 Co 0.11325 0.29588 0.0265 0.0
Co1 Co 0.13883 0.12624 0.1432 0.0
O2 O 0.15475 0.22575 0.07855 0.0
C3 C 0.1724 0.21676 0.92814 0.0
O4 O 0.16347 0.13097 0.95301 0.0
C5 C 0.20074 0.23815 0.22227 0.0
O6 O 0.17903 0.31703 0.20983 0.0
O7 O 0.10538 0.22565 0.19028 0.0
O8 O 0.07363 0.29865 0.10446 0.0
H9 H 0.0387 0.96166 0.29801 0.0
H10 H 0.19806 0.38402 0.02515 0.0
O11 O 0.15299 0.29198 0.94901 0.0
H12 H 0.10632 0.63466 0.12135 0.0
H13 H 0.06758 0.5345 0.85224 0.0
H14 H 0.02153 0.28593 0.01244 0.0
H15 H 0.0782 0.47563 0.08705 0.0
H16 H 0.11805 0.45298 0.92494 0.0
O17 O 0.1896 0.15732 0.1971 0.0
H18 H 0.05904 0.07046 0.2066 0.0
H19 H 0.18473 0.9814 0.2255 0.0
H20 H 0.96989 0.36616 0.94096 0.0
H21 H 0.22676 0.54491 0.05496 0.0
H22 H 0.99279 0.49105 0.85982 0.0
H23 H 0.1813 0.67001 0.10552 0.0
O24 O 0.08778 0.17132 0.9973 0.0
H25 H 0.25732 0.01684 0.00069 0.0
H26 H 0.12449 0.91939 0.10225 0.0
H27 H 0.16043 0.80563 0.02699 0.0
H28 H 0.22705 0.85516 0.97503 0.0
H29 H 0.22095 0.12705 0.07791 0.0
H30 H 0.16606 0.87834 0.32017 0.0
H31 H 0.09264 0.86444 0.35606 0.0
O32 O 0.08808 0.08836 0.09216 0.0
C33 C 0.07595 0.2769 0.16615 0.0
C34 C 0.0708 0.96529 0.28229 0.0
C35 C 0.1422 0.91754 0.29436 0.0
N36 N 0.12303 0.03159 0.21003 0.0
C37 C 0.08251 0.02625 0.23011 0.0
C38 C 0.15267 0.97731 0.24106 0.0
C39 C 0.10101 0.9109 0.31482 0.0
C40 C 0.17773 0.43877 0.04583 0.0
N41 N 0.13658 0.41954 0.05506 0.0
C42 C 0.19426 0.52955 0.06304 0.0
C43 C 0.16866 0.60004 0.09117 0.0
C44 C 0.12669 0.58002 0.10037 0.0
C45 C 0.11106 0.48919 0.08151 0.0
C46 C 0.05713 0.48026 0.88734 0.0
C47 C 0.03173 0.34078 0.97769 0.0
C48 C 0.08564 0.43355 0.92853 0.0
N49 N 0.0728 0.36445 0.97279 0.0
C50 C 0.00236 0.38566 0.9371 0.0
C51 C 0.01523 0.45581 0.8916 0.0
C52 C 0.07405 0.10332 0.03423 0.0
C53 C 0.22837 0.99445 0.02332 0.0
C54 C 0.15388 0.94043 0.08095 0.0
C55 C 0.17404 0.87582 0.03823 0.0
C56 C 0.21137 0.9036 0.00891 0.0
N57 N 0.17053 0.02993 0.09432 0.0
C58 C 0.20776 0.05633 0.06736 0.0
Co59 Co 0.3918 0.19148 0.52753 0.0
Co60 Co 0.36398 0.35501 0.64706 0.0
O61 O 0.34926 0.25469 0.58211 0.0
C62 C 0.31667 0.22834 0.4414 0.0
O63 O 0.29797 0.26571 0.49284 0.0
C64 C 0.30342 0.2399 0.7272 0.0
O65 O 0.32646 0.16254 0.71639 0.0
O66 O 0.39685 0.25554 0.69341 0.0
O67 O 0.43117 0.19209 0.60647 0.0
H68 H 0.45949 0.52192 0.8068 0.0
H69 H 0.3094 0.08652 0.53232 0.0
O70 O 0.35309 0.19151 0.44679 0.0
H71 H 0.41268 0.85456 0.61876 0.0
H72 H 0.44523 0.96675 0.35059 0.0
H73 H 0.48318 0.21578 0.51505 0.0
H74 H 0.43393 0.01755 0.58131 0.0
H75 H 0.39203 0.03863 0.42292 0.0
O76 O 0.31305 0.32092 0.70023 0.0
H77 H 0.44163 0.40825 0.71751 0.0
H78 H 0.3167 0.50635 0.72105 0.0
H79 H 0.53781 0.14275 0.44536 0.0
H80 H 0.28726 0.92182 0.56675 0.0
H81 H 0.51882 0.01766 0.3617 0.0
H82 H 0.33861 0.80595 0.61197 0.0
O83 O 0.4127 0.32155 0.49931 0.0
H84 H 0.24211 0.47972 0.5174 0.0
H85 H 0.3826 0.55596 0.59779 0.0
H86 H 0.34671 0.67267 0.52505 0.0
H87 H 0.27598 0.63429 0.48401 0.0
H88 H 0.27839 0.36714 0.59291 0.0
H89 H 0.33329 0.62195 0.8102 0.0
H90 H 0.40501 0.63126 0.8538 0.0
O91 O 0.41564 0.39323 0.59821 0.0
C92 C 0.42735 0.20835 0.66893 0.0
C93 C 0.42811 0.51974 0.78822 0.0
C94 C 0.35728 0.57556 0.79017 0.0
N95 N 0.3781 0.45032 0.71416 0.0
C96 C 0.41777 0.45507 0.73756 0.0
C97 C 0.34803 0.50963 0.73974 0.0
C98 C 0.39759 0.58051 0.81461 0.0
C99 C 0.33225 0.03613 0.55062 0.0
N100 N 0.3729 0.06282 0.55515 0.0
C101 C 0.31945 0.94306 0.57053 0.0
C102 C 0.34833 0.87762 0.59576 0.0
C103 C 0.38978 0.90498 0.5998 0.0
C104 C 0.40154 0.99799 0.57892 0.0
C105 C 0.45399 0.02052 0.38693 0.0
C106 C 0.47481 0.16056 0.47953 0.0
C107 C 0.42388 0.06224 0.42772 0.0
N108 N 0.43444 0.13162 0.47316 0.0
C109 C 0.50586 0.11968 0.43998 0.0
C110 C 0.49525 0.04937 0.3932 0.0
C111 C 0.42748 0.38522 0.53846 0.0
C112 C 0.27281 0.49739 0.53536 0.0
C113 C 0.35175 0.53877 0.58046 0.0
C114 C 0.33153 0.60552 0.53945 0.0
C115 C 0.29189 0.58408 0.5164 0.0
N116 N 0.33307 0.45285 0.59791 0.0
C117 C 0.29361 0.43343 0.57765 0.0
Co118 Co 0.61349 0.18156 0.97161 0.0
Co119 Co 0.63863 0.35425 0.85517 0.0
O120 O 0.65416 0.25073 0.91689 0.0
C121 C 0.67226 0.26536 0.06831 0.0
O122 O 0.6621 0.34993 0.0428 0.0
C123 C 0.69716 0.24357 0.76594 0.0
O124 O 0.67629 0.16312 0.77778 0.0
O125 O 0.60208 0.2601 0.80807 0.0
O126 O 0.57331 0.17968 0.89489 0.0
H127 H 0.53884 0.54779 0.71599 0.0
H128 H 0.69745 0.08866 0.9783 0.0
O129 O 0.65398 0.18817 0.04798 0.0
H130 H 0.60712 0.8468 0.87003 0.0
H131 H 0.57287 0.93255 0.14256 0.0
H132 H 0.52227 0.19025 0.99402 0.0
H133 H 0.57902 0.00454 0.90656 0.0
H134 H 0.62141 0.02297 0.07116 0.0
O135 O 0.68733 0.32219 0.79589 0.0
H136 H 0.55944 0.41598 0.79207 0.0
H137 H 0.68437 0.51347 0.78632 0.0
H138 H 0.47205 0.09898 0.06222 0.0
H139 H 0.72656 0.93062 0.94362 0.0
H140 H 0.49734 0.96902 0.1376 0.0
H141 H 0.68155 0.80885 0.88835 0.0
O142 O 0.58688 0.30542 0.00179 0.0
H143 H 0.76413 0.44048 0.98848 0.0
H144 H 0.62838 0.55696 0.90918 0.0
H145 H 0.66918 0.65977 0.98492 0.0
H146 H 0.73718 0.60009 0.02652 0.0
H147 H 0.72304 0.34233 0.9097 0.0
H148 H 0.66572 0.64196 0.70732 0.0
H149 H 0.59231 0.66141 0.67204 0.0
O150 O 0.58969 0.3934 0.90928 0.0
C151 C 0.5737 0.20655 0.83387 0.0
C152 C 0.57098 0.54015 0.73061 0.0
C153 C 0.6421 0.5932 0.72563 0.0
N154 N 0.62328 0.45614 0.7931 0.0
C155 C 0.58287 0.46544 0.77362 0.0
C156 C 0.65266 0.51916 0.76979 0.0
C157 C 0.60094 0.6039 0.70603 0.0
C158 C 0.67768 0.03687 0.95354 0.0
N159 N 0.63697 0.05819 0.94212 0.0
C160 C 0.69435 0.94727 0.93409 0.0
C161 C 0.66903 0.87871 0.9033 0.0
C162 C 0.62734 0.90006 0.89289 0.0
C163 C 0.61172 0.99034 0.91302 0.0
C164 C 0.56129 0.98801 0.10938 0.0
C165 C 0.53323 0.13244 0.02518 0.0
C166 C 0.58871 0.03993 0.069 0.0
N167 N 0.5745 0.11074 0.02717 0.0
C168 C 0.50478 0.08153 0.06437 0.0
C169 C 0.51899 0.00867 0.10668 0.0
C170 C 0.57431 0.37587 0.9659 0.0
C171 C 0.73448 0.46689 0.97093 0.0
C172 C 0.65832 0.53173 0.92569 0.0
C173 C 0.68122 0.59004 0.96896 0.0
C174 C 0.71931 0.55662 0.99229 0.0
N175 N 0.67329 0.44348 0.90522 0.0
C176 C 0.71128 0.41198 0.92603 0.0
Co177 Co 0.88676 0.32993 0.46615 0.0
Co178 Co 0.86479 0.15149 0.3528 0.0
O179 O 0.8477 0.25414 0.41366 0.0
C180 C 0.82959 0.24211 0.56518 0.0
O181 O 0.84192 0.15763 0.54195 0.0
C182 C 0.80313 0.25958 0.26986 0.0
O183 O 0.82233 0.34114 0.28485 0.0
O184 O 0.89954 0.24766 0.30413 0.0
O185 O 0.92734 0.33308 0.38906 0.0
H186 H 0.96609 0.96869 0.21025 0.0
H187 H 0.80086 0.41236 0.47194 0.0
O188 O 0.84617 0.32055 0.54297 0.0
H189 H 0.88644 0.66396 0.36348 0.0
H190 H 0.92128 0.58465 0.63679 0.0
H191 H 0.97829 0.34245 0.48218 0.0
H192 H 0.91732 0.50811 0.39787 0.0
H193 H 0.87486 0.4857 0.56714 0.0
O194 O 0.81546 0.17945 0.29493 0.0
H195 H 0.9446 0.09424 0.28998 0.0
H196 H 0.82047 0.99105 0.28314 0.0
H197 H 0.02607 0.44052 0.54905 0.0
H198 H 0.76944 0.56959 0.44162 0.0
H199 H 0.9977 0.56261 0.62794 0.0
H200 H 0.8119 0.69605 0.38578 0.0
O201 O 0.91587 0.21029 0.49739 0.0
H202 H 0.74102 0.05239 0.48721 0.0
H203 H 0.87902 0.95104 0.40692 0.0
H204 H 0.83956 0.84203 0.48096 0.0
H205 H 0.77026 0.8939 0.52245 0.0
H206 H 0.78047 0.15645 0.40989 0.0
H207 H 0.8404 0.86541 0.20231 0.0
H208 H 0.91365 0.85209 0.16585 0.0
O209 O 0.91465 0.1176 0.40662 0.0
C210 C 0.92777 0.30238 0.32883 0.0
C211 C 0.934 0.97308 0.22561 0.0
C212 C 0.86348 0.91522 0.22118 0.0
N213 N 0.88118 0.05064 0.29079 0.0
C214 C 0.92162 0.04432 0.27084 0.0
C215 C 0.85228 0.98718 0.26657 0.0
C216 C 0.90464 0.90808 0.20069 0.0
C217 C 0.81969 0.46656 0.44754 0.0
N218 N 0.86066 0.44926 0.43515 0.0
C219 C 0.80162 0.55552 0.43022 0.0
C220 C 0.82555 0.62674 0.39925 0.0
C221 C 0.86732 0.6087 0.38664 0.0
C222 C 0.8845 0.51942 0.40545 0.0
C223 C 0.93416 0.53196 0.60263 0.0
C224 C 0.96579 0.39634 0.5149 0.0
C225 C 0.90798 0.47515 0.56329 0.0
N226 N 0.92395 0.40795 0.5202 0.0
C227 C 0.99296 0.45157 0.55334 0.0
C228 C 0.97698 0.51982 0.59756 0.0
C229 C 0.92994 0.14006 0.46254 0.0
C230 C 0.77106 0.02903 0.46916 0.0
C231 C 0.84845 0.97269 0.42343 0.0
C232 C 0.82638 0.91098 0.46574 0.0
C233 C 0.78757 0.93997 0.48905 0.0
N234 N 0.8319 0.05972 0.40373 0.0
C235 C 0.79342 0.08736 0.4251 0.0
Co236 Co 0.85846 0.92201 0.83668 0.0
Co237 Co 0.87407 0.73023 0.94325 0.0
O238 O 0.8365 0.82237 0.89709 0.0
C239 C 0.77983 0.84674 0.7754 0.0
O240 O 0.76694 0.8124 0.83236 0.0
C241 C 0.80686 0.78015 0.04098 0.0
O242 O 0.79915 0.86221 0.00991 0.0
O243 O 0.90393 0.8421 0.98414 0.0
O244 O 0.90841 0.93769 0.89445 0.0
H245 H 0.01288 0.61415 0.02385 0.0
H246 H 0.76925 0.99662 0.84764 0.0
O247 O 0.81183 0.90131 0.7717 0.0
H248 H 0.85266 0.22599 0.97844 0.0
H249 H 0.8575 0.23481 0.70652 0.0
H250 H 0.94133 0.95337 0.77626 0.0
H251 H 0.88565 0.08894 0.92465 0.0
H252 H 0.82532 0.09958 0.76768 0.0
O253 O 0.83507 0.72263 0.02056 0.0
H254 H 0.96531 0.71811 0.96022 0.0
H255 H 0.8621 0.55247 0.02751 0.0
H256 H 0.97233 0.07785 0.70439 0.0
H257 H 0.73732 0.1438 0.8909 0.0
H258 H 0.93083 0.22408 0.67269 0.0
H259 H 0.77775 0.25584 0.96218 0.0
O260 O 0.88738 0.81882 0.78687 0.0
H261 H 0.75167 0.55787 0.8442 0.0
H262 H 0.90272 0.54649 0.87919 0.0
H263 H 0.86879 0.41508 0.81621 0.0
H264 H 0.79279 0.42024 0.7983 0.0
H265 H 0.78612 0.68063 0.91463 0.0
H266 H 0.90875 0.44727 0.09283 0.0
H267 H 0.98472 0.47979 0.09194 0.0
O268 O 0.91464 0.7319 0.86889 0.0
C269 C 0.92114 0.91092 0.95145 0.0
C270 C 0.97983 0.60008 0.02491 0.0
C271 C 0.92136 0.50656 0.06371 0.0
N272 N 0.91087 0.64196 0.99025 0.0
C273 C 0.9527 0.6583 0.98856 0.0
C274 C 0.89511 0.56654 0.02676 0.0
C275 C 0.96395 0.52434 0.06309 0.0
C276 C 0.78811 0.0437 0.87716 0.0
N277 N 0.82968 0.02703 0.88551 0.0
C278 C 0.76927 0.12763 0.90244 0.0
C279 C 0.79214 0.19187 0.94099 0.0
C280 C 0.83409 0.17474 0.95048 0.0
C281 C 0.85253 0.09358 0.92096 0.0
C282 C 0.87558 0.1714 0.71948 0.0
C283 C 0.92229 0.01296 0.75915 0.0
C284 C 0.85782 0.0954 0.75563 0.0
N285 N 0.8815 0.01904 0.7771 0.0
C286 C 0.94034 0.08458 0.71944 0.0
C287 C 0.91701 0.16554 0.70091 0.0
C288 C 0.91382 0.75848 0.80873 0.0
C289 C 0.78469 0.55345 0.85311 0.0
C290 C 0.86938 0.54772 0.87353 0.0
C291 C 0.85043 0.4736 0.83711 0.0
C292 C 0.80779 0.47689 0.8267 0.0
N293 N 0.84633 0.62138 0.90074 0.0
C294 C 0.80439 0.62352 0.89221 0.0
Co295 Co 0.63499 0.58597 0.3327 0.0
Co296 Co 0.62012 0.76665 0.44704 0.0
O297 O 0.65794 0.67985 0.39679 0.0
C298 C 0.71472 0.66184 0.27418 0.0
O299 O 0.72625 0.69815 0.33124 0.0
C300 C 0.69168 0.72444 0.5392 0.0
O301 O 0.70368 0.64994 0.50321 0.0
O302 O 0.59356 0.64894 0.48527 0.0
O303 O 0.58448 0.56722 0.39 0.0
H304 H 0.48079 0.85873 0.53906 0.0
H305 H 0.72382 0.51832 0.35465 0.0
O306 O 0.68254 0.608 0.26927 0.0
H307 H 0.63565 0.25765 0.44509 0.0
H308 H 0.63449 0.2846 0.19137 0.0
H309 H 0.55192 0.56302 0.26984 0.0
H310 H 0.60437 0.40468 0.39986 0.0
H311 H 0.66719 0.41414 0.25736 0.0
O312 O 0.65984 0.77372 0.52316 0.0
H313 H 0.52941 0.76437 0.47061 0.0
H314 H 0.62968 0.942 0.53457 0.0
H315 H 0.52053 0.44423 0.19297 0.0
H316 H 0.75536 0.3652 0.39037 0.0
H317 H 0.56143 0.3001 0.15705 0.0
H318 H 0.71188 0.23544 0.43967 0.0
O319 O 0.60767 0.69542 0.28741 0.0
H320 H 0.73825 0.96005 0.35094 0.0
H321 H 0.5876 0.95219 0.39085 0.0
H322 H 0.61838 0.09317 0.33336 0.0
H323 H 0.69427 0.09781 0.31302 0.0
H324 H 0.70681 0.82667 0.41612 0.0
H325 H 0.58195 0.03775 0.60469 0.0
H326 H 0.50705 0.99405 0.6082 0.0
O327 O 0.57834 0.76699 0.37419 0.0
C328 C 0.57508 0.58499 0.45022 0.0
C329 C 0.5134 0.87764 0.53831 0.0
C330 C 0.5702 0.97802 0.57516 0.0
N331 N 0.58242 0.84749 0.49837 0.0
C332 C 0.54113 0.82467 0.49936 0.0
C333 C 0.59708 0.92342 0.53546 0.0
C334 C 0.52817 0.95413 0.57685 0.0
C335 C 0.70407 0.46355 0.37541 0.0
N336 N 0.66196 0.47537 0.37723 0.0
C337 C 0.72246 0.37659 0.39645 0.0
C338 C 0.69796 0.3029 0.42302 0.0
C339 C 0.65526 0.31549 0.42625 0.0
C340 C 0.63772 0.40139 0.40199 0.0
C341 C 0.61682 0.34787 0.2058 0.0
C342 C 0.57073 0.50446 0.25057 0.0
C343 C 0.63481 0.42054 0.24461 0.0
N344 N 0.61137 0.49565 0.26881 0.0
C345 C 0.55252 0.43641 0.20805 0.0
C346 C 0.57553 0.35627 0.18707 0.0
C347 C 0.58013 0.75021 0.31242 0.0
C348 C 0.70533 0.96039 0.3614 0.0
C349 C 0.62082 0.95494 0.38405 0.0
C350 C 0.63802 0.03462 0.35086 0.0
C351 C 0.68059 0.03702 0.3393 0.0
N352 N 0.64543 0.88111 0.4071 0.0
C353 C 0.6873 0.88416 0.39727 0.0
Co354 Co 0.36753 0.60093 0.16889 0.0
Co355 Co 0.37811 0.76796 0.04309 0.0
O356 O 0.34335 0.6857 0.10162 0.0
C357 C 0.29134 0.69245 0.22952 0.0
O358 O 0.2781 0.72003 0.17125 0.0
C359 C 0.30757 0.69673 0.95912 0.0
O360 O 0.30761 0.6136 0.99137 0.0
O361 O 0.40539 0.64736 0.00791 0.0
O362 O 0.41329 0.56706 0.10482 0.0
H363 H 0.50964 0.88824 0.93419 0.0
H364 H 0.27566 0.54645 0.15404 0.0
O365 O 0.32362 0.63914 0.23572 0.0
H366 H 0.35458 0.25347 0.09282 0.0
H367 H 0.36659 0.34941 0.3503 0.0
H368 H 0.45416 0.566 0.21464 0.0
H369 H 0.39069 0.40385 0.12188 0.0
H370 H 0.33497 0.4597 0.26817 0.0
O371 O 0.33326 0.76373 0.97419 0.0
H372 H 0.46805 0.78461 0.00821 0.0
H373 H 0.35815 0.93032 0.95032 0.0
H374 H 0.48643 0.46009 0.2992 0.0
H375 H 0.23909 0.39354 0.13472 0.0
H376 H 0.4428 0.34743 0.36478 0.0
H377 H 0.27786 0.24622 0.10092 0.0
O378 O 0.40021 0.71224 0.20259 0.0
H379 H 0.26407 0.96291 0.14889 0.0
H380 H 0.4125 0.95581 0.09162 0.0
H381 H 0.38453 0.09548 0.15364 0.0
H382 H 0.30988 0.09931 0.18325 0.0
H383 H 0.29234 0.83119 0.07811 0.0
H384 H 0.39806 0.03302 0.87321 0.0
H385 H 0.47454 0.01249 0.86487 0.0
O386 O 0.42419 0.77503 0.10842 0.0
C387 C 0.42307 0.58217 0.04404 0.0
C388 C 0.47632 0.89738 0.93692 0.0
C389 C 0.41376 0.9785 0.90268 0.0
N390 N 0.41063 0.84918 0.98299 0.0
C391 C 0.45265 0.8388 0.97909 0.0
C392 C 0.39122 0.91906 0.94592 0.0
C393 C 0.45662 0.96725 0.89816 0.0
C394 C 0.29357 0.48403 0.14049 0.0
N395 N 0.3359 0.48766 0.13748 0.0
C396 C 0.27228 0.39697 0.12861 0.0
C397 C 0.29409 0.31385 0.11035 0.0
C398 C 0.33702 0.31799 0.10571 0.0
C399 C 0.35741 0.40509 0.12052 0.0
C400 C 0.38589 0.39687 0.3208 0.0
C401 C 0.43475 0.5191 0.24445 0.0
C402 C 0.36825 0.45971 0.27433 0.0
N403 N 0.3927 0.5186 0.23599 0.0
C404 C 0.4533 0.45851 0.2915 0.0
C405 C 0.42872 0.39573 0.32888 0.0
C406 C 0.42727 0.75937 0.17007 0.0
C407 C 0.29639 0.96346 0.13447 0.0
C408 C 0.37963 0.95831 0.1022 0.0
C409 C 0.36407 0.03736 0.13791 0.0
C410 C 0.32219 0.0393 0.15465 0.0
N411 N 0.35404 0.88435 0.08211 0.0
C412 C 0.31265 0.88806 0.09574 0.0
Co413 Co 0.13342 0.90213 0.66699 0.0
Co414 Co 0.11771 0.73548 0.54262 0.0
O415 O 0.1549 0.80696 0.60363 0.0
C416 C 0.18177 0.77576 0.75891 0.0
O417 O 0.15855 0.70261 0.73938 0.0
C418 C 0.19255 0.78797 0.46076 0.0
O419 O 0.19931 0.86553 0.49727 0.0
O420 O 0.09518 0.86162 0.50703 0.0
O421 O 0.09007 0.94371 0.60276 0.0
H422 H 0.98284 0.65719 0.42825 0.0
H423 H 0.22531 0.9169 0.6555 0.0
O424 O 0.17606 0.86103 0.73508 0.0
H425 H 0.17301 0.23251 0.57583 0.0
H426 H 0.13655 0.20611 0.80664 0.0
H427 H 0.04905 0.94271 0.72071 0.0
H428 H 0.12539 0.09831 0.59896 0.0
H429 H 0.16859 0.06777 0.74801 0.0
O430 O 0.16225 0.73143 0.47338 0.0
H431 H 0.02903 0.74988 0.50212 0.0
H432 H 0.13039 0.56831 0.44992 0.0
H433 H 0.01848 0.06674 0.7936 0.0
H434 H 0.27287 0.05663 0.64765 0.0
H435 H 0.06199 0.20361 0.83357 0.0
H436 H 0.24762 0.21376 0.60314 0.0
O437 O 0.09426 0.80319 0.70199 0.0
H438 H 0.22399 0.51482 0.64597 0.0
H439 H 0.07707 0.55251 0.58638 0.0
H440 H 0.10007 0.40155 0.64125 0.0
H441 H 0.17422 0.3819 0.6714 0.0
H442 H 0.20053 0.66 0.58428 0.0
H443 H 0.08571 0.47526 0.37386 0.0
H444 H 0.01114 0.51822 0.36351 0.0
O445 O 0.07156 0.73562 0.6079 0.0
C446 C 0.07983 0.93045 0.54251 0.0
C447 C 0.01522 0.63731 0.43256 0.0
C448 C 0.07292 0.53522 0.40209 0.0
N449 N 0.08223 0.66429 0.48126 0.0
C450 C 0.04146 0.68939 0.47472 0.0
C451 C 0.09815 0.58874 0.44498 0.0
C452 C 0.03111 0.55946 0.39621 0.0
C453 C 0.21339 0.9867 0.64054 0.0
N454 N 0.17183 0.99977 0.63176 0.0
C455 C 0.24085 0.06467 0.63354 0.0
C456 C 0.22649 0.15341 0.6096 0.0
C457 C 0.18471 0.16381 0.59442 0.0
C458 C 0.15769 0.08624 0.60661 0.0
C459 C 0.11792 0.14501 0.79159 0.0
C460 C 0.06917 0.99658 0.74257 0.0
C461 C 0.13551 0.06771 0.75636 0.0
N462 N 0.1109 0.9968 0.72953 0.0
C463 C 0.05126 0.06841 0.78242 0.0
C464 C 0.07571 0.14454 0.80556 0.0
C465 C 0.06772 0.75472 0.66908 0.0
C466 C 0.19201 0.52086 0.63065 0.0
C467 C 0.10959 0.5429 0.59703 0.0
C468 C 0.12237 0.45772 0.62882 0.0
C469 C 0.16393 0.44684 0.64579 0.0
N470 N 0.13755 0.61391 0.5804 0.0
C471 C 0.17844 0.60334 0.59632 0.0
C472 C 0.25927 0.14731 0.80857 0.0
C473 C 0.26821 0.23505 0.77531 0.0
C474 C 0.22836 0.1422 0.85752 0.0
C475 C 0.205 0.22485 0.87579 0.0
H476 H 0.27661 0.08195 0.79739 0.0
H477 H 0.22298 0.07261 0.88137 0.0
S478 S 0.21414 0.47094 0.80109 0.0
N479 N 0.24942 0.4056 0.7621 0.0
N480 N 0.19186 0.39641 0.8544 0.0
C481 C 0.213 0.31268 0.84208 0.0
C482 C 0.24431 0.31762 0.79181 0.0
C483 C 0.25616 0.15226 0.28874 0.0
C484 C 0.23543 0.23958 0.27132 0.0
C485 C 0.28531 0.14932 0.34068 0.0
C486 C 0.29432 0.2334 0.37754 0.0
H487 H 0.24875 0.08462 0.26377 0.0
H488 H 0.29885 0.07999 0.35454 0.0
S489 S 0.25219 0.4808 0.3499 0.0
N490 N 0.22921 0.41346 0.29309 0.0
N491 N 0.28303 0.40665 0.39083 0.0
C492 C 0.27553 0.32142 0.3588 0.0
C493 C 0.24638 0.32496 0.30572 0.0
C494 C 0.75434 0.34717 0.19272 0.0
C495 C 0.76857 0.25916 0.22047 0.0
C496 C 0.72339 0.34815 0.14379 0.0
C497 C 0.70502 0.26124 0.12048 0.0
H498 H 0.76735 0.4162 0.20849 0.0
H499 H 0.71379 0.41813 0.12426 0.0
S500 S 0.73071 0.011 0.17707 0.0
N501 N 0.76132 0.08242 0.2208 0.0
N502 N 0.70333 0.08457 0.12962 0.0
C503 C 0.71862 0.1728 0.1482 0.0
C504 C 0.75021 0.17174 0.19793 0.0
C505 C 0.74832 0.1572 0.69124 0.0
C506 C 0.7311 0.24482 0.71507 0.0
C507 C 0.77974 0.15718 0.64267 0.0
C508 C 0.79571 0.24482 0.616 0.0
H509 H 0.73767 0.08779 0.71045 0.0
H510 H 0.79192 0.08749 0.62657 0.0
S511 S 0.75912 0.49388 0.65761 0.0
N512 N 0.73083 0.42139 0.70452 0.0
N513 N 0.7903 0.42149 0.61548 0.0
C514 C 0.77839 0.33277 0.63873 0.0
C515 C 0.74613 0.33269 0.68761 0.0
C516 C 0.80217 0.69947 0.1516 0.0
C517 C 0.7827 0.7518 0.10025 0.0
C518 C 0.78011 0.67076 0.20829 0.0
C519 C 0.73749 0.68957 0.21398 0.0
H520 H 0.83495 0.68245 0.1486 0.0
H521 H 0.79633 0.6327 0.24748 0.0
S522 S 0.67128 0.81812 0.09229 0.0
N523 N 0.71806 0.81904 0.05868 0.0
N524 N 0.67622 0.76073 0.16372 0.0
C525 C 0.71738 0.73928 0.16251 0.0
C526 C 0.74009 0.77154 0.10594 0.0
C527 C 0.69466 0.80647 0.6497 0.0
C528 C 0.71514 0.75463 0.59889 0.0
C529 C 0.71564 0.83581 0.70711 0.0
C530 C 0.75823 0.81828 0.71432 0.0
H531 H 0.6618 0.82224 0.64597 0.0
H532 H 0.69857 0.87318 0.74579 0.0
S533 S 0.82717 0.6926 0.59463 0.0
N534 N 0.78097 0.69022 0.55936 0.0
N535 N 0.8207 0.74941 0.666 0.0
C536 C 0.77944 0.76947 0.6634 0.0
C537 C 0.75784 0.73666 0.60594 0.0
C538 C 0.23719 0.67082 0.90884 0.0
C539 C 0.27634 0.71599 0.90672 0.0
C540 C 0.20653 0.69256 0.86174 0.0
C541 C 0.21414 0.75856 0.80978 0.0
H542 H 0.22985 0.61957 0.94774 0.0
H543 H 0.1766 0.65704 0.86598 0.0
S544 S 0.31318 0.88851 0.77777 0.0
N545 N 0.3218 0.82583 0.84606 0.0
N546 N 0.26466 0.86496 0.75723 0.0
C547 C 0.25333 0.80329 0.8066 0.0
C548 C 0.28436 0.78208 0.85492 0.0
C549 C 0.22492 0.69239 0.29209 0.0
C550 C 0.26692 0.7183 0.28826 0.0
C551 C 0.2017 0.71252 0.34915 0.0
C552 C 0.21877 0.76603 0.40219 0.0
H553 H 0.21038 0.653 0.2518 0.0
H554 H 0.16967 0.68864 0.35072 0.0
S555 S 0.32704 0.85681 0.41238 0.0
N556 N 0.32492 0.7999 0.3405 0.0
N557 N 0.2802 0.84706 0.44517 0.0
C558 C 0.26044 0.79571 0.3973 0.0
C559 C 0.28473 0.76999 0.34078 0.0
C560 C 0.00077 0.31944 0.18164 0.0
C561 C 0.0399 0.2996 0.20974 0.0
C562 C 0.96483 0.32641 0.22083 0.0
C563 C 0.96653 0.31342 0.28975 0.0
H564 H 0.99734 0.32388 0.12851 0.0
H565 H 0.93526 0.33801 0.19668 0.0
S566 S 0.06052 0.25258 0.38768 0.0
N567 N 0.07778 0.26615 0.31133 0.0
N568 N 0.01021 0.27328 0.3837 0.0
C569 C 0.00543 0.29409 0.31852 0.0
C570 C 0.04207 0.28851 0.27891 0.0
C571 C 0.50257 0.1681 0.68681 0.0
C572 C 0.46306 0.18845 0.7135 0.0
C573 C 0.5383 0.16906 0.72651 0.0
C574 C 0.53578 0.18993 0.79442 0.0
H575 H 0.50645 0.15792 0.63408 0.0
H576 H 0.56825 0.15737 0.70342 0.0
S577 S 0.44015 0.24747 0.88943 0.0
N578 N 0.42376 0.2255 0.81364 0.0
N579 N 0.49086 0.23269 0.88649 0.0
C580 C 0.49646 0.20732 0.82215 0.0
C581 C 0.4601 0.20492 0.78222 0.0
C582 C 0.02459 0.70224 0.76411 0.0
C583 C 0.02722 0.73776 0.69939 0.0
C584 C 0.98655 0.70001 0.7972 0.0
C585 C 0.95018 0.73597 0.7671 0.0
H586 H 0.05236 0.67994 0.79009 0.0
H587 H 0.98645 0.67615 0.84822 0.0
S588 S 0.941 0.83121 0.59574 0.0
N589 N 0.99062 0.80521 0.60478 0.0
N590 N 0.91891 0.80001 0.66634 0.0
C591 C 0.95218 0.76598 0.70064 0.0
C592 C 0.99086 0.76777 0.66703 0.0
C593 C 0.46887 0.80242 0.26881 0.0
C594 C 0.46742 0.7769 0.2018 0.0
C595 C 0.50647 0.80287 0.30305 0.0
C596 C 0.54371 0.77483 0.27168 0.0
H597 H 0.44045 0.8174 0.2956 0.0
H598 H 0.50565 0.8187 0.35553 0.0
S599 S 0.55618 0.70244 0.09572 0.0
N600 N 0.50619 0.72384 0.1049 0.0
N601 N 0.57697 0.72661 0.16839 0.0
C602 C 0.54287 0.75401 0.20358 0.0
C603 C 0.50462 0.7539 0.16888 0.0
C604 C 0.01359 0.08187 0.95848 0.0
C605 C 0.03667 0.04825 0.01276 0.0
C606 C 0.9761 0.03834 0.94068 0.0
C607 C 0.95964 0.95857 0.97617 0.0
H608 H 0.02405 0.1437 0.92978 0.0
H609 H 0.96007 0.06804 0.89815 0.0
S610 S 0.0099 0.83566 0.11888 0.0
N611 N 0.0417 0.92557 0.09958 0.0
N612 N 0.97079 0.84451 0.06663 0.0
C613 C 0.98267 0.92282 0.03008 0.0
C614 C 0.02123 0.96713 0.04808 0.0
C615 C 0.49933 0.5538 0.44427 0.0
C616 C 0.53753 0.53846 0.47628 0.0
C617 C 0.4633 0.50552 0.46542 0.0
C618 C 0.46472 0.43958 0.51837 0.0
H619 H 0.4974 0.60322 0.40251 0.0
H620 H 0.43425 0.5197 0.44035 0.0
S621 S 0.55776 0.36926 0.61471 0.0
N622 N 0.57508 0.45084 0.56125 0.0
N623 N 0.50736 0.36015 0.60144 0.0
C624 C 0.50268 0.42451 0.55097 0.0
C625 C 0.53923 0.47377 0.5296 0.0
C626 C 0.47483 0.44671 0.05502 0.0
C627 C 0.46011 0.5279 0.01907 0.0
C628 C 0.51189 0.3996 0.03839 0.0
C629 C 0.53698 0.43276 0.98623 0.0
H630 H 0.45801 0.41911 0.09732 0.0
H631 H 0.52057 0.33596 0.06659 0.0
S632 S 0.51528 0.64805 0.87961 0.0
N633 N 0.47451 0.64002 0.92876 0.0
N634 N 0.54572 0.55689 0.90105 0.0
C635 C 0.52333 0.51537 0.95063 0.0
C636 C 0.48464 0.56132 0.96606 0.0
C637 C 0.02036 0.95972 0.46364 0.0
C638 C 0.0442 0.99016 0.51811 0.0
C639 C 0.98306 0.00695 0.44709 0.0
C640 C 0.96813 0.08738 0.48387 0.0
H641 H 0.02987 0.89745 0.43445 0.0
H642 H 0.96581 0.97974 0.405 0.0
S643 S 0.02196 0.20571 0.62505 0.0
N644 N 0.05131 0.11194 0.60545 0.0
N645 N 0.98256 0.20034 0.57341 0.0
C646 C 0.99248 0.12066 0.53677 0.0
C647 C 0.03014 0.07253 0.55389 0.0
loop_
_geom_bond_atom_site_label_1
_geom_bond_atom_site_label_2
_geom_bond_distance
_geom_bond_site_symmetry_2
_ccdc_geom_bond_type
Co0 O2 2.143 . S
Co0 O8 2.074 . S
Co0 O11 2.093 1_554 S
Co0 O24 2.097 . S
Co0 N41 2.151 . S
Co0 N49 2.214 1_554 S
Co1 O2 2.160 . S
Co1 O7 2.058 . S
Co1 O17 2.057 . S
Co1 O32 2.037 . S
Co1 N36 2.145 . S
Co1 N57 2.257 . S
O2 Co0 2.143 . S
O2 Co1 2.160 . S
C3 O4 1.278 1_556 S
C3 O11 1.224 . S
O4 C3 1.278 1_554 S
C5 O6 1.245 . S
C5 O17 1.232 . S
O6 C5 1.245 . S
O7 Co1 2.058 . S
O7 C33 1.269 . S
O8 Co0 2.074 . S
O8 C33 1.257 . S
H9 C34 0.930 . S
H10 C40 0.930 . S
O11 Co0 2.093 1_556 S
O11 C3 1.224 . S
H12 C44 0.929 . S
H13 C46 0.930 . S
H14 C47 0.930 1_554 S
H15 C45 0.929 . S
H16 C48 0.928 . S
O17 Co1 2.057 . S
O17 C5 1.232 . S
H18 C37 0.930 . S
H19 C38 0.929 . S
H20 C50 0.931 . S
H21 C42 0.929 . S
H22 C51 0.930 . S
H23 C43 0.931 . S
O24 Co0 2.097 . S
O24 C52 1.214 . S
H25 C53 0.929 1_545 S
H26 C54 0.929 . S
H27 C55 0.930 . S
H28 C56 0.929 . S
H29 C58 0.930 . S
H30 C35 0.930 . S
H31 C39 0.930 . S
O32 Co1 2.037 . S
O32 C52 1.234 . S
C33 O7 1.269 . S
C33 O8 1.257 . S
C34 H9 0.930 . S
C34 C37 1.385 1_565 S
C34 C39 1.418 . S
C35 H30 0.930 . S
C35 C38 1.404 1_565 S
C35 C39 1.353 . S
N36 Co1 2.145 . S
N36 C37 1.398 . S
N36 C38 1.334 . S
C37 H18 0.930 . S
C37 C34 1.385 1_545 S
C37 N36 1.398 . S
C38 H19 0.929 . S
C38 C35 1.404 1_545 S
C38 N36 1.334 . S
C39 H31 0.930 . S
C39 C34 1.418 . S
C39 C35 1.353 . S
C40 H10 0.930 . S
C40 N41 1.330 . S
C40 C42 1.446 . S
N41 Co0 2.151 . S
N41 C40 1.330 . S
N41 C45 1.418 . S
C42 H21 0.929 . S
C42 C40 1.446 . S
C42 C43 1.332 . S
C43 H23 0.931 . S
C43 C42 1.332 . S
C43 C44 1.267 . S
C44 H12 0.929 . S
C44 C43 1.267 . S
C44 C45 1.251 . S
C45 H15 0.929 . S
C45 N41 1.418 . S
C45 C44 1.251 . S
C46 H13 0.930 . S
C46 C48 1.406 . S
C46 C51 1.261 1_455 S
C47 H14 0.930 1_556 S
C47 N49 1.325 . S
C47 C50 1.357 1_455 S
C48 H16 0.928 . S
C48 C46 1.406 . S
C48 N49 1.261 . S
N49 Co0 2.214 1_556 S
N49 C47 1.325 . S
N49 C48 1.261 . S
C50 H20 0.931 . S
C50 C47 1.357 1_655 S
C50 C51 1.312 . S
C51 H22 0.930 . S
C51 C46 1.261 1_655 S
C51 C50 1.312 . S
C52 O24 1.214 . S
C52 O32 1.234 . S
C53 H25 0.929 1_565 S
C53 C56 1.391 . S
C53 C58 1.391 1_565 S
C54 H26 0.929 . S
C54 C55 1.390 . S
C54 N57 1.391 1_565 S
C55 H27 0.930 . S
C55 C54 1.390 . S
C55 C56 1.392 . S
C56 H28 0.929 . S
C56 C53 1.391 . S
C56 C55 1.392 . S
N57 Co1 2.257 . S
N57 C54 1.391 1_545 S
N57 C58 1.388 . S
C58 H29 0.930 . S
C58 C53 1.391 1_545 S
C58 N57 1.388 . S
Co59 O61 2.143 . S
Co59 O67 2.074 . S
Co59 O70 2.093 . S
Co59 O83 2.097 . S
Co59 N100 2.151 . S
Co59 N108 2.214 . S
Co60 O61 2.160 . S
Co60 O66 2.058 . S
Co60 O76 2.057 . S
Co60 O91 2.037 . S
Co60 N95 2.145 . S
Co60 N116 2.257 . S
O61 Co59 2.143 . S
O61 Co60 2.160 . S
C62 O63 1.278 . S
C62 O70 1.224 . S
O63 C62 1.278 . S
C64 O65 1.245 . S
C64 O76 1.232 . S
O65 C64 1.245 . S
O66 Co60 2.058 . S
O66 C92 1.269 . S
O67 Co59 2.074 . S
O67 C92 1.257 . S
H68 C93 0.930 . S
H69 C99 0.930 1_545 S
O70 Co59 2.093 . S
O70 C62 1.224 . S
H71 C103 0.929 . S
H72 C105 0.930 1_565 S
H73 C106 0.930 . S
H74 C104 0.929 . S
H75 C107 0.928 . S
O76 Co60 2.057 . S
O76 C64 1.232 . S
H77 C96 0.929 . S
H78 C97 0.929 . S
H79 C109 0.931 . S
H80 C101 0.929 . S
H81 C110 0.930 . S
H82 C102 0.931 . S
O83 Co59 2.097 . S
O83 C111 1.214 . S
H84 C112 0.929 . S
H85 C113 0.929 . S
H86 C114 0.930 . S
H87 C115 0.929 . S
H88 C117 0.930 . S
H89 C94 0.930 . S
H90 C98 0.930 . S
O91 Co60 2.037 . S
O91 C111 1.234 . S
C92 O66 1.269 . S
C92 O67 1.257 . S
C93 H68 0.930 . S
C93 C96 1.388 . S
C93 C98 1.418 . S
C94 H89 0.930 . S
C94 C97 1.404 . S
C94 C98 1.353 . S
N95 Co60 2.145 . S
N95 C96 1.397 . S
N95 C97 1.334 . S
C96 H77 0.929 . S
C96 C93 1.388 . S
C96 N95 1.397 . S
C97 H78 0.929 . S
C97 C94 1.404 . S
C97 N95 1.334 . S
C98 H90 0.930 . S
C98 C93 1.418 . S
C98 C94 1.353 . S
C99 H69 0.930 1_565 S
C99 N100 1.330 1_565 S
C99 C101 1.446 . S
N100 Co59 2.151 . S
N100 C99 1.330 1_545 S
N100 C104 1.418 1_545 S
C101 H80 0.929 . S
C101 C99 1.446 . S
C101 C102 1.332 . S
C102 H82 0.931 . S
C102 C101 1.332 . S
C102 C103 1.267 . S
C103 H71 0.929 . S
C103 C102 1.267 . S
C103 C104 1.251 . S
C104 H74 0.929 . S
C104 N100 1.418 1_565 S
C104 C103 1.251 . S
C105 H72 0.930 1_545 S
C105 C107 1.406 . S
C105 C110 1.261 . S
C106 H73 0.930 . S
C106 N108 1.325 . S
C106 C109 1.357 . S
C107 H75 0.928 . S
C107 C105 1.406 . S
C107 N108 1.261 . S
N108 Co59 2.214 . S
N108 C106 1.325 . S
N108 C107 1.261 . S
C109 H79 0.931 . S
C109 C106 1.357 . S
C109 C110 1.312 . S
C110 H81 0.930 . S
C110 C105 1.261 . S
C110 C109 1.312 . S
C111 O83 1.214 . S
C111 O91 1.234 . S
C112 H84 0.929 . S
C112 C115 1.391 . S
C112 C117 1.391 . S
C113 H85 0.929 . S
C113 C114 1.390 . S
C113 N116 1.391 . S
C114 H86 0.930 . S
C114 C113 1.390 . S
C114 C115 1.392 . S
C115 H87 0.929 . S
C115 C112 1.391 . S
C115 C114 1.392 . S
N116 Co60 2.257 . S
N116 C113 1.391 . S
N116 C117 1.388 . S
C117 H88 0.930 . S
C117 C112 1.391 . S
C117 N116 1.388 . S
Co118 O120 2.143 . S
Co118 O126 2.074 . S
Co118 O129 2.093 1_556 S
Co118 O142 2.097 . S
Co118 N159 2.151 . S
Co118 N167 2.214 1_556 S
Co119 O120 2.160 . S
Co119 O125 2.058 . S
Co119 O135 2.057 . S
Co119 O150 2.037 . S
Co119 N154 2.145 . S
Co119 N175 2.257 . S
O120 Co118 2.143 . S
O120 Co119 2.160 . S
C121 O122 1.278 1_554 S
C121 O129 1.224 . S
O122 C121 1.278 1_556 S
C123 O124 1.245 . S
C123 O135 1.232 . S
O124 C123 1.245 . S
O125 Co119 2.058 . S
O125 C151 1.269 . S
O126 Co118 2.074 . S
O126 C151 1.257 . S
H127 C152 0.930 . S
H128 C158 0.930 1_545 S
O129 Co118 2.093 1_554 S
O129 C121 1.224 . S
H130 C162 0.929 . S
H131 C164 0.930 1_565 S
H132 C165 0.930 1_556 S
H133 C163 0.929 . S
H134 C166 0.928 . S
O135 Co119 2.057 . S
O135 C123 1.232 . S
H136 C155 0.929 . S
H137 C156 0.929 . S
H138 C168 0.931 . S
H139 C160 0.929 . S
H140 C169 0.930 . S
H141 C161 0.931 . S
O142 Co118 2.097 . S
O142 C170 1.214 . S
H143 C171 0.929 . S
H144 C172 0.929 . S
H145 C173 0.930 . S
H146 C174 0.929 . S
H147 C176 0.930 . S
H148 C153 0.930 . S
H149 C157 0.930 . S
O150 Co119 2.037 . S
O150 C170 1.234 . S
C151 O125 1.269 . S
C151 O126 1.257 . S
C152 H127 0.930 . S
C152 C155 1.388 . S
C152 C157 1.418 . S
C153 H148 0.930 . S
C153 C156 1.404 . S
C153 C157 1.353 . S
N154 Co119 2.145 . S
N154 C155 1.397 . S
N154 C156 1.334 . S
C155 H136 0.929 . S
C155 C152 1.388 . S
C155 N154 1.397 . S
C156 H137 0.929 . S
C156 C153 1.404 . S
C156 N154 1.334 . S
C157 H149 0.930 . S
C157 C152 1.418 . S
C157 C153 1.353 . S
C158 H128 0.930 1_565 S
C158 N159 1.330 1_565 S
C158 C160 1.446 . S
N159 Co118 2.151 . S
N159 C158 1.330 1_545 S
N159 C163 1.418 1_545 S
C160 H139 0.929 . S
C160 C158 1.446 . S
C160 C161 1.332 . S
C161 H141 0.931 . S
C161 C160 1.332 . S
C161 C162 1.267 . S
C162 H130 0.929 . S
C162 C161 1.267 . S
C162 C163 1.251 . S
C163 H133 0.929 . S
C163 N159 1.418 1_565 S
C163 C162 1.251 . S
C164 H131 0.930 1_545 S
C164 C166 1.406 . S
C164 C169 1.261 . S
C165 H132 0.930 1_554 S
C165 N167 1.325 . S
C165 C168 1.357 . S
C166 H134 0.928 . S
C166 C164 1.406 . S
C166 N167 1.261 . S
N167 Co118 2.214 1_554 S
N167 C165 1.325 . S
N167 C166 1.261 . S
C168 H138 0.931 . S
C168 C165 1.357 . S
C168 C169 1.312 . S
C169 H140 0.930 . S
C169 C164 1.261 . S
C169 C168 1.312 . S
C170 O142 1.214 . S
C170 O150 1.234 . S
C171 H143 0.929 . S
C171 C174 1.391 . S
C171 C176 1.391 . S
C172 H144 0.929 . S
C172 C173 1.390 . S
C172 N175 1.391 . S
C173 H145 0.930 . S
C173 C172 1.390 . S
C173 C174 1.392 . S
C174 H146 0.929 . S
C174 C171 1.391 . S
C174 C173 1.392 . S
N175 Co119 2.257 . S
N175 C172 1.391 . S
N175 C176 1.388 . S
C176 H147 0.930 . S
C176 C171 1.391 . S
C176 N175 1.388 . S
Co177 O179 2.143 . S
Co177 O185 2.074 . S
Co177 O188 2.093 . S
Co177 O201 2.097 . S
Co177 N218 2.151 . S
Co177 N226 2.214 . S
Co178 O179 2.160 . S
Co178 O184 2.058 . S
Co178 O194 2.057 . S
Co178 O209 2.037 . S
Co178 N213 2.145 . S
Co178 N234 2.257 . S
O179 Co177 2.143 . S
O179 Co178 2.160 . S
C180 O181 1.278 . S
C180 O188 1.224 . S
O181 C180 1.278 . S
C182 O183 1.245 . S
C182 O194 1.232 . S
O183 C182 1.245 . S
O184 Co178 2.058 . S
O184 C210 1.269 . S
O185 Co177 2.074 . S
O185 C210 1.257 . S
H186 C211 0.930 . S
H187 C217 0.930 . S
O188 Co177 2.093 . S
O188 C180 1.224 . S
H189 C221 0.929 . S
H190 C223 0.930 . S
H191 C224 0.930 . S
H192 C222 0.929 . S
H193 C225 0.928 . S
O194 Co178 2.057 . S
O194 C182 1.232 . S
H195 C214 0.930 . S
H196 C215 0.929 . S
H197 C227 0.931 . S
H198 C219 0.929 . S
H199 C228 0.930 . S
H200 C220 0.931 . S
O201 Co177 2.097 . S
O201 C229 1.214 . S
H202 C230 0.929 1_545 S
H203 C231 0.929 . S
H204 C232 0.930 . S
H205 C233 0.929 . S
H206 C235 0.930 . S
H207 C212 0.930 . S
H208 C216 0.930 . S
O209 Co178 2.037 . S
O209 C229 1.234 . S
C210 O184 1.269 . S
C210 O185 1.257 . S
C211 H186 0.930 . S
C211 C214 1.386 1_565 S
C211 C216 1.418 . S
C212 H207 0.930 . S
C212 C215 1.404 1_565 S
C212 C216 1.353 . S
N213 Co178 2.145 . S
N213 C214 1.398 . S
N213 C215 1.334 . S
C214 H195 0.930 . S
C214 C211 1.386 1_545 S
C214 N213 1.398 . S
C215 H196 0.929 . S
C215 C212 1.404 1_545 S
C215 N213 1.334 . S
C216 H208 0.930 . S
C216 C211 1.418 . S
C216 C212 1.353 . S
C217 H187 0.930 . S
C217 N218 1.330 . S
C217 C219 1.446 . S
N218 Co177 2.151 . S
N218 C217 1.330 . S
N218 C222 1.418 . S
C219 H198 0.929 . S
C219 C217 1.446 . S
C219 C220 1.332 . S
C220 H200 0.931 . S
C220 C219 1.332 . S
C220 C221 1.267 . S
C221 H189 0.929 . S
C221 C220 1.267 . S
C221 C222 1.251 . S
C222 H192 0.929 . S
C222 N218 1.418 . S
C222 C221 1.251 . S
C223 H190 0.930 . S
C223 C225 1.406 . S
C223 C228 1.261 1_655 S
C224 H191 0.930 . S
C224 N226 1.325 . S
C224 C227 1.357 1_655 S
C225 H193 0.928 . S
C225 C223 1.406 . S
C225 N226 1.261 . S
N226 Co177 2.214 . S
N226 C224 1.325 . S
N226 C225 1.261 . S
C227 H197 0.931 . S
C227 C224 1.357 1_455 S
C227 C228 1.312 . S
C228 H199 0.930 . S
C228 C223 1.261 1_455 S
C228 C227 1.312 . S
C229 O201 1.214 . S
C229 O209 1.234 . S
C230 H202 0.929 1_565 S
C230 C233 1.391 . S
C230 C235 1.391 1_565 S
C231 H203 0.929 . S
C231 C232 1.390 . S
C231 N234 1.391 1_565 S
C232 H204 0.930 . S
C232 C231 1.390 . S
C232 C233 1.392 . S
C233 H205 0.929 . S
C233 C230 1.391 . S
C233 C232 1.392 . S
N234 Co178 2.257 . S
N234 C231 1.391 1_545 S
N234 C235 1.388 . S
C235 H206 0.930 . S
C235 C230 1.391 1_545 S
C235 N234 1.388 . S
Co236 O238 2.143 . S
Co236 O244 2.074 . S
Co236 O247 2.093 . S
Co236 O260 2.097 . S
Co236 N277 2.151 . S
Co236 N285 2.214 . S
Co237 O238 2.160 . S
Co237 O243 2.058 . S
Co237 O253 2.057 1_556 S
Co237 O268 2.037 . S
Co237 N272 2.145 1_556 S
Co237 N293 2.257 . S
O238 Co236 2.143 . S
O238 Co237 2.160 . S
C239 O240 1.278 . S
C239 O247 1.224 . S
O240 C239 1.278 . S
C241 O242 1.245 1_554 S
C241 O253 1.232 . S
O242 C241 1.245 1_556 S
O243 Co237 2.058 . S
O243 C269 1.269 . S
O244 Co236 2.074 . S
O244 C269 1.257 . S
H245 C270 0.930 . S
H246 C276 0.930 . S
O247 Co236 2.093 . S
O247 C239 1.224 . S
H248 C280 0.929 . S
H249 C282 0.930 . S
H250 C283 0.930 . S
H251 C281 0.929 . S
H252 C284 0.928 . S
O253 Co237 2.057 1_554 S
O253 C241 1.232 . S
H254 C273 0.929 1_556 S
H255 C274 0.929 . S
H256 C286 0.931 1_455 S
H257 C278 0.929 . S
H258 C287 0.930 . S
H259 C279 0.931 . S
O260 Co236 2.097 . S
O260 C288 1.214 . S
H261 C289 0.929 . S
H262 C290 0.929 . S
H263 C291 0.930 . S
H264 C292 0.929 . S
H265 C294 0.930 . S
H266 C271 0.930 . S
H267 C275 0.917 1_455 S
O268 Co237 2.037 . S
O268 C288 1.234 . S
C269 O243 1.269 . S
C269 O244 1.257 . S
C270 H245 0.930 . S
C270 C273 1.388 1_455 S
C270 C275 1.418 1_455 S
C271 H266 0.930 . S
C271 C274 1.404 . S
C271 C275 1.353 . S
N272 Co237 2.145 1_554 S
N272 C273 1.397 . S
N272 C274 1.334 . S
C273 H254 0.929 1_554 S
C273 C270 1.388 1_655 S
C273 N272 1.397 . S
C274 H255 0.929 . S
C274 C271 1.404 . S
C274 N272 1.334 . S
C275 H267 0.917 1_655 S
C275 C270 1.418 1_655 S
C275 C271 1.353 . S
C276 H246 0.930 . S
C276 N277 1.330 . S
C276 C278 1.446 1_565 S
N277 Co236 2.151 . S
N277 C276 1.330 . S
N277 C281 1.418 1_565 S
C278 H257 0.929 . S
C278 C276 1.446 1_545 S
C278 C279 1.332 . S
C279 H259 0.931 . S
C279 C278 1.332 . S
C279 C280 1.267 . S
C280 H248 0.929 . S
C280 C279 1.267 . S
C280 C281 1.251 . S
C281 H251 0.929 . S
C281 N277 1.418 1_545 S
C281 C280 1.251 . S
C282 H249 0.930 . S
C282 C284 1.406 . S
C282 C287 1.261 . S
C283 H250 0.930 . S
C283 N285 1.325 . S
C283 C286 1.357 1_565 S
C284 H252 0.928 . S
C284 C282 1.406 . S
C284 N285 1.261 1_545 S
N285 Co236 2.214 . S
N285 C283 1.325 . S
N285 C284 1.261 1_565 S
C286 H256 0.931 1_655 S
C286 C283 1.357 1_545 S
C286 C287 1.312 . S
C287 H258 0.930 . S
C287 C282 1.261 . S
C287 C286 1.312 . S
C288 O260 1.214 . S
C288 O268 1.234 . S
C289 H261 0.929 . S
C289 C292 1.391 . S
C289 C294 1.391 . S
C290 H262 0.929 . S
C290 C291 1.390 . S
C290 N293 1.391 . S
C291 H263 0.930 . S
C291 C290 1.390 . S
C291 C292 1.392 . S
C292 H264 0.929 . S
C292 C289 1.391 . S
C292 C291 1.392 . S
N293 Co237 2.257 . S
N293 C290 1.391 . S
N293 C294 1.388 . S
C294 H265 0.930 . S
C294 C289 1.391 . S
C294 N293 1.388 . S
Co295 O297 2.143 . S
Co295 O303 2.074 . S
Co295 O306 2.093 . S
Co295 O319 2.097 . S
Co295 N336 2.151 . S
Co295 N344 2.214 . S
Co296 O297 2.160 . S
Co296 O302 2.058 . S
Co296 O312 2.057 . S
Co296 O327 2.037 . S
Co296 N331 2.145 . S
Co296 N352 2.257 . S
O297 Co295 2.143 . S
O297 Co296 2.160 . S
C298 O299 1.278 . S
C298 O306 1.224 . S
O299 C298 1.278 . S
C300 O301 1.245 . S
C300 O312 1.232 . S
O301 C300 1.245 . S
O302 Co296 2.058 . S
O302 C328 1.269 . S
O303 Co295 2.074 . S
O303 C328 1.257 . S
H304 C329 0.930 . S
H305 C335 0.930 . S
O306 Co295 2.093 . S
O306 C298 1.224 . S
H307 C339 0.929 . S
H308 C341 0.930 . S
H309 C342 0.930 . S
H310 C340 0.929 . S
H311 C343 0.928 . S
O312 Co296 2.057 . S
O312 C300 1.232 . S
H313 C332 0.929 . S
H314 C333 0.929 . S
H315 C345 0.931 . S
H316 C337 0.929 . S
H317 C346 0.930 . S
H318 C338 0.931 . S
O319 Co295 2.097 . S
O319 C347 1.214 . S
H320 C348 0.929 . S
H321 C349 0.929 . S
H322 C350 0.930 . S
H323 C351 0.929 . S
H324 C353 0.930 . S
H325 C330 0.930 . S
H326 C334 0.930 . S
O327 Co296 2.037 . S
O327 C347 1.234 . S
C328 O302 1.269 . S
C328 O303 1.257 . S
C329 H304 0.930 . S
C329 C332 1.388 . S
C329 C334 1.418 1_565 S
C330 H325 0.930 . S
C330 C333 1.404 1_545 S
C330 C334 1.353 . S
N331 Co296 2.145 . S
N331 C332 1.397 . S
N331 C333 1.334 . S
C332 H313 0.929 . S
C332 C329 1.388 . S
C332 N331 1.397 . S
C333 H314 0.929 . S
C333 C330 1.404 1_565 S
C333 N331 1.334 . S
C334 H326 0.930 . S
C334 C329 1.418 1_545 S
C334 C330 1.353 . S
C335 H305 0.930 . S
C335 N336 1.330 . S
C335 C337 1.446 . S
N336 Co295 2.151 . S
N336 C335 1.330 . S
N336 C340 1.418 . S
C337 H316 0.929 . S
C337 C335 1.446 . S
C337 C338 1.332 . S
C338 H318 0.931 . S
C338 C337 1.332 . S
C338 C339 1.267 . S
C339 H307 0.929 . S
C339 C338 1.267 . S
C339 C340 1.251 . S
C340 H310 0.929 . S
C340 N336 1.418 . S
C340 C339 1.251 . S
C341 H308 0.930 . S
C341 C343 1.406 . S
C341 C346 1.261 . S
C342 H309 0.930 . S
C342 N344 1.325 . S
C342 C345 1.357 . S
C343 H311 0.928 . S
C343 C341 1.406 . S
C343 N344 1.261 . S
N344 Co295 2.214 . S
N344 C342 1.325 . S
N344 C343 1.261 . S
C345 H315 0.931 . S
C345 C342 1.357 . S
C345 C346 1.312 . S
C346 H317 0.930 . S
C346 C341 1.261 . S
C346 C345 1.312 . S
C347 O319 1.214 . S
C347 O327 1.234 . S
C348 H320 0.929 . S
C348 C351 1.391 . S
C348 C353 1.391 1_545 S
C349 H321 0.929 . S
C349 C350 1.390 . S
C349 N352 1.391 1_545 S
C350 H322 0.930 . S
C350 C349 1.390 . S
C350 C351 1.392 . S
C351 H323 0.929 . S
C351 C348 1.391 . S
C351 C350 1.392 . S
N352 Co296 2.257 . S
N352 C349 1.391 1_565 S
N352 C353 1.388 . S
C353 H324 0.930 . S
C353 C348 1.391 1_565 S
C353 N352 1.388 . S
Co354 O356 2.143 . S
Co354 O362 2.074 . S
Co354 O365 2.093 . S
Co354 O378 2.097 . S
Co354 N395 2.151 . S
Co354 N403 2.214 . S
Co355 O356 2.160 . S
Co355 O361 2.058 . S
Co355 O371 2.057 1_554 S
Co355 O386 2.037 . S
Co355 N390 2.145 1_554 S
Co355 N411 2.257 . S
O356 Co354 2.143 . S
O356 Co355 2.160 . S
C357 O358 1.278 . S
C357 O365 1.224 . S
O358 C357 1.278 . S
C359 O360 1.245 1_556 S
C359 O371 1.232 . S
O360 C359 1.245 1_554 S
O361 Co355 2.058 . S
O361 C387 1.269 . S
O362 Co354 2.074 . S
O362 C387 1.257 . S
H363 C388 0.930 . S
H364 C394 0.930 . S
O365 Co354 2.093 . S
O365 C357 1.224 . S
H366 C398 0.929 . S
H367 C400 0.930 . S
H368 C401 0.930 . S
H369 C399 0.929 . S
H370 C402 0.928 . S
O371 Co355 2.057 1_556 S
O371 C359 1.232 . S
H372 C391 0.929 1_554 S
H373 C392 0.929 . S
H374 C404 0.931 . S
H375 C396 0.929 . S
H376 C405 0.930 . S
H377 C397 0.931 . S
O378 Co354 2.097 . S
O378 C406 1.214 . S
H379 C407 0.929 . S
H380 C408 0.929 . S
H381 C409 0.930 . S
H382 C410 0.929 . S
H383 C412 0.930 . S
H384 C389 0.930 . S
H385 C393 0.930 . S
O386 Co355 2.037 . S
O386 C406 1.234 . S
C387 O361 1.269 . S
C387 O362 1.257 . S
C388 H363 0.930 . S
C388 C391 1.388 . S
C388 C393 1.418 1_565 S
C389 H384 0.930 . S
C389 C392 1.404 1_545 S
C389 C393 1.353 . S
N390 Co355 2.145 1_556 S
N390 C391 1.397 . S
N390 C392 1.334 . S
C391 H372 0.929 1_556 S
C391 C388 1.388 . S
C391 N390 1.397 . S
C392 H373 0.929 . S
C392 C389 1.404 1_565 S
C392 N390 1.334 . S
C393 H385 0.930 . S
C393 C388 1.418 1_545 S
C393 C389 1.353 . S
C394 H364 0.930 . S
C394 N395 1.330 . S
C394 C396 1.446 . S
N395 Co354 2.151 . S
N395 C394 1.330 . S
N395 C399 1.418 . S
C396 H375 0.929 . S
C396 C394 1.446 . S
C396 C397 1.332 . S
C397 H377 0.931 . S
C397 C396 1.332 . S
C397 C398 1.267 . S
C398 H366 0.929 . S
C398 C397 1.267 . S
C398 C399 1.251 . S
C399 H369 0.929 . S
C399 N395 1.418 . S
C399 C398 1.251 . S
C400 H367 0.930 . S
C400 C402 1.406 . S
C400 C405 1.261 . S
C401 H368 0.930 . S
C401 N403 1.325 . S
C401 C404 1.357 . S
C402 H370 0.928 . S
C402 C400 1.406 . S
C402 N403 1.261 . S
N403 Co354 2.214 . S
N403 C401 1.325 . S
N403 C402 1.261 . S
C404 H374 0.931 . S
C404 C401 1.357 . S
C404 C405 1.312 . S
C405 H376 0.930 . S
C405 C400 1.261 . S
C405 C404 1.312 . S
C406 O378 1.214 . S
C406 O386 1.234 . S
C407 H379 0.929 . S
C407 C410 1.391 . S
C407 C412 1.391 1_545 S
C408 H380 0.929 . S
C408 C409 1.390 . S
C408 N411 1.391 1_545 S
C409 H381 0.930 . S
C409 C408 1.390 . S
C409 C410 1.392 . S
C410 H382 0.929 . S
C410 C407 1.391 . S
C410 C409 1.392 . S
N411 Co355 2.257 . S
N411 C408 1.391 1_565 S
N411 C412 1.388 . S
C412 H383 0.930 . S
C412 C407 1.391 1_565 S
C412 N411 1.388 . S
Co413 O415 2.143 . S
Co413 O421 2.074 . S
Co413 O424 2.093 . S
Co413 O437 2.097 . S
Co413 N454 2.151 . S
Co413 N462 2.214 . S
Co414 O415 2.160 . S
Co414 O420 2.058 . S
Co414 O430 2.057 . S
Co414 O445 2.037 . S
Co414 N449 2.145 . S
Co414 N470 2.257 . S
O415 Co413 2.143 . S
O415 Co414 2.160 . S
C416 O417 1.278 . S
C416 O424 1.224 . S
O417 C416 1.278 . S
C418 O419 1.245 . S
C418 O430 1.232 . S
O419 C418 1.245 . S
O420 Co414 2.058 . S
O420 C446 1.269 . S
O421 Co413 2.074 . S
O421 C446 1.257 . S
H422 C447 0.930 . S
H423 C453 0.930 . S
O424 Co413 2.093 . S
O424 C416 1.224 . S
H425 C457 0.929 . S
H426 C459 0.930 . S
H427 C460 0.930 . S
H428 C458 0.929 . S
H429 C461 0.928 . S
O430 Co414 2.057 . S
O430 C418 1.232 . S
H431 C450 0.929 . S
H432 C451 0.929 . S
H433 C463 0.931 1_655 S
H434 C455 0.929 . S
H435 C464 0.930 . S
H436 C456 0.931 . S
O437 Co413 2.097 . S
O437 C465 1.214 . S
H438 C466 0.929 . S
H439 C467 0.929 . S
H440 C468 0.930 . S
H441 C469 0.929 . S
H442 C471 0.930 . S
H443 C448 0.930 . S
H444 C452 0.917 1_655 S
O445 Co414 2.037 . S
O445 C465 1.234 . S
C446 O420 1.269 . S
C446 O421 1.257 . S
C447 H422 0.930 . S
C447 C450 1.388 1_655 S
C447 C452 1.418 1_655 S
C448 H443 0.930 . S
C448 C451 1.404 . S
C448 C452 1.353 . S
N449 Co414 2.145 . S
N449 C450 1.397 . S
N449 C451 1.334 . S
C450 H431 0.929 . S
C450 C447 1.388 1_455 S
C450 N449 1.397 . S
C451 H432 0.929 . S
C451 C448 1.404 . S
C451 N449 1.334 . S
C452 H444 0.917 1_455 S
C452 C447 1.418 1_455 S
C452 C448 1.353 . S
C453 H423 0.930 . S
C453 N454 1.330 . S
C453 C455 1.446 1_565 S
N454 Co413 2.151 . S
N454 C453 1.330 . S
N454 C458 1.418 1_565 S
C455 H434 0.929 . S
C455 C453 1.446 1_545 S
C455 C456 1.332 . S
C456 H436 0.931 . S
C456 C455 1.332 . S
C456 C457 1.267 . S
C457 H425 0.929 . S
C457 C456 1.267 . S
C457 C458 1.251 . S
C458 H428 0.929 . S
C458 N454 1.418 1_545 S
C458 C457 1.251 . S
C459 H426 0.930 . S
C459 C461 1.406 . S
C459 C464 1.261 . S
C460 H427 0.930 . S
C460 N462 1.325 . S
C460 C463 1.357 1_565 S
C461 H429 0.928 . S
C461 C459 1.406 . S
C461 N462 1.261 1_545 S
N462 Co413 2.214 . S
N462 C460 1.325 . S
N462 C461 1.261 1_565 S
C463 H433 0.931 1_455 S
C463 C460 1.357 1_545 S
C463 C464 1.312 . S
C464 H435 0.930 . S
C464 C459 1.261 . S
C464 C463 1.312 . S
C465 O437 1.214 . S
C465 O445 1.234 . S
C466 H438 0.929 . S
C466 C469 1.391 . S
C466 C471 1.391 . S
C467 H439 0.929 . S
C467 C468 1.390 . S
C467 N470 1.391 . S
C468 H440 0.930 . S
C468 C467 1.390 . S
C468 C469 1.392 . S
C469 H441 0.929 . S
C469 C466 1.391 . S
C469 C468 1.392 . S
N470 Co414 2.257 . S
N470 C467 1.391 . S
N470 C471 1.388 . S
C471 H442 0.930 . S
C471 C466 1.391 . S
C471 N470 1.388 . S
C472 C473 1.369 . S
C472 C474 1.419 . S
C472 H476 0.930 . S
C473 C472 1.369 . S
C473 C482 1.429 . S
C474 C472 1.419 . S
C474 C475 1.363 . S
C474 H477 0.929 . S
C475 C474 1.363 . S
C475 C481 1.428 . S
H476 C472 0.930 . S
H477 C474 0.929 . S
S478 N479 1.613 . S
S478 N480 1.610 . S
N479 S478 1.613 . S
N479 C482 1.350 . S
N480 S478 1.610 . S
N480 C481 1.351 . S
C481 C475 1.428 . S
C481 N480 1.351 . S
C481 C482 1.434 . S
C482 C473 1.429 . S
C482 N479 1.350 . S
C482 C481 1.434 . S
C483 C484 1.369 . S
C483 C485 1.419 . S
C483 H487 0.930 . S
C484 C483 1.369 . S
C484 C493 1.429 . S
C485 C483 1.419 . S
C485 C486 1.363 . S
C485 H488 0.929 . S
C486 C485 1.363 . S
C486 C492 1.428 . S
H487 C483 0.930 . S
H488 C485 0.929 . S
S489 N490 1.613 . S
S489 N491 1.610 . S
N490 S489 1.613 . S
N490 C493 1.350 . S
N491 S489 1.610 . S
N491 C492 1.351 . S
C492 C486 1.428 . S
C492 N491 1.351 . S
C492 C493 1.434 . S
C493 C484 1.429 . S
C493 N490 1.350 . S
C493 C492 1.434 . S
C494 C495 1.369 . S
C494 C496 1.419 . S
C494 H498 0.930 . S
C495 C494 1.369 . S
C495 C504 1.429 . S
C496 C494 1.419 . S
C496 C497 1.363 . S
C496 H499 0.929 . S
C497 C496 1.363 . S
C497 C503 1.428 . S
H498 C494 0.930 . S
H499 C496 0.929 . S
S500 N501 1.613 1_565 S
S500 N502 1.610 1_565 S
N501 S500 1.613 1_545 S
N501 C504 1.350 . S
N502 S500 1.610 1_545 S
N502 C503 1.351 . S
C503 C497 1.428 . S
C503 N502 1.351 . S
C503 C504 1.434 . S
C504 C495 1.429 . S
C504 N501 1.350 . S
C504 C503 1.434 . S
C505 C506 1.369 . S
C505 C507 1.419 . S
C505 H509 0.930 . S
C506 C505 1.369 . S
C506 C515 1.429 . S
C507 C505 1.419 . S
C507 C508 1.363 . S
C507 H510 0.929 . S
C508 C507 1.363 . S
C508 C514 1.428 . S
H509 C505 0.930 . S
H510 C507 0.929 . S
S511 N512 1.613 . S
S511 N513 1.610 . S
N512 S511 1.613 . S
N512 C515 1.350 . S
N513 S511 1.610 . S
N513 C514 1.351 . S
C514 C508 1.428 . S
C514 N513 1.351 . S
C514 C515 1.434 . S
C515 C506 1.429 . S
C515 N512 1.350 . S
C515 C514 1.434 . S
C516 C517 1.369 . S
C516 C518 1.419 . S
C516 H520 0.930 . S
C517 C516 1.369 . S
C517 C526 1.429 . S
C518 C516 1.419 . S
C518 C519 1.363 . S
C518 H521 0.929 . S
C519 C518 1.363 . S
C519 C525 1.428 . S
H520 C516 0.930 . S
H521 C518 0.929 . S
S522 N523 1.613 . S
S522 N524 1.610 . S
N523 S522 1.613 . S
N523 C526 1.350 . S
N524 S522 1.610 . S
N524 C525 1.351 . S
C525 C519 1.428 . S
C525 N524 1.351 . S
C525 C526 1.434 . S
C526 C517 1.429 . S
C526 N523 1.350 . S
C526 C525 1.434 . S
C527 C528 1.369 . S
C527 C529 1.419 . S
C527 H531 0.930 . S
C528 C527 1.369 . S
C528 C537 1.429 . S
C529 C527 1.419 . S
C529 C530 1.363 . S
C529 H532 0.929 . S
C530 C529 1.363 . S
C530 C536 1.428 . S
H531 C527 0.930 . S
H532 C529 0.929 . S
S533 N534 1.613 . S
S533 N535 1.610 . S
N534 S533 1.613 . S
N534 C537 1.350 . S
N535 S533 1.610 . S
N535 C536 1.351 . S
C536 C530 1.428 . S
C536 N535 1.351 . S
C536 C537 1.434 . S
C537 C528 1.429 . S
C537 N534 1.350 . S
C537 C536 1.434 . S
C538 C539 1.369 . S
C538 C540 1.419 . S
C538 H542 0.930 . S
C539 C538 1.369 . S
C539 C548 1.429 . S
C540 C538 1.419 . S
C540 C541 1.363 . S
C540 H543 0.929 . S
C541 C540 1.363 . S
C541 C547 1.428 . S
H542 C538 0.930 . S
H543 C540 0.929 . S
S544 N545 1.613 . S
S544 N546 1.610 . S
N545 S544 1.613 . S
N545 C548 1.350 . S
N546 S544 1.610 . S
N546 C547 1.351 . S
C547 C541 1.428 . S
C547 N546 1.351 . S
C547 C548 1.434 . S
C548 C539 1.429 . S
C548 N545 1.350 . S
C548 C547 1.434 . S
C549 C550 1.369 . S
C549 C551 1.419 . S
C549 H553 0.930 . S
C550 C549 1.369 . S
C550 C559 1.429 . S
C551 C549 1.419 . S
C551 C552 1.363 . S
C551 H554 0.929 . S
C552 C551 1.363 . S
C552 C558 1.428 . S
H553 C549 0.930 . S
H554 C551 0.929 . S
S555 N556 1.613 . S
S555 N557 1.610 . S
N556 S555 1.613 . S
N556 C559 1.350 . S
N557 S555 1.610 . S
N557 C558 1.351 . S
C558 C552 1.428 . S
C558 N557 1.351 . S
C558 C559 1.434 . S
C559 C550 1.429 . S
C559 N556 1.350 . S
C559 C558 1.434 . S
C560 C561 1.369 . S
C560 C562 1.419 1_455 S
C560 H564 0.930 . S
C561 C560 1.369 . S
C561 C570 1.429 . S
C562 C560 1.419 1_655 S
C562 C563 1.363 . S
C562 H565 0.929 . S
C563 C562 1.363 . S
C563 C569 1.428 . S
H564 C560 0.930 . S
H565 C562 0.929 . S
S566 N567 1.613 . S
S566 N568 1.610 1_455 S
N567 S566 1.613 . S
N567 C570 1.350 . S
N568 S566 1.610 1_655 S
N568 C569 1.351 . S
C569 C563 1.428 . S
C569 N568 1.351 . S
C569 C570 1.434 1_655 S
C570 C561 1.429 . S
C570 N567 1.350 . S
C570 C569 1.434 1_455 S
C571 C572 1.369 . S
C571 C573 1.419 . S
C571 H575 0.930 . S
C572 C571 1.369 . S
C572 C581 1.429 . S
C573 C571 1.419 . S
C573 C574 1.363 . S
C573 H576 0.929 . S
C574 C573 1.363 . S
C574 C580 1.428 . S
H575 C571 0.930 . S
H576 C573 0.929 . S
S577 N578 1.613 . S
S577 N579 1.610 . S
N578 S577 1.613 . S
N578 C581 1.350 . S
N579 S577 1.610 . S
N579 C580 1.351 . S
C580 C574 1.428 . S
C580 N579 1.351 . S
C580 C581 1.434 . S
C581 C572 1.429 . S
C581 N578 1.350 . S
C581 C580 1.434 . S
C582 C583 1.369 . S
C582 C584 1.419 . S
C582 H586 0.930 . S
C583 C582 1.369 . S
C583 C592 1.429 1_455 S
C584 C582 1.419 . S
C584 C585 1.363 1_455 S
C584 H587 0.929 . S
C585 C584 1.363 1_655 S
C585 C591 1.428 . S
H586 C582 0.930 . S
H587 C584 0.929 . S
S588 N589 1.613 . S
S588 N590 1.610 . S
N589 S588 1.613 . S
N589 C592 1.350 . S
N590 S588 1.610 . S
N590 C591 1.351 . S
C591 C585 1.428 . S
C591 N590 1.351 . S
C591 C592 1.434 . S
C592 C583 1.429 1_655 S
C592 N589 1.350 . S
C592 C591 1.434 . S
C593 C594 1.369 . S
C593 C595 1.419 . S
C593 H597 0.930 . S
C594 C593 1.369 . S
C594 C603 1.429 . S
C595 C593 1.419 . S
C595 C596 1.363 . S
C595 H598 0.929 . S
C596 C595 1.363 . S
C596 C602 1.428 . S
H597 C593 0.930 . S
H598 C595 0.929 . S
S599 N600 1.613 . S
S599 N601 1.610 . S
N600 S599 1.613 . S
N600 C603 1.350 . S
N601 S599 1.610 . S
N601 C602 1.351 . S
C602 C596 1.428 . S
C602 N601 1.351 . S
C602 C603 1.434 . S
C603 C594 1.429 . S
C603 N600 1.350 . S
C603 C602 1.434 . S
C604 C605 1.369 1_556 S
C604 C606 1.419 1_455 S
C604 H608 0.930 . S
C605 C604 1.369 1_554 S
C605 C614 1.429 1_545 S
C606 C604 1.419 1_655 S
C606 C607 1.363 1_545 S
C606 H609 0.929 . S
C607 C606 1.363 1_565 S
C607 C613 1.428 1_556 S
H608 C604 0.930 . S
H609 C606 0.929 . S
S610 N611 1.613 . S
S610 N612 1.598 1_455 S
N611 S610 1.613 . S
N611 C614 1.350 . S
N612 S610 1.598 1_655 S
N612 C613 1.352 . S
C613 C607 1.428 1_554 S
C613 N612 1.352 . S
C613 C614 1.434 1_655 S
C614 C605 1.429 1_565 S
C614 N611 1.350 . S
C614 C613 1.434 1_455 S
C615 C616 1.369 . S
C615 C617 1.419 . S
C615 H619 0.930 . S
C616 C615 1.369 . S
C616 C625 1.429 . S
C617 C615 1.419 . S
C617 C618 1.363 . S
C617 H620 0.929 . S
C618 C617 1.363 . S
C618 C624 1.428 . S
H619 C615 0.930 . S
H620 C617 0.929 . S
S621 N622 1.613 . S
S621 N623 1.610 . S
N622 S621 1.613 . S
N622 C625 1.350 . S
N623 S621 1.610 . S
N623 C624 1.351 . S
C624 C618 1.428 . S
C624 N623 1.351 . S
C624 C625 1.434 . S
C625 C616 1.429 . S
C625 N622 1.350 . S
C625 C624 1.434 . S
C626 C627 1.369 . S
C626 C628 1.419 . S
C626 H630 0.930 . S
C627 C626 1.369 . S
C627 C636 1.429 1_554 S
C628 C626 1.419 . S
C628 C629 1.363 1_554 S
C628 H631 0.929 . S
C629 C628 1.363 1_556 S
C629 C635 1.428 . S
H630 C626 0.930 . S
H631 C628 0.929 . S
S632 N633 1.613 . S
S632 N634 1.610 . S
N633 S632 1.613 . S
N633 C636 1.350 . S
N634 S632 1.610 . S
N634 C635 1.351 . S
C635 C629 1.428 . S
C635 N634 1.351 . S
C635 C636 1.434 . S
C636 C627 1.429 1_556 S
C636 N633 1.350 . S
C636 C635 1.434 . S
C637 C638 1.369 . S
C637 C639 1.419 1_455 S
C637 H641 0.930 . S
C638 C637 1.369 . S
C638 C647 1.429 1_565 S
C639 C637 1.419 1_655 S
C639 C640 1.363 1_565 S
C639 H642 0.929 . S
C640 C639 1.363 1_545 S
C640 C646 1.428 . S
H641 C637 0.930 . S
H642 C639 0.929 . S
S643 N644 1.613 1_655 S
S643 N645 1.610 . S
N644 S643 1.613 1_455 S
N644 C647 1.350 . S
N645 S643 1.610 . S
N645 C646 1.351 . S
C646 C640 1.428 . S
C646 N645 1.351 . S
C646 C647 1.434 1_655 S
C647 C638 1.429 1_545 S
C647 N644 1.350 . S
C647 C646 1.434 1_455 S
C473 C64 1.617 . S
C475 C3 1.569 . S
C484 C5 1.618 . S
C486 C62 1.565 . S
C495 C182 1.615 . S
C497 C121 1.570 . S
C506 C123 1.615 . S
C508 C180 1.569 . S
C517 C241 1.579 . S
C519 C298 1.602 . S
C528 C300 1.580 . S
C530 C239 1.602 . S
C539 C359 1.584 . S
C541 C416 1.604 . S
C550 C357 1.601 . S
C552 C418 1.581 . S
C561 C33 0.996 . S
C563 C210 0.998 . S
C572 C92 0.997 . S
C574 C151 1.001 . S
C583 C465 1.011 . S
C585 C288 1.007 . S
C594 C406 1.009 . S
C596 C347 1.006 . S
C605 C52 1.542 . S
C607 C269 1.528 . S
C616 C328 1.530 . S
C618 C111 1.540 . S
C627 C387 1.531 . S
C629 C170 1.539 . S
C638 C446 1.527 . S
C640 C229 1.541 . S
