# Generated by pormake.
# Topology pcl, (4)-cn, num edge types: 1
# Building blocks:
#     Node 0, Type 0, BuildingBlock: UXUYUI_clean_sbu_0, # of connection points: 4
#     Node 1, Type 0, BuildingBlock: UXUYUI_clean_sbu_0, # of connection points: 4
#     Node 2, Type 0, BuildingBlock: UXUYUI_clean_sbu_0, # of connection points: 4
#     Node 3, Type 0, BuildingBlock: UXUYUI_clean_sbu_0, # of connection points: 4
#     Node 4, Type 0, BuildingBlock: UXUYUI_clean_sbu_0, # of connection points: 4
#     Node 5, Type 0, BuildingBlock: UXUYUI_clean_sbu_0, # of connection points: 4
#     Node 6, Type 0, BuildingBlock: UXUYUI_clean_sbu_0, # of connection points: 4
#     Node 7, Type 0, BuildingBlock: UXUYUI_clean_sbu_0, # of connection points: 4
#     Node 8, Type 0, BuildingBlock: UXUYUI_clean_sbu_0, # of connection points: 4
#     Node 9, Type 0, BuildingBlock: UXUYUI_clean_sbu_0, # of connection points: 4
#     Node 10, Type 0, BuildingBlock: UXUYUI_clean_sbu_0, # of connection points: 4
#     Node 11, Type 0, BuildingBlock: UXUYUI_clean_sbu_0, # of connection points: 4
#     Node 12, Type 0, BuildingBlock: UXUYUI_clean_sbu_0, # of connection points: 4
#     Node 13, Type 0, BuildingBlock: UXUYUI_clean_sbu_0, # of connection points: 4
#     Node 14, Type 0, BuildingBlock: UXUYUI_clean_sbu_0, # of connection points: 4
#     Node 15, Type 0, BuildingBlock: UXUYUI_clean_sbu_0, # of connection points: 4
#     Edge 16, Type (0, 0), BuildingBlock: OJICUG_clean_linker_0, # of connection points: 2
#     Edge 17, Type (0, 0), BuildingBlock: OJICUG_clean_linker_0, # of connection points: 2
#     Edge 18, Type (0, 0), BuildingBlock: OJICUG_clean_linker_0, # of connection points: 2
#     Edge 19, Type (0, 0), BuildingBlock: OJICUG_clean_linker_0, # of connection points: 2
#     Edge 20, Type (0, 0), BuildingBlock: OJICUG_clean_linker_0, # of connection points: 2
#     Edge 21, Type (0, 0), BuildingBlock: OJICUG_clean_linker_0, # of connection points: 2
#     Edge 22, Type (0, 0), BuildingBlock: OJICUG_clean_linker_0, # of connection points: 2
#     Edge 23, Type (0, 0), BuildingBlock: OJICUG_clean_linker_0, # of connection points: 2
#     Edge 24, Type (0, 0), BuildingBlock: OJICUG_clean_linker_0, # of connection points: 2
#     Edge 25, Type (0, 0), BuildingBlock: OJICUG_clean_linker_0, # of connection points: 2
#     Edge 26, Type (0, 0), BuildingBlock: OJICUG_clean_linker_0, # of connection points: 2
#     Edge 27, Type (0, 0), BuildingBlock: OJICUG_clean_linker_0, # of connection points: 2
#     Edge 28, Type (0, 0), BuildingBlock: OJICUG_clean_linker_0, # of connection points: 2
#     Edge 29, Type (0, 0), BuildingBlock: OJICUG_clean_linker_0, # of connection points: 2
#     Edge 30, Type (0, 0), BuildingBlock: OJICUG_clean_linker_0, # of connection points: 2
#     Edge 31, Type (0, 0), BuildingBlock: OJICUG_clean_linker_0, # of connection points: 2
#     Edge 32, Type (0, 0), BuildingBlock: OJICUG_clean_linker_0, # of connection points: 2
#     Edge 33, Type (0, 0), BuildingBlock: OJICUG_clean_linker_0, # of connection points: 2
#     Edge 34, Type (0, 0), BuildingBlock: OJICUG_clean_linker_0, # of connection points: 2
#     Edge 35, Type (0, 0), BuildingBlock: OJICUG_clean_linker_0, # of connection points: 2
#     Edge 36, Type (0, 0), BuildingBlock: OJICUG_clean_linker_0, # of connection points: 2
#     Edge 37, Type (0, 0), BuildingBlock: OJICUG_clean_linker_0, # of connection points: 2
#     Edge 38, Type (0, 0), BuildingBlock: OJICUG_clean_linker_0, # of connection points: 2
#     Edge 39, Type (0, 0), BuildingBlock: OJICUG_clean_linker_0, # of connection points: 2
#     Edge 40, Type (0, 0), BuildingBlock: OJICUG_clean_linker_0, # of connection points: 2
#     Edge 41, Type (0, 0), BuildingBlock: OJICUG_clean_linker_0, # of connection points: 2
#     Edge 42, Type (0, 0), BuildingBlock: OJICUG_clean_linker_0, # of connection points: 2
#     Edge 43, Type (0, 0), BuildingBlock: OJICUG_clean_linker_0, # of connection points: 2
#     Edge 44, Type (0, 0), BuildingBlock: OJICUG_clean_linker_0, # of connection points: 2
#     Edge 45, Type (0, 0), BuildingBlock: OJICUG_clean_linker_0, # of connection points: 2
#     Edge 46, Type (0, 0), BuildingBlock: OJICUG_clean_linker_0, # of connection points: 2
#     Edge 47, Type (0, 0), BuildingBlock: OJICUG_clean_linker_0, # of connection points: 2
# Relax obj value: 0.133
# Max RMSD: 0.100
# Mean RMSD: 0.099
data_MOF--net-pcl--node1-UXUYUI_clean_sbu_0--edge1-OJICUG_clean_linker_0
_symmetry_space_group_name_H-M    P1
_symmetry_Int_Tables_number       1
_symmetry_cell_setting            triclinic
loop_
_symmetry_equiv_pos_as_xyz
'x, y, z'
_cell_length_a     51.852586
_cell_length_b     59.924505
_cell_length_c     52.900534
_cell_angle_alpha  90.008319
_cell_angle_beta   90.003946
_cell_angle_gamma 90.005734
loop_
_atom_site_label
_atom_site_type_symbol
_atom_site_fract_x
_atom_site_fract_y
_atom_site_fract_z
_atom_type_partial_charge
Li0 Li 0.18548 0.36976 0.11311 0.0
Li1 Li 0.19106 0.35189 0.0735 0.0
Li2 Li 0.18562 0.39381 0.07553 0.0
Li3 Li 0.14954 0.3667 0.08408 0.0
C4 C 0.23468 0.38084 0.10384 0.0
N5 N 0.27581 0.39276 0.1342 0.0
C6 C 0.24716 0.36476 0.11857 0.0
C7 C 0.24318 0.40297 0.10448 0.0
C8 C 0.26788 0.37113 0.13383 0.0
C9 C 0.26401 0.40866 0.11995 0.0
C10 C 0.17369 0.32024 0.10111 0.0
C11 C 0.16787 0.28336 0.08372 0.0
N12 N 0.18699 0.27562 0.09899 0.0
C13 C 0.19324 0.3119 0.11666 0.0
C14 C 0.16083 0.30585 0.08455 0.0
C15 C 0.19967 0.28929 0.11532 0.0
C16 C 0.17755 0.35434 0.16226 0.0
N17 N 0.19173 0.36952 0.14914 0.0
C18 C 0.20789 0.38498 0.1878 0.0
C19 C 0.20664 0.3848 0.16138 0.0
C20 C 0.19315 0.36965 0.20174 0.0
C21 C 0.17801 0.35408 0.18861 0.0
H22 H 0.16517 0.34283 0.15226 0.0
H23 H 0.2168 0.39743 0.15079 0.0
C24 C 0.19755 0.32067 0.0336 0.0
N25 N 0.20829 0.32846 0.05533 0.0
C26 C 0.20853 0.30258 0.02089 0.0
C27 C 0.24196 0.30126 0.05266 0.0
C28 C 0.23027 0.31934 0.0648 0.0
C29 C 0.23093 0.2925 0.03051 0.0
H30 H 0.18027 0.3283 0.02627 0.0
H31 H 0.23844 0.32577 0.08208 0.0
C32 C 0.15374 0.40264 0.12563 0.0
N33 N 0.14161 0.42007 0.17246 0.0
C34 C 0.13412 0.39304 0.1401 0.0
C35 C 0.16711 0.42117 0.13488 0.0
C36 C 0.12831 0.40207 0.16377 0.0
C37 C 0.16068 0.42974 0.15862 0.0
C38 C 0.14941 0.37341 0.03504 0.0
C39 C 0.14385 0.39401 0.02389 0.0
C40 C 0.13422 0.35484 0.02916 0.0
C41 C 0.12305 0.39572 0.00722 0.0
C42 C 0.11355 0.35724 0.01244 0.0
N43 N 0.10844 0.37746 1.00191 0.0
C44 C 0.21101 0.4244 0.04256 0.0
C45 C 0.17658 0.43917 0.06682 0.0
C46 C 0.21354 0.44458 0.02947 0.0
N47 N 0.19255 0.42206 0.06062 0.0
C48 C 0.17843 0.45958 0.05427 0.0
C49 C 0.19674 0.46237 0.03493 0.0
H50 H 0.22317 0.41036 0.03776 0.0
H51 H 0.16175 0.43672 0.08091 0.0
C52 C 0.10033 0.3454 0.08793 0.0
N53 N 0.11298 0.36457 0.08203 0.0
C54 C 0.07341 0.34456 0.08685 0.0
C55 C 0.07315 0.38324 0.07387 0.0
C56 C 0.10001 0.38333 0.07524 0.0
C57 C 0.05945 0.3637 0.07983 0.0
H58 H 0.11109 0.33087 0.09382 0.0
H59 H 0.11061 0.39841 0.07093 0.0
O60 O 0.21454 0.37493 0.08853 0.0
O61 O 0.16762 0.34246 0.10165 0.0
O62 O 0.16027 0.39358 0.1028 0.0
O63 O 0.16946 0.3715 0.05176 0.0
H64 H 0.2407 0.34761 0.11854 0.0
H65 H 0.23378 0.41564 0.09324 0.0
H66 H 0.27761 0.35889 0.14544 0.0
H67 H 0.27076 0.42573 0.12068 0.0
H68 H 0.15823 0.27209 0.07085 0.0
H69 H 0.20358 0.32281 0.12941 0.0
H70 H 0.14588 0.31204 0.07216 0.0
H71 H 0.21485 0.28265 0.12715 0.0
H72 H 0.21943 0.39753 0.19724 0.0
H73 H 0.16639 0.34194 0.19864 0.0
H74 H 0.1996 0.29661 1.00366 0.0
H75 H 0.25908 0.29389 0.06087 0.0
H76 H 0.12373 0.37857 0.13327 0.0
H77 H 0.18256 0.42863 0.12401 0.0
H78 H 0.1133 0.39472 0.17527 0.0
H79 H 0.17097 0.44399 0.16611 0.0
H80 H 0.15539 0.40856 0.02807 0.0
H81 H 0.13797 0.33883 0.03783 0.0
H82 H 0.1185 0.41158 0.99853 0.0
H83 H 0.10151 0.34305 0.00793 0.0
H84 H 0.22774 0.44591 0.01453 0.0
H85 H 0.1653 0.4729 0.05934 0.0
H86 H 0.06363 0.32926 0.092 0.0
H87 H 0.06323 0.39831 0.0681 0.0
Li88 Li 0.81614 0.63601 0.61164 0.0
Li89 Li 0.81025 0.65416 0.57224 0.0
Li90 Li 0.81609 0.61222 0.5739 0.0
Li91 Li 0.85204 0.63952 0.58259 0.0
C92 C 0.767 0.62482 0.60249 0.0
N93 N 0.72609 0.61265 0.633 0.0
C94 C 0.7545 0.64081 0.61732 0.0
C95 C 0.75863 0.60265 0.60309 0.0
C96 C 0.7339 0.63432 0.63266 0.0
C97 C 0.73791 0.59683 0.61865 0.0
C98 C 0.82794 0.68574 0.59989 0.0
C99 C 0.83452 0.72262 0.58281 0.0
N100 N 0.81529 0.7305 0.59785 0.0
C101 C 0.8083 0.69421 0.61523 0.0
C102 C 0.84125 0.70006 0.58361 0.0
C103 C 0.80219 0.71689 0.61393 0.0
C104 C 0.82382 0.65149 0.66083 0.0
N105 N 0.80993 0.63613 0.64768 0.0
C106 C 0.79389 0.62053 0.68633 0.0
C107 C 0.79522 0.62069 0.6599 0.0
C108 C 0.80833 0.63607 0.70028 0.0
C109 C 0.82328 0.65179 0.68718 0.0
H110 H 0.83604 0.66314 0.65085 0.0
H111 H 0.78527 0.60794 0.6493 0.0
C112 C 0.80362 0.68561 0.53265 0.0
N113 N 0.79291 0.6777 0.55433 0.0
C114 C 0.79265 0.70378 0.5201 0.0
C115 C 0.7593 0.70498 0.55194 0.0
C116 C 0.77097 0.6868 0.56391 0.0
C117 C 0.7703 0.71386 0.52984 0.0
H118 H 0.82087 0.678 0.52523 0.0
H119 H 0.76282 0.68028 0.58115 0.0
C120 C 0.84813 0.6033 0.62388 0.0
N121 N 0.86023 0.58572 0.67065 0.0
C122 C 0.8676 0.61297 0.6385 0.0
C123 C 0.8349 0.58462 0.63295 0.0
C124 C 0.87339 0.60385 0.66214 0.0
C125 C 0.8413 0.57598 0.65666 0.0
C126 C 0.85159 0.63322 0.53307 0.0
C127 C 0.85665 0.61289 0.52109 0.0
C128 C 0.86676 0.65185 0.52739 0.0
C129 C 0.87695 0.6115 0.50379 0.0
C130 C 0.88691 0.64977 0.51002 0.0
N131 N 0.89155 0.6298 0.49869 0.0
C132 C 0.79057 0.58159 0.54102 0.0
C133 C 0.82551 0.56699 0.5647 0.0
C134 C 0.78796 0.5614 0.52795 0.0
N135 N 0.8093 0.58402 0.55879 0.0
C136 C 0.82359 0.54658 0.55217 0.0
C137 C 0.80495 0.54368 0.53315 0.0
H138 H 0.7782 0.59556 0.53645 0.0
H139 H 0.84052 0.56951 0.57859 0.0
C140 C 0.90044 0.66097 0.58944 0.0
N141 N 0.88855 0.64233 0.58059 0.0
C142 C 0.9273 0.66268 0.58869 0.0
C143 C 0.9291 0.62597 0.5698 0.0
C144 C 0.90226 0.62487 0.57119 0.0
C145 C 0.94196 0.64504 0.57872 0.0
H146 H 0.8891 0.67439 0.59735 0.0
H147 H 0.8923 0.61002 0.56487 0.0
O148 O 0.78703 0.63085 0.58711 0.0
O149 O 0.8337 0.66346 0.60038 0.0
O150 O 0.84161 0.61242 0.60109 0.0
O151 O 0.83197 0.63483 0.55032 0.0
H152 H 0.76087 0.65798 0.61732 0.0
H153 H 0.76806 0.59004 0.59177 0.0
H154 H 0.72416 0.64649 0.64436 0.0
H155 H 0.73127 0.57973 0.61935 0.0
H156 H 0.84452 0.73385 0.57016 0.0
H157 H 0.79765 0.68336 0.6278 0.0
H158 H 0.85635 0.69377 0.57146 0.0
H159 H 0.78695 0.72365 0.62559 0.0
H160 H 0.78251 0.60787 0.69575 0.0
H161 H 0.83466 0.66408 0.69722 0.0
H162 H 0.80155 0.70983 0.50289 0.0
H163 H 0.74221 0.71233 0.56025 0.0
H164 H 0.87788 0.62753 0.63181 0.0
H165 H 0.81957 0.57711 0.62196 0.0
H166 H 0.88828 0.61126 0.67375 0.0
H167 H 0.83112 0.56162 0.66401 0.0
H168 H 0.8451 0.5983 0.52509 0.0
H169 H 0.86337 0.66766 0.53667 0.0
H170 H 0.88111 0.59585 0.49445 0.0
H171 H 0.89893 0.66401 0.50565 0.0
H172 H 0.77351 0.55999 0.51326 0.0
H173 H 0.83687 0.53332 0.55706 0.0
H174 H 0.9365 0.67767 0.59576 0.0
H175 H 0.93973 0.61186 0.56238 0.0
Li176 Li 0.18601 0.61197 0.93396 0.0
Li177 Li 0.15003 0.63913 0.9252 0.0
Li178 Li 0.18599 0.63585 0.89623 0.0
Li179 Li 0.1916 0.65388 0.93574 0.0
C180 C 0.15419 0.60296 0.88387 0.0
N181 N 0.1421 0.58528 0.83715 0.0
C182 C 0.13467 0.61256 0.86926 0.0
C183 C 0.16748 0.58432 0.87482 0.0
C184 C 0.12888 0.60339 0.84565 0.0
C185 C 0.16108 0.57562 0.85113 0.0
C186 C 0.14986 0.6327 0.9743 0.0
C187 C 0.1141 0.64915 0.99678 0.0
N188 N 0.10885 0.62901 0.00743 0.0
C189 C 0.14416 0.61218 0.98557 0.0
C190 C 0.13479 0.65138 0.98006 0.0
C191 C 0.12334 0.61065 1.00224 0.0
C192 C 0.2113 0.58142 0.96705 0.0
N193 N 0.19279 0.58377 0.94904 0.0
C194 C 0.17846 0.54634 0.95562 0.0
C195 C 0.17669 0.56671 0.94298 0.0
C196 C 0.19683 0.54353 0.9749 0.0
C197 C 0.21375 0.56127 0.98023 0.0
H198 H 0.22357 0.59542 0.97174 0.0
H199 H 0.16184 0.56917 0.92892 0.0
C200 C 0.10087 0.66046 0.921 0.0
N201 N 0.11348 0.64134 0.92718 0.0
C202 C 0.07395 0.66132 0.92195 0.0
C203 C 0.07359 0.62276 0.93539 0.0
C204 C 0.10046 0.62264 0.93414 0.0
C205 C 0.05994 0.64225 0.92912 0.0
H206 H 0.11168 0.67492 0.91497 0.0
H207 H 0.11102 0.6076 0.93866 0.0
C208 C 0.23509 0.62464 0.90555 0.0
N209 N 0.2761 0.6124 0.8752 0.0
C210 C 0.24764 0.6406 0.8907 0.0
C211 C 0.24347 0.60247 0.90503 0.0
C212 C 0.26829 0.63407 0.87544 0.0
C213 C 0.26423 0.59662 0.88956 0.0
C214 C 0.17428 0.68547 0.90796 0.0
C215 C 0.19388 0.69376 0.89243 0.0
C216 C 0.16137 0.69992 0.9244 0.0
C217 C 0.20029 0.71637 0.89367 0.0
C218 C 0.1684 0.72242 0.92513 0.0
N219 N 0.18755 0.73011 0.90988 0.0
C220 C 0.17837 0.65127 0.84704 0.0
C221 C 0.20704 0.62052 0.84802 0.0
C222 C 0.17897 0.65156 0.8207 0.0
N223 N 0.19229 0.63595 0.86021 0.0
C224 C 0.20839 0.62034 0.8216 0.0
C225 C 0.19395 0.63585 0.80761 0.0
H226 H 0.16609 0.66289 0.85699 0.0
H227 H 0.217 0.60781 0.85865 0.0
C228 C 0.19839 0.68521 0.97553 0.0
N229 N 0.20891 0.67737 0.95374 0.0
C230 C 0.20944 0.70337 0.98805 0.0
C231 C 0.24246 0.70471 0.95588 0.0
C232 C 0.23075 0.68651 0.944 0.0
C233 C 0.23167 0.71354 0.97812 0.0
H234 H 0.18114 0.67763 0.983 0.0
H235 H 0.23884 0.67996 0.92674 0.0
O236 O 0.16069 0.61214 0.90666 0.0
O237 O 0.16992 0.63444 0.95757 0.0
O238 O 0.21502 0.63071 0.92086 0.0
O239 O 0.16822 0.66324 0.90752 0.0
H240 H 0.12434 0.62711 0.87594 0.0
H241 H 0.18285 0.57687 0.8858 0.0
H242 H 0.11394 0.61073 0.83404 0.0
H243 H 0.17131 0.56129 0.8438 0.0
H244 H 0.10215 0.66343 1.0012 0.0
H245 H 0.1556 0.59756 0.98148 0.0
H246 H 0.13866 0.66732 0.9713 0.0
H247 H 0.11867 0.59486 0.01103 0.0
H248 H 0.16524 0.53306 0.95064 0.0
H249 H 0.228 0.55993 0.99512 0.0
H250 H 0.06421 0.67658 0.91656 0.0
H251 H 0.06364 0.60775 0.94128 0.0
H252 H 0.24127 0.65777 0.89062 0.0
H253 H 0.23401 0.58989 0.91636 0.0
H254 H 0.27807 0.64622 0.86374 0.0
H255 H 0.27088 0.57952 0.88893 0.0
H256 H 0.20428 0.6828 0.87978 0.0
H257 H 0.14638 0.69378 0.93678 0.0
H258 H 0.21551 0.72298 0.88185 0.0
H259 H 0.1587 0.73374 0.93791 0.0
H260 H 0.16759 0.66386 0.81065 0.0
H261 H 0.2198 0.60767 0.81221 0.0
H262 H 0.20029 0.7097 0.00499 0.0
H263 H 0.2598 0.71176 0.94774 0.0
Li264 Li 0.81418 0.39336 0.43329 0.0
Li265 Li 0.85004 0.36607 0.42466 0.0
Li266 Li 0.81408 0.3693 0.39567 0.0
Li267 Li 0.80844 0.35143 0.43528 0.0
C268 C 0.84605 0.40202 0.38314 0.0
N269 N 0.85832 0.4194 0.33631 0.0
C270 C 0.86564 0.39234 0.36868 0.0
C271 C 0.83278 0.4206 0.37387 0.0
C272 C 0.87152 0.40135 0.34502 0.0
C273 C 0.83927 0.42913 0.35014 0.0
C274 C 0.8503 0.37273 0.47369 0.0
C275 C 0.88609 0.35635 0.49618 0.0
N276 N 0.89139 0.37654 0.50673 0.0
C277 C 0.85604 0.39329 0.48485 0.0
C278 C 0.86537 0.35407 0.47951 0.0
C279 C 0.8769 0.39488 0.50148 0.0
C280 C 0.78924 0.42423 0.46635 0.0
N281 N 0.80757 0.42168 0.44819 0.0
C282 C 0.8221 0.45912 0.4543 0.0
C283 C 0.82368 0.43866 0.44183 0.0
C284 C 0.80394 0.46213 0.47373 0.0
C285 C 0.78701 0.44448 0.47938 0.0
H286 H 0.77697 0.41029 0.47128 0.0
H287 H 0.8384 0.43605 0.42767 0.0
C288 C 0.89919 0.34462 0.42078 0.0
N289 N 0.88659 0.36382 0.42666 0.0
C290 C 0.92611 0.34375 0.42181 0.0
C291 C 0.92646 0.38247 0.43468 0.0
C292 C 0.89961 0.38258 0.43337 0.0
C293 C 0.94011 0.3629 0.42873 0.0
H294 H 0.88839 0.33009 0.41496 0.0
H295 H 0.88904 0.39768 0.43767 0.0
C296 C 0.76499 0.38066 0.40503 0.0
N297 N 0.72392 0.39286 0.37474 0.0
C298 C 0.75234 0.36467 0.39031 0.0
C299 C 0.75668 0.40285 0.40442 0.0
C300 C 0.73166 0.37118 0.37508 0.0
C301 C 0.73588 0.40868 0.38897 0.0
C302 C 0.8256 0.31973 0.40756 0.0
C303 C 0.80597 0.31151 0.39201 0.0
C304 C 0.8384 0.30525 0.42404 0.0
C305 C 0.79942 0.28893 0.39327 0.0
C306 C 0.83124 0.28278 0.42479 0.0
N307 N 0.81206 0.27516 0.40953 0.0
C308 C 0.82194 0.3539 0.3465 0.0
C309 C 0.79298 0.38444 0.34741 0.0
C310 C 0.82151 0.35367 0.32015 0.0
N311 N 0.80782 0.3691 0.35964 0.0
C312 C 0.79176 0.38465 0.32098 0.0
C313 C 0.80645 0.3693 0.30703 0.0
H314 H 0.83428 0.34235 0.35649 0.0
H315 H 0.78287 0.39709 0.35801 0.0
C316 C 0.80184 0.32013 0.47508 0.0
N317 N 0.7911 0.32802 0.45341 0.0
C318 C 0.79087 0.30199 0.48769 0.0
C319 C 0.7574 0.30082 0.45596 0.0
C320 C 0.76909 0.31896 0.44392 0.0
C321 C 0.76846 0.29195 0.47803 0.0
H322 H 0.81915 0.32772 0.48244 0.0
H323 H 0.76092 0.32546 0.42667 0.0
O324 O 0.83946 0.39299 0.40597 0.0
O325 O 0.8302 0.37094 0.45701 0.0
O326 O 0.78509 0.37462 0.42031 0.0
O327 O 0.83179 0.34193 0.40709 0.0
H328 H 0.87595 0.37784 0.37552 0.0
H329 H 0.81736 0.42811 0.38472 0.0
H330 H 0.8865 0.39394 0.33353 0.0
H331 H 0.82906 0.44341 0.34264 0.0
H332 H 0.89805 0.34209 0.50064 0.0
H333 H 0.8446 0.40791 0.48072 0.0
H334 H 0.86148 0.33809 0.47083 0.0
H335 H 0.88159 0.4107 0.51018 0.0
H336 H 0.83533 0.47232 0.44907 0.0
H337 H 0.77292 0.44596 0.49439 0.0
H338 H 0.93585 0.32843 0.41667 0.0
H339 H 0.93642 0.39754 0.44038 0.0
H340 H 0.75865 0.34748 0.39032 0.0
H341 H 0.76621 0.41546 0.41566 0.0
H342 H 0.72181 0.359 0.36347 0.0
H343 H 0.72929 0.4258 0.38827 0.0
H344 H 0.79567 0.3225 0.37932 0.0
H345 H 0.85341 0.31134 0.43643 0.0
H346 H 0.78419 0.28237 0.38144 0.0
H347 H 0.84084 0.27144 0.43761 0.0
H348 H 0.8331 0.34151 0.31011 0.0
H349 H 0.78028 0.39725 0.31156 0.0
H350 H 0.79981 0.29593 0.50487 0.0
H351 H 0.74027 0.29349 0.44771 0.0
Li352 Li 0.81433 0.65358 0.93947 0.0
Li353 Li 0.82067 0.61447 0.93608 0.0
Li354 Li 0.85812 0.63871 0.92824 0.0
Li355 Li 0.82103 0.63572 0.89812 0.0
C356 C 0.83529 0.62527 0.98277 0.0
N357 N 0.82893 0.6031 0.02814 0.0
C358 C 0.81364 0.62948 0.99778 0.0
C359 C 0.85377 0.60988 0.99089 0.0
C360 C 0.81079 0.61811 0.02067 0.0
C361 C 0.85016 0.59879 0.01385 0.0
C362 C 0.77077 0.61964 0.92796 0.0
C363 C 0.74491 0.58653 0.92259 0.0
N364 N 0.72874 0.59379 0.94109 0.0
C365 C 0.75388 0.62681 0.94688 0.0
C366 C 0.76623 0.59939 0.91563 0.0
C367 C 0.73273 0.61349 0.95325 0.0
C368 C 0.77609 0.68694 0.94683 0.0
N369 N 0.79808 0.67796 0.95642 0.0
C370 C 0.79905 0.70525 0.98937 0.0
C371 C 0.80966 0.6867 0.97723 0.0
C372 C 0.77635 0.715 0.9799 0.0
C373 C 0.76484 0.70554 0.95833 0.0
H374 H 0.76753 0.67983 0.93001 0.0
H375 H 0.82732 0.67936 0.98426 0.0
C376 C 0.83012 0.56902 0.94451 0.0
N377 N 0.81369 0.58571 0.9511 0.0
C378 C 0.82876 0.54828 0.95643 0.0
C379 C 0.79327 0.562 0.98156 0.0
C380 C 0.79532 0.58251 0.96912 0.0
C381 C 0.81043 0.54464 0.97554 0.0
H382 H 0.84488 0.57199 0.9305 0.0
H383 H 0.78283 0.59607 0.97458 0.0
C384 C 0.83357 0.68515 0.91048 0.0
N385 N 0.82169 0.73009 0.91079 0.0
C386 C 0.81443 0.69346 0.89444 0.0
C387 C 0.84665 0.69967 0.9267 0.0
C388 C 0.80874 0.71624 0.89484 0.0
C389 C 0.84035 0.72234 0.92659 0.0
C390 C 0.85319 0.60378 0.88615 0.0
C391 C 0.87398 0.61289 0.87288 0.0
C392 C 0.83895 0.58636 0.87548 0.0
C393 C 0.88006 0.60449 0.84897 0.0
C394 C 0.84566 0.57843 0.85154 0.0
N395 N 0.86588 0.58759 0.83888 0.0
C396 C 0.9077 0.62274 0.93749 0.0
C397 C 0.90689 0.66039 0.92379 0.0
C398 C 0.9346 0.62289 0.93804 0.0
N399 N 0.89448 0.64131 0.93051 0.0
C400 C 0.93383 0.6613 0.92409 0.0
C401 C 0.94805 0.64231 0.93112 0.0
H402 H 0.8973 0.60765 0.94216 0.0
H403 H 0.89593 0.67472 0.91762 0.0
C404 C 0.79644 0.62371 0.85119 0.0
N405 N 0.81456 0.6367 0.86253 0.0
C406 C 0.7943 0.62332 0.82481 0.0
C407 C 0.82891 0.65024 0.82244 0.0
C408 C 0.83051 0.64995 0.84875 0.0
C409 C 0.81091 0.63653 0.81002 0.0
H410 H 0.78414 0.61316 0.86252 0.0
H411 H 0.84489 0.65999 0.85823 0.0
O412 O 0.83822 0.63598 0.96012 0.0
O413 O 0.79141 0.63256 0.92131 0.0
O414 O 0.8388 0.66278 0.91096 0.0
O415 O 0.84634 0.61229 0.90917 0.0
H416 H 0.79897 0.6411 0.99164 0.0
H417 H 0.87058 0.60637 0.97948 0.0
H418 H 0.79406 0.62111 0.0324 0.0
H419 H 0.86421 0.58672 0.02028 0.0
H420 H 0.74126 0.57074 0.91334 0.0
H421 H 0.75714 0.64239 0.95668 0.0
H422 H 0.77926 0.59348 0.90115 0.0
H423 H 0.71955 0.61879 0.96792 0.0
H424 H 0.80845 0.71177 0.00608 0.0
H425 H 0.74759 0.71268 0.95011 0.0
H426 H 0.8422 0.53532 0.95095 0.0
H427 H 0.77908 0.56007 0.99642 0.0
H428 H 0.80384 0.68239 0.88204 0.0
H429 H 0.86113 0.69344 0.93963 0.0
H430 H 0.79391 0.7229 0.88259 0.0
H431 H 0.85018 0.73375 0.93917 0.0
H432 H 0.88505 0.62651 0.88077 0.0
H433 H 0.82272 0.57921 0.88549 0.0
H434 H 0.89599 0.61147 0.83839 0.0
H435 H 0.83471 0.56504 0.84297 0.0
H436 H 0.94474 0.60792 0.94376 0.0
H437 H 0.94342 0.67649 0.91819 0.0
H438 H 0.78033 0.6123 0.81613 0.0
H439 H 0.8418 0.66103 0.81196 0.0
Li440 Li 0.17911 0.39125 0.4375 0.0
Li441 Li 0.1857 0.35217 0.44076 0.0
Li442 Li 0.1792 0.37016 0.39946 0.0
Li443 Li 0.1419 0.36688 0.42924 0.0
C444 C 0.22899 0.38647 0.42992 0.0
N445 N 0.27041 0.41273 0.44389 0.0
C446 C 0.24556 0.37948 0.4492 0.0
C447 C 0.23355 0.40675 0.41766 0.0
C448 C 0.2664 0.39301 0.45599 0.0
C449 C 0.25455 0.41982 0.42504 0.0
C450 C 0.16387 0.38017 0.48405 0.0
C451 C 0.14827 0.40657 0.51488 0.0
N452 N 0.16903 0.40206 0.52975 0.0
C453 C 0.18502 0.37575 0.49965 0.0
C454 C 0.14527 0.39562 0.49175 0.0
C455 C 0.18728 0.38699 0.52269 0.0
C456 C 0.17001 0.43688 0.44548 0.0
N457 N 0.18585 0.41998 0.45272 0.0
C458 C 0.20541 0.44346 0.48396 0.0
C459 C 0.20355 0.42298 0.47142 0.0
C460 C 0.18884 0.46105 0.47726 0.0
C461 C 0.17128 0.45763 0.4574 0.0
H462 H 0.15579 0.43409 0.43089 0.0
H463 H 0.21563 0.40928 0.47731 0.0
C464 C 0.22424 0.31914 0.4483 0.0
N465 N 0.20198 0.3278 0.45766 0.0
C466 C 0.23554 0.30052 0.4597 0.0
C467 C 0.20081 0.30013 0.49017 0.0
C468 C 0.19016 0.31871 0.47814 0.0
C469 C 0.22378 0.2907 0.48093 0.0
H470 H 0.23299 0.32652 0.43173 0.0
H471 H 0.17229 0.3258 0.48498 0.0
C472 C 0.14689 0.40188 0.3873 0.0
N473 N 0.13438 0.41791 0.33991 0.0
C474 C 0.12608 0.3928 0.37402 0.0
C475 C 0.16125 0.41919 0.37657 0.0
C476 C 0.12009 0.40112 0.35006 0.0
C477 C 0.15464 0.42705 0.35257 0.0
C478 C 0.16725 0.32068 0.41114 0.0
C479 C 0.1868 0.31294 0.39522 0.0
C480 C 0.15424 0.30569 0.42686 0.0
C481 C 0.19297 0.29025 0.39522 0.0
C482 C 0.16103 0.28313 0.42635 0.0
N483 N 0.18008 0.27594 0.41067 0.0
C484 C 0.2043 0.3821 0.35272 0.0
C485 C 0.16992 0.35618 0.35002 0.0
C486 C 0.20661 0.38248 0.32635 0.0
N487 N 0.18594 0.36927 0.36392 0.0
C488 C 0.17168 0.3559 0.32372 0.0
C489 C 0.18993 0.36945 0.31144 0.0
H490 H 0.21667 0.39251 0.36416 0.0
H491 H 0.15536 0.34626 0.3594 0.0
C492 C 0.09219 0.38274 0.43781 0.0
N493 N 0.10554 0.36412 0.43124 0.0
C494 C 0.0653 0.38252 0.43813 0.0
C495 C 0.06632 0.34393 0.42484 0.0
C496 C 0.09326 0.34491 0.42474 0.0
C497 C 0.05197 0.36297 0.43142 0.0
H498 H 0.10249 0.39792 0.44231 0.0
H499 H 0.10433 0.33054 0.41891 0.0
O500 O 0.20863 0.37338 0.42289 0.0
O501 O 0.1615 0.36956 0.46128 0.0
O502 O 0.15365 0.39343 0.41038 0.0
O503 O 0.16153 0.34295 0.41202 0.0
H504 H 0.24227 0.36389 0.45896 0.0
H505 H 0.22077 0.41251 0.40288 0.0
H506 H 0.27933 0.38785 0.47094 0.0
H507 H 0.2582 0.43563 0.41585 0.0
H508 H 0.13412 0.41869 0.521 0.0
H509 H 0.19978 0.36407 0.49386 0.0
H510 H 0.12883 0.39929 0.47989 0.0
H511 H 0.20362 0.38383 0.53488 0.0
H512 H 0.219 0.44518 0.49938 0.0
H513 H 0.15836 0.47076 0.4513 0.0
H514 H 0.25301 0.29363 0.45165 0.0
H515 H 0.19121 0.29331 0.50662 0.0
H516 H 0.11492 0.37925 0.38195 0.0
H517 H 0.1775 0.42631 0.38656 0.0
H518 H 0.10415 0.39416 0.33949 0.0
H519 H 0.16567 0.44035 0.34395 0.0
H520 H 0.19735 0.32438 0.38323 0.0
H521 H 0.13944 0.31147 0.4397 0.0
H522 H 0.20812 0.28403 0.38306 0.0
H523 H 0.15125 0.27136 0.43855 0.0
H524 H 0.22079 0.39337 0.31777 0.0
H525 H 0.15872 0.34524 0.31315 0.0
H526 H 0.05505 0.39753 0.44351 0.0
H527 H 0.05684 0.32863 0.41912 0.0
Li528 Li 0.8204 0.37034 0.10928 0.0
Li529 Li 0.85764 0.36734 0.07938 0.0
Li530 Li 0.82027 0.39161 0.07135 0.0
Li531 Li 0.8139 0.35251 0.06787 0.0
C532 C 0.85253 0.40224 0.12148 0.0
N533 N 0.865 0.41836 0.16884 0.0
C534 C 0.8733 0.39315 0.13481 0.0
C535 C 0.8382 0.4196 0.13214 0.0
C536 C 0.87927 0.40152 0.15875 0.0
C537 C 0.8448 0.4275 0.15613 0.0
C538 C 0.83266 0.32095 0.09717 0.0
C539 C 0.83911 0.28357 0.0815 0.0
N540 N 0.8202 0.27612 0.09719 0.0
C541 C 0.81325 0.31295 0.1131 0.0
C542 C 0.84571 0.30617 0.08122 0.0
C543 C 0.80727 0.29021 0.11287 0.0
C544 C 0.79543 0.38215 0.15611 0.0
N545 N 0.81374 0.36931 0.14484 0.0
C546 C 0.82798 0.3558 0.18497 0.0
C547 C 0.82974 0.35615 0.15867 0.0
C548 C 0.80977 0.36934 0.19733 0.0
C549 C 0.79312 0.38246 0.18247 0.0
H550 H 0.78309 0.39262 0.14472 0.0
H551 H 0.84426 0.34624 0.14924 0.0
C552 C 0.9073 0.38336 0.07068 0.0
N553 N 0.89401 0.36472 0.07731 0.0
C554 C 0.9342 0.38319 0.07032 0.0
C555 C 0.9333 0.34463 0.08372 0.0
C556 C 0.90635 0.34556 0.08384 0.0
C557 C 0.94758 0.36369 0.07706 0.0
H558 H 0.89695 0.3985 0.06615 0.0
H559 H 0.89533 0.33117 0.08973 0.0
C560 C 0.77034 0.38651 0.07921 0.0
N561 N 0.72849 0.4125 0.06589 0.0
C562 C 0.75355 0.37943 0.06015 0.0
C563 C 0.76579 0.40675 0.09157 0.0
C564 C 0.73249 0.39281 0.0537 0.0
C565 C 0.74456 0.41967 0.08452 0.0
C566 C 0.83529 0.38088 0.02475 0.0
C567 C 0.81386 0.37667 0.00945 0.0
C568 C 0.85385 0.39632 0.01693 0.0
C569 C 0.81129 0.3881 0.98656 0.0
C570 C 0.85053 0.40747 0.99397 0.0
N571 N 0.8295 0.40316 0.97939 0.0
C572 C 0.8297 0.4371 0.06309 0.0
C573 C 0.79519 0.42355 0.03812 0.0
C574 C 0.8284 0.45785 0.05118 0.0
N575 N 0.81339 0.42037 0.05632 0.0
C576 C 0.79321 0.44407 0.02568 0.0
C577 C 0.81025 0.46146 0.03188 0.0
H578 H 0.84433 0.43415 0.07724 0.0
H579 H 0.7828 0.40996 0.03252 0.0
C580 C 0.77559 0.31927 0.06018 0.0
N581 N 0.79772 0.32817 0.0508 0.0
C582 C 0.76437 0.3007 0.04859 0.0
C583 C 0.79889 0.30086 0.01788 0.0
C584 C 0.80946 0.31938 0.03011 0.0
C585 C 0.77605 0.29119 0.02714 0.0
H586 H 0.76689 0.32642 0.07691 0.0
H587 H 0.82722 0.32666 0.02324 0.0
O588 O 0.84579 0.39376 0.09841 0.0
O589 O 0.83818 0.34326 0.09651 0.0
O590 O 0.79091 0.37353 0.08594 0.0
O591 O 0.83795 0.37011 0.0474 0.0
H592 H 0.88443 0.37957 0.12692 0.0
H593 H 0.822 0.42674 0.12209 0.0
H594 H 0.89517 0.39455 0.16937 0.0
H595 H 0.83379 0.44085 0.16469 0.0
H596 H 0.84892 0.27197 0.06913 0.0
H597 H 0.80267 0.32421 0.12527 0.0
H598 H 0.86039 0.31216 0.06837 0.0
H599 H 0.79224 0.2838 0.12504 0.0
H600 H 0.84091 0.34508 0.1955 0.0
H601 H 0.77898 0.39335 0.1911 0.0
H602 H 0.9444 0.39822 0.06489 0.0
H603 H 0.94282 0.32937 0.08947 0.0
H604 H 0.75683 0.36387 0.05032 0.0
H605 H 0.77874 0.41258 0.10616 0.0
H606 H 0.71938 0.38759 0.03893 0.0
H607 H 0.74091 0.43545 0.0938 0.0
H608 H 0.79913 0.365 0.01535 0.0
H609 H 0.8705 0.39982 0.02857 0.0
H610 H 0.79473 0.38511 0.9746 0.0
H611 H 0.86464 0.41958 0.98776 0.0
H612 H 0.84174 0.47083 0.0568 0.0
H613 H 0.77917 0.44597 0.01068 0.0
H614 H 0.74701 0.29361 0.05665 0.0
H615 H 0.80843 0.29429 1.00127 0.0
Li616 Li 0.18034 0.63699 0.61003 0.0
Li617 Li 0.14387 0.64175 0.58177 0.0
Li618 Li 0.1803 0.61489 0.57208 0.0
Li619 Li 0.18771 0.65542 0.5688 0.0
C620 C 0.14904 0.60472 0.62231 0.0
N621 N 0.13916 0.58645 0.66924 0.0
C622 C 0.12934 0.61341 0.6374 0.0
C623 C 0.16359 0.58663 0.63095 0.0
C624 C 0.12468 0.60397 0.66111 0.0
C625 C 0.15831 0.57765 0.65476 0.0
C626 C 0.15543 0.68636 0.59221 0.0
C627 C 0.13678 0.71243 0.56267 0.0
N628 N 0.13657 0.72834 0.58101 0.0
C629 C 0.15512 0.70299 0.61074 0.0
C630 C 0.14625 0.69112 0.56795 0.0
C631 C 0.14547 0.7241 0.60471 0.0
C632 C 0.20514 0.62386 0.65656 0.0
N633 N 0.18754 0.63754 0.64546 0.0
C634 C 0.17409 0.6513 0.68574 0.0
C635 C 0.17235 0.65127 0.65944 0.0
C636 C 0.1915 0.63688 0.69791 0.0
C637 C 0.20743 0.62324 0.68292 0.0
H638 H 0.21679 0.61291 0.64504 0.0
H639 H 0.1583 0.66177 0.65014 0.0
C640 C 0.09435 0.62885 0.56726 0.0
N641 N 0.10741 0.64507 0.57983 0.0
C642 C 0.06745 0.62927 0.56615 0.0
C643 C 0.0679 0.6631 0.59101 0.0
C644 C 0.09479 0.66192 0.59181 0.0
C645 C 0.0538 0.64655 0.57818 0.0
H646 H 0.10489 0.61539 0.55838 0.0
H647 H 0.10547 0.67427 0.60234 0.0
C648 C 0.23108 0.62115 0.57954 0.0
N649 N 0.27444 0.59733 0.56571 0.0
C650 C 0.24754 0.6294 0.56082 0.0
C651 C 0.23673 0.60086 0.59134 0.0
C652 C 0.26937 0.61709 0.55408 0.0
C653 C 0.25873 0.58904 0.58403 0.0
C654 C 0.15803 0.63593 0.5244 0.0
C655 C 0.17623 0.62673 0.50796 0.0
C656 C 0.13471 0.64396 0.51474 0.0
C657 C 0.17077 0.62559 0.48213 0.0
C658 C 0.12995 0.64252 0.48879 0.0
N659 N 0.14792 0.63342 0.47316 0.0
C660 C 0.16787 0.57043 0.56192 0.0
C661 C 0.2057 0.58183 0.54046 0.0
C662 C 0.16885 0.54954 0.55029 0.0
N663 N 0.18601 0.58616 0.55677 0.0
C664 C 0.20736 0.56117 0.52829 0.0
C665 C 0.18857 0.54476 0.53288 0.0
H666 H 0.15226 0.57427 0.57475 0.0
H667 H 0.21978 0.59456 0.53628 0.0
C668 C 0.21362 0.69666 0.56581 0.0
N669 N 0.20506 0.67926 0.55159 0.0
C670 C 0.22492 0.71524 0.55429 0.0
C671 C 0.21916 0.69737 0.51375 0.0
C672 C 0.2078 0.67924 0.52604 0.0
C673 C 0.22768 0.71581 0.52787 0.0
H674 H 0.21135 0.69624 0.58613 0.0
H675 H 0.20098 0.66531 0.51508 0.0
O676 O 0.15445 0.61421 0.59943 0.0
O677 O 0.16514 0.6657 0.59781 0.0
O678 O 0.20976 0.63305 0.58652 0.0
O679 O 0.16279 0.6369 0.54985 0.0
H680 H 0.11801 0.62749 0.631 0.0
H681 H 0.17897 0.57979 0.6195 0.0
H682 H 0.10963 0.61063 0.67309 0.0
H683 H 0.16951 0.56374 0.66178 0.0
H684 H 0.12963 0.71633 0.54398 0.0
H685 H 0.16234 0.69965 0.62956 0.0
H686 H 0.14652 0.67857 0.55333 0.0
H687 H 0.14509 0.73712 0.61887 0.0
H688 H 0.16172 0.6624 0.69641 0.0
H689 H 0.22093 0.6117 0.69145 0.0
H690 H 0.05748 0.61588 0.55649 0.0
H691 H 0.0583 0.67683 0.60042 0.0
H692 H 0.24349 0.64512 0.55158 0.0
H693 H 0.22408 0.59416 0.6057 0.0
H694 H 0.28225 0.62324 0.53959 0.0
H695 H 0.26325 0.57324 0.59287 0.0
H696 H 0.19463 0.62104 0.51496 0.0
H697 H 0.12044 0.65132 0.52709 0.0
H698 H 0.18477 0.61859 0.4692 0.0
H699 H 0.11197 0.64865 0.48109 0.0
H700 H 0.15414 0.53733 0.55476 0.0
H701 H 0.22273 0.5584 0.5148 0.0
H702 H 0.23151 0.72897 0.56594 0.0
H703 H 0.22069 0.69717 0.49333 0.0
Li704 Li 0.68564 0.86991 0.11141 0.0
Li705 Li 0.69147 0.85197 0.07182 0.0
Li706 Li 0.68556 0.89389 0.07377 0.0
Li707 Li 0.64976 0.8665 0.08238 0.0
C708 C 0.73477 0.88128 0.10212 0.0
N709 N 0.77584 0.89347 0.13242 0.0
C710 C 0.74743 0.86527 0.1168 0.0
C711 C 0.74307 0.90347 0.10278 0.0
C712 C 0.76812 0.87178 0.13204 0.0
C713 C 0.76386 0.9093 0.11823 0.0
C714 C 0.6744 0.82027 0.09961 0.0
C715 C 0.66903 0.78327 0.0824 0.0
N716 N 0.68808 0.77572 0.09787 0.0
C717 C 0.69389 0.81213 0.11536 0.0
C718 C 0.6618 0.80572 0.08304 0.0
C719 C 0.70051 0.78955 0.11421 0.0
C720 C 0.6776 0.85456 0.16056 0.0
N721 N 0.69183 0.86973 0.14746 0.0
C722 C 0.70802 0.8851 0.18616 0.0
C723 C 0.70677 0.88497 0.15974 0.0
C724 C 0.69327 0.86975 0.20007 0.0
C725 C 0.67807 0.85425 0.18691 0.0
H726 H 0.6652 0.84309 0.15053 0.0
H727 H 0.71696 0.89759 0.14918 0.0
C728 C 0.69836 0.82093 0.03183 0.0
N729 N 0.70889 0.82859 0.0537 0.0
C730 C 0.70934 0.80281 0.01918 0.0
C731 C 0.74239 0.8012 0.05131 0.0
C732 C 0.7307 0.81933 0.06338 0.0
C733 C 0.73154 0.79255 0.02902 0.0
H734 H 0.68123 0.82868 0.02432 0.0
H735 H 0.73871 0.82565 0.08078 0.0
C736 C 0.65373 0.90266 0.12383 0.0
N737 N 0.64178 0.92025 0.17063 0.0
C738 C 0.63412 0.89313 0.13839 0.0
C739 C 0.66717 0.92119 0.13296 0.0
C740 C 0.62841 0.90225 0.16204 0.0
C741 C 0.66084 0.92984 0.15669 0.0
C742 C 0.64963 0.8731 0.03329 0.0
C743 C 0.64381 0.89363 0.02212 0.0
C744 C 0.63469 0.85436 0.0274 0.0
C745 C 0.623 0.89512 0.00541 0.0
C746 C 0.61402 0.85655 0.01065 0.0
N747 N 0.60864 0.87671 1.0001 0.0
C748 C 0.71074 0.92464 0.04081 0.0
C749 C 0.67606 0.93918 0.06491 0.0
C750 C 0.71313 0.94484 0.02772 0.0
N751 N 0.69222 0.92217 0.05879 0.0
C752 C 0.67777 0.95959 0.05236 0.0
C753 C 0.69615 0.96252 0.03311 0.0
H754 H 0.72306 0.91069 0.03607 0.0
H755 H 0.6612 0.93663 0.07895 0.0
C756 C 0.60103 0.84459 0.08642 0.0
N757 N 0.61325 0.86391 0.08026 0.0
C758 C 0.57417 0.84321 0.08507 0.0
C759 C 0.57303 0.88169 0.07137 0.0
C760 C 0.59986 0.88234 0.07308 0.0
C761 C 0.5598 0.86193 0.07742 0.0
H762 H 0.61212 0.83032 0.09253 0.0
H763 H 0.61011 0.8976 0.06875 0.0
O764 O 0.71468 0.87525 0.08683 0.0
O765 O 0.66813 0.84245 0.09998 0.0
O766 O 0.66016 0.89352 0.10101 0.0
O767 O 0.66966 0.87139 0.05005 0.0
H768 H 0.74113 0.84809 0.11676 0.0
H769 H 0.73352 0.91609 0.09157 0.0
H770 H 0.77798 0.85959 0.14362 0.0
H771 H 0.77045 0.92642 0.11896 0.0
H772 H 0.65959 0.77188 0.06952 0.0
H773 H 0.70404 0.82315 0.12812 0.0
H774 H 0.6469 0.81176 0.07048 0.0
H775 H 0.71565 0.78305 0.12621 0.0
H776 H 0.71961 0.8976 0.19563 0.0
H777 H 0.66643 0.84211 0.1969 0.0
H778 H 0.70057 0.79693 1.00183 0.0
H779 H 0.75935 0.7937 0.0597 0.0
H780 H 0.62367 0.87867 0.13164 0.0
H781 H 0.6826 0.92859 0.12202 0.0
H782 H 0.61341 0.89497 0.17361 0.0
H783 H 0.67119 0.94409 0.16409 0.0
H784 H 0.65514 0.9083 0.0263 0.0
H785 H 0.63865 0.8384 0.03609 0.0
H786 H 0.61825 0.91093 0.99671 0.0
H787 H 0.60216 0.84224 0.00614 0.0
H788 H 0.72739 0.94627 0.01286 0.0
H789 H 0.6645 0.97282 0.05738 0.0
H790 H 0.56476 0.82763 0.08982 0.0
H791 H 0.56273 0.89663 0.06585 0.0
Li792 Li 0.30855 0.15373 0.57285 0.0
Li793 Li 0.31414 0.13623 0.61265 0.0
Li794 Li 0.35008 0.13901 0.58358 0.0
Li795 Li 0.31399 0.11182 0.57537 0.0
C796 C 0.32597 0.18562 0.6001 0.0
N797 N 0.31273 0.23024 0.59747 0.0
C798 C 0.3064 0.19411 0.61551 0.0
C799 C 0.33888 0.19986 0.58341 0.0
C800 C 0.3 0.21672 0.61391 0.0
C801 C 0.33186 0.22235 0.58232 0.0
C802 C 0.26495 0.12503 0.60353 0.0
C803 C 0.23559 0.09733 0.61988 0.0
N804 N 0.22384 0.11333 0.63402 0.0
C805 C 0.25251 0.14121 0.61815 0.0
C806 C 0.2564 0.10291 0.60433 0.0
C807 C 0.2318 0.13495 0.63349 0.0
C808 C 0.30212 0.18495 0.53288 0.0
N809 N 0.29129 0.17705 0.55451 0.0
C810 C 0.25753 0.20416 0.55177 0.0
C811 C 0.26921 0.18607 0.56388 0.0
C812 C 0.26868 0.21305 0.52975 0.0
C813 C 0.29116 0.20306 0.52021 0.0
H814 H 0.31949 0.1774 0.52564 0.0
H815 H 0.26097 0.17956 0.58109 0.0
C816 C 0.32204 0.15208 0.66163 0.0
N817 N 0.3079 0.13678 0.64866 0.0
C818 C 0.32164 0.15251 0.68798 0.0
C819 C 0.29187 0.12151 0.68746 0.0
C820 C 0.29306 0.12154 0.66104 0.0
C821 C 0.30659 0.13697 0.70125 0.0
H822 H 0.33437 0.16355 0.65152 0.0
H823 H 0.28294 0.10881 0.65056 0.0
C824 C 0.35019 0.13179 0.53464 0.0
N825 N 0.39118 0.12735 0.5016 0.0
C826 C 0.35576 0.11106 0.52382 0.0
C827 C 0.36538 0.1503 0.52849 0.0
C828 C 0.37657 0.10916 0.50718 0.0
C829 C 0.38606 0.1477 0.51182 0.0
C830 C 0.34612 0.10365 0.6256 0.0
C831 C 0.3658 0.11356 0.63973 0.0
C832 C 0.33293 0.08521 0.63533 0.0
C833 C 0.37185 0.10492 0.66354 0.0
C834 C 0.33959 0.07705 0.65919 0.0
N835 N 0.35872 0.08701 0.67269 0.0
C836 C 0.39927 0.16035 0.58734 0.0
C837 C 0.39966 0.12234 0.57494 0.0
C838 C 0.4262 0.16119 0.58639 0.0
N839 N 0.38666 0.14115 0.58152 0.0
C840 C 0.42653 0.12243 0.5737 0.0
C841 C 0.4402 0.14201 0.5796 0.0
H842 H 0.38848 0.17491 0.59309 0.0
H843 H 0.38909 0.10723 0.57071 0.0
C844 C 0.28886 0.08089 0.54257 0.0
N845 N 0.30703 0.08339 0.56088 0.0
C846 C 0.28637 0.06053 0.52982 0.0
C847 C 0.32083 0.04566 0.55557 0.0
C848 C 0.3227 0.06625 0.56771 0.0
C849 C 0.30288 0.0427 0.53594 0.0
H850 H 0.27694 0.09495 0.53727 0.0
H851 H 0.33731 0.06881 0.58199 0.0
O852 O 0.332 0.1634 0.60088 0.0
O853 O 0.28507 0.13082 0.58815 0.0
O854 O 0.33013 0.13391 0.55132 0.0
O855 O 0.33936 0.11231 0.60264 0.0
H856 H 0.29602 0.18333 0.62836 0.0
H857 H 0.35384 0.19355 0.5711 0.0
H858 H 0.2848 0.22348 0.62565 0.0
H859 H 0.34155 0.2335 0.56935 0.0
H860 H 0.22882 0.08027 0.62073 0.0
H861 H 0.259 0.15834 0.618 0.0
H862 H 0.26577 0.09016 0.59316 0.0
H863 H 0.22211 0.14727 0.64502 0.0
H864 H 0.24034 0.21146 0.55993 0.0
H865 H 0.30018 0.20914 0.50307 0.0
H866 H 0.33324 0.16473 0.69789 0.0
H867 H 0.28041 0.10898 0.69701 0.0
H868 H 0.34424 0.09656 0.52823 0.0
H869 H 0.36163 0.16641 0.53693 0.0
H870 H 0.38114 0.09319 0.49874 0.0
H871 H 0.3981 0.16184 0.50711 0.0
H872 H 0.37604 0.12796 0.63255 0.0
H873 H 0.31742 0.07753 0.62475 0.0
H874 H 0.38691 0.11252 0.67477 0.0
H875 H 0.32944 0.06288 0.66704 0.0
H876 H 0.43595 0.17652 0.59149 0.0
H877 H 0.43648 0.10733 0.56811 0.0
H878 H 0.27247 0.05909 0.51463 0.0
H879 H 0.33373 0.03233 0.56115 0.0
Li880 Li 0.68548 0.11248 0.93264 0.0
Li881 Li 0.64981 0.13991 0.92365 0.0
Li882 Li 0.68593 0.13639 0.89496 0.0
Li883 Li 0.69144 0.15441 0.93455 0.0
C884 C 0.65395 0.10376 0.88229 0.0
N885 N 0.64212 0.08627 0.83541 0.0
C886 C 0.63461 0.1135 0.86757 0.0
C887 C 0.66718 0.08507 0.87328 0.0
C888 C 0.62895 0.10442 0.84388 0.0
C889 C 0.66092 0.07648 0.8495 0.0
C890 C 0.64925 0.13336 0.97278 0.0
C891 C 0.6135 0.14992 0.99518 0.0
N892 N 0.60802 0.12976 0.00567 0.0
C893 C 0.64332 0.11282 0.98389 0.0
C894 C 0.63431 0.1521 0.97858 0.0
C895 C 0.62239 0.11134 1.00044 0.0
C896 C 0.71047 0.08185 0.96584 0.0
N897 N 0.69206 0.08424 0.94773 0.0
C898 C 0.67776 0.04677 0.9541 0.0
C899 C 0.67602 0.06717 0.94153 0.0
C900 C 0.69605 0.04392 0.97345 0.0
C901 C 0.7129 0.06167 0.97894 0.0
H902 H 0.72271 0.09585 0.97063 0.0
H903 H 0.66124 0.06966 0.92739 0.0
C904 C 0.60112 0.16191 0.91947 0.0
N905 N 0.61328 0.14255 0.92556 0.0
C906 C 0.57426 0.16337 0.9209 0.0
C907 C 0.57301 0.12486 0.93448 0.0
C908 C 0.59984 0.12414 0.9327 0.0
C909 C 0.55985 0.14468 0.92856 0.0
H910 H 0.61224 0.17618 0.91339 0.0
H911 H 0.61004 0.10885 0.93699 0.0
C912 C 0.735 0.12507 0.90475 0.0
N913 N 0.77639 0.11293 0.87487 0.0
C914 C 0.74771 0.14107 0.89011 0.0
C915 C 0.74341 0.10291 0.90428 0.0
C916 C 0.76857 0.13459 0.87508 0.0
C917 C 0.76437 0.09711 0.88904 0.0
C918 C 0.67465 0.1861 0.90664 0.0
C919 C 0.69433 0.19429 0.89114 0.0
C920 C 0.66189 0.2006 0.92315 0.0
C921 C 0.70095 0.21686 0.89245 0.0
C922 C 0.66913 0.22305 0.92395 0.0
N923 N 0.68834 0.23064 0.90871 0.0
C924 C 0.67928 0.15192 0.84553 0.0
C925 C 0.70755 0.12095 0.84712 0.0
C926 C 0.6808 0.15244 0.81922 0.0
N927 N 0.69268 0.13646 0.859 0.0
C928 C 0.70978 0.12095 0.82076 0.0
C929 C 0.69621 0.13682 0.80639 0.0
H930 H 0.66673 0.1635 0.85521 0.0
H931 H 0.71716 0.10816 0.85795 0.0
C932 C 0.69806 0.1855 0.97455 0.0
N933 N 0.70877 0.17778 0.95278 0.0
C934 C 0.709 0.20359 0.98728 0.0
C935 C 0.74237 0.20505 0.95547 0.0
C936 C 0.73072 0.18696 0.94332 0.0
C937 C 0.73134 0.21376 0.97765 0.0
H938 H 0.68082 0.17781 0.9819 0.0
H939 H 0.73888 0.18059 0.926 0.0
O940 O 0.66031 0.11283 0.90517 0.0
O941 O 0.66941 0.13505 0.95616 0.0
O942 O 0.71472 0.13109 0.91982 0.0
O943 O 0.66836 0.16392 0.90613 0.0
H944 H 0.62433 0.12807 0.87423 0.0
H945 H 0.68241 0.07751 0.88435 0.0
H946 H 0.61414 0.11186 0.8322 0.0
H947 H 0.67111 0.06212 0.84219 0.0
H948 H 0.60164 0.16424 0.99962 0.0
H949 H 0.65465 0.09815 0.97977 0.0
H950 H 0.63835 0.16807 0.96994 0.0
H951 H 0.61755 0.09553 0.0091 0.0
H952 H 0.66459 0.03348 0.949 0.0
H953 H 0.72708 0.0603 0.99389 0.0
H954 H 0.56491 0.17899 0.91625 0.0
H955 H 0.56267 0.10994 0.94001 0.0
H956 H 0.74133 0.15823 0.89 0.0
H957 H 0.73382 0.0903 0.91547 0.0
H958 H 0.77847 0.14677 0.86353 0.0
H959 H 0.77104 0.08001 0.88845 0.0
H960 H 0.70462 0.1833 0.87845 0.0
H961 H 0.64686 0.19453 0.93553 0.0
H962 H 0.71622 0.22338 0.88064 0.0
H963 H 0.65955 0.2344 0.93678 0.0
H964 H 0.66935 0.16458 0.80903 0.0
H965 H 0.72189 0.10855 0.81178 0.0
H966 H 0.70008 0.20951 0.00454 0.0
H967 H 0.75945 0.21248 0.94724 0.0
Li968 Li 0.35141 0.86814 0.4226 0.0
Li969 Li 0.3156 0.89448 0.43196 0.0
Li970 Li 0.30923 0.85294 0.43393 0.0
Li971 Li 0.31575 0.87156 0.39458 0.0
C972 C 0.34625 0.88351 0.47296 0.0
N973 N 0.37377 0.90715 0.50883 0.0
C974 C 0.36357 0.90015 0.46553 0.0
C975 C 0.34298 0.87888 0.49865 0.0
C976 C 0.37728 0.91192 0.48394 0.0
C977 C 0.35707 0.891 0.5165 0.0
C978 C 0.33802 0.90953 0.38376 0.0
C979 C 0.31326 0.93697 0.36082 0.0
N980 N 0.33146 0.93706 0.34231 0.0
C981 C 0.35649 0.90994 0.36452 0.0
C982 C 0.3162 0.92314 0.38187 0.0
C983 C 0.3528 0.92394 0.34371 0.0
C984 C 0.40139 0.86614 0.40287 0.0
N985 N 0.38784 0.86355 0.42464 0.0
C986 C 0.4267 0.85657 0.44769 0.0
C987 C 0.39984 0.85828 0.44672 0.0
C988 C 0.44127 0.86025 0.42569 0.0
C989 C 0.42824 0.86471 0.40298 0.0
H990 H 0.39129 0.86946 0.38544 0.0
H991 H 0.38865 0.85572 0.46371 0.0
C992 C 0.28954 0.92423 0.46571 0.0
N993 N 0.30851 0.92236 0.44809 0.0
C994 C 0.28681 0.944 0.47962 0.0
C995 C 0.32276 0.95953 0.4565 0.0
C996 C 0.3248 0.93958 0.44313 0.0
C997 C 0.30392 0.96183 0.4754 0.0
H998 H 0.2771 0.91014 0.46954 0.0
H999 H 0.33999 0.93757 0.42934 0.0
C1000 C 0.34369 0.82374 0.4122 0.0
N1001 N 0.36634 0.78348 0.42477 0.0
C1002 C 0.34743 0.80737 0.39374 0.0
C1003 C 0.35142 0.81958 0.43709 0.0
C1004 C 0.35893 0.78714 0.40046 0.0
C1005 C 0.36285 0.79915 0.44305 0.0
C1006 C 0.26463 0.87596 0.40507 0.0
C1007 C 0.25683 0.85634 0.39303 0.0
C1008 C 0.24968 0.89526 0.40283 0.0
C1009 C 0.23424 0.85642 0.37864 0.0
C1010 C 0.22719 0.89465 0.38829 0.0
N1011 N 0.22002 0.87541 0.37658 0.0
C1012 C 0.28836 0.83036 0.47644 0.0
C1013 C 0.28521 0.81074 0.43768 0.0
C1014 C 0.27755 0.81234 0.48948 0.0
N1015 N 0.29216 0.82915 0.45107 0.0
C1016 C 0.27429 0.79238 0.44991 0.0
C1017 C 0.27055 0.7929 0.47624 0.0
H1018 H 0.2941 0.84519 0.48661 0.0
H1019 H 0.28854 0.81017 0.41751 0.0
C1020 C 0.32627 0.85825 0.34574 0.0
N1021 N 0.30899 0.8708 0.3588 0.0
C1022 C 0.32576 0.85771 0.3194 0.0
C1023 C 0.2894 0.88289 0.32014 0.0
C1024 C 0.29067 0.883 0.34658 0.0
C1025 C 0.30736 0.87035 0.30621 0.0
H1026 H 0.34101 0.84912 0.35582 0.0
H1027 H 0.27763 0.89347 0.35716 0.0
O1028 O 0.33227 0.87198 0.4553 0.0
O1029 O 0.34079 0.89544 0.40398 0.0
O1030 O 0.3323 0.84356 0.40577 0.0
O1031 O 0.28665 0.87627 0.41923 0.0
H1032 H 0.36649 0.90394 0.44576 0.0
H1033 H 0.3297 0.86605 0.50478 0.0
H1034 H 0.39071 0.92485 0.47843 0.0
H1035 H 0.35471 0.8876 0.53644 0.0
H1036 H 0.2964 0.9475 0.35909 0.0
H1037 H 0.37345 0.89953 0.3655 0.0
H1038 H 0.30142 0.92275 0.39628 0.0
H1039 H 0.36691 0.92435 0.32865 0.0
H1040 H 0.43598 0.85308 0.4656 0.0
H1041 H 0.43871 0.86712 0.38547 0.0
H1042 H 0.27216 0.94497 0.49417 0.0
H1043 H 0.33614 0.97292 0.45233 0.0
H1044 H 0.34144 0.81024 0.37441 0.0
H1045 H 0.34856 0.83189 0.45173 0.0
H1046 H 0.36194 0.77433 0.38635 0.0
H1047 H 0.3689 0.79573 0.46223 0.0
H1048 H 0.26828 0.84131 0.39453 0.0
H1049 H 0.25544 0.91055 0.41217 0.0
H1050 H 0.22804 0.84139 0.36907 0.0
H1051 H 0.21546 0.90947 0.3863 0.0
H1052 H 0.2753 0.81345 0.50979 0.0
H1053 H 0.26883 0.77795 0.43883 0.0
H1054 H 0.33984 0.84765 0.30946 0.0
H1055 H 0.27514 0.89313 0.31071 0.0
Li1056 Li 0.31431 0.1542 0.9403 0.0
Li1057 Li 0.32106 0.11516 0.93679 0.0
Li1058 Li 0.3582 0.1397 0.9288 0.0
Li1059 Li 0.32101 0.13641 0.89891 0.0
C1060 C 0.33594 0.12595 0.9834 0.0
N1061 N 0.33032 0.1036 0.02875 0.0
C1062 C 0.3145 0.13005 0.99874 0.0
C1063 C 0.35459 0.11058 0.99119 0.0
C1064 C 0.31203 0.11859 0.02161 0.0
C1065 C 0.35135 0.09939 0.01414 0.0
C1066 C 0.27105 0.11993 0.92889 0.0
C1067 C 0.24552 0.08663 0.92353 0.0
N1068 N 0.22934 0.09372 0.9421 0.0
C1069 C 0.25415 0.12693 0.94789 0.0
C1070 C 0.26668 0.09967 0.91652 0.0
C1071 C 0.23317 0.11343 0.9543 0.0
C1072 C 0.27573 0.18718 0.94799 0.0
N1073 N 0.29792 0.17841 0.95736 0.0
C1074 C 0.29893 0.20574 0.99026 0.0
C1075 C 0.30963 0.18728 0.97804 0.0
C1076 C 0.27602 0.21528 0.98102 0.0
C1077 C 0.26438 0.2057 0.95958 0.0
H1078 H 0.26707 0.17998 0.93127 0.0
H1079 H 0.32745 0.1801 0.98489 0.0
C1080 C 0.33063 0.06966 0.94496 0.0
N1081 N 0.31432 0.08637 0.95178 0.0
C1082 C 0.32929 0.04887 0.95676 0.0
C1083 C 0.29407 0.06257 0.98227 0.0
C1084 C 0.2961 0.08313 0.96995 0.0
C1085 C 0.31109 0.0452 0.97599 0.0
H1086 H 0.34526 0.07265 0.93082 0.0
H1087 H 0.2837 0.0967 0.97559 0.0
C1088 C 0.33265 0.18588 0.91091 0.0
N1089 N 0.31957 0.23057 0.91065 0.0
C1090 C 0.31315 0.19361 0.89491 0.0
C1091 C 0.34548 0.20085 0.9268 0.0
C1092 C 0.30686 0.21628 0.89502 0.0
C1093 C 0.33857 0.22339 0.9264 0.0
C1094 C 0.35345 0.10479 0.88668 0.0
C1095 C 0.37419 0.11399 0.87341 0.0
C1096 C 0.33921 0.08741 0.87593 0.0
C1097 C 0.38022 0.10572 0.84943 0.0
C1098 C 0.34585 0.07961 0.85191 0.0
N1099 N 0.36603 0.08887 0.83926 0.0
C1100 C 0.40825 0.12451 0.93796 0.0
C1101 C 0.40641 0.1621 0.92415 0.0
C1102 C 0.43514 0.12526 0.93863 0.0
N1103 N 0.39453 0.1428 0.93093 0.0
C1104 C 0.43331 0.1636 0.92453 0.0
C1105 C 0.44805 0.14498 0.93179 0.0
H1106 H 0.39828 0.10919 0.94252 0.0
H1107 H 0.39506 0.17622 0.91804 0.0
C1108 C 0.29595 0.12456 0.85218 0.0
N1109 N 0.31431 0.1374 0.86338 0.0
C1110 C 0.29358 0.12422 0.82583 0.0
C1111 C 0.32844 0.15088 0.8232 0.0
C1112 C 0.33027 0.15055 0.84949 0.0
C1113 C 0.31019 0.13732 0.81092 0.0
H1114 H 0.28364 0.11411 0.86361 0.0
H1115 H 0.34482 0.16048 0.85888 0.0
O1116 O 0.33852 0.13677 0.96078 0.0
O1117 O 0.29154 0.13302 0.9222 0.0
O1118 O 0.33849 0.16363 0.91168 0.0
O1119 O 0.34666 0.11317 0.90977 0.0
H1120 H 0.2997 0.14167 0.99287 0.0
H1121 H 0.37124 0.10715 0.97952 0.0
H1122 H 0.29546 0.12149 0.03359 0.0
H1123 H 0.36554 0.08733 0.02031 0.0
H1124 H 0.242 0.07083 0.91425 0.0
H1125 H 0.2573 0.14251 0.95773 0.0
H1126 H 0.27971 0.09389 0.90198 0.0
H1127 H 0.21999 0.11859 0.96903 0.0
H1128 H 0.30845 0.21237 0.00686 0.0
H1129 H 0.24696 0.21268 0.95154 0.0
H1130 H 0.34262 0.03589 0.95109 0.0
H1131 H 0.28 0.06061 0.99723 0.0
H1132 H 0.30274 0.1822 0.88279 0.0
H1133 H 0.36023 0.19507 0.93969 0.0
H1134 H 0.29175 0.2225 0.8828 0.0
H1135 H 0.3482 0.23514 0.93872 0.0
H1136 H 0.38527 0.12758 0.88136 0.0
H1137 H 0.32303 0.08019 0.88593 0.0
H1138 H 0.3961 0.11278 0.83885 0.0
H1139 H 0.3349 0.06627 0.84328 0.0
H1140 H 0.4457 0.11035 0.94381 0.0
H1141 H 0.44245 0.17915 0.91919 0.0
H1142 H 0.27941 0.11332 0.81725 0.0
H1143 H 0.34134 0.16158 0.81263 0.0
Li1144 Li 0.68681 0.85195 0.43938 0.0
Li1145 Li 0.67979 0.8909 0.43575 0.0
Li1146 Li 0.64281 0.86619 0.42774 0.0
Li1147 Li 0.67999 0.86959 0.39786 0.0
C1148 C 0.66346 0.88071 0.482 0.0
N1149 N 0.66613 0.90448 0.52666 0.0
C1150 C 0.68398 0.87727 0.49868 0.0
C1151 C 0.64419 0.8961 0.4881 0.0
C1152 C 0.68498 0.88946 0.52117 0.0
C1153 C 0.64594 0.90802 0.51074 0.0
C1154 C 0.72981 0.8864 0.4279 0.0
C1155 C 0.7551 0.91985 0.42255 0.0
N1156 N 0.77127 0.91288 0.44119 0.0
C1157 C 0.7467 0.87954 0.44697 0.0
C1158 C 0.73406 0.90667 0.4155 0.0
C1159 C 0.76756 0.89317 0.45342 0.0
C1160 C 0.7255 0.81909 0.44728 0.0
N1161 N 0.70339 0.82798 0.45669 0.0
C1162 C 0.70255 0.80095 0.48989 0.0
C1163 C 0.69183 0.81934 0.47756 0.0
C1164 C 0.72534 0.79126 0.48057 0.0
C1165 C 0.73688 0.80065 0.45898 0.0
H1166 H 0.73406 0.82612 0.43041 0.0
H1167 H 0.67407 0.8266 0.48445 0.0
C1168 C 0.67002 0.93641 0.44393 0.0
N1169 N 0.68634 0.91973 0.45079 0.0
C1170 C 0.67121 0.95717 0.45585 0.0
C1171 C 0.7063 0.94347 0.48153 0.0
C1172 C 0.70441 0.92293 0.46911 0.0
C1173 C 0.68927 0.96082 0.47521 0.0
H1174 H 0.65548 0.93342 0.4297 0.0
H1175 H 0.71675 0.90934 0.47483 0.0
C1176 C 0.66943 0.82016 0.40961 0.0
N1177 N 0.68427 0.77588 0.40864 0.0
C1178 C 0.68898 0.81314 0.39325 0.0
C1179 C 0.65749 0.80468 0.42554 0.0
C1180 C 0.69616 0.79067 0.39299 0.0
C1181 C 0.66528 0.78237 0.42477 0.0
C1182 C 0.64751 0.90123 0.38565 0.0
C1183 C 0.62689 0.89201 0.37221 0.0
C1184 C 0.66166 0.91877 0.37512 0.0
C1185 C 0.62089 0.90042 0.34829 0.0
C1186 C 0.65505 0.9267 0.35115 0.0
N1187 N 0.63499 0.91742 0.33833 0.0
C1188 C 0.59284 0.88237 0.43324 0.0
C1189 C 0.59448 0.84328 0.42655 0.0
C1190 C 0.56594 0.88193 0.43331 0.0
N1191 N 0.60647 0.86324 0.42984 0.0
C1192 C 0.56755 0.84204 0.42664 0.0
C1193 C 0.55294 0.86159 0.42981 0.0
H1194 H 0.60292 0.89806 0.4354 0.0
H1195 H 0.60576 0.82841 0.4233 0.0
C1196 C 0.70493 0.88157 0.35107 0.0
N1197 N 0.6866 0.86871 0.36228 0.0
C1198 C 0.70714 0.88206 0.32471 0.0
C1199 C 0.67218 0.8555 0.32207 0.0
C1200 C 0.67052 0.85567 0.34838 0.0
C1201 C 0.6904 0.86908 0.30978 0.0
H1202 H 0.71733 0.89194 0.36251 0.0
H1203 H 0.65599 0.84572 0.35777 0.0
O1204 O 0.66237 0.86922 0.45969 0.0
O1205 O 0.70944 0.87318 0.42119 0.0
O1206 O 0.66273 0.84223 0.41072 0.0
O1207 O 0.65427 0.89273 0.4087 0.0
H1208 H 0.69919 0.86559 0.49412 0.0
H1209 H 0.62823 0.89899 0.47536 0.0
H1210 H 0.70083 0.88708 0.53419 0.0
H1211 H 0.63128 0.92012 0.51561 0.0
H1212 H 0.75852 0.93564 0.41324 0.0
H1213 H 0.74365 0.86396 0.45683 0.0
H1214 H 0.72104 0.91233 0.40089 0.0
H1215 H 0.78073 0.88812 0.4682 0.0
H1216 H 0.69313 0.79446 0.50661 0.0
H1217 H 0.75421 0.79355 0.45088 0.0
H1218 H 0.65786 0.97013 0.45017 0.0
H1219 H 0.72025 0.94541 0.4966 0.0
H1220 H 0.69878 0.82495 0.38113 0.0
H1221 H 0.6428 0.80991 0.43879 0.0
H1222 H 0.7113 0.78501 0.38047 0.0
H1223 H 0.65634 0.77024 0.43712 0.0
H1224 H 0.61591 0.87827 0.37997 0.0
H1225 H 0.67775 0.92601 0.38524 0.0
H1226 H 0.6051 0.89334 0.33758 0.0
H1227 H 0.66592 0.94017 0.34269 0.0
H1228 H 0.55542 0.89736 0.436 0.0
H1229 H 0.55828 0.82608 0.42352 0.0
H1230 H 0.72129 0.89297 0.31613 0.0
H1231 H 0.65918 0.84488 0.31149 0.0
Li1232 Li 0.32102 0.87045 0.10862 0.0
Li1233 Li 0.35816 0.86735 0.07861 0.0
Li1234 Li 0.32083 0.89173 0.07081 0.0
Li1235 Li 0.31431 0.85265 0.06728 0.0
C1236 C 0.35321 0.90235 0.12077 0.0
N1237 N 0.36561 0.91861 0.16809 0.0
C1238 C 0.37463 0.89398 0.13369 0.0
C1239 C 0.33821 0.91911 0.13179 0.0
C1240 C 0.38056 0.90241 0.15763 0.0
C1241 C 0.34476 0.92708 0.15576 0.0
C1242 C 0.33297 0.82108 0.09677 0.0
C1243 C 0.33886 0.78356 0.08132 0.0
N1244 N 0.32022 0.77632 0.09744 0.0
C1245 C 0.31386 0.81329 0.11317 0.0
C1246 C 0.3456 0.80612 0.08071 0.0
C1247 C 0.30771 0.79058 0.11325 0.0
C1248 C 0.29469 0.88079 0.15515 0.0
N1249 N 0.31437 0.86938 0.14411 0.0
C1250 C 0.32988 0.85748 0.18443 0.0
C1251 C 0.33161 0.85764 0.15813 0.0
C1252 C 0.31024 0.86961 0.19653 0.0
C1253 C 0.29224 0.88112 0.1815 0.0
H1254 H 0.28129 0.89007 0.14358 0.0
H1255 H 0.34711 0.84877 0.14883 0.0
C1256 C 0.40818 0.88253 0.06908 0.0
N1257 N 0.39447 0.8643 0.0763 0.0
C1258 C 0.43507 0.88174 0.06822 0.0
C1259 C 0.43324 0.84346 0.08254 0.0
C1260 C 0.40635 0.845 0.08309 0.0
C1261 C 0.44798 0.86202 0.07508 0.0
H1262 H 0.39822 0.89786 0.0645 0.0
H1263 H 0.395 0.83092 0.08932 0.0
C1264 C 0.27083 0.88659 0.07865 0.0
N1265 N 0.22884 0.91237 0.06524 0.0
C1266 C 0.25426 0.87952 0.0594 0.0
C1267 C 0.26598 0.90669 0.09117 0.0
C1268 C 0.23313 0.8928 0.0529 0.0
C1269 C 0.24468 0.91952 0.08407 0.0
C1270 C 0.33551 0.88105 0.02411 0.0
C1271 C 0.314 0.87686 0.0089 0.0
C1272 C 0.35401 0.89652 0.01624 0.0
C1273 C 0.3113 0.88834 0.98607 0.0
C1274 C 0.35055 0.90772 0.99333 0.0
N1275 N 0.32945 0.90343 0.97884 0.0
C1276 C 0.33026 0.93724 0.06282 0.0
C1277 C 0.29572 0.92383 0.03778 0.0
C1278 C 0.32898 0.95804 0.05103 0.0
N1279 N 0.31394 0.92055 0.05594 0.0
C1280 C 0.29375 0.9444 0.02547 0.0
C1281 C 0.31083 0.96174 0.03176 0.0
H1282 H 0.34487 0.93422 0.07697 0.0
H1283 H 0.28332 0.91028 0.0321 0.0
C1284 C 0.27606 0.81933 0.05996 0.0
N1285 N 0.29801 0.82834 0.05032 0.0
C1286 C 0.2648 0.80072 0.04848 0.0
C1287 C 0.2989 0.80111 0.01732 0.0
C1288 C 0.30955 0.81963 0.02947 0.0
C1289 C 0.27626 0.79135 0.02685 0.0
H1290 H 0.26747 0.82648 0.07674 0.0
H1291 H 0.32727 0.8269 0.0225 0.0
O1292 O 0.34655 0.8938 0.09771 0.0
O1293 O 0.33864 0.84335 0.09581 0.0
O1294 O 0.29147 0.87371 0.08542 0.0
O1295 O 0.3383 0.87021 0.04671 0.0
H1296 H 0.38633 0.8809 0.12551 0.0
H1297 H 0.32153 0.92571 0.12203 0.0
H1298 H 0.39697 0.89598 0.16794 0.0
H1299 H 0.33323 0.93993 0.1646 0.0
H1300 H 0.34834 0.77182 0.06887 0.0
H1301 H 0.30364 0.82468 0.12547 0.0
H1302 H 0.36008 0.81195 0.06754 0.0
H1303 H 0.2929 0.78433 0.12578 0.0
H1304 H 0.34392 0.84804 0.19517 0.0
H1305 H 0.27692 0.89083 0.19001 0.0
H1306 H 0.44563 0.8966 0.06289 0.0
H1307 H 0.44237 0.82791 0.08788 0.0
H1308 H 0.25777 0.86405 0.04946 0.0
H1309 H 0.27871 0.91248 0.10597 0.0
H1310 H 0.22019 0.88759 0.03798 0.0
H1311 H 0.24079 0.93519 0.09348 0.0
H1312 H 0.29931 0.86517 0.01484 0.0
H1313 H 0.37071 0.90001 0.02781 0.0
H1314 H 0.29467 0.88537 0.97419 0.0
H1315 H 0.36462 0.91986 0.98709 0.0
H1316 H 0.34234 0.97099 0.05672 0.0
H1317 H 0.27971 0.94639 0.01049 0.0
H1318 H 0.24724 0.79384 0.05635 0.0
H1319 H 0.3086 0.79423 1.00095 0.0
Li1320 Li 0.64205 0.13824 0.5796 0.0
Li1321 Li 0.6796 0.13505 0.60911 0.0
Li1322 Li 0.68571 0.15303 0.56774 0.0
Li1323 Li 0.67925 0.11391 0.57107 0.0
C1324 C 0.66734 0.18453 0.59731 0.0
N1325 N 0.67992 0.22933 0.5973 0.0
C1326 C 0.68696 0.19247 0.61305 0.0
C1327 C 0.65416 0.19936 0.58153 0.0
C1328 C 0.69299 0.2152 0.6128 0.0
C1329 C 0.66081 0.22195 0.58179 0.0
C1330 C 0.64759 0.10323 0.62154 0.0
C1331 C 0.65565 0.07785 0.656 0.0
N1332 N 0.63571 0.08709 0.66903 0.0
C1333 C 0.62711 0.11242 0.63519 0.0
C1334 C 0.66194 0.08576 0.63194 0.0
C1335 C 0.62143 0.10404 0.6592 0.0
C1336 C 0.59237 0.12221 0.57128 0.0
N1337 N 0.60566 0.14088 0.57779 0.0
C1338 C 0.56639 0.16101 0.58407 0.0
C1339 C 0.59333 0.16007 0.58422 0.0
C1340 C 0.55209 0.14193 0.5775 0.0
C1341 C 0.56547 0.12239 0.57091 0.0
H1342 H 0.60271 0.10705 0.5668 0.0
H1343 H 0.60436 0.17449 0.58999 0.0
C1344 C 0.70534 0.12296 0.65533 0.0
N1345 N 0.6869 0.136 0.64456 0.0
C1346 C 0.70869 0.12292 0.68158 0.0
C1347 C 0.67453 0.15018 0.68502 0.0
C1348 C 0.67163 0.14948 0.65881 0.0
C1349 C 0.69313 0.13667 0.69675 0.0
H1350 H 0.71713 0.11229 0.64364 0.0
H1351 H 0.65684 0.15942 0.6498 0.0
C1352 C 0.66381 0.12486 0.52469 0.0
N1353 N 0.66909 0.10273 0.47916 0.0
C1354 C 0.68513 0.12905 0.50922 0.0
C1355 C 0.64511 0.10952 0.51694 0.0
C1356 C 0.68743 0.1177 0.48626 0.0
C1357 C 0.64818 0.09844 0.4939 0.0
C1358 C 0.72931 0.11893 0.57841 0.0
C1359 C 0.74597 0.12615 0.55932 0.0
C1360 C 0.73394 0.09859 0.59052 0.0
C1361 C 0.76698 0.11281 0.55258 0.0
C1362 C 0.75511 0.08571 0.58319 0.0
N1363 N 0.77106 0.09303 0.56454 0.0
C1364 C 0.72407 0.18618 0.55999 0.0
C1365 C 0.69005 0.18631 0.53008 0.0
C1366 C 0.73532 0.20476 0.54845 0.0
N1367 N 0.70186 0.17739 0.55067 0.0
C1368 C 0.70066 0.20485 0.51791 0.0
C1369 C 0.72358 0.2144 0.52711 0.0
H1370 H 0.73282 0.17894 0.57664 0.0
H1371 H 0.67223 0.17912 0.52325 0.0
C1372 C 0.66963 0.06846 0.56257 0.0
N1373 N 0.68592 0.0852 0.5558 0.0
C1374 C 0.6709 0.04773 0.5506 0.0
C1375 C 0.706 0.06157 0.52504 0.0
C1376 C 0.70404 0.08207 0.53751 0.0
C1377 C 0.68902 0.04415 0.53128 0.0
H1378 H 0.65508 0.07138 0.57681 0.0
H1379 H 0.7164 0.09567 0.5319 0.0
O1380 O 0.66175 0.16223 0.59667 0.0
O1381 O 0.65403 0.11171 0.5984 0.0
O1382 O 0.66141 0.13556 0.54741 0.0
O1383 O 0.70881 0.13187 0.58543 0.0
H1384 H 0.69766 0.18118 0.62506 0.0
H1385 H 0.63932 0.19342 0.56882 0.0
H1386 H 0.70818 0.22157 0.62482 0.0
H1387 H 0.65089 0.23359 0.56955 0.0
H1388 H 0.66669 0.06443 0.66436 0.0
H1389 H 0.61596 0.12609 0.6275 0.0
H1390 H 0.67793 0.07855 0.62163 0.0
H1391 H 0.60574 0.11108 0.67007 0.0
H1392 H 0.55687 0.17631 0.5897 0.0
H1393 H 0.55526 0.10735 0.56554 0.0
H1394 H 0.72332 0.11233 0.68991 0.0
H1395 H 0.66188 0.16077 0.69605 0.0
H1396 H 0.69996 0.14066 0.51505 0.0
H1397 H 0.62856 0.10603 0.52871 0.0
H1398 H 0.7039 0.12068 0.47417 0.0
H1399 H 0.63395 0.0864 0.48775 0.0
H1400 H 0.74263 0.14179 0.54966 0.0
H1401 H 0.72107 0.09263 0.60511 0.0
H1402 H 0.77998 0.11815 0.53778 0.0
H1403 H 0.75882 0.06986 0.59228 0.0
H1404 H 0.75276 0.21175 0.55648 0.0
H1405 H 0.69107 0.21152 0.50138 0.0
H1406 H 0.65759 0.03472 0.55623 0.0
H1407 H 0.72001 0.05968 0.51 0.0
C1408 C 0.01724 0.34499 0.06968 0.0
C1409 C 0.03078 0.3635 0.07921 0.0
H1410 H 0.98039 0.33063 0.06118 0.0
C1411 C 0.01673 0.38192 0.08821 0.0
H1412 H 0.02749 0.33064 0.06234 0.0
C1413 C 0.98981 0.38192 0.08752 0.0
C1414 C 0.97624 0.3635 0.07783 0.0
H1415 H 0.02652 0.39627 0.09615 0.0
H1416 H 0.97962 0.39627 0.09495 0.0
C1417 C 0.99026 0.34498 0.06901 0.0
C1418 C 0.98429 0.63946 0.55667 0.0
C1419 C 0.97053 0.6462 0.57822 0.0
H1420 H 0.02123 0.63487 0.53944 0.0
C1421 C 0.98425 0.65355 0.59954 0.0
H1422 H 0.97419 0.63397 0.53985 0.0
C1423 C 0.0112 0.65381 0.59946 0.0
C1424 C 0.02507 0.64691 0.57797 0.0
H1425 H 0.97416 0.65856 0.61654 0.0
H1426 H 0.02113 0.65892 0.61652 0.0
C1427 C 0.01125 0.63991 0.55649 0.0
C1428 C 0.99034 0.62396 0.92122 0.0
C1429 C 0.97672 0.64248 0.93056 0.0
H1430 H 0.0271 0.60952 0.91303 0.0
C1431 C 0.99068 0.66109 0.93923 0.0
H1432 H 0.98019 0.60953 0.91392 0.0
C1433 C 0.01766 0.66107 0.93875 0.0
C1434 C 0.03127 0.64246 0.92956 0.0
H1435 H 0.98077 0.67553 0.94679 0.0
H1436 H 0.02787 0.6755 0.94597 0.0
C1437 C 0.01726 0.62395 0.92072 0.0
C1438 C 0.00973 0.3811 0.42085 0.0
C1439 C 0.02332 0.36273 0.43061 0.0
H1440 H 0.97301 0.3954 0.4122 0.0
C1441 C 0.00933 0.34422 0.4395 0.0
H1442 H 0.01991 0.39544 0.41336 0.0
C1443 C 0.98235 0.3442 0.43885 0.0
C1444 C 0.96878 0.36268 0.42927 0.0
H1445 H 0.01921 0.3299 0.44737 0.0
H1446 H 0.97211 0.32987 0.44625 0.0
C1447 C 0.98282 0.38108 0.42018 0.0
C1448 C 0.49089 0.87145 0.05575 0.0
C1449 C 0.47664 0.86112 0.0751 0.0
H1450 H 0.52822 0.87948 0.04108 0.0
C1451 C 0.49 0.85045 0.09482 0.0
H1452 H 0.48121 0.8795 0.04006 0.0
C1453 C 0.51696 0.85042 0.09539 0.0
C1454 C 0.53118 0.86109 0.07626 0.0
H1455 H 0.47964 0.84262 0.11022 0.0
H1456 H 0.52664 0.84256 0.11119 0.0
C1457 C 0.51783 0.87144 0.05633 0.0
C1458 C 0.50948 0.16064 0.56912 0.0
C1459 C 0.52343 0.14216 0.57815 0.0
H1460 H 0.47231 0.17497 0.56211 0.0
C1461 C 0.50978 0.1238 0.58788 0.0
H1462 H 0.51941 0.17495 0.56126 0.0
C1463 C 0.48286 0.12382 0.58839 0.0
C1464 C 0.46887 0.1422 0.57917 0.0
H1465 H 0.51992 0.10949 0.59546 0.0
H1466 H 0.473 0.10952 0.59636 0.0
C1467 C 0.4825 0.16065 0.56961 0.0
C1468 C 0.51692 0.15642 0.91099 0.0
C1469 C 0.53124 0.14563 0.92995 0.0
H1470 H 0.47951 0.16443 0.8965 0.0
C1471 C 0.51801 0.13527 0.94995 0.0
H1472 H 0.52651 0.16431 0.89515 0.0
C1473 C 0.49107 0.13536 0.95075 0.0
C1474 C 0.47672 0.14581 0.93156 0.0
H1475 H 0.52848 0.12714 0.96509 0.0
H1476 H 0.48148 0.1273 0.96648 0.0
C1477 C 0.48996 0.15651 0.91178 0.0
C1478 C 0.48391 0.87688 0.41388 0.0
C1479 C 0.46989 0.86021 0.42654 0.0
H1480 H 0.52102 0.8903 0.4049 0.0
C1481 C 0.48341 0.84385 0.44024 0.0
H1482 H 0.47406 0.88986 0.40339 0.0
C1483 C 0.51038 0.84417 0.44119 0.0
C1484 C 0.52434 0.86097 0.42868 0.0
H1485 H 0.47313 0.83072 0.45005 0.0
H1486 H 0.52028 0.83144 0.45201 0.0
C1487 C 0.5108 0.87729 0.41498 0.0
C1488 C 0.16892 0.36905 0.24264 0.0
C1489 C 0.19257 0.37036 0.22979 0.0
H1490 H 0.14949 0.3684 0.2782 0.0
C1491 C 0.21544 0.37209 0.24391 0.0
H1492 H 0.15094 0.36818 0.23226 0.0
C1493 C 0.21468 0.37193 0.27039 0.0
C1494 C 0.191 0.37024 0.28328 0.0
H1495 H 0.23395 0.37302 0.23449 0.0
H1496 H 0.23268 0.37265 0.28072 0.0
C1497 C 0.16813 0.3691 0.26901 0.0
C1498 C 0.78585 0.63349 0.74234 0.0
C1499 C 0.80876 0.63545 0.72834 0.0
H1500 H 0.7684 0.63281 0.77905 0.0
C1501 C 0.83231 0.6371 0.74132 0.0
H1502 H 0.76741 0.63231 0.73282 0.0
C1503 C 0.83296 0.63712 0.76771 0.0
C1504 C 0.81003 0.63573 0.78185 0.0
H1505 H 0.85034 0.63817 0.73104 0.0
H1506 H 0.85153 0.63807 0.777 0.0
C1507 C 0.78645 0.63372 0.76882 0.0
C1508 C 0.21644 0.63297 0.76554 0.0
C1509 C 0.19354 0.63523 0.77954 0.0
H1510 H 0.23389 0.63216 0.72882 0.0
C1511 C 0.17004 0.63723 0.76654 0.0
H1512 H 0.23485 0.63149 0.77507 0.0
C1513 C 0.16943 0.63742 0.74016 0.0
C1514 C 0.19235 0.63578 0.72605 0.0
H1515 H 0.15201 0.6385 0.77679 0.0
H1516 H 0.1509 0.63872 0.73083 0.0
C1517 C 0.21586 0.63331 0.73906 0.0
C1518 C 0.785 0.37177 0.23836 0.0
C1519 C 0.80868 0.37003 0.22549 0.0
H1520 H 0.7657 0.37285 0.27425 0.0
C1521 C 0.83153 0.36878 0.23977 0.0
H1522 H 0.767 0.37257 0.22802 0.0
C1523 C 0.83071 0.36868 0.26615 0.0
C1524 C 0.80706 0.37004 0.27898 0.0
H1525 H 0.85018 0.36804 0.23059 0.0
H1526 H 0.84868 0.36773 0.27654 0.0
C1527 C 0.78421 0.37188 0.26484 0.0
C1528 C 0.66845 0.86892 0.26742 0.0
C1529 C 0.69136 0.86999 0.28163 0.0
H1530 H 0.65114 0.86818 0.23071 0.0
C1531 C 0.715 0.87174 0.26867 0.0
H1532 H 0.64984 0.86819 0.27667 0.0
C1533 C 0.71568 0.87202 0.24219 0.0
C1534 C 0.69277 0.87036 0.22813 0.0
H1535 H 0.73304 0.8724 0.27895 0.0
H1536 H 0.73416 0.87298 0.23272 0.0
C1537 C 0.66916 0.869 0.24104 0.0
C1538 C 0.33184 0.13777 0.76843 0.0
C1539 C 0.30903 0.13658 0.78277 0.0
H1540 H 0.3489 0.13868 0.73162 0.0
C1541 C 0.28531 0.13483 0.76996 0.0
H1542 H 0.35051 0.13852 0.77756 0.0
C1543 C 0.28445 0.13463 0.74349 0.0
C1544 C 0.30727 0.13638 0.72929 0.0
H1545 H 0.26734 0.13408 0.78035 0.0
H1546 H 0.26591 0.13364 0.73413 0.0
C1547 C 0.33096 0.13778 0.74206 0.0
C1548 C 0.69781 0.11652 0.76464 0.0
C1549 C 0.69723 0.13673 0.77821 0.0
H1550 H 0.69694 0.10067 0.7283 0.0
C1551 C 0.69659 0.15689 0.7646 0.0
H1552 H 0.69792 0.10065 0.77443 0.0
C1553 C 0.69571 0.15685 0.73819 0.0
C1554 C 0.69572 0.13666 0.72471 0.0
H1555 H 0.69668 0.17279 0.77433 0.0
H1556 H 0.69498 0.17267 0.7283 0.0
C1557 C 0.69718 0.1165 0.73819 0.0
C1558 C 0.28543 0.86954 0.23757 0.0
C1559 C 0.30911 0.87058 0.22463 0.0
H1560 H 0.26627 0.86845 0.27351 0.0
C1561 C 0.33198 0.87234 0.23877 0.0
H1562 H 0.26747 0.86803 0.22726 0.0
C1563 C 0.33128 0.8725 0.26514 0.0
C1564 C 0.3077 0.87096 0.27812 0.0
H1565 H 0.3505 0.87375 0.22945 0.0
H1566 H 0.34928 0.87398 0.2754 0.0
C1567 C 0.28473 0.86976 0.26405 0.0
C1568 C 0.23757 0.23705 0.9963 0.0
C1569 C 0.26446 0.23514 0.99357 0.0
H1570 H 0.20597 0.25643 0.01033 0.0
C1571 C 0.28022 0.25235 1.00301 0.0
H1572 H 0.22487 0.22397 0.98963 0.0
C1573 C 0.26938 0.27093 0.01497 0.0
C1574 C 0.2425 0.27281 0.01769 0.0
H1575 H 0.30097 0.25163 1.00086 0.0
H1576 H 0.28204 0.28399 0.02177 0.0
C1577 C 0.22673 0.25566 0.00818 0.0
C1578 C 0.73186 0.73564 0.51461 0.0
C1579 C 0.75875 0.73364 0.51717 0.0
H1580 H 0.7003 0.75507 0.50067 0.0
C1581 C 0.77456 0.75073 0.5076 0.0
H1582 H 0.71916 0.72263 0.52145 0.0
C1583 C 0.76375 0.76938 0.49577 0.0
C1584 C 0.73686 0.77139 0.49317 0.0
H1585 H 0.79532 0.74989 0.50963 0.0
H1586 H 0.77649 0.78241 0.48901 0.0
C1587 C 0.72106 0.75427 0.50271 0.0
C1588 C 0.25515 0.75362 0.0289 0.0
C1589 C 0.26481 0.77142 0.0144 0.0
H1590 H 0.23762 0.72128 0.0289 0.0
C1591 C 0.26359 0.76998 0.9879 0.0
H1592 H 0.25617 0.75405 0.04934 0.0
C1593 C 0.25292 0.75122 0.97617 0.0
C1594 C 0.24326 0.7334 0.99065 0.0
H1595 H 0.27053 0.78354 0.97619 0.0
H1596 H 0.25183 0.75087 0.95573 0.0
C1597 C 0.24453 0.73483 0.01716 0.0
C1598 C 0.71927 0.25155 0.50528 0.0
C1599 C 0.73508 0.23433 0.51461 0.0
H1600 H 0.71735 0.28328 0.48673 0.0
C1601 C 0.76196 0.2363 0.51185 0.0
H1602 H 0.69852 0.25078 0.50745 0.0
C1603 C 0.77275 0.25499 0.50008 0.0
C1604 C 0.75693 0.27216 0.49071 0.0
H1605 H 0.7747 0.22321 0.51842 0.0
H1606 H 0.7935 0.2558 0.49792 0.0
C1607 C 0.73006 0.27021 0.49343 0.0
C1608 C 0.76994 0.77066 0.01391 0.0
C1609 C 0.74305 0.77278 0.01631 0.0
H1610 H 0.80148 0.7511 1.00014 0.0
C1611 C 0.7272 0.75578 0.00658 0.0
H1612 H 0.78267 0.7836 0.02088 0.0
C1613 C 0.73797 0.73709 0.99479 0.0
C1614 C 0.76487 0.73495 0.99238 0.0
H1615 H 0.70643 0.75672 0.00848 0.0
H1616 H 0.7252 0.72413 0.98795 0.0
C1617 C 0.78071 0.752 1.00204 0.0
C1618 C 0.2303 0.23472 0.5142 0.0
C1619 C 0.25716 0.23282 0.51704 0.0
H1620 H 0.19876 0.25413 0.50017 0.0
C1621 C 0.27297 0.25006 0.50781 0.0
H1622 H 0.2176 0.22159 0.52078 0.0
C1623 C 0.26218 0.26878 0.4961 0.0
C1624 C 0.2353 0.27071 0.49327 0.0
H1625 H 0.29372 0.24928 0.51005 0.0
H1626 H 0.27491 0.28192 0.48966 0.0
C1627 C 0.2195 0.2534 0.50242 0.0
C1628 C 0.73771 0.26923 0.01189 0.0
C1629 C 0.7646 0.27127 0.01457 0.0
H1630 H 0.70621 0.2497 0.99791 0.0
C1631 C 0.78045 0.25416 0.00507 0.0
H1632 H 0.72494 0.28224 0.0186 0.0
C1633 C 0.7697 0.23553 0.99311 0.0
C1634 C 0.74283 0.23351 0.99046 0.0
H1635 H 0.8012 0.25498 0.00717 0.0
H1636 H 0.78244 0.22254 0.98627 0.0
C1637 C 0.72697 0.25057 1.00001 0.0
C1638 C 0.23224 0.75731 0.5225 0.0
C1639 C 0.23906 0.73557 0.51504 0.0
H1640 H 0.23633 0.79237 0.51586 0.0
C1641 C 0.2565 0.73285 0.49495 0.0
H1642 H 0.21857 0.75997 0.53769 0.0
C1643 C 0.26678 0.75141 0.48251 0.0
C1644 C 0.25978 0.77318 0.48975 0.0
H1645 H 0.26245 0.71634 0.48899 0.0
H1646 H 0.28048 0.74867 0.46737 0.0
C1647 C 0.24244 0.77589 0.50998 0.0
C1648 C 0.22056 0.51272 0.99765 0.0
C1649 C 0.1972 0.5227 0.99021 0.0
H1650 H 0.23881 0.48588 0.01767 0.0
C1651 C 0.17389 0.51275 0.99776 0.0
H1652 H 0.23885 0.5199 0.99204 0.0
C1653 C 0.17387 0.49329 0.01224 0.0
C1654 C 0.19716 0.48324 0.01968 0.0
H1655 H 0.15554 0.52014 0.99272 0.0
H1656 H 0.1555 0.48597 0.01736 0.0
C1657 C 0.22054 0.49313 0.01215 0.0
C1658 C 0.82748 0.51264 0.51031 0.0
C1659 C 0.80431 0.52274 0.51801 0.0
H1660 H 0.84551 0.48564 0.49077 0.0
C1661 C 0.78082 0.5128 0.51088 0.0
H1662 H 0.84593 0.51998 0.51511 0.0
C1663 C 0.78057 0.49313 0.49654 0.0
C1664 C 0.80381 0.48308 0.48886 0.0
H1665 H 0.76263 0.52009 0.51662 0.0
H1666 H 0.7622 0.48592 0.49124 0.0
C1667 C 0.82724 0.49308 0.496 0.0
C1668 C 0.83336 0.49311 0.01065 0.0
C1669 C 0.81002 0.48284 0.01757 0.0
H1670 H 0.85176 0.52062 0.99236 0.0
C1671 C 0.78668 0.49301 0.01042 0.0
H1672 H 0.85169 0.48559 0.01551 0.0
C1673 C 0.78673 0.51305 0.99679 0.0
C1674 C 0.81011 0.52327 0.98987 0.0
H1675 H 0.76837 0.4856 0.01558 0.0
H1676 H 0.76845 0.52041 0.99144 0.0
C1677 C 0.8334 0.51306 0.99703 0.0
C1678 C 0.21226 0.49207 0.49993 0.0
C1679 C 0.18902 0.4825 0.49152 0.0
H1680 H 0.23041 0.51899 0.51979 0.0
C1681 C 0.16573 0.49347 0.49708 0.0
H1682 H 0.23057 0.48416 0.49585 0.0
C1683 C 0.16565 0.51354 0.51048 0.0
C1684 C 0.18886 0.52317 0.51888 0.0
H1685 H 0.14741 0.48644 0.49129 0.0
H1686 H 0.14734 0.52166 0.51396 0.0
C1687 C 0.21219 0.51217 0.51344 0.0
C1688 C 0.71983 0.01309 0.99614 0.0
C1689 C 0.69645 0.023 0.98864 0.0
H1690 H 0.73815 0.98627 0.01613 0.0
C1691 C 0.67317 0.01291 0.99601 0.0
H1692 H 0.73811 0.02037 0.99065 0.0
C1693 C 0.67319 0.99339 0.0104 0.0
C1694 C 0.69651 0.98343 0.01791 0.0
H1695 H 0.6548 0.02024 0.99091 0.0
H1696 H 0.65484 0.98597 0.0154 0.0
C1697 C 0.71986 0.99346 0.01054 0.0
C1698 C 0.32635 0.992 0.49971 0.0
C1699 C 0.3032 0.9823 0.49131 0.0
H1700 H 0.34439 0.01861 0.51988 0.0
C1701 C 0.27971 0.99237 0.49816 0.0
H1702 H 0.34478 0.98452 0.49514 0.0
C1703 C 0.27946 0.01191 0.51274 0.0
C1704 C 0.3027 0.02167 0.52093 0.0
H1705 H 0.26155 0.98535 0.49191 0.0
H1706 H 0.26109 0.0193 0.5177 0.0
C1707 C 0.32611 0.01142 0.51424 0.0
C1708 C 0.2873 0.99345 0.01058 0.0
C1709 C 0.31062 0.98318 0.01757 0.0
H1710 H 0.26909 0.021 0.99187 0.0
C1711 C 0.33397 0.99341 0.01063 0.0
H1712 H 0.26898 0.98607 0.01577 0.0
C1713 C 0.33404 0.01342 0.99713 0.0
C1714 C 0.31076 0.02375 0.99015 0.0
H1715 H 0.35229 0.98581 0.01537 0.0
H1716 H 0.35241 0.02096 0.99242 0.0
C1717 C 0.28736 0.01356 0.99709 0.0
C1718 C 0.66605 0.01244 0.51 0.0
C1719 C 0.68933 0.02275 0.51701 0.0
H1720 H 0.64779 0.98487 0.49164 0.0
C1721 C 0.71272 0.01258 0.51004 0.0
H1722 H 0.64768 0.01996 0.51474 0.0
C1723 C 0.71278 0.9925 0.49648 0.0
C1724 C 0.68946 0.98224 0.48946 0.0
H1725 H 0.73099 0.02001 0.51528 0.0
H1726 H 0.7311 0.98513 0.49128 0.0
C1727 C 0.66611 0.99246 0.49642 0.0
loop_
_geom_bond_atom_site_label_1
_geom_bond_atom_site_label_2
_geom_bond_distance
_geom_bond_site_symmetry_2
_ccdc_geom_bond_type
Li0 N17 1.990 . S
Li0 O60 1.956 . S
Li0 O61 1.970 . S
Li0 O62 1.961 . S
Li1 N25 1.990 . S
Li1 O60 1.970 . S
Li1 O61 1.956 . S
Li1 O63 1.961 . S
Li2 N47 1.990 . S
Li2 O60 1.961 . S
Li2 O62 1.956 . S
Li2 O63 1.970 . S
Li3 N53 1.990 . S
Li3 O61 1.961 . S
Li3 O62 1.970 . S
Li3 O63 1.956 . S
C4 C6 1.348 . S
C4 C7 1.356 . S
C4 O60 1.325 . S
N5 C8 1.314 . S
N5 C9 1.279 . S
C6 C4 1.348 . S
C6 C8 1.353 . S
C6 H64 0.929 . S
C7 C4 1.356 . S
C7 C9 1.358 . S
C7 H65 0.930 . S
C8 N5 1.314 . S
C8 C6 1.353 . S
C8 H66 0.930 . S
C9 N5 1.279 . S
C9 C7 1.358 . S
C9 H67 0.930 . S
C10 C13 1.348 . S
C10 C14 1.356 . S
C10 O61 1.325 . S
C11 N12 1.279 . S
C11 C14 1.358 . S
C11 H68 0.930 . S
N12 C11 1.279 . S
N12 C15 1.314 . S
C13 C10 1.348 . S
C13 C15 1.353 . S
C13 H69 0.929 . S
C14 C10 1.356 . S
C14 C11 1.358 . S
C14 H70 0.930 . S
C15 N12 1.314 . S
C15 C13 1.353 . S
C15 H71 0.930 . S
C16 N17 1.314 . S
C16 C21 1.353 . S
C16 H22 0.930 . S
N17 Li0 1.990 . S
N17 C16 1.314 . S
N17 C19 1.279 . S
C18 C19 1.358 . S
C18 C20 1.356 . S
C18 H72 0.930 . S
C19 N17 1.279 . S
C19 C18 1.358 . S
C19 H23 0.930 . S
C20 C18 1.356 . S
C20 C21 1.348 . S
C21 C16 1.353 . S
C21 C20 1.348 . S
C21 H73 0.929 . S
H22 C16 0.930 . S
H23 C19 0.930 . S
C24 N25 1.314 . S
C24 C26 1.353 . S
C24 H30 0.930 . S
N25 Li1 1.990 . S
N25 C24 1.314 . S
N25 C28 1.279 . S
C26 C24 1.353 . S
C26 C29 1.348 . S
C26 H74 0.929 1_554 S
C27 C28 1.358 . S
C27 C29 1.356 . S
C27 H75 0.930 . S
C28 N25 1.279 . S
C28 C27 1.358 . S
C28 H31 0.930 . S
C29 C26 1.348 . S
C29 C27 1.356 . S
H30 C24 0.930 . S
H31 C28 0.930 . S
C32 C34 1.348 . S
C32 C35 1.356 . S
C32 O62 1.325 . S
N33 C36 1.314 . S
N33 C37 1.279 . S
C34 C32 1.348 . S
C34 C36 1.353 . S
C34 H76 0.929 . S
C35 C32 1.356 . S
C35 C37 1.358 . S
C35 H77 0.930 . S
C36 N33 1.314 . S
C36 C34 1.353 . S
C36 H78 0.930 . S
C37 N33 1.279 . S
C37 C35 1.358 . S
C37 H79 0.930 . S
C38 C39 1.348 . S
C38 C40 1.356 . S
C38 O63 1.325 . S
C39 C38 1.348 . S
C39 C41 1.353 1_554 S
C39 H80 0.929 . S
C40 C38 1.356 . S
C40 C42 1.358 1_554 S
C40 H81 0.930 . S
C41 C39 1.353 1_556 S
C41 N43 1.314 . S
C41 H82 0.930 . S
C42 C40 1.358 1_556 S
C42 N43 1.279 . S
C42 H83 0.930 . S
N43 C41 1.314 . S
N43 C42 1.279 . S
C44 C46 1.353 . S
C44 N47 1.314 . S
C44 H50 0.930 . S
C45 N47 1.279 . S
C45 C48 1.358 . S
C45 H51 0.930 . S
C46 C44 1.353 . S
C46 C49 1.348 . S
C46 H84 0.929 . S
N47 Li2 1.990 . S
N47 C44 1.314 . S
N47 C45 1.279 . S
C48 C45 1.358 . S
C48 C49 1.356 . S
C48 H85 0.930 . S
C49 C46 1.348 . S
C49 C48 1.356 . S
H50 C44 0.930 . S
H51 C45 0.930 . S
C52 N53 1.314 . S
C52 C54 1.353 . S
C52 H58 0.930 . S
N53 Li3 1.990 . S
N53 C52 1.314 . S
N53 C56 1.279 . S
C54 C52 1.353 . S
C54 C57 1.348 . S
C54 H86 0.929 . S
C55 C56 1.358 . S
C55 C57 1.356 . S
C55 H87 0.930 . S
C56 N53 1.279 . S
C56 C55 1.358 . S
C56 H59 0.930 . S
C57 C54 1.348 . S
C57 C55 1.356 . S
H58 C52 0.930 . S
H59 C56 0.930 . S
O60 Li0 1.956 . S
O60 Li1 1.970 . S
O60 Li2 1.961 . S
O60 C4 1.325 . S
O61 Li0 1.970 . S
O61 Li1 1.956 . S
O61 Li3 1.961 . S
O61 C10 1.325 . S
O62 Li0 1.961 . S
O62 Li2 1.956 . S
O62 Li3 1.970 . S
O62 C32 1.325 . S
O63 Li1 1.961 . S
O63 Li2 1.970 . S
O63 Li3 1.956 . S
O63 C38 1.325 . S
H64 C6 0.929 . S
H65 C7 0.930 . S
H66 C8 0.930 . S
H67 C9 0.930 . S
H68 C11 0.930 . S
H69 C13 0.929 . S
H70 C14 0.930 . S
H71 C15 0.930 . S
H72 C18 0.930 . S
H73 C21 0.929 . S
H74 C26 0.929 1_556 S
H75 C27 0.930 . S
H76 C34 0.929 . S
H77 C35 0.930 . S
H78 C36 0.930 . S
H79 C37 0.930 . S
H80 C39 0.929 . S
H81 C40 0.930 . S
H82 C41 0.930 . S
H83 C42 0.930 . S
H84 C46 0.929 . S
H85 C48 0.930 . S
H86 C54 0.929 . S
H87 C55 0.930 . S
Li88 N105 1.990 . S
Li88 O148 1.956 . S
Li88 O149 1.970 . S
Li88 O150 1.961 . S
Li89 N113 1.990 . S
Li89 O148 1.970 . S
Li89 O149 1.956 . S
Li89 O151 1.961 . S
Li90 N135 1.990 . S
Li90 O148 1.961 . S
Li90 O150 1.956 . S
Li90 O151 1.970 . S
Li91 N141 1.990 . S
Li91 O149 1.961 . S
Li91 O150 1.970 . S
Li91 O151 1.956 . S
C92 C94 1.348 . S
C92 C95 1.356 . S
C92 O148 1.325 . S
N93 C96 1.314 . S
N93 C97 1.279 . S
C94 C92 1.348 . S
C94 C96 1.353 . S
C94 H152 0.929 . S
C95 C92 1.356 . S
C95 C97 1.358 . S
C95 H153 0.930 . S
C96 N93 1.314 . S
C96 C94 1.353 . S
C96 H154 0.930 . S
C97 N93 1.279 . S
C97 C95 1.358 . S
C97 H155 0.930 . S
C98 C101 1.348 . S
C98 C102 1.356 . S
C98 O149 1.325 . S
C99 N100 1.279 . S
C99 C102 1.358 . S
C99 H156 0.930 . S
N100 C99 1.279 . S
N100 C103 1.314 . S
C101 C98 1.348 . S
C101 C103 1.353 . S
C101 H157 0.929 . S
C102 C98 1.356 . S
C102 C99 1.358 . S
C102 H158 0.930 . S
C103 N100 1.314 . S
C103 C101 1.353 . S
C103 H159 0.930 . S
C104 N105 1.314 . S
C104 C109 1.353 . S
C104 H110 0.930 . S
N105 Li88 1.990 . S
N105 C104 1.314 . S
N105 C107 1.279 . S
C106 C107 1.358 . S
C106 C108 1.356 . S
C106 H160 0.930 . S
C107 N105 1.279 . S
C107 C106 1.358 . S
C107 H111 0.930 . S
C108 C106 1.356 . S
C108 C109 1.348 . S
C109 C104 1.353 . S
C109 C108 1.348 . S
C109 H161 0.929 . S
H110 C104 0.930 . S
H111 C107 0.930 . S
C112 N113 1.314 . S
C112 C114 1.353 . S
C112 H118 0.930 . S
N113 Li89 1.990 . S
N113 C112 1.314 . S
N113 C116 1.279 . S
C114 C112 1.353 . S
C114 C117 1.348 . S
C114 H162 0.929 . S
C115 C116 1.358 . S
C115 C117 1.356 . S
C115 H163 0.930 . S
C116 N113 1.279 . S
C116 C115 1.358 . S
C116 H119 0.930 . S
C117 C114 1.348 . S
C117 C115 1.356 . S
H118 C112 0.930 . S
H119 C116 0.930 . S
C120 C122 1.348 . S
C120 C123 1.356 . S
C120 O150 1.325 . S
N121 C124 1.314 . S
N121 C125 1.279 . S
C122 C120 1.348 . S
C122 C124 1.353 . S
C122 H164 0.929 . S
C123 C120 1.356 . S
C123 C125 1.358 . S
C123 H165 0.930 . S
C124 N121 1.314 . S
C124 C122 1.353 . S
C124 H166 0.930 . S
C125 N121 1.279 . S
C125 C123 1.358 . S
C125 H167 0.930 . S
C126 C127 1.348 . S
C126 C128 1.356 . S
C126 O151 1.325 . S
C127 C126 1.348 . S
C127 C129 1.353 . S
C127 H168 0.929 . S
C128 C126 1.356 . S
C128 C130 1.358 . S
C128 H169 0.930 . S
C129 C127 1.353 . S
C129 N131 1.314 . S
C129 H170 0.930 . S
C130 C128 1.358 . S
C130 N131 1.279 . S
C130 H171 0.930 . S
N131 C129 1.314 . S
N131 C130 1.279 . S
C132 C134 1.353 . S
C132 N135 1.314 . S
C132 H138 0.930 . S
C133 N135 1.279 . S
C133 C136 1.358 . S
C133 H139 0.930 . S
C134 C132 1.353 . S
C134 C137 1.348 . S
C134 H172 0.929 . S
N135 Li90 1.990 . S
N135 C132 1.314 . S
N135 C133 1.279 . S
C136 C133 1.358 . S
C136 C137 1.356 . S
C136 H173 0.930 . S
C137 C134 1.348 . S
C137 C136 1.356 . S
H138 C132 0.930 . S
H139 C133 0.930 . S
C140 N141 1.314 . S
C140 C142 1.353 . S
C140 H146 0.930 . S
N141 Li91 1.990 . S
N141 C140 1.314 . S
N141 C144 1.279 . S
C142 C140 1.353 . S
C142 C145 1.348 . S
C142 H174 0.929 . S
C143 C144 1.358 . S
C143 C145 1.356 . S
C143 H175 0.930 . S
C144 N141 1.279 . S
C144 C143 1.358 . S
C144 H147 0.930 . S
C145 C142 1.348 . S
C145 C143 1.356 . S
H146 C140 0.930 . S
H147 C144 0.930 . S
O148 Li88 1.956 . S
O148 Li89 1.970 . S
O148 Li90 1.961 . S
O148 C92 1.325 . S
O149 Li88 1.970 . S
O149 Li89 1.956 . S
O149 Li91 1.961 . S
O149 C98 1.325 . S
O150 Li88 1.961 . S
O150 Li90 1.956 . S
O150 Li91 1.970 . S
O150 C120 1.325 . S
O151 Li89 1.961 . S
O151 Li90 1.970 . S
O151 Li91 1.956 . S
O151 C126 1.325 . S
H152 C94 0.929 . S
H153 C95 0.930 . S
H154 C96 0.930 . S
H155 C97 0.930 . S
H156 C99 0.930 . S
H157 C101 0.929 . S
H158 C102 0.930 . S
H159 C103 0.930 . S
H160 C106 0.930 . S
H161 C109 0.929 . S
H162 C114 0.929 . S
H163 C115 0.930 . S
H164 C122 0.929 . S
H165 C123 0.930 . S
H166 C124 0.930 . S
H167 C125 0.930 . S
H168 C127 0.929 . S
H169 C128 0.930 . S
H170 C129 0.930 . S
H171 C130 0.930 . S
H172 C134 0.929 . S
H173 C136 0.930 . S
H174 C142 0.929 . S
H175 C143 0.930 . S
Li176 N193 1.990 . S
Li176 O236 1.956 . S
Li176 O237 1.970 . S
Li176 O238 1.961 . S
Li177 N201 1.990 . S
Li177 O236 1.970 . S
Li177 O237 1.956 . S
Li177 O239 1.961 . S
Li178 N223 1.990 . S
Li178 O236 1.961 . S
Li178 O238 1.956 . S
Li178 O239 1.970 . S
Li179 N229 1.990 . S
Li179 O237 1.961 . S
Li179 O238 1.970 . S
Li179 O239 1.956 . S
C180 C182 1.348 . S
C180 C183 1.356 . S
C180 O236 1.325 . S
N181 C184 1.314 . S
N181 C185 1.279 . S
C182 C180 1.348 . S
C182 C184 1.353 . S
C182 H240 0.929 . S
C183 C180 1.356 . S
C183 C185 1.358 . S
C183 H241 0.930 . S
C184 N181 1.314 . S
C184 C182 1.353 . S
C184 H242 0.930 . S
C185 N181 1.279 . S
C185 C183 1.358 . S
C185 H243 0.930 . S
C186 C189 1.348 . S
C186 C190 1.356 . S
C186 O237 1.325 . S
C187 N188 1.279 . S
C187 C190 1.358 1_554 S
C187 H244 0.930 . S
N188 C187 1.279 . S
N188 C191 1.314 . S
C189 C186 1.348 . S
C189 C191 1.353 1_556 S
C189 H245 0.929 . S
C190 C186 1.356 . S
C190 C187 1.358 1_556 S
C190 H246 0.930 . S
C191 N188 1.314 . S
C191 C189 1.353 1_554 S
C191 H247 0.930 . S
C192 N193 1.314 . S
C192 C197 1.353 . S
C192 H198 0.930 . S
N193 Li176 1.990 . S
N193 C192 1.314 . S
N193 C195 1.279 . S
C194 C195 1.358 . S
C194 C196 1.356 . S
C194 H248 0.930 . S
C195 N193 1.279 . S
C195 C194 1.358 . S
C195 H199 0.930 . S
C196 C194 1.356 . S
C196 C197 1.348 . S
C197 C192 1.353 . S
C197 C196 1.348 . S
C197 H249 0.929 . S
H198 C192 0.930 . S
H199 C195 0.930 . S
C200 N201 1.314 . S
C200 C202 1.353 . S
C200 H206 0.930 . S
N201 Li177 1.990 . S
N201 C200 1.314 . S
N201 C204 1.279 . S
C202 C200 1.353 . S
C202 C205 1.348 . S
C202 H250 0.929 . S
C203 C204 1.358 . S
C203 C205 1.356 . S
C203 H251 0.930 . S
C204 N201 1.279 . S
C204 C203 1.358 . S
C204 H207 0.930 . S
C205 C202 1.348 . S
C205 C203 1.356 . S
H206 C200 0.930 . S
H207 C204 0.930 . S
C208 C210 1.348 . S
C208 C211 1.356 . S
C208 O238 1.325 . S
N209 C212 1.314 . S
N209 C213 1.279 . S
C210 C208 1.348 . S
C210 C212 1.353 . S
C210 H252 0.929 . S
C211 C208 1.356 . S
C211 C213 1.358 . S
C211 H253 0.930 . S
C212 N209 1.314 . S
C212 C210 1.353 . S
C212 H254 0.930 . S
C213 N209 1.279 . S
C213 C211 1.358 . S
C213 H255 0.930 . S
C214 C215 1.348 . S
C214 C216 1.356 . S
C214 O239 1.325 . S
C215 C214 1.348 . S
C215 C217 1.353 . S
C215 H256 0.929 . S
C216 C214 1.356 . S
C216 C218 1.358 . S
C216 H257 0.930 . S
C217 C215 1.353 . S
C217 N219 1.314 . S
C217 H258 0.930 . S
C218 C216 1.358 . S
C218 N219 1.279 . S
C218 H259 0.930 . S
N219 C217 1.314 . S
N219 C218 1.279 . S
C220 C222 1.353 . S
C220 N223 1.314 . S
C220 H226 0.930 . S
C221 N223 1.279 . S
C221 C224 1.358 . S
C221 H227 0.930 . S
C222 C220 1.353 . S
C222 C225 1.348 . S
C222 H260 0.929 . S
N223 Li178 1.990 . S
N223 C220 1.314 . S
N223 C221 1.279 . S
C224 C221 1.358 . S
C224 C225 1.356 . S
C224 H261 0.930 . S
C225 C222 1.348 . S
C225 C224 1.356 . S
H226 C220 0.930 . S
H227 C221 0.930 . S
C228 N229 1.314 . S
C228 C230 1.353 . S
C228 H234 0.930 . S
N229 Li179 1.990 . S
N229 C228 1.314 . S
N229 C232 1.279 . S
C230 C228 1.353 . S
C230 C233 1.348 . S
C230 H262 0.929 1_556 S
C231 C232 1.358 . S
C231 C233 1.356 . S
C231 H263 0.930 . S
C232 N229 1.279 . S
C232 C231 1.358 . S
C232 H235 0.930 . S
C233 C230 1.348 . S
C233 C231 1.356 . S
H234 C228 0.930 . S
H235 C232 0.930 . S
O236 Li176 1.956 . S
O236 Li177 1.970 . S
O236 Li178 1.961 . S
O236 C180 1.325 . S
O237 Li176 1.970 . S
O237 Li177 1.956 . S
O237 Li179 1.961 . S
O237 C186 1.325 . S
O238 Li176 1.961 . S
O238 Li178 1.956 . S
O238 Li179 1.970 . S
O238 C208 1.325 . S
O239 Li177 1.961 . S
O239 Li178 1.970 . S
O239 Li179 1.956 . S
O239 C214 1.325 . S
H240 C182 0.929 . S
H241 C183 0.930 . S
H242 C184 0.930 . S
H243 C185 0.930 . S
H244 C187 0.930 . S
H245 C189 0.929 . S
H246 C190 0.930 . S
H247 C191 0.930 . S
H248 C194 0.930 . S
H249 C197 0.929 . S
H250 C202 0.929 . S
H251 C203 0.930 . S
H252 C210 0.929 . S
H253 C211 0.930 . S
H254 C212 0.930 . S
H255 C213 0.930 . S
H256 C215 0.929 . S
H257 C216 0.930 . S
H258 C217 0.930 . S
H259 C218 0.930 . S
H260 C222 0.929 . S
H261 C224 0.930 . S
H262 C230 0.929 1_554 S
H263 C231 0.930 . S
Li264 N281 1.990 . S
Li264 O324 1.956 . S
Li264 O325 1.970 . S
Li264 O326 1.961 . S
Li265 N289 1.990 . S
Li265 O324 1.970 . S
Li265 O325 1.956 . S
Li265 O327 1.961 . S
Li266 N311 1.990 . S
Li266 O324 1.961 . S
Li266 O326 1.956 . S
Li266 O327 1.970 . S
Li267 N317 1.990 . S
Li267 O325 1.961 . S
Li267 O326 1.970 . S
Li267 O327 1.956 . S
C268 C270 1.348 . S
C268 C271 1.356 . S
C268 O324 1.325 . S
N269 C272 1.314 . S
N269 C273 1.279 . S
C270 C268 1.348 . S
C270 C272 1.353 . S
C270 H328 0.929 . S
C271 C268 1.356 . S
C271 C273 1.358 . S
C271 H329 0.930 . S
C272 N269 1.314 . S
C272 C270 1.353 . S
C272 H330 0.930 . S
C273 N269 1.279 . S
C273 C271 1.358 . S
C273 H331 0.930 . S
C274 C277 1.348 . S
C274 C278 1.356 . S
C274 O325 1.325 . S
C275 N276 1.279 . S
C275 C278 1.358 . S
C275 H332 0.930 . S
N276 C275 1.279 . S
N276 C279 1.314 . S
C277 C274 1.348 . S
C277 C279 1.353 . S
C277 H333 0.929 . S
C278 C274 1.356 . S
C278 C275 1.358 . S
C278 H334 0.930 . S
C279 N276 1.314 . S
C279 C277 1.353 . S
C279 H335 0.930 . S
C280 N281 1.314 . S
C280 C285 1.353 . S
C280 H286 0.930 . S
N281 Li264 1.990 . S
N281 C280 1.314 . S
N281 C283 1.279 . S
C282 C283 1.358 . S
C282 C284 1.356 . S
C282 H336 0.930 . S
C283 N281 1.279 . S
C283 C282 1.358 . S
C283 H287 0.930 . S
C284 C282 1.356 . S
C284 C285 1.348 . S
C285 C280 1.353 . S
C285 C284 1.348 . S
C285 H337 0.929 . S
H286 C280 0.930 . S
H287 C283 0.930 . S
C288 N289 1.314 . S
C288 C290 1.353 . S
C288 H294 0.930 . S
N289 Li265 1.990 . S
N289 C288 1.314 . S
N289 C292 1.279 . S
C290 C288 1.353 . S
C290 C293 1.348 . S
C290 H338 0.929 . S
C291 C292 1.358 . S
C291 C293 1.356 . S
C291 H339 0.930 . S
C292 N289 1.279 . S
C292 C291 1.358 . S
C292 H295 0.930 . S
C293 C290 1.348 . S
C293 C291 1.356 . S
H294 C288 0.930 . S
H295 C292 0.930 . S
C296 C298 1.348 . S
C296 C299 1.356 . S
C296 O326 1.325 . S
N297 C300 1.314 . S
N297 C301 1.279 . S
C298 C296 1.348 . S
C298 C300 1.353 . S
C298 H340 0.929 . S
C299 C296 1.356 . S
C299 C301 1.358 . S
C299 H341 0.930 . S
C300 N297 1.314 . S
C300 C298 1.353 . S
C300 H342 0.930 . S
C301 N297 1.279 . S
C301 C299 1.358 . S
C301 H343 0.930 . S
C302 C303 1.348 . S
C302 C304 1.356 . S
C302 O327 1.325 . S
C303 C302 1.348 . S
C303 C305 1.353 . S
C303 H344 0.929 . S
C304 C302 1.356 . S
C304 C306 1.358 . S
C304 H345 0.930 . S
C305 C303 1.353 . S
C305 N307 1.314 . S
C305 H346 0.930 . S
C306 C304 1.358 . S
C306 N307 1.279 . S
C306 H347 0.930 . S
N307 C305 1.314 . S
N307 C306 1.279 . S
C308 C310 1.353 . S
C308 N311 1.314 . S
C308 H314 0.930 . S
C309 N311 1.279 . S
C309 C312 1.358 . S
C309 H315 0.930 . S
C310 C308 1.353 . S
C310 C313 1.348 . S
C310 H348 0.929 . S
N311 Li266 1.990 . S
N311 C308 1.314 . S
N311 C309 1.279 . S
C312 C309 1.358 . S
C312 C313 1.356 . S
C312 H349 0.930 . S
C313 C310 1.348 . S
C313 C312 1.356 . S
H314 C308 0.930 . S
H315 C309 0.930 . S
C316 N317 1.314 . S
C316 C318 1.353 . S
C316 H322 0.930 . S
N317 Li267 1.990 . S
N317 C316 1.314 . S
N317 C320 1.279 . S
C318 C316 1.353 . S
C318 C321 1.348 . S
C318 H350 0.929 . S
C319 C320 1.358 . S
C319 C321 1.356 . S
C319 H351 0.930 . S
C320 N317 1.279 . S
C320 C319 1.358 . S
C320 H323 0.930 . S
C321 C318 1.348 . S
C321 C319 1.356 . S
H322 C316 0.930 . S
H323 C320 0.930 . S
O324 Li264 1.956 . S
O324 Li265 1.970 . S
O324 Li266 1.961 . S
O324 C268 1.325 . S
O325 Li264 1.970 . S
O325 Li265 1.956 . S
O325 Li267 1.961 . S
O325 C274 1.325 . S
O326 Li264 1.961 . S
O326 Li266 1.956 . S
O326 Li267 1.970 . S
O326 C296 1.325 . S
O327 Li265 1.961 . S
O327 Li266 1.970 . S
O327 Li267 1.956 . S
O327 C302 1.325 . S
H328 C270 0.929 . S
H329 C271 0.930 . S
H330 C272 0.930 . S
H331 C273 0.930 . S
H332 C275 0.930 . S
H333 C277 0.929 . S
H334 C278 0.930 . S
H335 C279 0.930 . S
H336 C282 0.930 . S
H337 C285 0.929 . S
H338 C290 0.929 . S
H339 C291 0.930 . S
H340 C298 0.929 . S
H341 C299 0.930 . S
H342 C300 0.930 . S
H343 C301 0.930 . S
H344 C303 0.929 . S
H345 C304 0.930 . S
H346 C305 0.930 . S
H347 C306 0.930 . S
H348 C310 0.929 . S
H349 C312 0.930 . S
H350 C318 0.929 . S
H351 C319 0.930 . S
Li352 N369 1.990 . S
Li352 O412 1.956 . S
Li352 O413 1.970 . S
Li352 O414 1.961 . S
Li353 N377 1.990 . S
Li353 O412 1.970 . S
Li353 O413 1.956 . S
Li353 O415 1.961 . S
Li354 N399 1.990 . S
Li354 O412 1.961 . S
Li354 O414 1.956 . S
Li354 O415 1.970 . S
Li355 N405 1.990 . S
Li355 O413 1.961 . S
Li355 O414 1.970 . S
Li355 O415 1.956 . S
C356 C358 1.348 . S
C356 C359 1.356 . S
C356 O412 1.325 . S
N357 C360 1.314 . S
N357 C361 1.279 . S
C358 C356 1.348 . S
C358 C360 1.353 1_556 S
C358 H416 0.929 . S
C359 C356 1.356 . S
C359 C361 1.358 1_556 S
C359 H417 0.930 . S
C360 N357 1.314 . S
C360 C358 1.353 1_554 S
C360 H418 0.930 . S
C361 N357 1.279 . S
C361 C359 1.358 1_554 S
C361 H419 0.930 . S
C362 C365 1.348 . S
C362 C366 1.356 . S
C362 O413 1.325 . S
C363 N364 1.279 . S
C363 C366 1.358 . S
C363 H420 0.930 . S
N364 C363 1.279 . S
N364 C367 1.314 . S
C365 C362 1.348 . S
C365 C367 1.353 . S
C365 H421 0.929 . S
C366 C362 1.356 . S
C366 C363 1.358 . S
C366 H422 0.930 . S
C367 N364 1.314 . S
C367 C365 1.353 . S
C367 H423 0.930 . S
C368 N369 1.314 . S
C368 C373 1.353 . S
C368 H374 0.930 . S
N369 Li352 1.990 . S
N369 C368 1.314 . S
N369 C371 1.279 . S
C370 C371 1.358 . S
C370 C372 1.356 . S
C370 H424 0.930 1_556 S
C371 N369 1.279 . S
C371 C370 1.358 . S
C371 H375 0.930 . S
C372 C370 1.356 . S
C372 C373 1.348 . S
C373 C368 1.353 . S
C373 C372 1.348 . S
C373 H425 0.929 . S
H374 C368 0.930 . S
H375 C371 0.930 . S
C376 N377 1.314 . S
C376 C378 1.353 . S
C376 H382 0.930 . S
N377 Li353 1.990 . S
N377 C376 1.314 . S
N377 C380 1.279 . S
C378 C376 1.353 . S
C378 C381 1.348 . S
C378 H426 0.929 . S
C379 C380 1.358 . S
C379 C381 1.356 . S
C379 H427 0.930 . S
C380 N377 1.279 . S
C380 C379 1.358 . S
C380 H383 0.930 . S
C381 C378 1.348 . S
C381 C379 1.356 . S
H382 C376 0.930 . S
H383 C380 0.930 . S
C384 C386 1.348 . S
C384 C387 1.356 . S
C384 O414 1.325 . S
N385 C388 1.314 . S
N385 C389 1.279 . S
C386 C384 1.348 . S
C386 C388 1.353 . S
C386 H428 0.929 . S
C387 C384 1.356 . S
C387 C389 1.358 . S
C387 H429 0.930 . S
C388 N385 1.314 . S
C388 C386 1.353 . S
C388 H430 0.930 . S
C389 N385 1.279 . S
C389 C387 1.358 . S
C389 H431 0.930 . S
C390 C391 1.348 . S
C390 C392 1.356 . S
C390 O415 1.325 . S
C391 C390 1.348 . S
C391 C393 1.353 . S
C391 H432 0.929 . S
C392 C390 1.356 . S
C392 C394 1.358 . S
C392 H433 0.930 . S
C393 C391 1.353 . S
C393 N395 1.314 . S
C393 H434 0.930 . S
C394 C392 1.358 . S
C394 N395 1.279 . S
C394 H435 0.930 . S
N395 C393 1.314 . S
N395 C394 1.279 . S
C396 C398 1.353 . S
C396 N399 1.314 . S
C396 H402 0.930 . S
C397 N399 1.279 . S
C397 C400 1.358 . S
C397 H403 0.930 . S
C398 C396 1.353 . S
C398 C401 1.348 . S
C398 H436 0.929 . S
N399 Li354 1.990 . S
N399 C396 1.314 . S
N399 C397 1.279 . S
C400 C397 1.358 . S
C400 C401 1.356 . S
C400 H437 0.930 . S
C401 C398 1.348 . S
C401 C400 1.356 . S
H402 C396 0.930 . S
H403 C397 0.930 . S
C404 N405 1.314 . S
C404 C406 1.353 . S
C404 H410 0.930 . S
N405 Li355 1.990 . S
N405 C404 1.314 . S
N405 C408 1.279 . S
C406 C404 1.353 . S
C406 C409 1.348 . S
C406 H438 0.929 . S
C407 C408 1.358 . S
C407 C409 1.356 . S
C407 H439 0.930 . S
C408 N405 1.279 . S
C408 C407 1.358 . S
C408 H411 0.930 . S
C409 C406 1.348 . S
C409 C407 1.356 . S
H410 C404 0.930 . S
H411 C408 0.930 . S
O412 Li352 1.956 . S
O412 Li353 1.970 . S
O412 Li354 1.961 . S
O412 C356 1.325 . S
O413 Li352 1.970 . S
O413 Li353 1.956 . S
O413 Li355 1.961 . S
O413 C362 1.325 . S
O414 Li352 1.961 . S
O414 Li354 1.956 . S
O414 Li355 1.970 . S
O414 C384 1.325 . S
O415 Li353 1.961 . S
O415 Li354 1.970 . S
O415 Li355 1.956 . S
O415 C390 1.325 . S
H416 C358 0.929 . S
H417 C359 0.930 . S
H418 C360 0.930 . S
H419 C361 0.930 . S
H420 C363 0.930 . S
H421 C365 0.929 . S
H422 C366 0.930 . S
H423 C367 0.930 . S
H424 C370 0.930 1_554 S
H425 C373 0.929 . S
H426 C378 0.929 . S
H427 C379 0.930 . S
H428 C386 0.929 . S
H429 C387 0.930 . S
H430 C388 0.930 . S
H431 C389 0.930 . S
H432 C391 0.929 . S
H433 C392 0.930 . S
H434 C393 0.930 . S
H435 C394 0.930 . S
H436 C398 0.929 . S
H437 C400 0.930 . S
H438 C406 0.929 . S
H439 C407 0.930 . S
Li440 N457 1.990 . S
Li440 O500 1.956 . S
Li440 O501 1.970 . S
Li440 O502 1.961 . S
Li441 N465 1.990 . S
Li441 O500 1.970 . S
Li441 O501 1.956 . S
Li441 O503 1.961 . S
Li442 N487 1.990 . S
Li442 O500 1.961 . S
Li442 O502 1.956 . S
Li442 O503 1.970 . S
Li443 N493 1.990 . S
Li443 O501 1.961 . S
Li443 O502 1.970 . S
Li443 O503 1.956 . S
C444 C446 1.348 . S
C444 C447 1.356 . S
C444 O500 1.325 . S
N445 C448 1.314 . S
N445 C449 1.279 . S
C446 C444 1.348 . S
C446 C448 1.353 . S
C446 H504 0.929 . S
C447 C444 1.356 . S
C447 C449 1.358 . S
C447 H505 0.930 . S
C448 N445 1.314 . S
C448 C446 1.353 . S
C448 H506 0.930 . S
C449 N445 1.279 . S
C449 C447 1.358 . S
C449 H507 0.930 . S
C450 C453 1.348 . S
C450 C454 1.356 . S
C450 O501 1.325 . S
C451 N452 1.279 . S
C451 C454 1.358 . S
C451 H508 0.930 . S
N452 C451 1.279 . S
N452 C455 1.314 . S
C453 C450 1.348 . S
C453 C455 1.353 . S
C453 H509 0.929 . S
C454 C450 1.356 . S
C454 C451 1.358 . S
C454 H510 0.930 . S
C455 N452 1.314 . S
C455 C453 1.353 . S
C455 H511 0.930 . S
C456 N457 1.314 . S
C456 C461 1.353 . S
C456 H462 0.930 . S
N457 Li440 1.990 . S
N457 C456 1.314 . S
N457 C459 1.279 . S
C458 C459 1.358 . S
C458 C460 1.356 . S
C458 H512 0.930 . S
C459 N457 1.279 . S
C459 C458 1.358 . S
C459 H463 0.930 . S
C460 C458 1.356 . S
C460 C461 1.348 . S
C461 C456 1.353 . S
C461 C460 1.348 . S
C461 H513 0.929 . S
H462 C456 0.930 . S
H463 C459 0.930 . S
C464 N465 1.314 . S
C464 C466 1.353 . S
C464 H470 0.930 . S
N465 Li441 1.990 . S
N465 C464 1.314 . S
N465 C468 1.279 . S
C466 C464 1.353 . S
C466 C469 1.348 . S
C466 H514 0.929 . S
C467 C468 1.358 . S
C467 C469 1.356 . S
C467 H515 0.930 . S
C468 N465 1.279 . S
C468 C467 1.358 . S
C468 H471 0.930 . S
C469 C466 1.348 . S
C469 C467 1.356 . S
H470 C464 0.930 . S
H471 C468 0.930 . S
C472 C474 1.348 . S
C472 C475 1.356 . S
C472 O502 1.325 . S
N473 C476 1.314 . S
N473 C477 1.279 . S
C474 C472 1.348 . S
C474 C476 1.353 . S
C474 H516 0.929 . S
C475 C472 1.356 . S
C475 C477 1.358 . S
C475 H517 0.930 . S
C476 N473 1.314 . S
C476 C474 1.353 . S
C476 H518 0.930 . S
C477 N473 1.279 . S
C477 C475 1.358 . S
C477 H519 0.930 . S
C478 C479 1.348 . S
C478 C480 1.356 . S
C478 O503 1.325 . S
C479 C478 1.348 . S
C479 C481 1.353 . S
C479 H520 0.929 . S
C480 C478 1.356 . S
C480 C482 1.358 . S
C480 H521 0.930 . S
C481 C479 1.353 . S
C481 N483 1.314 . S
C481 H522 0.930 . S
C482 C480 1.358 . S
C482 N483 1.279 . S
C482 H523 0.930 . S
N483 C481 1.314 . S
N483 C482 1.279 . S
C484 C486 1.353 . S
C484 N487 1.314 . S
C484 H490 0.930 . S
C485 N487 1.279 . S
C485 C488 1.358 . S
C485 H491 0.930 . S
C486 C484 1.353 . S
C486 C489 1.348 . S
C486 H524 0.929 . S
N487 Li442 1.990 . S
N487 C484 1.314 . S
N487 C485 1.279 . S
C488 C485 1.358 . S
C488 C489 1.356 . S
C488 H525 0.930 . S
C489 C486 1.348 . S
C489 C488 1.356 . S
H490 C484 0.930 . S
H491 C485 0.930 . S
C492 N493 1.314 . S
C492 C494 1.353 . S
C492 H498 0.930 . S
N493 Li443 1.990 . S
N493 C492 1.314 . S
N493 C496 1.279 . S
C494 C492 1.353 . S
C494 C497 1.348 . S
C494 H526 0.929 . S
C495 C496 1.358 . S
C495 C497 1.356 . S
C495 H527 0.930 . S
C496 N493 1.279 . S
C496 C495 1.358 . S
C496 H499 0.930 . S
C497 C494 1.348 . S
C497 C495 1.356 . S
H498 C492 0.930 . S
H499 C496 0.930 . S
O500 Li440 1.956 . S
O500 Li441 1.970 . S
O500 Li442 1.961 . S
O500 C444 1.325 . S
O501 Li440 1.970 . S
O501 Li441 1.956 . S
O501 Li443 1.961 . S
O501 C450 1.325 . S
O502 Li440 1.961 . S
O502 Li442 1.956 . S
O502 Li443 1.970 . S
O502 C472 1.325 . S
O503 Li441 1.961 . S
O503 Li442 1.970 . S
O503 Li443 1.956 . S
O503 C478 1.325 . S
H504 C446 0.929 . S
H505 C447 0.930 . S
H506 C448 0.930 . S
H507 C449 0.930 . S
H508 C451 0.930 . S
H509 C453 0.929 . S
H510 C454 0.930 . S
H511 C455 0.930 . S
H512 C458 0.930 . S
H513 C461 0.929 . S
H514 C466 0.929 . S
H515 C467 0.930 . S
H516 C474 0.929 . S
H517 C475 0.930 . S
H518 C476 0.930 . S
H519 C477 0.930 . S
H520 C479 0.929 . S
H521 C480 0.930 . S
H522 C481 0.930 . S
H523 C482 0.930 . S
H524 C486 0.929 . S
H525 C488 0.930 . S
H526 C494 0.929 . S
H527 C495 0.930 . S
Li528 N545 1.990 . S
Li528 O588 1.956 . S
Li528 O589 1.970 . S
Li528 O590 1.961 . S
Li529 N553 1.990 . S
Li529 O588 1.970 . S
Li529 O589 1.956 . S
Li529 O591 1.961 . S
Li530 N575 1.990 . S
Li530 O588 1.961 . S
Li530 O590 1.956 . S
Li530 O591 1.970 . S
Li531 N581 1.990 . S
Li531 O589 1.961 . S
Li531 O590 1.970 . S
Li531 O591 1.956 . S
C532 C534 1.348 . S
C532 C535 1.356 . S
C532 O588 1.325 . S
N533 C536 1.314 . S
N533 C537 1.279 . S
C534 C532 1.348 . S
C534 C536 1.353 . S
C534 H592 0.929 . S
C535 C532 1.356 . S
C535 C537 1.358 . S
C535 H593 0.930 . S
C536 N533 1.314 . S
C536 C534 1.353 . S
C536 H594 0.930 . S
C537 N533 1.279 . S
C537 C535 1.358 . S
C537 H595 0.930 . S
C538 C541 1.348 . S
C538 C542 1.356 . S
C538 O589 1.325 . S
C539 N540 1.279 . S
C539 C542 1.358 . S
C539 H596 0.930 . S
N540 C539 1.279 . S
N540 C543 1.314 . S
C541 C538 1.348 . S
C541 C543 1.353 . S
C541 H597 0.929 . S
C542 C538 1.356 . S
C542 C539 1.358 . S
C542 H598 0.930 . S
C543 N540 1.314 . S
C543 C541 1.353 . S
C543 H599 0.930 . S
C544 N545 1.314 . S
C544 C549 1.353 . S
C544 H550 0.930 . S
N545 Li528 1.990 . S
N545 C544 1.314 . S
N545 C547 1.279 . S
C546 C547 1.358 . S
C546 C548 1.356 . S
C546 H600 0.930 . S
C547 N545 1.279 . S
C547 C546 1.358 . S
C547 H551 0.930 . S
C548 C546 1.356 . S
C548 C549 1.348 . S
C549 C544 1.353 . S
C549 C548 1.348 . S
C549 H601 0.929 . S
H550 C544 0.930 . S
H551 C547 0.930 . S
C552 N553 1.314 . S
C552 C554 1.353 . S
C552 H558 0.930 . S
N553 Li529 1.990 . S
N553 C552 1.314 . S
N553 C556 1.279 . S
C554 C552 1.353 . S
C554 C557 1.348 . S
C554 H602 0.929 . S
C555 C556 1.358 . S
C555 C557 1.356 . S
C555 H603 0.930 . S
C556 N553 1.279 . S
C556 C555 1.358 . S
C556 H559 0.930 . S
C557 C554 1.348 . S
C557 C555 1.356 . S
H558 C552 0.930 . S
H559 C556 0.930 . S
C560 C562 1.348 . S
C560 C563 1.356 . S
C560 O590 1.325 . S
N561 C564 1.314 . S
N561 C565 1.279 . S
C562 C560 1.348 . S
C562 C564 1.353 . S
C562 H604 0.929 . S
C563 C560 1.356 . S
C563 C565 1.358 . S
C563 H605 0.930 . S
C564 N561 1.314 . S
C564 C562 1.353 . S
C564 H606 0.930 . S
C565 N561 1.279 . S
C565 C563 1.358 . S
C565 H607 0.930 . S
C566 C567 1.348 . S
C566 C568 1.356 . S
C566 O591 1.325 . S
C567 C566 1.348 . S
C567 C569 1.353 1_554 S
C567 H608 0.929 . S
C568 C566 1.356 . S
C568 C570 1.358 1_554 S
C568 H609 0.930 . S
C569 C567 1.353 1_556 S
C569 N571 1.314 . S
C569 H610 0.930 . S
C570 C568 1.358 1_556 S
C570 N571 1.279 . S
C570 H611 0.930 . S
N571 C569 1.314 . S
N571 C570 1.279 . S
C572 C574 1.353 . S
C572 N575 1.314 . S
C572 H578 0.930 . S
C573 N575 1.279 . S
C573 C576 1.358 . S
C573 H579 0.930 . S
C574 C572 1.353 . S
C574 C577 1.348 . S
C574 H612 0.929 . S
N575 Li530 1.990 . S
N575 C572 1.314 . S
N575 C573 1.279 . S
C576 C573 1.358 . S
C576 C577 1.356 . S
C576 H613 0.930 . S
C577 C574 1.348 . S
C577 C576 1.356 . S
H578 C572 0.930 . S
H579 C573 0.930 . S
C580 N581 1.314 . S
C580 C582 1.353 . S
C580 H586 0.930 . S
N581 Li531 1.990 . S
N581 C580 1.314 . S
N581 C584 1.279 . S
C582 C580 1.353 . S
C582 C585 1.348 . S
C582 H614 0.929 . S
C583 C584 1.358 . S
C583 C585 1.356 . S
C583 H615 0.930 1_554 S
C584 N581 1.279 . S
C584 C583 1.358 . S
C584 H587 0.930 . S
C585 C582 1.348 . S
C585 C583 1.356 . S
H586 C580 0.930 . S
H587 C584 0.930 . S
O588 Li528 1.956 . S
O588 Li529 1.970 . S
O588 Li530 1.961 . S
O588 C532 1.325 . S
O589 Li528 1.970 . S
O589 Li529 1.956 . S
O589 Li531 1.961 . S
O589 C538 1.325 . S
O590 Li528 1.961 . S
O590 Li530 1.956 . S
O590 Li531 1.970 . S
O590 C560 1.325 . S
O591 Li529 1.961 . S
O591 Li530 1.970 . S
O591 Li531 1.956 . S
O591 C566 1.325 . S
H592 C534 0.929 . S
H593 C535 0.930 . S
H594 C536 0.930 . S
H595 C537 0.930 . S
H596 C539 0.930 . S
H597 C541 0.929 . S
H598 C542 0.930 . S
H599 C543 0.930 . S
H600 C546 0.930 . S
H601 C549 0.929 . S
H602 C554 0.929 . S
H603 C555 0.930 . S
H604 C562 0.929 . S
H605 C563 0.930 . S
H606 C564 0.930 . S
H607 C565 0.930 . S
H608 C567 0.929 . S
H609 C568 0.930 . S
H610 C569 0.930 . S
H611 C570 0.930 . S
H612 C574 0.929 . S
H613 C576 0.930 . S
H614 C582 0.929 . S
H615 C583 0.930 1_556 S
Li616 N633 1.990 . S
Li616 O676 1.956 . S
Li616 O677 1.970 . S
Li616 O678 1.961 . S
Li617 N641 1.990 . S
Li617 O676 1.970 . S
Li617 O677 1.956 . S
Li617 O679 1.961 . S
Li618 N663 1.990 . S
Li618 O676 1.961 . S
Li618 O678 1.956 . S
Li618 O679 1.970 . S
Li619 N669 1.990 . S
Li619 O677 1.961 . S
Li619 O678 1.970 . S
Li619 O679 1.956 . S
C620 C622 1.348 . S
C620 C623 1.356 . S
C620 O676 1.325 . S
N621 C624 1.314 . S
N621 C625 1.279 . S
C622 C620 1.348 . S
C622 C624 1.353 . S
C622 H680 0.929 . S
C623 C620 1.356 . S
C623 C625 1.358 . S
C623 H681 0.930 . S
C624 N621 1.314 . S
C624 C622 1.353 . S
C624 H682 0.930 . S
C625 N621 1.279 . S
C625 C623 1.358 . S
C625 H683 0.930 . S
C626 C629 1.348 . S
C626 C630 1.356 . S
C626 O677 1.325 . S
C627 N628 1.279 . S
C627 C630 1.358 . S
C627 H684 0.930 . S
N628 C627 1.279 . S
N628 C631 1.314 . S
C629 C626 1.348 . S
C629 C631 1.353 . S
C629 H685 0.929 . S
C630 C626 1.356 . S
C630 C627 1.358 . S
C630 H686 0.930 . S
C631 N628 1.314 . S
C631 C629 1.353 . S
C631 H687 0.930 . S
C632 N633 1.314 . S
C632 C637 1.353 . S
C632 H638 0.930 . S
N633 Li616 1.990 . S
N633 C632 1.314 . S
N633 C635 1.279 . S
C634 C635 1.358 . S
C634 C636 1.356 . S
C634 H688 0.930 . S
C635 N633 1.279 . S
C635 C634 1.358 . S
C635 H639 0.930 . S
C636 C634 1.356 . S
C636 C637 1.348 . S
C637 C632 1.353 . S
C637 C636 1.348 . S
C637 H689 0.929 . S
H638 C632 0.930 . S
H639 C635 0.930 . S
C640 N641 1.314 . S
C640 C642 1.353 . S
C640 H646 0.930 . S
N641 Li617 1.990 . S
N641 C640 1.314 . S
N641 C644 1.279 . S
C642 C640 1.353 . S
C642 C645 1.348 . S
C642 H690 0.929 . S
C643 C644 1.358 . S
C643 C645 1.356 . S
C643 H691 0.930 . S
C644 N641 1.279 . S
C644 C643 1.358 . S
C644 H647 0.930 . S
C645 C642 1.348 . S
C645 C643 1.356 . S
H646 C640 0.930 . S
H647 C644 0.930 . S
C648 C650 1.348 . S
C648 C651 1.356 . S
C648 O678 1.325 . S
N649 C652 1.314 . S
N649 C653 1.279 . S
C650 C648 1.348 . S
C650 C652 1.353 . S
C650 H692 0.929 . S
C651 C648 1.356 . S
C651 C653 1.358 . S
C651 H693 0.930 . S
C652 N649 1.314 . S
C652 C650 1.353 . S
C652 H694 0.930 . S
C653 N649 1.279 . S
C653 C651 1.358 . S
C653 H695 0.930 . S
C654 C655 1.348 . S
C654 C656 1.356 . S
C654 O679 1.325 . S
C655 C654 1.348 . S
C655 C657 1.353 . S
C655 H696 0.929 . S
C656 C654 1.356 . S
C656 C658 1.358 . S
C656 H697 0.930 . S
C657 C655 1.353 . S
C657 N659 1.314 . S
C657 H698 0.930 . S
C658 C656 1.358 . S
C658 N659 1.279 . S
C658 H699 0.930 . S
N659 C657 1.314 . S
N659 C658 1.279 . S
C660 C662 1.353 . S
C660 N663 1.314 . S
C660 H666 0.930 . S
C661 N663 1.279 . S
C661 C664 1.358 . S
C661 H667 0.930 . S
C662 C660 1.353 . S
C662 C665 1.348 . S
C662 H700 0.929 . S
N663 Li618 1.990 . S
N663 C660 1.314 . S
N663 C661 1.279 . S
C664 C661 1.358 . S
C664 C665 1.356 . S
C664 H701 0.930 . S
C665 C662 1.348 . S
C665 C664 1.356 . S
H666 C660 0.930 . S
H667 C661 0.930 . S
C668 N669 1.314 . S
C668 C670 1.353 . S
C668 H674 0.930 . S
N669 Li619 1.990 . S
N669 C668 1.314 . S
N669 C672 1.279 . S
C670 C668 1.353 . S
C670 C673 1.348 . S
C670 H702 0.929 . S
C671 C672 1.358 . S
C671 C673 1.356 . S
C671 H703 0.930 . S
C672 N669 1.279 . S
C672 C671 1.358 . S
C672 H675 0.930 . S
C673 C670 1.348 . S
C673 C671 1.356 . S
H674 C668 0.930 . S
H675 C672 0.930 . S
O676 Li616 1.956 . S
O676 Li617 1.970 . S
O676 Li618 1.961 . S
O676 C620 1.325 . S
O677 Li616 1.970 . S
O677 Li617 1.956 . S
O677 Li619 1.961 . S
O677 C626 1.325 . S
O678 Li616 1.961 . S
O678 Li618 1.956 . S
O678 Li619 1.970 . S
O678 C648 1.325 . S
O679 Li617 1.961 . S
O679 Li618 1.970 . S
O679 Li619 1.956 . S
O679 C654 1.325 . S
H680 C622 0.929 . S
H681 C623 0.930 . S
H682 C624 0.930 . S
H683 C625 0.930 . S
H684 C627 0.930 . S
H685 C629 0.929 . S
H686 C630 0.930 . S
H687 C631 0.930 . S
H688 C634 0.930 . S
H689 C637 0.929 . S
H690 C642 0.929 . S
H691 C643 0.930 . S
H692 C650 0.929 . S
H693 C651 0.930 . S
H694 C652 0.930 . S
H695 C653 0.930 . S
H696 C655 0.929 . S
H697 C656 0.930 . S
H698 C657 0.930 . S
H699 C658 0.930 . S
H700 C662 0.929 . S
H701 C664 0.930 . S
H702 C670 0.929 . S
H703 C671 0.930 . S
Li704 N721 1.990 . S
Li704 O764 1.956 . S
Li704 O765 1.970 . S
Li704 O766 1.961 . S
Li705 N729 1.990 . S
Li705 O764 1.970 . S
Li705 O765 1.956 . S
Li705 O767 1.961 . S
Li706 N751 1.990 . S
Li706 O764 1.961 . S
Li706 O766 1.956 . S
Li706 O767 1.970 . S
Li707 N757 1.990 . S
Li707 O765 1.961 . S
Li707 O766 1.970 . S
Li707 O767 1.956 . S
C708 C710 1.348 . S
C708 C711 1.356 . S
C708 O764 1.325 . S
N709 C712 1.314 . S
N709 C713 1.279 . S
C710 C708 1.348 . S
C710 C712 1.353 . S
C710 H768 0.929 . S
C711 C708 1.356 . S
C711 C713 1.358 . S
C711 H769 0.930 . S
C712 N709 1.314 . S
C712 C710 1.353 . S
C712 H770 0.930 . S
C713 N709 1.279 . S
C713 C711 1.358 . S
C713 H771 0.930 . S
C714 C717 1.348 . S
C714 C718 1.356 . S
C714 O765 1.325 . S
C715 N716 1.279 . S
C715 C718 1.358 . S
C715 H772 0.930 . S
N716 C715 1.279 . S
N716 C719 1.314 . S
C717 C714 1.348 . S
C717 C719 1.353 . S
C717 H773 0.929 . S
C718 C714 1.356 . S
C718 C715 1.358 . S
C718 H774 0.930 . S
C719 N716 1.314 . S
C719 C717 1.353 . S
C719 H775 0.930 . S
C720 N721 1.314 . S
C720 C725 1.353 . S
C720 H726 0.930 . S
N721 Li704 1.990 . S
N721 C720 1.314 . S
N721 C723 1.279 . S
C722 C723 1.358 . S
C722 C724 1.356 . S
C722 H776 0.930 . S
C723 N721 1.279 . S
C723 C722 1.358 . S
C723 H727 0.930 . S
C724 C722 1.356 . S
C724 C725 1.348 . S
C725 C720 1.353 . S
C725 C724 1.348 . S
C725 H777 0.929 . S
H726 C720 0.930 . S
H727 C723 0.930 . S
C728 N729 1.314 . S
C728 C730 1.353 . S
C728 H734 0.930 . S
N729 Li705 1.990 . S
N729 C728 1.314 . S
N729 C732 1.279 . S
C730 C728 1.353 . S
C730 C733 1.348 . S
C730 H778 0.929 1_554 S
C731 C732 1.358 . S
C731 C733 1.356 . S
C731 H779 0.930 . S
C732 N729 1.279 . S
C732 C731 1.358 . S
C732 H735 0.930 . S
C733 C730 1.348 . S
C733 C731 1.356 . S
H734 C728 0.930 . S
H735 C732 0.930 . S
C736 C738 1.348 . S
C736 C739 1.356 . S
C736 O766 1.325 . S
N737 C740 1.314 . S
N737 C741 1.279 . S
C738 C736 1.348 . S
C738 C740 1.353 . S
C738 H780 0.929 . S
C739 C736 1.356 . S
C739 C741 1.358 . S
C739 H781 0.930 . S
C740 N737 1.314 . S
C740 C738 1.353 . S
C740 H782 0.930 . S
C741 N737 1.279 . S
C741 C739 1.358 . S
C741 H783 0.930 . S
C742 C743 1.348 . S
C742 C744 1.356 . S
C742 O767 1.325 . S
C743 C742 1.348 . S
C743 C745 1.353 1_554 S
C743 H784 0.929 . S
C744 C742 1.356 . S
C744 C746 1.358 1_554 S
C744 H785 0.930 . S
C745 C743 1.353 1_556 S
C745 N747 1.314 . S
C745 H786 0.930 . S
C746 C744 1.358 1_556 S
C746 N747 1.279 . S
C746 H787 0.930 . S
N747 C745 1.314 . S
N747 C746 1.279 . S
C748 C750 1.353 . S
C748 N751 1.314 . S
C748 H754 0.930 . S
C749 N751 1.279 . S
C749 C752 1.358 . S
C749 H755 0.930 . S
C750 C748 1.353 . S
C750 C753 1.348 . S
C750 H788 0.929 . S
N751 Li706 1.990 . S
N751 C748 1.314 . S
N751 C749 1.279 . S
C752 C749 1.358 . S
C752 C753 1.356 . S
C752 H789 0.930 . S
C753 C750 1.348 . S
C753 C752 1.356 . S
H754 C748 0.930 . S
H755 C749 0.930 . S
C756 N757 1.314 . S
C756 C758 1.353 . S
C756 H762 0.930 . S
N757 Li707 1.990 . S
N757 C756 1.314 . S
N757 C760 1.279 . S
C758 C756 1.353 . S
C758 C761 1.348 . S
C758 H790 0.929 . S
C759 C760 1.358 . S
C759 C761 1.356 . S
C759 H791 0.930 . S
C760 N757 1.279 . S
C760 C759 1.358 . S
C760 H763 0.930 . S
C761 C758 1.348 . S
C761 C759 1.356 . S
H762 C756 0.930 . S
H763 C760 0.930 . S
O764 Li704 1.956 . S
O764 Li705 1.970 . S
O764 Li706 1.961 . S
O764 C708 1.325 . S
O765 Li704 1.970 . S
O765 Li705 1.956 . S
O765 Li707 1.961 . S
O765 C714 1.325 . S
O766 Li704 1.961 . S
O766 Li706 1.956 . S
O766 Li707 1.970 . S
O766 C736 1.325 . S
O767 Li705 1.961 . S
O767 Li706 1.970 . S
O767 Li707 1.956 . S
O767 C742 1.325 . S
H768 C710 0.929 . S
H769 C711 0.930 . S
H770 C712 0.930 . S
H771 C713 0.930 . S
H772 C715 0.930 . S
H773 C717 0.929 . S
H774 C718 0.930 . S
H775 C719 0.930 . S
H776 C722 0.930 . S
H777 C725 0.929 . S
H778 C730 0.929 1_556 S
H779 C731 0.930 . S
H780 C738 0.929 . S
H781 C739 0.930 . S
H782 C740 0.930 . S
H783 C741 0.930 . S
H784 C743 0.929 . S
H785 C744 0.930 . S
H786 C745 0.930 . S
H787 C746 0.930 . S
H788 C750 0.929 . S
H789 C752 0.930 . S
H790 C758 0.929 . S
H791 C759 0.930 . S
Li792 N809 1.990 . S
Li792 O852 1.956 . S
Li792 O853 1.970 . S
Li792 O854 1.961 . S
Li793 N817 1.990 . S
Li793 O852 1.970 . S
Li793 O853 1.956 . S
Li793 O855 1.961 . S
Li794 N839 1.990 . S
Li794 O852 1.961 . S
Li794 O854 1.956 . S
Li794 O855 1.970 . S
Li795 N845 1.990 . S
Li795 O853 1.961 . S
Li795 O854 1.970 . S
Li795 O855 1.956 . S
C796 C798 1.348 . S
C796 C799 1.356 . S
C796 O852 1.325 . S
N797 C800 1.314 . S
N797 C801 1.279 . S
C798 C796 1.348 . S
C798 C800 1.353 . S
C798 H856 0.929 . S
C799 C796 1.356 . S
C799 C801 1.358 . S
C799 H857 0.930 . S
C800 N797 1.314 . S
C800 C798 1.353 . S
C800 H858 0.930 . S
C801 N797 1.279 . S
C801 C799 1.358 . S
C801 H859 0.930 . S
C802 C805 1.348 . S
C802 C806 1.356 . S
C802 O853 1.325 . S
C803 N804 1.279 . S
C803 C806 1.358 . S
C803 H860 0.930 . S
N804 C803 1.279 . S
N804 C807 1.314 . S
C805 C802 1.348 . S
C805 C807 1.353 . S
C805 H861 0.929 . S
C806 C802 1.356 . S
C806 C803 1.358 . S
C806 H862 0.930 . S
C807 N804 1.314 . S
C807 C805 1.353 . S
C807 H863 0.930 . S
C808 N809 1.314 . S
C808 C813 1.353 . S
C808 H814 0.930 . S
N809 Li792 1.990 . S
N809 C808 1.314 . S
N809 C811 1.279 . S
C810 C811 1.358 . S
C810 C812 1.356 . S
C810 H864 0.930 . S
C811 N809 1.279 . S
C811 C810 1.358 . S
C811 H815 0.930 . S
C812 C810 1.356 . S
C812 C813 1.348 . S
C813 C808 1.353 . S
C813 C812 1.348 . S
C813 H865 0.929 . S
H814 C808 0.930 . S
H815 C811 0.930 . S
C816 N817 1.314 . S
C816 C818 1.353 . S
C816 H822 0.930 . S
N817 Li793 1.990 . S
N817 C816 1.314 . S
N817 C820 1.279 . S
C818 C816 1.353 . S
C818 C821 1.348 . S
C818 H866 0.929 . S
C819 C820 1.358 . S
C819 C821 1.356 . S
C819 H867 0.930 . S
C820 N817 1.279 . S
C820 C819 1.358 . S
C820 H823 0.930 . S
C821 C818 1.348 . S
C821 C819 1.356 . S
H822 C816 0.930 . S
H823 C820 0.930 . S
C824 C826 1.348 . S
C824 C827 1.356 . S
C824 O854 1.325 . S
N825 C828 1.314 . S
N825 C829 1.279 . S
C826 C824 1.348 . S
C826 C828 1.353 . S
C826 H868 0.929 . S
C827 C824 1.356 . S
C827 C829 1.358 . S
C827 H869 0.930 . S
C828 N825 1.314 . S
C828 C826 1.353 . S
C828 H870 0.930 . S
C829 N825 1.279 . S
C829 C827 1.358 . S
C829 H871 0.930 . S
C830 C831 1.348 . S
C830 C832 1.356 . S
C830 O855 1.325 . S
C831 C830 1.348 . S
C831 C833 1.353 . S
C831 H872 0.929 . S
C832 C830 1.356 . S
C832 C834 1.358 . S
C832 H873 0.930 . S
C833 C831 1.353 . S
C833 N835 1.314 . S
C833 H874 0.930 . S
C834 C832 1.358 . S
C834 N835 1.279 . S
C834 H875 0.930 . S
N835 C833 1.314 . S
N835 C834 1.279 . S
C836 C838 1.353 . S
C836 N839 1.314 . S
C836 H842 0.930 . S
C837 N839 1.279 . S
C837 C840 1.358 . S
C837 H843 0.930 . S
C838 C836 1.353 . S
C838 C841 1.348 . S
C838 H876 0.929 . S
N839 Li794 1.990 . S
N839 C836 1.314 . S
N839 C837 1.279 . S
C840 C837 1.358 . S
C840 C841 1.356 . S
C840 H877 0.930 . S
C841 C838 1.348 . S
C841 C840 1.356 . S
H842 C836 0.930 . S
H843 C837 0.930 . S
C844 N845 1.314 . S
C844 C846 1.353 . S
C844 H850 0.930 . S
N845 Li795 1.990 . S
N845 C844 1.314 . S
N845 C848 1.279 . S
C846 C844 1.353 . S
C846 C849 1.348 . S
C846 H878 0.929 . S
C847 C848 1.358 . S
C847 C849 1.356 . S
C847 H879 0.930 . S
C848 N845 1.279 . S
C848 C847 1.358 . S
C848 H851 0.930 . S
C849 C846 1.348 . S
C849 C847 1.356 . S
H850 C844 0.930 . S
H851 C848 0.930 . S
O852 Li792 1.956 . S
O852 Li793 1.970 . S
O852 Li794 1.961 . S
O852 C796 1.325 . S
O853 Li792 1.970 . S
O853 Li793 1.956 . S
O853 Li795 1.961 . S
O853 C802 1.325 . S
O854 Li792 1.961 . S
O854 Li794 1.956 . S
O854 Li795 1.970 . S
O854 C824 1.325 . S
O855 Li793 1.961 . S
O855 Li794 1.970 . S
O855 Li795 1.956 . S
O855 C830 1.325 . S
H856 C798 0.929 . S
H857 C799 0.930 . S
H858 C800 0.930 . S
H859 C801 0.930 . S
H860 C803 0.930 . S
H861 C805 0.929 . S
H862 C806 0.930 . S
H863 C807 0.930 . S
H864 C810 0.930 . S
H865 C813 0.929 . S
H866 C818 0.929 . S
H867 C819 0.930 . S
H868 C826 0.929 . S
H869 C827 0.930 . S
H870 C828 0.930 . S
H871 C829 0.930 . S
H872 C831 0.929 . S
H873 C832 0.930 . S
H874 C833 0.930 . S
H875 C834 0.930 . S
H876 C838 0.929 . S
H877 C840 0.930 . S
H878 C846 0.929 . S
H879 C847 0.930 . S
Li880 N897 1.990 . S
Li880 O940 1.956 . S
Li880 O941 1.970 . S
Li880 O942 1.961 . S
Li881 N905 1.990 . S
Li881 O940 1.970 . S
Li881 O941 1.956 . S
Li881 O943 1.961 . S
Li882 N927 1.990 . S
Li882 O940 1.961 . S
Li882 O942 1.956 . S
Li882 O943 1.970 . S
Li883 N933 1.990 . S
Li883 O941 1.961 . S
Li883 O942 1.970 . S
Li883 O943 1.956 . S
C884 C886 1.348 . S
C884 C887 1.356 . S
C884 O940 1.325 . S
N885 C888 1.314 . S
N885 C889 1.279 . S
C886 C884 1.348 . S
C886 C888 1.353 . S
C886 H944 0.929 . S
C887 C884 1.356 . S
C887 C889 1.358 . S
C887 H945 0.930 . S
C888 N885 1.314 . S
C888 C886 1.353 . S
C888 H946 0.930 . S
C889 N885 1.279 . S
C889 C887 1.358 . S
C889 H947 0.930 . S
C890 C893 1.348 . S
C890 C894 1.356 . S
C890 O941 1.325 . S
C891 N892 1.279 . S
C891 C894 1.358 1_554 S
C891 H948 0.930 . S
N892 C891 1.279 . S
N892 C895 1.314 . S
C893 C890 1.348 . S
C893 C895 1.353 1_556 S
C893 H949 0.929 . S
C894 C890 1.356 . S
C894 C891 1.358 1_556 S
C894 H950 0.930 . S
C895 N892 1.314 . S
C895 C893 1.353 1_554 S
C895 H951 0.930 . S
C896 N897 1.314 . S
C896 C901 1.353 . S
C896 H902 0.930 . S
N897 Li880 1.990 . S
N897 C896 1.314 . S
N897 C899 1.279 . S
C898 C899 1.358 . S
C898 C900 1.356 . S
C898 H952 0.930 . S
C899 N897 1.279 . S
C899 C898 1.358 . S
C899 H903 0.930 . S
C900 C898 1.356 . S
C900 C901 1.348 . S
C901 C896 1.353 . S
C901 C900 1.348 . S
C901 H953 0.929 . S
H902 C896 0.930 . S
H903 C899 0.930 . S
C904 N905 1.314 . S
C904 C906 1.353 . S
C904 H910 0.930 . S
N905 Li881 1.990 . S
N905 C904 1.314 . S
N905 C908 1.279 . S
C906 C904 1.353 . S
C906 C909 1.348 . S
C906 H954 0.929 . S
C907 C908 1.358 . S
C907 C909 1.356 . S
C907 H955 0.930 . S
C908 N905 1.279 . S
C908 C907 1.358 . S
C908 H911 0.930 . S
C909 C906 1.348 . S
C909 C907 1.356 . S
H910 C904 0.930 . S
H911 C908 0.930 . S
C912 C914 1.348 . S
C912 C915 1.356 . S
C912 O942 1.325 . S
N913 C916 1.314 . S
N913 C917 1.279 . S
C914 C912 1.348 . S
C914 C916 1.353 . S
C914 H956 0.929 . S
C915 C912 1.356 . S
C915 C917 1.358 . S
C915 H957 0.930 . S
C916 N913 1.314 . S
C916 C914 1.353 . S
C916 H958 0.930 . S
C917 N913 1.279 . S
C917 C915 1.358 . S
C917 H959 0.930 . S
C918 C919 1.348 . S
C918 C920 1.356 . S
C918 O943 1.325 . S
C919 C918 1.348 . S
C919 C921 1.353 . S
C919 H960 0.929 . S
C920 C918 1.356 . S
C920 C922 1.358 . S
C920 H961 0.930 . S
C921 C919 1.353 . S
C921 N923 1.314 . S
C921 H962 0.930 . S
C922 C920 1.358 . S
C922 N923 1.279 . S
C922 H963 0.930 . S
N923 C921 1.314 . S
N923 C922 1.279 . S
C924 C926 1.353 . S
C924 N927 1.314 . S
C924 H930 0.930 . S
C925 N927 1.279 . S
C925 C928 1.358 . S
C925 H931 0.930 . S
C926 C924 1.353 . S
C926 C929 1.348 . S
C926 H964 0.929 . S
N927 Li882 1.990 . S
N927 C924 1.314 . S
N927 C925 1.279 . S
C928 C925 1.358 . S
C928 C929 1.356 . S
C928 H965 0.930 . S
C929 C926 1.348 . S
C929 C928 1.356 . S
H930 C924 0.930 . S
H931 C925 0.930 . S
C932 N933 1.314 . S
C932 C934 1.353 . S
C932 H938 0.930 . S
N933 Li883 1.990 . S
N933 C932 1.314 . S
N933 C936 1.279 . S
C934 C932 1.353 . S
C934 C937 1.348 . S
C934 H966 0.929 1_556 S
C935 C936 1.358 . S
C935 C937 1.356 . S
C935 H967 0.930 . S
C936 N933 1.279 . S
C936 C935 1.358 . S
C936 H939 0.930 . S
C937 C934 1.348 . S
C937 C935 1.356 . S
H938 C932 0.930 . S
H939 C936 0.930 . S
O940 Li880 1.956 . S
O940 Li881 1.970 . S
O940 Li882 1.961 . S
O940 C884 1.325 . S
O941 Li880 1.970 . S
O941 Li881 1.956 . S
O941 Li883 1.961 . S
O941 C890 1.325 . S
O942 Li880 1.961 . S
O942 Li882 1.956 . S
O942 Li883 1.970 . S
O942 C912 1.325 . S
O943 Li881 1.961 . S
O943 Li882 1.970 . S
O943 Li883 1.956 . S
O943 C918 1.325 . S
H944 C886 0.929 . S
H945 C887 0.930 . S
H946 C888 0.930 . S
H947 C889 0.930 . S
H948 C891 0.930 . S
H949 C893 0.929 . S
H950 C894 0.930 . S
H951 C895 0.930 . S
H952 C898 0.930 . S
H953 C901 0.929 . S
H954 C906 0.929 . S
H955 C907 0.930 . S
H956 C914 0.929 . S
H957 C915 0.930 . S
H958 C916 0.930 . S
H959 C917 0.930 . S
H960 C919 0.929 . S
H961 C920 0.930 . S
H962 C921 0.930 . S
H963 C922 0.930 . S
H964 C926 0.929 . S
H965 C928 0.930 . S
H966 C934 0.929 1_554 S
H967 C935 0.930 . S
Li968 N985 1.990 . S
Li968 O1028 1.956 . S
Li968 O1029 1.970 . S
Li968 O1030 1.961 . S
Li969 N993 1.990 . S
Li969 O1028 1.970 . S
Li969 O1029 1.956 . S
Li969 O1031 1.961 . S
Li970 N1015 1.990 . S
Li970 O1028 1.961 . S
Li970 O1030 1.956 . S
Li970 O1031 1.970 . S
Li971 N1021 1.990 . S
Li971 O1029 1.961 . S
Li971 O1030 1.970 . S
Li971 O1031 1.956 . S
C972 C974 1.348 . S
C972 C975 1.356 . S
C972 O1028 1.325 . S
N973 C976 1.314 . S
N973 C977 1.279 . S
C974 C972 1.348 . S
C974 C976 1.353 . S
C974 H1032 0.929 . S
C975 C972 1.356 . S
C975 C977 1.358 . S
C975 H1033 0.930 . S
C976 N973 1.314 . S
C976 C974 1.353 . S
C976 H1034 0.930 . S
C977 N973 1.279 . S
C977 C975 1.358 . S
C977 H1035 0.930 . S
C978 C981 1.348 . S
C978 C982 1.356 . S
C978 O1029 1.325 . S
C979 N980 1.279 . S
C979 C982 1.358 . S
C979 H1036 0.930 . S
N980 C979 1.279 . S
N980 C983 1.314 . S
C981 C978 1.348 . S
C981 C983 1.353 . S
C981 H1037 0.929 . S
C982 C978 1.356 . S
C982 C979 1.358 . S
C982 H1038 0.930 . S
C983 N980 1.314 . S
C983 C981 1.353 . S
C983 H1039 0.930 . S
C984 N985 1.314 . S
C984 C989 1.353 . S
C984 H990 0.930 . S
N985 Li968 1.990 . S
N985 C984 1.314 . S
N985 C987 1.279 . S
C986 C987 1.358 . S
C986 C988 1.356 . S
C986 H1040 0.930 . S
C987 N985 1.279 . S
C987 C986 1.358 . S
C987 H991 0.930 . S
C988 C986 1.356 . S
C988 C989 1.348 . S
C989 C984 1.353 . S
C989 C988 1.348 . S
C989 H1041 0.929 . S
H990 C984 0.930 . S
H991 C987 0.930 . S
C992 N993 1.314 . S
C992 C994 1.353 . S
C992 H998 0.930 . S
N993 Li969 1.990 . S
N993 C992 1.314 . S
N993 C996 1.279 . S
C994 C992 1.353 . S
C994 C997 1.348 . S
C994 H1042 0.929 . S
C995 C996 1.358 . S
C995 C997 1.356 . S
C995 H1043 0.930 . S
C996 N993 1.279 . S
C996 C995 1.358 . S
C996 H999 0.930 . S
C997 C994 1.348 . S
C997 C995 1.356 . S
H998 C992 0.930 . S
H999 C996 0.930 . S
C1000 C1002 1.348 . S
C1000 C1003 1.356 . S
C1000 O1030 1.325 . S
N1001 C1004 1.314 . S
N1001 C1005 1.279 . S
C1002 C1000 1.348 . S
C1002 C1004 1.353 . S
C1002 H1044 0.929 . S
C1003 C1000 1.356 . S
C1003 C1005 1.358 . S
C1003 H1045 0.930 . S
C1004 N1001 1.314 . S
C1004 C1002 1.353 . S
C1004 H1046 0.930 . S
C1005 N1001 1.279 . S
C1005 C1003 1.358 . S
C1005 H1047 0.930 . S
C1006 C1007 1.348 . S
C1006 C1008 1.356 . S
C1006 O1031 1.325 . S
C1007 C1006 1.348 . S
C1007 C1009 1.353 . S
C1007 H1048 0.929 . S
C1008 C1006 1.356 . S
C1008 C1010 1.358 . S
C1008 H1049 0.930 . S
C1009 C1007 1.353 . S
C1009 N1011 1.314 . S
C1009 H1050 0.930 . S
C1010 C1008 1.358 . S
C1010 N1011 1.279 . S
C1010 H1051 0.930 . S
N1011 C1009 1.314 . S
N1011 C1010 1.279 . S
C1012 C1014 1.353 . S
C1012 N1015 1.314 . S
C1012 H1018 0.930 . S
C1013 N1015 1.279 . S
C1013 C1016 1.358 . S
C1013 H1019 0.930 . S
C1014 C1012 1.353 . S
C1014 C1017 1.348 . S
C1014 H1052 0.929 . S
N1015 Li970 1.990 . S
N1015 C1012 1.314 . S
N1015 C1013 1.279 . S
C1016 C1013 1.358 . S
C1016 C1017 1.356 . S
C1016 H1053 0.930 . S
C1017 C1014 1.348 . S
C1017 C1016 1.356 . S
H1018 C1012 0.930 . S
H1019 C1013 0.930 . S
C1020 N1021 1.314 . S
C1020 C1022 1.353 . S
C1020 H1026 0.930 . S
N1021 Li971 1.990 . S
N1021 C1020 1.314 . S
N1021 C1024 1.279 . S
C1022 C1020 1.353 . S
C1022 C1025 1.348 . S
C1022 H1054 0.929 . S
C1023 C1024 1.358 . S
C1023 C1025 1.356 . S
C1023 H1055 0.930 . S
C1024 N1021 1.279 . S
C1024 C1023 1.358 . S
C1024 H1027 0.930 . S
C1025 C1022 1.348 . S
C1025 C1023 1.356 . S
H1026 C1020 0.930 . S
H1027 C1024 0.930 . S
O1028 Li968 1.956 . S
O1028 Li969 1.970 . S
O1028 Li970 1.961 . S
O1028 C972 1.325 . S
O1029 Li968 1.970 . S
O1029 Li969 1.956 . S
O1029 Li971 1.961 . S
O1029 C978 1.325 . S
O1030 Li968 1.961 . S
O1030 Li970 1.956 . S
O1030 Li971 1.970 . S
O1030 C1000 1.325 . S
O1031 Li969 1.961 . S
O1031 Li970 1.970 . S
O1031 Li971 1.956 . S
O1031 C1006 1.325 . S
H1032 C974 0.929 . S
H1033 C975 0.930 . S
H1034 C976 0.930 . S
H1035 C977 0.930 . S
H1036 C979 0.930 . S
H1037 C981 0.929 . S
H1038 C982 0.930 . S
H1039 C983 0.930 . S
H1040 C986 0.930 . S
H1041 C989 0.929 . S
H1042 C994 0.929 . S
H1043 C995 0.930 . S
H1044 C1002 0.929 . S
H1045 C1003 0.930 . S
H1046 C1004 0.930 . S
H1047 C1005 0.930 . S
H1048 C1007 0.929 . S
H1049 C1008 0.930 . S
H1050 C1009 0.930 . S
H1051 C1010 0.930 . S
H1052 C1014 0.929 . S
H1053 C1016 0.930 . S
H1054 C1022 0.929 . S
H1055 C1023 0.930 . S
Li1056 N1073 1.990 . S
Li1056 O1116 1.956 . S
Li1056 O1117 1.970 . S
Li1056 O1118 1.961 . S
Li1057 N1081 1.990 . S
Li1057 O1116 1.970 . S
Li1057 O1117 1.956 . S
Li1057 O1119 1.961 . S
Li1058 N1103 1.990 . S
Li1058 O1116 1.961 . S
Li1058 O1118 1.956 . S
Li1058 O1119 1.970 . S
Li1059 N1109 1.990 . S
Li1059 O1117 1.961 . S
Li1059 O1118 1.970 . S
Li1059 O1119 1.956 . S
C1060 C1062 1.348 . S
C1060 C1063 1.356 . S
C1060 O1116 1.325 . S
N1061 C1064 1.314 . S
N1061 C1065 1.279 . S
C1062 C1060 1.348 . S
C1062 C1064 1.353 1_556 S
C1062 H1120 0.929 . S
C1063 C1060 1.356 . S
C1063 C1065 1.358 1_556 S
C1063 H1121 0.930 . S
C1064 N1061 1.314 . S
C1064 C1062 1.353 1_554 S
C1064 H1122 0.930 . S
C1065 N1061 1.279 . S
C1065 C1063 1.358 1_554 S
C1065 H1123 0.930 . S
C1066 C1069 1.348 . S
C1066 C1070 1.356 . S
C1066 O1117 1.325 . S
C1067 N1068 1.279 . S
C1067 C1070 1.358 . S
C1067 H1124 0.930 . S
N1068 C1067 1.279 . S
N1068 C1071 1.314 . S
C1069 C1066 1.348 . S
C1069 C1071 1.353 . S
C1069 H1125 0.929 . S
C1070 C1066 1.356 . S
C1070 C1067 1.358 . S
C1070 H1126 0.930 . S
C1071 N1068 1.314 . S
C1071 C1069 1.353 . S
C1071 H1127 0.930 . S
C1072 N1073 1.314 . S
C1072 C1077 1.353 . S
C1072 H1078 0.930 . S
N1073 Li1056 1.990 . S
N1073 C1072 1.314 . S
N1073 C1075 1.279 . S
C1074 C1075 1.358 . S
C1074 C1076 1.356 . S
C1074 H1128 0.930 1_556 S
C1075 N1073 1.279 . S
C1075 C1074 1.358 . S
C1075 H1079 0.930 . S
C1076 C1074 1.356 . S
C1076 C1077 1.348 . S
C1077 C1072 1.353 . S
C1077 C1076 1.348 . S
C1077 H1129 0.929 . S
H1078 C1072 0.930 . S
H1079 C1075 0.930 . S
C1080 N1081 1.314 . S
C1080 C1082 1.353 . S
C1080 H1086 0.930 . S
N1081 Li1057 1.990 . S
N1081 C1080 1.314 . S
N1081 C1084 1.279 . S
C1082 C1080 1.353 . S
C1082 C1085 1.348 . S
C1082 H1130 0.929 . S
C1083 C1084 1.358 . S
C1083 C1085 1.356 . S
C1083 H1131 0.930 . S
C1084 N1081 1.279 . S
C1084 C1083 1.358 . S
C1084 H1087 0.930 . S
C1085 C1082 1.348 . S
C1085 C1083 1.356 . S
H1086 C1080 0.930 . S
H1087 C1084 0.930 . S
C1088 C1090 1.348 . S
C1088 C1091 1.356 . S
C1088 O1118 1.325 . S
N1089 C1092 1.314 . S
N1089 C1093 1.279 . S
C1090 C1088 1.348 . S
C1090 C1092 1.353 . S
C1090 H1132 0.929 . S
C1091 C1088 1.356 . S
C1091 C1093 1.358 . S
C1091 H1133 0.930 . S
C1092 N1089 1.314 . S
C1092 C1090 1.353 . S
C1092 H1134 0.930 . S
C1093 N1089 1.279 . S
C1093 C1091 1.358 . S
C1093 H1135 0.930 . S
C1094 C1095 1.348 . S
C1094 C1096 1.356 . S
C1094 O1119 1.325 . S
C1095 C1094 1.348 . S
C1095 C1097 1.353 . S
C1095 H1136 0.929 . S
C1096 C1094 1.356 . S
C1096 C1098 1.358 . S
C1096 H1137 0.930 . S
C1097 C1095 1.353 . S
C1097 N1099 1.314 . S
C1097 H1138 0.930 . S
C1098 C1096 1.358 . S
C1098 N1099 1.279 . S
C1098 H1139 0.930 . S
N1099 C1097 1.314 . S
N1099 C1098 1.279 . S
C1100 C1102 1.353 . S
C1100 N1103 1.314 . S
C1100 H1106 0.930 . S
C1101 N1103 1.279 . S
C1101 C1104 1.358 . S
C1101 H1107 0.930 . S
C1102 C1100 1.353 . S
C1102 C1105 1.348 . S
C1102 H1140 0.929 . S
N1103 Li1058 1.990 . S
N1103 C1100 1.314 . S
N1103 C1101 1.279 . S
C1104 C1101 1.358 . S
C1104 C1105 1.356 . S
C1104 H1141 0.930 . S
C1105 C1102 1.348 . S
C1105 C1104 1.356 . S
H1106 C1100 0.930 . S
H1107 C1101 0.930 . S
C1108 N1109 1.314 . S
C1108 C1110 1.353 . S
C1108 H1114 0.930 . S
N1109 Li1059 1.990 . S
N1109 C1108 1.314 . S
N1109 C1112 1.279 . S
C1110 C1108 1.353 . S
C1110 C1113 1.348 . S
C1110 H1142 0.929 . S
C1111 C1112 1.358 . S
C1111 C1113 1.356 . S
C1111 H1143 0.930 . S
C1112 N1109 1.279 . S
C1112 C1111 1.358 . S
C1112 H1115 0.930 . S
C1113 C1110 1.348 . S
C1113 C1111 1.356 . S
H1114 C1108 0.930 . S
H1115 C1112 0.930 . S
O1116 Li1056 1.956 . S
O1116 Li1057 1.970 . S
O1116 Li1058 1.961 . S
O1116 C1060 1.325 . S
O1117 Li1056 1.970 . S
O1117 Li1057 1.956 . S
O1117 Li1059 1.961 . S
O1117 C1066 1.325 . S
O1118 Li1056 1.961 . S
O1118 Li1058 1.956 . S
O1118 Li1059 1.970 . S
O1118 C1088 1.325 . S
O1119 Li1057 1.961 . S
O1119 Li1058 1.970 . S
O1119 Li1059 1.956 . S
O1119 C1094 1.325 . S
H1120 C1062 0.929 . S
H1121 C1063 0.930 . S
H1122 C1064 0.930 . S
H1123 C1065 0.930 . S
H1124 C1067 0.930 . S
H1125 C1069 0.929 . S
H1126 C1070 0.930 . S
H1127 C1071 0.930 . S
H1128 C1074 0.930 1_554 S
H1129 C1077 0.929 . S
H1130 C1082 0.929 . S
H1131 C1083 0.930 . S
H1132 C1090 0.929 . S
H1133 C1091 0.930 . S
H1134 C1092 0.930 . S
H1135 C1093 0.930 . S
H1136 C1095 0.929 . S
H1137 C1096 0.930 . S
H1138 C1097 0.930 . S
H1139 C1098 0.930 . S
H1140 C1102 0.929 . S
H1141 C1104 0.930 . S
H1142 C1110 0.929 . S
H1143 C1111 0.930 . S
Li1144 N1161 1.990 . S
Li1144 O1204 1.956 . S
Li1144 O1205 1.970 . S
Li1144 O1206 1.961 . S
Li1145 N1169 1.990 . S
Li1145 O1204 1.970 . S
Li1145 O1205 1.956 . S
Li1145 O1207 1.961 . S
Li1146 N1191 1.990 . S
Li1146 O1204 1.961 . S
Li1146 O1206 1.956 . S
Li1146 O1207 1.970 . S
Li1147 N1197 1.990 . S
Li1147 O1205 1.961 . S
Li1147 O1206 1.970 . S
Li1147 O1207 1.956 . S
C1148 C1150 1.348 . S
C1148 C1151 1.356 . S
C1148 O1204 1.325 . S
N1149 C1152 1.314 . S
N1149 C1153 1.279 . S
C1150 C1148 1.348 . S
C1150 C1152 1.353 . S
C1150 H1208 0.929 . S
C1151 C1148 1.356 . S
C1151 C1153 1.358 . S
C1151 H1209 0.930 . S
C1152 N1149 1.314 . S
C1152 C1150 1.353 . S
C1152 H1210 0.930 . S
C1153 N1149 1.279 . S
C1153 C1151 1.358 . S
C1153 H1211 0.930 . S
C1154 C1157 1.348 . S
C1154 C1158 1.356 . S
C1154 O1205 1.325 . S
C1155 N1156 1.279 . S
C1155 C1158 1.358 . S
C1155 H1212 0.930 . S
N1156 C1155 1.279 . S
N1156 C1159 1.314 . S
C1157 C1154 1.348 . S
C1157 C1159 1.353 . S
C1157 H1213 0.929 . S
C1158 C1154 1.356 . S
C1158 C1155 1.358 . S
C1158 H1214 0.930 . S
C1159 N1156 1.314 . S
C1159 C1157 1.353 . S
C1159 H1215 0.930 . S
C1160 N1161 1.314 . S
C1160 C1165 1.353 . S
C1160 H1166 0.930 . S
N1161 Li1144 1.990 . S
N1161 C1160 1.314 . S
N1161 C1163 1.279 . S
C1162 C1163 1.358 . S
C1162 C1164 1.356 . S
C1162 H1216 0.930 . S
C1163 N1161 1.279 . S
C1163 C1162 1.358 . S
C1163 H1167 0.930 . S
C1164 C1162 1.356 . S
C1164 C1165 1.348 . S
C1165 C1160 1.353 . S
C1165 C1164 1.348 . S
C1165 H1217 0.929 . S
H1166 C1160 0.930 . S
H1167 C1163 0.930 . S
C1168 N1169 1.314 . S
C1168 C1170 1.353 . S
C1168 H1174 0.930 . S
N1169 Li1145 1.990 . S
N1169 C1168 1.314 . S
N1169 C1172 1.279 . S
C1170 C1168 1.353 . S
C1170 C1173 1.348 . S
C1170 H1218 0.929 . S
C1171 C1172 1.358 . S
C1171 C1173 1.356 . S
C1171 H1219 0.930 . S
C1172 N1169 1.279 . S
C1172 C1171 1.358 . S
C1172 H1175 0.930 . S
C1173 C1170 1.348 . S
C1173 C1171 1.356 . S
H1174 C1168 0.930 . S
H1175 C1172 0.930 . S
C1176 C1178 1.348 . S
C1176 C1179 1.356 . S
C1176 O1206 1.325 . S
N1177 C1180 1.314 . S
N1177 C1181 1.279 . S
C1178 C1176 1.348 . S
C1178 C1180 1.353 . S
C1178 H1220 0.929 . S
C1179 C1176 1.356 . S
C1179 C1181 1.358 . S
C1179 H1221 0.930 . S
C1180 N1177 1.314 . S
C1180 C1178 1.353 . S
C1180 H1222 0.930 . S
C1181 N1177 1.279 . S
C1181 C1179 1.358 . S
C1181 H1223 0.930 . S
C1182 C1183 1.348 . S
C1182 C1184 1.356 . S
C1182 O1207 1.325 . S
C1183 C1182 1.348 . S
C1183 C1185 1.353 . S
C1183 H1224 0.929 . S
C1184 C1182 1.356 . S
C1184 C1186 1.358 . S
C1184 H1225 0.930 . S
C1185 C1183 1.353 . S
C1185 N1187 1.314 . S
C1185 H1226 0.930 . S
C1186 C1184 1.358 . S
C1186 N1187 1.279 . S
C1186 H1227 0.930 . S
N1187 C1185 1.314 . S
N1187 C1186 1.279 . S
C1188 C1190 1.353 . S
C1188 N1191 1.314 . S
C1188 H1194 0.930 . S
C1189 N1191 1.279 . S
C1189 C1192 1.358 . S
C1189 H1195 0.930 . S
C1190 C1188 1.353 . S
C1190 C1193 1.348 . S
C1190 H1228 0.929 . S
N1191 Li1146 1.990 . S
N1191 C1188 1.314 . S
N1191 C1189 1.279 . S
C1192 C1189 1.358 . S
C1192 C1193 1.356 . S
C1192 H1229 0.930 . S
C1193 C1190 1.348 . S
C1193 C1192 1.356 . S
H1194 C1188 0.930 . S
H1195 C1189 0.930 . S
C1196 N1197 1.314 . S
C1196 C1198 1.353 . S
C1196 H1202 0.930 . S
N1197 Li1147 1.990 . S
N1197 C1196 1.314 . S
N1197 C1200 1.279 . S
C1198 C1196 1.353 . S
C1198 C1201 1.348 . S
C1198 H1230 0.929 . S
C1199 C1200 1.358 . S
C1199 C1201 1.356 . S
C1199 H1231 0.930 . S
C1200 N1197 1.279 . S
C1200 C1199 1.358 . S
C1200 H1203 0.930 . S
C1201 C1198 1.348 . S
C1201 C1199 1.356 . S
H1202 C1196 0.930 . S
H1203 C1200 0.930 . S
O1204 Li1144 1.956 . S
O1204 Li1145 1.970 . S
O1204 Li1146 1.961 . S
O1204 C1148 1.325 . S
O1205 Li1144 1.970 . S
O1205 Li1145 1.956 . S
O1205 Li1147 1.961 . S
O1205 C1154 1.325 . S
O1206 Li1144 1.961 . S
O1206 Li1146 1.956 . S
O1206 Li1147 1.970 . S
O1206 C1176 1.325 . S
O1207 Li1145 1.961 . S
O1207 Li1146 1.970 . S
O1207 Li1147 1.956 . S
O1207 C1182 1.325 . S
H1208 C1150 0.929 . S
H1209 C1151 0.930 . S
H1210 C1152 0.930 . S
H1211 C1153 0.930 . S
H1212 C1155 0.930 . S
H1213 C1157 0.929 . S
H1214 C1158 0.930 . S
H1215 C1159 0.930 . S
H1216 C1162 0.930 . S
H1217 C1165 0.929 . S
H1218 C1170 0.929 . S
H1219 C1171 0.930 . S
H1220 C1178 0.929 . S
H1221 C1179 0.930 . S
H1222 C1180 0.930 . S
H1223 C1181 0.930 . S
H1224 C1183 0.929 . S
H1225 C1184 0.930 . S
H1226 C1185 0.930 . S
H1227 C1186 0.930 . S
H1228 C1190 0.929 . S
H1229 C1192 0.930 . S
H1230 C1198 0.929 . S
H1231 C1199 0.930 . S
Li1232 N1249 1.990 . S
Li1232 O1292 1.956 . S
Li1232 O1293 1.970 . S
Li1232 O1294 1.961 . S
Li1233 N1257 1.990 . S
Li1233 O1292 1.970 . S
Li1233 O1293 1.956 . S
Li1233 O1295 1.961 . S
Li1234 N1279 1.990 . S
Li1234 O1292 1.961 . S
Li1234 O1294 1.956 . S
Li1234 O1295 1.970 . S
Li1235 N1285 1.990 . S
Li1235 O1293 1.961 . S
Li1235 O1294 1.970 . S
Li1235 O1295 1.956 . S
C1236 C1238 1.348 . S
C1236 C1239 1.356 . S
C1236 O1292 1.325 . S
N1237 C1240 1.314 . S
N1237 C1241 1.279 . S
C1238 C1236 1.348 . S
C1238 C1240 1.353 . S
C1238 H1296 0.929 . S
C1239 C1236 1.356 . S
C1239 C1241 1.358 . S
C1239 H1297 0.930 . S
C1240 N1237 1.314 . S
C1240 C1238 1.353 . S
C1240 H1298 0.930 . S
C1241 N1237 1.279 . S
C1241 C1239 1.358 . S
C1241 H1299 0.930 . S
C1242 C1245 1.348 . S
C1242 C1246 1.356 . S
C1242 O1293 1.325 . S
C1243 N1244 1.279 . S
C1243 C1246 1.358 . S
C1243 H1300 0.930 . S
N1244 C1243 1.279 . S
N1244 C1247 1.314 . S
C1245 C1242 1.348 . S
C1245 C1247 1.353 . S
C1245 H1301 0.929 . S
C1246 C1242 1.356 . S
C1246 C1243 1.358 . S
C1246 H1302 0.930 . S
C1247 N1244 1.314 . S
C1247 C1245 1.353 . S
C1247 H1303 0.930 . S
C1248 N1249 1.314 . S
C1248 C1253 1.353 . S
C1248 H1254 0.930 . S
N1249 Li1232 1.990 . S
N1249 C1248 1.314 . S
N1249 C1251 1.279 . S
C1250 C1251 1.358 . S
C1250 C1252 1.356 . S
C1250 H1304 0.930 . S
C1251 N1249 1.279 . S
C1251 C1250 1.358 . S
C1251 H1255 0.930 . S
C1252 C1250 1.356 . S
C1252 C1253 1.348 . S
C1253 C1248 1.353 . S
C1253 C1252 1.348 . S
C1253 H1305 0.929 . S
H1254 C1248 0.930 . S
H1255 C1251 0.930 . S
C1256 N1257 1.314 . S
C1256 C1258 1.353 . S
C1256 H1262 0.930 . S
N1257 Li1233 1.990 . S
N1257 C1256 1.314 . S
N1257 C1260 1.279 . S
C1258 C1256 1.353 . S
C1258 C1261 1.348 . S
C1258 H1306 0.929 . S
C1259 C1260 1.358 . S
C1259 C1261 1.356 . S
C1259 H1307 0.930 . S
C1260 N1257 1.279 . S
C1260 C1259 1.358 . S
C1260 H1263 0.930 . S
C1261 C1258 1.348 . S
C1261 C1259 1.356 . S
H1262 C1256 0.930 . S
H1263 C1260 0.930 . S
C1264 C1266 1.348 . S
C1264 C1267 1.356 . S
C1264 O1294 1.325 . S
N1265 C1268 1.314 . S
N1265 C1269 1.279 . S
C1266 C1264 1.348 . S
C1266 C1268 1.353 . S
C1266 H1308 0.929 . S
C1267 C1264 1.356 . S
C1267 C1269 1.358 . S
C1267 H1309 0.930 . S
C1268 N1265 1.314 . S
C1268 C1266 1.353 . S
C1268 H1310 0.930 . S
C1269 N1265 1.279 . S
C1269 C1267 1.358 . S
C1269 H1311 0.930 . S
C1270 C1271 1.348 . S
C1270 C1272 1.356 . S
C1270 O1295 1.325 . S
C1271 C1270 1.348 . S
C1271 C1273 1.353 1_554 S
C1271 H1312 0.929 . S
C1272 C1270 1.356 . S
C1272 C1274 1.358 1_554 S
C1272 H1313 0.930 . S
C1273 C1271 1.353 1_556 S
C1273 N1275 1.314 . S
C1273 H1314 0.930 . S
C1274 C1272 1.358 1_556 S
C1274 N1275 1.279 . S
C1274 H1315 0.930 . S
N1275 C1273 1.314 . S
N1275 C1274 1.279 . S
C1276 C1278 1.353 . S
C1276 N1279 1.314 . S
C1276 H1282 0.930 . S
C1277 N1279 1.279 . S
C1277 C1280 1.358 . S
C1277 H1283 0.930 . S
C1278 C1276 1.353 . S
C1278 C1281 1.348 . S
C1278 H1316 0.929 . S
N1279 Li1234 1.990 . S
N1279 C1276 1.314 . S
N1279 C1277 1.279 . S
C1280 C1277 1.358 . S
C1280 C1281 1.356 . S
C1280 H1317 0.930 . S
C1281 C1278 1.348 . S
C1281 C1280 1.356 . S
H1282 C1276 0.930 . S
H1283 C1277 0.930 . S
C1284 N1285 1.314 . S
C1284 C1286 1.353 . S
C1284 H1290 0.930 . S
N1285 Li1235 1.990 . S
N1285 C1284 1.314 . S
N1285 C1288 1.279 . S
C1286 C1284 1.353 . S
C1286 C1289 1.348 . S
C1286 H1318 0.929 . S
C1287 C1288 1.358 . S
C1287 C1289 1.356 . S
C1287 H1319 0.930 1_554 S
C1288 N1285 1.279 . S
C1288 C1287 1.358 . S
C1288 H1291 0.930 . S
C1289 C1286 1.348 . S
C1289 C1287 1.356 . S
H1290 C1284 0.930 . S
H1291 C1288 0.930 . S
O1292 Li1232 1.956 . S
O1292 Li1233 1.970 . S
O1292 Li1234 1.961 . S
O1292 C1236 1.325 . S
O1293 Li1232 1.970 . S
O1293 Li1233 1.956 . S
O1293 Li1235 1.961 . S
O1293 C1242 1.325 . S
O1294 Li1232 1.961 . S
O1294 Li1234 1.956 . S
O1294 Li1235 1.970 . S
O1294 C1264 1.325 . S
O1295 Li1233 1.961 . S
O1295 Li1234 1.970 . S
O1295 Li1235 1.956 . S
O1295 C1270 1.325 . S
H1296 C1238 0.929 . S
H1297 C1239 0.930 . S
H1298 C1240 0.930 . S
H1299 C1241 0.930 . S
H1300 C1243 0.930 . S
H1301 C1245 0.929 . S
H1302 C1246 0.930 . S
H1303 C1247 0.930 . S
H1304 C1250 0.930 . S
H1305 C1253 0.929 . S
H1306 C1258 0.929 . S
H1307 C1259 0.930 . S
H1308 C1266 0.929 . S
H1309 C1267 0.930 . S
H1310 C1268 0.930 . S
H1311 C1269 0.930 . S
H1312 C1271 0.929 . S
H1313 C1272 0.930 . S
H1314 C1273 0.930 . S
H1315 C1274 0.930 . S
H1316 C1278 0.929 . S
H1317 C1280 0.930 . S
H1318 C1286 0.929 . S
H1319 C1287 0.930 1_556 S
Li1320 N1337 1.990 . S
Li1320 O1380 1.956 . S
Li1320 O1381 1.970 . S
Li1320 O1382 1.961 . S
Li1321 N1345 1.990 . S
Li1321 O1380 1.970 . S
Li1321 O1381 1.956 . S
Li1321 O1383 1.961 . S
Li1322 N1367 1.990 . S
Li1322 O1380 1.961 . S
Li1322 O1382 1.956 . S
Li1322 O1383 1.970 . S
Li1323 N1373 1.990 . S
Li1323 O1381 1.961 . S
Li1323 O1382 1.970 . S
Li1323 O1383 1.956 . S
C1324 C1326 1.348 . S
C1324 C1327 1.356 . S
C1324 O1380 1.325 . S
N1325 C1328 1.314 . S
N1325 C1329 1.279 . S
C1326 C1324 1.348 . S
C1326 C1328 1.353 . S
C1326 H1384 0.929 . S
C1327 C1324 1.356 . S
C1327 C1329 1.358 . S
C1327 H1385 0.930 . S
C1328 N1325 1.314 . S
C1328 C1326 1.353 . S
C1328 H1386 0.930 . S
C1329 N1325 1.279 . S
C1329 C1327 1.358 . S
C1329 H1387 0.930 . S
C1330 C1333 1.348 . S
C1330 C1334 1.356 . S
C1330 O1381 1.325 . S
C1331 N1332 1.279 . S
C1331 C1334 1.358 . S
C1331 H1388 0.930 . S
N1332 C1331 1.279 . S
N1332 C1335 1.314 . S
C1333 C1330 1.348 . S
C1333 C1335 1.353 . S
C1333 H1389 0.929 . S
C1334 C1330 1.356 . S
C1334 C1331 1.358 . S
C1334 H1390 0.930 . S
C1335 N1332 1.314 . S
C1335 C1333 1.353 . S
C1335 H1391 0.930 . S
C1336 N1337 1.314 . S
C1336 C1341 1.353 . S
C1336 H1342 0.930 . S
N1337 Li1320 1.990 . S
N1337 C1336 1.314 . S
N1337 C1339 1.279 . S
C1338 C1339 1.358 . S
C1338 C1340 1.356 . S
C1338 H1392 0.930 . S
C1339 N1337 1.279 . S
C1339 C1338 1.358 . S
C1339 H1343 0.930 . S
C1340 C1338 1.356 . S
C1340 C1341 1.348 . S
C1341 C1336 1.353 . S
C1341 C1340 1.348 . S
C1341 H1393 0.929 . S
H1342 C1336 0.930 . S
H1343 C1339 0.930 . S
C1344 N1345 1.314 . S
C1344 C1346 1.353 . S
C1344 H1350 0.930 . S
N1345 Li1321 1.990 . S
N1345 C1344 1.314 . S
N1345 C1348 1.279 . S
C1346 C1344 1.353 . S
C1346 C1349 1.348 . S
C1346 H1394 0.929 . S
C1347 C1348 1.358 . S
C1347 C1349 1.356 . S
C1347 H1395 0.930 . S
C1348 N1345 1.279 . S
C1348 C1347 1.358 . S
C1348 H1351 0.930 . S
C1349 C1346 1.348 . S
C1349 C1347 1.356 . S
H1350 C1344 0.930 . S
H1351 C1348 0.930 . S
C1352 C1354 1.348 . S
C1352 C1355 1.356 . S
C1352 O1382 1.325 . S
N1353 C1356 1.314 . S
N1353 C1357 1.279 . S
C1354 C1352 1.348 . S
C1354 C1356 1.353 . S
C1354 H1396 0.929 . S
C1355 C1352 1.356 . S
C1355 C1357 1.358 . S
C1355 H1397 0.930 . S
C1356 N1353 1.314 . S
C1356 C1354 1.353 . S
C1356 H1398 0.930 . S
C1357 N1353 1.279 . S
C1357 C1355 1.358 . S
C1357 H1399 0.930 . S
C1358 C1359 1.348 . S
C1358 C1360 1.356 . S
C1358 O1383 1.325 . S
C1359 C1358 1.348 . S
C1359 C1361 1.353 . S
C1359 H1400 0.929 . S
C1360 C1358 1.356 . S
C1360 C1362 1.358 . S
C1360 H1401 0.930 . S
C1361 C1359 1.353 . S
C1361 N1363 1.314 . S
C1361 H1402 0.930 . S
C1362 C1360 1.358 . S
C1362 N1363 1.279 . S
C1362 H1403 0.930 . S
N1363 C1361 1.314 . S
N1363 C1362 1.279 . S
C1364 C1366 1.353 . S
C1364 N1367 1.314 . S
C1364 H1370 0.930 . S
C1365 N1367 1.279 . S
C1365 C1368 1.358 . S
C1365 H1371 0.930 . S
C1366 C1364 1.353 . S
C1366 C1369 1.348 . S
C1366 H1404 0.929 . S
N1367 Li1322 1.990 . S
N1367 C1364 1.314 . S
N1367 C1365 1.279 . S
C1368 C1365 1.358 . S
C1368 C1369 1.356 . S
C1368 H1405 0.930 . S
C1369 C1366 1.348 . S
C1369 C1368 1.356 . S
H1370 C1364 0.930 . S
H1371 C1365 0.930 . S
C1372 N1373 1.314 . S
C1372 C1374 1.353 . S
C1372 H1378 0.930 . S
N1373 Li1323 1.990 . S
N1373 C1372 1.314 . S
N1373 C1376 1.279 . S
C1374 C1372 1.353 . S
C1374 C1377 1.348 . S
C1374 H1406 0.929 . S
C1375 C1376 1.358 . S
C1375 C1377 1.356 . S
C1375 H1407 0.930 . S
C1376 N1373 1.279 . S
C1376 C1375 1.358 . S
C1376 H1379 0.930 . S
C1377 C1374 1.348 . S
C1377 C1375 1.356 . S
H1378 C1372 0.930 . S
H1379 C1376 0.930 . S
O1380 Li1320 1.956 . S
O1380 Li1321 1.970 . S
O1380 Li1322 1.961 . S
O1380 C1324 1.325 . S
O1381 Li1320 1.970 . S
O1381 Li1321 1.956 . S
O1381 Li1323 1.961 . S
O1381 C1330 1.325 . S
O1382 Li1320 1.961 . S
O1382 Li1322 1.956 . S
O1382 Li1323 1.970 . S
O1382 C1352 1.325 . S
O1383 Li1321 1.961 . S
O1383 Li1322 1.970 . S
O1383 Li1323 1.956 . S
O1383 C1358 1.325 . S
H1384 C1326 0.929 . S
H1385 C1327 0.930 . S
H1386 C1328 0.930 . S
H1387 C1329 0.930 . S
H1388 C1331 0.930 . S
H1389 C1333 0.929 . S
H1390 C1334 0.930 . S
H1391 C1335 0.930 . S
H1392 C1338 0.930 . S
H1393 C1341 0.929 . S
H1394 C1346 0.929 . S
H1395 C1347 0.930 . S
H1396 C1354 0.929 . S
H1397 C1355 0.930 . S
H1398 C1356 0.930 . S
H1399 C1357 0.930 . S
H1400 C1359 0.929 . S
H1401 C1360 0.930 . S
H1402 C1361 0.930 . S
H1403 C1362 0.930 . S
H1404 C1366 0.929 . S
H1405 C1368 0.930 . S
H1406 C1374 0.929 . S
H1407 C1375 0.930 . S
C1408 C1409 1.387 . S
C1408 H1412 0.950 . S
C1408 C1417 1.390 1_455 S
C1409 C1408 1.387 . S
C1409 C1411 1.387 . S
H1410 C1417 0.950 . S
C1411 C1409 1.387 . S
C1411 C1413 1.390 1_455 S
C1411 H1415 0.950 . S
H1412 C1408 0.950 . S
C1413 C1411 1.390 1_655 S
C1413 C1414 1.387 . S
C1413 H1416 0.950 . S
C1414 C1413 1.387 . S
C1414 C1417 1.387 . S
H1415 C1411 0.950 . S
H1416 C1413 0.950 . S
C1417 C1408 1.390 1_655 S
C1417 H1410 0.950 . S
C1417 C1414 1.387 . S
C1418 C1419 1.387 . S
C1418 H1422 0.950 . S
C1418 C1427 1.390 1_655 S
C1419 C1418 1.387 . S
C1419 C1421 1.387 . S
H1420 C1427 0.950 . S
C1421 C1419 1.387 . S
C1421 C1423 1.390 1_655 S
C1421 H1425 0.950 . S
H1422 C1418 0.950 . S
C1423 C1421 1.390 1_455 S
C1423 C1424 1.387 . S
C1423 H1426 0.950 . S
C1424 C1423 1.387 . S
C1424 C1427 1.387 . S
H1425 C1421 0.950 . S
H1426 C1423 0.950 . S
C1427 C1418 1.390 1_455 S
C1427 H1420 0.950 . S
C1427 C1424 1.387 . S
C1428 C1429 1.387 . S
C1428 H1432 0.950 . S
C1428 C1437 1.390 1_655 S
C1429 C1428 1.387 . S
C1429 C1431 1.387 . S
H1430 C1437 0.950 . S
C1431 C1429 1.387 . S
C1431 C1433 1.390 1_655 S
C1431 H1435 0.950 . S
H1432 C1428 0.950 . S
C1433 C1431 1.390 1_455 S
C1433 C1434 1.387 . S
C1433 H1436 0.950 . S
C1434 C1433 1.387 . S
C1434 C1437 1.387 . S
H1435 C1431 0.950 . S
H1436 C1433 0.950 . S
C1437 C1428 1.390 1_455 S
C1437 H1430 0.950 . S
C1437 C1434 1.387 . S
C1438 C1439 1.387 . S
C1438 H1442 0.950 . S
C1438 C1447 1.390 1_455 S
C1439 C1438 1.387 . S
C1439 C1441 1.387 . S
H1440 C1447 0.950 . S
C1441 C1439 1.387 . S
C1441 C1443 1.390 1_455 S
C1441 H1445 0.950 . S
H1442 C1438 0.950 . S
C1443 C1441 1.390 1_655 S
C1443 C1444 1.387 . S
C1443 H1446 0.950 . S
C1444 C1443 1.387 . S
C1444 C1447 1.387 . S
H1445 C1441 0.950 . S
H1446 C1443 0.950 . S
C1447 C1438 1.390 1_655 S
C1447 H1440 0.950 . S
C1447 C1444 1.387 . S
C1448 C1449 1.387 . S
C1448 H1452 0.950 . S
C1448 C1457 1.390 . S
C1449 C1448 1.387 . S
C1449 C1451 1.387 . S
H1450 C1457 0.950 . S
C1451 C1449 1.387 . S
C1451 C1453 1.390 . S
C1451 H1455 0.950 . S
H1452 C1448 0.950 . S
C1453 C1451 1.390 . S
C1453 C1454 1.387 . S
C1453 H1456 0.950 . S
C1454 C1453 1.387 . S
C1454 C1457 1.387 . S
H1455 C1451 0.950 . S
H1456 C1453 0.950 . S
C1457 C1448 1.390 . S
C1457 H1450 0.950 . S
C1457 C1454 1.387 . S
C1458 C1459 1.387 . S
C1458 H1462 0.950 . S
C1458 C1467 1.390 . S
C1459 C1458 1.387 . S
C1459 C1461 1.387 . S
H1460 C1467 0.950 . S
C1461 C1459 1.387 . S
C1461 C1463 1.390 . S
C1461 H1465 0.950 . S
H1462 C1458 0.950 . S
C1463 C1461 1.390 . S
C1463 C1464 1.387 . S
C1463 H1466 0.950 . S
C1464 C1463 1.387 . S
C1464 C1467 1.387 . S
H1465 C1461 0.950 . S
H1466 C1463 0.950 . S
C1467 C1458 1.390 . S
C1467 H1460 0.950 . S
C1467 C1464 1.387 . S
C1468 C1469 1.387 . S
C1468 H1472 0.950 . S
C1468 C1477 1.390 . S
C1469 C1468 1.387 . S
C1469 C1471 1.387 . S
H1470 C1477 0.950 . S
C1471 C1469 1.387 . S
C1471 C1473 1.390 . S
C1471 H1475 0.950 . S
H1472 C1468 0.950 . S
C1473 C1471 1.390 . S
C1473 C1474 1.387 . S
C1473 H1476 0.950 . S
C1474 C1473 1.387 . S
C1474 C1477 1.387 . S
H1475 C1471 0.950 . S
H1476 C1473 0.950 . S
C1477 C1468 1.390 . S
C1477 H1470 0.950 . S
C1477 C1474 1.387 . S
C1478 C1479 1.387 . S
C1478 H1482 0.950 . S
C1478 C1487 1.390 . S
C1479 C1478 1.387 . S
C1479 C1481 1.387 . S
H1480 C1487 0.950 . S
C1481 C1479 1.387 . S
C1481 C1483 1.390 . S
C1481 H1485 0.950 . S
H1482 C1478 0.950 . S
C1483 C1481 1.390 . S
C1483 C1484 1.387 . S
C1483 H1486 0.950 . S
C1484 C1483 1.387 . S
C1484 C1487 1.387 . S
H1485 C1481 0.950 . S
H1486 C1483 0.950 . S
C1487 C1478 1.390 . S
C1487 H1480 0.950 . S
C1487 C1484 1.387 . S
C1488 C1489 1.387 . S
C1488 H1492 0.950 . S
C1488 C1497 1.390 . S
C1489 C1488 1.387 . S
C1489 C1491 1.387 . S
H1490 C1497 0.950 . S
C1491 C1489 1.387 . S
C1491 C1493 1.390 . S
C1491 H1495 0.950 . S
H1492 C1488 0.950 . S
C1493 C1491 1.390 . S
C1493 C1494 1.387 . S
C1493 H1496 0.950 . S
C1494 C1493 1.387 . S
C1494 C1497 1.387 . S
H1495 C1491 0.950 . S
H1496 C1493 0.950 . S
C1497 C1488 1.390 . S
C1497 H1490 0.950 . S
C1497 C1494 1.387 . S
C1498 C1499 1.387 . S
C1498 H1502 0.950 . S
C1498 C1507 1.390 . S
C1499 C1498 1.387 . S
C1499 C1501 1.387 . S
H1500 C1507 0.950 . S
C1501 C1499 1.387 . S
C1501 C1503 1.390 . S
C1501 H1505 0.950 . S
H1502 C1498 0.950 . S
C1503 C1501 1.390 . S
C1503 C1504 1.387 . S
C1503 H1506 0.950 . S
C1504 C1503 1.387 . S
C1504 C1507 1.387 . S
H1505 C1501 0.950 . S
H1506 C1503 0.950 . S
C1507 C1498 1.390 . S
C1507 H1500 0.950 . S
C1507 C1504 1.387 . S
C1508 C1509 1.387 . S
C1508 H1512 0.950 . S
C1508 C1517 1.390 . S
C1509 C1508 1.387 . S
C1509 C1511 1.387 . S
H1510 C1517 0.950 . S
C1511 C1509 1.387 . S
C1511 C1513 1.390 . S
C1511 H1515 0.950 . S
H1512 C1508 0.950 . S
C1513 C1511 1.390 . S
C1513 C1514 1.387 . S
C1513 H1516 0.950 . S
C1514 C1513 1.387 . S
C1514 C1517 1.387 . S
H1515 C1511 0.950 . S
H1516 C1513 0.950 . S
C1517 C1508 1.390 . S
C1517 H1510 0.950 . S
C1517 C1514 1.387 . S
C1518 C1519 1.387 . S
C1518 H1522 0.950 . S
C1518 C1527 1.390 . S
C1519 C1518 1.387 . S
C1519 C1521 1.387 . S
H1520 C1527 0.950 . S
C1521 C1519 1.387 . S
C1521 C1523 1.390 . S
C1521 H1525 0.950 . S
H1522 C1518 0.950 . S
C1523 C1521 1.390 . S
C1523 C1524 1.387 . S
C1523 H1526 0.950 . S
C1524 C1523 1.387 . S
C1524 C1527 1.387 . S
H1525 C1521 0.950 . S
H1526 C1523 0.950 . S
C1527 C1518 1.390 . S
C1527 H1520 0.950 . S
C1527 C1524 1.387 . S
C1528 C1529 1.387 . S
C1528 H1532 0.950 . S
C1528 C1537 1.390 . S
C1529 C1528 1.387 . S
C1529 C1531 1.387 . S
H1530 C1537 0.950 . S
C1531 C1529 1.387 . S
C1531 C1533 1.390 . S
C1531 H1535 0.950 . S
H1532 C1528 0.950 . S
C1533 C1531 1.390 . S
C1533 C1534 1.387 . S
C1533 H1536 0.950 . S
C1534 C1533 1.387 . S
C1534 C1537 1.387 . S
H1535 C1531 0.950 . S
H1536 C1533 0.950 . S
C1537 C1528 1.390 . S
C1537 H1530 0.950 . S
C1537 C1534 1.387 . S
C1538 C1539 1.387 . S
C1538 H1542 0.950 . S
C1538 C1547 1.390 . S
C1539 C1538 1.387 . S
C1539 C1541 1.387 . S
H1540 C1547 0.950 . S
C1541 C1539 1.387 . S
C1541 C1543 1.390 . S
C1541 H1545 0.950 . S
H1542 C1538 0.950 . S
C1543 C1541 1.390 . S
C1543 C1544 1.387 . S
C1543 H1546 0.950 . S
C1544 C1543 1.387 . S
C1544 C1547 1.387 . S
H1545 C1541 0.950 . S
H1546 C1543 0.950 . S
C1547 C1538 1.390 . S
C1547 H1540 0.950 . S
C1547 C1544 1.387 . S
C1548 C1549 1.387 . S
C1548 H1552 0.950 . S
C1548 C1557 1.390 . S
C1549 C1548 1.387 . S
C1549 C1551 1.387 . S
H1550 C1557 0.950 . S
C1551 C1549 1.387 . S
C1551 C1553 1.390 . S
C1551 H1555 0.950 . S
H1552 C1548 0.950 . S
C1553 C1551 1.390 . S
C1553 C1554 1.387 . S
C1553 H1556 0.950 . S
C1554 C1553 1.387 . S
C1554 C1557 1.387 . S
H1555 C1551 0.950 . S
H1556 C1553 0.950 . S
C1557 C1548 1.390 . S
C1557 H1550 0.950 . S
C1557 C1554 1.387 . S
C1558 C1559 1.387 . S
C1558 H1562 0.950 . S
C1558 C1567 1.390 . S
C1559 C1558 1.387 . S
C1559 C1561 1.387 . S
H1560 C1567 0.950 . S
C1561 C1559 1.387 . S
C1561 C1563 1.390 . S
C1561 H1565 0.950 . S
H1562 C1558 0.950 . S
C1563 C1561 1.390 . S
C1563 C1564 1.387 . S
C1563 H1566 0.950 . S
C1564 C1563 1.387 . S
C1564 C1567 1.387 . S
H1565 C1561 0.950 . S
H1566 C1563 0.950 . S
C1567 C1558 1.390 . S
C1567 H1560 0.950 . S
C1567 C1564 1.387 . S
C1568 C1569 1.387 . S
C1568 H1572 0.950 . S
C1568 C1577 1.390 1_556 S
C1569 C1568 1.387 . S
C1569 C1571 1.387 . S
H1570 C1577 0.950 . S
C1571 C1569 1.387 . S
C1571 C1573 1.390 1_556 S
C1571 H1575 0.950 . S
H1572 C1568 0.950 . S
C1573 C1571 1.390 1_554 S
C1573 C1574 1.387 . S
C1573 H1576 0.950 . S
C1574 C1573 1.387 . S
C1574 C1577 1.387 . S
H1575 C1571 0.950 . S
H1576 C1573 0.950 . S
C1577 C1568 1.390 1_554 S
C1577 H1570 0.950 . S
C1577 C1574 1.387 . S
C1578 C1579 1.387 . S
C1578 H1582 0.950 . S
C1578 C1587 1.390 . S
C1579 C1578 1.387 . S
C1579 C1581 1.387 . S
H1580 C1587 0.950 . S
C1581 C1579 1.387 . S
C1581 C1583 1.390 . S
C1581 H1585 0.950 . S
H1582 C1578 0.950 . S
C1583 C1581 1.390 . S
C1583 C1584 1.387 . S
C1583 H1586 0.950 . S
C1584 C1583 1.387 . S
C1584 C1587 1.387 . S
H1585 C1581 0.950 . S
H1586 C1583 0.950 . S
C1587 C1578 1.390 . S
C1587 H1580 0.950 . S
C1587 C1584 1.387 . S
C1588 C1589 1.387 . S
C1588 H1592 0.950 . S
C1588 C1597 1.369 1_554 S
C1589 C1588 1.387 . S
C1589 C1591 1.409 . S
H1590 C1597 0.952 . S
C1591 C1589 1.409 . S
C1591 C1593 1.368 1_554 S
C1591 H1595 0.952 . S
H1592 C1588 0.950 . S
C1593 C1591 1.368 1_556 S
C1593 C1594 1.387 . S
C1593 H1596 0.950 . S
C1594 C1593 1.387 . S
C1594 C1597 1.409 . S
H1595 C1591 0.952 . S
H1596 C1593 0.950 . S
C1597 C1588 1.369 1_556 S
C1597 H1590 0.952 . S
C1597 C1594 1.409 . S
C1598 C1599 1.387 . S
C1598 H1602 0.950 . S
C1598 C1607 1.390 . S
C1599 C1598 1.387 . S
C1599 C1601 1.387 . S
H1600 C1607 0.950 . S
C1601 C1599 1.387 . S
C1601 C1603 1.390 . S
C1601 H1605 0.950 . S
H1602 C1598 0.950 . S
C1603 C1601 1.390 . S
C1603 C1604 1.387 . S
C1603 H1606 0.950 . S
C1604 C1603 1.387 . S
C1604 C1607 1.387 . S
H1605 C1601 0.950 . S
H1606 C1603 0.950 . S
C1607 C1598 1.390 . S
C1607 H1600 0.950 . S
C1607 C1604 1.387 . S
C1608 C1609 1.387 . S
C1608 H1612 0.950 . S
C1608 C1617 1.390 . S
C1609 C1608 1.387 . S
C1609 C1611 1.387 1_554 S
H1610 C1617 0.950 . S
C1611 C1609 1.387 1_556 S
C1611 C1613 1.390 . S
C1611 H1615 0.950 . S
H1612 C1608 0.950 . S
C1613 C1611 1.390 . S
C1613 C1614 1.387 . S
C1613 H1616 0.950 . S
C1614 C1613 1.387 . S
C1614 C1617 1.387 1_556 S
H1615 C1611 0.950 . S
H1616 C1613 0.950 . S
C1617 C1608 1.390 . S
C1617 H1610 0.950 . S
C1617 C1614 1.387 1_554 S
C1618 C1619 1.387 . S
C1618 H1622 0.950 . S
C1618 C1627 1.390 . S
C1619 C1618 1.387 . S
C1619 C1621 1.387 . S
H1620 C1627 0.950 . S
C1621 C1619 1.387 . S
C1621 C1623 1.390 . S
C1621 H1625 0.950 . S
H1622 C1618 0.950 . S
C1623 C1621 1.390 . S
C1623 C1624 1.387 . S
C1623 H1626 0.950 . S
C1624 C1623 1.387 . S
C1624 C1627 1.387 . S
H1625 C1621 0.950 . S
H1626 C1623 0.950 . S
C1627 C1618 1.390 . S
C1627 H1620 0.950 . S
C1627 C1624 1.387 . S
C1628 C1629 1.387 . S
C1628 H1632 0.950 . S
C1628 C1637 1.370 1_554 S
C1629 C1628 1.387 . S
C1629 C1631 1.407 . S
H1630 C1637 0.952 . S
C1631 C1629 1.407 . S
C1631 C1633 1.370 1_554 S
C1631 H1635 0.952 . S
H1632 C1628 0.950 . S
C1633 C1631 1.370 1_556 S
C1633 C1634 1.387 . S
C1633 H1636 0.950 . S
C1634 C1633 1.387 . S
C1634 C1637 1.407 . S
H1635 C1631 0.952 . S
H1636 C1633 0.950 . S
C1637 C1628 1.370 1_556 S
C1637 H1630 0.952 . S
C1637 C1634 1.407 . S
C1638 C1639 1.387 . S
C1638 H1642 0.950 . S
C1638 C1647 1.390 . S
C1639 C1638 1.387 . S
C1639 C1641 1.387 . S
H1640 C1647 0.950 . S
C1641 C1639 1.387 . S
C1641 C1643 1.390 . S
C1641 H1645 0.950 . S
H1642 C1638 0.950 . S
C1643 C1641 1.390 . S
C1643 C1644 1.387 . S
C1643 H1646 0.950 . S
C1644 C1643 1.387 . S
C1644 C1647 1.387 . S
H1645 C1641 0.950 . S
H1646 C1643 0.950 . S
C1647 C1638 1.390 . S
C1647 H1640 0.950 . S
C1647 C1644 1.387 . S
C1648 C1649 1.387 . S
C1648 H1652 0.950 . S
C1648 C1657 1.390 1_556 S
C1649 C1648 1.387 . S
C1649 C1651 1.387 . S
H1650 C1657 0.950 . S
C1651 C1649 1.387 . S
C1651 C1653 1.390 1_556 S
C1651 H1655 0.950 . S
H1652 C1648 0.950 . S
C1653 C1651 1.390 1_554 S
C1653 C1654 1.387 . S
C1653 H1656 0.950 . S
C1654 C1653 1.387 . S
C1654 C1657 1.387 . S
H1655 C1651 0.950 . S
H1656 C1653 0.950 . S
C1657 C1648 1.390 1_554 S
C1657 H1650 0.950 . S
C1657 C1654 1.387 . S
C1658 C1659 1.387 . S
C1658 H1662 0.950 . S
C1658 C1667 1.390 . S
C1659 C1658 1.387 . S
C1659 C1661 1.387 . S
H1660 C1667 0.950 . S
C1661 C1659 1.387 . S
C1661 C1663 1.390 . S
C1661 H1665 0.950 . S
H1662 C1658 0.950 . S
C1663 C1661 1.390 . S
C1663 C1664 1.387 . S
C1663 H1666 0.950 . S
C1664 C1663 1.387 . S
C1664 C1667 1.387 . S
H1665 C1661 0.950 . S
H1666 C1663 0.950 . S
C1667 C1658 1.390 . S
C1667 H1660 0.950 . S
C1667 C1664 1.387 . S
C1668 C1669 1.387 . S
C1668 H1672 0.950 . S
C1668 C1677 1.390 1_554 S
C1669 C1668 1.387 . S
C1669 C1671 1.387 . S
H1670 C1677 0.950 . S
C1671 C1669 1.387 . S
C1671 C1673 1.390 1_554 S
C1671 H1675 0.950 . S
H1672 C1668 0.950 . S
C1673 C1671 1.390 1_556 S
C1673 C1674 1.387 . S
C1673 H1676 0.950 . S
C1674 C1673 1.387 . S
C1674 C1677 1.387 . S
H1675 C1671 0.950 . S
H1676 C1673 0.950 . S
C1677 C1668 1.390 1_556 S
C1677 H1670 0.950 . S
C1677 C1674 1.387 . S
C1678 C1679 1.387 . S
C1678 H1682 0.950 . S
C1678 C1687 1.390 . S
C1679 C1678 1.387 . S
C1679 C1681 1.387 . S
H1680 C1687 0.950 . S
C1681 C1679 1.387 . S
C1681 C1683 1.390 . S
C1681 H1685 0.950 . S
H1682 C1678 0.950 . S
C1683 C1681 1.390 . S
C1683 C1684 1.387 . S
C1683 H1686 0.950 . S
C1684 C1683 1.387 . S
C1684 C1687 1.387 . S
H1685 C1681 0.950 . S
H1686 C1683 0.950 . S
C1687 C1678 1.390 . S
C1687 H1680 0.950 . S
C1687 C1684 1.387 . S
C1688 C1689 1.387 . S
C1688 H1692 0.950 . S
C1688 C1697 1.390 1_546 S
C1689 C1688 1.387 . S
C1689 C1691 1.387 . S
H1690 C1697 0.950 . S
C1691 C1689 1.387 . S
C1691 C1693 1.390 1_546 S
C1691 H1695 0.950 . S
H1692 C1688 0.950 . S
C1693 C1691 1.390 1_564 S
C1693 C1694 1.387 . S
C1693 H1696 0.950 . S
C1694 C1693 1.387 . S
C1694 C1697 1.387 . S
H1695 C1691 0.950 . S
H1696 C1693 0.950 . S
C1697 C1688 1.390 1_564 S
C1697 H1690 0.950 . S
C1697 C1694 1.387 . S
C1698 C1699 1.387 . S
C1698 H1702 0.950 . S
C1698 C1707 1.390 1_565 S
C1699 C1698 1.387 . S
C1699 C1701 1.387 . S
H1700 C1707 0.950 . S
C1701 C1699 1.387 . S
C1701 C1703 1.390 1_565 S
C1701 H1705 0.950 . S
H1702 C1698 0.950 . S
C1703 C1701 1.390 1_545 S
C1703 C1704 1.387 . S
C1703 H1706 0.950 . S
C1704 C1703 1.387 . S
C1704 C1707 1.387 . S
H1705 C1701 0.950 . S
H1706 C1703 0.950 . S
C1707 C1698 1.390 1_545 S
C1707 H1700 0.950 . S
C1707 C1704 1.387 . S
C1708 C1709 1.387 . S
C1708 H1712 0.950 . S
C1708 C1717 1.390 1_564 S
C1709 C1708 1.387 . S
C1709 C1711 1.387 . S
H1710 C1717 0.950 . S
C1711 C1709 1.387 . S
C1711 C1713 1.390 1_564 S
C1711 H1715 0.950 . S
H1712 C1708 0.950 . S
C1713 C1711 1.390 1_546 S
C1713 C1714 1.387 . S
C1713 H1716 0.950 . S
C1714 C1713 1.387 . S
C1714 C1717 1.387 . S
H1715 C1711 0.950 . S
H1716 C1713 0.950 . S
C1717 C1708 1.390 1_546 S
C1717 H1710 0.950 . S
C1717 C1714 1.387 . S
C1718 C1719 1.387 . S
C1718 H1722 0.950 . S
C1718 C1727 1.390 1_545 S
C1719 C1718 1.387 . S
C1719 C1721 1.387 . S
H1720 C1727 0.950 . S
C1721 C1719 1.387 . S
C1721 C1723 1.390 1_545 S
C1721 H1725 0.950 . S
H1722 C1718 0.950 . S
C1723 C1721 1.390 1_565 S
C1723 C1724 1.387 . S
C1723 H1726 0.950 . S
C1724 C1723 1.387 . S
C1724 C1727 1.387 . S
H1725 C1721 0.950 . S
H1726 C1723 0.950 . S
C1727 C1718 1.390 1_565 S
C1727 H1720 0.950 . S
C1727 C1724 1.387 . S
C1409 C57 1.536 . S
C1414 C557 1.536 . S
C1419 C145 1.536 . S
C1424 C645 1.536 . S
C1429 C401 1.536 . S
C1434 C205 1.536 . S
C1439 C497 1.536 . S
C1444 C293 1.536 . S
C1449 C1261 1.537 . S
C1454 C761 1.536 . S
C1459 C1340 1.536 . S
C1464 C841 1.536 . S
C1469 C909 1.537 . S
C1474 C1105 1.536 . S
C1479 C988 1.536 . S
C1484 C1193 1.536 . S
C1489 C20 1.486 . S
C1494 C489 1.483 . S
C1499 C108 1.484 . S
C1504 C409 1.484 . S
C1509 C225 1.484 . S
C1514 C636 1.484 . S
C1519 C548 1.484 . S
C1524 C313 1.484 . S
C1529 C1201 1.483 . S
C1534 C724 1.486 . S
C1539 C1113 1.483 . S
C1544 C821 1.486 . S
C1549 C929 1.485 . S
C1554 C1349 1.483 . S
C1559 C1252 1.484 . S
C1564 C1025 1.484 . S
C1569 C1076 1.278 . S
C1574 C29 1.278 . S
C1579 C117 1.279 . S
C1584 C1164 1.279 . S
C1589 C1289 1.278 . S
C1594 C233 1.278 . S
C1599 C1369 1.279 . S
C1604 C321 1.279 . S
C1609 C733 1.279 . S
C1614 C372 1.279 . S
C1619 C812 1.279 . S
C1624 C469 1.280 . S
C1629 C585 1.278 . S
C1634 C937 1.278 . S
C1639 C673 1.278 . S
C1644 C1017 1.278 . S
C1649 C196 1.488 . S
C1654 C49 1.488 . S
C1659 C137 1.487 . S
C1664 C284 1.487 . S
C1669 C577 1.488 . S
C1674 C381 1.488 . S
C1679 C460 1.488 . S
C1684 C665 1.488 . S
C1689 C900 1.488 . S
C1694 C753 1.488 . S
C1699 C997 1.487 . S
C1704 C849 1.487 . S
C1709 C1281 1.488 . S
C1714 C1085 1.488 . S
C1719 C1377 1.488 . S
C1724 C1173 1.488 . S
