# Generated by pormake.
# Topology fna, (5)-cn, num edge types: 1
# Building blocks:
#     Node 0, Type 0, BuildingBlock: XOMCOT_clean_sbu_0, # of connection points: 5
#     Node 1, Type 0, BuildingBlock: XOMCOT_clean_sbu_0, # of connection points: 5
#     Node 2, Type 0, BuildingBlock: XOMCOT_clean_sbu_0, # of connection points: 5
#     Node 3, Type 0, BuildingBlock: XOMCOT_clean_sbu_0, # of connection points: 5
#     Node 4, Type 0, BuildingBlock: XOMCOT_clean_sbu_0, # of connection points: 5
#     Node 5, Type 0, BuildingBlock: XOMCOT_clean_sbu_0, # of connection points: 5
#     Node 6, Type 0, BuildingBlock: XOMCOT_clean_sbu_0, # of connection points: 5
#     Node 7, Type 0, BuildingBlock: XOMCOT_clean_sbu_0, # of connection points: 5
#     Node 8, Type 0, BuildingBlock: XOMCOT_clean_sbu_0, # of connection points: 5
#     Node 9, Type 0, BuildingBlock: XOMCOT_clean_sbu_0, # of connection points: 5
#     Node 10, Type 0, BuildingBlock: XOMCOT_clean_sbu_0, # of connection points: 5
#     Node 11, Type 0, BuildingBlock: XOMCOT_clean_sbu_0, # of connection points: 5
#     Edge 12, Type (0, 0), None
#     Edge 13, Type (0, 0), None
#     Edge 14, Type (0, 0), None
#     Edge 15, Type (0, 0), None
#     Edge 16, Type (0, 0), None
#     Edge 17, Type (0, 0), None
#     Edge 18, Type (0, 0), None
#     Edge 19, Type (0, 0), None
#     Edge 20, Type (0, 0), None
#     Edge 21, Type (0, 0), None
#     Edge 22, Type (0, 0), None
#     Edge 23, Type (0, 0), None
#     Edge 24, Type (0, 0), None
#     Edge 25, Type (0, 0), None
#     Edge 26, Type (0, 0), None
#     Edge 27, Type (0, 0), None
#     Edge 28, Type (0, 0), None
#     Edge 29, Type (0, 0), None
#     Edge 30, Type (0, 0), None
#     Edge 31, Type (0, 0), None
#     Edge 32, Type (0, 0), None
#     Edge 33, Type (0, 0), None
#     Edge 34, Type (0, 0), None
#     Edge 35, Type (0, 0), None
#     Edge 36, Type (0, 0), None
#     Edge 37, Type (0, 0), None
#     Edge 38, Type (0, 0), None
#     Edge 39, Type (0, 0), None
#     Edge 40, Type (0, 0), None
#     Edge 41, Type (0, 0), None
# Relax obj value: 0.327
# Max RMSD: 0.218
# Mean RMSD: 0.218
data_MOF--net-fna--node1-XOMCOT_clean_sbu_0--edge1-none
_symmetry_space_group_name_H-M    P1
_symmetry_Int_Tables_number       1
_symmetry_cell_setting            triclinic
loop_
_symmetry_equiv_pos_as_xyz
'x, y, z'
_cell_length_a     22.609787
_cell_length_b     22.609744
_cell_length_c     25.203217
_cell_angle_alpha  90.000649
_cell_angle_beta   89.999674
_cell_angle_gamma 119.99849
loop_
_atom_site_label
_atom_site_type_symbol
_atom_site_fract_x
_atom_site_fract_y
_atom_site_fract_z
_atom_type_partial_charge
Co0 Co 0.35197 0.27671 0.49335 0.0
C1 C 0.36355 0.1931 0.4073 0.0
C2 C 0.26018 0.17127 0.41493 0.0
C3 C 0.26331 0.13121 0.37442 0.0
N4 N 0.32322 0.21018 0.43551 0.0
N5 N 0.32857 0.14539 0.3696 0.0
H6 H 0.41736 0.2139 0.41498 0.0
H7 H 0.21492 0.1714 0.42863 0.0
C8 C 0.26717 0.34022 0.50331 0.0
O9 O 0.31428 0.40496 0.5074 0.0
N10 N 0.38439 0.34377 0.55055 0.0
C11 C 0.44151 0.40632 0.55118 0.0
C12 C 0.45302 0.43229 0.60136 0.0
C13 C 0.36167 0.33329 0.60107 0.0
N14 N 0.40327 0.38597 0.63234 0.0
C15 C 0.48506 0.3481 0.44969 0.0
C16 C 0.47731 0.45677 0.40763 0.0
C17 C 0.54214 0.46367 0.41574 0.0
C18 C 0.54472 0.40687 0.435 0.0
C19 C 0.41807 0.3964 0.42332 0.0
N20 N 0.42314 0.34489 0.44743 0.0
H21 H 0.49024 0.30774 0.46763 0.0
H22 H 0.36924 0.39355 0.41939 0.0
H23 H 0.47535 0.43205 0.51871 0.0
H24 H 0.31774 0.28714 0.61526 0.0
O25 O 0.40274 0.23847 0.52656 0.0
O26 O 0.2941 0.20514 0.54236 0.0
O27 O 0.27936 0.3008 0.47424 0.0
C28 C 0.34777 0.20107 0.55403 0.0
H29 H 0.22078 0.09406 0.35094 0.0
H30 H 0.49584 0.48029 0.6142 0.0
H31 H 0.47243 0.4982 0.39084 0.0
H32 H 0.59281 0.40871 0.44213 0.0
Co33 Co 0.10356 0.33778 0.66003 0.0
C34 C 0.19876 0.34937 0.57399 0.0
C35 C 0.11724 0.24599 0.58162 0.0
C36 C 0.16042 0.24912 0.54111 0.0
N37 N 0.14135 0.30903 0.6022 0.0
N38 N 0.21151 0.31439 0.53629 0.0
H39 H 0.23175 0.40319 0.58165 0.0
H40 H 0.07184 0.20072 0.59532 0.0
C41 C 0.95525 0.25299 0.66997 0.0
O42 O 0.93762 0.3001 0.67404 0.0
N43 N 0.06891 0.3702 0.71723 0.0
C44 C 0.06345 0.42731 0.71784 0.0
C45 C 0.04898 0.43882 0.76802 0.0
C46 C 0.05669 0.3475 0.76775 0.0
N47 N 0.04558 0.38909 0.79901 0.0
C48 C 0.16526 0.47088 0.61638 0.0
C49 C 0.04886 0.46312 0.57428 0.0
C50 C 0.10677 0.52795 0.58241 0.0
C51 C 0.16615 0.53054 0.60169 0.0
C52 C 0.04999 0.40388 0.58998 0.0
N53 N 0.10657 0.40896 0.6141 0.0
H54 H 0.2108 0.47606 0.63434 0.0
H55 H 1.00402 0.35505 0.58603 0.0
H56 H 0.07153 0.46113 0.68537 0.0
H57 H 0.05892 0.30358 0.78195 0.0
O58 O 0.19256 0.38855 0.69324 0.0
O59 O 0.11725 0.27991 0.70904 0.0
O60 O 1.00687 0.26517 0.64091 0.0
C61 C 0.17499 0.33358 0.72072 0.0
H62 H 0.15505 0.2066 0.51762 0.0
H63 H 0.04378 0.48164 0.78085 0.0
H64 H 1.00255 0.45824 0.55747 0.0
H65 H 0.21239 0.57863 0.60885 0.0
Co66 Co 0.79406 0.0894 0.8267 0.0
C67 C 0.87768 0.18459 0.74065 0.0
C68 C 0.89953 0.10307 0.7483 0.0
C69 C 0.93959 0.14625 0.70779 0.0
N70 N 0.8606 0.12719 0.76886 0.0
N71 N 0.92541 0.19733 0.70296 0.0
H72 H 0.85685 0.21758 0.7483 0.0
H73 H 0.8994 0.05767 0.76201 0.0
C74 C 0.73055 0.9411 0.83664 0.0
O75 O 0.66581 0.92348 0.84074 0.0
N76 N 0.72699 0.05477 0.88389 0.0
C77 C 0.66444 0.04935 0.88452 0.0
C78 C 0.63847 0.03488 0.93469 0.0
C79 C 0.73746 0.04252 0.93441 0.0
N80 N 0.68478 0.03144 0.96567 0.0
C81 C 0.72267 0.15111 0.78302 0.0
C82 C 0.61401 0.0347 0.74096 0.0
C83 C 0.6071 0.09262 0.74907 0.0
C84 C 0.6639 0.15201 0.76834 0.0
C85 C 0.67437 0.03582 0.75666 0.0
N86 N 0.72589 0.09241 0.78076 0.0
H87 H 0.76303 0.19665 0.80097 0.0
H88 H 0.67723 0.98984 0.75272 0.0
H89 H 0.63872 0.05747 0.85205 0.0
H90 H 0.78361 0.04472 0.9486 0.0
O91 O 0.83229 0.17842 0.8599 0.0
O92 O 0.86562 0.1031 0.87571 0.0
O93 O 0.76998 0.99271 0.80758 0.0
C94 C 0.86969 0.16084 0.88738 0.0
H95 H 0.97674 0.14086 0.68431 0.0
H96 H 0.59047 0.02972 0.94753 0.0
H97 H 0.57258 0.98839 0.72417 0.0
H98 H 0.66206 0.19825 0.77548 0.0
Co99 Co 0.73296 0.77989 -0.00665 0.0
C100 C 0.72138 0.86351 0.90731 0.0
C101 C 0.82475 0.88534 0.91494 0.0
C102 C 0.82162 0.9254 0.87443 0.0
N103 N 0.76171 0.84642 0.93551 0.0
N104 N 0.75636 0.91124 0.86962 0.0
H105 H 0.66756 0.84269 0.91497 0.0
H106 H 0.87001 0.8852 0.92863 0.0
C107 C 0.81776 0.71638 0.00329 0.0
O108 O 0.77065 0.65163 0.00737 0.0
N109 N 0.70054 0.71283 0.05055 0.0
C110 C 0.64343 0.65027 0.05118 0.0
C111 C 0.63192 0.6243 0.10136 0.0
C112 C 0.72325 0.72332 0.10107 0.0
N113 N 0.68166 0.67064 0.13234 0.0
C114 C 0.59986 0.70849 0.9497 0.0
C115 C 0.60761 0.59983 0.90762 0.0
C116 C 0.54278 0.59292 0.91574 0.0
C117 C 0.54019 0.64972 0.93501 0.0
C118 C 0.66685 0.6602 0.92331 0.0
N119 N 0.66178 0.71171 0.94743 0.0
H120 H 0.59468 0.74885 0.96765 0.0
H121 H 0.71568 0.66306 0.91937 0.0
H122 H 0.6096 0.62453 0.01871 0.0
H123 H 0.76717 0.76947 0.11526 0.0
O124 O 0.68219 0.81813 0.02656 0.0
O125 O 0.79083 0.85145 0.04235 0.0
O126 O 0.80556 0.7558 0.97423 0.0
C127 C 0.73717 0.85553 0.05403 0.0
H128 H 0.86415 0.96255 0.85094 0.0
H129 H 0.58909 0.5763 0.1142 0.0
H130 H 0.61249 0.5584 0.89082 0.0
H131 H 0.49211 0.64788 0.94216 0.0
Co132 Co 0.98135 0.71881 0.16003 0.0
C133 C 0.88616 0.70723 0.07398 0.0
C134 C 0.96767 0.8106 0.08163 0.0
C135 C 0.92449 0.80747 0.04112 0.0
N136 N 0.94356 0.74756 0.10219 0.0
N137 N 0.87341 0.74221 0.03629 0.0
H138 H 0.85318 0.6534 0.08163 0.0
H139 H 1.01306 0.85587 0.09533 0.0
C140 C 0.12966 0.80359 0.16997 0.0
O141 O 0.14729 0.75648 0.17404 0.0
N142 N 1.01599 0.68638 0.21722 0.0
C143 C 1.02146 0.62928 0.21784 0.0
C144 C 1.03592 0.61776 0.26801 0.0
C145 C 1.0282 0.70907 0.26775 0.0
N146 N 1.03931 0.66748 0.299 0.0
C147 C 0.91964 0.5857 0.11639 0.0
C148 C 1.03604 0.59346 0.07427 0.0
C149 C 0.97813 0.52863 0.08241 0.0
C150 C 0.91875 0.52604 0.1017 0.0
C151 C 1.03491 0.6527 0.08997 0.0
N152 N 0.97833 0.64762 0.1141 0.0
H153 H 0.87411 0.58052 0.13435 0.0
H154 H 0.08088 0.70153 0.08602 0.0
H155 H 1.01339 0.59547 0.18536 0.0
H156 H 1.02596 0.75299 0.28195 0.0
O157 O 0.89234 0.66805 0.19324 0.0
O158 O 0.96766 0.77669 0.20904 0.0
O159 O 0.07804 0.79141 0.1409 0.0
C160 C 0.90992 0.72303 0.22071 0.0
H161 H 0.92986 0.85 0.01763 0.0
H162 H 1.04112 0.57494 0.28084 0.0
H163 H 0.08234 0.59834 0.05746 0.0
H164 H 0.87251 0.47795 0.10885 0.0
Co165 Co 0.29085 0.96716 0.3267 0.0
C166 C 0.20723 0.87199 0.24064 0.0
C167 C 0.18539 0.95351 0.2483 0.0
C168 C 0.14533 0.91034 0.20779 0.0
N169 N 0.22431 0.92939 0.26886 0.0
N170 N 0.1595 0.85925 0.20296 0.0
H171 H 0.22805 0.83898 0.2483 0.0
H172 H 0.18553 0.99891 0.262 0.0
C173 C 0.35437 0.11547 0.33666 0.0
O174 O 0.4191 0.13306 0.34078 0.0
N175 N 0.35792 1.00179 0.38389 0.0
C176 C 0.42045 1.00718 0.38452 0.0
C177 C 0.44643 1.02165 0.43469 0.0
C178 C 0.34746 1.01405 0.4344 0.0
N179 N 0.40013 1.02512 0.46567 0.0
C180 C 0.36224 0.90547 0.283 0.0
C181 C 0.47092 1.02189 0.24097 0.0
C182 C 0.47782 0.96396 0.24907 0.0
C183 C 0.421 0.90457 0.26831 0.0
C184 C 0.41055 1.02076 0.25667 0.0
N185 N 0.35903 0.96417 0.28076 0.0
H186 H 0.32187 0.85992 0.30094 0.0
H187 H 0.4077 0.06675 0.25275 0.0
H188 H 0.44617 0.99904 0.35206 0.0
H189 H 0.30132 1.01187 0.44859 0.0
O190 O 0.25262 0.87815 0.35989 0.0
O191 O 0.2193 0.95347 0.37571 0.0
O192 O 0.31493 0.06386 0.3076 0.0
C193 C 0.21522 0.89572 0.38738 0.0
H194 H 0.10818 0.91573 0.1843 0.0
H195 H 0.49443 1.0268 0.44754 0.0
H196 H 0.51235 0.06821 0.22419 0.0
H197 H 0.42284 0.85831 0.27544 0.0
Co198 Co 0.79409 0.71879 0.3267 0.0
C199 C 0.87766 0.70719 0.41276 0.0
C200 C 0.89948 0.81056 0.40515 0.0
C201 C 0.93954 0.80743 0.44565 0.0
N202 N 0.86058 0.74753 0.38456 0.0
N203 N 0.92537 0.74216 0.45046 0.0
H204 H 0.85686 0.65338 0.40507 0.0
H205 H 0.89935 0.85583 0.39145 0.0
C206 C 0.73053 0.80355 0.31674 0.0
O207 O 0.6658 0.75642 0.31265 0.0
N208 N 0.72706 0.68637 0.26947 0.0
C209 C 0.66445 0.62932 0.26886 0.0
C210 C 0.63854 0.61772 0.21866 0.0
C211 C 0.73762 0.70898 0.21892 0.0
N212 N 0.68496 0.66734 0.18765 0.0
C213 C 0.72263 0.58566 0.37028 0.0
C214 C 0.61404 0.59345 0.41245 0.0
C215 C 0.60709 0.52861 0.40428 0.0
C216 C 0.66386 0.526 0.38496 0.0
C217 C 0.67441 0.65268 0.39675 0.0
N218 N 0.72589 0.64759 0.3726 0.0
H219 H 0.76298 0.58046 0.35231 0.0
H220 H 0.6773 0.70153 0.40073 0.0
H221 H 0.63863 0.59559 0.30137 0.0
H222 H 0.7838 0.75285 0.20471 0.0
O223 O 0.83237 0.66804 0.29351 0.0
O224 O 0.86568 0.77668 0.27772 0.0
O225 O 0.76997 0.79137 0.34581 0.0
C226 C 0.86978 0.72303 0.26605 0.0
H227 H 0.97669 0.84995 0.46914 0.0
H228 H 0.5905 0.57494 0.20583 0.0
H229 H 0.57264 0.59835 0.42928 0.0
H230 H 0.66198 0.4779 0.37779 0.0
Co231 Co 0.10362 0.77991 0.49336 0.0
C232 C 0.19878 0.8635 0.57942 0.0
C233 C 0.11722 0.8853 0.57181 0.0
C234 C 0.1604 0.92536 0.61231 0.0
N235 N 0.14136 0.8464 0.55122 0.0
N236 N 0.21151 0.91121 0.61712 0.0
H237 H 0.23181 0.84271 0.57173 0.0
H238 H 0.07181 0.88515 0.55811 0.0
C239 C 0.95531 0.71637 0.48337 0.0
O240 O 0.93774 0.65165 0.47923 0.0
N241 N 0.06902 0.71288 0.43613 0.0
C242 C 0.06355 0.65031 0.43551 0.0
C243 C 0.04922 0.6244 0.38531 0.0
C244 C 0.05692 0.72342 0.38559 0.0
N245 N 0.04593 0.67079 0.35431 0.0
C246 C 0.16528 0.70847 0.537 0.0
C247 C 0.04886 0.59983 0.57908 0.0
C248 C 0.10677 0.5929 0.57095 0.0
C249 C 0.16616 0.64969 0.55168 0.0
C250 C 0.05001 0.6602 0.56338 0.0
N251 N 0.1066 0.71171 0.53927 0.0
H252 H 0.21083 0.74883 0.51906 0.0
H253 H 1.00404 0.66308 0.56733 0.0
H254 H 0.07153 0.62452 0.468 0.0
H255 H 0.05917 0.76959 0.3714 0.0
O256 O 0.19265 0.81817 0.46018 0.0
O257 O 0.11734 0.8515 0.44438 0.0
O258 O 1.00691 0.75581 0.51244 0.0
C259 C 0.17508 0.85558 0.43271 0.0
H260 H 0.15502 0.96251 0.6358 0.0
H261 H 0.04402 0.57638 0.37247 0.0
H262 H 1.00255 0.55841 0.59587 0.0
H263 H 0.2124 0.64783 0.54453 0.0
Co264 Co 0.35199 0.08947 0.66001 0.0
C265 C 0.36357 0.18462 0.74608 0.0
C266 C 0.2602 0.10308 0.73845 0.0
C267 C 0.26332 0.14626 0.77896 0.0
N268 N 0.32323 0.12721 0.71788 0.0
N269 N 0.32859 0.19735 0.78379 0.0
H270 H 0.41738 0.21763 0.73841 0.0
H271 H 0.21493 0.05769 0.72475 0.0
C272 C 0.26724 0.94115 0.65003 0.0
O273 O 0.3144 0.9236 0.6459 0.0
N274 N 0.38444 0.05487 0.60279 0.0
C275 C 0.44152 0.04938 0.60218 0.0
C276 C 0.45311 0.03504 0.55198 0.0
C277 C 0.36181 0.04278 0.55225 0.0
N278 N 0.40345 0.03178 0.52098 0.0
C279 C 0.4851 0.15114 0.70364 0.0
C280 C 0.47732 0.03473 0.74575 0.0
C281 C 0.54216 0.09263 0.73761 0.0
C282 C 0.54476 0.15202 0.71833 0.0
C283 C 0.41809 0.03587 0.73006 0.0
N284 N 0.42318 0.09246 0.70593 0.0
H285 H 0.49029 0.19668 0.68569 0.0
H286 H 0.36925 0.98991 0.73401 0.0
H287 H 0.47528 0.05734 0.63468 0.0
H288 H 0.3179 0.04504 0.53804 0.0
O289 O 0.40275 0.1785 0.62684 0.0
O290 O 0.29412 0.10318 0.61103 0.0
O291 O 0.27939 0.99276 0.6791 0.0
C292 C 0.34777 0.16093 0.59937 0.0
H293 H 0.22079 0.14089 0.80244 0.0
H294 H 0.49592 0.02982 0.53915 0.0
H295 H 0.47243 0.98842 0.76256 0.0
H296 H 0.59285 0.19825 0.71117 0.0
Co297 Co 0.29083 0.33781 0.8267 0.0
C298 C 0.20725 0.3494 0.91276 0.0
C299 C 0.18544 0.24603 0.90515 0.0
C300 C 0.14538 0.24917 0.94566 0.0
N301 N 0.22433 0.30907 0.88457 0.0
N302 N 0.15954 0.31443 0.95047 0.0
H303 H 0.22804 0.40321 0.90507 0.0
H304 H 0.18558 0.20077 0.89146 0.0
C305 C 0.35438 0.25306 0.81672 0.0
O306 O 0.41911 0.3002 0.8126 0.0
N307 N 0.35785 0.37024 0.76947 0.0
C308 C 0.42044 0.42731 0.76886 0.0
C309 C 0.44636 0.43891 0.71866 0.0
C310 C 0.3473 0.34763 0.71892 0.0
N311 N 0.39995 0.38927 0.68765 0.0
C312 C 0.36227 0.47094 0.87031 0.0
C313 C 0.47089 0.46315 0.91244 0.0
C314 C 0.47783 0.52798 0.90428 0.0
C315 C 0.42105 0.53059 0.88499 0.0
C316 C 0.41051 0.40392 0.89674 0.0
N317 N 0.35902 0.409 0.8726 0.0
H318 H 0.32192 0.47613 0.85235 0.0
H319 H 0.40763 0.35507 0.9007 0.0
H320 H 0.44625 0.46105 0.80136 0.0
H321 H 0.30113 0.30374 0.70471 0.0
O322 O 0.25254 0.38856 0.79352 0.0
O323 O 0.21923 0.27993 0.77772 0.0
O324 O 0.31494 0.26522 0.84579 0.0
C325 C 0.21513 0.33358 0.76605 0.0
H326 H 0.10823 0.20664 0.96914 0.0
H327 H 0.49439 0.4817 0.70583 0.0
H328 H 0.5123 0.45825 0.92925 0.0
H329 H 0.42292 0.57869 0.87782 0.0
Co330 Co 0.98129 0.27667 -0.00664 0.0
C331 C 0.88614 0.19309 0.07943 0.0
C332 C 0.96769 0.17127 0.07181 0.0
C333 C 0.92451 0.13121 0.11231 0.0
N334 N 0.94355 0.21018 0.05123 0.0
N335 N 0.87341 0.14538 0.11713 0.0
H336 H 0.85312 0.21388 0.07175 0.0
H337 H 1.01309 0.17141 0.0581 0.0
C338 C 0.1296 0.34022 0.98338 0.0
O339 O 0.14716 0.40494 0.97923 0.0
N340 N 1.01588 0.3437 0.93613 0.0
C341 C 1.02136 0.40627 0.93551 0.0
C342 C 1.03568 0.43218 0.88531 0.0
C343 C 1.02796 0.33315 0.88559 0.0
N344 N 1.03895 0.38579 0.85431 0.0
C345 C 0.91962 0.34811 0.037 0.0
C346 C 1.03603 0.45675 0.07908 0.0
C347 C 0.97812 0.46368 0.07095 0.0
C348 C 0.91873 0.40689 0.05168 0.0
C349 C 1.03489 0.39637 0.06339 0.0
N350 N 0.9783 0.34487 0.03927 0.0
H351 H 0.87407 0.30775 0.01905 0.0
H352 H 0.08086 0.3935 0.06734 0.0
H353 H 1.01339 0.43207 0.968 0.0
H354 H 1.02571 0.28698 0.87139 0.0
O355 O 0.89225 0.23839 0.96019 0.0
O356 O 0.96758 0.20508 0.94438 0.0
O357 O 0.078 0.30078 0.01244 0.0
C358 C 0.90983 0.20098 0.93272 0.0
H359 H 0.92988 0.09406 0.13579 0.0
H360 H 1.04089 0.4802 0.87248 0.0
H361 H 0.08234 0.49817 0.09588 0.0
H362 H 0.8725 0.40875 0.04453 0.0
Co363 Co 0.73293 0.96713 0.16002 0.0
C364 C 0.72136 0.87197 0.24608 0.0
C365 C 0.82473 0.9535 0.23845 0.0
C366 C 0.82161 0.91032 0.27895 0.0
N367 N 0.76169 0.92938 0.21788 0.0
N368 N 0.75635 0.85922 0.28377 0.0
H369 H 0.66754 0.83897 0.23841 0.0
H370 H 0.86999 0.9989 0.22474 0.0
C371 C 0.81768 0.11544 0.15005 0.0
O372 O 0.77053 0.133 0.14592 0.0
N373 N 0.7005 1.00172 0.10279 0.0
C374 C 0.64342 1.00723 0.10218 0.0
C375 C 0.63182 1.02156 0.05199 0.0
C376 C 0.72311 1.0138 0.05225 0.0
N377 N 0.68147 1.02481 0.02098 0.0
C378 C 0.59982 0.90545 0.20363 0.0
C379 C 0.6076 1.02185 0.24576 0.0
C380 C 0.54276 0.96395 0.23761 0.0
C381 C 0.54016 0.90457 0.21831 0.0
C382 C 0.66683 1.0207 0.23007 0.0
N383 N 0.66174 0.96413 0.20593 0.0
H384 H 0.59463 0.85991 0.18567 0.0
H385 H 0.71567 0.06667 0.23403 0.0
H386 H 0.60967 0.99929 0.13468 0.0
H387 H 0.76701 1.01153 0.03804 0.0
O388 O 0.68218 0.8781 0.12684 0.0
O389 O 0.79082 0.95342 0.11103 0.0
O390 O 0.80553 0.06383 0.17911 0.0
C391 C 0.73716 0.89567 0.09937 0.0
H392 H 0.86413 0.9157 0.30244 0.0
H393 H 0.58902 1.02679 0.03916 0.0
H394 H 0.61249 0.06815 0.26258 0.0
H395 H 0.49206 0.85834 0.21115 0.0
loop_
_geom_bond_atom_site_label_1
_geom_bond_atom_site_label_2
_geom_bond_distance
_geom_bond_site_symmetry_2
_ccdc_geom_bond_type
Co0 N4 2.148 . S
Co0 N10 2.128 . S
Co0 N20 2.194 . S
Co0 O25 2.351 . S
Co0 O26 2.155 . S
Co0 O27 2.096 . S
C1 N4 1.301 . S
C1 N5 1.328 . S
C1 H6 0.930 . S
C2 C3 1.333 . S
C2 N4 1.317 . S
C2 H7 0.930 . S
C3 C2 1.333 . S
C3 N5 1.350 . S
C3 H29 0.931 . S
N4 Co0 2.148 . S
N4 C1 1.301 . S
N4 C2 1.317 . S
N5 C1 1.328 . S
N5 C3 1.350 . S
H6 C1 0.930 . S
H7 C2 0.930 . S
C8 O9 1.224 . S
C8 O27 1.247 . S
O9 C8 1.224 . S
N10 Co0 2.128 . S
N10 C11 1.355 . S
N10 C13 1.311 . S
C11 N10 1.355 . S
C11 C12 1.363 . S
C11 H23 0.929 . S
C12 C11 1.363 . S
C12 N14 1.375 . S
C12 H30 0.931 . S
C13 N10 1.311 . S
C13 N14 1.347 . S
C13 H24 0.929 . S
N14 C12 1.375 . S
N14 C13 1.347 . S
C15 C18 1.365 . S
C15 N20 1.328 . S
C15 H21 0.929 . S
C16 C17 1.362 . S
C16 C19 1.378 . S
C16 H31 0.929 . S
C17 C16 1.362 . S
C17 C18 1.366 . S
C18 C15 1.365 . S
C18 C17 1.366 . S
C18 H32 0.930 . S
C19 C16 1.378 . S
C19 N20 1.315 . S
C19 H22 0.930 . S
N20 Co0 2.194 . S
N20 C15 1.328 . S
N20 C19 1.315 . S
H21 C15 0.929 . S
H22 C19 0.930 . S
H23 C11 0.929 . S
H24 C13 0.929 . S
O25 Co0 2.351 . S
O25 C28 1.244 . S
O26 Co0 2.155 . S
O26 C28 1.240 . S
O27 Co0 2.096 . S
O27 C8 1.247 . S
C28 O25 1.244 . S
C28 O26 1.240 . S
H29 C3 0.931 . S
H30 C12 0.931 . S
H31 C16 0.929 . S
H32 C18 0.930 . S
Co33 N37 2.148 . S
Co33 N43 2.128 . S
Co33 N53 2.194 . S
Co33 O58 2.351 . S
Co33 O59 2.155 . S
Co33 O60 2.096 1_455 S
C34 N37 1.301 . S
C34 N38 1.328 . S
C34 H39 0.930 . S
C35 C36 1.333 . S
C35 N37 1.317 . S
C35 H40 0.930 . S
C36 C35 1.333 . S
C36 N38 1.350 . S
C36 H62 0.931 . S
N37 Co33 2.148 . S
N37 C34 1.301 . S
N37 C35 1.317 . S
N38 C34 1.328 . S
N38 C36 1.350 . S
H39 C34 0.930 . S
H40 C35 0.930 . S
C41 O42 1.224 . S
C41 O60 1.247 . S
O42 C41 1.224 . S
N43 Co33 2.128 . S
N43 C44 1.355 . S
N43 C46 1.311 1_455 S
C44 N43 1.355 . S
C44 C45 1.363 . S
C44 H56 0.929 . S
C45 C44 1.363 . S
C45 N47 1.375 1_455 S
C45 H63 0.931 . S
C46 N43 1.311 1_655 S
C46 N47 1.347 . S
C46 H57 0.929 . S
N47 C45 1.375 1_655 S
N47 C46 1.347 . S
C48 C51 1.365 . S
C48 N53 1.328 . S
C48 H54 0.929 . S
C49 C50 1.362 . S
C49 C52 1.378 . S
C49 H64 0.929 1_455 S
C50 C49 1.362 . S
C50 C51 1.366 . S
C51 C48 1.365 . S
C51 C50 1.366 . S
C51 H65 0.930 . S
C52 C49 1.378 . S
C52 N53 1.315 . S
C52 H55 0.930 1_455 S
N53 Co33 2.194 . S
N53 C48 1.328 . S
N53 C52 1.315 . S
H54 C48 0.929 . S
H55 C52 0.930 1_655 S
H56 C44 0.929 . S
H57 C46 0.929 . S
O58 Co33 2.351 . S
O58 C61 1.244 . S
O59 Co33 2.155 . S
O59 C61 1.240 . S
O60 Co33 2.096 1_655 S
O60 C41 1.247 . S
C61 O58 1.244 . S
C61 O59 1.240 . S
H62 C36 0.931 . S
H63 C45 0.931 . S
H64 C49 0.929 1_655 S
H65 C51 0.930 . S
Co66 N70 2.148 . S
Co66 N76 2.128 . S
Co66 N86 2.194 . S
Co66 O91 2.351 . S
Co66 O92 2.155 . S
Co66 O93 2.096 1_545 S
C67 N70 1.301 . S
C67 N71 1.328 . S
C67 H72 0.930 . S
C68 C69 1.333 . S
C68 N70 1.317 . S
C68 H73 0.930 . S
C69 C68 1.333 . S
C69 N71 1.350 . S
C69 H95 0.931 . S
N70 Co66 2.148 . S
N70 C67 1.301 . S
N70 C68 1.317 . S
N71 C67 1.328 . S
N71 C69 1.350 . S
H72 C67 0.930 . S
H73 C68 0.930 . S
C74 O75 1.224 . S
C74 O93 1.247 . S
O75 C74 1.224 . S
N76 Co66 2.128 . S
N76 C77 1.355 . S
N76 C79 1.311 1_545 S
C77 N76 1.355 . S
C77 C78 1.363 . S
C77 H89 0.929 . S
C78 C77 1.363 . S
C78 N80 1.375 1_545 S
C78 H96 0.931 . S
C79 N76 1.311 1_565 S
C79 N80 1.347 . S
C79 H90 0.929 . S
N80 C78 1.375 1_565 S
N80 C79 1.347 . S
C81 C84 1.365 . S
C81 N86 1.328 . S
C81 H87 0.929 . S
C82 C83 1.362 . S
C82 C85 1.378 . S
C82 H97 0.929 1_545 S
C83 C82 1.362 . S
C83 C84 1.366 . S
C84 C81 1.365 . S
C84 C83 1.366 . S
C84 H98 0.930 . S
C85 C82 1.378 . S
C85 N86 1.315 . S
C85 H88 0.930 1_545 S
N86 Co66 2.194 . S
N86 C81 1.328 . S
N86 C85 1.315 . S
H87 C81 0.929 . S
H88 C85 0.930 1_565 S
H89 C77 0.929 . S
H90 C79 0.929 . S
O91 Co66 2.351 . S
O91 C94 1.244 . S
O92 Co66 2.155 . S
O92 C94 1.240 . S
O93 Co66 2.096 1_565 S
O93 C74 1.247 . S
C94 O91 1.244 . S
C94 O92 1.240 . S
H95 C69 0.931 . S
H96 C78 0.931 . S
H97 C82 0.929 1_565 S
H98 C84 0.930 . S
Co99 N103 2.148 1_554 S
Co99 N109 2.128 . S
Co99 N119 2.194 1_554 S
Co99 O124 2.351 . S
Co99 O125 2.155 . S
Co99 O126 2.096 . S
C100 N103 1.301 . S
C100 N104 1.328 . S
C100 H105 0.930 . S
C101 C102 1.333 . S
C101 N103 1.317 . S
C101 H106 0.930 . S
C102 C101 1.333 . S
C102 N104 1.350 . S
C102 H128 0.931 . S
N103 Co99 2.148 1_556 S
N103 C100 1.301 . S
N103 C101 1.317 . S
N104 C100 1.328 . S
N104 C102 1.350 . S
H105 C100 0.930 . S
H106 C101 0.930 . S
C107 O108 1.224 1_554 S
C107 O126 1.247 . S
O108 C107 1.224 1_556 S
N109 Co99 2.128 . S
N109 C110 1.355 . S
N109 C112 1.311 . S
C110 N109 1.355 . S
C110 C111 1.363 . S
C110 H122 0.929 . S
C111 C110 1.363 . S
C111 N113 1.375 . S
C111 H129 0.931 . S
C112 N109 1.311 . S
C112 N113 1.347 . S
C112 H123 0.929 . S
N113 C111 1.375 . S
N113 C112 1.347 . S
C114 C117 1.365 . S
C114 N119 1.328 . S
C114 H120 0.929 . S
C115 C116 1.362 . S
C115 C118 1.378 . S
C115 H130 0.929 . S
C116 C115 1.362 . S
C116 C117 1.366 . S
C117 C114 1.365 . S
C117 C116 1.366 . S
C117 H131 0.930 . S
C118 C115 1.378 . S
C118 N119 1.315 . S
C118 H121 0.930 . S
N119 Co99 2.194 1_556 S
N119 C114 1.328 . S
N119 C118 1.315 . S
H120 C114 0.929 . S
H121 C118 0.930 . S
H122 C110 0.929 . S
H123 C112 0.929 . S
O124 Co99 2.351 . S
O124 C127 1.244 . S
O125 Co99 2.155 . S
O125 C127 1.240 . S
O126 Co99 2.096 . S
O126 C107 1.247 . S
C127 O124 1.244 . S
C127 O125 1.240 . S
H128 C102 0.931 . S
H129 C111 0.931 . S
H130 C115 0.929 . S
H131 C117 0.930 . S
Co132 N136 2.148 . S
Co132 N142 2.128 . S
Co132 N152 2.194 . S
Co132 O157 2.351 . S
Co132 O158 2.155 . S
Co132 O159 2.096 1_655 S
C133 N136 1.301 . S
C133 N137 1.328 . S
C133 H138 0.930 . S
C134 C135 1.333 . S
C134 N136 1.317 . S
C134 H139 0.930 . S
C135 C134 1.333 . S
C135 N137 1.350 . S
C135 H161 0.931 . S
N136 Co132 2.148 . S
N136 C133 1.301 . S
N136 C134 1.317 . S
N137 C133 1.328 . S
N137 C135 1.350 . S
H138 C133 0.930 . S
H139 C134 0.930 . S
C140 O141 1.224 . S
C140 O159 1.247 . S
O141 C140 1.224 . S
N142 Co132 2.128 . S
N142 C143 1.355 . S
N142 C145 1.311 1_655 S
C143 N142 1.355 . S
C143 C144 1.363 . S
C143 H155 0.929 . S
C144 C143 1.363 . S
C144 N146 1.375 1_655 S
C144 H162 0.931 . S
C145 N142 1.311 1_455 S
C145 N146 1.347 . S
C145 H156 0.929 . S
N146 C144 1.375 1_455 S
N146 C145 1.347 . S
C147 C150 1.365 . S
C147 N152 1.328 . S
C147 H153 0.929 . S
C148 C149 1.362 . S
C148 C151 1.378 . S
C148 H163 0.929 1_655 S
C149 C148 1.362 . S
C149 C150 1.366 . S
C150 C147 1.365 . S
C150 C149 1.366 . S
C150 H164 0.930 . S
C151 C148 1.378 . S
C151 N152 1.315 . S
C151 H154 0.930 1_655 S
N152 Co132 2.194 . S
N152 C147 1.328 . S
N152 C151 1.315 . S
H153 C147 0.929 . S
H154 C151 0.930 1_455 S
H155 C143 0.929 . S
H156 C145 0.929 . S
O157 Co132 2.351 . S
O157 C160 1.244 . S
O158 Co132 2.155 . S
O158 C160 1.240 . S
O159 Co132 2.096 1_455 S
O159 C140 1.247 . S
C160 O157 1.244 . S
C160 O158 1.240 . S
H161 C135 0.931 . S
H162 C144 0.931 . S
H163 C148 0.929 1_455 S
H164 C150 0.930 . S
Co165 N169 2.148 . S
Co165 N175 2.128 . S
Co165 N185 2.194 . S
Co165 O190 2.351 . S
Co165 O191 2.155 . S
Co165 O192 2.096 1_565 S
C166 N169 1.301 . S
C166 N170 1.328 . S
C166 H171 0.930 . S
C167 C168 1.333 . S
C167 N169 1.317 . S
C167 H172 0.930 . S
C168 C167 1.333 . S
C168 N170 1.350 . S
C168 H194 0.931 . S
N169 Co165 2.148 . S
N169 C166 1.301 . S
N169 C167 1.317 . S
N170 C166 1.328 . S
N170 C168 1.350 . S
H171 C166 0.930 . S
H172 C167 0.930 . S
C173 O174 1.224 . S
C173 O192 1.247 . S
O174 C173 1.224 . S
N175 Co165 2.128 . S
N175 C176 1.355 . S
N175 C178 1.311 1_565 S
C176 N175 1.355 . S
C176 C177 1.363 . S
C176 H188 0.929 . S
C177 C176 1.363 . S
C177 N179 1.375 1_565 S
C177 H195 0.931 . S
C178 N175 1.311 1_545 S
C178 N179 1.347 . S
C178 H189 0.929 . S
N179 C177 1.375 1_545 S
N179 C178 1.347 . S
C180 C183 1.365 . S
C180 N185 1.328 . S
C180 H186 0.929 . S
C181 C182 1.362 . S
C181 C184 1.378 . S
C181 H196 0.929 1_565 S
C182 C181 1.362 . S
C182 C183 1.366 . S
C183 C180 1.365 . S
C183 C182 1.366 . S
C183 H197 0.930 . S
C184 C181 1.378 . S
C184 N185 1.315 . S
C184 H187 0.930 1_565 S
N185 Co165 2.194 . S
N185 C180 1.328 . S
N185 C184 1.315 . S
H186 C180 0.929 . S
H187 C184 0.930 1_545 S
H188 C176 0.929 . S
H189 C178 0.929 . S
O190 Co165 2.351 . S
O190 C193 1.244 . S
O191 Co165 2.155 . S
O191 C193 1.240 . S
O192 Co165 2.096 1_545 S
O192 C173 1.247 . S
C193 O190 1.244 . S
C193 O191 1.240 . S
H194 C168 0.931 . S
H195 C177 0.931 . S
H196 C181 0.929 1_545 S
H197 C183 0.930 . S
Co198 N202 2.148 . S
Co198 N208 2.128 . S
Co198 N218 2.194 . S
Co198 O223 2.351 . S
Co198 O224 2.155 . S
Co198 O225 2.096 . S
C199 N202 1.301 . S
C199 N203 1.328 . S
C199 H204 0.930 . S
C200 C201 1.333 . S
C200 N202 1.317 . S
C200 H205 0.930 . S
C201 C200 1.333 . S
C201 N203 1.350 . S
C201 H227 0.931 . S
N202 Co198 2.148 . S
N202 C199 1.301 . S
N202 C200 1.317 . S
N203 C199 1.328 . S
N203 C201 1.350 . S
H204 C199 0.930 . S
H205 C200 0.930 . S
C206 O207 1.224 . S
C206 O225 1.247 . S
O207 C206 1.224 . S
N208 Co198 2.128 . S
N208 C209 1.355 . S
N208 C211 1.311 . S
C209 N208 1.355 . S
C209 C210 1.363 . S
C209 H221 0.929 . S
C210 C209 1.363 . S
C210 N212 1.375 . S
C210 H228 0.931 . S
C211 N208 1.311 . S
C211 N212 1.347 . S
C211 H222 0.929 . S
N212 C210 1.375 . S
N212 C211 1.347 . S
C213 C216 1.365 . S
C213 N218 1.328 . S
C213 H219 0.929 . S
C214 C215 1.362 . S
C214 C217 1.378 . S
C214 H229 0.929 . S
C215 C214 1.362 . S
C215 C216 1.366 . S
C216 C213 1.365 . S
C216 C215 1.366 . S
C216 H230 0.930 . S
C217 C214 1.378 . S
C217 N218 1.315 . S
C217 H220 0.930 . S
N218 Co198 2.194 . S
N218 C213 1.328 . S
N218 C217 1.315 . S
H219 C213 0.929 . S
H220 C217 0.930 . S
H221 C209 0.929 . S
H222 C211 0.929 . S
O223 Co198 2.351 . S
O223 C226 1.244 . S
O224 Co198 2.155 . S
O224 C226 1.240 . S
O225 Co198 2.096 . S
O225 C206 1.247 . S
C226 O223 1.244 . S
C226 O224 1.240 . S
H227 C201 0.931 . S
H228 C210 0.931 . S
H229 C214 0.929 . S
H230 C216 0.930 . S
Co231 N235 2.148 . S
Co231 N241 2.128 . S
Co231 N251 2.194 . S
Co231 O256 2.351 . S
Co231 O257 2.155 . S
Co231 O258 2.096 1_455 S
C232 N235 1.301 . S
C232 N236 1.328 . S
C232 H237 0.930 . S
C233 C234 1.333 . S
C233 N235 1.317 . S
C233 H238 0.930 . S
C234 C233 1.333 . S
C234 N236 1.350 . S
C234 H260 0.931 . S
N235 Co231 2.148 . S
N235 C232 1.301 . S
N235 C233 1.317 . S
N236 C232 1.328 . S
N236 C234 1.350 . S
H237 C232 0.930 . S
H238 C233 0.930 . S
C239 O240 1.224 . S
C239 O258 1.247 . S
O240 C239 1.224 . S
N241 Co231 2.128 . S
N241 C242 1.355 . S
N241 C244 1.311 1_455 S
C242 N241 1.355 . S
C242 C243 1.363 . S
C242 H254 0.929 . S
C243 C242 1.363 . S
C243 N245 1.375 1_455 S
C243 H261 0.931 . S
C244 N241 1.311 1_655 S
C244 N245 1.347 . S
C244 H255 0.929 . S
N245 C243 1.375 1_655 S
N245 C244 1.347 . S
C246 C249 1.365 . S
C246 N251 1.328 . S
C246 H252 0.929 . S
C247 C248 1.362 . S
C247 C250 1.378 . S
C247 H262 0.929 1_455 S
C248 C247 1.362 . S
C248 C249 1.366 . S
C249 C246 1.365 . S
C249 C248 1.366 . S
C249 H263 0.930 . S
C250 C247 1.378 . S
C250 N251 1.315 . S
C250 H253 0.930 1_455 S
N251 Co231 2.194 . S
N251 C246 1.328 . S
N251 C250 1.315 . S
H252 C246 0.929 . S
H253 C250 0.930 1_655 S
H254 C242 0.929 . S
H255 C244 0.929 . S
O256 Co231 2.351 . S
O256 C259 1.244 . S
O257 Co231 2.155 . S
O257 C259 1.240 . S
O258 Co231 2.096 1_655 S
O258 C239 1.247 . S
C259 O256 1.244 . S
C259 O257 1.240 . S
H260 C234 0.931 . S
H261 C243 0.931 . S
H262 C247 0.929 1_655 S
H263 C249 0.930 . S
Co264 N268 2.148 . S
Co264 N274 2.128 . S
Co264 N284 2.194 . S
Co264 O289 2.351 . S
Co264 O290 2.155 . S
Co264 O291 2.096 1_545 S
C265 N268 1.301 . S
C265 N269 1.328 . S
C265 H270 0.930 . S
C266 C267 1.333 . S
C266 N268 1.317 . S
C266 H271 0.930 . S
C267 C266 1.333 . S
C267 N269 1.350 . S
C267 H293 0.931 . S
N268 Co264 2.148 . S
N268 C265 1.301 . S
N268 C266 1.317 . S
N269 C265 1.328 . S
N269 C267 1.350 . S
H270 C265 0.930 . S
H271 C266 0.930 . S
C272 O273 1.224 . S
C272 O291 1.247 . S
O273 C272 1.224 . S
N274 Co264 2.128 . S
N274 C275 1.355 . S
N274 C277 1.311 1_545 S
C275 N274 1.355 . S
C275 C276 1.363 . S
C275 H287 0.929 . S
C276 C275 1.363 . S
C276 N278 1.375 1_545 S
C276 H294 0.931 . S
C277 N274 1.311 1_565 S
C277 N278 1.347 . S
C277 H288 0.929 . S
N278 C276 1.375 1_565 S
N278 C277 1.347 . S
C279 C282 1.365 . S
C279 N284 1.328 . S
C279 H285 0.929 . S
C280 C281 1.362 . S
C280 C283 1.378 . S
C280 H295 0.929 1_545 S
C281 C280 1.362 . S
C281 C282 1.366 . S
C282 C279 1.365 . S
C282 C281 1.366 . S
C282 H296 0.930 . S
C283 C280 1.378 . S
C283 N284 1.315 . S
C283 H286 0.930 1_545 S
N284 Co264 2.194 . S
N284 C279 1.328 . S
N284 C283 1.315 . S
H285 C279 0.929 . S
H286 C283 0.930 1_565 S
H287 C275 0.929 . S
H288 C277 0.929 . S
O289 Co264 2.351 . S
O289 C292 1.244 . S
O290 Co264 2.155 . S
O290 C292 1.240 . S
O291 Co264 2.096 1_565 S
O291 C272 1.247 . S
C292 O289 1.244 . S
C292 O290 1.240 . S
H293 C267 0.931 . S
H294 C276 0.931 . S
H295 C280 0.929 1_565 S
H296 C282 0.930 . S
Co297 N301 2.148 . S
Co297 N307 2.128 . S
Co297 N317 2.194 . S
Co297 O322 2.351 . S
Co297 O323 2.155 . S
Co297 O324 2.096 . S
C298 N301 1.301 . S
C298 N302 1.328 . S
C298 H303 0.930 . S
C299 C300 1.333 . S
C299 N301 1.317 . S
C299 H304 0.930 . S
C300 C299 1.333 . S
C300 N302 1.350 . S
C300 H326 0.931 . S
N301 Co297 2.148 . S
N301 C298 1.301 . S
N301 C299 1.317 . S
N302 C298 1.328 . S
N302 C300 1.350 . S
H303 C298 0.930 . S
H304 C299 0.930 . S
C305 O306 1.224 . S
C305 O324 1.247 . S
O306 C305 1.224 . S
N307 Co297 2.128 . S
N307 C308 1.355 . S
N307 C310 1.311 . S
C308 N307 1.355 . S
C308 C309 1.363 . S
C308 H320 0.929 . S
C309 C308 1.363 . S
C309 N311 1.375 . S
C309 H327 0.931 . S
C310 N307 1.311 . S
C310 N311 1.347 . S
C310 H321 0.929 . S
N311 C309 1.375 . S
N311 C310 1.347 . S
C312 C315 1.365 . S
C312 N317 1.328 . S
C312 H318 0.929 . S
C313 C314 1.362 . S
C313 C316 1.378 . S
C313 H328 0.929 . S
C314 C313 1.362 . S
C314 C315 1.366 . S
C315 C312 1.365 . S
C315 C314 1.366 . S
C315 H329 0.930 . S
C316 C313 1.378 . S
C316 N317 1.315 . S
C316 H319 0.930 . S
N317 Co297 2.194 . S
N317 C312 1.328 . S
N317 C316 1.315 . S
H318 C312 0.929 . S
H319 C316 0.930 . S
H320 C308 0.929 . S
H321 C310 0.929 . S
O322 Co297 2.351 . S
O322 C325 1.244 . S
O323 Co297 2.155 . S
O323 C325 1.240 . S
O324 Co297 2.096 . S
O324 C305 1.247 . S
C325 O322 1.244 . S
C325 O323 1.240 . S
H326 C300 0.931 . S
H327 C309 0.931 . S
H328 C313 0.929 . S
H329 C315 0.930 . S
Co330 N334 2.148 1_556 S
Co330 N340 2.128 . S
Co330 N350 2.194 1_556 S
Co330 O355 2.351 . S
Co330 O356 2.155 . S
Co330 O357 2.096 1_655 S
C331 N334 1.301 . S
C331 N335 1.328 . S
C331 H336 0.930 . S
C332 C333 1.333 . S
C332 N334 1.317 . S
C332 H337 0.930 . S
C333 C332 1.333 . S
C333 N335 1.350 . S
C333 H359 0.931 . S
N334 Co330 2.148 1_554 S
N334 C331 1.301 . S
N334 C332 1.317 . S
N335 C331 1.328 . S
N335 C333 1.350 . S
H336 C331 0.930 . S
H337 C332 0.930 . S
C338 O339 1.224 1_556 S
C338 O357 1.247 . S
O339 C338 1.224 1_554 S
N340 Co330 2.128 . S
N340 C341 1.355 . S
N340 C343 1.311 1_655 S
C341 N340 1.355 . S
C341 C342 1.363 . S
C341 H353 0.929 . S
C342 C341 1.363 . S
C342 N344 1.375 1_655 S
C342 H360 0.931 . S
C343 N340 1.311 1_455 S
C343 N344 1.347 . S
C343 H354 0.929 . S
N344 C342 1.375 1_455 S
N344 C343 1.347 . S
C345 C348 1.365 . S
C345 N350 1.328 . S
C345 H351 0.929 . S
C346 C347 1.362 . S
C346 C349 1.378 . S
C346 H361 0.929 1_655 S
C347 C346 1.362 . S
C347 C348 1.366 . S
C348 C345 1.365 . S
C348 C347 1.366 . S
C348 H362 0.930 . S
C349 C346 1.378 . S
C349 N350 1.315 . S
C349 H352 0.930 1_655 S
N350 Co330 2.194 1_554 S
N350 C345 1.328 . S
N350 C349 1.315 . S
H351 C345 0.929 . S
H352 C349 0.930 1_455 S
H353 C341 0.929 . S
H354 C343 0.929 . S
O355 Co330 2.351 . S
O355 C358 1.244 . S
O356 Co330 2.155 . S
O356 C358 1.240 . S
O357 Co330 2.096 1_455 S
O357 C338 1.247 . S
C358 O355 1.244 . S
C358 O356 1.240 . S
H359 C333 0.931 . S
H360 C342 0.931 . S
H361 C346 0.929 1_455 S
H362 C348 0.930 . S
Co363 N367 2.148 . S
Co363 N373 2.128 . S
Co363 N383 2.194 . S
Co363 O388 2.351 . S
Co363 O389 2.155 . S
Co363 O390 2.096 1_565 S
C364 N367 1.301 . S
C364 N368 1.328 . S
C364 H369 0.930 . S
C365 C366 1.333 . S
C365 N367 1.317 . S
C365 H370 0.930 . S
C366 C365 1.333 . S
C366 N368 1.350 . S
C366 H392 0.931 . S
N367 Co363 2.148 . S
N367 C364 1.301 . S
N367 C365 1.317 . S
N368 C364 1.328 . S
N368 C366 1.350 . S
H369 C364 0.930 . S
H370 C365 0.930 . S
C371 O372 1.224 . S
C371 O390 1.247 . S
O372 C371 1.224 . S
N373 Co363 2.128 . S
N373 C374 1.355 . S
N373 C376 1.311 1_565 S
C374 N373 1.355 . S
C374 C375 1.363 . S
C374 H386 0.929 . S
C375 C374 1.363 . S
C375 N377 1.375 1_565 S
C375 H393 0.931 . S
C376 N373 1.311 1_545 S
C376 N377 1.347 . S
C376 H387 0.929 . S
N377 C375 1.375 1_545 S
N377 C376 1.347 . S
C378 C381 1.365 . S
C378 N383 1.328 . S
C378 H384 0.929 . S
C379 C380 1.362 . S
C379 C382 1.378 . S
C379 H394 0.929 1_565 S
C380 C379 1.362 . S
C380 C381 1.366 . S
C381 C378 1.365 . S
C381 C380 1.366 . S
C381 H395 0.930 . S
C382 C379 1.378 . S
C382 N383 1.315 . S
C382 H385 0.930 1_565 S
N383 Co363 2.194 . S
N383 C378 1.328 . S
N383 C382 1.315 . S
H384 C378 0.929 . S
H385 C382 0.930 1_545 S
H386 C374 0.929 . S
H387 C376 0.929 . S
O388 Co363 2.351 . S
O388 C391 1.244 . S
O389 Co363 2.155 . S
O389 C391 1.240 . S
O390 Co363 2.096 1_545 S
O390 C371 1.247 . S
C391 O388 1.244 . S
C391 O389 1.240 . S
H392 C366 0.931 . S
H393 C375 0.931 . S
H394 C379 0.929 1_545 S
H395 C381 0.930 . S
C292 C28 1.666 . S
C61 C325 1.666 . S
C94 C358 1.666 . S
C127 C391 1.666 . S
C160 C226 1.666 . S
C193 C259 1.666 . S
N5 C173 2.069 . S
C8 N38 2.069 . S
N71 C41 2.069 . S
C74 N104 2.069 . S
C107 N137 2.069 . S
N170 C140 2.069 . S
C239 N203 2.069 . S
C272 N236 2.068 . S
C305 N269 2.069 . S
C338 N302 2.069 . S
C371 N335 2.069 . S
N368 C206 2.069 . S
C17 C215 1.478 . S
C50 C248 1.478 . S
C83 C281 1.478 . S
C116 C314 1.478 . S
C347 C149 1.478 . S
C182 C380 1.478 . S
N311 N14 1.084 . S
N47 N344 1.084 1_655 S
N80 N377 1.084 1_566 S
N113 N212 1.084 . S
N146 N245 1.084 1_455 S
N278 N179 1.084 1_565 S
