# Generated by pormake.
# Topology pcl, (4)-cn, num edge types: 1
# Building blocks:
#     Node 0, Type 0, BuildingBlock: GALJAG_clean_sbu_0, # of connection points: 4
#     Node 1, Type 0, BuildingBlock: GALJAG_clean_sbu_0, # of connection points: 4
#     Node 2, Type 0, BuildingBlock: GALJAG_clean_sbu_0, # of connection points: 4
#     Node 3, Type 0, BuildingBlock: GALJAG_clean_sbu_0, # of connection points: 4
#     Node 4, Type 0, BuildingBlock: GALJAG_clean_sbu_0, # of connection points: 4
#     Node 5, Type 0, BuildingBlock: GALJAG_clean_sbu_0, # of connection points: 4
#     Node 6, Type 0, BuildingBlock: GALJAG_clean_sbu_0, # of connection points: 4
#     Node 7, Type 0, BuildingBlock: GALJAG_clean_sbu_0, # of connection points: 4
#     Node 8, Type 0, BuildingBlock: GALJAG_clean_sbu_0, # of connection points: 4
#     Node 9, Type 0, BuildingBlock: GALJAG_clean_sbu_0, # of connection points: 4
#     Node 10, Type 0, BuildingBlock: GALJAG_clean_sbu_0, # of connection points: 4
#     Node 11, Type 0, BuildingBlock: GALJAG_clean_sbu_0, # of connection points: 4
#     Node 12, Type 0, BuildingBlock: GALJAG_clean_sbu_0, # of connection points: 4
#     Node 13, Type 0, BuildingBlock: GALJAG_clean_sbu_0, # of connection points: 4
#     Node 14, Type 0, BuildingBlock: GALJAG_clean_sbu_0, # of connection points: 4
#     Node 15, Type 0, BuildingBlock: GALJAG_clean_sbu_0, # of connection points: 4
#     Edge 16, Type (0, 0), BuildingBlock: OJICUG_clean_linker_0, # of connection points: 2
#     Edge 17, Type (0, 0), BuildingBlock: OJICUG_clean_linker_0, # of connection points: 2
#     Edge 18, Type (0, 0), BuildingBlock: OJICUG_clean_linker_0, # of connection points: 2
#     Edge 19, Type (0, 0), BuildingBlock: OJICUG_clean_linker_0, # of connection points: 2
#     Edge 20, Type (0, 0), BuildingBlock: OJICUG_clean_linker_0, # of connection points: 2
#     Edge 21, Type (0, 0), BuildingBlock: OJICUG_clean_linker_0, # of connection points: 2
#     Edge 22, Type (0, 0), BuildingBlock: OJICUG_clean_linker_0, # of connection points: 2
#     Edge 23, Type (0, 0), BuildingBlock: OJICUG_clean_linker_0, # of connection points: 2
#     Edge 24, Type (0, 0), BuildingBlock: OJICUG_clean_linker_0, # of connection points: 2
#     Edge 25, Type (0, 0), BuildingBlock: OJICUG_clean_linker_0, # of connection points: 2
#     Edge 26, Type (0, 0), BuildingBlock: OJICUG_clean_linker_0, # of connection points: 2
#     Edge 27, Type (0, 0), BuildingBlock: OJICUG_clean_linker_0, # of connection points: 2
#     Edge 28, Type (0, 0), BuildingBlock: OJICUG_clean_linker_0, # of connection points: 2
#     Edge 29, Type (0, 0), BuildingBlock: OJICUG_clean_linker_0, # of connection points: 2
#     Edge 30, Type (0, 0), BuildingBlock: OJICUG_clean_linker_0, # of connection points: 2
#     Edge 31, Type (0, 0), BuildingBlock: OJICUG_clean_linker_0, # of connection points: 2
#     Edge 32, Type (0, 0), BuildingBlock: OJICUG_clean_linker_0, # of connection points: 2
#     Edge 33, Type (0, 0), BuildingBlock: OJICUG_clean_linker_0, # of connection points: 2
#     Edge 34, Type (0, 0), BuildingBlock: OJICUG_clean_linker_0, # of connection points: 2
#     Edge 35, Type (0, 0), BuildingBlock: OJICUG_clean_linker_0, # of connection points: 2
#     Edge 36, Type (0, 0), BuildingBlock: OJICUG_clean_linker_0, # of connection points: 2
#     Edge 37, Type (0, 0), BuildingBlock: OJICUG_clean_linker_0, # of connection points: 2
#     Edge 38, Type (0, 0), BuildingBlock: OJICUG_clean_linker_0, # of connection points: 2
#     Edge 39, Type (0, 0), BuildingBlock: OJICUG_clean_linker_0, # of connection points: 2
#     Edge 40, Type (0, 0), BuildingBlock: OJICUG_clean_linker_0, # of connection points: 2
#     Edge 41, Type (0, 0), BuildingBlock: OJICUG_clean_linker_0, # of connection points: 2
#     Edge 42, Type (0, 0), BuildingBlock: OJICUG_clean_linker_0, # of connection points: 2
#     Edge 43, Type (0, 0), BuildingBlock: OJICUG_clean_linker_0, # of connection points: 2
#     Edge 44, Type (0, 0), BuildingBlock: OJICUG_clean_linker_0, # of connection points: 2
#     Edge 45, Type (0, 0), BuildingBlock: OJICUG_clean_linker_0, # of connection points: 2
#     Edge 46, Type (0, 0), BuildingBlock: OJICUG_clean_linker_0, # of connection points: 2
#     Edge 47, Type (0, 0), BuildingBlock: OJICUG_clean_linker_0, # of connection points: 2
# Relax obj value: 0.122
# Max RMSD: 0.108
# Mean RMSD: 0.092
data_MOF--net-pcl--node1-GALJAG_clean_sbu_0--edge1-OJICUG_clean_linker_0
_symmetry_space_group_name_H-M    P1
_symmetry_Int_Tables_number       1
_symmetry_cell_setting            triclinic
loop_
_symmetry_equiv_pos_as_xyz
'x, y, z'
_cell_length_a     38.977254
_cell_length_b     29.609948
_cell_length_c     32.157492
_cell_angle_alpha  90.008189
_cell_angle_beta   89.991395
_cell_angle_gamma 89.992274
loop_
_atom_site_label
_atom_site_type_symbol
_atom_site_fract_x
_atom_site_fract_y
_atom_site_fract_z
_atom_type_partial_charge
In0 In 0.1275 0.32165 0.07264 0.0
O1 O 0.1517 0.26408 0.03518 0.0
O2 O 0.18424 0.31598 0.05815 0.0
C3 C 0.06284 0.28985 0.06102 0.0
C4 C 0.14203 0.32372 0.15452 0.0
C5 C 0.12572 0.40402 0.03742 0.0
O6 O 0.07933 0.31062 0.03341 0.0
O7 O 0.07941 0.28332 0.09405 0.0
O8 O 0.13665 0.36938 0.01892 0.0
O9 O 0.11566 0.39738 0.07426 0.0
C10 C 0.18166 0.28022 0.03716 0.0
O11 O 0.13407 0.35865 0.13417 0.0
O12 O 0.14296 0.28772 0.13345 0.0
In13 In 0.86513 0.65694 0.57414 0.0
O14 O 0.84317 0.71782 0.53883 0.0
O15 O 0.81135 0.66041 0.54794 0.0
C16 C 0.93307 0.67416 0.57907 0.0
C17 C 0.84388 0.66666 0.65326 0.0
C18 C 0.86905 0.57634 0.5359 0.0
O19 O 0.91459 0.69175 0.55111 0.0
O20 O 0.91708 0.64933 0.60427 0.0
O21 O 0.85917 0.58085 0.57301 0.0
O22 O 0.87708 0.61266 0.51785 0.0
C23 C 0.81426 0.69951 0.53302 0.0
O24 O 0.84223 0.62978 0.63373 0.0
O25 O 0.85589 0.69935 0.63259 0.0
In26 In 0.12959 0.65813 0.91811 0.0
O27 O 0.15229 0.6298 0.85886 0.0
O28 O 0.13901 0.69951 0.85905 0.0
C29 C 0.12578 0.57769 0.95672 0.0
C30 C 0.18062 0.70119 0.9585 0.0
C31 C 0.06172 0.67611 0.91336 0.0
O32 O 0.13513 0.58202 0.91941 0.0
O33 O 0.11812 0.61413 0.97482 0.0
O34 O 0.0803 0.69315 0.94151 0.0
O35 O 0.07756 0.65138 0.88793 0.0
C36 C 0.15081 0.66635 0.83882 0.0
O37 O 0.15171 0.71948 0.95259 0.0
O38 O 0.18345 0.66188 0.94404 0.0
In39 In 0.86953 0.32044 0.41965 0.0
O40 O 0.86452 0.3584 0.35843 0.0
O41 O 0.85344 0.28803 0.35832 0.0
C42 C 0.87079 0.40257 0.45541 0.0
C43 C 0.81526 0.2788 0.45461 0.0
C44 C 0.93392 0.28772 0.43141 0.0
O45 O 0.85952 0.36786 0.47349 0.0
O46 O 0.8815 0.39607 0.41883 0.0
O47 O 0.91788 0.30975 0.4586 0.0
O48 O 0.91702 0.28047 0.39874 0.0
C49 C 0.85559 0.3242 0.33765 0.0
O50 O 0.8453 0.263 0.45716 0.0
O51 O 0.81266 0.31433 0.4333 0.0
In52 In 0.84592 0.65707 0.91235 0.0
O53 O 0.823 0.718 0.94634 0.0
O54 O 0.7902 0.66287 0.93182 0.0
C55 C 0.91401 0.67372 0.91154 0.0
C56 C 0.84679 0.57797 0.95363 0.0
C57 C 0.83192 0.66692 0.83093 0.0
O58 O 0.89424 0.69339 0.93695 0.0
O59 O 0.89933 0.6465 0.88727 0.0
O60 O 0.82836 0.62995 0.84999 0.0
O61 O 0.84154 0.6996 0.85334 0.0
C62 C 0.79322 0.70123 0.94831 0.0
O63 O 0.83767 0.58125 0.91612 0.0
O64 O 0.85552 0.6147 0.97047 0.0
In65 In 0.14451 0.32068 0.4164 0.0
O66 O 0.15593 0.36651 0.47109 0.0
O67 O 0.13573 0.39713 0.41652 0.0
C68 C 0.15282 0.32407 0.33326 0.0
C69 C 0.19952 0.27786 0.44831 0.0
C70 C 0.08022 0.28852 0.43046 0.0
O71 O 0.14533 0.35843 0.35468 0.0
O72 O 0.15704 0.28826 0.35396 0.0
O73 O 0.0959 0.31341 0.45579 0.0
O74 O 0.09737 0.27834 0.3987 0.0
C75 C 0.14629 0.40228 0.45337 0.0
O76 O 0.16931 0.26335 0.45315 0.0
O77 O 0.20195 0.31275 0.42604 0.0
In78 In 0.85219 0.32508 0.0757 0.0
O79 O 0.84237 0.37046 0.0203 0.0
O80 O 0.85827 0.40199 0.07651 0.0
C81 C 0.8445 0.32783 0.15894 0.0
C82 C 0.79715 0.2826 0.04352 0.0
C83 C 0.91651 0.29298 0.06168 0.0
O84 O 0.85358 0.36182 0.13792 0.0
O85 O 0.83839 0.2928 0.13779 0.0
O86 O 0.90128 0.31911 0.03703 0.0
O87 O 0.89894 0.28162 0.09275 0.0
C88 C 0.84966 0.40669 0.03887 0.0
O89 O 0.82731 0.26781 0.039 0.0
O90 O 0.79475 0.31762 0.06562 0.0
In91 In 0.14881 0.65285 0.57973 0.0
O92 O 0.15779 0.57714 0.57596 0.0
O93 O 0.1385 0.61007 0.52206 0.0
C94 C 0.16268 0.66352 0.66112 0.0
C95 C 0.20147 0.69658 0.54325 0.0
C96 C 0.08077 0.66976 0.58056 0.0
O97 O 0.16584 0.62621 0.64252 0.0
O98 O 0.15351 0.69607 0.63828 0.0
O99 O 0.10061 0.68948 0.55527 0.0
O100 O 0.09536 0.64228 0.60468 0.0
C101 C 0.14797 0.57356 0.53873 0.0
O102 O 0.17169 0.71336 0.54515 0.0
O103 O 0.20452 0.6584 0.56006 0.0
In104 In 0.62955 0.83043 0.07402 0.0
O105 O 0.65225 0.85777 0.13366 0.0
O106 O 0.63885 0.78812 0.13251 0.0
C107 C 0.6257 0.91106 0.03581 0.0
C108 C 0.6805 0.78783 0.03304 0.0
C109 C 0.56166 0.8128 0.0788 0.0
O110 O 0.63536 0.90654 0.07299 0.0
O111 O 0.6178 0.87474 0.01766 0.0
O112 O 0.58024 0.79538 0.05084 0.0
O113 O 0.57751 0.83773 0.10404 0.0
C114 C 0.65069 0.8209 0.1532 0.0
O115 O 0.65157 0.76955 0.03876 0.0
O116 O 0.6834 0.82692 0.04798 0.0
In117 In 0.3696 0.16276 0.57218 0.0
O118 O 0.34527 0.22005 0.53457 0.0
O119 O 0.31276 0.16847 0.55823 0.0
C120 C 0.43411 0.19503 0.5603 0.0
C121 C 0.35573 0.16018 0.65423 0.0
C122 C 0.37069 0.08042 0.53684 0.0
O123 O 0.41807 0.17282 0.53327 0.0
O124 O 0.41718 0.2027 0.59286 0.0
O125 O 0.36033 0.11529 0.51825 0.0
O126 O 0.38056 0.08683 0.57378 0.0
C127 C 0.31528 0.20404 0.53696 0.0
O128 O 0.36496 0.12575 0.63394 0.0
O129 O 0.35323 0.19595 0.63303 0.0
In130 In 0.62738 0.1669 0.91953 0.0
O131 O 0.63406 0.12894 0.85853 0.0
O132 O 0.64285 0.19988 0.85826 0.0
C133 C 0.62531 0.08479 0.95525 0.0
C134 C 0.6816 0.20851 0.95466 0.0
C135 C 0.56283 0.19921 0.93083 0.0
O136 O 0.63663 0.11939 0.97346 0.0
O137 O 0.61497 0.09137 0.91853 0.0
O138 O 0.57924 0.17863 0.95863 0.0
O139 O 0.57944 0.20531 0.89775 0.0
C140 C 0.64201 0.16353 0.8377 0.0
O141 O 0.68414 0.17264 0.93383 0.0
O142 O 0.65164 0.22466 0.95665 0.0
In143 In 0.36508 0.82617 0.41783 0.0
O144 O 0.34301 0.76482 0.45239 0.0
O145 O 0.31132 0.8225 0.44405 0.0
C146 C 0.43301 0.80866 0.41296 0.0
C147 C 0.34369 0.81766 0.33866 0.0
C148 C 0.36906 0.90662 0.45637 0.0
O149 O 0.41451 0.79139 0.44108 0.0
O150 O 0.41704 0.83328 0.38757 0.0
O151 O 0.35968 0.90231 0.41906 0.0
O152 O 0.37659 0.87016 0.4745 0.0
C153 C 0.31415 0.78317 0.45846 0.0
O154 O 0.34195 0.85418 0.35872 0.0
O155 O 0.35584 0.78467 0.35882 0.0
In156 In 0.35231 0.16362 0.91623 0.0
O157 O 0.3428 0.11862 0.97205 0.0
O158 O 0.35828 0.08674 0.91584 0.0
C159 C 0.34481 0.15961 0.83301 0.0
C160 C 0.29716 0.20624 0.94805 0.0
C161 C 0.41654 0.19613 0.93002 0.0
O162 O 0.35415 0.12608 0.85447 0.0
O163 O 0.33836 0.19487 0.85369 0.0
O164 O 0.40135 0.17016 0.95486 0.0
O165 O 0.39896 0.20713 0.89885 0.0
C166 C 0.3499 0.08227 0.95356 0.0
O167 O 0.32729 0.22121 0.95239 0.0
O168 O 0.29484 0.17098 0.92627 0.0
In169 In 0.64874 0.83012 0.41245 0.0
O170 O 0.65781 0.90573 0.41663 0.0
O171 O 0.63854 0.87259 0.47042 0.0
C172 C 0.66255 0.82066 0.33091 0.0
C173 C 0.7015 0.78599 0.44832 0.0
C174 C 0.58071 0.81308 0.41161 0.0
O175 O 0.66567 0.85768 0.34999 0.0
O176 O 0.65344 0.78774 0.35334 0.0
O177 O 0.60057 0.7934 0.43691 0.0
O178 O 0.59527 0.84059 0.38751 0.0
C179 C 0.64807 0.90915 0.45391 0.0
O180 O 0.67173 0.76921 0.44639 0.0
O181 O 0.70449 0.82434 0.43183 0.0
In182 In 0.34582 0.83171 0.07974 0.0
O183 O 0.33762 0.90761 0.07634 0.0
O184 O 0.35539 0.87431 0.02184 0.0
C185 C 0.33177 0.82056 0.16101 0.0
C186 C 0.29325 0.78791 0.04324 0.0
C187 C 0.41393 0.81534 0.08057 0.0
O188 O 0.32812 0.85782 0.14246 0.0
O189 O 0.3415 0.78829 0.13817 0.0
O190 O 0.3942 0.79541 0.0553 0.0
O191 O 0.39921 0.84268 0.1047 0.0
C192 C 0.34673 0.911 0.03881 0.0
O193 O 0.32307 0.77123 0.04502 0.0
O194 O 0.29012 0.82602 0.06019 0.0
In195 In 0.6448 0.16219 0.57588 0.0
O196 O 0.6565 0.11601 0.5216 0.0
O197 O 0.63616 0.08566 0.57622 0.0
C198 C 0.65315 0.16003 0.65903 0.0
C199 C 0.69967 0.20491 0.54354 0.0
C200 C 0.58044 0.19397 0.56152 0.0
O201 O 0.64567 0.12533 0.63808 0.0
O202 O 0.65736 0.19551 0.63786 0.0
O203 O 0.59618 0.16885 0.53643 0.0
O204 O 0.59756 0.20456 0.59318 0.0
C205 C 0.64685 0.08032 0.53945 0.0
O206 O 0.66941 0.21923 0.53858 0.0
O207 O 0.70221 0.17028 0.56613 0.0
C208 C 0.00754 0.29633 0.02244 0.0
C209 C 0.02568 0.281 0.05746 0.0
H210 H 0.95847 0.31177 -0.00379 0.0
C211 C 0.00734 0.26294 0.0912 0.0
H212 H 0.02099 0.31019 0.99586 0.0
C213 C 0.97146 0.26365 0.0913 0.0
C214 C 0.95342 0.28267 0.05776 0.0
H215 H 0.02065 0.25068 0.11852 0.0
H216 H 0.95799 0.25196 0.11873 0.0
C217 C 0.97173 0.29728 0.02265 0.0
C218 C 0.98959 0.69913 0.54871 0.0
C219 C 0.97081 0.67863 0.58094 0.0
H220 H 0.03958 0.71264 0.52323 0.0
C221 C 0.9886 0.65885 0.61424 0.0
H222 H 0.9765 0.71464 0.52266 0.0
C223 C 0.0243 0.65755 0.61447 0.0
C224 C 0.04319 0.67614 0.58148 0.0
H225 H 0.97493 0.64307 0.63972 0.0
H226 H 0.03708 0.64092 0.64017 0.0
C227 C 0.0256 0.69796 0.54902 0.0
C228 C 0.97043 0.66129 0.87757 0.0
C229 C 0.95163 0.67974 0.91071 0.0
H230 H 0.01972 0.64639 0.85229 0.0
C231 C 0.96933 0.70092 0.94344 0.0
H232 H 0.95755 0.64515 0.85167 0.0
C233 C 0.00535 0.70155 0.94384 0.0
C234 C 0.02402 0.68115 0.91145 0.0
H235 H 0.95543 0.71547 0.96935 0.0
H236 H 0.01852 0.71655 0.97009 0.0
C237 C 0.00613 0.66206 0.8779 0.0
C238 C 0.02499 0.26007 0.40089 0.0
C239 C 0.04325 0.2786 0.43448 0.0
H240 H 0.97565 0.24803 0.3737 0.0
C241 C 0.02513 0.29325 0.46973 0.0
H242 H 0.03831 0.24832 0.37337 0.0
C243 C 0.98931 0.29295 0.46997 0.0
C244 C 0.97098 0.27815 0.4349 0.0
H245 H 0.03855 0.30738 0.49621 0.0
H246 H 0.97603 0.30689 0.49664 0.0
C247 C 0.98911 0.25991 0.40107 0.0
C248 C 0.47035 0.82824 0.11437 0.0
C249 C 0.45156 0.8094 0.08142 0.0
H250 H 0.51963 0.84339 0.13951 0.0
C251 C 0.46927 0.78783 0.0489 0.0
H252 H 0.45747 0.8447 0.1401 0.0
C253 C 0.50529 0.78715 0.04851 0.0
C254 C 0.52395 0.8079 0.08071 0.0
H255 H 0.45537 0.77298 0.02315 0.0
H256 H 0.51846 0.77182 0.02243 0.0
C257 C 0.50605 0.82744 0.11405 0.0
C258 C 0.52517 0.22277 0.59074 0.0
C259 C 0.54347 0.20381 0.55737 0.0
H260 H 0.47581 0.23525 0.6177 0.0
C261 C 0.52539 0.18873 0.52226 0.0
H262 H 0.53847 0.23484 0.61816 0.0
C263 C 0.48956 0.1891 0.52194 0.0
C264 C 0.47121 0.20441 0.55681 0.0
H265 H 0.53883 0.17426 0.49595 0.0
H266 H 0.47631 0.17486 0.49539 0.0
C267 C 0.4893 0.223 0.59049 0.0
C268 C 0.5075 0.19346 0.96946 0.0
C269 C 0.52568 0.20825 0.93427 0.0
H270 H 0.45841 0.17841 0.99581 0.0
C271 C 0.50738 0.22584 0.90029 0.0
H272 H 0.52091 0.17999 -0.00377 0.0
C273 C 0.4715 0.22513 0.90015 0.0
C274 C 0.45342 0.20659 0.93389 0.0
H275 H 0.52072 0.23768 0.87283 0.0
H276 H 0.45806 0.23641 0.87256 0.0
C277 C 0.47169 0.19252 0.96922 0.0
C278 C 0.48951 0.78379 0.44348 0.0
C279 C 0.47075 0.80411 0.41113 0.0
H280 H 0.53948 0.77045 0.46908 0.0
C281 C 0.48857 0.82369 0.37775 0.0
H282 H 0.4764 0.76844 0.46959 0.0
C283 C 0.52427 0.825 0.37756 0.0
C284 C 0.54313 0.80662 0.41066 0.0
H285 H 0.47492 0.83932 0.35217 0.0
H286 H 0.53708 0.84149 0.3518 0.0
C287 C 0.52552 0.78497 0.4432 0.0
C288 C 0.14409 0.36494 0.22235 0.0
C289 C 0.14791 0.32455 0.19989 0.0
H290 H 0.14288 0.3965 0.28225 0.0
C291 C 0.1558 0.2846 0.22143 0.0
H292 H 0.1381 0.39628 0.20657 0.0
C293 C 0.15863 0.28476 0.26477 0.0
C294 C 0.15357 0.32484 0.28735 0.0
H295 H 0.159 0.25299 0.20492 0.0
H296 H 0.16385 0.25323 0.28063 0.0
C297 C 0.14687 0.36507 0.26568 0.0
C298 C 0.84313 0.70892 0.72077 0.0
C299 C 0.83562 0.66968 0.69795 0.0
H300 H 0.84752 0.739 0.78117 0.0
C301 C 0.82291 0.63159 0.71892 0.0
H302 H 0.85285 0.73882 0.70536 0.0
C303 C 0.81983 0.63169 0.76212 0.0
C304 C 0.8294 0.66989 0.78523 0.0
H305 H 0.81664 0.60096 0.70212 0.0
H306 H 0.81135 0.60112 0.77752 0.0
C307 C 0.84003 0.70902 0.76412 0.0
C308 C 0.17133 0.62983 0.7736 0.0
C309 C 0.15903 0.66849 0.79407 0.0
H310 H 0.18253 0.59821 0.71542 0.0
C311 C 0.15187 0.70747 0.77072 0.0
H312 H 0.17731 0.59938 0.79081 0.0
C313 C 0.15493 0.70681 0.72737 0.0
C314 C 0.16517 0.66715 0.70678 0.0
H315 H 0.14246 0.73779 0.78573 0.0
H316 H 0.14774 0.73663 0.70992 0.0
C317 C 0.17436 0.62917 0.7304 0.0
C318 C 0.85238 0.36732 0.22699 0.0
C319 C 0.844 0.32794 0.20486 0.0
H320 H 0.86248 0.39703 0.28644 0.0
C321 C 0.83741 0.28794 0.22696 0.0
H322 H 0.85757 0.39867 0.2108 0.0
C323 C 0.84035 0.28695 0.27028 0.0
C324 C 0.84983 0.32599 0.29228 0.0
H325 H 0.83089 0.25705 0.21073 0.0
H326 H 0.8359 0.25538 0.28642 0.0
C327 C 0.85523 0.36637 0.2703 0.0
C328 C 0.6743 0.85614 0.26214 0.0
C329 C 0.66504 0.81778 0.2852 0.0
H330 H 0.6773 0.88696 0.20217 0.0
C331 C 0.65473 0.77852 0.26405 0.0
H332 H 0.68253 0.88681 0.27757 0.0
C333 C 0.65166 0.77863 0.22069 0.0
C334 C 0.65889 0.81798 0.19791 0.0
H335 H 0.64749 0.74843 0.28107 0.0
H336 H 0.6422 0.74859 0.20525 0.0
C337 C 0.67126 0.85623 0.21893 0.0
C338 C 0.35304 0.11906 0.76555 0.0
C339 C 0.34431 0.1587 0.78709 0.0
H340 H 0.36334 0.08842 0.70655 0.0
C341 C 0.33736 0.1982 0.76439 0.0
H342 H 0.35852 0.08809 0.78221 0.0
C343 C 0.34023 0.19843 0.72105 0.0
C344 C 0.35003 0.15914 0.69963 0.0
H345 H 0.33057 0.22927 0.78015 0.0
H346 H 0.33549 0.22963 0.70443 0.0
C347 C 0.35583 0.11926 0.72223 0.0
C348 C 0.64425 0.12112 0.77051 0.0
C349 C 0.64799 0.16191 0.79237 0.0
H350 H 0.64318 0.08849 0.7111 0.0
C351 C 0.65591 0.20146 0.77025 0.0
H352 H 0.63824 0.09006 0.78675 0.0
C353 C 0.65884 0.20053 0.72694 0.0
C354 C 0.65385 0.16005 0.70496 0.0
H355 H 0.65906 0.23337 0.78629 0.0
H356 H 0.66408 0.23178 0.71062 0.0
C357 C 0.64712 0.1202 0.72721 0.0
C358 C 0.31958 0.85452 0.23035 0.0
C359 C 0.32922 0.81677 0.20666 0.0
H360 H 0.31631 0.88415 0.29081 0.0
C361 C 0.3399 0.77729 0.22718 0.0
H362 H 0.31106 0.88534 0.21542 0.0
C363 C 0.34298 0.77661 0.27052 0.0
C364 C 0.3354 0.8154 0.29394 0.0
H365 H 0.34744 0.74764 0.20967 0.0
H366 H 0.35275 0.74645 0.28547 0.0
C367 C 0.32263 0.85384 0.27355 0.0
C368 C 0.23485 0.20568 0.96657 0.0
C369 C 0.26732 0.2261 0.96957 0.0
H370 H 0.18225 0.20653 0.98599 0.0
C371 C 0.2714 0.26413 0.99513 0.0
H372 H 0.231 0.17614 0.94725 0.0
C373 C 0.24357 0.28132 0.01743 0.0
C374 C 0.21115 0.26078 0.01464 0.0
H375 H 0.29615 0.28043 -0.0018 0.0
H376 H 0.2475 0.31078 0.03683 0.0
C377 C 0.207 0.22286 0.98893 0.0
C378 C 0.78978 0.76466 0.49325 0.0
C379 C 0.78573 0.72161 0.51076 0.0
H380 H 0.76623 0.81871 0.45953 0.0
C381 C 0.75393 0.69953 0.50701 0.0
H382 H 0.814 0.78241 0.49561 0.0
C383 C 0.72659 0.72026 0.48646 0.0
C384 C 0.73055 0.76341 0.46915 0.0
H385 H 0.75006 0.66624 0.52017 0.0
H386 H 0.70233 0.70256 0.48429 0.0
C387 C 0.76244 0.78535 0.47256 0.0
C388 C 0.26834 0.7223 0.00477 0.0
C389 C 0.26428 0.7654 0.02219 0.0
H390 H 0.24495 0.66823 0.97104 0.0
C391 C 0.23237 0.78729 0.01876 0.0
H392 H 0.29262 0.70465 0.00694 0.0
C393 C 0.20507 0.76654 -0.00195 0.0
C394 C 0.20918 0.72348 0.98054 0.0
H395 H 0.22852 0.82061 0.03186 0.0
H396 H 0.1808 0.78421 0.99574 0.0
C397 C 0.24103 0.70151 0.98422 0.0
C398 C 0.76209 0.20486 0.52568 0.0
C399 C 0.72946 0.22472 0.52192 0.0
H400 H 0.81484 0.20613 0.50693 0.0
C401 C 0.72526 0.2621 0.4956 0.0
H402 H 0.76605 0.17582 0.54559 0.0
C403 C 0.75312 0.27926 0.47335 0.0
C404 C 0.78571 0.2593 0.47694 0.0
H405 H 0.70039 0.27794 0.49193 0.0
H406 H 0.74911 0.30824 0.45338 0.0
C407 C 0.78996 0.22199 0.50336 0.0
C408 C 0.70496 0.72266 0.99326 0.0
C409 C 0.70904 0.76571 0.0108 0.0
H410 H 0.72847 0.6686 0.9595 0.0
C411 C 0.74086 0.78774 0.00708 0.0
H412 H 0.68072 0.70495 0.99559 0.0
C413 C 0.76819 0.76698 0.98651 0.0
C414 C 0.76419 0.72384 0.96916 0.0
H415 H 0.74475 0.82102 0.02026 0.0
H416 H 0.79246 0.78464 0.98436 0.0
C417 C 0.73229 0.70194 0.97256 0.0
C418 C 0.28986 0.26095 0.48841 0.0
C419 C 0.28571 0.22342 0.51459 0.0
H420 H 0.26581 0.3073 0.44646 0.0
C421 C 0.25319 0.20322 0.51799 0.0
H422 H 0.31467 0.277 0.48499 0.0
C423 C 0.22529 0.22038 0.49581 0.0
C424 C 0.22938 0.25801 0.46976 0.0
H425 H 0.24927 0.17407 0.53777 0.0
H426 H 0.20048 0.20436 0.49934 0.0
C427 C 0.26194 0.27807 0.46616 0.0
C428 C 0.73483 0.28313 0.02509 0.0
C429 C 0.76733 0.2628 0.02195 0.0
H430 H 0.68219 0.28216 0.00587 0.0
C431 C 0.77142 0.22486 -0.00373 0.0
H432 H 0.73096 0.3126 0.0445 0.0
C433 C 0.74358 0.20763 0.97405 0.0
C434 C 0.71112 0.22806 0.97701 0.0
H435 H 0.7962 0.20863 0.99309 0.0
H436 H 0.74752 0.17822 0.95458 0.0
C437 C 0.70696 0.26592 0.00279 0.0
C438 C 0.26232 0.69706 0.51862 0.0
C439 C 0.23046 0.71906 0.52221 0.0
H440 H 0.31385 0.70002 0.49545 0.0
C441 C 0.22648 0.76224 0.50497 0.0
H442 H 0.26611 0.66367 0.53159 0.0
C443 C 0.2538 0.783 0.48441 0.0
C444 C 0.28559 0.76092 0.48055 0.0
H445 H 0.20224 0.77998 0.50726 0.0
H446 H 0.24993 0.81634 0.47136 0.0
C447 C 0.28964 0.71778 0.4979 0.0
C448 C 0.11421 0.52943 0.01915 0.0
C449 C 0.12479 0.5334 0.97753 0.0
H450 H 0.10613 0.48504 0.07095 0.0
C451 C 0.13509 0.49458 0.95583 0.0
H452 H 0.1061 0.55887 0.03657 0.0
C453 C 0.1352 0.45263 0.97541 0.0
C454 C 0.12493 0.44859 0.0171 0.0
H455 H 0.14334 0.49659 0.92371 0.0
H456 H 0.14347 0.42337 0.95785 0.0
C457 C 0.11423 0.48728 0.03879 0.0
C458 C 0.88183 0.52794 0.47396 0.0
C459 C 0.87037 0.53199 0.51522 0.0
H460 H 0.89105 0.4835 0.4225 0.0
C461 C 0.85962 0.49321 0.53666 0.0
H462 H 0.89031 0.55734 0.45675 0.0
C463 C 0.85996 0.45121 0.51713 0.0
C464 C 0.87113 0.44711 0.47579 0.0
H465 H 0.85069 0.4953 0.56851 0.0
H466 H 0.85132 0.42196 0.53445 0.0
C467 C 0.88226 0.48577 0.45439 0.0
C468 C 0.83829 0.4533 0.97586 0.0
C469 C 0.84857 0.45081 0.01766 0.0
H470 H 0.82966 0.49546 0.92293 0.0
C471 C 0.85805 0.49058 0.03851 0.0
H472 H 0.83083 0.4232 0.95898 0.0
C473 C 0.85742 0.53209 0.01777 0.0
C474 C 0.84726 0.53444 0.97589 0.0
H475 H 0.86609 0.48961 0.07074 0.0
H476 H 0.86496 0.56226 0.03447 0.0
C477 C 0.83763 0.49468 0.95519 0.0
C478 C 0.13564 0.4857 0.45447 0.0
C479 C 0.14696 0.44638 0.47466 0.0
H480 H 0.12708 0.55703 0.45901 0.0
C481 C 0.15872 0.44929 0.51586 0.0
H482 H 0.12643 0.4844 0.42271 0.0
C483 C 0.15905 0.49066 0.53658 0.0
C484 C 0.14766 0.52999 0.51651 0.0
H485 H 0.1676 0.41953 0.53224 0.0
H486 H 0.16821 0.49179 0.56837 0.0
C487 C 0.136 0.5272 0.47523 0.0
C488 C 0.61353 0.00165 0.95409 0.0
C489 C 0.62451 0.04028 0.97566 0.0
H490 H 0.60529 0.9301 0.95633 0.0
C491 C 0.63515 0.03616 0.0172 0.0
H492 H 0.60515 0.00394 0.92204 0.0
C493 C 0.63514 -0.00582 0.03675 0.0
C494 C 0.62459 0.95542 0.01513 0.0
H495 H 0.64364 0.06538 0.03465 0.0
H496 H 0.64369 0.99208 0.06874 0.0
C497 C 0.61361 0.95949 0.97368 0.0
C498 C 0.38091 0.9548 0.51875 0.0
C499 C 0.37035 0.95093 0.47713 0.0
H500 H 0.38938 -0.00086 0.57049 0.0
C501 C 0.36044 0.98987 0.45535 0.0
H502 H 0.38872 0.92527 0.53623 0.0
C503 C 0.36074 0.03187 0.47487 0.0
C504 C 0.37102 0.03582 0.51655 0.0
H505 H 0.35221 0.98793 0.42322 0.0
H506 H 0.35278 0.06124 0.45726 0.0
C507 C 0.38129 -0.00302 0.53832 0.0
C508 C 0.33801 -0.00557 0.03745 0.0
C509 C 0.3473 0.95459 0.01665 0.0
H510 H 0.33155 0.06599 0.03373 0.0
C511 C 0.35724 0.95687 0.97469 0.0
H512 H 0.33023 -0.00631 0.06979 0.0
C513 C 0.35796 -0.00163 0.95396 0.0
C514 C 0.3488 0.03821 0.97489 0.0
H515 H 0.36453 0.92664 0.95789 0.0
H516 H 0.36581 -0.00074 0.92165 0.0
C517 C 0.33877 0.03582 0.01679 0.0
C518 C 0.65938 0.03322 0.47709 0.0
C519 C 0.64751 0.03617 0.51824 0.0
H520 H 0.6688 0.99076 0.42455 0.0
C521 C 0.636 -0.0031 0.53837 0.0
H522 H 0.66842 0.06292 0.46076 0.0
C523 C 0.63623 0.95542 0.51754 0.0
C524 C 0.64794 0.95262 0.47628 0.0
H525 H 0.6267 -0.00176 0.57009 0.0
H526 H 0.62713 0.92563 0.53367 0.0
C527 C 0.65957 0.99189 0.45632 0.0
loop_
_geom_bond_atom_site_label_1
_geom_bond_atom_site_label_2
_geom_bond_distance
_geom_bond_site_symmetry_2
_ccdc_geom_bond_type
In0 O1 2.294 . S
In0 O2 2.326 . S
In0 O6 2.266 . S
In0 O7 2.326 . S
In0 O8 2.266 . S
In0 O9 2.326 . S
In0 O11 2.294 . S
In0 O12 2.326 . S
O1 In0 2.294 . S
O1 C10 1.240 . S
O2 In0 2.326 . S
O2 C10 1.252 . S
C3 O6 1.252 . S
C3 O7 1.260 . S
C4 O11 1.240 . S
C4 O12 1.252 . S
C5 O8 1.252 . S
C5 O9 1.260 . S
O6 In0 2.266 . S
O6 C3 1.252 . S
O7 In0 2.326 . S
O7 C3 1.260 . S
O8 In0 2.266 . S
O8 C5 1.252 . S
O9 In0 2.326 . S
O9 C5 1.260 . S
C10 O1 1.240 . S
C10 O2 1.252 . S
O11 In0 2.294 . S
O11 C4 1.240 . S
O12 In0 2.326 . S
O12 C4 1.252 . S
In13 O14 2.294 . S
In13 O15 2.326 . S
In13 O19 2.266 . S
In13 O20 2.326 . S
In13 O21 2.266 . S
In13 O22 2.326 . S
In13 O24 2.294 . S
In13 O25 2.326 . S
O14 In13 2.294 . S
O14 C23 1.240 . S
O15 In13 2.326 . S
O15 C23 1.252 . S
C16 O19 1.252 . S
C16 O20 1.260 . S
C17 O24 1.240 . S
C17 O25 1.252 . S
C18 O21 1.252 . S
C18 O22 1.260 . S
O19 In13 2.266 . S
O19 C16 1.252 . S
O20 In13 2.326 . S
O20 C16 1.260 . S
O21 In13 2.266 . S
O21 C18 1.252 . S
O22 In13 2.326 . S
O22 C18 1.260 . S
C23 O14 1.240 . S
C23 O15 1.252 . S
O24 In13 2.294 . S
O24 C17 1.240 . S
O25 In13 2.326 . S
O25 C17 1.252 . S
In26 O27 2.294 . S
In26 O28 2.326 . S
In26 O32 2.266 . S
In26 O33 2.326 . S
In26 O34 2.266 . S
In26 O35 2.326 . S
In26 O37 2.294 . S
In26 O38 2.326 . S
O27 In26 2.294 . S
O27 C36 1.240 . S
O28 In26 2.326 . S
O28 C36 1.252 . S
C29 O32 1.252 . S
C29 O33 1.260 . S
C30 O37 1.240 . S
C30 O38 1.252 . S
C31 O34 1.252 . S
C31 O35 1.260 . S
O32 In26 2.266 . S
O32 C29 1.252 . S
O33 In26 2.326 . S
O33 C29 1.260 . S
O34 In26 2.266 . S
O34 C31 1.252 . S
O35 In26 2.326 . S
O35 C31 1.260 . S
C36 O27 1.240 . S
C36 O28 1.252 . S
O37 In26 2.294 . S
O37 C30 1.240 . S
O38 In26 2.326 . S
O38 C30 1.252 . S
In39 O40 2.294 . S
In39 O41 2.326 . S
In39 O45 2.266 . S
In39 O46 2.326 . S
In39 O47 2.266 . S
In39 O48 2.326 . S
In39 O50 2.294 . S
In39 O51 2.326 . S
O40 In39 2.294 . S
O40 C49 1.240 . S
O41 In39 2.326 . S
O41 C49 1.252 . S
C42 O45 1.252 . S
C42 O46 1.260 . S
C43 O50 1.240 . S
C43 O51 1.252 . S
C44 O47 1.252 . S
C44 O48 1.260 . S
O45 In39 2.266 . S
O45 C42 1.252 . S
O46 In39 2.326 . S
O46 C42 1.260 . S
O47 In39 2.266 . S
O47 C44 1.252 . S
O48 In39 2.326 . S
O48 C44 1.260 . S
C49 O40 1.240 . S
C49 O41 1.252 . S
O50 In39 2.294 . S
O50 C43 1.240 . S
O51 In39 2.326 . S
O51 C43 1.252 . S
In52 O53 2.294 . S
In52 O54 2.326 . S
In52 O58 2.266 . S
In52 O59 2.326 . S
In52 O60 2.266 . S
In52 O61 2.326 . S
In52 O63 2.294 . S
In52 O64 2.326 . S
O53 In52 2.294 . S
O53 C62 1.240 . S
O54 In52 2.326 . S
O54 C62 1.252 . S
C55 O58 1.252 . S
C55 O59 1.260 . S
C56 O63 1.240 . S
C56 O64 1.252 . S
C57 O60 1.252 . S
C57 O61 1.260 . S
O58 In52 2.266 . S
O58 C55 1.252 . S
O59 In52 2.326 . S
O59 C55 1.260 . S
O60 In52 2.266 . S
O60 C57 1.252 . S
O61 In52 2.326 . S
O61 C57 1.260 . S
C62 O53 1.240 . S
C62 O54 1.252 . S
O63 In52 2.294 . S
O63 C56 1.240 . S
O64 In52 2.326 . S
O64 C56 1.252 . S
In65 O66 2.294 . S
In65 O67 2.326 . S
In65 O71 2.266 . S
In65 O72 2.326 . S
In65 O73 2.266 . S
In65 O74 2.326 . S
In65 O76 2.294 . S
In65 O77 2.326 . S
O66 In65 2.294 . S
O66 C75 1.240 . S
O67 In65 2.326 . S
O67 C75 1.252 . S
C68 O71 1.252 . S
C68 O72 1.260 . S
C69 O76 1.240 . S
C69 O77 1.252 . S
C70 O73 1.252 . S
C70 O74 1.260 . S
O71 In65 2.266 . S
O71 C68 1.252 . S
O72 In65 2.326 . S
O72 C68 1.260 . S
O73 In65 2.266 . S
O73 C70 1.252 . S
O74 In65 2.326 . S
O74 C70 1.260 . S
C75 O66 1.240 . S
C75 O67 1.252 . S
O76 In65 2.294 . S
O76 C69 1.240 . S
O77 In65 2.326 . S
O77 C69 1.252 . S
In78 O79 2.294 . S
In78 O80 2.326 . S
In78 O84 2.266 . S
In78 O85 2.326 . S
In78 O86 2.266 . S
In78 O87 2.326 . S
In78 O89 2.294 . S
In78 O90 2.326 . S
O79 In78 2.294 . S
O79 C88 1.240 . S
O80 In78 2.326 . S
O80 C88 1.252 . S
C81 O84 1.252 . S
C81 O85 1.260 . S
C82 O89 1.240 . S
C82 O90 1.252 . S
C83 O86 1.252 . S
C83 O87 1.260 . S
O84 In78 2.266 . S
O84 C81 1.252 . S
O85 In78 2.326 . S
O85 C81 1.260 . S
O86 In78 2.266 . S
O86 C83 1.252 . S
O87 In78 2.326 . S
O87 C83 1.260 . S
C88 O79 1.240 . S
C88 O80 1.252 . S
O89 In78 2.294 . S
O89 C82 1.240 . S
O90 In78 2.326 . S
O90 C82 1.252 . S
In91 O92 2.294 . S
In91 O93 2.326 . S
In91 O97 2.266 . S
In91 O98 2.326 . S
In91 O99 2.266 . S
In91 O100 2.326 . S
In91 O102 2.294 . S
In91 O103 2.326 . S
O92 In91 2.294 . S
O92 C101 1.240 . S
O93 In91 2.326 . S
O93 C101 1.252 . S
C94 O97 1.252 . S
C94 O98 1.260 . S
C95 O102 1.240 . S
C95 O103 1.252 . S
C96 O99 1.252 . S
C96 O100 1.260 . S
O97 In91 2.266 . S
O97 C94 1.252 . S
O98 In91 2.326 . S
O98 C94 1.260 . S
O99 In91 2.266 . S
O99 C96 1.252 . S
O100 In91 2.326 . S
O100 C96 1.260 . S
C101 O92 1.240 . S
C101 O93 1.252 . S
O102 In91 2.294 . S
O102 C95 1.240 . S
O103 In91 2.326 . S
O103 C95 1.252 . S
In104 O105 2.294 . S
In104 O106 2.326 . S
In104 O110 2.266 . S
In104 O111 2.326 . S
In104 O112 2.266 . S
In104 O113 2.326 . S
In104 O115 2.294 . S
In104 O116 2.326 . S
O105 In104 2.294 . S
O105 C114 1.240 . S
O106 In104 2.326 . S
O106 C114 1.252 . S
C107 O110 1.252 . S
C107 O111 1.260 . S
C108 O115 1.240 . S
C108 O116 1.252 . S
C109 O112 1.252 . S
C109 O113 1.260 . S
O110 In104 2.266 . S
O110 C107 1.252 . S
O111 In104 2.326 . S
O111 C107 1.260 . S
O112 In104 2.266 . S
O112 C109 1.252 . S
O113 In104 2.326 . S
O113 C109 1.260 . S
C114 O105 1.240 . S
C114 O106 1.252 . S
O115 In104 2.294 . S
O115 C108 1.240 . S
O116 In104 2.326 . S
O116 C108 1.252 . S
In117 O118 2.294 . S
In117 O119 2.326 . S
In117 O123 2.266 . S
In117 O124 2.326 . S
In117 O125 2.266 . S
In117 O126 2.326 . S
In117 O128 2.294 . S
In117 O129 2.326 . S
O118 In117 2.294 . S
O118 C127 1.240 . S
O119 In117 2.326 . S
O119 C127 1.252 . S
C120 O123 1.252 . S
C120 O124 1.260 . S
C121 O128 1.240 . S
C121 O129 1.252 . S
C122 O125 1.252 . S
C122 O126 1.260 . S
O123 In117 2.266 . S
O123 C120 1.252 . S
O124 In117 2.326 . S
O124 C120 1.260 . S
O125 In117 2.266 . S
O125 C122 1.252 . S
O126 In117 2.326 . S
O126 C122 1.260 . S
C127 O118 1.240 . S
C127 O119 1.252 . S
O128 In117 2.294 . S
O128 C121 1.240 . S
O129 In117 2.326 . S
O129 C121 1.252 . S
In130 O131 2.294 . S
In130 O132 2.326 . S
In130 O136 2.266 . S
In130 O137 2.326 . S
In130 O138 2.266 . S
In130 O139 2.326 . S
In130 O141 2.294 . S
In130 O142 2.326 . S
O131 In130 2.294 . S
O131 C140 1.240 . S
O132 In130 2.326 . S
O132 C140 1.252 . S
C133 O136 1.252 . S
C133 O137 1.260 . S
C134 O141 1.240 . S
C134 O142 1.252 . S
C135 O138 1.252 . S
C135 O139 1.260 . S
O136 In130 2.266 . S
O136 C133 1.252 . S
O137 In130 2.326 . S
O137 C133 1.260 . S
O138 In130 2.266 . S
O138 C135 1.252 . S
O139 In130 2.326 . S
O139 C135 1.260 . S
C140 O131 1.240 . S
C140 O132 1.252 . S
O141 In130 2.294 . S
O141 C134 1.240 . S
O142 In130 2.326 . S
O142 C134 1.252 . S
In143 O144 2.294 . S
In143 O145 2.326 . S
In143 O149 2.266 . S
In143 O150 2.326 . S
In143 O151 2.266 . S
In143 O152 2.326 . S
In143 O154 2.294 . S
In143 O155 2.326 . S
O144 In143 2.294 . S
O144 C153 1.240 . S
O145 In143 2.326 . S
O145 C153 1.252 . S
C146 O149 1.252 . S
C146 O150 1.260 . S
C147 O154 1.240 . S
C147 O155 1.252 . S
C148 O151 1.252 . S
C148 O152 1.260 . S
O149 In143 2.266 . S
O149 C146 1.252 . S
O150 In143 2.326 . S
O150 C146 1.260 . S
O151 In143 2.266 . S
O151 C148 1.252 . S
O152 In143 2.326 . S
O152 C148 1.260 . S
C153 O144 1.240 . S
C153 O145 1.252 . S
O154 In143 2.294 . S
O154 C147 1.240 . S
O155 In143 2.326 . S
O155 C147 1.252 . S
In156 O157 2.294 . S
In156 O158 2.326 . S
In156 O162 2.266 . S
In156 O163 2.326 . S
In156 O164 2.266 . S
In156 O165 2.326 . S
In156 O167 2.294 . S
In156 O168 2.326 . S
O157 In156 2.294 . S
O157 C166 1.240 . S
O158 In156 2.326 . S
O158 C166 1.252 . S
C159 O162 1.252 . S
C159 O163 1.260 . S
C160 O167 1.240 . S
C160 O168 1.252 . S
C161 O164 1.252 . S
C161 O165 1.260 . S
O162 In156 2.266 . S
O162 C159 1.252 . S
O163 In156 2.326 . S
O163 C159 1.260 . S
O164 In156 2.266 . S
O164 C161 1.252 . S
O165 In156 2.326 . S
O165 C161 1.260 . S
C166 O157 1.240 . S
C166 O158 1.252 . S
O167 In156 2.294 . S
O167 C160 1.240 . S
O168 In156 2.326 . S
O168 C160 1.252 . S
In169 O170 2.294 . S
In169 O171 2.326 . S
In169 O175 2.266 . S
In169 O176 2.326 . S
In169 O177 2.266 . S
In169 O178 2.326 . S
In169 O180 2.294 . S
In169 O181 2.326 . S
O170 In169 2.294 . S
O170 C179 1.240 . S
O171 In169 2.326 . S
O171 C179 1.252 . S
C172 O175 1.252 . S
C172 O176 1.260 . S
C173 O180 1.240 . S
C173 O181 1.252 . S
C174 O177 1.252 . S
C174 O178 1.260 . S
O175 In169 2.266 . S
O175 C172 1.252 . S
O176 In169 2.326 . S
O176 C172 1.260 . S
O177 In169 2.266 . S
O177 C174 1.252 . S
O178 In169 2.326 . S
O178 C174 1.260 . S
C179 O170 1.240 . S
C179 O171 1.252 . S
O180 In169 2.294 . S
O180 C173 1.240 . S
O181 In169 2.326 . S
O181 C173 1.252 . S
In182 O183 2.294 . S
In182 O184 2.326 . S
In182 O188 2.266 . S
In182 O189 2.326 . S
In182 O190 2.266 . S
In182 O191 2.326 . S
In182 O193 2.294 . S
In182 O194 2.326 . S
O183 In182 2.294 . S
O183 C192 1.240 . S
O184 In182 2.326 . S
O184 C192 1.252 . S
C185 O188 1.252 . S
C185 O189 1.260 . S
C186 O193 1.240 . S
C186 O194 1.252 . S
C187 O190 1.252 . S
C187 O191 1.260 . S
O188 In182 2.266 . S
O188 C185 1.252 . S
O189 In182 2.326 . S
O189 C185 1.260 . S
O190 In182 2.266 . S
O190 C187 1.252 . S
O191 In182 2.326 . S
O191 C187 1.260 . S
C192 O183 1.240 . S
C192 O184 1.252 . S
O193 In182 2.294 . S
O193 C186 1.240 . S
O194 In182 2.326 . S
O194 C186 1.252 . S
In195 O196 2.294 . S
In195 O197 2.326 . S
In195 O201 2.266 . S
In195 O202 2.326 . S
In195 O203 2.266 . S
In195 O204 2.326 . S
In195 O206 2.294 . S
In195 O207 2.326 . S
O196 In195 2.294 . S
O196 C205 1.240 . S
O197 In195 2.326 . S
O197 C205 1.252 . S
C198 O201 1.252 . S
C198 O202 1.260 . S
C199 O206 1.240 . S
C199 O207 1.252 . S
C200 O203 1.252 . S
C200 O204 1.260 . S
O201 In195 2.266 . S
O201 C198 1.252 . S
O202 In195 2.326 . S
O202 C198 1.260 . S
O203 In195 2.266 . S
O203 C200 1.252 . S
O204 In195 2.326 . S
O204 C200 1.260 . S
C205 O196 1.240 . S
C205 O197 1.252 . S
O206 In195 2.294 . S
O206 C199 1.240 . S
O207 In195 2.326 . S
O207 C199 1.252 . S
C208 C209 1.387 1_655 S
C208 H212 0.950 . S
C208 C217 1.390 . S
C209 C208 1.387 1_455 S
C209 C211 1.387 1_455 S
H210 C217 0.950 . S
C211 C209 1.387 1_655 S
C211 C213 1.390 . S
C211 H215 0.950 . S
H212 C208 0.950 . S
C213 C211 1.390 . S
C213 C214 1.387 . S
C213 H216 0.950 . S
C214 C213 1.387 . S
C214 C217 1.387 . S
H215 C211 0.950 . S
H216 C213 0.950 . S
C217 C208 1.390 . S
C217 H210 0.950 . S
C217 C214 1.387 . S
C218 C219 1.387 1_455 S
C218 H222 0.950 . S
C218 C227 1.390 . S
C219 C218 1.387 1_655 S
C219 C221 1.387 1_655 S
H220 C227 0.950 . S
C221 C219 1.387 1_455 S
C221 C223 1.390 . S
C221 H225 0.950 . S
H222 C218 0.950 . S
C223 C221 1.390 . S
C223 C224 1.387 . S
C223 H226 0.950 . S
C224 C223 1.387 . S
C224 C227 1.387 . S
H225 C221 0.950 . S
H226 C223 0.950 . S
C227 C218 1.390 . S
C227 H220 0.950 . S
C227 C224 1.387 . S
C228 C229 1.387 . S
C228 H232 0.950 . S
C228 C237 1.390 . S
C229 C228 1.387 . S
C229 C231 1.387 . S
H230 C237 0.950 . S
C231 C229 1.387 . S
C231 C233 1.390 . S
C231 H235 0.950 . S
H232 C228 0.950 . S
C233 C231 1.390 . S
C233 C234 1.387 1_655 S
C233 H236 0.950 . S
C234 C233 1.387 1_455 S
C234 C237 1.387 1_455 S
H235 C231 0.950 . S
H236 C233 0.950 . S
C237 C228 1.390 . S
C237 H230 0.950 . S
C237 C234 1.387 1_655 S
C238 C239 1.387 . S
C238 H242 0.950 . S
C238 C247 1.390 . S
C239 C238 1.387 . S
C239 C241 1.387 . S
H240 C247 0.950 . S
C241 C239 1.387 . S
C241 C243 1.390 . S
C241 H245 0.950 . S
H242 C238 0.950 . S
C243 C241 1.390 . S
C243 C244 1.387 1_455 S
C243 H246 0.950 . S
C244 C243 1.387 1_655 S
C244 C247 1.387 1_655 S
H245 C241 0.950 . S
H246 C243 0.950 . S
C247 C238 1.390 . S
C247 H240 0.950 . S
C247 C244 1.387 1_455 S
C248 C249 1.387 . S
C248 H252 0.950 . S
C248 C257 1.390 . S
C249 C248 1.387 . S
C249 C251 1.387 . S
H250 C257 0.950 . S
C251 C249 1.387 . S
C251 C253 1.390 . S
C251 H255 0.950 . S
H252 C248 0.950 . S
C253 C251 1.390 . S
C253 C254 1.387 . S
C253 H256 0.950 . S
C254 C253 1.387 . S
C254 C257 1.387 . S
H255 C251 0.950 . S
H256 C253 0.950 . S
C257 C248 1.390 . S
C257 H250 0.950 . S
C257 C254 1.387 . S
C258 C259 1.387 . S
C258 H262 0.950 . S
C258 C267 1.390 . S
C259 C258 1.387 . S
C259 C261 1.387 . S
H260 C267 0.950 . S
C261 C259 1.387 . S
C261 C263 1.390 . S
C261 H265 0.950 . S
H262 C258 0.950 . S
C263 C261 1.390 . S
C263 C264 1.387 . S
C263 H266 0.950 . S
C264 C263 1.387 . S
C264 C267 1.387 . S
H265 C261 0.950 . S
H266 C263 0.950 . S
C267 C258 1.390 . S
C267 H260 0.950 . S
C267 C264 1.387 . S
C268 C269 1.387 . S
C268 H272 0.950 . S
C268 C277 1.390 . S
C269 C268 1.387 . S
C269 C271 1.387 . S
H270 C277 0.950 . S
C271 C269 1.387 . S
C271 C273 1.390 . S
C271 H275 0.950 . S
H272 C268 0.950 . S
C273 C271 1.390 . S
C273 C274 1.387 . S
C273 H276 0.950 . S
C274 C273 1.387 . S
C274 C277 1.387 . S
H275 C271 0.950 . S
H276 C273 0.950 . S
C277 C268 1.390 . S
C277 H270 0.950 . S
C277 C274 1.387 . S
C278 C279 1.387 . S
C278 H282 0.950 . S
C278 C287 1.390 . S
C279 C278 1.387 . S
C279 C281 1.387 . S
H280 C287 0.950 . S
C281 C279 1.387 . S
C281 C283 1.390 . S
C281 H285 0.950 . S
H282 C278 0.950 . S
C283 C281 1.390 . S
C283 C284 1.387 . S
C283 H286 0.950 . S
C284 C283 1.387 . S
C284 C287 1.387 . S
H285 C281 0.950 . S
H286 C283 0.950 . S
C287 C278 1.390 . S
C287 H280 0.950 . S
C287 C284 1.387 . S
C288 C289 1.387 . S
C288 H292 0.950 . S
C288 C297 1.390 . S
C289 C288 1.387 . S
C289 C291 1.387 . S
H290 C297 0.950 . S
C291 C289 1.387 . S
C291 C293 1.390 . S
C291 H295 0.950 . S
H292 C288 0.950 . S
C293 C291 1.390 . S
C293 C294 1.387 . S
C293 H296 0.950 . S
C294 C293 1.387 . S
C294 C297 1.387 . S
H295 C291 0.950 . S
H296 C293 0.950 . S
C297 C288 1.390 . S
C297 H290 0.950 . S
C297 C294 1.387 . S
C298 C299 1.387 . S
C298 H302 0.950 . S
C298 C307 1.390 . S
C299 C298 1.387 . S
C299 C301 1.387 . S
H300 C307 0.950 . S
C301 C299 1.387 . S
C301 C303 1.390 . S
C301 H305 0.950 . S
H302 C298 0.950 . S
C303 C301 1.390 . S
C303 C304 1.387 . S
C303 H306 0.950 . S
C304 C303 1.387 . S
C304 C307 1.387 . S
H305 C301 0.950 . S
H306 C303 0.950 . S
C307 C298 1.390 . S
C307 H300 0.950 . S
C307 C304 1.387 . S
C308 C309 1.387 . S
C308 H312 0.950 . S
C308 C317 1.390 . S
C309 C308 1.387 . S
C309 C311 1.387 . S
H310 C317 0.950 . S
C311 C309 1.387 . S
C311 C313 1.390 . S
C311 H315 0.950 . S
H312 C308 0.950 . S
C313 C311 1.390 . S
C313 C314 1.387 . S
C313 H316 0.950 . S
C314 C313 1.387 . S
C314 C317 1.387 . S
H315 C311 0.950 . S
H316 C313 0.950 . S
C317 C308 1.390 . S
C317 H310 0.950 . S
C317 C314 1.387 . S
C318 C319 1.387 . S
C318 H322 0.950 . S
C318 C327 1.390 . S
C319 C318 1.387 . S
C319 C321 1.387 . S
H320 C327 0.950 . S
C321 C319 1.387 . S
C321 C323 1.390 . S
C321 H325 0.950 . S
H322 C318 0.950 . S
C323 C321 1.390 . S
C323 C324 1.387 . S
C323 H326 0.950 . S
C324 C323 1.387 . S
C324 C327 1.387 . S
H325 C321 0.950 . S
H326 C323 0.950 . S
C327 C318 1.390 . S
C327 H320 0.950 . S
C327 C324 1.387 . S
C328 C329 1.387 . S
C328 H332 0.950 . S
C328 C337 1.390 . S
C329 C328 1.387 . S
C329 C331 1.387 . S
H330 C337 0.950 . S
C331 C329 1.387 . S
C331 C333 1.390 . S
C331 H335 0.950 . S
H332 C328 0.950 . S
C333 C331 1.390 . S
C333 C334 1.387 . S
C333 H336 0.950 . S
C334 C333 1.387 . S
C334 C337 1.387 . S
H335 C331 0.950 . S
H336 C333 0.950 . S
C337 C328 1.390 . S
C337 H330 0.950 . S
C337 C334 1.387 . S
C338 C339 1.387 . S
C338 H342 0.950 . S
C338 C347 1.390 . S
C339 C338 1.387 . S
C339 C341 1.387 . S
H340 C347 0.950 . S
C341 C339 1.387 . S
C341 C343 1.390 . S
C341 H345 0.950 . S
H342 C338 0.950 . S
C343 C341 1.390 . S
C343 C344 1.387 . S
C343 H346 0.950 . S
C344 C343 1.387 . S
C344 C347 1.387 . S
H345 C341 0.950 . S
H346 C343 0.950 . S
C347 C338 1.390 . S
C347 H340 0.950 . S
C347 C344 1.387 . S
C348 C349 1.387 . S
C348 H352 0.950 . S
C348 C357 1.390 . S
C349 C348 1.387 . S
C349 C351 1.387 . S
H350 C357 0.950 . S
C351 C349 1.387 . S
C351 C353 1.390 . S
C351 H355 0.950 . S
H352 C348 0.950 . S
C353 C351 1.390 . S
C353 C354 1.387 . S
C353 H356 0.950 . S
C354 C353 1.387 . S
C354 C357 1.387 . S
H355 C351 0.950 . S
H356 C353 0.950 . S
C357 C348 1.390 . S
C357 H350 0.950 . S
C357 C354 1.387 . S
C358 C359 1.387 . S
C358 H362 0.950 . S
C358 C367 1.390 . S
C359 C358 1.387 . S
C359 C361 1.387 . S
H360 C367 0.950 . S
C361 C359 1.387 . S
C361 C363 1.390 . S
C361 H365 0.950 . S
H362 C358 0.950 . S
C363 C361 1.390 . S
C363 C364 1.387 . S
C363 H366 0.950 . S
C364 C363 1.387 . S
C364 C367 1.387 . S
H365 C361 0.950 . S
H366 C363 0.950 . S
C367 C358 1.390 . S
C367 H360 0.950 . S
C367 C364 1.387 . S
C368 C369 1.387 . S
C368 H372 0.950 . S
C368 C377 1.390 . S
C369 C368 1.387 . S
C369 C371 1.387 1_556 S
H370 C377 0.950 . S
C371 C369 1.387 1_554 S
C371 C373 1.390 . S
C371 H375 0.950 . S
H372 C368 0.950 . S
C373 C371 1.390 . S
C373 C374 1.387 . S
C373 H376 0.950 . S
C374 C373 1.387 . S
C374 C377 1.387 1_554 S
H375 C371 0.950 . S
H376 C373 0.950 . S
C377 C368 1.390 . S
C377 H370 0.950 . S
C377 C374 1.387 1_556 S
C378 C379 1.387 . S
C378 H382 0.950 . S
C378 C387 1.390 . S
C379 C378 1.387 . S
C379 C381 1.387 . S
H380 C387 0.950 . S
C381 C379 1.387 . S
C381 C383 1.390 . S
C381 H385 0.950 . S
H382 C378 0.950 . S
C383 C381 1.390 . S
C383 C384 1.387 . S
C383 H386 0.950 . S
C384 C383 1.387 . S
C384 C387 1.387 . S
H385 C381 0.950 . S
H386 C383 0.950 . S
C387 C378 1.390 . S
C387 H380 0.950 . S
C387 C384 1.387 . S
C388 C389 1.387 . S
C388 H392 0.950 . S
C388 C397 1.390 1_554 S
C389 C388 1.387 . S
C389 C391 1.387 . S
H390 C397 0.950 . S
C391 C389 1.387 . S
C391 C393 1.390 1_554 S
C391 H395 0.950 . S
H392 C388 0.950 . S
C393 C391 1.390 1_556 S
C393 C394 1.387 . S
C393 H396 0.950 . S
C394 C393 1.387 . S
C394 C397 1.387 . S
H395 C391 0.950 . S
H396 C393 0.950 . S
C397 C388 1.390 1_556 S
C397 H390 0.950 . S
C397 C394 1.387 . S
C398 C399 1.387 . S
C398 H402 0.950 . S
C398 C407 1.390 . S
C399 C398 1.387 . S
C399 C401 1.387 . S
H400 C407 0.950 . S
C401 C399 1.387 . S
C401 C403 1.390 . S
C401 H405 0.950 . S
H402 C398 0.950 . S
C403 C401 1.390 . S
C403 C404 1.387 . S
C403 H406 0.950 . S
C404 C403 1.387 . S
C404 C407 1.387 . S
H405 C401 0.950 . S
H406 C403 0.950 . S
C407 C398 1.390 . S
C407 H400 0.950 . S
C407 C404 1.387 . S
C408 C409 1.387 . S
C408 H412 0.950 . S
C408 C417 1.390 1_554 S
C409 C408 1.387 . S
C409 C411 1.398 . S
H410 C417 0.950 . S
C411 C409 1.398 . S
C411 C413 1.379 1_554 S
C411 H415 0.951 . S
H412 C408 0.950 . S
C413 C411 1.379 1_556 S
C413 C414 1.387 . S
C413 H416 0.950 . S
C414 C413 1.387 . S
C414 C417 1.387 . S
H415 C411 0.951 . S
H416 C413 0.950 . S
C417 C408 1.390 1_556 S
C417 H410 0.950 . S
C417 C414 1.387 . S
C418 C419 1.387 . S
C418 H422 0.950 . S
C418 C427 1.390 . S
C419 C418 1.387 . S
C419 C421 1.387 . S
H420 C427 0.950 . S
C421 C419 1.387 . S
C421 C423 1.390 . S
C421 H425 0.950 . S
H422 C418 0.950 . S
C423 C421 1.390 . S
C423 C424 1.387 . S
C423 H426 0.950 . S
C424 C423 1.387 . S
C424 C427 1.387 . S
H425 C421 0.950 . S
H426 C423 0.950 . S
C427 C418 1.390 . S
C427 H420 0.950 . S
C427 C424 1.387 . S
C428 C429 1.387 . S
C428 H432 0.950 . S
C428 C437 1.390 . S
C429 C428 1.387 . S
C429 C431 1.387 1_554 S
H430 C437 0.950 . S
C431 C429 1.387 1_556 S
C431 C433 1.390 . S
C431 H435 0.950 . S
H432 C428 0.950 . S
C433 C431 1.390 . S
C433 C434 1.387 . S
C433 H436 0.950 . S
C434 C433 1.387 . S
C434 C437 1.387 1_556 S
H435 C431 0.950 . S
H436 C433 0.950 . S
C437 C428 1.390 . S
C437 H430 0.950 . S
C437 C434 1.387 1_554 S
C438 C439 1.387 . S
C438 H442 0.950 . S
C438 C447 1.390 . S
C439 C438 1.387 . S
C439 C441 1.387 . S
H440 C447 0.950 . S
C441 C439 1.387 . S
C441 C443 1.390 . S
C441 H445 0.950 . S
H442 C438 0.950 . S
C443 C441 1.390 . S
C443 C444 1.387 . S
C443 H446 0.950 . S
C444 C443 1.387 . S
C444 C447 1.387 . S
H445 C441 0.950 . S
H446 C443 0.950 . S
C447 C438 1.390 . S
C447 H440 0.950 . S
C447 C444 1.387 . S
C448 C449 1.387 . S
C448 H452 0.950 . S
C448 C457 1.390 1_556 S
C449 C448 1.387 . S
C449 C451 1.387 . S
H450 C457 0.950 . S
C451 C449 1.387 . S
C451 C453 1.390 1_556 S
C451 H455 0.950 . S
H452 C448 0.950 . S
C453 C451 1.390 1_554 S
C453 C454 1.387 . S
C453 H456 0.950 . S
C454 C453 1.387 . S
C454 C457 1.387 . S
H455 C451 0.950 . S
H456 C453 0.950 . S
C457 C448 1.390 1_554 S
C457 H450 0.950 . S
C457 C454 1.387 . S
C458 C459 1.387 . S
C458 H462 0.950 . S
C458 C467 1.390 . S
C459 C458 1.387 . S
C459 C461 1.387 . S
H460 C467 0.950 . S
C461 C459 1.387 . S
C461 C463 1.390 . S
C461 H465 0.950 . S
H462 C458 0.950 . S
C463 C461 1.390 . S
C463 C464 1.387 . S
C463 H466 0.950 . S
C464 C463 1.387 . S
C464 C467 1.387 . S
H465 C461 0.950 . S
H466 C463 0.950 . S
C467 C458 1.390 . S
C467 H460 0.950 . S
C467 C464 1.387 . S
C468 C469 1.387 . S
C468 H472 0.950 . S
C468 C477 1.390 1_554 S
C469 C468 1.387 . S
C469 C471 1.387 . S
H470 C477 0.950 . S
C471 C469 1.387 . S
C471 C473 1.390 1_554 S
C471 H475 0.950 . S
H472 C468 0.950 . S
C473 C471 1.390 1_556 S
C473 C474 1.387 . S
C473 H476 0.950 . S
C474 C473 1.387 . S
C474 C477 1.387 . S
H475 C471 0.950 . S
H476 C473 0.950 . S
C477 C468 1.390 1_556 S
C477 H470 0.950 . S
C477 C474 1.387 . S
C478 C479 1.387 . S
C478 H482 0.950 . S
C478 C487 1.390 . S
C479 C478 1.387 . S
C479 C481 1.387 . S
H480 C487 0.950 . S
C481 C479 1.387 . S
C481 C483 1.390 . S
C481 H485 0.950 . S
H482 C478 0.950 . S
C483 C481 1.390 . S
C483 C484 1.387 . S
C483 H486 0.950 . S
C484 C483 1.387 . S
C484 C487 1.387 . S
H485 C481 0.950 . S
H486 C483 0.950 . S
C487 C478 1.390 . S
C487 H480 0.950 . S
C487 C484 1.387 . S
C488 C489 1.387 . S
C488 H492 0.950 . S
C488 C497 1.390 1_546 S
C489 C488 1.387 . S
C489 C491 1.387 . S
H490 C497 0.950 . S
C491 C489 1.387 . S
C491 C493 1.390 1_546 S
C491 H495 0.950 . S
H492 C488 0.950 . S
C493 C491 1.390 1_564 S
C493 C494 1.387 . S
C493 H496 0.950 . S
C494 C493 1.387 . S
C494 C497 1.387 . S
H495 C491 0.950 . S
H496 C493 0.950 . S
C497 C488 1.390 1_564 S
C497 H490 0.950 . S
C497 C494 1.387 . S
C498 C499 1.387 . S
C498 H502 0.950 . S
C498 C507 1.390 1_565 S
C499 C498 1.387 . S
C499 C501 1.387 . S
H500 C507 0.950 . S
C501 C499 1.387 . S
C501 C503 1.390 1_565 S
C501 H505 0.950 . S
H502 C498 0.950 . S
C503 C501 1.390 1_545 S
C503 C504 1.387 . S
C503 H506 0.950 . S
C504 C503 1.387 . S
C504 C507 1.387 . S
H505 C501 0.950 . S
H506 C503 0.950 . S
C507 C498 1.390 1_545 S
C507 H500 0.950 . S
C507 C504 1.387 . S
C508 C509 1.387 . S
C508 H512 0.950 . S
C508 C517 1.390 1_564 S
C509 C508 1.387 . S
C509 C511 1.387 . S
H510 C517 0.950 . S
C511 C509 1.387 . S
C511 C513 1.390 1_564 S
C511 H515 0.950 . S
H512 C508 0.950 . S
C513 C511 1.390 1_546 S
C513 C514 1.387 . S
C513 H516 0.950 . S
C514 C513 1.387 . S
C514 C517 1.387 . S
H515 C511 0.950 . S
H516 C513 0.950 . S
C517 C508 1.390 1_546 S
C517 H510 0.950 . S
C517 C514 1.387 . S
C518 C519 1.387 . S
C518 H522 0.950 . S
C518 C527 1.390 1_545 S
C519 C518 1.387 . S
C519 C521 1.387 . S
H520 C527 0.950 . S
C521 C519 1.387 . S
C521 C523 1.390 1_545 S
C521 H525 0.950 . S
H522 C518 0.950 . S
C523 C521 1.390 1_565 S
C523 C524 1.387 . S
C523 H526 0.950 . S
C524 C523 1.387 . S
C524 C527 1.387 . S
H525 C521 0.950 . S
H526 C523 0.950 . S
C527 C518 1.390 1_565 S
C527 H520 0.950 . S
C527 C524 1.387 . S
C209 C3 1.480 . S
C214 C83 1.477 . S
C219 C16 1.480 . S
C224 C96 1.477 . S
C229 C55 1.478 . S
C234 C31 1.479 . S
C239 C70 1.477 . S
C244 C44 1.480 . S
C249 C187 1.477 . S
C254 C109 1.480 . S
C259 C200 1.477 . S
C264 C120 1.480 . S
C269 C135 1.479 . S
C274 C161 1.478 . S
C279 C146 1.480 . S
C284 C174 1.477 . S
C289 C4 1.579 . S
C294 C68 1.581 . S
C299 C17 1.579 . S
C304 C57 1.582 . S
C309 C36 1.579 . S
C314 C94 1.581 . S
C319 C81 1.581 . S
C324 C49 1.579 . S
C329 C172 1.581 . S
C334 C114 1.579 . S
C339 C159 1.581 . S
C344 C121 1.578 . S
C349 C140 1.579 . S
C354 C198 1.581 . S
C359 C185 1.581 . S
C364 C147 1.579 . S
C369 C160 1.508 . S
C374 C10 1.511 . S
C379 C23 1.511 . S
C384 C173 1.508 . S
C389 C186 1.506 . S
C394 C30 1.510 . S
C399 C199 1.508 . S
C404 C43 1.511 . S
C409 C108 1.511 . S
C414 C62 1.508 . S
C419 C127 1.511 . S
C424 C69 1.508 . S
C429 C82 1.507 . S
C434 C134 1.511 . S
C439 C95 1.508 . S
C444 C153 1.511 . S
C449 C29 1.701 . S
C454 C5 1.701 . S
C459 C18 1.701 . S
C464 C42 1.701 . S
C469 C88 1.438 . S
C474 C56 1.438 . S
C479 C75 1.437 . S
C484 C101 1.437 . S
C489 C133 1.701 . S
C494 C107 1.701 . S
C499 C148 1.701 . S
C504 C122 1.701 . S
C509 C192 1.438 . S
C514 C166 1.438 . S
C519 C205 1.438 . S
C524 C179 1.438 . S
