# Generated by pormake.
# Topology sma, (6)-cn, num edge types: 1
# Building blocks:
#     Node 0, Type 0, BuildingBlock: BETFEN_clean_sbu_0, # of connection points: 6
#     Node 1, Type 0, BuildingBlock: BETFEN_clean_sbu_0, # of connection points: 6
#     Node 2, Type 0, BuildingBlock: BETFEN_clean_sbu_0, # of connection points: 6
#     Edge 3, Type (0, 0), BuildingBlock: FUNLAD_clean_linker_0, # of connection points: 2
#     Edge 4, Type (0, 0), BuildingBlock: FUNLAD_clean_linker_0, # of connection points: 2
#     Edge 5, Type (0, 0), BuildingBlock: FUNLAD_clean_linker_0, # of connection points: 2
#     Edge 6, Type (0, 0), BuildingBlock: FUNLAD_clean_linker_0, # of connection points: 2
#     Edge 7, Type (0, 0), BuildingBlock: FUNLAD_clean_linker_0, # of connection points: 2
#     Edge 8, Type (0, 0), BuildingBlock: FUNLAD_clean_linker_0, # of connection points: 2
#     Edge 9, Type (0, 0), BuildingBlock: FUNLAD_clean_linker_0, # of connection points: 2
#     Edge 10, Type (0, 0), BuildingBlock: FUNLAD_clean_linker_0, # of connection points: 2
#     Edge 11, Type (0, 0), BuildingBlock: FUNLAD_clean_linker_0, # of connection points: 2
# Relax obj value: 0.125
# Max RMSD: 0.249
# Mean RMSD: 0.202
data_MOF--net-sma--node1-BETFEN_clean_sbu_0--edge1-FUNLAD_clean_linker_0
_symmetry_space_group_name_H-M    P1
_symmetry_Int_Tables_number       1
_symmetry_cell_setting            triclinic
loop_
_symmetry_equiv_pos_as_xyz
'x, y, z'
_cell_length_a     35.697268
_cell_length_b     45.270378
_cell_length_c     16.223938
_cell_angle_alpha  89.712923
_cell_angle_beta   95.704242
_cell_angle_gamma 99.876837
loop_
_atom_site_label
_atom_site_type_symbol
_atom_site_fract_x
_atom_site_fract_y
_atom_site_fract_z
_atom_type_partial_charge
Pr0 Pr 0.07689 0.49923 0.05744 0.0
Pr1 Pr 0.09608 0.56866 0.01842 0.0
C2 C 0.06826 0.44444 0.12604 0.0
C3 C 1.03799 0.41943 0.14502 0.0
C4 C 1.00911 0.4066 0.08403 0.0
C5 C 0.98201 0.38189 0.1025 0.0
C6 C 0.98305 0.36963 0.18241 0.0
C7 C 1.01148 0.38297 0.24372 0.0
C8 C 1.03871 0.40754 0.22508 0.0
C9 C 0.06297 0.51374 0.8936 0.0
C10 C 1.00513 0.53462 0.01652 0.0
C11 C 0.1066 0.62752 -0.01773 0.0
C12 C 0.13329 0.6541 0.01713 0.0
C13 C 0.12181 0.68222 0.01657 0.0
C14 C 0.14609 0.70716 0.0542 0.0
C15 C 0.18241 0.70445 0.09303 0.0
C16 C 0.19387 0.6762 0.09276 0.0
C17 C 0.16951 0.65128 0.05554 0.0
C18 C 0.10782 0.55264 0.18309 0.0
C19 C 0.1654 0.52993 0.01569 0.0
O20 O 0.0717 0.4692 0.16964 0.0
O21 O 0.0737 0.4491 0.04803 0.0
O22 O 0.09103 0.52579 0.94214 0.0
O23 O 1.04257 0.4909 0.92641 0.0
O24 O 1.02946 0.5562 -0.01485 0.0
O25 O 1.01673 0.51242 0.05973 0.0
O26 O 0.12137 0.6079 0.9426 0.0
O27 O 0.08131 0.61508 0.03068 0.0
O28 O 0.07989 0.54201 0.13279 0.0
O29 O 0.13085 0.57345 0.14954 0.0
O30 O 0.14424 0.50843 0.05501 0.0
O31 O 0.15204 0.55383 -0.01296 0.0
H32 H 1.00764 0.41544 0.02185 0.0
H33 H 0.9602 0.37236 0.0542 0.0
H34 H 1.01333 0.3739 0.30561 0.0
H35 H 0.06075 0.41701 0.27305 0.0
H36 H 0.09387 0.68482 -0.01219 0.0
H37 H 0.13649 0.7286 0.05261 0.0
H38 H 0.22134 0.67316 0.1231 0.0
H39 H 0.17878 0.62969 0.05789 0.0
Pr40 Pr 0.62132 0.04708 0.52177 0.0
Pr41 Pr 0.53383 1.023 0.54411 0.0
C42 C 0.68968 0.06497 0.46435 0.0
C43 C 0.71261 0.09341 0.44043 0.0
C44 C 0.71133 0.12048 0.48111 0.0
C45 C 0.73372 0.14721 0.45861 0.0
C46 C 0.75761 0.14751 0.3944 0.0
C47 C 0.75824 0.12033 0.35304 0.0
C48 C 0.73602 0.09358 0.37599 0.0
C49 C 0.60202 0.04663 0.68184 0.0
C50 C 0.56714 0.09658 0.5549 0.0
C51 C 0.46036 1.00353 0.56991 0.0
C52 C 0.43316 0.97712 0.53612 0.0
C53 C 0.44591 0.95577 0.48837 0.0
C54 C 0.42019 0.93136 0.4525 0.0
C55 C 0.38105 0.92772 0.46353 0.0
C56 C 0.36846 0.94909 0.5122 0.0
C57 C 0.39431 0.97359 0.54809 0.0
C58 C 0.55403 1.02769 0.38314 0.0
C59 C 0.59134 0.97306 0.54526 0.0
O60 O 0.65859 0.05491 0.41569 0.0
O61 O 0.68526 0.06163 0.54327 0.0
O62 O 0.58944 1.02649 0.62816 0.0
O63 O 0.62862 0.06694 0.65613 0.0
O64 O 0.54231 0.07429 0.58215 0.0
O65 O 0.59645 0.09159 0.51618 0.0
O66 O 0.48911 0.99789 0.62057 0.0
O67 O 0.47068 1.02413 0.5159 0.0
O68 O 0.56558 0.04634 0.44054 0.0
O69 O 0.5301 1.00521 0.40721 0.0
O70 O 0.61806 0.99419 0.51933 0.0
O71 O 0.55824 0.97893 0.56429 0.0
H72 H 0.69322 0.12093 0.53072 0.0
H73 H 0.73276 0.16754 0.49261 0.0
H74 H 0.77568 0.11972 0.30236 0.0
H75 H 0.73714 0.07297 0.34335 0.0
H76 H 0.47579 0.95822 0.47788 0.0
H77 H 0.4309 0.9157 0.41451 0.0
H78 H 0.33865 0.94685 0.52288 0.0
H79 H 0.38392 0.98986 0.58462 0.0
Pr80 Pr 0.57318 0.51306 0.79922 0.0
Pr81 Pr 0.58794 0.57976 0.86771 0.0
C82 C 0.5546 0.46068 0.71382 0.0
C83 C 0.56196 0.42945 0.70754 0.0
C84 C 0.53991 0.40606 0.74797 0.0
C85 C 0.5438 0.3762 0.73592 0.0
C86 C 0.56971 0.36884 0.68278 0.0
C87 C 0.5923 0.39226 0.64346 0.0
C88 C 0.58834 0.42219 0.65539 0.0
C89 C 0.59207 0.5184 -0.03129 0.0
C90 C 0.66156 0.54737 0.85727 0.0
C91 C 0.58875 0.63531 0.92758 0.0
C92 C 0.60216 0.66671 0.9059 0.0
C93 C 0.62594 0.67398 0.84221 0.0
C94 C 0.63368 0.70356 0.81415 0.0
C95 C 0.61755 0.72634 0.84891 0.0
C96 C 0.59457 0.71887 0.91429 0.0
C97 C 0.58703 0.68941 0.94239 0.0
C98 C 0.5968 0.57308 0.70101 0.0
C99 C 0.49904 0.54216 0.84856 0.0
O100 O 0.58029 0.48293 0.69209 0.0
O101 O 0.53712 0.46731 0.77673 0.0
O102 O 0.57117 0.53385 0.92662 0.0
O103 O 0.6012 0.4973 0.92477 0.0
O104 O 0.64684 0.56567 0.90311 0.0
O105 O 0.64 0.52857 0.80198 0.0
O106 O 0.61439 0.6189 0.95384 0.0
O107 O 0.56113 0.62099 0.87625 0.0
O108 O 0.57055 0.55835 0.73815 0.0
O109 O 0.6181 0.59338 0.74856 0.0
O110 O 0.50996 0.52108 0.80516 0.0
O111 O 0.52373 0.56442 0.8847 0.0
H112 H 0.51897 0.41072 0.78784 0.0
H113 H 0.5263 0.35883 0.76805 0.0
H114 H 0.61223 0.38742 0.60134 0.0
H115 H 0.60533 0.43957 0.62221 0.0
H116 H 0.63754 0.65665 0.81258 0.0
H117 H 0.65182 0.70847 0.76441 0.0
H118 H 0.58095 0.7355 0.94167 0.0
H119 H 0.56809 0.68414 -0.00937 0.0
C120 C 0.22399 0.54708 0.94445 0.0
C121 C 0.20429 0.52649 -0.00301 0.0
C122 C 0.25991 0.54381 0.92306 0.0
C123 C 0.27764 0.52012 0.95484 0.0
C124 C 0.25779 0.49918 0.0063 0.0
C125 C 0.22147 0.50234 0.02738 0.0
C126 C 0.31655 0.51685 0.9344 0.0
C127 C 0.34251 0.54073 0.91651 0.0
C128 C 0.38211 0.53954 0.89753 0.0
C129 C 0.409 0.56604 0.90781 0.0
C130 C 0.44653 0.56673 0.89046 0.0
C131 C 0.45828 0.54095 0.86132 0.0
H132 H 0.37326 0.493 0.85643 0.0
C133 C 0.43128 0.51442 0.84889 0.0
C134 C 0.39345 0.51367 0.8671 0.0
H135 H 0.43949 0.4942 0.82647 0.0
H136 H 0.21147 0.56565 0.91838 0.0
H137 H 0.27331 0.55974 0.8804 0.0
H138 H 0.27056 0.48052 0.03092 0.0
H139 H 0.20692 0.48589 0.06728 0.0
H140 H 0.32445 0.49473 0.93863 0.0
H141 H 0.33528 0.56299 0.92048 0.0
H142 H 0.40106 0.58639 0.93028 0.0
H143 H 0.4664 0.58765 0.90022 0.0
C144 C 0.81909 0.17586 0.34875 0.0
C145 C 0.78202 0.17593 0.37126 0.0
C146 C 0.84215 0.2025 0.32783 0.0
C147 C 0.82873 0.22995 0.32892 0.0
C148 C 0.79194 0.23011 0.35225 0.0
C149 C 0.76874 0.20345 0.37256 0.0
C150 C 0.85288 0.25888 0.3095 0.0
C151 C 0.88062 0.26094 0.25802 0.0
C152 C 0.90524 0.28968 0.23881 0.0
C153 C 0.92232 0.29191 0.1642 0.0
C154 C 0.94689 0.31803 0.14524 0.0
C155 C 0.95544 0.34245 0.20111 0.0
H156 H 0.90178 0.31313 0.35371 0.0
C157 C 0.93841 0.34025 0.27594 0.0
C158 C 0.91356 0.3142 0.29463 0.0
H159 H 0.94435 0.3587 0.32022 0.0
H160 H 0.8307 0.15527 0.34895 0.0
H161 H 0.8708 0.20154 0.31293 0.0
H162 H 0.78093 0.25094 0.35412 0.0
H163 H 0.74025 0.20442 0.38858 0.0
H164 H 0.84628 0.27919 0.33571 0.0
H165 H 0.88463 0.24095 0.22563 0.0
H166 H 0.91676 0.27331 0.12041 0.0
H167 H 0.95996 0.3188 0.08763 0.0
C168 C 0.57319 0.92171 0.60218 0.0
C169 C 0.59955 0.94237 0.56264 0.0
C170 C 0.58175 0.89392 0.62738 0.0
C171 C 0.61683 0.8858 0.61334 0.0
C172 C 0.64251 0.90564 0.57015 0.0
C173 C 0.63417 0.93384 0.54579 0.0
C174 C 0.62646 0.85658 0.64319 0.0
C175 C 0.61695 0.84556 0.71716 0.0
C176 C 0.62265 0.81558 0.74901 0.0
C177 C 0.62441 0.81096 0.83482 0.0
C178 C 0.62472 0.78234 0.86732 0.0
C179 C 0.62253 0.75736 0.81469 0.0
H180 H 0.62022 0.79354 0.62964 0.0
C181 C 0.62222 0.76217 0.72873 0.0
C182 C 0.62235 0.79097 0.69621 0.0
H183 H 0.62001 0.74351 0.68604 0.0
H184 H 0.54606 0.92719 0.61576 0.0
H185 H 0.56078 0.87878 0.65809 0.0
H186 H 0.66954 0.8997 0.55755 0.0
H187 H 0.65505 0.94909 0.51519 0.0
H188 H 0.64245 0.84461 0.60517 0.0
H189 H 0.60435 0.8594 0.75751 0.0
H190 H 0.62471 0.8295 0.87701 0.0
H191 H 0.62584 0.77974 0.93385 0.0
C192 C 0.72019 0.52479 0.8415 0.0
C193 C 0.70342 0.5484 0.86886 0.0
C194 C 0.75976 0.52575 0.856 0.0
C195 C 0.78323 0.5505 0.89752 0.0
C196 C 0.76649 0.57438 0.92253 0.0
C197 C 0.72707 0.57325 0.90912 0.0
C198 C 0.82526 0.55261 0.91479 0.0
C199 C 0.8425 0.52856 0.92837 0.0
C200 C 0.88432 0.53105 0.95163 0.0
C201 C 0.89783 0.50811 -0.00201 0.0
C202 C 0.93694 0.50958 0.02074 0.0
C203 C 0.96353 0.53393 -0.00327 0.0
H204 H 0.90178 0.57311 0.88949 0.0
C205 C 0.95003 0.55684 0.94981 0.0
C206 C 0.91091 0.55541 0.92735 0.0
H207 H 0.96969 0.57575 0.92935 0.0
H208 H 0.70273 0.50542 0.80992 0.0
H209 H 0.77186 0.50729 0.83388 0.0
H210 H 0.78392 0.59383 0.95384 0.0
H211 H 0.71517 0.592 0.93022 0.0
H212 H 0.8421 0.57496 0.92308 0.0
H213 H 0.82518 0.50634 0.92811 0.0
H214 H 0.87805 0.48899 0.01704 0.0
H215 H 0.94628 0.49138 0.05626 0.0
C216 C 0.36376 0.87348 0.4178 0.0
C217 C 0.35357 0.90205 0.42294 0.0
C218 C 0.33854 0.84964 0.37732 0.0
C219 C 0.30244 0.8538 0.34034 0.0
C220 C 0.29196 0.88217 0.3471 0.0
C221 C 0.31719 0.90601 0.38752 0.0
C222 C 0.27458 0.82909 0.29633 0.0
C223 C 0.28468 0.8046 0.26338 0.0
C224 C 0.25726 0.77981 0.2185 0.0
C225 C 0.27178 0.75978 0.1694 0.0
C226 C 0.24756 0.73564 0.1281 0.0
C227 C 0.20803 0.73076 0.13496 0.0
H228 H 0.20513 0.78914 0.26431 0.0
C229 C 0.19336 0.7508 0.18387 0.0
C230 C 0.21762 0.77494 0.22546 0.0
H231 H 0.16316 0.7474 0.19181 0.0
H232 H 0.39117 0.86938 0.44596 0.0
H233 H 0.34737 0.82797 0.3765 0.0
H234 H 0.26428 0.88607 0.31996 0.0
H235 H 0.30841 0.92771 0.38949 0.0
H236 H 0.24497 0.83214 0.28769 0.0
H237 H 0.31475 0.80293 0.2663 0.0
H238 H 0.30211 0.76279 0.16286 0.0
H239 H 0.25984 0.72086 0.09036 0.0
C240 C 0.53907 0.31487 0.65621 0.0
C241 C 0.57229 0.33683 0.66682 0.0
C242 C 0.54125 0.28486 0.6403 0.0
C243 C 0.57689 0.27592 0.63524 0.0
C244 C 0.61003 0.29795 0.64535 0.0
C245 C 0.60781 0.32797 0.661 0.0
C246 C 0.58085 0.24433 0.61664 0.0
C247 C 0.55332 0.22016 0.62383 0.0
C248 C 0.55754 0.18866 0.60477 0.0
C249 C 0.53274 0.16481 0.63685 0.0
C250 C 0.53551 0.13495 0.62025 0.0
C251 C 0.56309 0.12817 0.57061 0.0
H252 H 0.60361 0.19929 0.52535 0.0
C253 C 0.58756 0.152 0.53743 0.0
C254 C 0.58473 0.18183 0.55385 0.0
H255 H 0.60897 0.14769 0.49835 0.0
H256 H 0.51115 0.32098 0.65844 0.0
H257 H 0.51482 0.26905 0.63036 0.0
H258 H 0.63788 0.29191 0.64134 0.0
H259 H 0.63401 0.34419 0.66938 0.0
H260 H 0.60838 0.241 0.59904 0.0
H261 H 0.52689 0.22311 0.64783 0.0
H262 H 0.51127 0.16927 0.67562 0.0
H263 H 0.51622 0.11722 0.64699 0.0
C264 C 0.07711 0.55098 0.78481 0.0
C265 C 1.0554 0.52423 0.80954 0.0
C266 C 0.0743 0.55925 0.70237 0.0
C267 C 1.0502 0.54052 0.64351 0.0
C268 C 1.0257 0.51535 0.66935 0.0
C269 C 1.02833 0.50715 0.75241 0.0
C270 C 1.05417 0.5444 0.5549 0.0
C271 C 0.08903 0.5513 0.52806 0.0
C272 C 0.09523 0.54996 0.4402 0.0
C273 C 0.12666 0.56866 0.41152 0.0
C274 C 0.1322 0.5686 0.3277 0.0
C275 C 0.10643 0.54962 0.27228 0.0
H276 H 1.04761 0.51385 0.40626 0.0
C277 C 0.07642 0.52963 0.30195 0.0
C278 C 0.07096 0.52965 0.38534 0.0
H279 H 1.05633 0.51462 0.26035 0.0
H280 H 0.09754 0.56485 0.8284 0.0
H281 H 0.09249 0.57939 0.68406 0.0
H282 H 1.00661 0.50088 0.62458 0.0
H283 H 1.01083 0.48669 0.77088 0.0
H284 H 1.02883 0.53811 0.51166 0.0
H285 H 0.11425 0.55732 0.57193 0.0
H286 H 0.1462 0.58396 0.45349 0.0
H287 H 0.15566 0.58411 0.30594 0.0
C288 C 0.53585 1.01781 0.23289 0.0
C289 C 0.55748 0.03567 0.29671 0.0
C290 C 0.53672 1.02722 0.15119 0.0
C291 C 0.55916 0.05473 0.13268 0.0
C292 C 0.58146 0.07211 0.19656 0.0
C293 C 0.58051 0.06275 0.27806 0.0
C294 C 0.56324 0.06431 0.04695 0.0
C295 C 0.53663 0.05521 -0.01617 0.0
C296 C 0.54762 0.05608 0.89904 0.0
C297 C 0.53719 1.02995 0.85048 0.0
C298 C 0.55484 1.02699 0.7791 0.0
C299 C 0.58264 0.05033 0.75509 0.0
H300 H 0.58109 0.10098 0.90748 0.0
C301 C 0.59092 0.07738 0.80012 0.0
C302 C 0.57334 0.08032 0.87168 0.0
H303 H 0.6115 0.09598 0.78112 0.0
H304 H 0.51802 0.99679 0.2461 0.0
H305 H 0.52051 1.01256 0.10298 0.0
H306 H 0.59957 0.09301 0.18339 0.0
H307 H 0.59743 0.07695 0.32652 0.0
H308 H 0.5908 0.07709 0.03497 0.0
H309 H 0.50916 0.04216 -0.00494 0.0
H310 H 0.51742 1.01105 0.87077 0.0
H311 H 0.54776 1.00605 0.74448 0.0
C312 C 0.58155 0.54342 0.56977 0.0
C313 C 0.60397 0.56729 0.61591 0.0
C314 C 0.58857 0.53819 0.48864 0.0
C315 C 0.61805 0.55694 0.45258 0.0
C316 C 0.64039 0.58078 0.49893 0.0
C317 C 0.63364 0.58578 0.5803 0.0
C318 C 0.62334 0.55411 0.36434 0.0
C319 C 0.61437 0.52795 0.32261 0.0
C320 C 0.61192 0.52673 0.23152 0.0
C321 C 0.6195 0.5013 0.19171 0.0
C322 C 0.61426 0.49889 0.10543 0.0
C323 C 0.6005 0.5216 0.05851 0.0
H324 H 0.59164 0.56917 0.21295 0.0
C325 C 0.59325 0.54711 0.09823 0.0
C326 C 0.5989 0.54969 0.184 0.0
H327 H 0.58255 0.56488 0.06311 0.0
H328 H 0.5583 0.52906 0.59591 0.0
H329 H 0.56998 0.52021 0.45353 0.0
H330 H 0.66286 0.59572 0.47188 0.0
H331 H 0.65131 0.60438 0.61488 0.0
H332 H 0.63397 0.5745 0.33219 0.0
H333 H 0.60753 0.50704 0.35545 0.0
H334 H 0.62912 0.48323 0.22738 0.0
H335 H 0.61991 0.47895 0.07573 0.0
loop_
_geom_bond_atom_site_label_1
_geom_bond_atom_site_label_2
_geom_bond_distance
_geom_bond_site_symmetry_2
_ccdc_geom_bond_type
Pr0 C2 2.880 1_455 S
Pr0 O20 2.562 1_455 S
Pr0 O21 2.490 1_455 S
Pr0 O22 2.695 . S
Pr0 O23 2.512 1_554 S
Pr0 O25 2.437 1_455 S
Pr0 O28 2.436 . S
Pr0 O30 2.438 . S
Pr1 C11 2.880 . S
Pr1 O22 2.436 . S
Pr1 O24 2.438 1_455 S
Pr1 O26 2.562 . S
Pr1 O27 2.490 . S
Pr1 O28 2.695 . S
Pr1 O29 2.512 . S
Pr1 O31 2.437 . S
C2 Pr0 2.880 1_655 S
C2 C3 1.491 . S
C2 O20 1.254 . S
C2 O21 1.225 . S
C3 C2 1.491 . S
C3 C4 1.392 . S
C3 C8 1.356 . S
C4 C3 1.392 . S
C4 C5 1.368 . S
C4 H32 0.929 . S
C5 C4 1.368 . S
C5 C6 1.386 . S
C5 H33 0.929 . S
C6 C5 1.386 . S
C6 C7 1.373 . S
C7 C6 1.373 . S
C7 C8 1.409 . S
C7 H34 0.931 . S
C8 C3 1.356 . S
C8 C7 1.409 . S
C8 H35 0.930 . S
C9 O22 1.270 1_556 S
C9 O23 1.248 . S
C10 O24 1.267 . S
C10 O25 1.278 . S
C11 Pr1 2.880 . S
C11 C12 1.491 . S
C11 O26 1.254 . S
C11 O27 1.225 . S
C12 C11 1.491 . S
C12 C13 1.392 . S
C12 C17 1.356 . S
C13 C12 1.392 . S
C13 C14 1.368 . S
C13 H36 0.929 . S
C14 C13 1.368 . S
C14 C15 1.386 . S
C14 H37 0.929 . S
C15 C14 1.386 . S
C15 C16 1.373 . S
C16 C15 1.373 . S
C16 C17 1.409 . S
C16 H38 0.931 . S
C17 C12 1.356 . S
C17 C16 1.409 . S
C17 H39 0.930 . S
C18 O28 1.270 . S
C18 O29 1.248 . S
C19 O30 1.267 . S
C19 O31 1.278 . S
O20 Pr0 2.562 1_655 S
O20 C2 1.254 . S
O21 Pr0 2.490 1_655 S
O21 C2 1.225 . S
O22 Pr0 2.695 . S
O22 Pr1 2.436 . S
O22 C9 1.270 1_554 S
O23 Pr0 2.512 1_556 S
O23 C9 1.248 . S
O24 Pr1 2.438 1_655 S
O24 C10 1.267 . S
O25 Pr0 2.437 1_655 S
O25 C10 1.278 . S
O26 Pr1 2.562 . S
O26 C11 1.254 . S
O27 Pr1 2.490 . S
O27 C11 1.225 . S
O28 Pr0 2.436 . S
O28 Pr1 2.695 . S
O28 C18 1.270 . S
O29 Pr1 2.512 . S
O29 C18 1.248 . S
O30 Pr0 2.438 . S
O30 C19 1.267 . S
O31 Pr1 2.437 . S
O31 C19 1.278 . S
H32 C4 0.929 . S
H33 C5 0.929 . S
H34 C7 0.931 . S
H35 C8 0.930 . S
H36 C13 0.929 . S
H37 C14 0.929 . S
H38 C16 0.931 . S
H39 C17 0.930 . S
Pr40 C42 2.880 . S
Pr40 O60 2.562 . S
Pr40 O61 2.490 . S
Pr40 O62 2.695 . S
Pr40 O63 2.512 . S
Pr40 O65 2.437 . S
Pr40 O68 2.436 . S
Pr40 O70 2.438 1_545 S
Pr41 C51 2.880 . S
Pr41 O62 2.436 1_565 S
Pr41 O64 2.438 1_565 S
Pr41 O66 2.562 . S
Pr41 O67 2.490 . S
Pr41 O68 2.695 1_565 S
Pr41 O69 2.512 . S
Pr41 O71 2.437 . S
C42 Pr40 2.880 . S
C42 C43 1.491 . S
C42 O60 1.254 . S
C42 O61 1.225 . S
C43 C42 1.491 . S
C43 C44 1.392 . S
C43 C48 1.356 . S
C44 C43 1.392 . S
C44 C45 1.368 . S
C44 H72 0.929 . S
C45 C44 1.368 . S
C45 C46 1.386 . S
C45 H73 0.929 . S
C46 C45 1.386 . S
C46 C47 1.373 . S
C47 C46 1.373 . S
C47 C48 1.409 . S
C47 H74 0.931 . S
C48 C43 1.356 . S
C48 C47 1.409 . S
C48 H75 0.930 . S
C49 O62 1.270 . S
C49 O63 1.248 . S
C50 O64 1.267 . S
C50 O65 1.278 . S
C51 Pr41 2.880 . S
C51 C52 1.491 . S
C51 O66 1.254 . S
C51 O67 1.225 . S
C52 C51 1.491 . S
C52 C53 1.392 . S
C52 C57 1.356 . S
C53 C52 1.392 . S
C53 C54 1.368 . S
C53 H76 0.929 . S
C54 C53 1.368 . S
C54 C55 1.386 . S
C54 H77 0.929 . S
C55 C54 1.386 . S
C55 C56 1.373 . S
C56 C55 1.373 . S
C56 C57 1.409 . S
C56 H78 0.931 . S
C57 C52 1.356 . S
C57 C56 1.409 . S
C57 H79 0.930 . S
C58 O68 1.270 . S
C58 O69 1.248 1_545 S
C59 O70 1.267 . S
C59 O71 1.278 . S
O60 Pr40 2.562 . S
O60 C42 1.254 . S
O61 Pr40 2.490 . S
O61 C42 1.225 . S
O62 Pr40 2.695 . S
O62 Pr41 2.436 1_545 S
O62 C49 1.270 . S
O63 Pr40 2.512 . S
O63 C49 1.248 . S
O64 Pr41 2.438 1_545 S
O64 C50 1.267 . S
O65 Pr40 2.437 . S
O65 C50 1.278 . S
O66 Pr41 2.562 . S
O66 C51 1.254 . S
O67 Pr41 2.490 . S
O67 C51 1.225 . S
O68 Pr40 2.436 . S
O68 Pr41 2.695 1_545 S
O68 C58 1.270 . S
O69 Pr41 2.512 . S
O69 C58 1.248 1_565 S
O70 Pr40 2.438 1_565 S
O70 C59 1.267 . S
O71 Pr41 2.437 . S
O71 C59 1.278 . S
H72 C44 0.929 . S
H73 C45 0.929 . S
H74 C47 0.931 . S
H75 C48 0.930 . S
H76 C53 0.929 . S
H77 C54 0.929 . S
H78 C56 0.931 . S
H79 C57 0.930 . S
Pr80 C82 2.880 . S
Pr80 O100 2.562 . S
Pr80 O101 2.490 . S
Pr80 O102 2.695 . S
Pr80 O103 2.512 1_556 S
Pr80 O105 2.437 . S
Pr80 O108 2.436 . S
Pr80 O110 2.438 . S
Pr81 C91 2.880 . S
Pr81 O102 2.436 . S
Pr81 O104 2.438 . S
Pr81 O106 2.562 . S
Pr81 O107 2.490 . S
Pr81 O108 2.695 . S
Pr81 O109 2.512 . S
Pr81 O111 2.437 . S
C82 Pr80 2.880 . S
C82 C83 1.491 . S
C82 O100 1.254 . S
C82 O101 1.225 . S
C83 C82 1.491 . S
C83 C84 1.392 . S
C83 C88 1.356 . S
C84 C83 1.392 . S
C84 C85 1.368 . S
C84 H112 0.929 . S
C85 C84 1.368 . S
C85 C86 1.386 . S
C85 H113 0.929 . S
C86 C85 1.386 . S
C86 C87 1.373 . S
C87 C86 1.373 . S
C87 C88 1.409 . S
C87 H114 0.931 . S
C88 C83 1.356 . S
C88 C87 1.409 . S
C88 H115 0.930 . S
C89 O102 1.270 1_554 S
C89 O103 1.248 . S
C90 O104 1.267 . S
C90 O105 1.278 . S
C91 Pr81 2.880 . S
C91 C92 1.491 . S
C91 O106 1.254 . S
C91 O107 1.225 . S
C92 C91 1.491 . S
C92 C93 1.392 . S
C92 C97 1.356 . S
C93 C92 1.392 . S
C93 C94 1.368 . S
C93 H116 0.929 . S
C94 C93 1.368 . S
C94 C95 1.386 . S
C94 H117 0.929 . S
C95 C94 1.386 . S
C95 C96 1.373 . S
C96 C95 1.373 . S
C96 C97 1.409 . S
C96 H118 0.931 . S
C97 C92 1.356 . S
C97 C96 1.409 . S
C97 H119 0.930 . S
C98 O108 1.270 . S
C98 O109 1.248 . S
C99 O110 1.267 . S
C99 O111 1.278 . S
O100 Pr80 2.562 . S
O100 C82 1.254 . S
O101 Pr80 2.490 . S
O101 C82 1.225 . S
O102 Pr80 2.695 . S
O102 Pr81 2.436 . S
O102 C89 1.270 1_556 S
O103 Pr80 2.512 1_554 S
O103 C89 1.248 . S
O104 Pr81 2.438 . S
O104 C90 1.267 . S
O105 Pr80 2.437 . S
O105 C90 1.278 . S
O106 Pr81 2.562 . S
O106 C91 1.254 . S
O107 Pr81 2.490 . S
O107 C91 1.225 . S
O108 Pr80 2.436 . S
O108 Pr81 2.695 . S
O108 C98 1.270 . S
O109 Pr81 2.512 . S
O109 C98 1.248 . S
O110 Pr80 2.438 . S
O110 C99 1.267 . S
O111 Pr81 2.437 . S
O111 C99 1.278 . S
H112 C84 0.929 . S
H113 C85 0.929 . S
H114 C87 0.931 . S
H115 C88 0.930 . S
H116 C93 0.929 . S
H117 C94 0.929 . S
H118 C96 0.931 . S
H119 C97 0.930 . S
C120 C121 1.386 . S
C120 C122 1.383 1_554 S
C120 H136 0.951 1_554 S
C121 C120 1.386 . S
C121 C125 1.383 . S
C122 C120 1.383 1_556 S
C122 C123 1.402 1_556 S
C122 H137 0.951 . S
C123 C122 1.402 1_554 S
C123 C124 1.375 . S
C123 C126 1.481 . S
C124 C123 1.375 . S
C124 C125 1.367 . S
C124 H138 0.951 . S
C125 C121 1.383 . S
C125 C124 1.367 . S
C125 H139 0.950 . S
C126 C123 1.481 . S
C126 C127 1.297 1_554 S
C126 H140 0.950 . S
C127 C126 1.297 1_556 S
C127 C128 1.479 . S
C127 H141 0.950 . S
C128 C127 1.479 . S
C128 C129 1.375 . S
C128 C134 1.404 1_556 S
C129 C128 1.375 . S
C129 C130 1.369 . S
C129 H142 0.950 . S
C130 C129 1.369 . S
C130 C131 1.392 . S
C130 H143 0.951 . S
C131 C130 1.392 . S
C131 C133 1.384 . S
H132 C134 0.949 . S
C133 C131 1.384 . S
C133 C134 1.385 1_556 S
C133 H135 0.950 1_556 S
C134 C128 1.404 1_554 S
C134 H132 0.949 . S
C134 C133 1.385 1_554 S
H135 C133 0.950 1_554 S
H136 C120 0.951 1_556 S
H137 C122 0.951 . S
H138 C124 0.951 . S
H139 C125 0.950 . S
H140 C126 0.950 . S
H141 C127 0.950 . S
H142 C129 0.950 . S
H143 C130 0.951 . S
C144 C145 1.386 . S
C144 C146 1.383 . S
C144 H160 0.951 . S
C145 C144 1.386 . S
C145 C149 1.383 . S
C146 C144 1.383 . S
C146 C147 1.402 . S
C146 H161 0.951 . S
C147 C146 1.402 . S
C147 C148 1.375 . S
C147 C150 1.481 . S
C148 C147 1.375 . S
C148 C149 1.367 . S
C148 H162 0.951 . S
C149 C145 1.383 . S
C149 C148 1.367 . S
C149 H163 0.950 . S
C150 C147 1.481 . S
C150 C151 1.297 . S
C150 H164 0.950 . S
C151 C150 1.297 . S
C151 C152 1.479 . S
C151 H165 0.950 . S
C152 C151 1.479 . S
C152 C153 1.375 . S
C152 C158 1.404 . S
C153 C152 1.375 . S
C153 C154 1.369 . S
C153 H166 0.950 . S
C154 C153 1.369 . S
C154 C155 1.392 . S
C154 H167 0.951 . S
C155 C154 1.392 . S
C155 C157 1.384 . S
H156 C158 0.949 . S
C157 C155 1.384 . S
C157 C158 1.385 . S
C157 H159 0.950 . S
C158 C152 1.404 . S
C158 H156 0.949 . S
C158 C157 1.385 . S
H159 C157 0.950 . S
H160 C144 0.951 . S
H161 C146 0.951 . S
H162 C148 0.951 . S
H163 C149 0.950 . S
H164 C150 0.950 . S
H165 C151 0.950 . S
H166 C153 0.950 . S
H167 C154 0.951 . S
C168 C169 1.386 . S
C168 C170 1.383 . S
C168 H184 0.951 . S
C169 C168 1.386 . S
C169 C173 1.383 . S
C170 C168 1.383 . S
C170 C171 1.402 . S
C170 H185 0.951 . S
C171 C170 1.402 . S
C171 C172 1.375 . S
C171 C174 1.481 . S
C172 C171 1.375 . S
C172 C173 1.367 . S
C172 H186 0.951 . S
C173 C169 1.383 . S
C173 C172 1.367 . S
C173 H187 0.950 . S
C174 C171 1.481 . S
C174 C175 1.297 . S
C174 H188 0.950 . S
C175 C174 1.297 . S
C175 C176 1.479 . S
C175 H189 0.950 . S
C176 C175 1.479 . S
C176 C177 1.375 . S
C176 C182 1.404 . S
C177 C176 1.375 . S
C177 C178 1.369 . S
C177 H190 0.950 . S
C178 C177 1.369 . S
C178 C179 1.392 . S
C178 H191 0.951 . S
C179 C178 1.392 . S
C179 C181 1.384 . S
H180 C182 0.949 . S
C181 C179 1.384 . S
C181 C182 1.385 . S
C181 H183 0.950 . S
C182 C176 1.404 . S
C182 H180 0.949 . S
C182 C181 1.385 . S
H183 C181 0.950 . S
H184 C168 0.951 . S
H185 C170 0.951 . S
H186 C172 0.951 . S
H187 C173 0.950 . S
H188 C174 0.950 . S
H189 C175 0.950 . S
H190 C177 0.950 . S
H191 C178 0.951 . S
C192 C193 1.386 . S
C192 C194 1.383 . S
C192 H208 0.951 . S
C193 C192 1.386 . S
C193 C197 1.383 . S
C194 C192 1.383 . S
C194 C195 1.402 . S
C194 H209 0.951 . S
C195 C194 1.402 . S
C195 C196 1.375 . S
C195 C198 1.481 . S
C196 C195 1.375 . S
C196 C197 1.367 . S
C196 H210 0.951 . S
C197 C193 1.383 . S
C197 C196 1.367 . S
C197 H211 0.950 . S
C198 C195 1.481 . S
C198 C199 1.297 . S
C198 H212 0.950 . S
C199 C198 1.297 . S
C199 C200 1.479 1_556 S
C199 H213 0.950 . S
C200 C199 1.479 1_554 S
C200 C201 1.376 . S
C200 C206 1.404 1_554 S
C201 C200 1.376 . S
C201 C202 1.369 . S
C201 H214 0.950 . S
C202 C201 1.369 . S
C202 C203 1.392 . S
C202 H215 0.951 . S
C203 C202 1.392 . S
C203 C205 1.384 . S
H204 C206 0.949 . S
C205 C203 1.384 . S
C205 C206 1.385 1_554 S
C205 H207 0.950 . S
C206 C200 1.404 1_556 S
C206 H204 0.949 . S
C206 C205 1.385 1_556 S
H207 C205 0.950 . S
H208 C192 0.951 . S
H209 C194 0.951 . S
H210 C196 0.951 . S
H211 C197 0.950 . S
H212 C198 0.950 . S
H213 C199 0.950 . S
H214 C201 0.950 . S
H215 C202 0.951 . S
C216 C217 1.386 . S
C216 C218 1.383 . S
C216 H232 0.951 . S
C217 C216 1.386 . S
C217 C221 1.383 . S
C218 C216 1.383 . S
C218 C219 1.402 . S
C218 H233 0.951 . S
C219 C218 1.402 . S
C219 C220 1.375 . S
C219 C222 1.481 . S
C220 C219 1.375 . S
C220 C221 1.367 . S
C220 H234 0.951 . S
C221 C217 1.383 . S
C221 C220 1.367 . S
C221 H235 0.950 . S
C222 C219 1.481 . S
C222 C223 1.297 . S
C222 H236 0.950 . S
C223 C222 1.297 . S
C223 C224 1.479 . S
C223 H237 0.950 . S
C224 C223 1.479 . S
C224 C225 1.375 . S
C224 C230 1.404 . S
C225 C224 1.375 . S
C225 C226 1.369 . S
C225 H238 0.950 . S
C226 C225 1.369 . S
C226 C227 1.392 . S
C226 H239 0.951 . S
C227 C226 1.392 . S
C227 C229 1.384 . S
H228 C230 0.949 . S
C229 C227 1.384 . S
C229 C230 1.385 . S
C229 H231 0.950 . S
C230 C224 1.404 . S
C230 H228 0.949 . S
C230 C229 1.385 . S
H231 C229 0.950 . S
H232 C216 0.951 . S
H233 C218 0.951 . S
H234 C220 0.951 . S
H235 C221 0.950 . S
H236 C222 0.950 . S
H237 C223 0.950 . S
H238 C225 0.950 . S
H239 C226 0.951 . S
C240 C241 1.386 . S
C240 C242 1.383 . S
C240 H256 0.951 . S
C241 C240 1.386 . S
C241 C245 1.383 . S
C242 C240 1.383 . S
C242 C243 1.402 . S
C242 H257 0.951 . S
C243 C242 1.402 . S
C243 C244 1.375 . S
C243 C246 1.481 . S
C244 C243 1.375 . S
C244 C245 1.367 . S
C244 H258 0.951 . S
C245 C241 1.383 . S
C245 C244 1.367 . S
C245 H259 0.950 . S
C246 C243 1.481 . S
C246 C247 1.297 . S
C246 H260 0.950 . S
C247 C246 1.297 . S
C247 C248 1.479 . S
C247 H261 0.950 . S
C248 C247 1.479 . S
C248 C249 1.375 . S
C248 C254 1.404 . S
C249 C248 1.375 . S
C249 C250 1.369 . S
C249 H262 0.950 . S
C250 C249 1.369 . S
C250 C251 1.392 . S
C250 H263 0.951 . S
C251 C250 1.392 . S
C251 C253 1.384 . S
H252 C254 0.949 . S
C253 C251 1.384 . S
C253 C254 1.385 . S
C253 H255 0.950 . S
C254 C248 1.404 . S
C254 H252 0.949 . S
C254 C253 1.385 . S
H255 C253 0.950 . S
H256 C240 0.951 . S
H257 C242 0.951 . S
H258 C244 0.951 . S
H259 C245 0.950 . S
H260 C246 0.950 . S
H261 C247 0.950 . S
H262 C249 0.950 . S
H263 C250 0.951 . S
C264 C265 1.386 . S
C264 C266 1.383 . S
C264 H280 0.951 . S
C265 C264 1.386 . S
C265 C269 1.383 1_455 S
C266 C264 1.383 . S
C266 C267 1.402 . S
C266 H281 0.951 . S
C267 C266 1.402 . S
C267 C268 1.375 1_455 S
C267 C270 1.481 . S
C268 C267 1.375 1_655 S
C268 C269 1.367 . S
C268 H282 0.951 . S
C269 C265 1.383 1_655 S
C269 C268 1.367 . S
C269 H283 0.950 . S
C270 C267 1.481 . S
C270 C271 1.297 . S
C270 H284 0.950 1_455 S
C271 C270 1.297 . S
C271 C272 1.479 . S
C271 H285 0.950 . S
C272 C271 1.479 . S
C272 C273 1.375 . S
C272 C278 1.404 1_455 S
C273 C272 1.375 . S
C273 C274 1.369 . S
C273 H286 0.950 . S
C274 C273 1.369 . S
C274 C275 1.392 . S
C274 H287 0.951 . S
C275 C274 1.392 . S
C275 C277 1.384 1_455 S
H276 C278 0.949 . S
C277 C275 1.384 1_655 S
C277 C278 1.385 . S
C277 H279 0.950 . S
C278 C272 1.404 1_655 S
C278 H276 0.949 . S
C278 C277 1.385 . S
H279 C277 0.950 . S
H280 C264 0.951 . S
H281 C266 0.951 . S
H282 C268 0.951 . S
H283 C269 0.950 . S
H284 C270 0.950 1_655 S
H285 C271 0.950 . S
H286 C273 0.950 . S
H287 C274 0.951 . S
C288 C289 1.386 . S
C288 C290 1.383 . S
C288 H304 0.951 . S
C289 C288 1.386 . S
C289 C293 1.383 . S
C290 C288 1.383 . S
C290 C291 1.402 . S
C290 H305 0.951 . S
C291 C290 1.402 . S
C291 C292 1.375 . S
C291 C294 1.481 . S
C292 C291 1.375 . S
C292 C293 1.367 . S
C292 H306 0.951 . S
C293 C289 1.383 . S
C293 C292 1.367 . S
C293 H307 0.950 . S
C294 C291 1.481 . S
C294 C295 1.297 1_554 S
C294 H308 0.950 . S
C295 C294 1.297 1_556 S
C295 C296 1.479 . S
C295 H309 0.950 1_556 S
C296 C295 1.479 . S
C296 C297 1.375 . S
C296 C302 1.404 . S
C297 C296 1.375 . S
C297 C298 1.369 . S
C297 H310 0.950 . S
C298 C297 1.369 . S
C298 C299 1.392 . S
C298 H311 0.951 . S
C299 C298 1.392 . S
C299 C301 1.384 . S
H300 C302 0.949 . S
C301 C299 1.384 . S
C301 C302 1.385 . S
C301 H303 0.950 . S
C302 C296 1.404 . S
C302 H300 0.949 . S
C302 C301 1.385 . S
H303 C301 0.950 . S
H304 C288 0.951 . S
H305 C290 0.951 . S
H306 C292 0.951 . S
H307 C293 0.950 . S
H308 C294 0.950 . S
H309 C295 0.950 1_554 S
H310 C297 0.950 . S
H311 C298 0.951 . S
C312 C313 1.386 . S
C312 C314 1.383 . S
C312 H328 0.951 . S
C313 C312 1.386 . S
C313 C317 1.383 . S
C314 C312 1.383 . S
C314 C315 1.402 . S
C314 H329 0.951 . S
C315 C314 1.402 . S
C315 C316 1.375 . S
C315 C318 1.481 . S
C316 C315 1.375 . S
C316 C317 1.367 . S
C316 H330 0.951 . S
C317 C313 1.383 . S
C317 C316 1.367 . S
C317 H331 0.950 . S
C318 C315 1.481 . S
C318 C319 1.297 . S
C318 H332 0.950 . S
C319 C318 1.297 . S
C319 C320 1.479 . S
C319 H333 0.950 . S
C320 C319 1.479 . S
C320 C321 1.375 . S
C320 C326 1.404 . S
C321 C320 1.375 . S
C321 C322 1.369 . S
C321 H334 0.950 . S
C322 C321 1.369 . S
C322 C323 1.392 . S
C322 H335 0.951 . S
C323 C322 1.392 . S
C323 C325 1.384 . S
H324 C326 0.949 . S
C325 C323 1.384 . S
C325 C326 1.385 . S
C325 H327 0.950 . S
C326 C320 1.404 . S
C326 H324 0.949 . S
C326 C325 1.385 . S
H327 C325 0.950 . S
H328 C312 0.951 . S
H329 C314 0.951 . S
H330 C316 0.951 . S
H331 C317 0.950 . S
H332 C318 0.950 . S
H333 C319 0.950 . S
H334 C321 0.950 . S
H335 C322 0.951 . S
C121 C19 3.037 . S
C131 C99 2.998 . S
C145 C46 1.546 . S
C155 C6 1.591 . S
C169 C59 2.525 . S
C179 C95 2.415 . S
C193 C90 2.686 . S
C203 C10 2.677 . S
C217 C55 1.527 . S
C227 C15 1.475 . S
C241 C86 2.184 . S
C251 C50 2.185 . S
C265 C9 0.372 . S
C275 C18 0.597 . S
C289 C58 0.524 . S
C299 C49 0.448 . S
C313 C98 0.403 . S
C323 C89 0.455 . S
