# Generated by pormake.
# Topology lcs-f, (3)-cn, num edge types: 1
# Building blocks:
#     Node 0, Type 0, BuildingBlock: OLANEW_clean_sbu_2, # of connection points: 3
#     Node 1, Type 0, BuildingBlock: OLANEW_clean_sbu_2, # of connection points: 3
#     Node 2, Type 0, BuildingBlock: OLANEW_clean_sbu_2, # of connection points: 3
#     Node 3, Type 0, BuildingBlock: OLANEW_clean_sbu_2, # of connection points: 3
#     Node 4, Type 0, BuildingBlock: OLANEW_clean_sbu_2, # of connection points: 3
#     Node 5, Type 0, BuildingBlock: OLANEW_clean_sbu_2, # of connection points: 3
#     Node 6, Type 0, BuildingBlock: OLANEW_clean_sbu_2, # of connection points: 3
#     Node 7, Type 0, BuildingBlock: OLANEW_clean_sbu_2, # of connection points: 3
#     Node 8, Type 0, BuildingBlock: OLANEW_clean_sbu_2, # of connection points: 3
#     Node 9, Type 0, BuildingBlock: OLANEW_clean_sbu_2, # of connection points: 3
#     Node 10, Type 0, BuildingBlock: OLANEW_clean_sbu_2, # of connection points: 3
#     Node 11, Type 0, BuildingBlock: OLANEW_clean_sbu_2, # of connection points: 3
#     Node 12, Type 0, BuildingBlock: OLANEW_clean_sbu_2, # of connection points: 3
#     Node 13, Type 0, BuildingBlock: OLANEW_clean_sbu_2, # of connection points: 3
#     Node 14, Type 0, BuildingBlock: OLANEW_clean_sbu_2, # of connection points: 3
#     Node 15, Type 0, BuildingBlock: OLANEW_clean_sbu_2, # of connection points: 3
#     Node 16, Type 0, BuildingBlock: OLANEW_clean_sbu_2, # of connection points: 3
#     Node 17, Type 0, BuildingBlock: OLANEW_clean_sbu_2, # of connection points: 3
#     Node 18, Type 0, BuildingBlock: OLANEW_clean_sbu_2, # of connection points: 3
#     Node 19, Type 0, BuildingBlock: OLANEW_clean_sbu_2, # of connection points: 3
#     Node 20, Type 0, BuildingBlock: OLANEW_clean_sbu_2, # of connection points: 3
#     Node 21, Type 0, BuildingBlock: OLANEW_clean_sbu_2, # of connection points: 3
#     Node 22, Type 0, BuildingBlock: OLANEW_clean_sbu_2, # of connection points: 3
#     Node 23, Type 0, BuildingBlock: OLANEW_clean_sbu_2, # of connection points: 3
#     Node 24, Type 0, BuildingBlock: OLANEW_clean_sbu_2, # of connection points: 3
#     Node 25, Type 0, BuildingBlock: OLANEW_clean_sbu_2, # of connection points: 3
#     Node 26, Type 0, BuildingBlock: OLANEW_clean_sbu_2, # of connection points: 3
#     Node 27, Type 0, BuildingBlock: OLANEW_clean_sbu_2, # of connection points: 3
#     Node 28, Type 0, BuildingBlock: OLANEW_clean_sbu_2, # of connection points: 3
#     Node 29, Type 0, BuildingBlock: OLANEW_clean_sbu_2, # of connection points: 3
#     Node 30, Type 0, BuildingBlock: OLANEW_clean_sbu_2, # of connection points: 3
#     Node 31, Type 0, BuildingBlock: OLANEW_clean_sbu_2, # of connection points: 3
#     Node 32, Type 0, BuildingBlock: OLANEW_clean_sbu_2, # of connection points: 3
#     Node 33, Type 0, BuildingBlock: OLANEW_clean_sbu_2, # of connection points: 3
#     Node 34, Type 0, BuildingBlock: OLANEW_clean_sbu_2, # of connection points: 3
#     Node 35, Type 0, BuildingBlock: OLANEW_clean_sbu_2, # of connection points: 3
#     Node 36, Type 0, BuildingBlock: OLANEW_clean_sbu_2, # of connection points: 3
#     Node 37, Type 0, BuildingBlock: OLANEW_clean_sbu_2, # of connection points: 3
#     Node 38, Type 0, BuildingBlock: OLANEW_clean_sbu_2, # of connection points: 3
#     Node 39, Type 0, BuildingBlock: OLANEW_clean_sbu_2, # of connection points: 3
#     Node 40, Type 0, BuildingBlock: OLANEW_clean_sbu_2, # of connection points: 3
#     Node 41, Type 0, BuildingBlock: OLANEW_clean_sbu_2, # of connection points: 3
#     Node 42, Type 0, BuildingBlock: OLANEW_clean_sbu_2, # of connection points: 3
#     Node 43, Type 0, BuildingBlock: OLANEW_clean_sbu_2, # of connection points: 3
#     Node 44, Type 0, BuildingBlock: OLANEW_clean_sbu_2, # of connection points: 3
#     Node 45, Type 0, BuildingBlock: OLANEW_clean_sbu_2, # of connection points: 3
#     Node 46, Type 0, BuildingBlock: OLANEW_clean_sbu_2, # of connection points: 3
#     Node 47, Type 0, BuildingBlock: OLANEW_clean_sbu_2, # of connection points: 3
#     Node 48, Type 0, BuildingBlock: OLANEW_clean_sbu_2, # of connection points: 3
#     Node 49, Type 0, BuildingBlock: OLANEW_clean_sbu_2, # of connection points: 3
#     Node 50, Type 0, BuildingBlock: OLANEW_clean_sbu_2, # of connection points: 3
#     Node 51, Type 0, BuildingBlock: OLANEW_clean_sbu_2, # of connection points: 3
#     Node 52, Type 0, BuildingBlock: OLANEW_clean_sbu_2, # of connection points: 3
#     Node 53, Type 0, BuildingBlock: OLANEW_clean_sbu_2, # of connection points: 3
#     Node 54, Type 0, BuildingBlock: OLANEW_clean_sbu_2, # of connection points: 3
#     Node 55, Type 0, BuildingBlock: OLANEW_clean_sbu_2, # of connection points: 3
#     Node 56, Type 0, BuildingBlock: OLANEW_clean_sbu_2, # of connection points: 3
#     Node 57, Type 0, BuildingBlock: OLANEW_clean_sbu_2, # of connection points: 3
#     Node 58, Type 0, BuildingBlock: OLANEW_clean_sbu_2, # of connection points: 3
#     Node 59, Type 0, BuildingBlock: OLANEW_clean_sbu_2, # of connection points: 3
#     Node 60, Type 0, BuildingBlock: OLANEW_clean_sbu_2, # of connection points: 3
#     Node 61, Type 0, BuildingBlock: OLANEW_clean_sbu_2, # of connection points: 3
#     Node 62, Type 0, BuildingBlock: OLANEW_clean_sbu_2, # of connection points: 3
#     Node 63, Type 0, BuildingBlock: OLANEW_clean_sbu_2, # of connection points: 3
#     Node 64, Type 0, BuildingBlock: OLANEW_clean_sbu_2, # of connection points: 3
#     Node 65, Type 0, BuildingBlock: OLANEW_clean_sbu_2, # of connection points: 3
#     Node 66, Type 0, BuildingBlock: OLANEW_clean_sbu_2, # of connection points: 3
#     Node 67, Type 0, BuildingBlock: OLANEW_clean_sbu_2, # of connection points: 3
#     Node 68, Type 0, BuildingBlock: OLANEW_clean_sbu_2, # of connection points: 3
#     Node 69, Type 0, BuildingBlock: OLANEW_clean_sbu_2, # of connection points: 3
#     Node 70, Type 0, BuildingBlock: OLANEW_clean_sbu_2, # of connection points: 3
#     Node 71, Type 0, BuildingBlock: OLANEW_clean_sbu_2, # of connection points: 3
#     Node 72, Type 0, BuildingBlock: OLANEW_clean_sbu_2, # of connection points: 3
#     Node 73, Type 0, BuildingBlock: OLANEW_clean_sbu_2, # of connection points: 3
#     Node 74, Type 0, BuildingBlock: OLANEW_clean_sbu_2, # of connection points: 3
#     Node 75, Type 0, BuildingBlock: OLANEW_clean_sbu_2, # of connection points: 3
#     Node 76, Type 0, BuildingBlock: OLANEW_clean_sbu_2, # of connection points: 3
#     Node 77, Type 0, BuildingBlock: OLANEW_clean_sbu_2, # of connection points: 3
#     Node 78, Type 0, BuildingBlock: OLANEW_clean_sbu_2, # of connection points: 3
#     Node 79, Type 0, BuildingBlock: OLANEW_clean_sbu_2, # of connection points: 3
#     Node 80, Type 0, BuildingBlock: OLANEW_clean_sbu_2, # of connection points: 3
#     Node 81, Type 0, BuildingBlock: OLANEW_clean_sbu_2, # of connection points: 3
#     Node 82, Type 0, BuildingBlock: OLANEW_clean_sbu_2, # of connection points: 3
#     Node 83, Type 0, BuildingBlock: OLANEW_clean_sbu_2, # of connection points: 3
#     Node 84, Type 0, BuildingBlock: OLANEW_clean_sbu_2, # of connection points: 3
#     Node 85, Type 0, BuildingBlock: OLANEW_clean_sbu_2, # of connection points: 3
#     Node 86, Type 0, BuildingBlock: OLANEW_clean_sbu_2, # of connection points: 3
#     Node 87, Type 0, BuildingBlock: OLANEW_clean_sbu_2, # of connection points: 3
#     Node 88, Type 0, BuildingBlock: OLANEW_clean_sbu_2, # of connection points: 3
#     Node 89, Type 0, BuildingBlock: OLANEW_clean_sbu_2, # of connection points: 3
#     Node 90, Type 0, BuildingBlock: OLANEW_clean_sbu_2, # of connection points: 3
#     Node 91, Type 0, BuildingBlock: OLANEW_clean_sbu_2, # of connection points: 3
#     Node 92, Type 0, BuildingBlock: OLANEW_clean_sbu_2, # of connection points: 3
#     Node 93, Type 0, BuildingBlock: OLANEW_clean_sbu_2, # of connection points: 3
#     Node 94, Type 0, BuildingBlock: OLANEW_clean_sbu_2, # of connection points: 3
#     Node 95, Type 0, BuildingBlock: OLANEW_clean_sbu_2, # of connection points: 3
#     Edge 96, Type (0, 0), None
#     Edge 97, Type (0, 0), None
#     Edge 98, Type (0, 0), None
#     Edge 99, Type (0, 0), None
#     Edge 100, Type (0, 0), None
#     Edge 101, Type (0, 0), None
#     Edge 102, Type (0, 0), None
#     Edge 103, Type (0, 0), None
#     Edge 104, Type (0, 0), None
#     Edge 105, Type (0, 0), None
#     Edge 106, Type (0, 0), None
#     Edge 107, Type (0, 0), None
#     Edge 108, Type (0, 0), None
#     Edge 109, Type (0, 0), None
#     Edge 110, Type (0, 0), None
#     Edge 111, Type (0, 0), None
#     Edge 112, Type (0, 0), None
#     Edge 113, Type (0, 0), None
#     Edge 114, Type (0, 0), None
#     Edge 115, Type (0, 0), None
#     Edge 116, Type (0, 0), None
#     Edge 117, Type (0, 0), None
#     Edge 118, Type (0, 0), None
#     Edge 119, Type (0, 0), None
#     Edge 120, Type (0, 0), None
#     Edge 121, Type (0, 0), None
#     Edge 122, Type (0, 0), None
#     Edge 123, Type (0, 0), None
#     Edge 124, Type (0, 0), None
#     Edge 125, Type (0, 0), None
#     Edge 126, Type (0, 0), None
#     Edge 127, Type (0, 0), None
#     Edge 128, Type (0, 0), None
#     Edge 129, Type (0, 0), None
#     Edge 130, Type (0, 0), None
#     Edge 131, Type (0, 0), None
#     Edge 132, Type (0, 0), None
#     Edge 133, Type (0, 0), None
#     Edge 134, Type (0, 0), None
#     Edge 135, Type (0, 0), None
#     Edge 136, Type (0, 0), None
#     Edge 137, Type (0, 0), None
#     Edge 138, Type (0, 0), None
#     Edge 139, Type (0, 0), None
#     Edge 140, Type (0, 0), None
#     Edge 141, Type (0, 0), None
#     Edge 142, Type (0, 0), None
#     Edge 143, Type (0, 0), None
#     Edge 144, Type (0, 0), None
#     Edge 145, Type (0, 0), None
#     Edge 146, Type (0, 0), None
#     Edge 147, Type (0, 0), None
#     Edge 148, Type (0, 0), None
#     Edge 149, Type (0, 0), None
#     Edge 150, Type (0, 0), None
#     Edge 151, Type (0, 0), None
#     Edge 152, Type (0, 0), None
#     Edge 153, Type (0, 0), None
#     Edge 154, Type (0, 0), None
#     Edge 155, Type (0, 0), None
#     Edge 156, Type (0, 0), None
#     Edge 157, Type (0, 0), None
#     Edge 158, Type (0, 0), None
#     Edge 159, Type (0, 0), None
#     Edge 160, Type (0, 0), None
#     Edge 161, Type (0, 0), None
#     Edge 162, Type (0, 0), None
#     Edge 163, Type (0, 0), None
#     Edge 164, Type (0, 0), None
#     Edge 165, Type (0, 0), None
#     Edge 166, Type (0, 0), None
#     Edge 167, Type (0, 0), None
#     Edge 168, Type (0, 0), None
#     Edge 169, Type (0, 0), None
#     Edge 170, Type (0, 0), None
#     Edge 171, Type (0, 0), None
#     Edge 172, Type (0, 0), None
#     Edge 173, Type (0, 0), None
#     Edge 174, Type (0, 0), None
#     Edge 175, Type (0, 0), None
#     Edge 176, Type (0, 0), None
#     Edge 177, Type (0, 0), None
#     Edge 178, Type (0, 0), None
#     Edge 179, Type (0, 0), None
#     Edge 180, Type (0, 0), None
#     Edge 181, Type (0, 0), None
#     Edge 182, Type (0, 0), None
#     Edge 183, Type (0, 0), None
#     Edge 184, Type (0, 0), None
#     Edge 185, Type (0, 0), None
#     Edge 186, Type (0, 0), None
#     Edge 187, Type (0, 0), None
#     Edge 188, Type (0, 0), None
#     Edge 189, Type (0, 0), None
#     Edge 190, Type (0, 0), None
#     Edge 191, Type (0, 0), None
#     Edge 192, Type (0, 0), None
#     Edge 193, Type (0, 0), None
#     Edge 194, Type (0, 0), None
#     Edge 195, Type (0, 0), None
#     Edge 196, Type (0, 0), None
#     Edge 197, Type (0, 0), None
#     Edge 198, Type (0, 0), None
#     Edge 199, Type (0, 0), None
#     Edge 200, Type (0, 0), None
#     Edge 201, Type (0, 0), None
#     Edge 202, Type (0, 0), None
#     Edge 203, Type (0, 0), None
#     Edge 204, Type (0, 0), None
#     Edge 205, Type (0, 0), None
#     Edge 206, Type (0, 0), None
#     Edge 207, Type (0, 0), None
#     Edge 208, Type (0, 0), None
#     Edge 209, Type (0, 0), None
#     Edge 210, Type (0, 0), None
#     Edge 211, Type (0, 0), None
#     Edge 212, Type (0, 0), None
#     Edge 213, Type (0, 0), None
#     Edge 214, Type (0, 0), None
#     Edge 215, Type (0, 0), None
#     Edge 216, Type (0, 0), None
#     Edge 217, Type (0, 0), None
#     Edge 218, Type (0, 0), None
#     Edge 219, Type (0, 0), None
#     Edge 220, Type (0, 0), None
#     Edge 221, Type (0, 0), None
#     Edge 222, Type (0, 0), None
#     Edge 223, Type (0, 0), None
#     Edge 224, Type (0, 0), None
#     Edge 225, Type (0, 0), None
#     Edge 226, Type (0, 0), None
#     Edge 227, Type (0, 0), None
#     Edge 228, Type (0, 0), None
#     Edge 229, Type (0, 0), None
#     Edge 230, Type (0, 0), None
#     Edge 231, Type (0, 0), None
#     Edge 232, Type (0, 0), None
#     Edge 233, Type (0, 0), None
#     Edge 234, Type (0, 0), None
#     Edge 235, Type (0, 0), None
#     Edge 236, Type (0, 0), None
#     Edge 237, Type (0, 0), None
#     Edge 238, Type (0, 0), None
#     Edge 239, Type (0, 0), None
# Relax obj value: 0.012
# Max RMSD: 0.074
# Mean RMSD: 0.050
data_MOF--net-lcs-f--node1-OLANEW_clean_sbu_2--edge1-none
_symmetry_space_group_name_H-M    P1
_symmetry_Int_Tables_number       1
_symmetry_cell_setting            triclinic
loop_
_symmetry_equiv_pos_as_xyz
'x, y, z'
_cell_length_a     64.534
_cell_length_b     53.557
_cell_length_c     56.184
_cell_angle_alpha  88.582
_cell_angle_beta   89.999
_cell_angle_gamma 89.998001
loop_
_atom_site_label
_atom_site_type_symbol
_atom_site_fract_x
_atom_site_fract_y
_atom_site_fract_z
_atom_type_partial_charge
O0 O 0.07977 0.23746 0.3639 0.0
Cd1 Cd 0.06804 0.1955 0.35428 0.0
O2 O 0.04925 0.2412 0.37999 0.0
Cd3 Cd 0.02048 0.24971 0.39903 0.0
O4 O 0.99375 0.22734 0.41121 0.0
C5 C 0.99926 0.20521 0.4169 0.0
O6 O 0.01903 0.19945 0.41591 0.0
C7 C 0.06677 0.25083 0.37479 0.0
C8 C 0.08179 0.15937 0.387 0.0
O9 O 0.09176 0.16376 0.36764 0.0
O10 O 0.06538 0.17204 0.39103 0.0
O11 O 0.06637 0.80777 0.62561 0.0
Cd12 Cd 0.07918 0.84827 0.61079 0.0
O13 O 0.07614 0.79052 0.59225 0.0
Cd14 Cd 0.07285 0.82652 0.5738 0.0
O15 O 0.04249 0.84381 0.56825 0.0
C16 C 0.02768 0.82871 0.57255 0.0
O17 O 0.03193 0.80549 0.57882 0.0
C18 C 0.06951 0.78834 0.6135 0.0
C19 C 0.11258 0.86629 0.63669 0.0
O20 O 0.11495 0.84834 0.62231 0.0
O21 O 0.09446 0.87565 0.63909 0.0
O22 O 0.37581 0.76357 0.88766 0.0
Cd23 Cd 0.34522 0.78682 0.87427 0.0
O24 O 0.39004 0.79967 0.89539 0.0
Cd25 Cd 0.41751 0.82132 0.90375 0.0
O26 O 0.45111 0.82378 0.90336 0.0
C27 C 0.46009 0.80981 0.8886 0.0
O28 O 0.44889 0.79602 0.87449 0.0
C29 C 0.39123 0.77599 0.89492 0.0
C30 C 0.33475 0.82423 0.90559 0.0
O31 O 0.32583 0.80287 0.90693 0.0
O32 O 0.34854 0.82798 0.8895 0.0
O33 O 0.47335 0.14804 0.09891 0.0
Cd34 Cd 0.44418 0.12376 0.08422 0.0
O35 O 0.45553 0.18052 0.08637 0.0
Cd36 Cd 0.4484 0.21998 0.07945 0.0
O37 O 0.43687 0.25625 0.06644 0.0
C38 C 0.41984 0.25765 0.05512 0.0
O39 O 0.40916 0.23721 0.05155 0.0
C40 C 0.47169 0.17158 0.09636 0.0
C41 C 0.41645 0.11057 0.12038 0.0
O42 O 0.4302 0.09507 0.11351 0.0
O43 O 0.41578 0.13226 0.11029 0.0
O44 O 0.08069 0.76456 0.12409 0.0
Cd45 Cd 0.07004 0.80795 0.12887 0.0
O46 O 0.04835 0.75927 0.11438 0.0
Cd47 Cd 0.01714 0.74924 0.10236 0.0
O48 O 0.9899 0.77235 0.09348 0.0
C49 C 0.99546 0.79446 0.0878 0.0
O50 O 0.01534 0.79973 0.08724 0.0
C51 C 0.06628 0.74995 0.11786 0.0
C52 C 0.08064 0.83872 0.09015 0.0
O53 O 0.09209 0.83763 0.10877 0.0
O54 O 0.06427 0.82521 0.08968 0.0
O55 O 0.49815 0.82325 0.38123 0.0
Cd56 Cd 0.47048 0.85036 0.39539 0.0
O57 O 0.47532 0.79334 0.38579 0.0
Cd58 Cd 0.46342 0.75507 0.38737 0.0
O59 O 0.44737 0.71939 0.39268 0.0
C60 C 0.4277 0.71803 0.39259 0.0
O61 O 0.4167 0.73839 0.38891 0.0
C62 C 0.49369 0.80017 0.38061 0.0
C63 C 0.44169 0.86592 0.36125 0.0
O64 O 0.45664 0.88024 0.36716 0.0
O65 O 0.44055 0.8441 0.37102 0.0
O66 O 0.38012 0.23253 0.60172 0.0
Cd67 Cd 0.35029 0.20773 0.61502 0.0
O68 O 0.39443 0.1979 0.5897 0.0
Cd69 Cd 0.42203 0.17794 0.57863 0.0
O70 O 0.45559 0.17659 0.58122 0.0
C71 C 0.46312 0.189 0.59814 0.0
O72 O 0.45058 0.20054 0.61264 0.0
C73 C 0.3954 0.22135 0.59256 0.0
C74 C 0.34307 0.1666 0.58683 0.0
O75 O 0.33294 0.18694 0.58337 0.0
O76 O 0.35664 0.16565 0.60346 0.0
O77 O 0.06364 0.25144 0.80972 0.0
Cd78 Cd 0.07929 0.22618 0.77905 0.0
O79 O 0.05843 0.21661 0.8302 0.0
Cd80 Cd 0.04574 0.19595 0.86084 0.0
O81 O 0.02419 0.18578 0.88929 0.0
C82 C 0.00699 0.19729 0.88873 0.0
O83 O 0.00342 0.21384 0.87158 0.0
C84 C 0.05691 0.24025 0.82835 0.0
C85 C 0.09649 0.18277 0.79879 0.0
O86 O 0.10735 0.20269 0.7963 0.0
O87 O 0.07757 0.18326 0.79192 0.0
O88 O 0.38898 0.08369 0.21344 0.0
Cd89 Cd 0.37302 0.09012 0.1743 0.0
O90 O 0.3987 0.04779 0.19952 0.0
Cd91 Cd 0.41336 0.01102 0.19943 0.0
O92 O 0.42307 0.97665 0.18252 0.0
C93 C 0.42825 0.97905 0.16078 0.0
O94 O 0.42813 0.00141 0.15062 0.0
C95 C 0.39825 0.06295 0.21655 0.0
C96 C 0.40165 0.10356 0.13917 0.0
O97 O 0.3907 0.12018 0.14932 0.0
O98 O 0.39921 0.08065 0.14562 0.0
O99 O 0.13306 0.11796 0.45833 0.0
Cd100 Cd 0.10269 0.10376 0.43659 0.0
O101 O 0.15037 0.11364 0.42509 0.0
Cd102 Cd 0.17992 0.11283 0.40647 0.0
O103 O 0.21355 0.11173 0.40777 0.0
C104 C 0.22147 0.10106 0.42605 0.0
O105 O 0.20933 0.09055 0.44215 0.0
C106 C 0.14998 0.11956 0.44686 0.0
C107 C 0.08896 0.14019 0.40414 0.0
O108 O 0.08081 0.13809 0.42488 0.0
O109 O 0.10351 0.12511 0.39866 0.0
O110 O 0.15944 0.90396 0.71426 0.0
Cd111 Cd 0.16484 0.89633 0.672 0.0
O112 O 0.16012 0.94265 0.70116 0.0
Cd113 Cd 0.15813 0.98336 0.70111 0.0
O114 O 0.15394 0.02167 0.68758 0.0
C115 C 0.15472 0.02607 0.66526 0.0
O116 O 0.15836 0.00764 0.65084 0.0
C117 C 0.15816 0.9271 0.71848 0.0
C118 C 0.13035 0.8764 0.64947 0.0
O119 O 0.14602 0.86263 0.65467 0.0
O120 O 0.13081 0.89941 0.65507 0.0
O121 O 0.32974 0.87418 0.99335 0.0
Cd122 Cd 0.31831 0.88201 0.95237 0.0
O123 O 0.29747 0.86383 0.99899 0.0
Cd124 Cd 0.26595 0.85138 0.00816 0.0
O125 O 0.23995 0.84721 0.98321 0.0
C126 C 0.24635 0.83902 0.96349 0.0
O127 O 0.26597 0.83281 0.96159 0.0
C128 C 0.31554 0.86688 0.00753 0.0
C129 C 0.32919 0.84403 0.92193 0.0
O130 O 0.34037 0.86371 0.92333 0.0
O131 O 0.31296 0.84215 0.93497 0.0
O132 O 0.40477 0.90131 0.27416 0.0
Cd133 Cd 0.39381 0.89186 0.315 0.0
O134 O 0.4103 0.9389 0.28709 0.0
Cd135 Cd 0.41927 0.97828 0.28569 0.0
O136 O 0.42623 0.01431 0.30132 0.0
C137 C 0.43387 0.01316 0.32214 0.0
O138 O 0.43754 0.99116 0.33212 0.0
C139 C 0.41045 0.92372 0.27007 0.0
C140 C 0.42568 0.87472 0.34455 0.0
O141 O 0.41306 0.85935 0.33515 0.0
O142 O 0.42347 0.89808 0.33981 0.0
O143 O 0.34023 0.10789 0.50401 0.0
Cd144 Cd 0.33064 0.10266 0.54592 0.0
O145 O 0.30735 0.11592 0.49924 0.0
Cd146 Cd 0.27638 0.12765 0.48718 0.0
O147 O 0.24687 0.14101 0.50181 0.0
C148 C 0.24925 0.15017 0.52228 0.0
O149 O 0.26798 0.15097 0.5314 0.0
C150 C 0.32528 0.1134 0.49015 0.0
C151 C 0.33897 0.14474 0.57239 0.0
O152 O 0.35157 0.12625 0.5725 0.0
O153 O 0.32253 0.14351 0.5597 0.0
O154 O 0.1345 0.0936 0.78814 0.0
Cd155 Cd 0.12373 0.11495 0.82382 0.0
O156 O 0.13303 0.05549 0.80344 0.0
Cd157 Cd 0.13511 0.01474 0.8023 0.0
O158 O 0.13649 0.97551 0.81387 0.0
C159 C 0.13114 0.97156 0.83537 0.0
O160 O 0.12521 0.99052 0.84811 0.0
C161 C 0.13627 0.07018 0.78574 0.0
C162 C 0.1057 0.15968 0.8085 0.0
O163 O 0.12501 0.15866 0.81375 0.0
O164 O 0.09477 0.13986 0.81119 0.0
O165 O 0.12661 0.8731 0.01017 0.0
Cd166 Cd 0.09602 0.88714 0.03175 0.0
O167 O 0.13905 0.85989 0.04455 0.0
Cd168 Cd 0.16497 0.84659 0.06612 0.0
O169 O 0.19832 0.84446 0.07082 0.0
C170 C 0.20856 0.86104 0.05934 0.0
O171 O 0.19864 0.87817 0.04667 0.0
C172 C 0.14117 0.86297 0.02216 0.0
C173 C 0.08602 0.85528 0.06994 0.0
O174 O 0.07696 0.8532 0.0498 0.0
O175 O 0.09976 0.87232 0.07211 0.0
O176 O 0.22706 0.36266 0.10548 0.0
Cd177 Cd 0.20033 0.34273 0.1302 0.0
O178 O 0.20914 0.34852 0.07566 0.0
Cd179 Cd 0.20116 0.34196 0.0385 0.0
O180 O 0.18939 0.32833 0.00471 0.0
C181 C 0.17331 0.31465 0.0045 0.0
O182 O 0.16382 0.30911 0.02463 0.0
C183 C 0.22465 0.36067 0.08318 0.0
C184 C 0.1695 0.37636 0.14262 0.0
O185 O 0.18423 0.37087 0.15712 0.0
O186 O 0.16928 0.36604 0.12231 0.0
O187 O 0.72637 0.13787 0.89482 0.0
Cd188 Cd 0.69943 0.15793 0.8705 0.0
O189 O 0.70872 0.1517 0.925 0.0
Cd190 Cd 0.70108 0.15787 0.96233 0.0
O191 O 0.68972 0.17109 0.99646 0.0
C192 C 0.6736 0.18468 0.9971 0.0
O193 O 0.6638 0.19038 0.97722 0.0
C194 C 0.72416 0.13965 0.91717 0.0
C195 C 0.66868 0.12423 0.85799 0.0
O196 O 0.68333 0.12991 0.84346 0.0
O197 O 0.66849 0.13441 0.87838 0.0
O198 O 0.13534 0.46973 0.16574 0.0
Cd199 Cd 0.12213 0.42727 0.16166 0.0
O200 O 0.14476 0.45646 0.20121 0.0
Cd201 Cd 0.15859 0.45812 0.23665 0.0
O202 O 0.16878 0.44199 0.27075 0.0
C203 C 0.17635 0.42015 0.26993 0.0
O204 O 0.17821 0.40956 0.24919 0.0
C205 C 0.14385 0.474 0.18561 0.0
C206 C 0.15321 0.39399 0.14916 0.0
O207 O 0.14107 0.40347 0.13333 0.0
O208 O 0.15076 0.40018 0.17085 0.0
O209 O 0.80948 0.96848 0.49714 0.0
Cd210 Cd 0.82502 0.00052 0.47124 0.0
O211 O 0.79661 0.95039 0.46575 0.0
Cd212 Cd 0.77617 0.92249 0.45053 0.0
O213 O 0.74731 0.90195 0.44623 0.0
C214 C 0.73125 0.91237 0.45449 0.0
O215 O 0.73298 0.93421 0.46442 0.0
C216 C 0.7991 0.9509 0.48818 0.0
C217 C 0.85104 0.97941 0.43779 0.0
O218 O 0.85787 0.98512 0.45836 0.0
O219 O 0.83196 0.98369 0.43292 0.0
O220 O 0.90123 0.01099 0.13434 0.0
Cd221 Cd 0.8828 0.04375 0.11209 0.0
O222 O 0.88122 0.0169 0.16496 0.0
Cd223 Cd 0.86434 0.01888 0.19867 0.0
O224 O 0.83643 0.03092 0.21759 0.0
C225 C 0.83523 0.03642 0.23943 0.0
O226 O 0.81718 0.04264 0.24832 0.0
C227 C 0.89597 0.00489 0.15548 0.0
C228 C 0.85915 0.02335 0.07604 0.0
O229 O 0.87804 0.02969 0.07235 0.0
O230 O 0.85133 0.02678 0.09667 0.0
O231 O 0.32856 0.53316 0.48174 0.0
Cd232 Cd 0.34853 0.5011 0.50313 0.0
O233 O 0.32084 0.54883 0.51635 0.0
Cd234 Cd 0.30295 0.57457 0.53771 0.0
O235 O 0.27399 0.59194 0.54828 0.0
C236 C 0.25795 0.58271 0.5388 0.0
O237 O 0.26001 0.5642 0.52407 0.0
C238 C 0.31943 0.54964 0.49377 0.0
C239 C 0.36318 0.51905 0.54602 0.0
O240 O 0.37393 0.52146 0.52693 0.0
O241 O 0.3456 0.50801 0.54497 0.0
O242 O 0.13959 0.5364 0.33375 0.0
Cd243 Cd 0.12536 0.57819 0.33938 0.0
O244 O 0.14737 0.5499 0.2978 0.0
Cd245 Cd 0.15969 0.54843 0.26161 0.0
O246 O 0.16851 0.56412 0.22681 0.0
C247 C 0.17718 0.5854 0.22696 0.0
O248 O 0.18093 0.59577 0.24746 0.0
C249 C 0.14733 0.53234 0.31342 0.0
C250 C 0.15462 0.6119 0.35581 0.0
O251 O 0.14248 0.6003 0.37035 0.0
O252 O 0.15308 0.60753 0.33357 0.0
O253 O 0.40373 0.48721 0.86603 0.0
Cd254 Cd 0.38526 0.45438 0.88815 0.0
O255 O 0.38283 0.4826 0.83596 0.0
Cd256 Cd 0.36482 0.48183 0.80295 0.0
O257 O 0.33607 0.47118 0.78487 0.0
C258 C 0.33416 0.46569 0.76309 0.0
O259 O 0.31571 0.46034 0.75478 0.0
C260 C 0.39802 0.49402 0.84523 0.0
C261 C 0.36051 0.47494 0.92314 0.0
O262 O 0.3794 0.46907 0.92748 0.0
O263 O 0.3532 0.47096 0.90237 0.0
O264 O 0.8936 0.82149 0.58784 0.0
Cd265 Cd 0.8815 0.86185 0.57203 0.0
O266 O 0.92511 0.83425 0.57952 0.0
Cd267 Cd 0.95877 0.83009 0.5773 0.0
O268 O 0.99179 0.82127 0.57686 0.0
C269 C 0.006 0.83682 0.57141 0.0
O270 O 0.00123 0.85998 0.56547 0.0
C271 C 0.91299 0.81734 0.5876 0.0
C272 C 0.84126 0.86198 0.55398 0.0
O273 O 0.85656 0.85486 0.5413 0.0
O274 O 0.8448 0.86856 0.57536 0.0
O275 O 0.99097 0.16384 0.42873 0.0
Cd276 Cd 0.96716 0.12916 0.43649 0.0
O277 O 0.96476 0.18909 0.42267 0.0
Cd278 Cd 0.94641 0.22216 0.41293 0.0
O279 O 0.9182 0.24326 0.40398 0.0
C280 C 0.91416 0.26381 0.41379 0.0
O281 O 0.92713 0.27261 0.4295 0.0
C282 C 0.98424 0.18554 0.42332 0.0
C283 C 0.96094 0.10155 0.39569 0.0
O284 O 0.97597 0.09647 0.4099 0.0
O285 O 0.94878 0.11958 0.4007 0.0
O286 O 0.54616 0.25635 0.13488 0.0
Cd287 Cd 0.53964 0.23306 0.09887 0.0
O288 O 0.54406 0.22323 0.15873 0.0
Cd289 Cd 0.52743 0.20155 0.13233 0.0
O290 O 0.50405 0.17846 0.11517 0.0
C291 C 0.48798 0.18796 0.10548 0.0
O292 O 0.48556 0.21231 0.10486 0.0
C293 C 0.54853 0.24615 0.15534 0.0
C294 C 0.57845 0.22814 0.07783 0.0
O295 O 0.56677 0.24678 0.07249 0.0
O296 O 0.57149 0.21122 0.09223 0.0
O297 O 0.59 0.78308 0.88817 0.0
Cd298 Cd 0.59772 0.82778 0.88729 0.0
O299 O 0.55757 0.79368 0.88358 0.0
Cd300 Cd 0.52492 0.78966 0.87556 0.0
O301 O 0.49141 0.79271 0.87438 0.0
C302 C 0.48268 0.80803 0.88806 0.0
O303 O 0.494 0.82151 0.90231 0.0
C304 C 0.57123 0.77667 0.88532 0.0
C305 C 0.63548 0.8375 0.8649 0.0
O306 O 0.63395 0.83841 0.88759 0.0
O307 O 0.61931 0.8322 0.85284 0.0
O308 O 0.89582 0.21864 0.97076 0.0
Cd309 Cd 0.88623 0.17842 0.98906 0.0
O310 O 0.92197 0.19927 0.95448 0.0
Cd311 Cd 0.94962 0.19835 0.93214 0.0
O312 O 0.97411 0.20409 0.90591 0.0
C313 C 0.99119 0.19236 0.90694 0.0
O314 O 0.99457 0.17601 0.92431 0.0
C315 C 0.91201 0.21936 0.9579 0.0
C316 C 0.84554 0.16293 0.98197 0.0
O317 O 0.8503 0.17623 0.99981 0.0
O318 O 0.85982 0.15751 0.96711 0.0
O319 O 0.5919 0.21722 0.61936 0.0
Cd320 Cd 0.60048 0.17297 0.61607 0.0
O321 O 0.55948 0.20598 0.6171 0.0
Cd322 Cd 0.52612 0.2086 0.62044 0.0
O323 O 0.49277 0.2049 0.61731 0.0
C324 C 0.48553 0.1913 0.60109 0.0
O325 O 0.49822 0.17992 0.58667 0.0
C326 C 0.57283 0.22307 0.61988 0.0
C327 C 0.63745 0.16131 0.63941 0.0
O328 O 0.63677 0.16264 0.61664 0.0
O329 O 0.62081 0.16535 0.6511 0.0
O330 O 0.57057 0.72537 0.40833 0.0
Cd331 Cd 0.54336 0.75681 0.41026 0.0
O332 O 0.58103 0.73768 0.37262 0.0
Cd333 Cd 0.55431 0.76279 0.3683 0.0
O334 O 0.5284 0.7891 0.37166 0.0
C335 C 0.5099 0.78181 0.3754 0.0
O336 O 0.50578 0.7578 0.37651 0.0
C337 C 0.58324 0.72373 0.39111 0.0
C338 C 0.55903 0.79898 0.43212 0.0
O339 O 0.56193 0.7956 0.40989 0.0
O340 O 0.5485 0.78271 0.44404 0.0
O341 O 0.98727 0.83606 0.07666 0.0
Cd342 Cd 0.96342 0.87087 0.06978 0.0
O343 O 0.961 0.8114 0.08441 0.0
Cd344 Cd 0.94253 0.77881 0.09515 0.0
O345 O 0.91394 0.75918 0.10537 0.0
C346 C 0.91026 0.73726 0.09838 0.0
O347 O 0.92379 0.72618 0.08477 0.0
C348 C 0.98047 0.81452 0.08255 0.0
C349 C 0.95668 0.89758 0.111 0.0
O350 O 0.97181 0.90305 0.09707 0.0
O351 O 0.94472 0.87949 0.10558 0.0
O352 O 0.68814 0.87902 0.79512 0.0
Cd353 Cd 0.69277 0.85084 0.82954 0.0
O354 O 0.67684 0.91003 0.81644 0.0
Cd355 Cd 0.66393 0.94742 0.82072 0.0
O356 O 0.65107 0.98448 0.82661 0.0
C357 C 0.65198 0.00157 0.81055 0.0
O358 O 0.66073 0.99692 0.79003 0.0
C359 C 0.68103 0.90107 0.79626 0.0
C360 C 0.6553 0.84213 0.85292 0.0
O361 O 0.65939 0.83173 0.8332 0.0
O362 O 0.66888 0.85664 0.86182 0.0
O363 O 0.78702 0.90961 0.49549 0.0
Cd364 Cd 0.78227 0.87286 0.52161 0.0
O365 O 0.78746 0.93503 0.52566 0.0
Cd366 Cd 0.77111 0.90781 0.54839 0.0
O367 O 0.75001 0.88445 0.56974 0.0
C368 C 0.73265 0.8775 0.56149 0.0
O369 O 0.7274 0.88399 0.53963 0.0
C370 C 0.7904 0.93112 0.5037 0.0
C371 C 0.82045 0.86418 0.54364 0.0
O372 O 0.81653 0.8555 0.52309 0.0
O373 O 0.80615 0.87617 0.55427 0.0
O374 O 0.93159 0.0205 0.34551 0.0
Cd375 Cd 0.95099 0.05815 0.33432 0.0
O376 O 0.90677 0.02941 0.3203 0.0
Cd377 Cd 0.87757 0.0302 0.30105 0.0
O378 O 0.85108 0.03552 0.27743 0.0
C379 C 0.8534 0.0347 0.25501 0.0
O380 O 0.8719 0.03087 0.24609 0.0
C381 C 0.91416 0.01501 0.33652 0.0
C382 C 0.95764 0.08687 0.37433 0.0
O383 O 0.94183 0.09076 0.36096 0.0
O384 O 0.97042 0.06969 0.36873 0.0
O385 O 0.65123 0.21001 0.01982 0.0
Cd386 Cd 0.64186 0.2285 0.05764 0.0
O387 O 0.67585 0.18981 0.03909 0.0
Cd388 Cd 0.70194 0.16386 0.04089 0.0
O389 O 0.72467 0.13422 0.03661 0.0
C390 C 0.7416 0.1334 0.04812 0.0
O391 O 0.74594 0.15088 0.06332 0.0
C392 C 0.66654 0.19511 0.01966 0.0
C393 C 0.59993 0.22731 0.06934 0.0
O394 O 0.60749 0.24548 0.05687 0.0
O395 O 0.61198 0.20936 0.07574 0.0
O396 O 0.68748 0.11587 0.70991 0.0
Cd397 Cd 0.69346 0.14482 0.67632 0.0
O398 O 0.67786 0.08449 0.68799 0.0
Cd399 Cd 0.66588 0.04672 0.68313 0.0
O400 O 0.65328 0.00957 0.67687 0.0
C401 C 0.65392 0.99243 0.69289 0.0
O402 O 0.66229 0.99702 0.71363 0.0
C403 C 0.68092 0.09361 0.70837 0.0
C404 C 0.65683 0.1556 0.65193 0.0
O405 O 0.6605 0.16492 0.67226 0.0
O406 O 0.67041 0.14119 0.64291 0.0
O407 O 0.61298 0.85377 0.49219 0.0
Cd408 Cd 0.58386 0.86288 0.46533 0.0
O409 O 0.63455 0.876 0.4701 0.0
Cd410 Cd 0.66483 0.89291 0.46305 0.0
O411 O 0.69521 0.91073 0.46214 0.0
C412 C 0.71103 0.9 0.45365 0.0
O413 O 0.70924 0.87765 0.44477 0.0
C414 C 0.631 0.86271 0.48873 0.0
C415 C 0.56766 0.82094 0.44364 0.0
O416 O 0.581 0.83486 0.43286 0.0
O417 O 0.56207 0.8266 0.4647 0.0
O418 O 0.92461 0.97782 0.15843 0.0
Cd419 Cd 0.94462 0.94135 0.17161 0.0
O420 O 0.90061 0.97219 0.18549 0.0
Cd421 Cd 0.87157 0.97466 0.20497 0.0
O422 O 0.84583 0.97443 0.23012 0.0
C423 C 0.84938 0.97488 0.25235 0.0
O424 O 0.86859 0.97509 0.26005 0.0
C425 C 0.90757 0.98456 0.16761 0.0
C426 C 0.95283 0.91214 0.13232 0.0
O427 O 0.93682 0.90796 0.1453 0.0
O428 O 0.96516 0.92973 0.13809 0.0
O429 O 0.79265 0.08829 0.001 0.0
Cd430 Cd 0.78685 0.12737 0.97873 0.0
O431 O 0.78987 0.06421 0.97 0.0
Cd432 Cd 0.7752 0.09373 0.94831 0.0
O433 O 0.75426 0.11539 0.92513 0.0
C434 C 0.73898 0.12733 0.93348 0.0
O435 O 0.73597 0.12746 0.95658 0.0
C436 C 0.79425 0.06695 0.99182 0.0
C437 C 0.82468 0.15237 0.97973 0.0
O438 O 0.81091 0.15608 0.99568 0.0
O439 O 0.82031 0.13774 0.96275 0.0
O440 O 0.83849 0.63774 0.96178 0.0
Cd441 Cd 0.84742 0.63607 0.91956 0.0
O442 O 0.80617 0.63317 0.95131 0.0
Cd443 Cd 0.77344 0.62519 0.95519 0.0
O444 O 0.73992 0.6228 0.9535 0.0
C445 C 0.73016 0.63886 0.94085 0.0
O446 O 0.74045 0.65639 0.92913 0.0
C447 C 0.8196 0.63508 0.96768 0.0
C448 C 0.88462 0.61063 0.9133 0.0
O449 O 0.884 0.6345 0.91143 0.0
O450 O 0.8678 0.59882 0.91792 0.0
O451 O 0.33952 0.85922 0.03871 0.0
Cd452 Cd 0.34825 0.85959 0.08103 0.0
O453 O 0.30721 0.86411 0.04914 0.0
Cd454 Cd 0.27467 0.87308 0.04494 0.0
O455 O 0.24117 0.87596 0.0461 0.0
C456 C 0.23119 0.8604 0.05908 0.0
O457 O 0.24126 0.84317 0.07146 0.0
C458 C 0.32068 0.86242 0.0328 0.0
C459 C 0.38502 0.88564 0.08806 0.0
O460 O 0.38477 0.86173 0.08936 0.0
O461 O 0.36803 0.89719 0.08369 0.0
O462 O 0.93744 0.53677 0.87796 0.0
Cd463 Cd 0.94114 0.57085 0.90575 0.0
O464 O 0.92812 0.56191 0.84842 0.0
Cd465 Cd 0.91682 0.56972 0.81231 0.0
O466 O 0.904 0.57977 0.77742 0.0
C467 C 0.90457 0.5649 0.76016 0.0
O468 O 0.91312 0.54279 0.76311 0.0
C469 C 0.93147 0.53992 0.85656 0.0
C470 C 0.90415 0.59707 0.91058 0.0
O471 O 0.90673 0.57567 0.92081 0.0
O472 O 0.919 0.60629 0.89805 0.0
O473 O 0.23554 0.17149 0.55508 0.0
Cd474 Cd 0.20554 0.18737 0.57642 0.0
O475 O 0.21307 0.15805 0.52936 0.0
Cd476 Cd 0.19825 0.13964 0.49955 0.0
O477 O 0.17048 0.12634 0.48127 0.0
C478 C 0.16898 0.12785 0.45876 0.0
O479 O 0.18431 0.13755 0.44628 0.0
C480 C 0.23184 0.16032 0.53586 0.0
C481 C 0.17988 0.14937 0.59405 0.0
O482 O 0.19348 0.15935 0.60744 0.0
O483 O 0.17847 0.15713 0.57236 0.0
O484 O 0.12817 0.94403 0.8686 0.0
Cd485 Cd 0.13 0.90586 0.89336 0.0
O486 O 0.13791 0.92767 0.83486 0.0
Cd487 Cd 0.14543 0.92847 0.7967 0.0
O488 O 0.15199 0.91926 0.75961 0.0
C489 C 0.15417 0.93539 0.74281 0.0
O490 O 0.15258 0.95926 0.74725 0.0
C491 C 0.13239 0.94657 0.84658 0.0
C492 C 0.16745 0.88058 0.88936 0.0
O493 O 0.16617 0.90056 0.90131 0.0
O494 O 0.15112 0.87251 0.87911 0.0
O495 O 0.73226 0.33536 0.44233 0.0
Cd496 Cd 0.70104 0.32211 0.42159 0.0
O497 O 0.71084 0.34744 0.46977 0.0
Cd498 Cd 0.69707 0.36386 0.50126 0.0
O499 O 0.66968 0.37632 0.5208 0.0
C500 C 0.6685 0.37359 0.54326 0.0
O501 O 0.68392 0.36308 0.55497 0.0
C502 C 0.72936 0.34517 0.46241 0.0
C503 C 0.67655 0.3622 0.40615 0.0
O504 O 0.689 0.35161 0.39179 0.0
O505 O 0.67573 0.35406 0.42775 0.0
O506 O 0.93789 0.47039 0.64546 0.0
Cd507 Cd 0.94468 0.43732 0.61725 0.0
O508 O 0.92927 0.44484 0.67501 0.0
Cd509 Cd 0.91775 0.43649 0.71097 0.0
O510 O 0.90454 0.42652 0.74573 0.0
C511 C 0.9055 0.44133 0.76301 0.0
O512 O 0.91469 0.46307 0.76008 0.0
C513 C 0.93166 0.46696 0.66674 0.0
C514 C 0.90838 0.41298 0.6043 0.0
O515 O 0.91282 0.43465 0.59563 0.0
O516 O 0.92103 0.40262 0.61908 0.0
O517 O 0.62049 0.55663 0.13093 0.0
Cd518 Cd 0.62339 0.59438 0.10573 0.0
O519 O 0.6347 0.57285 0.16256 0.0
Cd520 Cd 0.64661 0.57225 0.1992 0.0
O521 O 0.66087 0.58249 0.23301 0.0
C522 C 0.66236 0.56826 0.25139 0.0
O523 O 0.655 0.54542 0.25098 0.0
C524 C 0.62681 0.55422 0.15228 0.0
C525 C 0.66194 0.6172 0.10952 0.0
O526 O 0.65967 0.59745 0.09741 0.0
O527 O 0.64607 0.62626 0.11993 0.0
O528 O 0.58066 0.73577 0.87478 0.0
Cd529 Cd 0.56992 0.69261 0.8688 0.0
O530 O 0.54841 0.74087 0.88497 0.0
Cd531 Cd 0.51737 0.75081 0.89766 0.0
O532 O 0.4901 0.72784 0.9067 0.0
C533 C 0.4956 0.70572 0.91246 0.0
O534 O 0.51547 0.70038 0.91302 0.0
C535 C 0.56634 0.75022 0.88158 0.0
C536 C 0.58007 0.66078 0.90692 0.0
O537 O 0.59172 0.66235 0.88848 0.0
O538 O 0.56371 0.67431 0.90749 0.0
O539 O 0.56384 0.24937 0.19355 0.0
Cd540 Cd 0.57892 0.27442 0.22479 0.0
O541 O 0.55892 0.28419 0.17296 0.0
Cd542 Cd 0.54647 0.30479 0.14214 0.0
O543 O 0.52499 0.31499 0.11361 0.0
C544 C 0.50792 0.30319 0.11387 0.0
O545 O 0.50443 0.28631 0.13075 0.0
C546 C 0.55739 0.26055 0.17479 0.0
C547 C 0.59638 0.3181 0.20596 0.0
O548 O 0.60728 0.29824 0.20864 0.0
O549 O 0.5773 0.31742 0.2122 0.0
O550 O 0.88002 0.26645 0.39806 0.0
Cd551 Cd 0.85028 0.29122 0.38445 0.0
O552 O 0.89415 0.30109 0.41034 0.0
Cd553 Cd 0.9216 0.32111 0.42177 0.0
O554 O 0.95517 0.32256 0.41941 0.0
C555 C 0.96279 0.3102 0.40251 0.0
O556 O 0.95033 0.29865 0.38793 0.0
C557 C 0.8952 0.27766 0.40745 0.0
C558 C 0.843 0.33248 0.41244 0.0
O559 O 0.83283 0.31217 0.41593 0.0
O560 O 0.85662 0.33334 0.39587 0.0
O561 O 0.97166 0.67737 0.62758 0.0
Cd562 Cd 0.94156 0.65539 0.61195 0.0
O563 O 0.95549 0.71113 0.61504 0.0
Cd564 Cd 0.95103 0.75115 0.60742 0.0
O565 O 0.94033 0.7884 0.59593 0.0
C566 C 0.92101 0.79304 0.59617 0.0
O567 O 0.90808 0.77562 0.60365 0.0
C568 C 0.97129 0.70097 0.62476 0.0
C569 C 0.91518 0.63526 0.64655 0.0
O570 O 0.92917 0.62178 0.63703 0.0
O571 O 0.91382 0.6583 0.64005 0.0
O572 O 0.57994 0.2617 0.63755 0.0
Cd573 Cd 0.56827 0.30344 0.64803 0.0
O574 O 0.54942 0.25826 0.62137 0.0
Cd575 Cd 0.52074 0.24992 0.60208 0.0
O576 O 0.49397 0.27219 0.58987 0.0
C577 C 0.49937 0.29445 0.58456 0.0
O578 O 0.51908 0.30042 0.58592 0.0
C579 C 0.56694 0.24855 0.6264 0.0
C580 C 0.58199 0.3403 0.61604 0.0
O581 O 0.59204 0.33538 0.63526 0.0
O582 O 0.56553 0.32781 0.61182 0.0
O583 O 0.97264 0.35276 0.90358 0.0
Cd584 Cd 0.94315 0.37667 0.91797 0.0
O585 O 0.95491 0.32019 0.91606 0.0
Cd586 Cd 0.94789 0.28071 0.92305 0.0
O587 O 0.93626 0.24454 0.93617 0.0
C588 C 0.9193 0.24331 0.94764 0.0
O589 O 0.90879 0.26385 0.9513 0.0
C590 C 0.97108 0.32921 0.90617 0.0
C591 C 0.91504 0.38818 0.88173 0.0
O592 O 0.92841 0.4043 0.88826 0.0
O593 O 0.91491 0.36667 0.89221 0.0
O594 O 0.87547 0.73711 0.11229 0.0
Cd595 Cd 0.84473 0.71424 0.12575 0.0
O596 O 0.8897 0.70084 0.10523 0.0
Cd597 Cd 0.91722 0.67902 0.09742 0.0
O598 O 0.95081 0.67645 0.09788 0.0
C599 C 0.95983 0.69065 0.1124 0.0
O600 O 0.94867 0.70473 0.12629 0.0
C601 C 0.89092 0.72454 0.10536 0.0
C602 C 0.83401 0.67671 0.09469 0.0
O603 O 0.82527 0.69818 0.09316 0.0
O604 O 0.84774 0.67292 0.11083 0.0
O605 O 0.61763 0.71175 0.38138 0.0
Cd606 Cd 0.64914 0.6882 0.39116 0.0
O607 O 0.60171 0.68995 0.40947 0.0
Cd608 Cd 0.57357 0.68101 0.42955 0.0
O609 O 0.54043 0.67647 0.43576 0.0
C610 C 0.52899 0.67797 0.41739 0.0
O611 O 0.53754 0.68185 0.39641 0.0
C612 C 0.60148 0.70745 0.39374 0.0
C613 C 0.66576 0.65881 0.35572 0.0
O614 O 0.6701 0.68211 0.35658 0.0
O615 O 0.65311 0.64948 0.3711 0.0
O616 O 0.88696 0.59379 0.73469 0.0
Cd617 Cd 0.87196 0.60362 0.69569 0.0
O618 O 0.89565 0.558 0.71962 0.0
Cd619 Cd 0.90914 0.52058 0.71857 0.0
O620 O 0.91914 0.48618 0.70185 0.0
C621 C 0.92644 0.48874 0.68094 0.0
O622 O 0.92811 0.51128 0.67137 0.0
C623 C 0.89541 0.57247 0.73721 0.0
C624 C 0.90062 0.6244 0.66393 0.0
O625 O 0.88849 0.63837 0.6758 0.0
O626 O 0.89936 0.60069 0.66713 0.0
O627 O 0.62491 0.62398 0.9869 0.0
Cd628 Cd 0.59467 0.61065 0.96427 0.0
O629 O 0.6378 0.63877 0.9533 0.0
Cd630 Cd 0.66406 0.65308 0.93286 0.0
O631 O 0.69749 0.65533 0.92899 0.0
C632 C 0.70753 0.63837 0.94019 0.0
O633 O 0.6974 0.62086 0.95212 0.0
C634 C 0.63959 0.63471 0.9756 0.0
C635 C 0.5852 0.64365 0.92678 0.0
O636 O 0.57585 0.64511 0.94682 0.0
O637 O 0.59898 0.62669 0.92439 0.0
O638 O 0.63328 0.40905 0.21649 0.0
Cd639 Cd 0.62362 0.38608 0.18127 0.0
O640 O 0.63137 0.44597 0.19874 0.0
Cd641 Cd 0.63272 0.4868 0.19734 0.0
O642 O 0.6336 0.52564 0.1846 0.0
C643 C 0.62556 0.52961 0.16424 0.0
O644 O 0.61724 0.51085 0.15304 0.0
C645 C 0.63458 0.43266 0.21741 0.0
C646 C 0.60567 0.3413 0.19661 0.0
O647 O 0.62511 0.34255 0.19209 0.0
O648 O 0.59462 0.36095 0.19333 0.0
O649 O 0.84008 0.3913 0.49513 0.0
Cd650 Cd 0.83061 0.39654 0.45319 0.0
O651 O 0.80709 0.38397 0.49986 0.0
Cd652 Cd 0.77581 0.37315 0.51163 0.0
O653 O 0.74569 0.36174 0.49705 0.0
C654 C 0.74735 0.35382 0.476 0.0
O655 O 0.76582 0.35296 0.46622 0.0
C656 C 0.82505 0.38616 0.50898 0.0
C657 C 0.8389 0.3544 0.42681 0.0
O658 O 0.85155 0.37284 0.42671 0.0
O659 O 0.82243 0.35571 0.43944 0.0
O660 O 0.88685 0.41339 0.78855 0.0
Cd661 Cd 0.87103 0.40599 0.82764 0.0
O662 O 0.89639 0.44894 0.80335 0.0
Cd663 Cd 0.91072 0.48586 0.80425 0.0
O664 O 0.92 0.52034 0.82124 0.0
C665 C 0.92737 0.51799 0.84213 0.0
O666 O 0.92974 0.49549 0.85159 0.0
C667 C 0.89596 0.43429 0.78592 0.0
C668 C 0.90004 0.39429 0.86288 0.0
O669 O 0.88972 0.37704 0.85282 0.0
O670 O 0.89679 0.41701 0.85628 0.0
O671 O 0.82853 0.62519 0.00758 0.0
Cd672 Cd 0.81686 0.61857 0.04864 0.0
O673 O 0.79615 0.63459 0.00133 0.0
Cd674 Cd 0.76423 0.64555 0.99233 0.0
O675 O 0.73785 0.64856 0.01694 0.0
C676 C 0.74392 0.65612 0.03703 0.0
O677 O 0.76349 0.66234 0.0395 0.0
C678 C 0.81433 0.6316 0.99304 0.0
C679 C 0.82825 0.65681 0.07854 0.0
O680 O 0.83914 0.63687 0.07746 0.0
O681 O 0.81209 0.65885 0.0654 0.0
O682 O 0.67983 0.5996 0.27272 0.0
Cd683 Cd 0.69841 0.61235 0.30832 0.0
O684 O 0.67548 0.5635 0.29111 0.0
Cd685 Cd 0.66532 0.52484 0.29681 0.0
O686 O 0.65657 0.48851 0.31246 0.0
C687 C 0.65763 0.48507 0.3349 0.0
O688 O 0.66403 0.50332 0.34825 0.0
C689 C 0.67287 0.57741 0.27268 0.0
C690 C 0.6761 0.64287 0.33849 0.0
O691 O 0.68803 0.65235 0.32243 0.0
O692 O 0.67433 0.61906 0.34002 0.0
O693 O 0.63264 0.3836 0.54495 0.0
Cd694 Cd 0.60269 0.39725 0.56775 0.0
O695 O 0.65063 0.38663 0.57789 0.0
Cd696 Cd 0.68063 0.38668 0.59558 0.0
O697 O 0.71422 0.38754 0.59322 0.0
C698 C 0.72181 0.39854 0.57493 0.0
O699 O 0.70938 0.40953 0.55941 0.0
C700 C 0.64977 0.38149 0.55593 0.0
C701 C 0.58913 0.35991 0.59934 0.0
O702 O 0.58076 0.36273 0.57877 0.0
O703 O 0.60382 0.37468 0.60504 0.0
O704 O 0.7232 0.85773 0.59817 0.0
Cd705 Cd 0.69657 0.83621 0.62175 0.0
O706 O 0.70052 0.85663 0.56929 0.0
Cd707 Cd 0.68705 0.86405 0.53403 0.0
O708 O 0.6648 0.86889 0.50482 0.0
C709 C 0.64719 0.85842 0.5068 0.0
O710 O 0.64306 0.84478 0.52596 0.0
C711 C 0.71826 0.86319 0.57679 0.0
C712 C 0.66745 0.86998 0.63842 0.0
O713 O 0.68247 0.86251 0.6517 0.0
O714 O 0.66607 0.86147 0.61738 0.0
O715 O 0.22754 0.6433 0.40082 0.0
Cd716 Cd 0.19854 0.66429 0.38082 0.0
O717 O 0.20737 0.64131 0.43212 0.0
Cd718 Cd 0.19766 0.63103 0.46842 0.0
O719 O 0.18072 0.62172 0.50124 0.0
C720 C 0.16216 0.62918 0.50367 0.0
O721 O 0.15352 0.64267 0.48654 0.0
C722 C 0.22464 0.63643 0.42236 0.0
C723 C 0.16981 0.62991 0.36442 0.0
O724 O 0.18385 0.63888 0.35055 0.0
O725 O 0.16925 0.63716 0.38597 0.0
O726 O 0.63698 0.96347 0.66813 0.0
Cd727 Cd 0.62289 0.92143 0.6637 0.0
O728 O 0.64553 0.95033 0.70395 0.0
Cd729 Cd 0.65863 0.95209 0.73975 0.0
O730 O 0.66796 0.93643 0.77437 0.0
C731 C 0.67668 0.91519 0.77408 0.0
O732 O 0.68021 0.90483 0.75353 0.0
C733 C 0.64516 0.96775 0.68818 0.0
C734 C 0.65215 0.88781 0.64712 0.0
O735 O 0.63938 0.89861 0.63276 0.0
O736 O 0.65122 0.8929 0.66925 0.0
O737 O 0.30798 0.47317 0.00193 0.0
Cd738 Cd 0.32291 0.5063 0.97678 0.0
O739 O 0.30352 0.45156 0.96966 0.0
Cd740 Cd 0.29205 0.41866 0.95157 0.0
O741 O 0.27213 0.38702 0.94383 0.0
C742 C 0.25519 0.38594 0.95532 0.0
O743 O 0.25082 0.40345 0.97049 0.0
C744 C 0.30202 0.4533 0.99214 0.0
C745 C 0.34755 0.48594 0.94155 0.0
O746 O 0.35513 0.49088 0.96197 0.0
O747 O 0.3284 0.4908 0.93761 0.0
O748 O 0.40511 0.5129 0.63241 0.0
Cd749 Cd 0.3858 0.5459 0.61158 0.0
O750 O 0.38338 0.5145 0.66203 0.0
Cd751 Cd 0.36417 0.51249 0.69418 0.0
O752 O 0.33462 0.52004 0.71206 0.0
C753 C 0.33219 0.52537 0.73381 0.0
O754 O 0.31337 0.52875 0.74203 0.0
C755 C 0.39918 0.50448 0.65261 0.0
C756 C 0.37088 0.52857 0.56858 0.0
O757 O 0.38861 0.53923 0.56971 0.0
O758 O 0.36007 0.52632 0.58764 0.0
O759 O 0.80811 0.026 0.99605 0.0
Cd760 Cd 0.82313 0.99254 0.02073 0.0
O761 O 0.80407 0.04724 0.02862 0.0
Cd762 Cd 0.79291 0.07996 0.04723 0.0
O763 O 0.77315 0.11158 0.05557 0.0
C764 C 0.75615 0.11291 0.04425 0.0
O765 O 0.75162 0.09565 0.02887 0.0
C766 C 0.80233 0.04578 0.00614 0.0
C767 C 0.84675 0.0125 0.05706 0.0
O768 O 0.85481 0.00826 0.03672 0.0
O769 O 0.82762 0.0071 0.06041 0.0
O770 O 0.63484 0.03071 0.83493 0.0
Cd771 Cd 0.62149 0.07312 0.83888 0.0
O772 O 0.64406 0.04375 0.79931 0.0
Cd773 Cd 0.65775 0.04189 0.76382 0.0
O774 O 0.66787 0.05778 0.72959 0.0
C775 C 0.67593 0.07938 0.7303 0.0
O776 O 0.6783 0.08988 0.75101 0.0
C777 C 0.64328 0.02632 0.81505 0.0
C778 C 0.65245 0.10654 0.85142 0.0
O779 O 0.64032 0.09699 0.86724 0.0
O780 O 0.65003 0.10036 0.82973 0.0
O781 O 0.90989 0.98354 0.36608 0.0
Cd782 Cd 0.8915 0.94934 0.38625 0.0
O783 O 0.88661 0.98396 0.33797 0.0
Cd784 Cd 0.86543 0.98801 0.30766 0.0
O785 O 0.83517 0.98212 0.29074 0.0
C786 C 0.83207 0.97693 0.26907 0.0
O787 O 0.81297 0.97454 0.26138 0.0
C788 C 0.90291 0.99335 0.34689 0.0
C789 C 0.86486 0.96857 0.42012 0.0
O790 O 0.88368 0.96325 0.4254 0.0
O791 O 0.85847 0.96451 0.39897 0.0
O792 O 0.39635 0.28256 0.03225 0.0
Cd793 Cd 0.38687 0.32287 0.01405 0.0
O794 O 0.42277 0.30165 0.04825 0.0
Cd795 Cd 0.45061 0.30228 0.07031 0.0
O796 O 0.47516 0.29628 0.09644 0.0
C797 C 0.49214 0.30823 0.09565 0.0
O798 O 0.49541 0.32497 0.0786 0.0
C799 C 0.41264 0.28167 0.04494 0.0
C800 C 0.34582 0.33769 0.0197 0.0
O801 O 0.35123 0.32451 0.00202 0.0
O802 O 0.35961 0.34331 0.03508 0.0
O803 O 0.48731 0.66418 0.92371 0.0
Cd804 Cd 0.46345 0.62939 0.93058 0.0
O805 O 0.4611 0.6889 0.91582 0.0
Cd806 Cd 0.4427 0.7215 0.90493 0.0
O807 O 0.4142 0.74131 0.89465 0.0
C808 C 0.4105 0.76312 0.9019 0.0
O809 O 0.42395 0.77396 0.91579 0.0
C810 C 0.48057 0.68572 0.91774 0.0
C811 C 0.45745 0.60205 0.88959 0.0
O812 O 0.47239 0.59686 0.90389 0.0
O813 O 0.44533 0.62014 0.89454 0.0
O814 O 0.0656 0.74465 0.61014 0.0
Cd815 Cd 0.05439 0.70242 0.62127 0.0
O816 O 0.05061 0.76254 0.64056 0.0
Cd817 Cd 0.03186 0.72937 0.64799 0.0
O818 O 0.00509 0.70565 0.641 0.0
C819 C 0.98917 0.71604 0.63183 0.0
O820 O 0.98925 0.74026 0.62761 0.0
C821 C 0.06231 0.76391 0.6224 0.0
C822 C 0.07669 0.667 0.59642 0.0
O823 O 0.08356 0.67542 0.61605 0.0
O824 O 0.05927 0.67516 0.58852 0.0
O825 O 0.09171 0.28234 0.38121 0.0
Cd826 Cd 0.10027 0.32665 0.3839 0.0
O827 O 0.05928 0.29357 0.38348 0.0
Cd828 Cd 0.02592 0.29085 0.38038 0.0
O829 O 0.99255 0.29444 0.38345 0.0
C830 C 0.98522 0.30797 0.39966 0.0
O831 O 0.99784 0.31939 0.41415 0.0
C832 C 0.07264 0.27645 0.38087 0.0
C833 C 0.1373 0.33803 0.36056 0.0
O834 O 0.13656 0.33697 0.38334 0.0
O835 O 0.12069 0.33384 0.34886 0.0
O836 O 0.39767 0.69245 0.39652 0.0
Cd837 Cd 0.38405 0.65047 0.4045 0.0
O838 O 0.42783 0.67424 0.40126 0.0
Cd839 Cd 0.46166 0.67405 0.40253 0.0
O840 O 0.49532 0.67693 0.40076 0.0
C841 C 0.50644 0.67557 0.41939 0.0
O842 O 0.49766 0.67223 0.44031 0.0
C843 C 0.41732 0.69392 0.39691 0.0
C844 C 0.34691 0.64724 0.42966 0.0
O845 O 0.3641 0.65102 0.4404 0.0
O846 O 0.34708 0.64568 0.40694 0.0
O847 O 0.0898 0.71675 0.11206 0.0
Cd848 Cd 0.09734 0.67202 0.11394 0.0
O849 O 0.05735 0.70645 0.11706 0.0
Cd850 Cd 0.02473 0.7108 0.12506 0.0
O851 O 0.9912 0.70789 0.12632 0.0
C852 C 0.98243 0.69236 0.11291 0.0
O853 O 0.9937 0.67858 0.09887 0.0
C854 C 0.07106 0.72335 0.11483 0.0
C855 C 0.13522 0.66259 0.13615 0.0
O856 O 0.13352 0.66122 0.11351 0.0
O857 O 0.11916 0.66823 0.14825 0.0
O858 O 0.04499 0.24435 0.86801 0.0
Cd859 Cd 0.03854 0.26767 0.904 0.0
O860 O 0.04385 0.27771 0.84439 0.0
Cd861 Cd 0.02708 0.29947 0.87061 0.0
O862 O 0.00355 0.3225 0.88758 0.0
C863 C 0.98749 0.31292 0.89721 0.0
O864 O 0.98519 0.28856 0.89787 0.0
C865 C 0.04788 0.25466 0.84769 0.0
C866 C 0.07739 0.27187 0.92507 0.0
O867 O 0.06544 0.25349 0.93046 0.0
O868 O 0.07067 0.2889 0.91064 0.0
O869 O 0.4909 0.33582 0.57288 0.0
Cd870 Cd 0.46686 0.37022 0.56491 0.0
O871 O 0.46481 0.31027 0.5784 0.0
Cd872 Cd 0.44655 0.27701 0.58769 0.0
O873 O 0.4183 0.25581 0.59627 0.0
C874 C 0.4144 0.23524 0.58643 0.0
O875 O 0.42754 0.22645 0.57089 0.0
C876 C 0.48428 0.31402 0.57806 0.0
C877 C 0.46006 0.39785 0.60557 0.0
O878 O 0.4751 0.40316 0.59145 0.0
O879 O 0.44817 0.37956 0.60055 0.0
O880 O 0.18745 0.38335 0.29015 0.0
Cd881 Cd 0.19337 0.35427 0.32365 0.0
O882 O 0.17881 0.41503 0.3122 0.0
Cd883 Cd 0.16763 0.45313 0.31726 0.0
O884 O 0.15551 0.49037 0.32411 0.0
C885 C 0.15592 0.50768 0.30824 0.0
O886 O 0.1638 0.50326 0.28721 0.0
C887 C 0.18137 0.4058 0.29177 0.0
C888 C 0.15671 0.34363 0.34805 0.0
O889 O 0.16036 0.33428 0.32773 0.0
O890 O 0.17032 0.35801 0.35705 0.0
O891 O 0.29224 0.41088 0.99789 0.0
Cd892 Cd 0.28659 0.37216 0.02079 0.0
O893 O 0.28991 0.43537 0.02865 0.0
Cd894 Cd 0.2754 0.4062 0.05092 0.0
O895 O 0.25468 0.38484 0.0746 0.0
C896 C 0.23931 0.37282 0.06658 0.0
O897 O 0.23608 0.37244 0.04351 0.0
C898 C 0.29403 0.43234 0.0068 0.0
C899 C 0.32478 0.34789 0.0212 0.0
O900 O 0.31142 0.3437 0.00492 0.0
O901 O 0.31983 0.36268 0.03785 0.0
O902 O 0.42681 0.52085 0.8422 0.0
Cd903 Cd 0.44667 0.55751 0.82919 0.0
O904 O 0.4024 0.52736 0.8158 0.0
Cd905 Cd 0.37309 0.52574 0.79682 0.0
O906 O 0.34687 0.52713 0.77236 0.0
C907 C 0.34992 0.5265 0.75004 0.0
O908 O 0.36893 0.52536 0.74181 0.0
C909 C 0.40956 0.5145 0.83326 0.0
C910 C 0.45403 0.58719 0.86837 0.0
O911 O 0.43819 0.59107 0.85504 0.0
O912 O 0.46658 0.56967 0.86302 0.0
O913 O 0.13094 0.62762 0.52602 0.0
Cd914 Cd 0.11013 0.61164 0.55951 0.0
O915 O 0.15797 0.60843 0.54146 0.0
Cd916 Cd 0.19023 0.59625 0.54074 0.0
O917 O 0.22151 0.58263 0.53454 0.0
C918 C 0.2373 0.5925 0.54398 0.0
O919 O 0.23501 0.61144 0.55815 0.0
C920 C 0.14995 0.62164 0.52475 0.0
C921 C 0.08837 0.64821 0.58345 0.0
O922 O 0.10644 0.64133 0.59045 0.0
O923 O 0.08066 0.63811 0.56501 0.0
O924 O 0.18837 0.62158 0.20575 0.0
Cd925 Cd 0.19271 0.64967 0.1712 0.0
O926 O 0.17696 0.59051 0.18459 0.0
Cd927 Cd 0.16412 0.55306 0.18043 0.0
O928 O 0.15139 0.51599 0.17433 0.0
C929 C 0.15246 0.49877 0.19025 0.0
O930 O 0.16131 0.50328 0.21074 0.0
C931 C 0.18129 0.59951 0.20472 0.0
C932 C 0.15511 0.6581 0.14803 0.0
O933 O 0.15929 0.66867 0.16764 0.0
O934 O 0.16866 0.64355 0.13915 0.0
O935 O 0.15069 0.28896 0.98248 0.0
Cd936 Cd 0.14084 0.27004 0.94504 0.0
O937 O 0.17496 0.30908 0.96254 0.0
Cd938 Cd 0.20096 0.33513 0.95999 0.0
O939 O 0.22373 0.36483 0.96357 0.0
C940 C 0.24058 0.36542 0.95189 0.0
O941 O 0.24478 0.34767 0.93693 0.0
C942 C 0.16596 0.30394 0.9822 0.0
C943 C 0.0989 0.27223 0.93351 0.0
O944 O 0.10616 0.254 0.94614 0.0
O945 O 0.11126 0.28978 0.92686 0.0
O946 O 0.42844 0.47826 0.65442 0.0
Cd947 Cd 0.44884 0.44167 0.66638 0.0
O948 O 0.40427 0.46994 0.68066 0.0
Cd949 Cd 0.37521 0.46963 0.70022 0.0
O950 O 0.34911 0.46562 0.72462 0.0
C951 C 0.35199 0.46647 0.74695 0.0
O952 O 0.37081 0.46949 0.75529 0.0
C953 C 0.4111 0.48374 0.66366 0.0
C954 C 0.45638 0.41262 0.62679 0.0
O955 O 0.44061 0.40837 0.64013 0.0
O956 O 0.46874 0.4303 0.63226 0.0
O957 O 0.30425 0.58997 0.49215 0.0
Cd958 Cd 0.29382 0.62842 0.47103 0.0
O959 O 0.3021 0.56732 0.46009 0.0
Cd960 Cd 0.28179 0.59469 0.44241 0.0
O961 O 0.2578 0.6174 0.42487 0.0
C962 C 0.24088 0.62248 0.43529 0.0
O963 O 0.23777 0.61441 0.45726 0.0
C964 C 0.30771 0.56968 0.4816 0.0
C965 C 0.32787 0.64269 0.44331 0.0
O966 O 0.32688 0.6481 0.46535 0.0
O967 O 0.31247 0.63147 0.43399 0.0
O968 O 0.34752 0.12268 0.45754 0.0
Cd969 Cd 0.35298 0.12197 0.41445 0.0
O970 O 0.31571 0.11245 0.449 0.0
Cd971 Cd 0.28443 0.09888 0.45485 0.0
O972 O 0.25144 0.09362 0.4495 0.0
C973 C 0.24382 0.10211 0.43009 0.0
O974 O 0.25597 0.11319 0.41433 0.0
C975 C 0.32937 0.117 0.46456 0.0
C976 C 0.39097 0.10103 0.40244 0.0
O977 O 0.38833 0.12472 0.4011 0.0
O978 O 0.37582 0.08728 0.40944 0.0
O979 O 0.84717 0.3767 0.54166 0.0
Cd980 Cd 0.85234 0.37711 0.58481 0.0
O981 O 0.81541 0.38719 0.55013 0.0
Cd982 Cd 0.78417 0.40096 0.54452 0.0
O983 O 0.75131 0.40627 0.55077 0.0
C984 C 0.74406 0.39742 0.57022 0.0
O985 O 0.75648 0.38596 0.58544 0.0
C986 C 0.82907 0.38256 0.5346 0.0
C987 C 0.88914 0.40048 0.59756 0.0
O988 O 0.88766 0.37663 0.59848 0.0
O989 O 0.8734 0.41325 0.59062 0.0
O990 O 0.44408 0.03362 0.35701 0.0
Cd991 Cd 0.44857 0.06798 0.3844 0.0
O992 O 0.43316 0.05734 0.32711 0.0
Cd993 Cd 0.42081 0.06354 0.29117 0.0
O994 O 0.40708 0.07206 0.25637 0.0
C995 C 0.40802 0.05671 0.23952 0.0
O996 O 0.41746 0.0352 0.24294 0.0
C997 C 0.43739 0.0358 0.3358 0.0
C998 C 0.41088 0.08981 0.39621 0.0
O999 O 0.41634 0.06873 0.40544 0.0
O1000 O 0.42315 0.10074 0.38137 0.0
O1001 O 0.73902 0.65813 0.0785 0.0
Cd1002 Cd 0.72117 0.65075 0.11641 0.0
O1003 O 0.71166 0.64858 0.05752 0.0
Cd1004 Cd 0.69167 0.6406 0.02714 0.0
O1005 O 0.66319 0.63109 0.00801 0.0
C1006 C 0.65875 0.64145 0.98808 0.0
O1007 O 0.67141 0.65819 0.97877 0.0
C1008 C 0.73071 0.65465 0.05835 0.0
C1009 C 0.68231 0.62893 0.11165 0.0
O1010 O 0.69886 0.616 0.10948 0.0
O1011 O 0.684 0.65224 0.11587 0.0
O1012 O 0.64987 0.45884 0.36853 0.0
Cd1013 Cd 0.63491 0.41895 0.38221 0.0
O1014 O 0.64487 0.44337 0.33338 0.0
Cd1015 Cd 0.64502 0.44334 0.29462 0.0
O1016 O 0.64107 0.42997 0.25869 0.0
C1017 C 0.63898 0.44403 0.24033 0.0
O1018 O 0.63954 0.46839 0.24233 0.0
C1019 C 0.65068 0.46141 0.34601 0.0
C1020 C 0.6629 0.38251 0.39786 0.0
O1021 O 0.65967 0.38643 0.37559 0.0
O1022 O 0.65335 0.39612 0.41275 0.0
O1023 O 0.24212 0.83585 0.92202 0.0
Cd1024 Cd 0.22486 0.84251 0.88365 0.0
O1025 O 0.21444 0.84603 0.94215 0.0
Cd1026 Cd 0.19396 0.85495 0.97185 0.0
O1027 O 0.16516 0.86512 0.99004 0.0
C1028 C 0.16055 0.85579 0.01036 0.0
O1029 O 0.17322 0.83969 0.02066 0.0
C1030 C 0.23348 0.83988 0.94189 0.0
C1031 C 0.18719 0.86735 0.88743 0.0
O1032 O 0.20436 0.87913 0.88914 0.0
O1033 O 0.18768 0.84379 0.88405 0.0
O1034 O 0.43646 0.96034 0.12433 0.0
Cd1035 Cd 0.44093 0.92642 0.09651 0.0
O1036 O 0.43201 0.93518 0.15536 0.0
Cd1037 Cd 0.42488 0.92713 0.19282 0.0
O1038 O 0.4164 0.91626 0.22924 0.0
C1039 C 0.41679 0.93175 0.246 0.0
O1040 O 0.42248 0.95493 0.24154 0.0
C1041 C 0.43272 0.95719 0.14639 0.0
C1042 C 0.40434 0.89955 0.09111 0.0
O1043 O 0.40671 0.92108 0.08108 0.0
O1044 O 0.41921 0.8905 0.10371 0.0
O1045 O 0.14864 0.05493 0.63312 0.0
Cd1046 Cd 0.1363 0.09682 0.62176 0.0
O1047 O 0.14629 0.06907 0.66916 0.0
Cd1048 Cd 0.14716 0.06633 0.70788 0.0
O1049 O 0.1431 0.07623 0.74483 0.0
C1050 C 0.14111 0.06071 0.76213 0.0
O1051 O 0.14191 0.03664 0.75838 0.0
C1052 C 0.14999 0.0511 0.65547 0.0
C1053 C 0.16559 0.13033 0.60357 0.0
O1054 O 0.16375 0.12653 0.62607 0.0
O1055 O 0.15405 0.11786 0.58961 0.0
loop_
_geom_bond_atom_site_label_1
_geom_bond_atom_site_label_2
_geom_bond_distance
_geom_bond_site_symmetry_2
_ccdc_geom_bond_type
O0 Cd1 2.300 . S
O0 C7 1.275 . S
Cd1 O0 2.300 . S
Cd1 O9 2.381 . S
Cd1 O10 2.378 . S
O2 Cd3 2.385 . S
O2 C7 1.255 . S
Cd3 O2 2.385 . S
Cd3 O4 2.317 . S
O4 Cd3 2.317 . S
O4 C5 1.232 1_455 S
C5 O4 1.232 1_655 S
C5 O6 1.218 . S
O6 C5 1.218 . S
C7 O0 1.275 . S
C7 O2 1.255 . S
C8 O9 1.258 . S
C8 O10 1.256 . S
O9 Cd1 2.381 . S
O9 C8 1.258 . S
O10 Cd1 2.378 . S
O10 C8 1.256 . S
O11 Cd12 2.300 . S
O11 C18 1.275 . S
Cd12 O11 2.300 . S
Cd12 O20 2.381 . S
Cd12 O21 2.378 . S
O13 Cd14 2.385 . S
O13 C18 1.255 . S
Cd14 O13 2.385 . S
Cd14 O15 2.317 . S
O15 Cd14 2.317 . S
O15 C16 1.232 1_455 S
C16 O15 1.232 1_655 S
C16 O17 1.218 . S
O17 C16 1.218 . S
C18 O11 1.275 . S
C18 O13 1.255 . S
C19 O20 1.258 . S
C19 O21 1.256 . S
O20 Cd12 2.381 . S
O20 C19 1.258 . S
O21 Cd12 2.378 . S
O21 C19 1.256 . S
O22 Cd23 2.300 . S
O22 C29 1.275 . S
Cd23 O22 2.300 . S
Cd23 O31 2.381 . S
Cd23 O32 2.378 . S
O24 Cd25 2.385 . S
O24 C29 1.255 . S
Cd25 O24 2.385 . S
Cd25 O26 2.317 . S
O26 Cd25 2.317 . S
O26 C27 1.232 . S
C27 O26 1.232 . S
C27 O28 1.218 . S
O28 C27 1.218 . S
C29 O22 1.275 . S
C29 O24 1.255 . S
C30 O31 1.258 . S
C30 O32 1.256 . S
O31 Cd23 2.381 . S
O31 C30 1.258 . S
O32 Cd23 2.378 . S
O32 C30 1.256 . S
O33 Cd34 2.300 . S
O33 C40 1.275 . S
Cd34 O33 2.300 . S
Cd34 O42 2.381 . S
Cd34 O43 2.378 . S
O35 Cd36 2.385 . S
O35 C40 1.255 . S
Cd36 O35 2.385 . S
Cd36 O37 2.317 . S
O37 Cd36 2.317 . S
O37 C38 1.232 . S
C38 O37 1.232 . S
C38 O39 1.218 . S
O39 C38 1.218 . S
C40 O33 1.275 . S
C40 O35 1.255 . S
C41 O42 1.258 . S
C41 O43 1.256 . S
O42 Cd34 2.381 . S
O42 C41 1.258 . S
O43 Cd34 2.378 . S
O43 C41 1.256 . S
O44 Cd45 2.300 . S
O44 C51 1.275 . S
Cd45 O44 2.300 . S
Cd45 O53 2.381 . S
Cd45 O54 2.378 . S
O46 Cd47 2.385 . S
O46 C51 1.255 . S
Cd47 O46 2.385 . S
Cd47 O48 2.317 . S
O48 Cd47 2.317 . S
O48 C49 1.232 1_455 S
C49 O48 1.232 1_655 S
C49 O50 1.218 . S
O50 C49 1.218 . S
C51 O44 1.275 . S
C51 O46 1.255 . S
C52 O53 1.258 . S
C52 O54 1.256 . S
O53 Cd45 2.381 . S
O53 C52 1.258 . S
O54 Cd45 2.378 . S
O54 C52 1.256 . S
O55 Cd56 2.300 . S
O55 C62 1.275 . S
Cd56 O55 2.300 . S
Cd56 O64 2.381 . S
Cd56 O65 2.378 . S
O57 Cd58 2.385 . S
O57 C62 1.255 . S
Cd58 O57 2.385 . S
Cd58 O59 2.317 . S
O59 Cd58 2.317 . S
O59 C60 1.232 . S
C60 O59 1.232 . S
C60 O61 1.218 . S
O61 C60 1.218 . S
C62 O55 1.275 . S
C62 O57 1.255 . S
C63 O64 1.258 . S
C63 O65 1.256 . S
O64 Cd56 2.381 . S
O64 C63 1.258 . S
O65 Cd56 2.378 . S
O65 C63 1.256 . S
O66 Cd67 2.300 . S
O66 C73 1.275 . S
Cd67 O66 2.300 . S
Cd67 O75 2.381 . S
Cd67 O76 2.378 . S
O68 Cd69 2.385 . S
O68 C73 1.255 . S
Cd69 O68 2.385 . S
Cd69 O70 2.317 . S
O70 Cd69 2.317 . S
O70 C71 1.232 . S
C71 O70 1.232 . S
C71 O72 1.218 . S
O72 C71 1.218 . S
C73 O66 1.275 . S
C73 O68 1.255 . S
C74 O75 1.258 . S
C74 O76 1.256 . S
O75 Cd67 2.381 . S
O75 C74 1.258 . S
O76 Cd67 2.378 . S
O76 C74 1.256 . S
O77 Cd78 2.300 . S
O77 C84 1.275 . S
Cd78 O77 2.300 . S
Cd78 O86 2.381 . S
Cd78 O87 2.378 . S
O79 Cd80 2.385 . S
O79 C84 1.255 . S
Cd80 O79 2.385 . S
Cd80 O81 2.317 . S
O81 Cd80 2.317 . S
O81 C82 1.232 1_455 S
C82 O81 1.232 1_655 S
C82 O83 1.218 . S
O83 C82 1.218 . S
C84 O77 1.275 . S
C84 O79 1.255 . S
C85 O86 1.258 . S
C85 O87 1.256 . S
O86 Cd78 2.381 . S
O86 C85 1.258 . S
O87 Cd78 2.378 . S
O87 C85 1.256 . S
O88 Cd89 2.300 . S
O88 C95 1.275 . S
Cd89 O88 2.300 . S
Cd89 O97 2.381 . S
Cd89 O98 2.378 . S
O90 Cd91 2.385 . S
O90 C95 1.255 . S
Cd91 O90 2.385 . S
Cd91 O92 2.317 . S
O92 Cd91 2.317 . S
O92 C93 1.232 1_545 S
C93 O92 1.232 1_565 S
C93 O94 1.218 . S
O94 C93 1.218 . S
C95 O88 1.275 . S
C95 O90 1.255 . S
C96 O97 1.258 . S
C96 O98 1.256 . S
O97 Cd89 2.381 . S
O97 C96 1.258 . S
O98 Cd89 2.378 . S
O98 C96 1.256 . S
O99 Cd100 2.300 . S
O99 C106 1.275 . S
Cd100 O99 2.300 . S
Cd100 O108 2.381 . S
Cd100 O109 2.378 . S
O101 Cd102 2.385 . S
O101 C106 1.255 . S
Cd102 O101 2.385 . S
Cd102 O103 2.317 . S
O103 Cd102 2.317 . S
O103 C104 1.232 . S
C104 O103 1.232 . S
C104 O105 1.218 . S
O105 C104 1.218 . S
C106 O99 1.275 . S
C106 O101 1.255 . S
C107 O108 1.258 . S
C107 O109 1.256 . S
O108 Cd100 2.381 . S
O108 C107 1.258 . S
O109 Cd100 2.378 . S
O109 C107 1.256 . S
O110 Cd111 2.300 . S
O110 C117 1.275 . S
Cd111 O110 2.300 . S
Cd111 O119 2.381 . S
Cd111 O120 2.378 . S
O112 Cd113 2.385 . S
O112 C117 1.255 . S
Cd113 O112 2.385 . S
Cd113 O114 2.317 . S
O114 Cd113 2.317 . S
O114 C115 1.251 . S
C115 O114 1.251 . S
C115 O116 1.205 1_565 S
O116 C115 1.205 1_545 S
C117 O110 1.275 . S
C117 O112 1.255 . S
C118 O119 1.258 . S
C118 O120 1.256 . S
O119 Cd111 2.381 . S
O119 C118 1.258 . S
O120 Cd111 2.378 . S
O120 C118 1.256 . S
O121 Cd122 2.300 1_554 S
O121 C128 1.275 . S
Cd122 O121 2.300 1_556 S
Cd122 O130 2.381 . S
Cd122 O131 2.378 . S
O123 Cd124 2.385 1_554 S
O123 C128 1.255 . S
Cd124 O123 2.385 1_556 S
Cd124 O125 2.317 . S
O125 Cd124 2.317 . S
O125 C126 1.232 . S
C126 O125 1.232 . S
C126 O127 1.218 . S
O127 C126 1.218 . S
C128 O121 1.275 . S
C128 O123 1.255 . S
C129 O130 1.258 . S
C129 O131 1.256 . S
O130 Cd122 2.381 . S
O130 C129 1.258 . S
O131 Cd122 2.378 . S
O131 C129 1.256 . S
O132 Cd133 2.300 . S
O132 C139 1.275 . S
Cd133 O132 2.300 . S
Cd133 O141 2.381 . S
Cd133 O142 2.378 . S
O134 Cd135 2.385 . S
O134 C139 1.255 . S
Cd135 O134 2.385 . S
Cd135 O136 2.317 . S
O136 Cd135 2.317 . S
O136 C137 1.232 1_565 S
C137 O136 1.232 1_545 S
C137 O138 1.218 . S
O138 C137 1.218 . S
C139 O132 1.275 . S
C139 O134 1.255 . S
C140 O141 1.258 . S
C140 O142 1.256 . S
O141 Cd133 2.381 . S
O141 C140 1.258 . S
O142 Cd133 2.378 . S
O142 C140 1.256 . S
O143 Cd144 2.300 . S
O143 C150 1.275 . S
Cd144 O143 2.300 . S
Cd144 O152 2.381 . S
Cd144 O153 2.378 . S
O145 Cd146 2.385 . S
O145 C150 1.255 . S
Cd146 O145 2.385 . S
Cd146 O147 2.317 . S
O147 Cd146 2.317 . S
O147 C148 1.232 . S
C148 O147 1.232 . S
C148 O149 1.218 . S
O149 C148 1.218 . S
C150 O143 1.275 . S
C150 O145 1.255 . S
C151 O152 1.258 . S
C151 O153 1.256 . S
O152 Cd144 2.381 . S
O152 C151 1.258 . S
O153 Cd144 2.378 . S
O153 C151 1.256 . S
O154 Cd155 2.300 . S
O154 C161 1.275 . S
Cd155 O154 2.300 . S
Cd155 O163 2.381 . S
Cd155 O164 2.378 . S
O156 Cd157 2.385 . S
O156 C161 1.255 . S
Cd157 O156 2.385 . S
Cd157 O158 2.317 . S
O158 Cd157 2.317 . S
O158 C159 1.232 1_545 S
C159 O158 1.232 1_565 S
C159 O160 1.218 . S
O160 C159 1.218 . S
C161 O154 1.275 . S
C161 O156 1.255 . S
C162 O163 1.258 . S
C162 O164 1.256 . S
O163 Cd155 2.381 . S
O163 C162 1.258 . S
O164 Cd155 2.378 . S
O164 C162 1.256 . S
O165 Cd166 2.300 . S
O165 C172 1.275 . S
Cd166 O165 2.300 . S
Cd166 O174 2.381 . S
Cd166 O175 2.378 . S
O167 Cd168 2.385 . S
O167 C172 1.255 . S
Cd168 O167 2.385 . S
Cd168 O169 2.317 . S
O169 Cd168 2.317 . S
O169 C170 1.232 . S
C170 O169 1.232 . S
C170 O171 1.218 . S
O171 C170 1.218 . S
C172 O165 1.275 . S
C172 O167 1.255 . S
C173 O174 1.258 . S
C173 O175 1.256 . S
O174 Cd166 2.381 . S
O174 C173 1.258 . S
O175 Cd166 2.378 . S
O175 C173 1.256 . S
O176 Cd177 2.300 . S
O176 C183 1.275 . S
Cd177 O176 2.300 . S
Cd177 O185 2.381 . S
Cd177 O186 2.378 . S
O178 Cd179 2.385 . S
O178 C183 1.255 . S
Cd179 O178 2.385 . S
Cd179 O180 2.317 . S
O180 Cd179 2.317 . S
O180 C181 1.232 . S
C181 O180 1.232 . S
C181 O182 1.218 1_554 S
O182 C181 1.218 1_556 S
C183 O176 1.275 . S
C183 O178 1.255 . S
C184 O185 1.258 . S
C184 O186 1.256 . S
O185 Cd177 2.381 . S
O185 C184 1.258 . S
O186 Cd177 2.378 . S
O186 C184 1.256 . S
O187 Cd188 2.300 . S
O187 C194 1.275 . S
Cd188 O187 2.300 . S
Cd188 O196 2.381 . S
Cd188 O197 2.378 . S
O189 Cd190 2.385 . S
O189 C194 1.255 . S
Cd190 O189 2.385 . S
Cd190 O191 2.317 . S
O191 Cd190 2.317 . S
O191 C192 1.232 . S
C192 O191 1.232 . S
C192 O193 1.218 1_556 S
O193 C192 1.218 1_554 S
C194 O187 1.275 . S
C194 O189 1.255 . S
C195 O196 1.258 . S
C195 O197 1.256 . S
O196 Cd188 2.381 . S
O196 C195 1.258 . S
O197 Cd188 2.378 . S
O197 C195 1.256 . S
O198 Cd199 2.300 . S
O198 C205 1.275 . S
Cd199 O198 2.300 . S
Cd199 O207 2.381 . S
Cd199 O208 2.378 . S
O200 Cd201 2.385 . S
O200 C205 1.255 . S
Cd201 O200 2.385 . S
Cd201 O202 2.317 . S
O202 Cd201 2.317 . S
O202 C203 1.232 . S
C203 O202 1.232 . S
C203 O204 1.218 . S
O204 C203 1.218 . S
C205 O198 1.275 . S
C205 O200 1.255 . S
C206 O207 1.258 . S
C206 O208 1.256 . S
O207 Cd199 2.381 . S
O207 C206 1.258 . S
O208 Cd199 2.378 . S
O208 C206 1.256 . S
O209 Cd210 2.300 . S
O209 C216 1.275 . S
Cd210 O209 2.300 . S
Cd210 O218 2.381 . S
Cd210 O219 2.378 . S
O211 Cd212 2.385 . S
O211 C216 1.255 . S
Cd212 O211 2.385 . S
Cd212 O213 2.317 . S
O213 Cd212 2.317 . S
O213 C214 1.232 . S
C214 O213 1.232 . S
C214 O215 1.218 . S
O215 C214 1.218 . S
C216 O209 1.275 . S
C216 O211 1.255 . S
C217 O218 1.258 . S
C217 O219 1.256 . S
O218 Cd210 2.381 . S
O218 C217 1.258 . S
O219 Cd210 2.378 . S
O219 C217 1.256 . S
O220 Cd221 2.300 . S
O220 C227 1.259 1_545 S
Cd221 O220 2.300 . S
Cd221 O229 2.381 . S
Cd221 O230 2.378 . S
O222 Cd223 2.385 . S
O222 C227 1.244 1_545 S
Cd223 O222 2.385 . S
Cd223 O224 2.317 . S
O224 Cd223 2.317 . S
O224 C225 1.232 . S
C225 O224 1.232 . S
C225 O226 1.218 . S
O226 C225 1.218 . S
C227 O220 1.259 1_565 S
C227 O222 1.244 1_565 S
C228 O229 1.258 . S
C228 O230 1.256 . S
O229 Cd221 2.381 . S
O229 C228 1.258 . S
O230 Cd221 2.378 . S
O230 C228 1.256 . S
O231 Cd232 2.300 . S
O231 C238 1.275 . S
Cd232 O231 2.300 . S
Cd232 O240 2.381 . S
Cd232 O241 2.378 . S
O233 Cd234 2.385 . S
O233 C238 1.255 . S
Cd234 O233 2.385 . S
Cd234 O235 2.317 . S
O235 Cd234 2.317 . S
O235 C236 1.232 . S
C236 O235 1.232 . S
C236 O237 1.218 . S
O237 C236 1.218 . S
C238 O231 1.275 . S
C238 O233 1.255 . S
C239 O240 1.258 . S
C239 O241 1.256 . S
O240 Cd232 2.381 . S
O240 C239 1.258 . S
O241 Cd232 2.378 . S
O241 C239 1.256 . S
O242 Cd243 2.300 . S
O242 C249 1.275 . S
Cd243 O242 2.300 . S
Cd243 O251 2.381 . S
Cd243 O252 2.378 . S
O244 Cd245 2.385 . S
O244 C249 1.255 . S
Cd245 O244 2.385 . S
Cd245 O246 2.317 . S
O246 Cd245 2.317 . S
O246 C247 1.232 . S
C247 O246 1.232 . S
C247 O248 1.218 . S
O248 C247 1.218 . S
C249 O242 1.275 . S
C249 O244 1.255 . S
C250 O251 1.258 . S
C250 O252 1.256 . S
O251 Cd243 2.381 . S
O251 C250 1.258 . S
O252 Cd243 2.378 . S
O252 C250 1.256 . S
O253 Cd254 2.300 . S
O253 C260 1.275 . S
Cd254 O253 2.300 . S
Cd254 O262 2.381 . S
Cd254 O263 2.378 . S
O255 Cd256 2.385 . S
O255 C260 1.255 . S
Cd256 O255 2.385 . S
Cd256 O257 2.317 . S
O257 Cd256 2.317 . S
O257 C258 1.232 . S
C258 O257 1.232 . S
C258 O259 1.218 . S
O259 C258 1.218 . S
C260 O253 1.275 . S
C260 O255 1.255 . S
C261 O262 1.258 . S
C261 O263 1.256 . S
O262 Cd254 2.381 . S
O262 C261 1.258 . S
O263 Cd254 2.378 . S
O263 C261 1.256 . S
O264 Cd265 2.300 . S
O264 C271 1.275 . S
Cd265 O264 2.300 . S
Cd265 O273 2.381 . S
Cd265 O274 2.378 . S
O266 Cd267 2.385 . S
O266 C271 1.255 . S
Cd267 O266 2.385 . S
Cd267 O268 2.317 . S
O268 Cd267 2.317 . S
O268 C269 1.232 . S
C269 O268 1.232 . S
C269 O270 1.218 . S
O270 C269 1.218 . S
C271 O264 1.275 . S
C271 O266 1.255 . S
C272 O273 1.258 . S
C272 O274 1.256 . S
O273 Cd265 2.381 . S
O273 C272 1.258 . S
O274 Cd265 2.378 . S
O274 C272 1.256 . S
O275 Cd276 2.300 . S
O275 C282 1.275 . S
Cd276 O275 2.300 . S
Cd276 O284 2.381 . S
Cd276 O285 2.378 . S
O277 Cd278 2.385 . S
O277 C282 1.255 . S
Cd278 O277 2.385 . S
Cd278 O279 2.317 . S
O279 Cd278 2.317 . S
O279 C280 1.232 . S
C280 O279 1.232 . S
C280 O281 1.218 . S
O281 C280 1.218 . S
C282 O275 1.275 . S
C282 O277 1.255 . S
C283 O284 1.258 . S
C283 O285 1.256 . S
O284 Cd276 2.381 . S
O284 C283 1.258 . S
O285 Cd276 2.378 . S
O285 C283 1.256 . S
O286 Cd287 2.300 . S
O286 C293 1.275 . S
Cd287 O286 2.300 . S
Cd287 O295 2.381 . S
Cd287 O296 2.378 . S
O288 Cd289 2.385 . S
O288 C293 1.255 . S
Cd289 O288 2.385 . S
Cd289 O290 2.317 . S
O290 Cd289 2.317 . S
O290 C291 1.232 . S
C291 O290 1.232 . S
C291 O292 1.218 . S
O292 C291 1.218 . S
C293 O286 1.275 . S
C293 O288 1.255 . S
C294 O295 1.258 . S
C294 O296 1.256 . S
O295 Cd287 2.381 . S
O295 C294 1.258 . S
O296 Cd287 2.378 . S
O296 C294 1.256 . S
O297 Cd298 2.300 . S
O297 C304 1.275 . S
Cd298 O297 2.300 . S
Cd298 O306 2.381 . S
Cd298 O307 2.378 . S
O299 Cd300 2.385 . S
O299 C304 1.255 . S
Cd300 O299 2.385 . S
Cd300 O301 2.317 . S
O301 Cd300 2.317 . S
O301 C302 1.232 . S
C302 O301 1.232 . S
C302 O303 1.218 . S
O303 C302 1.218 . S
C304 O297 1.275 . S
C304 O299 1.255 . S
C305 O306 1.258 . S
C305 O307 1.256 . S
O306 Cd298 2.381 . S
O306 C305 1.258 . S
O307 Cd298 2.378 . S
O307 C305 1.256 . S
O308 Cd309 2.300 . S
O308 C315 1.275 . S
Cd309 O308 2.300 . S
Cd309 O317 2.381 . S
Cd309 O318 2.378 . S
O310 Cd311 2.385 . S
O310 C315 1.255 . S
Cd311 O310 2.385 . S
Cd311 O312 2.317 . S
O312 Cd311 2.317 . S
O312 C313 1.232 . S
C313 O312 1.232 . S
C313 O314 1.218 . S
O314 C313 1.218 . S
C315 O308 1.275 . S
C315 O310 1.255 . S
C316 O317 1.258 . S
C316 O318 1.256 . S
O317 Cd309 2.381 . S
O317 C316 1.258 . S
O318 Cd309 2.378 . S
O318 C316 1.256 . S
O319 Cd320 2.300 . S
O319 C326 1.275 . S
Cd320 O319 2.300 . S
Cd320 O328 2.381 . S
Cd320 O329 2.378 . S
O321 Cd322 2.385 . S
O321 C326 1.255 . S
Cd322 O321 2.385 . S
Cd322 O323 2.317 . S
O323 Cd322 2.317 . S
O323 C324 1.232 . S
C324 O323 1.232 . S
C324 O325 1.218 . S
O325 C324 1.218 . S
C326 O319 1.275 . S
C326 O321 1.255 . S
C327 O328 1.258 . S
C327 O329 1.256 . S
O328 Cd320 2.381 . S
O328 C327 1.258 . S
O329 Cd320 2.378 . S
O329 C327 1.256 . S
O330 Cd331 2.300 . S
O330 C337 1.275 . S
Cd331 O330 2.300 . S
Cd331 O339 2.381 . S
Cd331 O340 2.378 . S
O332 Cd333 2.385 . S
O332 C337 1.255 . S
Cd333 O332 2.385 . S
Cd333 O334 2.317 . S
O334 Cd333 2.317 . S
O334 C335 1.232 . S
C335 O334 1.232 . S
C335 O336 1.218 . S
O336 C335 1.218 . S
C337 O330 1.275 . S
C337 O332 1.255 . S
C338 O339 1.258 . S
C338 O340 1.256 . S
O339 Cd331 2.381 . S
O339 C338 1.258 . S
O340 Cd331 2.378 . S
O340 C338 1.256 . S
O341 Cd342 2.300 . S
O341 C348 1.275 . S
Cd342 O341 2.300 . S
Cd342 O350 2.381 . S
Cd342 O351 2.378 . S
O343 Cd344 2.385 . S
O343 C348 1.255 . S
Cd344 O343 2.385 . S
Cd344 O345 2.317 . S
O345 Cd344 2.317 . S
O345 C346 1.232 . S
C346 O345 1.232 . S
C346 O347 1.218 . S
O347 C346 1.218 . S
C348 O341 1.275 . S
C348 O343 1.255 . S
C349 O350 1.258 . S
C349 O351 1.256 . S
O350 Cd342 2.381 . S
O350 C349 1.258 . S
O351 Cd342 2.378 . S
O351 C349 1.256 . S
O352 Cd353 2.300 . S
O352 C359 1.275 . S
Cd353 O352 2.300 . S
Cd353 O361 2.381 . S
Cd353 O362 2.378 . S
O354 Cd355 2.385 . S
O354 C359 1.255 . S
Cd355 O354 2.385 . S
Cd355 O356 2.317 . S
O356 Cd355 2.317 . S
O356 C357 1.232 1_565 S
C357 O356 1.232 1_545 S
C357 O358 1.218 . S
O358 C357 1.218 . S
C359 O352 1.275 . S
C359 O354 1.255 . S
C360 O361 1.258 . S
C360 O362 1.256 . S
O361 Cd353 2.381 . S
O361 C360 1.258 . S
O362 Cd353 2.378 . S
O362 C360 1.256 . S
O363 Cd364 2.300 . S
O363 C370 1.275 . S
Cd364 O363 2.300 . S
Cd364 O372 2.381 . S
Cd364 O373 2.378 . S
O365 Cd366 2.385 . S
O365 C370 1.255 . S
Cd366 O365 2.385 . S
Cd366 O367 2.317 . S
O367 Cd366 2.317 . S
O367 C368 1.232 . S
C368 O367 1.232 . S
C368 O369 1.218 . S
O369 C368 1.218 . S
C370 O363 1.275 . S
C370 O365 1.255 . S
C371 O372 1.258 . S
C371 O373 1.256 . S
O372 Cd364 2.381 . S
O372 C371 1.258 . S
O373 Cd364 2.378 . S
O373 C371 1.256 . S
O374 Cd375 2.300 . S
O374 C381 1.275 . S
Cd375 O374 2.300 . S
Cd375 O383 2.381 . S
Cd375 O384 2.378 . S
O376 Cd377 2.385 . S
O376 C381 1.255 . S
Cd377 O376 2.385 . S
Cd377 O378 2.317 . S
O378 Cd377 2.317 . S
O378 C379 1.232 . S
C379 O378 1.232 . S
C379 O380 1.218 . S
O380 C379 1.218 . S
C381 O374 1.275 . S
C381 O376 1.255 . S
C382 O383 1.258 . S
C382 O384 1.256 . S
O383 Cd375 2.381 . S
O383 C382 1.258 . S
O384 Cd375 2.378 . S
O384 C382 1.256 . S
O385 Cd386 2.300 . S
O385 C392 1.275 . S
Cd386 O385 2.300 . S
Cd386 O394 2.381 . S
Cd386 O395 2.378 . S
O387 Cd388 2.385 . S
O387 C392 1.255 . S
Cd388 O387 2.385 . S
Cd388 O389 2.317 . S
O389 Cd388 2.317 . S
O389 C390 1.232 . S
C390 O389 1.232 . S
C390 O391 1.218 . S
O391 C390 1.218 . S
C392 O385 1.275 . S
C392 O387 1.255 . S
C393 O394 1.258 . S
C393 O395 1.256 . S
O394 Cd386 2.381 . S
O394 C393 1.258 . S
O395 Cd386 2.378 . S
O395 C393 1.256 . S
O396 Cd397 2.300 . S
O396 C403 1.275 . S
Cd397 O396 2.300 . S
Cd397 O405 2.381 . S
Cd397 O406 2.378 . S
O398 Cd399 2.385 . S
O398 C403 1.255 . S
Cd399 O398 2.385 . S
Cd399 O400 2.317 . S
O400 Cd399 2.317 . S
O400 C401 1.232 . S
C401 O400 1.232 . S
C401 O402 1.218 . S
O402 C401 1.218 . S
C403 O396 1.275 . S
C403 O398 1.255 . S
C404 O405 1.258 . S
C404 O406 1.256 . S
O405 Cd397 2.381 . S
O405 C404 1.258 . S
O406 Cd397 2.378 . S
O406 C404 1.256 . S
O407 Cd408 2.300 . S
O407 C414 1.275 . S
Cd408 O407 2.300 . S
Cd408 O416 2.381 . S
Cd408 O417 2.378 . S
O409 Cd410 2.385 . S
O409 C414 1.255 . S
Cd410 O409 2.385 . S
Cd410 O411 2.317 . S
O411 Cd410 2.317 . S
O411 C412 1.232 . S
C412 O411 1.232 . S
C412 O413 1.218 . S
O413 C412 1.218 . S
C414 O407 1.275 . S
C414 O409 1.255 . S
C415 O416 1.258 . S
C415 O417 1.256 . S
O416 Cd408 2.381 . S
O416 C415 1.258 . S
O417 Cd408 2.378 . S
O417 C415 1.256 . S
O418 Cd419 2.300 . S
O418 C425 1.275 . S
Cd419 O418 2.300 . S
Cd419 O427 2.381 . S
Cd419 O428 2.378 . S
O420 Cd421 2.385 . S
O420 C425 1.255 . S
Cd421 O420 2.385 . S
Cd421 O422 2.317 . S
O422 Cd421 2.317 . S
O422 C423 1.232 . S
C423 O422 1.232 . S
C423 O424 1.218 . S
O424 C423 1.218 . S
C425 O418 1.275 . S
C425 O420 1.255 . S
C426 O427 1.258 . S
C426 O428 1.256 . S
O427 Cd419 2.381 . S
O427 C426 1.258 . S
O428 Cd419 2.378 . S
O428 C426 1.256 . S
O429 Cd430 2.300 . S
O429 C436 1.275 . S
Cd430 O429 2.300 . S
Cd430 O438 2.381 . S
Cd430 O439 2.378 . S
O431 Cd432 2.385 . S
O431 C436 1.255 . S
Cd432 O431 2.385 . S
Cd432 O433 2.317 . S
O433 Cd432 2.317 . S
O433 C434 1.232 . S
C434 O433 1.232 . S
C434 O435 1.218 . S
O435 C434 1.218 . S
C436 O429 1.275 . S
C436 O431 1.255 . S
C437 O438 1.258 . S
C437 O439 1.256 . S
O438 Cd430 2.381 . S
O438 C437 1.258 . S
O439 Cd430 2.378 . S
O439 C437 1.256 . S
O440 Cd441 2.300 . S
O440 C447 1.275 . S
Cd441 O440 2.300 . S
Cd441 O449 2.381 . S
Cd441 O450 2.378 . S
O442 Cd443 2.385 . S
O442 C447 1.255 . S
Cd443 O442 2.385 . S
Cd443 O444 2.317 . S
O444 Cd443 2.317 . S
O444 C445 1.232 . S
C445 O444 1.232 . S
C445 O446 1.218 . S
O446 C445 1.218 . S
C447 O440 1.275 . S
C447 O442 1.255 . S
C448 O449 1.258 . S
C448 O450 1.256 . S
O449 Cd441 2.381 . S
O449 C448 1.258 . S
O450 Cd441 2.378 . S
O450 C448 1.256 . S
O451 Cd452 2.300 . S
O451 C458 1.275 . S
Cd452 O451 2.300 . S
Cd452 O460 2.381 . S
Cd452 O461 2.378 . S
O453 Cd454 2.385 . S
O453 C458 1.255 . S
Cd454 O453 2.385 . S
Cd454 O455 2.317 . S
O455 Cd454 2.317 . S
O455 C456 1.232 . S
C456 O455 1.232 . S
C456 O457 1.218 . S
O457 C456 1.218 . S
C458 O451 1.275 . S
C458 O453 1.255 . S
C459 O460 1.258 . S
C459 O461 1.256 . S
O460 Cd452 2.381 . S
O460 C459 1.258 . S
O461 Cd452 2.378 . S
O461 C459 1.256 . S
O462 Cd463 2.300 . S
O462 C469 1.275 . S
Cd463 O462 2.300 . S
Cd463 O471 2.381 . S
Cd463 O472 2.378 . S
O464 Cd465 2.385 . S
O464 C469 1.255 . S
Cd465 O464 2.385 . S
Cd465 O466 2.317 . S
O466 Cd465 2.317 . S
O466 C467 1.232 . S
C467 O466 1.232 . S
C467 O468 1.218 . S
O468 C467 1.218 . S
C469 O462 1.275 . S
C469 O464 1.255 . S
C470 O471 1.258 . S
C470 O472 1.256 . S
O471 Cd463 2.381 . S
O471 C470 1.258 . S
O472 Cd463 2.378 . S
O472 C470 1.256 . S
O473 Cd474 2.300 . S
O473 C480 1.275 . S
Cd474 O473 2.300 . S
Cd474 O482 2.381 . S
Cd474 O483 2.378 . S
O475 Cd476 2.385 . S
O475 C480 1.255 . S
Cd476 O475 2.385 . S
Cd476 O477 2.317 . S
O477 Cd476 2.317 . S
O477 C478 1.232 . S
C478 O477 1.232 . S
C478 O479 1.218 . S
O479 C478 1.218 . S
C480 O473 1.275 . S
C480 O475 1.255 . S
C481 O482 1.258 . S
C481 O483 1.256 . S
O482 Cd474 2.381 . S
O482 C481 1.258 . S
O483 Cd474 2.378 . S
O483 C481 1.256 . S
O484 Cd485 2.300 . S
O484 C491 1.275 . S
Cd485 O484 2.300 . S
Cd485 O493 2.381 . S
Cd485 O494 2.378 . S
O486 Cd487 2.385 . S
O486 C491 1.255 . S
Cd487 O486 2.385 . S
Cd487 O488 2.317 . S
O488 Cd487 2.317 . S
O488 C489 1.232 . S
C489 O488 1.232 . S
C489 O490 1.218 . S
O490 C489 1.218 . S
C491 O484 1.275 . S
C491 O486 1.255 . S
C492 O493 1.258 . S
C492 O494 1.256 . S
O493 Cd485 2.381 . S
O493 C492 1.258 . S
O494 Cd485 2.378 . S
O494 C492 1.256 . S
O495 Cd496 2.300 . S
O495 C502 1.275 . S
Cd496 O495 2.300 . S
Cd496 O504 2.381 . S
Cd496 O505 2.378 . S
O497 Cd498 2.385 . S
O497 C502 1.255 . S
Cd498 O497 2.385 . S
Cd498 O499 2.317 . S
O499 Cd498 2.317 . S
O499 C500 1.232 . S
C500 O499 1.232 . S
C500 O501 1.218 . S
O501 C500 1.218 . S
C502 O495 1.275 . S
C502 O497 1.255 . S
C503 O504 1.258 . S
C503 O505 1.256 . S
O504 Cd496 2.381 . S
O504 C503 1.258 . S
O505 Cd496 2.378 . S
O505 C503 1.256 . S
O506 Cd507 2.300 . S
O506 C513 1.275 . S
Cd507 O506 2.300 . S
Cd507 O515 2.381 . S
Cd507 O516 2.378 . S
O508 Cd509 2.385 . S
O508 C513 1.255 . S
Cd509 O508 2.385 . S
Cd509 O510 2.317 . S
O510 Cd509 2.317 . S
O510 C511 1.232 . S
C511 O510 1.232 . S
C511 O512 1.218 . S
O512 C511 1.218 . S
C513 O506 1.275 . S
C513 O508 1.255 . S
C514 O515 1.258 . S
C514 O516 1.256 . S
O515 Cd507 2.381 . S
O515 C514 1.258 . S
O516 Cd507 2.378 . S
O516 C514 1.256 . S
O517 Cd518 2.300 . S
O517 C524 1.275 . S
Cd518 O517 2.300 . S
Cd518 O526 2.381 . S
Cd518 O527 2.378 . S
O519 Cd520 2.385 . S
O519 C524 1.255 . S
Cd520 O519 2.385 . S
Cd520 O521 2.317 . S
O521 Cd520 2.317 . S
O521 C522 1.232 . S
C522 O521 1.232 . S
C522 O523 1.218 . S
O523 C522 1.218 . S
C524 O517 1.275 . S
C524 O519 1.255 . S
C525 O526 1.258 . S
C525 O527 1.256 . S
O526 Cd518 2.381 . S
O526 C525 1.258 . S
O527 Cd518 2.378 . S
O527 C525 1.256 . S
O528 Cd529 2.300 . S
O528 C535 1.275 . S
Cd529 O528 2.300 . S
Cd529 O537 2.381 . S
Cd529 O538 2.378 . S
O530 Cd531 2.385 . S
O530 C535 1.255 . S
Cd531 O530 2.385 . S
Cd531 O532 2.317 . S
O532 Cd531 2.317 . S
O532 C533 1.232 . S
C533 O532 1.232 . S
C533 O534 1.218 . S
O534 C533 1.218 . S
C535 O528 1.275 . S
C535 O530 1.255 . S
C536 O537 1.258 . S
C536 O538 1.256 . S
O537 Cd529 2.381 . S
O537 C536 1.258 . S
O538 Cd529 2.378 . S
O538 C536 1.256 . S
O539 Cd540 2.300 . S
O539 C546 1.275 . S
Cd540 O539 2.300 . S
Cd540 O548 2.381 . S
Cd540 O549 2.378 . S
O541 Cd542 2.385 . S
O541 C546 1.255 . S
Cd542 O541 2.385 . S
Cd542 O543 2.317 . S
O543 Cd542 2.317 . S
O543 C544 1.232 . S
C544 O543 1.232 . S
C544 O545 1.218 . S
O545 C544 1.218 . S
C546 O539 1.275 . S
C546 O541 1.255 . S
C547 O548 1.258 . S
C547 O549 1.256 . S
O548 Cd540 2.381 . S
O548 C547 1.258 . S
O549 Cd540 2.378 . S
O549 C547 1.256 . S
O550 Cd551 2.300 . S
O550 C557 1.275 . S
Cd551 O550 2.300 . S
Cd551 O559 2.381 . S
Cd551 O560 2.378 . S
O552 Cd553 2.385 . S
O552 C557 1.255 . S
Cd553 O552 2.385 . S
Cd553 O554 2.317 . S
O554 Cd553 2.317 . S
O554 C555 1.232 . S
C555 O554 1.232 . S
C555 O556 1.218 . S
O556 C555 1.218 . S
C557 O550 1.275 . S
C557 O552 1.255 . S
C558 O559 1.258 . S
C558 O560 1.256 . S
O559 Cd551 2.381 . S
O559 C558 1.258 . S
O560 Cd551 2.378 . S
O560 C558 1.256 . S
O561 Cd562 2.300 . S
O561 C568 1.275 . S
Cd562 O561 2.300 . S
Cd562 O570 2.381 . S
Cd562 O571 2.378 . S
O563 Cd564 2.385 . S
O563 C568 1.255 . S
Cd564 O563 2.385 . S
Cd564 O565 2.317 . S
O565 Cd564 2.317 . S
O565 C566 1.232 . S
C566 O565 1.232 . S
C566 O567 1.218 . S
O567 C566 1.218 . S
C568 O561 1.275 . S
C568 O563 1.255 . S
C569 O570 1.258 . S
C569 O571 1.256 . S
O570 Cd562 2.381 . S
O570 C569 1.258 . S
O571 Cd562 2.378 . S
O571 C569 1.256 . S
O572 Cd573 2.300 . S
O572 C579 1.275 . S
Cd573 O572 2.300 . S
Cd573 O581 2.381 . S
Cd573 O582 2.378 . S
O574 Cd575 2.385 . S
O574 C579 1.255 . S
Cd575 O574 2.385 . S
Cd575 O576 2.317 . S
O576 Cd575 2.317 . S
O576 C577 1.232 . S
C577 O576 1.232 . S
C577 O578 1.218 . S
O578 C577 1.218 . S
C579 O572 1.275 . S
C579 O574 1.255 . S
C580 O581 1.258 . S
C580 O582 1.256 . S
O581 Cd573 2.381 . S
O581 C580 1.258 . S
O582 Cd573 2.378 . S
O582 C580 1.256 . S
O583 Cd584 2.300 . S
O583 C590 1.275 . S
Cd584 O583 2.300 . S
Cd584 O592 2.381 . S
Cd584 O593 2.378 . S
O585 Cd586 2.385 . S
O585 C590 1.255 . S
Cd586 O585 2.385 . S
Cd586 O587 2.317 . S
O587 Cd586 2.317 . S
O587 C588 1.232 . S
C588 O587 1.232 . S
C588 O589 1.218 . S
O589 C588 1.218 . S
C590 O583 1.275 . S
C590 O585 1.255 . S
C591 O592 1.258 . S
C591 O593 1.256 . S
O592 Cd584 2.381 . S
O592 C591 1.258 . S
O593 Cd584 2.378 . S
O593 C591 1.256 . S
O594 Cd595 2.300 . S
O594 C601 1.275 . S
Cd595 O594 2.300 . S
Cd595 O603 2.381 . S
Cd595 O604 2.378 . S
O596 Cd597 2.385 . S
O596 C601 1.255 . S
Cd597 O596 2.385 . S
Cd597 O598 2.317 . S
O598 Cd597 2.317 . S
O598 C599 1.232 . S
C599 O598 1.232 . S
C599 O600 1.218 . S
O600 C599 1.218 . S
C601 O594 1.275 . S
C601 O596 1.255 . S
C602 O603 1.258 . S
C602 O604 1.256 . S
O603 Cd595 2.381 . S
O603 C602 1.258 . S
O604 Cd595 2.378 . S
O604 C602 1.256 . S
O605 Cd606 2.300 . S
O605 C612 1.275 . S
Cd606 O605 2.300 . S
Cd606 O614 2.381 . S
Cd606 O615 2.378 . S
O607 Cd608 2.385 . S
O607 C612 1.255 . S
Cd608 O607 2.385 . S
Cd608 O609 2.317 . S
O609 Cd608 2.317 . S
O609 C610 1.232 . S
C610 O609 1.232 . S
C610 O611 1.218 . S
O611 C610 1.218 . S
C612 O605 1.275 . S
C612 O607 1.255 . S
C613 O614 1.258 . S
C613 O615 1.256 . S
O614 Cd606 2.381 . S
O614 C613 1.258 . S
O615 Cd606 2.378 . S
O615 C613 1.256 . S
O616 Cd617 2.300 . S
O616 C623 1.275 . S
Cd617 O616 2.300 . S
Cd617 O625 2.381 . S
Cd617 O626 2.378 . S
O618 Cd619 2.385 . S
O618 C623 1.255 . S
Cd619 O618 2.385 . S
Cd619 O620 2.317 . S
O620 Cd619 2.317 . S
O620 C621 1.232 . S
C621 O620 1.232 . S
C621 O622 1.218 . S
O622 C621 1.218 . S
C623 O616 1.275 . S
C623 O618 1.255 . S
C624 O625 1.258 . S
C624 O626 1.256 . S
O625 Cd617 2.381 . S
O625 C624 1.258 . S
O626 Cd617 2.378 . S
O626 C624 1.256 . S
O627 Cd628 2.300 . S
O627 C634 1.275 . S
Cd628 O627 2.300 . S
Cd628 O636 2.381 . S
Cd628 O637 2.378 . S
O629 Cd630 2.385 . S
O629 C634 1.255 . S
Cd630 O629 2.385 . S
Cd630 O631 2.317 . S
O631 Cd630 2.317 . S
O631 C632 1.232 . S
C632 O631 1.232 . S
C632 O633 1.218 . S
O633 C632 1.218 . S
C634 O627 1.275 . S
C634 O629 1.255 . S
C635 O636 1.258 . S
C635 O637 1.256 . S
O636 Cd628 2.381 . S
O636 C635 1.258 . S
O637 Cd628 2.378 . S
O637 C635 1.256 . S
O638 Cd639 2.300 . S
O638 C645 1.275 . S
Cd639 O638 2.300 . S
Cd639 O647 2.381 . S
Cd639 O648 2.378 . S
O640 Cd641 2.385 . S
O640 C645 1.255 . S
Cd641 O640 2.385 . S
Cd641 O642 2.317 . S
O642 Cd641 2.317 . S
O642 C643 1.232 . S
C643 O642 1.232 . S
C643 O644 1.218 . S
O644 C643 1.218 . S
C645 O638 1.275 . S
C645 O640 1.255 . S
C646 O647 1.258 . S
C646 O648 1.256 . S
O647 Cd639 2.381 . S
O647 C646 1.258 . S
O648 Cd639 2.378 . S
O648 C646 1.256 . S
O649 Cd650 2.300 . S
O649 C656 1.275 . S
Cd650 O649 2.300 . S
Cd650 O658 2.381 . S
Cd650 O659 2.378 . S
O651 Cd652 2.385 . S
O651 C656 1.255 . S
Cd652 O651 2.385 . S
Cd652 O653 2.317 . S
O653 Cd652 2.317 . S
O653 C654 1.232 . S
C654 O653 1.232 . S
C654 O655 1.218 . S
O655 C654 1.218 . S
C656 O649 1.275 . S
C656 O651 1.255 . S
C657 O658 1.258 . S
C657 O659 1.256 . S
O658 Cd650 2.381 . S
O658 C657 1.258 . S
O659 Cd650 2.378 . S
O659 C657 1.256 . S
O660 Cd661 2.300 . S
O660 C667 1.275 . S
Cd661 O660 2.300 . S
Cd661 O669 2.381 . S
Cd661 O670 2.378 . S
O662 Cd663 2.385 . S
O662 C667 1.255 . S
Cd663 O662 2.385 . S
Cd663 O664 2.317 . S
O664 Cd663 2.317 . S
O664 C665 1.232 . S
C665 O664 1.232 . S
C665 O666 1.218 . S
O666 C665 1.218 . S
C667 O660 1.275 . S
C667 O662 1.255 . S
C668 O669 1.258 . S
C668 O670 1.256 . S
O669 Cd661 2.381 . S
O669 C668 1.258 . S
O670 Cd661 2.378 . S
O670 C668 1.256 . S
O671 Cd672 2.300 1_556 S
O671 C678 1.275 . S
Cd672 O671 2.300 1_554 S
Cd672 O680 2.381 . S
Cd672 O681 2.378 . S
O673 Cd674 2.385 1_556 S
O673 C678 1.255 . S
Cd674 O673 2.385 1_554 S
Cd674 O675 2.317 . S
O675 Cd674 2.317 . S
O675 C676 1.232 . S
C676 O675 1.232 . S
C676 O677 1.218 . S
O677 C676 1.218 . S
C678 O671 1.275 . S
C678 O673 1.255 . S
C679 O680 1.258 . S
C679 O681 1.256 . S
O680 Cd672 2.381 . S
O680 C679 1.258 . S
O681 Cd672 2.378 . S
O681 C679 1.256 . S
O682 Cd683 2.300 . S
O682 C689 1.275 . S
Cd683 O682 2.300 . S
Cd683 O691 2.381 . S
Cd683 O692 2.378 . S
O684 Cd685 2.385 . S
O684 C689 1.255 . S
Cd685 O684 2.385 . S
Cd685 O686 2.317 . S
O686 Cd685 2.317 . S
O686 C687 1.232 . S
C687 O686 1.232 . S
C687 O688 1.218 . S
O688 C687 1.218 . S
C689 O682 1.275 . S
C689 O684 1.255 . S
C690 O691 1.258 . S
C690 O692 1.256 . S
O691 Cd683 2.381 . S
O691 C690 1.258 . S
O692 Cd683 2.378 . S
O692 C690 1.256 . S
O693 Cd694 2.300 . S
O693 C700 1.275 . S
Cd694 O693 2.300 . S
Cd694 O702 2.381 . S
Cd694 O703 2.378 . S
O695 Cd696 2.385 . S
O695 C700 1.255 . S
Cd696 O695 2.385 . S
Cd696 O697 2.317 . S
O697 Cd696 2.317 . S
O697 C698 1.232 . S
C698 O697 1.232 . S
C698 O699 1.218 . S
O699 C698 1.218 . S
C700 O693 1.275 . S
C700 O695 1.255 . S
C701 O702 1.258 . S
C701 O703 1.256 . S
O702 Cd694 2.381 . S
O702 C701 1.258 . S
O703 Cd694 2.378 . S
O703 C701 1.256 . S
O704 Cd705 2.300 . S
O704 C711 1.275 . S
Cd705 O704 2.300 . S
Cd705 O713 2.381 . S
Cd705 O714 2.378 . S
O706 Cd707 2.385 . S
O706 C711 1.255 . S
Cd707 O706 2.385 . S
Cd707 O708 2.317 . S
O708 Cd707 2.317 . S
O708 C709 1.232 . S
C709 O708 1.232 . S
C709 O710 1.218 . S
O710 C709 1.218 . S
C711 O704 1.275 . S
C711 O706 1.255 . S
C712 O713 1.258 . S
C712 O714 1.256 . S
O713 Cd705 2.381 . S
O713 C712 1.258 . S
O714 Cd705 2.378 . S
O714 C712 1.256 . S
O715 Cd716 2.300 . S
O715 C722 1.275 . S
Cd716 O715 2.300 . S
Cd716 O724 2.381 . S
Cd716 O725 2.378 . S
O717 Cd718 2.385 . S
O717 C722 1.255 . S
Cd718 O717 2.385 . S
Cd718 O719 2.317 . S
O719 Cd718 2.317 . S
O719 C720 1.232 . S
C720 O719 1.232 . S
C720 O721 1.218 . S
O721 C720 1.218 . S
C722 O715 1.275 . S
C722 O717 1.255 . S
C723 O724 1.258 . S
C723 O725 1.256 . S
O724 Cd716 2.381 . S
O724 C723 1.258 . S
O725 Cd716 2.378 . S
O725 C723 1.256 . S
O726 Cd727 2.300 . S
O726 C733 1.275 . S
Cd727 O726 2.300 . S
Cd727 O735 2.381 . S
Cd727 O736 2.378 . S
O728 Cd729 2.385 . S
O728 C733 1.255 . S
Cd729 O728 2.385 . S
Cd729 O730 2.317 . S
O730 Cd729 2.317 . S
O730 C731 1.232 . S
C731 O730 1.232 . S
C731 O732 1.218 . S
O732 C731 1.218 . S
C733 O726 1.275 . S
C733 O728 1.255 . S
C734 O735 1.258 . S
C734 O736 1.256 . S
O735 Cd727 2.381 . S
O735 C734 1.258 . S
O736 Cd727 2.378 . S
O736 C734 1.256 . S
O737 Cd738 2.300 . S
O737 C744 1.275 . S
Cd738 O737 2.300 . S
Cd738 O746 2.381 . S
Cd738 O747 2.378 . S
O739 Cd740 2.385 . S
O739 C744 1.255 . S
Cd740 O739 2.385 . S
Cd740 O741 2.317 . S
O741 Cd740 2.317 . S
O741 C742 1.232 . S
C742 O741 1.232 . S
C742 O743 1.218 . S
O743 C742 1.218 . S
C744 O737 1.275 . S
C744 O739 1.255 . S
C745 O746 1.258 . S
C745 O747 1.256 . S
O746 Cd738 2.381 . S
O746 C745 1.258 . S
O747 Cd738 2.378 . S
O747 C745 1.256 . S
O748 Cd749 2.300 . S
O748 C755 1.275 . S
Cd749 O748 2.300 . S
Cd749 O757 2.381 . S
Cd749 O758 2.378 . S
O750 Cd751 2.385 . S
O750 C755 1.255 . S
Cd751 O750 2.385 . S
Cd751 O752 2.317 . S
O752 Cd751 2.317 . S
O752 C753 1.232 . S
C753 O752 1.232 . S
C753 O754 1.218 . S
O754 C753 1.218 . S
C755 O748 1.275 . S
C755 O750 1.255 . S
C756 O757 1.258 . S
C756 O758 1.256 . S
O757 Cd749 2.381 . S
O757 C756 1.258 . S
O758 Cd749 2.378 . S
O758 C756 1.256 . S
O759 Cd760 2.300 . S
O759 C766 1.275 . S
Cd760 O759 2.300 . S
Cd760 O768 2.381 . S
Cd760 O769 2.378 . S
O761 Cd762 2.385 . S
O761 C766 1.255 . S
Cd762 O761 2.385 . S
Cd762 O763 2.317 . S
O763 Cd762 2.317 . S
O763 C764 1.232 . S
C764 O763 1.232 . S
C764 O765 1.218 . S
O765 C764 1.218 . S
C766 O759 1.275 . S
C766 O761 1.255 . S
C767 O768 1.258 . S
C767 O769 1.256 . S
O768 Cd760 2.381 . S
O768 C767 1.258 . S
O769 Cd760 2.378 . S
O769 C767 1.256 . S
O770 Cd771 2.300 . S
O770 C777 1.275 . S
Cd771 O770 2.300 . S
Cd771 O779 2.381 . S
Cd771 O780 2.378 . S
O772 Cd773 2.385 . S
O772 C777 1.255 . S
Cd773 O772 2.385 . S
Cd773 O774 2.317 . S
O774 Cd773 2.317 . S
O774 C775 1.232 . S
C775 O774 1.232 . S
C775 O776 1.218 . S
O776 C775 1.218 . S
C777 O770 1.275 . S
C777 O772 1.255 . S
C778 O779 1.258 . S
C778 O780 1.256 . S
O779 Cd771 2.381 . S
O779 C778 1.258 . S
O780 Cd771 2.378 . S
O780 C778 1.256 . S
O781 Cd782 2.300 . S
O781 C788 1.275 1_565 S
Cd782 O781 2.300 . S
Cd782 O790 2.381 . S
Cd782 O791 2.378 . S
O783 Cd784 2.385 . S
O783 C788 1.255 1_565 S
Cd784 O783 2.385 . S
Cd784 O785 2.317 . S
O785 Cd784 2.317 . S
O785 C786 1.232 . S
C786 O785 1.232 . S
C786 O787 1.218 . S
O787 C786 1.218 . S
C788 O781 1.275 1_545 S
C788 O783 1.255 1_545 S
C789 O790 1.258 . S
C789 O791 1.256 . S
O790 Cd782 2.381 . S
O790 C789 1.258 . S
O791 Cd782 2.378 . S
O791 C789 1.256 . S
O792 Cd793 2.300 . S
O792 C799 1.275 . S
Cd793 O792 2.300 . S
Cd793 O801 2.381 . S
Cd793 O802 2.378 . S
O794 Cd795 2.385 . S
O794 C799 1.255 . S
Cd795 O794 2.385 . S
Cd795 O796 2.317 . S
O796 Cd795 2.317 . S
O796 C797 1.232 . S
C797 O796 1.232 . S
C797 O798 1.218 . S
O798 C797 1.218 . S
C799 O792 1.275 . S
C799 O794 1.255 . S
C800 O801 1.258 . S
C800 O802 1.256 . S
O801 Cd793 2.381 . S
O801 C800 1.258 . S
O802 Cd793 2.378 . S
O802 C800 1.256 . S
O803 Cd804 2.300 . S
O803 C810 1.275 . S
Cd804 O803 2.300 . S
Cd804 O812 2.381 . S
Cd804 O813 2.378 . S
O805 Cd806 2.385 . S
O805 C810 1.255 . S
Cd806 O805 2.385 . S
Cd806 O807 2.317 . S
O807 Cd806 2.317 . S
O807 C808 1.232 . S
C808 O807 1.232 . S
C808 O809 1.218 . S
O809 C808 1.218 . S
C810 O803 1.275 . S
C810 O805 1.255 . S
C811 O812 1.258 . S
C811 O813 1.256 . S
O812 Cd804 2.381 . S
O812 C811 1.258 . S
O813 Cd804 2.378 . S
O813 C811 1.256 . S
O814 Cd815 2.300 . S
O814 C821 1.275 . S
Cd815 O814 2.300 . S
Cd815 O823 2.381 . S
Cd815 O824 2.378 . S
O816 Cd817 2.385 . S
O816 C821 1.255 . S
Cd817 O816 2.385 . S
Cd817 O818 2.317 . S
O818 Cd817 2.317 . S
O818 C819 1.232 . S
C819 O818 1.232 . S
C819 O820 1.218 . S
O820 C819 1.218 . S
C821 O814 1.275 . S
C821 O816 1.255 . S
C822 O823 1.258 . S
C822 O824 1.256 . S
O823 Cd815 2.381 . S
O823 C822 1.258 . S
O824 Cd815 2.378 . S
O824 C822 1.256 . S
O825 Cd826 2.300 . S
O825 C832 1.275 . S
Cd826 O825 2.300 . S
Cd826 O834 2.381 . S
Cd826 O835 2.378 . S
O827 Cd828 2.385 . S
O827 C832 1.255 . S
Cd828 O827 2.385 . S
Cd828 O829 2.317 . S
O829 Cd828 2.317 . S
O829 C830 1.232 1_455 S
C830 O829 1.232 1_655 S
C830 O831 1.218 . S
O831 C830 1.218 . S
C832 O825 1.275 . S
C832 O827 1.255 . S
C833 O834 1.258 . S
C833 O835 1.256 . S
O834 Cd826 2.381 . S
O834 C833 1.258 . S
O835 Cd826 2.378 . S
O835 C833 1.256 . S
O836 Cd837 2.300 . S
O836 C843 1.275 . S
Cd837 O836 2.300 . S
Cd837 O845 2.381 . S
Cd837 O846 2.378 . S
O838 Cd839 2.385 . S
O838 C843 1.255 . S
Cd839 O838 2.385 . S
Cd839 O840 2.317 . S
O840 Cd839 2.317 . S
O840 C841 1.232 . S
C841 O840 1.232 . S
C841 O842 1.218 . S
O842 C841 1.218 . S
C843 O836 1.275 . S
C843 O838 1.255 . S
C844 O845 1.258 . S
C844 O846 1.256 . S
O845 Cd837 2.381 . S
O845 C844 1.258 . S
O846 Cd837 2.378 . S
O846 C844 1.256 . S
O847 Cd848 2.300 . S
O847 C854 1.275 . S
Cd848 O847 2.300 . S
Cd848 O856 2.381 . S
Cd848 O857 2.378 . S
O849 Cd850 2.407 . S
O849 C854 1.255 . S
Cd850 O849 2.407 . S
Cd850 O851 2.314 1_455 S
O851 Cd850 2.314 1_655 S
O851 C852 1.232 . S
C852 O851 1.232 . S
C852 O853 1.218 . S
O853 C852 1.218 . S
C854 O847 1.275 . S
C854 O849 1.255 . S
C855 O856 1.258 . S
C855 O857 1.256 . S
O856 Cd848 2.381 . S
O856 C855 1.258 . S
O857 Cd848 2.378 . S
O857 C855 1.256 . S
O858 Cd859 2.300 . S
O858 C865 1.275 . S
Cd859 O858 2.300 . S
Cd859 O867 2.381 . S
Cd859 O868 2.378 . S
O860 Cd861 2.385 . S
O860 C865 1.255 . S
Cd861 O860 2.385 . S
Cd861 O862 2.317 . S
O862 Cd861 2.317 . S
O862 C863 1.232 . S
C863 O862 1.232 . S
C863 O864 1.229 . S
O864 C863 1.229 . S
C865 O858 1.275 . S
C865 O860 1.255 . S
C866 O867 1.258 . S
C866 O868 1.256 . S
O867 Cd859 2.381 . S
O867 C866 1.258 . S
O868 Cd859 2.378 . S
O868 C866 1.256 . S
O869 Cd870 2.300 . S
O869 C876 1.275 . S
Cd870 O869 2.300 . S
Cd870 O878 2.381 . S
Cd870 O879 2.378 . S
O871 Cd872 2.385 . S
O871 C876 1.255 . S
Cd872 O871 2.385 . S
Cd872 O873 2.317 . S
O873 Cd872 2.317 . S
O873 C874 1.232 . S
C874 O873 1.232 . S
C874 O875 1.218 . S
O875 C874 1.218 . S
C876 O869 1.275 . S
C876 O871 1.255 . S
C877 O878 1.258 . S
C877 O879 1.256 . S
O878 Cd870 2.381 . S
O878 C877 1.258 . S
O879 Cd870 2.378 . S
O879 C877 1.256 . S
O880 Cd881 2.300 . S
O880 C887 1.275 . S
Cd881 O880 2.300 . S
Cd881 O889 2.381 . S
Cd881 O890 2.378 . S
O882 Cd883 2.385 . S
O882 C887 1.255 . S
Cd883 O882 2.385 . S
Cd883 O884 2.317 . S
O884 Cd883 2.317 . S
O884 C885 1.232 . S
C885 O884 1.232 . S
C885 O886 1.218 . S
O886 C885 1.218 . S
C887 O880 1.275 . S
C887 O882 1.255 . S
C888 O889 1.258 . S
C888 O890 1.256 . S
O889 Cd881 2.381 . S
O889 C888 1.258 . S
O890 Cd881 2.378 . S
O890 C888 1.256 . S
O891 Cd892 2.300 . S
O891 C898 1.275 . S
Cd892 O891 2.300 . S
Cd892 O900 2.381 . S
Cd892 O901 2.378 . S
O893 Cd894 2.385 . S
O893 C898 1.255 . S
Cd894 O893 2.385 . S
Cd894 O895 2.317 . S
O895 Cd894 2.317 . S
O895 C896 1.232 . S
C896 O895 1.232 . S
C896 O897 1.218 . S
O897 C896 1.218 . S
C898 O891 1.275 . S
C898 O893 1.255 . S
C899 O900 1.258 . S
C899 O901 1.256 . S
O900 Cd892 2.381 . S
O900 C899 1.258 . S
O901 Cd892 2.378 . S
O901 C899 1.256 . S
O902 Cd903 2.300 . S
O902 C909 1.275 . S
Cd903 O902 2.300 . S
Cd903 O911 2.381 . S
Cd903 O912 2.378 . S
O904 Cd905 2.385 . S
O904 C909 1.255 . S
Cd905 O904 2.385 . S
Cd905 O906 2.317 . S
O906 Cd905 2.317 . S
O906 C907 1.232 . S
C907 O906 1.232 . S
C907 O908 1.218 . S
O908 C907 1.218 . S
C909 O902 1.275 . S
C909 O904 1.255 . S
C910 O911 1.258 . S
C910 O912 1.256 . S
O911 Cd903 2.381 . S
O911 C910 1.258 . S
O912 Cd903 2.378 . S
O912 C910 1.256 . S
O913 Cd914 2.300 . S
O913 C920 1.275 . S
Cd914 O913 2.300 . S
Cd914 O922 2.381 . S
Cd914 O923 2.378 . S
O915 Cd916 2.385 . S
O915 C920 1.255 . S
Cd916 O915 2.385 . S
Cd916 O917 2.317 . S
O917 Cd916 2.317 . S
O917 C918 1.232 . S
C918 O917 1.232 . S
C918 O919 1.218 . S
O919 C918 1.218 . S
C920 O913 1.275 . S
C920 O915 1.255 . S
C921 O922 1.258 . S
C921 O923 1.256 . S
O922 Cd914 2.381 . S
O922 C921 1.258 . S
O923 Cd914 2.378 . S
O923 C921 1.256 . S
O924 Cd925 2.300 . S
O924 C931 1.275 . S
Cd925 O924 2.300 . S
Cd925 O933 2.381 . S
Cd925 O934 2.378 . S
O926 Cd927 2.385 . S
O926 C931 1.255 . S
Cd927 O926 2.385 . S
Cd927 O928 2.317 . S
O928 Cd927 2.317 . S
O928 C929 1.232 . S
C929 O928 1.232 . S
C929 O930 1.218 . S
O930 C929 1.218 . S
C931 O924 1.275 . S
C931 O926 1.255 . S
C932 O933 1.258 . S
C932 O934 1.256 . S
O933 Cd925 2.381 . S
O933 C932 1.258 . S
O934 Cd925 2.378 . S
O934 C932 1.256 . S
O935 Cd936 2.300 . S
O935 C942 1.275 . S
Cd936 O935 2.300 . S
Cd936 O944 2.381 . S
Cd936 O945 2.378 . S
O937 Cd938 2.385 . S
O937 C942 1.255 . S
Cd938 O937 2.385 . S
Cd938 O939 2.317 . S
O939 Cd938 2.317 . S
O939 C940 1.232 . S
C940 O939 1.232 . S
C940 O941 1.218 . S
O941 C940 1.218 . S
C942 O935 1.275 . S
C942 O937 1.255 . S
C943 O944 1.258 . S
C943 O945 1.256 . S
O944 Cd936 2.381 . S
O944 C943 1.258 . S
O945 Cd936 2.378 . S
O945 C943 1.256 . S
O946 Cd947 2.300 . S
O946 C953 1.275 . S
Cd947 O946 2.300 . S
Cd947 O955 2.381 . S
Cd947 O956 2.378 . S
O948 Cd949 2.385 . S
O948 C953 1.255 . S
Cd949 O948 2.385 . S
Cd949 O950 2.317 . S
O950 Cd949 2.317 . S
O950 C951 1.232 . S
C951 O950 1.232 . S
C951 O952 1.218 . S
O952 C951 1.218 . S
C953 O946 1.275 . S
C953 O948 1.255 . S
C954 O955 1.258 . S
C954 O956 1.256 . S
O955 Cd947 2.381 . S
O955 C954 1.258 . S
O956 Cd947 2.378 . S
O956 C954 1.256 . S
O957 Cd958 2.300 . S
O957 C964 1.275 . S
Cd958 O957 2.300 . S
Cd958 O966 2.381 . S
Cd958 O967 2.378 . S
O959 Cd960 2.385 . S
O959 C964 1.255 . S
Cd960 O959 2.385 . S
Cd960 O961 2.317 . S
O961 Cd960 2.317 . S
O961 C962 1.232 . S
C962 O961 1.232 . S
C962 O963 1.218 . S
O963 C962 1.218 . S
C964 O957 1.275 . S
C964 O959 1.255 . S
C965 O966 1.258 . S
C965 O967 1.256 . S
O966 Cd958 2.381 . S
O966 C965 1.258 . S
O967 Cd958 2.378 . S
O967 C965 1.256 . S
O968 Cd969 2.300 . S
O968 C975 1.275 . S
Cd969 O968 2.300 . S
Cd969 O977 2.381 . S
Cd969 O978 2.378 . S
O970 Cd971 2.385 . S
O970 C975 1.255 . S
Cd971 O970 2.385 . S
Cd971 O972 2.317 . S
O972 Cd971 2.317 . S
O972 C973 1.232 . S
C973 O972 1.232 . S
C973 O974 1.218 . S
O974 C973 1.218 . S
C975 O968 1.275 . S
C975 O970 1.255 . S
C976 O977 1.258 . S
C976 O978 1.256 . S
O977 Cd969 2.381 . S
O977 C976 1.258 . S
O978 Cd969 2.378 . S
O978 C976 1.256 . S
O979 Cd980 2.300 . S
O979 C986 1.275 . S
Cd980 O979 2.300 . S
Cd980 O988 2.381 . S
Cd980 O989 2.378 . S
O981 Cd982 2.385 . S
O981 C986 1.255 . S
Cd982 O981 2.385 . S
Cd982 O983 2.317 . S
O983 Cd982 2.317 . S
O983 C984 1.232 . S
C984 O983 1.232 . S
C984 O985 1.218 . S
O985 C984 1.218 . S
C986 O979 1.275 . S
C986 O981 1.255 . S
C987 O988 1.258 . S
C987 O989 1.256 . S
O988 Cd980 2.381 . S
O988 C987 1.258 . S
O989 Cd980 2.378 . S
O989 C987 1.256 . S
O990 Cd991 2.300 . S
O990 C997 1.275 . S
Cd991 O990 2.300 . S
Cd991 O999 2.381 . S
Cd991 O1000 2.378 . S
O992 Cd993 2.385 . S
O992 C997 1.255 . S
Cd993 O992 2.385 . S
Cd993 O994 2.317 . S
O994 Cd993 2.317 . S
O994 C995 1.232 . S
C995 O994 1.232 . S
C995 O996 1.218 . S
O996 C995 1.218 . S
C997 O990 1.275 . S
C997 O992 1.255 . S
C998 O999 1.258 . S
C998 O1000 1.256 . S
O999 Cd991 2.381 . S
O999 C998 1.258 . S
O1000 Cd991 2.378 . S
O1000 C998 1.256 . S
O1001 Cd1002 2.300 . S
O1001 C1008 1.275 . S
Cd1002 O1001 2.300 . S
Cd1002 O1010 2.381 . S
Cd1002 O1011 2.378 . S
O1003 Cd1004 2.385 . S
O1003 C1008 1.255 . S
Cd1004 O1003 2.385 . S
Cd1004 O1005 2.317 . S
O1005 Cd1004 2.317 . S
O1005 C1006 1.232 1_554 S
C1006 O1005 1.232 1_556 S
C1006 O1007 1.218 . S
O1007 C1006 1.218 . S
C1008 O1001 1.275 . S
C1008 O1003 1.255 . S
C1009 O1010 1.258 . S
C1009 O1011 1.256 . S
O1010 Cd1002 2.381 . S
O1010 C1009 1.258 . S
O1011 Cd1002 2.378 . S
O1011 C1009 1.256 . S
O1012 Cd1013 2.300 . S
O1012 C1019 1.275 . S
Cd1013 O1012 2.300 . S
Cd1013 O1021 2.381 . S
Cd1013 O1022 2.378 . S
O1014 Cd1015 2.385 . S
O1014 C1019 1.255 . S
Cd1015 O1014 2.385 . S
Cd1015 O1016 2.317 . S
O1016 Cd1015 2.317 . S
O1016 C1017 1.232 . S
C1017 O1016 1.232 . S
C1017 O1018 1.218 . S
O1018 C1017 1.218 . S
C1019 O1012 1.275 . S
C1019 O1014 1.255 . S
C1020 O1021 1.258 . S
C1020 O1022 1.256 . S
O1021 Cd1013 2.381 . S
O1021 C1020 1.258 . S
O1022 Cd1013 2.378 . S
O1022 C1020 1.256 . S
O1023 Cd1024 2.300 . S
O1023 C1030 1.275 . S
Cd1024 O1023 2.300 . S
Cd1024 O1032 2.381 . S
Cd1024 O1033 2.378 . S
O1025 Cd1026 2.385 . S
O1025 C1030 1.255 . S
Cd1026 O1025 2.385 . S
Cd1026 O1027 2.317 . S
O1027 Cd1026 2.317 . S
O1027 C1028 1.232 1_556 S
C1028 O1027 1.232 1_554 S
C1028 O1029 1.218 . S
O1029 C1028 1.218 . S
C1030 O1023 1.275 . S
C1030 O1025 1.255 . S
C1031 O1032 1.258 . S
C1031 O1033 1.256 . S
O1032 Cd1024 2.381 . S
O1032 C1031 1.258 . S
O1033 Cd1024 2.378 . S
O1033 C1031 1.256 . S
O1034 Cd1035 2.300 . S
O1034 C1041 1.275 . S
Cd1035 O1034 2.300 . S
Cd1035 O1043 2.381 . S
Cd1035 O1044 2.378 . S
O1036 Cd1037 2.385 . S
O1036 C1041 1.255 . S
Cd1037 O1036 2.385 . S
Cd1037 O1038 2.317 . S
O1038 Cd1037 2.317 . S
O1038 C1039 1.232 . S
C1039 O1038 1.232 . S
C1039 O1040 1.218 . S
O1040 C1039 1.218 . S
C1041 O1034 1.275 . S
C1041 O1036 1.255 . S
C1042 O1043 1.258 . S
C1042 O1044 1.256 . S
O1043 Cd1035 2.381 . S
O1043 C1042 1.258 . S
O1044 Cd1035 2.378 . S
O1044 C1042 1.256 . S
O1045 Cd1046 2.300 . S
O1045 C1052 1.275 . S
Cd1046 O1045 2.300 . S
Cd1046 O1054 2.381 . S
Cd1046 O1055 2.378 . S
O1047 Cd1048 2.385 . S
O1047 C1052 1.255 . S
Cd1048 O1047 2.385 . S
Cd1048 O1049 2.317 . S
O1049 Cd1048 2.317 . S
O1049 C1050 1.232 . S
C1050 O1049 1.232 . S
C1050 O1051 1.218 . S
O1051 C1050 1.218 . S
C1052 O1045 1.275 . S
C1052 O1047 1.255 . S
C1053 O1054 1.258 . S
C1053 O1055 1.256 . S
O1054 Cd1046 2.381 . S
O1054 C1053 1.258 . S
O1055 Cd1046 2.378 . S
O1055 C1053 1.256 . S
C8 C107 1.587 . S
C19 C118 1.766 . S
C129 C30 1.449 . S
C96 C41 1.644 . S
C52 C173 1.565 . S
C63 C140 1.583 . S
C151 C74 1.500 . S
C85 C162 1.611 . S
C206 C184 1.702 . S
C778 C195 1.702 . S
C789 C217 1.642 . S
C767 C228 1.682 . S
C756 C239 1.642 . S
C250 C723 1.663 . S
C261 C745 1.683 . S
C371 C272 1.658 . S
C382 C283 1.678 . S
C294 C393 1.769 . S
C360 C305 1.751 . S
C316 C437 1.763 . S
C327 C404 1.726 . S
C415 C338 1.663 . S
C349 C426 1.668 . S
C470 C448 1.810 . S
C1042 C459 1.810 . S
C481 C1053 1.686 . S
C492 C1031 1.748 . S
C503 C1020 1.684 . S
C987 C514 1.791 . S
C525 C1009 1.749 . S
C536 C635 1.564 . S
C547 C646 1.611 . S
C657 C558 1.500 . S
C624 C569 1.583 . S
C701 C580 1.587 . S
C591 C668 1.644 . S
C602 C679 1.449 . S
C613 C690 1.768 . S
C734 C712 1.662 . S
C800 C899 1.764 . S
C811 C910 1.667 . S
C822 C921 1.664 . S
C833 C888 1.725 . S
C965 C844 1.658 . S
C932 C855 1.751 . S
C866 C943 1.768 . S
C954 C877 1.678 . S
C998 C976 1.790 . S
C7 C832 1.555 . S
C269 C16 1.641 . S
C808 C29 1.718 . S
C40 C291 1.986 . S
C51 C854 1.600 . S
C335 C62 1.926 . S
C874 C73 1.507 . S
C82 C313 0.838 . S
C995 C95 1.928 . S
C106 C478 1.843 . S
C117 C489 1.564 . S
C128 C458 1.597 . S
C1039 C139 1.840 . S
C975 C150 1.577 . S
C161 C1050 1.249 . S
C1028 C172 1.763 . S
C896 C183 2.072 . S
C434 C194 2.072 . S
C929 C205 1.959 . S
C412 C214 0.744 . S
C227 C425 1.421 . S
C918 C236 0.745 . S
C885 C249 1.882 . S
C909 C260 1.379 . S
C271 C566 1.017 . S
C282 C5 1.718 . S
C546 C293 1.762 . S
C27 C302 0.598 . S
C315 C588 0.969 . S
C71 C324 0.973 . S
C337 C612 2.024 . S
C49 C348 1.732 . S
C731 C359 1.292 . S
C370 C216 1.682 . S
C225 C379 0.746 . S
C192 C392 0.970 1_556 S
C403 C775 1.326 . S
C414 C709 0.987 . S
C423 C786 0.743 . S
C766 C436 1.707 1_554 S
C445 C632 0.513 . S
C456 C170 0.513 . S
C469 C665 1.340 . S
C480 C148 1.624 . S
C159 C491 1.357 . S
C654 C502 1.622 . S
C513 C621 1.296 . S
C524 C643 1.358 . S
C535 C304 1.601 . S
C544 C797 0.833 . S
C280 C557 1.505 . S
C819 C568 1.928 1_455 S
C579 C326 1.555 . S
C863 C590 1.987 1_455 S
C601 C346 1.717 . S
C841 C610 1.646 . S
C623 C467 1.841 . S
C1006 C634 1.762 . S
C645 C1017 1.246 . S
C986 C656 1.577 . S
C511 C667 1.927 . S
C447 C678 1.597 . S
C689 C522 1.566 . S
C700 C500 1.842 . S
C711 C368 2.050 . S
C722 C962 2.050 . S
C401 C733 1.882 1_545 S
C742 C940 0.594 . S
C953 C755 1.395 . S
C764 C390 0.593 . S
C777 C357 1.960 . S
C788 C381 1.394 . S
C38 C799 0.969 . S
C533 C810 1.732 . S
C18 C821 2.024 . S
C830 C555 0.977 . S
C843 C60 1.019 . S
C599 C852 0.599 . S
C865 C84 1.764 . S
C577 C876 1.717 . S
C887 C203 1.325 . S
C898 C744 1.707 1_554 S
C753 C907 0.744 . S
C720 C920 0.987 . S
C247 C931 1.292 . S
C181 C942 0.970 1_554 S
C951 C258 0.746 . S
C964 C238 1.682 . S
C973 C104 0.510 . S
C984 C698 0.510 . S
C137 C997 1.296 . S
C676 C1008 1.570 . S
C687 C1019 1.198 . S
C126 C1030 1.571 . S
C1041 C93 1.341 . S
C115 C1052 1.169 1_565 S
