# Generated by pormake.
# Topology smm, (6)-cn, num edge types: 1
# Building blocks:
#     Node 0, Type 0, BuildingBlock: FUNLAD_clean_sbu_0, # of connection points: 6
#     Node 1, Type 0, BuildingBlock: FUNLAD_clean_sbu_0, # of connection points: 6
#     Node 2, Type 0, BuildingBlock: FUNLAD_clean_sbu_0, # of connection points: 6
#     Node 3, Type 0, BuildingBlock: FUNLAD_clean_sbu_0, # of connection points: 6
#     Node 4, Type 0, BuildingBlock: FUNLAD_clean_sbu_0, # of connection points: 6
#     Node 5, Type 0, BuildingBlock: FUNLAD_clean_sbu_0, # of connection points: 6
#     Node 6, Type 0, BuildingBlock: FUNLAD_clean_sbu_0, # of connection points: 6
#     Node 7, Type 0, BuildingBlock: FUNLAD_clean_sbu_0, # of connection points: 6
#     Node 8, Type 0, BuildingBlock: FUNLAD_clean_sbu_0, # of connection points: 6
#     Edge 9, Type (0, 0), BuildingBlock: TEMPAE_clean_linker_10, # of connection points: 2
#     Edge 10, Type (0, 0), BuildingBlock: TEMPAE_clean_linker_10, # of connection points: 2
#     Edge 11, Type (0, 0), BuildingBlock: TEMPAE_clean_linker_10, # of connection points: 2
#     Edge 12, Type (0, 0), BuildingBlock: TEMPAE_clean_linker_10, # of connection points: 2
#     Edge 13, Type (0, 0), BuildingBlock: TEMPAE_clean_linker_10, # of connection points: 2
#     Edge 14, Type (0, 0), BuildingBlock: TEMPAE_clean_linker_10, # of connection points: 2
#     Edge 15, Type (0, 0), BuildingBlock: TEMPAE_clean_linker_10, # of connection points: 2
#     Edge 16, Type (0, 0), BuildingBlock: TEMPAE_clean_linker_10, # of connection points: 2
#     Edge 17, Type (0, 0), BuildingBlock: TEMPAE_clean_linker_10, # of connection points: 2
#     Edge 18, Type (0, 0), BuildingBlock: TEMPAE_clean_linker_10, # of connection points: 2
#     Edge 19, Type (0, 0), BuildingBlock: TEMPAE_clean_linker_10, # of connection points: 2
#     Edge 20, Type (0, 0), BuildingBlock: TEMPAE_clean_linker_10, # of connection points: 2
#     Edge 21, Type (0, 0), BuildingBlock: TEMPAE_clean_linker_10, # of connection points: 2
#     Edge 22, Type (0, 0), BuildingBlock: TEMPAE_clean_linker_10, # of connection points: 2
#     Edge 23, Type (0, 0), BuildingBlock: TEMPAE_clean_linker_10, # of connection points: 2
#     Edge 24, Type (0, 0), BuildingBlock: TEMPAE_clean_linker_10, # of connection points: 2
#     Edge 25, Type (0, 0), BuildingBlock: TEMPAE_clean_linker_10, # of connection points: 2
#     Edge 26, Type (0, 0), BuildingBlock: TEMPAE_clean_linker_10, # of connection points: 2
#     Edge 27, Type (0, 0), BuildingBlock: TEMPAE_clean_linker_10, # of connection points: 2
#     Edge 28, Type (0, 0), BuildingBlock: TEMPAE_clean_linker_10, # of connection points: 2
#     Edge 29, Type (0, 0), BuildingBlock: TEMPAE_clean_linker_10, # of connection points: 2
#     Edge 30, Type (0, 0), BuildingBlock: TEMPAE_clean_linker_10, # of connection points: 2
#     Edge 31, Type (0, 0), BuildingBlock: TEMPAE_clean_linker_10, # of connection points: 2
#     Edge 32, Type (0, 0), BuildingBlock: TEMPAE_clean_linker_10, # of connection points: 2
#     Edge 33, Type (0, 0), BuildingBlock: TEMPAE_clean_linker_10, # of connection points: 2
#     Edge 34, Type (0, 0), BuildingBlock: TEMPAE_clean_linker_10, # of connection points: 2
#     Edge 35, Type (0, 0), BuildingBlock: TEMPAE_clean_linker_10, # of connection points: 2
# Relax obj value: 0.419
# Max RMSD: 0.281
# Mean RMSD: 0.279
data_MOF--net-smm--node1-FUNLAD_clean_sbu_0--edge1-TEMPAE_clean_linker_10
_symmetry_space_group_name_H-M    P1
_symmetry_Int_Tables_number       1
_symmetry_cell_setting            triclinic
loop_
_symmetry_equiv_pos_as_xyz
'x, y, z'
_cell_length_a     48.090619
_cell_length_b     48.0482
_cell_length_c     21.396203
_cell_angle_alpha  90.585914
_cell_angle_beta   90.466145
_cell_angle_gamma 120.02451
loop_
_atom_site_label
_atom_site_type_symbol
_atom_site_fract_x
_atom_site_fract_y
_atom_site_fract_z
_atom_type_partial_charge
C0 C 0.98021 0.13543 0.05768 0.0
N1 N 0.04513 0.21013 0.17835 0.0
C2 C 0.04417 0.18547 0.21068 0.0
C3 C 0.04088 0.18439 0.27525 0.0
C4 C 0.03892 0.20909 0.30653 0.0
C5 C 0.04277 0.23565 0.27293 0.0
C6 C 0.04571 0.2356 0.20811 0.0
Zn7 Zn 0.03635 0.20359 0.08515 0.0
C8 C 0.0706 0.17566 0.02712 0.0
N9 N 0.01044 0.18478 0.8948 0.0
C10 C 0.98112 0.17487 0.86802 0.0
C11 C 0.03663 0.19242 0.85957 0.0
C12 C 0.03416 0.19062 0.79491 0.0
C13 C 0.00442 0.18082 0.76574 0.0
C14 C 0.97756 0.17279 0.80288 0.0
Zn15 Zn 0.01888 0.19166 0.98819 0.0
O16 O 0.00057 0.15282 0.10001 0.0
C17 C 0.98399 0.21781 0.05468 0.0
O18 O 0.98151 0.147 0.00435 0.0
H19 H 0.05984 0.20077 0.88157 0.0
H20 H 0.04377 0.16551 0.18602 0.0
H21 H 0.96068 0.16905 0.89709 0.0
O22 O 0.00124 0.21576 0.09707 0.0
O23 O 0.98664 0.21077 -0.00172 0.0
H24 H 0.04619 0.25479 0.18125 0.0
O25 O 0.05633 0.23669 0.96922 0.0
O26 O 0.07153 0.25353 0.06573 0.0
O27 O 0.05071 0.17148 0.98322 0.0
O28 O 0.07134 0.19117 0.07581 0.0
C29 C 0.07456 0.25871 0.00719 0.0
H30 H 0.03839 0.16376 0.30017 0.0
H31 H 0.04131 0.25506 0.29592 0.0
H32 H 0.05562 0.19776 0.76798 0.0
H33 H 0.95421 0.16512 0.78184 0.0
C34 C 0.85188 0.8958 0.02003 0.0
N35 N 0.84172 0.83023 0.87627 0.0
C36 C 0.83242 0.8487 0.8446 0.0
C37 C 0.82798 0.84542 0.7803 0.0
C38 C 0.83341 0.82313 0.7482 0.0
C39 C 0.84522 0.80596 0.78093 0.0
C40 C 0.84905 0.80976 0.84586 0.0
Zn41 Zn 0.83617 0.82942 0.96993 0.0
C42 C 0.89276 0.8455 0.03976 0.0
N43 N 0.81763 0.83055 0.16098 0.0
C44 C 0.79999 0.84217 0.18846 0.0
C45 C 0.83024 0.81552 0.19462 0.0
C46 C 0.82474 0.81097 0.25819 0.0
C47 C 0.80649 0.82242 0.28775 0.0
C48 C 0.7943 0.83856 0.25262 0.0
Zn49 Zn 0.82455 0.83221 0.06777 0.0
O50 O 0.85567 0.88151 0.97304 0.0
C51 C 0.76906 0.81711 0.98937 0.0
O52 O 0.83703 0.87959 0.06702 0.0
H53 H 0.84433 0.80662 0.17198 0.0
H54 H 0.82635 0.86455 0.86957 0.0
H55 H 0.79017 0.85395 0.16056 0.0
O56 O 0.79089 0.82177 0.95163 0.0
O57 O 0.77453 0.81798 0.0479 0.0
H58 H 0.8562 0.79521 0.87215 0.0
O59 O 0.81197 0.78487 0.0712 0.0
O60 O 0.81781 0.77775 0.97198 0.0
O61 O 0.87554 0.84707 0.0833 0.0
O62 O 0.88099 0.83684 0.98526 0.0
C63 C 0.81041 0.76668 0.02689 0.0
H64 H 0.81927 0.85934 0.75611 0.0
H65 H 0.84973 0.78864 0.7571 0.0
H66 H 0.83505 0.79899 0.28418 0.0
H67 H 0.78027 0.84785 0.27437 0.0
C68 C 0.18227 0.04793 0.01089 0.0
N69 N 0.20186 0.98536 0.11775 0.0
C70 C 0.21994 0.01291 0.1517 0.0
C71 C 0.22314 0.012 0.21612 0.0
C72 C 0.20713 0.98251 0.24663 0.0
C73 C 0.18891 0.95426 0.21074 0.0
C74 C 0.18673 0.95622 0.14575 0.0
Zn75 Zn 0.19662 0.99143 0.02474 0.0
C76 C 0.1302 0.95702 0.98419 0.0
N77 N 0.18949 0.01407 0.83673 0.0
C78 C 0.21012 0.04121 0.80587 0.0
C79 C 0.1694 0.9863 0.80499 0.0
C80 C 0.17128 0.98429 0.74053 0.0
C81 C 0.19389 0.01113 0.70802 0.0
C82 C 0.21257 0.04032 0.74074 0.0
Zn83 Zn 0.19379 0.00882 0.9305 0.0
O84 O 0.18484 0.02927 0.04984 0.0
C85 C 0.25976 0.04422 0.98119 0.0
O86 O 0.1858 0.04495 0.95318 0.0
H87 H 0.15364 0.96474 0.82996 0.0
H88 H 0.23123 0.03596 0.12915 0.0
H89 H 0.22615 0.06292 0.83191 0.0
O90 O 0.24471 0.02455 0.02367 0.0
O91 O 0.245 0.0437 0.9311 0.0
H92 H 0.17231 0.93465 0.11797 0.0
O93 O 0.20192 0.97226 0.9048 0.0
O94 O 0.20731 0.95405 -0.00528 0.0
O95 O 0.14219 0.97513 0.93709 0.0
O96 O 0.14865 0.95816 0.02784 0.0
C97 C 0.20661 0.95258 0.93511 0.0
H98 H 0.23687 0.0344 0.2421 0.0
H99 H 0.17617 0.93105 0.23276 0.0
H100 H 0.15627 0.96147 0.71665 0.0
H101 H 0.23027 0.06151 0.71687 0.0
C102 C 0.71876 0.50736 0.36215 0.0
N103 N 0.66021 0.50592 0.21238 0.0
C104 C 0.68783 0.51389 0.18174 0.0
C105 C 0.68801 0.51229 0.117 0.0
C106 C 0.6595 0.50248 0.08301 0.0
C107 C 0.63095 0.49307 0.11558 0.0
C108 C 0.63184 0.49495 0.18091 0.0
Zn109 Zn 0.66554 0.51695 0.30522 0.0
C110 C 0.62772 0.46622 0.38352 0.0
N111 N 0.68755 0.54819 0.49349 0.0
C112 C 0.71559 0.55892 0.52616 0.0
C113 C 0.65932 0.53837 0.52337 0.0
C114 C 0.65814 0.53749 0.588 0.0
C115 C 0.68607 0.54589 0.62279 0.0
C116 C 0.7154 0.55797 0.5916 0.0
Zn117 Zn 0.68268 0.53753 0.40007 0.0
O118 O 0.70079 0.50124 0.31385 0.0
C119 C 0.72045 0.58676 0.31356 0.0
O120 O 0.71676 0.52382 0.40651 0.0
H121 H 0.63701 0.52896 0.49737 0.0
H122 H 0.71029 0.52323 0.20723 0.0
H123 H 0.73771 0.56626 0.50157 0.0
O124 O 0.70091 0.56244 0.28141 0.0
O125 O 0.71924 0.58557 0.37308 0.0
H126 H 0.61021 0.48887 0.20622 0.0
O127 O 0.64872 0.55159 0.39496 0.0
O128 O 0.62884 0.53062 0.30279 0.0
O129 O 0.64578 0.48786 0.42341 0.0
O130 O 0.63084 0.47235 0.32597 0.0
C131 C 0.62809 0.54518 0.35221 0.0
H132 H 0.71067 0.52039 0.09377 0.0
H133 H 0.60844 0.48522 0.0908 0.0
H134 H 0.63515 0.52855 0.61041 0.0
H135 H 0.73746 0.56463 0.61708 0.0
C136 C 0.51656 0.23 0.33597 0.0
N137 N 0.51996 0.17568 0.18259 0.0
C138 C 0.51177 0.19526 0.15185 0.0
C139 C 0.5129 0.1968 0.08709 0.0
C140 C 0.52247 0.17795 0.05336 0.0
C141 C 0.53248 0.15923 0.08621 0.0
C142 C 0.53105 0.15846 0.15143 0.0
Zn143 Zn 0.50834 0.16864 0.27431 0.0
C144 C 0.55928 0.18115 0.35629 0.0
N145 N 0.47635 0.15618 0.46085 0.0
C146 C 0.46491 0.17288 0.4929 0.0
C147 C 0.48622 0.13778 0.49121 0.0
C148 C 0.48649 0.137 0.55594 0.0
C149 C 0.4775 0.1561 0.59033 0.0
C150 C 0.46532 0.17322 0.55836 0.0
Zn151 Zn 0.48766 0.16316 0.3684 0.0
O152 O 0.52373 0.21947 0.28733 0.0
C153 C 0.43822 0.15195 0.27827 0.0
O154 O 0.49988 0.21045 0.37769 0.0
H155 H 0.49608 0.12528 0.46573 0.0
H156 H 0.50241 0.20828 0.17719 0.0
H157 H 0.45743 0.18757 0.46798 0.0
O158 O 0.46306 0.15875 0.24745 0.0
O159 O 0.43916 0.15029 0.3377 0.0
H160 H 0.53734 0.143 0.17683 0.0
O161 O 0.47508 0.11577 0.3604 0.0
O162 O 0.49419 0.11805 0.26687 0.0
O163 O 0.53755 0.17702 0.39513 0.0
O164 O 0.55303 0.1783 0.29837 0.0
C165 C 0.48039 0.10211 0.3153 0.0
H166 H 0.50445 0.21111 0.0636 0.0
H167 H 0.54028 0.14455 0.06168 0.0
H168 H 0.49546 0.123 0.5789 0.0
H169 H 0.45819 0.18829 0.58346 0.0
C170 C 0.79813 0.30334 0.36174 0.0
N171 N 0.85966 0.36394 0.22092 0.0
C172 C 0.84127 0.33586 0.18873 0.0
C173 C 0.84348 0.33444 0.12435 0.0
C174 C 0.86482 0.36214 0.09241 0.0
C175 C 0.88185 0.39143 0.1256 0.0
C176 C 0.87903 0.39176 0.19068 0.0
Zn177 Zn 0.86261 0.35885 0.3148 0.0
C178 C 0.844 0.3942 0.39106 0.0
N179 N 0.86606 0.33554 0.503 0.0
C180 C 0.85408 0.30647 0.53074 0.0
C181 C 0.88134 0.36345 0.53703 0.0
C182 C 0.88533 0.36297 0.60117 0.0
C183 C 0.87293 0.33349 0.63126 0.0
C184 C 0.85703 0.30487 0.59559 0.0
Zn185 Zn 0.86212 0.34098 0.40975 0.0
O186 O 0.81145 0.3227 0.31685 0.0
C187 C 0.87949 0.30569 0.32477 0.0
O188 O 0.81506 0.30458 0.4084 0.0
H189 H 0.89019 0.38635 0.51459 0.0
H190 H 0.82656 0.31381 0.21319 0.0
H191 H 0.84193 0.28462 0.50275 0.0
O192 O 0.87434 0.32436 0.29198 0.0
O193 O 0.87777 0.30689 0.38408 0.0
H194 H 0.89368 0.41373 0.21718 0.0
O195 O 0.90916 0.37731 0.4133 0.0
O196 O 0.91304 0.39605 0.31906 0.0
O197 O 0.84548 0.37534 0.43096 0.0
O198 O 0.85122 0.393 0.33481 0.0
C199 C 0.92553 0.39753 0.37253 0.0
H200 H 0.82971 0.31152 0.10005 0.0
H201 H 0.89851 0.41327 0.10208 0.0
H202 H 0.8971 0.38552 0.62728 0.0
H203 H 0.847 0.28168 0.61762 0.0
C204 C 0.29522 0.79523 0.62781 0.0
N205 N 0.35688 0.86959 0.75136 0.0
C206 C 0.32865 0.85758 0.78225 0.0
C207 C 0.32794 0.85447 0.84643 0.0
C208 C 0.35641 0.86308 0.87939 0.0
C209 C 0.3856 0.87704 0.8474 0.0
C210 C 0.38527 0.88007 0.78249 0.0
Zn211 Zn 0.35194 0.86432 0.65746 0.0
C212 C 0.38639 0.83537 0.60679 0.0
N213 N 0.32972 0.84384 0.46706 0.0
C214 C 0.30091 0.83071 0.4364 0.0
C215 C 0.35747 0.85287 0.43614 0.0
C216 C 0.35712 0.84893 0.37198 0.0
C217 C 0.3279 0.83537 0.33894 0.0
C218 C 0.29944 0.8263 0.37153 0.0
Zn219 Zn 0.33492 0.85069 0.56042 0.0
O220 O 0.31418 0.81367 0.67097 0.0
C221 C 0.29985 0.87839 0.61958 0.0
O222 O 0.2981 0.80568 0.57306 0.0
H223 H 0.38015 0.86336 0.46121 0.0
H224 H 0.30619 0.84872 0.75697 0.0
H225 H 0.27918 0.82365 0.46221 0.0
O226 O 0.3188 0.87939 0.66172 0.0
O227 O 0.3007 0.86781 0.56521 0.0
H228 H 0.40735 0.88926 0.75679 0.0
O229 O 0.37246 0.89655 0.54457 0.0
O230 O 0.38955 0.91336 0.64039 0.0
O231 O 0.368 0.83173 0.56043 0.0
O232 O 0.3853 0.84992 0.65533 0.0
C233 C 0.39207 0.91824 0.58174 0.0
H234 H 0.30506 0.84423 0.86982 0.0
H235 H 0.40803 0.88401 0.87175 0.0
H236 H 0.37967 0.85699 0.34835 0.0
H237 H 0.27647 0.81582 0.34725 0.0
C238 C 0.17413 0.55641 0.64798 0.0
N239 N 0.15264 0.47541 0.5326 0.0
C240 C 0.13563 0.48606 0.49943 0.0
C241 C 0.13197 0.48147 0.43508 0.0
C242 C 0.14637 0.46622 0.40415 0.0
C243 C 0.1636 0.45513 0.43923 0.0
C244 C 0.16628 0.45983 0.50409 0.0
Zn245 Zn 0.15767 0.48559 0.62574 0.0
C246 C 0.22339 0.51397 0.66848 0.0
N247 N 0.16399 0.51168 0.81638 0.0
C248 C 0.14452 0.51982 0.84781 0.0
C249 C 0.1828 0.5024 0.84727 0.0
C250 C 0.18077 0.49869 0.91155 0.0
C251 C 0.15922 0.50458 0.94461 0.0
C252 C 0.14187 0.51656 0.91275 0.0
Zn253 Zn 0.16014 0.50337 0.72245 0.0
O254 O 0.17084 0.53581 0.60595 0.0
C255 C 0.09498 0.47663 0.6697 0.0
O256 O 0.17039 0.54859 0.70478 0.0
H257 H 0.19766 0.49541 0.82172 0.0
H258 H 0.12536 0.49883 0.52268 0.0
H259 H 0.1296 0.52688 0.8223 0.0
O260 O 0.10991 0.4719 0.6266 0.0
O261 O 0.10946 0.48936 0.72121 0.0
H262 H 0.17973 0.45164 0.53146 0.0
O263 O 0.1498 0.45744 0.74339 0.0
O264 O 0.14587 0.43701 0.64962 0.0
O265 O 0.21141 0.51922 0.71715 0.0
O266 O 0.20518 0.49897 0.62243 0.0
C267 C 0.14533 0.43412 0.70878 0.0
H268 H 0.11906 0.49094 0.40948 0.0
H269 H 0.1751 0.44333 0.41666 0.0
H270 H 0.19484 0.48982 0.93484 0.0
H271 H 0.12503 0.52139 0.9371 0.0
C272 C 0.50528 0.71476 0.66033 0.0
N273 N 0.50809 0.6559 0.80083 0.0
C274 C 0.51784 0.68385 0.8332 0.0
C275 C 0.51425 0.68368 0.89731 0.0
C276 C 0.50041 0.65446 0.92878 0.0
C277 C 0.49013 0.62577 0.89449 0.0
C278 C 0.49418 0.62705 0.82979 0.0
Zn279 Zn 0.5166 0.66084 0.70846 0.0
C280 C 0.46151 0.62384 0.6341 0.0
N281 N 0.53882 0.6822 0.51979 0.0
C282 C 0.55089 0.71064 0.48958 0.0
C283 C 0.52615 0.65374 0.48775 0.0
C284 C 0.52396 0.65287 0.42325 0.0
C285 C 0.534 0.68144 0.39104 0.0
C286 C 0.5487 0.71082 0.42435 0.0
Zn287 Zn 0.53194 0.67781 0.61319 0.0
O288 O 0.50015 0.69589 0.70575 0.0
C289 C 0.58569 0.71535 0.69531 0.0
O290 O 0.52047 0.71341 0.61361 0.0
H291 H 0.51589 0.63124 0.51208 0.0
H292 H 0.52908 0.70657 0.80946 0.0
H293 H 0.56059 0.73294 0.51609 0.0
O294 O 0.56303 0.69679 0.73026 0.0
O295 O 0.58142 0.71299 0.63619 0.0
H296 H 0.48659 0.60518 0.80286 0.0
O297 O 0.54378 0.64223 0.61099 0.0
O298 O 0.5309 0.62451 0.70622 0.0
O299 O 0.48087 0.64265 0.59345 0.0
O300 O 0.47115 0.6256 0.68975 0.0
C301 C 0.54111 0.62266 0.65252 0.0
H302 H 0.5232 0.70639 0.92222 0.0
H303 H 0.47934 0.60278 0.91746 0.0
H304 H 0.51307 0.62982 0.39895 0.0
H305 H 0.55675 0.73334 0.40066 0.0
C306 C 0.11635 0.28873 0.93057 0.0
C307 C 0.0975 0.28956 0.97943 0.0
C308 C 0.12828 0.31241 0.88472 0.0
C309 C 0.12113 0.33756 0.88778 0.0
C310 C 0.1045 0.34009 0.94013 0.0
C311 C 0.09274 0.31589 0.98545 0.0
C312 C 0.14625 0.30897 0.8304 0.0
C313 C 0.09693 0.36693 0.94574 0.0
C314 C 0.16525 0.41159 0.78812 0.0
C315 C 0.14239 0.40589 0.7411 0.0
C316 C 0.15916 0.38914 0.83488 0.0
C317 C 0.12942 0.3601 0.83462 0.0
C318 C 0.10708 0.35319 0.7847 0.0
C319 C 0.1138 0.37633 0.73843 0.0
C320 C 0.18367 0.39755 0.88683 0.0
C321 C 0.07525 0.32222 0.78237 0.0
H322 H 0.11944 0.26795 0.92529 0.0
H323 H 0.07743 0.31609 0.02219 0.0
H324 H 0.13092 0.30212 0.78759 0.0
H325 H 0.16832 0.33216 0.82129 0.0
H326 H 0.15307 0.29036 0.83866 0.0
H327 H 0.08674 0.36733 0.99194 0.0
H328 H 0.11888 0.39053 0.93875 0.0
H329 H 0.0793 0.36393 0.90872 0.0
H330 H 0.18718 0.43477 0.79069 0.0
H331 H 0.09582 0.37227 0.70307 0.0
H332 H 0.18799 0.37726 0.89523 0.0
H333 H 0.1744 0.40208 0.93079 0.0
H334 H 0.20695 0.41932 0.87641 0.0
H335 H 0.079 0.30133 0.78664 0.0
H336 H 0.0616 0.31945 0.73839 0.0
H337 H 0.06048 0.32163 0.82246 0.0
C338 C 0.71161 0.77849 0.96572 0.0
C339 C 0.73803 0.80951 0.96118 0.0
C340 C 0.68672 0.76659 0.92042 0.0
C341 C 0.68853 0.78626 0.8697 0.0
C342 C 0.714 0.81842 0.86793 0.0
C343 C 0.73844 0.8296 0.91363 0.0
C344 C 0.6597 0.73224 0.92436 0.0
C345 C 0.71679 0.84032 0.81527 0.0
C346 C 0.64437 0.74088 0.72059 0.0
C347 C 0.61512 0.74018 0.72709 0.0
C348 C 0.66925 0.75717 0.76531 0.0
C349 C 0.66443 0.77277 0.81745 0.0
C350 C 0.63574 0.77397 0.8213 0.0
C351 C 0.61148 0.75764 0.77614 0.0
C352 C 0.69984 0.7559 0.75896 0.0
C353 C 0.62972 0.79066 0.87532 0.0
H354 H 0.71177 0.76266 0.00131 0.0
H355 H 0.75931 0.85338 0.90937 0.0
H356 H 0.63615 0.73112 0.9203 0.0
H357 H 0.66121 0.71794 0.88482 0.0
H358 H 0.66051 0.72091 0.96883 0.0
H359 H 0.73569 0.86565 0.82488 0.0
H360 H 0.72285 0.83205 0.77154 0.0
H361 H 0.69359 0.83951 0.80693 0.0
H362 H 0.64692 0.72685 0.68342 0.0
H363 H 0.58864 0.75679 0.78138 0.0
H364 H 0.70131 0.74098 0.79669 0.0
H365 H 0.72108 0.78034 0.76432 0.0
H366 H 0.70111 0.74554 0.71313 0.0
H367 H 0.62707 0.77726 0.91888 0.0
H368 H 0.60764 0.79221 0.868 0.0
H369 H 0.6504 0.81531 0.8825 0.0
C370 C 0.19126 0.91659 0.84308 0.0
C371 C 0.21085 0.9292 0.8969 0.0
C372 C 0.20046 0.90461 0.79221 0.0
C373 C 0.22968 0.90437 0.79563 0.0
C374 C 0.24806 0.91413 0.85224 0.0
C375 C 0.23856 0.92677 0.90225 0.0
C376 C 0.18019 0.89466 0.73305 0.0
C377 C 0.27895 0.91336 0.85829 0.0
C378 C 0.24987 0.85805 0.6766 0.0
C379 C 0.27361 0.88306 0.64159 0.0
C380 C 0.23436 0.86435 0.72546 0.0
C381 C 0.24224 0.89642 0.73857 0.0
C382 C 0.26359 0.9213 0.69876 0.0
C383 C 0.27949 0.91439 0.6514 0.0
C384 C 0.21207 0.83708 0.76673 0.0
C385 C 0.27164 0.95566 0.70932 0.0
H386 H 0.16985 0.91862 0.83872 0.0
H387 H 0.25403 0.93698 0.94314 0.0
H388 H 0.19395 0.91109 0.69479 0.0
H389 H 0.17423 0.87009 0.71812 0.0
H390 H 0.15749 0.89513 0.73882 0.0
H391 H 0.2884 0.91805 0.90713 0.0
H392 H 0.27528 0.88967 0.8424 0.0
H393 H 0.29736 0.93189 0.82791 0.0
H394 H 0.24613 0.83395 0.67052 0.0
H395 H 0.29852 0.93388 0.62576 0.0
H396 H 0.19029 0.83847 0.77757 0.0
H397 H 0.22456 0.83887 0.81171 0.0
H398 H 0.20458 0.81324 0.74488 0.0
H399 H 0.24942 0.95692 0.71583 0.0
H400 H 0.28514 0.97124 0.66974 0.0
H401 H 0.28648 0.96541 0.75257 0.0
C402 C 0.41437 0.16182 0.18469 0.0
C403 C 0.4094 0.1453 0.24107 0.0
C404 C 0.39093 0.15042 0.13713 0.0
C405 C 0.3613 0.12209 0.14651 0.0
C406 C 0.35482 0.10705 0.20573 0.0
C407 C 0.37915 0.11874 0.25243 0.0
C408 C 0.3991 0.16713 0.07496 0.0
C409 C 0.32304 0.07731 0.21814 0.0
C410 C 0.29142 0.09685 0.03197 0.0
C411 C 0.29124 0.07111 0.0001 0.0
C412 C 0.31464 0.11444 0.07859 0.0
C413 C 0.33862 0.10648 0.09254 0.0
C414 C 0.34036 0.08262 0.05598 0.0
C415 C 0.31633 0.06488 0.01083 0.0
C416 C 0.31161 0.13939 0.11665 0.0
C417 C 0.36621 0.07413 0.06774 0.0
H418 H 0.43773 0.18254 0.17584 0.0
H419 H 0.37527 0.10576 0.2956 0.0
H420 H 0.40219 0.15181 0.03973 0.0
H421 H 0.37933 0.1708 0.05802 0.0
H422 H 0.42161 0.19081 0.07754 0.0
H423 H 0.32007 0.07115 0.26848 0.0
H424 H 0.30286 0.08065 0.20243 0.0
H425 H 0.32135 0.05667 0.19115 0.0
H426 H 0.2713 0.10086 0.02544 0.0
H427 H 0.3156 0.04432 0.98773 0.0
H428 H 0.33528 0.16154 0.12305 0.0
H429 H 0.30273 0.12981 0.1638 0.0
H430 H 0.2946 0.14582 0.09469 0.0
H431 H 0.39023 0.09617 0.06903 0.0
H432 H 0.36611 0.0574 0.03137 0.0
H433 H 0.36254 0.06257 0.1139 0.0
C434 C 0.87369 0.27342 0.23008 0.0
C435 C 0.88734 0.28375 0.29016 0.0
C436 C 0.88581 0.26004 0.18751 0.0
C437 C 0.91202 0.25627 0.20561 0.0
C438 C 0.92443 0.26438 0.26781 0.0
C439 C 0.91196 0.27819 0.30957 0.0
C440 C 0.8719 0.25195 0.12186 0.0
C441 C 0.95211 0.26021 0.28902 0.0
C442 C 0.93358 0.20353 0.10749 0.0
C443 C 0.96028 0.22652 0.07502 0.0
C444 C 0.91701 0.21274 0.14887 0.0
C445 C 0.92759 0.24578 0.15816 0.0
C446 C 0.95338 0.26897 0.12246 0.0
C447 C 0.9696 0.25903 0.08159 0.0
C448 C 0.88955 0.18725 0.18561 0.0
C449 C 0.96506 0.30442 0.13016 0.0
H450 H 0.85446 0.27751 0.21497 0.0
H451 H 0.92276 0.28643 0.35561 0.0
H452 H 0.86583 0.22717 0.10832 0.0
H453 H 0.84999 0.25401 0.11673 0.0
H454 H 0.89001 0.26854 0.08846 0.0
H455 H 0.95699 0.26473 0.34005 0.0
H456 H 0.94711 0.23553 0.27765 0.0
H457 H 0.9741 0.27717 0.26372 0.0
H458 H 0.92716 0.17846 0.104 0.0
H459 H 0.99099 0.27684 0.05821 0.0
H460 H 0.86825 0.19038 0.18212 0.0
H461 H 0.89659 0.18972 0.23575 0.0
H462 H 0.8826 0.16257 0.1692 0.0
H463 H 0.94481 0.30904 0.12379 0.0
H464 H 0.98409 0.31915 0.09636 0.0
H465 H 0.97484 0.31252 0.17824 0.0
C466 C 0.77032 0.71067 0.04923 0.0
C467 C 0.80266 0.73426 0.04456 0.0
C468 C 0.76053 0.68604 0.09313 0.0
C469 C 0.78367 0.68551 0.1339 0.0
C470 C 0.81664 0.70779 0.12572 0.0
C471 C 0.82573 0.7318 0.08082 0.0
C472 C 0.72518 0.66213 0.09912 0.0
C473 C 0.84211 0.70817 0.16802 0.0
C474 C 0.74948 0.6458 0.28987 0.0
C475 C 0.74396 0.61475 0.27794 0.0
C476 C 0.7642 0.66986 0.24455 0.0
C477 C 0.77311 0.66232 0.18628 0.0
C478 C 0.76967 0.63166 0.1764 0.0
C479 C 0.75545 0.60845 0.22251 0.0
C480 C 0.76834 0.70268 0.25738 0.0
C481 C 0.77871 0.62248 0.11527 0.0
H482 H 0.7524 0.71321 0.02274 0.0
H483 H 0.85066 0.75075 0.07869 0.0
H484 H 0.72105 0.63725 0.09971 0.0
H485 H 0.71643 0.66643 0.14401 0.0
H486 H 0.71067 0.66393 0.06035 0.0
H487 H 0.86671 0.72421 0.15052 0.0
H488 H 0.84033 0.71677 0.21534 0.0
H489 H 0.83848 0.68361 0.17292 0.0
H490 H 0.74037 0.65064 0.33231 0.0
H491 H 0.75135 0.58442 0.21334 0.0
H492 H 0.75149 0.70614 0.22714 0.0
H493 H 0.79304 0.72175 0.2459 0.0
H494 H 0.76363 0.70584 0.30696 0.0
H495 H 0.76212 0.62131 0.07763 0.0
H496 H 0.77741 0.59876 0.11737 0.0
H497 H 0.80336 0.64089 0.10197 0.0
C498 C 0.03695 0.44578 0.64461 0.0
C499 C 0.06524 0.47555 0.64955 0.0
C500 C 0.01393 0.43996 0.59766 0.0
C501 C 0.02024 0.46404 0.55305 0.0
C502 C 0.04733 0.49506 0.56165 0.0
C503 C 0.06912 0.5006 0.61077 0.0
C504 C 0.98433 0.40707 0.59232 0.0
C505 C 0.05552 0.52129 0.51493 0.0
C506 C 0.98372 0.42427 0.3964 0.0
C507 C 0.95525 0.42545 0.39608 0.0
C508 C 0.00687 0.43975 0.44434 0.0
C509 C 0.00054 0.45542 0.49426 0.0
C510 C 0.97328 0.45925 0.49061 0.0
C511 C 0.95134 0.44478 0.44073 0.0
C512 C 0.03658 0.43663 0.44466 0.0
C513 C 0.96506 0.47507 0.54294 0.0
H514 H 0.03424 0.42619 0.67354 0.0
H515 H 0.09148 0.5234 0.61344 0.0
H516 H 0.96272 0.40913 0.58273 0.0
H517 H 0.98694 0.39352 0.55267 0.0
H518 H 0.9804 0.39301 0.63553 0.0
H519 H 0.0734 0.54531 0.53431 0.0
H520 H 0.0659 0.51638 0.47294 0.0
H521 H 0.03381 0.52198 0.49953 0.0
H522 H 0.98649 0.4088 0.36282 0.0
H523 H 0.92888 0.44499 0.44139 0.0
H524 H 0.03392 0.41851 0.47945 0.0
H525 H 0.05806 0.45981 0.45842 0.0
H526 H 0.04075 0.42894 0.3982 0.0
H527 H 0.95461 0.45793 0.58191 0.0
H528 H 0.9472 0.48192 0.5276 0.0
H529 H 0.98674 0.49679 0.56145 0.0
C530 C 0.51863 0.57463 0.58659 0.0
C531 C 0.54282 0.59469 0.6296 0.0
C532 C 0.52528 0.56014 0.53605 0.0
C533 C 0.5565 0.56459 0.53026 0.0
C534 C 0.57959 0.58092 0.57877 0.0
C535 C 0.5727 0.59646 0.62726 0.0
C536 C 0.50011 0.54376 0.48515 0.0
C537 C 0.61267 0.58475 0.57621 0.0
C538 C 0.57877 0.52023 0.41118 0.0
C539 C 0.59922 0.54555 0.37247 0.0
C540 C 0.56306 0.52536 0.4612 0.0
C541 C 0.56657 0.55616 0.47049 0.0
C542 C 0.58332 0.58037 0.42575 0.0
C543 C 0.6002 0.57505 0.37812 0.0
C544 C 0.5463 0.49906 0.5082 0.0
C545 C 0.58605 0.61298 0.43173 0.0
H546 H 0.49573 0.57394 0.58747 0.0
H547 H 0.59164 0.61247 0.65953 0.0
H548 H 0.50537 0.56083 0.44643 0.0
H549 H 0.5003 0.52239 0.46567 0.0
H550 H 0.47564 0.53625 0.50232 0.0
H551 H 0.62518 0.59196 0.62242 0.0
H552 H 0.61125 0.56201 0.56042 0.0
H553 H 0.62734 0.60354 0.54207 0.0
H554 H 0.57873 0.49765 0.40796 0.0
H555 H 0.6165 0.59484 0.34919 0.0
H556 H 0.52419 0.49813 0.52551 0.0
H557 H 0.56262 0.50406 0.54902 0.0
H558 H 0.53992 0.47512 0.48823 0.0
H559 H 0.56245 0.61049 0.44327 0.0
H560 H 0.59483 0.6269 0.38807 0.0
H561 H 0.60313 0.62692 0.47029 0.0
C562 C 0.49962 0.06941 0.36509 0.0
C563 C 0.47578 0.07024 0.32832 0.0
C564 C 0.49177 0.0448 0.40819 0.0
C565 C 0.45938 0.02013 0.41344 0.0
C566 C 0.43591 0.01896 0.37119 0.0
C567 C 0.44435 0.04431 0.32961 0.0
C568 C 0.51754 0.04718 0.45232 0.0
C569 C 0.40127 0.99246 0.3737 0.0
C570 C 0.43266 0.9429 0.50041 0.0
C571 C 0.41776 0.94736 0.55268 0.0
C572 C 0.44822 0.96714 0.45653 0.0
C573 C 0.44929 0.99682 0.46555 0.0
C574 C 0.43722 0.00264 0.52164 0.0
C575 C 0.42128 0.97763 0.5646 0.0
C576 C 0.46066 0.95978 0.39774 0.0
C577 C 0.43882 0.03442 0.53377 0.0
H578 H 0.52375 0.09005 0.36561 0.0
H579 H 0.42576 0.04542 0.30257 0.0
H580 H 0.51476 0.05605 0.49864 0.0
H581 H 0.51533 0.02331 0.4592 0.0
H582 H 0.54201 0.06406 0.43523 0.0
H583 H 0.38691 0.99299 0.33327 0.0
H584 H 0.39966 0.9686 0.37447 0.0
H585 H 0.39038 0.99506 0.41732 0.0
H586 H 0.42982 0.91937 0.49115 0.0
H587 H 0.40942 0.98096 0.60447 0.0
H588 H 0.48464 0.9801 0.38596 0.0
H589 H 0.44411 0.9562 0.3581 0.0
H590 H 0.46242 0.93768 0.40213 0.0
H591 H 0.46328 0.05466 0.52449 0.0
H592 H 0.43244 0.03669 0.5826 0.0
H593 H 0.4219 0.03673 0.5016 0.0
C594 C 0.18493 0.10015 -0.00283 0.0
C595 C 0.17236 0.0712 0.02948 0.0
C596 C 0.17056 0.11925 0.00059 0.0
C597 C 0.14265 0.10887 0.03662 0.0
C598 C 0.13104 0.08066 0.07263 0.0
C599 C 0.14623 0.06216 0.06891 0.0
C600 C 0.18407 0.14942 0.96242 0.0
C601 C 0.10134 0.06888 0.11165 0.0
C602 C 0.11469 0.16848 0.07151 0.0
C603 C 0.09065 0.16026 0.02557 0.0
C604 C 0.13176 0.15196 0.07574 0.0
C605 C 0.12459 0.12649 0.03317 0.0
C606 C 0.10074 0.11838 0.98599 0.0
C607 C 0.08412 0.13547 0.98259 0.0
C608 C 0.15725 0.16156 0.12616 0.0
C609 C 0.09246 0.09132 0.93968 0.0
H610 H 0.20517 0.10706 0.96658 0.0
H611 H 0.13624 0.0395 0.09308 0.0
H612 H 0.16708 0.14593 0.92368 0.0
H613 H 0.18698 0.16997 0.99157 0.0
H614 H 0.20767 0.15581 0.94206 0.0
H615 H 0.09727 0.04841 0.14146 0.0
H616 H 0.10315 0.08859 0.142 0.0
H617 H 0.08005 0.06094 0.08046 0.0
H618 H 0.11993 0.18764 0.10496 0.0
H619 H 0.06541 0.12881 0.94739 0.0
H620 H 0.18069 0.16826 0.10482 0.0
H621 H 0.15104 0.14091 0.15705 0.0
H622 H 0.16012 0.18213 0.15531 0.0
H623 H 0.11405 0.09629 0.91276 0.0
H624 H 0.07311 0.0878 0.9063 0.0
H625 H 0.08458 0.06855 0.96488 0.0
C626 C 0.85863 0.94525 0.07284 0.0
C627 C 0.86715 0.93119 0.02425 0.0
C628 C 0.87543 0.97853 0.08362 0.0
C629 C 0.90141 0.99831 0.04491 0.0
C630 C 0.90967 0.98443 -0.00524 0.0
C631 C 0.89233 0.95096 0.98486 0.0
C632 C 0.86569 0.99247 0.13709 0.0
C633 C 0.93722 0.00489 0.95236 0.0
C634 C 0.92879 0.08664 0.02984 0.0
C635 C 0.95719 0.10103 0.06593 0.0
C636 C 0.90975 0.05319 0.02458 0.0
C637 C 0.9195 0.03365 0.05589 0.0
C638 C 0.94716 0.048 0.09543 0.0
C639 C 0.96569 0.0817 0.10027 0.0
C640 C 0.88018 0.03884 0.9828 0.0
C641 C 0.95816 0.02784 0.12972 0.0
H642 H 0.83911 0.93012 0.10345 0.0
H643 H 0.89919 0.94021 0.94766 0.0
H644 H 0.88601 0.00504 0.17086 0.0
H645 H 0.85979 0.01056 0.11943 0.0
H646 H 0.8446 0.97378 0.16232 0.0
H647 H 0.94054 0.99041 0.91547 0.0
H648 H 0.93303 0.02313 0.92956 0.0
H649 H 0.95983 0.01805 0.98025 0.0
H650 H 0.92217 0.10165 0.0034 0.0
H651 H 0.98784 0.09284 0.12757 0.0
H652 H 0.85908 0.02026 0.00805 0.0
H653 H 0.88386 0.02685 0.9417 0.0
H654 H 0.87455 0.05727 0.96582 0.0
H655 H 0.93811 0.00892 0.15665 0.0
H656 H 0.97862 0.04249 0.16227 0.0
H657 H 0.96573 0.01552 0.09546 0.0
C658 C 0.94732 0.88527 0.08098 0.0
C659 C 0.92717 0.85665 0.04818 0.0
C660 C 0.98084 0.90062 0.07428 0.0
C661 C 0.99417 0.8867 0.03437 0.0
C662 C 0.97392 0.85658 0.00502 0.0
C663 C 0.94066 0.842 0.01214 0.0
C664 C 0.00177 0.93266 0.1066 0.0
C665 C 0.98715 0.8407 0.96288 0.0
C666 C 0.07346 0.94129 0.95532 0.0
C667 C 0.09509 0.9371 0.99269 0.0
C668 C 0.04051 0.92514 0.96862 0.0
C669 C 0.02902 0.90428 0.02033 0.0
C670 C 0.05065 0.89944 0.05732 0.0
C671 C 0.08336 0.91585 0.04303 0.0
C672 C 0.01802 0.93072 0.92791 0.0
C673 C 0.0393 0.87723 0.11246 0.0
H674 H 0.93684 0.89682 0.10807 0.0
H675 H 0.92498 0.81982 0.98676 0.0
H676 H 0.02208 0.9327 0.13163 0.0
H677 H 0.01218 0.95184 0.07122 0.0
H678 H 0.98813 0.93871 0.14049 0.0
H679 H 0.96848 0.81602 0.94811 0.0
H680 H 0.99719 0.85528 0.92041 0.0
H681 H 0.00701 0.83939 0.98681 0.0
H682 H 0.08237 0.95784 0.91674 0.0
H683 H 0.09989 0.9124 0.07223 0.0
H684 H 0.0056 0.9404 0.95672 0.0
H685 H -0.00074 0.9076 0.90687 0.0
H686 H 0.03075 0.94778 0.88971 0.0
H687 H 0.02764 0.88544 0.14674 0.0
H688 H 0.05926 0.87607 0.1365 0.0
H689 H 0.02103 0.8526 0.09686 0.0
C690 C 0.73815 0.46996 0.32844 0.0
C691 C 0.73999 0.49355 0.37001 0.0
C692 C 0.7563 0.45489 0.33917 0.0
C693 C 0.77686 0.46379 0.3925 0.0
C694 C 0.7791 0.48785 0.43416 0.0
C695 C 0.76065 0.50243 0.42243 0.0
C696 C 0.75337 0.42931 0.29361 0.0
C697 C 0.80092 0.49814 0.49118 0.0
C698 C 0.80227 0.40355 0.43869 0.0
C699 C 0.83103 0.41533 0.40618 0.0
C700 C 0.78488 0.41991 0.43722 0.0
C701 C 0.79693 0.44873 0.40308 0.0
C702 C 0.82731 0.46196 0.3747 0.0
C703 C 0.84389 0.44496 0.37629 0.0
C704 C 0.75259 0.40514 0.46817 0.0
C705 C 0.84127 0.49288 0.33879 0.0
H706 H 0.72208 0.46283 0.28818 0.0
H707 H 0.76223 0.52065 0.45492 0.0
H708 H 0.77709 0.43667 0.27288 0.0
H709 H 0.74569 0.40649 0.31845 0.0
H710 H 0.73584 0.42471 0.25517 0.0
H711 H 0.79963 0.517 0.51935 0.0
H712 H 0.7944 0.47714 0.52128 0.0
H713 H 0.82615 0.50754 0.47684 0.0
H714 H 0.79216 0.38038 0.46097 0.0
H715 H 0.86619 0.45398 0.35111 0.0
H716 H 0.73334 0.39598 0.43175 0.0
H717 H 0.75049 0.42345 0.49652 0.0
H718 H 0.74838 0.38488 0.49872 0.0
H719 H 0.8268 0.48898 0.29553 0.0
H720 H 0.86657 0.50165 0.32545 0.0
H721 H 0.84032 0.51192 0.36684 0.0
C722 C 0.61715 0.41548 0.43272 0.0
C723 C 0.60554 0.4329 0.40069 0.0
C724 C 0.6005 0.38172 0.42917 0.0
C725 C 0.57166 0.36546 0.39324 0.0
C726 C 0.55836 0.38304 0.36628 0.0
C727 C 0.57562 0.41664 0.37007 0.0
C728 C 0.61529 0.36374 0.45895 0.0
C729 C 0.52743 0.36664 0.3285 0.0
C730 C 0.55272 0.2878 0.30913 0.0
C731 C 0.5293 0.26473 0.34762 0.0
C732 C 0.56683 0.32072 0.32379 0.0
C733 C 0.55718 0.33068 0.37806 0.0
C734 C 0.53323 0.30753 0.4165 0.0
C735 C 0.51957 0.27486 0.40082 0.0
C736 C 0.5923 0.34484 0.2815 0.0
C737 C 0.52221 0.31725 0.47445 0.0
H738 H 0.64059 0.42819 0.45543 0.0
H739 H 0.56687 0.43033 0.345 0.0
H740 H 0.5969 0.34242 0.48398 0.0
H741 H 0.62521 0.35496 0.42199 0.0
H742 H 0.63503 0.37919 0.49232 0.0
H743 H 0.51822 0.38321 0.31805 0.0
H744 H 0.53158 0.35765 0.28357 0.0
H745 H 0.50867 0.34561 0.3536 0.0
H746 H 0.56047 0.28015 0.26827 0.0
H747 H 0.50146 0.2572 0.43095 0.0
H748 H 0.61496 0.35961 0.30847 0.0
H749 H 0.5846 0.36145 0.26292 0.0
H750 H 0.59729 0.33317 0.24148 0.0
H751 H 0.54286 0.33101 0.507 0.0
H752 H 0.50326 0.29621 0.49937 0.0
H753 H 0.51271 0.33329 0.46182 0.0
C754 C 0.60957 0.17995 0.34319 0.0
C755 C 0.59264 0.19213 0.37553 0.0
C756 C 0.64315 0.19562 0.34621 0.0
C757 C 0.66017 0.22447 0.38167 0.0
C758 C 0.64306 0.23561 0.41808 0.0
C759 C 0.60929 0.2191 0.41487 0.0
C760 C 0.66039 0.18257 0.30766 0.0
C761 C 0.6604 0.2663 0.45646 0.0
C762 C 0.74949 0.25863 0.41059 0.0
C763 C 0.76292 0.2816 0.36339 0.0
C764 C 0.71612 0.23989 0.41725 0.0
C765 C 0.69563 0.2443 0.37591 0.0
C766 C 0.70897 0.26711 0.32761 0.0
C767 C 0.74248 0.28541 0.32175 0.0
C768 C 0.70281 0.21559 0.46883 0.0
C769 C 0.68783 0.27248 0.28256 0.0
H770 H 0.59655 0.15909 0.3126 0.0
H771 H 0.59615 0.22876 0.43903 0.0
H772 H 0.67215 0.19863 0.26769 0.0
H773 H 0.6795 0.18193 0.33591 0.0
H774 H 0.64376 0.15799 0.28897 0.0
H775 H 0.64388 0.26962 0.48762 0.0
H776 H 0.67976 0.26652 0.48537 0.0
H777 H 0.67187 0.2871 0.42476 0.0
H778 H 0.76512 0.25551 0.44304 0.0
H779 H 0.75266 0.30327 0.28557 0.0
H780 H 0.6867 0.19124 0.44872 0.0
H781 H 0.68818 0.22133 0.50058 0.0
H782 H 0.72203 0.21494 0.49682 0.0
H783 H 0.67166 0.24982 0.25666 0.0
H784 H 0.70196 0.29144 0.2482 0.0
H785 H 0.67243 0.27954 0.30871 0.0
C786 C 0.5024 0.76039 0.61342 0.0
C787 C 0.49109 0.73577 0.65746 0.0
C788 C 0.48669 0.77785 0.60299 0.0
C789 C 0.45885 0.77039 0.63717 0.0
C790 C 0.44775 0.74615 0.68294 0.0
C791 C 0.46415 0.72919 0.69281 0.0
C792 C 0.49952 0.80382 0.55446 0.0
C793 C 0.41808 0.73757 0.72025 0.0
C794 C 0.43253 0.83234 0.65171 0.0
C795 C 0.40714 0.82087 0.60792 0.0
C796 C 0.44992 0.81647 0.66079 0.0
C797 C 0.44159 0.78827 0.62551 0.0
C798 C 0.41669 0.77711 0.57967 0.0
C799 C 0.39981 0.79372 0.57112 0.0
C800 C 0.47662 0.82939 0.70939 0.0
C801 C 0.40719 0.74707 0.54122 0.0
H802 H 0.5233 0.76563 0.58602 0.0
H803 H 0.45513 0.70996 0.72638 0.0
H804 H 0.48127 0.79765 0.51679 0.0
H805 H 0.50439 0.827 0.5758 0.0
H806 H 0.52197 0.80722 0.53311 0.0
H807 H 0.41282 0.7184 0.75453 0.0
H808 H 0.42105 0.75912 0.74579 0.0
H809 H 0.39704 0.72925 0.68823 0.0
H810 H 0.4384 0.85347 0.68006 0.0
H811 H 0.38003 0.78465 0.53765 0.0
H812 H 0.49925 0.83333 0.68811 0.0
H813 H 0.47055 0.81157 0.74691 0.0
H814 H 0.48098 0.8524 0.73093 0.0
H815 H 0.42835 0.74926 0.51645 0.0
H816 H 0.38803 0.74217 0.50619 0.0
H817 H 0.39847 0.72611 0.57241 0.0
C818 C 0.17415 0.60685 0.67146 0.0
C819 C 0.18492 0.59017 0.6339 0.0
C820 C 0.18921 0.64042 0.67065 0.0
C821 C 0.21597 0.65771 0.63187 0.0
C822 C 0.22582 0.64088 0.5911 0.0
C823 C 0.20995 0.60712 0.59229 0.0
C824 C 0.17755 0.65739 0.71378 0.0
C825 C 0.25426 0.65859 0.54898 0.0
C826 C 0.24547 0.74511 0.59681 0.0
C827 C 0.27208 0.76095 0.63755 0.0
C828 C 0.22646 0.71156 0.59564 0.0
C829 C 0.23442 0.69339 0.63587 0.0
C830 C 0.26036 0.70929 0.67925 0.0
C831 C 0.27883 0.74303 0.67986 0.0
C832 C 0.19867 0.69556 0.54961 0.0
C833 C 0.26948 0.6906 0.72299 0.0
H834 H 0.15471 0.59362 0.70364 0.0
H835 H 0.21853 0.5942 0.56395 0.0
H836 H 0.19594 0.67074 0.75079 0.0
H837 H 0.17399 0.67523 0.68768 0.0
H838 H 0.15465 0.64038 0.73653 0.0
H839 H 0.25759 0.64202 0.5174 0.0
H840 H 0.25133 0.67604 0.52016 0.0
H841 H 0.27642 0.67249 0.57785 0.0
H842 H 0.24015 0.75899 0.56414 0.0
H843 H 0.2996 0.75522 0.71083 0.0
H844 H 0.1764 0.67844 0.57393 0.0
H845 H 0.20361 0.68153 0.51442 0.0
H846 H 0.1943 0.71324 0.52475 0.0
H847 H 0.24848 0.67396 0.75104 0.0
H848 H 0.2895 0.70655 0.75537 0.0
H849 H 0.27685 0.67573 0.69547 0.0
C850 C 0.40964 0.6142 0.5883 0.0
C851 C 0.42704 0.60273 0.62113 0.0
C852 C 0.37597 0.59836 0.59184 0.0
C853 C 0.35969 0.57039 0.62846 0.0
C854 C 0.37713 0.55743 0.65747 0.0
C855 C 0.41064 0.57388 0.65367 0.0
C856 C 0.35809 0.61278 0.56006 0.0
C857 C 0.36067 0.52739 0.69603 0.0
C858 C 0.28052 0.55095 0.70265 0.0
C859 C 0.25831 0.52694 0.66196 0.0
C860 C 0.31366 0.5655 0.69197 0.0
C861 C 0.32471 0.5556 0.63966 0.0
C862 C 0.30242 0.53095 0.59924 0.0
C863 C 0.26954 0.51694 0.61086 0.0
C864 C 0.33686 0.59173 0.7362 0.0
C865 C 0.31327 0.51956 0.54339 0.0
H866 H 0.42241 0.6368 0.56401 0.0
H867 H 0.42424 0.56512 0.67917 0.0
H868 H 0.33732 0.59412 0.5326 0.0
H869 H 0.34848 0.62244 0.59595 0.0
H870 H 0.37375 0.6326 0.52847 0.0
H871 H 0.37732 0.51883 0.71043 0.0
H872 H 0.35079 0.53231 0.73874 0.0
H873 H 0.34022 0.50781 0.66943 0.0
H874 H 0.27199 0.55893 0.74186 0.0
H875 H 0.25254 0.49831 0.57918 0.0
H876 H 0.35163 0.61417 0.7101 0.0
H877 H 0.35355 0.58473 0.75744 0.0
H878 H 0.32441 0.59684 0.77428 0.0
H879 H 0.32723 0.53991 0.5117 0.0
H880 H 0.29279 0.50007 0.5165 0.0
H881 H 0.3294 0.51058 0.55887 0.0
C882 C 0.98741 0.19529 0.66628 0.0
C883 C 0.00251 0.18062 0.69679 0.0
C884 C 0.98988 0.19958 0.60138 0.0
C885 C 0.00806 0.18914 0.56687 0.0
C886 C 0.02203 0.17296 0.59712 0.0
C887 C 0.01885 0.16868 0.66168 0.0
C888 C 0.97423 0.21643 0.57025 0.0
C889 C 0.04153 0.1614 0.56179 0.0
C890 C 0.00217 0.17768 0.39155 0.0
C891 C 0.0299 0.20548 0.37273 0.0
C892 C 0.99371 0.17284 0.45453 0.0
C893 C 0.01384 0.19615 0.49955 0.0
C894 C 0.04132 0.22482 0.48048 0.0
C895 C 0.0489 0.22929 0.4169 0.0
C896 C 0.96391 0.1423 0.47306 0.0
C897 C 0.0635 0.25004 0.52744 0.0
H898 H 0.97493 0.20472 0.69344 0.0
H899 H 0.03007 0.15684 0.68517 0.0
H900 H 0.99302 0.24036 0.55414 0.0
H901 H 0.96013 0.20256 0.52841 0.0
H902 H 0.95811 0.21987 0.60234 0.0
H903 H 0.04999 0.14842 0.59215 0.0
H904 H 0.02707 0.14514 0.52262 0.0
H905 H 0.06279 0.18222 0.54125 0.0
H906 H 0.9872 0.1596 0.35685 0.0
H907 H 0.07025 0.2508 0.40191 0.0
H908 H 0.94902 0.1479 0.50439 0.0
H909 H 0.97085 0.12687 0.49937 0.0
H910 H 0.94904 0.12838 0.43187 0.0
H911 H 0.0497 0.25722 0.55839 0.0
H912 H 0.08262 0.27185 0.50465 0.0
H913 H 0.07507 0.23992 0.55756 0.0
C914 C 0.79436 0.80994 0.66085 0.0
C915 C 0.825 0.81701 0.68135 0.0
C916 C 0.78674 0.80733 0.59707 0.0
C917 C 0.81055 0.81235 0.55318 0.0
C918 C 0.84113 0.81818 0.57378 0.0
C919 C 0.84793 0.82023 0.63798 0.0
C920 C 0.75372 0.80046 0.57679 0.0
C921 C 0.86711 0.82371 0.52806 0.0
C922 C 0.79235 0.78878 0.38257 0.0
C923 C 0.80194 0.81867 0.35569 0.0
C924 C 0.79331 0.78592 0.44745 0.0
C925 C 0.80445 0.81372 0.4858 0.0
C926 C 0.81234 0.84358 0.45903 0.0
C927 C 0.81083 0.84566 0.39402 0.0
C928 C 0.78411 0.75359 0.47455 0.0
C929 C 0.82432 0.87373 0.49868 0.0
H930 H 0.77655 0.80705 0.6949 0.0
H931 H 0.87159 0.82573 0.65426 0.0
H932 H 0.75552 0.82212 0.55489 0.0
H933 H 0.74331 0.78079 0.54116 0.0
H934 H 0.73698 0.79366 0.61664 0.0
H935 H 0.88899 0.82639 0.55171 0.0
H936 H 0.85813 0.80341 0.49392 0.0
H937 H 0.87387 0.84581 0.50127 0.0
H938 H 0.78516 0.76787 0.35259 0.0
H939 H 0.81843 0.86877 0.37297 0.0
H940 H 0.76767 0.74835 0.51438 0.0
H941 H 0.80593 0.75391 0.49277 0.0
H942 H 0.77229 0.73381 0.43924 0.0
H943 H 0.80752 0.86962 0.53733 0.0
H944 H 0.82717 0.89444 0.47109 0.0
H945 H 0.84792 0.88017 0.52013 0.0
C946 C 0.19855 0.02796 0.59656 0.0
C947 C 0.19944 0.00744 0.64141 0.0
C948 C 0.20148 0.02286 0.53281 0.0
C949 C 0.20588 0.99694 0.51397 0.0
C950 C 0.20811 0.97699 0.55951 0.0
C951 C 0.20463 0.98236 0.62269 0.0
C952 C 0.19895 0.04462 0.48549 0.0
C953 C 0.21338 0.94951 0.54155 0.0
C954 C 0.17869 0.96568 0.34831 0.0
C955 C 0.20755 0.9822 0.31586 0.0
C956 C 0.17798 0.96945 0.41328 0.0
C957 C 0.20686 0.99007 0.44643 0.0
C958 C 0.23631 0.00542 0.41436 0.0
C959 C 0.23629 0.00136 0.34935 0.0
C960 C 0.14611 0.95263 0.44595 0.0
C961 C 0.26766 0.02713 0.44827 0.0
H962 H 0.19454 0.04731 0.61124 0.0
H963 H 0.20581 0.96682 0.65769 0.0
H964 H 0.22051 0.0555 0.45568 0.0
H965 H 0.1778 0.03036 0.4543 0.0
H966 H 0.1965 0.06422 0.50791 0.0
H967 H 0.21793 0.93849 0.58295 0.0
H968 H 0.19187 0.93067 0.51607 0.0
H969 H 0.23403 0.95788 0.50965 0.0
H970 H 0.1564 0.95113 0.3225 0.0
H971 H 0.25869 0.0139 0.32436 0.0
H972 H 0.14042 0.97074 0.46504 0.0
H973 H 0.14736 0.93877 0.48595 0.0
H974 H 0.12616 0.93599 0.41411 0.0
H975 H 0.26753 0.04874 0.46662 0.0
H976 H 0.28869 0.03508 0.41741 0.0
H977 H 0.27063 0.01464 0.48891 0.0
C978 C 0.70488 0.56119 0.73407 0.0
C979 C 0.68339 0.53876 0.69022 0.0
C980 C 0.70107 0.55462 0.79821 0.0
C981 C 0.67526 0.52495 0.81835 0.0
C982 C 0.65399 0.50198 0.77408 0.0
C983 C 0.65843 0.50911 0.71057 0.0
C984 C 0.72429 0.57953 0.84445 0.0
C985 C 0.62628 0.47005 0.7938 0.0
C986 C 0.6795 0.49578 0.97982 0.0
C987 C 0.66072 0.5051 0.01419 0.0
C988 C 0.68447 0.50211 0.91593 0.0
C989 C 0.6701 0.51792 0.88579 0.0
C990 C 0.6503 0.52651 0.91974 0.0
C991 C 0.64586 0.52001 0.9837 0.0
C992 C 0.70555 0.49242 0.88097 0.0
C993 C 0.63436 0.54315 0.88879 0.0
H994 H 0.72416 0.58408 0.71832 0.0
H995 H 0.64221 0.49138 0.67658 0.0
H996 H 0.71119 0.58743 0.8758 0.0
H997 H 0.7355 0.56897 0.87429 0.0
H998 H 0.74359 0.60097 0.82108 0.0
H999 H 0.61219 0.45468 0.75324 0.0
H1000 H 0.6353 0.4568 0.82172 0.0
H1001 H 0.60993 0.47406 0.82404 0.0
H1002 H 0.69078 0.48398 0.00326 0.0
H1003 H 0.63174 0.5277 0.01033 0.0
H1004 H 0.72633 0.514 0.86123 0.0
H1005 H 0.69194 0.47614 0.84116 0.0
H1006 H 0.71475 0.48008 0.91132 0.0
H1007 H 0.6529 0.56649 0.86989 0.0
H1008 H 0.61919 0.54764 0.92159 0.0
H1009 H 0.61912 0.52836 0.84878 0.0
C1010 C 0.46173 0.15974 0.70032 0.0
C1011 C 0.48429 0.16053 0.65836 0.0
C1012 C 0.46824 0.1632 0.76491 0.0
C1013 C 0.49801 0.16765 0.78749 0.0
C1014 C 0.52104 0.16904 0.74517 0.0
C1015 C 0.51395 0.1656 0.68115 0.0
C1016 C 0.44321 0.16172 0.80903 0.0
C1017 C 0.55308 0.17388 0.76751 0.0
C1018 C 0.52745 0.20329 0.94955 0.0
C1019 C 0.51884 0.17568 0.9845 0.0
C1020 C 0.52068 0.20103 0.88531 0.0
C1021 C 0.50508 0.17044 0.85547 0.0
C1022 C 0.49696 0.14254 0.89017 0.0
C1023 C 0.50393 0.1455 0.9544 0.0
C1024 C 0.52988 0.2313 0.84954 0.0
C1025 C 0.48048 0.10954 0.85965 0.0
H1026 H 0.43883 0.15584 0.68272 0.0
H1027 H 0.53179 0.16702 0.64867 0.0
H1028 H 0.43566 0.14123 0.84106 0.0
H1029 H 0.45352 0.18394 0.83837 0.0
H1030 H 0.42162 0.15889 0.78387 0.0
H1031 H 0.56846 0.17473 0.72827 0.0
H1032 H 0.56618 0.19661 0.79512 0.0
H1033 H 0.54932 0.15404 0.79877 0.0
H1034 H 0.53919 0.22667 0.9727 0.0
H1035 H 0.49672 0.12405 0.98146 0.0
H1036 H 0.50816 0.22983 0.82773 0.0
H1037 H 0.54633 0.23384 0.81119 0.0
H1038 H 0.54183 0.25322 0.87986 0.0
H1039 H 0.45715 0.10436 0.83874 0.0
H1040 H 0.47603 0.09031 0.89323 0.0
H1041 H 0.49536 0.10868 0.82115 0.0
C1042 C 0.84676 0.31579 0.73442 0.0
C1043 C 0.87478 0.33334 0.7001 0.0
C1044 C 0.84705 0.32003 0.79937 0.0
C1045 C 0.87613 0.3421 0.83037 0.0
C1046 C 0.90487 0.35847 0.79629 0.0
C1047 C 0.90381 0.35399 0.73135 0.0
C1048 C 0.81593 0.30217 0.83431 0.0
C1049 C 0.93641 0.38175 0.82793 0.0
C1050 C 0.86779 0.37901 0.98149 0.0
C1051 C 0.87063 0.35932 0.02571 0.0
C1052 C 0.87023 0.37408 0.91749 0.0
C1053 C 0.87603 0.34918 0.89789 0.0
C1054 C 0.88032 0.3302 0.94273 0.0
C1055 C 0.87743 0.33543 0.00618 0.0
C1056 C 0.86547 0.39474 0.87079 0.0
C1057 C 0.88705 0.30381 0.92368 0.0
H1058 H 0.82428 0.30012 0.71007 0.0
H1059 H 0.92551 0.36741 0.70461 0.0
H1060 H 0.81879 0.28919 0.87418 0.0
H1061 H 0.80938 0.31957 0.85385 0.0
H1062 H 0.79582 0.28458 0.80387 0.0
H1063 H 0.95697 0.39028 0.79562 0.0
H1064 H 0.93535 0.40292 0.84596 0.0
H1065 H 0.94096 0.37034 0.86856 0.0
H1066 H 0.86249 0.39741 -0.00315 0.0
H1067 H 0.88009 0.32053 0.04074 0.0
H1068 H 0.84391 0.37951 0.8412 0.0
H1069 H 0.88634 0.40625 0.83928 0.0
H1070 H 0.86236 0.41383 0.89376 0.0
H1071 H 0.8661 0.2847 0.89731 0.0
H1072 H 0.89199 0.29278 0.96458 0.0
H1073 H 0.90795 0.31336 0.89219 0.0
C1074 C 0.34749 0.82194 0.24247 0.0
C1075 C 0.3281 0.83257 0.27039 0.0
C1076 C 0.35266 0.82449 0.17812 0.0
C1077 C 0.33772 0.8376 0.14113 0.0
C1078 C 0.31658 0.84656 0.16846 0.0
C1079 C 0.31205 0.84399 0.2331 0.0
C1080 C 0.37522 0.81456 0.15028 0.0
C1081 C 0.29988 0.86019 0.12985 0.0
C1082 C 0.37478 0.87904 0.98997 0.0
C1083 C 0.35462 0.85562 0.94623 0.0
C1084 C 0.37023 0.87306 0.05408 0.0
C1085 C 0.34498 0.84303 0.07408 0.0
C1086 C 0.32565 0.81878 0.02997 0.0
C1087 C 0.33084 0.82535 0.96641 0.0
C1088 C 0.39153 0.89925 0.10031 0.0
C1089 C 0.29862 0.78646 0.04978 0.0
H1090 H 0.35952 0.81264 0.27141 0.0
H1091 H 0.29726 0.85242 0.2548 0.0
H1092 H 0.36354 0.79783 0.11001 0.0
H1093 H 0.3968 0.83605 0.13242 0.0
H1094 H 0.38312 0.80275 0.18488 0.0
H1095 H 0.28266 0.86405 0.15769 0.0
H1096 H 0.31798 0.88354 0.11021 0.0
H1097 H 0.2867 0.84379 0.0899 0.0
H1098 H 0.39314 0.90241 0.97413 0.0
H1099 H 0.3157 0.80702 0.93226 0.0
H1100 H 0.40194 0.88987 0.13499 0.0
H1101 H 0.37703 0.90747 0.12644 0.0
H1102 H 0.41144 0.92031 0.07716 0.0
H1103 H 0.30751 0.77547 0.08412 0.0
H1104 H 0.28737 0.7695 0.00956 0.0
H1105 H 0.27985 0.78963 0.07313 0.0
C1106 C 0.14746 0.46529 0.02917 0.0
C1107 C 0.15338 0.49572 0.01095 0.0
C1108 C 0.14391 0.45686 0.09218 0.0
C1109 C 0.14653 0.47953 0.13789 0.0
C1110 C 0.15155 0.50996 0.11958 0.0
C1111 C 0.15473 0.51764 0.05602 0.0
C1112 C 0.13804 0.42401 0.10988 0.0
C1113 C 0.15459 0.53476 0.16726 0.0
C1114 C 0.11667 0.45531 0.30252 0.0
C1115 C 0.1455 0.46471 0.33519 0.0
C1116 C 0.11639 0.45874 0.23762 0.0
C1117 C 0.14568 0.47215 0.2051 0.0
C1118 C 0.17461 0.48025 0.23749 0.0
C1119 C 0.17414 0.47629 0.3023 0.0
C1120 C 0.08501 0.44935 0.2044 0.0
C1121 C 0.20631 0.49462 0.20422 0.0
H1122 H 0.14585 0.44813 0.99394 0.0
H1123 H 0.15932 0.54114 0.0417 0.0
H1124 H 0.15794 0.42648 0.14037 0.0
H1125 H 0.11561 0.41121 0.13694 0.0
H1126 H 0.13605 0.409 0.06837 0.0
H1127 H 0.15728 0.55679 0.14516 0.0
H1128 H 0.13316 0.52454 0.1974 0.0
H1129 H 0.17581 0.54167 0.19809 0.0
H1130 H 0.09448 0.44611 0.32809 0.0
H1131 H 0.19647 0.48388 0.32769 0.0
H1132 H 0.08167 0.43372 0.16318 0.0
H1133 H 0.08539 0.47121 0.187 0.0
H1134 H 0.06406 0.43652 0.23547 0.0
H1135 H 0.20461 0.4791 0.16393 0.0
H1136 H 0.22627 0.49784 0.23557 0.0
H1137 H 0.21232 0.51841 0.18546 0.0
C1138 C 0.49597 0.65658 0.30161 0.0
C1139 C 0.52663 0.67961 0.32372 0.0
C1140 C 0.48901 0.65177 0.23767 0.0
C1141 C 0.51324 0.67075 0.19505 0.0
C1142 C 0.54381 0.6951 0.21703 0.0
C1143 C 0.55019 0.69927 0.28151 0.0
C1144 C 0.45614 0.62566 0.21577 0.0
C1145 C 0.57003 0.71598 0.17242 0.0
C1146 C 0.51029 0.6379 0.03256 0.0
C1147 C 0.49914 0.65487 -0.00248 0.0
C1148 C 0.51424 0.64227 0.09744 0.0
C1149 C 0.50698 0.66421 0.12739 0.0
C1150 C 0.49432 0.68028 0.09262 0.0
C1151 C 0.49035 0.67524 0.02795 0.0
C1152 C 0.52735 0.62438 0.13358 0.0
C1153 C 0.48618 0.70372 0.12331 0.0
H1154 H 0.47753 0.64185 0.33454 0.0
H1155 H 0.57385 0.71706 0.29881 0.0
H1156 H 0.4453 0.63561 0.18341 0.0
H1157 H 0.45833 0.60683 0.18949 0.0
H1158 H 0.43953 0.61416 0.25521 0.0
H1159 H 0.59177 0.73503 0.19714 0.0
H1160 H 0.57695 0.70091 0.14437 0.0
H1161 H 0.56119 0.72753 0.13927 0.0
H1162 H 0.51738 0.62239 0.00897 0.0
H1163 H 0.4813 0.68803 0.00078 0.0
H1164 H 0.51124 0.61127 0.17271 0.0
H1165 H 0.55116 0.64174 0.15428 0.0
H1166 H 0.53009 0.60688 0.10369 0.0
H1167 H 0.46948 0.69214 0.16248 0.0
H1168 H 0.47501 0.71296 0.08993 0.0
H1169 H 0.50833 0.72442 0.14331 0.0
loop_
_geom_bond_atom_site_label_1
_geom_bond_atom_site_label_2
_geom_bond_distance
_geom_bond_site_symmetry_2
_ccdc_geom_bond_type
C0 O16 1.251 . S
C0 O18 1.254 1_554 S
N1 C2 1.333 . S
N1 C6 1.307 . S
N1 Zn7 2.020 . S
C2 N1 1.333 . S
C2 C3 1.379 . S
C2 H20 0.952 1_455 S
C3 C2 1.379 . S
C3 C4 1.390 . S
C3 H30 0.949 1_455 S
C4 C3 1.390 . S
C4 C5 1.357 . S
C5 C4 1.357 . S
C5 C6 1.370 . S
C5 H31 0.950 . S
C6 N1 1.307 . S
C6 C5 1.370 . S
C6 H24 0.948 . S
Zn7 N1 2.020 . S
Zn7 O16 2.039 1_455 S
Zn7 O22 2.034 1_455 S
Zn7 O26 2.025 . S
Zn7 O28 2.024 . S
C8 O27 1.246 . S
C8 O28 1.249 1_556 S
N9 C10 1.307 . S
N9 C11 1.333 1_655 S
N9 Zn15 2.020 1_655 S
C10 N9 1.307 . S
C10 C14 1.370 . S
C10 H21 0.948 . S
C11 N9 1.333 1_455 S
C11 C12 1.379 . S
C11 H19 0.952 . S
C12 C11 1.379 . S
C12 C13 1.390 1_455 S
C12 H32 0.949 . S
C13 C12 1.390 1_655 S
C13 C14 1.357 . S
C14 C10 1.370 . S
C14 C13 1.357 . S
C14 H33 0.950 . S
Zn15 N9 2.020 1_455 S
Zn15 O18 2.025 1_455 S
Zn15 O23 2.024 1_455 S
Zn15 O25 2.039 . S
Zn15 O27 2.034 . S
O16 C0 1.251 . S
O16 Zn7 2.039 1_655 S
C17 O22 1.246 . S
C17 O23 1.249 1_554 S
O18 C0 1.254 1_556 S
O18 Zn15 2.025 1_655 S
H19 C11 0.952 . S
H20 C2 0.952 1_655 S
H21 C10 0.948 . S
O22 Zn7 2.034 1_655 S
O22 C17 1.246 . S
O23 Zn15 2.024 1_655 S
O23 C17 1.249 1_556 S
H24 C6 0.948 . S
O25 Zn15 2.039 . S
O25 C29 1.251 . S
O26 Zn7 2.025 . S
O26 C29 1.254 1_554 S
O27 C8 1.246 . S
O27 Zn15 2.034 . S
O28 Zn7 2.024 . S
O28 C8 1.249 1_554 S
C29 O25 1.251 . S
C29 O26 1.254 1_556 S
H30 C3 0.949 1_655 S
H31 C5 0.950 . S
H32 C12 0.949 . S
H33 C14 0.950 . S
C34 O50 1.251 . S
C34 O52 1.254 1_556 S
N35 C36 1.333 . S
N35 C40 1.307 . S
N35 Zn41 2.020 . S
C36 N35 1.333 . S
C36 C37 1.379 . S
C36 H54 0.952 . S
C37 C36 1.379 . S
C37 C38 1.390 . S
C37 H64 0.949 . S
C38 C37 1.390 . S
C38 C39 1.357 . S
C39 C38 1.357 . S
C39 C40 1.370 . S
C39 H65 0.950 . S
C40 N35 1.307 . S
C40 C39 1.370 . S
C40 H58 0.948 . S
Zn41 N35 2.020 . S
Zn41 O50 2.039 . S
Zn41 O56 2.034 . S
Zn41 O60 2.025 . S
Zn41 O62 2.024 . S
C42 O61 1.246 . S
C42 O62 1.249 1_554 S
N43 C44 1.307 . S
N43 C45 1.333 . S
N43 Zn49 2.020 . S
C44 N43 1.307 . S
C44 C48 1.370 . S
C44 H55 0.948 . S
C45 N43 1.333 . S
C45 C46 1.379 . S
C45 H53 0.952 . S
C46 C45 1.379 . S
C46 C47 1.390 . S
C46 H66 0.949 . S
C47 C46 1.390 . S
C47 C48 1.357 . S
C48 C44 1.370 . S
C48 C47 1.357 . S
C48 H67 0.950 . S
Zn49 N43 2.020 . S
Zn49 O52 2.025 . S
Zn49 O57 2.024 . S
Zn49 O59 2.039 . S
Zn49 O61 2.034 . S
O50 C34 1.251 . S
O50 Zn41 2.039 . S
C51 O56 1.246 . S
C51 O57 1.249 1_556 S
O52 C34 1.254 1_554 S
O52 Zn49 2.025 . S
H53 C45 0.952 . S
H54 C36 0.952 . S
H55 C44 0.948 . S
O56 Zn41 2.034 . S
O56 C51 1.246 . S
O57 Zn49 2.024 . S
O57 C51 1.249 1_554 S
H58 C40 0.948 . S
O59 Zn49 2.039 . S
O59 C63 1.251 . S
O60 Zn41 2.025 . S
O60 C63 1.254 1_556 S
O61 C42 1.246 . S
O61 Zn49 2.034 . S
O62 Zn41 2.024 . S
O62 C42 1.249 1_556 S
C63 O59 1.251 . S
C63 O60 1.254 1_554 S
H64 C37 0.949 . S
H65 C39 0.950 . S
H66 C46 0.949 . S
H67 C48 0.950 . S
C68 O84 1.251 . S
C68 O86 1.254 1_554 S
N69 C70 1.333 1_565 S
N69 C74 1.307 . S
N69 Zn75 2.017 1_565 S
C70 N69 1.333 1_545 S
C70 C71 1.379 . S
C70 H88 0.952 . S
C71 C70 1.379 . S
C71 C72 1.390 1_545 S
C71 H98 0.949 . S
C72 C71 1.390 1_565 S
C72 C73 1.357 . S
C73 C72 1.357 . S
C73 C74 1.370 . S
C73 H99 0.950 . S
C74 N69 1.307 . S
C74 C73 1.370 . S
C74 H92 0.948 . S
Zn75 N69 2.017 1_545 S
Zn75 O84 2.056 . S
Zn75 O90 2.039 . S
Zn75 O94 2.010 1_545 S
Zn75 O96 2.021 1_545 S
C76 O95 1.246 . S
C76 O96 1.249 1_556 S
N77 C78 1.307 . S
N77 C79 1.333 . S
N77 Zn83 2.020 . S
C78 N77 1.307 . S
C78 C82 1.370 . S
C78 H89 0.948 . S
C79 N77 1.333 . S
C79 C80 1.379 . S
C79 H87 0.952 1_545 S
C80 C79 1.379 . S
C80 C81 1.390 . S
C80 H100 0.949 1_545 S
C81 C80 1.390 . S
C81 C82 1.357 . S
C82 C78 1.370 . S
C82 C81 1.357 . S
C82 H101 0.950 . S
Zn83 N77 2.020 . S
Zn83 O86 2.025 . S
Zn83 O91 2.024 . S
Zn83 O93 2.039 1_545 S
Zn83 O95 2.034 1_545 S
O84 C68 1.251 . S
O84 Zn75 2.056 . S
C85 O90 1.246 . S
C85 O91 1.249 1_554 S
O86 C68 1.254 1_556 S
O86 Zn83 2.025 . S
H87 C79 0.952 1_565 S
H88 C70 0.952 . S
H89 C78 0.948 . S
O90 Zn75 2.039 . S
O90 C85 1.246 . S
O91 Zn83 2.024 . S
O91 C85 1.249 1_556 S
H92 C74 0.948 . S
O93 Zn83 2.039 1_565 S
O93 C97 1.251 . S
O94 Zn75 2.010 1_565 S
O94 C97 1.254 1_554 S
O95 C76 1.246 . S
O95 Zn83 2.034 1_565 S
O96 Zn75 2.021 1_565 S
O96 C76 1.249 1_554 S
C97 O93 1.251 . S
C97 O94 1.254 1_556 S
H98 C71 0.949 . S
H99 C73 0.950 . S
H100 C80 0.949 1_565 S
H101 C82 0.950 . S
C102 O118 1.251 . S
C102 O120 1.254 . S
N103 C104 1.333 . S
N103 C108 1.307 . S
N103 Zn109 2.020 . S
C104 N103 1.333 . S
C104 C105 1.379 . S
C104 H122 0.952 . S
C105 C104 1.379 . S
C105 C106 1.390 . S
C105 H132 0.949 . S
C106 C105 1.390 . S
C106 C107 1.357 . S
C107 C106 1.357 . S
C107 C108 1.370 . S
C107 H133 0.950 . S
C108 N103 1.307 . S
C108 C107 1.370 . S
C108 H126 0.948 . S
Zn109 N103 2.020 . S
Zn109 O118 2.039 . S
Zn109 O124 2.034 . S
Zn109 O128 2.025 . S
Zn109 O130 2.024 . S
C110 O129 1.246 . S
C110 O130 1.249 . S
N111 C112 1.307 . S
N111 C113 1.333 . S
N111 Zn117 2.020 . S
C112 N111 1.307 . S
C112 C116 1.370 . S
C112 H123 0.948 . S
C113 N111 1.333 . S
C113 C114 1.379 . S
C113 H121 0.952 . S
C114 C113 1.379 . S
C114 C115 1.390 . S
C114 H134 0.949 . S
C115 C114 1.390 . S
C115 C116 1.357 . S
C116 C112 1.370 . S
C116 C115 1.357 . S
C116 H135 0.950 . S
Zn117 N111 2.020 . S
Zn117 O120 2.025 . S
Zn117 O125 2.024 . S
Zn117 O127 2.039 . S
Zn117 O129 2.034 . S
O118 C102 1.251 . S
O118 Zn109 2.039 . S
C119 O124 1.246 . S
C119 O125 1.249 . S
O120 C102 1.254 . S
O120 Zn117 2.025 . S
H121 C113 0.952 . S
H122 C104 0.952 . S
H123 C112 0.948 . S
O124 Zn109 2.034 . S
O124 C119 1.246 . S
O125 Zn117 2.024 . S
O125 C119 1.249 . S
H126 C108 0.948 . S
O127 Zn117 2.039 . S
O127 C131 1.251 . S
O128 Zn109 2.025 . S
O128 C131 1.254 . S
O129 C110 1.246 . S
O129 Zn117 2.034 . S
O130 Zn109 2.024 . S
O130 C110 1.249 . S
C131 O127 1.251 . S
C131 O128 1.254 . S
H132 C105 0.949 . S
H133 C107 0.950 . S
H134 C114 0.949 . S
H135 C116 0.950 . S
C136 O152 1.251 . S
C136 O154 1.254 . S
N137 C138 1.333 . S
N137 C142 1.307 . S
N137 Zn143 2.020 . S
C138 N137 1.333 . S
C138 C139 1.379 . S
C138 H156 0.952 . S
C139 C138 1.379 . S
C139 C140 1.390 . S
C139 H166 0.949 . S
C140 C139 1.390 . S
C140 C141 1.357 . S
C141 C140 1.357 . S
C141 C142 1.370 . S
C141 H167 0.950 . S
C142 N137 1.307 . S
C142 C141 1.370 . S
C142 H160 0.948 . S
Zn143 N137 2.020 . S
Zn143 O152 2.039 . S
Zn143 O158 2.034 . S
Zn143 O162 2.025 . S
Zn143 O164 2.024 . S
C144 O163 1.246 . S
C144 O164 1.249 . S
N145 C146 1.307 . S
N145 C147 1.333 . S
N145 Zn151 2.020 . S
C146 N145 1.307 . S
C146 C150 1.370 . S
C146 H157 0.948 . S
C147 N145 1.333 . S
C147 C148 1.379 . S
C147 H155 0.952 . S
C148 C147 1.379 . S
C148 C149 1.390 . S
C148 H168 0.949 . S
C149 C148 1.390 . S
C149 C150 1.357 . S
C150 C146 1.370 . S
C150 C149 1.357 . S
C150 H169 0.950 . S
Zn151 N145 2.020 . S
Zn151 O154 2.025 . S
Zn151 O159 2.024 . S
Zn151 O161 2.039 . S
Zn151 O163 2.034 . S
O152 C136 1.251 . S
O152 Zn143 2.039 . S
C153 O158 1.246 . S
C153 O159 1.249 . S
O154 C136 1.254 . S
O154 Zn151 2.025 . S
H155 C147 0.952 . S
H156 C138 0.952 . S
H157 C146 0.948 . S
O158 Zn143 2.034 . S
O158 C153 1.246 . S
O159 Zn151 2.024 . S
O159 C153 1.249 . S
H160 C142 0.948 . S
O161 Zn151 2.039 . S
O161 C165 1.251 . S
O162 Zn143 2.025 . S
O162 C165 1.254 . S
O163 C144 1.246 . S
O163 Zn151 2.034 . S
O164 Zn143 2.024 . S
O164 C144 1.249 . S
C165 O161 1.251 . S
C165 O162 1.254 . S
H166 C139 0.949 . S
H167 C141 0.950 . S
H168 C148 0.949 . S
H169 C150 0.950 . S
C170 O186 1.251 . S
C170 O188 1.254 . S
N171 C172 1.333 . S
N171 C176 1.307 . S
N171 Zn177 2.020 . S
C172 N171 1.333 . S
C172 C173 1.379 . S
C172 H190 0.952 . S
C173 C172 1.379 . S
C173 C174 1.390 . S
C173 H200 0.949 . S
C174 C173 1.390 . S
C174 C175 1.357 . S
C175 C174 1.357 . S
C175 C176 1.370 . S
C175 H201 0.950 . S
C176 N171 1.307 . S
C176 C175 1.370 . S
C176 H194 0.948 . S
Zn177 N171 2.020 . S
Zn177 O186 2.039 . S
Zn177 O192 2.034 . S
Zn177 O196 2.025 . S
Zn177 O198 2.024 . S
C178 O197 1.246 . S
C178 O198 1.249 . S
N179 C180 1.307 . S
N179 C181 1.333 . S
N179 Zn185 2.020 . S
C180 N179 1.307 . S
C180 C184 1.370 . S
C180 H191 0.948 . S
C181 N179 1.333 . S
C181 C182 1.379 . S
C181 H189 0.952 . S
C182 C181 1.379 . S
C182 C183 1.390 . S
C182 H202 0.949 . S
C183 C182 1.390 . S
C183 C184 1.357 . S
C184 C180 1.370 . S
C184 C183 1.357 . S
C184 H203 0.950 . S
Zn185 N179 2.020 . S
Zn185 O188 2.025 . S
Zn185 O193 2.024 . S
Zn185 O195 2.039 . S
Zn185 O197 2.034 . S
O186 C170 1.251 . S
O186 Zn177 2.039 . S
C187 O192 1.246 . S
C187 O193 1.249 . S
O188 C170 1.254 . S
O188 Zn185 2.025 . S
H189 C181 0.952 . S
H190 C172 0.952 . S
H191 C180 0.948 . S
O192 Zn177 2.034 . S
O192 C187 1.246 . S
O193 Zn185 2.024 . S
O193 C187 1.249 . S
H194 C176 0.948 . S
O195 Zn185 2.039 . S
O195 C199 1.251 . S
O196 Zn177 2.025 . S
O196 C199 1.254 . S
O197 C178 1.246 . S
O197 Zn185 2.034 . S
O198 Zn177 2.024 . S
O198 C178 1.249 . S
C199 O195 1.251 . S
C199 O196 1.254 . S
H200 C173 0.949 . S
H201 C175 0.950 . S
H202 C182 0.949 . S
H203 C184 0.950 . S
C204 O220 1.251 . S
C204 O222 1.254 . S
N205 C206 1.333 . S
N205 C210 1.307 . S
N205 Zn211 2.020 . S
C206 N205 1.333 . S
C206 C207 1.379 . S
C206 H224 0.952 . S
C207 C206 1.379 . S
C207 C208 1.390 . S
C207 H234 0.949 . S
C208 C207 1.390 . S
C208 C209 1.357 . S
C209 C208 1.357 . S
C209 C210 1.370 . S
C209 H235 0.950 . S
C210 N205 1.307 . S
C210 C209 1.370 . S
C210 H228 0.948 . S
Zn211 N205 2.020 . S
Zn211 O220 2.039 . S
Zn211 O226 2.034 . S
Zn211 O230 2.025 . S
Zn211 O232 2.024 . S
C212 O231 1.246 . S
C212 O232 1.249 . S
N213 C214 1.307 . S
N213 C215 1.333 . S
N213 Zn219 2.020 . S
C214 N213 1.307 . S
C214 C218 1.370 . S
C214 H225 0.948 . S
C215 N213 1.333 . S
C215 C216 1.379 . S
C215 H223 0.952 . S
C216 C215 1.379 . S
C216 C217 1.390 . S
C216 H236 0.949 . S
C217 C216 1.390 . S
C217 C218 1.357 . S
C218 C214 1.370 . S
C218 C217 1.357 . S
C218 H237 0.950 . S
Zn219 N213 2.020 . S
Zn219 O222 2.025 . S
Zn219 O227 2.024 . S
Zn219 O229 2.039 . S
Zn219 O231 2.034 . S
O220 C204 1.251 . S
O220 Zn211 2.039 . S
C221 O226 1.246 . S
C221 O227 1.249 . S
O222 C204 1.254 . S
O222 Zn219 2.025 . S
H223 C215 0.952 . S
H224 C206 0.952 . S
H225 C214 0.948 . S
O226 Zn211 2.034 . S
O226 C221 1.246 . S
O227 Zn219 2.024 . S
O227 C221 1.249 . S
H228 C210 0.948 . S
O229 Zn219 2.039 . S
O229 C233 1.251 . S
O230 Zn211 2.025 . S
O230 C233 1.254 . S
O231 C212 1.246 . S
O231 Zn219 2.034 . S
O232 Zn211 2.024 . S
O232 C212 1.249 . S
C233 O229 1.251 . S
C233 O230 1.254 . S
H234 C207 0.949 . S
H235 C209 0.950 . S
H236 C216 0.949 . S
H237 C218 0.950 . S
C238 O254 1.251 . S
C238 O256 1.254 . S
N239 C240 1.333 . S
N239 C244 1.307 . S
N239 Zn245 2.020 . S
C240 N239 1.333 . S
C240 C241 1.379 . S
C240 H258 0.952 . S
C241 C240 1.379 . S
C241 C242 1.390 . S
C241 H268 0.949 . S
C242 C241 1.390 . S
C242 C243 1.357 . S
C243 C242 1.357 . S
C243 C244 1.370 . S
C243 H269 0.950 . S
C244 N239 1.307 . S
C244 C243 1.370 . S
C244 H262 0.948 . S
Zn245 N239 2.020 . S
Zn245 O254 2.039 . S
Zn245 O260 2.034 . S
Zn245 O264 2.025 . S
Zn245 O266 2.024 . S
C246 O265 1.246 . S
C246 O266 1.249 . S
N247 C248 1.307 . S
N247 C249 1.333 . S
N247 Zn253 2.020 . S
C248 N247 1.307 . S
C248 C252 1.370 . S
C248 H259 0.948 . S
C249 N247 1.333 . S
C249 C250 1.379 . S
C249 H257 0.952 . S
C250 C249 1.379 . S
C250 C251 1.390 . S
C250 H270 0.949 . S
C251 C250 1.390 . S
C251 C252 1.357 . S
C252 C248 1.370 . S
C252 C251 1.357 . S
C252 H271 0.950 . S
Zn253 N247 2.020 . S
Zn253 O256 2.025 . S
Zn253 O261 2.024 . S
Zn253 O263 2.039 . S
Zn253 O265 2.034 . S
O254 C238 1.251 . S
O254 Zn245 2.039 . S
C255 O260 1.246 . S
C255 O261 1.249 . S
O256 C238 1.254 . S
O256 Zn253 2.025 . S
H257 C249 0.952 . S
H258 C240 0.952 . S
H259 C248 0.948 . S
O260 Zn245 2.034 . S
O260 C255 1.246 . S
O261 Zn253 2.024 . S
O261 C255 1.249 . S
H262 C244 0.948 . S
O263 Zn253 2.039 . S
O263 C267 1.251 . S
O264 Zn245 2.025 . S
O264 C267 1.254 . S
O265 C246 1.246 . S
O265 Zn253 2.034 . S
O266 Zn245 2.024 . S
O266 C246 1.249 . S
C267 O263 1.251 . S
C267 O264 1.254 . S
H268 C241 0.949 . S
H269 C243 0.950 . S
H270 C250 0.949 . S
H271 C252 0.950 . S
C272 O288 1.251 . S
C272 O290 1.254 . S
N273 C274 1.333 . S
N273 C278 1.307 . S
N273 Zn279 2.020 . S
C274 N273 1.333 . S
C274 C275 1.379 . S
C274 H292 0.952 . S
C275 C274 1.379 . S
C275 C276 1.390 . S
C275 H302 0.949 . S
C276 C275 1.390 . S
C276 C277 1.357 . S
C277 C276 1.357 . S
C277 C278 1.370 . S
C277 H303 0.950 . S
C278 N273 1.307 . S
C278 C277 1.370 . S
C278 H296 0.948 . S
Zn279 N273 2.020 . S
Zn279 O288 2.039 . S
Zn279 O294 2.034 . S
Zn279 O298 2.025 . S
Zn279 O300 2.024 . S
C280 O299 1.246 . S
C280 O300 1.249 . S
N281 C282 1.307 . S
N281 C283 1.333 . S
N281 Zn287 2.020 . S
C282 N281 1.307 . S
C282 C286 1.370 . S
C282 H293 0.948 . S
C283 N281 1.333 . S
C283 C284 1.379 . S
C283 H291 0.952 . S
C284 C283 1.379 . S
C284 C285 1.390 . S
C284 H304 0.949 . S
C285 C284 1.390 . S
C285 C286 1.357 . S
C286 C282 1.370 . S
C286 C285 1.357 . S
C286 H305 0.950 . S
Zn287 N281 2.020 . S
Zn287 O290 2.025 . S
Zn287 O295 2.024 . S
Zn287 O297 2.039 . S
Zn287 O299 2.034 . S
O288 C272 1.251 . S
O288 Zn279 2.039 . S
C289 O294 1.246 . S
C289 O295 1.249 . S
O290 C272 1.254 . S
O290 Zn287 2.025 . S
H291 C283 0.952 . S
H292 C274 0.952 . S
H293 C282 0.948 . S
O294 Zn279 2.034 . S
O294 C289 1.246 . S
O295 Zn287 2.024 . S
O295 C289 1.249 . S
H296 C278 0.948 . S
O297 Zn287 2.039 . S
O297 C301 1.251 . S
O298 Zn279 2.025 . S
O298 C301 1.254 . S
O299 C280 1.246 . S
O299 Zn287 2.034 . S
O300 Zn279 2.024 . S
O300 C280 1.249 . S
C301 O297 1.251 . S
C301 O298 1.254 . S
H302 C275 0.949 . S
H303 C277 0.950 . S
H304 C284 0.949 . S
H305 C286 0.950 . S
C306 C307 1.391 . S
C306 C308 1.394 . S
C306 H322 0.931 . S
C307 C306 1.391 . S
C307 C311 1.376 . S
C308 C306 1.394 . S
C308 C309 1.369 . S
C308 C312 1.531 . S
C309 C308 1.369 . S
C309 C310 1.410 . S
C309 C317 1.503 . S
C310 C309 1.410 . S
C310 C311 1.392 . S
C310 C313 1.511 . S
C311 C307 1.376 . S
C311 C310 1.392 . S
C311 H323 0.929 . S
C312 C308 1.531 . S
C312 H324 0.960 . S
C312 H325 0.962 . S
C312 H326 0.960 . S
C313 C310 1.511 . S
C313 H327 0.961 . S
C313 H328 0.961 . S
C313 H329 0.961 . S
C314 C315 1.370 . S
C314 C316 1.363 . S
C314 H330 0.931 . S
C315 C314 1.370 . S
C315 C319 1.408 . S
C316 C314 1.363 . S
C316 C317 1.370 . S
C316 C320 1.524 . S
C317 C309 1.503 . S
C317 C316 1.370 . S
C317 C318 1.403 . S
C318 C317 1.403 . S
C318 C319 1.404 . S
C318 C321 1.539 . S
C319 C315 1.408 . S
C319 C318 1.404 . S
C319 H331 0.930 . S
C320 C316 1.524 . S
C320 H332 0.956 . S
C320 H333 0.961 . S
C320 H334 0.961 . S
C321 C318 1.539 . S
C321 H335 0.958 . S
C321 H336 0.961 . S
C321 H337 0.960 . S
H322 C306 0.931 . S
H323 C311 0.929 . S
H324 C312 0.960 . S
H325 C312 0.962 . S
H326 C312 0.960 . S
H327 C313 0.961 . S
H328 C313 0.961 . S
H329 C313 0.961 . S
H330 C314 0.931 . S
H331 C319 0.930 . S
H332 C320 0.956 . S
H333 C320 0.961 . S
H334 C320 0.961 . S
H335 C321 0.958 . S
H336 C321 0.961 . S
H337 C321 0.960 . S
C338 C339 1.391 . S
C338 C340 1.394 . S
C338 H354 0.931 . S
C339 C338 1.391 . S
C339 C343 1.376 . S
C340 C338 1.394 . S
C340 C341 1.369 . S
C340 C344 1.531 . S
C341 C340 1.369 . S
C341 C342 1.410 . S
C341 C349 1.503 . S
C342 C341 1.410 . S
C342 C343 1.392 . S
C342 C345 1.511 . S
C343 C339 1.376 . S
C343 C342 1.392 . S
C343 H355 0.929 . S
C344 C340 1.531 . S
C344 H356 0.960 . S
C344 H357 0.962 . S
C344 H358 0.960 . S
C345 C342 1.511 . S
C345 H359 0.961 . S
C345 H360 0.961 . S
C345 H361 0.961 . S
C346 C347 1.370 . S
C346 C348 1.363 . S
C346 H362 0.931 . S
C347 C346 1.370 . S
C347 C351 1.408 . S
C348 C346 1.363 . S
C348 C349 1.370 . S
C348 C352 1.524 . S
C349 C341 1.503 . S
C349 C348 1.370 . S
C349 C350 1.403 . S
C350 C349 1.403 . S
C350 C351 1.404 . S
C350 C353 1.539 . S
C351 C347 1.408 . S
C351 C350 1.404 . S
C351 H363 0.930 . S
C352 C348 1.524 . S
C352 H364 0.956 . S
C352 H365 0.961 . S
C352 H366 0.961 . S
C353 C350 1.539 . S
C353 H367 0.958 . S
C353 H368 0.961 . S
C353 H369 0.960 . S
H354 C338 0.931 . S
H355 C343 0.929 . S
H356 C344 0.960 . S
H357 C344 0.962 . S
H358 C344 0.960 . S
H359 C345 0.961 . S
H360 C345 0.961 . S
H361 C345 0.961 . S
H362 C346 0.931 . S
H363 C351 0.930 . S
H364 C352 0.956 . S
H365 C352 0.961 . S
H366 C352 0.961 . S
H367 C353 0.958 . S
H368 C353 0.961 . S
H369 C353 0.960 . S
C370 C371 1.391 . S
C370 C372 1.394 . S
C370 H386 0.931 . S
C371 C370 1.391 . S
C371 C375 1.376 . S
C372 C370 1.394 . S
C372 C373 1.369 . S
C372 C376 1.531 . S
C373 C372 1.369 . S
C373 C374 1.410 . S
C373 C381 1.503 . S
C374 C373 1.410 . S
C374 C375 1.392 . S
C374 C377 1.511 . S
C375 C371 1.376 . S
C375 C374 1.392 . S
C375 H387 0.929 1_556 S
C376 C372 1.531 . S
C376 H388 0.960 . S
C376 H389 0.962 . S
C376 H390 0.960 . S
C377 C374 1.511 . S
C377 H391 0.961 . S
C377 H392 0.961 . S
C377 H393 0.961 . S
C378 C379 1.370 . S
C378 C380 1.363 . S
C378 H394 0.931 . S
C379 C378 1.370 . S
C379 C383 1.408 . S
C380 C378 1.363 . S
C380 C381 1.370 . S
C380 C384 1.524 . S
C381 C373 1.503 . S
C381 C380 1.370 . S
C381 C382 1.403 . S
C382 C381 1.403 . S
C382 C383 1.404 . S
C382 C385 1.539 . S
C383 C379 1.408 . S
C383 C382 1.404 . S
C383 H395 0.930 . S
C384 C380 1.524 . S
C384 H396 0.956 . S
C384 H397 0.961 . S
C384 H398 0.961 . S
C385 C382 1.539 . S
C385 H399 0.958 . S
C385 H400 0.961 . S
C385 H401 0.960 . S
H386 C370 0.931 . S
H387 C375 0.929 1_554 S
H388 C376 0.960 . S
H389 C376 0.962 . S
H390 C376 0.960 . S
H391 C377 0.961 . S
H392 C377 0.961 . S
H393 C377 0.961 . S
H394 C378 0.931 . S
H395 C383 0.930 . S
H396 C384 0.956 . S
H397 C384 0.961 . S
H398 C384 0.961 . S
H399 C385 0.958 . S
H400 C385 0.961 . S
H401 C385 0.960 . S
C402 C403 1.391 . S
C402 C404 1.394 . S
C402 H418 0.931 . S
C403 C402 1.391 . S
C403 C407 1.376 . S
C404 C402 1.394 . S
C404 C405 1.369 . S
C404 C408 1.531 . S
C405 C404 1.369 . S
C405 C406 1.410 . S
C405 C413 1.503 . S
C406 C405 1.410 . S
C406 C407 1.392 . S
C406 C409 1.511 . S
C407 C403 1.376 . S
C407 C406 1.392 . S
C407 H419 0.929 . S
C408 C404 1.531 . S
C408 H420 0.960 . S
C408 H421 0.962 . S
C408 H422 0.960 . S
C409 C406 1.511 . S
C409 H423 0.961 . S
C409 H424 0.961 . S
C409 H425 0.961 . S
C410 C411 1.370 . S
C410 C412 1.363 . S
C410 H426 0.931 . S
C411 C410 1.370 . S
C411 C415 1.408 . S
C412 C410 1.363 . S
C412 C413 1.370 . S
C412 C416 1.524 . S
C413 C405 1.503 . S
C413 C412 1.370 . S
C413 C414 1.403 . S
C414 C413 1.403 . S
C414 C415 1.404 . S
C414 C417 1.539 . S
C415 C411 1.408 . S
C415 C414 1.404 . S
C415 H427 0.930 . S
C416 C412 1.524 . S
C416 H428 0.956 . S
C416 H429 0.961 . S
C416 H430 0.961 . S
C417 C414 1.539 . S
C417 H431 0.958 . S
C417 H432 0.961 . S
C417 H433 0.960 . S
H418 C402 0.931 . S
H419 C407 0.929 . S
H420 C408 0.960 . S
H421 C408 0.962 . S
H422 C408 0.960 . S
H423 C409 0.961 . S
H424 C409 0.961 . S
H425 C409 0.961 . S
H426 C410 0.931 . S
H427 C415 0.930 . S
H428 C416 0.956 . S
H429 C416 0.961 . S
H430 C416 0.961 . S
H431 C417 0.958 . S
H432 C417 0.961 . S
H433 C417 0.960 . S
C434 C435 1.391 . S
C434 C436 1.394 . S
C434 H450 0.931 . S
C435 C434 1.391 . S
C435 C439 1.376 . S
C436 C434 1.394 . S
C436 C437 1.369 . S
C436 C440 1.531 . S
C437 C436 1.369 . S
C437 C438 1.410 . S
C437 C445 1.503 . S
C438 C437 1.410 . S
C438 C439 1.392 . S
C438 C441 1.511 . S
C439 C435 1.376 . S
C439 C438 1.392 . S
C439 H451 0.929 . S
C440 C436 1.531 . S
C440 H452 0.960 . S
C440 H453 0.962 . S
C440 H454 0.960 . S
C441 C438 1.511 . S
C441 H455 0.961 . S
C441 H456 0.961 . S
C441 H457 0.961 . S
C442 C443 1.370 . S
C442 C444 1.363 . S
C442 H458 0.931 . S
C443 C442 1.370 . S
C443 C447 1.408 . S
C444 C442 1.363 . S
C444 C445 1.370 . S
C444 C448 1.524 . S
C445 C437 1.503 . S
C445 C444 1.370 . S
C445 C446 1.403 . S
C446 C445 1.403 . S
C446 C447 1.404 . S
C446 C449 1.539 . S
C447 C443 1.408 . S
C447 C446 1.404 . S
C447 H459 0.930 . S
C448 C444 1.524 . S
C448 H460 0.956 . S
C448 H461 0.961 . S
C448 H462 0.961 . S
C449 C446 1.539 . S
C449 H463 0.958 . S
C449 H464 0.961 1_655 S
C449 H465 0.960 . S
H450 C434 0.931 . S
H451 C439 0.929 . S
H452 C440 0.960 . S
H453 C440 0.962 . S
H454 C440 0.960 . S
H455 C441 0.961 . S
H456 C441 0.961 . S
H457 C441 0.961 . S
H458 C442 0.931 . S
H459 C447 0.930 . S
H460 C448 0.956 . S
H461 C448 0.961 . S
H462 C448 0.961 . S
H463 C449 0.958 . S
H464 C449 0.961 1_455 S
H465 C449 0.960 . S
C466 C467 1.391 . S
C466 C468 1.394 . S
C466 H482 0.931 . S
C467 C466 1.391 . S
C467 C471 1.376 . S
C468 C466 1.394 . S
C468 C469 1.369 . S
C468 C472 1.531 . S
C469 C468 1.369 . S
C469 C470 1.410 . S
C469 C477 1.503 . S
C470 C469 1.410 . S
C470 C471 1.392 . S
C470 C473 1.511 . S
C471 C467 1.376 . S
C471 C470 1.392 . S
C471 H483 0.929 . S
C472 C468 1.531 . S
C472 H484 0.960 . S
C472 H485 0.962 . S
C472 H486 0.960 . S
C473 C470 1.511 . S
C473 H487 0.961 . S
C473 H488 0.961 . S
C473 H489 0.961 . S
C474 C475 1.370 . S
C474 C476 1.363 . S
C474 H490 0.931 . S
C475 C474 1.370 . S
C475 C479 1.408 . S
C476 C474 1.363 . S
C476 C477 1.370 . S
C476 C480 1.524 . S
C477 C469 1.503 . S
C477 C476 1.370 . S
C477 C478 1.403 . S
C478 C477 1.403 . S
C478 C479 1.404 . S
C478 C481 1.539 . S
C479 C475 1.408 . S
C479 C478 1.404 . S
C479 H491 0.930 . S
C480 C476 1.524 . S
C480 H492 0.956 . S
C480 H493 0.961 . S
C480 H494 0.961 . S
C481 C478 1.539 . S
C481 H495 0.958 . S
C481 H496 0.961 . S
C481 H497 0.960 . S
H482 C466 0.931 . S
H483 C471 0.929 . S
H484 C472 0.960 . S
H485 C472 0.962 . S
H486 C472 0.960 . S
H487 C473 0.961 . S
H488 C473 0.961 . S
H489 C473 0.961 . S
H490 C474 0.931 . S
H491 C479 0.930 . S
H492 C480 0.956 . S
H493 C480 0.961 . S
H494 C480 0.961 . S
H495 C481 0.958 . S
H496 C481 0.961 . S
H497 C481 0.960 . S
C498 C499 1.391 . S
C498 C500 1.394 . S
C498 H514 0.931 . S
C499 C498 1.391 . S
C499 C503 1.376 . S
C500 C498 1.394 . S
C500 C501 1.369 . S
C500 C504 1.531 . S
C501 C500 1.369 . S
C501 C502 1.410 . S
C501 C509 1.503 1_455 S
C502 C501 1.410 . S
C502 C503 1.392 . S
C502 C505 1.511 . S
C503 C499 1.376 . S
C503 C502 1.392 . S
C503 H515 0.929 . S
C504 C500 1.531 . S
C504 H516 0.960 1_455 S
C504 H517 0.962 . S
C504 H518 0.960 . S
C505 C502 1.511 . S
C505 H519 0.961 . S
C505 H520 0.961 . S
C505 H521 0.961 . S
C506 C507 1.370 . S
C506 C508 1.363 1_655 S
C506 H522 0.931 . S
C507 C506 1.370 . S
C507 C511 1.408 . S
C508 C506 1.363 1_455 S
C508 C509 1.370 1_455 S
C508 C512 1.524 . S
C509 C501 1.503 1_655 S
C509 C508 1.370 1_655 S
C509 C510 1.403 . S
C510 C509 1.403 . S
C510 C511 1.404 . S
C510 C513 1.539 . S
C511 C507 1.408 . S
C511 C510 1.404 . S
C511 H523 0.930 . S
C512 C508 1.524 . S
C512 H524 0.956 . S
C512 H525 0.961 . S
C512 H526 0.961 . S
C513 C510 1.539 . S
C513 H527 0.958 . S
C513 H528 0.961 . S
C513 H529 0.960 . S
H514 C498 0.931 . S
H515 C503 0.929 . S
H516 C504 0.960 1_655 S
H517 C504 0.962 . S
H518 C504 0.960 . S
H519 C505 0.961 . S
H520 C505 0.961 . S
H521 C505 0.961 . S
H522 C506 0.931 . S
H523 C511 0.930 . S
H524 C512 0.956 . S
H525 C512 0.961 . S
H526 C512 0.961 . S
H527 C513 0.958 . S
H528 C513 0.961 . S
H529 C513 0.960 . S
C530 C531 1.391 . S
C530 C532 1.394 . S
C530 H546 0.931 . S
C531 C530 1.391 . S
C531 C535 1.376 . S
C532 C530 1.394 . S
C532 C533 1.369 . S
C532 C536 1.531 . S
C533 C532 1.369 . S
C533 C534 1.410 . S
C533 C541 1.503 . S
C534 C533 1.410 . S
C534 C535 1.392 . S
C534 C537 1.511 . S
C535 C531 1.376 . S
C535 C534 1.392 . S
C535 H547 0.929 . S
C536 C532 1.531 . S
C536 H548 0.960 . S
C536 H549 0.962 . S
C536 H550 0.960 . S
C537 C534 1.511 . S
C537 H551 0.961 . S
C537 H552 0.961 . S
C537 H553 0.961 . S
C538 C539 1.370 . S
C538 C540 1.363 . S
C538 H554 0.931 . S
C539 C538 1.370 . S
C539 C543 1.408 . S
C540 C538 1.363 . S
C540 C541 1.370 . S
C540 C544 1.524 . S
C541 C533 1.503 . S
C541 C540 1.370 . S
C541 C542 1.403 . S
C542 C541 1.403 . S
C542 C543 1.404 . S
C542 C545 1.539 . S
C543 C539 1.408 . S
C543 C542 1.404 . S
C543 H555 0.930 . S
C544 C540 1.524 . S
C544 H556 0.956 . S
C544 H557 0.961 . S
C544 H558 0.961 . S
C545 C542 1.539 . S
C545 H559 0.958 . S
C545 H560 0.961 . S
C545 H561 0.960 . S
H546 C530 0.931 . S
H547 C535 0.929 . S
H548 C536 0.960 . S
H549 C536 0.962 . S
H550 C536 0.960 . S
H551 C537 0.961 . S
H552 C537 0.961 . S
H553 C537 0.961 . S
H554 C538 0.931 . S
H555 C543 0.930 . S
H556 C544 0.956 . S
H557 C544 0.961 . S
H558 C544 0.961 . S
H559 C545 0.958 . S
H560 C545 0.961 . S
H561 C545 0.960 . S
C562 C563 1.391 . S
C562 C564 1.394 . S
C562 H578 0.931 . S
C563 C562 1.391 . S
C563 C567 1.376 . S
C564 C562 1.394 . S
C564 C565 1.369 . S
C564 C568 1.531 . S
C565 C564 1.369 . S
C565 C566 1.410 . S
C565 C573 1.491 1_545 S
C566 C565 1.410 . S
C566 C567 1.392 . S
C566 C569 1.511 . S
C567 C563 1.376 . S
C567 C566 1.392 . S
C567 H579 0.929 . S
C568 C564 1.531 . S
C568 H580 0.960 . S
C568 H581 0.962 . S
C568 H582 0.960 . S
C569 C566 1.511 . S
C569 H583 0.961 . S
C569 H584 0.961 1_545 S
C569 H585 0.961 . S
C570 C571 1.370 . S
C570 C572 1.363 . S
C570 H586 0.931 . S
C571 C570 1.370 . S
C571 C575 1.408 . S
C572 C570 1.363 . S
C572 C573 1.388 . S
C572 C576 1.524 . S
C573 C565 1.491 1_565 S
C573 C572 1.388 . S
C573 C574 1.397 1_565 S
C574 C573 1.397 1_545 S
C574 C575 1.404 1_545 S
C574 C577 1.539 . S
C575 C571 1.408 . S
C575 C574 1.404 1_565 S
C575 H587 0.930 . S
C576 C572 1.524 . S
C576 H588 0.956 . S
C576 H589 0.961 . S
C576 H590 0.961 . S
C577 C574 1.539 . S
C577 H591 0.958 . S
C577 H592 0.961 . S
C577 H593 0.960 . S
H578 C562 0.931 . S
H579 C567 0.929 . S
H580 C568 0.960 . S
H581 C568 0.962 . S
H582 C568 0.960 . S
H583 C569 0.961 . S
H584 C569 0.961 1_565 S
H585 C569 0.961 . S
H586 C570 0.931 . S
H587 C575 0.930 . S
H588 C576 0.956 . S
H589 C576 0.961 . S
H590 C576 0.961 . S
H591 C577 0.958 . S
H592 C577 0.961 . S
H593 C577 0.960 . S
C594 C595 1.391 1_556 S
C594 C596 1.394 . S
C594 H610 0.931 . S
C595 C594 1.391 1_554 S
C595 C599 1.376 . S
C596 C594 1.394 . S
C596 C597 1.369 1_556 S
C596 C600 1.531 . S
C597 C596 1.369 1_554 S
C597 C598 1.410 . S
C597 C605 1.503 . S
C598 C597 1.410 . S
C598 C599 1.392 . S
C598 C601 1.511 . S
C599 C595 1.376 . S
C599 C598 1.392 . S
C599 H611 0.929 . S
C600 C596 1.531 . S
C600 H612 0.960 . S
C600 H613 0.962 . S
C600 H614 0.960 . S
C601 C598 1.511 . S
C601 H615 0.961 . S
C601 H616 0.961 . S
C601 H617 0.961 . S
C602 C603 1.370 1_554 S
C602 C604 1.363 . S
C602 H618 0.931 . S
C603 C602 1.370 1_556 S
C603 C607 1.408 . S
C604 C602 1.363 . S
C604 C605 1.370 . S
C604 C608 1.524 . S
C605 C597 1.503 . S
C605 C604 1.370 . S
C605 C606 1.403 1_554 S
C606 C605 1.403 1_556 S
C606 C607 1.404 . S
C606 C609 1.539 . S
C607 C603 1.408 . S
C607 C606 1.404 . S
C607 H619 0.930 . S
C608 C604 1.524 . S
C608 H620 0.956 . S
C608 H621 0.961 . S
C608 H622 0.961 . S
C609 C606 1.539 . S
C609 H623 0.958 . S
C609 H624 0.961 . S
C609 H625 0.960 . S
H610 C594 0.931 . S
H611 C599 0.929 . S
H612 C600 0.960 . S
H613 C600 0.962 . S
H614 C600 0.960 . S
H615 C601 0.961 . S
H616 C601 0.961 . S
H617 C601 0.961 . S
H618 C602 0.931 . S
H619 C607 0.930 . S
H620 C608 0.956 . S
H621 C608 0.961 . S
H622 C608 0.961 . S
H623 C609 0.958 . S
H624 C609 0.961 . S
H625 C609 0.960 . S
C626 C627 1.391 1_554 S
C626 C628 1.394 . S
C626 H642 0.931 . S
C627 C626 1.391 1_556 S
C627 C631 1.376 . S
C628 C626 1.394 . S
C628 C629 1.369 . S
C628 C632 1.531 . S
C629 C628 1.369 . S
C629 C630 1.410 . S
C629 C637 1.503 1_565 S
C630 C629 1.410 . S
C630 C631 1.392 1_554 S
C630 C633 1.511 . S
C631 C627 1.376 . S
C631 C630 1.392 1_556 S
C631 H643 0.929 . S
C632 C628 1.531 . S
C632 H644 0.960 1_565 S
C632 H645 0.962 . S
C632 H646 0.960 . S
C633 C630 1.511 . S
C633 H647 0.961 1_554 S
C633 H648 0.961 1_564 S
C633 H649 0.961 . S
C634 C635 1.370 1_556 S
C634 C636 1.363 . S
C634 H650 0.931 . S
C635 C634 1.370 1_554 S
C635 C639 1.408 . S
C636 C634 1.363 . S
C636 C637 1.370 1_556 S
C636 C640 1.524 . S
C637 C629 1.503 1_545 S
C637 C636 1.370 1_554 S
C637 C638 1.403 . S
C638 C637 1.403 . S
C638 C639 1.404 . S
C638 C641 1.539 . S
C639 C635 1.408 . S
C639 C638 1.404 . S
C639 H651 0.930 . S
C640 C636 1.524 . S
C640 H652 0.956 . S
C640 H653 0.961 . S
C640 H654 0.961 . S
C641 C638 1.539 . S
C641 H655 0.958 . S
C641 H656 0.961 . S
C641 H657 0.960 . S
H642 C626 0.931 . S
H643 C631 0.929 . S
H644 C632 0.960 1_545 S
H645 C632 0.962 . S
H646 C632 0.960 . S
H647 C633 0.961 1_556 S
H648 C633 0.961 1_546 S
H649 C633 0.961 . S
H650 C634 0.931 . S
H651 C639 0.930 . S
H652 C640 0.956 . S
H653 C640 0.961 . S
H654 C640 0.961 . S
H655 C641 0.958 . S
H656 C641 0.961 . S
H657 C641 0.960 . S
C658 C659 1.391 . S
C658 C660 1.394 . S
C658 H674 0.931 . S
C659 C658 1.391 . S
C659 C663 1.376 . S
C660 C658 1.394 . S
C660 C661 1.369 . S
C660 C664 1.530 1_655 S
C661 C660 1.369 . S
C661 C662 1.410 . S
C661 C669 1.503 1_655 S
C662 C661 1.410 . S
C662 C663 1.392 . S
C662 C665 1.511 1_554 S
C663 C659 1.376 . S
C663 C662 1.392 . S
C663 H675 0.932 . S
C664 C660 1.530 1_455 S
C664 H676 0.963 . S
C664 H677 0.961 . S
C664 H678 0.958 1_455 S
C665 C662 1.511 1_556 S
C665 H679 0.961 . S
C665 H680 0.961 1_655 S
C665 H681 0.961 1_556 S
C666 C667 1.370 . S
C666 C668 1.363 . S
C666 H682 0.931 . S
C667 C666 1.370 . S
C667 C671 1.408 1_556 S
C668 C666 1.363 . S
C668 C669 1.370 1_556 S
C668 C672 1.524 . S
C669 C661 1.503 1_455 S
C669 C668 1.370 1_554 S
C669 C670 1.403 . S
C670 C669 1.403 . S
C670 C671 1.404 . S
C670 C673 1.539 . S
C671 C667 1.408 1_554 S
C671 C670 1.404 . S
C671 H683 0.930 . S
C672 C668 1.524 . S
C672 H684 0.956 . S
C672 H685 0.961 . S
C672 H686 0.961 . S
C673 C670 1.539 . S
C673 H687 0.958 . S
C673 H688 0.961 . S
C673 H689 0.960 . S
H674 C658 0.931 . S
H675 C663 0.932 . S
H676 C664 0.963 . S
H677 C664 0.961 . S
H678 C664 0.958 1_655 S
H679 C665 0.961 . S
H680 C665 0.961 1_455 S
H681 C665 0.961 1_554 S
H682 C666 0.931 . S
H683 C671 0.930 . S
H684 C672 0.956 . S
H685 C672 0.961 . S
H686 C672 0.961 . S
H687 C673 0.958 . S
H688 C673 0.961 . S
H689 C673 0.960 . S
C690 C691 1.391 . S
C690 C692 1.394 . S
C690 H706 0.931 . S
C691 C690 1.391 . S
C691 C695 1.376 . S
C692 C690 1.394 . S
C692 C693 1.369 . S
C692 C696 1.531 . S
C693 C692 1.369 . S
C693 C694 1.410 . S
C693 C701 1.503 . S
C694 C693 1.410 . S
C694 C695 1.392 . S
C694 C697 1.511 . S
C695 C691 1.376 . S
C695 C694 1.392 . S
C695 H707 0.929 . S
C696 C692 1.531 . S
C696 H708 0.960 . S
C696 H709 0.962 . S
C696 H710 0.960 . S
C697 C694 1.511 . S
C697 H711 0.961 . S
C697 H712 0.961 . S
C697 H713 0.961 . S
C698 C699 1.370 . S
C698 C700 1.363 . S
C698 H714 0.931 . S
C699 C698 1.370 . S
C699 C703 1.408 . S
C700 C698 1.363 . S
C700 C701 1.370 . S
C700 C704 1.524 . S
C701 C693 1.503 . S
C701 C700 1.370 . S
C701 C702 1.403 . S
C702 C701 1.403 . S
C702 C703 1.404 . S
C702 C705 1.539 . S
C703 C699 1.408 . S
C703 C702 1.404 . S
C703 H715 0.930 . S
C704 C700 1.524 . S
C704 H716 0.956 . S
C704 H717 0.961 . S
C704 H718 0.961 . S
C705 C702 1.539 . S
C705 H719 0.958 . S
C705 H720 0.961 . S
C705 H721 0.960 . S
H706 C690 0.931 . S
H707 C695 0.929 . S
H708 C696 0.960 . S
H709 C696 0.962 . S
H710 C696 0.960 . S
H711 C697 0.961 . S
H712 C697 0.961 . S
H713 C697 0.961 . S
H714 C698 0.931 . S
H715 C703 0.930 . S
H716 C704 0.956 . S
H717 C704 0.961 . S
H718 C704 0.961 . S
H719 C705 0.958 . S
H720 C705 0.961 . S
H721 C705 0.960 . S
C722 C723 1.391 . S
C722 C724 1.394 . S
C722 H738 0.931 . S
C723 C722 1.391 . S
C723 C727 1.376 . S
C724 C722 1.394 . S
C724 C725 1.369 . S
C724 C728 1.531 . S
C725 C724 1.369 . S
C725 C726 1.410 . S
C725 C733 1.503 . S
C726 C725 1.410 . S
C726 C727 1.392 . S
C726 C729 1.511 . S
C727 C723 1.376 . S
C727 C726 1.392 . S
C727 H739 0.929 . S
C728 C724 1.531 . S
C728 H740 0.960 . S
C728 H741 0.962 . S
C728 H742 0.960 . S
C729 C726 1.511 . S
C729 H743 0.961 . S
C729 H744 0.961 . S
C729 H745 0.961 . S
C730 C731 1.370 . S
C730 C732 1.363 . S
C730 H746 0.931 . S
C731 C730 1.370 . S
C731 C735 1.408 . S
C732 C730 1.363 . S
C732 C733 1.370 . S
C732 C736 1.524 . S
C733 C725 1.503 . S
C733 C732 1.370 . S
C733 C734 1.403 . S
C734 C733 1.403 . S
C734 C735 1.404 . S
C734 C737 1.539 . S
C735 C731 1.408 . S
C735 C734 1.404 . S
C735 H747 0.930 . S
C736 C732 1.524 . S
C736 H748 0.956 . S
C736 H749 0.961 . S
C736 H750 0.961 . S
C737 C734 1.539 . S
C737 H751 0.958 . S
C737 H752 0.961 . S
C737 H753 0.960 . S
H738 C722 0.931 . S
H739 C727 0.929 . S
H740 C728 0.960 . S
H741 C728 0.962 . S
H742 C728 0.960 . S
H743 C729 0.961 . S
H744 C729 0.961 . S
H745 C729 0.961 . S
H746 C730 0.931 . S
H747 C735 0.930 . S
H748 C736 0.956 . S
H749 C736 0.961 . S
H750 C736 0.961 . S
H751 C737 0.958 . S
H752 C737 0.961 . S
H753 C737 0.960 . S
C754 C755 1.391 . S
C754 C756 1.394 . S
C754 H770 0.931 . S
C755 C754 1.391 . S
C755 C759 1.376 . S
C756 C754 1.394 . S
C756 C757 1.369 . S
C756 C760 1.531 . S
C757 C756 1.369 . S
C757 C758 1.410 . S
C757 C765 1.503 . S
C758 C757 1.410 . S
C758 C759 1.392 . S
C758 C761 1.511 . S
C759 C755 1.376 . S
C759 C758 1.392 . S
C759 H771 0.929 . S
C760 C756 1.531 . S
C760 H772 0.960 . S
C760 H773 0.962 . S
C760 H774 0.960 . S
C761 C758 1.511 . S
C761 H775 0.961 . S
C761 H776 0.961 . S
C761 H777 0.961 . S
C762 C763 1.370 . S
C762 C764 1.363 . S
C762 H778 0.931 . S
C763 C762 1.370 . S
C763 C767 1.408 . S
C764 C762 1.363 . S
C764 C765 1.370 . S
C764 C768 1.524 . S
C765 C757 1.503 . S
C765 C764 1.370 . S
C765 C766 1.403 . S
C766 C765 1.403 . S
C766 C767 1.404 . S
C766 C769 1.539 . S
C767 C763 1.408 . S
C767 C766 1.404 . S
C767 H779 0.930 . S
C768 C764 1.524 . S
C768 H780 0.956 . S
C768 H781 0.961 . S
C768 H782 0.961 . S
C769 C766 1.539 . S
C769 H783 0.958 . S
C769 H784 0.961 . S
C769 H785 0.960 . S
H770 C754 0.931 . S
H771 C759 0.929 . S
H772 C760 0.960 . S
H773 C760 0.962 . S
H774 C760 0.960 . S
H775 C761 0.961 . S
H776 C761 0.961 . S
H777 C761 0.961 . S
H778 C762 0.931 . S
H779 C767 0.930 . S
H780 C768 0.956 . S
H781 C768 0.961 . S
H782 C768 0.961 . S
H783 C769 0.958 . S
H784 C769 0.961 . S
H785 C769 0.960 . S
C786 C787 1.391 . S
C786 C788 1.394 . S
C786 H802 0.931 . S
C787 C786 1.391 . S
C787 C791 1.376 . S
C788 C786 1.394 . S
C788 C789 1.369 . S
C788 C792 1.531 . S
C789 C788 1.369 . S
C789 C790 1.410 . S
C789 C797 1.503 . S
C790 C789 1.410 . S
C790 C791 1.392 . S
C790 C793 1.511 . S
C791 C787 1.376 . S
C791 C790 1.392 . S
C791 H803 0.929 . S
C792 C788 1.531 . S
C792 H804 0.960 . S
C792 H805 0.962 . S
C792 H806 0.960 . S
C793 C790 1.511 . S
C793 H807 0.961 . S
C793 H808 0.961 . S
C793 H809 0.961 . S
C794 C795 1.370 . S
C794 C796 1.363 . S
C794 H810 0.931 . S
C795 C794 1.370 . S
C795 C799 1.408 . S
C796 C794 1.363 . S
C796 C797 1.370 . S
C796 C800 1.524 . S
C797 C789 1.503 . S
C797 C796 1.370 . S
C797 C798 1.403 . S
C798 C797 1.403 . S
C798 C799 1.404 . S
C798 C801 1.539 . S
C799 C795 1.408 . S
C799 C798 1.404 . S
C799 H811 0.930 . S
C800 C796 1.524 . S
C800 H812 0.956 . S
C800 H813 0.961 . S
C800 H814 0.961 . S
C801 C798 1.539 . S
C801 H815 0.958 . S
C801 H816 0.961 . S
C801 H817 0.960 . S
H802 C786 0.931 . S
H803 C791 0.929 . S
H804 C792 0.960 . S
H805 C792 0.962 . S
H806 C792 0.960 . S
H807 C793 0.961 . S
H808 C793 0.961 . S
H809 C793 0.961 . S
H810 C794 0.931 . S
H811 C799 0.930 . S
H812 C800 0.956 . S
H813 C800 0.961 . S
H814 C800 0.961 . S
H815 C801 0.958 . S
H816 C801 0.961 . S
H817 C801 0.960 . S
C818 C819 1.391 . S
C818 C820 1.394 . S
C818 H834 0.931 . S
C819 C818 1.391 . S
C819 C823 1.376 . S
C820 C818 1.394 . S
C820 C821 1.369 . S
C820 C824 1.531 . S
C821 C820 1.369 . S
C821 C822 1.410 . S
C821 C829 1.503 . S
C822 C821 1.410 . S
C822 C823 1.392 . S
C822 C825 1.511 . S
C823 C819 1.376 . S
C823 C822 1.392 . S
C823 H835 0.929 . S
C824 C820 1.531 . S
C824 H836 0.960 . S
C824 H837 0.962 . S
C824 H838 0.960 . S
C825 C822 1.511 . S
C825 H839 0.961 . S
C825 H840 0.961 . S
C825 H841 0.961 . S
C826 C827 1.370 . S
C826 C828 1.363 . S
C826 H842 0.931 . S
C827 C826 1.370 . S
C827 C831 1.408 . S
C828 C826 1.363 . S
C828 C829 1.370 . S
C828 C832 1.524 . S
C829 C821 1.503 . S
C829 C828 1.370 . S
C829 C830 1.403 . S
C830 C829 1.403 . S
C830 C831 1.404 . S
C830 C833 1.539 . S
C831 C827 1.408 . S
C831 C830 1.404 . S
C831 H843 0.930 . S
C832 C828 1.524 . S
C832 H844 0.956 . S
C832 H845 0.961 . S
C832 H846 0.961 . S
C833 C830 1.539 . S
C833 H847 0.958 . S
C833 H848 0.961 . S
C833 H849 0.960 . S
H834 C818 0.931 . S
H835 C823 0.929 . S
H836 C824 0.960 . S
H837 C824 0.962 . S
H838 C824 0.960 . S
H839 C825 0.961 . S
H840 C825 0.961 . S
H841 C825 0.961 . S
H842 C826 0.931 . S
H843 C831 0.930 . S
H844 C832 0.956 . S
H845 C832 0.961 . S
H846 C832 0.961 . S
H847 C833 0.958 . S
H848 C833 0.961 . S
H849 C833 0.960 . S
C850 C851 1.391 . S
C850 C852 1.394 . S
C850 H866 0.931 . S
C851 C850 1.391 . S
C851 C855 1.376 . S
C852 C850 1.394 . S
C852 C853 1.369 . S
C852 C856 1.531 . S
C853 C852 1.369 . S
C853 C854 1.410 . S
C853 C861 1.503 . S
C854 C853 1.410 . S
C854 C855 1.392 . S
C854 C857 1.511 . S
C855 C851 1.376 . S
C855 C854 1.392 . S
C855 H867 0.929 . S
C856 C852 1.531 . S
C856 H868 0.960 . S
C856 H869 0.962 . S
C856 H870 0.960 . S
C857 C854 1.511 . S
C857 H871 0.961 . S
C857 H872 0.961 . S
C857 H873 0.961 . S
C858 C859 1.370 . S
C858 C860 1.363 . S
C858 H874 0.931 . S
C859 C858 1.370 . S
C859 C863 1.408 . S
C860 C858 1.363 . S
C860 C861 1.370 . S
C860 C864 1.524 . S
C861 C853 1.503 . S
C861 C860 1.370 . S
C861 C862 1.403 . S
C862 C861 1.403 . S
C862 C863 1.404 . S
C862 C865 1.539 . S
C863 C859 1.408 . S
C863 C862 1.404 . S
C863 H875 0.930 . S
C864 C860 1.524 . S
C864 H876 0.956 . S
C864 H877 0.961 . S
C864 H878 0.961 . S
C865 C862 1.539 . S
C865 H879 0.958 . S
C865 H880 0.961 . S
C865 H881 0.960 . S
H866 C850 0.931 . S
H867 C855 0.929 . S
H868 C856 0.960 . S
H869 C856 0.962 . S
H870 C856 0.960 . S
H871 C857 0.961 . S
H872 C857 0.961 . S
H873 C857 0.961 . S
H874 C858 0.931 . S
H875 C863 0.930 . S
H876 C864 0.956 . S
H877 C864 0.961 . S
H878 C864 0.961 . S
H879 C865 0.958 . S
H880 C865 0.961 . S
H881 C865 0.960 . S
C882 C883 1.391 . S
C882 C884 1.389 1_655 S
C882 H898 0.931 . S
C883 C882 1.391 . S
C883 C887 1.376 1_655 S
C884 C882 1.389 1_455 S
C884 C885 1.380 . S
C884 C888 1.524 1_455 S
C885 C884 1.380 . S
C885 C886 1.410 . S
C885 C893 1.503 . S
C886 C885 1.410 . S
C886 C887 1.392 . S
C886 C889 1.511 . S
C887 C883 1.376 1_455 S
C887 C886 1.392 . S
C887 H899 0.929 . S
C888 C884 1.524 1_655 S
C888 H900 0.960 1_655 S
C888 H901 0.962 . S
C888 H902 0.960 . S
C889 C886 1.511 . S
C889 H903 0.961 . S
C889 H904 0.961 . S
C889 H905 0.961 . S
C890 C891 1.370 . S
C890 C892 1.363 . S
C890 H906 0.931 1_455 S
C891 C890 1.370 . S
C891 C895 1.408 . S
C892 C890 1.363 . S
C892 C893 1.370 . S
C892 C896 1.524 1_455 S
C893 C885 1.503 . S
C893 C892 1.370 . S
C893 C894 1.403 . S
C894 C893 1.403 . S
C894 C895 1.404 . S
C894 C897 1.539 . S
C895 C891 1.408 . S
C895 C894 1.404 . S
C895 H907 0.930 . S
C896 C892 1.524 1_655 S
C896 H908 0.956 . S
C896 H909 0.961 . S
C896 H910 0.961 . S
C897 C894 1.539 . S
C897 H911 0.958 . S
C897 H912 0.961 . S
C897 H913 0.960 . S
H898 C882 0.931 . S
H899 C887 0.929 . S
H900 C888 0.960 1_455 S
H901 C888 0.962 . S
H902 C888 0.960 . S
H903 C889 0.961 . S
H904 C889 0.961 . S
H905 C889 0.961 . S
H906 C890 0.931 1_655 S
H907 C895 0.930 . S
H908 C896 0.956 . S
H909 C896 0.961 . S
H910 C896 0.961 . S
H911 C897 0.958 . S
H912 C897 0.961 . S
H913 C897 0.960 . S
C914 C915 1.391 . S
C914 C916 1.394 . S
C914 H930 0.931 . S
C915 C914 1.391 . S
C915 C919 1.376 . S
C916 C914 1.394 . S
C916 C917 1.369 . S
C916 C920 1.531 . S
C917 C916 1.369 . S
C917 C918 1.410 . S
C917 C925 1.503 . S
C918 C917 1.410 . S
C918 C919 1.392 . S
C918 C921 1.511 . S
C919 C915 1.376 . S
C919 C918 1.392 . S
C919 H931 0.929 . S
C920 C916 1.531 . S
C920 H932 0.960 . S
C920 H933 0.962 . S
C920 H934 0.960 . S
C921 C918 1.511 . S
C921 H935 0.961 . S
C921 H936 0.961 . S
C921 H937 0.961 . S
C922 C923 1.370 . S
C922 C924 1.363 . S
C922 H938 0.931 . S
C923 C922 1.370 . S
C923 C927 1.408 . S
C924 C922 1.363 . S
C924 C925 1.370 . S
C924 C928 1.524 . S
C925 C917 1.503 . S
C925 C924 1.370 . S
C925 C926 1.403 . S
C926 C925 1.403 . S
C926 C927 1.404 . S
C926 C929 1.539 . S
C927 C923 1.408 . S
C927 C926 1.404 . S
C927 H939 0.930 . S
C928 C924 1.524 . S
C928 H940 0.956 . S
C928 H941 0.961 . S
C928 H942 0.961 . S
C929 C926 1.539 . S
C929 H943 0.958 . S
C929 H944 0.961 . S
C929 H945 0.960 . S
H930 C914 0.931 . S
H931 C919 0.929 . S
H932 C920 0.960 . S
H933 C920 0.962 . S
H934 C920 0.960 . S
H935 C921 0.961 . S
H936 C921 0.961 . S
H937 C921 0.961 . S
H938 C922 0.931 . S
H939 C927 0.930 . S
H940 C928 0.956 . S
H941 C928 0.961 . S
H942 C928 0.961 . S
H943 C929 0.958 . S
H944 C929 0.961 . S
H945 C929 0.960 . S
C946 C947 1.391 . S
C946 C948 1.394 . S
C946 H962 0.931 . S
C947 C946 1.391 . S
C947 C951 1.376 . S
C948 C946 1.394 . S
C948 C949 1.369 . S
C948 C952 1.531 . S
C949 C948 1.369 . S
C949 C950 1.410 . S
C949 C957 1.503 . S
C950 C949 1.410 . S
C950 C951 1.392 . S
C950 C953 1.511 . S
C951 C947 1.376 . S
C951 C950 1.392 . S
C951 H963 0.929 . S
C952 C948 1.531 . S
C952 H964 0.960 . S
C952 H965 0.962 . S
C952 H966 0.960 . S
C953 C950 1.511 . S
C953 H967 0.961 1_545 S
C953 H968 0.961 1_545 S
C953 H969 0.961 . S
C954 C955 1.370 . S
C954 C956 1.363 . S
C954 H970 0.931 . S
C955 C954 1.370 . S
C955 C959 1.408 1_565 S
C956 C954 1.363 . S
C956 C957 1.370 1_565 S
C956 C960 1.524 . S
C957 C949 1.503 . S
C957 C956 1.370 1_545 S
C957 C958 1.403 . S
C958 C957 1.403 . S
C958 C959 1.404 . S
C958 C961 1.539 . S
C959 C955 1.408 1_545 S
C959 C958 1.404 . S
C959 H971 0.930 . S
C960 C956 1.524 . S
C960 H972 0.956 . S
C960 H973 0.961 . S
C960 H974 0.961 . S
C961 C958 1.539 . S
C961 H975 0.958 . S
C961 H976 0.961 . S
C961 H977 0.960 . S
H962 C946 0.931 . S
H963 C951 0.929 . S
H964 C952 0.960 . S
H965 C952 0.962 . S
H966 C952 0.960 . S
H967 C953 0.961 1_565 S
H968 C953 0.961 1_565 S
H969 C953 0.961 . S
H970 C954 0.931 . S
H971 C959 0.930 . S
H972 C960 0.956 . S
H973 C960 0.961 . S
H974 C960 0.961 . S
H975 C961 0.958 . S
H976 C961 0.961 . S
H977 C961 0.960 . S
C978 C979 1.391 . S
C978 C980 1.394 . S
C978 H994 0.931 . S
C979 C978 1.391 . S
C979 C983 1.376 . S
C980 C978 1.394 . S
C980 C981 1.369 . S
C980 C984 1.531 . S
C981 C980 1.369 . S
C981 C982 1.410 . S
C981 C989 1.503 . S
C982 C981 1.410 . S
C982 C983 1.392 . S
C982 C985 1.511 . S
C983 C979 1.376 . S
C983 C982 1.392 . S
C983 H995 0.929 . S
C984 C980 1.531 . S
C984 H996 0.960 . S
C984 H997 0.962 . S
C984 H998 0.960 . S
C985 C982 1.511 . S
C985 H999 0.961 . S
C985 H1000 0.961 . S
C985 H1001 0.961 . S
C986 C987 1.370 . S
C986 C988 1.363 . S
C986 H1002 0.931 . S
C987 C986 1.370 . S
C987 C991 1.408 . S
C988 C986 1.363 . S
C988 C989 1.370 . S
C988 C992 1.524 . S
C989 C981 1.503 . S
C989 C988 1.370 . S
C989 C990 1.403 . S
C990 C989 1.403 . S
C990 C991 1.404 . S
C990 C993 1.539 . S
C991 C987 1.408 . S
C991 C990 1.404 . S
C991 H1003 0.930 . S
C992 C988 1.524 . S
C992 H1004 0.956 . S
C992 H1005 0.961 . S
C992 H1006 0.961 . S
C993 C990 1.539 . S
C993 H1007 0.958 . S
C993 H1008 0.961 . S
C993 H1009 0.960 . S
H994 C978 0.931 . S
H995 C983 0.929 . S
H996 C984 0.960 . S
H997 C984 0.962 . S
H998 C984 0.960 . S
H999 C985 0.961 . S
H1000 C985 0.961 . S
H1001 C985 0.961 . S
H1002 C986 0.931 . S
H1003 C991 0.930 . S
H1004 C992 0.956 . S
H1005 C992 0.961 . S
H1006 C992 0.961 . S
H1007 C993 0.958 . S
H1008 C993 0.961 . S
H1009 C993 0.960 . S
C1010 C1011 1.391 . S
C1010 C1012 1.394 . S
C1010 H1026 0.931 . S
C1011 C1010 1.391 . S
C1011 C1015 1.376 . S
C1012 C1010 1.394 . S
C1012 C1013 1.369 . S
C1012 C1016 1.531 . S
C1013 C1012 1.369 . S
C1013 C1014 1.410 . S
C1013 C1021 1.503 . S
C1014 C1013 1.410 . S
C1014 C1015 1.392 . S
C1014 C1017 1.511 . S
C1015 C1011 1.376 . S
C1015 C1014 1.392 . S
C1015 H1027 0.929 . S
C1016 C1012 1.531 . S
C1016 H1028 0.960 . S
C1016 H1029 0.962 . S
C1016 H1030 0.960 . S
C1017 C1014 1.511 . S
C1017 H1031 0.961 . S
C1017 H1032 0.961 . S
C1017 H1033 0.961 . S
C1018 C1019 1.370 . S
C1018 C1020 1.363 . S
C1018 H1034 0.931 . S
C1019 C1018 1.370 . S
C1019 C1023 1.408 . S
C1020 C1018 1.363 . S
C1020 C1021 1.370 . S
C1020 C1024 1.524 . S
C1021 C1013 1.503 . S
C1021 C1020 1.370 . S
C1021 C1022 1.403 . S
C1022 C1021 1.403 . S
C1022 C1023 1.404 . S
C1022 C1025 1.539 . S
C1023 C1019 1.408 . S
C1023 C1022 1.404 . S
C1023 H1035 0.930 . S
C1024 C1020 1.524 . S
C1024 H1036 0.956 . S
C1024 H1037 0.961 . S
C1024 H1038 0.961 . S
C1025 C1022 1.539 . S
C1025 H1039 0.958 . S
C1025 H1040 0.961 . S
C1025 H1041 0.960 . S
H1026 C1010 0.931 . S
H1027 C1015 0.929 . S
H1028 C1016 0.960 . S
H1029 C1016 0.962 . S
H1030 C1016 0.960 . S
H1031 C1017 0.961 . S
H1032 C1017 0.961 . S
H1033 C1017 0.961 . S
H1034 C1018 0.931 . S
H1035 C1023 0.930 . S
H1036 C1024 0.956 . S
H1037 C1024 0.961 . S
H1038 C1024 0.961 . S
H1039 C1025 0.958 . S
H1040 C1025 0.961 . S
H1041 C1025 0.960 . S
C1042 C1043 1.391 . S
C1042 C1044 1.394 . S
C1042 H1058 0.931 . S
C1043 C1042 1.391 . S
C1043 C1047 1.376 . S
C1044 C1042 1.394 . S
C1044 C1045 1.369 . S
C1044 C1048 1.531 . S
C1045 C1044 1.369 . S
C1045 C1046 1.410 . S
C1045 C1053 1.503 . S
C1046 C1045 1.410 . S
C1046 C1047 1.392 . S
C1046 C1049 1.511 . S
C1047 C1043 1.376 . S
C1047 C1046 1.392 . S
C1047 H1059 0.929 . S
C1048 C1044 1.531 . S
C1048 H1060 0.960 . S
C1048 H1061 0.962 . S
C1048 H1062 0.960 . S
C1049 C1046 1.511 . S
C1049 H1063 0.961 . S
C1049 H1064 0.961 . S
C1049 H1065 0.961 . S
C1050 C1051 1.370 . S
C1050 C1052 1.363 . S
C1050 H1066 0.931 . S
C1051 C1050 1.370 . S
C1051 C1055 1.408 . S
C1052 C1050 1.363 . S
C1052 C1053 1.370 . S
C1052 C1056 1.524 . S
C1053 C1045 1.503 . S
C1053 C1052 1.370 . S
C1053 C1054 1.403 . S
C1054 C1053 1.403 . S
C1054 C1055 1.404 . S
C1054 C1057 1.539 . S
C1055 C1051 1.408 . S
C1055 C1054 1.404 . S
C1055 H1067 0.930 1_556 S
C1056 C1052 1.524 . S
C1056 H1068 0.956 . S
C1056 H1069 0.961 . S
C1056 H1070 0.961 . S
C1057 C1054 1.539 . S
C1057 H1071 0.958 . S
C1057 H1072 0.961 . S
C1057 H1073 0.960 . S
H1058 C1042 0.931 . S
H1059 C1047 0.929 . S
H1060 C1048 0.960 . S
H1061 C1048 0.962 . S
H1062 C1048 0.960 . S
H1063 C1049 0.961 . S
H1064 C1049 0.961 . S
H1065 C1049 0.961 . S
H1066 C1050 0.931 . S
H1067 C1055 0.930 1_554 S
H1068 C1056 0.956 . S
H1069 C1056 0.961 . S
H1070 C1056 0.961 . S
H1071 C1057 0.958 . S
H1072 C1057 0.961 . S
H1073 C1057 0.960 . S
C1074 C1075 1.391 . S
C1074 C1076 1.394 . S
C1074 H1090 0.931 . S
C1075 C1074 1.391 . S
C1075 C1079 1.376 . S
C1076 C1074 1.394 . S
C1076 C1077 1.369 . S
C1076 C1080 1.531 . S
C1077 C1076 1.369 . S
C1077 C1078 1.410 . S
C1077 C1085 1.503 . S
C1078 C1077 1.410 . S
C1078 C1079 1.392 . S
C1078 C1081 1.511 . S
C1079 C1075 1.376 . S
C1079 C1078 1.392 . S
C1079 H1091 0.929 . S
C1080 C1076 1.531 . S
C1080 H1092 0.960 . S
C1080 H1093 0.962 . S
C1080 H1094 0.960 . S
C1081 C1078 1.511 . S
C1081 H1095 0.961 . S
C1081 H1096 0.961 . S
C1081 H1097 0.961 . S
C1082 C1083 1.370 . S
C1082 C1084 1.363 . S
C1082 H1098 0.931 . S
C1083 C1082 1.370 . S
C1083 C1087 1.408 . S
C1084 C1082 1.363 . S
C1084 C1085 1.370 . S
C1084 C1088 1.524 . S
C1085 C1077 1.503 . S
C1085 C1084 1.370 . S
C1085 C1086 1.403 . S
C1086 C1085 1.403 . S
C1086 C1087 1.404 . S
C1086 C1089 1.539 . S
C1087 C1083 1.408 . S
C1087 C1086 1.404 . S
C1087 H1099 0.930 1_554 S
C1088 C1084 1.524 . S
C1088 H1100 0.956 . S
C1088 H1101 0.961 . S
C1088 H1102 0.961 . S
C1089 C1086 1.539 . S
C1089 H1103 0.958 . S
C1089 H1104 0.961 . S
C1089 H1105 0.960 . S
H1090 C1074 0.931 . S
H1091 C1079 0.929 . S
H1092 C1080 0.960 . S
H1093 C1080 0.962 . S
H1094 C1080 0.960 . S
H1095 C1081 0.961 . S
H1096 C1081 0.961 . S
H1097 C1081 0.961 . S
H1098 C1082 0.931 . S
H1099 C1087 0.930 1_556 S
H1100 C1088 0.956 . S
H1101 C1088 0.961 . S
H1102 C1088 0.961 . S
H1103 C1089 0.958 . S
H1104 C1089 0.961 . S
H1105 C1089 0.960 . S
C1106 C1107 1.391 . S
C1106 C1108 1.394 . S
C1106 H1122 0.931 . S
C1107 C1106 1.391 . S
C1107 C1111 1.376 . S
C1108 C1106 1.394 . S
C1108 C1109 1.369 . S
C1108 C1112 1.531 . S
C1109 C1108 1.369 . S
C1109 C1110 1.410 . S
C1109 C1117 1.503 . S
C1110 C1109 1.410 . S
C1110 C1111 1.392 . S
C1110 C1113 1.511 . S
C1111 C1107 1.376 . S
C1111 C1110 1.392 . S
C1111 H1123 0.929 . S
C1112 C1108 1.531 . S
C1112 H1124 0.960 . S
C1112 H1125 0.962 . S
C1112 H1126 0.960 . S
C1113 C1110 1.511 . S
C1113 H1127 0.961 . S
C1113 H1128 0.961 . S
C1113 H1129 0.961 . S
C1114 C1115 1.370 . S
C1114 C1116 1.363 . S
C1114 H1130 0.931 . S
C1115 C1114 1.370 . S
C1115 C1119 1.408 . S
C1116 C1114 1.363 . S
C1116 C1117 1.370 . S
C1116 C1120 1.524 . S
C1117 C1109 1.503 . S
C1117 C1116 1.370 . S
C1117 C1118 1.403 . S
C1118 C1117 1.403 . S
C1118 C1119 1.404 . S
C1118 C1121 1.539 . S
C1119 C1115 1.408 . S
C1119 C1118 1.404 . S
C1119 H1131 0.930 . S
C1120 C1116 1.524 . S
C1120 H1132 0.956 . S
C1120 H1133 0.961 . S
C1120 H1134 0.961 . S
C1121 C1118 1.539 . S
C1121 H1135 0.958 . S
C1121 H1136 0.961 . S
C1121 H1137 0.960 . S
H1122 C1106 0.931 . S
H1123 C1111 0.929 . S
H1124 C1112 0.960 . S
H1125 C1112 0.962 . S
H1126 C1112 0.960 . S
H1127 C1113 0.961 . S
H1128 C1113 0.961 . S
H1129 C1113 0.961 . S
H1130 C1114 0.931 . S
H1131 C1119 0.930 . S
H1132 C1120 0.956 . S
H1133 C1120 0.961 . S
H1134 C1120 0.961 . S
H1135 C1121 0.958 . S
H1136 C1121 0.961 . S
H1137 C1121 0.960 . S
C1138 C1139 1.391 . S
C1138 C1140 1.394 . S
C1138 H1154 0.931 . S
C1139 C1138 1.391 . S
C1139 C1143 1.376 . S
C1140 C1138 1.394 . S
C1140 C1141 1.369 . S
C1140 C1144 1.531 . S
C1141 C1140 1.369 . S
C1141 C1142 1.410 . S
C1141 C1149 1.503 . S
C1142 C1141 1.410 . S
C1142 C1143 1.392 . S
C1142 C1145 1.511 . S
C1143 C1139 1.376 . S
C1143 C1142 1.392 . S
C1143 H1155 0.929 . S
C1144 C1140 1.531 . S
C1144 H1156 0.960 . S
C1144 H1157 0.962 . S
C1144 H1158 0.960 . S
C1145 C1142 1.511 . S
C1145 H1159 0.961 . S
C1145 H1160 0.961 . S
C1145 H1161 0.961 . S
C1146 C1147 1.370 . S
C1146 C1148 1.363 . S
C1146 H1162 0.931 . S
C1147 C1146 1.370 . S
C1147 C1151 1.408 . S
C1148 C1146 1.363 . S
C1148 C1149 1.370 . S
C1148 C1152 1.524 . S
C1149 C1141 1.503 . S
C1149 C1148 1.370 . S
C1149 C1150 1.403 . S
C1150 C1149 1.403 . S
C1150 C1151 1.404 . S
C1150 C1153 1.539 . S
C1151 C1147 1.408 . S
C1151 C1150 1.404 . S
C1151 H1163 0.930 . S
C1152 C1148 1.524 . S
C1152 H1164 0.956 . S
C1152 H1165 0.961 . S
C1152 H1166 0.961 . S
C1153 C1150 1.539 . S
C1153 H1167 0.958 . S
C1153 H1168 0.961 . S
C1153 H1169 0.960 . S
H1154 C1138 0.931 . S
H1155 C1143 0.929 . S
H1156 C1144 0.960 . S
H1157 C1144 0.962 . S
H1158 C1144 0.960 . S
H1159 C1145 0.961 . S
H1160 C1145 0.961 . S
H1161 C1145 0.961 . S
H1162 C1146 0.931 . S
H1163 C1151 0.930 . S
H1164 C1152 0.956 . S
H1165 C1152 0.961 . S
H1166 C1152 0.961 . S
H1167 C1153 0.958 . S
H1168 C1153 0.961 . S
H1169 C1153 0.960 . S
C307 C29 1.715 . S
C315 C267 1.757 . S
C339 C51 1.748 . S
C347 C289 1.715 . S
C371 C97 1.712 . S
C379 C221 1.738 . S
C403 C153 1.683 . S
C411 C85 1.671 . S
C435 C187 1.715 . S
C443 C17 1.700 . S
C467 C63 1.753 . S
C475 C119 1.723 . S
C499 C255 1.767 . S
C507 C199 1.731 . S
C531 C301 1.732 . S
C539 C131 1.774 . S
C563 C165 1.760 . S
C571 C233 1.802 . S
C595 C68 1.229 . S
C603 C8 1.263 . S
C627 C34 1.241 . S
C635 C0 1.272 . S
C659 C42 1.293 . S
C667 C76 1.269 . S
C691 C102 1.290 . S
C699 C178 1.270 . S
C723 C110 1.291 . S
C731 C136 1.277 . S
C755 C144 1.250 . S
C763 C170 1.275 . S
C787 C272 1.258 . S
C795 C212 1.293 . S
C819 C238 1.244 . S
C827 C204 1.269 . S
C851 C280 1.295 . S
C859 C246 1.272 . S
C883 C13 1.049 . S
C891 C4 1.092 . S
C915 C38 1.062 . S
C923 C47 1.051 . S
C947 C81 1.077 . S
C955 C72 1.034 . S
C979 C115 1.074 . S
C987 C106 1.080 1_556 S
C1011 C149 1.042 . S
C1019 C140 1.077 1_556 S
C1043 C183 1.088 . S
C1051 C174 1.045 1_556 S
C1075 C217 1.110 . S
C1083 C208 1.074 1_554 S
C1107 C251 1.040 1_554 S
C1115 C242 1.090 . S
C1139 C285 1.046 . S
C1147 C276 1.055 1_554 S
