# Generated by pormake.
# Topology vbm, (6)-cn, num edge types: 1
# Building blocks:
#     Node 0, Type 0, BuildingBlock: CUKXOW_clean_sbu_0, # of connection points: 6
#     Node 1, Type 0, BuildingBlock: CUKXOW_clean_sbu_0, # of connection points: 6
#     Node 2, Type 0, BuildingBlock: CUKXOW_clean_sbu_0, # of connection points: 6
#     Node 3, Type 0, BuildingBlock: CUKXOW_clean_sbu_0, # of connection points: 6
#     Node 4, Type 0, BuildingBlock: CUKXOW_clean_sbu_0, # of connection points: 6
#     Node 5, Type 0, BuildingBlock: CUKXOW_clean_sbu_0, # of connection points: 6
#     Node 6, Type 0, BuildingBlock: CUKXOW_clean_sbu_0, # of connection points: 6
#     Node 7, Type 0, BuildingBlock: CUKXOW_clean_sbu_0, # of connection points: 6
#     Node 8, Type 0, BuildingBlock: CUKXOW_clean_sbu_0, # of connection points: 6
#     Node 9, Type 0, BuildingBlock: CUKXOW_clean_sbu_0, # of connection points: 6
#     Node 10, Type 0, BuildingBlock: CUKXOW_clean_sbu_0, # of connection points: 6
#     Node 11, Type 0, BuildingBlock: CUKXOW_clean_sbu_0, # of connection points: 6
#     Node 12, Type 0, BuildingBlock: CUKXOW_clean_sbu_0, # of connection points: 6
#     Node 13, Type 0, BuildingBlock: CUKXOW_clean_sbu_0, # of connection points: 6
#     Node 14, Type 0, BuildingBlock: CUKXOW_clean_sbu_0, # of connection points: 6
#     Node 15, Type 0, BuildingBlock: CUKXOW_clean_sbu_0, # of connection points: 6
#     Edge 16, Type (0, 0), BuildingBlock: XIVTED_clean_linker_0, # of connection points: 2
#     Edge 17, Type (0, 0), BuildingBlock: XIVTED_clean_linker_0, # of connection points: 2
#     Edge 18, Type (0, 0), BuildingBlock: XIVTED_clean_linker_0, # of connection points: 2
#     Edge 19, Type (0, 0), BuildingBlock: XIVTED_clean_linker_0, # of connection points: 2
#     Edge 20, Type (0, 0), BuildingBlock: XIVTED_clean_linker_0, # of connection points: 2
#     Edge 21, Type (0, 0), BuildingBlock: XIVTED_clean_linker_0, # of connection points: 2
#     Edge 22, Type (0, 0), BuildingBlock: XIVTED_clean_linker_0, # of connection points: 2
#     Edge 23, Type (0, 0), BuildingBlock: XIVTED_clean_linker_0, # of connection points: 2
#     Edge 24, Type (0, 0), BuildingBlock: XIVTED_clean_linker_0, # of connection points: 2
#     Edge 25, Type (0, 0), BuildingBlock: XIVTED_clean_linker_0, # of connection points: 2
#     Edge 26, Type (0, 0), BuildingBlock: XIVTED_clean_linker_0, # of connection points: 2
#     Edge 27, Type (0, 0), BuildingBlock: XIVTED_clean_linker_0, # of connection points: 2
#     Edge 28, Type (0, 0), BuildingBlock: XIVTED_clean_linker_0, # of connection points: 2
#     Edge 29, Type (0, 0), BuildingBlock: XIVTED_clean_linker_0, # of connection points: 2
#     Edge 30, Type (0, 0), BuildingBlock: XIVTED_clean_linker_0, # of connection points: 2
#     Edge 31, Type (0, 0), BuildingBlock: XIVTED_clean_linker_0, # of connection points: 2
#     Edge 32, Type (0, 0), BuildingBlock: XIVTED_clean_linker_0, # of connection points: 2
#     Edge 33, Type (0, 0), BuildingBlock: XIVTED_clean_linker_0, # of connection points: 2
#     Edge 34, Type (0, 0), BuildingBlock: XIVTED_clean_linker_0, # of connection points: 2
#     Edge 35, Type (0, 0), BuildingBlock: XIVTED_clean_linker_0, # of connection points: 2
#     Edge 36, Type (0, 0), BuildingBlock: XIVTED_clean_linker_0, # of connection points: 2
#     Edge 37, Type (0, 0), BuildingBlock: XIVTED_clean_linker_0, # of connection points: 2
#     Edge 38, Type (0, 0), BuildingBlock: XIVTED_clean_linker_0, # of connection points: 2
#     Edge 39, Type (0, 0), BuildingBlock: XIVTED_clean_linker_0, # of connection points: 2
#     Edge 40, Type (0, 0), BuildingBlock: XIVTED_clean_linker_0, # of connection points: 2
#     Edge 41, Type (0, 0), BuildingBlock: XIVTED_clean_linker_0, # of connection points: 2
#     Edge 42, Type (0, 0), BuildingBlock: XIVTED_clean_linker_0, # of connection points: 2
#     Edge 43, Type (0, 0), BuildingBlock: XIVTED_clean_linker_0, # of connection points: 2
#     Edge 44, Type (0, 0), BuildingBlock: XIVTED_clean_linker_0, # of connection points: 2
#     Edge 45, Type (0, 0), BuildingBlock: XIVTED_clean_linker_0, # of connection points: 2
#     Edge 46, Type (0, 0), BuildingBlock: XIVTED_clean_linker_0, # of connection points: 2
#     Edge 47, Type (0, 0), BuildingBlock: XIVTED_clean_linker_0, # of connection points: 2
#     Edge 48, Type (0, 0), BuildingBlock: XIVTED_clean_linker_0, # of connection points: 2
#     Edge 49, Type (0, 0), BuildingBlock: XIVTED_clean_linker_0, # of connection points: 2
#     Edge 50, Type (0, 0), BuildingBlock: XIVTED_clean_linker_0, # of connection points: 2
#     Edge 51, Type (0, 0), BuildingBlock: XIVTED_clean_linker_0, # of connection points: 2
#     Edge 52, Type (0, 0), BuildingBlock: XIVTED_clean_linker_0, # of connection points: 2
#     Edge 53, Type (0, 0), BuildingBlock: XIVTED_clean_linker_0, # of connection points: 2
#     Edge 54, Type (0, 0), BuildingBlock: XIVTED_clean_linker_0, # of connection points: 2
#     Edge 55, Type (0, 0), BuildingBlock: XIVTED_clean_linker_0, # of connection points: 2
#     Edge 56, Type (0, 0), BuildingBlock: XIVTED_clean_linker_0, # of connection points: 2
#     Edge 57, Type (0, 0), BuildingBlock: XIVTED_clean_linker_0, # of connection points: 2
#     Edge 58, Type (0, 0), BuildingBlock: XIVTED_clean_linker_0, # of connection points: 2
#     Edge 59, Type (0, 0), BuildingBlock: XIVTED_clean_linker_0, # of connection points: 2
#     Edge 60, Type (0, 0), BuildingBlock: XIVTED_clean_linker_0, # of connection points: 2
#     Edge 61, Type (0, 0), BuildingBlock: XIVTED_clean_linker_0, # of connection points: 2
#     Edge 62, Type (0, 0), BuildingBlock: XIVTED_clean_linker_0, # of connection points: 2
#     Edge 63, Type (0, 0), BuildingBlock: XIVTED_clean_linker_0, # of connection points: 2
# Relax obj value: 0.128
# Max RMSD: 0.179
# Mean RMSD: 0.179
data_MOF--net-vbm--node1-CUKXOW_clean_sbu_0--edge1-XIVTED_clean_linker_0
_symmetry_space_group_name_H-M    P1
_symmetry_Int_Tables_number       1
_symmetry_cell_setting            triclinic
loop_
_symmetry_equiv_pos_as_xyz
'x, y, z'
_cell_length_a     72.012935
_cell_length_b     14.480476
_cell_length_c     61.163592
_cell_angle_alpha  90.069779
_cell_angle_beta   89.941279
_cell_angle_gamma 89.979201
loop_
_atom_site_label
_atom_site_type_symbol
_atom_site_fract_x
_atom_site_fract_y
_atom_site_fract_z
_atom_type_partial_charge
Tb0 Tb 0.09657 0.13262 0.11998 0.0
C1 C 0.11707 0.17109 0.07563 0.0
Tb2 Tb 0.14062 0.17065 0.1193 0.0
O3 O 0.08821 0.27975 0.1224 0.0
O4 O 0.1154 0.24283 0.12236 0.0
O5 O 0.10323 0.12637 0.08538 0.0
C6 C 0.17436 0.24648 0.11894 0.0
O7 O 0.13133 0.20769 0.08646 0.0
C8 C 0.13253 0.99194 0.11576 0.0
C9 C 0.1205 0.11398 0.16313 0.0
O10 O 0.16556 0.2154 0.10196 0.0
O11 O 0.16395 0.23685 0.13617 0.0
O12 O 0.14932 1.0246 0.1161 0.0
O13 O 0.12189 0.06041 0.11699 0.0
O14 O 0.13459 0.1604 0.15425 0.0
O15 O 0.1058 0.08534 0.15185 0.0
C16 C 0.06198 0.06735 0.12102 0.0
O17 O 0.0716 0.09299 0.1379 0.0
O18 O 0.07211 0.07547 0.10351 0.0
C19 C 0.10498 0.31199 0.12297 0.0
Tb20 Tb 0.889 0.95945 0.12161 0.0
C21 C 0.8689 0.92312 0.07667 0.0
Tb22 Tb 0.84497 0.91817 0.12015 0.0
O23 O 0.89782 0.81304 0.12366 0.0
O24 O 0.87049 0.84726 0.12201 0.0
O25 O 0.88281 0.96574 0.08684 0.0
C26 C 0.81076 0.84989 0.11747 0.0
O27 O 0.85437 0.88671 0.08704 0.0
C28 C 0.85292 0.09829 0.11947 0.0
C29 C 0.86416 0.97072 0.16447 0.0
O30 O 0.81778 0.91266 0.10483 0.0
O31 O 0.82322 0.82319 0.13156 0.0
O32 O 0.83622 0.0649 0.11999 0.0
O33 O 0.86356 1.02968 0.11936 0.0
O34 O 0.85045 0.92313 0.15516 0.0
O35 O 0.87885 1.00313 0.15367 0.0
C36 C 0.92335 1.02748 0.12267 0.0
O37 O 0.91452 0.99208 0.13918 0.0
O38 O 0.91253 1.02761 0.10564 0.0
C39 C 0.88119 0.7791 0.12313 0.0
Tb40 Tb 0.0947 0.96017 0.36675 0.0
C41 C 0.11517 0.9314 0.41206 0.0
Tb42 Tb 0.13787 0.93102 0.36839 0.0
O43 O 0.08634 0.81366 0.3657 0.0
O44 O 0.11369 0.85057 0.36692 0.0
O45 O 0.10094 0.96993 0.40162 0.0
C46 C 0.1734 0.88 0.36513 0.0
O47 O 0.13008 0.89874 0.40184 0.0
C48 C 0.12587 0.09981 0.37672 0.0
C49 C 0.11787 0.96133 0.32291 0.0
O50 O 0.16023 0.83048 0.37372 0.0
O51 O 0.16649 0.95727 0.35818 0.0
O52 O 0.14112 0.06518 0.38449 0.0
O53 O 0.11899 1.04258 0.36349 0.0
O54 O 0.13246 0.92545 0.33319 0.0
O55 O 0.10275 0.99057 0.33329 0.0
C56 C 0.06002 1.02503 0.36534 0.0
O57 O 0.06859 0.98338 0.3495 0.0
O58 O 0.07116 1.03239 0.38198 0.0
C59 C 0.10312 0.78177 0.3663 0.0
Tb60 Tb 0.88597 0.13776 0.3676 0.0
C61 C 0.86675 0.17163 0.41226 0.0
Tb62 Tb 0.8447 0.17032 0.36762 0.0
O63 O 0.8913 0.27819 0.37891 0.0
O64 O 0.86825 0.25132 0.35954 0.0
O65 O 0.8806 0.12826 0.40234 0.0
C66 C 0.80933 0.22519 0.37131 0.0
O67 O 0.85246 0.20625 0.40125 0.0
C68 C 0.85421 0.9955 0.36467 0.0
C69 C 0.86378 0.12547 0.32346 0.0
O70 O 0.81734 0.16274 0.38314 0.0
O71 O 0.82134 0.25841 0.35757 0.0
O72 O 0.83908 1.02968 0.35662 0.0
O73 O 0.86234 0.05692 0.3757 0.0
O74 O 0.85014 0.17317 0.33266 0.0
O75 O 0.87793 0.09239 0.33488 0.0
C76 C 0.92168 0.0895 0.36345 0.0
O77 O 0.91273 0.14519 0.35068 0.0
O78 O 0.9104 0.0589 0.37834 0.0
C79 C 0.87625 0.31242 0.37078 0.0
Tb80 Tb 0.84582 0.92103 0.86734 0.0
C81 C 0.86544 0.96002 0.82335 0.0
Tb82 Tb 0.88722 0.95116 0.86794 0.0
O83 O 0.84112 0.06008 0.85503 0.0
O84 O 0.86369 1.03369 0.87553 0.0
O85 O 0.85163 0.91333 0.83249 0.0
C86 C 0.92312 0.99571 0.86363 0.0
O87 O 0.87949 0.99356 0.83489 0.0
C88 C 0.87676 0.77794 0.87149 0.0
C89 C 0.86734 0.9266 0.91268 0.0
O90 O 0.91428 0.93508 0.85205 0.0
O91 O 0.91163 1.03317 0.87741 0.0
O92 O 0.89163 0.81166 0.88023 0.0
O93 O 0.86932 0.8389 0.85972 0.0
O94 O 0.88188 0.96343 0.90265 0.0
O95 O 0.85259 0.89607 0.90181 0.0
C96 C 0.81023 0.86853 0.87059 0.0
O97 O 0.81672 0.9497 0.87502 0.0
O98 O 0.82386 0.81554 0.8645 0.0
C99 C 0.85591 0.09442 0.86391 0.0
Tb100 Tb 0.14023 0.16686 0.86719 0.0
C101 C 0.11927 0.11791 0.82388 0.0
Tb102 Tb 0.09608 0.12804 0.86704 0.0
O103 O 0.14875 1.0208 0.87156 0.0
O104 O 0.12144 0.05681 0.87004 0.0
O105 O 0.13214 0.17219 0.83276 0.0
C106 C 0.06159 0.06015 0.86719 0.0
O107 O 0.10558 0.0799 0.83531 0.0
C108 C 0.10443 0.30743 0.86322 0.0
C109 C 0.11766 0.15996 0.91163 0.0
O110 O 0.07135 0.07833 0.84984 0.0
O111 O 0.07151 0.07749 0.88446 0.0
O112 O 0.08767 0.27496 0.86402 0.0
O113 O 0.11488 0.2383 0.86396 0.0
O114 O 0.10319 0.12135 0.9016 0.0
O115 O 0.13261 0.19179 0.90121 0.0
C116 C 0.17448 0.23719 0.86462 0.0
O117 O 0.16243 0.25647 0.87983 0.0
O118 O 0.16702 0.18057 0.85072 0.0
C119 C 0.13196 0.98817 0.87166 0.0
Tb120 Tb 0.84462 0.17077 0.62128 0.0
C121 C 0.86413 0.1247 0.66501 0.0
Tb122 Tb 0.88581 0.13853 0.62049 0.0
O123 O 0.83907 1.03047 0.63233 0.0
O124 O 0.86215 0.05722 0.61273 0.0
O125 O 0.85034 0.17234 0.65619 0.0
C126 C 0.9216 0.09264 0.62453 0.0
O127 O 0.87819 0.09251 0.65326 0.0
C128 C 0.8759 0.31296 0.61752 0.0
C129 C 0.86615 0.17185 0.57617 0.0
O130 O 0.91272 0.15118 0.63669 0.0
O131 O 0.9102 0.05795 0.61028 0.0
O132 O 0.89075 0.27872 0.60882 0.0
O133 O 0.86821 0.25184 0.62902 0.0
O134 O 0.88019 0.12906 0.58581 0.0
O135 O 0.85195 0.20597 0.58748 0.0
C136 C 0.8093 0.22616 0.61815 0.0
O137 O 0.81698 0.16132 0.60669 0.0
O138 O 0.82161 0.2614 0.63122 0.0
C139 C 0.85405 0.99607 0.62389 0.0
Tb140 Tb 0.13845 0.92931 0.62091 0.0
C141 C 0.11717 0.97587 0.66417 0.0
Tb142 Tb 0.09439 0.9684 0.62066 0.0
O143 O 0.14707 0.0754 0.6169 0.0
O144 O 0.11974 1.03961 0.61808 0.0
O145 O 0.13009 0.92214 0.6552 0.0
C146 C 0.06001 1.03677 0.62011 0.0
O147 O 0.10351 1.01423 0.65277 0.0
C148 C 0.1026 0.78889 0.62445 0.0
C149 C 0.11654 0.93972 0.57621 0.0
O150 O 0.06988 1.02253 0.63754 0.0
O151 O 0.06974 1.01522 0.60296 0.0
O152 O 0.08587 0.82162 0.62358 0.0
O153 O 0.11309 0.85782 0.62373 0.0
O154 O 0.10196 0.97789 0.5862 0.0
O155 O 0.13131 0.90673 0.58673 0.0
C156 C 0.17252 0.85834 0.62397 0.0
O157 O 0.16052 0.83766 0.60884 0.0
O158 O 0.16513 0.91692 0.63747 0.0
C159 C 0.13029 0.10818 0.61668 0.0
Tb160 Tb 0.59683 0.61623 0.1204 0.0
C161 C 0.61984 0.63723 0.07692 0.0
Tb162 Tb 0.63982 0.64832 0.12284 0.0
O163 O 0.58799 0.76199 0.12238 0.0
O164 O 0.6154 0.72656 0.12342 0.0
O165 O 0.60503 0.60023 0.08643 0.0
C166 C 0.67551 0.69562 0.12028 0.0
O167 O 0.63427 0.66941 0.08811 0.0
C168 C 0.62841 0.47695 0.12778 0.0
C169 C 0.61732 0.62845 0.1662 0.0
O170 O 0.66858 0.61661 0.1146 0.0
O171 O 0.66226 0.7495 0.12716 0.0
O172 O 0.64325 0.51082 0.13666 0.0
O173 O 0.62137 0.5368 0.11528 0.0
O174 O 0.63215 0.66659 0.15689 0.0
O175 O 0.60299 0.59537 0.15492 0.0
C176 C 0.56217 0.55265 0.11734 0.0
O177 O 0.57401 0.52903 0.13241 0.0
O178 O 0.57008 0.60945 0.10388 0.0
C179 C 0.60467 0.79475 0.12368 0.0
Tb180 Tb 0.38814 0.43457 0.12102 0.0
C181 C 0.36813 0.40906 0.0767 0.0
Tb182 Tb 0.34693 0.40578 0.12202 0.0
O183 O 0.39244 0.29674 0.10781 0.0
O184 O 0.37027 0.32135 0.12895 0.0
O185 O 0.38244 0.44883 0.08651 0.0
C186 C 0.3115 0.35297 0.11858 0.0
O187 O 0.35388 0.375 0.08787 0.0
C188 C 0.35692 0.57922 0.1258 0.0
C189 C 0.3667 0.44659 0.16603 0.0
O190 O 0.31931 0.41872 0.10758 0.0
O191 O 0.32374 0.31535 0.13136 0.0
O192 O 0.34187 0.54498 0.13406 0.0
O193 O 0.3647 0.51879 0.11407 0.0
O194 O 0.35221 0.40521 0.15698 0.0
O195 O 0.38129 0.47362 0.15446 0.0
C196 C 0.4241 0.47745 0.12491 0.0
O197 O 0.41561 0.41176 0.1352 0.0
O198 O 0.41224 0.52075 0.11264 0.0
C199 C 0.37776 0.2618 0.11671 0.0
Tb200 Tb 0.59441 0.45683 0.36941 0.0
C201 C 0.61611 0.4254 0.41293 0.0
Tb202 Tb 0.63856 0.41854 0.3689 0.0
O203 O 0.58601 0.31036 0.3655 0.0
O204 O 0.61326 0.34654 0.36688 0.0
O205 O 0.60285 0.47384 0.40316 0.0
C206 C 0.67239 0.34319 0.36918 0.0
O207 O 0.62969 0.38341 0.40199 0.0
C208 C 0.63041 0.59748 0.37194 0.0
C209 C 0.61681 0.46375 0.32495 0.0
O210 O 0.6639 0.37791 0.386 0.0
O211 O 0.66163 0.34888 0.35217 0.0
O212 O 0.64721 0.56501 0.37088 0.0
O213 O 0.61984 0.52861 0.37171 0.0
O214 O 0.6318 0.4257 0.33407 0.0
O215 O 0.60166 0.4885 0.33593 0.0
C216 C 0.56002 0.52381 0.3723 0.0
O217 O 0.5715 0.53986 0.35631 0.0
O218 O 0.56813 0.47238 0.38679 0.0
C219 C 0.60279 0.27783 0.36536 0.0
Tb220 Tb 0.38649 0.65881 0.36782 0.0
C221 C 0.36591 0.67892 0.412 0.0
Tb222 Tb 0.34521 0.687 0.3662 0.0
O223 O 0.39039 0.79622 0.38145 0.0
O224 O 0.36862 0.77166 0.35981 0.0
O225 O 0.38055 0.64237 0.40214 0.0
C226 C 0.30979 0.74154 0.36889 0.0
O227 O 0.35145 0.71131 0.40091 0.0
C228 C 0.35555 0.51424 0.36202 0.0
C229 C 0.36577 0.65001 0.32237 0.0
O230 O 0.31651 0.66544 0.37668 0.0
O231 O 0.3231 0.78823 0.35976 0.0
O232 O 0.34071 0.54872 0.35328 0.0
O233 O 0.363 0.57424 0.37416 0.0
O234 O 0.35097 0.6896 0.33129 0.0
O235 O 0.38021 0.62264 0.33411 0.0
C236 C 0.42243 0.61465 0.36447 0.0
O237 O 0.41427 0.68215 0.35448 0.0
O238 O 0.41027 0.57048 0.37616 0.0
C239 C 0.3758 0.83108 0.3723 0.0
Tb240 Tb 0.34655 0.42417 0.86784 0.0
C241 C 0.36634 0.46656 0.82386 0.0
Tb242 Tb 0.38786 0.4557 0.86869 0.0
O243 O 0.34119 0.5634 0.85606 0.0
O244 O 0.36418 0.53819 0.87587 0.0
O245 O 0.352 0.42353 0.83288 0.0
C246 C 0.42353 0.50582 0.86486 0.0
O247 O 0.38066 0.49629 0.8355 0.0
C248 C 0.37797 0.28156 0.87231 0.0
C249 C 0.36789 0.4268 0.91298 0.0
O250 O 0.41468 0.45117 0.85174 0.0
O251 O 0.41222 0.53378 0.88002 0.0
O252 O 0.39293 0.31623 0.88061 0.0
O253 O 0.37022 0.34194 0.86061 0.0
O254 O 0.38197 0.46863 0.9032 0.0
O255 O 0.35366 0.39245 0.90185 0.0
C256 C 0.31113 0.36941 0.87114 0.0
O257 O 0.31854 0.43855 0.88136 0.0
O258 O 0.32378 0.32958 0.85924 0.0
C259 C 0.35616 0.59841 0.86433 0.0
Tb260 Tb 0.63924 0.65168 0.86715 0.0
C261 C 0.61849 0.61751 0.82352 0.0
Tb262 Tb 0.59768 0.62475 0.86897 0.0
O263 O 0.64332 0.51324 0.85416 0.0
O264 O 0.62114 0.54004 0.87526 0.0
O265 O 0.63312 0.65868 0.83241 0.0
C266 C 0.56176 0.57882 0.86557 0.0
O267 O 0.60431 0.58719 0.83536 0.0
C268 C 0.60869 0.79672 0.873 0.0
C269 C 0.61869 0.64271 0.91308 0.0
O270 O 0.57045 0.63741 0.85328 0.0
O271 O 0.57336 0.54468 0.87963 0.0
O272 O 0.59378 0.76368 0.88185 0.0
O273 O 0.61576 0.73604 0.86078 0.0
O274 O 0.60384 0.60819 0.90329 0.0
O275 O 0.6333 0.6734 0.90198 0.0
C276 C 0.67491 0.70287 0.8699 0.0
O277 O 0.6613 0.75644 0.86408 0.0
O278 O 0.66836 0.6218 0.8743 0.0
C279 C 0.62849 0.4796 0.86314 0.0
Tb280 Tb 0.34437 0.67274 0.62136 0.0
C281 C 0.36458 0.63542 0.66524 0.0
Tb282 Tb 0.38578 0.64507 0.61994 0.0
O283 O 0.33978 0.53361 0.63355 0.0
O284 O 0.36236 0.56078 0.61314 0.0
O285 O 0.34991 0.67548 0.65622 0.0
C286 C 0.42174 0.60132 0.62345 0.0
O287 O 0.37911 0.60785 0.65359 0.0
C288 C 0.37496 0.8173 0.61604 0.0
C289 C 0.36532 0.67102 0.57582 0.0
O290 O 0.41341 0.66781 0.63369 0.0
O291 O 0.40972 0.55781 0.61141 0.0
O292 O 0.38975 0.78366 0.60701 0.0
O293 O 0.36776 0.75681 0.62818 0.0
O294 O 0.37987 0.63243 0.5854 0.0
O295 O 0.35096 0.70316 0.58714 0.0
C296 C 0.30885 0.72446 0.61817 0.0
O297 O 0.31628 0.65352 0.60867 0.0
O298 O 0.32152 0.76764 0.62933 0.0
C299 C 0.35478 0.50009 0.62493 0.0
Tb300 Tb 0.63826 0.4103 0.62051 0.0
C301 C 0.6167 0.45325 0.66459 0.0
Tb302 Tb 0.59415 0.44845 0.62038 0.0
O303 O 0.64692 0.55663 0.61793 0.0
O304 O 0.61954 0.52044 0.61764 0.0
O305 O 0.63121 0.41175 0.65524 0.0
C306 C 0.55965 0.51438 0.61741 0.0
O307 O 0.60173 0.48149 0.65377 0.0
C308 C 0.60254 0.26955 0.62462 0.0
C309 C 0.6159 0.41618 0.5766 0.0
O310 O 0.571 0.53027 0.63352 0.0
O311 O 0.56796 0.46385 0.60286 0.0
O312 O 0.58577 0.30206 0.62452 0.0
O313 O 0.613 0.33825 0.623 0.0
O314 O 0.60246 0.46367 0.58642 0.0
O315 O 0.62957 0.37517 0.58747 0.0
C316 C 0.67212 0.33525 0.62049 0.0
O317 O 0.66245 0.35502 0.60323 0.0
O318 O 0.66251 0.3556 0.63782 0.0
C319 C 0.63012 0.58921 0.61714 0.0
H320 H 0.19576 0.29308 0.08398 0.0
H321 H 0.29132 0.2553 0.14855 0.0
H322 H 0.19788 0.25561 0.15387 0.0
H323 H 0.2862 0.40735 0.08827 0.0
H324 H 0.25745 0.23471 0.14911 0.0
H325 H 0.22939 0.3189 0.0837 0.0
C326 C 0.20331 0.2913 0.09929 0.0
C327 C 0.19411 0.27263 0.11899 0.0
C328 C 0.26378 0.27241 0.13577 0.0
C329 C 0.2325 0.29961 0.11872 0.0
C330 C 0.28306 0.28343 0.13534 0.0
C331 C 0.29146 0.33292 0.11832 0.0
C332 C 0.25296 0.30986 0.11885 0.0
C333 C 0.2802 0.36873 0.10168 0.0
C334 C 0.22246 0.30581 0.09911 0.0
C335 C 0.20449 0.27049 0.13836 0.0
N336 N 0.26151 0.35615 0.1023 0.0
N337 N 0.22321 0.28279 0.13773 0.0
H338 H 0.78248 0.94412 0.09881 0.0
H339 H 0.70417 0.57397 0.11949 0.0
H340 H 0.79415 0.6988 0.13631 0.0
H341 H 0.69208 0.86564 0.12081 0.0
H342 H 0.73748 0.60956 0.11937 0.0
H343 H 0.74936 0.90715 0.10011 0.0
C344 C 0.77805 0.882 0.10717 0.0
C345 C 0.79099 0.8242 0.11747 0.0
C346 C 0.72751 0.66556 0.11974 0.0
C347 C 0.75325 0.78144 0.1188 0.0
C348 C 0.70856 0.64551 0.11968 0.0
C349 C 0.69546 0.7172 0.12012 0.0
C350 C 0.73331 0.7579 0.11966 0.0
C351 C 0.7018 0.8086 0.12049 0.0
C352 C 0.75918 0.86148 0.10803 0.0
C353 C 0.78455 0.74499 0.1282 0.0
N354 N 0.72034 0.82651 0.12 0.0
N355 N 0.76606 0.72531 0.12844 0.0
H356 H 0.29319 0.89445 0.35124 0.0
H357 H 0.19014 0.72545 0.38151 0.0
H358 H 0.28122 0.64278 0.38613 0.0
H359 H 0.20191 0.98201 0.34857 0.0
H360 H 0.22349 0.69245 0.3827 0.0
H361 H 0.25982 0.92791 0.34983 0.0
C362 C 0.28352 0.8466 0.3587 0.0
C363 C 0.2899 0.76588 0.36883 0.0
C364 C 0.2188 0.7559 0.37516 0.0
C365 C 0.2518 0.80298 0.36716 0.0
C366 C 0.19977 0.77452 0.37443 0.0
C367 C 0.19333 0.85647 0.36493 0.0
C368 C 0.23145 0.81979 0.36632 0.0
C369 C 0.20634 0.91794 0.35604 0.0
C370 C 0.26449 0.86548 0.35785 0.0
C371 C 0.27684 0.7059 0.37818 0.0
N372 N 0.22479 0.89844 0.35697 0.0
N373 N 0.25842 0.72554 0.37709 0.0
H374 H 0.78449 0.18151 0.40319 0.0
H375 H 0.69519 0.32191 0.33375 0.0
H376 H 0.7886 0.31274 0.34013 0.0
H377 H 0.69449 0.30591 0.40415 0.0
H378 H 0.72884 0.29416 0.33426 0.0
H379 H 0.7508 0.20534 0.40256 0.0
C380 C 0.77828 0.21587 0.38928 0.0
C381 C 0.78928 0.24571 0.37174 0.0
C382 C 0.72128 0.2963 0.34956 0.0
C383 C 0.75081 0.27121 0.37067 0.0
C384 C 0.70209 0.31126 0.34927 0.0
C385 C 0.69213 0.31611 0.36894 0.0
C386 C 0.73043 0.28467 0.36965 0.0
C387 C 0.70172 0.30268 0.38863 0.0
C388 C 0.75909 0.22931 0.38891 0.0
C389 C 0.78058 0.2894 0.35404 0.0
N390 N 0.72034 0.28732 0.38849 0.0
N391 N 0.7618 0.3002 0.35386 0.0
H392 H 0.70415 0.58653 0.87547 0.0
H393 H 0.78095 0.98401 0.87694 0.0
H394 H 0.69091 0.87395 0.86565 0.0
H395 H 0.79429 0.6977 0.86543 0.0
H396 H 0.74791 0.94468 0.87695 0.0
H397 H 0.73719 0.62571 0.87588 0.0
C398 C 0.70822 0.65803 0.87346 0.0
C399 C 0.69482 0.72723 0.87051 0.0
C400 C 0.75805 0.89043 0.87442 0.0
C401 C 0.73259 0.77255 0.87109 0.0
C402 C 0.7769 0.9127 0.87449 0.0
C403 C 0.79033 0.84388 0.87117 0.0
C404 C 0.75256 0.7984 0.87126 0.0
C405 C 0.78435 0.75273 0.86803 0.0
C406 C 0.72708 0.68023 0.87362 0.0
C407 C 0.70083 0.81862 0.86794 0.0
N408 N 0.76588 0.73251 0.86824 0.0
N409 N 0.7193 0.83876 0.86839 0.0
H410 H 0.28423 0.44344 0.89717 0.0
H411 H 0.20097 0.187 0.83517 0.0
H412 H 0.2925 0.24696 0.84503 0.0
H413 H 0.19316 0.34423 0.8944 0.0
H414 H 0.2343 0.21776 0.83702 0.0
H415 H 0.25075 0.41485 0.89543 0.0
C416 C 0.27898 0.39379 0.88544 0.0
C417 C 0.29111 0.34731 0.87124 0.0
C418 C 0.22533 0.24582 0.84959 0.0
C419 C 0.25282 0.31519 0.86894 0.0
C420 C 0.20628 0.22875 0.84848 0.0
C421 C 0.19432 0.26319 0.86467 0.0
C422 C 0.23251 0.29804 0.867 0.0
C423 C 0.20193 0.3166 0.88157 0.0
C424 C 0.25987 0.37765 0.88443 0.0
C425 C 0.28361 0.28395 0.85633 0.0
N426 N 0.22056 0.33231 0.88232 0.0
N427 N 0.26493 0.27009 0.85549 0.0
H428 H 0.69287 0.27932 0.58563 0.0
H429 H 0.78956 0.3258 0.64823 0.0
H430 H 0.69644 0.33683 0.65469 0.0
H431 H 0.7836 0.1724 0.58817 0.0
H432 H 0.75576 0.34812 0.64921 0.0
H433 H 0.7265 0.25379 0.58475 0.0
C434 C 0.70073 0.28557 0.60064 0.0
C435 C 0.69193 0.30984 0.62027 0.0
C436 C 0.76188 0.30976 0.6358 0.0
C437 C 0.73035 0.28287 0.61932 0.0
C438 C 0.78113 0.2977 0.63516 0.0
C439 C 0.78929 0.24731 0.61809 0.0
C440 C 0.75081 0.2722 0.6191 0.0
C441 C 0.7778 0.21168 0.60162 0.0
C442 C 0.7199 0.27126 0.60013 0.0
C443 C 0.70273 0.31769 0.63925 0.0
N444 N 0.75914 0.22504 0.60248 0.0
N445 N 0.72143 0.30507 0.63828 0.0
H446 H 0.199 0.91392 0.6527 0.0
H447 H 0.28189 0.64207 0.59386 0.0
H448 H 0.19097 0.7442 0.59549 0.0
H449 H 0.29037 0.85372 0.64249 0.0
H450 H 0.24841 0.6705 0.59555 0.0
H451 H 0.23227 0.88206 0.6511 0.0
C452 C 0.20425 0.86918 0.6399 0.0
C453 C 0.19227 0.83162 0.62418 0.0
C454 C 0.25758 0.71103 0.60579 0.0
C455 C 0.23036 0.79544 0.62213 0.0
C456 C 0.27668 0.69497 0.6048 0.0
C457 C 0.28885 0.74582 0.61804 0.0
C458 C 0.25061 0.77787 0.62028 0.0
C459 C 0.28143 0.81328 0.63196 0.0
C460 C 0.22326 0.85148 0.63892 0.0
C461 C 0.19978 0.77437 0.60793 0.0
N462 N 0.26276 0.82707 0.6328 0.0
N463 N 0.21839 0.75807 0.60729 0.0
H464 H 0.0888 0.98501 0.29514 0.0
H465 H 0.15027 0.12065 0.19146 0.0
H466 H 0.14868 0.97173 0.29634 0.0
H467 H 0.0919 0.05331 0.18848 0.0
H468 H 0.15031 0.0777 0.23032 0.0
H469 H 0.08998 1.02038 0.2563 0.0
C470 C 0.10223 0.98914 0.2872 0.0
C471 C 0.11867 0.97551 0.29901 0.0
C472 C 0.13755 0.0722 0.22106 0.0
C473 C 0.12014 1.01698 0.25442 0.0
C474 C 0.13748 0.09718 0.19894 0.0
C475 C 0.12105 0.09066 0.18667 0.0
C476 C 0.12103 1.04169 0.23093 0.0
C477 C 0.10492 0.05927 0.1972 0.0
C478 C 0.10289 1.00923 0.26498 0.0
C479 C 0.13567 0.9813 0.2878 0.0
N480 N 0.10531 1.03642 0.21867 0.0
N481 N 0.13598 1.00244 0.2661 0.0
H482 H 0.85178 0.23725 0.29046 0.0
H483 H 0.85217 0.8588 0.1975 0.0
H484 H 0.87328 0.96473 0.30339 0.0
H485 H 0.87286 0.13271 0.18442 0.0
H486 H 0.85124 0.89647 0.23678 0.0
H487 H 0.8509 0.19973 0.25119 0.0
C488 C 0.85619 0.1695 0.285 0.0
C489 C 0.86277 0.10411 0.29999 0.0
C490 C 0.85588 0.94812 0.2252 0.0
C491 C 0.8613 0.06043 0.25564 0.0
C492 C 0.85634 0.92696 0.20292 0.0
C493 C 0.86272 0.9927 0.18789 0.0
C494 C 0.86126 1.03639 0.23224 0.0
C495 C 0.86804 0.08 0.19561 0.0
C496 C 0.85573 0.14838 0.26272 0.0
C497 C 0.86834 1.01723 0.29222 0.0
N498 N 0.86704 0.09975 0.2173 0.0
N499 N 0.86732 0.99745 0.27053 0.0
H500 H 0.85257 0.234 0.69881 0.0
H501 H 0.85373 0.84903 0.78992 0.0
H502 H 0.87376 0.96234 0.68404 0.0
H503 H 0.87471 0.12175 0.80386 0.0
H504 H 0.8527 0.88895 0.75078 0.0
H505 H 0.85225 0.19334 0.7379 0.0
C506 C 0.85703 0.16578 0.70383 0.0
C507 C 0.86336 0.10154 0.68838 0.0
C508 C 0.85747 0.93974 0.76251 0.0
C509 C 0.86254 0.05434 0.73252 0.0
C510 C 0.85802 0.91725 0.78471 0.0
C511 C 0.86448 0.98206 0.79993 0.0
C512 C 0.86282 1.02845 0.75578 0.0
C513 C 0.86987 0.06964 0.79249 0.0
C514 C 0.85689 0.14289 0.726 0.0
C515 C 0.869 1.01398 0.69558 0.0
N516 N 0.86876 0.09074 0.77091 0.0
N517 N 0.86831 0.99248 0.71718 0.0
H518 H 0.11137 0.9541 0.80442 0.0
H519 H 0.10816 0.13741 0.68422 0.0
H520 H 0.12963 0.23133 0.79024 0.0
H521 H 0.12913 0.86389 0.69728 0.0
H522 H 0.11032 0.17326 0.72336 0.0
H523 H 0.1123 0.91839 0.76522 0.0
C524 C 0.11555 1.00739 0.79301 0.0
C525 C 0.12039 0.09582 0.80043 0.0
C526 C 0.11449 0.10562 0.71758 0.0
C527 C 0.12113 0.05594 0.75585 0.0
C528 C 0.11314 0.08485 0.69537 0.0
C529 C 0.11842 0.99747 0.68764 0.0
C530 C 0.12066 1.03762 0.73215 0.0
C531 C 0.12496 0.93207 0.70266 0.0
C532 C 0.11618 0.98679 0.77076 0.0
C533 C 0.12586 0.1623 0.78508 0.0
N534 N 0.12565 0.95303 0.72433 0.0
N535 N 0.12581 0.14143 0.76339 0.0
H536 H 0.58699 0.49489 0.29867 0.0
H537 H 0.64697 0.63721 0.19424 0.0
H538 H 0.64688 0.48011 0.29749 0.0
H539 H 0.58799 0.58386 0.19242 0.0
H540 H 0.6472 0.59579 0.23303 0.0
H541 H 0.58719 0.54035 0.26042 0.0
C542 C 0.60021 0.50083 0.29033 0.0
C543 C 0.61696 0.48373 0.30131 0.0
C544 C 0.63422 0.59354 0.22411 0.0
C545 C 0.61727 0.53669 0.25744 0.0
C546 C 0.63403 0.61794 0.20203 0.0
C547 C 0.61743 0.61382 0.19006 0.0
C548 C 0.61766 0.56571 0.23427 0.0
C549 C 0.60112 0.58762 0.20097 0.0
C550 C 0.6003 0.5268 0.26846 0.0
C551 C 0.63365 0.49212 0.28961 0.0
N552 N 0.60166 0.56453 0.22244 0.0
N553 N 0.63339 0.51865 0.26828 0.0
H554 H 0.39576 0.61267 0.2968 0.0
H555 H 0.33645 0.45207 0.19336 0.0
H556 H 0.336 0.63474 0.29456 0.0
H557 H 0.39565 0.49908 0.19184 0.0
H558 H 0.33582 0.50606 0.23137 0.0
H559 H 0.39578 0.56106 0.25892 0.0
C560 C 0.38263 0.60724 0.28827 0.0
C561 C 0.36585 0.628 0.29883 0.0
C562 C 0.34892 0.50433 0.22267 0.0
C563 C 0.36576 0.56776 0.25546 0.0
C564 C 0.34932 0.47282 0.20107 0.0
C565 C 0.36613 0.47109 0.18943 0.0
C566 C 0.36547 0.53331 0.23268 0.0
C567 C 0.38237 0.49954 0.20015 0.0
C568 C 0.38265 0.57771 0.26662 0.0
C569 C 0.34926 0.61998 0.28696 0.0
N570 N 0.38163 0.52934 0.22115 0.0
N571 N 0.34961 0.58969 0.26589 0.0
H572 H 0.39572 0.51329 0.79811 0.0
H573 H 0.33471 0.63247 0.69312 0.0
H574 H 0.33646 0.46901 0.79602 0.0
H575 H 0.39407 0.59074 0.69107 0.0
H576 H 0.33483 0.58914 0.73185 0.0
H577 H 0.39511 0.5567 0.75964 0.0
C578 C 0.38257 0.51242 0.78953 0.0
C579 C 0.36611 0.48742 0.80027 0.0
C580 C 0.3478 0.5896 0.72287 0.0
C581 C 0.36531 0.53795 0.75624 0.0
C582 C 0.34777 0.61494 0.70084 0.0
C583 C 0.36441 0.61516 0.68887 0.0
C584 C 0.36461 0.56552 0.73299 0.0
C585 C 0.3809 0.59117 0.69964 0.0
C586 C 0.38224 0.5371 0.76755 0.0
C587 C 0.34948 0.48729 0.78831 0.0
N588 N 0.38059 0.56757 0.72109 0.0
N589 N 0.34948 0.51284 0.76692 0.0
H590 H 0.58849 0.57609 0.79837 0.0
H591 H 0.64722 0.45576 0.69145 0.0
H592 H 0.64787 0.61468 0.79486 0.0
H593 H 0.58782 0.49712 0.69156 0.0
H594 H 0.64801 0.49901 0.73019 0.0
H595 H 0.58826 0.53418 0.75981 0.0
C596 C 0.60149 0.57611 0.78945 0.0
C597 C 0.61824 0.59887 0.79983 0.0
C598 C 0.63483 0.49847 0.72168 0.0
C599 C 0.61808 0.55001 0.75568 0.0
C600 C 0.63434 0.47311 0.69964 0.0
C601 C 0.61742 0.47283 0.68826 0.0
C602 C 0.61827 0.52256 0.73238 0.0
C603 C 0.60118 0.49671 0.69964 0.0
C604 C 0.60135 0.55225 0.76742 0.0
C605 C 0.63465 0.59807 0.78744 0.0
N606 N 0.60201 0.52039 0.72106 0.0
N607 N 0.63419 0.5733 0.76598 0.0
H608 H 0.08974 0.10512 0.93914 0.0
H609 H 0.14354 0.24643 0.04861 0.0
H610 H 0.14417 0.23061 0.93934 0.0
H611 H 0.09005 0.11147 0.04748 0.0
H612 H 0.1434 0.24937 0.00866 0.0
H613 H 0.08911 0.11446 0.97886 0.0
C614 C 0.10159 0.13472 0.94749 0.0
C615 C 0.11709 0.16668 0.93579 0.0
C616 C 0.13168 0.21942 0.01718 0.0
C617 C 0.11641 0.17764 0.98149 0.0
C618 C 0.13172 0.21782 0.04001 0.0
C619 C 0.11682 0.17817 0.05149 0.0
C620 C 0.11664 0.18115 0.00572 0.0
C621 C 0.1019 0.14233 0.03941 0.0
C622 C 0.1012 0.14009 0.97024 0.0
C623 C 0.13195 0.20474 0.94763 0.0
N624 N 0.10222 0.14444 0.01722 0.0
N625 N 0.13126 0.20894 0.96983 0.0
H626 H 0.84053 0.85609 0.93993 0.0
H627 H 0.89639 0.98257 0.04904 0.0
H628 H 0.89477 0.98339 0.94055 0.0
H629 H 0.84253 0.85121 0.0491 0.0
H630 H 0.89633 0.97886 0.00921 0.0
H631 H 0.84125 0.84969 0.97986 0.0
C632 C 0.85259 0.88261 0.94842 0.0
C633 C 0.86757 0.92068 0.93682 0.0
C634 C 0.88454 0.95058 0.01793 0.0
C635 C 0.86849 0.91347 0.98253 0.0
C636 C 0.88456 0.95264 0.04072 0.0
C637 C 0.86941 0.91749 0.05251 0.0
C638 C 0.86924 0.91333 0.00676 0.0
C639 C 0.85452 0.87931 0.04074 0.0
C640 C 0.853 0.87884 0.97123 0.0
C641 C 0.88286 0.95368 0.94874 0.0
N642 N 0.85478 0.87857 0.01853 0.0
N643 N 0.88289 0.94949 0.97091 0.0
H644 H 0.08758 0.99202 0.4395 0.0
H645 H 0.14326 0.86856 0.54889 0.0
H646 H 0.14167 0.86289 0.4399 0.0
H647 H 0.0893 0.99913 0.54823 0.0
H648 H 0.14261 0.86224 0.50901 0.0
H649 H 0.08761 0.99086 0.47937 0.0
C650 C 0.09945 0.96313 0.44793 0.0
C651 C 0.11468 0.92779 0.43625 0.0
C652 C 0.13091 0.89218 0.51761 0.0
C653 C 0.11481 0.92653 0.48203 0.0
C654 C 0.13127 0.89592 0.54041 0.0
C655 C 0.11634 0.93474 0.55202 0.0
C656 C 0.11552 0.92752 0.50627 0.0
C657 C 0.10117 0.96879 0.54005 0.0
C658 C 0.09946 0.96258 0.47074 0.0
C659 C 0.12963 0.89112 0.44815 0.0
N660 N 0.10117 0.96448 0.51787 0.0
N661 N 0.12934 0.89169 0.47037 0.0
H662 H 0.83924 0.24531 0.54945 0.0
H663 H 0.89455 0.11854 0.43986 0.0
H664 H 0.89341 0.11729 0.54786 0.0
H665 H 0.83998 0.24242 0.43971 0.0
H666 H 0.89472 0.12537 0.47957 0.0
H667 H 0.8396 0.2524 0.50945 0.0
C668 C 0.85124 0.21902 0.54074 0.0
C669 C 0.86628 0.1802 0.55207 0.0
C670 C 0.88271 0.15134 0.4709 0.0
C671 C 0.86676 0.18811 0.50634 0.0
C672 C 0.88259 0.14745 0.44816 0.0
C673 C 0.86717 0.1795 0.43638 0.0
C674 C 0.86728 0.18733 0.48209 0.0
C675 C 0.85215 0.21669 0.44811 0.0
C676 C 0.85142 0.22307 0.5179 0.0
C677 C 0.88145 0.14739 0.53989 0.0
N678 N 0.85254 0.21923 0.47035 0.0
N679 N 0.88126 0.15189 0.51773 0.0
H680 H 0.64779 0.70106 0.05018 0.0
H681 H 0.59115 0.58887 0.94092 0.0
H682 H 0.59283 0.58156 0.04855 0.0
H683 H 0.64669 0.70163 0.94033 0.0
H684 H 0.59165 0.58988 0.98058 0.0
H685 H 0.64779 0.70547 0.01016 0.0
C686 C 0.63574 0.67573 0.04146 0.0
C687 C 0.6203 0.64065 0.05278 0.0
C688 C 0.60375 0.61448 0.97184 0.0
C689 C 0.62023 0.64573 0.00709 0.0
C690 C 0.60349 0.61395 0.94911 0.0
C691 C 0.61894 0.64495 0.93722 0.0
C692 C 0.61959 0.6462 0.98289 0.0
C693 C 0.63448 0.67693 0.94884 0.0
C694 C 0.63576 0.67832 0.01862 0.0
C695 C 0.60508 0.60897 0.0406 0.0
N696 N 0.63442 0.6766 0.97108 0.0
N697 N 0.60545 0.61228 0.01846 0.0
H698 H 0.39552 0.48016 0.94077 0.0
H699 H 0.34081 0.34116 0.04976 0.0
H700 H 0.34106 0.35515 0.94012 0.0
H701 H 0.39527 0.4661 0.0486 0.0
H702 H 0.3408 0.3399 0.00973 0.0
H703 H 0.39578 0.46998 0.98041 0.0
C704 C 0.38358 0.45047 0.94895 0.0
C705 C 0.36819 0.41887 0.93706 0.0
C706 C 0.35275 0.36729 0.01828 0.0
C707 C 0.36842 0.407 0.98266 0.0
C708 C 0.35278 0.368 0.04113 0.0
C709 C 0.36803 0.4042 0.05258 0.0
C710 C 0.36807 0.40303 0.00686 0.0
C711 C 0.38316 0.43789 0.04052 0.0
C712 C 0.38376 0.44458 0.97165 0.0
C713 C 0.3532 0.3806 0.94862 0.0
N714 N 0.38276 0.43668 0.01836 0.0
N715 N 0.35366 0.37599 0.97082 0.0
H716 H 0.58966 0.49351 0.4406 0.0
H717 H 0.64156 0.33371 0.54966 0.0
H718 H 0.64148 0.34292 0.44023 0.0
H719 H 0.59003 0.48661 0.54852 0.0
H720 H 0.64142 0.33071 0.5097 0.0
H721 H 0.58927 0.48603 0.48026 0.0
C722 C 0.60099 0.45876 0.44883 0.0
C723 C 0.61569 0.41915 0.43702 0.0
C724 C 0.63014 0.36467 0.51823 0.0
C725 C 0.61529 0.41037 0.48263 0.0
C726 C 0.63019 0.36642 0.54105 0.0
C727 C 0.61582 0.4109 0.55249 0.0
C728 C 0.61562 0.40768 0.50681 0.0
C729 C 0.60145 0.45189 0.54045 0.0
C730 C 0.60073 0.45445 0.47154 0.0
C731 C 0.62989 0.37461 0.44866 0.0
N732 N 0.60175 0.44944 0.51829 0.0
N733 N 0.62937 0.37166 0.47087 0.0
H734 H 0.33763 0.73842 0.54936 0.0
H735 H 0.39366 0.62592 0.43956 0.0
H736 H 0.39256 0.61875 0.54729 0.0
H737 H 0.33821 0.73995 0.43953 0.0
H738 H 0.39352 0.62845 0.47922 0.0
H739 H 0.33763 0.745 0.50937 0.0
C740 C 0.3497 0.71373 0.54054 0.0
C741 C 0.3651 0.67767 0.55172 0.0
C742 C 0.38136 0.65306 0.47061 0.0
C743 C 0.36516 0.68506 0.50604 0.0
C744 C 0.38141 0.65162 0.44788 0.0
C745 C 0.36587 0.68244 0.43614 0.0
C746 C 0.36565 0.68544 0.48183 0.0
C747 C 0.35048 0.71534 0.44792 0.0
C748 C 0.34967 0.7175 0.51771 0.0
C749 C 0.38035 0.64681 0.53943 0.0
N750 N 0.35073 0.71577 0.47016 0.0
N751 N 0.37996 0.65112 0.51729 0.0
H752 H 0.94534 0.06482 0.08729 0.0
H753 H 0.03963 0.05093 0.15667 0.0
H754 H 0.94722 1.02488 0.15711 0.0
H755 H 0.03838 0.05232 0.08618 0.0
H756 H 0.0057 0.04622 0.1572 0.0
H757 H 0.97936 0.07069 0.0866 0.0
C758 C 0.95292 0.0587 0.1025 0.0
C759 C 0.94352 0.04448 0.12229 0.0
C760 C 0.01282 0.04686 0.14159 0.0
C761 C 0.98233 0.04965 0.12162 0.0
C762 C 0.03218 0.04902 0.14129 0.0
C763 C 0.04176 0.05174 0.12135 0.0
C764 C 0.00295 0.04823 0.12179 0.0
C765 C 0.03148 0.04978 0.1019 0.0
C766 C 0.97233 0.06119 0.10208 0.0
C767 C 0.95397 1.0361 0.14151 0.0
N768 N 0.01259 0.04874 0.10259 0.0
N769 N 0.97281 1.03855 0.14069 0.0
H770 H 0.94542 0.12729 0.33 0.0
H771 H 0.03734 0.05493 0.40056 0.0
H772 H 0.94399 1.02337 0.39601 0.0
H773 H 0.0371 1.03776 0.33017 0.0
H774 H 0.00332 0.06913 0.40011 0.0
H775 H 0.97939 0.11696 0.33047 0.0
C776 C 0.95229 0.10161 0.34452 0.0
C777 C 0.94196 0.07555 0.36294 0.0
C778 C 0.01076 0.06277 0.38478 0.0
C779 C 0.98072 0.06581 0.3638 0.0
C780 C 0.03013 0.0556 0.38502 0.0
C781 C 0.03995 0.0453 0.36537 0.0
C782 C 0.00127 0.06114 0.36473 0.0
C783 C 0.03 0.04559 0.34568 0.0
C784 C 0.97163 0.09594 0.3448 0.0
C785 C 0.95149 1.04334 0.38141 0.0
N786 N 0.01119 0.05359 0.34584 0.0
N787 N 0.97038 1.04012 0.38146 0.0
H788 H 0.03779 0.06469 0.90192 0.0
H789 H 0.94748 0.93693 0.83249 0.0
H790 H 0.03962 1.01478 0.83243 0.0
H791 H 0.94491 0.08233 0.89398 0.0
H792 H 0.98144 0.94778 0.8334 0.0
H793 H 0.00387 0.05067 0.90088 0.0
C794 C 0.03105 0.04954 0.8865 0.0
C795 C 0.04147 1.04079 0.86722 0.0
C796 C 0.97344 0.97778 0.84663 0.0
C797 C 0.00276 1.02525 0.86589 0.0
C798 C 0.95409 0.97178 0.8461 0.0
C799 C 0.94343 1.0092 0.86315 0.0
C800 C 0.9822 1.02009 0.86453 0.0
C801 C 0.95265 0.05318 0.88045 0.0
C802 C 0.01171 1.04237 0.88588 0.0
C803 C 0.03207 1.02189 0.84765 0.0
N804 N 0.97153 0.05678 0.8808 0.0
N805 N 0.01323 1.01464 0.84748 0.0
H806 H 0.94583 0.14975 0.65583 0.0
H807 H 0.03615 1.02697 0.5856 0.0
H808 H 0.94344 1.00886 0.59374 0.0
H809 H 0.03812 0.08559 0.6547 0.0
H810 H 0.00222 1.03862 0.58683 0.0
H811 H 0.97977 0.14137 0.65464 0.0
C812 C 0.95248 0.1163 0.64204 0.0
C813 C 0.94189 0.07959 0.62489 0.0
C814 C 0.01009 0.04938 0.6017 0.0
C815 C 0.98063 0.07143 0.6232 0.0
C816 C 0.02943 1.04358 0.60096 0.0
C817 C 0.03989 0.05543 0.62009 0.0
C818 C 0.00118 0.06802 0.62166 0.0
C819 C 0.03053 0.07611 0.6396 0.0
C820 C 0.97183 0.11176 0.64134 0.0
C821 C 0.95114 1.03745 0.60735 0.0
N822 N 0.01169 0.08174 0.6399 0.0
N823 N 0.97002 1.0351 0.60686 0.0
H824 H 0.44963 0.39185 0.15072 0.0
H825 H 0.53653 0.61246 0.08813 0.0
H826 H 0.44464 0.59245 0.09901 0.0
H827 H 0.54212 0.45069 0.14692 0.0
H828 H 0.50287 0.5954 0.0903 0.0
H829 H 0.48347 0.40527 0.14864 0.0
C830 C 0.45569 0.43932 0.13904 0.0
C831 C 0.44438 0.49133 0.12503 0.0
C832 C 0.51141 0.56323 0.1027 0.0
C833 C 0.48303 0.50601 0.12233 0.0
C834 C 0.53065 0.57242 0.10139 0.0
C835 C 0.54208 0.53288 0.11739 0.0
C836 C 0.50351 0.51387 0.12011 0.0
C837 C 0.53376 0.48203 0.13424 0.0
C838 C 0.47499 0.44672 0.13782 0.0
C839 C 0.45289 0.55143 0.11015 0.0
N840 N 0.51493 0.47412 0.1352 0.0
N841 N 0.47172 0.55679 0.10911 0.0
H842 H 0.44846 0.69855 0.33906 0.0
H843 H 0.53422 0.47166 0.40231 0.0
H844 H 0.44228 0.49705 0.39041 0.0
H845 H 0.54037 0.62282 0.34202 0.0
H846 H 0.5006 0.49283 0.40019 0.0
H847 H 0.48222 0.68119 0.3413 0.0
C848 C 0.45424 0.65012 0.3507 0.0
C849 C 0.44264 0.59893 0.36455 0.0
C850 C 0.50928 0.52173 0.38746 0.0
C851 C 0.48118 0.57976 0.36743 0.0
C852 C 0.52848 0.51025 0.38874 0.0
C853 C 0.54003 0.54558 0.3723 0.0
C854 C 0.50159 0.56935 0.36965 0.0
C855 C 0.53191 0.59465 0.35504 0.0
C856 C 0.47349 0.64041 0.352 0.0
C857 C 0.45078 0.53746 0.37938 0.0
N858 N 0.51314 0.60501 0.35414 0.0
N859 N 0.46958 0.52993 0.38053 0.0
H860 H 0.44668 0.48971 0.8298 0.0
H861 H 0.53981 0.51209 0.89836 0.0
H862 H 0.44621 0.55742 0.89846 0.0
H863 H 0.53783 0.61092 0.83193 0.0
H864 H 0.50578 0.49799 0.89814 0.0
H865 H 0.48063 0.50659 0.82958 0.0
C866 C 0.45374 0.50867 0.84478 0.0
C867 C 0.44371 0.5228 0.86415 0.0
C868 C 0.51285 0.52243 0.88362 0.0
C869 C 0.48237 0.53937 0.86415 0.0
C870 C 0.53221 0.52974 0.88367 0.0
C871 C 0.54155 0.56262 0.86513 0.0
C872 C 0.50288 0.54607 0.86472 0.0
C873 C 0.53109 0.58537 0.84655 0.0
C874 C 0.47305 0.51822 0.84463 0.0
C875 C 0.45347 0.54677 0.88316 0.0
N876 N 0.5123 0.57603 0.84674 0.0
N877 N 0.47233 0.55322 0.88276 0.0
H878 H 0.44738 0.68358 0.6497 0.0
H879 H 0.53426 0.46323 0.58684 0.0
H880 H 0.44209 0.48634 0.5972 0.0
H881 H 0.53945 0.61077 0.64783 0.0
H882 H 0.50059 0.4833 0.58852 0.0
H883 H 0.48119 0.66704 0.64795 0.0
C884 C 0.45337 0.63625 0.6379 0.0
C885 C 0.44199 0.58602 0.62359 0.0
C886 C 0.50907 0.51164 0.6015 0.0
C887 C 0.48061 0.56779 0.62128 0.0
C888 C 0.5283 0.50078 0.60048 0.0
C889 C 0.53961 0.53544 0.61724 0.0
C890 C 0.50107 0.55795 0.61937 0.0
C891 C 0.53119 0.58315 0.63457 0.0
C892 C 0.47265 0.62701 0.63688 0.0
C893 C 0.4504 0.52598 0.60857 0.0
N894 N 0.51239 0.59293 0.63521 0.0
N895 N 0.46923 0.51888 0.60772 0.0
H896 H 0.09804 0.91023 0.11895 0.0
H897 H 0.13958 0.39323 0.1198 0.0
H898 H 0.15643 0.84795 0.11368 0.0
H899 H 0.08119 0.45622 0.12431 0.0
H900 H 0.14621 0.55976 0.11771 0.0
H901 H 0.09148 0.74371 0.12083 0.0
C902 C 0.10943 0.86147 0.1181 0.0
C903 C 0.12777 0.89262 0.11614 0.0
C904 C 0.13195 0.53705 0.11918 0.0
C905 C 0.1205 0.70258 0.11839 0.0
C906 C 0.12821 0.44211 0.12043 0.0
C907 C 0.10984 0.41117 0.12225 0.0
C908 C 0.11719 0.60112 0.11978 0.0
C909 C 0.09556 0.47724 0.12291 0.0
C910 C 0.10574 0.76652 0.11922 0.0
C911 C 0.14207 0.82672 0.11519 0.0
N912 N 0.09952 0.56881 0.12167 0.0
N913 N 0.13815 0.73505 0.11634 0.0
H914 H 0.82859 0.24014 0.119 0.0
H915 H 0.90553 0.63767 0.12696 0.0
H916 H 0.88732 0.18353 0.12174 0.0
H917 H 0.84711 0.69261 0.11901 0.0
H918 H 0.89914 0.47212 0.12625 0.0
H919 H 0.83511 0.40525 0.12016 0.0
C920 C 0.84292 0.26261 0.11986 0.0
C921 C 0.85745 0.19799 0.12025 0.0
C922 C 0.88767 0.52008 0.1247 0.0
C923 C 0.86505 0.38799 0.12161 0.0
C924 C 0.89129 0.6148 0.12514 0.0
C925 C 0.87678 0.67913 0.12315 0.0
C926 C 0.86936 0.48882 0.12227 0.0
C927 C 0.85866 0.6455 0.12077 0.0
C928 C 0.84662 0.35712 0.1205 0.0
C929 C 0.87572 0.23108 0.12136 0.0
N930 N 0.85546 0.55263 0.12041 0.0
N931 N 0.879 0.32392 0.12203 0.0
H932 H 0.09622 0.18722 0.35814 0.0
H933 H 0.13586 0.69782 0.37905 0.0
H934 H 0.14649 0.23955 0.39436 0.0
H935 H 0.08056 0.64017 0.35587 0.0
H936 H 0.14145 0.53054 0.38222 0.0
H937 H 0.09122 0.35398 0.35516 0.0
C938 C 0.10612 0.23394 0.3656 0.0
C939 C 0.12177 0.19976 0.37651 0.0
C940 C 0.12813 0.55474 0.37636 0.0
C941 C 0.11634 0.39061 0.37292 0.0
C942 C 0.12503 0.65002 0.37437 0.0
C943 C 0.1078 0.68257 0.36707 0.0
C944 C 0.1139 0.4922 0.37084 0.0
C945 C 0.09407 0.61788 0.36157 0.0
C946 C 0.10331 0.3291 0.36386 0.0
C947 C 0.13421 0.26321 0.38585 0.0
N948 N 0.09742 0.52606 0.36353 0.0
N949 N 0.1313 0.35563 0.38372 0.0
H950 H 0.84869 0.40213 0.34828 0.0
H951 H 0.88206 0.90617 0.38676 0.0
H952 H 0.89485 0.44943 0.39173 0.0
H953 H 0.83566 0.85858 0.34366 0.0
H954 H 0.88731 0.7389 0.38845 0.0
H955 H 0.84357 0.56941 0.34642 0.0
C956 C 0.85767 0.44778 0.35749 0.0
C957 C 0.87222 0.41224 0.37013 0.0
C958 C 0.87599 0.76506 0.3786 0.0
C959 C 0.86659 0.6032 0.36802 0.0
C960 C 0.87305 0.86043 0.3776 0.0
C961 C 0.85837 0.89584 0.36515 0.0
C962 C 0.86416 0.705 0.36703 0.0
C963 C 0.84709 0.83388 0.35355 0.0
C964 C 0.85481 0.54319 0.35639 0.0
C965 C 0.8835 0.47419 0.38174 0.0
N966 N 0.85018 0.74152 0.35482 0.0
N967 N 0.88048 0.5666 0.38037 0.0
H968 H 0.88258 0.18487 0.88768 0.0
H969 H 0.85059 0.6875 0.84688 0.0
H970 H 0.83834 0.23035 0.84144 0.0
H971 H 0.89409 0.64169 0.89405 0.0
H972 H 0.84579 0.52004 0.8446 0.0
H973 H 0.88746 0.35228 0.88974 0.0
C974 C 0.87398 0.23018 0.8779 0.0
C975 C 0.85999 0.19413 0.86447 0.0
C976 C 0.85636 0.54665 0.85549 0.0
C977 C 0.86535 0.38517 0.86677 0.0
C978 C 0.85902 0.64216 0.85684 0.0
C979 C 0.87275 0.67816 0.87065 0.0
C980 C 0.86753 0.48705 0.86802 0.0
C981 C 0.88338 0.61658 0.88315 0.0
C982 C 0.8767 0.32564 0.87911 0.0
C983 C 0.84922 0.25556 0.85209 0.0
N984 N 0.88059 0.5241 0.8815 0.0
N985 N 0.85209 0.34806 0.85359 0.0
H986 H 0.13903 0.38959 0.86531 0.0
H987 H 0.09747 0.90655 0.868 0.0
H988 H 0.08054 0.4517 0.86283 0.0
H989 H 0.15575 0.84369 0.87412 0.0
H990 H 0.09088 0.74006 0.86569 0.0
H991 H 0.14561 0.55599 0.86784 0.0
C992 C 0.12762 0.4382 0.86527 0.0
C993 C 0.10925 0.40689 0.86394 0.0
C994 C 0.10512 0.76273 0.86761 0.0
C995 C 0.11654 0.59707 0.86679 0.0
C996 C 0.10883 0.85769 0.86899 0.0
C997 C 0.12715 0.88875 0.8713 0.0
C998 C 0.11985 0.69862 0.8685 0.0
C999 C 0.1414 0.82262 0.87237 0.0
C1000 C 0.13133 0.53316 0.86673 0.0
C1001 C 0.09493 0.47287 0.86386 0.0
N1002 N 0.13747 0.73099 0.87092 0.0
N1003 N 0.09886 0.56451 0.86528 0.0
H1004 H 0.88151 0.90613 0.60119 0.0
H1005 H 0.84892 0.40304 0.64104 0.0
H1006 H 0.83581 0.85974 0.64546 0.0
H1007 H 0.89392 0.44949 0.59579 0.0
H1008 H 0.84384 0.5704 0.64299 0.0
H1009 H 0.8867 0.73883 0.59948 0.0
C1010 C 0.87263 0.86065 0.6106 0.0
C1011 C 0.85817 0.89639 0.62339 0.0
C1012 C 0.85481 0.54395 0.6326 0.0
C1013 C 0.8639 0.70551 0.62149 0.0
C1014 C 0.85765 0.44852 0.63145 0.0
C1015 C 0.87186 0.41274 0.61828 0.0
C1016 C 0.8663 0.60371 0.62049 0.0
C1017 C 0.88284 0.47445 0.60621 0.0
C1018 C 0.87554 0.76526 0.6096 0.0
C1019 C 0.84706 0.83475 0.63531 0.0
N1020 N 0.87985 0.56686 0.60764 0.0
N1021 N 0.85012 0.74235 0.63403 0.0
H1022 H 0.09574 0.18973 0.61968 0.0
H1023 H 0.1372 0.70651 0.6233 0.0
H1024 H 0.15411 0.25262 0.61487 0.0
H1025 H 0.07867 0.64475 0.62427 0.0
H1026 H 0.14383 0.54013 0.62101 0.0
H1027 H 0.08909 0.35621 0.62188 0.0
C1028 C 0.10711 0.23861 0.61897 0.0
C1029 C 0.12547 0.20758 0.61704 0.0
C1030 C 0.12952 0.56302 0.62173 0.0
C1031 C 0.11809 0.39765 0.61972 0.0
C1032 C 0.12579 0.65798 0.62305 0.0
C1033 C 0.1074 0.68939 0.62388 0.0
C1034 C 0.11474 0.49918 0.62132 0.0
C1035 C 0.09308 0.62349 0.62362 0.0
C1036 C 0.10336 0.33355 0.62028 0.0
C1037 C 0.13973 0.27368 0.61631 0.0
N1038 N 0.09703 0.53182 0.62235 0.0
N1039 N 0.13576 0.3653 0.61769 0.0
H1040 H 0.63767 0.88045 0.13443 0.0
H1041 H 0.599 0.38835 0.10841 0.0
H1042 H 0.58156 0.93493 0.11364 0.0
H1043 H 0.64846 0.33891 0.14636 0.0
H1044 H 0.59358 0.22098 0.10697 0.0
H1045 H 0.64349 0.04793 0.1354 0.0
C1046 C 0.62669 0.92757 0.1299 0.0
C1047 C 0.60918 0.89413 0.12389 0.0
C1048 C 0.6056 0.24689 0.11565 0.0
C1049 C 0.61558 0.08472 0.12499 0.0
C1050 C 0.60865 0.34224 0.11648 0.0
C1051 C 0.62417 0.37723 0.12751 0.0
C1052 C 0.61828 0.18634 0.12572 0.0
C1053 C 0.6363 0.31466 0.13769 0.0
C1054 C 0.62992 1.02298 0.13058 0.0
C1055 C 0.59528 0.958 0.11842 0.0
N1056 N 0.63317 0.22229 0.13645 0.0
N1057 N 0.59877 0.05005 0.11903 0.0
H1058 H 0.33937 0.71287 0.14896 0.0
H1059 H 0.39526 0.12832 0.09333 0.0
H1060 H 0.38296 0.67236 0.10149 0.0
H1061 H 0.35205 0.16802 0.14131 0.0
H1062 H 0.39075 0.96156 0.09576 0.0
H1063 H 0.344 0.87946 0.14656 0.0
C1064 C 0.34999 0.73925 0.13807 0.0
C1065 C 0.36076 0.67907 0.1253 0.0
C1066 C 0.38221 1.00654 0.10574 0.0
C1067 C 0.36608 0.8698 0.12239 0.0
C1068 C 0.38474 0.10176 0.10432 0.0
C1069 C 0.37404 0.16178 0.11721 0.0
C1070 C 0.36886 0.97093 0.12017 0.0
C1071 C 0.36058 0.12395 0.13111 0.0
C1072 C 0.3526 0.83439 0.13668 0.0
C1073 C 0.37437 0.71663 0.11157 0.0
N1074 N 0.35841 1.03076 0.13227 0.0
N1075 N 0.3766 0.80982 0.11041 0.0
H1076 H 0.63733 0.19616 0.36835 0.0
H1077 H 0.59581 0.67944 0.37025 0.0
H1078 H 0.57901 0.13365 0.36266 0.0
H1079 H 0.65433 0.74142 0.37192 0.0
H1080 H 0.5892 0.84593 0.36808 0.0
H1081 H 0.64395 1.02959 0.36998 0.0
C1082 C 0.62597 0.14736 0.36731 0.0
C1083 C 0.60763 0.1785 0.36532 0.0
C1084 C 0.6035 0.82303 0.36892 0.0
C1085 C 0.61496 0.98837 0.36737 0.0
C1086 C 0.60722 0.72808 0.37019 0.0
C1087 C 0.62561 0.69681 0.37123 0.0
C1088 C 0.61828 0.88686 0.36876 0.0
C1089 C 0.63993 0.76266 0.37112 0.0
C1090 C 0.6297 0.05237 0.3683 0.0
C1091 C 0.59337 0.11249 0.36417 0.0
N1092 N 0.63598 0.85428 0.36991 0.0
N1093 N 0.59732 1.02082 0.36526 0.0
H1094 H 0.39265 0.96473 0.39628 0.0
H1095 H 0.33863 0.38053 0.33822 0.0
H1096 H 0.35088 0.92502 0.34667 0.0
H1097 H 0.38091 0.42082 0.3872 0.0
H1098 H 0.34311 0.21381 0.34089 0.0
H1099 H 0.38831 0.13157 0.39351 0.0
C1100 C 0.38248 0.99129 0.38487 0.0
C1101 C 0.37213 0.9312 0.37164 0.0
C1102 C 0.35146 0.25888 0.35103 0.0
C1103 C 0.36716 0.12219 0.36827 0.0
C1104 C 0.34894 0.35409 0.34949 0.0
C1105 C 0.35937 0.41427 0.3626 0.0
C1106 C 0.36451 0.22339 0.36583 0.0
C1107 C 0.37258 0.3766 0.37683 0.0
C1108 C 0.38005 0.08656 0.38325 0.0
C1109 C 0.35912 0.96908 0.35718 0.0
N1110 N 0.37473 0.28338 0.37814 0.0
N1111 N 0.35704 0.06231 0.35583 0.0
H1112 H 0.33794 0.73227 0.84196 0.0
H1113 H 0.39596 0.14752 0.89483 0.0
H1114 H 0.38287 0.69193 0.88754 0.0
H1115 H 0.35157 0.18802 0.84855 0.0
H1116 H 0.39115 0.98092 0.89265 0.0
H1117 H 0.34282 0.89891 0.84399 0.0
C1118 C 0.3489 0.75866 0.85236 0.0
C1119 C 0.35998 0.69846 0.86469 0.0
C1120 C 0.38242 1.02601 0.88298 0.0
C1121 C 0.3656 0.88934 0.86717 0.0
C1122 C 0.38513 0.12119 0.88425 0.0
C1123 C 0.37417 0.18147 0.87179 0.0
C1124 C 0.36861 0.99055 0.86914 0.0
C1125 C 0.3603 0.14381 0.85842 0.0
C1126 C 0.35165 0.85385 0.85354 0.0
C1127 C 0.37401 0.73613 0.87781 0.0
N1128 N 0.35795 0.0506 0.8574 0.0
N1129 N 0.37639 0.82932 0.87876 0.0
H1130 H 0.60234 0.38993 0.88781 0.0
H1131 H 0.63437 0.88637 0.84756 0.0
H1132 H 0.64572 0.34318 0.84038 0.0
H1133 H 0.59179 0.93337 0.89598 0.0
H1134 H 0.63888 0.05376 0.8447 0.0
H1135 H 0.59779 0.22255 0.89053 0.0
C1136 C 0.61081 0.34434 0.87789 0.0
C1137 C 0.62447 0.37999 0.86394 0.0
C1138 C 0.62858 1.02743 0.856 0.0
C1139 C 0.6195 0.18907 0.86702 0.0
C1140 C 0.62609 0.93198 0.85769 0.0
C1141 C 0.61269 0.89637 0.87199 0.0
C1142 C 0.61756 0.08732 0.86869 0.0
C1143 C 0.60225 0.95823 0.88469 0.0
C1144 C 0.60828 0.24891 0.87948 0.0
C1145 C 0.63509 0.31824 0.85142 0.0
N1146 N 0.60486 0.05067 0.8827 0.0
N1147 N 0.63242 0.22578 0.8533 0.0
H1148 H 0.34896 0.9075 0.64094 0.0
H1149 H 0.38123 0.41009 0.60066 0.0
H1150 H 0.39212 0.95327 0.59322 0.0
H1151 H 0.33731 0.36411 0.6474 0.0
H1152 H 0.3859 0.24264 0.59817 0.0
H1153 H 0.34435 0.07494 0.64352 0.0
C1154 C 0.35736 0.95286 0.63092 0.0
C1155 C 0.37096 0.91693 0.6169 0.0
C1156 C 0.37526 0.26921 0.60901 0.0
C1157 C 0.36595 0.10787 0.61985 0.0
C1158 C 0.37267 0.36466 0.61047 0.0
C1159 C 0.35883 0.40052 0.62417 0.0
C1160 C 0.36393 0.20962 0.62135 0.0
C1161 C 0.34808 0.339 0.63655 0.0
C1162 C 0.3548 0.04832 0.63244 0.0
C1163 C 0.38153 0.97842 0.60429 0.0
N1164 N 0.35082 0.24655 0.63481 0.0
N1165 N 0.37884 0.07089 0.60611 0.0
H1166 H 0.59555 0.6712 0.61948 0.0
H1167 H 0.63709 0.18799 0.62131 0.0
H1168 H 0.65405 0.73319 0.61665 0.0
H1169 H 0.57879 0.12532 0.62738 0.0
H1170 H 0.6437 1.02143 0.61939 0.0
H1171 H 0.58897 0.83767 0.62185 0.0
C1172 C 0.60697 0.71984 0.6193 0.0
C1173 C 0.62534 0.68857 0.61789 0.0
C1174 C 0.62946 1.04417 0.62122 0.0
C1175 C 0.61804 0.87863 0.62063 0.0
C1176 C 0.62573 0.13915 0.62237 0.0
C1177 C 0.60739 0.17024 0.62454 0.0
C1178 C 0.61473 0.98014 0.62219 0.0
C1179 C 0.59315 0.10419 0.62572 0.0
C1180 C 0.60325 0.81479 0.6207 0.0
C1181 C 0.63966 0.75443 0.61773 0.0
N1182 N 0.59709 1.01254 0.62449 0.0
N1183 N 0.63573 0.84607 0.61909 0.0
loop_
_geom_bond_atom_site_label_1
_geom_bond_atom_site_label_2
_geom_bond_distance
_geom_bond_site_symmetry_2
_ccdc_geom_bond_type
Tb0 O3 2.453 . S
Tb0 O4 2.596 . S
Tb0 O5 2.374 . S
Tb0 O13 2.343 . S
Tb0 O15 2.353 . S
Tb0 O17 2.427 . S
Tb0 O18 2.513 . S
C1 O5 1.251 . S
C1 O7 1.263 . S
Tb2 O4 2.343 . S
Tb2 O7 2.353 . S
Tb2 O10 2.427 . S
Tb2 O11 2.513 . S
Tb2 O12 2.453 1_545 S
Tb2 O13 2.596 . S
Tb2 O14 2.374 . S
O3 Tb0 2.453 . S
O3 C19 1.245 . S
O4 Tb0 2.596 . S
O4 Tb2 2.343 . S
O4 C19 1.259 . S
O5 Tb0 2.374 . S
O5 C1 1.251 . S
C6 O10 1.275 . S
C6 O11 1.246 . S
O7 C1 1.263 . S
O7 Tb2 2.353 . S
C8 O12 1.245 . S
C8 O13 1.259 1_565 S
C9 O14 1.250 . S
C9 O15 1.263 . S
O10 Tb2 2.427 . S
O10 C6 1.275 . S
O11 Tb2 2.513 . S
O11 C6 1.246 . S
O12 Tb2 2.453 1_565 S
O12 C8 1.245 . S
O13 Tb0 2.343 . S
O13 Tb2 2.596 . S
O13 C8 1.259 1_545 S
O14 Tb2 2.374 . S
O14 C9 1.250 . S
O15 Tb0 2.353 . S
O15 C9 1.263 . S
C16 O17 1.275 . S
C16 O18 1.246 . S
O17 Tb0 2.427 . S
O17 C16 1.275 . S
O18 Tb0 2.513 . S
O18 C16 1.246 . S
C19 O3 1.245 . S
C19 O4 1.259 . S
Tb20 O23 2.453 . S
Tb20 O24 2.596 . S
Tb20 O25 2.374 . S
Tb20 O33 2.343 . S
Tb20 O35 2.353 . S
Tb20 O37 2.427 . S
Tb20 O38 2.513 . S
C21 O25 1.251 . S
C21 O27 1.263 . S
Tb22 O24 2.343 . S
Tb22 O27 2.353 . S
Tb22 O30 2.427 . S
Tb22 O31 2.513 . S
Tb22 O32 2.453 1_565 S
Tb22 O33 2.596 . S
Tb22 O34 2.374 . S
O23 Tb20 2.453 . S
O23 C39 1.245 . S
O24 Tb20 2.596 . S
O24 Tb22 2.343 . S
O24 C39 1.259 . S
O25 Tb20 2.374 . S
O25 C21 1.251 . S
C26 O30 1.275 . S
C26 O31 1.246 . S
O27 C21 1.263 . S
O27 Tb22 2.353 . S
C28 O32 1.245 . S
C28 O33 1.259 1_545 S
C29 O34 1.250 . S
C29 O35 1.263 . S
O30 Tb22 2.427 . S
O30 C26 1.275 . S
O31 Tb22 2.513 . S
O31 C26 1.246 . S
O32 Tb22 2.453 1_545 S
O32 C28 1.245 . S
O33 Tb20 2.343 . S
O33 Tb22 2.596 . S
O33 C28 1.259 1_565 S
O34 Tb22 2.374 . S
O34 C29 1.250 . S
O35 Tb20 2.353 . S
O35 C29 1.263 . S
C36 O37 1.275 . S
C36 O38 1.246 . S
O37 Tb20 2.427 . S
O37 C36 1.275 . S
O38 Tb20 2.513 . S
O38 C36 1.246 . S
C39 O23 1.245 . S
C39 O24 1.259 . S
Tb40 O43 2.453 . S
Tb40 O44 2.596 . S
Tb40 O45 2.374 . S
Tb40 O53 2.343 . S
Tb40 O55 2.353 . S
Tb40 O57 2.427 . S
Tb40 O58 2.513 . S
C41 O45 1.251 . S
C41 O47 1.263 . S
Tb42 O44 2.343 . S
Tb42 O47 2.353 . S
Tb42 O50 2.427 . S
Tb42 O51 2.513 . S
Tb42 O52 2.453 1_565 S
Tb42 O53 2.596 . S
Tb42 O54 2.374 . S
O43 Tb40 2.453 . S
O43 C59 1.245 . S
O44 Tb40 2.596 . S
O44 Tb42 2.343 . S
O44 C59 1.259 . S
O45 Tb40 2.374 . S
O45 C41 1.251 . S
C46 O50 1.275 . S
C46 O51 1.246 . S
O47 C41 1.263 . S
O47 Tb42 2.353 . S
C48 O52 1.245 . S
C48 O53 1.259 1_545 S
C49 O54 1.250 . S
C49 O55 1.263 . S
O50 Tb42 2.427 . S
O50 C46 1.275 . S
O51 Tb42 2.513 . S
O51 C46 1.246 . S
O52 Tb42 2.453 1_545 S
O52 C48 1.245 . S
O53 Tb40 2.343 . S
O53 Tb42 2.596 . S
O53 C48 1.259 1_565 S
O54 Tb42 2.374 . S
O54 C49 1.250 . S
O55 Tb40 2.353 . S
O55 C49 1.263 . S
C56 O57 1.275 . S
C56 O58 1.246 . S
O57 Tb40 2.427 . S
O57 C56 1.275 . S
O58 Tb40 2.513 . S
O58 C56 1.246 . S
C59 O43 1.245 . S
C59 O44 1.259 . S
Tb60 O63 2.453 . S
Tb60 O64 2.596 . S
Tb60 O65 2.374 . S
Tb60 O73 2.343 . S
Tb60 O75 2.353 . S
Tb60 O77 2.427 . S
Tb60 O78 2.513 . S
C61 O65 1.251 . S
C61 O67 1.263 . S
Tb62 O64 2.343 . S
Tb62 O67 2.353 . S
Tb62 O70 2.427 . S
Tb62 O71 2.513 . S
Tb62 O72 2.453 1_545 S
Tb62 O73 2.596 . S
Tb62 O74 2.374 . S
O63 Tb60 2.453 . S
O63 C79 1.245 . S
O64 Tb60 2.596 . S
O64 Tb62 2.343 . S
O64 C79 1.259 . S
O65 Tb60 2.374 . S
O65 C61 1.251 . S
C66 O70 1.275 . S
C66 O71 1.246 . S
O67 C61 1.263 . S
O67 Tb62 2.353 . S
C68 O72 1.245 . S
C68 O73 1.259 1_565 S
C69 O74 1.250 . S
C69 O75 1.263 . S
O70 Tb62 2.427 . S
O70 C66 1.275 . S
O71 Tb62 2.513 . S
O71 C66 1.246 . S
O72 Tb62 2.453 1_565 S
O72 C68 1.245 . S
O73 Tb60 2.343 . S
O73 Tb62 2.596 . S
O73 C68 1.259 1_545 S
O74 Tb62 2.374 . S
O74 C69 1.250 . S
O75 Tb60 2.353 . S
O75 C69 1.263 . S
C76 O77 1.275 . S
C76 O78 1.246 . S
O77 Tb60 2.427 . S
O77 C76 1.275 . S
O78 Tb60 2.513 . S
O78 C76 1.246 . S
C79 O63 1.245 . S
C79 O64 1.259 . S
Tb80 O83 2.453 1_565 S
Tb80 O84 2.596 . S
Tb80 O85 2.374 . S
Tb80 O93 2.343 . S
Tb80 O95 2.353 . S
Tb80 O97 2.427 . S
Tb80 O98 2.513 . S
C81 O85 1.251 . S
C81 O87 1.263 . S
Tb82 O84 2.343 . S
Tb82 O87 2.353 . S
Tb82 O90 2.427 . S
Tb82 O91 2.513 . S
Tb82 O92 2.453 . S
Tb82 O93 2.596 . S
Tb82 O94 2.374 . S
O83 Tb80 2.453 1_545 S
O83 C99 1.245 . S
O84 Tb80 2.596 . S
O84 Tb82 2.343 . S
O84 C99 1.259 1_565 S
O85 Tb80 2.374 . S
O85 C81 1.251 . S
C86 O90 1.275 . S
C86 O91 1.246 . S
O87 C81 1.263 . S
O87 Tb82 2.353 . S
C88 O92 1.245 . S
C88 O93 1.259 . S
C89 O94 1.250 . S
C89 O95 1.263 . S
O90 Tb82 2.427 . S
O90 C86 1.275 . S
O91 Tb82 2.513 . S
O91 C86 1.246 . S
O92 Tb82 2.453 . S
O92 C88 1.245 . S
O93 Tb80 2.343 . S
O93 Tb82 2.596 . S
O93 C88 1.259 . S
O94 Tb82 2.374 . S
O94 C89 1.250 . S
O95 Tb80 2.353 . S
O95 C89 1.263 . S
C96 O97 1.275 . S
C96 O98 1.246 . S
O97 Tb80 2.427 . S
O97 C96 1.275 . S
O98 Tb80 2.513 . S
O98 C96 1.246 . S
C99 O83 1.245 . S
C99 O84 1.259 1_545 S
Tb100 O103 2.453 1_545 S
Tb100 O104 2.596 . S
Tb100 O105 2.374 . S
Tb100 O113 2.343 . S
Tb100 O115 2.353 . S
Tb100 O117 2.427 . S
Tb100 O118 2.513 . S
C101 O105 1.251 . S
C101 O107 1.263 . S
Tb102 O104 2.343 . S
Tb102 O107 2.353 . S
Tb102 O110 2.427 . S
Tb102 O111 2.513 . S
Tb102 O112 2.453 . S
Tb102 O113 2.596 . S
Tb102 O114 2.374 . S
O103 Tb100 2.453 1_565 S
O103 C119 1.245 . S
O104 Tb100 2.596 . S
O104 Tb102 2.343 . S
O104 C119 1.259 1_545 S
O105 Tb100 2.374 . S
O105 C101 1.251 . S
C106 O110 1.275 . S
C106 O111 1.246 . S
O107 C101 1.263 . S
O107 Tb102 2.353 . S
C108 O112 1.245 . S
C108 O113 1.259 . S
C109 O114 1.250 . S
C109 O115 1.263 . S
O110 Tb102 2.427 . S
O110 C106 1.275 . S
O111 Tb102 2.513 . S
O111 C106 1.246 . S
O112 Tb102 2.453 . S
O112 C108 1.245 . S
O113 Tb100 2.343 . S
O113 Tb102 2.596 . S
O113 C108 1.259 . S
O114 Tb102 2.374 . S
O114 C109 1.250 . S
O115 Tb100 2.353 . S
O115 C109 1.263 . S
C116 O117 1.275 . S
C116 O118 1.246 . S
O117 Tb100 2.427 . S
O117 C116 1.275 . S
O118 Tb100 2.513 . S
O118 C116 1.246 . S
C119 O103 1.245 . S
C119 O104 1.259 1_565 S
Tb120 O123 2.453 1_545 S
Tb120 O124 2.596 . S
Tb120 O125 2.374 . S
Tb120 O133 2.343 . S
Tb120 O135 2.353 . S
Tb120 O137 2.427 . S
Tb120 O138 2.513 . S
C121 O125 1.251 . S
C121 O127 1.263 . S
Tb122 O124 2.343 . S
Tb122 O127 2.353 . S
Tb122 O130 2.427 . S
Tb122 O131 2.513 . S
Tb122 O132 2.453 . S
Tb122 O133 2.596 . S
Tb122 O134 2.374 . S
O123 Tb120 2.453 1_565 S
O123 C139 1.245 . S
O124 Tb120 2.596 . S
O124 Tb122 2.343 . S
O124 C139 1.259 1_545 S
O125 Tb120 2.374 . S
O125 C121 1.251 . S
C126 O130 1.275 . S
C126 O131 1.246 . S
O127 C121 1.263 . S
O127 Tb122 2.353 . S
C128 O132 1.245 . S
C128 O133 1.259 . S
C129 O134 1.250 . S
C129 O135 1.263 . S
O130 Tb122 2.427 . S
O130 C126 1.275 . S
O131 Tb122 2.513 . S
O131 C126 1.246 . S
O132 Tb122 2.453 . S
O132 C128 1.245 . S
O133 Tb120 2.343 . S
O133 Tb122 2.596 . S
O133 C128 1.259 . S
O134 Tb122 2.374 . S
O134 C129 1.250 . S
O135 Tb120 2.353 . S
O135 C129 1.263 . S
C136 O137 1.275 . S
C136 O138 1.246 . S
O137 Tb120 2.427 . S
O137 C136 1.275 . S
O138 Tb120 2.513 . S
O138 C136 1.246 . S
C139 O123 1.245 . S
C139 O124 1.259 1_565 S
Tb140 O143 2.453 1_565 S
Tb140 O144 2.596 . S
Tb140 O145 2.374 . S
Tb140 O153 2.343 . S
Tb140 O155 2.353 . S
Tb140 O157 2.427 . S
Tb140 O158 2.513 . S
C141 O145 1.251 . S
C141 O147 1.263 . S
Tb142 O144 2.343 . S
Tb142 O147 2.353 . S
Tb142 O150 2.427 . S
Tb142 O151 2.513 . S
Tb142 O152 2.453 . S
Tb142 O153 2.596 . S
Tb142 O154 2.374 . S
O143 Tb140 2.453 1_545 S
O143 C159 1.245 . S
O144 Tb140 2.596 . S
O144 Tb142 2.343 . S
O144 C159 1.259 1_565 S
O145 Tb140 2.374 . S
O145 C141 1.251 . S
C146 O150 1.275 . S
C146 O151 1.246 . S
O147 C141 1.263 . S
O147 Tb142 2.353 . S
C148 O152 1.245 . S
C148 O153 1.259 . S
C149 O154 1.250 . S
C149 O155 1.263 . S
O150 Tb142 2.427 . S
O150 C146 1.275 . S
O151 Tb142 2.513 . S
O151 C146 1.246 . S
O152 Tb142 2.453 . S
O152 C148 1.245 . S
O153 Tb140 2.343 . S
O153 Tb142 2.596 . S
O153 C148 1.259 . S
O154 Tb142 2.374 . S
O154 C149 1.250 . S
O155 Tb140 2.353 . S
O155 C149 1.263 . S
C156 O157 1.275 . S
C156 O158 1.246 . S
O157 Tb140 2.427 . S
O157 C156 1.275 . S
O158 Tb140 2.513 . S
O158 C156 1.246 . S
C159 O143 1.245 . S
C159 O144 1.259 1_545 S
Tb160 O163 2.453 . S
Tb160 O164 2.596 . S
Tb160 O165 2.374 . S
Tb160 O173 2.343 . S
Tb160 O175 2.353 . S
Tb160 O177 2.427 . S
Tb160 O178 2.513 . S
C161 O165 1.251 . S
C161 O167 1.263 . S
Tb162 O164 2.343 . S
Tb162 O167 2.353 . S
Tb162 O170 2.427 . S
Tb162 O171 2.513 . S
Tb162 O172 2.453 . S
Tb162 O173 2.596 . S
Tb162 O174 2.374 . S
O163 Tb160 2.453 . S
O163 C179 1.245 . S
O164 Tb160 2.596 . S
O164 Tb162 2.343 . S
O164 C179 1.259 . S
O165 Tb160 2.374 . S
O165 C161 1.251 . S
C166 O170 1.275 . S
C166 O171 1.246 . S
O167 C161 1.263 . S
O167 Tb162 2.353 . S
C168 O172 1.245 . S
C168 O173 1.259 . S
C169 O174 1.250 . S
C169 O175 1.263 . S
O170 Tb162 2.427 . S
O170 C166 1.275 . S
O171 Tb162 2.513 . S
O171 C166 1.246 . S
O172 Tb162 2.453 . S
O172 C168 1.245 . S
O173 Tb160 2.343 . S
O173 Tb162 2.596 . S
O173 C168 1.259 . S
O174 Tb162 2.374 . S
O174 C169 1.250 . S
O175 Tb160 2.353 . S
O175 C169 1.263 . S
C176 O177 1.275 . S
C176 O178 1.246 . S
O177 Tb160 2.427 . S
O177 C176 1.275 . S
O178 Tb160 2.513 . S
O178 C176 1.246 . S
C179 O163 1.245 . S
C179 O164 1.259 . S
Tb180 O183 2.453 . S
Tb180 O184 2.596 . S
Tb180 O185 2.374 . S
Tb180 O193 2.343 . S
Tb180 O195 2.353 . S
Tb180 O197 2.427 . S
Tb180 O198 2.513 . S
C181 O185 1.251 . S
C181 O187 1.263 . S
Tb182 O184 2.343 . S
Tb182 O187 2.353 . S
Tb182 O190 2.427 . S
Tb182 O191 2.513 . S
Tb182 O192 2.453 . S
Tb182 O193 2.596 . S
Tb182 O194 2.374 . S
O183 Tb180 2.453 . S
O183 C199 1.245 . S
O184 Tb180 2.596 . S
O184 Tb182 2.343 . S
O184 C199 1.259 . S
O185 Tb180 2.374 . S
O185 C181 1.251 . S
C186 O190 1.275 . S
C186 O191 1.246 . S
O187 C181 1.263 . S
O187 Tb182 2.353 . S
C188 O192 1.245 . S
C188 O193 1.259 . S
C189 O194 1.250 . S
C189 O195 1.263 . S
O190 Tb182 2.427 . S
O190 C186 1.275 . S
O191 Tb182 2.513 . S
O191 C186 1.246 . S
O192 Tb182 2.453 . S
O192 C188 1.245 . S
O193 Tb180 2.343 . S
O193 Tb182 2.596 . S
O193 C188 1.259 . S
O194 Tb182 2.374 . S
O194 C189 1.250 . S
O195 Tb180 2.353 . S
O195 C189 1.263 . S
C196 O197 1.275 . S
C196 O198 1.246 . S
O197 Tb180 2.427 . S
O197 C196 1.275 . S
O198 Tb180 2.513 . S
O198 C196 1.246 . S
C199 O183 1.245 . S
C199 O184 1.259 . S
Tb200 O203 2.453 . S
Tb200 O204 2.596 . S
Tb200 O205 2.374 . S
Tb200 O213 2.343 . S
Tb200 O215 2.353 . S
Tb200 O217 2.427 . S
Tb200 O218 2.513 . S
C201 O205 1.251 . S
C201 O207 1.263 . S
Tb202 O204 2.343 . S
Tb202 O207 2.353 . S
Tb202 O210 2.427 . S
Tb202 O211 2.513 . S
Tb202 O212 2.453 . S
Tb202 O213 2.596 . S
Tb202 O214 2.374 . S
O203 Tb200 2.453 . S
O203 C219 1.245 . S
O204 Tb200 2.596 . S
O204 Tb202 2.343 . S
O204 C219 1.259 . S
O205 Tb200 2.374 . S
O205 C201 1.251 . S
C206 O210 1.275 . S
C206 O211 1.246 . S
O207 C201 1.263 . S
O207 Tb202 2.353 . S
C208 O212 1.245 . S
C208 O213 1.259 . S
C209 O214 1.250 . S
C209 O215 1.263 . S
O210 Tb202 2.427 . S
O210 C206 1.275 . S
O211 Tb202 2.513 . S
O211 C206 1.246 . S
O212 Tb202 2.453 . S
O212 C208 1.245 . S
O213 Tb200 2.343 . S
O213 Tb202 2.596 . S
O213 C208 1.259 . S
O214 Tb202 2.374 . S
O214 C209 1.250 . S
O215 Tb200 2.353 . S
O215 C209 1.263 . S
C216 O217 1.275 . S
C216 O218 1.246 . S
O217 Tb200 2.427 . S
O217 C216 1.275 . S
O218 Tb200 2.513 . S
O218 C216 1.246 . S
C219 O203 1.245 . S
C219 O204 1.259 . S
Tb220 O223 2.453 . S
Tb220 O224 2.596 . S
Tb220 O225 2.374 . S
Tb220 O233 2.343 . S
Tb220 O235 2.353 . S
Tb220 O237 2.427 . S
Tb220 O238 2.513 . S
C221 O225 1.251 . S
C221 O227 1.263 . S
Tb222 O224 2.343 . S
Tb222 O227 2.353 . S
Tb222 O230 2.427 . S
Tb222 O231 2.513 . S
Tb222 O232 2.453 . S
Tb222 O233 2.596 . S
Tb222 O234 2.374 . S
O223 Tb220 2.453 . S
O223 C239 1.245 . S
O224 Tb220 2.596 . S
O224 Tb222 2.343 . S
O224 C239 1.259 . S
O225 Tb220 2.374 . S
O225 C221 1.251 . S
C226 O230 1.275 . S
C226 O231 1.246 . S
O227 C221 1.263 . S
O227 Tb222 2.353 . S
C228 O232 1.245 . S
C228 O233 1.259 . S
C229 O234 1.250 . S
C229 O235 1.263 . S
O230 Tb222 2.427 . S
O230 C226 1.275 . S
O231 Tb222 2.513 . S
O231 C226 1.246 . S
O232 Tb222 2.453 . S
O232 C228 1.245 . S
O233 Tb220 2.343 . S
O233 Tb222 2.596 . S
O233 C228 1.259 . S
O234 Tb222 2.374 . S
O234 C229 1.250 . S
O235 Tb220 2.353 . S
O235 C229 1.263 . S
C236 O237 1.275 . S
C236 O238 1.246 . S
O237 Tb220 2.427 . S
O237 C236 1.275 . S
O238 Tb220 2.513 . S
O238 C236 1.246 . S
C239 O223 1.245 . S
C239 O224 1.259 . S
Tb240 O243 2.453 . S
Tb240 O244 2.596 . S
Tb240 O245 2.374 . S
Tb240 O253 2.343 . S
Tb240 O255 2.353 . S
Tb240 O257 2.427 . S
Tb240 O258 2.513 . S
C241 O245 1.251 . S
C241 O247 1.263 . S
Tb242 O244 2.343 . S
Tb242 O247 2.353 . S
Tb242 O250 2.427 . S
Tb242 O251 2.513 . S
Tb242 O252 2.453 . S
Tb242 O253 2.596 . S
Tb242 O254 2.374 . S
O243 Tb240 2.453 . S
O243 C259 1.245 . S
O244 Tb240 2.596 . S
O244 Tb242 2.343 . S
O244 C259 1.259 . S
O245 Tb240 2.374 . S
O245 C241 1.251 . S
C246 O250 1.275 . S
C246 O251 1.246 . S
O247 C241 1.263 . S
O247 Tb242 2.353 . S
C248 O252 1.245 . S
C248 O253 1.259 . S
C249 O254 1.250 . S
C249 O255 1.263 . S
O250 Tb242 2.427 . S
O250 C246 1.275 . S
O251 Tb242 2.513 . S
O251 C246 1.246 . S
O252 Tb242 2.453 . S
O252 C248 1.245 . S
O253 Tb240 2.343 . S
O253 Tb242 2.596 . S
O253 C248 1.259 . S
O254 Tb242 2.374 . S
O254 C249 1.250 . S
O255 Tb240 2.353 . S
O255 C249 1.263 . S
C256 O257 1.275 . S
C256 O258 1.246 . S
O257 Tb240 2.427 . S
O257 C256 1.275 . S
O258 Tb240 2.513 . S
O258 C256 1.246 . S
C259 O243 1.245 . S
C259 O244 1.259 . S
Tb260 O263 2.453 . S
Tb260 O264 2.596 . S
Tb260 O265 2.374 . S
Tb260 O273 2.343 . S
Tb260 O275 2.353 . S
Tb260 O277 2.427 . S
Tb260 O278 2.513 . S
C261 O265 1.251 . S
C261 O267 1.263 . S
Tb262 O264 2.343 . S
Tb262 O267 2.353 . S
Tb262 O270 2.427 . S
Tb262 O271 2.513 . S
Tb262 O272 2.453 . S
Tb262 O273 2.596 . S
Tb262 O274 2.374 . S
O263 Tb260 2.453 . S
O263 C279 1.245 . S
O264 Tb260 2.596 . S
O264 Tb262 2.343 . S
O264 C279 1.259 . S
O265 Tb260 2.374 . S
O265 C261 1.251 . S
C266 O270 1.275 . S
C266 O271 1.246 . S
O267 C261 1.263 . S
O267 Tb262 2.353 . S
C268 O272 1.245 . S
C268 O273 1.259 . S
C269 O274 1.250 . S
C269 O275 1.263 . S
O270 Tb262 2.427 . S
O270 C266 1.275 . S
O271 Tb262 2.513 . S
O271 C266 1.246 . S
O272 Tb262 2.453 . S
O272 C268 1.245 . S
O273 Tb260 2.343 . S
O273 Tb262 2.596 . S
O273 C268 1.259 . S
O274 Tb262 2.374 . S
O274 C269 1.250 . S
O275 Tb260 2.353 . S
O275 C269 1.263 . S
C276 O277 1.275 . S
C276 O278 1.246 . S
O277 Tb260 2.427 . S
O277 C276 1.275 . S
O278 Tb260 2.513 . S
O278 C276 1.246 . S
C279 O263 1.245 . S
C279 O264 1.259 . S
Tb280 O283 2.453 . S
Tb280 O284 2.596 . S
Tb280 O285 2.374 . S
Tb280 O293 2.343 . S
Tb280 O295 2.353 . S
Tb280 O297 2.427 . S
Tb280 O298 2.513 . S
C281 O285 1.251 . S
C281 O287 1.263 . S
Tb282 O284 2.343 . S
Tb282 O287 2.353 . S
Tb282 O290 2.427 . S
Tb282 O291 2.513 . S
Tb282 O292 2.453 . S
Tb282 O293 2.596 . S
Tb282 O294 2.374 . S
O283 Tb280 2.453 . S
O283 C299 1.245 . S
O284 Tb280 2.596 . S
O284 Tb282 2.343 . S
O284 C299 1.259 . S
O285 Tb280 2.374 . S
O285 C281 1.251 . S
C286 O290 1.275 . S
C286 O291 1.246 . S
O287 C281 1.263 . S
O287 Tb282 2.353 . S
C288 O292 1.245 . S
C288 O293 1.259 . S
C289 O294 1.250 . S
C289 O295 1.263 . S
O290 Tb282 2.427 . S
O290 C286 1.275 . S
O291 Tb282 2.513 . S
O291 C286 1.246 . S
O292 Tb282 2.453 . S
O292 C288 1.245 . S
O293 Tb280 2.343 . S
O293 Tb282 2.596 . S
O293 C288 1.259 . S
O294 Tb282 2.374 . S
O294 C289 1.250 . S
O295 Tb280 2.353 . S
O295 C289 1.263 . S
C296 O297 1.275 . S
C296 O298 1.246 . S
O297 Tb280 2.427 . S
O297 C296 1.275 . S
O298 Tb280 2.513 . S
O298 C296 1.246 . S
C299 O283 1.245 . S
C299 O284 1.259 . S
Tb300 O303 2.453 . S
Tb300 O304 2.596 . S
Tb300 O305 2.374 . S
Tb300 O313 2.343 . S
Tb300 O315 2.353 . S
Tb300 O317 2.427 . S
Tb300 O318 2.513 . S
C301 O305 1.251 . S
C301 O307 1.263 . S
Tb302 O304 2.343 . S
Tb302 O307 2.353 . S
Tb302 O310 2.427 . S
Tb302 O311 2.513 . S
Tb302 O312 2.453 . S
Tb302 O313 2.596 . S
Tb302 O314 2.374 . S
O303 Tb300 2.453 . S
O303 C319 1.245 . S
O304 Tb300 2.596 . S
O304 Tb302 2.343 . S
O304 C319 1.259 . S
O305 Tb300 2.374 . S
O305 C301 1.251 . S
C306 O310 1.275 . S
C306 O311 1.246 . S
O307 C301 1.263 . S
O307 Tb302 2.353 . S
C308 O312 1.245 . S
C308 O313 1.259 . S
C309 O314 1.250 . S
C309 O315 1.263 . S
O310 Tb302 2.427 . S
O310 C306 1.275 . S
O311 Tb302 2.513 . S
O311 C306 1.246 . S
O312 Tb302 2.453 . S
O312 C308 1.245 . S
O313 Tb300 2.343 . S
O313 Tb302 2.596 . S
O313 C308 1.259 . S
O314 Tb302 2.374 . S
O314 C309 1.250 . S
O315 Tb300 2.353 . S
O315 C309 1.263 . S
C316 O317 1.275 . S
C316 O318 1.246 . S
O317 Tb300 2.427 . S
O317 C316 1.275 . S
O318 Tb300 2.513 . S
O318 C316 1.246 . S
C319 O303 1.245 . S
C319 O304 1.259 . S
H320 C326 0.930 . S
H321 C330 0.930 . S
H322 C335 0.929 . S
H323 C333 0.929 . S
H324 C328 0.929 . S
H325 C334 0.929 . S
C326 H320 0.930 . S
C326 C327 1.367 . S
C326 C334 1.378 . S
C327 C326 1.367 . S
C327 C335 1.433 . S
C328 H324 0.929 . S
C328 C330 1.378 . S
C328 C332 1.350 . S
C329 C332 1.463 . S
C329 C334 1.350 . S
C329 N337 1.427 . S
C330 H321 0.930 . S
C330 C328 1.378 . S
C330 C331 1.367 . S
C331 C330 1.367 . S
C331 C333 1.433 . S
C332 C328 1.350 . S
C332 C329 1.463 . S
C332 N336 1.427 . S
C333 H323 0.929 . S
C333 C331 1.433 . S
C333 N336 1.384 . S
C334 H325 0.929 . S
C334 C326 1.378 . S
C334 C329 1.350 . S
C335 H322 0.929 . S
C335 C327 1.433 . S
C335 N337 1.384 . S
N336 C332 1.427 . S
N336 C333 1.384 . S
N337 C329 1.427 . S
N337 C335 1.384 . S
H338 C344 0.930 . S
H339 C348 0.930 . S
H340 C353 0.929 . S
H341 C351 0.929 . S
H342 C346 0.929 . S
H343 C352 0.929 . S
C344 H338 0.930 . S
C344 C345 1.367 . S
C344 C352 1.378 . S
C345 C344 1.367 . S
C345 C353 1.433 . S
C346 H342 0.929 . S
C346 C348 1.378 . S
C346 C350 1.350 . S
C347 C350 1.463 . S
C347 C352 1.350 . S
C347 N355 1.427 . S
C348 H339 0.930 . S
C348 C346 1.378 . S
C348 C349 1.367 . S
C349 C348 1.367 . S
C349 C351 1.433 . S
C350 C346 1.350 . S
C350 C347 1.463 . S
C350 N354 1.427 . S
C351 H341 0.929 . S
C351 C349 1.433 . S
C351 N354 1.384 . S
C352 H343 0.929 . S
C352 C344 1.378 . S
C352 C347 1.350 . S
C353 H340 0.929 . S
C353 C345 1.433 . S
C353 N355 1.384 . S
N354 C350 1.427 . S
N354 C351 1.384 . S
N355 C347 1.427 . S
N355 C353 1.384 . S
H356 C362 0.930 . S
H357 C366 0.930 . S
H358 C371 0.929 . S
H359 C369 0.929 . S
H360 C364 0.929 . S
H361 C370 0.929 . S
C362 H356 0.930 . S
C362 C363 1.367 . S
C362 C370 1.378 . S
C363 C362 1.367 . S
C363 C371 1.433 . S
C364 H360 0.929 . S
C364 C366 1.378 . S
C364 C368 1.350 . S
C365 C368 1.463 . S
C365 C370 1.350 . S
C365 N373 1.427 . S
C366 H357 0.930 . S
C366 C364 1.378 . S
C366 C367 1.367 . S
C367 C366 1.367 . S
C367 C369 1.433 . S
C368 C364 1.350 . S
C368 C365 1.463 . S
C368 N372 1.427 . S
C369 H359 0.929 . S
C369 C367 1.433 . S
C369 N372 1.384 . S
C370 H361 0.929 . S
C370 C362 1.378 . S
C370 C365 1.350 . S
C371 H358 0.929 . S
C371 C363 1.433 . S
C371 N373 1.384 . S
N372 C368 1.427 . S
N372 C369 1.384 . S
N373 C365 1.427 . S
N373 C371 1.384 . S
H374 C380 0.930 . S
H375 C384 0.930 . S
H376 C389 0.929 . S
H377 C387 0.929 . S
H378 C382 0.929 . S
H379 C388 0.929 . S
C380 H374 0.930 . S
C380 C381 1.367 . S
C380 C388 1.378 . S
C381 C380 1.367 . S
C381 C389 1.433 . S
C382 H378 0.929 . S
C382 C384 1.378 . S
C382 C386 1.350 . S
C383 C386 1.463 . S
C383 C388 1.350 . S
C383 N391 1.427 . S
C384 H375 0.930 . S
C384 C382 1.378 . S
C384 C385 1.367 . S
C385 C384 1.367 . S
C385 C387 1.433 . S
C386 C382 1.350 . S
C386 C383 1.463 . S
C386 N390 1.427 . S
C387 H377 0.929 . S
C387 C385 1.433 . S
C387 N390 1.384 . S
C388 H379 0.929 . S
C388 C380 1.378 . S
C388 C383 1.350 . S
C389 H376 0.929 . S
C389 C381 1.433 . S
C389 N391 1.384 . S
N390 C386 1.427 . S
N390 C387 1.384 . S
N391 C383 1.427 . S
N391 C389 1.384 . S
H392 C398 0.930 . S
H393 C402 0.930 . S
H394 C407 0.929 . S
H395 C405 0.929 . S
H396 C400 0.929 . S
H397 C406 0.929 . S
C398 H392 0.930 . S
C398 C399 1.367 . S
C398 C406 1.378 . S
C399 C398 1.367 . S
C399 C407 1.433 . S
C400 H396 0.929 . S
C400 C402 1.378 . S
C400 C404 1.350 . S
C401 C404 1.463 . S
C401 C406 1.350 . S
C401 N409 1.427 . S
C402 H393 0.930 . S
C402 C400 1.378 . S
C402 C403 1.367 . S
C403 C402 1.367 . S
C403 C405 1.433 . S
C404 C400 1.350 . S
C404 C401 1.463 . S
C404 N408 1.427 . S
C405 H395 0.929 . S
C405 C403 1.433 . S
C405 N408 1.384 . S
C406 H397 0.929 . S
C406 C398 1.378 . S
C406 C401 1.350 . S
C407 H394 0.929 . S
C407 C399 1.433 . S
C407 N409 1.384 . S
N408 C404 1.427 . S
N408 C405 1.384 . S
N409 C401 1.427 . S
N409 C407 1.384 . S
H410 C416 0.930 . S
H411 C420 0.930 . S
H412 C425 0.929 . S
H413 C423 0.929 . S
H414 C418 0.929 . S
H415 C424 0.929 . S
C416 H410 0.930 . S
C416 C417 1.367 . S
C416 C424 1.378 . S
C417 C416 1.367 . S
C417 C425 1.433 . S
C418 H414 0.929 . S
C418 C420 1.378 . S
C418 C422 1.350 . S
C419 C422 1.463 . S
C419 C424 1.350 . S
C419 N427 1.427 . S
C420 H411 0.930 . S
C420 C418 1.378 . S
C420 C421 1.367 . S
C421 C420 1.367 . S
C421 C423 1.433 . S
C422 C418 1.350 . S
C422 C419 1.463 . S
C422 N426 1.427 . S
C423 H413 0.929 . S
C423 C421 1.433 . S
C423 N426 1.384 . S
C424 H415 0.929 . S
C424 C416 1.378 . S
C424 C419 1.350 . S
C425 H412 0.929 . S
C425 C417 1.433 . S
C425 N427 1.384 . S
N426 C422 1.427 . S
N426 C423 1.384 . S
N427 C419 1.427 . S
N427 C425 1.384 . S
H428 C434 0.930 . S
H429 C438 0.930 . S
H430 C443 0.929 . S
H431 C441 0.929 . S
H432 C436 0.929 . S
H433 C442 0.929 . S
C434 H428 0.930 . S
C434 C435 1.367 . S
C434 C442 1.378 . S
C435 C434 1.367 . S
C435 C443 1.433 . S
C436 H432 0.929 . S
C436 C438 1.378 . S
C436 C440 1.350 . S
C437 C440 1.463 . S
C437 C442 1.350 . S
C437 N445 1.427 . S
C438 H429 0.930 . S
C438 C436 1.378 . S
C438 C439 1.367 . S
C439 C438 1.367 . S
C439 C441 1.433 . S
C440 C436 1.350 . S
C440 C437 1.463 . S
C440 N444 1.427 . S
C441 H431 0.929 . S
C441 C439 1.433 . S
C441 N444 1.384 . S
C442 H433 0.929 . S
C442 C434 1.378 . S
C442 C437 1.350 . S
C443 H430 0.929 . S
C443 C435 1.433 . S
C443 N445 1.384 . S
N444 C440 1.427 . S
N444 C441 1.384 . S
N445 C437 1.427 . S
N445 C443 1.384 . S
H446 C452 0.930 . S
H447 C456 0.930 . S
H448 C461 0.929 . S
H449 C459 0.929 . S
H450 C454 0.929 . S
H451 C460 0.929 . S
C452 H446 0.930 . S
C452 C453 1.367 . S
C452 C460 1.378 . S
C453 C452 1.367 . S
C453 C461 1.433 . S
C454 H450 0.929 . S
C454 C456 1.378 . S
C454 C458 1.350 . S
C455 C458 1.463 . S
C455 C460 1.350 . S
C455 N463 1.427 . S
C456 H447 0.930 . S
C456 C454 1.378 . S
C456 C457 1.367 . S
C457 C456 1.367 . S
C457 C459 1.433 . S
C458 C454 1.350 . S
C458 C455 1.463 . S
C458 N462 1.427 . S
C459 H449 0.929 . S
C459 C457 1.433 . S
C459 N462 1.384 . S
C460 H451 0.929 . S
C460 C452 1.378 . S
C460 C455 1.350 . S
C461 H448 0.929 . S
C461 C453 1.433 . S
C461 N463 1.384 . S
N462 C458 1.427 . S
N462 C459 1.384 . S
N463 C455 1.427 . S
N463 C461 1.384 . S
H464 C470 0.930 . S
H465 C474 0.930 . S
H466 C479 0.929 . S
H467 C477 0.929 . S
H468 C472 0.929 . S
H469 C478 0.929 . S
C470 H464 0.930 . S
C470 C471 1.367 . S
C470 C478 1.378 . S
C471 C470 1.367 . S
C471 C479 1.433 1_565 S
C472 H468 0.929 . S
C472 C474 1.378 . S
C472 C476 1.350 . S
C473 C476 1.463 1_565 S
C473 C478 1.350 . S
C473 N481 1.427 1_565 S
C474 H465 0.930 . S
C474 C472 1.378 . S
C474 C475 1.367 . S
C475 C474 1.367 . S
C475 C477 1.433 1_545 S
C476 C472 1.350 . S
C476 C473 1.463 1_545 S
C476 N480 1.427 1_545 S
C477 H467 0.929 . S
C477 C475 1.433 1_565 S
C477 N480 1.384 . S
C478 H469 0.929 . S
C478 C470 1.378 . S
C478 C473 1.350 . S
C479 H466 0.929 . S
C479 C471 1.433 1_545 S
C479 N481 1.384 . S
N480 C476 1.427 1_565 S
N480 C477 1.384 . S
N481 C473 1.427 1_545 S
N481 C479 1.384 . S
H482 C488 0.930 . S
H483 C492 0.930 . S
H484 C497 0.929 . S
H485 C495 0.929 . S
H486 C490 0.929 . S
H487 C496 0.929 . S
C488 H482 0.930 . S
C488 C489 1.367 . S
C488 C496 1.378 . S
C489 C488 1.367 . S
C489 C497 1.433 1_545 S
C490 H486 0.929 . S
C490 C492 1.378 . S
C490 C494 1.350 . S
C491 C494 1.463 1_545 S
C491 C496 1.350 . S
C491 N499 1.427 1_545 S
C492 H483 0.930 . S
C492 C490 1.378 . S
C492 C493 1.367 . S
C493 C492 1.367 . S
C493 C495 1.433 1_565 S
C494 C490 1.350 . S
C494 C491 1.463 1_565 S
C494 N498 1.427 1_565 S
C495 H485 0.929 . S
C495 C493 1.433 1_545 S
C495 N498 1.384 . S
C496 H487 0.929 . S
C496 C488 1.378 . S
C496 C491 1.350 . S
C497 H484 0.929 . S
C497 C489 1.433 1_565 S
C497 N499 1.384 . S
N498 C494 1.427 1_545 S
N498 C495 1.384 . S
N499 C491 1.427 1_565 S
N499 C497 1.384 . S
H500 C506 0.930 . S
H501 C510 0.930 . S
H502 C515 0.929 . S
H503 C513 0.929 . S
H504 C508 0.929 . S
H505 C514 0.929 . S
C506 H500 0.930 . S
C506 C507 1.367 . S
C506 C514 1.378 . S
C507 C506 1.367 . S
C507 C515 1.433 1_545 S
C508 H504 0.929 . S
C508 C510 1.378 . S
C508 C512 1.350 . S
C509 C512 1.463 1_545 S
C509 C514 1.350 . S
C509 N517 1.427 1_545 S
C510 H501 0.930 . S
C510 C508 1.378 . S
C510 C511 1.367 . S
C511 C510 1.367 . S
C511 C513 1.433 1_565 S
C512 C508 1.350 . S
C512 C509 1.463 1_565 S
C512 N516 1.427 1_565 S
C513 H503 0.929 . S
C513 C511 1.433 1_545 S
C513 N516 1.384 . S
C514 H505 0.929 . S
C514 C506 1.378 . S
C514 C509 1.350 . S
C515 H502 0.929 . S
C515 C507 1.433 1_565 S
C515 N517 1.384 . S
N516 C512 1.427 1_545 S
N516 C513 1.384 . S
N517 C509 1.427 1_565 S
N517 C515 1.384 . S
H518 C524 0.930 . S
H519 C528 0.930 . S
H520 C533 0.929 . S
H521 C531 0.929 . S
H522 C526 0.929 . S
H523 C532 0.929 . S
C524 H518 0.930 . S
C524 C525 1.367 1_565 S
C524 C532 1.378 . S
C525 C524 1.367 1_545 S
C525 C533 1.433 . S
C526 H522 0.929 . S
C526 C528 1.378 . S
C526 C530 1.350 1_545 S
C527 C530 1.463 1_545 S
C527 C532 1.350 1_545 S
C527 N535 1.427 . S
C528 H519 0.930 . S
C528 C526 1.378 . S
C528 C529 1.367 1_545 S
C529 C528 1.367 1_565 S
C529 C531 1.433 . S
C530 C526 1.350 1_565 S
C530 C527 1.463 1_565 S
C530 N534 1.427 . S
C531 H521 0.929 . S
C531 C529 1.433 . S
C531 N534 1.384 . S
C532 H523 0.929 . S
C532 C524 1.378 . S
C532 C527 1.350 1_565 S
C533 H520 0.929 . S
C533 C525 1.433 . S
C533 N535 1.384 . S
N534 C530 1.427 . S
N534 C531 1.384 . S
N535 C527 1.427 . S
N535 C533 1.384 . S
H536 C542 0.930 . S
H537 C546 0.930 . S
H538 C551 0.929 . S
H539 C549 0.929 . S
H540 C544 0.929 . S
H541 C550 0.929 . S
C542 H536 0.930 . S
C542 C543 1.367 . S
C542 C550 1.378 . S
C543 C542 1.367 . S
C543 C551 1.433 . S
C544 H540 0.929 . S
C544 C546 1.378 . S
C544 C548 1.350 . S
C545 C548 1.463 . S
C545 C550 1.350 . S
C545 N553 1.427 . S
C546 H537 0.930 . S
C546 C544 1.378 . S
C546 C547 1.367 . S
C547 C546 1.367 . S
C547 C549 1.433 . S
C548 C544 1.350 . S
C548 C545 1.463 . S
C548 N552 1.427 . S
C549 H539 0.929 . S
C549 C547 1.433 . S
C549 N552 1.384 . S
C550 H541 0.929 . S
C550 C542 1.378 . S
C550 C545 1.350 . S
C551 H538 0.929 . S
C551 C543 1.433 . S
C551 N553 1.384 . S
N552 C548 1.427 . S
N552 C549 1.384 . S
N553 C545 1.427 . S
N553 C551 1.384 . S
H554 C560 0.930 . S
H555 C564 0.930 . S
H556 C569 0.929 . S
H557 C567 0.929 . S
H558 C562 0.929 . S
H559 C568 0.929 . S
C560 H554 0.930 . S
C560 C561 1.367 . S
C560 C568 1.378 . S
C561 C560 1.367 . S
C561 C569 1.433 . S
C562 H558 0.929 . S
C562 C564 1.378 . S
C562 C566 1.350 . S
C563 C566 1.463 . S
C563 C568 1.350 . S
C563 N571 1.427 . S
C564 H555 0.930 . S
C564 C562 1.378 . S
C564 C565 1.367 . S
C565 C564 1.367 . S
C565 C567 1.433 . S
C566 C562 1.350 . S
C566 C563 1.463 . S
C566 N570 1.427 . S
C567 H557 0.929 . S
C567 C565 1.433 . S
C567 N570 1.384 . S
C568 H559 0.929 . S
C568 C560 1.378 . S
C568 C563 1.350 . S
C569 H556 0.929 . S
C569 C561 1.433 . S
C569 N571 1.384 . S
N570 C566 1.427 . S
N570 C567 1.384 . S
N571 C563 1.427 . S
N571 C569 1.384 . S
H572 C578 0.930 . S
H573 C582 0.930 . S
H574 C587 0.929 . S
H575 C585 0.929 . S
H576 C580 0.929 . S
H577 C586 0.929 . S
C578 H572 0.930 . S
C578 C579 1.367 . S
C578 C586 1.378 . S
C579 C578 1.367 . S
C579 C587 1.433 . S
C580 H576 0.929 . S
C580 C582 1.378 . S
C580 C584 1.350 . S
C581 C584 1.463 . S
C581 C586 1.350 . S
C581 N589 1.427 . S
C582 H573 0.930 . S
C582 C580 1.378 . S
C582 C583 1.367 . S
C583 C582 1.367 . S
C583 C585 1.433 . S
C584 C580 1.350 . S
C584 C581 1.463 . S
C584 N588 1.427 . S
C585 H575 0.929 . S
C585 C583 1.433 . S
C585 N588 1.384 . S
C586 H577 0.929 . S
C586 C578 1.378 . S
C586 C581 1.350 . S
C587 H574 0.929 . S
C587 C579 1.433 . S
C587 N589 1.384 . S
N588 C584 1.427 . S
N588 C585 1.384 . S
N589 C581 1.427 . S
N589 C587 1.384 . S
H590 C596 0.930 . S
H591 C600 0.930 . S
H592 C605 0.929 . S
H593 C603 0.929 . S
H594 C598 0.929 . S
H595 C604 0.929 . S
C596 H590 0.930 . S
C596 C597 1.367 . S
C596 C604 1.378 . S
C597 C596 1.367 . S
C597 C605 1.433 . S
C598 H594 0.929 . S
C598 C600 1.378 . S
C598 C602 1.350 . S
C599 C602 1.463 . S
C599 C604 1.350 . S
C599 N607 1.427 . S
C600 H591 0.930 . S
C600 C598 1.378 . S
C600 C601 1.367 . S
C601 C600 1.367 . S
C601 C603 1.433 . S
C602 C598 1.350 . S
C602 C599 1.463 . S
C602 N606 1.427 . S
C603 H593 0.929 . S
C603 C601 1.433 . S
C603 N606 1.384 . S
C604 H595 0.929 . S
C604 C596 1.378 . S
C604 C599 1.350 . S
C605 H592 0.929 . S
C605 C597 1.433 . S
C605 N607 1.384 . S
N606 C602 1.427 . S
N606 C603 1.384 . S
N607 C599 1.427 . S
N607 C605 1.384 . S
H608 C614 0.930 . S
H609 C618 0.930 . S
H610 C623 0.929 . S
H611 C621 0.929 . S
H612 C616 0.929 . S
H613 C622 0.929 . S
C614 H608 0.930 . S
C614 C615 1.367 . S
C614 C622 1.378 . S
C615 C614 1.367 . S
C615 C623 1.433 . S
C616 H612 0.929 . S
C616 C618 1.378 . S
C616 C620 1.350 . S
C617 C620 1.463 1_556 S
C617 C622 1.350 . S
C617 N625 1.427 . S
C618 H609 0.930 . S
C618 C616 1.378 . S
C618 C619 1.367 . S
C619 C618 1.367 . S
C619 C621 1.433 . S
C620 C616 1.350 . S
C620 C617 1.463 1_554 S
C620 N624 1.427 . S
C621 H611 0.929 . S
C621 C619 1.433 . S
C621 N624 1.384 . S
C622 H613 0.929 . S
C622 C614 1.378 . S
C622 C617 1.350 . S
C623 H610 0.929 . S
C623 C615 1.433 . S
C623 N625 1.384 . S
N624 C620 1.427 . S
N624 C621 1.384 . S
N625 C617 1.427 . S
N625 C623 1.384 . S
H626 C632 0.930 . S
H627 C636 0.930 . S
H628 C641 0.929 . S
H629 C639 0.929 . S
H630 C634 0.929 . S
H631 C640 0.929 . S
C632 H626 0.930 . S
C632 C633 1.367 . S
C632 C640 1.378 . S
C633 C632 1.367 . S
C633 C641 1.433 . S
C634 H630 0.929 . S
C634 C636 1.378 . S
C634 C638 1.350 . S
C635 C638 1.463 1_556 S
C635 C640 1.350 . S
C635 N643 1.427 . S
C636 H627 0.930 . S
C636 C634 1.378 . S
C636 C637 1.367 . S
C637 C636 1.367 . S
C637 C639 1.433 . S
C638 C634 1.350 . S
C638 C635 1.463 1_554 S
C638 N642 1.427 . S
C639 H629 0.929 . S
C639 C637 1.433 . S
C639 N642 1.384 . S
C640 H631 0.929 . S
C640 C632 1.378 . S
C640 C635 1.350 . S
C641 H628 0.929 . S
C641 C633 1.433 . S
C641 N643 1.384 . S
N642 C638 1.427 . S
N642 C639 1.384 . S
N643 C635 1.427 . S
N643 C641 1.384 . S
H644 C650 0.930 . S
H645 C654 0.930 . S
H646 C659 0.929 . S
H647 C657 0.929 . S
H648 C652 0.929 . S
H649 C658 0.929 . S
C650 H644 0.930 . S
C650 C651 1.367 . S
C650 C658 1.378 . S
C651 C650 1.367 . S
C651 C659 1.433 . S
C652 H648 0.929 . S
C652 C654 1.378 . S
C652 C656 1.350 . S
C653 C656 1.463 . S
C653 C658 1.350 . S
C653 N661 1.427 . S
C654 H645 0.930 . S
C654 C652 1.378 . S
C654 C655 1.367 . S
C655 C654 1.367 . S
C655 C657 1.433 . S
C656 C652 1.350 . S
C656 C653 1.463 . S
C656 N660 1.427 . S
C657 H647 0.929 . S
C657 C655 1.433 . S
C657 N660 1.384 . S
C658 H649 0.929 . S
C658 C650 1.378 . S
C658 C653 1.350 . S
C659 H646 0.929 . S
C659 C651 1.433 . S
C659 N661 1.384 . S
N660 C656 1.427 . S
N660 C657 1.384 . S
N661 C653 1.427 . S
N661 C659 1.384 . S
H662 C668 0.930 . S
H663 C672 0.930 . S
H664 C677 0.929 . S
H665 C675 0.929 . S
H666 C670 0.929 . S
H667 C676 0.929 . S
C668 H662 0.930 . S
C668 C669 1.367 . S
C668 C676 1.378 . S
C669 C668 1.367 . S
C669 C677 1.433 . S
C670 H666 0.929 . S
C670 C672 1.378 . S
C670 C674 1.350 . S
C671 C674 1.463 . S
C671 C676 1.350 . S
C671 N679 1.427 . S
C672 H663 0.930 . S
C672 C670 1.378 . S
C672 C673 1.367 . S
C673 C672 1.367 . S
C673 C675 1.433 . S
C674 C670 1.350 . S
C674 C671 1.463 . S
C674 N678 1.427 . S
C675 H665 0.929 . S
C675 C673 1.433 . S
C675 N678 1.384 . S
C676 H667 0.929 . S
C676 C668 1.378 . S
C676 C671 1.350 . S
C677 H664 0.929 . S
C677 C669 1.433 . S
C677 N679 1.384 . S
N678 C674 1.427 . S
N678 C675 1.384 . S
N679 C671 1.427 . S
N679 C677 1.384 . S
H680 C686 0.930 . S
H681 C690 0.930 . S
H682 C695 0.929 . S
H683 C693 0.929 . S
H684 C688 0.929 . S
H685 C694 0.929 . S
C686 H680 0.930 . S
C686 C687 1.367 . S
C686 C694 1.378 . S
C687 C686 1.367 . S
C687 C695 1.433 . S
C688 H684 0.929 . S
C688 C690 1.378 . S
C688 C692 1.350 . S
C689 C692 1.463 1_554 S
C689 C694 1.350 . S
C689 N697 1.427 . S
C690 H681 0.930 . S
C690 C688 1.378 . S
C690 C691 1.367 . S
C691 C690 1.367 . S
C691 C693 1.433 . S
C692 C688 1.350 . S
C692 C689 1.463 1_556 S
C692 N696 1.427 . S
C693 H683 0.929 . S
C693 C691 1.433 . S
C693 N696 1.384 . S
C694 H685 0.929 . S
C694 C686 1.378 . S
C694 C689 1.350 . S
C695 H682 0.929 . S
C695 C687 1.433 . S
C695 N697 1.384 . S
N696 C692 1.427 . S
N696 C693 1.384 . S
N697 C689 1.427 . S
N697 C695 1.384 . S
H698 C704 0.930 . S
H699 C708 0.930 . S
H700 C713 0.929 . S
H701 C711 0.929 . S
H702 C706 0.929 . S
H703 C712 0.929 . S
C704 H698 0.930 . S
C704 C705 1.367 . S
C704 C712 1.378 . S
C705 C704 1.367 . S
C705 C713 1.433 . S
C706 H702 0.929 . S
C706 C708 1.378 . S
C706 C710 1.350 . S
C707 C710 1.463 1_556 S
C707 C712 1.350 . S
C707 N715 1.427 . S
C708 H699 0.930 . S
C708 C706 1.378 . S
C708 C709 1.367 . S
C709 C708 1.367 . S
C709 C711 1.433 . S
C710 C706 1.350 . S
C710 C707 1.463 1_554 S
C710 N714 1.427 . S
C711 H701 0.929 . S
C711 C709 1.433 . S
C711 N714 1.384 . S
C712 H703 0.929 . S
C712 C704 1.378 . S
C712 C707 1.350 . S
C713 H700 0.929 . S
C713 C705 1.433 . S
C713 N715 1.384 . S
N714 C710 1.427 . S
N714 C711 1.384 . S
N715 C707 1.427 . S
N715 C713 1.384 . S
H716 C722 0.930 . S
H717 C726 0.930 . S
H718 C731 0.929 . S
H719 C729 0.929 . S
H720 C724 0.929 . S
H721 C730 0.929 . S
C722 H716 0.930 . S
C722 C723 1.367 . S
C722 C730 1.378 . S
C723 C722 1.367 . S
C723 C731 1.433 . S
C724 H720 0.929 . S
C724 C726 1.378 . S
C724 C728 1.350 . S
C725 C728 1.463 . S
C725 C730 1.350 . S
C725 N733 1.427 . S
C726 H717 0.930 . S
C726 C724 1.378 . S
C726 C727 1.367 . S
C727 C726 1.367 . S
C727 C729 1.433 . S
C728 C724 1.350 . S
C728 C725 1.463 . S
C728 N732 1.427 . S
C729 H719 0.929 . S
C729 C727 1.433 . S
C729 N732 1.384 . S
C730 H721 0.929 . S
C730 C722 1.378 . S
C730 C725 1.350 . S
C731 H718 0.929 . S
C731 C723 1.433 . S
C731 N733 1.384 . S
N732 C728 1.427 . S
N732 C729 1.384 . S
N733 C725 1.427 . S
N733 C731 1.384 . S
H734 C740 0.930 . S
H735 C744 0.930 . S
H736 C749 0.929 . S
H737 C747 0.929 . S
H738 C742 0.929 . S
H739 C748 0.929 . S
C740 H734 0.930 . S
C740 C741 1.367 . S
C740 C748 1.378 . S
C741 C740 1.367 . S
C741 C749 1.433 . S
C742 H738 0.929 . S
C742 C744 1.378 . S
C742 C746 1.350 . S
C743 C746 1.463 . S
C743 C748 1.350 . S
C743 N751 1.427 . S
C744 H735 0.930 . S
C744 C742 1.378 . S
C744 C745 1.367 . S
C745 C744 1.367 . S
C745 C747 1.433 . S
C746 C742 1.350 . S
C746 C743 1.463 . S
C746 N750 1.427 . S
C747 H737 0.929 . S
C747 C745 1.433 . S
C747 N750 1.384 . S
C748 H739 0.929 . S
C748 C740 1.378 . S
C748 C743 1.350 . S
C749 H736 0.929 . S
C749 C741 1.433 . S
C749 N751 1.384 . S
N750 C746 1.427 . S
N750 C747 1.384 . S
N751 C743 1.427 . S
N751 C749 1.384 . S
H752 C758 0.930 . S
H753 C762 0.930 . S
H754 C767 0.929 . S
H755 C765 0.929 . S
H756 C760 0.929 . S
H757 C766 0.929 . S
C758 H752 0.930 . S
C758 C759 1.368 . S
C758 C766 1.378 . S
C759 C758 1.368 . S
C759 C767 1.432 1_545 S
C760 H756 0.929 . S
C760 C762 1.378 . S
C760 C764 1.350 . S
C761 C764 1.463 1_645 S
C761 C766 1.350 . S
C761 N769 1.427 1_545 S
C762 H753 0.930 . S
C762 C760 1.378 . S
C762 C763 1.368 . S
C763 C762 1.368 . S
C763 C765 1.432 1_565 S
C764 C760 1.350 . S
C764 C761 1.463 1_465 S
C764 N768 1.427 1_565 S
C765 H755 0.929 . S
C765 C763 1.432 1_545 S
C765 N768 1.384 . S
C766 H757 0.929 . S
C766 C758 1.378 . S
C766 C761 1.350 . S
C767 H754 0.929 . S
C767 C759 1.432 1_565 S
C767 N769 1.384 . S
N768 C764 1.427 1_545 S
N768 C765 1.384 . S
N769 C761 1.427 1_565 S
N769 C767 1.384 . S
H770 C776 0.930 . S
H771 C780 0.930 . S
H772 C785 0.929 . S
H773 C783 0.929 . S
H774 C778 0.929 . S
H775 C784 0.929 . S
C776 H770 0.930 . S
C776 C777 1.367 . S
C776 C784 1.378 . S
C777 C776 1.367 . S
C777 C785 1.433 1_545 S
C778 H774 0.929 . S
C778 C780 1.378 . S
C778 C782 1.350 . S
C779 C782 1.462 1_645 S
C779 C784 1.350 . S
C779 N787 1.427 1_545 S
C780 H771 0.930 . S
C780 C778 1.378 . S
C780 C781 1.367 . S
C781 C780 1.367 . S
C781 C783 1.433 1_565 S
C782 C778 1.350 . S
C782 C779 1.462 1_465 S
C782 N786 1.427 1_565 S
C783 H773 0.929 . S
C783 C781 1.433 1_545 S
C783 N786 1.384 . S
C784 H775 0.929 . S
C784 C776 1.378 . S
C784 C779 1.350 . S
C785 H772 0.929 . S
C785 C777 1.433 1_565 S
C785 N787 1.384 . S
N786 C782 1.427 1_545 S
N786 C783 1.384 . S
N787 C779 1.427 1_565 S
N787 C785 1.384 . S
H788 C794 0.930 . S
H789 C798 0.930 . S
H790 C803 0.929 . S
H791 C801 0.929 . S
H792 C796 0.929 . S
H793 C802 0.929 . S
C794 H788 0.930 . S
C794 C795 1.366 1_565 S
C794 C802 1.378 . S
C795 C794 1.366 1_545 S
C795 C803 1.434 . S
C796 H792 0.929 . S
C796 C798 1.378 . S
C796 C800 1.350 . S
C797 C800 1.463 1_465 S
C797 C802 1.350 . S
C797 N805 1.427 1_565 S
C798 H789 0.930 . S
C798 C796 1.378 . S
C798 C799 1.366 1_545 S
C799 C798 1.366 1_565 S
C799 C801 1.434 . S
C800 C796 1.350 . S
C800 C797 1.463 1_645 S
C800 N804 1.427 1_545 S
C801 H791 0.929 . S
C801 C799 1.434 . S
C801 N804 1.384 . S
C802 H793 0.929 . S
C802 C794 1.378 . S
C802 C797 1.350 . S
C803 H790 0.929 . S
C803 C795 1.434 . S
C803 N805 1.384 . S
N804 C800 1.427 1_565 S
N804 C801 1.384 . S
N805 C797 1.427 1_545 S
N805 C803 1.384 . S
H806 C812 0.930 . S
H807 C816 0.930 . S
H808 C821 0.929 . S
H809 C819 0.929 . S
H810 C814 0.929 . S
H811 C820 0.929 . S
C812 H806 0.930 . S
C812 C813 1.372 . S
C812 C820 1.378 . S
C813 C812 1.372 . S
C813 C821 1.428 1_565 S
C814 H810 0.929 . S
C814 C816 1.378 . S
C814 C818 1.350 . S
C815 C818 1.463 1_665 S
C815 C820 1.350 . S
C815 N823 1.427 1_565 S
C816 H807 0.930 . S
C816 C814 1.378 . S
C816 C817 1.372 . S
C817 C816 1.372 . S
C817 C819 1.428 1_545 S
C818 C814 1.350 . S
C818 C815 1.463 1_445 S
C818 N822 1.427 1_545 S
C819 H809 0.929 . S
C819 C817 1.428 1_565 S
C819 N822 1.384 . S
C820 H811 0.929 . S
C820 C812 1.378 . S
C820 C815 1.350 . S
C821 H808 0.929 . S
C821 C813 1.428 1_545 S
C821 N823 1.384 . S
N822 C818 1.427 1_565 S
N822 C819 1.384 . S
N823 C815 1.427 1_545 S
N823 C821 1.384 . S
H824 C830 0.930 . S
H825 C834 0.930 . S
H826 C839 0.929 . S
H827 C837 0.929 . S
H828 C832 0.929 . S
H829 C838 0.929 . S
C830 H824 0.930 . S
C830 C831 1.367 . S
C830 C838 1.378 . S
C831 C830 1.367 . S
C831 C839 1.433 . S
C832 H828 0.929 . S
C832 C834 1.378 . S
C832 C836 1.350 . S
C833 C836 1.463 . S
C833 C838 1.350 . S
C833 N841 1.427 . S
C834 H825 0.930 . S
C834 C832 1.378 . S
C834 C835 1.367 . S
C835 C834 1.367 . S
C835 C837 1.433 . S
C836 C832 1.350 . S
C836 C833 1.463 . S
C836 N840 1.427 . S
C837 H827 0.929 . S
C837 C835 1.433 . S
C837 N840 1.384 . S
C838 H829 0.929 . S
C838 C830 1.378 . S
C838 C833 1.350 . S
C839 H826 0.929 . S
C839 C831 1.433 . S
C839 N841 1.384 . S
N840 C836 1.427 . S
N840 C837 1.384 . S
N841 C833 1.427 . S
N841 C839 1.384 . S
H842 C848 0.930 . S
H843 C852 0.930 . S
H844 C857 0.929 . S
H845 C855 0.929 . S
H846 C850 0.929 . S
H847 C856 0.929 . S
C848 H842 0.930 . S
C848 C849 1.367 . S
C848 C856 1.378 . S
C849 C848 1.367 . S
C849 C857 1.433 . S
C850 H846 0.929 . S
C850 C852 1.378 . S
C850 C854 1.350 . S
C851 C854 1.463 . S
C851 C856 1.350 . S
C851 N859 1.427 . S
C852 H843 0.930 . S
C852 C850 1.378 . S
C852 C853 1.367 . S
C853 C852 1.367 . S
C853 C855 1.433 . S
C854 C850 1.350 . S
C854 C851 1.463 . S
C854 N858 1.427 . S
C855 H845 0.929 . S
C855 C853 1.433 . S
C855 N858 1.384 . S
C856 H847 0.929 . S
C856 C848 1.378 . S
C856 C851 1.350 . S
C857 H844 0.929 . S
C857 C849 1.433 . S
C857 N859 1.384 . S
N858 C854 1.427 . S
N858 C855 1.384 . S
N859 C851 1.427 . S
N859 C857 1.384 . S
H860 C866 0.930 . S
H861 C870 0.930 . S
H862 C875 0.929 . S
H863 C873 0.929 . S
H864 C868 0.929 . S
H865 C874 0.929 . S
C866 H860 0.930 . S
C866 C867 1.367 . S
C866 C874 1.378 . S
C867 C866 1.367 . S
C867 C875 1.433 . S
C868 H864 0.929 . S
C868 C870 1.378 . S
C868 C872 1.350 . S
C869 C872 1.463 . S
C869 C874 1.350 . S
C869 N877 1.427 . S
C870 H861 0.930 . S
C870 C868 1.378 . S
C870 C871 1.367 . S
C871 C870 1.367 . S
C871 C873 1.433 . S
C872 C868 1.350 . S
C872 C869 1.463 . S
C872 N876 1.427 . S
C873 H863 0.929 . S
C873 C871 1.433 . S
C873 N876 1.384 . S
C874 H865 0.929 . S
C874 C866 1.378 . S
C874 C869 1.350 . S
C875 H862 0.929 . S
C875 C867 1.433 . S
C875 N877 1.384 . S
N876 C872 1.427 . S
N876 C873 1.384 . S
N877 C869 1.427 . S
N877 C875 1.384 . S
H878 C884 0.930 . S
H879 C888 0.930 . S
H880 C893 0.929 . S
H881 C891 0.929 . S
H882 C886 0.929 . S
H883 C892 0.929 . S
C884 H878 0.930 . S
C884 C885 1.367 . S
C884 C892 1.378 . S
C885 C884 1.367 . S
C885 C893 1.433 . S
C886 H882 0.929 . S
C886 C888 1.378 . S
C886 C890 1.350 . S
C887 C890 1.463 . S
C887 C892 1.350 . S
C887 N895 1.427 . S
C888 H879 0.930 . S
C888 C886 1.378 . S
C888 C889 1.367 . S
C889 C888 1.367 . S
C889 C891 1.433 . S
C890 C886 1.350 . S
C890 C887 1.463 . S
C890 N894 1.427 . S
C891 H881 0.929 . S
C891 C889 1.433 . S
C891 N894 1.384 . S
C892 H883 0.929 . S
C892 C884 1.378 . S
C892 C887 1.350 . S
C893 H880 0.929 . S
C893 C885 1.433 . S
C893 N895 1.384 . S
N894 C890 1.427 . S
N894 C891 1.384 . S
N895 C887 1.427 . S
N895 C893 1.384 . S
H896 C902 0.930 . S
H897 C906 0.930 . S
H898 C911 0.929 . S
H899 C909 0.929 . S
H900 C904 0.929 . S
H901 C910 0.929 . S
C902 H896 0.930 . S
C902 C903 1.367 . S
C902 C910 1.378 . S
C903 C902 1.367 . S
C903 C911 1.433 . S
C904 H900 0.929 . S
C904 C906 1.378 . S
C904 C908 1.350 . S
C905 C908 1.463 . S
C905 C910 1.350 . S
C905 N913 1.427 . S
C906 H897 0.930 . S
C906 C904 1.378 . S
C906 C907 1.367 . S
C907 C906 1.367 . S
C907 C909 1.433 . S
C908 C904 1.350 . S
C908 C905 1.463 . S
C908 N912 1.427 . S
C909 H899 0.929 . S
C909 C907 1.433 . S
C909 N912 1.384 . S
C910 H901 0.929 . S
C910 C902 1.378 . S
C910 C905 1.350 . S
C911 H898 0.929 . S
C911 C903 1.433 . S
C911 N913 1.384 . S
N912 C908 1.427 . S
N912 C909 1.384 . S
N913 C905 1.427 . S
N913 C911 1.384 . S
H914 C920 0.930 . S
H915 C924 0.930 . S
H916 C929 0.929 . S
H917 C927 0.929 . S
H918 C922 0.929 . S
H919 C928 0.929 . S
C920 H914 0.930 . S
C920 C921 1.367 . S
C920 C928 1.378 . S
C921 C920 1.367 . S
C921 C929 1.433 . S
C922 H918 0.929 . S
C922 C924 1.378 . S
C922 C926 1.350 . S
C923 C926 1.463 . S
C923 C928 1.350 . S
C923 N931 1.427 . S
C924 H915 0.930 . S
C924 C922 1.378 . S
C924 C925 1.367 . S
C925 C924 1.367 . S
C925 C927 1.433 . S
C926 C922 1.350 . S
C926 C923 1.463 . S
C926 N930 1.427 . S
C927 H917 0.929 . S
C927 C925 1.433 . S
C927 N930 1.384 . S
C928 H919 0.929 . S
C928 C920 1.378 . S
C928 C923 1.350 . S
C929 H916 0.929 . S
C929 C921 1.433 . S
C929 N931 1.384 . S
N930 C926 1.427 . S
N930 C927 1.384 . S
N931 C923 1.427 . S
N931 C929 1.384 . S
H932 C938 0.930 . S
H933 C942 0.930 . S
H934 C947 0.929 . S
H935 C945 0.929 . S
H936 C940 0.929 . S
H937 C946 0.929 . S
C938 H932 0.930 . S
C938 C939 1.367 . S
C938 C946 1.378 . S
C939 C938 1.367 . S
C939 C947 1.433 . S
C940 H936 0.929 . S
C940 C942 1.378 . S
C940 C944 1.350 . S
C941 C944 1.463 . S
C941 C946 1.350 . S
C941 N949 1.427 . S
C942 H933 0.930 . S
C942 C940 1.378 . S
C942 C943 1.367 . S
C943 C942 1.367 . S
C943 C945 1.433 . S
C944 C940 1.350 . S
C944 C941 1.463 . S
C944 N948 1.427 . S
C945 H935 0.929 . S
C945 C943 1.433 . S
C945 N948 1.384 . S
C946 H937 0.929 . S
C946 C938 1.378 . S
C946 C941 1.350 . S
C947 H934 0.929 . S
C947 C939 1.433 . S
C947 N949 1.384 . S
N948 C944 1.427 . S
N948 C945 1.384 . S
N949 C941 1.427 . S
N949 C947 1.384 . S
H950 C956 0.930 . S
H951 C960 0.930 . S
H952 C965 0.929 . S
H953 C963 0.929 . S
H954 C958 0.929 . S
H955 C964 0.929 . S
C956 H950 0.930 . S
C956 C957 1.367 . S
C956 C964 1.378 . S
C957 C956 1.367 . S
C957 C965 1.433 . S
C958 H954 0.929 . S
C958 C960 1.378 . S
C958 C962 1.350 . S
C959 C962 1.463 . S
C959 C964 1.350 . S
C959 N967 1.427 . S
C960 H951 0.930 . S
C960 C958 1.378 . S
C960 C961 1.367 . S
C961 C960 1.367 . S
C961 C963 1.433 . S
C962 C958 1.350 . S
C962 C959 1.463 . S
C962 N966 1.427 . S
C963 H953 0.929 . S
C963 C961 1.433 . S
C963 N966 1.384 . S
C964 H955 0.929 . S
C964 C956 1.378 . S
C964 C959 1.350 . S
C965 H952 0.929 . S
C965 C957 1.433 . S
C965 N967 1.384 . S
N966 C962 1.427 . S
N966 C963 1.384 . S
N967 C959 1.427 . S
N967 C965 1.384 . S
H968 C974 0.930 . S
H969 C978 0.930 . S
H970 C983 0.929 . S
H971 C981 0.929 . S
H972 C976 0.929 . S
H973 C982 0.929 . S
C974 H968 0.930 . S
C974 C975 1.367 . S
C974 C982 1.378 . S
C975 C974 1.367 . S
C975 C983 1.433 . S
C976 H972 0.929 . S
C976 C978 1.378 . S
C976 C980 1.350 . S
C977 C980 1.463 . S
C977 C982 1.350 . S
C977 N985 1.427 . S
C978 H969 0.930 . S
C978 C976 1.378 . S
C978 C979 1.367 . S
C979 C978 1.367 . S
C979 C981 1.433 . S
C980 C976 1.350 . S
C980 C977 1.463 . S
C980 N984 1.427 . S
C981 H971 0.929 . S
C981 C979 1.433 . S
C981 N984 1.384 . S
C982 H973 0.929 . S
C982 C974 1.378 . S
C982 C977 1.350 . S
C983 H970 0.929 . S
C983 C975 1.433 . S
C983 N985 1.384 . S
N984 C980 1.427 . S
N984 C981 1.384 . S
N985 C977 1.427 . S
N985 C983 1.384 . S
H986 C992 0.930 . S
H987 C996 0.930 . S
H988 C1001 0.929 . S
H989 C999 0.929 . S
H990 C994 0.929 . S
H991 C1000 0.929 . S
C992 H986 0.930 . S
C992 C993 1.367 . S
C992 C1000 1.378 . S
C993 C992 1.367 . S
C993 C1001 1.433 . S
C994 H990 0.929 . S
C994 C996 1.378 . S
C994 C998 1.350 . S
C995 C998 1.463 . S
C995 C1000 1.350 . S
C995 N1003 1.427 . S
C996 H987 0.930 . S
C996 C994 1.378 . S
C996 C997 1.367 . S
C997 C996 1.367 . S
C997 C999 1.433 . S
C998 C994 1.350 . S
C998 C995 1.463 . S
C998 N1002 1.427 . S
C999 H989 0.929 . S
C999 C997 1.433 . S
C999 N1002 1.384 . S
C1000 H991 0.929 . S
C1000 C992 1.378 . S
C1000 C995 1.350 . S
C1001 H988 0.929 . S
C1001 C993 1.433 . S
C1001 N1003 1.384 . S
N1002 C998 1.427 . S
N1002 C999 1.384 . S
N1003 C995 1.427 . S
N1003 C1001 1.384 . S
H1004 C1010 0.930 . S
H1005 C1014 0.930 . S
H1006 C1019 0.929 . S
H1007 C1017 0.929 . S
H1008 C1012 0.929 . S
H1009 C1018 0.929 . S
C1010 H1004 0.930 . S
C1010 C1011 1.367 . S
C1010 C1018 1.378 . S
C1011 C1010 1.367 . S
C1011 C1019 1.433 . S
C1012 H1008 0.929 . S
C1012 C1014 1.378 . S
C1012 C1016 1.350 . S
C1013 C1016 1.463 . S
C1013 C1018 1.350 . S
C1013 N1021 1.427 . S
C1014 H1005 0.930 . S
C1014 C1012 1.378 . S
C1014 C1015 1.367 . S
C1015 C1014 1.367 . S
C1015 C1017 1.433 . S
C1016 C1012 1.350 . S
C1016 C1013 1.463 . S
C1016 N1020 1.427 . S
C1017 H1007 0.929 . S
C1017 C1015 1.433 . S
C1017 N1020 1.384 . S
C1018 H1009 0.929 . S
C1018 C1010 1.378 . S
C1018 C1013 1.350 . S
C1019 H1006 0.929 . S
C1019 C1011 1.433 . S
C1019 N1021 1.384 . S
N1020 C1016 1.427 . S
N1020 C1017 1.384 . S
N1021 C1013 1.427 . S
N1021 C1019 1.384 . S
H1022 C1028 0.930 . S
H1023 C1032 0.930 . S
H1024 C1037 0.929 . S
H1025 C1035 0.929 . S
H1026 C1030 0.929 . S
H1027 C1036 0.929 . S
C1028 H1022 0.930 . S
C1028 C1029 1.367 . S
C1028 C1036 1.378 . S
C1029 C1028 1.367 . S
C1029 C1037 1.433 . S
C1030 H1026 0.929 . S
C1030 C1032 1.378 . S
C1030 C1034 1.350 . S
C1031 C1034 1.463 . S
C1031 C1036 1.350 . S
C1031 N1039 1.427 . S
C1032 H1023 0.930 . S
C1032 C1030 1.378 . S
C1032 C1033 1.367 . S
C1033 C1032 1.367 . S
C1033 C1035 1.433 . S
C1034 C1030 1.350 . S
C1034 C1031 1.463 . S
C1034 N1038 1.427 . S
C1035 H1025 0.929 . S
C1035 C1033 1.433 . S
C1035 N1038 1.384 . S
C1036 H1027 0.929 . S
C1036 C1028 1.378 . S
C1036 C1031 1.350 . S
C1037 H1024 0.929 . S
C1037 C1029 1.433 . S
C1037 N1039 1.384 . S
N1038 C1034 1.427 . S
N1038 C1035 1.384 . S
N1039 C1031 1.427 . S
N1039 C1037 1.384 . S
H1040 C1046 0.930 . S
H1041 C1050 0.930 . S
H1042 C1055 0.929 . S
H1043 C1053 0.929 . S
H1044 C1048 0.929 . S
H1045 C1054 0.929 . S
C1046 H1040 0.930 . S
C1046 C1047 1.367 . S
C1046 C1054 1.378 1_565 S
C1047 C1046 1.367 . S
C1047 C1055 1.433 . S
C1048 H1044 0.929 . S
C1048 C1050 1.378 . S
C1048 C1052 1.350 . S
C1049 C1052 1.463 . S
C1049 C1054 1.350 . S
C1049 N1057 1.427 . S
C1050 H1041 0.930 . S
C1050 C1048 1.378 . S
C1050 C1051 1.367 . S
C1051 C1050 1.367 . S
C1051 C1053 1.433 . S
C1052 C1048 1.350 . S
C1052 C1049 1.463 . S
C1052 N1056 1.427 . S
C1053 H1043 0.929 . S
C1053 C1051 1.433 . S
C1053 N1056 1.384 . S
C1054 H1045 0.929 . S
C1054 C1046 1.378 1_545 S
C1054 C1049 1.350 . S
C1055 H1042 0.929 . S
C1055 C1047 1.433 . S
C1055 N1057 1.384 1_565 S
N1056 C1052 1.427 . S
N1056 C1053 1.384 . S
N1057 C1049 1.427 . S
N1057 C1055 1.384 1_545 S
H1058 C1064 0.930 . S
H1059 C1068 0.930 . S
H1060 C1073 0.929 . S
H1061 C1071 0.929 . S
H1062 C1066 0.929 . S
H1063 C1072 0.929 . S
C1064 H1058 0.930 . S
C1064 C1065 1.367 . S
C1064 C1072 1.378 . S
C1065 C1064 1.367 . S
C1065 C1073 1.433 . S
C1066 H1062 0.929 . S
C1066 C1068 1.378 1_565 S
C1066 C1070 1.350 . S
C1067 C1070 1.463 . S
C1067 C1072 1.350 . S
C1067 N1075 1.427 . S
C1068 H1059 0.930 . S
C1068 C1066 1.378 1_545 S
C1068 C1069 1.367 . S
C1069 C1068 1.367 . S
C1069 C1071 1.433 . S
C1070 C1066 1.350 . S
C1070 C1067 1.463 . S
C1070 N1074 1.427 . S
C1071 H1061 0.929 . S
C1071 C1069 1.433 . S
C1071 N1074 1.384 1_545 S
C1072 H1063 0.929 . S
C1072 C1064 1.378 . S
C1072 C1067 1.350 . S
C1073 H1060 0.929 . S
C1073 C1065 1.433 . S
C1073 N1075 1.384 . S
N1074 C1070 1.427 . S
N1074 C1071 1.384 1_565 S
N1075 C1067 1.427 . S
N1075 C1073 1.384 . S
H1076 C1082 0.930 . S
H1077 C1086 0.930 . S
H1078 C1091 0.929 . S
H1079 C1089 0.929 . S
H1080 C1084 0.929 . S
H1081 C1090 0.929 . S
C1082 H1076 0.930 . S
C1082 C1083 1.367 . S
C1082 C1090 1.378 1_545 S
C1083 C1082 1.367 . S
C1083 C1091 1.433 . S
C1084 H1080 0.929 . S
C1084 C1086 1.378 . S
C1084 C1088 1.350 . S
C1085 C1088 1.463 . S
C1085 C1090 1.350 . S
C1085 N1093 1.427 . S
C1086 H1077 0.930 . S
C1086 C1084 1.378 . S
C1086 C1087 1.367 . S
C1087 C1086 1.367 . S
C1087 C1089 1.433 . S
C1088 C1084 1.350 . S
C1088 C1085 1.463 . S
C1088 N1092 1.427 . S
C1089 H1079 0.929 . S
C1089 C1087 1.433 . S
C1089 N1092 1.384 . S
C1090 H1081 0.929 . S
C1090 C1082 1.378 1_565 S
C1090 C1085 1.350 . S
C1091 H1078 0.929 . S
C1091 C1083 1.433 . S
C1091 N1093 1.384 1_545 S
N1092 C1088 1.427 . S
N1092 C1089 1.384 . S
N1093 C1085 1.427 . S
N1093 C1091 1.384 1_565 S
H1094 C1100 0.930 . S
H1095 C1104 0.930 . S
H1096 C1109 0.929 . S
H1097 C1107 0.929 . S
H1098 C1102 0.929 . S
H1099 C1108 0.929 . S
C1100 H1094 0.930 . S
C1100 C1101 1.367 . S
C1100 C1108 1.378 1_565 S
C1101 C1100 1.367 . S
C1101 C1109 1.433 . S
C1102 H1098 0.929 . S
C1102 C1104 1.378 . S
C1102 C1106 1.350 . S
C1103 C1106 1.463 . S
C1103 C1108 1.350 . S
C1103 N1111 1.427 . S
C1104 H1095 0.930 . S
C1104 C1102 1.378 . S
C1104 C1105 1.367 . S
C1105 C1104 1.367 . S
C1105 C1107 1.433 . S
C1106 C1102 1.350 . S
C1106 C1103 1.463 . S
C1106 N1110 1.427 . S
C1107 H1097 0.929 . S
C1107 C1105 1.433 . S
C1107 N1110 1.384 . S
C1108 H1099 0.929 . S
C1108 C1100 1.378 1_545 S
C1108 C1103 1.350 . S
C1109 H1096 0.929 . S
C1109 C1101 1.433 . S
C1109 N1111 1.384 1_565 S
N1110 C1106 1.427 . S
N1110 C1107 1.384 . S
N1111 C1103 1.427 . S
N1111 C1109 1.384 1_545 S
H1112 C1118 0.930 . S
H1113 C1122 0.930 . S
H1114 C1127 0.929 . S
H1115 C1125 0.929 . S
H1116 C1120 0.929 . S
H1117 C1126 0.929 . S
C1118 H1112 0.930 . S
C1118 C1119 1.367 . S
C1118 C1126 1.378 . S
C1119 C1118 1.367 . S
C1119 C1127 1.433 . S
C1120 H1116 0.929 . S
C1120 C1122 1.378 1_565 S
C1120 C1124 1.350 . S
C1121 C1124 1.463 . S
C1121 C1126 1.350 . S
C1121 N1129 1.427 . S
C1122 H1113 0.930 . S
C1122 C1120 1.378 1_545 S
C1122 C1123 1.367 . S
C1123 C1122 1.367 . S
C1123 C1125 1.433 . S
C1124 C1120 1.350 . S
C1124 C1121 1.463 . S
C1124 N1128 1.427 . S
C1125 H1115 0.929 . S
C1125 C1123 1.433 . S
C1125 N1128 1.384 1_545 S
C1126 H1117 0.929 . S
C1126 C1118 1.378 . S
C1126 C1121 1.350 . S
C1127 H1114 0.929 . S
C1127 C1119 1.433 . S
C1127 N1129 1.384 . S
N1128 C1124 1.427 . S
N1128 C1125 1.384 1_565 S
N1129 C1121 1.427 . S
N1129 C1127 1.384 . S
H1130 C1136 0.930 . S
H1131 C1140 0.930 . S
H1132 C1145 0.929 . S
H1133 C1143 0.929 . S
H1134 C1138 0.929 . S
H1135 C1144 0.929 . S
C1136 H1130 0.930 . S
C1136 C1137 1.367 . S
C1136 C1144 1.378 . S
C1137 C1136 1.367 . S
C1137 C1145 1.433 . S
C1138 H1134 0.929 . S
C1138 C1140 1.378 1_545 S
C1138 C1142 1.350 . S
C1139 C1142 1.463 . S
C1139 C1144 1.350 . S
C1139 N1147 1.427 . S
C1140 H1131 0.930 . S
C1140 C1138 1.378 1_565 S
C1140 C1141 1.367 . S
C1141 C1140 1.367 . S
C1141 C1143 1.433 . S
C1142 C1138 1.350 . S
C1142 C1139 1.463 . S
C1142 N1146 1.427 . S
C1143 H1133 0.929 . S
C1143 C1141 1.433 . S
C1143 N1146 1.384 1_565 S
C1144 H1135 0.929 . S
C1144 C1136 1.378 . S
C1144 C1139 1.350 . S
C1145 H1132 0.929 . S
C1145 C1137 1.433 . S
C1145 N1147 1.384 . S
N1146 C1142 1.427 . S
N1146 C1143 1.384 1_545 S
N1147 C1139 1.427 . S
N1147 C1145 1.384 . S
H1148 C1154 0.930 . S
H1149 C1158 0.930 . S
H1150 C1163 0.929 . S
H1151 C1161 0.929 . S
H1152 C1156 0.929 . S
H1153 C1162 0.929 . S
C1154 H1148 0.930 . S
C1154 C1155 1.367 . S
C1154 C1162 1.378 1_565 S
C1155 C1154 1.367 . S
C1155 C1163 1.433 . S
C1156 H1152 0.929 . S
C1156 C1158 1.378 . S
C1156 C1160 1.350 . S
C1157 C1160 1.463 . S
C1157 C1162 1.350 . S
C1157 N1165 1.427 . S
C1158 H1149 0.930 . S
C1158 C1156 1.378 . S
C1158 C1159 1.367 . S
C1159 C1158 1.367 . S
C1159 C1161 1.433 . S
C1160 C1156 1.350 . S
C1160 C1157 1.463 . S
C1160 N1164 1.427 . S
C1161 H1151 0.929 . S
C1161 C1159 1.433 . S
C1161 N1164 1.384 . S
C1162 H1153 0.929 . S
C1162 C1154 1.378 1_545 S
C1162 C1157 1.350 . S
C1163 H1150 0.929 . S
C1163 C1155 1.433 . S
C1163 N1165 1.384 1_565 S
N1164 C1160 1.427 . S
N1164 C1161 1.384 . S
N1165 C1157 1.427 . S
N1165 C1163 1.384 1_545 S
H1166 C1172 0.930 . S
H1167 C1176 0.930 . S
H1168 C1181 0.929 . S
H1169 C1179 0.929 . S
H1170 C1174 0.929 . S
H1171 C1180 0.929 . S
C1172 H1166 0.930 . S
C1172 C1173 1.367 . S
C1172 C1180 1.378 . S
C1173 C1172 1.367 . S
C1173 C1181 1.433 . S
C1174 H1170 0.929 . S
C1174 C1176 1.378 1_565 S
C1174 C1178 1.350 . S
C1175 C1178 1.463 . S
C1175 C1180 1.350 . S
C1175 N1183 1.427 . S
C1176 H1167 0.930 . S
C1176 C1174 1.378 1_545 S
C1176 C1177 1.367 . S
C1177 C1176 1.367 . S
C1177 C1179 1.433 . S
C1178 C1174 1.350 . S
C1178 C1175 1.463 . S
C1178 N1182 1.427 . S
C1179 H1169 0.929 . S
C1179 C1177 1.433 . S
C1179 N1182 1.384 1_545 S
C1180 H1171 0.929 . S
C1180 C1172 1.378 . S
C1180 C1175 1.350 . S
C1181 H1168 0.929 . S
C1181 C1173 1.433 . S
C1181 N1183 1.384 . S
N1182 C1178 1.427 . S
N1182 C1179 1.384 1_565 S
N1183 C1175 1.427 . S
N1183 C1181 1.384 . S
C327 C6 1.578 . S
C331 C186 1.577 . S
C345 C26 1.570 . S
C349 C166 1.570 . S
C363 C226 1.587 . S
C367 C46 1.587 . S
C381 C66 1.580 . S
C385 C206 1.579 . S
C399 C276 1.575 . S
C403 C96 1.576 . S
C417 C256 1.578 . S
C421 C116 1.577 . S
C435 C316 1.577 . S
C439 C136 1.576 . S
C453 C156 1.571 . S
C457 C296 1.571 . S
C471 C49 1.548 . S
C475 C9 1.547 . S
C489 C69 1.548 . S
C493 C29 1.547 . S
C507 C121 1.547 . S
C511 C81 1.547 . S
C525 C101 1.551 . S
C529 C141 1.551 . S
C543 C209 1.549 . S
C547 C169 1.547 . S
C561 C229 1.550 . S
C565 C189 1.547 . S
C579 C241 1.551 . S
C583 C281 1.550 . S
C597 C261 1.551 . S
C601 C301 1.550 . S
C615 C109 1.576 . S
C619 C1 1.568 . S
C633 C89 1.568 . S
C637 C21 1.576 . S
C651 C41 1.566 . S
C655 C149 1.577 . S
C669 C129 1.568 . S
C673 C61 1.576 . S
C687 C161 1.568 . S
C691 C269 1.575 . S
C705 C249 1.567 . S
C709 C181 1.577 . S
C723 C201 1.566 . S
C727 C309 1.578 . S
C741 C289 1.568 . S
C745 C221 1.575 . S
C759 C36 1.579 1_545 S
C763 C16 1.580 1_565 S
C777 C76 1.579 . S
C781 C56 1.578 . S
C795 C106 1.578 . S
C799 C86 1.579 . S
C813 C126 1.580 1_565 S
C817 C146 1.579 1_545 S
C831 C196 1.575 . S
C835 C176 1.574 . S
C849 C236 1.578 . S
C853 C216 1.577 . S
C867 C246 1.574 . S
C871 C266 1.573 . S
C885 C286 1.580 . S
C889 C306 1.579 . S
C903 C8 1.937 . S
C907 C19 1.937 . S
C921 C28 1.921 . S
C925 C39 1.921 . S
C939 C48 1.935 . S
C943 C59 1.935 . S
C957 C79 1.933 . S
C961 C68 1.933 . S
C975 C99 1.931 . S
C979 C88 1.931 . S
C993 C108 1.938 . S
C997 C119 1.938 . S
C1011 C139 1.933 . S
C1015 C128 1.933 . S
C1029 C159 1.938 . S
C1033 C148 1.938 . S
C1047 C179 1.935 . S
C1051 C168 1.935 . S
C1065 C188 1.930 . S
C1069 C199 1.930 . S
C1083 C219 1.935 . S
C1087 C208 1.935 . S
C1101 C239 1.930 . S
C1105 C228 1.930 . S
C1119 C259 1.925 . S
C1123 C248 1.925 . S
C1137 C279 1.933 . S
C1141 C268 1.933 . S
C1155 C288 1.933 . S
C1159 C299 1.933 . S
C1173 C319 1.934 . S
C1177 C308 1.934 . S
