# Generated by pormake.
# Topology wip, (6)-cn, num edge types: 1
# Building blocks:
#     Node 0, Type 0, BuildingBlock: UKALOJ_clean_sbu_0, # of connection points: 6
#     Node 1, Type 0, BuildingBlock: UKALOJ_clean_sbu_0, # of connection points: 6
#     Node 2, Type 0, BuildingBlock: UKALOJ_clean_sbu_0, # of connection points: 6
#     Node 3, Type 0, BuildingBlock: UKALOJ_clean_sbu_0, # of connection points: 6
#     Node 4, Type 0, BuildingBlock: UKALOJ_clean_sbu_0, # of connection points: 6
#     Node 5, Type 0, BuildingBlock: UKALOJ_clean_sbu_0, # of connection points: 6
#     Node 6, Type 0, BuildingBlock: UKALOJ_clean_sbu_0, # of connection points: 6
#     Node 7, Type 0, BuildingBlock: UKALOJ_clean_sbu_0, # of connection points: 6
#     Node 8, Type 0, BuildingBlock: UKALOJ_clean_sbu_0, # of connection points: 6
#     Node 9, Type 0, BuildingBlock: UKALOJ_clean_sbu_0, # of connection points: 6
#     Node 10, Type 0, BuildingBlock: UKALOJ_clean_sbu_0, # of connection points: 6
#     Node 11, Type 0, BuildingBlock: UKALOJ_clean_sbu_0, # of connection points: 6
#     Node 12, Type 0, BuildingBlock: UKALOJ_clean_sbu_0, # of connection points: 6
#     Node 13, Type 0, BuildingBlock: UKALOJ_clean_sbu_0, # of connection points: 6
#     Node 14, Type 0, BuildingBlock: UKALOJ_clean_sbu_0, # of connection points: 6
#     Node 15, Type 0, BuildingBlock: UKALOJ_clean_sbu_0, # of connection points: 6
#     Node 16, Type 0, BuildingBlock: UKALOJ_clean_sbu_0, # of connection points: 6
#     Node 17, Type 0, BuildingBlock: UKALOJ_clean_sbu_0, # of connection points: 6
#     Node 18, Type 0, BuildingBlock: UKALOJ_clean_sbu_0, # of connection points: 6
#     Node 19, Type 0, BuildingBlock: UKALOJ_clean_sbu_0, # of connection points: 6
#     Node 20, Type 0, BuildingBlock: UKALOJ_clean_sbu_0, # of connection points: 6
#     Node 21, Type 0, BuildingBlock: UKALOJ_clean_sbu_0, # of connection points: 6
#     Node 22, Type 0, BuildingBlock: UKALOJ_clean_sbu_0, # of connection points: 6
#     Node 23, Type 0, BuildingBlock: UKALOJ_clean_sbu_0, # of connection points: 6
#     Node 24, Type 0, BuildingBlock: UKALOJ_clean_sbu_0, # of connection points: 6
#     Node 25, Type 0, BuildingBlock: UKALOJ_clean_sbu_0, # of connection points: 6
#     Node 26, Type 0, BuildingBlock: UKALOJ_clean_sbu_0, # of connection points: 6
#     Node 27, Type 0, BuildingBlock: UKALOJ_clean_sbu_0, # of connection points: 6
#     Node 28, Type 0, BuildingBlock: UKALOJ_clean_sbu_0, # of connection points: 6
#     Node 29, Type 0, BuildingBlock: UKALOJ_clean_sbu_0, # of connection points: 6
#     Node 30, Type 0, BuildingBlock: UKALOJ_clean_sbu_0, # of connection points: 6
#     Node 31, Type 0, BuildingBlock: UKALOJ_clean_sbu_0, # of connection points: 6
#     Edge 32, Type (0, 0), BuildingBlock: CIFDUS_clean_linker_0, # of connection points: 2
#     Edge 33, Type (0, 0), BuildingBlock: CIFDUS_clean_linker_0, # of connection points: 2
#     Edge 34, Type (0, 0), BuildingBlock: CIFDUS_clean_linker_0, # of connection points: 2
#     Edge 35, Type (0, 0), BuildingBlock: CIFDUS_clean_linker_0, # of connection points: 2
#     Edge 36, Type (0, 0), BuildingBlock: CIFDUS_clean_linker_0, # of connection points: 2
#     Edge 37, Type (0, 0), BuildingBlock: CIFDUS_clean_linker_0, # of connection points: 2
#     Edge 38, Type (0, 0), BuildingBlock: CIFDUS_clean_linker_0, # of connection points: 2
#     Edge 39, Type (0, 0), BuildingBlock: CIFDUS_clean_linker_0, # of connection points: 2
#     Edge 40, Type (0, 0), BuildingBlock: CIFDUS_clean_linker_0, # of connection points: 2
#     Edge 41, Type (0, 0), BuildingBlock: CIFDUS_clean_linker_0, # of connection points: 2
#     Edge 42, Type (0, 0), BuildingBlock: CIFDUS_clean_linker_0, # of connection points: 2
#     Edge 43, Type (0, 0), BuildingBlock: CIFDUS_clean_linker_0, # of connection points: 2
#     Edge 44, Type (0, 0), BuildingBlock: CIFDUS_clean_linker_0, # of connection points: 2
#     Edge 45, Type (0, 0), BuildingBlock: CIFDUS_clean_linker_0, # of connection points: 2
#     Edge 46, Type (0, 0), BuildingBlock: CIFDUS_clean_linker_0, # of connection points: 2
#     Edge 47, Type (0, 0), BuildingBlock: CIFDUS_clean_linker_0, # of connection points: 2
#     Edge 48, Type (0, 0), BuildingBlock: CIFDUS_clean_linker_0, # of connection points: 2
#     Edge 49, Type (0, 0), BuildingBlock: CIFDUS_clean_linker_0, # of connection points: 2
#     Edge 50, Type (0, 0), BuildingBlock: CIFDUS_clean_linker_0, # of connection points: 2
#     Edge 51, Type (0, 0), BuildingBlock: CIFDUS_clean_linker_0, # of connection points: 2
#     Edge 52, Type (0, 0), BuildingBlock: CIFDUS_clean_linker_0, # of connection points: 2
#     Edge 53, Type (0, 0), BuildingBlock: CIFDUS_clean_linker_0, # of connection points: 2
#     Edge 54, Type (0, 0), BuildingBlock: CIFDUS_clean_linker_0, # of connection points: 2
#     Edge 55, Type (0, 0), BuildingBlock: CIFDUS_clean_linker_0, # of connection points: 2
#     Edge 56, Type (0, 0), BuildingBlock: CIFDUS_clean_linker_0, # of connection points: 2
#     Edge 57, Type (0, 0), BuildingBlock: CIFDUS_clean_linker_0, # of connection points: 2
#     Edge 58, Type (0, 0), BuildingBlock: CIFDUS_clean_linker_0, # of connection points: 2
#     Edge 59, Type (0, 0), BuildingBlock: CIFDUS_clean_linker_0, # of connection points: 2
#     Edge 60, Type (0, 0), BuildingBlock: CIFDUS_clean_linker_0, # of connection points: 2
#     Edge 61, Type (0, 0), BuildingBlock: CIFDUS_clean_linker_0, # of connection points: 2
#     Edge 62, Type (0, 0), BuildingBlock: CIFDUS_clean_linker_0, # of connection points: 2
#     Edge 63, Type (0, 0), BuildingBlock: CIFDUS_clean_linker_0, # of connection points: 2
#     Edge 64, Type (0, 0), BuildingBlock: CIFDUS_clean_linker_0, # of connection points: 2
#     Edge 65, Type (0, 0), BuildingBlock: CIFDUS_clean_linker_0, # of connection points: 2
#     Edge 66, Type (0, 0), BuildingBlock: CIFDUS_clean_linker_0, # of connection points: 2
#     Edge 67, Type (0, 0), BuildingBlock: CIFDUS_clean_linker_0, # of connection points: 2
#     Edge 68, Type (0, 0), BuildingBlock: CIFDUS_clean_linker_0, # of connection points: 2
#     Edge 69, Type (0, 0), BuildingBlock: CIFDUS_clean_linker_0, # of connection points: 2
#     Edge 70, Type (0, 0), BuildingBlock: CIFDUS_clean_linker_0, # of connection points: 2
#     Edge 71, Type (0, 0), BuildingBlock: CIFDUS_clean_linker_0, # of connection points: 2
#     Edge 72, Type (0, 0), BuildingBlock: CIFDUS_clean_linker_0, # of connection points: 2
#     Edge 73, Type (0, 0), BuildingBlock: CIFDUS_clean_linker_0, # of connection points: 2
#     Edge 74, Type (0, 0), BuildingBlock: CIFDUS_clean_linker_0, # of connection points: 2
#     Edge 75, Type (0, 0), BuildingBlock: CIFDUS_clean_linker_0, # of connection points: 2
#     Edge 76, Type (0, 0), BuildingBlock: CIFDUS_clean_linker_0, # of connection points: 2
#     Edge 77, Type (0, 0), BuildingBlock: CIFDUS_clean_linker_0, # of connection points: 2
#     Edge 78, Type (0, 0), BuildingBlock: CIFDUS_clean_linker_0, # of connection points: 2
#     Edge 79, Type (0, 0), BuildingBlock: CIFDUS_clean_linker_0, # of connection points: 2
#     Edge 80, Type (0, 0), BuildingBlock: CIFDUS_clean_linker_0, # of connection points: 2
#     Edge 81, Type (0, 0), BuildingBlock: CIFDUS_clean_linker_0, # of connection points: 2
#     Edge 82, Type (0, 0), BuildingBlock: CIFDUS_clean_linker_0, # of connection points: 2
#     Edge 83, Type (0, 0), BuildingBlock: CIFDUS_clean_linker_0, # of connection points: 2
#     Edge 84, Type (0, 0), BuildingBlock: CIFDUS_clean_linker_0, # of connection points: 2
#     Edge 85, Type (0, 0), BuildingBlock: CIFDUS_clean_linker_0, # of connection points: 2
#     Edge 86, Type (0, 0), BuildingBlock: CIFDUS_clean_linker_0, # of connection points: 2
#     Edge 87, Type (0, 0), BuildingBlock: CIFDUS_clean_linker_0, # of connection points: 2
#     Edge 88, Type (0, 0), BuildingBlock: CIFDUS_clean_linker_0, # of connection points: 2
#     Edge 89, Type (0, 0), BuildingBlock: CIFDUS_clean_linker_0, # of connection points: 2
#     Edge 90, Type (0, 0), BuildingBlock: CIFDUS_clean_linker_0, # of connection points: 2
#     Edge 91, Type (0, 0), BuildingBlock: CIFDUS_clean_linker_0, # of connection points: 2
#     Edge 92, Type (0, 0), BuildingBlock: CIFDUS_clean_linker_0, # of connection points: 2
#     Edge 93, Type (0, 0), BuildingBlock: CIFDUS_clean_linker_0, # of connection points: 2
#     Edge 94, Type (0, 0), BuildingBlock: CIFDUS_clean_linker_0, # of connection points: 2
#     Edge 95, Type (0, 0), BuildingBlock: CIFDUS_clean_linker_0, # of connection points: 2
#     Edge 96, Type (0, 0), BuildingBlock: CIFDUS_clean_linker_0, # of connection points: 2
#     Edge 97, Type (0, 0), BuildingBlock: CIFDUS_clean_linker_0, # of connection points: 2
#     Edge 98, Type (0, 0), BuildingBlock: CIFDUS_clean_linker_0, # of connection points: 2
#     Edge 99, Type (0, 0), BuildingBlock: CIFDUS_clean_linker_0, # of connection points: 2
#     Edge 100, Type (0, 0), BuildingBlock: CIFDUS_clean_linker_0, # of connection points: 2
#     Edge 101, Type (0, 0), BuildingBlock: CIFDUS_clean_linker_0, # of connection points: 2
#     Edge 102, Type (0, 0), BuildingBlock: CIFDUS_clean_linker_0, # of connection points: 2
#     Edge 103, Type (0, 0), BuildingBlock: CIFDUS_clean_linker_0, # of connection points: 2
#     Edge 104, Type (0, 0), BuildingBlock: CIFDUS_clean_linker_0, # of connection points: 2
#     Edge 105, Type (0, 0), BuildingBlock: CIFDUS_clean_linker_0, # of connection points: 2
#     Edge 106, Type (0, 0), BuildingBlock: CIFDUS_clean_linker_0, # of connection points: 2
#     Edge 107, Type (0, 0), BuildingBlock: CIFDUS_clean_linker_0, # of connection points: 2
#     Edge 108, Type (0, 0), BuildingBlock: CIFDUS_clean_linker_0, # of connection points: 2
#     Edge 109, Type (0, 0), BuildingBlock: CIFDUS_clean_linker_0, # of connection points: 2
#     Edge 110, Type (0, 0), BuildingBlock: CIFDUS_clean_linker_0, # of connection points: 2
#     Edge 111, Type (0, 0), BuildingBlock: CIFDUS_clean_linker_0, # of connection points: 2
#     Edge 112, Type (0, 0), BuildingBlock: CIFDUS_clean_linker_0, # of connection points: 2
#     Edge 113, Type (0, 0), BuildingBlock: CIFDUS_clean_linker_0, # of connection points: 2
#     Edge 114, Type (0, 0), BuildingBlock: CIFDUS_clean_linker_0, # of connection points: 2
#     Edge 115, Type (0, 0), BuildingBlock: CIFDUS_clean_linker_0, # of connection points: 2
#     Edge 116, Type (0, 0), BuildingBlock: CIFDUS_clean_linker_0, # of connection points: 2
#     Edge 117, Type (0, 0), BuildingBlock: CIFDUS_clean_linker_0, # of connection points: 2
#     Edge 118, Type (0, 0), BuildingBlock: CIFDUS_clean_linker_0, # of connection points: 2
#     Edge 119, Type (0, 0), BuildingBlock: CIFDUS_clean_linker_0, # of connection points: 2
#     Edge 120, Type (0, 0), BuildingBlock: CIFDUS_clean_linker_0, # of connection points: 2
#     Edge 121, Type (0, 0), BuildingBlock: CIFDUS_clean_linker_0, # of connection points: 2
#     Edge 122, Type (0, 0), BuildingBlock: CIFDUS_clean_linker_0, # of connection points: 2
#     Edge 123, Type (0, 0), BuildingBlock: CIFDUS_clean_linker_0, # of connection points: 2
#     Edge 124, Type (0, 0), BuildingBlock: CIFDUS_clean_linker_0, # of connection points: 2
#     Edge 125, Type (0, 0), BuildingBlock: CIFDUS_clean_linker_0, # of connection points: 2
#     Edge 126, Type (0, 0), BuildingBlock: CIFDUS_clean_linker_0, # of connection points: 2
#     Edge 127, Type (0, 0), BuildingBlock: CIFDUS_clean_linker_0, # of connection points: 2
# Relax obj value: 0.943
# Max RMSD: 0.246
# Mean RMSD: 0.245
data_MOF--net-wip--node1-UKALOJ_clean_sbu_0--edge1-CIFDUS_clean_linker_0
_symmetry_space_group_name_H-M    P1
_symmetry_Int_Tables_number       1
_symmetry_cell_setting            triclinic
loop_
_symmetry_equiv_pos_as_xyz
'x, y, z'
_cell_length_a     83.90021
_cell_length_b     84.13473
_cell_length_c     19.074662
_cell_angle_alpha  90.106814
_cell_angle_beta   89.841066
_cell_angle_gamma 89.796095
loop_
_atom_site_label
_atom_site_type_symbol
_atom_site_fract_x
_atom_site_fract_y
_atom_site_fract_z
_atom_type_partial_charge
Zn0 Zn 0.03649 0.4618 0.0334 0.0
O1 O 0.04672 0.47548 0.95196 0.0
C2 C 0.04108 0.43272 0.94367 0.0
Zn3 Zn 0.0596 0.4494 0.05115 0.0
C4 C 0.0615 0.47644 0.9397 0.0
O5 O 0.07098 0.46737 0.97489 0.0
C6 C 0.03141 0.43711 0.13911 0.0
O7 O 0.06226 0.46714 0.13746 0.0
O8 O 0.04094 0.48088 0.105 0.0
N9 N 0.08185 0.43683 0.0718 0.0
C10 C 0.08871 0.4293 0.12761 0.0
C11 C 0.10237 0.4229 0.0379 0.0
N12 N 0.09058 0.43273 1.01665 0.0
N13 N 0.10163 0.42031 0.1076 0.0
C14 C 0.00884 0.46888 0.93284 0.0
C15 C 0.98883 0.4699 1.0007 0.0
N16 N 0.01437 0.46827 0.9995 0.0
N17 N 1.00182 0.46832 0.04136 0.0
N18 N 0.99272 0.47046 0.93158 0.0
H19 H 0.02398 0.47911 0.85375 0.0
H20 H 0.01182 0.46283 0.82319 0.0
H21 H 0.02932 0.45943 0.87379 0.0
C22 C 0.01901 0.46736 0.86767 0.0
C23 C 0.08211 0.43003 0.20049 0.0
H24 H 0.08977 0.43784 0.23289 0.0
H25 H 0.0821 0.418 0.22429 0.0
H26 H 0.06993 0.43513 0.20094 0.0
O27 O 0.04578 0.43297 0.12421 0.0
O28 O 0.02581 0.44952 0.11151 0.0
C29 C 0.05298 0.47927 0.14561 0.0
O30 O 0.03188 0.44287 0.9702 0.0
O31 O 0.05561 0.43275 0.96249 0.0
Zn32 Zn 0.8091 0.78773 0.32959 0.0
O33 O 0.79109 0.79423 0.25317 0.0
C34 C 0.83286 0.78974 0.21034 0.0
Zn35 Zn 0.82003 0.81161 0.32 0.0
C36 C 0.78933 0.80854 0.23139 0.0
O37 O 0.79937 0.8191 0.25187 0.0
C38 C 0.83815 0.78918 0.41433 0.0
O39 O 0.80461 0.81676 0.41686 0.0
O40 O 0.79287 0.79341 0.40957 0.0
N41 N 0.83105 0.83466 0.32244 0.0
C42 C 0.84031 0.84197 0.3715 0.0
C43 C 0.84017 0.8569 0.28198 0.0
N44 N 0.83109 0.84409 0.26701 0.0
N45 N 0.84637 0.85596 0.3472 0.0
C46 C 0.80044 0.75374 0.28104 0.0
C47 C 0.80638 0.73994 0.36989 0.0
N48 N 0.80444 0.76397 0.33204 0.0
N49 N 0.80888 0.75527 0.38627 0.0
N50 N 0.80032 0.73843 0.30457 0.0
H51 H 0.78484 0.7645 0.20538 0.0
H52 H 0.79742 0.74876 0.16984 0.0
H53 H 0.80515 0.76791 0.18839 0.0
C54 C 0.79675 0.75884 0.20714 0.0
C55 C 0.84263 0.83576 0.44425 0.0
H56 H 0.8326 0.82795 0.45956 0.0
H57 H 0.84358 0.84572 0.48221 0.0
H58 H 0.85384 0.82873 0.44617 0.0
O59 O 0.8404 0.8025 0.38443 0.0
O60 O 0.82537 0.78196 0.40309 0.0
C61 C 0.79401 0.80689 0.43921 0.0
O62 O 0.82502 0.78122 0.25192 0.0
O63 O 0.83319 0.80474 0.22153 0.0
Zn64 Zn 0.45946 0.53278 0.61295 0.0
O65 O 0.44856 0.52248 0.52717 0.0
C66 C 0.47891 0.5545 0.51761 0.0
Zn67 Zn 0.44714 0.55682 0.59763 0.0
C68 C 0.43903 0.53025 0.48851 0.0
O69 O 0.43583 0.54487 0.50388 0.0
C70 C 0.46944 0.55712 0.7223 0.0
O71 O 0.42804 0.54779 0.66535 0.0
O72 O 0.441 0.5254 0.6751 0.0
N73 N 0.43284 0.57851 0.59036 0.0
C74 C 0.42334 0.58545 0.64022 0.0
C75 C 0.41993 0.59866 0.54684 0.0
N76 N 0.43061 0.58691 0.53252 0.0
N77 N 0.41493 0.59805 0.61423 0.0
C78 C 0.46556 0.4999 0.67323 0.0
C79 C 0.47454 0.50489 0.66132 0.0
N80 N 0.47151 0.51187 0.63786 0.0
N81 N 0.48717 0.5141 0.64062 0.0
N82 N 0.47613 0.49306 0.71508 0.0
H83 H 0.44866 0.47957 0.65912 0.0
H84 H 0.44118 0.49797 0.62244 0.0
H85 H 0.44155 0.49454 0.71723 0.0
C86 C 0.44781 0.49262 0.66682 0.0
C87 C 0.42287 0.58038 0.71559 0.0
H88 H 0.43405 0.57445 0.73126 0.0
H89 H 0.41298 0.57185 0.72341 0.0
H90 H 0.42083 0.59078 0.75038 0.0
O91 O 0.4601 0.56664 0.69011 0.0
O92 O 0.47074 0.54299 0.70027 0.0
C93 C 0.42883 0.53369 0.68867 0.0
O94 O 0.47818 0.54098 0.54776 0.0
O95 O 0.46743 0.5645 0.52719 0.0
Zn96 Zn 0.72698 0.20709 0.75828 0.0
O97 O 0.73356 0.18935 0.69385 0.0
C98 C 0.70095 0.21603 0.65862 0.0
Zn99 Zn 0.70463 0.1939 0.78504 0.0
C100 C 0.72658 0.17665 0.68031 0.0
O101 O 0.71317 0.17409 0.71042 0.0
C102 C 0.70716 0.22671 0.85841 0.0
O103 O 0.71733 0.18376 0.87697 0.0
O104 O 0.73849 0.19711 0.84522 0.0
N105 N 0.68359 0.18013 0.80649 0.0
C106 C 0.67556 0.17463 0.86377 0.0
C107 C 0.66521 0.16353 0.77475 0.0
N108 N 0.67693 0.17314 0.75172 0.0
N109 N 0.66394 0.16403 0.84523 0.0
C110 C 0.76199 0.20803 0.72304 0.0
C111 C 0.75671 0.21723 0.71195 0.0
N112 N 0.74832 0.21583 0.72568 0.0
N113 N 0.74799 0.23094 0.70531 0.0
N114 N 0.77351 0.21698 0.69866 0.0
H115 H 0.77308 0.1841 0.70895 0.0
H116 H 0.75573 0.1832 0.76509 0.0
H117 H 0.77411 0.19121 0.79625 0.0
C118 C 0.76615 0.19038 0.75016 0.0
C119 C 0.6797 0.17911 0.93745 0.0
H120 H 0.69145 0.18499 0.93991 0.0
H121 H 0.67959 0.16844 0.97159 0.0
H122 H 0.67069 0.18767 0.95752 0.0
O123 O 0.69773 0.21469 0.85424 0.0
O124 O 0.72021 0.2264 0.82353 0.0
C125 C 0.73166 0.18817 0.88919 0.0
O126 O 0.71548 0.2184 0.67342 0.0
O127 O 0.69301 0.20591 0.69456 0.0
Zn128 Zn 0.05953 0.57493 0.54668 0.0
O129 O 0.0637 0.55769 0.45901 0.0
C130 C 0.03481 0.59235 0.4584 0.0
Zn131 Zn 0.03475 0.56539 0.55682 0.0
C132 C 0.05207 0.54901 0.43809 0.0
O133 O 0.03865 0.55024 0.4689 0.0
C134 C 0.03969 0.59005 0.66291 0.0
O135 O 0.04293 0.54679 0.62542 0.0
O136 O 0.06752 0.55596 0.62559 0.0
N137 N 0.0116 0.55957 0.56232 0.0
C138 C 1.00181 0.55558 0.6151 0.0
C139 C 0.98835 0.55482 0.5225 0.0
N140 N 1.00286 0.5601 0.50509 0.0
N141 N 0.98757 0.55031 0.59074 0.0
C142 C 0.08878 0.59499 0.48184 0.0
C143 C 0.10427 0.59788 0.56869 0.0
N144 N 0.08256 0.58614 0.53509 0.0
N145 N 0.09237 0.58802 0.58872 0.0
N146 N 0.10233 0.6027 0.50173 0.0
H147 H 0.07562 0.58403 0.39803 0.0
H148 H 0.09175 0.59678 0.36996 0.0
H149 H 0.07363 0.60531 0.40403 0.0
C150 C 0.08208 0.59522 0.40914 0.0
C151 C 1.0061 0.55653 0.69137 0.0
H152 H 0.01782 0.55084 0.70092 0.0
H153 H 0.99679 0.55098 0.7245 0.0
H154 H 1.00693 0.56918 0.70717 0.0
O155 O 0.03046 0.57972 0.63859 0.0
O156 O 0.05364 0.59143 0.63633 0.0
C157 C 0.05726 0.54566 0.64737 0.0
O158 O 0.04982 0.5922 0.46869 0.0
O159 O 0.0264 0.58271 0.49213 0.0
Zn160 Zn 0.69658 0.8126 0.82176 0.0
O161 O 0.71671 0.8156 0.74789 0.0
C162 C 0.68911 0.78242 0.73644 0.0
Zn163 Zn 0.70864 0.79068 0.86266 0.0
C164 C 0.72929 0.80689 0.75295 0.0
O165 O 0.72973 0.79588 0.79953 0.0
C166 C 0.67704 0.79461 0.92781 0.0
O167 O 0.71809 0.80276 0.94568 0.0
O168 O 0.71149 0.82608 0.90527 0.0
N169 N 0.71601 0.77005 0.90973 0.0
C170 C 0.72842 0.7661 0.95053 0.0
C171 C 0.71345 0.74608 0.9473 0.0
N172 N 0.70621 0.75779 0.91145 0.0
N173 N 0.72826 0.75041 0.96785 0.0
C174 C 0.67474 0.83887 0.73534 0.0
C175 C 0.67185 0.85639 0.81457 0.0
N176 N 0.68383 0.83408 0.79079 0.0
N177 N 0.6819 0.84518 0.83934 0.0
N178 N 0.6668 0.85289 0.74916 0.0
H179 H 0.68544 0.82267 0.66168 0.0
H180 H 0.67381 0.83842 0.62261 0.0
H181 H 0.66403 0.82201 0.66618 0.0
C182 C 0.6745 0.83002 0.66728 0.0
C183 C 0.74008 0.77797 0.97907 0.0
H184 H 0.74462 0.78569 0.9364 0.0
H185 H 0.75003 0.77249 1.00811 0.0
H186 H 0.73385 0.78541 0.01842 0.0
O187 O 0.68894 0.78583 0.91844 0.0
O188 O 0.67673 0.80819 0.89829 0.0
C189 C 0.7191 0.81762 0.9505 0.0
O190 O 0.68431 0.79696 0.74013 0.0
O191 O 0.69942 0.77772 0.78024 0.0
Zn192 Zn 0.44659 0.45101 0.04296 0.0
O193 O 0.4278 0.46009 0.97469 0.0
C194 C 0.47157 0.45336 0.92123 0.0
Zn195 Zn 0.45935 0.47474 0.03251 0.0
C196 C 0.42904 0.47417 0.95152 0.0
O197 O 0.44125 0.48217 0.9667 0.0
C198 C 0.47766 0.45311 0.13032 0.0
O199 O 0.44652 0.48176 0.12124 0.0
O200 O 0.43343 0.45961 0.13763 0.0
N201 N 0.46742 0.49782 0.02748 0.0
C202 C 0.45921 0.51136 0.04167 0.0
C203 C 0.48356 0.51726 0.04028 0.0
N204 N 0.48262 0.50168 0.02435 0.0
N205 N 0.46903 0.5237 0.05363 0.0
C206 C 0.42454 0.42212 0.99053 0.0
C207 C 0.421 0.40795 0.0811 0.0
N208 N 0.43378 0.42858 0.04199 0.0
N209 N 0.43148 0.41958 0.09804 0.0
N210 N 0.4162 0.40925 1.01378 0.0
H211 H 0.41447 0.43661 0.90962 0.0
H212 H 0.42236 0.41791 0.87949 0.0
H213 H 0.43564 0.43391 0.90271 0.0
C214 C 0.42433 0.42794 0.91628 0.0
C215 C 0.44142 0.51328 0.04102 0.0
H216 H 0.43496 0.50235 0.05442 0.0
H217 H 0.43795 0.5169 0.98731 0.0
H218 H 0.43752 0.52298 0.07665 0.0
O219 O 0.478 0.46681 0.10142 0.0
O220 O 0.46619 0.44354 0.11507 0.0
C221 C 0.43666 0.47384 0.15698 0.0
O222 O 0.46145 0.44398 0.95007 0.0
O223 O 0.47302 0.46745 0.94458 0.0
Zn224 Zn 0.8178 0.2006 0.32572 0.0
O225 O 0.80283 0.1935 0.23502 0.0
C226 C 0.81932 0.23434 0.25678 0.0
Zn227 Zn 0.79681 0.21666 0.34811 0.0
C228 C 0.78894 0.19918 0.22075 0.0
O229 O 0.78278 0.20974 0.26092 0.0
C230 C 0.82395 0.22001 0.45346 0.0
O231 O 0.78645 0.19779 0.39949 0.0
O232 O 0.80645 0.18134 0.39268 0.0
N233 N 0.78046 0.23047 0.40187 0.0
C234 C 0.77627 0.22875 0.47046 0.0
C235 C 0.76544 0.24991 0.43419 0.0
N236 N 0.77404 0.24394 0.38016 0.0
N237 N 0.76668 0.24066 0.49216 0.0
C238 C 0.8433 0.177 0.24131 0.0
C239 C 0.85685 0.16893 0.32822 0.0
N240 N 0.83719 0.18444 0.29919 0.0
N241 N 0.8458 0.17926 0.35255 0.0
N242 N 0.85572 0.16703 0.25815 0.0
H243 H 0.82847 0.17128 0.15413 0.0
H244 H 0.84749 0.17977 0.13062 0.0
H245 H 0.83174 0.1922 0.16651 0.0
C246 C 0.83749 0.18031 0.16874 0.0
C247 C 0.78168 0.21576 0.51935 0.0
H248 H 0.77343 0.20555 0.51624 0.0
H249 H 0.78161 0.22028 0.57365 0.0
H250 H 0.79371 0.21119 0.50863 0.0
O251 O 0.8105 0.22415 0.4314 0.0
O252 O 0.83147 0.20915 0.42004 0.0
C253 C 0.79222 0.18436 0.41346 0.0
O254 O 0.82722 0.22116 0.2596 0.0
O255 O 0.80636 0.23554 0.29137 0.0
Zn256 Zn 0.95341 0.57373 0.04659 0.0
O257 O 0.96462 0.58925 0.96647 0.0
C258 C 0.95815 0.54739 0.94082 0.0
Zn259 Zn 0.9771 0.5617 0.06282 0.0
C260 C 0.97979 0.58873 0.96154 0.0
O261 O 0.98722 0.57904 0.99971 0.0
C262 C 0.95266 0.54499 0.1508 0.0
O263 O 0.98336 0.57462 0.14685 0.0
O264 O 0.96232 0.58996 0.13264 0.0
N265 N 0.99926 0.55151 0.06288 0.0
C266 C 1.00385 0.53925 0.09948 0.0
C267 C 1.00555 0.54513 0.06014 0.0
N268 N 1.00707 0.55469 1.00327 0.0
N269 N 0.01299 0.52996 0.0607 0.0
C270 C 0.92514 0.59587 0.98246 0.0
C271 C 0.91129 0.6018 0.07205 0.0
N272 N 0.93154 0.58763 0.03723 0.0
N273 N 0.92274 0.59143 0.09256 0.0
N274 N 0.91244 0.60511 1.00289 0.0
H275 H 0.93986 0.60347 0.89728 0.0
H276 H 0.92096 0.59516 0.87107 0.0
H277 H 0.93688 0.58239 0.90121 0.0
C278 C 0.93098 0.59408 0.90861 0.0
C279 C 0.99734 0.53365 0.17498 0.0
H280 H 1.00716 0.52812 0.20518 0.0
H281 H 0.98815 0.52434 0.16809 0.0
H282 H 0.99228 0.54387 0.20458 0.0
O283 O 0.96682 0.54401 0.1274 0.0
O284 O 0.94382 0.55663 0.12977 0.0
C285 C 0.97551 0.58685 0.16397 0.0
O286 O 0.94669 0.55654 0.96041 0.0
O287 O 0.97125 0.54811 0.97388 0.0
Zn288 Zn 0.1985 0.20473 0.78467 0.0
O289 O 0.18023 0.21571 0.71488 0.0
C290 C 0.22164 0.20535 0.66248 0.0
Zn291 Zn 0.21271 0.22769 0.78066 0.0
C292 C 0.18264 0.23011 0.69748 0.0
O293 O 0.19483 0.23686 0.72053 0.0
C294 C 0.23075 0.20379 0.866 0.0
O295 O 0.20209 0.23605 0.87031 0.0
O296 O 0.18709 0.21485 0.88253 0.0
N297 N 0.22315 0.24972 0.76555 0.0
C298 C 0.2143 0.2625 0.7572 0.0
C299 C 0.22362 0.25787 0.74644 0.0
N300 N 0.23713 0.24908 0.73267 0.0
N301 N 0.21973 0.27195 0.70735 0.0
C302 C 0.1741 0.17725 0.73612 0.0
C303 C 0.1712 0.16286 0.82647 0.0
N304 N 0.18392 0.1834 0.78623 0.0
N305 N 0.18202 0.17427 0.84213 0.0
N306 N 0.16581 0.16442 0.76013 0.0
H307 H 0.16366 0.19228 0.65817 0.0
H308 H 0.17072 0.17344 0.62532 0.0
H309 H 0.18464 0.18897 0.64672 0.0
C310 C 0.17332 0.18329 0.66229 0.0
C311 C 0.19866 0.26758 0.8021 0.0
H312 H 0.20211 0.26926 0.85775 0.0
H313 H 0.18932 0.25837 0.80081 0.0
H314 H 0.19364 0.27889 0.78174 0.0
O315 O 0.23127 0.21792 0.84148 0.0
O316 O 0.21844 0.19511 0.85302 0.0
C317 C 0.19168 0.22854 0.90468 0.0
O318 O 0.21135 0.19626 0.69112 0.0
O319 O 0.22415 0.219 0.6886 0.0
Zn320 Zn 0.57141 0.45082 0.54858 0.0
O321 O 0.55524 0.4452 0.45489 0.0
C322 C 0.58657 0.47669 0.46521 0.0
Zn323 Zn 0.55699 0.47378 0.54878 0.0
C324 C 0.54512 0.4553 0.42982 0.0
O325 O 0.54368 0.46885 0.45897 0.0
C326 C 0.58122 0.47251 0.66646 0.0
O327 O 0.5396 0.46256 0.61165 0.0
O328 O 0.55368 0.44061 0.62294 0.0
N329 N 0.54785 0.49634 0.56398 0.0
C330 C 0.53755 0.49864 0.61691 0.0
C331 C 0.55647 0.51492 0.63331 0.0
N332 N 0.55924 0.50709 0.57263 0.0
N333 N 0.54293 0.50966 0.66273 0.0
C334 C 0.59445 0.42331 0.48361 0.0
C335 C 0.59832 0.4078 0.56947 0.0
N336 N 0.5853 0.42896 0.53755 0.0
N337 N 0.58781 0.41912 0.59054 0.0
N338 N 0.60296 0.41008 0.50235 0.0
H339 H 0.58278 0.43642 0.40145 0.0
H340 H 0.59622 0.42097 0.37134 0.0
H341 H 0.60397 0.43921 0.40711 0.0
C342 C 0.59428 0.43033 0.41155 0.0
C343 C 0.52169 0.4906 0.62205 0.0
H344 H 0.5186 0.48463 0.57198 0.0
H345 H 0.51261 0.49961 0.63511 0.0
H346 H 0.52155 0.48187 0.66526 0.0
O347 O 0.56968 0.47925 0.6369 0.0
O348 O 0.58608 0.45912 0.642 0.0
C349 C 0.54124 0.44885 0.63844 0.0
O350 O 0.58818 0.46202 0.47919 0.0
O351 O 0.57452 0.48416 0.48809 0.0
Zn352 Zn 0.31105 0.81558 0.26589 0.0
O353 O 0.32433 0.80409 0.17553 0.0
C354 C 0.28406 0.82949 0.18028 0.0
Zn355 Zn 0.28993 0.79917 0.25245 0.0
C356 C 0.31606 0.79409 0.14082 0.0
O357 O 0.3021 0.79133 0.16177 0.0
C358 C 0.28289 0.81921 0.37497 0.0
O359 O 0.30219 0.78195 0.31547 0.0
O360 O 0.32201 0.79806 0.33936 0.0
N361 N 0.27237 0.78332 0.22166 0.0
C362 C 0.27885 0.76874 0.22234 0.0
C363 C 0.27488 0.77443 0.1152 0.0
N364 N 0.26872 0.78623 0.15514 0.0
N365 N 0.2818 0.76351 0.15657 0.0
C366 C 0.33619 0.84298 0.2293 0.0
C367 C 0.34953 0.84592 0.32285 0.0
N368 N 0.33 0.83263 0.27696 0.0
N369 N 0.33845 0.83455 0.33493 0.0
N370 N 0.34842 0.85158 0.2568 0.0
H371 H 0.32599 0.83241 0.13651 0.0
H372 H 0.34103 0.8472 0.11975 0.0
H373 H 0.32148 0.85307 0.14947 0.0
C374 C 0.33093 0.84388 0.15436 0.0
C375 C 0.27723 0.75784 0.28416 0.0
H376 H 0.28594 0.74793 0.28194 0.0
H377 H 0.26515 0.75253 0.28306 0.0
H378 H 0.27824 0.7645 0.33417 0.0
O379 O 0.2775 0.8073 0.34124 0.0
O380 O 0.29639 0.82523 0.35632 0.0
C381 C 0.31505 0.78465 0.34858 0.0
O382 O 0.29843 0.83256 0.19687 0.0
O383 O 0.2782 0.8162 0.19641 0.0
Zn384 Zn 0.97777 0.46096 0.53436 0.0
O385 O 0.98335 0.44379 0.46481 0.0
C386 C 0.95341 0.47434 0.434 0.0
Zn387 Zn 0.95457 0.44808 0.54906 0.0
C388 C 0.97581 0.4317 0.44575 0.0
O389 O 0.96185 0.42938 0.47069 0.0
C390 C 0.9586 0.47849 0.64263 0.0
O391 O 0.96643 0.43448 0.6341 0.0
O392 O 0.98843 0.44731 0.61055 0.0
N393 N 0.93234 0.43605 0.57037 0.0
C394 C 0.92906 0.42094 0.59161 0.0
C395 C 0.90691 0.43323 0.58771 0.0
N396 N 0.91844 0.44355 0.56823 0.0
N397 N 0.91312 0.41883 0.60292 0.0
C398 C 1.00604 0.47143 0.44834 0.0
C399 C 1.00725 0.47317 0.49513 0.0
N400 N 0.99977 0.4696 0.5111 0.0
N401 N 1.00728 0.47583 0.56601 0.0
N402 N 0.01804 0.48142 0.44993 0.0
H403 H 1.004 0.45251 0.36649 0.0
H404 H 1.00447 0.47219 0.3307 0.0
H405 H 0.98651 0.46481 0.37135 0.0
C406 C 0.99965 0.46486 0.37413 0.0
C407 C 0.94177 0.40901 0.60883 0.0
H408 H 0.94635 0.41157 0.66215 0.0
H409 H 0.95182 0.40999 0.57127 0.0
H410 H 0.93728 0.39668 0.60907 0.0
O411 O 0.94881 0.46732 0.62698 0.0
O412 O 0.97206 0.47886 0.61105 0.0
C413 C 0.98124 0.43685 0.64574 0.0
O414 O 0.96757 0.47556 0.45619 0.0
O415 O 0.94445 0.46346 0.46057 0.0
Zn416 Zn 0.30219 0.21771 0.24897 0.0
O417 O 0.32049 0.22636 0.18919 0.0
C418 C 0.29555 0.18909 0.15638 0.0
Zn419 Zn 0.31779 0.1967 0.27395 0.0
C420 C 0.33263 0.21876 0.1691 0.0
O421 O 0.3347 0.20465 0.19152 0.0
C422 C 0.28686 0.19777 0.35906 0.0
O423 O 0.3281 0.21404 0.35223 0.0
O424 O 0.31041 0.23288 0.32887 0.0
N425 N 0.33457 0.17781 0.2997 0.0
C426 C 0.34041 0.17006 0.35711 0.0
C427 C 0.35309 0.16098 0.26905 0.0
N428 N 0.34261 0.17194 0.24563 0.0
N429 N 0.35216 0.15938 0.33924 0.0
C430 C 0.28837 0.23872 0.13025 0.0
C431 C 0.26687 0.24771 0.17229 0.0
N432 N 0.28747 0.23366 0.1979 0.0
N433 N 0.27371 0.23885 0.22295 0.0
N434 N 0.27587 0.24793 0.11307 0.0
H435 H 0.31134 0.24233 0.08453 0.0
H436 H 0.29647 0.23626 0.02338 0.0
H437 H 0.30475 0.22189 0.08226 0.0
C438 C 0.30097 0.23441 0.07746 0.0
C439 C 0.3352 0.17378 0.43035 0.0
H440 H 0.33003 0.18593 0.43321 0.0
H441 H 0.34537 0.1727 0.46711 0.0
H442 H 0.32585 0.16521 0.44629 0.0
O443 O 0.30018 0.19027 0.35411 0.0
O444 O 0.28392 0.20917 0.31682 0.0
C445 C 0.32227 0.22801 0.36473 0.0
O446 O 0.29369 0.20356 0.17017 0.0
O447 O 0.3053 0.18106 0.19401 0.0
Zn448 Zn 0.55461 0.53508 0.11738 0.0
O449 O 0.53527 0.54385 0.05213 0.0
C450 C 0.57541 0.52766 0.99842 0.0
Zn451 Zn 0.56858 0.55731 0.09587 0.0
C452 C 0.5374 0.55611 1.01347 0.0
O453 O 0.55045 0.56394 0.01916 0.0
C454 C 0.58552 0.5356 0.19233 0.0
O455 O 0.55404 0.57012 0.17956 0.0
O456 O 0.5448 0.54659 0.20378 0.0
N457 N 0.58345 0.57821 0.08159 0.0
C458 C 0.59237 0.58614 0.13014 0.0
C459 C 0.59684 0.5973 0.03244 0.0
N460 N 0.58632 0.58535 0.02098 0.0
N461 N 0.60102 0.59808 0.10073 0.0
C462 C 0.5306 0.50828 0.13198 0.0
C463 C 0.53688 0.50984 0.17095 0.0
N464 N 0.54316 0.51537 0.15684 0.0
N465 N 0.54715 0.5126 0.22393 0.0
N466 N 0.52236 0.50178 0.18371 0.0
H467 H 0.51567 0.52058 0.05207 0.0
H468 H 0.51646 0.49937 0.04066 0.0
H469 H 0.53339 0.51163 1.01568 0.0
C470 C 0.52358 0.51003 0.05414 0.0
C471 C 0.59198 0.58282 0.20738 0.0
H472 H 0.58051 0.57754 0.22343 0.0
H473 H 0.59391 0.59391 0.2377 0.0
H474 H 0.60166 0.57434 0.22069 0.0
O475 O 0.5861 0.54981 0.17111 0.0
O476 O 0.57378 0.52712 0.17557 0.0
C477 C 0.54521 0.56121 0.21764 0.0
O478 O 0.56371 0.52286 0.03461 0.0
O479 O 0.58101 0.54173 1.01051 0.0
Zn480 Zn 0.22911 0.80852 0.83544 0.0
O481 O 0.22105 0.78848 0.77821 0.0
C482 C 0.22611 0.82818 0.70472 0.0
Zn483 Zn 0.20454 0.82001 0.82967 0.0
C484 C 0.20709 0.78779 0.75188 0.0
O485 O 0.19709 0.79904 0.7655 0.0
C486 C 0.22826 0.84018 0.90482 0.0
O487 O 0.19893 0.80658 0.92932 0.0
O488 O 0.22352 0.79731 0.92987 0.0
N489 N 0.18172 0.83228 0.82913 0.0
C490 C 0.17319 0.83935 0.88183 0.0
C491 C 0.1629 0.84719 0.78631 0.0
N492 N 0.17516 0.83731 0.77005 0.0
N493 N 0.16129 0.84884 0.8564 0.0
C494 C 0.2611 0.79568 0.78989 0.0
C495 C 0.27648 0.81194 0.84196 0.0
N496 N 0.25274 0.80174 0.84349 0.0
N497 N 0.26255 0.81144 0.87732 0.0
N498 N 0.27576 0.80229 0.78602 0.0
H499 H 0.26476 0.77581 0.721 0.0
H500 H 0.24827 0.7887 0.69765 0.0
H501 H 0.24684 0.77509 0.7709 0.0
C502 C 0.25486 0.78314 0.74166 0.0
C503 C 0.17734 0.83794 0.95793 0.0
H504 H 0.16984 0.82857 0.98196 0.0
H505 H 0.17496 0.84931 0.98568 0.0
H506 H 0.18996 0.83453 0.96517 0.0
O507 O 0.2135 0.84051 0.89033 0.0
O508 O 0.23632 0.82817 0.8879 0.0
C509 C 0.20981 0.79802 0.95812 0.0
O510 O 0.23519 0.81944 0.74092 0.0
O511 O 0.21204 0.83126 0.7279 0.0
Zn512 Zn 0.53794 0.96041 0.53613 0.0
O513 O 0.54775 0.97544 0.46004 0.0
C514 C 0.53902 0.93241 0.44025 0.0
Zn515 Zn 0.56098 0.9462 0.55164 0.0
C516 C 0.56229 0.97433 0.4417 0.0
O517 O 0.57107 0.96336 0.46937 0.0
C518 C 0.53442 0.93439 0.64473 0.0
O519 O 0.56793 0.96313 0.63454 0.0
O520 O 0.54581 0.97667 0.61594 0.0
N521 N 0.58264 0.93203 0.56092 0.0
C522 C 0.59128 0.92602 0.61549 0.0
C523 C 0.60047 0.91522 0.52302 0.0
N524 N 0.58857 0.92517 0.5039 0.0
N525 N 0.60258 0.91534 0.59313 0.0
C526 C 0.50207 0.96367 0.52988 0.0
C527 C 0.50688 0.9733 0.53669 0.0
N528 N 0.51571 0.97139 0.53056 0.0
N529 N 0.51553 0.98667 0.54977 0.0
N530 N 0.49038 0.97236 0.55514 0.0
H531 H 0.48654 0.94205 0.52373 0.0
H532 H 0.50746 0.93737 0.53018 0.0
H533 H 0.49936 0.94487 0.44911 0.0
C534 C 0.4987 0.94563 0.5071 0.0
C535 C 0.58785 0.92984 0.69069 0.0
H536 H 0.59632 0.93906 0.70879 0.0
H537 H 0.58944 0.91912 0.72375 0.0
H538 H 0.5756 0.93461 0.6971 0.0
O539 O 0.54902 0.93104 0.63171 0.0
O540 O 0.52806 0.94584 0.61242 0.0
C541 C 0.55894 0.97508 0.64884 0.0
O542 O 0.53103 0.94451 0.45868 0.0
O543 O 0.55266 0.92995 0.46787 0.0
Zn544 Zn 0.30293 0.2882 0.78631 0.0
O545 O 0.28914 0.30253 0.71772 0.0
C546 C 0.32832 0.28944 0.67599 0.0
Zn547 Zn 0.31783 0.31047 0.79843 0.0
C548 C 0.29027 0.31723 0.70418 0.0
O549 O 0.30184 0.325 0.73093 0.0
C550 C 0.32884 0.28054 0.88135 0.0
O551 O 0.3019 0.31629 0.88973 0.0
O552 O 0.28743 0.2949 0.86871 0.0
N553 N 0.33348 0.3304 0.81732 0.0
C554 C 0.34302 0.33491 0.87157 0.0
C555 C 0.34649 0.35181 0.79045 0.0
N556 N 0.33577 0.34106 0.76736 0.0
N557 N 0.35148 0.34834 0.85594 0.0
C558 C 0.27876 0.26984 0.71049 0.0
C559 C 0.29379 0.2515 0.67047 0.0
N560 N 0.29058 0.26808 0.75691 0.0
N561 N 0.29956 0.25616 0.73329 0.0
N562 N 0.28089 0.26023 0.65426 0.0
H563 H 0.25355 0.27328 0.71397 0.0
H564 H 0.26404 0.29017 0.6863 0.0
H565 H 0.26435 0.28482 0.77795 0.0
C566 C 0.26444 0.28017 0.72348 0.0
C567 C 0.34317 0.32661 0.94088 0.0
H568 H 0.3316 0.32063 0.95033 0.0
H569 H 0.34553 0.33515 0.98397 0.0
H570 H 0.35269 0.31743 0.94054 0.0
O571 O 0.33254 0.29497 0.86734 0.0
O572 O 0.3165 0.27458 0.85384 0.0
C573 C 0.28971 0.30761 0.90384 0.0
O574 O 0.31753 0.28163 0.7055 0.0
O575 O 0.33188 0.30313 0.70113 0.0
Zn576 Zn 0.95779 0.03546 0.05798 0.0
O577 O 0.94179 0.02999 0.97928 0.0
C578 C 0.97454 0.05577 0.95462 0.0
Zn579 Zn 0.9468 0.06027 0.06423 0.0
C580 C 0.93107 0.03902 0.95551 0.0
O581 O 0.92985 0.05312 0.98005 0.0
C582 C 0.97497 0.05561 0.1676 0.0
O583 O 0.93008 0.05206 0.14633 0.0
O584 O 0.94182 0.02905 0.13457 0.0
N585 N 0.93521 0.08341 0.06897 0.0
C586 C 0.92923 0.09234 0.12293 0.0
C587 C 0.91975 0.10212 0.02924 0.0
N588 N 0.9292 0.0897 1.01113 0.0
N589 N 0.91933 0.10417 0.09944 0.0
C590 C 0.9538 0.99978 0.0604 0.0
C591 C 0.9643 1.00255 0.06403 0.0
N592 N 0.96419 0.01153 0.05736 0.0
N593 N 0.97934 0.00836 0.0733 0.0
N594 N 0.96025 0.98664 0.08394 0.0
H595 H 0.92905 0.01097 0.05352 0.0
H596 H 0.92912 0.98982 0.06805 0.0
H597 H 0.93426 0.99741 0.98364 0.0
C598 C 0.9352 0.99974 0.04066 0.0
C599 C 0.93227 0.08874 0.19861 0.0
H600 H 0.93769 0.07685 0.20541 0.0
H601 H 0.92102 0.0896 0.22914 0.0
H602 H 0.94079 0.09755 0.21983 0.0
O603 O 0.96469 0.066 0.14753 0.0
O604 O 0.97477 0.0418 0.13944 0.0
C605 C 0.93134 0.0375 0.1639 0.0
O606 O 0.97419 0.0418 0.98006 0.0
O607 O 0.96477 0.0664 0.97859 0.0
Zn608 Zn 0.23091 0.70943 0.32794 0.0
O609 O 0.23513 0.69767 0.23343 0.0
C610 C 0.20779 0.72964 0.24885 0.0
Zn611 Zn 0.20674 0.69747 0.32756 0.0
C612 C 0.22618 0.68837 0.19997 0.0
O613 O 0.21241 0.68515 0.22566 0.0
C614 C 0.21342 0.72043 0.45379 0.0
O615 O 0.21685 0.67759 0.3889 0.0
O616 O 0.2394 0.6901 0.37886 0.0
N617 N 0.18369 0.68626 0.33806 0.0
C618 C 0.17978 0.6707 0.3482 0.0
C619 C 0.15865 0.68409 0.36568 0.0
N620 N 0.17039 0.69444 0.34888 0.0
N621 N 0.16415 0.66898 0.36659 0.0
C622 C 0.2631 0.71508 0.26757 0.0
C623 C 0.27808 0.70692 0.35015 0.0
N624 N 0.25448 0.71607 0.3268 0.0
N625 N 0.2639 0.7112 0.37832 0.0
N626 N 0.27764 0.70859 0.28004 0.0
H627 H 0.24651 0.72901 0.20606 0.0
H628 H 0.25586 0.71293 0.15913 0.0
H629 H 0.26684 0.73058 0.1804 0.0
C630 C 0.2577 0.72223 0.19947 0.0
C631 C 0.1911 0.65717 0.33574 0.0
H632 H 0.20035 0.66056 0.297 0.0
H633 H 0.18458 0.64658 0.31643 0.0
H634 H 0.19707 0.65399 0.3856 0.0
O635 O 0.20254 0.7116 0.42711 0.0
O636 O 0.2269 0.7212 0.4234 0.0
C637 C 0.23182 0.67807 0.39869 0.0
O638 O 0.22199 0.72935 0.27263 0.0
O639 O 0.19831 0.7181 0.26375 0.0
Zn640 Zn 0.56163 0.06961 0.05027 0.0
O641 O 0.56978 0.0544 0.96112 0.0
C642 C 0.53359 0.08251 0.96464 0.0
Zn643 Zn 0.5391 0.05534 0.05708 0.0
C644 C 0.56001 0.04403 0.93747 0.0
O645 O 0.54652 0.04256 0.96695 0.0
C646 C 0.53833 0.07977 0.16561 0.0
O647 O 0.55152 0.03896 0.11984 0.0
O648 O 0.57348 0.05281 0.12772 0.0
N649 N 0.51901 0.04184 0.06343 0.0
C650 C 0.5179 0.03053 0.10979 0.0
C651 C 0.51573 0.03386 0.06502 0.0
N652 N 0.51125 0.04025 1.00265 0.0
N653 N 0.51433 0.01725 0.07823 0.0
C654 C 0.59024 0.09122 0.98736 0.0
C655 C 0.60004 0.10139 0.07965 0.0
N656 N 0.58208 0.08491 0.04249 0.0
N657 N 0.58832 0.09135 0.09951 0.0
N658 N 0.60166 0.10167 1.00922 0.0
H659 H 0.59435 0.07838 0.89234 0.0
H660 H 0.58783 0.09862 0.8798 0.0
H661 H 0.57389 0.08347 0.9071 0.0
C662 C 0.58626 0.08782 0.91233 0.0
C663 C 0.52333 0.03081 0.19078 0.0
H664 H 0.52682 0.04285 0.20814 0.0
H665 H 0.53327 0.0223 0.19931 0.0
H666 H 0.51325 0.02664 0.22369 0.0
O667 O 0.53142 0.06764 0.14178 0.0
O668 O 0.55169 0.08406 0.13919 0.0
C669 C 0.56536 0.04049 0.14492 0.0
O670 O 0.54845 0.08485 0.97511 0.0
O671 O 0.52681 0.07107 0.99521 0.0
Zn672 Zn 0.20117 0.31963 0.30972 0.0
O673 O 0.21643 0.32916 0.22558 0.0
C674 C 0.19831 0.29004 0.21634 0.0
Zn675 Zn 0.218 0.30007 0.33767 0.0
C676 C 0.23052 0.32333 0.22616 0.0
O677 O 0.23389 0.31288 0.27154 0.0
C678 C 0.19035 0.2936 0.41858 0.0
O679 O 0.22416 0.31335 0.42487 0.0
O680 O 0.21367 0.33547 0.38815 0.0
N681 N 0.23774 0.28686 0.36471 0.0
C682 C 0.24266 0.27348 0.33758 0.0
C683 C 0.24562 0.2826 0.3606 0.0
N684 N 0.24868 0.29633 0.39448 0.0
N685 N 0.25837 0.27358 0.33259 0.0
C686 C 0.17482 0.34398 0.23782 0.0
C687 C 0.16553 0.35525 0.32888 0.0
N688 N 0.18257 0.33742 0.29369 0.0
N689 N 0.17661 0.34459 0.34978 0.0
N690 N 0.16391 0.35532 0.25844 0.0
H691 H 0.19026 0.33336 0.16018 0.0
H692 H 0.17881 0.35031 0.13 0.0
H693 H 0.16937 0.3313 0.14385 0.0
C694 C 0.17861 0.33956 0.1636 0.0
C695 C 0.23201 0.2602 0.2995 0.0
H696 H 0.23743 0.2483 0.30795 0.0
H697 H 0.23186 0.26237 0.24214 0.0
H698 H 0.21963 0.26045 0.32021 0.0
O699 O 0.20326 0.2871 0.39926 0.0
O700 O 0.18677 0.30755 0.39556 0.0
C701 C 0.22251 0.32809 0.43201 0.0
O702 O 0.19115 0.30311 0.23191 0.0
O703 O 0.21083 0.28611 0.25008 0.0
Zn704 Zn 0.9417 0.95349 0.56101 0.0
O705 O 0.92659 0.96303 0.47666 0.0
C706 C 0.97117 0.95244 0.45963 0.0
Zn707 Zn 0.95648 0.9757 0.56141 0.0
C708 C 0.92963 0.97727 0.45861 0.0
O709 O 0.94124 0.98426 0.4866 0.0
C710 C 0.96969 0.95402 0.66962 0.0
O711 O 0.94148 0.9848 0.63507 0.0
O712 O 0.92538 0.9645 0.64183 0.0
N713 N 0.96679 0.99751 0.56409 0.0
C714 C 0.97061 1.00612 0.50966 0.0
C715 C 0.97175 1.0045 0.55724 0.0
N716 N 0.97167 1.00221 0.62763 0.0
N717 N 0.98251 0.01544 0.52582 0.0
C718 C 0.9194 0.92425 0.50959 0.0
C719 C 0.91659 0.91099 0.60335 0.0
N720 N 0.92806 0.93184 0.55996 0.0
N721 N 0.92617 0.92344 0.61798 0.0
N722 N 0.91193 0.91115 0.53563 0.0
H723 H 0.93043 0.93506 0.41968 0.0
H724 H 0.90914 0.93766 0.42608 0.0
H725 H 0.91721 0.91871 0.39967 0.0
C726 C 0.9191 0.92915 0.43422 0.0
C727 C 0.96536 1.00355 0.42929 0.0
H728 H 0.9528 0.00734 0.42287 0.0
H729 H 0.96652 0.99093 0.41345 0.0
H730 H 0.97256 0.01103 0.39379 0.0
O731 O 0.972 0.96734 0.64019 0.0
O732 O 0.95791 0.94541 0.64921 0.0
C733 C 0.92916 0.97861 0.66091 0.0
O734 O 0.95917 0.94417 0.48032 0.0
O735 O 0.97288 0.96641 0.4844 0.0
Zn736 Zn 0.31195 0.69715 0.76294 0.0
O737 O 0.30096 0.67851 0.69462 0.0
C738 C 0.31596 0.71544 0.63064 0.0
Zn739 Zn 0.28934 0.71033 0.73841 0.0
C740 C 0.28625 0.6795 0.6779 0.0
O741 O 0.27859 0.69204 0.69155 0.0
C742 C 0.31241 0.72942 0.83229 0.0
O743 O 0.27713 0.70421 0.82975 0.0
O744 O 0.29699 0.68775 0.85345 0.0
N745 N 0.27172 0.72576 0.70211 0.0
C746 C 0.26951 0.72728 0.63433 0.0
C747 C 0.26913 0.73233 0.67612 0.0
N748 N 0.26934 0.73852 0.74249 0.0
N749 N 0.26821 0.74232 0.6156 0.0
C750 C 0.34137 0.67382 0.72781 0.0
C751 C 0.34789 0.66374 0.82555 0.0
N752 N 0.33182 0.68081 0.77724 0.0
N753 N 0.33599 0.67436 0.83784 0.0
N754 N 0.35164 0.6631 0.75666 0.0
H755 H 0.32744 0.67962 0.63615 0.0
H756 H 0.34349 0.66579 0.62059 0.0
H757 H 0.34769 0.6865 0.63492 0.0
C758 C 0.33982 0.67653 0.65046 0.0
C759 C 0.26861 0.71326 0.57633 0.0
H760 H 0.26429 0.71815 0.52581 0.0
H761 H 0.26032 0.70386 0.59444 0.0
H762 H 0.28038 0.70768 0.56714 0.0
O763 O 0.30021 0.72941 0.79279 0.0
O764 O 0.32099 0.71671 0.83443 0.0
C765 C 0.28301 0.69335 0.86843 0.0
O766 O 0.32523 0.70846 0.67348 0.0
O767 O 0.30135 0.71583 0.64517 0.0
Zn768 Zn 0.45402 0.06431 0.56768 0.0
O769 O 0.47028 0.07752 0.49374 0.0
C770 C 0.45923 0.03382 0.4792 0.0
Zn771 Zn 0.47628 0.05025 0.59657 0.0
C772 C 0.48499 0.07324 0.48873 0.0
O773 O 0.48999 0.06163 0.52489 0.0
C774 C 0.44786 0.03934 0.68147 0.0
O775 O 0.48139 0.06829 0.66366 0.0
O776 O 0.45932 0.08179 0.65093 0.0
N777 N 0.49571 0.03853 0.63931 0.0
C778 C 0.49926 0.03698 0.70832 0.0
C779 C 0.51205 0.01916 0.65402 0.0
N780 N 0.50416 0.02771 0.60537 0.0
N781 N 0.50884 0.02435 0.71996 0.0
C782 C 0.42834 0.08755 0.48524 0.0
C783 C 0.41146 0.09135 0.56669 0.0
N784 N 0.43322 0.07854 0.54069 0.0
N785 N 0.42253 0.08104 0.59068 0.0
N786 N 0.41465 0.09597 0.50035 0.0
H787 H 0.44498 0.09755 0.41287 0.0
H788 H 0.42809 0.08791 0.37244 0.0
H789 H 0.44397 0.07622 0.41079 0.0
C790 C 0.43678 0.08726 0.41607 0.0
C791 C 0.49293 0.04727 0.76678 0.0
H792 H 0.47989 0.0489 0.76321 0.0
H793 H 0.49868 0.05909 0.76373 0.0
H794 H 0.49587 0.04223 0.8189 0.0
O795 O 0.46268 0.03826 0.67077 0.0
O796 O 0.4398 0.04936 0.64501 0.0
C797 C 0.47294 0.08015 0.67947 0.0
O798 O 0.4501 0.04606 0.48582 0.0
O799 O 0.47099 0.03214 0.52112 0.0
Zn800 Zn 0.69161 0.70685 0.2778 0.0
O801 O 0.67383 0.71771 0.20668 0.0
C802 C 0.71751 0.70867 0.16 0.0
Zn803 Zn 0.70594 0.72927 0.27734 0.0
C804 C 0.67617 0.73225 0.19168 0.0
O805 O 0.68846 0.73891 0.21502 0.0
C806 C 0.7229 0.70559 0.37009 0.0
O807 O 0.69339 0.73694 0.36343 0.0
O808 O 0.67789 0.71618 0.37249 0.0
N809 N 0.71527 0.75125 0.27604 0.0
C810 C 0.7177 0.76057 0.22208 0.0
C811 C 0.71916 0.75912 0.26894 0.0
N812 N 0.72098 0.75552 0.33835 0.0
N813 N 0.72823 0.77155 0.23746 0.0
C814 C 0.66902 0.67849 0.22194 0.0
C815 C 0.66624 0.66363 0.31089 0.0
N816 N 0.67804 0.68499 0.27401 0.0
N817 N 0.67621 0.67557 0.329 0.0
N818 N 0.66131 0.6651 0.24381 0.0
H819 H 0.65841 0.69323 0.14353 0.0
H820 H 0.66698 0.67502 0.11031 0.0
H821 H 0.67966 0.69131 0.13604 0.0
C822 C 0.66857 0.68483 0.14862 0.0
C823 C 0.71147 0.75846 0.14273 0.0
H824 H 0.69931 0.76356 0.13851 0.0
H825 H 0.71098 0.74584 0.12684 0.0
H826 H 0.71932 0.76509 0.1062 0.0
O827 O 0.72434 0.71957 0.34501 0.0
O828 O 0.71057 0.69738 0.35243 0.0
C829 C 0.68224 0.72992 0.39475 0.0
O830 O 0.70655 0.69953 0.18407 0.0
O831 O 0.71972 0.72201 0.18945 0.0
Zn832 Zn 0.06732 0.95391 0.06609 0.0
O833 O 0.05 0.94722 0.98096 0.0
C834 C 0.07575 0.98259 0.97608 0.0
Zn835 Zn 0.05103 0.97514 0.08006 0.0
C836 C 0.03703 0.95497 0.96876 0.0
O837 O 0.03384 0.96721 1.0057 0.0
C838 C 0.08066 0.97641 0.17122 0.0
O839 O 0.03847 0.963 0.15932 0.0
O840 O 0.05247 0.9411 0.14902 0.0
N841 N 0.03814 0.99494 0.10577 0.0
C842 C 0.03549 1.00068 0.17091 0.0
C843 C 0.01729 0.00969 0.10605 0.0
N844 N 0.02711 1.0011 0.06466 0.0
N845 N 0.02186 0.00913 0.17401 0.0
C846 C 0.09057 0.92723 0.99181 0.0
C847 C 0.09644 0.91274 0.07903 0.0
N848 N 0.08248 0.93332 0.048 0.0
N849 N 0.08627 0.92414 0.10172 0.0
N850 N 0.09962 0.91424 1.00987 0.0
H851 H 0.07748 0.94054 0.91464 0.0
H852 H 0.08895 0.924 0.88007 0.0
H853 H 0.09877 0.94199 0.90826 0.0
C854 C 0.08879 0.93375 0.91931 0.0
C855 C 0.04524 0.99699 0.23466 0.0
H856 H 0.04689 0.98405 0.24189 0.0
H857 H 0.03957 1.00203 0.28193 0.0
H858 H 0.05701 1.00279 0.22976 0.0
O859 O 0.06831 0.98321 0.14859 0.0
O860 O 0.08375 0.96232 0.14991 0.0
C861 C 0.04102 0.94884 0.17854 0.0
O862 O 0.08091 0.96855 0.98943 0.0
O863 O 0.06289 0.98738 1.00412 0.0
Zn864 Zn 0.81781 0.31836 0.82644 0.0
O865 O 0.82511 0.2987 0.75803 0.0
C866 C 0.78884 0.32034 0.72678 0.0
Zn867 Zn 0.7975 0.3023 0.85458 0.0
C868 C 0.81806 0.28527 0.75206 0.0
O869 O 0.80573 0.28256 0.78986 0.0
C870 C 0.79535 0.33385 0.92699 0.0
O871 O 0.81071 0.2941 0.93743 0.0
O872 O 0.83227 0.30761 0.91479 0.0
N873 N 0.77821 0.29178 0.89824 0.0
C874 C 0.77648 0.27845 0.93565 0.0
C875 C 0.7538 0.28927 0.93038 0.0
N876 N 0.76422 0.29906 0.89895 0.0
N877 N 0.76086 0.27542 0.94913 0.0
C878 C 0.84021 0.3479 0.77538 0.0
C879 C 0.86201 0.33584 0.75456 0.0
N880 N 0.83777 0.33231 0.79124 0.0
N881 N 0.85144 0.32499 0.77798 0.0
N882 N 0.85543 0.35049 0.75216 0.0
H883 H 0.81542 0.35455 0.77515 0.0
H884 H 0.82875 0.369 0.73599 0.0
H885 H 0.82801 0.3665 0.82982 0.0
C886 C 0.82731 0.3602 0.77879 0.0
C887 C 0.79012 0.26758 0.95426 0.0
H888 H 0.79817 0.26595 0.90855 0.0
H889 H 0.78631 0.25593 0.97438 0.0
H890 H 0.79693 0.273 0.99776 0.0
O891 O 0.78955 0.32048 0.91377 0.0
O892 O 0.80862 0.33768 0.89847 0.0
C893 C 0.82494 0.2973 0.95223 0.0
O894 O 0.80259 0.32658 0.73733 0.0
O895 O 0.78364 0.31021 0.77027 0.0
Zn896 Zn 0.47968 0.95206 0.04885 0.0
O897 O 0.48289 0.9367 0.96999 0.0
C898 C 0.45511 0.97101 0.96406 0.0
Zn899 Zn 0.45494 0.94215 0.06071 0.0
C900 C 0.47337 0.9272 0.9421 0.0
O901 O 0.45917 0.92639 0.96648 0.0
C902 C 0.46423 0.96834 0.16897 0.0
O903 O 0.46601 0.92449 0.13273 0.0
O904 O 0.48905 0.93603 0.1183 0.0
N905 N 0.43217 0.93107 0.07796 0.0
C906 C 0.42639 0.92198 0.13129 0.0
C907 C 0.40969 0.92034 0.04819 0.0
N908 N 0.42161 0.92998 0.02673 0.0
N909 N 0.41233 0.91488 0.1137 0.0
C910 C 0.51629 0.95068 0.01827 0.0
C911 C 0.51846 0.96935 0.94515 0.0
N912 N 0.50211 0.95849 1.01714 0.0
N913 N 0.50345 0.96978 0.96957 0.0
N914 N 0.5271 0.95757 0.97552 0.0
H915 H 0.50916 0.92668 0.03875 0.0
H916 H 0.52011 0.93658 0.10871 0.0
H917 H 0.53015 0.92923 0.03118 0.0
C918 C 0.51906 0.93485 0.05131 0.0
C919 C 0.43414 0.92095 0.20176 0.0
H920 H 0.44238 0.91062 0.20266 0.0
H921 H 0.42504 0.91938 0.24349 0.0
H922 H 0.44111 0.93186 0.21251 0.0
O923 O 0.45274 0.959 0.15185 0.0
O924 O 0.4771 0.96816 0.13301 0.0
C925 C 0.48083 0.92536 0.1473 0.0
O926 O 0.46974 0.96925 0.97979 0.0
O927 O 0.445 0.96111 0.98926 0.0
Zn928 Zn 0.80093 0.72699 0.74529 0.0
O929 O 0.81867 0.73449 0.67752 0.0
C930 C 0.79328 0.70083 0.65015 0.0
Zn931 Zn 0.81701 0.70703 0.77879 0.0
C932 C 0.83254 0.72871 0.67377 0.0
O933 O 0.83585 0.71636 0.70947 0.0
C934 C 0.78497 0.70735 0.85853 0.0
O935 O 0.82718 0.72231 0.86645 0.0
O936 O 0.8108 0.74036 0.82586 0.0
N937 N 0.83253 0.68695 0.80176 0.0
C938 C 0.83828 0.67915 0.85924 0.0
C939 C 0.85017 0.66926 0.77079 0.0
N940 N 0.84005 0.68057 0.7474 0.0
N941 N 0.84949 0.66794 0.8412 0.0
C942 C 0.79235 0.76087 0.70667 0.0
C943 C 0.78445 0.75373 0.70139 0.0
N944 N 0.78836 0.74585 0.7103 0.0
N945 N 0.77333 0.74187 0.69704 0.0
N946 N 0.77965 0.77006 0.70225 0.0
H947 H 0.81777 0.7616 0.74639 0.0
H948 H 0.80908 0.781 0.73064 0.0
H949 H 0.81529 0.76866 0.65853 0.0
C950 C 0.80991 0.76853 0.71173 0.0
C951 C 0.83352 0.68326 0.93271 0.0
H952 H 0.82813 0.6953 0.93509 0.0
H953 H 0.84399 0.68257 0.96803 0.0
H954 H 0.8245 0.6746 0.9511 0.0
O955 O 0.79809 0.69957 0.85204 0.0
O956 O 0.78247 0.71927 0.81845 0.0
C957 C 0.82134 0.73645 0.87009 0.0
O958 O 0.7901 0.71489 0.66664 0.0
O959 O 0.80444 0.69362 0.68458 0.0
Zn960 Zn 0.06176 0.03559 0.55836 0.0
O961 O 0.04691 0.04302 0.47376 0.0
C962 C 0.09045 0.03851 0.46078 0.0
Zn963 Zn 0.07375 0.05929 0.56083 0.0
C964 C 0.04633 0.05729 0.45192 0.0
O965 O 0.05596 0.06755 0.47875 0.0
C966 C 0.08717 0.03517 0.66267 0.0
O967 O 0.05567 0.06382 0.64653 0.0
O968 O 0.04291 0.04121 0.6291 0.0
N969 N 0.08537 0.08206 0.57429 0.0
C970 C 0.0941 0.08808 0.62838 0.0
C971 C 0.09732 0.10375 0.5425 0.0
N972 N 0.08746 0.09199 0.52129 0.0
N973 N 0.10195 0.10164 0.60963 0.0
C974 C 0.05891 1.00437 0.48505 0.0
C975 C 0.05738 1.00341 0.53273 0.0
N976 N 0.05624 0.01205 0.54407 0.0
N977 N 0.05263 1.00362 0.60123 0.0
N978 N 0.05983 0.98884 0.49562 0.0
H979 H 0.04627 0.01371 0.39104 0.0
H980 H 0.06433 1.00317 0.36939 0.0
H981 H 0.06435 0.02339 0.40171 0.0
C982 C 0.05877 0.01166 0.40679 0.0
C983 C 0.09404 0.08116 0.70066 0.0
H984 H 0.08271 0.07478 0.71065 0.0
H985 H 0.09555 0.09065 0.74056 0.0
H986 H 0.10404 0.07259 0.70577 0.0
O987 O 0.09045 0.04896 0.63901 0.0
O988 O 0.07514 0.028 0.63979 0.0
C989 C 0.04403 0.05445 0.6617 0.0
O990 O 0.08074 0.03004 0.49389 0.0
O991 O 0.0905 0.05339 0.47362 0.0
Zn992 Zn 0.72032 0.29079 0.27729 0.0
O993 O 0.70985 0.28528 0.18415 0.0
C994 C 0.73355 0.31837 0.20498 0.0
Zn995 Zn 0.70262 0.31091 0.29176 0.0
C996 C 0.69676 0.29034 0.16117 0.0
O997 O 0.6894 0.30122 0.19602 0.0
C998 C 0.72835 0.30998 0.40543 0.0
O999 O 0.68788 0.29666 0.36389 0.0
O1000 O 0.70391 0.27727 0.33568 0.0
N1001 N 0.68627 0.33094 0.30345 0.0
C1002 C 0.67673 0.33598 0.35729 0.0
C1003 C 0.67256 0.35173 0.27245 0.0
N1004 N 0.68354 0.34091 0.25114 0.0
N1005 N 0.66784 0.34902 0.33913 0.0
C1006 C 0.72641 0.25609 0.251 0.0
C1007 C 0.73511 0.26102 0.27072 0.0
N1008 N 0.73319 0.26977 0.267 0.0
N1009 N 0.74736 0.26945 0.29893 0.0
N1010 N 0.73393 0.24422 0.2803 0.0
H1011 H 0.7108 0.25579 0.15642 0.0
H1012 H 0.69984 0.25987 0.23607 0.0
H1013 H 0.70655 0.24005 0.21685 0.0
C1014 C 0.70967 0.25284 0.21285 0.0
C1015 C 0.67697 0.32864 0.42873 0.0
H1016 H 0.68872 0.32312 0.43933 0.0
H1017 H 0.66778 0.31921 0.43142 0.0
H1018 H 0.67437 0.33767 0.46966 0.0
O1019 O 0.7166 0.31836 0.38348 0.0
O1020 O 0.73217 0.29731 0.37261 0.0
C1021 C 0.69213 0.28218 0.37091 0.0
O1022 O 0.7367 0.30415 0.22273 0.0
O1023 O 0.71992 0.32445 0.22167 0.0
H1024 H 0.03991 0.50913 0.16104 0.0
H1025 H 0.07252 0.47661 0.26091 0.0
H1026 H 0.07614 0.49546 0.3576 0.0
H1027 H 0.06905 0.52102 0.41778 0.0
H1028 H 0.03643 0.55319 0.31633 0.0
H1029 H 0.03439 0.53513 0.21621 0.0
C1030 C 0.04789 0.50614 0.20367 0.0
C1031 C 0.05585 0.49127 0.20314 0.0
C1032 C 0.05004 0.51715 0.25923 0.0
C1033 C 0.06621 0.48785 0.25923 0.0
C1034 C 0.06828 0.49868 0.31491 0.0
C1035 C 0.06171 0.52415 0.37317 0.0
C1036 C 0.05309 0.53863 0.37428 0.0
C1037 C 0.06018 0.51336 0.31598 0.0
C1038 C 0.04332 0.54227 0.31667 0.0
C1039 C 0.04199 0.53182 0.25962 0.0
H1040 H 0.72943 0.81372 0.61131 0.0
H1041 H 0.76098 0.80551 0.78521 0.0
H1042 H 0.78405 0.80636 0.70618 0.0
H1043 H 0.79532 0.80694 0.58466 0.0
H1044 H 0.76358 0.81498 0.41125 0.0
H1045 H 0.74087 0.81669 0.49173 0.0
C1046 C 0.74137 0.81233 0.63208 0.0
C1047 C 0.74334 0.80927 0.70446 0.0
C1048 C 0.7547 0.81271 0.58576 0.0
C1049 C 0.75899 0.8076 0.72988 0.0
C1050 C 0.77225 0.80812 0.68449 0.0
C1051 C 0.78351 0.80957 0.56481 0.0
C1052 C 0.78132 0.81128 0.49166 0.0
C1053 C 0.77029 0.81031 0.61191 0.0
C1054 C 0.76575 0.81406 0.46709 0.0
C1055 C 0.75268 0.81488 0.51325 0.0
H1056 H 0.41437 0.50546 0.67609 0.0
H1057 H 0.41806 0.54609 0.81227 0.0
H1058 H 0.41193 0.52941 0.91367 0.0
H1059 H 0.41465 0.50265 0.96383 0.0
H1060 H 0.41838 0.46208 0.82724 0.0
H1061 H 0.41159 0.47876 0.72656 0.0
C1062 C 0.4131 0.51071 0.7278 0.0
C1063 C 0.41707 0.52682 0.73736 0.0
C1064 C 0.41123 0.50074 0.78615 0.0
C1065 C 0.41512 0.53371 0.80379 0.0
C1066 C 0.41193 0.52407 0.86192 0.0
C1067 C 0.41361 0.49748 0.91209 0.0
C1068 C 0.41759 0.48136 0.90225 0.0
C1069 C 0.41141 0.50745 0.85404 0.0
C1070 C 0.41544 0.47448 0.83599 0.0
C1071 C 0.41183 0.48411 0.77829 0.0
H1072 H 0.75666 0.19609 0.19977 0.0
H1073 H 0.80193 0.19139 0.09413 0.0
H1074 H 0.78826 0.18609 0.9834 0.0
H1075 H 0.76343 0.18484 0.91447 0.0
H1076 H 0.71806 0.18772 0.02004 0.0
H1077 H 0.73167 0.19124 0.13264 0.0
C1078 C 0.76352 0.19372 0.15263 0.0
C1079 C 0.78037 0.19429 0.15541 0.0
C1080 C 0.75553 0.19022 0.08904 0.0
C1081 C 0.78903 0.19101 0.09383 0.0
C1082 C 0.78119 0.18801 0.0303 0.0
C1083 C 0.7565 0.18579 0.96234 0.0
C1084 C 0.73968 0.18589 0.95845 0.0
C1085 C 0.76445 0.1878 0.027 0.0
C1086 C 0.73096 0.18728 0.02125 0.0
C1087 C 0.73878 0.18953 0.08569 0.0
H1088 H 0.9348 0.52614 0.88763 0.0
H1089 H 0.98203 0.5445 0.8498 0.0
H1090 H 0.98641 0.52478 0.76061 0.0
H1091 H 0.97781 0.50202 0.6912 0.0
H1092 H 0.9308 0.48295 0.72104 0.0
H1093 H 0.92538 0.50314 0.81169 0.0
C1094 C 0.94579 0.52621 0.85766 0.0
C1095 C 0.95802 0.53709 0.87606 0.0
C1096 C 0.94833 0.51472 0.8031 0.0
C1097 C 0.97228 0.53657 0.83718 0.0
C1098 C 0.97481 0.52531 0.78474 0.0
C1099 C 0.96621 0.50245 0.71603 0.0
C1100 C 0.95474 0.49097 0.69767 0.0
C1101 C 0.96309 0.51424 0.76729 0.0
C1102 C 0.93995 0.49157 0.73311 0.0
C1103 C 0.93681 0.50323 0.78513 0.0
H1104 H 0.25123 0.19211 0.65152 0.0
H1105 H 0.21207 0.20974 0.52843 0.0
H1106 H 0.22847 0.20814 0.42198 0.0
H1107 H 0.25483 0.20416 0.36585 0.0
H1108 H 0.29371 0.18532 0.48793 0.0
H1109 H 0.27661 0.18472 0.59205 0.0
C1110 C 0.24618 0.19512 0.60095 0.0
C1111 C 0.23038 0.20083 0.59758 0.0
C1112 C 0.25573 0.19411 0.53979 0.0
C1113 C 0.22407 0.20501 0.53205 0.0
C1114 C 0.23352 0.20425 0.4713 0.0
C1115 C 0.25949 0.19964 0.41493 0.0
C1116 C 0.27562 0.19484 0.41876 0.0
C1117 C 0.24949 0.19917 0.47472 0.0
C1118 C 0.28138 0.18898 0.48298 0.0
C1119 C 0.2716 0.18874 0.54285 0.0
H1120 H 0.60006 0.5073 0.1865 0.0
H1121 H 0.59461 0.54905 0.31531 0.0
H1122 H 0.5998 0.53328 0.42037 0.0
H1123 H 0.59655 0.5069 0.47332 0.0
H1124 H 0.59892 0.465 0.34345 0.0
H1125 H 0.60483 0.48136 0.2411 0.0
C1126 C 0.60091 0.51303 0.23739 0.0
C1127 C 0.59663 0.52912 0.24406 0.0
C1128 C 0.60293 0.5037 0.29739 0.0
C1129 C 0.59784 0.53663 0.30943 0.0
C1130 C 0.60052 0.52754 0.36952 0.0
C1131 C 0.59912 0.50136 0.42308 0.0
C1132 C 0.59694 0.4849 0.41499 0.0
C1133 C 0.60168 0.51092 0.36416 0.0
C1134 C 0.60048 0.47767 0.35053 0.0
C1135 C 0.60364 0.48707 0.29185 0.0
H1136 H 0.28762 0.84674 0.05883 0.0
H1137 H 0.25531 0.83749 0.22977 0.0
H1138 H 0.23281 0.84623 0.15941 0.0
H1139 H 0.2222 0.84793 0.03985 0.0
H1140 H 0.25414 0.85718 0.86831 0.0
H1141 H 0.27673 0.85793 0.94817 0.0
C1142 C 0.27578 0.84748 0.08164 0.0
C1143 C 0.27303 0.84112 0.14852 0.0
C1144 C 0.26271 0.85232 0.04018 0.0
C1145 C 0.25763 0.84211 0.17771 0.0
C1146 C 0.24471 0.84703 0.13738 0.0
C1147 C 0.23391 0.85128 0.02075 0.0
C1148 C 0.23661 0.85195 0.94828 0.0
C1149 C 0.24698 0.85098 0.06691 0.0
C1150 C 0.25183 0.85643 0.92414 0.0
C1151 C 0.26486 0.85644 0.96969 0.0
H1152 H 0.57724 0.01635 0.9177 0.0
H1153 H 0.54747 0.05032 0.81105 0.0
H1154 H 0.54553 0.03256 0.70994 0.0
H1155 H 0.54943 1.00609 0.65753 0.0
H1156 H 0.57845 0.97138 0.76384 0.0
H1157 H 0.58353 0.99049 0.85851 0.0
C1158 C 0.57088 0.02009 0.87111 0.0
C1159 C 0.56281 0.03487 0.87141 0.0
C1160 C 0.56944 0.00949 0.81327 0.0
C1161 C 0.55408 0.03922 0.81166 0.0
C1162 C 0.55283 0.02897 0.75396 0.0
C1163 C 0.55707 1.00274 0.70087 0.0
C1164 C 0.56341 0.98717 0.70348 0.0
C1165 C 0.56001 0.01386 0.75503 0.0
C1166 C 0.57337 0.9832 0.76014 0.0
C1167 C 0.57629 0.99418 0.81443 0.0
H1168 H 0.29256 0.32127 0.03642 0.0
H1169 H 0.25795 0.30503 0.88604 0.0
H1170 H 0.23635 0.3112 0.96737 0.0
H1171 H 0.22709 0.31874 0.08571 0.0
H1172 H 0.26151 0.33204 0.24163 0.0
H1173 H 0.28303 0.32979 0.15493 0.0
C1174 C 0.28028 0.31933 0.02122 0.0
C1175 C 0.27698 0.31271 0.95472 0.0
C1176 C 0.26772 0.3225 0.06966 0.0
C1177 C 0.26093 0.31003 0.93671 0.0
C1178 C 0.24849 0.31363 0.98324 0.0
C1179 C 0.23922 0.32179 0.09986 0.0
C1180 C 0.24255 0.32616 0.16964 0.0
C1181 C 0.25169 0.31963 0.05037 0.0
C1182 C 0.25851 0.32917 0.18788 0.0
C1183 C 0.27088 0.32768 0.13835 0.0
H1184 H 0.91955 0.00779 0.16874 0.0
H1185 H 0.9248 0.05018 0.2933 0.0
H1186 H 0.92062 0.03457 0.40021 0.0
H1187 H 0.92189 0.0083 0.45689 0.0
H1188 H 0.92002 0.96574 0.33119 0.0
H1189 H 0.91619 0.98189 0.22563 0.0
C1190 C 0.91925 0.01371 0.21909 0.0
C1191 C 0.92263 0.03011 0.22309 0.0
C1192 C 0.91771 1.0045 0.28003 0.0
C1193 C 0.92207 0.03765 0.28868 0.0
C1194 C 0.91993 0.02864 0.34983 0.0
C1195 C 0.92002 1.00256 0.40659 0.0
C1196 C 0.92136 0.98585 0.40154 0.0
C1197 C 0.91866 0.01197 0.34608 0.0
C1198 C 0.91892 0.97852 0.33644 0.0
C1199 C 0.91697 0.9878 0.27605 0.0
H1200 H 0.22661 0.66549 0.52868 0.0
H1201 H 0.25896 0.66459 0.35319 0.0
H1202 H 0.28141 0.66017 0.4312 0.0
H1203 H 0.2918 0.66628 0.54945 0.0
H1204 H 0.2595 0.66586 0.72505 0.0
H1205 H 0.23717 0.66042 0.6476 0.0
C1206 C 0.23839 0.6632 0.50724 0.0
C1207 C 0.24123 0.6659 0.43579 0.0
C1208 C 0.25139 0.66089 0.55285 0.0
C1209 C 0.25655 0.66279 0.4085 0.0
C1210 C 0.26949 0.66053 0.45324 0.0
C1211 C 0.28009 0.66386 0.57115 0.0
C1212 C 0.27718 0.66691 0.64233 0.0
C1213 C 0.26716 0.66098 0.52586 0.0
C1214 C 0.26194 0.66373 0.66996 0.0
C1215 C 0.24908 0.66089 0.62551 0.0
H1216 H 0.47837 0.00864 0.44281 0.0
H1217 H 0.43459 0.03198 0.38373 0.0
H1218 H 0.43137 0.01322 0.28632 0.0
H1219 H 0.44174 0.99062 0.21327 0.0
H1220 H 0.48639 0.96881 0.27061 0.0
H1221 H 0.48836 0.98622 0.37271 0.0
C1222 C 0.46804 0.00964 0.40905 0.0
C1223 C 0.45675 0.02186 0.42131 0.0
C1224 C 0.46639 0.99894 0.35219 0.0
C1225 C 0.44351 0.0228 0.37615 0.0
C1226 C 0.44166 0.01203 0.32012 0.0
C1227 C 0.45175 0.98956 0.24875 0.0
C1228 C 0.46385 0.97827 0.23429 0.0
C1229 C 0.45309 1.00009 0.307 0.0
C1230 C 0.4769 0.97732 0.28031 0.0
C1231 C 0.47807 0.98733 0.33879 0.0
H1232 H 0.7519 0.7052 0.8622 0.0
H1233 H 0.79344 0.70311 0.99419 0.0
H1234 H 0.77646 0.7021 0.09844 0.0
H1235 H 0.74975 0.70442 0.15387 0.0
H1236 H 0.70797 0.70496 0.02365 0.0
H1237 H 0.72484 0.70379 0.91815 0.0
C1238 C 0.75721 0.70427 0.91377 0.0
C1239 C 0.77404 0.70435 0.9199 0.0
C1240 C 0.74725 0.70343 0.97433 0.0
C1241 C 0.78062 0.70304 0.98741 0.0
C1242 C 0.77087 0.70257 0.04738 0.0
C1243 C 0.74433 0.70391 0.10238 0.0
C1244 C 0.72754 0.70461 0.09702 0.0
C1245 C 0.75418 0.70312 0.04177 0.0
C1246 C 0.72078 0.7041 0.02968 0.0
C1247 C 0.73048 0.70356 0.96916 0.0
H1248 H 0.09285 0.97824 0.85294 0.0
H1249 H 0.07814 0.01375 1.00331 0.0
H1250 H 0.08518 0.03485 0.92239 0.0
H1251 H 0.08912 0.04281 0.79992 0.0
H1252 H 0.10338 0.00774 0.64782 0.0
H1253 H 0.10363 0.98718 0.73795 0.0
C1254 C 0.09175 0.99058 0.86867 0.0
C1255 C 0.08453 0.99439 0.93316 0.0
C1256 C 0.09568 1.00287 0.82109 0.0
C1257 C 0.08327 0.01049 0.95306 0.0
C1258 C 0.08731 0.02263 0.90684 0.0
C1259 C 0.09327 0.0309 0.78758 0.0
C1260 C 0.09622 0.02681 0.71749 0.0
C1261 C 0.09267 0.01896 0.83927 0.0
C1262 C 0.10124 0.01121 0.70181 0.0
C1263 C 0.10103 0.99934 0.75314 0.0
H1264 H 0.76034 0.31543 0.42013 0.0
H1265 H 0.71632 0.31416 0.53672 0.0
H1266 H 0.73096 0.31845 0.64628 0.0
H1267 H 0.75655 0.32059 0.70999 0.0
H1268 H 0.80046 0.32397 0.59333 0.0
H1269 H 0.78569 0.32123 0.48314 0.0
C1270 C 0.75396 0.31633 0.46953 0.0
C1271 C 0.73723 0.31442 0.47031 0.0
C1272 C 0.76247 0.31925 0.53235 0.0
C1273 C 0.72914 0.31567 0.53462 0.0
C1274 C 0.73754 0.31808 0.59732 0.0
C1275 C 0.76286 0.32114 0.66035 0.0
C1276 C 0.77966 0.32259 0.66026 0.0
C1277 C 0.75423 0.31967 0.59702 0.0
C1278 C 0.78758 0.32315 0.59526 0.0
C1279 C 0.77912 0.32138 0.53213 0.0
H1280 H 0.15072 0.3833 0.30311 0.0
H1281 H 0.15011 0.35074 0.12802 0.0
H1282 H 0.13138 0.36793 0.06724 0.0
H1283 H 0.1145 0.39232 0.06257 0.0
H1284 H 0.11407 0.42426 0.23939 0.0
H1285 H 0.13316 0.40717 0.30024 0.0
C1286 C 0.14659 0.37988 0.25149 0.0
C1287 C 0.15269 0.36569 0.22014 0.0
C1288 C 0.13518 0.38972 0.21701 0.0
C1289 C 0.14668 0.36169 0.15337 0.0
C1290 C 0.13557 0.37151 0.11856 0.0
C1291 C 0.11849 0.39554 0.11466 0.0
C1292 C 0.11234 0.40962 0.14635 0.0
C1293 C 0.12972 0.38559 0.14962 0.0
C1294 C 0.11792 0.41343 0.21392 0.0
C1295 C 0.12912 0.40367 0.2486 0.0
H1296 H 0.88713 0.91576 0.44409 0.0
H1297 H 0.91288 0.87946 0.55575 0.0
H1298 H 0.89494 0.85913 0.50955 0.0
H1299 H 0.87182 0.85134 0.43633 0.0
H1300 H 0.84556 0.88771 0.32697 0.0
H1301 H 0.86372 0.90796 0.3718 0.0
C1302 C 0.88899 0.90339 0.45737 0.0
C1303 C 0.90167 0.89924 0.50278 0.0
C1304 C 0.87835 0.89162 0.43115 0.0
C1305 C 0.90341 0.88308 0.52074 0.0
C1306 C 0.89308 0.8714 0.49433 0.0
C1307 C 0.86977 0.8637 0.42348 0.0
C1308 C 0.85691 0.86784 0.37896 0.0
C1309 C 0.88039 0.87547 0.44974 0.0
C1310 C 0.85515 0.88402 0.36124 0.0
C1311 C 0.8656 0.89569 0.38693 0.0
H1312 H 0.35805 0.6318 0.7808 0.0
H1313 H 0.37365 0.67191 0.65914 0.0
H1314 H 0.39449 0.65555 0.60447 0.0
H1315 H 0.40874 0.62957 0.59101 0.0
H1316 H 0.39186 0.58921 0.70807 0.0
H1317 H 0.37165 0.6057 0.76437 0.0
C1318 C 0.366 0.63697 0.74227 0.0
C1319 C 0.36396 0.65315 0.7237 0.0
C1320 C 0.37805 0.62736 0.71042 0.0
C1321 C 0.37454 0.6595 0.67358 0.0
C1322 C 0.38661 0.65012 0.64253 0.0
C1323 C 0.40069 0.62436 0.62904 0.0
C1324 C 0.40258 0.60809 0.64704 0.0
C1325 C 0.38853 0.63398 0.66031 0.0
C1326 C 0.3916 0.6017 0.69547 0.0
C1327 C 0.37972 0.61117 0.72716 0.0
H1328 H 0.65329 0.13451 0.81348 0.0
H1329 H 0.64843 0.17162 0.96823 0.0
H1330 H 0.62905 0.15559 0.0323 0.0
H1331 H 0.61269 0.13105 0.04374 0.0
H1332 H 0.6178 0.094 0.88877 0.0
H1333 H 0.63727 0.10999 0.82545 0.0
C1334 C 0.64807 0.13912 0.86143 0.0
C1335 C 0.65286 0.15429 0.88626 0.0
C1336 C 0.63658 0.12986 0.8977 0.0
C1337 C 0.6457 0.15992 0.94848 0.0
C1338 C 0.63433 0.15076 0.98489 0.0
C1339 C 0.61801 0.12646 0.99594 0.0
C1340 C 0.61316 0.11137 0.97036 0.0
C1341 C 0.62961 0.13571 0.96 0.0
C1342 C 0.62052 0.10571 0.90868 0.0
C1343 C 0.63194 0.11482 0.87275 0.0
H1344 H 0.13427 0.60788 0.51223 0.0
H1345 H 0.0918 0.62635 0.41499 0.0
H1346 H 0.10719 0.64772 0.36178 0.0
H1347 H 0.13275 0.66226 0.34603 0.0
H1348 H 0.17493 0.64457 0.44835 0.0
H1349 H 0.15989 0.62221 0.49516 0.0
C1350 C 0.12839 0.61647 0.47873 0.0
C1351 C 0.1118 0.61494 0.46629 0.0
C1352 C 0.13739 0.62909 0.44881 0.0
C1353 C 0.10452 0.62653 0.42355 0.0
C1354 C 0.11336 0.63902 0.3937 0.0
C1355 C 0.13871 0.65342 0.37792 0.0
C1356 C 0.15526 0.65506 0.39116 0.0
C1357 C 0.12981 0.64053 0.40612 0.0
C1358 C 0.16254 0.64349 0.43401 0.0
C1359 C 0.1538 0.63071 0.46197 0.0
H1360 H 0.61145 0.88472 0.56614 0.0
H1361 H 0.62117 0.92407 0.70414 0.0
H1362 H 0.64198 0.90847 0.76223 0.0
H1363 H 0.65796 0.8837 0.77336 0.0
H1364 H 0.64676 0.84364 0.64079 0.0
H1365 H 0.6267 0.85943 0.58102 0.0
C1366 C 0.61805 0.88988 0.60925 0.0
C1367 C 0.61433 0.90565 0.63106 0.0
C1368 C 0.63014 0.88072 0.6429 0.0
C1369 C 0.62322 0.91197 0.68701 0.0
C1370 C 0.63535 0.90304 0.71988 0.0
C1371 C 0.65125 0.87832 0.73115 0.0
C1372 C 0.6548 0.86236 0.71074 0.0
C1373 C 0.63899 0.88739 0.69826 0.0
C1374 C 0.64541 0.85588 0.65646 0.0
C1375 C 0.63351 0.86494 0.62261 0.0
H1376 H 0.40993 0.37746 0.02658 0.0
H1377 H 0.39266 0.42021 0.92807 0.0
H1378 H 0.37145 0.40528 0.87164 0.0
H1379 H 0.35736 0.38 0.8491 0.0
H1380 H 0.37416 0.33703 0.94714 0.0
H1381 H 0.39533 0.35195 1.00529 0.0
C1382 C 0.40157 0.3835 0.99248 0.0
C1383 C 0.40354 0.40002 0.97985 0.0
C1384 C 0.38896 0.37474 0.96064 0.0
C1385 C 0.39222 0.40753 0.93643 0.0
C1386 C 0.3798 0.39896 0.90478 0.0
C1387 C 0.36557 0.37386 0.88355 0.0
C1388 C 0.36363 0.3573 0.89459 0.0
C1389 C 0.37804 0.38255 0.91611 0.0
C1390 C 0.37469 0.34972 0.93913 0.0
C1391 C 0.38706 0.3583 0.97186 0.0
H1392 H 0.88575 0.15698 0.28902 0.0
H1393 H 0.84843 0.15075 0.13655 0.0
H1394 H 0.86484 0.13129 0.07416 0.0
H1395 H 0.88975 0.11506 0.06377 0.0
H1396 H 0.9267 0.12107 0.21797 0.0
H1397 H 0.91049 0.14094 0.27869 0.0
C1398 C 0.88116 0.15149 0.24185 0.0
C1399 C 0.86579 0.156 0.21723 0.0
C1400 C 0.8906 0.13982 0.20679 0.0
C1401 C 0.86025 0.14836 0.15614 0.0
C1402 C 0.86964 0.13689 0.12069 0.0
C1403 C 0.89428 0.12067 0.11081 0.0
C1404 C 0.90947 0.11596 0.1368 0.0
C1405 C 0.88483 0.13243 0.14555 0.0
C1406 C 0.91499 0.12368 0.19764 0.0
C1407 C 0.90572 0.13533 0.2321 0.0
H1408 H 0.88196 0.61486 0.03276 0.0
H1409 H 0.92099 0.6238 0.89067 0.0
H1410 H 0.90504 0.64344 0.82932 0.0
H1411 H 0.87994 0.65866 0.81462 0.0
H1412 H 0.84118 0.65115 0.9592 0.0
H1413 H 0.85704 0.6311 0.02104 0.0
C1414 C 0.88701 0.62101 0.98811 0.0
C1415 C 0.90269 0.61693 0.96518 0.0
C1416 C 0.87779 0.63298 0.95374 0.0
C1417 C 0.90887 0.62558 0.90799 0.0
C1418 C 0.89975 0.63722 0.87326 0.0
C1419 C 0.87494 0.65274 0.85999 0.0
C1420 C 0.85928 0.65686 0.88233 0.0
C1421 C 0.88418 0.64102 0.89532 0.0
C1422 C 0.8532 0.64882 0.94134 0.0
C1423 C 0.86228 0.6371 0.97641 0.0
H1424 H 0.10722 0.13346 0.59851 0.0
H1425 H 0.12503 0.09137 0.7005 0.0
H1426 H 0.14591 0.10694 0.75662 0.0
H1427 H 0.16 0.13268 0.77531 0.0
H1428 H 0.14198 0.17474 0.67375 0.0
H1429 H 0.12094 0.15921 0.61881 0.0
C1430 C 0.11558 0.12768 0.63346 0.0
C1431 C 0.11397 0.11116 0.64642 0.0
C1432 C 0.12793 0.13678 0.66504 0.0
C1433 C 0.12525 0.10403 0.69131 0.0
C1434 C 0.13748 0.11298 0.72285 0.0
C1435 C 0.15151 0.13846 0.74095 0.0
C1436 C 0.1532 0.15495 0.72709 0.0
C1437 C 0.13903 0.12938 0.71008 0.0
C1438 C 0.14173 0.16209 0.68322 0.0
C1439 C 0.12942 0.15318 0.65238 0.0
H1440 H 0.66092 0.3806 0.32757 0.0
H1441 H 0.6457 0.33807 0.43361 0.0
H1442 H 0.62464 0.35305 0.49307 0.0
H1443 H 0.60985 0.37842 0.51472 0.0
H1444 H 0.6253 0.42089 0.40881 0.0
H1445 H 0.64626 0.40589 0.34948 0.0
C1446 C 0.65307 0.37457 0.36398 0.0
C1447 C 0.65551 0.35811 0.37709 0.0
C1448 C 0.6406 0.38331 0.39755 0.0
C1449 C 0.64486 0.35069 0.42403 0.0
C1450 C 0.63253 0.3593 0.45757 0.0
C1451 C 0.61772 0.38441 0.47832 0.0
C1452 C 0.61531 0.40088 0.46499 0.0
C1453 C 0.63022 0.37564 0.44486 0.0
C1454 C 0.62603 0.40826 0.4183 0.0
C1455 C 0.63834 0.39965 0.38488 0.0
H1456 H 0.3802 0.85677 0.27358 0.0
H1457 H 0.33841 0.87583 0.1731 0.0
H1458 H 0.35434 0.89707 0.12131 0.0
H1459 H 0.38035 0.91046 0.10324 0.0
H1460 H 0.4223 0.89103 0.20143 0.0
H1461 H 0.40628 0.87032 0.25591 0.0
C1462 C 0.37458 0.86556 0.24026 0.0
C1463 C 0.35806 0.86426 0.22595 0.0
C1464 C 0.3839 0.87799 0.21078 0.0
C1465 C 0.35108 0.87599 0.18317 0.0
C1466 C 0.36021 0.88834 0.15406 0.0
C1467 C 0.386 0.90178 0.13703 0.0
C1468 C 0.40262 0.90291 0.14964 0.0
C1469 C 0.37667 0.88946 0.16713 0.0
C1470 C 0.40959 0.89122 0.19283 0.0
C1471 C 0.40038 0.87908 0.22334 0.0
H1472 H 0.88933 0.41715 0.70007 0.0
H1473 H 0.91509 0.38898 0.54864 0.0
H1474 H 0.89961 0.36554 0.58143 0.0
H1475 H 0.87856 0.35276 0.65306 0.0
H1476 H 0.85229 0.38088 0.80325 0.0
H1477 H 0.86765 0.40438 0.77022 0.0
C1478 C 0.89162 0.40584 0.67462 0.0
C1479 C 0.90401 0.4048 0.62394 0.0
C1480 C 0.88229 0.39234 0.69281 0.0
C1481 C 0.90639 0.39007 0.59036 0.0
C1482 C 0.89729 0.37666 0.60839 0.0
C1483 C 0.87609 0.36404 0.67842 0.0
C1484 C 0.86384 0.36489 0.72976 0.0
C1485 C 0.88523 0.37759 0.65973 0.0
C1486 C 0.86108 0.37973 0.76202 0.0
C1487 C 0.8701 0.39323 0.74369 0.0
H1488 H 0.38292 0.15064 0.31462 0.0
H1489 H 0.34345 0.14174 0.45389 0.0
H1490 H 0.35912 0.12132 0.51412 0.0
H1491 H 0.38392 0.10522 0.52587 0.0
H1492 H 0.42386 0.1154 0.39022 0.0
H1493 H 0.40812 0.13538 0.32984 0.0
C1494 C 0.37774 0.14435 0.35858 0.0
C1495 C 0.36192 0.14818 0.37995 0.0
C1496 C 0.38689 0.1324 0.39304 0.0
C1497 C 0.35558 0.13964 0.43698 0.0
C1498 C 0.36456 0.12771 0.47105 0.0
C1499 C 0.38928 0.11171 0.48287 0.0
C1500 C 0.40518 0.10791 0.4618 0.0
C1501 C 0.38021 0.12388 0.44937 0.0
C1502 C 0.41165 0.11698 0.40647 0.0
C1503 C 0.40262 0.12882 0.37226 0.0
H1504 H 0.60571 0.6298 0.07766 0.0
H1505 H 0.62444 0.58985 0.19218 0.0
H1506 H 0.64452 0.60686 0.246 0.0
H1507 H 0.65709 0.6333 0.26178 0.0
H1508 H 0.63816 0.67347 0.14925 0.0
H1509 H 0.61844 0.6564 0.09342 0.0
C1510 C 0.61417 0.62482 0.11447 0.0
C1511 C 0.61308 0.60848 0.13204 0.0
C1512 C 0.62597 0.6348 0.14529 0.0
C1513 C 0.62441 0.60236 0.17938 0.0
C1514 C 0.6361 0.61212 0.20975 0.0
C1515 C 0.64872 0.63835 0.22472 0.0
C1516 C 0.64972 0.65477 0.20853 0.0
C1517 C 0.63701 0.6284 0.19351 0.0
C1518 C 0.63843 0.66092 0.16096 0.0
C1519 C 0.62687 0.65111 0.12952 0.0
H1520 H 0.15154 0.87867 0.81952 0.0
H1521 H 0.14399 0.84213 0.97383 0.0
H1522 H 0.12418 0.85887 0.03305 0.0
H1523 H 0.10871 0.88398 0.04177 0.0
H1524 H 0.11735 0.92119 0.89122 0.0
H1525 H 0.13637 0.90419 0.83 0.0
C1526 C 0.14559 0.87436 0.86622 0.0
C1527 C 0.14967 0.85909 0.89254 0.0
C1528 C 0.13405 0.88419 0.90049 0.0
C1529 C 0.14163 0.85385 0.9531 0.0
C1530 C 0.1301 0.86344 0.98674 0.0
C1531 C 0.11464 0.88845 0.99532 0.0
C1532 C 0.11079 0.90395 0.97063 0.0
C1533 C 0.12619 0.87866 0.96113 0.0
C1534 C 0.11908 0.90929 0.91065 0.0
C1535 C 0.13033 0.89954 0.87585 0.0
H1536 H 0.98343 0.5183 0.04297 0.0
H1537 H 0.02978 0.52212 0.94586 0.0
H1538 H 0.02004 0.50734 0.84307 0.0
H1539 H 0.99994 0.48739 0.80028 0.0
H1540 H 0.95912 0.47803 0.91755 0.0
H1541 H 0.9618 0.50326 0.98226 0.0
C1542 C 0.99139 0.51597 0.99932 0.0
C1543 C 1.00756 0.52051 1.00285 0.0
C1544 C 0.98586 0.50737 0.94238 0.0
C1545 C 0.0176 0.5179 0.94505 0.0
C1546 C 0.01192 0.5099 0.88592 0.0
C1547 C 0.99233 0.49074 0.84371 0.0
C1548 C 0.98342 0.4791 0.87926 0.0
C1549 C 0.99648 0.50357 0.88687 0.0
C1550 C 0.96914 0.48566 0.90594 0.0
C1551 C 0.97084 0.49984 0.94443 0.0
H1552 H 0.77601 0.73501 0.39546 0.0
H1553 H 0.79029 0.71915 0.19243 0.0
H1554 H 0.76651 0.73174 0.1412 0.0
H1555 H 0.74792 0.75507 0.15135 0.0
H1556 H 0.74577 0.78053 0.34724 0.0
H1557 H 0.76234 0.76029 0.40284 0.0
C1558 C 0.77378 0.73419 0.33957 0.0
C1559 C 0.78619 0.72902 0.29564 0.0
C1560 C 0.76382 0.74552 0.3097 0.0
C1561 C 0.78181 0.72501 0.22674 0.0
C1562 C 0.7687 0.7329 0.19688 0.0
C1563 C 0.75165 0.75645 0.2054 0.0
C1564 C 0.74482 0.76853 0.24723 0.0
C1565 C 0.76096 0.74473 0.23677 0.0
C1566 C 0.75066 0.77103 0.31523 0.0
C1567 C 0.75924 0.75901 0.34798 0.0
H1568 H 0.52673 0.53184 0.73745 0.0
H1569 H 0.55063 0.48695 0.75664 0.0
H1570 H 0.5276 0.47566 0.81521 0.0
H1571 H 0.49856 0.47676 0.78545 0.0
H1572 H 0.47466 0.52165 0.78855 0.0
H1573 H 0.5003 0.53529 0.7955 0.0
C1574 C 0.52746 0.52005 0.76015 0.0
C1575 C 0.53927 0.50955 0.73624 0.0
C1576 C 0.51407 0.51366 0.79389 0.0
C1577 C 0.54091 0.49484 0.77071 0.0
C1578 C 0.52759 0.48825 0.80349 0.0
C1579 C 0.49873 0.4894 0.7941 0.0
C1580 C 0.48558 0.49858 0.77386 0.0
C1581 C 0.51338 0.49703 0.80419 0.0
C1582 C 0.48542 0.51471 0.79408 0.0
C1583 C 0.50001 0.52253 0.79946 0.0
H1584 H 0.78432 0.21583 0.83464 0.0
H1585 H 0.78356 0.24565 0.65307 0.0
H1586 H 0.76961 0.26639 0.71884 0.0
H1587 H 0.75182 0.27215 0.81624 0.0
H1588 H 0.75658 0.24574 1.00754 0.0
H1589 H 0.7698 0.22404 0.94241 0.0
C1590 C 0.78159 0.22717 0.81068 0.0
C1591 C 0.78226 0.22861 0.73714 0.0
C1592 C 0.77181 0.23786 0.84669 0.0
C1593 C 0.78146 0.2439 0.70856 0.0
C1594 C 0.77269 0.25536 0.74479 0.0
C1595 C 0.75556 0.26152 0.84385 0.0
C1596 C 0.75491 0.26121 0.91751 0.0
C1597 C 0.76649 0.2516 0.81121 0.0
C1598 C 0.75792 0.24668 0.95124 0.0
C1599 C 0.76633 0.23479 0.91511 0.0
H1600 H 0.99496 0.5016 0.40489 0.0
H1601 H 0.03816 0.49893 0.52524 0.0
H1602 H 0.02586 0.5151 0.61781 0.0
H1603 H 1.00225 0.52615 0.66843 0.0
H1604 H 0.96051 0.53327 0.54563 0.0
H1605 H 0.97089 0.51464 0.45696 0.0
C1606 C 1.00196 0.50537 0.44963 0.0
C1607 C 0.01695 0.49817 0.46202 0.0
C1608 C 0.99435 0.51325 0.50483 0.0
C1609 C 0.0264 0.5039 0.51677 0.0
C1610 C 0.01916 0.51234 0.57106 0.0
C1611 C 0.99528 0.52385 0.62205 0.0
C1612 C 0.98264 0.53407 0.60376 0.0
C1613 C 1.00294 0.51616 0.56695 0.0
C1614 C 0.97187 0.52751 0.55485 0.0
C1615 C 0.97814 0.51765 0.50191 0.0
H1616 H 0.78266 0.77289 0.84292 0.0
H1617 H 0.74824 0.77053 0.67653 0.0
H1618 H 0.73211 0.75196 0.74502 0.0
H1619 H 0.73024 0.73407 0.84473 0.0
H1620 H 0.75836 0.74358 0.0257 0.0
H1621 H 0.77836 0.75695 0.95186 0.0
C1622 C 0.77124 0.76886 0.8234 0.0
C1623 C 0.76713 0.77175 0.75284 0.0
C1624 C 0.76282 0.7574 0.86078 0.0
C1625 C 0.75182 0.76772 0.72961 0.0
C1626 C 0.74315 0.75643 0.76679 0.0
C1627 C 0.74083 0.73914 0.86823 0.0
C1628 C 0.74137 0.74104 0.9415 0.0
C1629 C 0.74917 0.7505 0.83014 0.0
C1630 C 0.75653 0.7441 0.96963 0.0
C1631 C 0.7675 0.75253 0.92831 0.0
H1632 H 0.45487 0.51814 0.18024 0.0
H1633 H 0.4779 0.55574 0.07176 0.0
H1634 H 0.4999 0.55501 0.15478 0.0
H1635 H 0.5172 0.53384 0.19586 0.0
H1636 H 0.49722 0.48815 0.24634 0.0
H1637 H 0.47058 0.50001 0.25042 0.0
C1638 C 0.46456 0.52654 0.17664 0.0
C1639 C 0.46691 0.53443 0.1123 0.0
C1640 C 0.47856 0.523 0.21323 0.0
C1641 C 0.47726 0.54752 0.11517 0.0
C1642 C 0.49009 0.54682 0.16192 0.0
C1643 C 0.50715 0.52653 0.21018 0.0
C1644 C 0.50891 0.50983 0.21526 0.0
C1645 C 0.49194 0.5329 0.20198 0.0
C1646 C 0.49592 0.50081 0.23822 0.0
C1647 C 0.48072 0.50765 0.2406 0.0
H1648 H 0.7497 0.21431 0.54724 0.0
H1649 H 0.75163 0.26379 0.58036 0.0
H1650 H 0.72689 0.26739 0.51493 0.0
H1651 H 0.72224 0.26022 0.39397 0.0
H1652 H 0.73486 0.21358 0.31849 0.0
H1653 H 0.7375 0.2044 0.43943 0.0
C1654 C 0.74474 0.22598 0.53808 0.0
C1655 C 0.75454 0.23942 0.54635 0.0
C1656 C 0.7336 0.22776 0.48426 0.0
C1657 C 0.74576 0.2534 0.5592 0.0
C1658 C 0.73177 0.2555 0.52009 0.0
C1659 C 0.7246 0.24783 0.40318 0.0
C1660 C 0.72923 0.23777 0.34726 0.0
C1661 C 0.72792 0.2434 0.47165 0.0
C1662 C 0.732 0.22166 0.36099 0.0
C1663 C 0.73331 0.21641 0.43025 0.0
H1664 H 0.26265 0.23944 0.58138 0.0
H1665 H 0.28294 0.28598 0.56934 0.0
H1666 H 0.25693 0.29752 0.54726 0.0
H1667 H 0.23201 0.29319 0.61766 0.0
H1668 H 0.21101 0.24685 0.6179 0.0
H1669 H 0.23362 0.23617 0.55361 0.0
C1670 C 0.26162 0.25188 0.56715 0.0
C1671 C 0.27383 0.26233 0.58635 0.0
C1672 C 0.24645 0.25839 0.55478 0.0
C1673 C 0.27302 0.278 0.56084 0.0
C1674 C 0.25802 0.28469 0.54889 0.0
C1675 C 0.23164 0.28108 0.59823 0.0
C1676 C 0.22181 0.27006 0.63221 0.0
C1677 C 0.24463 0.27512 0.55957 0.0
C1678 C 0.22001 0.25503 0.59987 0.0
C1679 C 0.23295 0.24885 0.56255 0.0
H1680 H 0.30909 0.71594 0.28796 0.0
H1681 H 0.27598 0.69231 0.15674 0.0
H1682 H 0.28226 0.70982 0.05912 0.0
H1683 H 0.28138 0.7395 0.06252 0.0
H1684 H 0.31192 0.76381 0.20729 0.0
H1685 H 0.32373 0.73911 0.24375 0.0
C1686 C 0.3042 0.71393 0.23627 0.0
C1687 C 0.29016 0.70516 0.23035 0.0
C1688 C 0.30735 0.72494 0.18299 0.0
C1689 C 0.28562 0.70061 0.16258 0.0
C1690 C 0.28913 0.71083 0.10692 0.0
C1691 C 0.29148 0.73939 0.09788 0.0
C1692 C 0.29466 0.75299 0.13777 0.0
C1693 C 0.29744 0.7248 0.1226 0.0
C1694 C 0.30848 0.75316 0.17958 0.0
C1695 C 0.31526 0.7389 0.20094 0.0
H1696 H 0.3008 0.26885 0.09166 0.0
H1697 H 0.25382 0.2622 0.01868 0.0
H1698 H 0.24435 0.28429 0.09051 0.0
H1699 H 0.24605 0.28747 0.21636 0.0
H1700 H 0.29018 0.27636 0.32056 0.0
H1701 H 0.30452 0.27907 0.20944 0.0
C1702 C 0.28844 0.27264 0.09146 0.0
C1703 C 0.27699 0.2617 0.06777 0.0
C1704 C 0.28299 0.28184 0.14802 0.0
C1705 C 0.2624 0.26876 0.04946 0.0
C1706 C 0.2569 0.2812 0.09226 0.0
C1707 C 0.2589 0.28631 0.21544 0.0
C1708 C 0.26703 0.28068 0.27533 0.0
C1709 C 0.26639 0.2853 0.15047 0.0
C1710 C 0.28368 0.27983 0.27402 0.0
C1711 C 0.29184 0.28155 0.21047 0.0
H1712 H 0.26516 0.77073 0.55517 0.0
H1713 H 0.29915 0.74223 0.66758 0.0
H1714 H 0.31327 0.76488 0.70456 0.0
H1715 H 0.30443 0.7892 0.76189 0.0
H1716 H 0.2685 0.81764 0.66746 0.0
H1717 H 0.26728 0.80008 0.56617 0.0
C1718 C 0.27615 0.76953 0.58456 0.0
C1719 C 0.28026 0.75464 0.61205 0.0
C1720 C 0.28377 0.78314 0.61108 0.0
C1721 C 0.29508 0.75321 0.64678 0.0
C1722 C 0.30331 0.76649 0.66912 0.0
C1723 C 0.29742 0.79223 0.71604 0.0
C1724 C 0.28522 0.80334 0.72361 0.0
C1725 C 0.29612 0.78124 0.6612 0.0
C1726 C 0.27724 0.80831 0.66287 0.0
C1727 C 0.27628 0.79797 0.60568 0.0
H1728 H 0.48069 0.01706 0.78243 0.0
H1729 H 0.52976 1.00428 0.7905 0.0
H1730 H 0.52325 0.97679 0.76287 0.0
H1731 H 0.50758 0.9639 0.67154 0.0
H1732 H 0.46376 0.98578 0.60469 0.0
H1733 H 0.46302 1.00144 0.71187 0.0
C1734 C 0.48989 0.00803 0.78049 0.0
C1735 C 0.50587 0.01297 0.77516 0.0
C1736 C 0.48628 0.99374 0.74684 0.0
C1737 C 0.51741 1.00108 0.78539 0.0
C1738 C 0.51365 0.98538 0.7675 0.0
C1739 C 0.49759 0.97172 0.68163 0.0
C1740 C 0.48639 0.97481 0.62796 0.0
C1741 C 0.49868 0.9825 0.73702 0.0
C1742 C 0.47289 0.9839 0.64389 0.0
C1743 C 0.4725 0.99287 0.70544 0.0
H1744 H 0.01531 0.98096 0.23048 0.0
H1745 H 1.00144 0.02995 0.23479 0.0
H1746 H 0.97363 0.02226 0.25668 0.0
H1747 H 0.95499 1.00377 0.20511 0.0
H1748 H 0.97277 0.95928 0.12792 0.0
H1749 H 0.99599 0.96176 0.20015 0.0
C1750 C 1.00627 0.98998 0.23941 0.0
C1751 C 0.01 1.00601 0.22658 0.0
C1752 C 0.99036 0.98545 0.23579 0.0
C1753 C 0.99852 0.0176 0.24177 0.0
C1754 C 0.98268 0.0131 0.25297 0.0
C1755 C 0.96366 0.99421 0.20815 0.0
C1756 C 0.96359 0.98236 0.15551 0.0
C1757 C 0.97836 0.99727 0.23968 0.0
C1758 C 0.97333 0.96909 0.16467 0.0
C1759 C 0.98681 0.9706 0.20638 0.0
H1760 H 0.55202 0.97142 0.89715 0.0
H1761 H 0.54927 0.94542 0.08295 0.0
H1762 H 0.54685 0.96968 0.15416 0.0
H1763 H 0.5307 0.995 0.14711 0.0
H1764 H 0.52566 0.01732 0.94493 0.0
H1765 H 0.54457 0.99905 0.89418 0.0
C1766 C 0.55145 0.97136 0.95399 0.0
C1767 C 0.54433 0.95818 0.98618 0.0
C1768 C 0.54802 0.9857 0.9892 0.0
C1769 C 0.54915 0.9568 0.05681 0.0
C1770 C 0.54791 0.97063 0.0977 0.0
C1771 C 0.53428 0.99612 0.0927 0.0
C1772 C 0.5266 0.00722 0.04975 0.0
C1773 C 0.54458 0.98493 0.06241 0.0
C1774 C 0.53132 0.0088 0.97915 0.0
C1775 C 0.54254 0.99857 0.95005 0.0
H1776 H 1.00137 0.99674 0.60488 0.0
H1777 H 0.99832 0.0211 0.40664 0.0
H1778 H 0.01975 1.00449 0.3606 0.0
H1779 H 0.04075 0.9848 0.38085 0.0
H1780 H 0.04771 0.96669 0.58671 0.0
H1781 H 0.02088 0.97518 0.62085 0.0
C1782 C 1.00535 0.99838 0.55136 0.0
C1783 C 0.9981 0.0099 0.50832 0.0
C1784 C 0.01723 0.98855 0.52481 0.0
C1785 C 1.00377 0.01229 0.4402 0.0
C1786 C 0.01554 1.0024 0.41302 0.0
C1787 C 0.03607 0.98258 0.43278 0.0
C1788 C 0.04672 0.97819 0.48573 0.0
C1789 C 0.02238 0.99058 0.45487 0.0
C1790 C 0.04008 0.97199 0.54742 0.0
C1791 C 0.02508 0.97755 0.56812 0.0
H1792 H 0.01212 0.41942 0.93301 0.0
H1793 H 0.05474 0.42907 0.81428 0.0
H1794 H 0.0393 0.42855 0.70556 0.0
H1795 H 0.01307 0.43167 0.64946 0.0
H1796 H 0.97014 0.42444 0.76997 0.0
H1797 H 0.98623 0.41769 0.87296 0.0
C1798 C 0.01816 0.4206 0.88289 0.0
C1799 C 0.03459 0.42429 0.88177 0.0
C1800 C 0.00899 0.42133 0.8213 0.0
C1801 C 0.04223 0.42596 0.81671 0.0
C1802 C 0.03328 0.42605 0.75465 0.0
C1803 C 1.00721 0.42823 0.69784 0.0
C1804 C 0.99038 0.4288 0.70236 0.0
C1805 C 0.01655 0.42474 0.75703 0.0
C1806 C 0.983 0.42412 0.76504 0.0
C1807 C 0.99224 0.42036 0.82403 0.0
H1808 H 0.84036 0.73437 0.99184 0.0
H1809 H 0.81197 0.76729 0.87092 0.0
H1810 H 0.81571 0.78771 0.95789 0.0
H1811 H 0.82414 0.7959 0.07565 0.0
H1812 H 0.8517 0.76355 0.20101 0.0
H1813 H 0.85159 0.74393 0.10608 0.0
C1814 C 0.83521 0.74606 0.98398 0.0
C1815 C 0.82575 0.74892 0.92395 0.0
C1816 C 0.83735 0.7582 0.03558 0.0
C1817 C 0.81923 0.76435 0.91586 0.0
C1818 C 0.82136 0.77626 0.966 0.0
C1819 C 0.83083 0.78491 0.08083 0.0
C1820 C 0.83836 0.78153 0.14498 0.0
C1821 C 0.83012 0.77331 0.02683 0.0
C1822 C 0.84625 0.76677 0.15155 0.0
C1823 C 0.84591 0.75535 0.09754 0.0
H1824 H 0.54397 0.55013 0.34959 0.0
H1825 H 0.52055 0.58303 0.21152 0.0
H1826 H 0.49793 0.58499 0.29372 0.0
H1827 H 0.48333 0.57467 0.40063 0.0
H1828 H 0.50793 0.54133 0.53452 0.0
H1829 H 0.53122 0.54236 0.45948 0.0
C1830 C 0.5342 0.55824 0.33869 0.0
C1831 C 0.53428 0.56678 0.27511 0.0
C1832 C 0.52111 0.55897 0.38542 0.0
C1833 C 0.52118 0.57677 0.261 0.0
C1834 C 0.50806 0.57764 0.30769 0.0
C1835 C 0.49389 0.56789 0.41408 0.0
C1836 C 0.49357 0.55779 0.47367 0.0
C1837 C 0.50764 0.56844 0.36953 0.0
C1838 C 0.50751 0.54906 0.48918 0.0
C1839 C 0.52099 0.54964 0.44612 0.0
H1840 H 0.69273 0.2473 0.66018 0.0
H1841 H 0.6947 0.20629 0.52518 0.0
H1842 H 0.6892 0.22313 0.42312 0.0
H1843 H 0.68785 0.25004 0.37085 0.0
H1844 H 0.68605 0.2911 0.50594 0.0
H1845 H 0.68693 0.27384 0.60908 0.0
C1846 C 0.69137 0.242 0.60866 0.0
C1847 C 0.69382 0.22548 0.60048 0.0
C1848 C 0.68826 0.25185 0.55008 0.0
C1849 C 0.69247 0.21885 0.53318 0.0
C1850 C 0.68943 0.22854 0.47472 0.0
C1851 C 0.68694 0.25518 0.42291 0.0
C1852 C 0.68675 0.27192 0.43032 0.0
C1853 C 0.68776 0.24512 0.48223 0.0
C1854 C 0.68589 0.27834 0.49833 0.0
C1855 C 0.68667 0.26843 0.5575 0.0
H1856 H 0.01174 0.59363 0.95855 0.0
H1857 H 0.9691 0.60154 0.83736 0.0
H1858 H 0.98545 0.60746 0.73411 0.0
H1859 H 0.01126 0.60442 0.67388 0.0
H1860 H 0.05344 0.59327 0.79234 0.0
H1861 H 0.03806 0.59517 0.90153 0.0
C1862 C 1.00598 0.59708 0.91003 0.0
C1863 C 0.98913 0.59691 0.90562 0.0
C1864 C 0.01548 0.59983 0.85029 0.0
C1865 C 0.98195 0.60157 0.8425 0.0
C1866 C 0.99134 0.60482 0.78324 0.0
C1867 C 0.01724 0.6032 0.72397 0.0
C1868 C 0.03353 0.59876 0.725 0.0
C1869 C 1.00805 0.60321 0.78581 0.0
C1870 C 0.04108 0.59696 0.78999 0.0
C1871 C 0.03214 0.5977 0.85234 0.0
H1872 H 0.66806 0.76309 0.20419 0.0
H1873 H 0.66335 0.72277 0.06632 0.0
H1874 H 0.6572 0.74064 0.96858 0.0
H1875 H 0.66082 0.76736 0.91858 0.0
H1876 H 0.66915 0.80726 0.0549 0.0
H1877 H 0.66545 0.7902 0.1573 0.0
C1878 C 0.66498 0.75819 0.15333 0.0
C1879 C 0.66629 0.74163 0.14223 0.0
C1880 C 0.66225 0.7686 0.09692 0.0
C1881 C 0.66232 0.73542 0.07631 0.0
C1882 C 0.65902 0.74569 0.02023 0.0
C1883 C 0.66081 0.77249 0.97082 0.0
C1884 C 0.66533 0.78857 0.97911 0.0
C1885 C 0.65996 0.76229 0.02916 0.0
C1886 C 0.66551 0.79505 0.0469 0.0
C1887 C 0.66381 0.78514 0.10554 0.0
H1888 H 0.51845 0.43662 0.40415 0.0
H1889 H 0.55066 0.46963 0.30621 0.0
H1890 H 0.53342 0.47109 0.20341 0.0
H1891 H 0.50773 0.46542 0.14588 0.0
H1892 H 0.47529 0.43218 0.24099 0.0
H1893 H 0.49378 0.42849 0.33911 0.0
C1894 C 0.5219 0.44375 0.35939 0.0
C1895 C 0.53613 0.45275 0.3627 0.0
C1896 C 0.51161 0.44483 0.30012 0.0
C1897 C 0.54004 0.46234 0.30485 0.0
C1898 C 0.53003 0.46335 0.24618 0.0
C1899 C 0.50476 0.45715 0.18744 0.0
C1900 C 0.48996 0.44914 0.18545 0.0
C1901 C 0.51556 0.45501 0.24385 0.0
C1902 C 0.48652 0.43848 0.2403 0.0
C1903 C 0.49712 0.43643 0.29692 0.0
H1904 H 0.81517 0.25234 0.74607 0.0
H1905 H 0.83261 0.29254 0.62909 0.0
H1906 H 0.83885 0.27532 0.52982 0.0
H1907 H 0.83649 0.24937 0.47019 0.0
H1908 H 0.81994 0.20882 0.5859 0.0
H1909 H 0.81669 0.22531 0.69107 0.0
C1910 C 0.8205 0.25728 0.69915 0.0
C1911 C 0.82323 0.27386 0.6954 0.0
C1912 C 0.82441 0.24714 0.64174 0.0
C1913 C 0.83035 0.27992 0.6341 0.0
C1914 C 0.83392 0.27004 0.57689 0.0
C1915 C 0.83299 0.24396 0.51944 0.0
C1916 C 0.82905 0.22766 0.5203 0.0
C1917 C 0.83077 0.25368 0.57946 0.0
C1918 C 0.82373 0.22111 0.58406 0.0
C1919 C 0.82149 0.23068 0.644 0.0
H1920 H 1.00409 0.60198 0.45279 0.0
H1921 H 0.04714 0.59977 0.32909 0.0
H1922 H 0.03135 0.60211 0.2218 0.0
H1923 H 1.00541 0.59781 0.16484 0.0
H1924 H 0.96246 0.59679 0.28887 0.0
H1925 H 0.97796 0.60297 0.39434 0.0
C1926 C 0.01008 0.60266 0.40239 0.0
C1927 C 0.02681 0.60053 0.399 0.0
C1928 C 1.00082 0.60308 0.34095 0.0
C1929 C 0.03437 0.60149 0.33346 0.0
C1930 C 0.02528 0.60255 0.27198 0.0
C1931 C 0.99937 0.59965 0.2146 0.0
C1932 C 0.98279 0.59687 0.21917 0.0
C1933 C 0.0085 0.60236 0.27518 0.0
C1934 C 0.9751 0.5991 0.28378 0.0
C1935 C 0.98405 0.60237 0.34422 0.0
H1936 H 0.20125 0.25769 0.20239 0.0
H1937 H 0.1827 0.29912 0.09726 0.0
H1938 H 0.17625 0.2829 0.99452 0.0
H1939 H 0.17877 0.25756 0.9295 0.0
H1940 H 0.19683 0.21602 0.03437 0.0
H1941 H 0.20002 0.23141 0.14275 0.0
C1942 C 0.19562 0.26314 0.15731 0.0
C1943 C 0.19267 0.27971 0.15744 0.0
C1944 C 0.19167 0.25363 0.09853 0.0
C1945 C 0.18514 0.28647 0.09882 0.0
C1946 C 0.18146 0.27717 0.03989 0.0
C1947 C 0.1828 0.25173 0.97691 0.0
C1948 C 0.1873 0.23554 0.9739 0.0
C1949 C 0.18497 0.26081 0.03855 0.0
C1950 C 0.19281 0.22827 0.03554 0.0
C1951 C 0.19496 0.2372 0.09721 0.0
H1952 H 0.50244 0.4428 0.92115 0.0
H1953 H 0.46344 0.45399 0.78337 0.0
H1954 H 0.48119 0.4516 0.68146 0.0
H1955 H 0.50872 0.4502 0.6334 0.0
H1956 H 0.5476 0.43797 0.7702 0.0
H1957 H 0.52917 0.43684 0.8701 0.0
C1958 C 0.49776 0.44424 0.8686 0.0
C1959 C 0.48155 0.44842 0.85987 0.0
C1960 C 0.50813 0.44285 0.81001 0.0
C1961 C 0.47574 0.45051 0.7915 0.0
C1962 C 0.48595 0.44921 0.73316 0.0
C1963 C 0.51306 0.44673 0.68465 0.0
C1964 C 0.52957 0.44404 0.69397 0.0
C1965 C 0.50229 0.44592 0.7419 0.0
C1966 C 0.53499 0.43981 0.76107 0.0
C1967 C 0.52443 0.43933 0.81847 0.0
H1968 H 0.30924 0.75278 0.34989 0.0
H1969 H 0.33294 0.78921 0.4687 0.0
H1970 H 0.33797 0.7701 0.56347 0.0
H1971 H 0.33267 0.74356 0.61871 0.0
H1972 H 0.30801 0.70797 0.49855 0.0
H1973 H 0.30627 0.7261 0.39947 0.0
C1974 C 0.31571 0.75655 0.39595 0.0
C1975 C 0.32062 0.77256 0.40155 0.0
C1976 C 0.31848 0.74548 0.45043 0.0
C1977 C 0.32911 0.77702 0.46204 0.0
C1978 C 0.33192 0.76606 0.51664 0.0
C1979 C 0.32773 0.73948 0.56942 0.0
C1980 C 0.32097 0.72408 0.56574 0.0
C1981 C 0.32641 0.75027 0.51213 0.0
C1982 C 0.31382 0.71943 0.5024 0.0
C1983 C 0.31264 0.72991 0.44567 0.0
H1984 H 0.03503 0.42284 0.27043 0.0
H1985 H 1.00115 0.43117 0.10485 0.0
H1986 H 0.97914 0.42625 0.18462 0.0
H1987 H 0.96966 0.42631 0.30719 0.0
H1988 H 1.00291 0.4158 0.47202 0.0
H1989 H 0.02468 0.41419 0.38736 0.0
C1990 C 0.0229 0.42281 0.25108 0.0
C1991 C 0.01983 0.42778 0.18193 0.0
C1992 C 0.01 0.41975 0.29763 0.0
C1993 C 1.00391 0.42766 0.15814 0.0
C1994 C 0.99121 0.42491 0.20388 0.0
C1995 C 0.98143 0.42257 0.32403 0.0
C1996 C 0.98457 0.42124 0.39609 0.0
C1997 C 0.99406 0.42186 0.27474 0.0
C1998 C 1.00007 0.41672 0.41675 0.0
C1999 C 0.01268 0.41615 0.36835 0.0
H2000 H 0.33431 0.24875 0.87979 0.0
H2001 H 0.34157 0.29075 1.00522 0.0
H2002 H 0.34802 0.27416 0.1067 0.0
H2003 H 0.34558 0.24802 0.16429 0.0
H2004 H 0.33744 0.20616 0.03952 0.0
H2005 H 0.33806 0.22221 0.93278 0.0
C2006 C 0.33785 0.25426 0.92876 0.0
C2007 C 0.33733 0.27098 0.93515 0.0
C2008 C 0.3414 0.24461 0.98704 0.0
C2009 C 0.34197 0.27796 0.99875 0.0
C2010 C 0.34554 0.26844 0.05699 0.0
C2011 C 0.34489 0.2423 0.11335 0.0
C2012 C 0.3415 0.22589 0.10985 0.0
C2013 C 0.34455 0.25177 0.05249 0.0
C2014 C 0.34035 0.21866 0.04369 0.0
C2015 C 0.34032 0.22795 0.98268 0.0
H2016 H 0.50548 0.54845 1.00712 0.0
H2017 H 0.54215 0.57355 0.89428 0.0
H2018 H 0.52368 0.57846 0.79775 0.0
H2019 H 0.49779 0.573 0.73883 0.0
H2020 H 0.46115 0.54831 0.85283 0.0
H2021 H 0.47857 0.54616 0.9544 0.0
C2022 C 0.50938 0.55522 0.96197 0.0
C2023 C 0.52534 0.56051 0.9584 0.0
C2024 C 0.49853 0.55827 0.90658 0.0
C2025 C 0.53002 0.56932 0.89909 0.0
C2026 C 0.51942 0.57214 0.84352 0.0
C2027 C 0.49338 0.56786 0.78719 0.0
C2028 C 0.47797 0.56116 0.78852 0.0
C2029 C 0.50369 0.56646 0.84593 0.0
C2030 C 0.47273 0.55396 0.85087 0.0
C2031 C 0.48283 0.55255 0.90902 0.0
H2032 H 0.22394 0.76038 0.72998 0.0
H2033 H 0.18262 0.78564 0.65495 0.0
H2034 H 0.17963 0.7661 0.56007 0.0
H2035 H 0.19048 0.74295 0.49088 0.0
H2036 H 0.2326 0.7191 0.56625 0.0
H2037 H 0.23344 0.73674 0.66783 0.0
C2038 C 0.21415 0.76162 0.69345 0.0
C2039 C 0.20358 0.77468 0.70013 0.0
C2040 C 0.21268 0.75048 0.63828 0.0
C2041 C 0.19092 0.77578 0.65196 0.0
C2042 C 0.18927 0.7646 0.59715 0.0
C2043 C 0.19957 0.74138 0.53057 0.0
C2044 C 0.21138 0.72949 0.52108 0.0
C2045 C 0.20028 0.75202 0.58875 0.0
C2046 C 0.22332 0.72798 0.57227 0.0
C2047 C 0.22387 0.73817 0.63031 0.0
H2048 H 0.51093 0.91347 0.15288 0.0
H2049 H 0.46811 0.91811 0.27594 0.0
H2050 H 0.48377 0.91554 0.38353 0.0
H2051 H 0.50984 0.91892 0.44084 0.0
H2052 H 0.55228 0.92289 0.31522 0.0
H2053 H 0.53713 0.91504 0.21085 0.0
C2054 C 0.50505 0.91395 0.20325 0.0
C2055 C 0.48845 0.91668 0.20625 0.0
C2056 C 0.51431 0.91432 0.26453 0.0
C2057 C 0.48083 0.91607 0.27178 0.0
C2058 C 0.48986 0.91491 0.33341 0.0
C2059 C 0.51574 0.91812 0.39058 0.0
C2060 C 0.53202 0.92207 0.3853 0.0
C2061 C 0.50664 0.91519 0.33022 0.0
C2062 C 0.53979 0.91994 0.32076 0.0
C2063 C 0.53104 0.91568 0.26096 0.0
H2064 H 0.3205 0.26056 0.37753 0.0
H2065 H 0.33754 0.21881 0.48514 0.0
H2066 H 0.34396 0.23503 0.58792 0.0
H2067 H 0.3414 0.26045 0.6528 0.0
H2068 H 0.32484 0.30228 0.54554 0.0
H2069 H 0.32204 0.28689 0.43698 0.0
C2070 C 0.32588 0.25503 0.42302 0.0
C2071 C 0.32838 0.23833 0.42333 0.0
C2072 C 0.32977 0.26454 0.48208 0.0
C2073 C 0.33548 0.23152 0.48287 0.0
C2074 C 0.33913 0.24083 0.54195 0.0
C2075 C 0.33799 0.2664 0.6047 0.0
C2076 C 0.33378 0.28272 0.60739 0.0
C2077 C 0.336 0.25729 0.5428 0.0
C2078 C 0.32876 0.29 0.54491 0.0
C2079 C 0.32679 0.28104 0.48303 0.0
H2080 H 1.00315 0.07209 0.93574 0.0
H2081 H 0.96883 0.04289 0.8287 0.0
H2082 H 0.98685 0.04012 0.72869 0.0
H2083 H 0.01326 0.04401 0.67463 0.0
H2084 H 0.04771 0.07385 0.77735 0.0
H2085 H 0.02898 0.07836 0.87463 0.0
C2086 C 0.99944 0.06557 0.88955 0.0
C2087 C 0.9844 0.05797 0.88953 0.0
C2088 C 0.01009 0.06388 0.83148 0.0
C2089 C 0.98011 0.04913 0.82983 0.0
C2090 C 0.99052 0.0474 0.77268 0.0
C2091 C 0.01667 0.05164 0.71794 0.0
C2092 C 0.03205 0.05847 0.71831 0.0
C2093 C 1.00569 0.05439 0.77341 0.0
C2094 C 0.03603 0.06843 0.77505 0.0
C2095 C 0.02528 0.07098 0.83105 0.0
H2096 H 0.18819 0.77424 0.9923 0.0
H2097 H 0.22775 0.80107 0.0735 0.0
H2098 H 0.22981 0.78309 0.17316 0.0
H2099 H 0.22248 0.75821 0.23103 0.0
H2100 H 0.1833 0.73053 0.15192 0.0
H2101 H 0.17889 0.75026 0.05915 0.0
C2102 C 0.19687 0.77644 0.03314 0.0
C2103 C 0.20766 0.78923 0.02567 0.0
C2104 C 0.19825 0.76568 0.09046 0.0
C2105 C 0.21917 0.79152 0.0782 0.0
C2106 C 0.22045 0.78113 0.1351 0.0
C2107 C 0.21277 0.75655 0.1943 0.0
C2108 C 0.20328 0.74274 0.19891 0.0
C2109 C 0.21038 0.76791 0.14082 0.0
C2110 C 0.19077 0.74099 0.1504 0.0
C2111 C 0.18831 0.75228 0.09686 0.0
H2112 H 0.54548 0.08204 0.3042 0.0
H2113 H 0.51037 0.09496 0.15047 0.0
H2114 H 0.48982 0.09648 0.24112 0.0
H2115 H 0.48083 0.08796 0.35971 0.0
H2116 H 0.51648 0.07555 0.5129 0.0
H2117 H 0.53756 0.08028 0.42826 0.0
C2118 C 0.53356 0.08613 0.29132 0.0
C2119 C 0.52951 0.0885 0.22083 0.0
C2120 C 0.52164 0.08653 0.34371 0.0
C2121 C 0.51385 0.09333 0.20468 0.0
C2122 C 0.50198 0.0939 0.25642 0.0
C2123 C 0.49321 0.08686 0.37514 0.0
C2124 C 0.49696 0.08094 0.44206 0.0
C2125 C 0.50553 0.08958 0.32559 0.0
C2126 C 0.51316 0.07968 0.46115 0.0
C2127 C 0.52532 0.08239 0.41271 0.0
H2128 H 0.18185 0.26277 0.41212 0.0
H2129 H 0.17874 0.30415 0.54478 0.0
H2130 H 0.17167 0.28726 0.64481 0.0
H2131 H 0.17208 0.2605 0.69777 0.0
H2132 H 0.17678 0.21917 0.56577 0.0
H2133 H 0.17676 0.23615 0.46171 0.0
C2134 C 0.17895 0.26814 0.46235 0.0
C2135 C 0.18074 0.28473 0.47098 0.0
C2136 C 0.17524 0.25828 0.51976 0.0
C2137 C 0.17718 0.29151 0.53643 0.0
C2138 C 0.17333 0.28179 0.59381 0.0
C2139 C 0.1723 0.25517 0.64601 0.0
C2140 C 0.17439 0.23854 0.63969 0.0
C2141 C 0.17306 0.26512 0.58668 0.0
C2142 C 0.17483 0.23183 0.57229 0.0
C2143 C 0.17519 0.24162 0.51277 0.0
H2144 H 1.00432 0.95221 0.96493 0.0
H2145 H 0.046 0.95001 0.8329 0.0
H2146 H 0.02904 0.94865 0.72853 0.0
H2147 H 1.00216 0.95042 0.67368 0.0
H2148 H 0.96046 0.94992 0.80568 0.0
H2149 H 0.97741 0.94973 0.91037 0.0
C2150 C 0.00969 0.95106 0.91339 0.0
C2151 C 0.02652 0.95118 0.90716 0.0
C2152 C 0.99977 0.9498 0.85326 0.0
C2153 C 0.03318 0.94975 0.83968 0.0
C2154 C 0.02344 0.94908 0.77976 0.0
C2155 C 0.99679 0.94976 0.72538 0.0
C2156 C 0.97996 0.94994 0.73145 0.0
C2157 C 1.0067 0.94936 0.78567 0.0
C2158 C 0.97328 0.94941 0.79909 0.0
C2159 C 0.98303 0.94949 0.85915 0.0
H2160 H 0.30295 0.79225 1.0121 0.0
H2161 H 0.34108 0.77265 0.13502 0.0
H2162 H 0.34417 0.75076 0.05012 0.0
H2163 H 0.33356 0.73532 0.94592 0.0
H2164 H 0.29628 0.75722 0.82278 0.0
H2165 H 0.29556 0.77967 0.90122 0.0
C2166 C 0.31241 0.78356 0.01897 0.0
C2167 C 0.32195 0.78439 0.07963 0.0
C2168 C 0.31406 0.771 0.96996 0.0
C2169 C 0.33387 0.7727 0.08803 0.0
C2170 C 0.33543 0.75996 0.03983 0.0
C2171 C 0.32552 0.74512 0.93541 0.0
C2172 C 0.31483 0.74408 0.87784 0.0
C2173 C 0.32524 0.75866 0.98127 0.0
C2174 C 0.30457 0.75719 0.8662 0.0
C2175 C 0.30409 0.77025 0.91142 0.0
H2176 H 0.5012 0.09484 0.68009 0.0
H2177 H 0.45959 0.08635 0.80692 0.0
H2178 H 0.47539 0.09012 0.91331 0.0
H2179 H 0.50198 0.08865 0.96714 0.0
H2180 H 0.54398 0.09453 0.8392 0.0
H2181 H 0.52719 0.09931 0.73643 0.0
C2182 C 0.49544 0.09472 0.73112 0.0
C2183 C 0.47924 0.09037 0.73581 0.0
C2184 C 0.50485 0.09595 0.79178 0.0
C2185 C 0.47192 0.08996 0.80193 0.0
C2186 C 0.48108 0.09176 0.86278 0.0
C2187 C 0.50745 0.09156 0.91719 0.0
C2188 C 0.52421 0.09103 0.9105 0.0
C2189 C 0.49771 0.09369 0.85806 0.0
C2190 C 0.53115 0.09492 0.8458 0.0
C2191 C 0.52152 0.09746 0.78687 0.0
H2192 H 0.68451 0.72287 0.53448 0.0
H2193 H 0.66673 0.75804 0.39108 0.0
H2194 H 0.66585 0.77785 0.485 0.0
H2195 H 0.67437 0.78643 0.60499 0.0
H2196 H 0.69187 0.75051 0.74703 0.0
H2197 H 0.68852 0.73022 0.65834 0.0
C2198 C 0.67963 0.73461 0.52464 0.0
C2199 C 0.67529 0.73872 0.45577 0.0
C2200 C 0.6796 0.74619 0.57892 0.0
C2201 C 0.6697 0.75433 0.44385 0.0
C2202 C 0.66949 0.76581 0.49752 0.0
C2203 C 0.67708 0.77413 0.61708 0.0
C2204 C 0.6837 0.77031 0.68305 0.0
C2205 C 0.67506 0.76211 0.56492 0.0
C2206 C 0.68707 0.75412 0.69684 0.0
C2207 C 0.68512 0.74233 0.64589 0.0
H2208 H 0.01088 0.93559 0.18405 0.0
H2209 H 0.04958 0.95092 0.3152 0.0
H2210 H 0.0317 0.95125 0.41699 0.0
H2211 H 1.00391 0.95405 0.4621 0.0
H2212 H 0.96514 0.93737 0.33443 0.0
H2213 H 0.98387 0.93158 0.23845 0.0
C2214 C 0.01554 0.93854 0.23538 0.0
C2215 C 0.03173 0.94316 0.24131 0.0
C2216 C 1.0049 0.93953 0.29389 0.0
C2217 C 0.03733 0.94718 0.30845 0.0
C2218 C 0.02696 0.9479 0.3665 0.0
C2219 C 0.99956 0.94886 0.41373 0.0
C2220 C 0.98296 0.9464 0.4056 0.0
C2221 C 0.01052 0.94523 0.35886 0.0
C2222 C 0.97773 0.93945 0.34261 0.0
C2223 C 0.98851 0.93613 0.28747 0.0
H2224 H 0.81941 0.29929 0.09162 0.0
H2225 H 0.84431 0.27142 0.93706 0.0
H2226 H 0.8463 0.24919 0.01981 0.0
H2227 H 0.83708 0.23617 0.1315 0.0
H2228 H 0.81196 0.26498 0.28359 0.0
H2229 H 0.81412 0.288 0.2079 0.0
C2230 C 0.82604 0.28867 0.07729 0.0
C2231 C 0.83221 0.28736 1.00868 0.0
C2232 C 0.8267 0.27574 0.1247 0.0
C2233 C 0.84003 0.27311 0.99021 0.0
C2234 C 0.84086 0.26021 0.03732 0.0
C2235 C 0.83248 0.24757 0.14887 0.0
C2236 C 0.82417 0.24857 0.2136 0.0
C2237 C 0.83369 0.26113 0.10412 0.0
C2238 C 0.81823 0.26359 0.2342 0.0
C2239 C 0.81945 0.2769 0.19073 0.0
H2240 H 0.50212 0.93266 0.64977 0.0
H2241 H 0.54412 0.91824 0.76332 0.0
H2242 H 0.52728 0.9102 0.86256 0.0
H2243 H 0.50129 0.91198 0.92341 0.0
H2244 H 0.45988 0.92852 0.81193 0.0
H2245 H 0.47567 0.93028 0.70401 0.0
C2246 C 0.50765 0.92739 0.69536 0.0
C2247 C 0.52449 0.92621 0.69897 0.0
C2248 C 0.49789 0.92306 0.75238 0.0
C2249 C 0.53129 0.91928 0.75875 0.0
C2250 C 0.52162 0.91475 0.81565 0.0
C2251 C 0.49552 0.91516 0.87454 0.0
C2252 C 0.47932 0.91999 0.87585 0.0
C2253 C 0.50497 0.91712 0.81391 0.0
C2254 C 0.47212 0.92438 0.81242 0.0
C2255 C 0.48131 0.92578 0.75104 0.0
H2256 H 0.84828 0.792 0.55044 0.0
H2257 H 0.85371 0.764 0.36288 0.0
H2258 H 0.85524 0.73979 0.4321 0.0
H2259 H 0.84618 0.72686 0.54271 0.0
H2260 H 0.84529 0.75462 0.73235 0.0
H2261 H 0.85128 0.77866 0.66614 0.0
C2262 C 0.85104 0.78077 0.52498 0.0
C2263 C 0.85037 0.77977 0.45146 0.0
C2264 C 0.85212 0.76676 0.56551 0.0
C2265 C 0.85407 0.76509 0.41951 0.0
C2266 C 0.85456 0.75112 0.45908 0.0
C2267 C 0.84834 0.73795 0.5701 0.0
C2268 C 0.84478 0.73908 0.64197 0.0
C2269 C 0.85231 0.75175 0.5318 0.0
C2270 C 0.84769 0.75355 0.67669 0.0
C2271 C 0.85098 0.76737 0.63874 0.0
H2272 H 0.01424 0.05154 0.45177 0.0
H2273 H 0.05152 0.07093 0.32254 0.0
H2274 H 0.03287 0.0729 0.2236 0.0
H2275 H 1.00606 0.06712 0.17048 0.0
H2276 H 0.96849 0.04992 0.30438 0.0
H2277 H 0.98681 0.04941 0.40403 0.0
C2278 C 0.01822 0.05656 0.40242 0.0
C2279 C 0.03437 0.06122 0.39534 0.0
C2280 C 1.00725 0.05799 0.34599 0.0
C2281 C 0.03921 0.0675 0.33039 0.0
C2282 C 0.02851 0.06851 0.27342 0.0
C2283 C 1.0018 0.06363 0.22186 0.0
C2284 C 0.98578 0.05853 0.22945 0.0
C2285 C 0.01251 0.06357 0.28004 0.0
C2286 C 0.98063 0.05395 0.29666 0.0
C2287 C 0.99118 0.05355 0.35381 0.0
H2288 H 0.68443 0.23183 0.96577 0.0
H2289 H 0.7219 0.25517 0.84991 0.0
H2290 H 0.71966 0.27833 0.92484 0.0
H2291 H 0.70974 0.29097 0.03221 0.0
H2292 H 0.67243 0.26873 0.15114 0.0
H2293 H 0.67155 0.24676 0.06611 0.0
C2294 C 0.69195 0.24206 0.95633 0.0
C2295 C 0.70365 0.24133 0.90243 0.0
C2296 C 0.69054 0.2558 1.00026 0.0
C2297 C 0.71311 0.25494 0.89149 0.0
C2298 C 0.71177 0.26839 0.93431 0.0
C2299 C 0.70081 0.28175 0.03762 0.0
C2300 C 0.69081 0.28191 0.09726 0.0
C2301 C 0.70083 0.26885 0.98985 0.0
C2302 C 0.67982 0.26939 0.10458 0.0
C2303 C 0.67962 0.25655 0.0566 0.0
H2304 H 0.07022 0.543 0.78381 0.0
H2305 H 0.05377 0.51511 0.60928 0.0
H2306 H 0.05425 0.49112 0.68117 0.0
H2307 H 0.05702 0.47812 0.79733 0.0
H2308 H 0.07563 0.50494 0.97063 0.0
H2309 H 0.07699 0.5288 0.89672 0.0
C2310 C 0.06716 0.53162 0.76094 0.0
C2311 C 0.06158 0.5311 0.6906 0.0
C2312 C 0.0679 0.51749 0.80299 0.0
C2313 C 0.05763 0.51608 0.66317 0.0
C2314 C 0.05801 0.50226 0.70443 0.0
C2315 C 0.06199 0.48901 0.8183 0.0
C2316 C 0.06672 0.48939 0.88957 0.0
C2317 C 0.06279 0.50279 0.77494 0.0
C2318 C 0.07247 0.50396 0.91578 0.0
C2319 C 0.07301 0.51776 0.87344 0.0
H2320 H 0.72099 0.81019 0.08844 0.0
H2321 H 0.74583 0.83607 0.92791 0.0
H2322 H 0.76992 0.83654 1.00121 0.0
H2323 H 0.78516 0.82641 0.1069 0.0
H2324 H 0.75945 0.80017 0.26392 0.0
H2325 H 0.73484 0.80301 0.19716 0.0
C2326 C 0.73145 0.81657 0.07052 0.0
C2327 C 0.73122 0.8235 1.0029 0.0
C2328 C 0.74547 0.81623 0.11208 0.0
C2329 C 0.74525 0.83114 0.98026 0.0
C2330 C 0.75923 0.83109 0.02192 0.0
C2331 C 0.77413 0.82151 0.1269 0.0
C2332 C 0.77438 0.81266 0.19046 0.0
C2333 C 0.7597 0.8232 0.08727 0.0
C2334 C 0.75983 0.80649 0.2147 0.0
C2335 C 0.74566 0.80824 0.17659 0.0
H2336 H 0.43503 0.49848 0.46764 0.0
H2337 H 0.43073 0.54352 0.36163 0.0
H2338 H 0.42704 0.52957 0.24975 0.0
H2339 H 0.42857 0.5047 0.1806 0.0
H2340 H 0.43367 0.45976 0.28612 0.0
H2341 H 0.43299 0.47346 0.39981 0.0
C2342 C 0.43295 0.50529 0.42029 0.0
C2343 C 0.43325 0.52212 0.42336 0.0
C2344 C 0.43099 0.49715 0.356 0.0
C2345 C 0.43045 0.53065 0.36133 0.0
C2346 C 0.42846 0.52263 0.29715 0.0
C2347 C 0.42916 0.49785 0.22852 0.0
C2348 C 0.43122 0.48116 0.22449 0.0
C2349 C 0.42919 0.50591 0.2936 0.0
C2350 C 0.43185 0.47251 0.28731 0.0
C2351 C 0.4317 0.48042 0.35239 0.0
H2352 H 0.76064 0.17855 0.40052 0.0
H2353 H 0.80073 0.16829 0.53366 0.0
H2354 H 0.78246 0.16002 0.62743 0.0
H2355 H 0.75519 0.16132 0.6787 0.0
H2356 H 0.71553 0.17381 0.54715 0.0
H2357 H 0.73321 0.17454 0.44513 0.0
C2358 C 0.76542 0.17385 0.44905 0.0
C2359 C 0.78217 0.17393 0.45943 0.0
C2360 C 0.75477 0.16956 0.50347 0.0
C2361 C 0.78805 0.16808 0.52327 0.0
C2362 C 0.77752 0.16356 0.57739 0.0
C2363 C 0.75029 0.16349 0.62708 0.0
C2364 C 0.73389 0.16749 0.62127 0.0
C2365 C 0.76085 0.16497 0.5692 0.0
C2366 C 0.72787 0.1703 0.55371 0.0
C2367 C 0.73815 0.17119 0.49542 0.0
H2368 H 0.93962 0.50446 0.4284 0.0
H2369 H 0.95959 0.46748 0.29845 0.0
H2370 H 0.96037 0.48566 0.19864 0.0
H2371 H 0.95803 0.51289 0.15048 0.0
H2372 H 0.93687 0.5499 0.27647 0.0
H2373 H 0.93373 0.5311 0.37415 0.0
C2374 C 0.94351 0.50019 0.37748 0.0
C2375 C 0.94908 0.48428 0.37103 0.0
C2376 C 0.94394 0.5109 0.31935 0.0
C2377 C 0.95474 0.47935 0.30494 0.0
C2378 C 0.95539 0.48987 0.24777 0.0
C2379 C 0.95234 0.51679 0.1987 0.0
C2380 C 0.94759 0.53293 0.20527 0.0
C2381 C 0.95038 0.50578 0.25458 0.0
C2382 C 0.94041 0.53762 0.26884 0.0
C2383 C 0.93874 0.52683 0.32519 0.0
H2384 H 0.23303 0.18279 0.98061 0.0
H2385 H 0.26125 0.21205 0.84258 0.0
H2386 H 0.28485 0.20685 0.91232 0.0
H2387 H 0.29701 0.19721 0.02047 0.0
H2388 H 0.2694 0.16959 0.16565 0.0
H2389 H 0.24658 0.17031 0.08512 0.0
C2390 C 0.24441 0.18772 0.96501 0.0
C2391 C 0.24514 0.19797 0.90602 0.0
C2392 C 0.25825 0.18487 1.00683 0.0
C2393 C 0.2601 0.20431 0.88764 0.0
C2394 C 0.27373 0.2013 0.92758 0.0
C2395 C 0.28625 0.19069 0.03313 0.0
C2396 C 0.28524 0.18293 0.09855 0.0
C2397 C 0.27291 0.19197 0.98824 0.0
C2398 C 0.27088 0.17511 0.1148 0.0
C2399 C 0.25763 0.17588 0.06919 0.0
H2400 H 0.58179 0.46661 0.8086 0.0
H2401 H 0.59508 0.50107 0.65305 0.0
H2402 H 0.596 0.5219 0.74222 0.0
H2403 H 0.5885 0.53136 0.86265 0.0
H2404 H 0.57673 0.49611 0.01825 0.0
H2405 H 0.57999 0.47503 0.93264 0.0
C2406 C 0.58579 0.47845 0.79485 0.0
C2407 C 0.58872 0.48203 0.72389 0.0
C2408 C 0.58612 0.49059 0.84684 0.0
C2409 C 0.5932 0.49776 0.70733 0.0
C2410 C 0.59343 0.50983 0.75837 0.0
C2411 C 0.58719 0.51906 0.87842 0.0
C2412 C 0.58207 0.51558 0.94735 0.0
C2413 C 0.58926 0.50659 0.82818 0.0
C2414 C 0.5804 0.49939 0.96571 0.0
C2415 C 0.58225 0.48717 0.91652 0.0
H2416 H 0.25316 0.84352 0.66339 0.0
H2417 H 0.21232 0.81873 0.58286 0.0
H2418 H 0.22609 0.81463 0.47086 0.0
H2419 H 0.25121 0.81443 0.40274 0.0
H2420 H 0.2925 0.8386 0.4839 0.0
H2421 H 0.27719 0.84664 0.58788 0.0
C2422 C 0.24702 0.83785 0.62014 0.0
C2423 C 0.23158 0.83161 0.63162 0.0
C2424 C 0.25531 0.83506 0.5563 0.0
C2425 C 0.22398 0.82397 0.57541 0.0
C2426 C 0.23202 0.82135 0.51161 0.0
C2427 C 0.25688 0.82161 0.44273 0.0
C2428 C 0.2732 0.82565 0.43541 0.0
C2429 C 0.24795 0.82621 0.5026 0.0
C2430 C 0.2801 0.83519 0.48773 0.0
C2431 C 0.27128 0.83983 0.54735 0.0
H2432 H 0.56926 0.97425 0.2992 0.0
H2433 H 0.56772 1.0046 0.481 0.0
H2434 H 0.57079 0.02807 0.40679 0.0
H2435 H 0.57027 0.04044 0.28824 0.0
H2436 H 0.57125 0.01013 0.10633 0.0
H2437 H 0.57258 0.9866 0.18123 0.0
C2438 C 0.57025 0.98594 0.32275 0.0
C2439 C 0.56867 0.98749 0.39633 0.0
C2440 C 0.57179 0.99961 0.27907 0.0
C2441 C 0.56931 1.00292 0.42506 0.0
C2442 C 0.57091 0.01643 0.38235 0.0
C2443 C 0.57146 0.02872 0.26501 0.0
C2444 C 0.57117 0.02723 0.19115 0.0
C2445 C 0.57172 0.01503 0.30897 0.0
C2446 C 0.57193 0.01178 0.16261 0.0
C2447 C 0.57242 0.99822 0.20566 0.0
H2448 H 0.22252 0.32687 0.57407 0.0
H2449 H 0.24982 0.34334 0.39775 0.0
H2450 H 0.2741 0.34305 0.46877 0.0
H2451 H 0.28834 0.33317 0.57595 0.0
H2452 H 0.26029 0.31756 0.75222 0.0
H2453 H 0.23581 0.3226 0.68751 0.0
C2454 C 0.23359 0.33135 0.55237 0.0
C2455 C 0.23412 0.33559 0.48088 0.0
C2456 C 0.24762 0.33084 0.59347 0.0
C2457 C 0.24883 0.34062 0.45309 0.0
C2458 C 0.26286 0.34008 0.49351 0.0
C2459 C 0.27687 0.33148 0.60101 0.0
C2460 C 0.27624 0.32491 0.66914 0.0
C2461 C 0.26256 0.33453 0.56306 0.0
C2462 C 0.26118 0.32259 0.70008 0.0
C2463 C 0.2471 0.32542 0.66289 0.0
H2464 H 0.9132 0.01216 0.94492 0.0
H2465 H 0.93005 0.05201 0.82505 0.0
H2466 H 0.92697 0.03667 0.71678 0.0
H2467 H 0.92612 0.01039 0.6613 0.0
H2468 H 0.9142 0.96904 0.78356 0.0
H2469 H 0.90897 0.98617 0.88578 0.0
C2470 C 0.91604 0.01749 0.8949 0.0
C2471 C 0.92225 0.03309 0.89332 0.0
C2472 C 0.91551 0.00809 0.83355 0.0
C2473 C 0.92511 0.04014 0.82796 0.0
C2474 C 0.92367 0.03121 0.76611 0.0
C2475 C 0.92191 1.00512 0.70981 0.0
C2476 C 0.92069 0.98837 0.71485 0.0
C2477 C 0.91987 0.01494 0.76895 0.0
C2478 C 0.91513 0.98181 0.77788 0.0
C2479 C 0.91235 0.99164 0.83657 0.0
H2480 H 0.25299 0.67212 0.16048 0.0
H2481 H 0.2126 0.69743 0.0773 0.0
H2482 H 0.22653 0.70065 0.96527 0.0
H2483 H 0.25159 0.69965 0.89716 0.0
H2484 H 0.29204 0.67388 0.97842 0.0
H2485 H 0.27655 0.66691 0.08314 0.0
C2486 C 0.24694 0.67767 0.11665 0.0
C2487 C 0.23155 0.68426 0.12731 0.0
C2488 C 0.25521 0.67967 0.05222 0.0
C2489 C 0.22415 0.69183 0.0704 0.0
C2490 C 0.2323 0.69395 1.00658 0.0
C2491 C 0.25709 0.69244 0.93752 0.0
C2492 C 0.27325 0.68765 0.92998 0.0
C2493 C 0.24808 0.68852 0.99795 0.0
C2494 C 0.27982 0.67796 0.98255 0.0
C2495 C 0.2709 0.67395 0.04263 0.0
H2496 H 0.43472 0.976 0.84811 0.0
H2497 H 0.46605 1.00011 0.99206 0.0
H2498 H 0.46374 0.02445 0.92473 0.0
H2499 H 0.45606 0.03812 0.81742 0.0
H2500 H 0.42635 0.0147 0.66623 0.0
H2501 H 0.42416 0.99148 0.74409 0.0
C2502 C 0.44067 0.9867 0.86563 0.0
C2503 C 0.45061 0.98604 0.92573 0.0
C2504 C 0.4395 1.00098 0.82518 0.0
C2505 C 0.4584 1.00009 0.94637 0.0
C2506 C 0.45707 0.01412 0.90779 0.0
C2507 C 0.44859 0.02819 0.80252 0.0
C2508 C 0.44118 0.02841 0.73622 0.0
C2509 C 0.44806 0.01463 0.84612 0.0
C2510 C 0.43182 0.01519 0.71755 0.0
C2511 C 0.43084 1.00172 0.7618 0.0
H2512 H 0.76244 0.69009 0.64771 0.0
H2513 H 0.80201 0.70094 0.51243 0.0
H2514 H 0.7839 0.70306 0.41236 0.0
H2515 H 0.75603 0.7055 0.36562 0.0
H2516 H 0.71664 0.69325 0.49992 0.0
H2517 H 0.73515 0.68803 0.59653 0.0
C2518 C 0.76726 0.69204 0.59564 0.0
C2519 C 0.78393 0.69466 0.58823 0.0
C2520 C 0.75656 0.69355 0.53784 0.0
C2521 C 0.78955 0.69809 0.52021 0.0
C2522 C 0.77903 0.69971 0.46285 0.0
C2523 C 0.75151 0.70142 0.41569 0.0
C2524 C 0.73475 0.69988 0.42483 0.0
C2525 C 0.76241 0.69804 0.47132 0.0
C2526 C 0.72931 0.69446 0.49044 0.0
C2527 C 0.73998 0.69154 0.54614 0.0
H2528 H 0.08772 0.00769 0.16899 0.0
H2529 H 0.09397 0.96556 0.29415 0.0
H2530 H 0.10206 0.98206 0.39417 0.0
H2531 H 0.1018 0.00845 0.4512 0.0
H2532 H 0.09327 0.05045 0.32774 0.0
H2533 H 0.09229 0.03414 0.22139 0.0
C2534 C 0.0914 1.00207 0.21752 0.0
C2535 C 0.09022 0.98535 0.22404 0.0
C2536 C 0.09558 0.01171 0.27522 0.0
C2537 C 0.09493 0.9783 0.28729 0.0
C2538 C 0.0994 0.9878 0.34471 0.0
C2539 C 0.10054 0.01414 0.4005 0.0
C2540 C 0.09765 0.03075 0.39775 0.0
C2541 C 0.09909 1.00453 0.34008 0.0
C2542 C 0.0958 0.03784 0.33171 0.0
C2543 C 0.09487 0.02842 0.27093 0.0
H2544 H 0.73334 0.33779 0.08606 0.0
H2545 H 0.76402 0.3187 0.24639 0.0
H2546 H 0.78747 0.32675 0.18054 0.0
H2547 H 0.79919 0.33379 0.06699 0.0
H2548 H 0.76916 0.35196 0.90342 0.0
H2549 H 0.74596 0.3505 0.98091 0.0
C2550 C 0.74514 0.33594 0.10761 0.0
C2551 C 0.74682 0.32746 0.17107 0.0
C2552 C 0.75887 0.34045 0.0684 0.0
C2553 C 0.7623 0.32503 0.19754 0.0
C2554 C 0.77581 0.32964 0.15978 0.0
C2555 C 0.78778 0.33847 0.0498 0.0
C2556 C 0.7861 0.34315 0.97931 0.0
C2557 C 0.77428 0.3367 0.09371 0.0
C2558 C 0.771 0.34866 0.95769 0.0
C2559 C 0.75756 0.34736 1.00162 0.0
loop_
_geom_bond_atom_site_label_1
_geom_bond_atom_site_label_2
_geom_bond_distance
_geom_bond_site_symmetry_2
_ccdc_geom_bond_type
Zn0 O1 2.055 1_554 S
Zn0 O8 2.046 . S
Zn0 N16 2.036 . S
Zn0 O28 2.053 . S
Zn0 O30 2.066 1_554 S
O1 Zn0 2.055 1_556 S
O1 C4 1.259 . S
C2 O30 1.256 . S
C2 O31 1.244 . S
Zn3 O5 2.046 1_554 S
Zn3 O7 2.055 . S
Zn3 N9 2.036 . S
Zn3 O27 2.066 . S
Zn3 O31 2.053 1_554 S
C4 O1 1.259 . S
C4 O5 1.254 . S
O5 Zn3 2.046 1_556 S
O5 C4 1.254 . S
C6 O27 1.256 . S
C6 O28 1.244 . S
O7 Zn3 2.055 . S
O7 C29 1.259 . S
O8 Zn0 2.046 . S
O8 C29 1.254 . S
N9 Zn3 2.036 . S
N9 C10 1.298 . S
N9 N12 1.399 . S
C10 N9 1.298 . S
C10 N13 1.367 . S
C10 C23 1.481 . S
C11 N12 1.299 . S
C11 N13 1.379 . S
N12 N9 1.399 . S
N12 C11 1.299 . S
N13 C10 1.367 . S
N13 C11 1.379 . S
C14 N16 1.298 . S
C14 N18 1.425 . S
C14 C22 1.481 1_554 S
C15 N17 1.246 1_655 S
C15 N18 1.371 1_655 S
N16 Zn0 2.036 . S
N16 C14 1.298 . S
N16 N17 1.398 . S
N17 C15 1.246 1_455 S
N17 N16 1.398 . S
N18 C14 1.425 . S
N18 C15 1.371 1_455 S
H19 C22 0.980 . S
H20 C22 0.981 . S
H21 C22 0.981 . S
C22 C14 1.481 1_556 S
C22 H19 0.980 . S
C22 H20 0.981 . S
C22 H21 0.981 . S
C23 C10 1.481 . S
C23 H24 0.980 . S
C23 H25 0.981 . S
C23 H26 0.981 . S
H24 C23 0.980 . S
H25 C23 0.981 . S
H26 C23 0.981 . S
O27 Zn3 2.066 . S
O27 C6 1.256 . S
O28 Zn0 2.053 . S
O28 C6 1.244 . S
C29 O7 1.259 . S
C29 O8 1.254 . S
O30 Zn0 2.066 1_556 S
O30 C2 1.256 . S
O31 C2 1.244 . S
O31 Zn3 2.053 1_556 S
Zn32 O33 2.055 . S
Zn32 O40 2.046 . S
Zn32 N48 2.036 . S
Zn32 O60 2.053 . S
Zn32 O62 2.066 . S
O33 Zn32 2.055 . S
O33 C36 1.259 . S
C34 O62 1.256 . S
C34 O63 1.244 . S
Zn35 O37 2.046 . S
Zn35 O39 2.055 . S
Zn35 N41 2.036 . S
Zn35 O59 2.066 . S
Zn35 O63 2.053 . S
C36 O33 1.259 . S
C36 O37 1.254 . S
O37 Zn35 2.046 . S
O37 C36 1.254 . S
C38 O59 1.256 . S
C38 O60 1.244 . S
O39 Zn35 2.055 . S
O39 C61 1.259 . S
O40 Zn32 2.046 . S
O40 C61 1.254 . S
N41 Zn35 2.036 . S
N41 C42 1.298 . S
N41 N44 1.398 . S
C42 N41 1.298 . S
C42 N45 1.367 . S
C42 C55 1.481 . S
C43 N44 1.299 . S
C43 N45 1.379 . S
N44 N41 1.398 . S
N44 C43 1.299 . S
N45 C42 1.367 . S
N45 C43 1.379 . S
C46 N48 1.298 . S
C46 N50 1.367 . S
C46 C54 1.481 . S
C47 N49 1.299 . S
C47 N50 1.379 . S
N48 Zn32 2.036 . S
N48 C46 1.298 . S
N48 N49 1.398 . S
N49 C47 1.299 . S
N49 N48 1.398 . S
N50 C46 1.367 . S
N50 C47 1.379 . S
H51 C54 0.980 . S
H52 C54 0.981 . S
H53 C54 0.981 . S
C54 C46 1.481 . S
C54 H51 0.980 . S
C54 H52 0.981 . S
C54 H53 0.981 . S
C55 C42 1.481 . S
C55 H56 0.980 . S
C55 H57 0.981 . S
C55 H58 0.981 . S
H56 C55 0.980 . S
H57 C55 0.981 . S
H58 C55 0.981 . S
O59 Zn35 2.066 . S
O59 C38 1.256 . S
O60 Zn32 2.053 . S
O60 C38 1.244 . S
C61 O39 1.259 . S
C61 O40 1.254 . S
O62 Zn32 2.066 . S
O62 C34 1.256 . S
O63 C34 1.244 . S
O63 Zn35 2.053 . S
Zn64 O65 2.055 . S
Zn64 O72 2.046 . S
Zn64 N80 2.036 . S
Zn64 O92 2.053 . S
Zn64 O94 2.066 . S
O65 Zn64 2.055 . S
O65 C68 1.259 . S
C66 O94 1.256 . S
C66 O95 1.244 . S
Zn67 O69 2.046 . S
Zn67 O71 2.055 . S
Zn67 N73 2.036 . S
Zn67 O91 2.066 . S
Zn67 O95 2.053 . S
C68 O65 1.259 . S
C68 O69 1.254 . S
O69 Zn67 2.046 . S
O69 C68 1.254 . S
C70 O91 1.256 . S
C70 O92 1.244 . S
O71 Zn67 2.055 . S
O71 C93 1.259 . S
O72 Zn64 2.046 . S
O72 C93 1.254 . S
N73 Zn67 2.036 . S
N73 C74 1.298 . S
N73 N76 1.398 . S
C74 N73 1.298 . S
C74 N77 1.367 . S
C74 C87 1.481 . S
C75 N76 1.299 . S
C75 N77 1.379 . S
N76 N73 1.398 . S
N76 C75 1.299 . S
N77 C74 1.367 . S
N77 C75 1.379 . S
C78 N80 1.298 . S
C78 N82 1.367 . S
C78 C86 1.481 . S
C79 N81 1.299 . S
C79 N82 1.379 . S
N80 Zn64 2.036 . S
N80 C78 1.298 . S
N80 N81 1.398 . S
N81 C79 1.299 . S
N81 N80 1.398 . S
N82 C78 1.367 . S
N82 C79 1.379 . S
H83 C86 0.980 . S
H84 C86 0.981 . S
H85 C86 0.981 . S
C86 C78 1.481 . S
C86 H83 0.980 . S
C86 H84 0.981 . S
C86 H85 0.981 . S
C87 C74 1.481 . S
C87 H88 0.980 . S
C87 H89 0.981 . S
C87 H90 0.981 . S
H88 C87 0.980 . S
H89 C87 0.981 . S
H90 C87 0.981 . S
O91 Zn67 2.066 . S
O91 C70 1.256 . S
O92 Zn64 2.053 . S
O92 C70 1.244 . S
C93 O71 1.259 . S
C93 O72 1.254 . S
O94 Zn64 2.066 . S
O94 C66 1.256 . S
O95 C66 1.244 . S
O95 Zn67 2.053 . S
Zn96 O97 2.055 . S
Zn96 O104 2.046 . S
Zn96 N112 2.036 . S
Zn96 O124 2.053 . S
Zn96 O126 2.066 . S
O97 Zn96 2.055 . S
O97 C100 1.259 . S
C98 O126 1.256 . S
C98 O127 1.244 . S
Zn99 O101 2.046 . S
Zn99 O103 2.055 . S
Zn99 N105 2.036 . S
Zn99 O123 2.066 . S
Zn99 O127 2.053 . S
C100 O97 1.259 . S
C100 O101 1.254 . S
O101 Zn99 2.046 . S
O101 C100 1.254 . S
C102 O123 1.256 . S
C102 O124 1.244 . S
O103 Zn99 2.055 . S
O103 C125 1.259 . S
O104 Zn96 2.046 . S
O104 C125 1.254 . S
N105 Zn99 2.036 . S
N105 C106 1.298 . S
N105 N108 1.398 . S
C106 N105 1.298 . S
C106 N109 1.367 . S
C106 C119 1.481 . S
C107 N108 1.299 . S
C107 N109 1.379 . S
N108 N105 1.398 . S
N108 C107 1.299 . S
N109 C106 1.367 . S
N109 C107 1.379 . S
C110 N112 1.298 . S
C110 N114 1.367 . S
C110 C118 1.481 . S
C111 N113 1.299 . S
C111 N114 1.379 . S
N112 Zn96 2.036 . S
N112 C110 1.298 . S
N112 N113 1.398 . S
N113 C111 1.299 . S
N113 N112 1.398 . S
N114 C110 1.367 . S
N114 C111 1.379 . S
H115 C118 0.980 . S
H116 C118 0.981 . S
H117 C118 0.981 . S
C118 C110 1.481 . S
C118 H115 0.980 . S
C118 H116 0.981 . S
C118 H117 0.981 . S
C119 C106 1.481 . S
C119 H120 0.980 . S
C119 H121 0.981 . S
C119 H122 0.981 . S
H120 C119 0.980 . S
H121 C119 0.981 . S
H122 C119 0.981 . S
O123 Zn99 2.066 . S
O123 C102 1.256 . S
O124 Zn96 2.053 . S
O124 C102 1.244 . S
C125 O103 1.259 . S
C125 O104 1.254 . S
O126 Zn96 2.066 . S
O126 C98 1.256 . S
O127 C98 1.244 . S
O127 Zn99 2.053 . S
Zn128 O129 2.055 . S
Zn128 O136 2.046 . S
Zn128 N144 2.036 . S
Zn128 O156 2.053 . S
Zn128 O158 2.066 . S
O129 Zn128 2.055 . S
O129 C132 1.259 . S
C130 O158 1.256 . S
C130 O159 1.244 . S
Zn131 O133 2.046 . S
Zn131 O135 2.055 . S
Zn131 N137 2.036 . S
Zn131 O155 2.066 . S
Zn131 O159 2.053 . S
C132 O129 1.259 . S
C132 O133 1.254 . S
O133 Zn131 2.046 . S
O133 C132 1.254 . S
C134 O155 1.256 . S
C134 O156 1.244 . S
O135 Zn131 2.055 . S
O135 C157 1.259 . S
O136 Zn128 2.046 . S
O136 C157 1.254 . S
N137 Zn131 2.036 . S
N137 C138 1.298 . S
N137 N140 1.398 . S
C138 N137 1.298 . S
C138 N141 1.426 . S
C138 C151 1.481 . S
C139 N140 1.246 1_655 S
C139 N141 1.371 1_655 S
N140 N137 1.398 . S
N140 C139 1.246 1_455 S
N141 C138 1.426 . S
N141 C139 1.371 1_455 S
C142 N144 1.298 . S
C142 N146 1.367 . S
C142 C150 1.481 . S
C143 N145 1.299 . S
C143 N146 1.379 . S
N144 Zn128 2.036 . S
N144 C142 1.298 . S
N144 N145 1.398 . S
N145 C143 1.299 . S
N145 N144 1.398 . S
N146 C142 1.367 . S
N146 C143 1.379 . S
H147 C150 0.980 . S
H148 C150 0.981 . S
H149 C150 0.981 . S
C150 C142 1.481 . S
C150 H147 0.980 . S
C150 H148 0.981 . S
C150 H149 0.981 . S
C151 C138 1.481 . S
C151 H152 0.980 . S
C151 H153 0.981 . S
C151 H154 0.981 . S
H152 C151 0.980 . S
H153 C151 0.981 . S
H154 C151 0.981 . S
O155 Zn131 2.066 . S
O155 C134 1.256 . S
O156 Zn128 2.053 . S
O156 C134 1.244 . S
C157 O135 1.259 . S
C157 O136 1.254 . S
O158 Zn128 2.066 . S
O158 C130 1.256 . S
O159 C130 1.244 . S
O159 Zn131 2.053 . S
Zn160 O161 2.055 . S
Zn160 O168 2.046 . S
Zn160 N176 2.036 . S
Zn160 O188 2.053 . S
Zn160 O190 2.066 . S
O161 Zn160 2.055 . S
O161 C164 1.259 . S
C162 O190 1.256 . S
C162 O191 1.244 . S
Zn163 O165 2.046 . S
Zn163 O167 2.055 . S
Zn163 N169 2.036 . S
Zn163 O187 2.066 . S
Zn163 O191 2.053 . S
C164 O161 1.259 . S
C164 O165 1.254 . S
O165 Zn163 2.046 . S
O165 C164 1.254 . S
C166 O187 1.256 . S
C166 O188 1.244 . S
O167 Zn163 2.055 . S
O167 C189 1.259 . S
O168 Zn160 2.046 . S
O168 C189 1.254 . S
N169 Zn163 2.036 . S
N169 C170 1.298 . S
N169 N172 1.398 . S
C170 N169 1.298 . S
C170 N173 1.367 . S
C170 C183 1.481 . S
C171 N172 1.299 . S
C171 N173 1.379 . S
N172 N169 1.398 . S
N172 C171 1.299 . S
N173 C170 1.367 . S
N173 C171 1.379 . S
C174 N176 1.298 . S
C174 N178 1.367 . S
C174 C182 1.481 . S
C175 N177 1.299 . S
C175 N178 1.379 . S
N176 Zn160 2.036 . S
N176 C174 1.298 . S
N176 N177 1.398 . S
N177 C175 1.299 . S
N177 N176 1.398 . S
N178 C174 1.367 . S
N178 C175 1.379 . S
H179 C182 0.980 . S
H180 C182 0.981 . S
H181 C182 0.981 . S
C182 C174 1.481 . S
C182 H179 0.980 . S
C182 H180 0.981 . S
C182 H181 0.981 . S
C183 C170 1.481 . S
C183 H184 0.980 . S
C183 H185 0.981 . S
C183 H186 0.981 . S
H184 C183 0.980 . S
H185 C183 0.981 . S
H186 C183 0.981 . S
O187 Zn163 2.066 . S
O187 C166 1.256 . S
O188 Zn160 2.053 . S
O188 C166 1.244 . S
C189 O167 1.259 . S
C189 O168 1.254 . S
O190 Zn160 2.066 . S
O190 C162 1.256 . S
O191 C162 1.244 . S
O191 Zn163 2.053 . S
Zn192 O193 2.055 1_554 S
Zn192 O200 2.046 . S
Zn192 N208 2.036 . S
Zn192 O220 2.053 . S
Zn192 O222 2.066 1_554 S
O193 Zn192 2.055 1_556 S
O193 C196 1.259 . S
C194 O222 1.256 . S
C194 O223 1.244 . S
Zn195 O197 2.046 1_554 S
Zn195 O199 2.055 . S
Zn195 N201 2.036 . S
Zn195 O219 2.066 . S
Zn195 O223 2.053 1_554 S
C196 O193 1.259 . S
C196 O197 1.254 . S
O197 Zn195 2.046 1_556 S
O197 C196 1.254 . S
C198 O219 1.256 . S
C198 O220 1.244 . S
O199 Zn195 2.055 . S
O199 C221 1.259 . S
O200 Zn192 2.046 . S
O200 C221 1.254 . S
N201 Zn195 2.036 . S
N201 C202 1.298 . S
N201 N204 1.398 1_554 S
C202 N201 1.298 . S
C202 N205 1.367 . S
C202 C215 1.481 . S
C203 N204 1.299 . S
C203 N205 1.379 1_556 S
N204 N201 1.398 1_556 S
N204 C203 1.299 . S
N205 C202 1.367 . S
N205 C203 1.379 1_554 S
C206 N208 1.298 1_556 S
C206 N210 1.367 . S
C206 C214 1.481 . S
C207 N209 1.299 . S
C207 N210 1.379 1_554 S
N208 Zn192 2.036 . S
N208 C206 1.298 1_554 S
N208 N209 1.398 . S
N209 C207 1.299 . S
N209 N208 1.398 . S
N210 C206 1.367 . S
N210 C207 1.379 1_556 S
H211 C214 0.980 . S
H212 C214 0.981 . S
H213 C214 0.981 . S
C214 C206 1.481 . S
C214 H211 0.980 . S
C214 H212 0.981 . S
C214 H213 0.981 . S
C215 C202 1.481 . S
C215 H216 0.980 . S
C215 H217 0.981 . S
C215 H218 0.981 . S
H216 C215 0.980 . S
H217 C215 0.981 . S
H218 C215 0.981 . S
O219 Zn195 2.066 . S
O219 C198 1.256 . S
O220 Zn192 2.053 . S
O220 C198 1.244 . S
C221 O199 1.259 . S
C221 O200 1.254 . S
O222 Zn192 2.066 1_556 S
O222 C194 1.256 . S
O223 C194 1.244 . S
O223 Zn195 2.053 1_556 S
Zn224 O225 2.055 . S
Zn224 O232 2.046 . S
Zn224 N240 2.036 . S
Zn224 O252 2.053 . S
Zn224 O254 2.066 . S
O225 Zn224 2.055 . S
O225 C228 1.259 . S
C226 O254 1.256 . S
C226 O255 1.244 . S
Zn227 O229 2.046 . S
Zn227 O231 2.055 . S
Zn227 N233 2.036 . S
Zn227 O251 2.066 . S
Zn227 O255 2.053 . S
C228 O225 1.259 . S
C228 O229 1.254 . S
O229 Zn227 2.046 . S
O229 C228 1.254 . S
C230 O251 1.256 . S
C230 O252 1.244 . S
O231 Zn227 2.055 . S
O231 C253 1.259 . S
O232 Zn224 2.046 . S
O232 C253 1.254 . S
N233 Zn227 2.036 . S
N233 C234 1.298 . S
N233 N236 1.398 . S
C234 N233 1.298 . S
C234 N237 1.367 . S
C234 C247 1.481 . S
C235 N236 1.299 . S
C235 N237 1.379 . S
N236 N233 1.398 . S
N236 C235 1.299 . S
N237 C234 1.367 . S
N237 C235 1.379 . S
C238 N240 1.298 . S
C238 N242 1.367 . S
C238 C246 1.481 . S
C239 N241 1.299 . S
C239 N242 1.379 . S
N240 Zn224 2.036 . S
N240 C238 1.298 . S
N240 N241 1.398 . S
N241 C239 1.299 . S
N241 N240 1.398 . S
N242 C238 1.367 . S
N242 C239 1.379 . S
H243 C246 0.980 . S
H244 C246 0.981 . S
H245 C246 0.981 . S
C246 C238 1.481 . S
C246 H243 0.980 . S
C246 H244 0.981 . S
C246 H245 0.981 . S
C247 C234 1.481 . S
C247 H248 0.980 . S
C247 H249 0.981 . S
C247 H250 0.981 . S
H248 C247 0.980 . S
H249 C247 0.981 . S
H250 C247 0.981 . S
O251 Zn227 2.066 . S
O251 C230 1.256 . S
O252 Zn224 2.053 . S
O252 C230 1.244 . S
C253 O231 1.259 . S
C253 O232 1.254 . S
O254 Zn224 2.066 . S
O254 C226 1.256 . S
O255 C226 1.244 . S
O255 Zn227 2.053 . S
Zn256 O257 2.055 1_554 S
Zn256 O264 2.046 . S
Zn256 N272 2.036 . S
Zn256 O284 2.053 . S
Zn256 O286 2.066 1_554 S
O257 Zn256 2.055 1_556 S
O257 C260 1.259 . S
C258 O286 1.256 . S
C258 O287 1.244 . S
Zn259 O261 2.046 1_554 S
Zn259 O263 2.055 . S
Zn259 N265 2.036 . S
Zn259 O283 2.066 . S
Zn259 O287 2.053 1_554 S
C260 O257 1.259 . S
C260 O261 1.254 . S
O261 Zn259 2.046 1_556 S
O261 C260 1.254 . S
C262 O283 1.256 . S
C262 O284 1.244 . S
O263 Zn259 2.055 . S
O263 C285 1.259 . S
O264 Zn256 2.046 . S
O264 C285 1.254 . S
N265 Zn259 2.036 . S
N265 C266 1.298 . S
N265 N268 1.398 1_554 S
C266 N265 1.298 . S
C266 N269 1.367 . S
C266 C279 1.481 . S
C267 N268 1.299 . S
C267 N269 1.379 1_556 S
N268 N265 1.398 1_556 S
N268 C267 1.299 . S
N269 C266 1.367 . S
N269 C267 1.379 1_554 S
C270 N272 1.298 1_556 S
C270 N274 1.367 . S
C270 C278 1.481 . S
C271 N273 1.299 . S
C271 N274 1.379 1_554 S
N272 Zn256 2.036 . S
N272 C270 1.298 1_554 S
N272 N273 1.398 . S
N273 C271 1.299 . S
N273 N272 1.398 . S
N274 C270 1.367 . S
N274 C271 1.379 1_556 S
H275 C278 0.980 . S
H276 C278 0.981 . S
H277 C278 0.981 . S
C278 C270 1.481 . S
C278 H275 0.980 . S
C278 H276 0.981 . S
C278 H277 0.981 . S
C279 C266 1.481 . S
C279 H280 0.980 . S
C279 H281 0.983 . S
C279 H282 0.981 . S
H280 C279 0.980 . S
H281 C279 0.983 . S
H282 C279 0.981 . S
O283 Zn259 2.066 . S
O283 C262 1.256 . S
O284 Zn256 2.053 . S
O284 C262 1.244 . S
C285 O263 1.259 . S
C285 O264 1.254 . S
O286 Zn256 2.066 1_556 S
O286 C258 1.256 . S
O287 C258 1.244 . S
O287 Zn259 2.053 1_556 S
Zn288 O289 2.055 . S
Zn288 O296 2.046 . S
Zn288 N304 2.036 . S
Zn288 O316 2.053 . S
Zn288 O318 2.066 . S
O289 Zn288 2.055 . S
O289 C292 1.259 . S
C290 O318 1.256 . S
C290 O319 1.244 . S
Zn291 O293 2.046 . S
Zn291 O295 2.055 . S
Zn291 N297 2.036 . S
Zn291 O315 2.066 . S
Zn291 O319 2.053 . S
C292 O289 1.259 . S
C292 O293 1.254 . S
O293 Zn291 2.046 . S
O293 C292 1.254 . S
C294 O315 1.256 . S
C294 O316 1.244 . S
O295 Zn291 2.055 . S
O295 C317 1.259 . S
O296 Zn288 2.046 . S
O296 C317 1.254 . S
N297 Zn291 2.036 . S
N297 C298 1.298 . S
N297 N300 1.398 . S
C298 N297 1.298 . S
C298 N301 1.367 . S
C298 C311 1.481 . S
C299 N300 1.299 . S
C299 N301 1.379 . S
N300 N297 1.398 . S
N300 C299 1.299 . S
N301 C298 1.367 . S
N301 C299 1.379 . S
C302 N304 1.298 . S
C302 N306 1.367 . S
C302 C310 1.481 . S
C303 N305 1.299 . S
C303 N306 1.379 . S
N304 Zn288 2.036 . S
N304 C302 1.298 . S
N304 N305 1.398 . S
N305 C303 1.299 . S
N305 N304 1.398 . S
N306 C302 1.367 . S
N306 C303 1.379 . S
H307 C310 0.980 . S
H308 C310 0.981 . S
H309 C310 0.981 . S
C310 C302 1.481 . S
C310 H307 0.980 . S
C310 H308 0.981 . S
C310 H309 0.981 . S
C311 C298 1.481 . S
C311 H312 0.980 . S
C311 H313 0.981 . S
C311 H314 0.981 . S
H312 C311 0.980 . S
H313 C311 0.981 . S
H314 C311 0.981 . S
O315 Zn291 2.066 . S
O315 C294 1.256 . S
O316 Zn288 2.053 . S
O316 C294 1.244 . S
C317 O295 1.259 . S
C317 O296 1.254 . S
O318 Zn288 2.066 . S
O318 C290 1.256 . S
O319 C290 1.244 . S
O319 Zn291 2.053 . S
Zn320 O321 2.055 . S
Zn320 O328 2.046 . S
Zn320 N336 2.036 . S
Zn320 O348 2.053 . S
Zn320 O350 2.066 . S
O321 Zn320 2.055 . S
O321 C324 1.259 . S
C322 O350 1.256 . S
C322 O351 1.244 . S
Zn323 O325 2.046 . S
Zn323 O327 2.055 . S
Zn323 N329 2.036 . S
Zn323 O347 2.066 . S
Zn323 O351 2.053 . S
C324 O321 1.259 . S
C324 O325 1.254 . S
O325 Zn323 2.046 . S
O325 C324 1.254 . S
C326 O347 1.256 . S
C326 O348 1.244 . S
O327 Zn323 2.055 . S
O327 C349 1.259 . S
O328 Zn320 2.046 . S
O328 C349 1.254 . S
N329 Zn323 2.036 . S
N329 C330 1.298 . S
N329 N332 1.398 . S
C330 N329 1.298 . S
C330 N333 1.367 . S
C330 C343 1.481 . S
C331 N332 1.299 . S
C331 N333 1.379 . S
N332 N329 1.398 . S
N332 C331 1.299 . S
N333 C330 1.367 . S
N333 C331 1.379 . S
C334 N336 1.298 . S
C334 N338 1.367 . S
C334 C342 1.481 . S
C335 N337 1.299 . S
C335 N338 1.379 . S
N336 Zn320 2.036 . S
N336 C334 1.298 . S
N336 N337 1.398 . S
N337 C335 1.299 . S
N337 N336 1.398 . S
N338 C334 1.367 . S
N338 C335 1.379 . S
H339 C342 0.980 . S
H340 C342 0.981 . S
H341 C342 0.981 . S
C342 C334 1.481 . S
C342 H339 0.980 . S
C342 H340 0.981 . S
C342 H341 0.981 . S
C343 C330 1.481 . S
C343 H344 0.980 . S
C343 H345 0.981 . S
C343 H346 0.981 . S
H344 C343 0.980 . S
H345 C343 0.981 . S
H346 C343 0.981 . S
O347 Zn323 2.066 . S
O347 C326 1.256 . S
O348 Zn320 2.053 . S
O348 C326 1.244 . S
C349 O327 1.259 . S
C349 O328 1.254 . S
O350 Zn320 2.066 . S
O350 C322 1.256 . S
O351 C322 1.244 . S
O351 Zn323 2.053 . S
Zn352 O353 2.055 . S
Zn352 O360 2.046 . S
Zn352 N368 2.036 . S
Zn352 O380 2.053 . S
Zn352 O382 2.066 . S
O353 Zn352 2.055 . S
O353 C356 1.259 . S
C354 O382 1.256 . S
C354 O383 1.244 . S
Zn355 O357 2.046 . S
Zn355 O359 2.055 . S
Zn355 N361 2.036 . S
Zn355 O379 2.066 . S
Zn355 O383 2.053 . S
C356 O353 1.259 . S
C356 O357 1.254 . S
O357 Zn355 2.046 . S
O357 C356 1.254 . S
C358 O379 1.256 . S
C358 O380 1.244 . S
O359 Zn355 2.055 . S
O359 C381 1.259 . S
O360 Zn352 2.046 . S
O360 C381 1.254 . S
N361 Zn355 2.036 . S
N361 C362 1.298 . S
N361 N364 1.398 . S
C362 N361 1.298 . S
C362 N365 1.367 . S
C362 C375 1.481 . S
C363 N364 1.299 . S
C363 N365 1.379 . S
N364 N361 1.398 . S
N364 C363 1.299 . S
N365 C362 1.367 . S
N365 C363 1.379 . S
C366 N368 1.298 . S
C366 N370 1.367 . S
C366 C374 1.481 . S
C367 N369 1.299 . S
C367 N370 1.379 . S
N368 Zn352 2.036 . S
N368 C366 1.298 . S
N368 N369 1.398 . S
N369 C367 1.299 . S
N369 N368 1.398 . S
N370 C366 1.367 . S
N370 C367 1.379 . S
H371 C374 0.980 . S
H372 C374 0.981 . S
H373 C374 0.981 . S
C374 C366 1.481 . S
C374 H371 0.980 . S
C374 H372 0.981 . S
C374 H373 0.981 . S
C375 C362 1.481 . S
C375 H376 0.980 . S
C375 H377 0.981 . S
C375 H378 0.981 . S
H376 C375 0.980 . S
H377 C375 0.981 . S
H378 C375 0.981 . S
O379 Zn355 2.066 . S
O379 C358 1.256 . S
O380 Zn352 2.053 . S
O380 C358 1.244 . S
C381 O359 1.259 . S
C381 O360 1.254 . S
O382 Zn352 2.066 . S
O382 C354 1.256 . S
O383 C354 1.244 . S
O383 Zn355 2.053 . S
Zn384 O385 2.055 . S
Zn384 O392 2.046 . S
Zn384 N400 2.036 . S
Zn384 O412 2.053 . S
Zn384 O414 2.066 . S
O385 Zn384 2.055 . S
O385 C388 1.259 . S
C386 O414 1.256 . S
C386 O415 1.244 . S
Zn387 O389 2.046 . S
Zn387 O391 2.055 . S
Zn387 N393 2.036 . S
Zn387 O411 2.066 . S
Zn387 O415 2.053 . S
C388 O385 1.259 . S
C388 O389 1.254 . S
O389 Zn387 2.046 . S
O389 C388 1.254 . S
C390 O411 1.256 . S
C390 O412 1.244 . S
O391 Zn387 2.055 . S
O391 C413 1.259 . S
O392 Zn384 2.046 . S
O392 C413 1.254 . S
N393 Zn387 2.036 . S
N393 C394 1.298 . S
N393 N396 1.398 . S
C394 N393 1.298 . S
C394 N397 1.367 . S
C394 C407 1.481 . S
C395 N396 1.299 . S
C395 N397 1.379 . S
N396 N393 1.398 . S
N396 C395 1.299 . S
N397 C394 1.367 . S
N397 C395 1.379 . S
C398 N400 1.298 . S
C398 N402 1.367 . S
C398 C406 1.481 . S
C399 N401 1.299 . S
C399 N402 1.379 . S
N400 Zn384 2.036 . S
N400 C398 1.298 . S
N400 N401 1.398 . S
N401 C399 1.299 . S
N401 N400 1.398 . S
N402 C398 1.367 . S
N402 C399 1.379 . S
H403 C406 0.980 . S
H404 C406 0.983 . S
H405 C406 0.981 . S
C406 C398 1.481 . S
C406 H403 0.980 . S
C406 H404 0.983 . S
C406 H405 0.981 . S
C407 C394 1.481 . S
C407 H408 0.980 . S
C407 H409 0.981 . S
C407 H410 0.981 . S
H408 C407 0.980 . S
H409 C407 0.981 . S
H410 C407 0.981 . S
O411 Zn387 2.066 . S
O411 C390 1.256 . S
O412 Zn384 2.053 . S
O412 C390 1.244 . S
C413 O391 1.259 . S
C413 O392 1.254 . S
O414 Zn384 2.066 . S
O414 C386 1.256 . S
O415 C386 1.244 . S
O415 Zn387 2.053 . S
Zn416 O417 2.055 . S
Zn416 O424 2.046 . S
Zn416 N432 2.036 . S
Zn416 O444 2.053 . S
Zn416 O446 2.066 . S
O417 Zn416 2.055 . S
O417 C420 1.259 . S
C418 O446 1.256 . S
C418 O447 1.244 . S
Zn419 O421 2.046 . S
Zn419 O423 2.055 . S
Zn419 N425 2.036 . S
Zn419 O443 2.066 . S
Zn419 O447 2.053 . S
C420 O417 1.259 . S
C420 O421 1.254 . S
O421 Zn419 2.046 . S
O421 C420 1.254 . S
C422 O443 1.256 . S
C422 O444 1.244 . S
O423 Zn419 2.055 . S
O423 C445 1.259 . S
O424 Zn416 2.046 . S
O424 C445 1.254 . S
N425 Zn419 2.036 . S
N425 C426 1.298 . S
N425 N428 1.398 . S
C426 N425 1.298 . S
C426 N429 1.367 . S
C426 C439 1.481 . S
C427 N428 1.299 . S
C427 N429 1.379 . S
N428 N425 1.398 . S
N428 C427 1.299 . S
N429 C426 1.367 . S
N429 C427 1.379 . S
C430 N432 1.298 . S
C430 N434 1.367 . S
C430 C438 1.481 . S
C431 N433 1.299 . S
C431 N434 1.379 . S
N432 Zn416 2.036 . S
N432 C430 1.298 . S
N432 N433 1.398 . S
N433 C431 1.299 . S
N433 N432 1.398 . S
N434 C430 1.367 . S
N434 C431 1.379 . S
H435 C438 0.980 . S
H436 C438 0.981 . S
H437 C438 0.981 . S
C438 C430 1.481 . S
C438 H435 0.980 . S
C438 H436 0.981 . S
C438 H437 0.981 . S
C439 C426 1.481 . S
C439 H440 0.980 . S
C439 H441 0.981 . S
C439 H442 0.981 . S
H440 C439 0.980 . S
H441 C439 0.981 . S
H442 C439 0.981 . S
O443 Zn419 2.066 . S
O443 C422 1.256 . S
O444 Zn416 2.053 . S
O444 C422 1.244 . S
C445 O423 1.259 . S
C445 O424 1.254 . S
O446 Zn416 2.066 . S
O446 C418 1.256 . S
O447 C418 1.244 . S
O447 Zn419 2.053 . S
Zn448 O449 2.055 1_554 S
Zn448 O456 2.046 . S
Zn448 N464 2.036 . S
Zn448 O476 2.053 . S
Zn448 O478 2.066 1_554 S
O449 Zn448 2.055 1_556 S
O449 C452 1.259 . S
C450 O478 1.256 . S
C450 O479 1.244 . S
Zn451 O453 2.046 1_554 S
Zn451 O455 2.055 . S
Zn451 N457 2.036 . S
Zn451 O475 2.066 . S
Zn451 O479 2.053 1_554 S
C452 O449 1.259 . S
C452 O453 1.254 . S
O453 Zn451 2.046 1_556 S
O453 C452 1.254 . S
C454 O475 1.256 . S
C454 O476 1.244 . S
O455 Zn451 2.055 . S
O455 C477 1.259 . S
O456 Zn448 2.046 . S
O456 C477 1.254 . S
N457 Zn451 2.036 . S
N457 C458 1.298 . S
N457 N460 1.402 . S
C458 N457 1.298 . S
C458 N461 1.367 . S
C458 C471 1.481 . S
C459 N460 1.301 . S
C459 N461 1.379 . S
N460 N457 1.402 . S
N460 C459 1.301 . S
N461 C458 1.367 . S
N461 C459 1.379 . S
C462 N464 1.298 . S
C462 N466 1.367 . S
C462 C470 1.481 1_554 S
C463 N465 1.299 . S
C463 N466 1.379 . S
N464 Zn448 2.036 . S
N464 C462 1.298 . S
N464 N465 1.398 . S
N465 C463 1.299 . S
N465 N464 1.398 . S
N466 C462 1.367 . S
N466 C463 1.379 . S
H467 C470 0.980 . S
H468 C470 0.981 . S
H469 C470 0.981 . S
C470 C462 1.481 1_556 S
C470 H467 0.980 . S
C470 H468 0.981 . S
C470 H469 0.981 . S
C471 C458 1.481 . S
C471 H472 0.980 . S
C471 H473 0.981 . S
C471 H474 0.981 . S
H472 C471 0.980 . S
H473 C471 0.981 . S
H474 C471 0.981 . S
O475 Zn451 2.066 . S
O475 C454 1.256 . S
O476 Zn448 2.053 . S
O476 C454 1.244 . S
C477 O455 1.259 . S
C477 O456 1.254 . S
O478 Zn448 2.066 1_556 S
O478 C450 1.256 . S
O479 C450 1.244 . S
O479 Zn451 2.053 1_556 S
Zn480 O481 2.055 . S
Zn480 O488 2.046 . S
Zn480 N496 2.036 . S
Zn480 O508 2.053 . S
Zn480 O510 2.066 . S
O481 Zn480 2.055 . S
O481 C484 1.259 . S
C482 O510 1.256 . S
C482 O511 1.244 . S
Zn483 O485 2.046 . S
Zn483 O487 2.055 . S
Zn483 N489 2.036 . S
Zn483 O507 2.066 . S
Zn483 O511 2.053 . S
C484 O481 1.259 . S
C484 O485 1.254 . S
O485 Zn483 2.046 . S
O485 C484 1.254 . S
C486 O507 1.256 . S
C486 O508 1.244 . S
O487 Zn483 2.055 . S
O487 C509 1.259 . S
O488 Zn480 2.046 . S
O488 C509 1.254 . S
N489 Zn483 2.036 . S
N489 C490 1.298 . S
N489 N492 1.398 . S
C490 N489 1.298 . S
C490 N493 1.367 . S
C490 C503 1.481 . S
C491 N492 1.299 . S
C491 N493 1.379 . S
N492 N489 1.398 . S
N492 C491 1.299 . S
N493 C490 1.367 . S
N493 C491 1.379 . S
C494 N496 1.298 . S
C494 N498 1.367 . S
C494 C502 1.481 . S
C495 N497 1.299 . S
C495 N498 1.379 . S
N496 Zn480 2.036 . S
N496 C494 1.298 . S
N496 N497 1.398 . S
N497 C495 1.299 . S
N497 N496 1.398 . S
N498 C494 1.367 . S
N498 C495 1.379 . S
H499 C502 0.980 . S
H500 C502 0.981 . S
H501 C502 0.981 . S
C502 C494 1.481 . S
C502 H499 0.980 . S
C502 H500 0.981 . S
C502 H501 0.981 . S
C503 C490 1.481 . S
C503 H504 0.980 . S
C503 H505 0.981 . S
C503 H506 0.981 . S
H504 C503 0.980 . S
H505 C503 0.981 . S
H506 C503 0.981 . S
O507 Zn483 2.066 . S
O507 C486 1.256 . S
O508 Zn480 2.053 . S
O508 C486 1.244 . S
C509 O487 1.259 . S
C509 O488 1.254 . S
O510 Zn480 2.066 . S
O510 C482 1.256 . S
O511 C482 1.244 . S
O511 Zn483 2.053 . S
Zn512 O513 2.055 . S
Zn512 O520 2.046 . S
Zn512 N528 2.036 . S
Zn512 O540 2.053 . S
Zn512 O542 2.066 . S
O513 Zn512 2.055 . S
O513 C516 1.259 . S
C514 O542 1.256 . S
C514 O543 1.244 . S
Zn515 O517 2.046 . S
Zn515 O519 2.055 . S
Zn515 N521 2.036 . S
Zn515 O539 2.066 . S
Zn515 O543 2.053 . S
C516 O513 1.259 . S
C516 O517 1.254 . S
O517 Zn515 2.046 . S
O517 C516 1.254 . S
C518 O539 1.256 . S
C518 O540 1.244 . S
O519 Zn515 2.055 . S
O519 C541 1.259 . S
O520 Zn512 2.046 . S
O520 C541 1.254 . S
N521 Zn515 2.036 . S
N521 C522 1.298 . S
N521 N524 1.398 . S
C522 N521 1.298 . S
C522 N525 1.367 . S
C522 C535 1.481 . S
C523 N524 1.299 . S
C523 N525 1.379 . S
N524 N521 1.398 . S
N524 C523 1.299 . S
N525 C522 1.367 . S
N525 C523 1.379 . S
C526 N528 1.298 . S
C526 N530 1.367 . S
C526 C534 1.481 . S
C527 N529 1.299 . S
C527 N530 1.379 . S
N528 Zn512 2.036 . S
N528 C526 1.298 . S
N528 N529 1.398 . S
N529 C527 1.299 . S
N529 N528 1.398 . S
N530 C526 1.367 . S
N530 C527 1.379 . S
H531 C534 0.980 . S
H532 C534 0.981 . S
H533 C534 0.981 . S
C534 C526 1.481 . S
C534 H531 0.980 . S
C534 H532 0.981 . S
C534 H533 0.981 . S
C535 C522 1.481 . S
C535 H536 0.980 . S
C535 H537 0.981 . S
C535 H538 0.981 . S
H536 C535 0.980 . S
H537 C535 0.981 . S
H538 C535 0.981 . S
O539 Zn515 2.066 . S
O539 C518 1.256 . S
O540 Zn512 2.053 . S
O540 C518 1.244 . S
C541 O519 1.259 . S
C541 O520 1.254 . S
O542 Zn512 2.066 . S
O542 C514 1.256 . S
O543 C514 1.244 . S
O543 Zn515 2.053 . S
Zn544 O545 2.055 . S
Zn544 O552 2.046 . S
Zn544 N560 2.036 . S
Zn544 O572 2.053 . S
Zn544 O574 2.066 . S
O545 Zn544 2.055 . S
O545 C548 1.259 . S
C546 O574 1.256 . S
C546 O575 1.244 . S
Zn547 O549 2.046 . S
Zn547 O551 2.055 . S
Zn547 N553 2.036 . S
Zn547 O571 2.066 . S
Zn547 O575 2.053 . S
C548 O545 1.259 . S
C548 O549 1.254 . S
O549 Zn547 2.046 . S
O549 C548 1.254 . S
C550 O571 1.256 . S
C550 O572 1.244 . S
O551 Zn547 2.055 . S
O551 C573 1.259 . S
O552 Zn544 2.046 . S
O552 C573 1.254 . S
N553 Zn547 2.036 . S
N553 C554 1.298 . S
N553 N556 1.398 . S
C554 N553 1.298 . S
C554 N557 1.367 . S
C554 C567 1.481 . S
C555 N556 1.299 . S
C555 N557 1.379 . S
N556 N553 1.398 . S
N556 C555 1.299 . S
N557 C554 1.367 . S
N557 C555 1.379 . S
C558 N560 1.298 . S
C558 N562 1.367 . S
C558 C566 1.481 . S
C559 N561 1.299 . S
C559 N562 1.379 . S
N560 Zn544 2.036 . S
N560 C558 1.298 . S
N560 N561 1.398 . S
N561 C559 1.299 . S
N561 N560 1.398 . S
N562 C558 1.367 . S
N562 C559 1.379 . S
H563 C566 0.980 . S
H564 C566 0.981 . S
H565 C566 0.981 . S
C566 C558 1.481 . S
C566 H563 0.980 . S
C566 H564 0.981 . S
C566 H565 0.981 . S
C567 C554 1.481 . S
C567 H568 0.980 . S
C567 H569 0.981 . S
C567 H570 0.981 . S
H568 C567 0.980 . S
H569 C567 0.981 . S
H570 C567 0.981 . S
O571 Zn547 2.066 . S
O571 C550 1.256 . S
O572 Zn544 2.053 . S
O572 C550 1.244 . S
C573 O551 1.259 . S
C573 O552 1.254 . S
O574 Zn544 2.066 . S
O574 C546 1.256 . S
O575 C546 1.244 . S
O575 Zn547 2.053 . S
Zn576 O577 2.055 1_554 S
Zn576 O584 2.046 . S
Zn576 N592 2.036 . S
Zn576 O604 2.053 . S
Zn576 O606 2.066 1_554 S
O577 Zn576 2.055 1_556 S
O577 C580 1.259 . S
C578 O606 1.256 . S
C578 O607 1.244 . S
Zn579 O581 2.046 1_554 S
Zn579 O583 2.055 . S
Zn579 N585 2.036 . S
Zn579 O603 2.066 . S
Zn579 O607 2.053 1_554 S
C580 O577 1.259 . S
C580 O581 1.254 . S
O581 Zn579 2.046 1_556 S
O581 C580 1.254 . S
C582 O603 1.256 . S
C582 O604 1.244 . S
O583 Zn579 2.055 . S
O583 C605 1.259 . S
O584 Zn576 2.046 . S
O584 C605 1.254 . S
N585 Zn579 2.036 . S
N585 C586 1.298 . S
N585 N588 1.399 . S
C586 N585 1.298 . S
C586 N589 1.367 . S
C586 C599 1.481 . S
C587 N588 1.299 . S
C587 N589 1.379 . S
N588 N585 1.399 . S
N588 C587 1.299 . S
N589 C586 1.367 . S
N589 C587 1.379 . S
C590 N592 1.298 . S
C590 N594 1.425 . S
C590 C598 1.481 1_554 S
C591 N593 1.246 1_455 S
C591 N594 1.371 1_455 S
N592 Zn576 2.036 . S
N592 C590 1.298 . S
N592 N593 1.398 . S
N593 C591 1.246 1_655 S
N593 N592 1.398 . S
N594 C590 1.425 . S
N594 C591 1.371 1_655 S
H595 C598 0.980 . S
H596 C598 0.981 . S
H597 C598 0.981 . S
C598 C590 1.481 1_556 S
C598 H595 0.980 . S
C598 H596 0.981 . S
C598 H597 0.981 . S
C599 C586 1.481 . S
C599 H600 0.980 . S
C599 H601 0.981 . S
C599 H602 0.981 . S
H600 C599 0.980 . S
H601 C599 0.981 . S
H602 C599 0.981 . S
O603 Zn579 2.066 . S
O603 C582 1.256 . S
O604 Zn576 2.053 . S
O604 C582 1.244 . S
C605 O583 1.259 . S
C605 O584 1.254 . S
O606 Zn576 2.066 1_556 S
O606 C578 1.256 . S
O607 C578 1.244 . S
O607 Zn579 2.053 1_556 S
Zn608 O609 2.055 . S
Zn608 O616 2.046 . S
Zn608 N624 2.036 . S
Zn608 O636 2.053 . S
Zn608 O638 2.066 . S
O609 Zn608 2.055 . S
O609 C612 1.259 . S
C610 O638 1.256 . S
C610 O639 1.244 . S
Zn611 O613 2.046 . S
Zn611 O615 2.055 . S
Zn611 N617 2.036 . S
Zn611 O635 2.066 . S
Zn611 O639 2.053 . S
C612 O609 1.259 . S
C612 O613 1.254 . S
O613 Zn611 2.046 . S
O613 C612 1.254 . S
C614 O635 1.256 . S
C614 O636 1.244 . S
O615 Zn611 2.055 . S
O615 C637 1.259 . S
O616 Zn608 2.046 . S
O616 C637 1.254 . S
N617 Zn611 2.036 . S
N617 C618 1.298 . S
N617 N620 1.398 . S
C618 N617 1.298 . S
C618 N621 1.367 . S
C618 C631 1.481 . S
C619 N620 1.299 . S
C619 N621 1.379 . S
N620 N617 1.398 . S
N620 C619 1.299 . S
N621 C618 1.367 . S
N621 C619 1.379 . S
C622 N624 1.298 . S
C622 N626 1.367 . S
C622 C630 1.481 . S
C623 N625 1.299 . S
C623 N626 1.379 . S
N624 Zn608 2.036 . S
N624 C622 1.298 . S
N624 N625 1.398 . S
N625 C623 1.299 . S
N625 N624 1.398 . S
N626 C622 1.367 . S
N626 C623 1.379 . S
H627 C630 0.980 . S
H628 C630 0.981 . S
H629 C630 0.981 . S
C630 C622 1.481 . S
C630 H627 0.980 . S
C630 H628 0.981 . S
C630 H629 0.981 . S
C631 C618 1.481 . S
C631 H632 0.980 . S
C631 H633 0.981 . S
C631 H634 0.981 . S
H632 C631 0.980 . S
H633 C631 0.981 . S
H634 C631 0.981 . S
O635 Zn611 2.066 . S
O635 C614 1.256 . S
O636 Zn608 2.053 . S
O636 C614 1.244 . S
C637 O615 1.259 . S
C637 O616 1.254 . S
O638 Zn608 2.066 . S
O638 C610 1.256 . S
O639 C610 1.244 . S
O639 Zn611 2.053 . S
Zn640 O641 2.055 1_554 S
Zn640 O648 2.046 . S
Zn640 N656 2.036 . S
Zn640 O668 2.053 . S
Zn640 O670 2.066 1_554 S
O641 Zn640 2.055 1_556 S
O641 C644 1.259 . S
C642 O670 1.256 . S
C642 O671 1.244 . S
Zn643 O645 2.046 1_554 S
Zn643 O647 2.055 . S
Zn643 N649 2.036 . S
Zn643 O667 2.066 . S
Zn643 O671 2.053 1_554 S
C644 O641 1.259 . S
C644 O645 1.254 . S
O645 Zn643 2.046 1_556 S
O645 C644 1.254 . S
C646 O667 1.256 . S
C646 O668 1.244 . S
O647 Zn643 2.055 . S
O647 C669 1.259 . S
O648 Zn640 2.046 . S
O648 C669 1.254 . S
N649 Zn643 2.036 . S
N649 C650 1.298 . S
N649 N652 1.398 1_554 S
C650 N649 1.298 . S
C650 N653 1.367 . S
C650 C663 1.481 . S
C651 N652 1.299 . S
C651 N653 1.379 1_556 S
N652 N649 1.398 1_556 S
N652 C651 1.299 . S
N653 C650 1.367 . S
N653 C651 1.379 1_554 S
C654 N656 1.298 1_556 S
C654 N658 1.367 . S
C654 C662 1.481 . S
C655 N657 1.299 . S
C655 N658 1.379 1_554 S
N656 Zn640 2.036 . S
N656 C654 1.298 1_554 S
N656 N657 1.398 . S
N657 C655 1.299 . S
N657 N656 1.398 . S
N658 C654 1.367 . S
N658 C655 1.379 1_556 S
H659 C662 0.980 . S
H660 C662 0.981 . S
H661 C662 0.981 . S
C662 C654 1.481 . S
C662 H659 0.980 . S
C662 H660 0.981 . S
C662 H661 0.981 . S
C663 C650 1.481 . S
C663 H664 0.980 . S
C663 H665 0.981 . S
C663 H666 0.981 . S
H664 C663 0.980 . S
H665 C663 0.981 . S
H666 C663 0.981 . S
O667 Zn643 2.066 . S
O667 C646 1.256 . S
O668 Zn640 2.053 . S
O668 C646 1.244 . S
C669 O647 1.259 . S
C669 O648 1.254 . S
O670 Zn640 2.066 1_556 S
O670 C642 1.256 . S
O671 C642 1.244 . S
O671 Zn643 2.053 1_556 S
Zn672 O673 2.055 . S
Zn672 O680 2.046 . S
Zn672 N688 2.036 . S
Zn672 O700 2.053 . S
Zn672 O702 2.066 . S
O673 Zn672 2.055 . S
O673 C676 1.259 . S
C674 O702 1.256 . S
C674 O703 1.244 . S
Zn675 O677 2.046 . S
Zn675 O679 2.055 . S
Zn675 N681 2.036 . S
Zn675 O699 2.066 . S
Zn675 O703 2.053 . S
C676 O673 1.259 . S
C676 O677 1.254 . S
O677 Zn675 2.046 . S
O677 C676 1.254 . S
C678 O699 1.256 . S
C678 O700 1.244 . S
O679 Zn675 2.055 . S
O679 C701 1.259 . S
O680 Zn672 2.046 . S
O680 C701 1.254 . S
N681 Zn675 2.036 . S
N681 C682 1.298 . S
N681 N684 1.398 . S
C682 N681 1.298 . S
C682 N685 1.367 . S
C682 C695 1.481 . S
C683 N684 1.299 . S
C683 N685 1.379 . S
N684 N681 1.398 . S
N684 C683 1.299 . S
N685 C682 1.367 . S
N685 C683 1.379 . S
C686 N688 1.298 . S
C686 N690 1.367 . S
C686 C694 1.481 . S
C687 N689 1.299 . S
C687 N690 1.379 . S
N688 Zn672 2.036 . S
N688 C686 1.298 . S
N688 N689 1.398 . S
N689 C687 1.299 . S
N689 N688 1.398 . S
N690 C686 1.367 . S
N690 C687 1.379 . S
H691 C694 0.980 . S
H692 C694 0.981 . S
H693 C694 0.981 . S
C694 C686 1.481 . S
C694 H691 0.980 . S
C694 H692 0.981 . S
C694 H693 0.981 . S
C695 C682 1.481 . S
C695 H696 0.980 . S
C695 H697 0.981 . S
C695 H698 0.981 . S
H696 C695 0.980 . S
H697 C695 0.981 . S
H698 C695 0.981 . S
O699 Zn675 2.066 . S
O699 C678 1.256 . S
O700 Zn672 2.053 . S
O700 C678 1.244 . S
C701 O679 1.259 . S
C701 O680 1.254 . S
O702 Zn672 2.066 . S
O702 C674 1.256 . S
O703 C674 1.244 . S
O703 Zn675 2.053 . S
Zn704 O705 2.055 . S
Zn704 O712 2.046 . S
Zn704 N720 2.036 . S
Zn704 O732 2.053 . S
Zn704 O734 2.066 . S
O705 Zn704 2.055 . S
O705 C708 1.259 . S
C706 O734 1.256 . S
C706 O735 1.244 . S
Zn707 O709 2.046 . S
Zn707 O711 2.055 . S
Zn707 N713 2.036 . S
Zn707 O731 2.066 . S
Zn707 O735 2.053 . S
C708 O705 1.259 . S
C708 O709 1.254 . S
O709 Zn707 2.046 . S
O709 C708 1.254 . S
C710 O731 1.256 . S
C710 O732 1.244 . S
O711 Zn707 2.055 . S
O711 C733 1.259 . S
O712 Zn704 2.046 . S
O712 C733 1.254 . S
N713 Zn707 2.036 . S
N713 C714 1.298 . S
N713 N716 1.398 . S
C714 N713 1.298 . S
C714 N717 1.426 . S
C714 C727 1.481 . S
C715 N716 1.246 1_455 S
C715 N717 1.371 1_455 S
N716 N713 1.398 . S
N716 C715 1.246 1_655 S
N717 C714 1.426 . S
N717 C715 1.371 1_655 S
C718 N720 1.298 . S
C718 N722 1.367 . S
C718 C726 1.481 . S
C719 N721 1.299 . S
C719 N722 1.379 . S
N720 Zn704 2.036 . S
N720 C718 1.298 . S
N720 N721 1.398 . S
N721 C719 1.299 . S
N721 N720 1.398 . S
N722 C718 1.367 . S
N722 C719 1.379 . S
H723 C726 0.980 . S
H724 C726 0.981 . S
H725 C726 0.981 . S
C726 C718 1.481 . S
C726 H723 0.980 . S
C726 H724 0.981 . S
C726 H725 0.981 . S
C727 C714 1.481 . S
C727 H728 0.980 . S
C727 H729 0.981 . S
C727 H730 0.981 . S
H728 C727 0.980 . S
H729 C727 0.981 . S
H730 C727 0.981 . S
O731 Zn707 2.066 . S
O731 C710 1.256 . S
O732 Zn704 2.053 . S
O732 C710 1.244 . S
C733 O711 1.259 . S
C733 O712 1.254 . S
O734 Zn704 2.066 . S
O734 C706 1.256 . S
O735 C706 1.244 . S
O735 Zn707 2.053 . S
Zn736 O737 2.055 . S
Zn736 O744 2.046 . S
Zn736 N752 2.036 . S
Zn736 O764 2.053 . S
Zn736 O766 2.066 . S
O737 Zn736 2.055 . S
O737 C740 1.259 . S
C738 O766 1.256 . S
C738 O767 1.244 . S
Zn739 O741 2.046 . S
Zn739 O743 2.055 . S
Zn739 N745 2.036 . S
Zn739 O763 2.066 . S
Zn739 O767 2.053 . S
C740 O737 1.259 . S
C740 O741 1.254 . S
O741 Zn739 2.046 . S
O741 C740 1.254 . S
C742 O763 1.256 . S
C742 O764 1.244 . S
O743 Zn739 2.055 . S
O743 C765 1.259 . S
O744 Zn736 2.046 . S
O744 C765 1.254 . S
N745 Zn739 2.036 . S
N745 C746 1.298 . S
N745 N748 1.398 . S
C746 N745 1.298 . S
C746 N749 1.367 . S
C746 C759 1.481 . S
C747 N748 1.299 . S
C747 N749 1.379 . S
N748 N745 1.398 . S
N748 C747 1.299 . S
N749 C746 1.367 . S
N749 C747 1.379 . S
C750 N752 1.298 . S
C750 N754 1.367 . S
C750 C758 1.481 . S
C751 N753 1.299 . S
C751 N754 1.379 . S
N752 Zn736 2.036 . S
N752 C750 1.298 . S
N752 N753 1.398 . S
N753 C751 1.299 . S
N753 N752 1.398 . S
N754 C750 1.367 . S
N754 C751 1.379 . S
H755 C758 0.980 . S
H756 C758 0.981 . S
H757 C758 0.981 . S
C758 C750 1.481 . S
C758 H755 0.980 . S
C758 H756 0.981 . S
C758 H757 0.981 . S
C759 C746 1.481 . S
C759 H760 0.980 . S
C759 H761 0.981 . S
C759 H762 0.981 . S
H760 C759 0.980 . S
H761 C759 0.981 . S
H762 C759 0.981 . S
O763 Zn739 2.066 . S
O763 C742 1.256 . S
O764 Zn736 2.053 . S
O764 C742 1.244 . S
C765 O743 1.259 . S
C765 O744 1.254 . S
O766 Zn736 2.066 . S
O766 C738 1.256 . S
O767 C738 1.244 . S
O767 Zn739 2.053 . S
Zn768 O769 2.055 . S
Zn768 O776 2.046 . S
Zn768 N784 2.036 . S
Zn768 O796 2.053 . S
Zn768 O798 2.066 . S
O769 Zn768 2.055 . S
O769 C772 1.259 . S
C770 O798 1.256 . S
C770 O799 1.244 . S
Zn771 O773 2.046 . S
Zn771 O775 2.055 . S
Zn771 N777 2.036 . S
Zn771 O795 2.066 . S
Zn771 O799 2.053 . S
C772 O769 1.259 . S
C772 O773 1.254 . S
O773 Zn771 2.046 . S
O773 C772 1.254 . S
C774 O795 1.256 . S
C774 O796 1.244 . S
O775 Zn771 2.055 . S
O775 C797 1.259 . S
O776 Zn768 2.046 . S
O776 C797 1.254 . S
N777 Zn771 2.036 . S
N777 C778 1.298 . S
N777 N780 1.398 . S
C778 N777 1.298 . S
C778 N781 1.365 1_545 S
C778 C791 1.481 . S
C779 N780 1.299 1_565 S
C779 N781 1.379 . S
N780 N777 1.398 . S
N780 C779 1.299 1_545 S
N781 C778 1.365 1_565 S
N781 C779 1.379 . S
C782 N784 1.298 . S
C782 N786 1.367 . S
C782 C790 1.481 . S
C783 N785 1.299 . S
C783 N786 1.379 . S
N784 Zn768 2.036 . S
N784 C782 1.298 . S
N784 N785 1.398 . S
N785 C783 1.299 . S
N785 N784 1.398 . S
N786 C782 1.367 . S
N786 C783 1.379 . S
H787 C790 0.980 . S
H788 C790 0.981 . S
H789 C790 0.981 . S
C790 C782 1.481 . S
C790 H787 0.980 . S
C790 H788 0.981 . S
C790 H789 0.981 . S
C791 C778 1.481 . S
C791 H792 0.980 . S
C791 H793 0.981 . S
C791 H794 0.981 . S
H792 C791 0.980 . S
H793 C791 0.981 . S
H794 C791 0.981 . S
O795 Zn771 2.066 . S
O795 C774 1.256 . S
O796 Zn768 2.053 . S
O796 C774 1.244 . S
C797 O775 1.259 . S
C797 O776 1.254 . S
O798 Zn768 2.066 . S
O798 C770 1.256 . S
O799 C770 1.244 . S
O799 Zn771 2.053 . S
Zn800 O801 2.055 . S
Zn800 O808 2.046 . S
Zn800 N816 2.036 . S
Zn800 O828 2.053 . S
Zn800 O830 2.066 . S
O801 Zn800 2.055 . S
O801 C804 1.259 . S
C802 O830 1.256 . S
C802 O831 1.244 . S
Zn803 O805 2.046 . S
Zn803 O807 2.055 . S
Zn803 N809 2.036 . S
Zn803 O827 2.066 . S
Zn803 O831 2.053 . S
C804 O801 1.259 . S
C804 O805 1.254 . S
O805 Zn803 2.046 . S
O805 C804 1.254 . S
C806 O827 1.256 . S
C806 O828 1.244 . S
O807 Zn803 2.055 . S
O807 C829 1.259 . S
O808 Zn800 2.046 . S
O808 C829 1.254 . S
N809 Zn803 2.036 . S
N809 C810 1.298 . S
N809 N812 1.398 . S
C810 N809 1.298 . S
C810 N813 1.367 . S
C810 C823 1.481 . S
C811 N812 1.299 . S
C811 N813 1.379 . S
N812 N809 1.398 . S
N812 C811 1.299 . S
N813 C810 1.367 . S
N813 C811 1.379 . S
C814 N816 1.298 . S
C814 N818 1.367 . S
C814 C822 1.481 . S
C815 N817 1.299 . S
C815 N818 1.379 . S
N816 Zn800 2.036 . S
N816 C814 1.298 . S
N816 N817 1.398 . S
N817 C815 1.299 . S
N817 N816 1.398 . S
N818 C814 1.367 . S
N818 C815 1.379 . S
H819 C822 0.980 . S
H820 C822 0.981 . S
H821 C822 0.981 . S
C822 C814 1.481 . S
C822 H819 0.980 . S
C822 H820 0.981 . S
C822 H821 0.981 . S
C823 C810 1.481 . S
C823 H824 0.980 . S
C823 H825 0.981 . S
C823 H826 0.981 . S
H824 C823 0.980 . S
H825 C823 0.981 . S
H826 C823 0.981 . S
O827 Zn803 2.066 . S
O827 C806 1.256 . S
O828 Zn800 2.053 . S
O828 C806 1.244 . S
C829 O807 1.259 . S
C829 O808 1.254 . S
O830 Zn800 2.066 . S
O830 C802 1.256 . S
O831 C802 1.244 . S
O831 Zn803 2.053 . S
Zn832 O833 2.055 1_554 S
Zn832 O840 2.046 . S
Zn832 N848 2.036 . S
Zn832 O860 2.053 . S
Zn832 O862 2.066 1_554 S
O833 Zn832 2.055 1_556 S
O833 C836 1.259 . S
C834 O862 1.256 . S
C834 O863 1.244 . S
Zn835 O837 2.046 1_554 S
Zn835 O839 2.055 . S
Zn835 N841 2.036 . S
Zn835 O859 2.066 . S
Zn835 O863 2.053 1_554 S
C836 O833 1.259 . S
C836 O837 1.254 . S
O837 Zn835 2.046 1_556 S
O837 C836 1.254 . S
C838 O859 1.256 . S
C838 O860 1.244 . S
O839 Zn835 2.055 . S
O839 C861 1.259 . S
O840 Zn832 2.046 . S
O840 C861 1.254 . S
N841 Zn835 2.036 . S
N841 C842 1.298 . S
N841 N844 1.398 1_554 S
C842 N841 1.298 . S
C842 N845 1.365 1_565 S
C842 C855 1.481 . S
C843 N844 1.299 1_545 S
C843 N845 1.379 1_556 S
N844 N841 1.398 1_556 S
N844 C843 1.299 1_565 S
N845 C842 1.365 1_545 S
N845 C843 1.379 1_554 S
C846 N848 1.298 1_556 S
C846 N850 1.367 . S
C846 C854 1.481 . S
C847 N849 1.299 . S
C847 N850 1.379 1_554 S
N848 Zn832 2.036 . S
N848 C846 1.298 1_554 S
N848 N849 1.398 . S
N849 C847 1.299 . S
N849 N848 1.398 . S
N850 C846 1.367 . S
N850 C847 1.379 1_556 S
H851 C854 0.980 . S
H852 C854 0.981 . S
H853 C854 0.981 . S
C854 C846 1.481 . S
C854 H851 0.980 . S
C854 H852 0.981 . S
C854 H853 0.981 . S
C855 C842 1.481 . S
C855 H856 0.980 . S
C855 H857 0.983 . S
C855 H858 0.981 . S
H856 C855 0.980 . S
H857 C855 0.983 . S
H858 C855 0.981 . S
O859 Zn835 2.066 . S
O859 C838 1.256 . S
O860 Zn832 2.053 . S
O860 C838 1.244 . S
C861 O839 1.259 . S
C861 O840 1.254 . S
O862 Zn832 2.066 1_556 S
O862 C834 1.256 . S
O863 C834 1.244 . S
O863 Zn835 2.053 1_556 S
Zn864 O865 2.055 . S
Zn864 O872 2.046 . S
Zn864 N880 2.036 . S
Zn864 O892 2.053 . S
Zn864 O894 2.066 . S
O865 Zn864 2.055 . S
O865 C868 1.259 . S
C866 O894 1.256 . S
C866 O895 1.244 . S
Zn867 O869 2.046 . S
Zn867 O871 2.055 . S
Zn867 N873 2.036 . S
Zn867 O891 2.066 . S
Zn867 O895 2.053 . S
C868 O865 1.259 . S
C868 O869 1.254 . S
O869 Zn867 2.046 . S
O869 C868 1.254 . S
C870 O891 1.256 . S
C870 O892 1.244 . S
O871 Zn867 2.055 . S
O871 C893 1.259 . S
O872 Zn864 2.046 . S
O872 C893 1.254 . S
N873 Zn867 2.036 . S
N873 C874 1.298 . S
N873 N876 1.398 . S
C874 N873 1.298 . S
C874 N877 1.367 . S
C874 C887 1.481 . S
C875 N876 1.299 . S
C875 N877 1.379 . S
N876 N873 1.398 . S
N876 C875 1.299 . S
N877 C874 1.367 . S
N877 C875 1.379 . S
C878 N880 1.298 . S
C878 N882 1.367 . S
C878 C886 1.481 . S
C879 N881 1.299 . S
C879 N882 1.379 . S
N880 Zn864 2.036 . S
N880 C878 1.298 . S
N880 N881 1.398 . S
N881 C879 1.299 . S
N881 N880 1.398 . S
N882 C878 1.367 . S
N882 C879 1.379 . S
H883 C886 0.980 . S
H884 C886 0.981 . S
H885 C886 0.981 . S
C886 C878 1.481 . S
C886 H883 0.980 . S
C886 H884 0.981 . S
C886 H885 0.981 . S
C887 C874 1.481 . S
C887 H888 0.980 . S
C887 H889 0.981 . S
C887 H890 0.981 . S
H888 C887 0.980 . S
H889 C887 0.981 . S
H890 C887 0.981 . S
O891 Zn867 2.066 . S
O891 C870 1.256 . S
O892 Zn864 2.053 . S
O892 C870 1.244 . S
C893 O871 1.259 . S
C893 O872 1.254 . S
O894 Zn864 2.066 . S
O894 C866 1.256 . S
O895 C866 1.244 . S
O895 Zn867 2.053 . S
Zn896 O897 2.055 1_554 S
Zn896 O904 2.046 . S
Zn896 N912 2.036 . S
Zn896 O924 2.053 . S
Zn896 O926 2.066 1_554 S
O897 Zn896 2.055 1_556 S
O897 C900 1.259 . S
C898 O926 1.256 . S
C898 O927 1.244 . S
Zn899 O901 2.046 1_554 S
Zn899 O903 2.055 . S
Zn899 N905 2.036 . S
Zn899 O923 2.066 . S
Zn899 O927 2.053 1_554 S
C900 O897 1.259 . S
C900 O901 1.254 . S
O901 Zn899 2.046 1_556 S
O901 C900 1.254 . S
C902 O923 1.256 . S
C902 O924 1.244 . S
O903 Zn899 2.055 . S
O903 C925 1.259 . S
O904 Zn896 2.046 . S
O904 C925 1.254 . S
N905 Zn899 2.036 . S
N905 C906 1.298 . S
N905 N908 1.402 . S
C906 N905 1.298 . S
C906 N909 1.367 . S
C906 C919 1.481 . S
C907 N908 1.301 . S
C907 N909 1.379 . S
N908 N905 1.402 . S
N908 C907 1.301 . S
N909 C906 1.367 . S
N909 C907 1.379 . S
C910 N912 1.298 . S
C910 N914 1.366 1_565 S
C910 C918 1.481 1_554 S
C911 N913 1.299 1_545 S
C911 N914 1.379 . S
N912 Zn896 2.036 . S
N912 C910 1.298 . S
N912 N913 1.398 . S
N913 C911 1.299 1_565 S
N913 N912 1.398 . S
N914 C910 1.366 1_545 S
N914 C911 1.379 . S
H915 C918 0.980 . S
H916 C918 0.981 . S
H917 C918 0.981 . S
C918 C910 1.481 1_556 S
C918 H915 0.980 . S
C918 H916 0.981 . S
C918 H917 0.981 . S
C919 C906 1.481 . S
C919 H920 0.980 . S
C919 H921 0.981 . S
C919 H922 0.981 . S
H920 C919 0.980 . S
H921 C919 0.981 . S
H922 C919 0.981 . S
O923 Zn899 2.066 . S
O923 C902 1.256 . S
O924 Zn896 2.053 . S
O924 C902 1.244 . S
C925 O903 1.259 . S
C925 O904 1.254 . S
O926 Zn896 2.066 1_556 S
O926 C898 1.256 . S
O927 C898 1.244 . S
O927 Zn899 2.053 1_556 S
Zn928 O929 2.055 . S
Zn928 O936 2.046 . S
Zn928 N944 2.036 . S
Zn928 O956 2.053 . S
Zn928 O958 2.066 . S
O929 Zn928 2.055 . S
O929 C932 1.259 . S
C930 O958 1.256 . S
C930 O959 1.244 . S
Zn931 O933 2.046 . S
Zn931 O935 2.055 . S
Zn931 N937 2.036 . S
Zn931 O955 2.066 . S
Zn931 O959 2.053 . S
C932 O929 1.259 . S
C932 O933 1.254 . S
O933 Zn931 2.046 . S
O933 C932 1.254 . S
C934 O955 1.256 . S
C934 O956 1.244 . S
O935 Zn931 2.055 . S
O935 C957 1.259 . S
O936 Zn928 2.046 . S
O936 C957 1.254 . S
N937 Zn931 2.036 . S
N937 C938 1.298 . S
N937 N940 1.398 . S
C938 N937 1.298 . S
C938 N941 1.367 . S
C938 C951 1.481 . S
C939 N940 1.299 . S
C939 N941 1.379 . S
N940 N937 1.398 . S
N940 C939 1.299 . S
N941 C938 1.367 . S
N941 C939 1.379 . S
C942 N944 1.298 . S
C942 N946 1.367 . S
C942 C950 1.481 . S
C943 N945 1.299 . S
C943 N946 1.379 . S
N944 Zn928 2.036 . S
N944 C942 1.298 . S
N944 N945 1.398 . S
N945 C943 1.299 . S
N945 N944 1.398 . S
N946 C942 1.367 . S
N946 C943 1.379 . S
H947 C950 0.980 . S
H948 C950 0.981 . S
H949 C950 0.981 . S
C950 C942 1.481 . S
C950 H947 0.980 . S
C950 H948 0.981 . S
C950 H949 0.981 . S
C951 C938 1.481 . S
C951 H952 0.980 . S
C951 H953 0.981 . S
C951 H954 0.981 . S
H952 C951 0.980 . S
H953 C951 0.981 . S
H954 C951 0.981 . S
O955 Zn931 2.066 . S
O955 C934 1.256 . S
O956 Zn928 2.053 . S
O956 C934 1.244 . S
C957 O935 1.259 . S
C957 O936 1.254 . S
O958 Zn928 2.066 . S
O958 C930 1.256 . S
O959 C930 1.244 . S
O959 Zn931 2.053 . S
Zn960 O961 2.055 . S
Zn960 O968 2.046 . S
Zn960 N976 2.036 . S
Zn960 O988 2.053 . S
Zn960 O990 2.066 . S
O961 Zn960 2.055 . S
O961 C964 1.259 . S
C962 O990 1.256 . S
C962 O991 1.244 . S
Zn963 O965 2.046 . S
Zn963 O967 2.055 . S
Zn963 N969 2.036 . S
Zn963 O987 2.066 . S
Zn963 O991 2.053 . S
C964 O961 1.259 . S
C964 O965 1.254 . S
O965 Zn963 2.046 . S
O965 C964 1.254 . S
C966 O987 1.256 . S
C966 O988 1.244 . S
O967 Zn963 2.055 . S
O967 C989 1.259 . S
O968 Zn960 2.046 . S
O968 C989 1.254 . S
N969 Zn963 2.036 . S
N969 C970 1.298 . S
N969 N972 1.398 . S
C970 N969 1.298 . S
C970 N973 1.367 . S
C970 C983 1.481 . S
C971 N972 1.299 . S
C971 N973 1.379 . S
N972 N969 1.398 . S
N972 C971 1.299 . S
N973 C970 1.367 . S
N973 C971 1.379 . S
C974 N976 1.298 . S
C974 N978 1.366 1_545 S
C974 C982 1.481 . S
C975 N977 1.299 1_565 S
C975 N978 1.379 . S
N976 Zn960 2.036 . S
N976 C974 1.298 . S
N976 N977 1.398 . S
N977 C975 1.299 1_545 S
N977 N976 1.398 . S
N978 C974 1.366 1_565 S
N978 C975 1.379 . S
H979 C982 0.980 . S
H980 C982 0.983 . S
H981 C982 0.981 . S
C982 C974 1.481 . S
C982 H979 0.980 . S
C982 H980 0.983 . S
C982 H981 0.981 . S
C983 C970 1.481 . S
C983 H984 0.980 . S
C983 H985 0.981 . S
C983 H986 0.981 . S
H984 C983 0.980 . S
H985 C983 0.981 . S
H986 C983 0.981 . S
O987 Zn963 2.066 . S
O987 C966 1.256 . S
O988 Zn960 2.053 . S
O988 C966 1.244 . S
C989 O967 1.259 . S
C989 O968 1.254 . S
O990 Zn960 2.066 . S
O990 C962 1.256 . S
O991 C962 1.244 . S
O991 Zn963 2.053 . S
Zn992 O993 2.055 . S
Zn992 O1000 2.046 . S
Zn992 N1008 2.036 . S
Zn992 O1020 2.053 . S
Zn992 O1022 2.066 . S
O993 Zn992 2.055 . S
O993 C996 1.259 . S
C994 O1022 1.256 . S
C994 O1023 1.244 . S
Zn995 O997 2.046 . S
Zn995 O999 2.055 . S
Zn995 N1001 2.036 . S
Zn995 O1019 2.066 . S
Zn995 O1023 2.053 . S
C996 O993 1.259 . S
C996 O997 1.254 . S
O997 Zn995 2.046 . S
O997 C996 1.254 . S
C998 O1019 1.256 . S
C998 O1020 1.244 . S
O999 Zn995 2.055 . S
O999 C1021 1.259 . S
O1000 Zn992 2.046 . S
O1000 C1021 1.254 . S
N1001 Zn995 2.036 . S
N1001 C1002 1.298 . S
N1001 N1004 1.398 . S
C1002 N1001 1.298 . S
C1002 N1005 1.367 . S
C1002 C1015 1.481 . S
C1003 N1004 1.299 . S
C1003 N1005 1.379 . S
N1004 N1001 1.398 . S
N1004 C1003 1.299 . S
N1005 C1002 1.367 . S
N1005 C1003 1.379 . S
C1006 N1008 1.298 . S
C1006 N1010 1.367 . S
C1006 C1014 1.481 . S
C1007 N1009 1.299 . S
C1007 N1010 1.379 . S
N1008 Zn992 2.036 . S
N1008 C1006 1.298 . S
N1008 N1009 1.398 . S
N1009 C1007 1.299 . S
N1009 N1008 1.398 . S
N1010 C1006 1.367 . S
N1010 C1007 1.379 . S
H1011 C1014 0.980 . S
H1012 C1014 0.981 . S
H1013 C1014 0.981 . S
C1014 C1006 1.481 . S
C1014 H1011 0.980 . S
C1014 H1012 0.981 . S
C1014 H1013 0.981 . S
C1015 C1002 1.481 . S
C1015 H1016 0.980 . S
C1015 H1017 0.981 . S
C1015 H1018 0.981 . S
H1016 C1015 0.980 . S
H1017 C1015 0.981 . S
H1018 C1015 0.981 . S
O1019 Zn995 2.066 . S
O1019 C998 1.256 . S
O1020 Zn992 2.053 . S
O1020 C998 1.244 . S
C1021 O999 1.259 . S
C1021 O1000 1.254 . S
O1022 Zn992 2.066 . S
O1022 C994 1.256 . S
O1023 C994 1.244 . S
O1023 Zn995 2.053 . S
H1024 C1030 0.930 . S
H1025 C1033 0.930 . S
H1026 C1034 0.930 . S
H1027 C1035 0.930 . S
H1028 C1038 0.930 . S
H1029 C1039 0.930 . S
C1030 H1024 0.930 . S
C1030 C1031 1.355 . S
C1030 C1032 1.415 . S
C1031 C1030 1.355 . S
C1031 C1033 1.419 . S
C1032 C1030 1.415 . S
C1032 C1037 1.425 . S
C1032 C1039 1.409 . S
C1033 H1025 0.930 . S
C1033 C1031 1.419 . S
C1033 C1034 1.362 . S
C1034 H1026 0.930 . S
C1034 C1033 1.362 . S
C1034 C1037 1.409 . S
C1035 H1027 0.930 . S
C1035 C1036 1.355 . S
C1035 C1037 1.415 . S
C1036 C1035 1.355 . S
C1036 C1038 1.419 . S
C1037 C1032 1.425 . S
C1037 C1034 1.409 . S
C1037 C1035 1.415 . S
C1038 H1028 0.930 . S
C1038 C1036 1.419 . S
C1038 C1039 1.362 . S
C1039 H1029 0.930 . S
C1039 C1032 1.409 . S
C1039 C1038 1.362 . S
H1040 C1046 0.930 . S
H1041 C1049 0.930 . S
H1042 C1050 0.930 . S
H1043 C1051 0.930 . S
H1044 C1054 0.930 . S
H1045 C1055 0.930 . S
C1046 H1040 0.930 . S
C1046 C1047 1.355 . S
C1046 C1048 1.415 . S
C1047 C1046 1.355 . S
C1047 C1049 1.419 . S
C1048 C1046 1.415 . S
C1048 C1053 1.425 . S
C1048 C1055 1.409 . S
C1049 H1041 0.930 . S
C1049 C1047 1.419 . S
C1049 C1050 1.362 . S
C1050 H1042 0.930 . S
C1050 C1049 1.362 . S
C1050 C1053 1.409 . S
C1051 H1043 0.930 . S
C1051 C1052 1.355 . S
C1051 C1053 1.415 . S
C1052 C1051 1.355 . S
C1052 C1054 1.419 . S
C1053 C1048 1.425 . S
C1053 C1050 1.409 . S
C1053 C1051 1.415 . S
C1054 H1044 0.930 . S
C1054 C1052 1.419 . S
C1054 C1055 1.362 . S
C1055 H1045 0.930 . S
C1055 C1048 1.409 . S
C1055 C1054 1.362 . S
H1056 C1062 0.930 . S
H1057 C1065 0.930 . S
H1058 C1066 0.930 . S
H1059 C1067 0.930 . S
H1060 C1070 0.930 . S
H1061 C1071 0.930 . S
C1062 H1056 0.930 . S
C1062 C1063 1.355 . S
C1062 C1064 1.415 . S
C1063 C1062 1.355 . S
C1063 C1065 1.419 . S
C1064 C1062 1.415 . S
C1064 C1069 1.425 . S
C1064 C1071 1.409 . S
C1065 H1057 0.930 . S
C1065 C1063 1.419 . S
C1065 C1066 1.362 . S
C1066 H1058 0.930 . S
C1066 C1065 1.362 . S
C1066 C1069 1.409 . S
C1067 H1059 0.930 . S
C1067 C1068 1.355 . S
C1067 C1069 1.415 . S
C1068 C1067 1.355 . S
C1068 C1070 1.419 . S
C1069 C1064 1.425 . S
C1069 C1066 1.409 . S
C1069 C1067 1.415 . S
C1070 H1060 0.930 . S
C1070 C1068 1.419 . S
C1070 C1071 1.362 . S
C1071 H1061 0.930 . S
C1071 C1064 1.409 . S
C1071 C1070 1.362 . S
H1072 C1078 0.930 . S
H1073 C1081 0.930 . S
H1074 C1082 0.930 1_556 S
H1075 C1083 0.930 . S
H1076 C1086 0.930 . S
H1077 C1087 0.930 . S
C1078 H1072 0.930 . S
C1078 C1079 1.355 . S
C1078 C1080 1.415 . S
C1079 C1078 1.355 . S
C1079 C1081 1.419 . S
C1080 C1078 1.415 . S
C1080 C1085 1.425 . S
C1080 C1087 1.409 . S
C1081 H1073 0.930 . S
C1081 C1079 1.419 . S
C1081 C1082 1.362 . S
C1082 H1074 0.930 1_554 S
C1082 C1081 1.362 . S
C1082 C1085 1.409 . S
C1083 H1075 0.930 . S
C1083 C1084 1.355 . S
C1083 C1085 1.415 1_556 S
C1084 C1083 1.355 . S
C1084 C1086 1.419 1_556 S
C1085 C1080 1.425 . S
C1085 C1082 1.409 . S
C1085 C1083 1.415 1_554 S
C1086 H1076 0.930 . S
C1086 C1084 1.419 1_554 S
C1086 C1087 1.362 . S
C1087 H1077 0.930 . S
C1087 C1080 1.409 . S
C1087 C1086 1.362 . S
H1088 C1094 0.930 . S
H1089 C1097 0.930 . S
H1090 C1098 0.930 . S
H1091 C1099 0.930 . S
H1092 C1102 0.930 . S
H1093 C1103 0.930 . S
C1094 H1088 0.930 . S
C1094 C1095 1.355 . S
C1094 C1096 1.415 . S
C1095 C1094 1.355 . S
C1095 C1097 1.419 . S
C1096 C1094 1.415 . S
C1096 C1101 1.425 . S
C1096 C1103 1.409 . S
C1097 H1089 0.930 . S
C1097 C1095 1.419 . S
C1097 C1098 1.362 . S
C1098 H1090 0.930 . S
C1098 C1097 1.362 . S
C1098 C1101 1.409 . S
C1099 H1091 0.930 . S
C1099 C1100 1.355 . S
C1099 C1101 1.415 . S
C1100 C1099 1.355 . S
C1100 C1102 1.419 . S
C1101 C1096 1.425 . S
C1101 C1098 1.409 . S
C1101 C1099 1.415 . S
C1102 H1092 0.930 . S
C1102 C1100 1.419 . S
C1102 C1103 1.362 . S
C1103 H1093 0.930 . S
C1103 C1096 1.409 . S
C1103 C1102 1.362 . S
H1104 C1110 0.930 . S
H1105 C1113 0.930 . S
H1106 C1114 0.930 . S
H1107 C1115 0.930 . S
H1108 C1118 0.930 . S
H1109 C1119 0.930 . S
C1110 H1104 0.930 . S
C1110 C1111 1.355 . S
C1110 C1112 1.415 . S
C1111 C1110 1.355 . S
C1111 C1113 1.419 . S
C1112 C1110 1.415 . S
C1112 C1117 1.425 . S
C1112 C1119 1.409 . S
C1113 H1105 0.930 . S
C1113 C1111 1.419 . S
C1113 C1114 1.362 . S
C1114 H1106 0.930 . S
C1114 C1113 1.362 . S
C1114 C1117 1.409 . S
C1115 H1107 0.930 . S
C1115 C1116 1.355 . S
C1115 C1117 1.415 . S
C1116 C1115 1.355 . S
C1116 C1118 1.419 . S
C1117 C1112 1.425 . S
C1117 C1114 1.409 . S
C1117 C1115 1.415 . S
C1118 H1108 0.930 . S
C1118 C1116 1.419 . S
C1118 C1119 1.362 . S
C1119 H1109 0.930 . S
C1119 C1112 1.409 . S
C1119 C1118 1.362 . S
H1120 C1126 0.930 . S
H1121 C1129 0.930 . S
H1122 C1130 0.930 . S
H1123 C1131 0.930 . S
H1124 C1134 0.930 . S
H1125 C1135 0.930 . S
C1126 H1120 0.930 . S
C1126 C1127 1.355 . S
C1126 C1128 1.415 . S
C1127 C1126 1.355 . S
C1127 C1129 1.419 . S
C1128 C1126 1.415 . S
C1128 C1133 1.425 . S
C1128 C1135 1.409 . S
C1129 H1121 0.930 . S
C1129 C1127 1.419 . S
C1129 C1130 1.362 . S
C1130 H1122 0.930 . S
C1130 C1129 1.362 . S
C1130 C1133 1.409 . S
C1131 H1123 0.930 . S
C1131 C1132 1.355 . S
C1131 C1133 1.415 . S
C1132 C1131 1.355 . S
C1132 C1134 1.419 . S
C1133 C1128 1.425 . S
C1133 C1130 1.409 . S
C1133 C1131 1.415 . S
C1134 H1124 0.930 . S
C1134 C1132 1.419 . S
C1134 C1135 1.362 . S
C1135 H1125 0.930 . S
C1135 C1128 1.409 . S
C1135 C1134 1.362 . S
H1136 C1142 0.930 . S
H1137 C1145 0.930 . S
H1138 C1146 0.930 . S
H1139 C1147 0.930 . S
H1140 C1150 0.930 . S
H1141 C1151 0.930 . S
C1142 H1136 0.930 . S
C1142 C1143 1.355 . S
C1142 C1144 1.415 . S
C1143 C1142 1.355 . S
C1143 C1145 1.419 . S
C1144 C1142 1.415 . S
C1144 C1149 1.425 . S
C1144 C1151 1.409 1_554 S
C1145 H1137 0.930 . S
C1145 C1143 1.419 . S
C1145 C1146 1.362 . S
C1146 H1138 0.930 . S
C1146 C1145 1.362 . S
C1146 C1149 1.409 . S
C1147 H1139 0.930 . S
C1147 C1148 1.355 1_554 S
C1147 C1149 1.415 . S
C1148 C1147 1.355 1_556 S
C1148 C1150 1.419 . S
C1149 C1144 1.425 . S
C1149 C1146 1.409 . S
C1149 C1147 1.415 . S
C1150 H1140 0.930 . S
C1150 C1148 1.419 . S
C1150 C1151 1.362 . S
C1151 H1141 0.930 . S
C1151 C1144 1.409 1_556 S
C1151 C1150 1.362 . S
H1152 C1158 0.930 . S
H1153 C1161 0.930 . S
H1154 C1162 0.930 . S
H1155 C1163 0.930 . S
H1156 C1166 0.930 . S
H1157 C1167 0.930 . S
C1158 H1152 0.930 . S
C1158 C1159 1.355 . S
C1158 C1160 1.415 1_545 S
C1159 C1158 1.355 . S
C1159 C1161 1.419 . S
C1160 C1158 1.415 1_565 S
C1160 C1165 1.425 1_565 S
C1160 C1167 1.409 . S
C1161 H1153 0.930 . S
C1161 C1159 1.419 . S
C1161 C1162 1.362 . S
C1162 H1154 0.930 . S
C1162 C1161 1.362 . S
C1162 C1165 1.409 . S
C1163 H1155 0.930 . S
C1163 C1164 1.355 . S
C1163 C1165 1.415 1_565 S
C1164 C1163 1.355 . S
C1164 C1166 1.419 . S
C1165 C1160 1.425 1_545 S
C1165 C1162 1.409 . S
C1165 C1163 1.415 1_545 S
C1166 H1156 0.930 . S
C1166 C1164 1.419 . S
C1166 C1167 1.362 . S
C1167 H1157 0.930 . S
C1167 C1160 1.409 . S
C1167 C1166 1.362 . S
H1168 C1174 0.930 . S
H1169 C1177 0.930 . S
H1170 C1178 0.930 . S
H1171 C1179 0.930 . S
H1172 C1182 0.930 . S
H1173 C1183 0.930 . S
C1174 H1168 0.930 . S
C1174 C1175 1.355 1_554 S
C1174 C1176 1.415 . S
C1175 C1174 1.355 1_556 S
C1175 C1177 1.419 . S
C1176 C1174 1.415 . S
C1176 C1181 1.425 . S
C1176 C1183 1.409 . S
C1177 H1169 0.930 . S
C1177 C1175 1.419 . S
C1177 C1178 1.362 . S
C1178 H1170 0.930 . S
C1178 C1177 1.362 . S
C1178 C1181 1.409 1_556 S
C1179 H1171 0.930 . S
C1179 C1180 1.355 . S
C1179 C1181 1.415 . S
C1180 C1179 1.355 . S
C1180 C1182 1.419 . S
C1181 C1176 1.425 . S
C1181 C1178 1.409 1_554 S
C1181 C1179 1.415 . S
C1182 H1172 0.930 . S
C1182 C1180 1.419 . S
C1182 C1183 1.362 . S
C1183 H1173 0.930 . S
C1183 C1176 1.409 . S
C1183 C1182 1.362 . S
H1184 C1190 0.930 . S
H1185 C1193 0.930 . S
H1186 C1194 0.930 . S
H1187 C1195 0.930 . S
H1188 C1198 0.930 . S
H1189 C1199 0.930 . S
C1190 H1184 0.930 . S
C1190 C1191 1.355 . S
C1190 C1192 1.415 . S
C1191 C1190 1.355 . S
C1191 C1193 1.419 . S
C1192 C1190 1.415 . S
C1192 C1197 1.425 1_545 S
C1192 C1199 1.409 1_545 S
C1193 H1185 0.930 . S
C1193 C1191 1.419 . S
C1193 C1194 1.362 . S
C1194 H1186 0.930 . S
C1194 C1193 1.362 . S
C1194 C1197 1.409 1_545 S
C1195 H1187 0.930 . S
C1195 C1196 1.355 . S
C1195 C1197 1.415 . S
C1196 C1195 1.355 . S
C1196 C1198 1.419 . S
C1197 C1192 1.425 1_565 S
C1197 C1194 1.409 1_565 S
C1197 C1195 1.415 . S
C1198 H1188 0.930 . S
C1198 C1196 1.419 . S
C1198 C1199 1.362 . S
C1199 H1189 0.930 . S
C1199 C1192 1.409 1_565 S
C1199 C1198 1.362 . S
H1200 C1206 0.930 . S
H1201 C1209 0.930 . S
H1202 C1210 0.930 . S
H1203 C1211 0.930 . S
H1204 C1214 0.930 . S
H1205 C1215 0.930 . S
C1206 H1200 0.930 . S
C1206 C1207 1.355 . S
C1206 C1208 1.415 . S
C1207 C1206 1.355 . S
C1207 C1209 1.419 . S
C1208 C1206 1.415 . S
C1208 C1213 1.425 . S
C1208 C1215 1.409 . S
C1209 H1201 0.930 . S
C1209 C1207 1.419 . S
C1209 C1210 1.362 . S
C1210 H1202 0.930 . S
C1210 C1209 1.362 . S
C1210 C1213 1.409 . S
C1211 H1203 0.930 . S
C1211 C1212 1.355 . S
C1211 C1213 1.415 . S
C1212 C1211 1.355 . S
C1212 C1214 1.419 . S
C1213 C1208 1.425 . S
C1213 C1210 1.409 . S
C1213 C1211 1.415 . S
C1214 H1204 0.930 . S
C1214 C1212 1.419 . S
C1214 C1215 1.362 . S
C1215 H1205 0.930 . S
C1215 C1208 1.409 . S
C1215 C1214 1.362 . S
H1216 C1222 0.930 . S
H1217 C1225 0.930 . S
H1218 C1226 0.930 . S
H1219 C1227 0.930 . S
H1220 C1230 0.930 . S
H1221 C1231 0.930 . S
C1222 H1216 0.930 . S
C1222 C1223 1.355 . S
C1222 C1224 1.415 . S
C1223 C1222 1.355 . S
C1223 C1225 1.419 . S
C1224 C1222 1.415 . S
C1224 C1229 1.425 1_545 S
C1224 C1231 1.409 . S
C1225 H1217 0.930 . S
C1225 C1223 1.419 . S
C1225 C1226 1.362 1_545 S
C1226 H1218 0.930 . S
C1226 C1225 1.362 1_565 S
C1226 C1229 1.409 . S
C1227 H1219 0.930 . S
C1227 C1228 1.355 . S
C1227 C1229 1.415 . S
C1228 C1227 1.355 . S
C1228 C1230 1.419 . S
C1229 C1224 1.425 1_565 S
C1229 C1226 1.409 . S
C1229 C1227 1.415 . S
C1230 H1220 0.930 . S
C1230 C1228 1.419 . S
C1230 C1231 1.362 1_565 S
C1231 H1221 0.930 . S
C1231 C1224 1.409 . S
C1231 C1230 1.362 1_545 S
H1232 C1238 0.930 . S
H1233 C1241 0.930 . S
H1234 C1242 0.930 . S
H1235 C1243 0.930 . S
H1236 C1246 0.930 . S
H1237 C1247 0.930 . S
C1238 H1232 0.930 . S
C1238 C1239 1.355 . S
C1238 C1240 1.415 1_556 S
C1239 C1238 1.355 . S
C1239 C1241 1.419 1_556 S
C1240 C1238 1.415 1_554 S
C1240 C1245 1.425 . S
C1240 C1247 1.409 1_554 S
C1241 H1233 0.930 . S
C1241 C1239 1.419 1_554 S
C1241 C1242 1.362 . S
C1242 H1234 0.930 . S
C1242 C1241 1.362 . S
C1242 C1245 1.409 . S
C1243 H1235 0.930 . S
C1243 C1244 1.355 . S
C1243 C1245 1.415 . S
C1244 C1243 1.355 . S
C1244 C1246 1.419 . S
C1245 C1240 1.425 . S
C1245 C1242 1.409 . S
C1245 C1243 1.415 . S
C1246 H1236 0.930 . S
C1246 C1244 1.419 . S
C1246 C1247 1.362 1_554 S
C1247 H1237 0.930 . S
C1247 C1240 1.409 1_556 S
C1247 C1246 1.362 1_556 S
H1248 C1254 0.930 . S
H1249 C1257 0.930 . S
H1250 C1258 0.930 . S
H1251 C1259 0.930 . S
H1252 C1262 0.930 . S
H1253 C1263 0.930 . S
C1254 H1248 0.930 . S
C1254 C1255 1.355 . S
C1254 C1256 1.415 . S
C1255 C1254 1.355 . S
C1255 C1257 1.419 . S
C1256 C1254 1.415 . S
C1256 C1261 1.425 1_565 S
C1256 C1263 1.409 . S
C1257 H1249 0.930 . S
C1257 C1255 1.419 . S
C1257 C1258 1.362 1_565 S
C1258 H1250 0.930 . S
C1258 C1257 1.362 1_545 S
C1258 C1261 1.409 . S
C1259 H1251 0.930 . S
C1259 C1260 1.355 . S
C1259 C1261 1.415 . S
C1260 C1259 1.355 . S
C1260 C1262 1.419 . S
C1261 C1256 1.425 1_545 S
C1261 C1258 1.409 . S
C1261 C1259 1.415 . S
C1262 H1252 0.930 . S
C1262 C1260 1.419 . S
C1262 C1263 1.362 1_545 S
C1263 H1253 0.930 . S
C1263 C1256 1.409 . S
C1263 C1262 1.362 1_565 S
H1264 C1270 0.930 . S
H1265 C1273 0.930 . S
H1266 C1274 0.930 . S
H1267 C1275 0.930 . S
H1268 C1278 0.930 . S
H1269 C1279 0.930 . S
C1270 H1264 0.930 . S
C1270 C1271 1.355 . S
C1270 C1272 1.415 . S
C1271 C1270 1.355 . S
C1271 C1273 1.419 . S
C1272 C1270 1.415 . S
C1272 C1277 1.425 . S
C1272 C1279 1.409 . S
C1273 H1265 0.930 . S
C1273 C1271 1.419 . S
C1273 C1274 1.362 . S
C1274 H1266 0.930 . S
C1274 C1273 1.362 . S
C1274 C1277 1.409 . S
C1275 H1267 0.930 . S
C1275 C1276 1.355 . S
C1275 C1277 1.415 . S
C1276 C1275 1.355 . S
C1276 C1278 1.419 . S
C1277 C1272 1.425 . S
C1277 C1274 1.409 . S
C1277 C1275 1.415 . S
C1278 H1268 0.930 . S
C1278 C1276 1.419 . S
C1278 C1279 1.362 . S
C1279 H1269 0.930 . S
C1279 C1272 1.409 . S
C1279 C1278 1.362 . S
H1280 C1286 0.930 . S
H1281 C1289 0.930 . S
H1282 C1290 0.930 . S
H1283 C1291 0.930 . S
H1284 C1294 0.930 . S
H1285 C1295 0.930 . S
C1286 H1280 0.930 . S
C1286 C1287 1.355 . S
C1286 C1288 1.415 . S
C1287 C1286 1.355 . S
C1287 C1289 1.419 . S
C1288 C1286 1.415 . S
C1288 C1293 1.425 . S
C1288 C1295 1.409 . S
C1289 H1281 0.930 . S
C1289 C1287 1.419 . S
C1289 C1290 1.362 . S
C1290 H1282 0.930 . S
C1290 C1289 1.362 . S
C1290 C1293 1.409 . S
C1291 H1283 0.930 . S
C1291 C1292 1.355 . S
C1291 C1293 1.415 . S
C1292 C1291 1.355 . S
C1292 C1294 1.419 . S
C1293 C1288 1.425 . S
C1293 C1290 1.409 . S
C1293 C1291 1.415 . S
C1294 H1284 0.930 . S
C1294 C1292 1.419 . S
C1294 C1295 1.362 . S
C1295 H1285 0.930 . S
C1295 C1288 1.409 . S
C1295 C1294 1.362 . S
H1296 C1302 0.930 . S
H1297 C1305 0.930 . S
H1298 C1306 0.930 . S
H1299 C1307 0.930 . S
H1300 C1310 0.930 . S
H1301 C1311 0.930 . S
C1302 H1296 0.930 . S
C1302 C1303 1.355 . S
C1302 C1304 1.415 . S
C1303 C1302 1.355 . S
C1303 C1305 1.419 . S
C1304 C1302 1.415 . S
C1304 C1309 1.425 . S
C1304 C1311 1.409 . S
C1305 H1297 0.930 . S
C1305 C1303 1.419 . S
C1305 C1306 1.362 . S
C1306 H1298 0.930 . S
C1306 C1305 1.362 . S
C1306 C1309 1.409 . S
C1307 H1299 0.930 . S
C1307 C1308 1.355 . S
C1307 C1309 1.415 . S
C1308 C1307 1.355 . S
C1308 C1310 1.419 . S
C1309 C1304 1.425 . S
C1309 C1306 1.409 . S
C1309 C1307 1.415 . S
C1310 H1300 0.930 . S
C1310 C1308 1.419 . S
C1310 C1311 1.362 . S
C1311 H1301 0.930 . S
C1311 C1304 1.409 . S
C1311 C1310 1.362 . S
H1312 C1318 0.930 . S
H1313 C1321 0.930 . S
H1314 C1322 0.930 . S
H1315 C1323 0.930 . S
H1316 C1326 0.930 . S
H1317 C1327 0.930 . S
C1318 H1312 0.930 . S
C1318 C1319 1.355 . S
C1318 C1320 1.415 . S
C1319 C1318 1.355 . S
C1319 C1321 1.419 . S
C1320 C1318 1.415 . S
C1320 C1325 1.425 . S
C1320 C1327 1.409 . S
C1321 H1313 0.930 . S
C1321 C1319 1.419 . S
C1321 C1322 1.362 . S
C1322 H1314 0.930 . S
C1322 C1321 1.362 . S
C1322 C1325 1.409 . S
C1323 H1315 0.930 . S
C1323 C1324 1.355 . S
C1323 C1325 1.415 . S
C1324 C1323 1.355 . S
C1324 C1326 1.419 . S
C1325 C1320 1.425 . S
C1325 C1322 1.409 . S
C1325 C1323 1.415 . S
C1326 H1316 0.930 . S
C1326 C1324 1.419 . S
C1326 C1327 1.362 . S
C1327 H1317 0.930 . S
C1327 C1320 1.409 . S
C1327 C1326 1.362 . S
H1328 C1334 0.930 . S
H1329 C1337 0.930 . S
H1330 C1338 0.930 . S
H1331 C1339 0.930 . S
H1332 C1342 0.930 . S
H1333 C1343 0.930 . S
C1334 H1328 0.930 . S
C1334 C1335 1.355 . S
C1334 C1336 1.415 . S
C1335 C1334 1.355 . S
C1335 C1337 1.419 . S
C1336 C1334 1.415 . S
C1336 C1341 1.425 . S
C1336 C1343 1.409 . S
C1337 H1329 0.930 . S
C1337 C1335 1.419 . S
C1337 C1338 1.362 . S
C1338 H1330 0.930 . S
C1338 C1337 1.362 . S
C1338 C1341 1.409 . S
C1339 H1331 0.930 . S
C1339 C1340 1.355 . S
C1339 C1341 1.415 . S
C1340 C1339 1.355 . S
C1340 C1342 1.419 . S
C1341 C1336 1.425 . S
C1341 C1338 1.409 . S
C1341 C1339 1.415 . S
C1342 H1332 0.930 . S
C1342 C1340 1.419 . S
C1342 C1343 1.362 . S
C1343 H1333 0.930 . S
C1343 C1336 1.409 . S
C1343 C1342 1.362 . S
H1344 C1350 0.930 . S
H1345 C1353 0.930 . S
H1346 C1354 0.930 . S
H1347 C1355 0.930 . S
H1348 C1358 0.930 . S
H1349 C1359 0.930 . S
C1350 H1344 0.930 . S
C1350 C1351 1.355 . S
C1350 C1352 1.415 . S
C1351 C1350 1.355 . S
C1351 C1353 1.419 . S
C1352 C1350 1.415 . S
C1352 C1357 1.425 . S
C1352 C1359 1.409 . S
C1353 H1345 0.930 . S
C1353 C1351 1.419 . S
C1353 C1354 1.362 . S
C1354 H1346 0.930 . S
C1354 C1353 1.362 . S
C1354 C1357 1.409 . S
C1355 H1347 0.930 . S
C1355 C1356 1.355 . S
C1355 C1357 1.415 . S
C1356 C1355 1.355 . S
C1356 C1358 1.419 . S
C1357 C1352 1.425 . S
C1357 C1354 1.409 . S
C1357 C1355 1.415 . S
C1358 H1348 0.930 . S
C1358 C1356 1.419 . S
C1358 C1359 1.362 . S
C1359 H1349 0.930 . S
C1359 C1352 1.409 . S
C1359 C1358 1.362 . S
H1360 C1366 0.930 . S
H1361 C1369 0.930 . S
H1362 C1370 0.930 . S
H1363 C1371 0.930 . S
H1364 C1374 0.930 . S
H1365 C1375 0.930 . S
C1366 H1360 0.930 . S
C1366 C1367 1.355 . S
C1366 C1368 1.415 . S
C1367 C1366 1.355 . S
C1367 C1369 1.419 . S
C1368 C1366 1.415 . S
C1368 C1373 1.425 . S
C1368 C1375 1.409 . S
C1369 H1361 0.930 . S
C1369 C1367 1.419 . S
C1369 C1370 1.362 . S
C1370 H1362 0.930 . S
C1370 C1369 1.362 . S
C1370 C1373 1.409 . S
C1371 H1363 0.930 . S
C1371 C1372 1.355 . S
C1371 C1373 1.415 . S
C1372 C1371 1.355 . S
C1372 C1374 1.419 . S
C1373 C1368 1.425 . S
C1373 C1370 1.409 . S
C1373 C1371 1.415 . S
C1374 H1364 0.930 . S
C1374 C1372 1.419 . S
C1374 C1375 1.362 . S
C1375 H1365 0.930 . S
C1375 C1368 1.409 . S
C1375 C1374 1.362 . S
H1376 C1382 0.930 . S
H1377 C1385 0.930 . S
H1378 C1386 0.930 . S
H1379 C1387 0.930 . S
H1380 C1390 0.930 . S
H1381 C1391 0.930 . S
C1382 H1376 0.930 . S
C1382 C1383 1.355 . S
C1382 C1384 1.415 . S
C1383 C1382 1.355 . S
C1383 C1385 1.419 . S
C1384 C1382 1.415 . S
C1384 C1389 1.425 . S
C1384 C1391 1.409 . S
C1385 H1377 0.930 . S
C1385 C1383 1.419 . S
C1385 C1386 1.362 . S
C1386 H1378 0.930 . S
C1386 C1385 1.362 . S
C1386 C1389 1.409 . S
C1387 H1379 0.930 . S
C1387 C1388 1.355 . S
C1387 C1389 1.415 . S
C1388 C1387 1.355 . S
C1388 C1390 1.419 . S
C1389 C1384 1.425 . S
C1389 C1386 1.409 . S
C1389 C1387 1.415 . S
C1390 H1380 0.930 . S
C1390 C1388 1.419 . S
C1390 C1391 1.362 . S
C1391 H1381 0.930 . S
C1391 C1384 1.409 . S
C1391 C1390 1.362 . S
H1392 C1398 0.930 . S
H1393 C1401 0.930 . S
H1394 C1402 0.930 . S
H1395 C1403 0.930 . S
H1396 C1406 0.930 . S
H1397 C1407 0.930 . S
C1398 H1392 0.930 . S
C1398 C1399 1.355 . S
C1398 C1400 1.415 . S
C1399 C1398 1.355 . S
C1399 C1401 1.419 . S
C1400 C1398 1.415 . S
C1400 C1405 1.425 . S
C1400 C1407 1.409 . S
C1401 H1393 0.930 . S
C1401 C1399 1.419 . S
C1401 C1402 1.362 . S
C1402 H1394 0.930 . S
C1402 C1401 1.362 . S
C1402 C1405 1.409 . S
C1403 H1395 0.930 . S
C1403 C1404 1.355 . S
C1403 C1405 1.415 . S
C1404 C1403 1.355 . S
C1404 C1406 1.419 . S
C1405 C1400 1.425 . S
C1405 C1402 1.409 . S
C1405 C1403 1.415 . S
C1406 H1396 0.930 . S
C1406 C1404 1.419 . S
C1406 C1407 1.362 . S
C1407 H1397 0.930 . S
C1407 C1400 1.409 . S
C1407 C1406 1.362 . S
H1408 C1414 0.930 . S
H1409 C1417 0.930 . S
H1410 C1418 0.930 . S
H1411 C1419 0.930 . S
H1412 C1422 0.930 . S
H1413 C1423 0.930 . S
C1414 H1408 0.930 . S
C1414 C1415 1.355 . S
C1414 C1416 1.415 . S
C1415 C1414 1.355 . S
C1415 C1417 1.419 . S
C1416 C1414 1.415 . S
C1416 C1421 1.425 . S
C1416 C1423 1.409 . S
C1417 H1409 0.930 . S
C1417 C1415 1.419 . S
C1417 C1418 1.362 . S
C1418 H1410 0.930 . S
C1418 C1417 1.362 . S
C1418 C1421 1.409 . S
C1419 H1411 0.930 . S
C1419 C1420 1.355 . S
C1419 C1421 1.415 . S
C1420 C1419 1.355 . S
C1420 C1422 1.419 . S
C1421 C1416 1.425 . S
C1421 C1418 1.409 . S
C1421 C1419 1.415 . S
C1422 H1412 0.930 . S
C1422 C1420 1.419 . S
C1422 C1423 1.362 . S
C1423 H1413 0.930 . S
C1423 C1416 1.409 . S
C1423 C1422 1.362 . S
H1424 C1430 0.930 . S
H1425 C1433 0.930 . S
H1426 C1434 0.930 . S
H1427 C1435 0.930 . S
H1428 C1438 0.930 . S
H1429 C1439 0.930 . S
C1430 H1424 0.930 . S
C1430 C1431 1.355 . S
C1430 C1432 1.415 . S
C1431 C1430 1.355 . S
C1431 C1433 1.419 . S
C1432 C1430 1.415 . S
C1432 C1437 1.425 . S
C1432 C1439 1.409 . S
C1433 H1425 0.930 . S
C1433 C1431 1.419 . S
C1433 C1434 1.362 . S
C1434 H1426 0.930 . S
C1434 C1433 1.362 . S
C1434 C1437 1.409 . S
C1435 H1427 0.930 . S
C1435 C1436 1.355 . S
C1435 C1437 1.415 . S
C1436 C1435 1.355 . S
C1436 C1438 1.419 . S
C1437 C1432 1.425 . S
C1437 C1434 1.409 . S
C1437 C1435 1.415 . S
C1438 H1428 0.930 . S
C1438 C1436 1.419 . S
C1438 C1439 1.362 . S
C1439 H1429 0.930 . S
C1439 C1432 1.409 . S
C1439 C1438 1.362 . S
H1440 C1446 0.930 . S
H1441 C1449 0.930 . S
H1442 C1450 0.930 . S
H1443 C1451 0.930 . S
H1444 C1454 0.930 . S
H1445 C1455 0.930 . S
C1446 H1440 0.930 . S
C1446 C1447 1.355 . S
C1446 C1448 1.415 . S
C1447 C1446 1.355 . S
C1447 C1449 1.419 . S
C1448 C1446 1.415 . S
C1448 C1453 1.425 . S
C1448 C1455 1.409 . S
C1449 H1441 0.930 . S
C1449 C1447 1.419 . S
C1449 C1450 1.362 . S
C1450 H1442 0.930 . S
C1450 C1449 1.362 . S
C1450 C1453 1.409 . S
C1451 H1443 0.930 . S
C1451 C1452 1.355 . S
C1451 C1453 1.415 . S
C1452 C1451 1.355 . S
C1452 C1454 1.419 . S
C1453 C1448 1.425 . S
C1453 C1450 1.409 . S
C1453 C1451 1.415 . S
C1454 H1444 0.930 . S
C1454 C1452 1.419 . S
C1454 C1455 1.362 . S
C1455 H1445 0.930 . S
C1455 C1448 1.409 . S
C1455 C1454 1.362 . S
H1456 C1462 0.930 . S
H1457 C1465 0.930 . S
H1458 C1466 0.930 . S
H1459 C1467 0.930 . S
H1460 C1470 0.930 . S
H1461 C1471 0.930 . S
C1462 H1456 0.930 . S
C1462 C1463 1.355 . S
C1462 C1464 1.415 . S
C1463 C1462 1.355 . S
C1463 C1465 1.419 . S
C1464 C1462 1.415 . S
C1464 C1469 1.425 . S
C1464 C1471 1.409 . S
C1465 H1457 0.930 . S
C1465 C1463 1.419 . S
C1465 C1466 1.362 . S
C1466 H1458 0.930 . S
C1466 C1465 1.362 . S
C1466 C1469 1.409 . S
C1467 H1459 0.930 . S
C1467 C1468 1.355 . S
C1467 C1469 1.415 . S
C1468 C1467 1.355 . S
C1468 C1470 1.419 . S
C1469 C1464 1.425 . S
C1469 C1466 1.409 . S
C1469 C1467 1.415 . S
C1470 H1460 0.930 . S
C1470 C1468 1.419 . S
C1470 C1471 1.362 . S
C1471 H1461 0.930 . S
C1471 C1464 1.409 . S
C1471 C1470 1.362 . S
H1472 C1478 0.930 . S
H1473 C1481 0.930 . S
H1474 C1482 0.930 . S
H1475 C1483 0.930 . S
H1476 C1486 0.930 . S
H1477 C1487 0.930 . S
C1478 H1472 0.930 . S
C1478 C1479 1.355 . S
C1478 C1480 1.415 . S
C1479 C1478 1.355 . S
C1479 C1481 1.419 . S
C1480 C1478 1.415 . S
C1480 C1485 1.425 . S
C1480 C1487 1.409 . S
C1481 H1473 0.930 . S
C1481 C1479 1.419 . S
C1481 C1482 1.362 . S
C1482 H1474 0.930 . S
C1482 C1481 1.362 . S
C1482 C1485 1.409 . S
C1483 H1475 0.930 . S
C1483 C1484 1.355 . S
C1483 C1485 1.415 . S
C1484 C1483 1.355 . S
C1484 C1486 1.419 . S
C1485 C1480 1.425 . S
C1485 C1482 1.409 . S
C1485 C1483 1.415 . S
C1486 H1476 0.930 . S
C1486 C1484 1.419 . S
C1486 C1487 1.362 . S
C1487 H1477 0.930 . S
C1487 C1480 1.409 . S
C1487 C1486 1.362 . S
H1488 C1494 0.930 . S
H1489 C1497 0.930 . S
H1490 C1498 0.930 . S
H1491 C1499 0.930 . S
H1492 C1502 0.930 . S
H1493 C1503 0.930 . S
C1494 H1488 0.930 . S
C1494 C1495 1.355 . S
C1494 C1496 1.415 . S
C1495 C1494 1.355 . S
C1495 C1497 1.419 . S
C1496 C1494 1.415 . S
C1496 C1501 1.425 . S
C1496 C1503 1.409 . S
C1497 H1489 0.930 . S
C1497 C1495 1.419 . S
C1497 C1498 1.362 . S
C1498 H1490 0.930 . S
C1498 C1497 1.362 . S
C1498 C1501 1.409 . S
C1499 H1491 0.930 . S
C1499 C1500 1.355 . S
C1499 C1501 1.415 . S
C1500 C1499 1.355 . S
C1500 C1502 1.419 . S
C1501 C1496 1.425 . S
C1501 C1498 1.409 . S
C1501 C1499 1.415 . S
C1502 H1492 0.930 . S
C1502 C1500 1.419 . S
C1502 C1503 1.362 . S
C1503 H1493 0.930 . S
C1503 C1496 1.409 . S
C1503 C1502 1.362 . S
H1504 C1510 0.930 . S
H1505 C1513 0.930 . S
H1506 C1514 0.930 . S
H1507 C1515 0.930 . S
H1508 C1518 0.930 . S
H1509 C1519 0.930 . S
C1510 H1504 0.930 . S
C1510 C1511 1.355 . S
C1510 C1512 1.415 . S
C1511 C1510 1.355 . S
C1511 C1513 1.419 . S
C1512 C1510 1.415 . S
C1512 C1517 1.425 . S
C1512 C1519 1.409 . S
C1513 H1505 0.930 . S
C1513 C1511 1.419 . S
C1513 C1514 1.362 . S
C1514 H1506 0.930 . S
C1514 C1513 1.362 . S
C1514 C1517 1.409 . S
C1515 H1507 0.930 . S
C1515 C1516 1.355 . S
C1515 C1517 1.415 . S
C1516 C1515 1.355 . S
C1516 C1518 1.419 . S
C1517 C1512 1.425 . S
C1517 C1514 1.409 . S
C1517 C1515 1.415 . S
C1518 H1508 0.930 . S
C1518 C1516 1.419 . S
C1518 C1519 1.362 . S
C1519 H1509 0.930 . S
C1519 C1512 1.409 . S
C1519 C1518 1.362 . S
H1520 C1526 0.930 . S
H1521 C1529 0.930 . S
H1522 C1530 0.930 . S
H1523 C1531 0.930 . S
H1524 C1534 0.930 . S
H1525 C1535 0.930 . S
C1526 H1520 0.930 . S
C1526 C1527 1.355 . S
C1526 C1528 1.415 . S
C1527 C1526 1.355 . S
C1527 C1529 1.419 . S
C1528 C1526 1.415 . S
C1528 C1533 1.425 . S
C1528 C1535 1.409 . S
C1529 H1521 0.930 . S
C1529 C1527 1.419 . S
C1529 C1530 1.362 . S
C1530 H1522 0.930 . S
C1530 C1529 1.362 . S
C1530 C1533 1.409 . S
C1531 H1523 0.930 . S
C1531 C1532 1.355 . S
C1531 C1533 1.415 . S
C1532 C1531 1.355 . S
C1532 C1534 1.419 . S
C1533 C1528 1.425 . S
C1533 C1530 1.409 . S
C1533 C1531 1.415 . S
C1534 H1524 0.930 . S
C1534 C1532 1.419 . S
C1534 C1535 1.362 . S
C1535 H1525 0.930 . S
C1535 C1528 1.409 . S
C1535 C1534 1.362 . S
H1536 C1542 0.930 . S
H1537 C1545 0.930 . S
H1538 C1546 0.930 . S
H1539 C1547 0.930 . S
H1540 C1550 0.930 . S
H1541 C1551 0.930 . S
C1542 H1536 0.930 . S
C1542 C1543 1.356 . S
C1542 C1544 1.415 . S
C1543 C1542 1.356 . S
C1543 C1545 1.417 1_655 S
C1544 C1542 1.415 . S
C1544 C1549 1.425 1_655 S
C1544 C1551 1.409 . S
C1545 H1537 0.930 . S
C1545 C1543 1.417 1_455 S
C1545 C1546 1.362 . S
C1546 H1538 0.930 . S
C1546 C1545 1.362 . S
C1546 C1549 1.409 . S
C1547 H1539 0.930 . S
C1547 C1548 1.355 1_455 S
C1547 C1549 1.415 1_556 S
C1548 C1547 1.355 1_655 S
C1548 C1550 1.419 . S
C1549 C1544 1.425 1_455 S
C1549 C1546 1.409 . S
C1549 C1547 1.415 1_554 S
C1550 H1540 0.930 . S
C1550 C1548 1.419 . S
C1550 C1551 1.362 1_556 S
C1551 H1541 0.930 . S
C1551 C1544 1.409 . S
C1551 C1550 1.362 1_554 S
H1552 C1558 0.930 . S
H1553 C1561 0.930 . S
H1554 C1562 0.930 . S
H1555 C1563 0.930 . S
H1556 C1566 0.930 . S
H1557 C1567 0.930 . S
C1558 H1552 0.930 . S
C1558 C1559 1.355 . S
C1558 C1560 1.415 . S
C1559 C1558 1.355 . S
C1559 C1561 1.419 . S
C1560 C1558 1.415 . S
C1560 C1565 1.425 . S
C1560 C1567 1.409 . S
C1561 H1553 0.930 . S
C1561 C1559 1.419 . S
C1561 C1562 1.362 . S
C1562 H1554 0.930 . S
C1562 C1561 1.362 . S
C1562 C1565 1.409 . S
C1563 H1555 0.930 . S
C1563 C1564 1.355 . S
C1563 C1565 1.415 . S
C1564 C1563 1.355 . S
C1564 C1566 1.419 . S
C1565 C1560 1.425 . S
C1565 C1562 1.409 . S
C1565 C1563 1.415 . S
C1566 H1556 0.930 . S
C1566 C1564 1.419 . S
C1566 C1567 1.362 . S
C1567 H1557 0.930 . S
C1567 C1560 1.409 . S
C1567 C1566 1.362 . S
H1568 C1574 0.930 . S
H1569 C1577 0.930 . S
H1570 C1578 0.930 . S
H1571 C1579 0.930 . S
H1572 C1582 0.930 . S
H1573 C1583 0.930 . S
C1574 H1568 0.930 . S
C1574 C1575 1.355 . S
C1574 C1576 1.415 . S
C1575 C1574 1.355 . S
C1575 C1577 1.419 . S
C1576 C1574 1.415 . S
C1576 C1581 1.425 . S
C1576 C1583 1.409 . S
C1577 H1569 0.930 . S
C1577 C1575 1.419 . S
C1577 C1578 1.362 . S
C1578 H1570 0.930 . S
C1578 C1577 1.362 . S
C1578 C1581 1.409 . S
C1579 H1571 0.930 . S
C1579 C1580 1.355 . S
C1579 C1581 1.415 . S
C1580 C1579 1.355 . S
C1580 C1582 1.419 . S
C1581 C1576 1.425 . S
C1581 C1578 1.409 . S
C1581 C1579 1.415 . S
C1582 H1572 0.930 . S
C1582 C1580 1.419 . S
C1582 C1583 1.362 . S
C1583 H1573 0.930 . S
C1583 C1576 1.409 . S
C1583 C1582 1.362 . S
H1584 C1590 0.930 . S
H1585 C1593 0.930 . S
H1586 C1594 0.930 . S
H1587 C1595 0.930 . S
H1588 C1598 0.930 . S
H1589 C1599 0.930 . S
C1590 H1584 0.930 . S
C1590 C1591 1.355 . S
C1590 C1592 1.415 . S
C1591 C1590 1.355 . S
C1591 C1593 1.419 . S
C1592 C1590 1.415 . S
C1592 C1597 1.425 . S
C1592 C1599 1.409 . S
C1593 H1585 0.930 . S
C1593 C1591 1.419 . S
C1593 C1594 1.362 . S
C1594 H1586 0.930 . S
C1594 C1593 1.362 . S
C1594 C1597 1.409 . S
C1595 H1587 0.930 . S
C1595 C1596 1.355 . S
C1595 C1597 1.415 . S
C1596 C1595 1.355 . S
C1596 C1598 1.419 . S
C1597 C1592 1.425 . S
C1597 C1594 1.409 . S
C1597 C1595 1.415 . S
C1598 H1588 0.930 . S
C1598 C1596 1.419 . S
C1598 C1599 1.362 . S
C1599 H1589 0.930 . S
C1599 C1592 1.409 . S
C1599 C1598 1.362 . S
H1600 C1606 0.930 . S
H1601 C1609 0.930 . S
H1602 C1610 0.930 . S
H1603 C1611 0.930 . S
H1604 C1614 0.930 . S
H1605 C1615 0.930 . S
C1606 H1600 0.930 . S
C1606 C1607 1.354 . S
C1606 C1608 1.415 . S
C1607 C1606 1.354 . S
C1607 C1609 1.419 1_655 S
C1608 C1606 1.415 . S
C1608 C1613 1.425 1_655 S
C1608 C1615 1.409 . S
C1609 H1601 0.930 . S
C1609 C1607 1.419 1_455 S
C1609 C1610 1.362 . S
C1610 H1602 0.930 . S
C1610 C1609 1.362 . S
C1610 C1613 1.409 . S
C1611 H1603 0.930 . S
C1611 C1612 1.355 1_455 S
C1611 C1613 1.415 . S
C1612 C1611 1.355 1_655 S
C1612 C1614 1.419 . S
C1613 C1608 1.425 1_455 S
C1613 C1610 1.409 . S
C1613 C1611 1.415 . S
C1614 H1604 0.930 . S
C1614 C1612 1.419 . S
C1614 C1615 1.362 . S
C1615 H1605 0.930 . S
C1615 C1608 1.409 . S
C1615 C1614 1.362 . S
H1616 C1622 0.930 . S
H1617 C1625 0.930 . S
H1618 C1626 0.930 . S
H1619 C1627 0.930 . S
H1620 C1630 0.930 . S
H1621 C1631 0.930 . S
C1622 H1616 0.930 . S
C1622 C1623 1.355 . S
C1622 C1624 1.415 . S
C1623 C1622 1.355 . S
C1623 C1625 1.419 . S
C1624 C1622 1.415 . S
C1624 C1629 1.425 . S
C1624 C1631 1.409 . S
C1625 H1617 0.930 . S
C1625 C1623 1.419 . S
C1625 C1626 1.362 . S
C1626 H1618 0.930 . S
C1626 C1625 1.362 . S
C1626 C1629 1.409 . S
C1627 H1619 0.930 . S
C1627 C1628 1.355 . S
C1627 C1629 1.415 . S
C1628 C1627 1.355 . S
C1628 C1630 1.419 . S
C1629 C1624 1.425 . S
C1629 C1626 1.409 . S
C1629 C1627 1.415 . S
C1630 H1620 0.930 . S
C1630 C1628 1.419 . S
C1630 C1631 1.362 . S
C1631 H1621 0.930 . S
C1631 C1624 1.409 . S
C1631 C1630 1.362 . S
H1632 C1638 0.930 . S
H1633 C1641 0.930 . S
H1634 C1642 0.930 . S
H1635 C1643 0.930 . S
H1636 C1646 0.930 . S
H1637 C1647 0.930 1_554 S
C1638 H1632 0.930 . S
C1638 C1639 1.355 . S
C1638 C1640 1.415 . S
C1639 C1638 1.355 . S
C1639 C1641 1.419 . S
C1640 C1638 1.415 . S
C1640 C1645 1.425 . S
C1640 C1647 1.409 1_554 S
C1641 H1633 0.930 . S
C1641 C1639 1.419 . S
C1641 C1642 1.362 . S
C1642 H1634 0.930 . S
C1642 C1641 1.362 . S
C1642 C1645 1.409 . S
C1643 H1635 0.930 . S
C1643 C1644 1.355 . S
C1643 C1645 1.415 1_556 S
C1644 C1643 1.355 . S
C1644 C1646 1.419 . S
C1645 C1640 1.425 . S
C1645 C1642 1.409 . S
C1645 C1643 1.415 1_554 S
C1646 H1636 0.930 . S
C1646 C1644 1.419 . S
C1646 C1647 1.362 . S
C1647 H1637 0.930 1_556 S
C1647 C1640 1.409 1_556 S
C1647 C1646 1.362 . S
H1648 C1654 0.930 . S
H1649 C1657 0.930 . S
H1650 C1658 0.930 . S
H1651 C1659 0.930 . S
H1652 C1662 0.930 . S
H1653 C1663 0.930 . S
C1654 H1648 0.930 . S
C1654 C1655 1.355 . S
C1654 C1656 1.415 . S
C1655 C1654 1.355 . S
C1655 C1657 1.419 . S
C1656 C1654 1.415 . S
C1656 C1661 1.425 . S
C1656 C1663 1.409 . S
C1657 H1649 0.930 . S
C1657 C1655 1.419 . S
C1657 C1658 1.362 . S
C1658 H1650 0.930 . S
C1658 C1657 1.362 . S
C1658 C1661 1.409 . S
C1659 H1651 0.930 . S
C1659 C1660 1.355 . S
C1659 C1661 1.415 . S
C1660 C1659 1.355 . S
C1660 C1662 1.419 . S
C1661 C1656 1.425 . S
C1661 C1658 1.409 . S
C1661 C1659 1.415 . S
C1662 H1652 0.930 . S
C1662 C1660 1.419 . S
C1662 C1663 1.362 . S
C1663 H1653 0.930 . S
C1663 C1656 1.409 . S
C1663 C1662 1.362 . S
H1664 C1670 0.930 . S
H1665 C1673 0.930 . S
H1666 C1674 0.930 . S
H1667 C1675 0.930 . S
H1668 C1678 0.930 . S
H1669 C1679 0.930 . S
C1670 H1664 0.930 . S
C1670 C1671 1.355 . S
C1670 C1672 1.415 . S
C1671 C1670 1.355 . S
C1671 C1673 1.419 . S
C1672 C1670 1.415 . S
C1672 C1677 1.425 . S
C1672 C1679 1.409 . S
C1673 H1665 0.930 . S
C1673 C1671 1.419 . S
C1673 C1674 1.362 . S
C1674 H1666 0.930 . S
C1674 C1673 1.362 . S
C1674 C1677 1.409 . S
C1675 H1667 0.930 . S
C1675 C1676 1.355 . S
C1675 C1677 1.415 . S
C1676 C1675 1.355 . S
C1676 C1678 1.419 . S
C1677 C1672 1.425 . S
C1677 C1674 1.409 . S
C1677 C1675 1.415 . S
C1678 H1668 0.930 . S
C1678 C1676 1.419 . S
C1678 C1679 1.362 . S
C1679 H1669 0.930 . S
C1679 C1672 1.409 . S
C1679 C1678 1.362 . S
H1680 C1686 0.930 . S
H1681 C1689 0.930 . S
H1682 C1690 0.930 . S
H1683 C1691 0.930 . S
H1684 C1694 0.930 . S
H1685 C1695 0.930 . S
C1686 H1680 0.930 . S
C1686 C1687 1.355 . S
C1686 C1688 1.415 . S
C1687 C1686 1.355 . S
C1687 C1689 1.419 . S
C1688 C1686 1.415 . S
C1688 C1693 1.425 . S
C1688 C1695 1.409 . S
C1689 H1681 0.930 . S
C1689 C1687 1.419 . S
C1689 C1690 1.362 . S
C1690 H1682 0.930 . S
C1690 C1689 1.362 . S
C1690 C1693 1.409 . S
C1691 H1683 0.930 . S
C1691 C1692 1.355 . S
C1691 C1693 1.415 . S
C1692 C1691 1.355 . S
C1692 C1694 1.419 . S
C1693 C1688 1.425 . S
C1693 C1690 1.409 . S
C1693 C1691 1.415 . S
C1694 H1684 0.930 . S
C1694 C1692 1.419 . S
C1694 C1695 1.362 . S
C1695 H1685 0.930 . S
C1695 C1688 1.409 . S
C1695 C1694 1.362 . S
H1696 C1702 0.930 . S
H1697 C1705 0.930 . S
H1698 C1706 0.930 . S
H1699 C1707 0.930 . S
H1700 C1710 0.930 . S
H1701 C1711 0.930 . S
C1702 H1696 0.930 . S
C1702 C1703 1.355 . S
C1702 C1704 1.415 . S
C1703 C1702 1.355 . S
C1703 C1705 1.419 . S
C1704 C1702 1.415 . S
C1704 C1709 1.425 . S
C1704 C1711 1.409 . S
C1705 H1697 0.930 . S
C1705 C1703 1.419 . S
C1705 C1706 1.362 . S
C1706 H1698 0.930 . S
C1706 C1705 1.362 . S
C1706 C1709 1.409 . S
C1707 H1699 0.930 . S
C1707 C1708 1.355 . S
C1707 C1709 1.415 . S
C1708 C1707 1.355 . S
C1708 C1710 1.419 . S
C1709 C1704 1.425 . S
C1709 C1706 1.409 . S
C1709 C1707 1.415 . S
C1710 H1700 0.930 . S
C1710 C1708 1.419 . S
C1710 C1711 1.362 . S
C1711 H1701 0.930 . S
C1711 C1704 1.409 . S
C1711 C1710 1.362 . S
H1712 C1718 0.930 . S
H1713 C1721 0.930 . S
H1714 C1722 0.930 . S
H1715 C1723 0.930 . S
H1716 C1726 0.930 . S
H1717 C1727 0.930 . S
C1718 H1712 0.930 . S
C1718 C1719 1.355 . S
C1718 C1720 1.415 . S
C1719 C1718 1.355 . S
C1719 C1721 1.419 . S
C1720 C1718 1.415 . S
C1720 C1725 1.425 . S
C1720 C1727 1.409 . S
C1721 H1713 0.930 . S
C1721 C1719 1.419 . S
C1721 C1722 1.362 . S
C1722 H1714 0.930 . S
C1722 C1721 1.362 . S
C1722 C1725 1.409 . S
C1723 H1715 0.930 . S
C1723 C1724 1.355 . S
C1723 C1725 1.415 . S
C1724 C1723 1.355 . S
C1724 C1726 1.419 . S
C1725 C1720 1.425 . S
C1725 C1722 1.409 . S
C1725 C1723 1.415 . S
C1726 H1716 0.930 . S
C1726 C1724 1.419 . S
C1726 C1727 1.362 . S
C1727 H1717 0.930 . S
C1727 C1720 1.409 . S
C1727 C1726 1.362 . S
H1728 C1734 0.930 1_545 S
H1729 C1737 0.930 . S
H1730 C1738 0.930 . S
H1731 C1739 0.930 . S
H1732 C1742 0.930 . S
H1733 C1743 0.930 . S
C1734 H1728 0.930 1_565 S
C1734 C1735 1.355 . S
C1734 C1736 1.416 . S
C1735 C1734 1.355 . S
C1735 C1737 1.419 . S
C1736 C1734 1.416 . S
C1736 C1741 1.436 . S
C1736 C1743 1.399 1_565 S
C1737 H1729 0.930 . S
C1737 C1735 1.419 . S
C1737 C1738 1.362 . S
C1738 H1730 0.930 . S
C1738 C1737 1.362 . S
C1738 C1741 1.409 . S
C1739 H1731 0.930 . S
C1739 C1740 1.359 1_565 S
C1739 C1741 1.415 . S
C1740 C1739 1.359 1_545 S
C1740 C1742 1.415 . S
C1741 C1736 1.436 . S
C1741 C1738 1.409 . S
C1741 C1739 1.415 . S
C1742 H1732 0.930 . S
C1742 C1740 1.415 . S
C1742 C1743 1.362 . S
C1743 H1733 0.930 . S
C1743 C1736 1.399 1_545 S
C1743 C1742 1.362 . S
H1744 C1750 0.930 . S
H1745 C1753 0.931 . S
H1746 C1754 0.930 . S
H1747 C1755 0.930 . S
H1748 C1758 0.930 . S
H1749 C1759 0.931 . S
C1750 H1744 0.930 . S
C1750 C1751 1.363 . S
C1750 C1752 1.415 . S
C1751 C1750 1.363 . S
C1751 C1753 1.422 1_545 S
C1752 C1750 1.415 . S
C1752 C1757 1.425 1_545 S
C1752 C1759 1.409 1_554 S
C1753 H1745 0.931 . S
C1753 C1751 1.422 1_565 S
C1753 C1754 1.362 . S
C1754 H1746 0.930 . S
C1754 C1753 1.362 . S
C1754 C1757 1.409 . S
C1755 H1747 0.930 . S
C1755 C1756 1.355 1_565 S
C1755 C1757 1.415 1_556 S
C1756 C1755 1.355 1_545 S
C1756 C1758 1.419 . S
C1757 C1752 1.425 1_565 S
C1757 C1754 1.409 . S
C1757 C1755 1.415 1_554 S
C1758 H1748 0.930 . S
C1758 C1756 1.419 . S
C1758 C1759 1.362 . S
C1759 H1749 0.931 . S
C1759 C1752 1.409 1_556 S
C1759 C1758 1.362 . S
H1760 C1766 0.930 . S
H1761 C1769 0.930 . S
H1762 C1770 0.930 1_554 S
H1763 C1771 0.930 . S
H1764 C1774 0.930 . S
H1765 C1775 0.930 . S
C1766 H1760 0.930 . S
C1766 C1767 1.355 . S
C1766 C1768 1.415 1_556 S
C1767 C1766 1.355 . S
C1767 C1769 1.419 1_545 S
C1768 C1766 1.415 1_554 S
C1768 C1773 1.425 1_545 S
C1768 C1775 1.409 . S
C1769 H1761 0.930 . S
C1769 C1767 1.419 1_565 S
C1769 C1770 1.362 . S
C1770 H1762 0.930 1_556 S
C1770 C1769 1.362 . S
C1770 C1773 1.409 1_556 S
C1771 H1763 0.930 . S
C1771 C1772 1.355 1_565 S
C1771 C1773 1.415 . S
C1772 C1771 1.355 1_545 S
C1772 C1774 1.419 . S
C1773 C1768 1.425 1_565 S
C1773 C1770 1.409 1_554 S
C1773 C1771 1.415 . S
C1774 H1764 0.930 . S
C1774 C1772 1.419 . S
C1774 C1775 1.362 . S
C1775 H1765 0.930 . S
C1775 C1768 1.409 . S
C1775 C1774 1.362 . S
H1776 C1782 0.930 . S
H1777 C1785 0.930 . S
H1778 C1786 0.930 . S
H1779 C1787 0.930 . S
H1780 C1790 0.930 . S
H1781 C1791 0.930 . S
C1782 H1776 0.930 . S
C1782 C1783 1.347 1_565 S
C1782 C1784 1.415 . S
C1783 C1782 1.347 1_545 S
C1783 C1785 1.428 1_455 S
C1784 C1782 1.415 . S
C1784 C1789 1.411 1_465 S
C1784 C1791 1.409 . S
C1785 H1777 0.930 . S
C1785 C1783 1.428 1_655 S
C1785 C1786 1.362 . S
C1786 H1778 0.930 . S
C1786 C1785 1.362 . S
C1786 C1789 1.418 . S
C1787 H1779 0.930 . S
C1787 C1788 1.355 1_645 S
C1787 C1789 1.420 . S
C1788 C1787 1.355 1_465 S
C1788 C1790 1.419 . S
C1789 C1784 1.411 1_645 S
C1789 C1786 1.418 . S
C1789 C1787 1.420 . S
C1790 H1780 0.930 . S
C1790 C1788 1.419 . S
C1790 C1791 1.362 . S
C1791 H1781 0.930 . S
C1791 C1784 1.409 . S
C1791 C1790 1.362 . S
H1792 C1798 0.930 . S
H1793 C1801 0.930 . S
H1794 C1802 0.930 . S
H1795 C1803 0.930 . S
H1796 C1806 0.930 . S
H1797 C1807 0.929 . S
C1798 H1792 0.930 . S
C1798 C1799 1.355 . S
C1798 C1800 1.415 . S
C1799 C1798 1.355 . S
C1799 C1801 1.419 . S
C1800 C1798 1.415 . S
C1800 C1805 1.425 1_455 S
C1800 C1807 1.409 1_455 S
C1801 H1793 0.930 . S
C1801 C1799 1.419 . S
C1801 C1802 1.362 . S
C1802 H1794 0.930 . S
C1802 C1801 1.362 . S
C1802 C1805 1.409 1_455 S
C1803 H1795 0.930 . S
C1803 C1804 1.355 . S
C1803 C1805 1.415 . S
C1804 C1803 1.355 . S
C1804 C1806 1.419 . S
C1805 C1800 1.425 1_655 S
C1805 C1802 1.409 1_655 S
C1805 C1803 1.415 . S
C1806 H1796 0.930 . S
C1806 C1804 1.419 . S
C1806 C1807 1.362 . S
C1807 H1797 0.929 . S
C1807 C1800 1.409 1_655 S
C1807 C1806 1.362 . S
H1808 C1814 0.930 . S
H1809 C1817 0.930 . S
H1810 C1818 0.930 . S
H1811 C1819 0.930 . S
H1812 C1822 0.930 . S
H1813 C1823 0.930 . S
C1814 H1808 0.930 . S
C1814 C1815 1.355 . S
C1814 C1816 1.415 1_556 S
C1815 C1814 1.355 . S
C1815 C1817 1.419 1_556 S
C1816 C1814 1.415 1_554 S
C1816 C1821 1.425 . S
C1816 C1823 1.409 . S
C1817 H1809 0.930 . S
C1817 C1815 1.419 1_554 S
C1817 C1818 1.362 . S
C1818 H1810 0.930 . S
C1818 C1817 1.362 . S
C1818 C1821 1.409 . S
C1819 H1811 0.930 . S
C1819 C1820 1.355 . S
C1819 C1821 1.415 . S
C1820 C1819 1.355 . S
C1820 C1822 1.419 . S
C1821 C1816 1.425 . S
C1821 C1818 1.409 . S
C1821 C1819 1.415 . S
C1822 H1812 0.930 . S
C1822 C1820 1.419 . S
C1822 C1823 1.362 . S
C1823 H1813 0.930 . S
C1823 C1816 1.409 . S
C1823 C1822 1.362 . S
H1824 C1830 0.930 . S
H1825 C1833 0.930 . S
H1826 C1834 0.930 . S
H1827 C1835 0.930 . S
H1828 C1838 0.930 . S
H1829 C1839 0.930 . S
C1830 H1824 0.930 . S
C1830 C1831 1.355 . S
C1830 C1832 1.415 . S
C1831 C1830 1.355 . S
C1831 C1833 1.419 . S
C1832 C1830 1.415 . S
C1832 C1837 1.425 . S
C1832 C1839 1.409 . S
C1833 H1825 0.930 . S
C1833 C1831 1.419 . S
C1833 C1834 1.362 . S
C1834 H1826 0.930 . S
C1834 C1833 1.362 . S
C1834 C1837 1.409 . S
C1835 H1827 0.930 . S
C1835 C1836 1.355 . S
C1835 C1837 1.415 . S
C1836 C1835 1.355 . S
C1836 C1838 1.419 . S
C1837 C1832 1.425 . S
C1837 C1834 1.409 . S
C1837 C1835 1.415 . S
C1838 H1828 0.930 . S
C1838 C1836 1.419 . S
C1838 C1839 1.362 . S
C1839 H1829 0.930 . S
C1839 C1832 1.409 . S
C1839 C1838 1.362 . S
H1840 C1846 0.930 . S
H1841 C1849 0.930 . S
H1842 C1850 0.930 . S
H1843 C1851 0.930 . S
H1844 C1854 0.930 . S
H1845 C1855 0.930 . S
C1846 H1840 0.930 . S
C1846 C1847 1.355 . S
C1846 C1848 1.415 . S
C1847 C1846 1.355 . S
C1847 C1849 1.419 . S
C1848 C1846 1.415 . S
C1848 C1853 1.425 . S
C1848 C1855 1.409 . S
C1849 H1841 0.930 . S
C1849 C1847 1.419 . S
C1849 C1850 1.362 . S
C1850 H1842 0.930 . S
C1850 C1849 1.362 . S
C1850 C1853 1.409 . S
C1851 H1843 0.930 . S
C1851 C1852 1.355 . S
C1851 C1853 1.415 . S
C1852 C1851 1.355 . S
C1852 C1854 1.419 . S
C1853 C1848 1.425 . S
C1853 C1850 1.409 . S
C1853 C1851 1.415 . S
C1854 H1844 0.930 . S
C1854 C1852 1.419 . S
C1854 C1855 1.362 . S
C1855 H1845 0.930 . S
C1855 C1848 1.409 . S
C1855 C1854 1.362 . S
H1856 C1862 0.930 . S
H1857 C1865 0.930 . S
H1858 C1866 0.930 . S
H1859 C1867 0.930 . S
H1860 C1870 0.930 . S
H1861 C1871 0.930 . S
C1862 H1856 0.930 . S
C1862 C1863 1.355 . S
C1862 C1864 1.415 1_655 S
C1863 C1862 1.355 . S
C1863 C1865 1.419 . S
C1864 C1862 1.415 1_455 S
C1864 C1869 1.425 1_455 S
C1864 C1871 1.409 . S
C1865 H1857 0.930 . S
C1865 C1863 1.419 . S
C1865 C1866 1.362 . S
C1866 H1858 0.930 . S
C1866 C1865 1.362 . S
C1866 C1869 1.409 . S
C1867 H1859 0.930 . S
C1867 C1868 1.355 . S
C1867 C1869 1.415 1_455 S
C1868 C1867 1.355 . S
C1868 C1870 1.419 . S
C1869 C1864 1.425 1_655 S
C1869 C1866 1.409 . S
C1869 C1867 1.415 1_655 S
C1870 H1860 0.930 . S
C1870 C1868 1.419 . S
C1870 C1871 1.362 . S
C1871 H1861 0.930 . S
C1871 C1864 1.409 . S
C1871 C1870 1.362 . S
H1872 C1878 0.930 . S
H1873 C1881 0.930 . S
H1874 C1882 0.930 . S
H1875 C1883 0.930 . S
H1876 C1886 0.930 . S
H1877 C1887 0.930 . S
C1878 H1872 0.930 . S
C1878 C1879 1.355 . S
C1878 C1880 1.415 . S
C1879 C1878 1.355 . S
C1879 C1881 1.419 . S
C1880 C1878 1.415 . S
C1880 C1885 1.425 . S
C1880 C1887 1.409 1_554 S
C1881 H1873 0.930 . S
C1881 C1879 1.419 . S
C1881 C1882 1.362 . S
C1882 H1874 0.930 . S
C1882 C1881 1.362 . S
C1882 C1885 1.409 . S
C1883 H1875 0.930 . S
C1883 C1884 1.355 . S
C1883 C1885 1.415 1_556 S
C1884 C1883 1.355 . S
C1884 C1886 1.419 . S
C1885 C1880 1.425 . S
C1885 C1882 1.409 . S
C1885 C1883 1.415 1_554 S
C1886 H1876 0.930 . S
C1886 C1884 1.419 . S
C1886 C1887 1.362 . S
C1887 H1877 0.930 . S
C1887 C1880 1.409 1_556 S
C1887 C1886 1.362 . S
H1888 C1894 0.930 . S
H1889 C1897 0.930 . S
H1890 C1898 0.930 . S
H1891 C1899 0.930 . S
H1892 C1902 0.930 . S
H1893 C1903 0.930 . S
C1894 H1888 0.930 . S
C1894 C1895 1.355 . S
C1894 C1896 1.415 . S
C1895 C1894 1.355 . S
C1895 C1897 1.419 . S
C1896 C1894 1.415 . S
C1896 C1901 1.425 . S
C1896 C1903 1.409 . S
C1897 H1889 0.930 . S
C1897 C1895 1.419 . S
C1897 C1898 1.362 . S
C1898 H1890 0.930 . S
C1898 C1897 1.362 . S
C1898 C1901 1.409 . S
C1899 H1891 0.930 . S
C1899 C1900 1.355 . S
C1899 C1901 1.415 . S
C1900 C1899 1.355 . S
C1900 C1902 1.419 . S
C1901 C1896 1.425 . S
C1901 C1898 1.409 . S
C1901 C1899 1.415 . S
C1902 H1892 0.930 . S
C1902 C1900 1.419 . S
C1902 C1903 1.362 . S
C1903 H1893 0.930 . S
C1903 C1896 1.409 . S
C1903 C1902 1.362 . S
H1904 C1910 0.930 . S
H1905 C1913 0.930 . S
H1906 C1914 0.930 . S
H1907 C1915 0.930 . S
H1908 C1918 0.930 . S
H1909 C1919 0.930 . S
C1910 H1904 0.930 . S
C1910 C1911 1.355 . S
C1910 C1912 1.415 . S
C1911 C1910 1.355 . S
C1911 C1913 1.419 . S
C1912 C1910 1.415 . S
C1912 C1917 1.425 . S
C1912 C1919 1.409 . S
C1913 H1905 0.930 . S
C1913 C1911 1.419 . S
C1913 C1914 1.362 . S
C1914 H1906 0.930 . S
C1914 C1913 1.362 . S
C1914 C1917 1.409 . S
C1915 H1907 0.930 . S
C1915 C1916 1.355 . S
C1915 C1917 1.415 . S
C1916 C1915 1.355 . S
C1916 C1918 1.419 . S
C1917 C1912 1.425 . S
C1917 C1914 1.409 . S
C1917 C1915 1.415 . S
C1918 H1908 0.930 . S
C1918 C1916 1.419 . S
C1918 C1919 1.362 . S
C1919 H1909 0.930 . S
C1919 C1912 1.409 . S
C1919 C1918 1.362 . S
H1920 C1926 0.930 . S
H1921 C1929 0.930 . S
H1922 C1930 0.930 . S
H1923 C1931 0.930 . S
H1924 C1934 0.930 . S
H1925 C1935 0.930 . S
C1926 H1920 0.930 . S
C1926 C1927 1.355 . S
C1926 C1928 1.415 1_455 S
C1927 C1926 1.355 . S
C1927 C1929 1.419 . S
C1928 C1926 1.415 1_655 S
C1928 C1933 1.425 1_655 S
C1928 C1935 1.409 . S
C1929 H1921 0.930 . S
C1929 C1927 1.419 . S
C1929 C1930 1.362 . S
C1930 H1922 0.930 . S
C1930 C1929 1.362 . S
C1930 C1933 1.409 . S
C1931 H1923 0.930 . S
C1931 C1932 1.355 . S
C1931 C1933 1.415 1_655 S
C1932 C1931 1.355 . S
C1932 C1934 1.419 . S
C1933 C1928 1.425 1_455 S
C1933 C1930 1.409 . S
C1933 C1931 1.415 1_455 S
C1934 H1924 0.930 . S
C1934 C1932 1.419 . S
C1934 C1935 1.362 . S
C1935 H1925 0.930 . S
C1935 C1928 1.409 . S
C1935 C1934 1.362 . S
H1936 C1942 0.930 . S
H1937 C1945 0.930 . S
H1938 C1946 0.930 . S
H1939 C1947 0.930 . S
H1940 C1950 0.930 . S
H1941 C1951 0.930 . S
C1942 H1936 0.930 . S
C1942 C1943 1.355 . S
C1942 C1944 1.415 . S
C1943 C1942 1.355 . S
C1943 C1945 1.419 . S
C1944 C1942 1.415 . S
C1944 C1949 1.425 1_554 S
C1944 C1951 1.409 . S
C1945 H1937 0.930 . S
C1945 C1943 1.419 . S
C1945 C1946 1.362 1_554 S
C1946 H1938 0.930 . S
C1946 C1945 1.362 1_556 S
C1946 C1949 1.409 . S
C1947 H1939 0.930 . S
C1947 C1948 1.355 . S
C1947 C1949 1.415 . S
C1948 C1947 1.355 . S
C1948 C1950 1.419 . S
C1949 C1944 1.425 1_556 S
C1949 C1946 1.409 . S
C1949 C1947 1.415 . S
C1950 H1940 0.930 . S
C1950 C1948 1.419 . S
C1950 C1951 1.362 1_556 S
C1951 H1941 0.930 . S
C1951 C1944 1.409 . S
C1951 C1950 1.362 1_554 S
H1952 C1958 0.930 . S
H1953 C1961 0.930 . S
H1954 C1962 0.930 . S
H1955 C1963 0.930 . S
H1956 C1966 0.930 . S
H1957 C1967 0.930 . S
C1958 H1952 0.930 . S
C1958 C1959 1.355 . S
C1958 C1960 1.415 . S
C1959 C1958 1.355 . S
C1959 C1961 1.419 . S
C1960 C1958 1.415 . S
C1960 C1965 1.425 . S
C1960 C1967 1.409 . S
C1961 H1953 0.930 . S
C1961 C1959 1.419 . S
C1961 C1962 1.362 . S
C1962 H1954 0.930 . S
C1962 C1961 1.362 . S
C1962 C1965 1.409 . S
C1963 H1955 0.930 . S
C1963 C1964 1.355 . S
C1963 C1965 1.415 . S
C1964 C1963 1.355 . S
C1964 C1966 1.419 . S
C1965 C1960 1.425 . S
C1965 C1962 1.409 . S
C1965 C1963 1.415 . S
C1966 H1956 0.930 . S
C1966 C1964 1.419 . S
C1966 C1967 1.362 . S
C1967 H1957 0.930 . S
C1967 C1960 1.409 . S
C1967 C1966 1.362 . S
H1968 C1974 0.930 . S
H1969 C1977 0.930 . S
H1970 C1978 0.930 . S
H1971 C1979 0.930 . S
H1972 C1982 0.930 . S
H1973 C1983 0.930 . S
C1974 H1968 0.930 . S
C1974 C1975 1.355 . S
C1974 C1976 1.415 . S
C1975 C1974 1.355 . S
C1975 C1977 1.419 . S
C1976 C1974 1.415 . S
C1976 C1981 1.425 . S
C1976 C1983 1.409 . S
C1977 H1969 0.930 . S
C1977 C1975 1.419 . S
C1977 C1978 1.362 . S
C1978 H1970 0.930 . S
C1978 C1977 1.362 . S
C1978 C1981 1.409 . S
C1979 H1971 0.930 . S
C1979 C1980 1.355 . S
C1979 C1981 1.415 . S
C1980 C1979 1.355 . S
C1980 C1982 1.419 . S
C1981 C1976 1.425 . S
C1981 C1978 1.409 . S
C1981 C1979 1.415 . S
C1982 H1972 0.930 . S
C1982 C1980 1.419 . S
C1982 C1983 1.362 . S
C1983 H1973 0.930 . S
C1983 C1976 1.409 . S
C1983 C1982 1.362 . S
H1984 C1990 0.930 . S
H1985 C1993 0.930 . S
H1986 C1994 0.930 . S
H1987 C1995 0.930 . S
H1988 C1998 0.930 . S
H1989 C1999 0.930 . S
C1990 H1984 0.930 . S
C1990 C1991 1.355 . S
C1990 C1992 1.415 . S
C1991 C1990 1.355 . S
C1991 C1993 1.419 . S
C1992 C1990 1.415 . S
C1992 C1997 1.425 1_455 S
C1992 C1999 1.409 . S
C1993 H1985 0.930 . S
C1993 C1991 1.419 . S
C1993 C1994 1.362 1_455 S
C1994 H1986 0.930 . S
C1994 C1993 1.362 1_655 S
C1994 C1997 1.409 . S
C1995 H1987 0.930 . S
C1995 C1996 1.355 . S
C1995 C1997 1.415 . S
C1996 C1995 1.355 . S
C1996 C1998 1.419 . S
C1997 C1992 1.425 1_655 S
C1997 C1994 1.409 . S
C1997 C1995 1.415 . S
C1998 H1988 0.930 . S
C1998 C1996 1.419 . S
C1998 C1999 1.362 1_655 S
C1999 H1989 0.930 . S
C1999 C1992 1.409 . S
C1999 C1998 1.362 1_455 S
H2000 C2006 0.930 . S
H2001 C2009 0.930 . S
H2002 C2010 0.930 . S
H2003 C2011 0.930 . S
H2004 C2014 0.930 . S
H2005 C2015 0.930 . S
C2006 H2000 0.930 . S
C2006 C2007 1.355 . S
C2006 C2008 1.415 1_556 S
C2007 C2006 1.355 . S
C2007 C2009 1.419 1_556 S
C2008 C2006 1.415 1_554 S
C2008 C2013 1.425 . S
C2008 C2015 1.409 . S
C2009 H2001 0.930 . S
C2009 C2007 1.419 1_554 S
C2009 C2010 1.362 . S
C2010 H2002 0.930 . S
C2010 C2009 1.362 . S
C2010 C2013 1.409 . S
C2011 H2003 0.930 . S
C2011 C2012 1.355 . S
C2011 C2013 1.415 . S
C2012 C2011 1.355 . S
C2012 C2014 1.419 . S
C2013 C2008 1.425 . S
C2013 C2010 1.409 . S
C2013 C2011 1.415 . S
C2014 H2004 0.930 . S
C2014 C2012 1.419 . S
C2014 C2015 1.362 . S
C2015 H2005 0.930 . S
C2015 C2008 1.409 . S
C2015 C2014 1.362 . S
H2016 C2022 0.930 . S
H2017 C2025 0.930 . S
H2018 C2026 0.930 . S
H2019 C2027 0.930 . S
H2020 C2030 0.930 . S
H2021 C2031 0.930 . S
C2022 H2016 0.930 . S
C2022 C2023 1.355 . S
C2022 C2024 1.415 . S
C2023 C2022 1.355 . S
C2023 C2025 1.419 . S
C2024 C2022 1.415 . S
C2024 C2029 1.425 . S
C2024 C2031 1.409 . S
C2025 H2017 0.930 . S
C2025 C2023 1.419 . S
C2025 C2026 1.362 . S
C2026 H2018 0.930 . S
C2026 C2025 1.362 . S
C2026 C2029 1.409 . S
C2027 H2019 0.930 . S
C2027 C2028 1.355 . S
C2027 C2029 1.415 . S
C2028 C2027 1.355 . S
C2028 C2030 1.419 . S
C2029 C2024 1.425 . S
C2029 C2026 1.409 . S
C2029 C2027 1.415 . S
C2030 H2020 0.930 . S
C2030 C2028 1.419 . S
C2030 C2031 1.362 . S
C2031 H2021 0.930 . S
C2031 C2024 1.409 . S
C2031 C2030 1.362 . S
H2032 C2038 0.930 . S
H2033 C2041 0.930 . S
H2034 C2042 0.930 . S
H2035 C2043 0.930 . S
H2036 C2046 0.930 . S
H2037 C2047 0.930 . S
C2038 H2032 0.930 . S
C2038 C2039 1.355 . S
C2038 C2040 1.415 . S
C2039 C2038 1.355 . S
C2039 C2041 1.419 . S
C2040 C2038 1.415 . S
C2040 C2045 1.425 . S
C2040 C2047 1.409 . S
C2041 H2033 0.930 . S
C2041 C2039 1.419 . S
C2041 C2042 1.362 . S
C2042 H2034 0.930 . S
C2042 C2041 1.362 . S
C2042 C2045 1.409 . S
C2043 H2035 0.930 . S
C2043 C2044 1.355 . S
C2043 C2045 1.415 . S
C2044 C2043 1.355 . S
C2044 C2046 1.419 . S
C2045 C2040 1.425 . S
C2045 C2042 1.409 . S
C2045 C2043 1.415 . S
C2046 H2036 0.930 . S
C2046 C2044 1.419 . S
C2046 C2047 1.362 . S
C2047 H2037 0.930 . S
C2047 C2040 1.409 . S
C2047 C2046 1.362 . S
H2048 C2054 0.930 . S
H2049 C2057 0.930 . S
H2050 C2058 0.930 . S
H2051 C2059 0.930 . S
H2052 C2062 0.930 . S
H2053 C2063 0.930 . S
C2054 H2048 0.930 . S
C2054 C2055 1.355 . S
C2054 C2056 1.415 . S
C2055 C2054 1.355 . S
C2055 C2057 1.419 . S
C2056 C2054 1.415 . S
C2056 C2061 1.425 . S
C2056 C2063 1.409 . S
C2057 H2049 0.930 . S
C2057 C2055 1.419 . S
C2057 C2058 1.362 . S
C2058 H2050 0.930 . S
C2058 C2057 1.362 . S
C2058 C2061 1.409 . S
C2059 H2051 0.930 . S
C2059 C2060 1.355 . S
C2059 C2061 1.415 . S
C2060 C2059 1.355 . S
C2060 C2062 1.419 . S
C2061 C2056 1.425 . S
C2061 C2058 1.409 . S
C2061 C2059 1.415 . S
C2062 H2052 0.930 . S
C2062 C2060 1.419 . S
C2062 C2063 1.362 . S
C2063 H2053 0.930 . S
C2063 C2056 1.409 . S
C2063 C2062 1.362 . S
H2064 C2070 0.930 . S
H2065 C2073 0.930 . S
H2066 C2074 0.930 . S
H2067 C2075 0.930 . S
H2068 C2078 0.930 . S
H2069 C2079 0.930 . S
C2070 H2064 0.930 . S
C2070 C2071 1.355 . S
C2070 C2072 1.415 . S
C2071 C2070 1.355 . S
C2071 C2073 1.419 . S
C2072 C2070 1.415 . S
C2072 C2077 1.425 . S
C2072 C2079 1.409 . S
C2073 H2065 0.930 . S
C2073 C2071 1.419 . S
C2073 C2074 1.362 . S
C2074 H2066 0.930 . S
C2074 C2073 1.362 . S
C2074 C2077 1.409 . S
C2075 H2067 0.930 . S
C2075 C2076 1.355 . S
C2075 C2077 1.415 . S
C2076 C2075 1.355 . S
C2076 C2078 1.419 . S
C2077 C2072 1.425 . S
C2077 C2074 1.409 . S
C2077 C2075 1.415 . S
C2078 H2068 0.930 . S
C2078 C2076 1.419 . S
C2078 C2079 1.362 . S
C2079 H2069 0.930 . S
C2079 C2072 1.409 . S
C2079 C2078 1.362 . S
H2080 C2086 0.930 . S
H2081 C2089 0.930 . S
H2082 C2090 0.930 . S
H2083 C2091 0.930 . S
H2084 C2094 0.930 . S
H2085 C2095 0.930 . S
C2086 H2080 0.930 . S
C2086 C2087 1.355 . S
C2086 C2088 1.368 1_655 S
C2087 C2086 1.355 . S
C2087 C2089 1.419 . S
C2088 C2086 1.368 1_455 S
C2088 C2093 1.408 1_455 S
C2088 C2095 1.476 . S
C2089 H2081 0.930 . S
C2089 C2087 1.419 . S
C2089 C2090 1.362 . S
C2090 H2082 0.930 . S
C2090 C2089 1.362 . S
C2090 C2093 1.409 . S
C2091 H2083 0.930 . S
C2091 C2092 1.355 . S
C2091 C2093 1.415 1_455 S
C2092 C2091 1.355 . S
C2092 C2094 1.419 . S
C2093 C2088 1.408 1_655 S
C2093 C2090 1.409 . S
C2093 C2091 1.415 1_655 S
C2094 H2084 0.930 . S
C2094 C2092 1.419 . S
C2094 C2095 1.362 . S
C2095 H2085 0.930 . S
C2095 C2088 1.476 . S
C2095 C2094 1.362 . S
H2096 C2102 0.930 . S
H2097 C2105 0.930 . S
H2098 C2106 0.930 . S
H2099 C2107 0.930 . S
H2100 C2110 0.930 . S
H2101 C2111 0.930 . S
C2102 H2096 0.930 . S
C2102 C2103 1.355 1_554 S
C2102 C2104 1.415 . S
C2103 C2102 1.355 1_556 S
C2103 C2105 1.419 . S
C2104 C2102 1.415 . S
C2104 C2109 1.425 . S
C2104 C2111 1.409 . S
C2105 H2097 0.930 . S
C2105 C2103 1.419 . S
C2105 C2106 1.362 . S
C2106 H2098 0.930 . S
C2106 C2105 1.362 . S
C2106 C2109 1.409 1_556 S
C2107 H2099 0.930 . S
C2107 C2108 1.355 . S
C2107 C2109 1.415 . S
C2108 C2107 1.355 . S
C2108 C2110 1.419 . S
C2109 C2104 1.425 . S
C2109 C2106 1.409 1_554 S
C2109 C2107 1.415 . S
C2110 H2100 0.930 . S
C2110 C2108 1.419 . S
C2110 C2111 1.362 . S
C2111 H2101 0.930 . S
C2111 C2104 1.409 . S
C2111 C2110 1.362 . S
H2112 C2118 0.930 . S
H2113 C2121 0.930 . S
H2114 C2122 0.930 . S
H2115 C2123 0.930 . S
H2116 C2126 0.930 . S
H2117 C2127 0.930 . S
C2118 H2112 0.930 . S
C2118 C2119 1.355 . S
C2118 C2120 1.415 . S
C2119 C2118 1.355 . S
C2119 C2121 1.419 . S
C2120 C2118 1.415 . S
C2120 C2125 1.425 . S
C2120 C2127 1.409 . S
C2121 H2113 0.930 . S
C2121 C2119 1.419 . S
C2121 C2122 1.362 . S
C2122 H2114 0.930 . S
C2122 C2121 1.362 . S
C2122 C2125 1.409 . S
C2123 H2115 0.930 . S
C2123 C2124 1.355 . S
C2123 C2125 1.415 . S
C2124 C2123 1.355 . S
C2124 C2126 1.419 . S
C2125 C2120 1.425 . S
C2125 C2122 1.409 . S
C2125 C2123 1.415 . S
C2126 H2116 0.930 . S
C2126 C2124 1.419 . S
C2126 C2127 1.362 . S
C2127 H2117 0.930 . S
C2127 C2120 1.409 . S
C2127 C2126 1.362 . S
H2128 C2134 0.930 . S
H2129 C2137 0.930 . S
H2130 C2138 0.930 . S
H2131 C2139 0.930 . S
H2132 C2142 0.930 . S
H2133 C2143 0.930 . S
C2134 H2128 0.930 . S
C2134 C2135 1.355 . S
C2134 C2136 1.415 . S
C2135 C2134 1.355 . S
C2135 C2137 1.419 . S
C2136 C2134 1.415 . S
C2136 C2141 1.425 . S
C2136 C2143 1.409 . S
C2137 H2129 0.930 . S
C2137 C2135 1.419 . S
C2137 C2138 1.362 . S
C2138 H2130 0.930 . S
C2138 C2137 1.362 . S
C2138 C2141 1.409 . S
C2139 H2131 0.930 . S
C2139 C2140 1.355 . S
C2139 C2141 1.415 . S
C2140 C2139 1.355 . S
C2140 C2142 1.419 . S
C2141 C2136 1.425 . S
C2141 C2138 1.409 . S
C2141 C2139 1.415 . S
C2142 H2132 0.930 . S
C2142 C2140 1.419 . S
C2142 C2143 1.362 . S
C2143 H2133 0.930 . S
C2143 C2136 1.409 . S
C2143 C2142 1.362 . S
H2144 C2150 0.930 . S
H2145 C2153 0.930 . S
H2146 C2154 0.930 . S
H2147 C2155 0.930 . S
H2148 C2158 0.930 . S
H2149 C2159 0.930 . S
C2150 H2144 0.930 . S
C2150 C2151 1.355 . S
C2150 C2152 1.415 1_455 S
C2151 C2150 1.355 . S
C2151 C2153 1.419 . S
C2152 C2150 1.415 1_655 S
C2152 C2157 1.425 1_655 S
C2152 C2159 1.409 . S
C2153 H2145 0.930 . S
C2153 C2151 1.419 . S
C2153 C2154 1.362 . S
C2154 H2146 0.930 . S
C2154 C2153 1.362 . S
C2154 C2157 1.409 . S
C2155 H2147 0.930 . S
C2155 C2156 1.355 . S
C2155 C2157 1.415 1_655 S
C2156 C2155 1.355 . S
C2156 C2158 1.419 . S
C2157 C2152 1.425 1_455 S
C2157 C2154 1.409 . S
C2157 C2155 1.415 1_455 S
C2158 H2148 0.930 . S
C2158 C2156 1.419 . S
C2158 C2159 1.362 . S
C2159 H2149 0.930 . S
C2159 C2152 1.409 . S
C2159 C2158 1.362 . S
H2160 C2166 0.930 . S
H2161 C2169 0.930 . S
H2162 C2170 0.930 . S
H2163 C2171 0.930 . S
H2164 C2174 0.930 . S
H2165 C2175 0.930 . S
C2166 H2160 0.930 . S
C2166 C2167 1.355 . S
C2166 C2168 1.411 1_554 S
C2167 C2166 1.355 . S
C2167 C2169 1.419 . S
C2168 C2166 1.411 1_556 S
C2168 C2173 1.423 1_556 S
C2168 C2175 1.415 . S
C2169 H2161 0.930 . S
C2169 C2167 1.419 . S
C2169 C2170 1.362 . S
C2170 H2162 0.930 . S
C2170 C2169 1.362 . S
C2170 C2173 1.409 . S
C2171 H2163 0.930 . S
C2171 C2172 1.355 . S
C2171 C2173 1.415 1_556 S
C2172 C2171 1.355 . S
C2172 C2174 1.419 . S
C2173 C2168 1.423 1_554 S
C2173 C2170 1.409 . S
C2173 C2171 1.415 1_554 S
C2174 H2164 0.930 . S
C2174 C2172 1.419 . S
C2174 C2175 1.362 . S
C2175 H2165 0.930 . S
C2175 C2168 1.415 . S
C2175 C2174 1.362 . S
H2176 C2182 0.930 . S
H2177 C2185 0.930 . S
H2178 C2186 0.930 . S
H2179 C2187 0.930 . S
H2180 C2190 0.930 . S
H2181 C2191 0.930 . S
C2182 H2176 0.930 . S
C2182 C2183 1.355 . S
C2182 C2184 1.415 . S
C2183 C2182 1.355 . S
C2183 C2185 1.419 . S
C2184 C2182 1.415 . S
C2184 C2189 1.425 . S
C2184 C2191 1.409 . S
C2185 H2177 0.930 . S
C2185 C2183 1.419 . S
C2185 C2186 1.362 . S
C2186 H2178 0.930 . S
C2186 C2185 1.362 . S
C2186 C2189 1.409 . S
C2187 H2179 0.930 . S
C2187 C2188 1.355 . S
C2187 C2189 1.415 . S
C2188 C2187 1.355 . S
C2188 C2190 1.419 . S
C2189 C2184 1.425 . S
C2189 C2186 1.409 . S
C2189 C2187 1.415 . S
C2190 H2180 0.930 . S
C2190 C2188 1.419 . S
C2190 C2191 1.362 . S
C2191 H2181 0.930 . S
C2191 C2184 1.409 . S
C2191 C2190 1.362 . S
H2192 C2198 0.930 . S
H2193 C2201 0.930 . S
H2194 C2202 0.930 . S
H2195 C2203 0.930 . S
H2196 C2206 0.930 . S
H2197 C2207 0.930 . S
C2198 H2192 0.930 . S
C2198 C2199 1.355 . S
C2198 C2200 1.415 . S
C2199 C2198 1.355 . S
C2199 C2201 1.419 . S
C2200 C2198 1.415 . S
C2200 C2205 1.425 . S
C2200 C2207 1.409 . S
C2201 H2193 0.930 . S
C2201 C2199 1.419 . S
C2201 C2202 1.362 . S
C2202 H2194 0.930 . S
C2202 C2201 1.362 . S
C2202 C2205 1.409 . S
C2203 H2195 0.930 . S
C2203 C2204 1.355 . S
C2203 C2205 1.415 . S
C2204 C2203 1.355 . S
C2204 C2206 1.419 . S
C2205 C2200 1.425 . S
C2205 C2202 1.409 . S
C2205 C2203 1.415 . S
C2206 H2196 0.930 . S
C2206 C2204 1.419 . S
C2206 C2207 1.362 . S
C2207 H2197 0.930 . S
C2207 C2200 1.409 . S
C2207 C2206 1.362 . S
H2208 C2214 0.930 . S
H2209 C2217 0.930 . S
H2210 C2218 0.930 . S
H2211 C2219 0.930 . S
H2212 C2222 0.930 . S
H2213 C2223 0.930 . S
C2214 H2208 0.930 . S
C2214 C2215 1.355 . S
C2214 C2216 1.415 1_455 S
C2215 C2214 1.355 . S
C2215 C2217 1.419 . S
C2216 C2214 1.415 1_655 S
C2216 C2221 1.425 1_655 S
C2216 C2223 1.409 . S
C2217 H2209 0.930 . S
C2217 C2215 1.419 . S
C2217 C2218 1.362 . S
C2218 H2210 0.930 . S
C2218 C2217 1.362 . S
C2218 C2221 1.409 . S
C2219 H2211 0.930 . S
C2219 C2220 1.355 . S
C2219 C2221 1.415 1_655 S
C2220 C2219 1.355 . S
C2220 C2222 1.419 . S
C2221 C2216 1.425 1_455 S
C2221 C2218 1.409 . S
C2221 C2219 1.415 1_455 S
C2222 H2212 0.930 . S
C2222 C2220 1.419 . S
C2222 C2223 1.362 . S
C2223 H2213 0.930 . S
C2223 C2216 1.409 . S
C2223 C2222 1.362 . S
H2224 C2230 0.930 1_554 S
H2225 C2233 0.930 . S
H2226 C2234 0.930 . S
H2227 C2235 0.930 . S
H2228 C2238 0.930 . S
H2229 C2239 0.930 . S
C2230 H2224 0.930 1_556 S
C2230 C2231 1.355 . S
C2230 C2232 1.415 1_556 S
C2231 C2230 1.355 . S
C2231 C2233 1.419 . S
C2232 C2230 1.415 1_554 S
C2232 C2237 1.422 1_554 S
C2232 C2239 1.409 . S
C2233 H2225 0.930 . S
C2233 C2231 1.419 . S
C2233 C2234 1.362 . S
C2234 H2226 0.930 . S
C2234 C2233 1.362 . S
C2234 C2237 1.416 . S
C2235 H2227 0.930 . S
C2235 C2236 1.355 . S
C2235 C2237 1.411 1_554 S
C2236 C2235 1.355 . S
C2236 C2238 1.419 . S
C2237 C2232 1.422 1_556 S
C2237 C2234 1.416 . S
C2237 C2235 1.411 1_556 S
C2238 H2228 0.930 . S
C2238 C2236 1.419 . S
C2238 C2239 1.362 . S
C2239 H2229 0.930 . S
C2239 C2232 1.409 . S
C2239 C2238 1.362 . S
H2240 C2246 0.930 . S
H2241 C2249 0.930 . S
H2242 C2250 0.930 . S
H2243 C2251 0.930 . S
H2244 C2254 0.930 . S
H2245 C2255 0.930 . S
C2246 H2240 0.930 . S
C2246 C2247 1.355 . S
C2246 C2248 1.415 . S
C2247 C2246 1.355 . S
C2247 C2249 1.419 . S
C2248 C2246 1.415 . S
C2248 C2253 1.425 . S
C2248 C2255 1.409 . S
C2249 H2241 0.930 . S
C2249 C2247 1.419 . S
C2249 C2250 1.362 . S
C2250 H2242 0.930 . S
C2250 C2249 1.362 . S
C2250 C2253 1.409 . S
C2251 H2243 0.930 . S
C2251 C2252 1.355 . S
C2251 C2253 1.415 . S
C2252 C2251 1.355 . S
C2252 C2254 1.419 . S
C2253 C2248 1.425 . S
C2253 C2250 1.409 . S
C2253 C2251 1.415 . S
C2254 H2244 0.930 . S
C2254 C2252 1.419 . S
C2254 C2255 1.362 . S
C2255 H2245 0.930 . S
C2255 C2248 1.409 . S
C2255 C2254 1.362 . S
H2256 C2262 0.930 . S
H2257 C2265 0.930 . S
H2258 C2266 0.930 . S
H2259 C2267 0.930 . S
H2260 C2270 0.930 . S
H2261 C2271 0.930 . S
C2262 H2256 0.930 . S
C2262 C2263 1.355 . S
C2262 C2264 1.415 . S
C2263 C2262 1.355 . S
C2263 C2265 1.419 . S
C2264 C2262 1.415 . S
C2264 C2269 1.425 . S
C2264 C2271 1.409 . S
C2265 H2257 0.930 . S
C2265 C2263 1.419 . S
C2265 C2266 1.362 . S
C2266 H2258 0.930 . S
C2266 C2265 1.362 . S
C2266 C2269 1.409 . S
C2267 H2259 0.930 . S
C2267 C2268 1.355 . S
C2267 C2269 1.415 . S
C2268 C2267 1.355 . S
C2268 C2270 1.419 . S
C2269 C2264 1.425 . S
C2269 C2266 1.409 . S
C2269 C2267 1.415 . S
C2270 H2260 0.930 . S
C2270 C2268 1.419 . S
C2270 C2271 1.362 . S
C2271 H2261 0.930 . S
C2271 C2264 1.409 . S
C2271 C2270 1.362 . S
H2272 C2278 0.930 . S
H2273 C2281 0.930 . S
H2274 C2282 0.930 . S
H2275 C2283 0.930 . S
H2276 C2286 0.930 . S
H2277 C2287 0.930 . S
C2278 H2272 0.930 . S
C2278 C2279 1.355 . S
C2278 C2280 1.363 1_455 S
C2279 C2278 1.355 . S
C2279 C2281 1.419 . S
C2280 C2278 1.363 1_655 S
C2280 C2285 1.434 . S
C2280 C2287 1.456 . S
C2281 H2273 0.930 . S
C2281 C2279 1.419 . S
C2281 C2282 1.362 . S
C2282 H2274 0.930 . S
C2282 C2281 1.362 . S
C2282 C2285 1.409 1_455 S
C2283 H2275 0.930 . S
C2283 C2284 1.355 . S
C2283 C2285 1.415 . S
C2284 C2283 1.355 . S
C2284 C2286 1.419 . S
C2285 C2280 1.434 . S
C2285 C2282 1.409 1_655 S
C2285 C2283 1.415 . S
C2286 H2276 0.930 . S
C2286 C2284 1.419 . S
C2286 C2287 1.362 . S
C2287 H2277 0.930 . S
C2287 C2280 1.456 . S
C2287 C2286 1.362 . S
H2288 C2294 0.930 . S
H2289 C2297 0.930 . S
H2290 C2298 0.930 . S
H2291 C2299 0.930 . S
H2292 C2302 0.930 . S
H2293 C2303 0.930 . S
C2294 H2288 0.930 . S
C2294 C2295 1.355 1_554 S
C2294 C2296 1.415 . S
C2295 C2294 1.355 1_556 S
C2295 C2297 1.419 . S
C2296 C2294 1.415 . S
C2296 C2301 1.425 . S
C2296 C2303 1.409 . S
C2297 H2289 0.930 . S
C2297 C2295 1.419 . S
C2297 C2298 1.362 . S
C2298 H2290 0.930 . S
C2298 C2297 1.362 . S
C2298 C2301 1.409 1_556 S
C2299 H2291 0.930 . S
C2299 C2300 1.355 . S
C2299 C2301 1.415 . S
C2300 C2299 1.355 . S
C2300 C2302 1.419 . S
C2301 C2296 1.425 . S
C2301 C2298 1.409 1_554 S
C2301 C2299 1.415 . S
C2302 H2292 0.930 . S
C2302 C2300 1.419 . S
C2302 C2303 1.362 . S
C2303 H2293 0.930 . S
C2303 C2296 1.409 . S
C2303 C2302 1.362 . S
H2304 C2310 0.930 . S
H2305 C2313 0.930 . S
H2306 C2314 0.930 . S
H2307 C2315 0.930 . S
H2308 C2318 0.930 . S
H2309 C2319 0.930 . S
C2310 H2304 0.930 . S
C2310 C2311 1.355 . S
C2310 C2312 1.415 . S
C2311 C2310 1.355 . S
C2311 C2313 1.419 . S
C2312 C2310 1.415 . S
C2312 C2317 1.425 . S
C2312 C2319 1.409 . S
C2313 H2305 0.930 . S
C2313 C2311 1.419 . S
C2313 C2314 1.362 . S
C2314 H2306 0.930 . S
C2314 C2313 1.362 . S
C2314 C2317 1.409 . S
C2315 H2307 0.930 . S
C2315 C2316 1.355 . S
C2315 C2317 1.415 . S
C2316 C2315 1.355 . S
C2316 C2318 1.419 . S
C2317 C2312 1.425 . S
C2317 C2314 1.409 . S
C2317 C2315 1.415 . S
C2318 H2308 0.930 . S
C2318 C2316 1.419 . S
C2318 C2319 1.362 . S
C2319 H2309 0.930 . S
C2319 C2312 1.409 . S
C2319 C2318 1.362 . S
H2320 C2326 0.930 . S
H2321 C2329 0.930 . S
H2322 C2330 0.930 . S
H2323 C2331 0.930 . S
H2324 C2334 0.930 . S
H2325 C2335 0.930 . S
C2326 H2320 0.930 . S
C2326 C2327 1.355 1_554 S
C2326 C2328 1.415 . S
C2327 C2326 1.355 1_556 S
C2327 C2329 1.419 . S
C2328 C2326 1.415 . S
C2328 C2333 1.425 . S
C2328 C2335 1.409 . S
C2329 H2321 0.930 . S
C2329 C2327 1.419 . S
C2329 C2330 1.362 . S
C2330 H2322 0.930 . S
C2330 C2329 1.362 . S
C2330 C2333 1.409 1_556 S
C2331 H2323 0.930 . S
C2331 C2332 1.355 . S
C2331 C2333 1.415 . S
C2332 C2331 1.355 . S
C2332 C2334 1.419 . S
C2333 C2328 1.425 . S
C2333 C2330 1.409 1_554 S
C2333 C2331 1.415 . S
C2334 H2324 0.930 . S
C2334 C2332 1.419 . S
C2334 C2335 1.362 . S
C2335 H2325 0.930 . S
C2335 C2328 1.409 . S
C2335 C2334 1.362 . S
H2336 C2342 0.930 . S
H2337 C2345 0.930 . S
H2338 C2346 0.930 . S
H2339 C2347 0.930 . S
H2340 C2350 0.930 . S
H2341 C2351 0.930 . S
C2342 H2336 0.930 . S
C2342 C2343 1.355 . S
C2342 C2344 1.415 . S
C2343 C2342 1.355 . S
C2343 C2345 1.419 . S
C2344 C2342 1.415 . S
C2344 C2349 1.425 . S
C2344 C2351 1.409 . S
C2345 H2337 0.930 . S
C2345 C2343 1.419 . S
C2345 C2346 1.362 . S
C2346 H2338 0.930 . S
C2346 C2345 1.362 . S
C2346 C2349 1.409 . S
C2347 H2339 0.930 . S
C2347 C2348 1.355 . S
C2347 C2349 1.415 . S
C2348 C2347 1.355 . S
C2348 C2350 1.419 . S
C2349 C2344 1.425 . S
C2349 C2346 1.409 . S
C2349 C2347 1.415 . S
C2350 H2340 0.930 . S
C2350 C2348 1.419 . S
C2350 C2351 1.362 . S
C2351 H2341 0.930 . S
C2351 C2344 1.409 . S
C2351 C2350 1.362 . S
H2352 C2358 0.930 . S
H2353 C2361 0.930 . S
H2354 C2362 0.930 . S
H2355 C2363 0.930 . S
H2356 C2366 0.930 . S
H2357 C2367 0.930 . S
C2358 H2352 0.930 . S
C2358 C2359 1.355 . S
C2358 C2360 1.415 . S
C2359 C2358 1.355 . S
C2359 C2361 1.419 . S
C2360 C2358 1.415 . S
C2360 C2365 1.425 . S
C2360 C2367 1.409 . S
C2361 H2353 0.930 . S
C2361 C2359 1.419 . S
C2361 C2362 1.362 . S
C2362 H2354 0.930 . S
C2362 C2361 1.362 . S
C2362 C2365 1.409 . S
C2363 H2355 0.930 . S
C2363 C2364 1.355 . S
C2363 C2365 1.415 . S
C2364 C2363 1.355 . S
C2364 C2366 1.419 . S
C2365 C2360 1.425 . S
C2365 C2362 1.409 . S
C2365 C2363 1.415 . S
C2366 H2356 0.930 . S
C2366 C2364 1.419 . S
C2366 C2367 1.362 . S
C2367 H2357 0.930 . S
C2367 C2360 1.409 . S
C2367 C2366 1.362 . S
H2368 C2374 0.930 . S
H2369 C2377 0.930 . S
H2370 C2378 0.930 . S
H2371 C2379 0.930 . S
H2372 C2382 0.930 . S
H2373 C2383 0.930 . S
C2374 H2368 0.930 . S
C2374 C2375 1.355 . S
C2374 C2376 1.415 . S
C2375 C2374 1.355 . S
C2375 C2377 1.419 . S
C2376 C2374 1.415 . S
C2376 C2381 1.425 . S
C2376 C2383 1.409 . S
C2377 H2369 0.930 . S
C2377 C2375 1.419 . S
C2377 C2378 1.362 . S
C2378 H2370 0.930 . S
C2378 C2377 1.362 . S
C2378 C2381 1.409 . S
C2379 H2371 0.930 . S
C2379 C2380 1.355 . S
C2379 C2381 1.415 . S
C2380 C2379 1.355 . S
C2380 C2382 1.419 . S
C2381 C2376 1.425 . S
C2381 C2378 1.409 . S
C2381 C2379 1.415 . S
C2382 H2372 0.930 . S
C2382 C2380 1.419 . S
C2382 C2383 1.362 . S
C2383 H2373 0.930 . S
C2383 C2376 1.409 . S
C2383 C2382 1.362 . S
H2384 C2390 0.930 . S
H2385 C2393 0.930 . S
H2386 C2394 0.930 . S
H2387 C2395 0.930 . S
H2388 C2398 0.930 . S
H2389 C2399 0.930 . S
C2390 H2384 0.930 . S
C2390 C2391 1.355 1_554 S
C2390 C2392 1.415 . S
C2391 C2390 1.355 1_556 S
C2391 C2393 1.419 . S
C2392 C2390 1.415 . S
C2392 C2397 1.425 . S
C2392 C2399 1.409 . S
C2393 H2385 0.930 . S
C2393 C2391 1.419 . S
C2393 C2394 1.362 . S
C2394 H2386 0.930 . S
C2394 C2393 1.362 . S
C2394 C2397 1.409 1_556 S
C2395 H2387 0.930 . S
C2395 C2396 1.355 . S
C2395 C2397 1.415 . S
C2396 C2395 1.355 . S
C2396 C2398 1.419 . S
C2397 C2392 1.425 . S
C2397 C2394 1.409 1_554 S
C2397 C2395 1.415 . S
C2398 H2388 0.930 . S
C2398 C2396 1.419 . S
C2398 C2399 1.362 . S
C2399 H2389 0.930 . S
C2399 C2392 1.409 . S
C2399 C2398 1.362 . S
H2400 C2406 0.930 . S
H2401 C2409 0.930 . S
H2402 C2410 0.930 . S
H2403 C2411 0.930 . S
H2404 C2414 0.930 . S
H2405 C2415 0.930 . S
C2406 H2400 0.930 . S
C2406 C2407 1.355 . S
C2406 C2408 1.415 . S
C2407 C2406 1.355 . S
C2407 C2409 1.419 . S
C2408 C2406 1.415 . S
C2408 C2413 1.425 . S
C2408 C2415 1.409 . S
C2409 H2401 0.930 . S
C2409 C2407 1.419 . S
C2409 C2410 1.362 . S
C2410 H2402 0.930 . S
C2410 C2409 1.362 . S
C2410 C2413 1.409 . S
C2411 H2403 0.930 . S
C2411 C2412 1.355 . S
C2411 C2413 1.415 . S
C2412 C2411 1.355 . S
C2412 C2414 1.419 . S
C2413 C2408 1.425 . S
C2413 C2410 1.409 . S
C2413 C2411 1.415 . S
C2414 H2404 0.930 . S
C2414 C2412 1.419 . S
C2414 C2415 1.362 . S
C2415 H2405 0.930 . S
C2415 C2408 1.409 . S
C2415 C2414 1.362 . S
H2416 C2422 0.930 . S
H2417 C2425 0.930 . S
H2418 C2426 0.930 . S
H2419 C2427 0.930 . S
H2420 C2430 0.930 . S
H2421 C2431 0.930 . S
C2422 H2416 0.930 . S
C2422 C2423 1.355 . S
C2422 C2424 1.415 . S
C2423 C2422 1.355 . S
C2423 C2425 1.419 . S
C2424 C2422 1.415 . S
C2424 C2429 1.425 . S
C2424 C2431 1.409 . S
C2425 H2417 0.930 . S
C2425 C2423 1.419 . S
C2425 C2426 1.362 . S
C2426 H2418 0.930 . S
C2426 C2425 1.362 . S
C2426 C2429 1.409 . S
C2427 H2419 0.930 . S
C2427 C2428 1.355 . S
C2427 C2429 1.415 . S
C2428 C2427 1.355 . S
C2428 C2430 1.419 . S
C2429 C2424 1.425 . S
C2429 C2426 1.409 . S
C2429 C2427 1.415 . S
C2430 H2420 0.930 . S
C2430 C2428 1.419 . S
C2430 C2431 1.362 . S
C2431 H2421 0.930 . S
C2431 C2424 1.409 . S
C2431 C2430 1.362 . S
H2432 C2438 0.930 . S
H2433 C2441 0.930 . S
H2434 C2442 0.930 . S
H2435 C2443 0.930 . S
H2436 C2446 0.930 . S
H2437 C2447 0.930 . S
C2438 H2432 0.930 . S
C2438 C2439 1.355 . S
C2438 C2440 1.415 . S
C2439 C2438 1.355 . S
C2439 C2441 1.419 . S
C2440 C2438 1.415 . S
C2440 C2445 1.425 1_565 S
C2440 C2447 1.409 . S
C2441 H2433 0.930 . S
C2441 C2439 1.419 . S
C2441 C2442 1.362 1_565 S
C2442 H2434 0.930 . S
C2442 C2441 1.362 1_545 S
C2442 C2445 1.409 . S
C2443 H2435 0.930 . S
C2443 C2444 1.355 . S
C2443 C2445 1.415 . S
C2444 C2443 1.355 . S
C2444 C2446 1.419 . S
C2445 C2440 1.425 1_545 S
C2445 C2442 1.409 . S
C2445 C2443 1.415 . S
C2446 H2436 0.930 . S
C2446 C2444 1.419 . S
C2446 C2447 1.362 1_545 S
C2447 H2437 0.930 . S
C2447 C2440 1.409 . S
C2447 C2446 1.362 1_565 S
H2448 C2454 0.930 . S
H2449 C2457 0.930 . S
H2450 C2458 0.930 . S
H2451 C2459 0.930 . S
H2452 C2462 0.930 . S
H2453 C2463 0.930 . S
C2454 H2448 0.930 . S
C2454 C2455 1.355 . S
C2454 C2456 1.415 . S
C2455 C2454 1.355 . S
C2455 C2457 1.419 . S
C2456 C2454 1.415 . S
C2456 C2461 1.425 . S
C2456 C2463 1.409 . S
C2457 H2449 0.930 . S
C2457 C2455 1.419 . S
C2457 C2458 1.362 . S
C2458 H2450 0.930 . S
C2458 C2457 1.362 . S
C2458 C2461 1.409 . S
C2459 H2451 0.930 . S
C2459 C2460 1.355 . S
C2459 C2461 1.415 . S
C2460 C2459 1.355 . S
C2460 C2462 1.419 . S
C2461 C2456 1.425 . S
C2461 C2458 1.409 . S
C2461 C2459 1.415 . S
C2462 H2452 0.930 . S
C2462 C2460 1.419 . S
C2462 C2463 1.362 . S
C2463 H2453 0.930 . S
C2463 C2456 1.409 . S
C2463 C2462 1.362 . S
H2464 C2470 0.930 . S
H2465 C2473 0.930 . S
H2466 C2474 0.930 1_565 S
H2467 C2475 0.930 . S
H2468 C2478 0.930 . S
H2469 C2479 0.930 1_545 S
C2470 H2464 0.930 . S
C2470 C2471 1.355 . S
C2470 C2472 1.415 . S
C2471 C2470 1.355 . S
C2471 C2473 1.419 . S
C2472 C2470 1.415 . S
C2472 C2477 1.425 1_545 S
C2472 C2479 1.409 1_545 S
C2473 H2465 0.930 . S
C2473 C2471 1.419 . S
C2473 C2474 1.362 . S
C2474 H2466 0.930 1_545 S
C2474 C2473 1.362 . S
C2474 C2477 1.409 1_545 S
C2475 H2467 0.930 . S
C2475 C2476 1.355 . S
C2475 C2477 1.415 . S
C2476 C2475 1.355 . S
C2476 C2478 1.419 . S
C2477 C2472 1.425 1_565 S
C2477 C2474 1.409 1_565 S
C2477 C2475 1.415 . S
C2478 H2468 0.930 . S
C2478 C2476 1.419 . S
C2478 C2479 1.362 . S
C2479 H2469 0.930 1_565 S
C2479 C2472 1.409 1_565 S
C2479 C2478 1.362 . S
H2480 C2486 0.930 . S
H2481 C2489 0.930 . S
H2482 C2490 0.930 1_556 S
H2483 C2491 0.930 . S
H2484 C2494 0.930 . S
H2485 C2495 0.930 . S
C2486 H2480 0.930 . S
C2486 C2487 1.355 . S
C2486 C2488 1.415 . S
C2487 C2486 1.355 . S
C2487 C2489 1.419 . S
C2488 C2486 1.415 . S
C2488 C2493 1.425 . S
C2488 C2495 1.409 . S
C2489 H2481 0.930 . S
C2489 C2487 1.419 . S
C2489 C2490 1.362 . S
C2490 H2482 0.930 1_554 S
C2490 C2489 1.362 . S
C2490 C2493 1.409 . S
C2491 H2483 0.930 . S
C2491 C2492 1.355 . S
C2491 C2493 1.415 1_556 S
C2492 C2491 1.355 . S
C2492 C2494 1.419 1_556 S
C2493 C2488 1.425 . S
C2493 C2490 1.409 . S
C2493 C2491 1.415 1_554 S
C2494 H2484 0.930 . S
C2494 C2492 1.419 1_554 S
C2494 C2495 1.362 . S
C2495 H2485 0.930 . S
C2495 C2488 1.409 . S
C2495 C2494 1.362 . S
H2496 C2502 0.930 . S
H2497 C2505 0.930 . S
H2498 C2506 0.930 . S
H2499 C2507 0.930 . S
H2500 C2510 0.930 . S
H2501 C2511 0.930 . S
C2502 H2496 0.930 . S
C2502 C2503 1.355 . S
C2502 C2504 1.415 . S
C2503 C2502 1.355 . S
C2503 C2505 1.419 . S
C2504 C2502 1.415 . S
C2504 C2509 1.425 1_565 S
C2504 C2511 1.409 . S
C2505 H2497 0.930 . S
C2505 C2503 1.419 . S
C2505 C2506 1.362 1_565 S
C2506 H2498 0.930 . S
C2506 C2505 1.362 1_545 S
C2506 C2509 1.409 . S
C2507 H2499 0.930 . S
C2507 C2508 1.355 . S
C2507 C2509 1.415 . S
C2508 C2507 1.355 . S
C2508 C2510 1.419 . S
C2509 C2504 1.425 1_545 S
C2509 C2506 1.409 . S
C2509 C2507 1.415 . S
C2510 H2500 0.930 . S
C2510 C2508 1.419 . S
C2510 C2511 1.362 1_545 S
C2511 H2501 0.930 . S
C2511 C2504 1.409 . S
C2511 C2510 1.362 1_565 S
H2512 C2518 0.930 . S
H2513 C2521 0.930 . S
H2514 C2522 0.930 . S
H2515 C2523 0.930 . S
H2516 C2526 0.930 . S
H2517 C2527 0.930 . S
C2518 H2512 0.930 . S
C2518 C2519 1.355 . S
C2518 C2520 1.415 . S
C2519 C2518 1.355 . S
C2519 C2521 1.419 . S
C2520 C2518 1.415 . S
C2520 C2525 1.425 . S
C2520 C2527 1.409 . S
C2521 H2513 0.930 . S
C2521 C2519 1.419 . S
C2521 C2522 1.362 . S
C2522 H2514 0.930 . S
C2522 C2521 1.362 . S
C2522 C2525 1.409 . S
C2523 H2515 0.930 . S
C2523 C2524 1.355 . S
C2523 C2525 1.415 . S
C2524 C2523 1.355 . S
C2524 C2526 1.419 . S
C2525 C2520 1.425 . S
C2525 C2522 1.409 . S
C2525 C2523 1.415 . S
C2526 H2516 0.930 . S
C2526 C2524 1.419 . S
C2526 C2527 1.362 . S
C2527 H2517 0.930 . S
C2527 C2520 1.409 . S
C2527 C2526 1.362 . S
H2528 C2534 0.930 . S
H2529 C2537 0.930 . S
H2530 C2538 0.930 . S
H2531 C2539 0.930 . S
H2532 C2542 0.930 . S
H2533 C2543 0.930 . S
C2534 H2528 0.930 . S
C2534 C2535 1.355 . S
C2534 C2536 1.415 1_565 S
C2535 C2534 1.355 . S
C2535 C2537 1.419 . S
C2536 C2534 1.415 1_545 S
C2536 C2541 1.425 1_545 S
C2536 C2543 1.409 . S
C2537 H2529 0.930 . S
C2537 C2535 1.419 . S
C2537 C2538 1.362 . S
C2538 H2530 0.930 . S
C2538 C2537 1.362 . S
C2538 C2541 1.409 . S
C2539 H2531 0.930 . S
C2539 C2540 1.355 . S
C2539 C2541 1.415 1_545 S
C2540 C2539 1.355 . S
C2540 C2542 1.419 . S
C2541 C2536 1.425 1_565 S
C2541 C2538 1.409 . S
C2541 C2539 1.415 1_565 S
C2542 H2532 0.930 . S
C2542 C2540 1.419 . S
C2542 C2543 1.362 . S
C2543 H2533 0.930 . S
C2543 C2536 1.409 . S
C2543 C2542 1.362 . S
H2544 C2550 0.930 . S
H2545 C2553 0.930 . S
H2546 C2554 0.930 . S
H2547 C2555 0.930 . S
H2548 C2558 0.930 . S
H2549 C2559 0.930 . S
C2550 H2544 0.930 . S
C2550 C2551 1.355 . S
C2550 C2552 1.415 . S
C2551 C2550 1.355 . S
C2551 C2553 1.419 . S
C2552 C2550 1.415 . S
C2552 C2557 1.425 . S
C2552 C2559 1.409 1_554 S
C2553 H2545 0.930 . S
C2553 C2551 1.419 . S
C2553 C2554 1.362 . S
C2554 H2546 0.930 . S
C2554 C2553 1.362 . S
C2554 C2557 1.409 . S
C2555 H2547 0.930 . S
C2555 C2556 1.355 1_554 S
C2555 C2557 1.415 . S
C2556 C2555 1.355 1_556 S
C2556 C2558 1.419 . S
C2557 C2552 1.425 . S
C2557 C2554 1.409 . S
C2557 C2555 1.415 . S
C2558 H2548 0.930 . S
C2558 C2556 1.419 . S
C2558 C2559 1.362 . S
C2559 H2549 0.930 . S
C2559 C2552 1.409 1_556 S
C2559 C2558 1.362 . S
C1031 C29 1.527 . S
C1036 C132 1.495 . S
C1047 C164 1.451 . S
C1052 C61 1.477 . S
C1063 C93 1.510 . S
C1068 C196 1.523 . S
C1079 C228 1.525 . S
C1084 C125 1.481 . S
C1095 C258 1.719 . S
C1100 C390 1.766 . S
C1111 C290 1.779 . S
C1116 C422 1.734 . S
C1127 C454 1.777 . S
C1132 C322 1.758 . S
C1143 C354 1.741 . S
C1148 C486 1.718 . S
C1159 C644 1.520 . S
C1164 C541 1.514 . S
C1175 C573 1.450 . S
C1180 C676 1.485 . S
C1191 C605 1.479 . S
C1196 C708 1.524 . S
C1207 C637 1.451 . S
C1212 C740 1.476 . S
C1223 C770 1.754 . S
C1228 C902 1.717 . S
C1239 C934 1.761 . S
C1244 C802 1.775 . S
C1255 C834 1.758 . S
C1260 C966 1.717 . S
C1271 C998 1.764 . S
C1276 C866 1.774 . S
C1287 N690 1.148 . S
C1292 N13 1.133 . S
C1303 N722 1.114 . S
C1308 N45 1.112 . S
C1319 N754 1.144 . S
C1324 N77 1.130 . S
C1335 N109 1.143 . S
C1340 N658 1.129 . S
C1351 N146 1.158 . S
C1356 N621 1.156 . S
C1367 N525 1.127 . S
C1372 N178 1.141 . S
C1383 N210 1.136 . S
C1388 N557 1.149 . S
C1399 N242 1.147 . S
C1404 N589 1.157 . S
C1415 N274 1.201 . S
C1420 N941 1.217 . S
C1431 N973 1.197 . S
C1436 N306 1.182 . S
C1447 N1005 1.224 . S
C1452 N338 1.215 . S
C1463 N370 1.213 . S
C1468 N909 1.196 . S
C1479 N397 1.180 . S
C1484 N882 1.192 . S
C1495 N429 1.190 . S
C1500 N786 1.179 . S
C1511 N461 1.190 . S
C1516 N818 1.179 . S
C1527 N493 1.191 . S
C1532 N850 1.208 . S
C1543 N269 2.466 . S
C1548 N18 2.445 1_656 S
C1559 N50 2.413 . S
C1564 N813 2.425 . S
C1575 N333 2.419 . S
C1580 N82 2.422 . S
C1591 N114 2.410 . S
C1596 N877 2.411 . S
C1607 N402 2.465 . S
C1612 N141 2.444 1_655 S
C1623 N946 2.427 . S
C1628 N173 2.415 . S
C1639 N205 2.418 . S
C1644 N466 2.430 1_556 S
C1655 N237 2.441 . S
C1660 N1010 2.437 . S
C1671 N562 2.435 . S
C1676 N301 2.448 . S
C1687 N626 2.406 . S
C1692 N365 2.409 . S
C1703 N434 2.455 . S
C1708 N685 2.443 . S
C1719 N749 2.408 . S
C1724 N498 2.409 . S
C1735 N781 2.469 . S
C1740 N530 2.464 1_545 S
C1751 N845 2.443 . S
C1756 N594 2.409 1_456 S
C1767 N914 2.429 1_556 S
C1772 N653 2.433 . S
C1783 N717 2.426 1_445 S
C1788 N978 2.458 . S
C1799 C2 1.793 . S
C1804 C413 1.850 . S
C1815 C957 1.827 . S
C1820 C34 1.847 . S
C1831 C477 1.796 . S
C1836 C66 1.824 . S
C1847 C98 1.813 . S
C1852 C1021 1.856 . S
C1863 C260 1.851 . S
C1868 C134 1.829 . S
C1879 C804 1.833 . S
C1884 C166 1.784 . S
C1895 C324 1.852 . S
C1900 C198 1.827 . S
C1911 C868 1.827 . S
C1916 C230 1.784 . S
C1927 C130 1.977 . S
C1932 C285 1.967 . S
C1943 C674 1.953 . S
C1948 C317 1.971 . S
C1959 C194 1.970 . S
C1964 C349 1.971 . S
C1975 C381 1.940 . S
C1980 C738 1.989 . S
C1991 C6 1.945 . S
C1996 C388 1.924 . S
C2007 C550 1.945 . S
C2012 C420 1.966 . S
C2023 C452 1.956 . S
C2028 C70 1.986 . S
C2039 C484 1.960 . S
C2044 C614 1.941 . S
C2055 C925 1.855 . S
C2060 C514 1.819 . S
C2071 C445 1.851 . S
C2076 C546 1.795 . S
C2087 C578 1.847 . S
C2092 C989 1.822 . S
C2103 C509 1.796 . S
C2108 C610 1.819 . S
C2119 C646 1.783 . S
C2124 C772 1.830 . S
C2135 C678 1.847 . S
C2140 C292 1.824 . S
C2151 C836 1.848 . S
C2156 C710 1.834 . S
C2167 C356 1.812 . S
C2172 C742 1.790 . S
C2183 C797 1.954 . S
C2188 C642 1.987 . S
C2199 C829 1.928 . S
C2204 C162 1.943 . S
C2215 C861 1.953 . S
C2220 C706 1.987 . S
C2231 C893 1.938 . S
C2236 C226 1.939 . S
C2247 C518 1.974 . S
C2252 C900 1.969 . S
C2263 C38 1.938 . S
C2268 C932 1.946 . S
C2279 C964 1.920 . S
C2284 C582 1.981 . S
C2295 C102 1.971 . S
C2300 C996 1.914 . S
C2311 C157 2.063 . S
C2316 C4 2.082 . S
C2327 C189 2.083 . S
C2332 C36 2.063 . S
C2343 C68 2.105 . S
C2348 C221 2.108 . S
C2359 C253 2.075 . S
C2364 C100 2.110 . S
C2375 C386 2.191 . S
C2380 C262 2.160 . S
C2391 C294 2.152 . S
C2396 C418 2.154 . S
C2407 C326 2.142 . S
C2412 C450 2.182 . S
C2423 C482 2.172 . S
C2428 C358 2.186 . S
C2439 C516 2.101 . S
C2444 C669 2.066 . S
C2455 C701 2.062 . S
C2460 C548 2.088 . S
C2471 C580 2.063 . S
C2476 C733 2.093 . S
C2487 C612 2.090 . S
C2492 C765 2.113 . S
C2503 C898 2.142 . S
C2508 C774 2.171 . S
C2519 C930 2.190 . S
C2524 C806 2.164 . S
C2535 C838 2.189 . S
C2540 C962 2.167 . S
C2551 C994 2.159 . S
C2556 C870 2.148 . S
