# Generated by pormake.
# Topology lcv-a, (4)-cn, num edge types: 1
# Building blocks:
#     Node 0, Type 0, BuildingBlock: CEKHIL_clean_sbu_0, # of connection points: 4
#     Node 1, Type 0, BuildingBlock: CEKHIL_clean_sbu_0, # of connection points: 4
#     Node 2, Type 0, BuildingBlock: CEKHIL_clean_sbu_0, # of connection points: 4
#     Node 3, Type 0, BuildingBlock: CEKHIL_clean_sbu_0, # of connection points: 4
#     Node 4, Type 0, BuildingBlock: CEKHIL_clean_sbu_0, # of connection points: 4
#     Node 5, Type 0, BuildingBlock: CEKHIL_clean_sbu_0, # of connection points: 4
#     Node 6, Type 0, BuildingBlock: CEKHIL_clean_sbu_0, # of connection points: 4
#     Node 7, Type 0, BuildingBlock: CEKHIL_clean_sbu_0, # of connection points: 4
#     Node 8, Type 0, BuildingBlock: CEKHIL_clean_sbu_0, # of connection points: 4
#     Node 9, Type 0, BuildingBlock: CEKHIL_clean_sbu_0, # of connection points: 4
#     Node 10, Type 0, BuildingBlock: CEKHIL_clean_sbu_0, # of connection points: 4
#     Node 11, Type 0, BuildingBlock: CEKHIL_clean_sbu_0, # of connection points: 4
#     Node 12, Type 0, BuildingBlock: CEKHIL_clean_sbu_0, # of connection points: 4
#     Node 13, Type 0, BuildingBlock: CEKHIL_clean_sbu_0, # of connection points: 4
#     Node 14, Type 0, BuildingBlock: CEKHIL_clean_sbu_0, # of connection points: 4
#     Node 15, Type 0, BuildingBlock: CEKHIL_clean_sbu_0, # of connection points: 4
#     Node 16, Type 0, BuildingBlock: CEKHIL_clean_sbu_0, # of connection points: 4
#     Node 17, Type 0, BuildingBlock: CEKHIL_clean_sbu_0, # of connection points: 4
#     Node 18, Type 0, BuildingBlock: CEKHIL_clean_sbu_0, # of connection points: 4
#     Node 19, Type 0, BuildingBlock: CEKHIL_clean_sbu_0, # of connection points: 4
#     Node 20, Type 0, BuildingBlock: CEKHIL_clean_sbu_0, # of connection points: 4
#     Node 21, Type 0, BuildingBlock: CEKHIL_clean_sbu_0, # of connection points: 4
#     Node 22, Type 0, BuildingBlock: CEKHIL_clean_sbu_0, # of connection points: 4
#     Node 23, Type 0, BuildingBlock: CEKHIL_clean_sbu_0, # of connection points: 4
#     Node 24, Type 0, BuildingBlock: CEKHIL_clean_sbu_0, # of connection points: 4
#     Node 25, Type 0, BuildingBlock: CEKHIL_clean_sbu_0, # of connection points: 4
#     Node 26, Type 0, BuildingBlock: CEKHIL_clean_sbu_0, # of connection points: 4
#     Node 27, Type 0, BuildingBlock: CEKHIL_clean_sbu_0, # of connection points: 4
#     Node 28, Type 0, BuildingBlock: CEKHIL_clean_sbu_0, # of connection points: 4
#     Node 29, Type 0, BuildingBlock: CEKHIL_clean_sbu_0, # of connection points: 4
#     Node 30, Type 0, BuildingBlock: CEKHIL_clean_sbu_0, # of connection points: 4
#     Node 31, Type 0, BuildingBlock: CEKHIL_clean_sbu_0, # of connection points: 4
#     Node 32, Type 0, BuildingBlock: CEKHIL_clean_sbu_0, # of connection points: 4
#     Node 33, Type 0, BuildingBlock: CEKHIL_clean_sbu_0, # of connection points: 4
#     Node 34, Type 0, BuildingBlock: CEKHIL_clean_sbu_0, # of connection points: 4
#     Node 35, Type 0, BuildingBlock: CEKHIL_clean_sbu_0, # of connection points: 4
#     Node 36, Type 0, BuildingBlock: CEKHIL_clean_sbu_0, # of connection points: 4
#     Node 37, Type 0, BuildingBlock: CEKHIL_clean_sbu_0, # of connection points: 4
#     Node 38, Type 0, BuildingBlock: CEKHIL_clean_sbu_0, # of connection points: 4
#     Node 39, Type 0, BuildingBlock: CEKHIL_clean_sbu_0, # of connection points: 4
#     Node 40, Type 0, BuildingBlock: CEKHIL_clean_sbu_0, # of connection points: 4
#     Node 41, Type 0, BuildingBlock: CEKHIL_clean_sbu_0, # of connection points: 4
#     Node 42, Type 0, BuildingBlock: CEKHIL_clean_sbu_0, # of connection points: 4
#     Node 43, Type 0, BuildingBlock: CEKHIL_clean_sbu_0, # of connection points: 4
#     Node 44, Type 0, BuildingBlock: CEKHIL_clean_sbu_0, # of connection points: 4
#     Node 45, Type 0, BuildingBlock: CEKHIL_clean_sbu_0, # of connection points: 4
#     Node 46, Type 0, BuildingBlock: CEKHIL_clean_sbu_0, # of connection points: 4
#     Node 47, Type 0, BuildingBlock: CEKHIL_clean_sbu_0, # of connection points: 4
#     Edge 48, Type (0, 0), BuildingBlock: EZIPEK_clean_linker_0, # of connection points: 2
#     Edge 49, Type (0, 0), BuildingBlock: EZIPEK_clean_linker_0, # of connection points: 2
#     Edge 50, Type (0, 0), BuildingBlock: EZIPEK_clean_linker_0, # of connection points: 2
#     Edge 51, Type (0, 0), BuildingBlock: EZIPEK_clean_linker_0, # of connection points: 2
#     Edge 52, Type (0, 0), BuildingBlock: EZIPEK_clean_linker_0, # of connection points: 2
#     Edge 53, Type (0, 0), BuildingBlock: EZIPEK_clean_linker_0, # of connection points: 2
#     Edge 54, Type (0, 0), BuildingBlock: EZIPEK_clean_linker_0, # of connection points: 2
#     Edge 55, Type (0, 0), BuildingBlock: EZIPEK_clean_linker_0, # of connection points: 2
#     Edge 56, Type (0, 0), BuildingBlock: EZIPEK_clean_linker_0, # of connection points: 2
#     Edge 57, Type (0, 0), BuildingBlock: EZIPEK_clean_linker_0, # of connection points: 2
#     Edge 58, Type (0, 0), BuildingBlock: EZIPEK_clean_linker_0, # of connection points: 2
#     Edge 59, Type (0, 0), BuildingBlock: EZIPEK_clean_linker_0, # of connection points: 2
#     Edge 60, Type (0, 0), BuildingBlock: EZIPEK_clean_linker_0, # of connection points: 2
#     Edge 61, Type (0, 0), BuildingBlock: EZIPEK_clean_linker_0, # of connection points: 2
#     Edge 62, Type (0, 0), BuildingBlock: EZIPEK_clean_linker_0, # of connection points: 2
#     Edge 63, Type (0, 0), BuildingBlock: EZIPEK_clean_linker_0, # of connection points: 2
#     Edge 64, Type (0, 0), BuildingBlock: EZIPEK_clean_linker_0, # of connection points: 2
#     Edge 65, Type (0, 0), BuildingBlock: EZIPEK_clean_linker_0, # of connection points: 2
#     Edge 66, Type (0, 0), BuildingBlock: EZIPEK_clean_linker_0, # of connection points: 2
#     Edge 67, Type (0, 0), BuildingBlock: EZIPEK_clean_linker_0, # of connection points: 2
#     Edge 68, Type (0, 0), BuildingBlock: EZIPEK_clean_linker_0, # of connection points: 2
#     Edge 69, Type (0, 0), BuildingBlock: EZIPEK_clean_linker_0, # of connection points: 2
#     Edge 70, Type (0, 0), BuildingBlock: EZIPEK_clean_linker_0, # of connection points: 2
#     Edge 71, Type (0, 0), BuildingBlock: EZIPEK_clean_linker_0, # of connection points: 2
#     Edge 72, Type (0, 0), BuildingBlock: EZIPEK_clean_linker_0, # of connection points: 2
#     Edge 73, Type (0, 0), BuildingBlock: EZIPEK_clean_linker_0, # of connection points: 2
#     Edge 74, Type (0, 0), BuildingBlock: EZIPEK_clean_linker_0, # of connection points: 2
#     Edge 75, Type (0, 0), BuildingBlock: EZIPEK_clean_linker_0, # of connection points: 2
#     Edge 76, Type (0, 0), BuildingBlock: EZIPEK_clean_linker_0, # of connection points: 2
#     Edge 77, Type (0, 0), BuildingBlock: EZIPEK_clean_linker_0, # of connection points: 2
#     Edge 78, Type (0, 0), BuildingBlock: EZIPEK_clean_linker_0, # of connection points: 2
#     Edge 79, Type (0, 0), BuildingBlock: EZIPEK_clean_linker_0, # of connection points: 2
#     Edge 80, Type (0, 0), BuildingBlock: EZIPEK_clean_linker_0, # of connection points: 2
#     Edge 81, Type (0, 0), BuildingBlock: EZIPEK_clean_linker_0, # of connection points: 2
#     Edge 82, Type (0, 0), BuildingBlock: EZIPEK_clean_linker_0, # of connection points: 2
#     Edge 83, Type (0, 0), BuildingBlock: EZIPEK_clean_linker_0, # of connection points: 2
#     Edge 84, Type (0, 0), BuildingBlock: EZIPEK_clean_linker_0, # of connection points: 2
#     Edge 85, Type (0, 0), BuildingBlock: EZIPEK_clean_linker_0, # of connection points: 2
#     Edge 86, Type (0, 0), BuildingBlock: EZIPEK_clean_linker_0, # of connection points: 2
#     Edge 87, Type (0, 0), BuildingBlock: EZIPEK_clean_linker_0, # of connection points: 2
#     Edge 88, Type (0, 0), BuildingBlock: EZIPEK_clean_linker_0, # of connection points: 2
#     Edge 89, Type (0, 0), BuildingBlock: EZIPEK_clean_linker_0, # of connection points: 2
#     Edge 90, Type (0, 0), BuildingBlock: EZIPEK_clean_linker_0, # of connection points: 2
#     Edge 91, Type (0, 0), BuildingBlock: EZIPEK_clean_linker_0, # of connection points: 2
#     Edge 92, Type (0, 0), BuildingBlock: EZIPEK_clean_linker_0, # of connection points: 2
#     Edge 93, Type (0, 0), BuildingBlock: EZIPEK_clean_linker_0, # of connection points: 2
#     Edge 94, Type (0, 0), BuildingBlock: EZIPEK_clean_linker_0, # of connection points: 2
#     Edge 95, Type (0, 0), BuildingBlock: EZIPEK_clean_linker_0, # of connection points: 2
#     Edge 96, Type (0, 0), BuildingBlock: EZIPEK_clean_linker_0, # of connection points: 2
#     Edge 97, Type (0, 0), BuildingBlock: EZIPEK_clean_linker_0, # of connection points: 2
#     Edge 98, Type (0, 0), BuildingBlock: EZIPEK_clean_linker_0, # of connection points: 2
#     Edge 99, Type (0, 0), BuildingBlock: EZIPEK_clean_linker_0, # of connection points: 2
#     Edge 100, Type (0, 0), BuildingBlock: EZIPEK_clean_linker_0, # of connection points: 2
#     Edge 101, Type (0, 0), BuildingBlock: EZIPEK_clean_linker_0, # of connection points: 2
#     Edge 102, Type (0, 0), BuildingBlock: EZIPEK_clean_linker_0, # of connection points: 2
#     Edge 103, Type (0, 0), BuildingBlock: EZIPEK_clean_linker_0, # of connection points: 2
#     Edge 104, Type (0, 0), BuildingBlock: EZIPEK_clean_linker_0, # of connection points: 2
#     Edge 105, Type (0, 0), BuildingBlock: EZIPEK_clean_linker_0, # of connection points: 2
#     Edge 106, Type (0, 0), BuildingBlock: EZIPEK_clean_linker_0, # of connection points: 2
#     Edge 107, Type (0, 0), BuildingBlock: EZIPEK_clean_linker_0, # of connection points: 2
#     Edge 108, Type (0, 0), BuildingBlock: EZIPEK_clean_linker_0, # of connection points: 2
#     Edge 109, Type (0, 0), BuildingBlock: EZIPEK_clean_linker_0, # of connection points: 2
#     Edge 110, Type (0, 0), BuildingBlock: EZIPEK_clean_linker_0, # of connection points: 2
#     Edge 111, Type (0, 0), BuildingBlock: EZIPEK_clean_linker_0, # of connection points: 2
#     Edge 112, Type (0, 0), BuildingBlock: EZIPEK_clean_linker_0, # of connection points: 2
#     Edge 113, Type (0, 0), BuildingBlock: EZIPEK_clean_linker_0, # of connection points: 2
#     Edge 114, Type (0, 0), BuildingBlock: EZIPEK_clean_linker_0, # of connection points: 2
#     Edge 115, Type (0, 0), BuildingBlock: EZIPEK_clean_linker_0, # of connection points: 2
#     Edge 116, Type (0, 0), BuildingBlock: EZIPEK_clean_linker_0, # of connection points: 2
#     Edge 117, Type (0, 0), BuildingBlock: EZIPEK_clean_linker_0, # of connection points: 2
#     Edge 118, Type (0, 0), BuildingBlock: EZIPEK_clean_linker_0, # of connection points: 2
#     Edge 119, Type (0, 0), BuildingBlock: EZIPEK_clean_linker_0, # of connection points: 2
#     Edge 120, Type (0, 0), BuildingBlock: EZIPEK_clean_linker_0, # of connection points: 2
#     Edge 121, Type (0, 0), BuildingBlock: EZIPEK_clean_linker_0, # of connection points: 2
#     Edge 122, Type (0, 0), BuildingBlock: EZIPEK_clean_linker_0, # of connection points: 2
#     Edge 123, Type (0, 0), BuildingBlock: EZIPEK_clean_linker_0, # of connection points: 2
#     Edge 124, Type (0, 0), BuildingBlock: EZIPEK_clean_linker_0, # of connection points: 2
#     Edge 125, Type (0, 0), BuildingBlock: EZIPEK_clean_linker_0, # of connection points: 2
#     Edge 126, Type (0, 0), BuildingBlock: EZIPEK_clean_linker_0, # of connection points: 2
#     Edge 127, Type (0, 0), BuildingBlock: EZIPEK_clean_linker_0, # of connection points: 2
#     Edge 128, Type (0, 0), BuildingBlock: EZIPEK_clean_linker_0, # of connection points: 2
#     Edge 129, Type (0, 0), BuildingBlock: EZIPEK_clean_linker_0, # of connection points: 2
#     Edge 130, Type (0, 0), BuildingBlock: EZIPEK_clean_linker_0, # of connection points: 2
#     Edge 131, Type (0, 0), BuildingBlock: EZIPEK_clean_linker_0, # of connection points: 2
#     Edge 132, Type (0, 0), BuildingBlock: EZIPEK_clean_linker_0, # of connection points: 2
#     Edge 133, Type (0, 0), BuildingBlock: EZIPEK_clean_linker_0, # of connection points: 2
#     Edge 134, Type (0, 0), BuildingBlock: EZIPEK_clean_linker_0, # of connection points: 2
#     Edge 135, Type (0, 0), BuildingBlock: EZIPEK_clean_linker_0, # of connection points: 2
#     Edge 136, Type (0, 0), BuildingBlock: EZIPEK_clean_linker_0, # of connection points: 2
#     Edge 137, Type (0, 0), BuildingBlock: EZIPEK_clean_linker_0, # of connection points: 2
#     Edge 138, Type (0, 0), BuildingBlock: EZIPEK_clean_linker_0, # of connection points: 2
#     Edge 139, Type (0, 0), BuildingBlock: EZIPEK_clean_linker_0, # of connection points: 2
#     Edge 140, Type (0, 0), BuildingBlock: EZIPEK_clean_linker_0, # of connection points: 2
#     Edge 141, Type (0, 0), BuildingBlock: EZIPEK_clean_linker_0, # of connection points: 2
#     Edge 142, Type (0, 0), BuildingBlock: EZIPEK_clean_linker_0, # of connection points: 2
#     Edge 143, Type (0, 0), BuildingBlock: EZIPEK_clean_linker_0, # of connection points: 2
# Relax obj value: 0.853
# Max RMSD: 0.531
# Mean RMSD: 0.410
data_MOF--net-lcv-a--node1-CEKHIL_clean_sbu_0--edge1-EZIPEK_clean_linker_0
_symmetry_space_group_name_H-M    P1
_symmetry_Int_Tables_number       1
_symmetry_cell_setting            triclinic
loop_
_symmetry_equiv_pos_as_xyz
'x, y, z'
_cell_length_a     62.953778
_cell_length_b     62.834125
_cell_length_c     62.683345
_cell_angle_alpha  89.95351
_cell_angle_beta   89.980233
_cell_angle_gamma 90.009026
loop_
_atom_site_label
_atom_site_type_symbol
_atom_site_fract_x
_atom_site_fract_y
_atom_site_fract_z
_atom_type_partial_charge
Co0 Co 0.01509 0.36918 0.25862 0.0
O1 O 0.99162 0.38407 0.27074 0.0
O2 O 0.01559 0.39816 0.24926 0.0
C3 C 0.0251 0.35127 0.28836 0.0
O4 O 0.04121 0.35907 0.24273 0.0
Co5 Co 0.01303 0.31986 0.25596 0.0
O6 O 0.04088 0.32326 0.24134 0.0
C7 C 0.98694 0.34576 0.22701 0.0
C8 C -0.00274 0.39991 0.25866 0.0
C9 C 0.04913 0.34122 0.23681 0.0
O10 O -0.00273 0.36218 0.23316 0.0
O11 O 0.98938 0.32749 0.23576 0.0
O12 O 0.03131 0.3708 0.28519 0.0
O13 O 0.01174 0.34441 0.27442 0.0
Co14 Co 0.9726 0.80324 0.47224 0.0
O15 O 0.95525 0.79238 0.49502 0.0
O16 O 0.94809 0.82121 0.47653 0.0
C17 C 0.00458 0.79983 0.4886 0.0
O18 O 0.98707 0.81909 0.44757 0.0
Co19 Co 0.00452 0.77202 0.45131 0.0
O20 O 0.01418 0.79843 0.4366 0.0
C21 C 0.9592 0.76837 0.44109 0.0
C22 C 0.94248 0.80823 0.49174 0.0
C23 C 0.00341 0.81554 0.43565 0.0
O24 O 0.95606 0.786 0.45093 0.0
O25 O 0.97707 0.75867 0.44173 0.0
O26 O 0.99256 0.81615 0.49257 0.0
O27 O 0.99555 0.78533 0.47729 0.0
Co28 Co 0.58445 0.74145 0.75516 0.0
O29 O 0.59385 0.71794 0.77185 0.0
O30 O 0.56925 0.71575 0.74696 0.0
C31 C 0.57965 0.76439 0.78288 0.0
O32 O 0.57153 0.76426 0.73497 0.0
Co33 Co 0.61345 0.77828 0.74981 0.0
O34 O 0.59489 0.78978 0.72723 0.0
C35 C 0.61842 0.74274 0.72016 0.0
C36 C 0.58079 0.70608 0.76124 0.0
C37 C 0.5768 0.78149 0.7246 0.0
O38 O 0.60496 0.73343 0.73208 0.0
O39 O 0.62479 0.76156 0.7246 0.0
O40 O 0.566 0.7499 0.77801 0.0
O41 O 0.59774 0.76302 0.77248 0.0
Co42 Co 0.62729 0.31758 0.91848 0.0
O43 O 0.64917 0.33014 0.93792 0.0
O44 O 0.64878 0.29692 0.93107 0.0
C45 C 0.61151 0.29566 0.94453 0.0
O46 O 0.60636 0.30293 0.89954 0.0
Co47 Co 0.61931 0.33457 0.91759 0.0
O48 O 0.59684 0.33506 0.89459 0.0
C49 C 0.65103 0.33323 0.8869 0.0
C50 C 0.65813 0.31231 0.94072 0.0
C51 C 0.59423 0.31578 0.88992 0.0
O52 O 0.64769 0.31515 0.8947 0.0
O53 O 0.63997 0.34781 0.89541 0.0
O54 O 0.62643 0.28932 0.93198 0.0
O55 O 0.60705 0.31562 0.94247 0.0
Co56 Co 0.98645 0.74588 0.32858 0.0
O57 O 0.96719 0.72669 0.31416 0.0
O58 O 0.99371 0.71758 0.3357 0.0
C59 C 0.99497 0.76772 0.30114 0.0
O60 O 0.00967 0.75862 0.34641 0.0
Co61 Co 0.97918 0.79407 0.33497 0.0
O62 O 0.00756 0.79403 0.34904 0.0
C63 C 0.95405 0.76333 0.36041 0.0
C64 C 0.97768 0.7118 0.32419 0.0
C65 C 0.01681 0.77645 0.3529 0.0
O66 O 0.96582 0.74801 0.35341 0.0
O67 O 0.95603 0.78246 0.35365 0.0
O68 O 0.0041 0.74927 0.30323 0.0
O69 O 0.97959 0.77111 0.31433 0.0
Co70 Co 0.5807 0.77468 0.61171 0.0
O71 O 0.59998 0.77606 0.58782 0.0
O72 O 0.60695 0.78862 0.61973 0.0
C73 C 0.55155 0.78716 0.59538 0.0
O74 O 0.56282 0.77499 0.63933 0.0
Co75 Co 0.54919 0.74125 0.61297 0.0
O76 O 0.53244 0.75802 0.63287 0.0
C77 C 0.58782 0.73614 0.63729 0.0
C78 C 0.61382 0.78374 0.60088 0.0
C79 C 0.54382 0.76936 0.64485 0.0
O80 O 0.59457 0.74746 0.62177 0.0
O81 O 0.56848 0.73003 0.63691 0.0
O82 O 0.56643 0.79934 0.60245 0.0
O83 O 0.55608 0.76662 0.59507 0.0
Co84 Co 0.60521 0.34362 0.78182 0.0
O85 O 0.62067 0.36788 0.77046 0.0
O86 O 0.60053 0.36827 0.79925 0.0
C87 C 0.58634 0.33336 0.75184 0.0
O88 O 0.58839 0.32184 0.79721 0.0
Co89 Co 0.62907 0.31883 0.77409 0.0
O90 O 0.6154 0.29992 0.79675 0.0
C91 C 0.64933 0.33682 0.80163 0.0
C92 C 0.61355 0.3784 0.78686 0.0
C93 C 0.59707 0.30473 0.80375 0.0
O94 O 0.62923 0.33841 0.80345 0.0
O95 O 0.65664 0.33022 0.7842 0.0
O96 O 0.58212 0.34948 0.76337 0.0
O97 O 0.60393 0.3232 0.75598 0.0
Co98 Co 0.01075 0.27965 0.13254 0.0
O99 O 0.99442 0.28469 0.10747 0.0
O100 O 0.98442 0.26347 0.13364 0.0
C101 C 0.04246 0.27649 0.11599 0.0
O102 O 0.02462 0.27127 0.16099 0.0
Co103 Co 0.04387 0.31483 0.14304 0.0
O104 O 0.05107 0.29495 0.16667 0.0
C105 C -0.00113 0.32307 0.15098 0.0
C106 C 0.97965 0.27292 0.11571 0.0
C107 C 0.04029 0.27863 0.1721 0.0
O108 O 0.99547 0.30329 0.14747 0.0
O109 O 0.01702 0.33159 0.14759 0.0
O110 O 0.02973 0.2602 0.11699 0.0
O111 O 0.03437 0.29402 0.12272 0.0
Co112 Co 0.26652 0.98205 0.3755 0.0
O113 O 0.28067 0.95621 0.38393 0.0
O114 O 0.26242 0.97754 0.40549 0.0
C115 C 0.29328 0.99545 0.35509 0.0
O116 O 0.25006 0.00983 0.37272 0.0
Co117 Co 0.25619 0.98896 0.32764 0.0
O118 O 0.24526 0.01687 0.33782 0.0
C119 C 0.23042 0.95899 0.35277 0.0
C120 C 0.27297 0.95995 0.40277 0.0
C121 C 0.24318 0.02164 0.35745 0.0
O122 O 0.23965 0.96571 0.36972 0.0
O123 O 0.23651 0.96455 0.3341 0.0
O124 O 0.29326 -0.00208 0.37569 0.0
O125 O 0.27823 0.98337 0.3482 0.0
Co126 Co 0.28326 0.8985 0.62264 0.0
O127 O 0.29091 0.91529 0.64897 0.0
O128 O 0.259 0.91331 0.63946 0.0
C129 C 0.26931 0.92732 0.60369 0.0
O130 O 0.27637 0.88195 0.59575 0.0
Co131 Co 0.30175 0.89688 0.62171 0.0
O132 O 0.31016 0.88453 0.59319 0.0
C133 C 0.28537 0.86794 0.65145 0.0
C134 C 0.27217 0.92039 0.65326 0.0
C135 C 0.29306 0.8783 0.58485 0.0
O136 O 0.27142 0.87484 0.63916 0.0
O137 O 0.30368 0.87557 0.64765 0.0
O138 O 0.25793 0.91469 0.61508 0.0
O139 O 0.2895 0.92354 0.60499 0.0
Co140 Co 0.31064 0.08819 0.85361 0.0
O141 O 0.28854 0.10445 0.86686 0.0
O142 O 0.31567 0.08976 0.88401 0.0
C143 C 0.28704 0.069 0.83428 0.0
O144 O 0.33632 0.06999 0.84483 0.0
Co145 Co 0.3157 0.08671 0.80437 0.0
O146 O 0.32815 0.05853 0.81226 0.0
C147 C 0.33378 0.12297 0.82954 0.0
C148 C 0.29774 0.10011 0.88479 0.0
C149 C 0.34008 0.05794 0.82868 0.0
O150 O 0.32811 0.11447 0.84744 0.0
O151 O 0.32908 0.11488 0.81134 0.0
O152 O 0.29183 0.06327 0.85358 0.0
O153 O 0.29634 0.08604 0.82783 0.0
Co154 Co 0.31214 0.15074 0.13817 0.0
O155 O 0.30349 0.13475 0.16266 0.0
O156 O 0.33518 0.14977 0.15861 0.0
C157 C 0.29969 0.12677 0.11398 0.0
O158 O 0.32677 0.1678 0.1148 0.0
Co159 Co 0.2776 0.16672 0.10635 0.0
O160 O 0.30277 0.17514 0.08918 0.0
C161 C 0.28448 0.18968 0.14695 0.0
C162 C 0.32237 0.13824 0.1701 0.0
C163 C 0.32157 0.17571 0.09662 0.0
O164 O 0.30091 0.17807 0.1509 0.0
O165 O 0.27198 0.18593 0.13128 0.0
O166 O 0.31819 0.12435 0.12276 0.0
O167 O 0.28906 0.14267 0.12136 0.0
Co168 Co 0.29289 0.0887 0.27623 0.0
O169 O 0.31939 0.10142 0.2682 0.0
O170 O 0.29421 0.08993 0.24587 0.0
C171 C 0.31048 0.06082 0.29756 0.0
O172 O 0.26468 0.0735 0.27953 0.0
Co173 Co 0.28292 0.0754 0.33042 0.0
O174 O 0.26039 0.06011 0.31309 0.0
C175 C 0.28554 0.11231 0.31882 0.0
C176 C 0.31253 0.09933 0.24869 0.0
C177 C 0.25449 0.0625 0.29359 0.0
O178 O 0.29351 0.09728 0.30709 0.0
O179 O 0.28309 0.10643 0.33792 0.0
O180 O 0.30809 0.06036 0.2776 0.0
O181 O 0.30222 0.07767 0.30499 0.0
Co182 Co 0.23563 0.90661 0.50566 0.0
O183 O 0.2389 0.92627 0.48258 0.0
O184 O 0.25695 0.89619 0.48606 0.0
C185 C 0.23685 0.93154 0.53098 0.0
O186 O 0.23679 0.88287 0.5286 0.0
Co187 Co 0.19507 0.90776 0.53185 0.0
O188 O 0.20863 0.88621 0.55048 0.0
C189 C 0.19385 0.88717 0.49026 0.0
C190 C 0.25346 0.91361 0.47546 0.0
C191 C 0.22608 0.87733 0.54539 0.0
O192 O 0.21374 0.89093 0.48928 0.0
O193 O 0.18241 0.89327 0.50598 0.0
O194 O 0.25388 0.92368 0.52262 0.0
O195 O 0.21899 0.92543 0.52242 0.0
Co196 Co 0.30923 5e-05 0.73876 0.0
O197 O 0.28894 0.97738 0.73789 0.0
O198 O 0.30347 0.993 0.70958 0.0
C199 C 0.29173 0.01872 0.76372 0.0
O200 O 0.33049 0.02422 0.73368 0.0
Co201 Co 0.3335 0.00865 0.78109 0.0
O202 O 0.34401 0.03402 0.76542 0.0
C203 C 0.34601 0.9725 0.75366 0.0
C204 C 0.29087 0.9785 0.71735 0.0
C205 C 0.34244 0.03617 0.74528 0.0
O206 O 0.33331 0.97909 0.73909 0.0
O207 O 0.34694 0.98098 0.77224 0.0
O208 O 0.28622 0.02027 0.74381 0.0
O209 O 0.30623 0.00485 0.76781 0.0
Co210 Co 0.28183 0.13296 0.99684 0.0
O211 O 0.28144 0.10862 0.97871 0.0
O212 O 0.26223 0.13764 0.9737 0.0
C213 C 0.28092 0.11546 0.02839 0.0
O214 O 0.27849 0.1611 0.01252 0.0
Co215 Co 0.32165 0.13843 0.02561 0.0
O216 O 0.3054 0.16347 0.03618 0.0
C217 C 0.32479 0.14821 0.97998 0.0
C218 C 0.26839 0.11915 0.96664 0.0
C219 C 0.28861 0.17076 0.02749 0.0
O220 O 0.30461 0.14603 0.97878 0.0
O221 O 0.33515 0.14361 0.99694 0.0
O222 O 0.26351 0.11897 0.01781 0.0
O223 O 0.29799 0.12042 0.01817 0.0
Co224 Co 0.38394 0.24793 0.99865 0.0
O225 O 0.39998 0.25926 0.9751 0.0
O226 O 0.41169 0.23538 0.99839 0.0
C227 C 0.37077 0.27927 0.0111 0.0
O228 O 0.37273 0.23229 0.02469 0.0
Co229 Co 0.33483 0.25257 0.00012 0.0
O230 O 0.33779 0.23861 0.02846 0.0
C231 C 0.35449 0.22204 0.9702 0.0
C232 C 0.41504 0.24646 0.98121 0.0
C233 C 0.35509 0.2302 0.03473 0.0
O234 O 0.37254 0.22475 0.97948 0.0
O235 O 0.33817 0.23331 0.97477 0.0
O236 O 0.38977 0.27298 0.01621 0.0
O237 O 0.36151 0.2673 0.99725 0.0
Co238 Co 0.87816 0.34316 0.09687 0.0
O239 O 0.89 0.32115 0.11433 0.0
O240 O 0.90704 0.33842 0.08883 0.0
C241 C 0.85098 0.31805 0.08369 0.0
O242 O 0.86979 0.36542 0.07497 0.0
Co243 Co 0.82221 0.35021 0.09601 0.0
O244 O 0.83383 0.36624 0.07036 0.0
C245 C 0.84278 0.36079 0.12693 0.0
C246 C 0.90752 0.32371 0.10353 0.0
C247 C 0.85282 0.37211 0.06555 0.0
O248 O 0.85098 0.34773 0.11317 0.0
O249 O 0.82273 0.3608 0.12616 0.0
O250 O 0.8694 0.32001 0.07634 0.0
O251 O 0.8481 0.33177 0.09814 0.0
Co252 Co 0.9459 0.58973 0.33879 0.0
O253 O 0.96925 0.60928 0.33715 0.0
O254 O 0.9365 0.61636 0.32669 0.0
C255 C 0.96554 0.56365 0.32557 0.0
O256 O 0.9176 0.57283 0.33606 0.0
Co257 Co 0.94442 0.55421 0.36778 0.0
O258 O 0.92048 0.54138 0.35229 0.0
C259 C 0.92857 0.59448 0.3832 0.0
C260 C 0.95581 0.62291 0.32966 0.0
C261 C 0.91044 0.55398 0.34017 0.0
O262 O 0.93829 0.6018 0.36704 0.0
O263 O 0.92822 0.57451 0.38684 0.0
O264 O 0.95504 0.57671 0.3136 0.0
O265 O 0.96414 0.56612 0.34625 0.0
Co266 Co 0.73791 0.76161 0.61474 0.0
O267 O 0.7141 0.77997 0.62201 0.0
O268 O 0.71335 0.75436 0.59821 0.0
C269 C 0.76123 0.78799 0.61131 0.0
O270 O 0.76011 0.74008 0.60185 0.0
Co271 Co 0.773 0.75495 0.64461 0.0
O272 O 0.78909 0.73885 0.62241 0.0
C273 C 0.73242 0.73625 0.65564 0.0
C274 C 0.70336 0.76945 0.60792 0.0
C275 C 0.77934 0.73341 0.60551 0.0
O276 O 0.7277 0.74114 0.63654 0.0
O277 O 0.75043 0.74147 0.6635 0.0
O278 O 0.74866 0.78237 0.59612 0.0
O279 O 0.75856 0.77864 0.62977 0.0
Co280 Co 0.13514 0.99481 0.29615 0.0
O281 O 0.10995 0.97806 0.29778 0.0
O282 O 0.13624 0.97252 0.27496 0.0
C283 C 0.11905 0.02683 0.29832 0.0
O284 O 0.16341 0.00954 0.29008 0.0
Co285 Co 0.14658 0.02242 0.33563 0.0
O286 O 0.16924 0.03334 0.3164 0.0
C287 C 0.15405 0.97623 0.33709 0.0
C288 C 0.11798 0.9665 0.28267 0.0
C289 C 0.17433 0.02453 0.2988 0.0
O290 O 0.14962 0.97532 0.3171 0.0
O291 O 0.15176 0.99334 0.34793 0.0
O292 O 0.12029 0.01707 0.28009 0.0
O293 O 0.12545 0.0158 0.31442 0.0
Co294 Co 0.25389 0.79606 0.49062 0.0
O295 O 0.24251 0.77587 0.46862 0.0
O296 O 0.2316 0.775 0.5005 0.0
C297 C 0.27004 0.76912 0.51151 0.0
O298 O 0.26294 0.81534 0.51448 0.0
Co299 Co 0.26629 0.80345 0.47772 0.0
O300 O 0.2844 0.82692 0.49102 0.0
C301 C 0.22613 0.8208 0.47105 0.0
C302 C 0.22915 0.76772 0.48148 0.0
C303 C 0.27753 0.8284 0.50984 0.0
O304 O 0.22751 0.81279 0.48932 0.0
O305 O 0.24283 0.81874 0.45989 0.0
O306 O 0.25096 0.77577 0.51465 0.0
O307 O 0.279 0.77771 0.49516 0.0
Co308 Co 0.92688 0.50904 0.25001 0.0
O309 O 0.94282 0.48519 0.23595 0.0
O310 O 0.93967 0.48701 0.26973 0.0
C311 C 0.9579 0.52186 0.26688 0.0
O312 O 0.91108 0.53118 0.26738 0.0
Co313 Co 0.92389 0.51813 0.23308 0.0
O314 O 0.90455 0.54389 0.23663 0.0
C315 C 0.89424 0.4856 0.23793 0.0
C316 C 0.94643 0.47611 0.25377 0.0
C317 C 0.90153 0.54518 0.25646 0.0
O318 O 0.90306 0.48976 0.25531 0.0
O319 O 0.90124 0.49639 0.22232 0.0
O320 O 0.94464 0.50909 0.27586 0.0
O321 O 0.95267 0.52718 0.24774 0.0
Co322 Co 0.64944 0.60008 0.75159 0.0
O323 O 0.62977 0.6228 0.73998 0.0
O324 O 0.63311 0.61805 0.7731 0.0
C325 C 0.6214 0.5809 0.76762 0.0
O326 O 0.66865 0.57823 0.76583 0.0
Co327 Co 0.65285 0.59406 0.73366 0.0
O328 O 0.6737 0.56919 0.73349 0.0
C329 C 0.6767 0.63043 0.74229 0.0
C330 C 0.62436 0.62924 0.7584 0.0
C331 C 0.67807 0.56592 0.75284 0.0
O332 O 0.67056 0.62171 0.75917 0.0
O333 O 0.67039 0.62113 0.72548 0.0
O334 O 0.63257 0.59497 0.77741 0.0
O335 O 0.62666 0.57855 0.74786 0.0
Co336 Co 0.48394 0.83032 0.77371 0.0
O337 O 0.47866 0.84878 0.79754 0.0
O338 O 0.48545 0.85982 0.76461 0.0
C339 C 0.50797 0.80939 0.79036 0.0
O340 O 0.49158 0.81476 0.74501 0.0
Co341 Co 0.46738 0.78806 0.77219 0.0
O342 O 0.48544 0.78003 0.74807 0.0
C343 C 0.44354 0.82148 0.75208 0.0
C344 C 0.4811 0.86449 0.78438 0.0
C345 C 0.49361 0.79534 0.73791 0.0
O346 O 0.45261 0.83126 0.76722 0.0
O347 O 0.44626 0.8014 0.75129 0.0
O348 O 0.51271 0.82765 0.78216 0.0
O349 O 0.48756 0.80448 0.79072 0.0
Co350 Co 0.52319 0.23107 0.91626 0.0
O351 O 0.50571 0.22613 0.94058 0.0
O352 O 0.49553 0.24381 0.91169 0.0
C353 C 0.55082 0.24129 0.93612 0.0
O354 O 0.53788 0.24048 0.88835 0.0
Co355 Co 0.56016 0.20518 0.90597 0.0
O356 O 0.57159 0.23011 0.8908 0.0
C357 C 0.51962 0.19618 0.88579 0.0
C358 C 0.49107 0.2367 0.93071 0.0
C359 C 0.55746 0.24168 0.88234 0.0
O360 O 0.51253 0.20439 0.9029 0.0
O361 O 0.53968 0.19461 0.88322 0.0
O362 O 0.53596 0.25434 0.93041 0.0
O363 O 0.54851 0.2214 0.93035 0.0
Co364 Co 0.10294 0.26347 0.29352 0.0
O365 O 0.11964 0.25864 0.31878 0.0
O366 O 0.10774 0.23342 0.29703 0.0
C367 C 0.08025 0.287 0.30871 0.0
O368 O 0.08498 0.2626 0.26626 0.0
Co369 Co 0.10205 0.30872 0.27386 0.0
O370 O 0.08054 0.29613 0.25436 0.0
C371 C 0.13992 0.2817 0.2681 0.0
C372 C 0.1186 0.23863 0.31391 0.0
C373 C 0.07712 0.27621 0.25303 0.0
O374 O 0.1295 0.26586 0.27579 0.0
O375 O 0.13248 0.30066 0.26832 0.0
O376 O 0.07718 0.26666 0.31067 0.0
O377 O 0.0977 0.29205 0.29921 0.0
Co378 Co 0.11589 0.78794 0.44721 0.0
O379 O 0.14065 0.78866 0.46505 0.0
O380 O 0.13548 0.76604 0.43837 0.0
C381 C 0.09153 0.79016 0.47412 0.0
O382 O 0.09269 0.78172 0.42577 0.0
Co383 Co 0.08468 0.82645 0.44615 0.0
O384 O 0.06786 0.80745 0.42727 0.0
C385 C 0.12473 0.82843 0.42151 0.0
C386 C 0.14755 0.77277 0.45376 0.0
C387 C 0.07517 0.79014 0.41967 0.0
O388 O 0.12887 0.80895 0.4265 0.0
O389 O 0.10897 0.83863 0.42942 0.0
O390 O 0.10017 0.7721 0.469 0.0
O391 O 0.09932 0.80624 0.46398 0.0
Co392 Co 0.49527 0.2652 0.7849 0.0
O393 O 0.47185 0.24899 0.7726 0.0
O394 O 0.50484 0.24362 0.76445 0.0
C395 C 0.5149 0.28901 0.76381 0.0
O396 O 0.52168 0.27951 0.8012 0.0
Co397 Co 0.49002 0.27277 0.79754 0.0
O398 O 0.49839 0.28712 0.82514 0.0
C399 C 0.48693 0.23767 0.81765 0.0
C400 C 0.48532 0.23808 0.76175 0.0
C401 C 0.51766 0.28712 0.82005 0.0
O402 O 0.50234 0.24152 0.80563 0.0
O403 O 0.47283 0.25179 0.81638 0.0
O404 O 0.495 0.28678 0.76029 0.0
O405 O 0.52011 0.28007 0.78148 0.0
Co406 Co 0.14948 0.30607 0.15195 0.0
O407 O 0.17482 0.30065 0.13605 0.0
O408 O 0.16763 0.33083 0.15312 0.0
C409 C 0.12712 0.29296 0.12663 0.0
O410 O 0.12515 0.31788 0.16946 0.0
Co411 Co 0.11919 0.26922 0.16529 0.0
O412 O 0.10011 0.29281 0.17412 0.0
C413 C 0.15866 0.27734 0.19 0.0
C414 C 0.18041 0.31987 0.14113 0.0
C415 C 0.10689 0.31178 0.17613 0.0
O416 O 0.16252 0.29412 0.17882 0.0
O417 O 0.14318 0.26472 0.18589 0.0
O418 O 0.13414 0.31237 0.12554 0.0
O419 O 0.1348 0.28208 0.14225 0.0
Co420 Co 0.06672 0.86166 0.32261 0.0
O421 O 0.08324 0.87087 0.29858 0.0
O422 O 0.06978 0.89221 0.32339 0.0
C423 C 0.04531 0.83946 0.3038 0.0
O424 O 0.04844 0.85738 0.34944 0.0
Co425 Co 0.06891 0.81395 0.33484 0.0
O426 O 0.04641 0.82209 0.35546 0.0
C427 C 0.10483 0.84203 0.34534 0.0
C428 C 0.08076 0.88997 0.30591 0.0
C429 C 0.04146 0.84117 0.35999 0.0
O430 O 0.09334 0.8582 0.34032 0.0
O431 O 0.09869 0.82294 0.34186 0.0
O432 O 0.04142 0.85971 0.30449 0.0
O433 O 0.06299 0.83402 0.31259 0.0
Co434 Co 0.45784 0.8378 0.64725 0.0
O435 O 0.43198 0.83673 0.63118 0.0
O436 O 0.43716 0.82028 0.66208 0.0
C437 C 0.47955 0.8302 0.61978 0.0
O438 O 0.48387 0.83437 0.66721 0.0
Co439 Co 0.48766 0.87177 0.64423 0.0
O440 O 0.51087 0.85352 0.65462 0.0
C441 C 0.45655 0.8727 0.67797 0.0
C442 C 0.42468 0.82442 0.64603 0.0
C443 C 0.50401 0.83888 0.66659 0.0
O444 O 0.4465 0.86316 0.66325 0.0
O445 O 0.47498 0.87972 0.67326 0.0
O446 O 0.46921 0.8159 0.63026 0.0
O447 O 0.47489 0.85015 0.62445 0.0
Co448 Co 0.76685 0.49407 0.82414 0.0
O449 O 0.78737 0.47385 0.83838 0.0
O450 O 0.78382 0.50488 0.85002 0.0
C451 C 0.79293 0.51825 0.81322 0.0
O452 O 0.74656 0.51473 0.81004 0.0
Co453 Co 0.76359 0.48016 0.8116 0.0
O454 O 0.74301 0.48888 0.78828 0.0
C455 C 0.73854 0.47391 0.84775 0.0
C456 C 0.79276 0.48677 0.85275 0.0
C457 C 0.73776 0.50756 0.79327 0.0
O458 O 0.74628 0.49219 0.84739 0.0
O459 O 0.74426 0.46238 0.83216 0.0
O460 O 0.7824 0.52021 0.83066 0.0
O461 O 0.78863 0.50093 0.80291 0.0
Co462 Co 0.81987 0.47741 0.10935 0.0
O463 O 0.82869 0.49747 0.13096 0.0
O464 O 0.7991 0.47861 0.13172 0.0
C465 C 0.82592 0.4983 0.08024 0.0
O466 O 0.805 0.45545 0.09083 0.0
Co467 Co 0.85168 0.46039 0.07559 0.0
O468 O 0.82639 0.4455 0.0639 0.0
C469 C 0.85271 0.44291 0.1195 0.0
C470 C 0.81117 0.49267 0.14085 0.0
C471 C 0.80881 0.44462 0.07389 0.0
O472 O 0.83587 0.45365 0.12419 0.0
O473 O 0.86226 0.44505 0.10161 0.0
O474 O 0.80866 0.50022 0.09139 0.0
O475 O 0.83967 0.48544 0.08845 0.0
Co476 Co 0.82284 0.61059 0.34279 0.0
O477 O 0.80877 0.62972 0.36439 0.0
O478 O 0.8101 0.59651 0.36917 0.0
C479 C 0.79095 0.59309 0.33415 0.0
O480 O 0.83678 0.58958 0.32271 0.0
Co481 Co 0.8257 0.62619 0.33224 0.0
O482 O 0.84186 0.61829 0.30531 0.0
C483 C 0.8565 0.62414 0.36386 0.0
C484 C 0.80439 0.61452 0.37695 0.0
C485 C 0.8444 0.59841 0.3062 0.0
O486 O 0.84758 0.60656 0.36123 0.0
O487 O 0.84901 0.63894 0.35233 0.0
O488 O 0.80408 0.58617 0.34823 0.0
O489 O 0.79657 0.61093 0.32567 0.0
Co490 Co 0.74457 0.64606 0.59561 0.0
O491 O 0.74609 0.61986 0.61165 0.0
O492 O 0.76479 0.64825 0.61887 0.0
C493 C 0.74694 0.62949 0.56492 0.0
O494 O 0.74835 0.6758 0.58045 0.0
Co495 Co 0.70882 0.65859 0.57314 0.0
O496 O 0.72593 0.67555 0.55317 0.0
C497 C 0.71016 0.67192 0.6161 0.0
C498 C 0.75871 0.62939 0.62469 0.0
C499 C 0.74232 0.68309 0.56198 0.0
O500 O 0.72224 0.65576 0.61644 0.0
O501 O 0.70147 0.67729 0.59861 0.0
O502 O 0.76339 0.63557 0.57562 0.0
O503 O 0.72796 0.63315 0.57287 0.0
Co504 Co 0.76473 0.60328 0.75009 0.0
O505 O 0.7822 0.61156 0.72623 0.0
O506 O 0.7497 0.59891 0.72358 0.0
C507 C 0.7904 0.5859 0.76719 0.0
O508 O 0.74241 0.592 0.77196 0.0
Co509 Co 0.77296 0.62245 0.79355 0.0
O510 O 0.75186 0.60213 0.80503 0.0
C511 C 0.74859 0.64732 0.7631 0.0
C512 C 0.76638 0.60662 0.71406 0.0
C513 C 0.73988 0.59167 0.79252 0.0
O514 O 0.75171 0.63177 0.75053 0.0
O515 O 0.75602 0.64745 0.78209 0.0
O516 O 0.77968 0.57695 0.75196 0.0
O517 O 0.78654 0.60601 0.77052 0.0
Co518 Co 0.82628 0.46417 0.96645 0.0
O519 O 0.81876 0.48278 0.94336 0.0
O520 O 0.8425 0.45691 0.94122 0.0
C521 C 0.82892 0.4893 0.99231 0.0
O522 O 0.83814 0.4421 0.98731 0.0
Co523 Co 0.79446 0.46023 0.00419 0.0
O524 O 0.81754 0.44265 0.01677 0.0
C525 C 0.78508 0.43827 0.9639 0.0
C526 C 0.83186 0.47193 0.93169 0.0
C527 C 0.83356 0.43588 0.00637 0.0
O528 O 0.80374 0.44332 0.95731 0.0
O529 O 0.77755 0.44531 0.9815 0.0
O530 O 0.84459 0.48597 0.97924 0.0
O531 O 0.81175 0.47924 0.98745 0.0
Co532 Co 0.80152 0.52169 0.26148 0.0
O533 O 0.78242 0.51603 0.23831 0.0
O534 O 0.81349 0.53128 0.23467 0.0
C535 C 0.77724 0.53507 0.2836 0.0
O536 O 0.82531 0.52994 0.28303 0.0
Co537 Co 0.79698 0.49451 0.30128 0.0
O538 O 0.81918 0.51275 0.31401 0.0
C539 C 0.81924 0.47637 0.26493 0.0
C540 C 0.79646 0.52392 0.22553 0.0
C541 C 0.82983 0.52592 0.30289 0.0
O542 O 0.81567 0.4942 0.25604 0.0
O543 O 0.81258 0.47225 0.28377 0.0
O544 O 0.78597 0.54664 0.26885 0.0
O545 O 0.78167 0.51481 0.28307 0.0
Co546 Co 0.81678 0.66049 0.49213 0.0
O547 O 0.82578 0.65053 0.46373 0.0
O548 O 0.79299 0.65171 0.47415 0.0
C549 C 0.80196 0.63449 0.51387 0.0
O550 O 0.80384 0.67341 0.52217 0.0
Co551 Co 0.8282 0.66824 0.50111 0.0
O552 O 0.83553 0.68414 0.52815 0.0
C553 C 0.82462 0.69971 0.47508 0.0
C554 C 0.80615 0.64679 0.45938 0.0
C555 C 0.81657 0.68438 0.53436 0.0
O556 O 0.80871 0.68881 0.47993 0.0
O557 O 0.8415 0.69185 0.48235 0.0
O558 O 0.81841 0.62991 0.50299 0.0
O559 O 0.79905 0.65472 0.51449 0.0
Co560 Co 0.82 0.792 0.5232 0.0
O561 O 0.84284 0.81178 0.51908 0.0
O562 O 0.84679 0.77685 0.51914 0.0
C563 C 0.80657 0.80915 0.55139 0.0
O564 O 0.79877 0.76652 0.52885 0.0
Co565 Co 0.77743 0.80415 0.51237 0.0
O566 O 0.76552 0.77753 0.52286 0.0
C567 C 0.8018 0.78204 0.48112 0.0
C568 C 0.85536 0.79564 0.51701 0.0
C569 C 0.77827 0.76339 0.52936 0.0
O570 O 0.81635 0.79118 0.49162 0.0
O571 O 0.78265 0.78486 0.48689 0.0
O572 O 0.82199 0.79568 0.55287 0.0
O573 O 0.80025 0.81394 0.532 0.0
Co574 Co 0.30582 0.79174 0.61486 0.0
O575 O 0.33142 0.78017 0.62746 0.0
O576 O 0.32655 0.81409 0.61924 0.0
C577 C 0.30187 0.7667 0.58931 0.0
O578 O 0.28173 0.80946 0.60074 0.0
Co579 Co 0.26351 0.76821 0.61803 0.0
O580 O 0.25156 0.79039 0.59902 0.0
C581 C 0.27769 0.79326 0.65467 0.0
C582 C 0.33896 0.79936 0.62668 0.0
C583 C 0.2622 0.80705 0.59467 0.0
O584 O 0.2941 0.79802 0.64364 0.0
O585 O 0.26323 0.78073 0.64774 0.0
O586 O 0.31525 0.78222 0.58739 0.0
O587 O 0.29288 0.76522 0.60799 0.0
Co588 Co 0.43945 0.12369 0.76709 0.0
O589 O 0.45835 0.1463 0.77551 0.0
O590 O 0.43812 0.14648 0.74656 0.0
C591 C 0.46306 0.09692 0.77301 0.0
O592 O 0.4184 0.10385 0.75226 0.0
Co593 Co 0.42602 0.08733 0.79796 0.0
O594 O 0.41337 0.07449 0.77195 0.0
C595 C 0.40821 0.1308 0.80319 0.0
C596 C 0.45209 0.15609 0.75835 0.0
C597 C 0.41014 0.08536 0.7551 0.0
O598 O 0.41579 0.13647 0.78491 0.0
O599 O 0.41225 0.11267 0.81167 0.0
O600 O 0.46354 0.10764 0.75528 0.0
O601 O 0.44933 0.10358 0.78665 0.0
Co602 Co 0.28265 0.29279 0.0888 0.0
O603 O 0.27722 0.31848 0.10472 0.0
O604 O 0.25271 0.29706 0.09093 0.0
C605 C 0.30879 0.30607 0.06762 0.0
O606 O 0.28145 0.26562 0.07133 0.0
Co607 Co 0.32635 0.2703 0.09135 0.0
O608 O 0.31398 0.25108 0.06941 0.0
C609 C 0.29635 0.26648 0.12735 0.0
C610 C 0.25727 0.31372 0.1023 0.0
C611 C 0.29435 0.25131 0.06461 0.0
O612 O 0.28201 0.27551 0.1159 0.0
O613 O 0.31564 0.26483 0.12108 0.0
O614 O 0.28889 0.30909 0.06295 0.0
O615 O 0.31188 0.29676 0.08569 0.0
Co616 Co 0.64432 0.4974 0.8233 0.0
O617 O 0.62563 0.47341 0.82254 0.0
O618 O 0.65682 0.47442 0.80651 0.0
C619 C 0.61863 0.52058 0.81573 0.0
O620 O 0.66714 0.52132 0.82019 0.0
Co621 Co 0.63921 0.52934 0.85856 0.0
O622 O 0.65956 0.54767 0.84322 0.0
C623 C 0.66375 0.4911 0.86776 0.0
C624 C 0.63958 0.46379 0.81095 0.0
C625 C 0.67044 0.54026 0.82786 0.0
O626 O 0.65917 0.48549 0.84874 0.0
O627 O 0.65699 0.50859 0.87565 0.0
O628 O 0.62846 0.51004 0.80107 0.0
O629 O 0.62321 0.51562 0.83543 0.0
Co630 Co 0.75706 0.334 0.01259 0.0
O631 O 0.74628 0.31141 0.9954 0.0
O632 O 0.72673 0.33665 0.01072 0.0
C633 C 0.77991 0.31424 0.03177 0.0
O634 O 0.76343 0.35961 0.03147 0.0
Co635 Co 0.80478 0.34485 0.00621 0.0
O636 O 0.79866 0.36589 0.02907 0.0
C637 C 0.77389 0.35945 0.97452 0.0
C638 C 0.72795 0.32049 0.99773 0.0
C639 C 0.78025 0.37023 0.0363 0.0
O640 O 0.75913 0.35305 0.98702 0.0
O641 O 0.79349 0.35547 0.97812 0.0
O642 O 0.75994 0.31493 0.03711 0.0
O643 O 0.78443 0.32326 0.01387 0.0
Co644 Co 0.45211 0.98327 0.79632 0.0
O645 O 0.47381 0.96281 0.78997 0.0
O646 O 0.45053 0.95977 0.81608 0.0
C647 C 0.47313 0.01237 0.79271 0.0
O648 O 0.42704 0.00111 0.80731 0.0
Co649 Co 0.43913 0.01709 0.76266 0.0
O650 O 0.42959 0.03165 0.78937 0.0
C651 C 0.42371 0.97259 0.75861 0.0
C652 C 0.46612 0.95135 0.80537 0.0
C653 C 0.42109 0.02043 0.80404 0.0
O654 O 0.4321 0.96803 0.77672 0.0
O655 O 0.42574 0.99093 0.7498 0.0
O656 O 0.47276 0.00196 0.81067 0.0
O657 O 0.46215 0.00386 0.77769 0.0
Co658 Co 0.16903 0.13151 0.32973 0.0
O659 O 0.15559 0.15647 0.31914 0.0
O660 O 0.16972 0.15355 0.35149 0.0
C661 C 0.14331 0.10863 0.3193 0.0
O662 O 0.18397 0.1071 0.34534 0.0
Co663 Co 0.18211 0.09833 0.29525 0.0
O664 O 0.18982 0.08139 0.3208 0.0
C665 C 0.20891 0.13606 0.30209 0.0
C666 C 0.15933 0.1649 0.33755 0.0
C667 C 0.19085 0.08854 0.33979 0.0
O668 O 0.19743 0.14103 0.31832 0.0
O669 O 0.20378 0.12102 0.28936 0.0
O670 O 0.14127 0.11946 0.33673 0.0
O671 O 0.15929 0.11423 0.30768 0.0
C672 C 0.05561 0.3416 0.31264 0.0
C673 C 0.03574 0.33633 0.30354 0.0
C674 C 0.04195 0.29886 0.31257 0.0
C675 C 0.06396 0.30352 0.31378 0.0
N676 N 0.09082 0.32943 0.32251 0.0
N677 N 0.00675 0.31129 0.30275 0.0
C678 C 0.07048 0.32502 0.3164 0.0
C679 C 0.02779 0.31531 0.30615 0.0
N680 N 0.05969 0.36207 0.31865 0.0
N681 N 0.03459 0.27929 0.31851 0.0
H682 H 0.99557 0.32351 0.30169 0.0
H683 H 0.00038 0.29608 0.30121 0.0
H684 H 0.04415 0.26818 0.32623 0.0
H685 H 0.01862 0.27504 0.3186 0.0
H686 H 0.07354 0.36682 0.32635 0.0
H687 H 0.04791 0.37374 0.31856 0.0
H688 H 0.09751 0.34457 0.32191 0.0
H689 H 0.10104 0.31764 0.32821 0.0
C690 C 0.05847 0.77425 0.49175 0.0
C691 C 0.07147 0.79212 0.48698 0.0
C692 C 0.04155 0.81617 0.49395 0.0
C693 C 0.0277 0.79825 0.49403 0.0
N694 N 0.02398 0.76141 0.50365 0.0
N695 N 0.07801 0.82865 0.49614 0.0
C696 C 0.03653 0.77757 0.49626 0.0
C697 C 0.06382 0.81272 0.49203 0.0
N698 N 0.06698 0.75429 0.49223 0.0
N699 N 0.03376 0.8364 0.49519 0.0
H700 H 0.09434 0.82585 0.4968 0.0
H701 H 0.07368 0.84369 0.50158 0.0
H702 H 0.0184 0.84002 0.49996 0.0
H703 H 0.04277 0.84982 0.49151 0.0
H704 H 0.05795 0.74042 0.49181 0.0
H705 H 0.08321 0.75164 0.49404 0.0
H706 H 0.02945 0.74616 0.50706 0.0
H707 H 0.00832 0.76397 0.50852 0.0
C708 C 0.56051 0.79604 0.77693 0.0
C709 C 0.57024 0.78384 0.79254 0.0
C710 C 0.53671 0.78986 0.81282 0.0
C711 C 0.5263 0.7946 0.79322 0.0
N712 N 0.5313 0.7807 0.75914 0.0
N713 N 0.56678 0.77059 0.82845 0.0
C714 C 0.53861 0.79321 0.77489 0.0
C715 C 0.55817 0.7815 0.81185 0.0
N716 N 0.57195 0.80764 0.76288 0.0
N717 N 0.52642 0.79287 0.83164 0.0
H718 H 0.58232 0.7648 0.82765 0.0
H719 H 0.55824 0.76688 0.84222 0.0
H720 H 0.51073 0.79826 0.83207 0.0
H721 H 0.53385 0.79081 0.84635 0.0
H722 H 0.56447 0.81673 0.75118 0.0
H723 H 0.58842 0.809 0.76443 0.0
H724 H 0.5397 0.77847 0.74529 0.0
H725 H 0.51861 0.7704 0.76188 0.0
C726 C 0.56271 0.26829 0.96237 0.0
C727 C 0.56757 0.24948 0.95072 0.0
C728 C 0.60497 0.25811 0.95434 0.0
C729 C 0.59905 0.27972 0.95682 0.0
N730 N 0.57385 0.30421 0.97165 0.0
N731 N 0.5942 0.22335 0.94158 0.0
C732 C 0.57842 0.28441 0.96406 0.0
C733 C 0.58903 0.24304 0.94906 0.0
N734 N 0.54306 0.27055 0.97128 0.0
N735 N 0.62576 0.25246 0.95658 0.0
H736 H 0.58301 0.21131 0.93969 0.0
H737 H 0.60963 0.21902 0.93743 0.0
H738 H 0.6372 0.26362 0.96116 0.0
H739 H 0.63105 0.23676 0.95611 0.0
H740 H 0.53868 0.2834 0.98078 0.0
H741 H 0.53185 0.25829 0.97061 0.0
H742 H 0.55851 0.30946 0.97492 0.0
H743 H 0.58583 0.31524 0.97485 0.0
C744 C 0.99563 0.80633 0.29208 0.0
C745 C 0.0057 0.78629 0.29082 0.0
C746 C 0.03974 0.8042 0.28604 0.0
C747 C 0.03068 0.8232 0.29441 0.0
N748 N -0.00164 0.84332 0.3018 0.0
N749 N 0.03609 0.76767 0.2762 0.0
C750 C 0.00809 0.82483 0.29583 0.0
C751 C 0.02725 0.78557 0.28454 0.0
N752 N 0.97417 0.80754 0.28917 0.0
N753 N 0.06034 0.80389 0.2792 0.0
H754 H 0.02745 0.75398 0.27255 0.0
H755 H 0.02745 0.75398 0.27255 0.0
H756 H 0.06949 0.81767 0.27789 0.0
H757 H 0.06767 0.79006 0.27363 0.0
H758 H 0.96587 0.82183 0.28805 0.0
H759 H 0.96519 0.79411 0.28529 0.0
H760 H 0.98247 0.84402 0.30638 0.0
H761 H 0.00588 0.85796 0.3028 0.0
C762 C 0.51075 0.78787 0.59222 0.0
C763 C 0.53071 0.79796 0.59047 0.0
C764 C 0.51418 0.83275 0.59803 0.0
C765 C 0.49504 0.82219 0.60328 0.0
N766 N 0.47252 0.79295 0.59288 0.0
N767 N 0.54741 0.83042 0.57858 0.0
C768 C 0.49248 0.80071 0.59622 0.0
C769 C 0.53104 0.82063 0.58895 0.0
N770 N 0.50907 0.76633 0.59037 0.0
N771 N 0.51675 0.85388 0.60216 0.0
H772 H 0.55916 0.82168 0.57073 0.0
H773 H 0.54786 0.84675 0.57568 0.0
H774 H 0.5043 0.86377 0.60668 0.0
H775 H 0.53146 0.86145 0.60128 0.0
H776 H 0.49533 0.75799 0.59438 0.0
H777 H 0.5215 0.75689 0.58487 0.0
H778 H 0.46952 0.77795 0.58649 0.0
H779 H 0.45918 0.80274 0.5941 0.0
C780 C 0.56822 0.30048 0.73855 0.0
C781 C 0.56809 0.32276 0.74079 0.0
C782 C 0.52952 0.3223 0.74638 0.0
C783 C 0.53081 0.30004 0.75001 0.0
N784 N 0.54983 0.26714 0.74481 0.0
N785 N 0.54793 0.35446 0.73474 0.0
C786 C 0.54963 0.28884 0.74415 0.0
C787 C 0.54831 0.33351 0.7404 0.0
N788 N 0.58599 0.29078 0.73078 0.0
N789 N 0.511 0.33288 0.75032 0.0
H790 H 0.56179 0.36233 0.73003 0.0
H791 H 0.53405 0.36325 0.73279 0.0
H792 H 0.49692 0.32506 0.75416 0.0
H793 H 0.50969 0.34939 0.75038 0.0
H794 H 0.58714 0.27456 0.72767 0.0
H795 H 0.59894 0.29966 0.72535 0.0
H796 H 0.5635 0.25794 0.74342 0.0
H797 H 0.536 0.25833 0.74687 0.0
C798 C 0.07378 0.29428 0.09958 0.0
C799 C 0.0651 0.27575 0.10921 0.0
C800 C 0.10119 0.26391 0.11752 0.0
C801 C 0.1083 0.28511 0.11438 0.0
N802 N 0.10392 0.31677 0.09287 0.0
N803 N 0.07135 0.23996 0.12209 0.0
C804 C 0.09548 0.29912 0.10229 0.0
C805 C 0.07906 0.25937 0.11615 0.0
N806 N 0.06155 0.30764 0.08768 0.0
N807 N 0.11576 0.24813 0.12072 0.0
H808 H 0.05596 0.23497 0.11881 0.0
H809 H 0.08029 0.22867 0.13029 0.0
H810 H 0.13206 0.25102 0.1197 0.0
H811 H 0.11193 0.23205 0.12171 0.0
H812 H 0.04565 0.30462 0.08399 0.0
H813 H 0.04565 0.30462 0.08399 0.0
H814 H 0.09462 0.32778 0.08459 0.0
H815 H 0.12025 0.31927 0.09172 0.0
C816 C 0.31932 0.04482 0.33338 0.0
C817 C 0.31508 0.04188 0.31131 0.0
C818 C 0.30656 0.00446 0.31792 0.0
C819 C 0.30647 0.00874 0.34021 0.0
N820 N 0.32512 0.02797 0.3677 0.0
N821 N 0.31682 0.01649 0.28255 0.0
C822 C 0.3167 0.02741 0.34765 0.0
C823 C 0.31248 0.0209 0.30343 0.0
N824 N 0.32602 0.06418 0.34064 0.0
N825 N 0.30144 0.98463 0.31069 0.0
H826 H 0.32401 0.02753 0.27245 0.0
H827 H 0.31619 0.00129 0.276 0.0
H828 H 0.30099 0.9714 0.32075 0.0
H829 H 0.29787 0.98129 0.29482 0.0
H830 H 0.3263 0.0683 0.35673 0.0
H831 H 0.33114 0.0762 0.33036 0.0
H832 H 0.3338 0.04076 0.37365 0.0
H833 H 0.32622 0.0144 0.37721 0.0
C834 C 0.23597 0.94223 0.58807 0.0
C835 C 0.25859 0.94274 0.58919 0.0
C836 C 0.25955 0.95494 0.55253 0.0
C837 C 0.23927 0.94551 0.5498 0.0
N838 N 0.20508 0.93849 0.56503 0.0
N839 N 0.29048 0.95869 0.5756 0.0
C840 C 0.2262 0.94242 0.5677 0.0
C841 C 0.26994 0.95258 0.57249 0.0
N842 N 0.22416 0.94127 0.6063 0.0
N843 N 0.26895 0.96469 0.53553 0.0
H844 H 0.29728 0.95869 0.59078 0.0
H845 H 0.30039 0.96424 0.56354 0.0
H846 H 0.26098 0.96615 0.52098 0.0
H847 H 0.28363 0.97228 0.53615 0.0
H848 H 0.20764 0.9419 0.60656 0.0
H849 H 0.23105 0.94188 0.62137 0.0
H850 H 0.19509 0.93322 0.57716 0.0
H851 H 0.19764 0.94088 0.55036 0.0
C852 C 0.27759 0.05305 0.77952 0.0
C853 C 0.28167 0.03088 0.78123 0.0
C854 C 0.27714 0.03259 0.82005 0.0
C855 C 0.27669 0.055 0.81825 0.0
N856 N 0.26361 0.08423 0.79742 0.0
N857 N 0.27549 -0.00124 0.80141 0.0
C858 C 0.27222 0.06432 0.79825 0.0
C859 C 0.27822 0.02033 0.80103 0.0
N860 N 0.28051 0.0638 0.7608 0.0
N861 N 0.27681 0.02317 0.83965 0.0
H862 H 0.27496 0.98969 0.78747 0.0
H863 H 0.27159 0.9902 0.81508 0.0
H864 H 0.27252 0.03149 0.85337 0.0
H865 H 0.28028 0.00717 0.84219 0.0
H866 H 0.28018 0.08036 0.75984 0.0
H867 H 0.28471 0.05663 0.7465 0.0
H868 H 0.25863 0.09136 0.78326 0.0
H869 H 0.25938 0.09238 0.81131 0.0
C870 C 0.27095 0.11712 0.08798 0.0
C871 C 0.29237 0.11485 0.09463 0.0
C872 C 0.3012 0.10071 0.05927 0.0
C873 C 0.28187 0.10927 0.0514 0.0
N874 N 0.24491 0.11679 0.06057 0.0
N875 N 0.3258 0.09681 0.08879 0.0
C876 C 0.26566 0.11462 0.06624 0.0
C877 C 0.30686 0.10399 0.08104 0.0
N878 N 0.25537 0.12121 0.10257 0.0
N879 N 0.31343 0.0885 0.04605 0.0
H880 H 0.32841 0.09434 0.105 0.0
H881 H 0.33851 0.09227 0.07922 0.0
H882 H 0.30847 0.08449 0.03067 0.0
H883 H 0.32719 0.08063 0.05073 0.0
H884 H 0.23955 0.12372 0.09825 0.0
H885 H 0.25809 0.12049 0.11898 0.0
H886 H 0.23881 0.11319 0.04556 0.0
H887 H 0.23881 0.11319 0.04556 0.0
C888 C 0.32273 0.31034 0.02973 0.0
C889 C 0.3266 0.3088 0.05197 0.0
C890 C 0.36403 0.30127 0.04455 0.0
C891 C 0.35839 0.29558 0.02338 0.0
N892 N 0.33476 0.30202 0.99383 0.0
N893 N 0.35311 0.31213 0.07963 0.0
C894 C 0.33845 0.3026 0.01529 0.0
C895 C 0.34792 0.30716 0.05909 0.0
N896 N 0.3049 0.32039 0.0225 0.0
N897 N 0.38456 0.30209 0.05123 0.0
H898 H 0.34234 0.31923 0.09009 0.0
H899 H 0.36849 0.31039 0.08562 0.0
H900 H 0.39764 0.30055 0.04114 0.0
H901 H 0.39764 0.30055 0.04114 0.0
H902 H 0.3014 0.32275 0.00646 0.0
H903 H 0.295 0.32905 0.03259 0.0
H904 H 0.31983 0.30387 0.98696 0.0
H905 H 0.347 0.29972 0.98284 0.0
C906 C 0.81653 0.29976 0.03787 0.0
C907 C 0.79694 0.30692 0.04642 0.0
C908 C 0.81275 0.30779 0.08197 0.0
C909 C 0.83305 0.30755 0.07228 0.0
N910 N 0.85448 0.29503 0.04295 0.0
N911 N 0.77495 0.31412 0.07651 0.0
C912 C 0.83507 0.3007 0.0508 0.0
C913 C 0.79453 0.30924 0.06871 0.0
N914 N 0.81701 0.29136 0.01777 0.0
N915 N 0.81117 0.30627 0.10365 0.0
H916 H 0.77174 0.31785 0.09238 0.0
H917 H 0.77174 0.31785 0.09238 0.0
H918 H 0.79686 0.30472 0.11181 0.0
H919 H 0.82452 0.304 0.11326 0.0
H920 H 0.83047 0.28489 0.01067 0.0
H921 H 0.80322 0.28905 0.00883 0.0
H922 H 0.85774 0.29297 0.02682 0.0
H923 H 0.86727 0.29153 0.0529 0.0
C924 C 0.98111 0.51697 0.29788 0.0
C925 C 0.97746 0.52802 0.2785 0.0
C926 C 0.98983 0.56007 0.2956 0.0
C927 C 0.98237 0.55121 0.31502 0.0
N928 N 0.9791 0.51988 0.33652 0.0
N929 N 0.9874 0.55789 0.25686 0.0
C930 C 0.98159 0.52897 0.31696 0.0
C931 C 0.98553 0.5488 0.27648 0.0
N932 N 0.98228 0.49535 0.29779 0.0
N933 N -0.00177 0.58004 0.29571 0.0
H934 H 0.98514 0.54901 0.24298 0.0
H935 H 0.99139 0.57379 0.25446 0.0
H936 H 0.00023 0.58828 0.31005 0.0
H937 H 0.00425 0.58753 0.28218 0.0
H938 H 0.98543 0.48632 0.31136 0.0
H939 H 0.9819 0.48694 0.28343 0.0
H940 H 0.97618 0.50371 0.33875 0.0
H941 H 0.97983 0.52899 0.35042 0.0
C942 C 0.80879 0.81247 0.59082 0.0
C943 C 0.79798 0.81813 0.5717 0.0
C944 C 0.76575 0.82163 0.59257 0.0
C945 C 0.77453 0.80691 0.60728 0.0
N946 N 0.80572 0.79342 0.62443 0.0
N947 N 0.76781 0.83619 0.55663 0.0
C948 C 0.79669 0.80465 0.60821 0.0
C949 C 0.777 0.82587 0.57335 0.0
N950 N 0.83037 0.81393 0.59178 0.0
N951 N 0.74596 0.82953 0.59637 0.0
H952 H 0.77663 0.84123 0.54348 0.0
H953 H 0.75176 0.84014 0.55606 0.0
H954 H 0.73786 0.82563 0.6104 0.0
H955 H 0.73853 0.84077 0.58671 0.0
H956 H 0.83904 0.81088 0.60561 0.0
H957 H 0.83911 0.82034 0.57914 0.0
H958 H 0.82167 0.78901 0.6246 0.0
H959 H 0.79678 0.78825 0.63746 0.0
C960 C 0.1205 0.07629 0.32889 0.0
C961 C 0.12934 0.09042 0.31338 0.0
C962 C 0.12041 0.06507 0.28493 0.0
C963 C 0.11504 0.05004 0.30088 0.0
N964 N 0.09806 0.04544 0.33475 0.0
N965 N 0.12799 0.10208 0.27672 0.0
C966 C 0.11092 0.05721 0.32176 0.0
C967 C 0.12621 0.08602 0.29132 0.0
N968 N 0.12238 0.07983 0.35032 0.0
N969 N 0.12018 0.05944 0.26393 0.0
H970 H 0.13061 0.11785 0.2812 0.0
H971 H 0.12453 0.10032 0.26058 0.0
H972 H 0.11248 0.04583 0.25848 0.0
H973 H 0.12721 0.06849 0.25193 0.0
H974 H 0.11866 0.06829 0.36168 0.0
H975 H 0.12884 0.09332 0.35723 0.0
H976 H 0.09291 0.05067 0.34966 0.0
H977 H 0.09062 0.0316 0.32933 0.0
C978 C 0.31089 0.755 0.55246 0.0
C979 C 0.29622 0.75435 0.5697 0.0
C980 C 0.26809 0.74653 0.54422 0.0
C981 C 0.28085 0.75562 0.52797 0.0
N982 N 0.31627 0.7601 0.51434 0.0
N983 N 0.26253 0.74126 0.58224 0.0
C984 C 0.30304 0.75672 0.53122 0.0
C985 C 0.27534 0.74709 0.56573 0.0
N986 N 0.33213 0.7541 0.55673 0.0
N987 N 0.24933 0.73724 0.53872 0.0
H988 H 0.26852 0.73849 0.59748 0.0
H989 H 0.24628 0.73859 0.58066 0.0
H990 H 0.24521 0.73548 0.52269 0.0
H991 H 0.23936 0.72946 0.54943 0.0
H992 H 0.34388 0.75357 0.54507 0.0
H993 H 0.33775 0.75196 0.57227 0.0
H994 H 0.33231 0.76384 0.51584 0.0
H995 H 0.31107 0.75853 0.49863 0.0
C996 C 0.60263 0.57392 0.80161 0.0
C997 C 0.60496 0.56888 0.77965 0.0
C998 C 0.59453 0.53276 0.78782 0.0
C999 C 0.60252 0.53616 0.8087 0.0
N1000 N 0.60652 0.56056 0.8378 0.0
N1001 N 0.59423 0.54571 0.75118 0.0
C1002 C 0.60338 0.55706 0.81661 0.0
C1003 C 0.59745 0.54906 0.7724 0.0
N1004 N 0.60041 0.5946 0.80773 0.0
N1005 N 0.58633 0.51334 0.78276 0.0
H1006 H 0.5947 0.55823 0.74024 0.0
H1007 H 0.59075 0.53089 0.74465 0.0
H1008 H 0.58502 0.50142 0.79433 0.0
H1009 H 0.57973 0.50971 0.76798 0.0
H1010 H 0.59788 0.59922 0.82348 0.0
H1011 H 0.59896 0.60675 0.79644 0.0
H1012 H 0.60982 0.57551 0.84416 0.0
H1013 H 0.60582 0.54816 0.84885 0.0
C1014 C 0.80526 0.55661 0.81502 0.0
C1015 C 0.80594 0.53627 0.80478 0.0
C1016 C 0.81267 0.55346 0.77077 0.0
C1017 C 0.80516 0.57265 0.77993 0.0
N1018 N 0.80731 0.59513 0.81063 0.0
N1019 N 0.82214 0.51629 0.77656 0.0
C1020 C 0.80593 0.5752 0.80215 0.0
C1021 C 0.81388 0.53501 0.78378 0.0
N1022 N 0.80275 0.55818 0.83657 0.0
N1023 N 0.81748 0.55299 0.74955 0.0
H1024 H 0.82416 0.50328 0.78674 0.0
H1025 H 0.82868 0.51425 0.76145 0.0
H1026 H 0.8177 0.56691 0.74043 0.0
H1027 H 0.82118 0.5392 0.74115 0.0
H1028 H 0.79896 0.57226 0.84443 0.0
H1029 H 0.80449 0.54528 0.84675 0.0
H1030 H 0.80891 0.59824 0.82684 0.0
H1031 H 0.80938 0.60851 0.80098 0.0
C1032 C 0.84968 0.50127 0.02532 0.0
C1033 C 0.83065 0.50099 0.01308 0.0
C1034 C 0.81004 0.51081 0.04486 0.0
C1035 C 0.82805 0.50582 0.0576 0.0
N1036 N 0.86604 0.50812 0.05981 0.0
N1037 N 0.79573 0.51582 0.00913 0.0
C1038 C 0.84829 0.50475 0.04773 0.0
C1039 C 0.81169 0.50904 0.02227 0.0
N1040 N 0.8689 0.49798 0.01582 0.0
N1041 N 0.79155 0.51724 0.05419 0.0
H1042 H 0.79744 0.51606 0.99256 0.0
H1043 H 0.78184 0.52309 0.01439 0.0
H1044 H 0.79103 0.52344 0.06958 0.0
H1045 H 0.77695 0.51744 0.04641 0.0
H1046 H 0.88268 0.49428 0.02421 0.0
H1047 H 0.87131 0.49954 -0.00051 0.0
H1048 H 0.88136 0.50905 0.05364 0.0
H1049 H 0.86507 0.51242 0.07586 0.0
C1050 C 0.76214 0.58393 0.30795 0.0
C1051 C 0.77286 0.57958 0.32719 0.0
C1052 C 0.76847 0.54143 0.32191 0.0
C1053 C 0.76469 0.54603 0.30026 0.0
N1054 N 0.74616 0.56881 0.27592 0.0
N1055 N 0.77298 0.55615 0.35754 0.0
C1056 C 0.75691 0.56643 0.29464 0.0
C1057 C 0.77131 0.55884 0.33602 0.0
N1058 N 0.75798 0.60445 0.30228 0.0
N1059 N 0.77047 0.52086 0.32843 0.0
H1060 H 0.77396 0.56923 0.36776 0.0
H1061 H 0.77138 0.54151 0.36515 0.0
H1062 H 0.76651 0.50824 0.31839 0.0
H1063 H 0.77567 0.51646 0.34357 0.0
H1064 H 0.75179 0.60893 0.28756 0.0
H1065 H 0.76033 0.61697 0.31297 0.0
H1066 H 0.73963 0.58311 0.27073 0.0
H1067 H 0.7428 0.55564 0.2663 0.0
C1068 C 0.76456 0.62221 0.51222 0.0
C1069 C 0.78534 0.61905 0.52026 0.0
C1070 C 0.76956 0.60182 0.55092 0.0
C1071 C 0.75127 0.61453 0.54745 0.0
N1072 N 0.72826 0.63087 0.52188 0.0
N1073 N 0.80776 0.60055 0.5451 0.0
C1074 C 0.74742 0.62214 0.52678 0.0
C1075 C 0.78795 0.60642 0.53864 0.0
N1076 N 0.76138 0.62399 0.49087 0.0
N1077 N 0.76997 0.58835 0.56792 0.0
H1078 H 0.82117 0.60377 0.53585 0.0
H1079 H 0.81075 0.59303 0.55961 0.0
H1080 H 0.75656 0.58647 0.57758 0.0
H1081 H 0.78272 0.57832 0.57125 0.0
H1082 H 0.74637 0.62567 0.48407 0.0
H1083 H 0.77356 0.62017 0.48027 0.0
H1084 H 0.72537 0.63884 0.50758 0.0
H1085 H 0.71568 0.63047 0.53274 0.0
C1086 C 0.48055 0.06185 0.76172 0.0
C1087 C 0.47552 0.07716 0.77762 0.0
C1088 C 0.4803 0.05021 0.80566 0.0
C1089 C 0.48144 0.03443 0.78957 0.0
N1090 N 0.49406 0.02639 0.75437 0.0
N1091 N 0.48184 0.08793 0.81391 0.0
C1092 C 0.48547 0.04076 0.76825 0.0
C1093 C 0.4791 0.07195 0.7994 0.0
N1094 N 0.47976 0.06685 0.74055 0.0
N1095 N 0.47968 0.04464 0.82669 0.0
H1096 H 0.48224 0.10392 0.80933 0.0
H1097 H 0.48607 0.08535 0.82976 0.0
H1098 H 0.4838 0.02954 0.8321 0.0
H1099 H 0.47536 0.05516 0.83877 0.0
H1100 H 0.47976 0.0554 0.72854 0.0
H1101 H 0.47915 0.08234 0.73479 0.0
H1102 H 0.49902 0.0303 0.739 0.0
H1103 H 0.49832 0.01108 0.75926 0.0
C1104 C 0.96539 0.32854 0.19827 0.0
C1105 C 0.97584 0.34683 0.20603 0.0
C1106 C 0.98698 0.35629 0.1701 0.0
C1107 C 0.98306 0.3349 0.16428 0.0
N1108 N 0.95714 0.30696 0.16725 0.0
N1109 N 0.98276 0.38348 0.19748 0.0
C1110 C 0.96817 0.3231 0.17651 0.0
C1111 C 0.98194 0.36273 0.19122 0.0
N1112 N 0.95376 0.31631 0.21194 0.0
N1113 N 0.99605 0.36984 0.15576 0.0
H1114 H 0.97746 0.38813 0.21256 0.0
H1115 H 0.98646 0.39602 0.18727 0.0
H1116 H -0.00191 0.36548 0.13981 0.0
H1117 H 0.0014 0.38504 0.1596 0.0
H1118 H 0.9473 0.30159 0.20798 0.0
H1119 H 0.95067 0.32135 0.22752 0.0
H1120 H 0.94591 0.29769 0.17513 0.0
H1121 H 0.95804 0.30448 0.15086 0.0
C1122 C 0.93156 0.7775 0.39081 0.0
C1123 C 0.94093 0.75995 0.38011 0.0
C1124 C 0.94629 0.74189 0.41393 0.0
C1125 C 0.94383 0.76182 0.42416 0.0
N1126 N 0.921 0.79252 0.42507 0.0
N1127 N 0.94057 0.7219 0.38124 0.0
C1128 C 0.93193 0.77776 0.41351 0.0
C1129 C 0.94292 0.74076 0.39159 0.0
N1130 N 0.9227 0.79362 0.3793 0.0
N1131 N 0.95272 0.72461 0.42535 0.0
H1132 H 0.93707 0.72144 0.36495 0.0
H1133 H 0.9399 0.70732 0.38915 0.0
H1134 H 0.95397 0.72517 0.44197 0.0
H1135 H 0.95697 0.7102 0.41832 0.0
H1136 H 0.91772 0.80797 0.3859 0.0
H1137 H 0.92012 0.79219 0.3629 0.0
H1138 H 0.91149 0.80427 0.41832 0.0
H1139 H 0.9197 0.79135 0.44164 0.0
C1140 C 0.62819 0.74777 0.68215 0.0
C1141 C 0.62144 0.73372 0.69799 0.0
C1142 C 0.60093 0.7148 0.67004 0.0
C1143 C 0.60143 0.73362 0.6573 0.0
N1144 N 0.61137 0.77088 0.65796 0.0
N1145 N 0.60775 0.69872 0.705 0.0
C1146 C 0.61475 0.75065 0.66448 0.0
C1147 C 0.60992 0.71536 0.69121 0.0
N1148 N 0.64549 0.76037 0.68533 0.0
N1149 N 0.59215 0.69667 0.66195 0.0
H1150 H 0.61601 0.69826 0.71944 0.0
H1151 H 0.59824 0.68551 0.7021 0.0
H1152 H 0.5864 0.69583 0.64637 0.0
H1153 H 0.5921 0.68212 0.66987 0.0
H1154 H 0.65102 0.77081 0.67361 0.0
H1155 H 0.65528 0.75833 0.69863 0.0
H1156 H 0.6203 0.78379 0.66338 0.0
H1157 H 0.59677 0.77496 0.6518 0.0
C1158 C 0.66786 0.31689 0.85457 0.0
C1159 C 0.66271 0.33557 0.86613 0.0
C1160 C 0.665 0.35569 0.83274 0.0
C1161 C 0.66195 0.3364 0.82153 0.0
N1162 N 0.66339 0.29803 0.82131 0.0
N1163 N 0.66505 0.37371 0.86723 0.0
C1164 C 0.66489 0.31677 0.83219 0.0
C1165 C 0.66432 0.35544 0.85554 0.0
N1166 N 0.6758 0.29954 0.86492 0.0
N1167 N 0.66817 0.37396 0.82141 0.0
H1168 H 0.6667 0.37342 0.88379 0.0
H1169 H 0.66469 0.3889 0.86065 0.0
H1170 H 0.6686 0.37387 0.80474 0.0
H1171 H 0.67152 0.38865 0.82828 0.0
H1172 H 0.68096 0.2859 0.85703 0.0
H1173 H 0.67987 0.30014 0.88103 0.0
H1174 H 0.66256 0.28327 0.82888 0.0
H1175 H 0.66209 0.29736 0.80474 0.0
C1176 C 0.17737 0.94418 0.33285 0.0
C1177 C 0.16697 0.95863 0.34665 0.0
C1178 C 0.19589 0.95424 0.37215 0.0
C1179 C 0.20906 0.94877 0.35466 0.0
N1180 N 0.21141 0.92968 0.32159 0.0
N1181 N 0.16177 0.96884 0.38321 0.0
C1182 C 0.19934 0.9403 0.33616 0.0
C1183 C 0.17462 0.96052 0.36782 0.0
N1184 N 0.16621 0.93453 0.31695 0.0
N1185 N 0.20374 0.95329 0.39239 0.0
H1186 H 0.14567 0.97164 0.38032 0.0
H1187 H 0.16693 0.97278 0.39848 0.0
H1188 H 0.21875 0.94696 0.39553 0.0
H1189 H 0.19479 0.95651 0.40597 0.0
H1190 H 0.17266 0.92319 0.30674 0.0
H1191 H 0.14978 0.93646 0.3157 0.0
H1192 H 0.20587 0.92494 0.30668 0.0
H1193 H 0.22725 0.92587 0.32477 0.0
C1194 C 0.2555 0.82054 0.67078 0.0
C1195 C 0.27354 0.80754 0.67307 0.0
C1196 C 0.29569 0.83879 0.67809 0.0
C1197 C 0.27999 0.85063 0.66709 0.0
N1198 N 0.24198 0.85657 0.66663 0.0
N1199 N 0.30573 0.80467 0.69307 0.0
C1200 C 0.25869 0.84283 0.6681 0.0
C1201 C 0.29168 0.817 0.68223 0.0
N1202 N 0.23604 0.81122 0.66912 0.0
N1203 N 0.31412 0.84774 0.68484 0.0
H1204 H 0.30293 0.78841 0.69522 0.0
H1205 H 0.31926 0.81099 0.7003 0.0
H1206 H 0.31742 0.86395 0.68335 0.0
H1207 H 0.31742 0.86395 0.68335 0.0
H1208 H 0.22217 0.81932 0.66519 0.0
H1209 H 0.23417 0.79491 0.67179 0.0
H1210 H 0.22617 0.85197 0.66802 0.0
H1211 H 0.24408 0.87298 0.66564 0.0
C1212 C 0.35375 0.15073 0.8094 0.0
C1213 C 0.35017 0.14017 0.82907 0.0
C1214 C 0.38811 0.14033 0.83626 0.0
C1215 C 0.39149 0.14375 0.81413 0.0
N1216 N 0.37976 0.1642 0.78392 0.0
N1217 N 0.36233 0.13774 0.86525 0.0
C1218 C 0.37501 0.15321 0.80205 0.0
C1219 C 0.36689 0.13949 0.84406 0.0
N1220 N 0.33669 0.15686 0.7975 0.0
N1221 N 0.40517 0.13678 0.84918 0.0
H1222 H 0.34672 0.13862 0.8708 0.0
H1223 H 0.37377 0.13758 0.87722 0.0
H1224 H 0.42068 0.13845 0.84347 0.0
H1225 H 0.40404 0.13227 0.86511 0.0
H1226 H 0.33771 0.163 0.78211 0.0
H1227 H 0.32126 0.15554 0.80351 0.0
H1228 H 0.36852 0.17166 0.77434 0.0
H1229 H 0.39542 0.16772 0.77986 0.0
C1230 C 0.26485 0.22409 0.15212 0.0
C1231 C 0.28257 0.21112 0.15719 0.0
C1232 C 0.30532 0.24241 0.15822 0.0
C1233 C 0.28967 0.25321 0.14607 0.0
N1234 N 0.25208 0.2599 0.14439 0.0
N1235 N 0.31423 0.21043 0.17838 0.0
C1236 C 0.2684 0.24596 0.14744 0.0
C1237 C 0.30113 0.22118 0.16488 0.0
N1238 N 0.24519 0.21509 0.15087 0.0
N1239 N 0.32409 0.25229 0.1626 0.0
H1240 H 0.30982 0.19561 0.18447 0.0
H1241 H 0.32789 0.21688 0.18511 0.0
H1242 H 0.32634 0.26841 0.15918 0.0
H1243 H 0.33707 0.24474 0.16956 0.0
H1244 H 0.23177 0.22297 0.14525 0.0
H1245 H 0.24264 0.19935 0.15563 0.0
H1246 H 0.23612 0.2558 0.14569 0.0
H1247 H 0.25483 0.27619 0.14274 0.0
C1248 C 0.24095 0.15152 0.3201 0.0
C1249 C 0.23137 0.14385 0.30118 0.0
C1250 C 0.26624 0.13184 0.28929 0.0
C1251 C 0.27232 0.13056 0.31086 0.0
N1252 N 0.27039 0.14801 0.34498 0.0
N1253 N 0.23715 0.13578 0.26413 0.0
C1254 C 0.26138 0.14365 0.3257 0.0
C1255 C 0.24488 0.13719 0.28438 0.0
N1256 N 0.23064 0.16633 0.33211 0.0
N1257 N 0.28134 0.13005 0.274 0.0
H1258 H 0.222 0.14138 0.26029 0.0
H1259 H 0.24559 0.12898 0.25157 0.0
H1260 H 0.29726 0.13001 0.2785 0.0
H1261 H 0.27841 0.13201 0.25776 0.0
H1262 H 0.23697 0.17323 0.34579 0.0
H1263 H 0.21659 0.17332 0.32672 0.0
H1264 H 0.2624 0.15545 0.35746 0.0
H1265 H 0.28619 0.1441 0.34823 0.0
C1266 C 0.19768 0.87 0.45531 0.0
C1267 C 0.18609 0.8712 0.47469 0.0
C1268 C 0.18902 0.8331 0.47876 0.0
C1269 C 0.20707 0.83374 0.46515 0.0
N1270 N 0.22014 0.84824 0.43219 0.0
N1271 N 0.16163 0.85255 0.49732 0.0
C1272 C 0.20855 0.8507 0.45038 0.0
C1273 C 0.1782 0.85218 0.48339 0.0
N1274 N 0.20015 0.88809 0.44357 0.0
N1275 N 0.18235 0.81469 0.48792 0.0
H1276 H 0.1533 0.86659 0.50041 0.0
H1277 H 0.15595 0.8388 0.50475 0.0
H1278 H 0.18919 0.79998 0.48446 0.0
H1279 H 0.18919 0.79998 0.48446 0.0
H1280 H 0.2095 0.8892 0.42993 0.0
H1281 H 0.19238 0.90212 0.44797 0.0
H1282 H 0.22134 0.85981 0.42037 0.0
H1283 H 0.22684 0.83361 0.42812 0.0
C1284 C 0.37491 0.96159 0.72882 0.0
C1285 C 0.36343 0.95761 0.74784 0.0
C1286 C 0.39599 0.94481 0.76434 0.0
C1287 C 0.40719 0.95796 0.74989 0.0
N1288 N 0.40955 0.97023 0.71373 0.0
N1289 N 0.36157 0.93782 0.78052 0.0
C1290 C 0.39739 0.96305 0.73023 0.0
C1291 C 0.3735 0.94605 0.76435 0.0
N1292 N 0.36436 0.96422 0.71003 0.0
N1293 N 0.40685 0.93185 0.77795 0.0
H1294 H 0.34498 0.93833 0.77999 0.0
H1295 H 0.36802 0.93104 0.79423 0.0
H1296 H 0.42333 0.93025 0.77691 0.0
H1297 H 0.39948 0.92129 0.78842 0.0
H1298 H 0.37188 0.96677 0.69547 0.0
H1299 H 0.34805 0.96149 0.70885 0.0
H1300 H 0.40338 0.97624 0.69955 0.0
H1301 H 0.42612 0.97012 0.71468 0.0
C1302 C 0.35769 0.16478 0.96426 0.0
C1303 C 0.33551 0.16142 0.96334 0.0
C1304 C 0.33036 0.19735 0.9497 0.0
C1305 C 0.3509 0.20221 0.95749 0.0
N1306 N 0.38645 0.18903 0.95552 0.0
N1307 N 0.30492 0.16931 0.94172 0.0
C1308 C 0.36555 0.18535 0.95934 0.0
C1309 C 0.32311 0.17601 0.95137 0.0
N1310 N 0.37083 0.14872 0.9705 0.0
N1311 N 0.31799 0.21311 0.94141 0.0
H1312 H 0.30089 0.15321 0.94144 0.0
H1313 H 0.2954 0.17901 0.93225 0.0
H1314 H 0.32414 0.22827 0.93843 0.0
H1315 H 0.30203 0.21116 0.93754 0.0
H1316 H 0.38693 0.15092 0.97367 0.0
H1317 H 0.36518 0.13322 0.97258 0.0
H1318 H 0.39774 0.17694 0.95498 0.0
H1319 H 0.39155 0.20399 0.95031 0.0
C1320 C 0.84123 0.39363 0.14977 0.0
C1321 C 0.85343 0.38002 0.1364 0.0
C1322 C 0.87539 0.41034 0.1261 0.0
C1323 C 0.85863 0.4239 0.13283 0.0
N1324 N 0.83427 0.42998 0.16163 0.0
N1325 N 0.88845 0.37389 0.12314 0.0
C1326 C 0.84432 0.41605 0.14834 0.0
C1327 C 0.87275 0.38787 0.12812 0.0
N1328 N 0.82647 0.38492 0.16312 0.0
N1329 N 0.89352 0.41914 0.11809 0.0
H1330 H 0.88723 0.35807 0.12794 0.0
H1331 H 0.90294 0.37804 0.11635 0.0
H1332 H 0.89607 0.43556 0.11858 0.0
H1333 H 0.90611 0.41045 0.1118 0.0
H1334 H 0.81561 0.3937 0.172 0.0
H1335 H 0.82549 0.36848 0.16537 0.0
H1336 H 0.82375 0.42552 0.17362 0.0
H1337 H 0.83821 0.44613 0.16179 0.0
C1338 C 0.89433 0.60117 0.40243 0.0
C1339 C 0.91303 0.6094 0.39331 0.0
C1340 C 0.89303 0.63754 0.37546 0.0
C1341 C 0.87434 0.62567 0.3795 0.0
N1342 N 0.85609 0.60488 0.40592 0.0
N1343 N 0.93017 0.64241 0.38511 0.0
C1344 C 0.87466 0.61041 0.39631 0.0
C1345 C 0.91226 0.63031 0.38486 0.0
N1346 N 0.8955 0.58417 0.41587 0.0
N1347 N 0.89279 0.65463 0.36208 0.0
H1348 H 0.9439 0.63679 0.39258 0.0
H1349 H 0.93062 0.6582 0.38004 0.0
H1350 H 0.87875 0.66129 0.35638 0.0
H1351 H 0.90658 0.66207 0.3567 0.0
H1352 H 0.8823 0.57582 0.42138 0.0
H1353 H 0.91011 0.57866 0.4215 0.0
H1354 H 0.85497 0.59439 0.41873 0.0
H1355 H 0.8421 0.61279 0.40204 0.0
C1356 C 0.6939 0.69896 0.64263 0.0
C1357 C 0.71113 0.68642 0.63517 0.0
C1358 C 0.73175 0.69982 0.6652 0.0
C1359 C 0.71972 0.7184 0.66486 0.0
N1360 N 0.68451 0.73216 0.66075 0.0
N1361 N 0.7495 0.68481 0.63667 0.0
C1362 C 0.69864 0.71626 0.65688 0.0
C1363 C 0.73075 0.6881 0.64644 0.0
N1364 N 0.67373 0.69467 0.63611 0.0
N1365 N 0.7488 0.69779 0.67828 0.0
H1366 H 0.7505 0.68356 0.62015 0.0
H1367 H 0.7505 0.68356 0.62015 0.0
H1368 H 0.7513 0.70799 0.69119 0.0
H1369 H 0.7513 0.70799 0.69119 0.0
H1370 H 0.66049 0.7026 0.64211 0.0
H1371 H 0.67038 0.68205 0.62582 0.0
H1372 H 0.66953 0.73294 0.65375 0.0
H1373 H 0.68862 0.74488 0.67066 0.0
C1374 C 0.87322 0.45717 0.25574 0.0
C1375 C 0.87575 0.47063 0.23771 0.0
C1376 C 0.83779 0.46744 0.23147 0.0
C1377 C 0.83515 0.46295 0.2535 0.0
N1378 N 0.84973 0.44535 0.28419 0.0
N1379 N 0.86096 0.48217 0.20416 0.0
C1380 C 0.85266 0.45459 0.26475 0.0
C1381 C 0.85826 0.47329 0.22382 0.0
N1382 N 0.89057 0.44715 0.26393 0.0
N1383 N 0.82039 0.46747 0.2186 0.0
H1384 H 0.87593 0.4843 0.19742 0.0
H1385 H 0.84838 0.48704 0.19452 0.0
H1386 H 0.80534 0.46386 0.22465 0.0
H1387 H 0.82137 0.46905 0.20212 0.0
H1388 H 0.88991 0.4363 0.27648 0.0
H1389 H 0.90525 0.44826 0.25626 0.0
H1390 H 0.86216 0.4413 0.29438 0.0
H1391 H 0.8346 0.44161 0.28985 0.0
C1392 C 0.71455 0.66548 0.77014 0.0
C1393 C 0.73152 0.66209 0.75593 0.0
C1394 C 0.70663 0.65336 0.7273 0.0
C1395 C 0.69148 0.64907 0.74343 0.0
N1396 N 0.67634 0.6629 0.77577 0.0
N1397 N 0.74294 0.66497 0.7197 0.0
C1398 C 0.69385 0.65938 0.76346 0.0
C1399 C 0.72688 0.66122 0.73378 0.0
N1400 N 0.71869 0.6728 0.79015 0.0
N1401 N 0.70182 0.64956 0.70645 0.0
H1402 H 0.75777 0.67014 0.72511 0.0
H1403 H 0.74159 0.66336 0.70326 0.0
H1404 H 0.68643 0.6458 0.70162 0.0
H1405 H 0.71251 0.65135 0.69392 0.0
H1406 H 0.70739 0.67383 0.80222 0.0
H1407 H 0.73387 0.67807 0.79432 0.0
H1408 H 0.67665 0.67065 0.79043 0.0
H1409 H 0.66115 0.65949 0.77004 0.0
C1410 C 0.466 0.84893 0.70743 0.0
C1411 C 0.4524 0.8649 0.70032 0.0
C1412 C 0.42858 0.85284 0.72944 0.0
C1413 C 0.44089 0.83384 0.73167 0.0
N1414 N 0.46193 0.81129 0.70947 0.0
N1415 N 0.41794 0.88114 0.70466 0.0
C1416 C 0.45698 0.8309 0.71675 0.0
C1417 C 0.43253 0.86661 0.71125 0.0
N1418 N 0.48729 0.85177 0.7077 0.0
N1419 N 0.41339 0.85753 0.74413 0.0
H1420 H 0.42112 0.89155 0.69205 0.0
H1421 H 0.40273 0.88203 0.71117 0.0
H1422 H 0.41007 0.84725 0.7568 0.0
H1423 H 0.40504 0.87186 0.74402 0.0
H1424 H 0.49705 0.84028 0.71433 0.0
H1425 H 0.49444 0.86613 0.70339 0.0
H1426 H 0.47286 0.80957 0.69729 0.0
H1427 H 0.4535 0.7977 0.71392 0.0
C1428 C 0.48448 0.20516 0.869 0.0
C1429 C 0.5049 0.19582 0.86686 0.0
C1430 C 0.50281 0.20278 0.82858 0.0
C1431 C 0.48768 0.21911 0.83275 0.0
N1432 N 0.45965 0.23159 0.85606 0.0
N1433 N 0.52944 0.17871 0.84304 0.0
C1434 C 0.4768 0.21881 0.85259 0.0
C1435 C 0.51268 0.19213 0.84602 0.0
N1436 N 0.47238 0.20033 0.88638 0.0
N1437 N 0.50714 0.19724 0.80798 0.0
H1438 H 0.5349 0.16878 0.85522 0.0
H1439 H 0.53767 0.17739 0.8287 0.0
H1440 H 0.49876 0.20383 0.79523 0.0
H1441 H 0.51706 0.18469 0.8037 0.0
H1442 H 0.45682 0.20561 0.88843 0.0
H1443 H 0.47725 0.18875 0.89729 0.0
H1444 H 0.45325 0.23416 0.87118 0.0
H1445 H 0.45168 0.23943 0.84383 0.0
C1446 C 0.17577 0.29283 0.22263 0.0
C1447 C 0.1692 0.27458 0.21121 0.0
C1448 C 0.16128 0.25695 0.24499 0.0
C1449 C 0.1587 0.27744 0.25403 0.0
N1450 N 0.1728 0.31293 0.25571 0.0
N1451 N 0.1653 0.23661 0.21215 0.0
C1452 C 0.16946 0.29476 0.24433 0.0
C1453 C 0.16559 0.25554 0.22277 0.0
N1454 N 0.18795 0.30778 0.21272 0.0
N1455 N 0.15962 0.23933 0.25758 0.0
H1456 H 0.16974 0.23568 0.19611 0.0
H1457 H 0.16069 0.22224 0.219 0.0
H1458 H 0.15813 0.2406 0.27411 0.0
H1459 H 0.16189 0.22386 0.25213 0.0
H1460 H 0.19374 0.32139 0.22017 0.0
H1461 H 0.19408 0.3051 0.19749 0.0
H1462 H 0.17862 0.32699 0.24914 0.0
H1463 H 0.16968 0.31357 0.27207 0.0
C1464 C 0.1431 0.82408 0.38635 0.0
C1465 C 0.13489 0.83791 0.40208 0.0
C1466 C 0.12411 0.86254 0.37392 0.0
C1467 C 0.12347 0.84484 0.35995 0.0
N1468 N 0.14103 0.8126 0.34931 0.0
N1469 N 0.12747 0.87429 0.41086 0.0
C1470 C 0.13632 0.82695 0.36491 0.0
C1471 C 0.12908 0.85877 0.39576 0.0
N1472 N 0.15706 0.80854 0.39214 0.0
N1473 N 0.12011 0.88244 0.36624 0.0
H1474 H 0.13239 0.87156 0.42655 0.0
H1475 H 0.12147 0.88945 0.40795 0.0
H1476 H 0.11837 0.88525 0.34991 0.0
H1477 H 0.12071 0.89618 0.37547 0.0
H1478 H 0.16419 0.79812 0.38142 0.0
H1479 H 0.16296 0.80773 0.40768 0.0
H1480 H 0.14854 0.79811 0.3521 0.0
H1481 H 0.13722 0.81559 0.33337 0.0
C1482 C 0.71934 0.4836 0.88109 0.0
C1483 C 0.72189 0.4689 0.86402 0.0
C1484 C 0.6852 0.45822 0.86941 0.0
C1485 C 0.68119 0.47861 0.87806 0.0
N1486 N 0.69472 0.50614 0.90079 0.0
N1487 N 0.70885 0.4367 0.84768 0.0
C1488 C 0.69843 0.48959 0.88727 0.0
C1489 C 0.70544 0.45405 0.86024 0.0
N1490 N 0.7369 0.49178 0.89085 0.0
N1491 N 0.66933 0.44356 0.86957 0.0
H1492 H 0.72405 0.43223 0.84285 0.0
H1493 H 0.6967 0.42673 0.84248 0.0
H1494 H 0.65491 0.44699 0.87709 0.0
H1495 H 0.67119 0.42797 0.86428 0.0
H1496 H 0.73628 0.50189 0.90398 0.0
H1497 H 0.75215 0.48661 0.88681 0.0
H1498 H 0.7065 0.51647 0.90613 0.0
H1499 H 0.67955 0.50916 0.90679 0.0
C1500 C 0.78453 0.38368 0.94454 0.0
C1501 C 0.76864 0.37641 0.95869 0.0
C1502 C 0.75446 0.41234 0.96173 0.0
C1503 C 0.77406 0.41983 0.95357 0.0
N1504 N 0.79845 0.41391 0.92482 0.0
N1505 N 0.7318 0.38146 0.96768 0.0
C1506 C 0.78609 0.40586 0.94067 0.0
C1507 C 0.75113 0.38999 0.96286 0.0
N1508 N 0.79844 0.36953 0.93582 0.0
N1509 N 0.73965 0.42651 0.96877 0.0
H1510 H 0.7291 0.36509 0.96672 0.0
H1511 H 0.71819 0.39051 0.9702 0.0
H1512 H 0.7414 0.44284 0.96615 0.0
H1513 H 0.72598 0.42215 0.97703 0.0
H1514 H 0.81185 0.37403 0.9272 0.0
H1515 H 0.79633 0.35313 0.93766 0.0
H1516 H 0.80679 0.40444 0.91408 0.0
H1517 H 0.79794 0.4301 0.92115 0.0
C1518 C 0.83048 0.75922 0.4654 0.0
C1519 C 0.80846 0.76392 0.4669 0.0
C1520 C 0.80135 0.72696 0.4575 0.0
C1521 C 0.82186 0.72139 0.46526 0.0
N1522 N 0.85821 0.73282 0.46985 0.0
N1523 N 0.77323 0.75343 0.45638 0.0
C1524 C 0.83732 0.73768 0.46686 0.0
C1525 C 0.79391 0.7482 0.46008 0.0
N1526 N 0.8445 0.77537 0.46194 0.0
N1527 N 0.78954 0.71202 0.44715 0.0
H1528 H 0.76826 0.76924 0.45538 0.0
H1529 H 0.76128 0.74219 0.45414 0.0
H1530 H 0.796 0.6972 0.44341 0.0
H1531 H 0.77488 0.71512 0.44012 0.0
H1532 H 0.86072 0.77308 0.45955 0.0
H1533 H 0.83911 0.79079 0.45887 0.0
H1534 H 0.86957 0.74414 0.47403 0.0
H1535 H 0.86415 0.71749 0.4678 0.0
C1536 C 0.08734 0.33678 0.22707 0.0
C1537 C 0.06629 0.34128 0.22078 0.0
C1538 C 0.07582 0.33563 0.1833 0.0
C1539 C 0.09481 0.32606 0.19031 0.0
N1540 N 0.12105 0.32025 0.21671 0.0
N1541 N 0.04112 0.34952 0.19305 0.0
C1542 C 0.10149 0.328 0.21169 0.0
C1543 C 0.06084 0.34253 0.19882 0.0
N1544 N 0.09344 0.34091 0.24755 0.0
N1545 N 0.07242 0.33814 0.16194 0.0
H1546 H 0.03005 0.35515 0.20404 0.0
H1547 H 0.03562 0.34987 0.17746 0.0
H1548 H 0.08339 0.33296 0.15057 0.0
H1549 H 0.05978 0.34667 0.15552 0.0
H1550 H 0.10899 0.33974 0.253 0.0
H1551 H 0.08292 0.34723 0.25877 0.0
H1552 H 0.12751 0.32003 0.23198 0.0
H1553 H 0.12751 0.32003 0.23198 0.0
C1554 C 0.00721 0.83744 0.37975 0.0
C1555 C 0.02875 0.84398 0.3798 0.0
C1556 C 0.02919 0.84086 0.41891 0.0
C1557 C 0.00925 0.83041 0.41813 0.0
N1558 N 0.97792 0.82089 0.39801 0.0
N1559 N 0.06017 0.85352 0.39943 0.0
C1560 C -0.0023 0.82979 0.39873 0.0
C1561 C 0.03954 0.84673 0.3995 0.0
N1562 N 0.99564 0.83745 0.36143 0.0
N1563 N 0.03815 0.84486 0.43832 0.0
H1564 H 0.06784 0.85856 0.38556 0.0
H1565 H 0.06989 0.85362 0.41284 0.0
H1566 H 0.0305 0.84074 0.4525 0.0
H1567 H 0.05199 0.85363 0.44049 0.0
H1568 H 0.00151 0.84303 0.34689 0.0
H1569 H 0.00151 0.84303 0.34689 0.0
H1570 H 0.96931 0.81953 0.38384 0.0
H1571 H 0.9702 0.815 0.4115 0.0
C1572 C 0.56213 0.81961 0.70373 0.0
C1573 C 0.56066 0.79273 0.71052 0.0
C1574 C 0.51143 0.79973 0.68198 0.0
C1575 C 0.51914 0.82547 0.67919 0.0
N1576 N 0.54586 0.85603 0.68784 0.0
N1577 N 0.54154 0.75589 0.70752 0.0
C1578 C 0.54273 0.83469 0.68963 0.0
C1579 C 0.53929 0.77752 0.70323 0.0
N1580 N 0.57977 0.83043 0.71003 0.0
N1581 N 0.49451 0.794 0.66897 0.0
H1582 H 0.52974 0.74459 0.71052 0.0
H1583 H 0.55643 0.7488 0.70602 0.0
H1584 H 0.49375 0.80071 0.65388 0.0
H1585 H 0.4833 0.78192 0.67107 0.0
H1586 H 0.58333 0.84568 0.70482 0.0
H1587 H 0.59117 0.82433 0.7202 0.0
H1588 H 0.55869 0.86404 0.69441 0.0
H1589 H 0.53445 0.86599 0.68121 0.0
C1590 C 0.55482 0.32032 0.87022 0.0
C1591 C 0.57925 0.3084 0.87339 0.0
C1592 C 0.55604 0.27487 0.83315 0.0
C1593 C 0.53498 0.29162 0.83522 0.0
N1594 N 0.51723 0.32537 0.851 0.0
N1595 N 0.60759 0.27969 0.86187 0.0
C1596 C 0.53468 0.3127 0.85235 0.0
C1597 C 0.58666 0.2863 0.85891 0.0
N1598 N 0.55017 0.33632 0.88406 0.0
N1599 N 0.55227 0.25855 0.81863 0.0
H1600 H 0.61888 0.29017 0.86787 0.0
H1601 H 0.61514 0.26561 0.85734 0.0
H1602 H 0.56159 0.24571 0.81375 0.0
H1603 H 0.56159 0.24571 0.81375 0.0
H1604 H 0.53547 0.34375 0.88475 0.0
H1605 H 0.56041 0.34091 0.89619 0.0
H1606 H 0.51561 0.33965 0.85914 0.0
H1607 H 0.50495 0.32213 0.84038 0.0
C1608 C 0.04291 0.77166 0.40698 0.0
C1609 C 0.06306 0.78002 0.40229 0.0
C1610 C 0.05516 0.77746 0.36414 0.0
C1611 C 0.03337 0.77563 0.36948 0.0
N1612 N 0.00634 0.76844 0.39588 0.0
N1613 N 0.09061 0.78689 0.37651 0.0
C1614 C 0.02722 0.77159 0.39085 0.0
C1615 C 0.07006 0.78137 0.38082 0.0
N1616 N 0.03919 0.76304 0.42661 0.0
N1617 N 0.06131 0.7757 0.34331 0.0
H1618 H 0.10173 0.78998 0.38843 0.0
H1619 H 0.09675 0.78839 0.36121 0.0
H1620 H 0.05043 0.77327 0.33098 0.0
H1621 H 0.07708 0.7753 0.33837 0.0
H1622 H 0.0258 0.75387 0.42992 0.0
H1623 H 0.05068 0.76308 0.43863 0.0
H1624 H 0.00098 0.76735 0.4115 0.0
H1625 H 0.99421 0.76814 0.38458 0.0
C1626 C 0.51524 0.76155 0.6783 0.0
C1627 C 0.5353 0.77579 0.66576 0.0
C1628 C 0.52646 0.80841 0.71214 0.0
C1629 C 0.50696 0.79046 0.71826 0.0
N1630 N 0.48431 0.75712 0.70699 0.0
N1631 N 0.55996 0.80947 0.66339 0.0
C1632 C 0.50184 0.76877 0.70204 0.0
C1633 C 0.54552 0.79873 0.67639 0.0
N1634 N 0.51088 0.74194 0.67022 0.0
N1635 N 0.53011 0.8238 0.72775 0.0
H1636 H 0.55775 0.80949 0.64694 0.0
H1637 H 0.57165 0.82055 0.66737 0.0
H1638 H 0.52648 0.82083 0.74356 0.0
H1639 H 0.53807 0.83835 0.72697 0.0
H1640 H 0.50049 0.73132 0.67744 0.0
H1641 H 0.51991 0.73504 0.65821 0.0
H1642 H 0.47846 0.74511 0.69727 0.0
H1643 H 0.47404 0.7611 0.71928 0.0
C1644 C 0.58221 0.2502 0.84668 0.0
C1645 C 0.56381 0.25714 0.86559 0.0
C1646 C 0.56927 0.30668 0.83706 0.0
C1647 C 0.58703 0.29275 0.82161 0.0
N1648 N 0.60516 0.25667 0.81151 0.0
N1649 N 0.53938 0.28554 0.88394 0.0
C1650 C 0.59265 0.26639 0.82629 0.0
C1651 C 0.55323 0.28217 0.86692 0.0
N1652 N 0.58866 0.22955 0.84722 0.0
N1653 N 0.56861 0.32852 0.83333 0.0
H1654 H 0.53971 0.27572 0.89719 0.0
H1655 H 0.52846 0.29773 0.88663 0.0
H1656 H 0.58255 0.33653 0.82936 0.0
H1657 H 0.55642 0.33936 0.83635 0.0
H1658 H 0.60134 0.22365 0.83848 0.0
H1659 H 0.58097 0.21813 0.85644 0.0
H1660 H 0.6094 0.24074 0.81211 0.0
H1661 H 0.60969 0.26399 0.79739 0.0
C1662 C 0.03376 0.27523 0.21152 0.0
C1663 C 0.04578 0.26935 0.19325 0.0
C1664 C 0.0763 0.26092 0.21593 0.0
C1665 C 0.06516 0.26885 0.23395 0.0
N1666 N 0.03172 0.27714 0.25034 0.0
N1667 N 0.07645 0.2519 0.17861 0.0
C1668 C 0.04325 0.27376 0.23219 0.0
C1669 C 0.06617 0.26027 0.19581 0.0
N1670 N 0.0139 0.28362 0.20893 0.0
N1671 N 0.09702 0.2548 0.21714 0.0
H1672 H 0.06927 0.25099 0.16365 0.0
H1673 H 0.09162 0.24525 0.17965 0.0
H1674 H 0.10597 0.25496 0.23115 0.0
H1675 H 0.10597 0.25496 0.23115 0.0
H1676 H 0.00513 0.29042 0.22122 0.0
H1677 H 0.00638 0.28438 0.19413 0.0
H1678 H 0.01532 0.27918 0.25055 0.0
H1679 H 0.03853 0.27614 0.2655 0.0
C1680 C 0.19354 0.05492 0.36021 0.0
C1681 C 0.20252 0.07486 0.35506 0.0
C1682 C 0.23817 0.06089 0.36231 0.0
C1683 C 0.22946 0.04013 0.3624 0.0
N1684 N 0.19919 0.017 0.36573 0.0
N1685 N 0.23222 0.09876 0.35604 0.0
C1686 C 0.20715 0.03709 0.36321 0.0
C1687 C 0.22451 0.07856 0.35818 0.0
N1688 N 0.17197 0.05328 0.36164 0.0
N1689 N 0.25948 0.06337 0.36557 0.0
H1690 H 0.22232 0.1118 0.35333 0.0
H1691 H 0.2481 0.10289 0.35752 0.0
H1692 H 0.26948 0.05043 0.36852 0.0
H1693 H 0.26712 0.07798 0.36662 0.0
H1694 H 0.16389 0.0396 0.36625 0.0
H1695 H 0.16221 0.06655 0.35962 0.0
H1696 H 0.18315 0.01324 0.36509 0.0
H1697 H 0.20888 0.00382 0.36852 0.0
C1698 C 0.29004 0.87684 0.54447 0.0
C1699 C 0.29294 0.86632 0.5643 0.0
C1700 C 0.29405 0.83205 0.54593 0.0
C1701 C 0.28743 0.84195 0.52682 0.0
N1702 N 0.28915 0.87375 0.50565 0.0
N1703 N 0.30973 0.83626 0.58079 0.0
C1704 C 0.28861 0.86445 0.52527 0.0
C1705 C 0.29856 0.84459 0.56418 0.0
N1706 N 0.28918 0.89854 0.54406 0.0
N1707 N 0.29589 0.81049 0.54673 0.0
H1708 H 0.31749 0.82169 0.57964 0.0
H1709 H 0.31304 0.84475 0.59467 0.0
H1710 H 0.29566 0.80099 0.53312 0.0
H1711 H 0.29662 0.80226 0.56102 0.0
H1712 H 0.288 0.90747 0.53018 0.0
H1713 H 0.2901 0.90779 0.55785 0.0
H1714 H 0.29289 0.88968 0.50317 0.0
H1715 H 0.28794 0.86503 0.49158 0.0
C1716 C 0.37277 0.03536 0.83985 0.0
C1717 C 0.36188 0.04891 0.82524 0.0
C1718 C 0.38682 0.03899 0.79768 0.0
C1719 C 0.40004 0.02817 0.81229 0.0
N1720 N 0.40637 0.01809 0.84892 0.0
N1721 N 0.36529 0.06977 0.79308 0.0
C1722 C 0.39327 0.02683 0.83399 0.0
C1723 C 0.37124 0.05281 0.80521 0.0
N1724 N 0.3635 0.03025 0.85883 0.0
N1725 N 0.38789 0.03564 0.7763 0.0
H1726 H 0.35549 0.08191 0.79871 0.0
H1727 H 0.37244 0.07275 0.7785 0.0
H1728 H 0.39701 0.02371 0.76921 0.0
H1729 H 0.39701 0.02371 0.76921 0.0
H1730 H 0.36979 0.01898 0.86926 0.0
H1731 H 0.34873 0.03628 0.86333 0.0
H1732 H 0.40305 0.01835 0.86519 0.0
H1733 H 0.42131 0.01203 0.84507 0.0
C1734 C 0.35115 0.19286 0.04792 0.0
C1735 C 0.35379 0.2148 0.05254 0.0
C1736 C 0.34246 0.20893 0.08939 0.0
C1737 C 0.3375 0.18757 0.08399 0.0
N1738 N 0.34418 0.15731 0.06174 0.0
N1739 N 0.35921 0.24224 0.07855 0.0
C1740 C 0.34434 0.17889 0.0644 0.0
C1741 C 0.35202 0.2223 0.07372 0.0
N1742 N 0.354 0.18565 0.02756 0.0
N1743 N 0.33699 0.21663 0.10901 0.0
H1744 H 0.36608 0.25214 0.06707 0.0
H1745 H 0.3599 0.24833 0.09396 0.0
H1746 H 0.3302 0.20716 0.12086 0.0
H1747 H 0.3388 0.23242 0.11353 0.0
H1748 H 0.3504 0.17026 0.02277 0.0
H1749 H 0.35935 0.19533 0.01515 0.0
H1750 H 0.35075 0.14963 0.0486 0.0
H1751 H 0.3391 0.14698 0.07377 0.0
C1752 C 0.23367 0.02871 0.29067 0.0
C1753 C 0.23488 0.05093 0.28699 0.0
C1754 C 0.19654 0.05169 0.28032 0.0
C1755 C 0.19483 0.03116 0.28929 0.0
N1756 N 0.2115 -0.0015 0.30027 0.0
N1757 N 0.2174 0.08219 0.27225 0.0
C1758 C 0.21337 0.01895 0.29315 0.0
C1759 C 0.21655 0.06188 0.2796 0.0
N1760 N 0.25199 0.01708 0.29134 0.0
N1761 N 0.17883 0.06181 0.27297 0.0
H1762 H 0.2313 0.09111 0.27101 0.0
H1763 H 0.2313 0.09111 0.27101 0.0
H1764 H 0.16395 0.05449 0.27294 0.0
H1765 H 0.17934 0.0769 0.26601 0.0
H1766 H 0.25239 0.00053 0.29191 0.0
H1767 H 0.26689 0.02405 0.28918 0.0
H1768 H 0.22433 0.98924 0.30494 0.0
H1769 H 0.19688 0.99085 0.30191 0.0
C1770 C 0.23492 0.83832 0.54972 0.0
C1771 C 0.23334 0.85889 0.55879 0.0
C1772 C 0.24489 0.84353 0.59325 0.0
C1773 C 0.25109 0.82455 0.58267 0.0
N1774 N 0.24552 0.80215 0.55163 0.0
N1775 N 0.23251 0.88023 0.59076 0.0
C1776 C 0.24412 0.82142 0.56137 0.0
C1777 C 0.23669 0.86115 0.58116 0.0
N1778 N 0.22679 0.8339 0.53011 0.0
N1779 N 0.24569 0.84415 0.61499 0.0
H1780 H 0.22795 0.89382 0.58241 0.0
H1781 H 0.2345 0.88313 0.60694 0.0
H1782 H 0.25186 0.83171 0.6241 0.0
H1783 H 0.23831 0.8558 0.62407 0.0
H1784 H 0.21889 0.84497 0.52053 0.0
H1785 H 0.21889 0.84497 0.52053 0.0
H1786 H 0.25224 0.78865 0.55855 0.0
H1787 H 0.25224 0.78865 0.55855 0.0
C1788 C 0.39621 0.0559 0.73233 0.0
C1789 C 0.39392 0.07697 0.73992 0.0
C1790 C 0.35515 0.07328 0.7383 0.0
C1791 C 0.3578 0.05112 0.73519 0.0
N1792 N 0.38013 0.02235 0.72317 0.0
N1793 N 0.37176 0.10819 0.74119 0.0
C1794 C 0.37799 0.04304 0.7294 0.0
C1795 C 0.37351 0.08663 0.73938 0.0
N1796 N 0.41578 0.04726 0.72926 0.0
N1797 N 0.33524 0.08104 0.74197 0.0
H1798 H 0.385 0.11813 0.74177 0.0
H1799 H 0.35744 0.11638 0.7401 0.0
H1800 H 0.32181 0.07142 0.74046 0.0
H1801 H 0.33206 0.09652 0.74689 0.0
H1802 H 0.42987 0.05582 0.73127 0.0
H1803 H 0.42987 0.05582 0.73127 0.0
H1804 H 0.39489 0.01561 0.71968 0.0
H1805 H 0.36707 0.01237 0.72096 0.0
C1806 C 0.28953 0.23072 0.03087 0.0
C1807 C 0.28581 0.23267 0.05302 0.0
C1808 C 0.27359 0.19566 0.05436 0.0
C1809 C 0.28225 0.19251 0.03382 0.0
N1810 N 0.29663 0.20689 0.00123 0.0
N1811 N 0.27204 0.21813 0.08582 0.0
C1812 C 0.2892 0.21012 0.02145 0.0
C1813 C 0.27667 0.21559 0.06467 0.0
N1814 N 0.29348 0.24857 0.01906 0.0
N1815 N 0.26272 0.17941 0.06389 0.0
H1816 H 0.27379 0.23259 0.09378 0.0
H1817 H 0.26708 0.20581 0.09569 0.0
H1818 H 0.26051 0.16475 0.05638 0.0
H1819 H 0.25442 0.18097 0.07817 0.0
H1820 H 0.29464 0.24862 0.0025 0.0
H1821 H 0.29387 0.26373 0.02588 0.0
H1822 H 0.30382 0.21867 0.9921 0.0
H1823 H 0.29613 0.1921 0.99372 0.0
C1824 C 0.85919 0.42388 0.0343 0.0
C1825 C 0.8461 0.41873 0.0167 0.0
C1826 C 0.84676 0.38117 0.02716 0.0
C1827 C 0.85498 0.38721 0.04729 0.0
N1828 N 0.87466 0.41274 0.0681 0.0
N1829 N 0.82996 0.39241 0.99413 0.0
C1830 C 0.86329 0.40807 0.05017 0.0
C1831 C 0.84112 0.39723 0.01217 0.0
N1832 N 0.86682 0.44417 0.03596 0.0
N1833 N 0.8448 0.36004 0.02241 0.0
H1834 H 0.82608 0.40377 0.98263 0.0
H1835 H 0.82421 0.37732 0.99073 0.0
H1836 H 0.84905 0.3481 0.03319 0.0
H1837 H 0.841 0.35433 0.00731 0.0
H1838 H 0.87623 0.44979 0.04835 0.0
H1839 H 0.86424 0.45543 0.024 0.0
H1840 H 0.88222 0.42716 0.07083 0.0
H1841 H 0.87734 0.40177 0.08022 0.0
C1842 C 0.8504 0.54536 0.33203 0.0
C1843 C 0.85031 0.53357 0.31263 0.0
C1844 C 0.88941 0.5309 0.31487 0.0
C1845 C 0.88964 0.54664 0.33107 0.0
N1846 N 0.87076 0.56499 0.35878 0.0
N1847 N 0.86938 0.51112 0.28835 0.0
C1848 C 0.87018 0.55274 0.34077 0.0
C1849 C 0.86976 0.52518 0.3049 0.0
N1850 N 0.83159 0.54909 0.34225 0.0
N1851 N 0.90788 0.52055 0.30992 0.0
H1852 H 0.85559 0.50545 0.28115 0.0
H1853 H 0.88289 0.50497 0.28154 0.0
H1854 H 0.92273 0.52527 0.31555 0.0
H1855 H 0.90851 0.50633 0.30145 0.0
H1856 H 0.83032 0.55513 0.35762 0.0
H1857 H 0.81689 0.54542 0.33557 0.0
H1858 H 0.85753 0.56931 0.36764 0.0
H1859 H 0.88488 0.57068 0.36535 0.0
C1860 C 0.81349 0.7191 0.55581 0.0
C1861 C 0.80953 0.69671 0.55402 0.0
C1862 C 0.79304 0.69816 0.58967 0.0
C1863 C 0.79149 0.72067 0.58873 0.0
N1864 N 0.80761 0.75239 0.57529 0.0
N1865 N 0.79904 0.66469 0.57305 0.0
C1866 C 0.80409 0.7311 0.5731 0.0
C1867 C 0.80013 0.68627 0.5718 0.0
N1868 N 0.82548 0.729 0.54054 0.0
N1869 N 0.79015 0.68757 0.60829 0.0
H1870 H 0.80453 0.65445 0.56116 0.0
H1871 H 0.80453 0.65445 0.56116 0.0
H1872 H 0.7878 0.6953 0.62283 0.0
H1873 H 0.7878 0.6953 0.62283 0.0
H1874 H 0.83031 0.74475 0.54114 0.0
H1875 H 0.83091 0.72148 0.5268 0.0
H1876 H 0.81909 0.7606 0.56686 0.0
H1877 H 0.80023 0.76165 0.58694 0.0
C1878 C 0.86535 0.56241 0.26146 0.0
C1879 C 0.88727 0.56146 0.26664 0.0
C1880 C 0.88131 0.58841 0.29466 0.0
C1881 C 0.85908 0.58699 0.29134 0.0
N1882 N 0.83015 0.57463 0.26914 0.0
N1883 N 0.91705 0.57855 0.28323 0.0
C1884 C 0.85123 0.57492 0.27397 0.0
C1885 C 0.89555 0.57596 0.28187 0.0
N1886 N 0.85766 0.55152 0.24435 0.0
N1887 N 0.8887 0.60135 0.31047 0.0
H1888 H 0.92774 0.56967 0.27415 0.0
H1889 H 0.9243 0.59083 0.29158 0.0
H1890 H 0.87899 0.61057 0.32027 0.0
H1891 H 0.9045 0.60277 0.31436 0.0
H1892 H 0.84256 0.55457 0.23838 0.0
H1893 H 0.86656 0.54075 0.23544 0.0
H1894 H 0.81862 0.58314 0.27754 0.0
H1895 H 0.81862 0.58314 0.27754 0.0
C1896 C 0.70037 0.51621 0.7807 0.0
C1897 C 0.72254 0.52047 0.78018 0.0
C1898 C 0.71536 0.55069 0.75617 0.0
C1899 C 0.69326 0.54887 0.76008 0.0
N1900 N 0.6646 0.52604 0.77101 0.0
N1901 N 0.75115 0.5411 0.76457 0.0
C1902 C 0.68578 0.53049 0.77082 0.0
C1903 C 0.73 0.53727 0.76703 0.0
N1904 N 0.69251 0.49885 0.791 0.0
N1905 N 0.7227 0.565 0.74164 0.0
H1906 H 0.76313 0.5322 0.77185 0.0
H1907 H 0.76313 0.5322 0.77185 0.0
H1908 H 0.71289 0.57563 0.7335 0.0
H1909 H 0.7386 0.56505 0.73706 0.0
H1910 H 0.70183 0.48768 0.79902 0.0
H1911 H 0.70183 0.48768 0.79902 0.0
H1912 H 0.6588 0.51171 0.77701 0.0
H1913 H 0.65325 0.53597 0.76405 0.0
C1914 C 0.79606 0.40745 0.07934 0.0
C1915 C 0.79428 0.42703 0.06818 0.0
C1916 C 0.77436 0.40944 0.03968 0.0
C1917 C 0.77868 0.38961 0.04957 0.0
N1918 N 0.78569 0.37027 0.08165 0.0
N1919 N 0.77652 0.44819 0.04181 0.0
C1920 C 0.78683 0.38886 0.07047 0.0
C1921 C 0.78147 0.42854 0.0497 0.0
N1922 N 0.80782 0.40636 0.09761 0.0
N1923 N 0.76435 0.40975 0.02036 0.0
H1924 H 0.78179 0.46216 0.0491 0.0
H1925 H 0.76617 0.45077 0.02914 0.0
H1926 H 0.75868 0.39595 0.01307 0.0
H1927 H 0.76151 0.42347 0.01159 0.0
H1928 H 0.81201 0.39213 0.10486 0.0
H1929 H 0.81423 0.41968 0.1051 0.0
H1930 H 0.78935 0.36899 0.09779 0.0
H1931 H 0.77886 0.35664 0.07509 0.0
C1932 C 0.7628 0.70384 0.53361 0.0
C1933 C 0.75095 0.70356 0.55282 0.0
C1934 C 0.75153 0.74285 0.55204 0.0
C1935 C 0.76843 0.74273 0.53702 0.0
N1936 N 0.78681 0.72305 0.51027 0.0
N1937 N 0.72757 0.72426 0.57501 0.0
C1938 C 0.77291 0.72321 0.52675 0.0
C1939 C 0.74334 0.72335 0.5603 0.0
N1940 N 0.76287 0.68619 0.52095 0.0
N1941 N 0.74248 0.76157 0.55809 0.0
H1942 H 0.72034 0.71106 0.58201 0.0
H1943 H 0.72034 0.71106 0.58201 0.0
H1944 H 0.74934 0.77644 0.55568 0.0
H1945 H 0.72739 0.76216 0.56473 0.0
H1946 H 0.76792 0.68643 0.50512 0.0
H1947 H 0.75629 0.6717 0.52571 0.0
H1948 H 0.7925 0.70898 0.50434 0.0
H1949 H 0.79378 0.73665 0.50384 0.0
C1950 C 0.70966 0.54834 0.82334 0.0
C1951 C 0.6882 0.55406 0.81959 0.0
C1952 C 0.70097 0.58735 0.80246 0.0
C1953 C 0.72203 0.57924 0.80254 0.0
N1954 N 0.74661 0.55519 0.82004 0.0
N1955 N 0.66344 0.58199 0.81092 0.0
C1956 C 0.72639 0.56095 0.81509 0.0
C1957 C 0.68388 0.57465 0.81096 0.0
N1958 N 0.71492 0.53119 0.83556 0.0
N1959 N 0.69758 0.60752 0.795 0.0
H1960 H 0.65043 0.57259 0.81501 0.0
H1961 H 0.65908 0.5974 0.80694 0.0
H1962 H 0.70962 0.61686 0.78841 0.0
H1963 H 0.68335 0.61572 0.7964 0.0
H1964 H 0.7039 0.52106 0.84277 0.0
H1965 H 0.7039 0.52106 0.84277 0.0
H1966 H 0.76013 0.56307 0.81457 0.0
H1967 H 0.76013 0.56307 0.81457 0.0
C1968 C 0.96296 0.4196 0.26563 0.0
C1969 C 0.98288 0.41852 0.25501 0.0
C1970 C 0.97888 0.45566 0.24389 0.0
C1971 C 0.95993 0.45706 0.256 0.0
N1972 N 0.93736 0.44176 0.28339 0.0
N1973 N 0.00267 0.43249 0.2249 0.0
C1974 C 0.95307 0.43956 0.26851 0.0
C1975 C 0.98905 0.4357 0.24158 0.0
N1976 N 0.95194 0.40145 0.27035 0.0
N1977 N 0.98794 0.47366 0.23565 0.0
H1978 H 0.00728 0.41742 0.21982 0.0
H1979 H 0.00632 0.44422 0.21374 0.0
H1980 H 0.98171 0.48883 0.23816 0.0
H1981 H 0.00297 0.47384 0.2287 0.0
H1982 H 0.93662 0.40156 0.27666 0.0
H1983 H 0.95615 0.3866 0.26431 0.0
H1984 H 0.9338 0.42989 0.29446 0.0
H1985 H 0.92917 0.45584 0.28617 0.0
C1986 C 0.91619 0.79519 0.51977 0.0
C1987 C 0.92113 0.80916 0.50251 0.0
C1988 C 0.88335 0.81398 0.49532 0.0
C1989 C 0.87814 0.79925 0.51176 0.0
N1990 N 0.88922 0.77985 0.54305 0.0
N1991 N 0.90878 0.84003 0.48327 0.0
C1992 C 0.89448 0.79085 0.52495 0.0
C1993 C 0.90456 0.82109 0.49308 0.0
N1994 N 0.93226 0.78683 0.53176 0.0
N1995 N 0.8682 0.82091 0.48134 0.0
H1996 H 0.92357 0.84741 0.48429 0.0
H1997 H 0.89692 0.85001 0.47739 0.0
H1998 H 0.85238 0.81615 0.48204 0.0
H1999 H 0.87185 0.82977 0.46775 0.0
H2000 H 0.93042 0.77408 0.5422 0.0
H2001 H 0.94757 0.79318 0.53156 0.0
H2002 H 0.90015 0.77486 0.55444 0.0
H2003 H 0.87359 0.77688 0.54763 0.0
C2004 C 0.59125 0.64871 0.74688 0.0
C2005 C 0.60769 0.64571 0.76226 0.0
C2006 C 0.59269 0.67531 0.7825 0.0
C2007 C 0.58229 0.68252 0.76392 0.0
N2008 N 0.56635 0.67315 0.73026 0.0
N2009 N 0.62321 0.65689 0.79615 0.0
C2010 C 0.5797 0.66823 0.74667 0.0
C2011 C 0.60788 0.65881 0.78082 0.0
N2012 N 0.5859 0.6325 0.73339 0.0
N2013 N 0.58835 0.6848 0.80158 0.0
H2014 H 0.63537 0.64577 0.79592 0.0
H2015 H 0.62495 0.66786 0.80849 0.0
H2016 H 0.57687 0.69675 0.80287 0.0
H2017 H 0.59422 0.67919 0.81608 0.0
H2018 H 0.57314 0.63319 0.72285 0.0
H2019 H 0.5925 0.61733 0.73466 0.0
H2020 H 0.56612 0.66488 0.71587 0.0
H2021 H 0.55524 0.68538 0.73125 0.0
C2022 C 0.71356 0.31281 0.96119 0.0
C2023 C 0.71012 0.3148 0.9836 0.0
C2024 C 0.67183 0.31207 0.97808 0.0
C2025 C 0.67555 0.30942 0.95593 0.0
N2026 N 0.69957 0.30035 0.92753 0.0
N2027 N 0.68666 0.31056 0.01373 0.0
C2028 C 0.69632 0.30724 0.94793 0.0
C2029 C 0.68942 0.31263 0.9922 0.0
N2030 N 0.73264 0.31806 0.95214 0.0
N2031 N 0.65158 0.31442 0.98554 0.0
H2032 H 0.69934 0.31023 0.02443 0.0
H2033 H 0.67208 0.30703 0.02076 0.0
H2034 H 0.63826 0.31289 0.9758 0.0
H2035 H 0.64805 0.31895 0.00113 0.0
H2036 H 0.7349 0.31905 0.9357 0.0
H2037 H 0.74559 0.32382 0.96061 0.0
H2038 H 0.71456 0.29662 0.92154 0.0
H2039 H 0.6871 0.29614 0.91746 0.0
C2040 C 0.96945 0.65641 0.34573 0.0
C2041 C 0.96152 0.64552 0.3276 0.0
C2042 C 0.96515 0.67804 0.3062 0.0
C2043 C 0.97076 0.68934 0.32498 0.0
N2044 N 0.97299 0.6899 0.36365 0.0
N2045 N 0.94995 0.64605 0.29086 0.0
C2046 C 0.97148 0.6787 0.34499 0.0
C2047 C 0.95855 0.65642 0.30796 0.0
N2048 N 0.97508 0.64575 0.36392 0.0
N2049 N 0.96748 0.68737 0.28664 0.0
H2050 H 0.9467 0.62978 0.29085 0.0
H2051 H 0.945 0.65382 0.27705 0.0
H2052 H 0.97311 0.70283 0.28458 0.0
H2053 H 0.96578 0.67918 0.27231 0.0
H2054 H 0.98424 0.65268 0.37591 0.0
H2055 H 0.97177 0.62985 0.36696 0.0
H2056 H 0.97092 0.68301 0.37863 0.0
H2057 H 0.97385 0.70639 0.36445 0.0
C2058 C 0.66644 0.75644 0.60091 0.0
C2059 C 0.68063 0.77375 0.60361 0.0
C2060 C 0.65077 0.79865 0.60093 0.0
C2061 C 0.63689 0.78131 0.59711 0.0
N2062 N 0.63342 0.74431 0.58606 0.0
N2063 N 0.68703 0.81148 0.59973 0.0
C2064 C 0.64533 0.76048 0.59443 0.0
C2065 C 0.67305 0.79497 0.60174 0.0
N2066 N 0.67247 0.73615 0.60595 0.0
N2067 N 0.64266 0.8186 0.60381 0.0
H2068 H 0.70341 0.80926 0.59886 0.0
H2069 H 0.68233 0.82705 0.59651 0.0
H2070 H 0.62658 0.82206 0.60173 0.0
H2071 H 0.65174 0.83139 0.60918 0.0
H2072 H 0.66191 0.7234 0.60614 0.0
H2073 H 0.68717 0.73232 0.61246 0.0
H2074 H 0.63993 0.72963 0.5819 0.0
H2075 H 0.61793 0.74591 0.58068 0.0
C2076 C 0.62546 0.41571 0.77676 0.0
C2077 C 0.62152 0.40003 0.7927 0.0
C2078 C 0.62978 0.42633 0.82045 0.0
C2079 C 0.63574 0.44133 0.80452 0.0
N2080 N 0.64216 0.44922 0.76736 0.0
N2081 N 0.62485 0.38954 0.82988 0.0
C2082 C 0.63481 0.43555 0.78264 0.0
C2083 C 0.62499 0.4051 0.81458 0.0
N2084 N 0.61869 0.41246 0.7563 0.0
N2085 N 0.62858 0.43228 0.8414 0.0
H2086 H 0.6237 0.37337 0.82664 0.0
H2087 H 0.62882 0.39219 0.84577 0.0
H2088 H 0.63402 0.4468 0.8471 0.0
H2089 H 0.62091 0.42327 0.85304 0.0
H2090 H 0.61917 0.42416 0.74453 0.0
H2091 H 0.61025 0.39901 0.75156 0.0
H2092 H 0.64416 0.44481 0.75146 0.0
H2093 H 0.64778 0.46444 0.77071 0.0
C2094 C 0.94073 0.27613 0.12307 0.0
C2095 C 0.9574 0.27632 0.10816 0.0
C2096 C 0.94178 0.30668 0.08985 0.0
C2097 C 0.92597 0.30855 0.10615 0.0
N2098 N 0.91427 0.29712 0.14132 0.0
N2099 N 0.96672 0.28325 0.07194 0.0
C2100 C 0.92607 0.29346 0.12338 0.0
C2101 C 0.95509 0.28852 0.08952 0.0
N2102 N 0.93919 0.25949 0.13696 0.0
N2103 N 0.94619 0.32315 0.07629 0.0
H2104 H 0.9767 0.26996 0.07196 0.0
H2105 H 0.96463 0.29051 0.05713 0.0
H2106 H 0.94106 0.33864 0.07886 0.0
H2107 H 0.95822 0.32252 0.0649 0.0
H2108 H 0.9265 0.25733 0.14739 0.0
H2109 H 0.94945 0.24647 0.13596 0.0
H2110 H 0.91405 0.28703 0.15448 0.0
H2111 H 0.90748 0.31185 0.14469 0.0
C2112 C 0.2617 0.91133 0.43683 0.0
C2113 C 0.2662 0.92026 0.45694 0.0
C2114 C 0.2835 0.95066 0.43983 0.0
C2115 C 0.27448 0.94421 0.42019 0.0
N2116 N 0.25521 0.91806 0.39943 0.0
N2117 N 0.28397 0.94648 0.47835 0.0
C2118 C 0.26419 0.92412 0.41832 0.0
C2119 C 0.2783 0.93918 0.45863 0.0
N2120 N 0.25461 0.89084 0.43558 0.0
N2121 N 0.29696 0.96772 0.44032 0.0
H2122 H 0.28161 0.93747 0.49215 0.0
H2123 H 0.29052 0.96143 0.48115 0.0
H2124 H 0.30117 0.9761 0.42656 0.0
H2125 H 0.30532 0.97247 0.45382 0.0
H2126 H 0.25308 0.88266 0.42123 0.0
H2127 H 0.2524 0.88138 0.44909 0.0
H2128 H 0.24516 0.90498 0.39793 0.0
H2129 H 0.25662 0.92677 0.38537 0.0
C2130 C 0.266 0.95698 0.66762 0.0
C2131 C 0.26761 0.93474 0.6712 0.0
C2132 C 0.28148 0.94102 0.70693 0.0
C2133 C 0.27993 0.9633 0.70328 0.0
N2134 N 0.26368 0.99195 0.68356 0.0
N2135 N 0.27006 0.90586 0.69616 0.0
C2136 C 0.26966 0.97109 0.68479 0.0
C2137 C 0.27265 0.92696 0.69172 0.0
N2138 N 0.26297 0.96476 0.64755 0.0
N2139 N 0.29308 0.93312 0.72359 0.0
H2140 H 0.2641 0.89531 0.68487 0.0
H2141 H 0.27177 0.89946 0.7114 0.0
H2142 H 0.3012 0.94256 0.73451 0.0
H2143 H 0.29649 0.917 0.72539 0.0
H2144 H 0.26424 0.98085 0.64372 0.0
H2145 H 0.26087 0.95491 0.63448 0.0
H2146 H 0.25462 -0.002 0.67104 0.0
H2147 H 0.2658 0.00257 0.69619 0.0
C2148 C 0.27105 0.09126 0.93854 0.0
C2149 C 0.26595 0.11253 0.94397 0.0
C2150 C 0.27882 0.12506 0.90953 0.0
C2151 C 0.28643 0.10427 0.90503 0.0
N2152 N 0.28349 0.06644 0.91165 0.0
N2153 N 0.25413 0.14624 0.93029 0.0
C2154 C 0.28059 0.08692 0.91843 0.0
C2155 C 0.26618 0.12835 0.92797 0.0
N2156 N 0.26703 0.07546 0.95295 0.0
N2157 N 0.28448 0.14183 0.89684 0.0
H2158 H 0.24329 0.14788 0.94276 0.0
H2159 H 0.25271 0.15783 0.91848 0.0
H2160 H 0.2944 0.14025 0.88361 0.0
H2161 H 0.28089 0.15758 0.90053 0.0
H2162 H 0.27261 0.05994 0.95156 0.0
H2163 H 0.2581 0.07828 0.96671 0.0
H2164 H 0.27803 0.05313 0.91987 0.0
H2165 H 0.28997 0.06262 0.89685 0.0
C2166 C 0.32979 0.13005 0.22925 0.0
C2167 C 0.32418 0.10811 0.23003 0.0
C2168 C 0.32863 0.10555 0.19131 0.0
C2169 C 0.32885 0.12804 0.1903 0.0
N2170 N 0.33267 0.16196 0.2075 0.0
N2171 N 0.32328 0.07387 0.21298 0.0
C2172 C 0.33089 0.14035 0.20906 0.0
C2173 C 0.32552 0.09546 0.21136 0.0
N2174 N 0.3341 0.141 0.24757 0.0
N2175 N 0.33128 0.0941 0.17297 0.0
H2176 H 0.32281 0.06612 0.22771 0.0
H2177 H 0.32185 0.06364 0.20003 0.0
H2178 H 0.3341 0.10143 0.15828 0.0
H2179 H 0.33228 0.0776 0.17233 0.0
H2180 H 0.33972 0.15656 0.24783 0.0
H2181 H 0.33447 0.13399 0.26257 0.0
H2182 H 0.33105 0.17234 0.22033 0.0
H2183 H 0.33524 0.16961 0.19298 0.0
C2184 C 0.44174 0.22311 0.96247 0.0
C2185 C 0.43467 0.24383 0.96836 0.0
C2186 C 0.4623 0.25995 0.94582 0.0
C2187 C 0.47013 0.23932 0.94105 0.0
N2188 N 0.46822 0.20117 0.94516 0.0
N2189 N 0.441 0.28167 0.96952 0.0
C2190 C 0.46007 0.22091 0.94949 0.0
C2191 C 0.44556 0.2622 0.9609 0.0
N2192 N 0.43055 0.20545 0.96852 0.0
N2193 N 0.47109 0.27746 0.93632 0.0
H2194 H 0.42979 0.28384 0.98158 0.0
H2195 H 0.4498 0.29537 0.96651 0.0
H2196 H 0.48429 0.27681 0.92635 0.0
H2197 H 0.46436 0.29258 0.93708 0.0
H2198 H 0.43335 0.19025 0.96261 0.0
H2199 H 0.41734 0.20571 0.97841 0.0
H2200 H 0.46435 0.18746 0.95363 0.0
H2201 H 0.47973 0.19846 0.93355 0.0
C2202 C 0.07635 0.92488 0.28718 0.0
C2203 C 0.0899 0.90839 0.29451 0.0
C2204 C 0.12049 0.92716 0.27951 0.0
C2205 C 0.10794 0.9457 0.27791 0.0
N2206 N 0.07344 0.96167 0.27544 0.0
N2207 N 0.12534 0.89382 0.29807 0.0
C2208 C 0.08557 0.94421 0.27987 0.0
C2209 C 0.11209 0.90926 0.2904 0.0
N2210 N 0.05484 0.9219 0.28693 0.0
N2211 N 0.14029 0.92666 0.27068 0.0
H2212 H 0.12003 0.88072 0.30678 0.0
H2213 H 0.14183 0.89498 0.29742 0.0
H2214 H 0.14607 0.93907 0.26129 0.0
H2215 H 0.14962 0.91298 0.27022 0.0
H2216 H 0.04416 0.93266 0.28029 0.0
H2217 H 0.0477 0.90772 0.29184 0.0
H2218 H 0.0573 0.96283 0.27888 0.0
H2219 H 0.07998 0.97534 0.26858 0.0
C2220 C 0.17113 0.75581 0.48073 0.0
C2221 C 0.16789 0.76234 0.45931 0.0
C2222 C 0.20544 0.75612 0.45194 0.0
C2223 C 0.2094 0.75683 0.4741 0.0
N2224 N 0.19638 0.74938 0.50936 0.0
N2225 N 0.18162 0.76626 0.42346 0.0
C2226 C 0.19228 0.75367 0.48845 0.0
C2227 C 0.18481 0.76116 0.44439 0.0
N2228 N 0.15396 0.75178 0.49346 0.0
N2229 N 0.22146 0.7507 0.43834 0.0
H2230 H 0.1667 0.76953 0.41711 0.0
H2231 H 0.19399 0.76824 0.41259 0.0
H2232 H 0.2363 0.7459 0.44403 0.0
H2233 H 0.21928 0.74851 0.42201 0.0
H2234 H 0.15494 0.74602 0.50898 0.0
H2235 H 0.13841 0.75267 0.48775 0.0
H2236 H 0.18501 0.74942 0.52139 0.0
H2237 H 0.21157 0.74535 0.51451 0.0
C2238 C 0.49596 0.90071 0.79267 0.0
C2239 C 0.47833 0.88664 0.7919 0.0
C2240 C 0.45662 0.91287 0.81081 0.0
C2241 C 0.47245 0.92848 0.80721 0.0
N2242 N 0.50887 0.93665 0.79901 0.0
N2243 N 0.44106 0.88004 0.79833 0.0
C2244 C 0.49274 0.92211 0.79955 0.0
C2245 C 0.45847 0.89286 0.80059 0.0
N2246 N 0.51575 0.89341 0.78742 0.0
N2247 N 0.4403 0.91671 0.82463 0.0
H2248 H 0.44156 0.86538 0.79058 0.0
H2249 H 0.42574 0.88494 0.80227 0.0
H2250 H 0.43996 0.92997 0.83456 0.0
H2251 H 0.42905 0.90524 0.82873 0.0
H2252 H 0.52963 0.90218 0.78934 0.0
H2253 H 0.51855 0.87787 0.78229 0.0
H2254 H 0.52327 0.93425 0.79124 0.0
H2255 H 0.50761 0.95144 0.80649 0.0
C2256 C 0.16218 0.20402 0.33751 0.0
C2257 C 0.14995 0.18584 0.34215 0.0
C2258 C 0.11723 0.20598 0.33644 0.0
C2259 C 0.12949 0.22232 0.32688 0.0
N2260 N 0.16378 0.23812 0.31951 0.0
N2261 N 0.11629 0.16956 0.34949 0.0
C2262 C 0.15205 0.22203 0.32828 0.0
C2263 C 0.12755 0.18706 0.34319 0.0
N2264 N 0.18347 0.20363 0.34153 0.0
N2265 N 0.09584 0.2087 0.33902 0.0
H2266 H 0.12378 0.15605 0.35564 0.0
H2267 H 0.09986 0.16819 0.34825 0.0
H2268 H 0.08804 0.22263 0.33443 0.0
H2269 H 0.08613 0.19809 0.34723 0.0
H2270 H 0.19341 0.21676 0.33984 0.0
H2271 H 0.19064 0.19048 0.34871 0.0
H2272 H 0.18022 0.23761 0.31787 0.0
H2273 H 0.15703 0.25166 0.31273 0.0
C2274 C 0.44748 0.19489 0.74915 0.0
C2275 C 0.46108 0.17709 0.75235 0.0
C2276 C 0.49229 0.20045 0.74941 0.0
C2277 C 0.47851 0.21817 0.75079 0.0
N2278 N 0.44485 0.23246 0.74032 0.0
N2279 N 0.49639 0.1621 0.75218 0.0
C2280 C 0.45663 0.21538 0.74677 0.0
C2281 C 0.48354 0.17961 0.75119 0.0
N2282 N 0.42591 0.19261 0.75013 0.0
N2283 N 0.51336 0.2036 0.74533 0.0
H2284 H 0.49052 0.14659 0.75141 0.0
H2285 H 0.51278 0.1628 0.75421 0.0
H2286 H 0.51936 0.21851 0.74123 0.0
H2287 H 0.52434 0.19142 0.74325 0.0
H2288 H 0.41543 0.20541 0.7507 0.0
H2289 H 0.41834 0.17799 0.75172 0.0
H2290 H 0.42911 0.23138 0.73534 0.0
H2291 H 0.45179 0.24732 0.73765 0.0
C2292 C 0.22224 0.33119 0.10048 0.0
C2293 C 0.23999 0.32543 0.11304 0.0
C2294 C 0.21851 0.32901 0.14535 0.0
C2295 C 0.20021 0.32874 0.13238 0.0
N2296 N 0.18379 0.3332 0.09808 0.0
N2297 N 0.25604 0.32109 0.14786 0.0
C2298 C 0.20184 0.33147 0.11005 0.0
C2299 C 0.23864 0.3257 0.13568 0.0
N2300 N 0.22508 0.33586 0.07939 0.0
N2301 N 0.21644 0.33191 0.16683 0.0
H2302 H 0.27123 0.31933 0.14159 0.0
H2303 H 0.25532 0.31817 0.16419 0.0
H2304 H 0.2017 0.33469 0.1739 0.0
H2305 H 0.22924 0.33378 0.17716 0.0
H2306 H 0.21307 0.34145 0.06945 0.0
H2307 H 0.24013 0.33588 0.07237 0.0
H2308 H 0.18359 0.33279 0.08149 0.0
H2309 H 0.16878 0.33457 0.10505 0.0
C2310 C 0.36542 0.81469 0.65247 0.0
C2311 C 0.36116 0.80406 0.63297 0.0
C2312 C 0.3993 0.80187 0.62572 0.0
C2313 C 0.4033 0.81498 0.64368 0.0
N2314 N 0.39042 0.83505 0.67375 0.0
N2315 N 0.3737 0.78926 0.59979 0.0
C2316 C 0.38646 0.82152 0.65715 0.0
C2317 C 0.37803 0.79797 0.6193 0.0
N2318 N 0.34935 0.81789 0.66667 0.0
N2319 N 0.41595 0.7927 0.61517 0.0
H2320 H 0.35832 0.78595 0.59458 0.0
H2321 H 0.38518 0.78683 0.58808 0.0
H2322 H 0.43165 0.79466 0.62007 0.0
H2323 H 0.41414 0.78148 0.60309 0.0
H2324 H 0.35174 0.82327 0.68218 0.0
H2325 H 0.33375 0.8135 0.66334 0.0
H2326 H 0.37855 0.84247 0.6826 0.0
H2327 H 0.40568 0.83992 0.67797 0.0
C2328 C 0.82504 0.4572 0.89544 0.0
C2329 C 0.83127 0.47463 0.90815 0.0
C2330 C 0.8212 0.49801 0.87873 0.0
C2331 C 0.80819 0.48166 0.87019 0.0
N2332 N 0.79723 0.44448 0.87251 0.0
N2333 N 0.83762 0.51231 0.91058 0.0
C2334 C 0.81021 0.46072 0.87878 0.0
C2335 C 0.83014 0.49533 0.89934 0.0
N2336 N 0.83313 0.43744 0.89917 0.0
N2337 N 0.82631 0.51522 0.86657 0.0
H2338 H 0.84559 0.51047 0.92507 0.0
H2339 H 0.83522 0.52801 0.90573 0.0
H2340 H 0.82279 0.51556 0.85032 0.0
H2341 H 0.83669 0.5271 0.87165 0.0
H2342 H 0.83016 0.42462 0.88904 0.0
H2343 H 0.84478 0.43467 0.91065 0.0
H2344 H 0.79761 0.42953 0.87973 0.0
H2345 H 0.78454 0.44629 0.86206 0.0
C2346 C 0.80826 0.53198 0.18755 0.0
C2347 C 0.7951 0.52051 0.20191 0.0
C2348 C 0.79208 0.49159 0.17632 0.0
C2349 C 0.80508 0.50279 0.16155 0.0
N2350 N 0.81816 0.53742 0.1506 0.0
N2351 N 0.76525 0.49618 0.20321 0.0
C2352 C 0.81113 0.52415 0.16637 0.0
C2353 C 0.78389 0.50257 0.19415 0.0
N2354 N 0.81738 0.55066 0.1938 0.0
N2355 N 0.78852 0.47021 0.17447 0.0
H2356 H 0.75703 0.50556 0.21414 0.0
H2357 H 0.75634 0.48356 0.19714 0.0
H2358 H 0.79649 0.46055 0.16363 0.0
H2359 H 0.78015 0.46161 0.18597 0.0
H2360 H 0.82941 0.55814 0.18517 0.0
H2361 H 0.81293 0.55851 0.20776 0.0
H2362 H 0.82123 0.55353 0.15302 0.0
H2363 H 0.81827 0.53318 0.13454 0.0
C2364 C 0.80298 0.60492 0.4158 0.0
C2365 C 0.79592 0.61798 0.39886 0.0
C2366 C 0.7859 0.6454 0.42472 0.0
C2367 C 0.79948 0.63543 0.43979 0.0
N2368 N 0.8183 0.6039 0.45119 0.0
N2369 N 0.7747 0.64772 0.38767 0.0
C2370 C 0.80706 0.6145 0.43588 0.0
C2371 C 0.78522 0.63725 0.40357 0.0
N2372 N 0.80555 0.58357 0.41277 0.0
N2373 N 0.77362 0.66231 0.43063 0.0
H2374 H 0.77197 0.64069 0.37283 0.0
H2375 H 0.76887 0.66315 0.38905 0.0
H2376 H 0.77321 0.66812 0.44617 0.0
H2377 H 0.76237 0.66939 0.42077 0.0
H2378 H 0.80962 0.57306 0.42494 0.0
H2379 H 0.8007 0.576 0.39881 0.0
H2380 H 0.82636 0.58971 0.44834 0.0
H2381 H 0.82024 0.60975 0.46662 0.0
C2382 C 0.74858 0.60621 0.65668 0.0
C2383 C 0.76273 0.62098 0.64665 0.0
C2384 C 0.77888 0.62752 0.68145 0.0
C2385 C 0.76683 0.61059 0.6906 0.0
N2386 N 0.74677 0.57855 0.68325 0.0
N2387 N 0.79659 0.63911 0.64936 0.0
C2388 C 0.75394 0.59809 0.67701 0.0
C2389 C 0.77967 0.62944 0.65893 0.0
N2390 N 0.72919 0.60116 0.64832 0.0
N2391 N 0.78832 0.64275 0.69375 0.0
H2392 H 0.79874 0.63917 0.63286 0.0
H2393 H 0.80975 0.64439 0.65797 0.0
H2394 H 0.78629 0.64395 0.71016 0.0
H2395 H 0.79579 0.65602 0.68712 0.0
H2396 H 0.71849 0.59131 0.65634 0.0
H2397 H 0.72212 0.60912 0.63566 0.0
H2398 H 0.73827 0.56862 0.67301 0.0
H2399 H 0.75175 0.57123 0.69732 0.0
loop_
_geom_bond_atom_site_label_1
_geom_bond_atom_site_label_2
_geom_bond_distance
_geom_bond_site_symmetry_2
_ccdc_geom_bond_type
Co0 O1 2.216 1_455 S
Co0 O2 2.091 . S
Co0 O4 2.004 . S
Co0 O10 2.021 1_455 S
Co0 O12 2.137 . S
Co0 O13 2.244 . S
O1 Co0 2.216 1_655 S
O1 C8 1.247 . S
O2 Co0 2.091 . S
O2 C8 1.261 1_455 S
C3 O12 1.247 . S
C3 O13 1.272 . S
O4 Co0 2.004 . S
O4 C9 1.259 . S
Co5 O6 2.061 . S
Co5 O11 2.052 1_455 S
Co5 O13 2.135 . S
O6 Co5 2.061 . S
O6 C9 1.235 . S
C7 O10 1.238 . S
C7 O11 1.241 . S
C8 O1 1.247 . S
C8 O2 1.261 1_655 S
C9 O4 1.259 . S
C9 O6 1.235 . S
O10 Co0 2.021 1_655 S
O10 C7 1.238 . S
O11 Co5 2.052 1_655 S
O11 C7 1.241 . S
O12 Co0 2.137 . S
O12 C3 1.247 . S
O13 Co0 2.244 . S
O13 C3 1.272 . S
O13 Co5 2.135 . S
Co14 O15 2.216 . S
Co14 O16 2.091 . S
Co14 O18 2.004 . S
Co14 O24 2.021 . S
Co14 O26 2.137 . S
Co14 O27 2.220 1_655 S
O15 Co14 2.216 . S
O15 C22 1.247 . S
O16 Co14 2.091 . S
O16 C22 1.261 . S
C17 O26 1.267 . S
C17 O27 1.270 1_655 S
O18 Co14 2.004 . S
O18 C23 1.263 1_655 S
Co19 O20 2.061 . S
Co19 O25 2.052 1_455 S
Co19 O27 2.150 . S
O20 Co19 2.061 . S
O20 C23 1.232 . S
C21 O24 1.238 . S
C21 O25 1.241 . S
C22 O15 1.247 . S
C22 O16 1.261 . S
C23 O18 1.263 1_455 S
C23 O20 1.232 . S
O24 Co14 2.021 . S
O24 C21 1.238 . S
O25 Co19 2.052 1_655 S
O25 C21 1.241 . S
O26 Co14 2.137 . S
O26 C17 1.267 . S
O27 Co14 2.220 1_455 S
O27 C17 1.270 1_455 S
O27 Co19 2.150 . S
Co28 O29 2.216 . S
Co28 O30 2.091 . S
Co28 O32 2.004 . S
Co28 O38 2.021 . S
Co28 O40 2.137 . S
Co28 O41 2.244 . S
O29 Co28 2.216 . S
O29 C36 1.247 . S
O30 Co28 2.091 . S
O30 C36 1.261 . S
C31 O40 1.247 . S
C31 O41 1.272 . S
O32 Co28 2.004 . S
O32 C37 1.259 . S
Co33 O34 2.061 . S
Co33 O39 2.052 . S
Co33 O41 2.135 . S
O34 Co33 2.061 . S
O34 C37 1.235 . S
C35 O38 1.238 . S
C35 O39 1.241 . S
C36 O29 1.247 . S
C36 O30 1.261 . S
C37 O32 1.259 . S
C37 O34 1.235 . S
O38 Co28 2.021 . S
O38 C35 1.238 . S
O39 Co33 2.052 . S
O39 C35 1.241 . S
O40 Co28 2.137 . S
O40 C31 1.247 . S
O41 Co28 2.244 . S
O41 C31 1.272 . S
O41 Co33 2.135 . S
Co42 O43 2.216 . S
Co42 O44 2.091 . S
Co42 O46 2.004 . S
Co42 O52 2.021 . S
Co42 O54 2.137 . S
Co42 O55 2.244 . S
O43 Co42 2.216 . S
O43 C50 1.247 . S
O44 Co42 2.091 . S
O44 C50 1.261 . S
C45 O54 1.247 . S
C45 O55 1.272 . S
O46 Co42 2.004 . S
O46 C51 1.259 . S
Co47 O48 2.061 . S
Co47 O53 2.052 . S
Co47 O55 2.135 . S
O48 Co47 2.061 . S
O48 C51 1.235 . S
C49 O52 1.238 . S
C49 O53 1.241 . S
C50 O43 1.247 . S
C50 O44 1.261 . S
C51 O46 1.259 . S
C51 O48 1.235 . S
O52 Co42 2.021 . S
O52 C49 1.238 . S
O53 Co47 2.052 . S
O53 C49 1.241 . S
O54 Co42 2.137 . S
O54 C45 1.247 . S
O55 Co42 2.244 . S
O55 C45 1.272 . S
O55 Co47 2.135 . S
Co56 O57 2.216 1_455 S
Co56 O58 2.091 1_455 S
Co56 O60 2.004 . S
Co56 O66 2.021 1_455 S
Co56 O68 2.137 . S
Co56 O69 2.244 . S
O57 Co56 2.216 1_655 S
O57 C64 1.247 . S
O58 Co56 2.091 1_655 S
O58 C64 1.261 . S
C59 O68 1.247 . S
C59 O69 1.272 . S
O60 Co56 2.004 . S
O60 C65 1.259 . S
Co61 O62 2.061 . S
Co61 O67 2.052 1_455 S
Co61 O69 2.135 . S
O62 Co61 2.061 . S
O62 C65 1.235 . S
C63 O66 1.238 . S
C63 O67 1.241 . S
C64 O57 1.247 . S
C64 O58 1.261 . S
C65 O60 1.259 . S
C65 O62 1.235 . S
O66 Co56 2.021 1_655 S
O66 C63 1.238 . S
O67 Co61 2.052 1_655 S
O67 C63 1.241 . S
O68 Co56 2.137 . S
O68 C59 1.247 . S
O69 Co56 2.244 . S
O69 C59 1.272 . S
O69 Co61 2.135 . S
Co70 O71 2.216 . S
Co70 O72 2.091 . S
Co70 O74 2.004 . S
Co70 O80 2.021 . S
Co70 O82 2.137 . S
Co70 O83 2.244 . S
O71 Co70 2.216 . S
O71 C78 1.247 . S
O72 Co70 2.091 . S
O72 C78 1.261 . S
C73 O82 1.247 . S
C73 O83 1.272 . S
O74 Co70 2.004 . S
O74 C79 1.259 . S
Co75 O76 2.061 . S
Co75 O81 2.052 . S
Co75 O83 2.135 . S
O76 Co75 2.061 . S
O76 C79 1.235 . S
C77 O80 1.238 . S
C77 O81 1.241 . S
C78 O71 1.247 . S
C78 O72 1.261 . S
C79 O74 1.259 . S
C79 O76 1.235 . S
O80 Co70 2.021 . S
O80 C77 1.238 . S
O81 Co75 2.052 . S
O81 C77 1.241 . S
O82 Co70 2.137 . S
O82 C73 1.247 . S
O83 Co70 2.244 . S
O83 C73 1.272 . S
O83 Co75 2.135 . S
Co84 O85 2.216 . S
Co84 O86 2.091 . S
Co84 O88 2.004 . S
Co84 O94 2.021 . S
Co84 O96 2.137 . S
Co84 O97 2.244 . S
O85 Co84 2.216 . S
O85 C92 1.247 . S
O86 Co84 2.091 . S
O86 C92 1.261 . S
C87 O96 1.247 . S
C87 O97 1.272 . S
O88 Co84 2.004 . S
O88 C93 1.259 . S
Co89 O90 2.061 . S
Co89 O95 2.052 . S
Co89 O97 2.135 . S
O90 Co89 2.061 . S
O90 C93 1.235 . S
C91 O94 1.238 . S
C91 O95 1.241 . S
C92 O85 1.247 . S
C92 O86 1.261 . S
C93 O88 1.259 . S
C93 O90 1.235 . S
O94 Co84 2.021 . S
O94 C91 1.238 . S
O95 Co89 2.052 . S
O95 C91 1.241 . S
O96 Co84 2.137 . S
O96 C87 1.247 . S
O97 Co84 2.244 . S
O97 C87 1.272 . S
O97 Co89 2.135 . S
Co98 O99 2.216 . S
Co98 O100 2.091 . S
Co98 O102 2.004 1_655 S
Co98 O108 2.021 . S
Co98 O110 2.137 1_655 S
Co98 O111 2.244 1_655 S
O99 Co98 2.216 . S
O99 C106 1.247 . S
O100 Co98 2.091 . S
O100 C106 1.261 . S
C101 O110 1.247 . S
C101 O111 1.272 . S
O102 Co98 2.004 1_455 S
O102 C107 1.259 . S
Co103 O104 2.061 . S
Co103 O109 2.052 . S
Co103 O111 2.135 . S
O104 Co103 2.061 . S
O104 C107 1.235 . S
C105 O108 1.238 . S
C105 O109 1.241 1_655 S
C106 O99 1.247 . S
C106 O100 1.261 . S
C107 O102 1.259 . S
C107 O104 1.235 . S
O108 Co98 2.021 . S
O108 C105 1.238 . S
O109 Co103 2.052 . S
O109 C105 1.241 1_455 S
O110 Co98 2.137 1_455 S
O110 C101 1.247 . S
O111 Co98 2.244 1_455 S
O111 C101 1.272 . S
O111 Co103 2.135 . S
Co112 O113 2.216 1_545 S
Co112 O114 2.091 . S
Co112 O116 2.004 . S
Co112 O122 2.021 1_545 S
Co112 O124 2.137 . S
Co112 O125 2.244 . S
O113 Co112 2.216 1_565 S
O113 C120 1.247 . S
O114 Co112 2.091 . S
O114 C120 1.261 1_545 S
C115 O124 1.247 . S
C115 O125 1.272 . S
O116 Co112 2.004 . S
O116 C121 1.259 . S
Co117 O118 2.061 . S
Co117 O123 2.052 1_545 S
Co117 O125 2.135 . S
O118 Co117 2.061 . S
O118 C121 1.235 . S
C119 O122 1.238 . S
C119 O123 1.241 . S
C120 O113 1.247 . S
C120 O114 1.261 1_565 S
C121 O116 1.259 . S
C121 O118 1.235 . S
O122 Co112 2.021 1_565 S
O122 C119 1.238 . S
O123 Co117 2.052 1_565 S
O123 C119 1.241 . S
O124 Co112 2.137 . S
O124 C115 1.247 . S
O125 Co112 2.244 . S
O125 C115 1.272 . S
O125 Co117 2.135 . S
Co126 O127 2.216 . S
Co126 O128 2.091 . S
Co126 O130 2.004 . S
Co126 O136 2.021 . S
Co126 O138 2.137 . S
Co126 O139 2.244 . S
O127 Co126 2.216 . S
O127 C134 1.247 . S
O128 Co126 2.091 . S
O128 C134 1.261 . S
C129 O138 1.247 . S
C129 O139 1.272 . S
O130 Co126 2.004 . S
O130 C135 1.259 . S
Co131 O132 2.061 . S
Co131 O137 2.052 . S
Co131 O139 2.135 . S
O132 Co131 2.061 . S
O132 C135 1.235 . S
C133 O136 1.238 . S
C133 O137 1.241 . S
C134 O127 1.247 . S
C134 O128 1.261 . S
C135 O130 1.259 . S
C135 O132 1.235 . S
O136 Co126 2.021 . S
O136 C133 1.238 . S
O137 Co131 2.052 . S
O137 C133 1.241 . S
O138 Co126 2.137 . S
O138 C129 1.247 . S
O139 Co126 2.244 . S
O139 C129 1.272 . S
O139 Co131 2.135 . S
Co140 O141 2.216 . S
Co140 O142 2.091 . S
Co140 O144 2.004 . S
Co140 O150 2.021 . S
Co140 O152 2.137 . S
Co140 O153 2.244 . S
O141 Co140 2.216 . S
O141 C148 1.247 . S
O142 Co140 2.091 . S
O142 C148 1.261 . S
C143 O152 1.247 . S
C143 O153 1.272 . S
O144 Co140 2.004 . S
O144 C149 1.259 . S
Co145 O146 2.061 . S
Co145 O151 2.052 . S
Co145 O153 2.135 . S
O146 Co145 2.061 . S
O146 C149 1.235 . S
C147 O150 1.238 . S
C147 O151 1.241 . S
C148 O141 1.247 . S
C148 O142 1.261 . S
C149 O144 1.259 . S
C149 O146 1.235 . S
O150 Co140 2.021 . S
O150 C147 1.238 . S
O151 Co145 2.052 . S
O151 C147 1.241 . S
O152 Co140 2.137 . S
O152 C143 1.247 . S
O153 Co140 2.244 . S
O153 C143 1.272 . S
O153 Co145 2.135 . S
Co154 O155 2.216 . S
Co154 O156 2.091 . S
Co154 O158 2.004 . S
Co154 O164 2.021 . S
Co154 O166 2.137 . S
Co154 O167 2.244 . S
O155 Co154 2.216 . S
O155 C162 1.247 . S
O156 Co154 2.091 . S
O156 C162 1.261 . S
C157 O166 1.247 . S
C157 O167 1.272 . S
O158 Co154 2.004 . S
O158 C163 1.259 . S
Co159 O160 2.061 . S
Co159 O165 2.052 . S
Co159 O167 2.135 . S
O160 Co159 2.061 . S
O160 C163 1.235 . S
C161 O164 1.238 . S
C161 O165 1.241 . S
C162 O155 1.247 . S
C162 O156 1.261 . S
C163 O158 1.259 . S
C163 O160 1.235 . S
O164 Co154 2.021 . S
O164 C161 1.238 . S
O165 Co159 2.052 . S
O165 C161 1.241 . S
O166 Co154 2.137 . S
O166 C157 1.247 . S
O167 Co154 2.244 . S
O167 C157 1.272 . S
O167 Co159 2.135 . S
Co168 O169 2.216 . S
Co168 O170 2.091 . S
Co168 O172 2.004 . S
Co168 O178 2.021 . S
Co168 O180 2.137 . S
Co168 O181 2.244 . S
O169 Co168 2.216 . S
O169 C176 1.247 . S
O170 Co168 2.091 . S
O170 C176 1.261 . S
C171 O180 1.247 . S
C171 O181 1.272 . S
O172 Co168 2.004 . S
O172 C177 1.259 . S
Co173 O174 2.061 . S
Co173 O179 2.052 . S
Co173 O181 2.135 . S
O174 Co173 2.061 . S
O174 C177 1.235 . S
C175 O178 1.238 . S
C175 O179 1.241 . S
C176 O169 1.247 . S
C176 O170 1.261 . S
C177 O172 1.259 . S
C177 O174 1.235 . S
O178 Co168 2.021 . S
O178 C175 1.238 . S
O179 Co173 2.052 . S
O179 C175 1.241 . S
O180 Co168 2.137 . S
O180 C171 1.247 . S
O181 Co168 2.244 . S
O181 C171 1.272 . S
O181 Co173 2.135 . S
Co182 O183 2.216 . S
Co182 O184 2.091 . S
Co182 O186 2.004 . S
Co182 O192 2.021 . S
Co182 O194 2.137 . S
Co182 O195 2.244 . S
O183 Co182 2.216 . S
O183 C190 1.247 . S
O184 Co182 2.091 . S
O184 C190 1.261 . S
C185 O194 1.247 . S
C185 O195 1.272 . S
O186 Co182 2.004 . S
O186 C191 1.259 . S
Co187 O188 2.061 . S
Co187 O193 2.052 . S
Co187 O195 2.135 . S
O188 Co187 2.061 . S
O188 C191 1.235 . S
C189 O192 1.238 . S
C189 O193 1.241 . S
C190 O183 1.247 . S
C190 O184 1.261 . S
C191 O186 1.259 . S
C191 O188 1.235 . S
O192 Co182 2.021 . S
O192 C189 1.238 . S
O193 Co187 2.052 . S
O193 C189 1.241 . S
O194 Co182 2.137 . S
O194 C185 1.247 . S
O195 Co182 2.244 . S
O195 C185 1.272 . S
O195 Co187 2.135 . S
Co196 O197 2.216 1_545 S
Co196 O198 2.091 1_545 S
Co196 O200 2.004 . S
Co196 O206 2.021 1_545 S
Co196 O208 2.137 . S
Co196 O209 2.244 . S
O197 Co196 2.216 1_565 S
O197 C204 1.247 . S
O198 Co196 2.091 1_565 S
O198 C204 1.261 . S
C199 O208 1.247 . S
C199 O209 1.272 . S
O200 Co196 2.004 . S
O200 C205 1.259 . S
Co201 O202 2.061 . S
Co201 O207 2.052 1_545 S
Co201 O209 2.135 . S
O202 Co201 2.061 . S
O202 C205 1.235 . S
C203 O206 1.238 . S
C203 O207 1.241 . S
C204 O197 1.247 . S
C204 O198 1.261 . S
C205 O200 1.259 . S
C205 O202 1.235 . S
O206 Co196 2.021 1_565 S
O206 C203 1.238 . S
O207 Co201 2.052 1_565 S
O207 C203 1.241 . S
O208 Co196 2.137 . S
O208 C199 1.247 . S
O209 Co196 2.244 . S
O209 C199 1.272 . S
O209 Co201 2.135 . S
Co210 O211 2.216 . S
Co210 O212 2.091 . S
Co210 O214 2.004 1_556 S
Co210 O220 2.021 . S
Co210 O222 2.137 1_556 S
Co210 O223 2.244 1_556 S
O211 Co210 2.216 . S
O211 C218 1.247 . S
O212 Co210 2.091 . S
O212 C218 1.261 . S
C213 O222 1.247 . S
C213 O223 1.272 . S
O214 Co210 2.004 1_554 S
O214 C219 1.259 . S
Co215 O216 2.061 . S
Co215 O221 2.052 . S
Co215 O223 2.135 . S
O216 Co215 2.061 . S
O216 C219 1.235 . S
C217 O220 1.238 . S
C217 O221 1.241 1_556 S
C218 O211 1.247 . S
C218 O212 1.261 . S
C219 O214 1.259 . S
C219 O216 1.235 . S
O220 Co210 2.021 . S
O220 C217 1.238 . S
O221 Co215 2.052 . S
O221 C217 1.241 1_554 S
O222 Co210 2.137 1_554 S
O222 C213 1.247 . S
O223 Co210 2.244 1_554 S
O223 C213 1.272 . S
O223 Co215 2.135 . S
Co224 O225 2.216 1_554 S
Co224 O226 2.091 . S
Co224 O228 2.004 . S
Co224 O234 2.021 1_554 S
Co224 O236 2.137 . S
Co224 O237 2.244 . S
O225 Co224 2.216 1_556 S
O225 C232 1.247 . S
O226 Co224 2.091 . S
O226 C232 1.261 1_554 S
C227 O236 1.247 . S
C227 O237 1.272 . S
O228 Co224 2.004 . S
O228 C233 1.259 . S
Co229 O230 2.061 . S
Co229 O235 2.052 1_554 S
Co229 O237 2.135 . S
O230 Co229 2.061 . S
O230 C233 1.235 . S
C231 O234 1.238 . S
C231 O235 1.241 . S
C232 O225 1.247 . S
C232 O226 1.261 1_556 S
C233 O228 1.259 . S
C233 O230 1.235 . S
O234 Co224 2.021 1_556 S
O234 C231 1.238 . S
O235 Co229 2.052 1_556 S
O235 C231 1.241 . S
O236 Co224 2.137 . S
O236 C227 1.247 . S
O237 Co224 2.244 . S
O237 C227 1.272 . S
O237 Co229 2.135 . S
Co238 O239 2.216 . S
Co238 O240 2.091 . S
Co238 O242 2.004 . S
Co238 O248 2.021 . S
Co238 O250 2.137 . S
Co238 O251 2.244 . S
O239 Co238 2.216 . S
O239 C246 1.247 . S
O240 Co238 2.091 . S
O240 C246 1.261 . S
C241 O250 1.247 . S
C241 O251 1.272 . S
O242 Co238 2.004 . S
O242 C247 1.259 . S
Co243 O244 2.061 . S
Co243 O249 2.052 . S
Co243 O251 2.135 . S
O244 Co243 2.061 . S
O244 C247 1.235 . S
C245 O248 1.238 . S
C245 O249 1.241 . S
C246 O239 1.247 . S
C246 O240 1.261 . S
C247 O242 1.259 . S
C247 O244 1.235 . S
O248 Co238 2.021 . S
O248 C245 1.238 . S
O249 Co243 2.052 . S
O249 C245 1.241 . S
O250 Co238 2.137 . S
O250 C241 1.247 . S
O251 Co238 2.244 . S
O251 C241 1.272 . S
O251 Co243 2.135 . S
Co252 O253 2.216 . S
Co252 O254 2.091 . S
Co252 O256 2.004 . S
Co252 O262 2.021 . S
Co252 O264 2.137 . S
Co252 O265 2.244 . S
O253 Co252 2.216 . S
O253 C260 1.247 . S
O254 Co252 2.091 . S
O254 C260 1.261 . S
C255 O264 1.247 . S
C255 O265 1.272 . S
O256 Co252 2.004 . S
O256 C261 1.259 . S
Co257 O258 2.061 . S
Co257 O263 2.052 . S
Co257 O265 2.135 . S
O258 Co257 2.061 . S
O258 C261 1.235 . S
C259 O262 1.238 . S
C259 O263 1.241 . S
C260 O253 1.247 . S
C260 O254 1.261 . S
C261 O256 1.259 . S
C261 O258 1.235 . S
O262 Co252 2.021 . S
O262 C259 1.238 . S
O263 Co257 2.052 . S
O263 C259 1.241 . S
O264 Co252 2.137 . S
O264 C255 1.247 . S
O265 Co252 2.244 . S
O265 C255 1.272 . S
O265 Co257 2.135 . S
Co266 O267 2.216 . S
Co266 O268 2.091 . S
Co266 O270 2.004 . S
Co266 O276 2.021 . S
Co266 O278 2.137 . S
Co266 O279 2.244 . S
O267 Co266 2.216 . S
O267 C274 1.247 . S
O268 Co266 2.091 . S
O268 C274 1.261 . S
C269 O278 1.247 . S
C269 O279 1.272 . S
O270 Co266 2.004 . S
O270 C275 1.259 . S
Co271 O272 2.061 . S
Co271 O277 2.052 . S
Co271 O279 2.135 . S
O272 Co271 2.061 . S
O272 C275 1.235 . S
C273 O276 1.238 . S
C273 O277 1.241 . S
C274 O267 1.247 . S
C274 O268 1.261 . S
C275 O270 1.259 . S
C275 O272 1.235 . S
O276 Co266 2.021 . S
O276 C273 1.238 . S
O277 Co271 2.052 . S
O277 C273 1.241 . S
O278 Co266 2.137 . S
O278 C269 1.247 . S
O279 Co266 2.244 . S
O279 C269 1.272 . S
O279 Co271 2.135 . S
Co280 O281 2.216 . S
Co280 O282 2.091 . S
Co280 O284 2.004 1_565 S
Co280 O290 2.021 . S
Co280 O292 2.137 1_565 S
Co280 O293 2.244 1_565 S
O281 Co280 2.216 . S
O281 C288 1.247 . S
O282 Co280 2.091 . S
O282 C288 1.261 . S
C283 O292 1.247 . S
C283 O293 1.272 . S
O284 Co280 2.004 1_545 S
O284 C289 1.259 . S
Co285 O286 2.061 . S
Co285 O291 2.052 . S
Co285 O293 2.135 . S
O286 Co285 2.061 . S
O286 C289 1.235 . S
C287 O290 1.238 . S
C287 O291 1.241 1_565 S
C288 O281 1.247 . S
C288 O282 1.261 . S
C289 O284 1.259 . S
C289 O286 1.235 . S
O290 Co280 2.021 . S
O290 C287 1.238 . S
O291 Co285 2.052 . S
O291 C287 1.241 1_545 S
O292 Co280 2.137 1_545 S
O292 C283 1.247 . S
O293 Co280 2.244 1_545 S
O293 C283 1.272 . S
O293 Co285 2.135 . S
Co294 O295 2.216 . S
Co294 O296 2.091 . S
Co294 O298 2.004 . S
Co294 O304 2.021 . S
Co294 O306 2.137 . S
Co294 O307 2.244 . S
O295 Co294 2.216 . S
O295 C302 1.247 . S
O296 Co294 2.091 . S
O296 C302 1.261 . S
C297 O306 1.247 . S
C297 O307 1.272 . S
O298 Co294 2.004 . S
O298 C303 1.259 . S
Co299 O300 2.061 . S
Co299 O305 2.052 . S
Co299 O307 2.135 . S
O300 Co299 2.061 . S
O300 C303 1.235 . S
C301 O304 1.238 . S
C301 O305 1.241 . S
C302 O295 1.247 . S
C302 O296 1.261 . S
C303 O298 1.259 . S
C303 O300 1.235 . S
O304 Co294 2.021 . S
O304 C301 1.238 . S
O305 Co299 2.052 . S
O305 C301 1.241 . S
O306 Co294 2.137 . S
O306 C297 1.247 . S
O307 Co294 2.244 . S
O307 C297 1.272 . S
O307 Co299 2.135 . S
Co308 O309 2.216 . S
Co308 O310 2.091 . S
Co308 O312 2.004 . S
Co308 O318 2.021 . S
Co308 O320 2.137 . S
Co308 O321 2.244 . S
O309 Co308 2.216 . S
O309 C316 1.247 . S
O310 Co308 2.091 . S
O310 C316 1.261 . S
C311 O320 1.247 . S
C311 O321 1.272 . S
O312 Co308 2.004 . S
O312 C317 1.259 . S
Co313 O314 2.061 . S
Co313 O319 2.052 . S
Co313 O321 2.135 . S
O314 Co313 2.061 . S
O314 C317 1.235 . S
C315 O318 1.238 . S
C315 O319 1.241 . S
C316 O309 1.247 . S
C316 O310 1.261 . S
C317 O312 1.259 . S
C317 O314 1.235 . S
O318 Co308 2.021 . S
O318 C315 1.238 . S
O319 Co313 2.052 . S
O319 C315 1.241 . S
O320 Co308 2.137 . S
O320 C311 1.247 . S
O321 Co308 2.244 . S
O321 C311 1.272 . S
O321 Co313 2.135 . S
Co322 O323 2.216 . S
Co322 O324 2.091 . S
Co322 O326 2.004 . S
Co322 O332 2.021 . S
Co322 O334 2.137 . S
Co322 O335 2.244 . S
O323 Co322 2.216 . S
O323 C330 1.247 . S
O324 Co322 2.091 . S
O324 C330 1.261 . S
C325 O334 1.247 . S
C325 O335 1.272 . S
O326 Co322 2.004 . S
O326 C331 1.259 . S
Co327 O328 2.061 . S
Co327 O333 2.052 . S
Co327 O335 2.135 . S
O328 Co327 2.061 . S
O328 C331 1.235 . S
C329 O332 1.238 . S
C329 O333 1.241 . S
C330 O323 1.247 . S
C330 O324 1.261 . S
C331 O326 1.259 . S
C331 O328 1.235 . S
O332 Co322 2.021 . S
O332 C329 1.238 . S
O333 Co327 2.052 . S
O333 C329 1.241 . S
O334 Co322 2.137 . S
O334 C325 1.247 . S
O335 Co322 2.244 . S
O335 C325 1.272 . S
O335 Co327 2.135 . S
Co336 O337 2.216 . S
Co336 O338 2.091 . S
Co336 O340 2.004 . S
Co336 O346 2.021 . S
Co336 O348 2.137 . S
Co336 O349 2.244 . S
O337 Co336 2.216 . S
O337 C344 1.247 . S
O338 Co336 2.091 . S
O338 C344 1.261 . S
C339 O348 1.247 . S
C339 O349 1.272 . S
O340 Co336 2.004 . S
O340 C345 1.259 . S
Co341 O342 2.061 . S
Co341 O347 2.052 . S
Co341 O349 2.135 . S
O342 Co341 2.061 . S
O342 C345 1.235 . S
C343 O346 1.238 . S
C343 O347 1.241 . S
C344 O337 1.247 . S
C344 O338 1.261 . S
C345 O340 1.259 . S
C345 O342 1.235 . S
O346 Co336 2.021 . S
O346 C343 1.238 . S
O347 Co341 2.052 . S
O347 C343 1.241 . S
O348 Co336 2.137 . S
O348 C339 1.247 . S
O349 Co336 2.244 . S
O349 C339 1.272 . S
O349 Co341 2.135 . S
Co350 O351 2.216 . S
Co350 O352 2.091 . S
Co350 O354 2.004 . S
Co350 O360 2.021 . S
Co350 O362 2.137 . S
Co350 O363 2.244 . S
O351 Co350 2.216 . S
O351 C358 1.247 . S
O352 Co350 2.091 . S
O352 C358 1.261 . S
C353 O362 1.247 . S
C353 O363 1.272 . S
O354 Co350 2.004 . S
O354 C359 1.259 . S
Co355 O356 2.061 . S
Co355 O361 2.052 . S
Co355 O363 2.135 . S
O356 Co355 2.061 . S
O356 C359 1.235 . S
C357 O360 1.238 . S
C357 O361 1.241 . S
C358 O351 1.247 . S
C358 O352 1.261 . S
C359 O354 1.259 . S
C359 O356 1.235 . S
O360 Co350 2.021 . S
O360 C357 1.238 . S
O361 Co355 2.052 . S
O361 C357 1.241 . S
O362 Co350 2.137 . S
O362 C353 1.247 . S
O363 Co350 2.244 . S
O363 C353 1.272 . S
O363 Co355 2.135 . S
Co364 O365 2.216 . S
Co364 O366 2.091 . S
Co364 O368 2.004 . S
Co364 O374 2.021 . S
Co364 O376 2.137 . S
Co364 O377 2.244 . S
O365 Co364 2.216 . S
O365 C372 1.247 . S
O366 Co364 2.091 . S
O366 C372 1.261 . S
C367 O376 1.247 . S
C367 O377 1.272 . S
O368 Co364 2.004 . S
O368 C373 1.259 . S
Co369 O370 2.061 . S
Co369 O375 2.052 . S
Co369 O377 2.135 . S
O370 Co369 2.061 . S
O370 C373 1.235 . S
C371 O374 1.238 . S
C371 O375 1.241 . S
C372 O365 1.247 . S
C372 O366 1.261 . S
C373 O368 1.259 . S
C373 O370 1.235 . S
O374 Co364 2.021 . S
O374 C371 1.238 . S
O375 Co369 2.052 . S
O375 C371 1.241 . S
O376 Co364 2.137 . S
O376 C367 1.247 . S
O377 Co364 2.244 . S
O377 C367 1.272 . S
O377 Co369 2.135 . S
Co378 O379 2.216 . S
Co378 O380 2.091 . S
Co378 O382 2.004 . S
Co378 O388 2.021 . S
Co378 O390 2.137 . S
Co378 O391 2.244 . S
O379 Co378 2.216 . S
O379 C386 1.247 . S
O380 Co378 2.091 . S
O380 C386 1.261 . S
C381 O390 1.247 . S
C381 O391 1.272 . S
O382 Co378 2.004 . S
O382 C387 1.259 . S
Co383 O384 2.061 . S
Co383 O389 2.052 . S
Co383 O391 2.135 . S
O384 Co383 2.061 . S
O384 C387 1.235 . S
C385 O388 1.238 . S
C385 O389 1.241 . S
C386 O379 1.247 . S
C386 O380 1.261 . S
C387 O382 1.259 . S
C387 O384 1.235 . S
O388 Co378 2.021 . S
O388 C385 1.238 . S
O389 Co383 2.052 . S
O389 C385 1.241 . S
O390 Co378 2.137 . S
O390 C381 1.247 . S
O391 Co378 2.244 . S
O391 C381 1.272 . S
O391 Co383 2.135 . S
Co392 O393 2.216 . S
Co392 O394 2.091 . S
Co392 O396 2.004 . S
Co392 O402 2.021 . S
Co392 O404 2.137 . S
Co392 O405 2.244 . S
O393 Co392 2.216 . S
O393 C400 1.247 . S
O394 Co392 2.091 . S
O394 C400 1.261 . S
C395 O404 1.247 . S
C395 O405 1.272 . S
O396 Co392 2.004 . S
O396 C401 1.259 . S
Co397 O398 2.061 . S
Co397 O403 2.052 . S
Co397 O405 2.135 . S
O398 Co397 2.061 . S
O398 C401 1.235 . S
C399 O402 1.238 . S
C399 O403 1.241 . S
C400 O393 1.247 . S
C400 O394 1.261 . S
C401 O396 1.259 . S
C401 O398 1.235 . S
O402 Co392 2.021 . S
O402 C399 1.238 . S
O403 Co397 2.052 . S
O403 C399 1.241 . S
O404 Co392 2.137 . S
O404 C395 1.247 . S
O405 Co392 2.244 . S
O405 C395 1.272 . S
O405 Co397 2.135 . S
Co406 O407 2.216 . S
Co406 O408 2.091 . S
Co406 O410 2.004 . S
Co406 O416 2.021 . S
Co406 O418 2.137 . S
Co406 O419 2.244 . S
O407 Co406 2.216 . S
O407 C414 1.247 . S
O408 Co406 2.091 . S
O408 C414 1.261 . S
C409 O418 1.247 . S
C409 O419 1.272 . S
O410 Co406 2.004 . S
O410 C415 1.259 . S
Co411 O412 2.061 . S
Co411 O417 2.052 . S
Co411 O419 2.135 . S
O412 Co411 2.061 . S
O412 C415 1.235 . S
C413 O416 1.238 . S
C413 O417 1.241 . S
C414 O407 1.247 . S
C414 O408 1.261 . S
C415 O410 1.259 . S
C415 O412 1.235 . S
O416 Co406 2.021 . S
O416 C413 1.238 . S
O417 Co411 2.052 . S
O417 C413 1.241 . S
O418 Co406 2.137 . S
O418 C409 1.247 . S
O419 Co406 2.244 . S
O419 C409 1.272 . S
O419 Co411 2.135 . S
Co420 O421 2.216 . S
Co420 O422 2.091 . S
Co420 O424 2.004 . S
Co420 O430 2.021 . S
Co420 O432 2.137 . S
Co420 O433 2.244 . S
O421 Co420 2.216 . S
O421 C428 1.247 . S
O422 Co420 2.091 . S
O422 C428 1.261 . S
C423 O432 1.247 . S
C423 O433 1.272 . S
O424 Co420 2.004 . S
O424 C429 1.259 . S
Co425 O426 2.061 . S
Co425 O431 2.052 . S
Co425 O433 2.135 . S
O426 Co425 2.061 . S
O426 C429 1.235 . S
C427 O430 1.238 . S
C427 O431 1.241 . S
C428 O421 1.247 . S
C428 O422 1.261 . S
C429 O424 1.259 . S
C429 O426 1.235 . S
O430 Co420 2.021 . S
O430 C427 1.238 . S
O431 Co425 2.052 . S
O431 C427 1.241 . S
O432 Co420 2.137 . S
O432 C423 1.247 . S
O433 Co420 2.244 . S
O433 C423 1.272 . S
O433 Co425 2.135 . S
Co434 O435 2.216 . S
Co434 O436 2.091 . S
Co434 O438 2.004 . S
Co434 O444 2.021 . S
Co434 O446 2.137 . S
Co434 O447 2.244 . S
O435 Co434 2.216 . S
O435 C442 1.247 . S
O436 Co434 2.091 . S
O436 C442 1.261 . S
C437 O446 1.247 . S
C437 O447 1.272 . S
O438 Co434 2.004 . S
O438 C443 1.259 . S
Co439 O440 2.061 . S
Co439 O445 2.052 . S
Co439 O447 2.135 . S
O440 Co439 2.061 . S
O440 C443 1.235 . S
C441 O444 1.238 . S
C441 O445 1.241 . S
C442 O435 1.247 . S
C442 O436 1.261 . S
C443 O438 1.259 . S
C443 O440 1.235 . S
O444 Co434 2.021 . S
O444 C441 1.238 . S
O445 Co439 2.052 . S
O445 C441 1.241 . S
O446 Co434 2.137 . S
O446 C437 1.247 . S
O447 Co434 2.244 . S
O447 C437 1.272 . S
O447 Co439 2.135 . S
Co448 O449 2.216 . S
Co448 O450 2.091 . S
Co448 O452 2.004 . S
Co448 O458 2.021 . S
Co448 O460 2.137 . S
Co448 O461 2.244 . S
O449 Co448 2.216 . S
O449 C456 1.247 . S
O450 Co448 2.091 . S
O450 C456 1.261 . S
C451 O460 1.247 . S
C451 O461 1.272 . S
O452 Co448 2.004 . S
O452 C457 1.259 . S
Co453 O454 2.061 . S
Co453 O459 2.052 . S
Co453 O461 2.135 . S
O454 Co453 2.061 . S
O454 C457 1.235 . S
C455 O458 1.238 . S
C455 O459 1.241 . S
C456 O449 1.247 . S
C456 O450 1.261 . S
C457 O452 1.259 . S
C457 O454 1.235 . S
O458 Co448 2.021 . S
O458 C455 1.238 . S
O459 Co453 2.052 . S
O459 C455 1.241 . S
O460 Co448 2.137 . S
O460 C451 1.247 . S
O461 Co448 2.244 . S
O461 C451 1.272 . S
O461 Co453 2.135 . S
Co462 O463 2.216 . S
Co462 O464 2.091 . S
Co462 O466 2.004 . S
Co462 O472 2.021 . S
Co462 O474 2.137 . S
Co462 O475 2.244 . S
O463 Co462 2.216 . S
O463 C470 1.247 . S
O464 Co462 2.091 . S
O464 C470 1.261 . S
C465 O474 1.247 . S
C465 O475 1.272 . S
O466 Co462 2.004 . S
O466 C471 1.259 . S
Co467 O468 2.061 . S
Co467 O473 2.052 . S
Co467 O475 2.135 . S
O468 Co467 2.061 . S
O468 C471 1.235 . S
C469 O472 1.238 . S
C469 O473 1.241 . S
C470 O463 1.247 . S
C470 O464 1.261 . S
C471 O466 1.259 . S
C471 O468 1.235 . S
O472 Co462 2.021 . S
O472 C469 1.238 . S
O473 Co467 2.052 . S
O473 C469 1.241 . S
O474 Co462 2.137 . S
O474 C465 1.247 . S
O475 Co462 2.244 . S
O475 C465 1.272 . S
O475 Co467 2.135 . S
Co476 O477 2.216 . S
Co476 O478 2.091 . S
Co476 O480 2.004 . S
Co476 O486 2.021 . S
Co476 O488 2.137 . S
Co476 O489 2.244 . S
O477 Co476 2.216 . S
O477 C484 1.247 . S
O478 Co476 2.091 . S
O478 C484 1.261 . S
C479 O488 1.247 . S
C479 O489 1.272 . S
O480 Co476 2.004 . S
O480 C485 1.259 . S
Co481 O482 2.061 . S
Co481 O487 2.052 . S
Co481 O489 2.135 . S
O482 Co481 2.061 . S
O482 C485 1.235 . S
C483 O486 1.238 . S
C483 O487 1.241 . S
C484 O477 1.247 . S
C484 O478 1.261 . S
C485 O480 1.259 . S
C485 O482 1.235 . S
O486 Co476 2.021 . S
O486 C483 1.238 . S
O487 Co481 2.052 . S
O487 C483 1.241 . S
O488 Co476 2.137 . S
O488 C479 1.247 . S
O489 Co476 2.244 . S
O489 C479 1.272 . S
O489 Co481 2.135 . S
Co490 O491 2.216 . S
Co490 O492 2.091 . S
Co490 O494 2.004 . S
Co490 O500 2.021 . S
Co490 O502 2.137 . S
Co490 O503 2.244 . S
O491 Co490 2.216 . S
O491 C498 1.247 . S
O492 Co490 2.091 . S
O492 C498 1.261 . S
C493 O502 1.247 . S
C493 O503 1.272 . S
O494 Co490 2.004 . S
O494 C499 1.259 . S
Co495 O496 2.061 . S
Co495 O501 2.052 . S
Co495 O503 2.135 . S
O496 Co495 2.061 . S
O496 C499 1.235 . S
C497 O500 1.238 . S
C497 O501 1.241 . S
C498 O491 1.247 . S
C498 O492 1.261 . S
C499 O494 1.259 . S
C499 O496 1.235 . S
O500 Co490 2.021 . S
O500 C497 1.238 . S
O501 Co495 2.052 . S
O501 C497 1.241 . S
O502 Co490 2.137 . S
O502 C493 1.247 . S
O503 Co490 2.244 . S
O503 C493 1.272 . S
O503 Co495 2.135 . S
Co504 O505 2.216 . S
Co504 O506 2.091 . S
Co504 O508 2.004 . S
Co504 O514 2.021 . S
Co504 O516 2.137 . S
Co504 O517 2.244 . S
O505 Co504 2.216 . S
O505 C512 1.247 . S
O506 Co504 2.091 . S
O506 C512 1.261 . S
C507 O516 1.247 . S
C507 O517 1.272 . S
O508 Co504 2.004 . S
O508 C513 1.259 . S
Co509 O510 2.061 . S
Co509 O515 2.052 . S
Co509 O517 2.135 . S
O510 Co509 2.061 . S
O510 C513 1.235 . S
C511 O514 1.238 . S
C511 O515 1.241 . S
C512 O505 1.247 . S
C512 O506 1.261 . S
C513 O508 1.259 . S
C513 O510 1.235 . S
O514 Co504 2.021 . S
O514 C511 1.238 . S
O515 Co509 2.052 . S
O515 C511 1.241 . S
O516 Co504 2.137 . S
O516 C507 1.247 . S
O517 Co504 2.244 . S
O517 C507 1.272 . S
O517 Co509 2.135 . S
Co518 O519 2.216 . S
Co518 O520 2.091 . S
Co518 O522 2.004 . S
Co518 O528 2.021 . S
Co518 O530 2.137 . S
Co518 O531 2.220 1_556 S
O519 Co518 2.216 . S
O519 C526 1.247 . S
O520 Co518 2.091 . S
O520 C526 1.261 . S
C521 O530 1.267 . S
C521 O531 1.270 1_556 S
O522 Co518 2.004 . S
O522 C527 1.263 1_556 S
Co523 O524 2.061 . S
Co523 O529 2.052 1_554 S
Co523 O531 2.150 . S
O524 Co523 2.061 . S
O524 C527 1.232 . S
C525 O528 1.238 . S
C525 O529 1.241 . S
C526 O519 1.247 . S
C526 O520 1.261 . S
C527 O522 1.263 1_554 S
C527 O524 1.232 . S
O528 Co518 2.021 . S
O528 C525 1.238 . S
O529 Co523 2.052 1_556 S
O529 C525 1.241 . S
O530 Co518 2.137 . S
O530 C521 1.267 . S
O531 Co518 2.220 1_554 S
O531 C521 1.270 1_554 S
O531 Co523 2.150 . S
Co532 O533 2.216 . S
Co532 O534 2.091 . S
Co532 O536 2.004 . S
Co532 O542 2.021 . S
Co532 O544 2.137 . S
Co532 O545 2.244 . S
O533 Co532 2.216 . S
O533 C540 1.247 . S
O534 Co532 2.091 . S
O534 C540 1.261 . S
C535 O544 1.247 . S
C535 O545 1.272 . S
O536 Co532 2.004 . S
O536 C541 1.259 . S
Co537 O538 2.061 . S
Co537 O543 2.052 . S
Co537 O545 2.135 . S
O538 Co537 2.061 . S
O538 C541 1.235 . S
C539 O542 1.238 . S
C539 O543 1.241 . S
C540 O533 1.247 . S
C540 O534 1.261 . S
C541 O536 1.259 . S
C541 O538 1.235 . S
O542 Co532 2.021 . S
O542 C539 1.238 . S
O543 Co537 2.052 . S
O543 C539 1.241 . S
O544 Co532 2.137 . S
O544 C535 1.247 . S
O545 Co532 2.244 . S
O545 C535 1.272 . S
O545 Co537 2.135 . S
Co546 O547 2.216 . S
Co546 O548 2.091 . S
Co546 O550 2.004 . S
Co546 O556 2.021 . S
Co546 O558 2.137 . S
Co546 O559 2.244 . S
O547 Co546 2.216 . S
O547 C554 1.247 . S
O548 Co546 2.091 . S
O548 C554 1.261 . S
C549 O558 1.247 . S
C549 O559 1.272 . S
O550 Co546 2.004 . S
O550 C555 1.259 . S
Co551 O552 2.061 . S
Co551 O557 2.052 . S
Co551 O559 2.135 . S
O552 Co551 2.061 . S
O552 C555 1.235 . S
C553 O556 1.238 . S
C553 O557 1.241 . S
C554 O547 1.247 . S
C554 O548 1.261 . S
C555 O550 1.259 . S
C555 O552 1.235 . S
O556 Co546 2.021 . S
O556 C553 1.238 . S
O557 Co551 2.052 . S
O557 C553 1.241 . S
O558 Co546 2.137 . S
O558 C549 1.247 . S
O559 Co546 2.244 . S
O559 C549 1.272 . S
O559 Co551 2.135 . S
Co560 O561 2.216 . S
Co560 O562 2.091 . S
Co560 O564 2.004 . S
Co560 O570 2.021 . S
Co560 O572 2.137 . S
Co560 O573 2.244 . S
O561 Co560 2.216 . S
O561 C568 1.247 . S
O562 Co560 2.091 . S
O562 C568 1.261 . S
C563 O572 1.247 . S
C563 O573 1.272 . S
O564 Co560 2.004 . S
O564 C569 1.259 . S
Co565 O566 2.061 . S
Co565 O571 2.052 . S
Co565 O573 2.135 . S
O566 Co565 2.061 . S
O566 C569 1.235 . S
C567 O570 1.238 . S
C567 O571 1.241 . S
C568 O561 1.247 . S
C568 O562 1.261 . S
C569 O564 1.259 . S
C569 O566 1.235 . S
O570 Co560 2.021 . S
O570 C567 1.238 . S
O571 Co565 2.052 . S
O571 C567 1.241 . S
O572 Co560 2.137 . S
O572 C563 1.247 . S
O573 Co560 2.244 . S
O573 C563 1.272 . S
O573 Co565 2.135 . S
Co574 O575 2.216 . S
Co574 O576 2.091 . S
Co574 O578 2.004 . S
Co574 O584 2.021 . S
Co574 O586 2.137 . S
Co574 O587 2.244 . S
O575 Co574 2.216 . S
O575 C582 1.247 . S
O576 Co574 2.091 . S
O576 C582 1.261 . S
C577 O586 1.247 . S
C577 O587 1.272 . S
O578 Co574 2.004 . S
O578 C583 1.259 . S
Co579 O580 2.061 . S
Co579 O585 2.052 . S
Co579 O587 2.135 . S
O580 Co579 2.061 . S
O580 C583 1.235 . S
C581 O584 1.238 . S
C581 O585 1.241 . S
C582 O575 1.247 . S
C582 O576 1.261 . S
C583 O578 1.259 . S
C583 O580 1.235 . S
O584 Co574 2.021 . S
O584 C581 1.238 . S
O585 Co579 2.052 . S
O585 C581 1.241 . S
O586 Co574 2.137 . S
O586 C577 1.247 . S
O587 Co574 2.244 . S
O587 C577 1.272 . S
O587 Co579 2.135 . S
Co588 O589 2.216 . S
Co588 O590 2.091 . S
Co588 O592 2.004 . S
Co588 O598 2.021 . S
Co588 O600 2.137 . S
Co588 O601 2.244 . S
O589 Co588 2.216 . S
O589 C596 1.247 . S
O590 Co588 2.091 . S
O590 C596 1.261 . S
C591 O600 1.247 . S
C591 O601 1.272 . S
O592 Co588 2.004 . S
O592 C597 1.259 . S
Co593 O594 2.061 . S
Co593 O599 2.052 . S
Co593 O601 2.135 . S
O594 Co593 2.061 . S
O594 C597 1.235 . S
C595 O598 1.238 . S
C595 O599 1.241 . S
C596 O589 1.247 . S
C596 O590 1.261 . S
C597 O592 1.259 . S
C597 O594 1.235 . S
O598 Co588 2.021 . S
O598 C595 1.238 . S
O599 Co593 2.052 . S
O599 C595 1.241 . S
O600 Co588 2.137 . S
O600 C591 1.247 . S
O601 Co588 2.244 . S
O601 C591 1.272 . S
O601 Co593 2.135 . S
Co602 O603 2.216 . S
Co602 O604 2.091 . S
Co602 O606 2.004 . S
Co602 O612 2.021 . S
Co602 O614 2.137 . S
Co602 O615 2.244 . S
O603 Co602 2.216 . S
O603 C610 1.247 . S
O604 Co602 2.091 . S
O604 C610 1.261 . S
C605 O614 1.247 . S
C605 O615 1.272 . S
O606 Co602 2.004 . S
O606 C611 1.259 . S
Co607 O608 2.061 . S
Co607 O613 2.052 . S
Co607 O615 2.135 . S
O608 Co607 2.061 . S
O608 C611 1.235 . S
C609 O612 1.238 . S
C609 O613 1.241 . S
C610 O603 1.247 . S
C610 O604 1.261 . S
C611 O606 1.259 . S
C611 O608 1.235 . S
O612 Co602 2.021 . S
O612 C609 1.238 . S
O613 Co607 2.052 . S
O613 C609 1.241 . S
O614 Co602 2.137 . S
O614 C605 1.247 . S
O615 Co602 2.244 . S
O615 C605 1.272 . S
O615 Co607 2.135 . S
Co616 O617 2.216 . S
Co616 O618 2.091 . S
Co616 O620 2.004 . S
Co616 O626 2.021 . S
Co616 O628 2.137 . S
Co616 O629 2.244 . S
O617 Co616 2.216 . S
O617 C624 1.247 . S
O618 Co616 2.091 . S
O618 C624 1.261 . S
C619 O628 1.247 . S
C619 O629 1.272 . S
O620 Co616 2.004 . S
O620 C625 1.259 . S
Co621 O622 2.061 . S
Co621 O627 2.052 . S
Co621 O629 2.135 . S
O622 Co621 2.061 . S
O622 C625 1.235 . S
C623 O626 1.238 . S
C623 O627 1.241 . S
C624 O617 1.247 . S
C624 O618 1.261 . S
C625 O620 1.259 . S
C625 O622 1.235 . S
O626 Co616 2.021 . S
O626 C623 1.238 . S
O627 Co621 2.052 . S
O627 C623 1.241 . S
O628 Co616 2.137 . S
O628 C619 1.247 . S
O629 Co616 2.244 . S
O629 C619 1.272 . S
O629 Co621 2.135 . S
Co630 O631 2.216 1_554 S
Co630 O632 2.091 1_554 S
Co630 O634 2.004 . S
Co630 O640 2.021 1_554 S
Co630 O642 2.137 . S
Co630 O643 2.244 . S
O631 Co630 2.216 1_556 S
O631 C638 1.247 . S
O632 Co630 2.091 1_556 S
O632 C638 1.261 . S
C633 O642 1.247 . S
C633 O643 1.272 . S
O634 Co630 2.004 . S
O634 C639 1.259 . S
Co635 O636 2.061 . S
Co635 O641 2.052 1_554 S
Co635 O643 2.135 . S
O636 Co635 2.061 . S
O636 C639 1.235 . S
C637 O640 1.238 . S
C637 O641 1.241 . S
C638 O631 1.247 . S
C638 O632 1.261 . S
C639 O634 1.259 . S
C639 O636 1.235 . S
O640 Co630 2.021 1_556 S
O640 C637 1.238 . S
O641 Co635 2.052 1_556 S
O641 C637 1.241 . S
O642 Co630 2.137 . S
O642 C633 1.247 . S
O643 Co630 2.244 . S
O643 C633 1.272 . S
O643 Co635 2.135 . S
Co644 O645 2.216 . S
Co644 O646 2.091 . S
Co644 O648 2.004 . S
Co644 O654 2.021 . S
Co644 O656 2.137 . S
Co644 O657 2.220 1_565 S
O645 Co644 2.216 . S
O645 C652 1.247 . S
O646 Co644 2.091 . S
O646 C652 1.261 . S
C647 O656 1.267 . S
C647 O657 1.270 1_565 S
O648 Co644 2.004 . S
O648 C653 1.263 1_565 S
Co649 O650 2.061 . S
Co649 O655 2.052 1_545 S
Co649 O657 2.150 . S
O650 Co649 2.061 . S
O650 C653 1.232 . S
C651 O654 1.238 . S
C651 O655 1.241 . S
C652 O645 1.247 . S
C652 O646 1.261 . S
C653 O648 1.263 1_545 S
C653 O650 1.232 . S
O654 Co644 2.021 . S
O654 C651 1.238 . S
O655 Co649 2.052 1_565 S
O655 C651 1.241 . S
O656 Co644 2.137 . S
O656 C647 1.267 . S
O657 Co644 2.220 1_545 S
O657 C647 1.270 1_545 S
O657 Co649 2.150 . S
Co658 O659 2.216 . S
Co658 O660 2.091 . S
Co658 O662 2.004 . S
Co658 O668 2.021 . S
Co658 O670 2.137 . S
Co658 O671 2.244 . S
O659 Co658 2.216 . S
O659 C666 1.247 . S
O660 Co658 2.091 . S
O660 C666 1.261 . S
C661 O670 1.247 . S
C661 O671 1.272 . S
O662 Co658 2.004 . S
O662 C667 1.259 . S
Co663 O664 2.061 . S
Co663 O669 2.052 . S
Co663 O671 2.135 . S
O664 Co663 2.061 . S
O664 C667 1.235 . S
C665 O668 1.238 . S
C665 O669 1.241 . S
C666 O659 1.247 . S
C666 O660 1.261 . S
C667 O662 1.259 . S
C667 O664 1.235 . S
O668 Co658 2.021 . S
O668 C665 1.238 . S
O669 Co663 2.052 . S
O669 C665 1.241 . S
O670 Co658 2.137 . S
O670 C661 1.247 . S
O671 Co658 2.244 . S
O671 C661 1.272 . S
O671 Co663 2.135 . S
C672 C673 1.363 . S
C672 C678 1.379 . S
C672 N680 1.356 . S
C673 C672 1.363 . S
C673 C679 1.363 . S
C674 C675 1.363 . S
C674 C679 1.379 . S
C674 N681 1.356 . S
C675 C674 1.363 . S
C675 C678 1.363 . S
N676 C678 1.356 . S
N676 H688 0.984 . S
N676 H689 0.985 . S
N677 C679 1.356 . S
N677 H682 0.984 . S
N677 H683 0.985 . S
C678 C672 1.379 . S
C678 C675 1.363 . S
C678 N676 1.356 . S
C679 C673 1.363 . S
C679 C674 1.379 . S
C679 N677 1.356 . S
N680 C672 1.356 . S
N680 H686 0.984 . S
N680 H687 0.984 . S
N681 C674 1.356 . S
N681 H684 0.984 . S
N681 H685 0.985 . S
H682 N677 0.984 . S
H683 N677 0.985 . S
H684 N681 0.984 . S
H685 N681 0.985 . S
H686 N680 0.984 . S
H687 N680 0.984 . S
H688 N676 0.984 . S
H689 N676 0.985 . S
C690 C691 1.363 . S
C690 C696 1.379 . S
C690 N698 1.356 . S
C691 C690 1.363 . S
C691 C697 1.363 . S
C692 C693 1.363 . S
C692 C697 1.379 . S
C692 N699 1.356 . S
C693 C692 1.363 . S
C693 C696 1.363 . S
N694 C696 1.356 . S
N694 H706 0.984 . S
N694 H707 0.985 1_455 S
N695 C697 1.356 . S
N695 H700 0.984 . S
N695 H701 0.985 . S
C696 C690 1.379 . S
C696 C693 1.363 . S
C696 N694 1.356 . S
C697 C691 1.363 . S
C697 C692 1.379 . S
C697 N695 1.356 . S
N698 C690 1.356 . S
N698 H704 0.984 . S
N698 H705 0.984 . S
N699 C692 1.356 . S
N699 H702 0.984 1_455 S
N699 H703 0.985 . S
H700 N695 0.984 . S
H701 N695 0.985 . S
H702 N699 0.984 1_655 S
H703 N699 0.985 . S
H704 N698 0.984 . S
H705 N698 0.984 . S
H706 N694 0.984 . S
H707 N694 0.985 1_655 S
C708 C709 1.363 . S
C708 C714 1.379 . S
C708 N716 1.356 . S
C709 C708 1.363 . S
C709 C715 1.363 . S
C710 C711 1.363 . S
C710 C715 1.379 . S
C710 N717 1.356 . S
C711 C710 1.363 . S
C711 C714 1.363 . S
N712 C714 1.356 . S
N712 H724 0.984 . S
N712 H725 0.985 . S
N713 C715 1.356 . S
N713 H718 0.984 . S
N713 H719 0.985 . S
C714 C708 1.379 . S
C714 C711 1.363 . S
C714 N712 1.356 . S
C715 C709 1.363 . S
C715 C710 1.379 . S
C715 N713 1.356 . S
N716 C708 1.356 . S
N716 H722 0.984 . S
N716 H723 0.984 . S
N717 C710 1.356 . S
N717 H720 0.984 . S
N717 H721 0.985 . S
H718 N713 0.984 . S
H719 N713 0.985 . S
H720 N717 0.984 . S
H721 N717 0.985 . S
H722 N716 0.984 . S
H723 N716 0.984 . S
H724 N712 0.984 . S
H725 N712 0.985 . S
C726 C727 1.379 . S
C726 C732 1.379 . S
C726 N734 1.356 . S
C727 C726 1.379 . S
C727 C733 1.349 1_554 S
C728 C729 1.363 1_556 S
C728 C733 1.379 . S
C728 N735 1.356 . S
C729 C728 1.363 1_554 S
C729 C732 1.363 . S
N730 C732 1.356 . S
N730 H742 0.984 . S
N730 H743 0.985 . S
N731 C733 1.356 . S
N731 H736 0.984 . S
N731 H737 0.985 . S
C732 C726 1.379 . S
C732 C729 1.363 . S
C732 N730 1.356 . S
C733 C727 1.349 1_556 S
C733 C728 1.379 . S
C733 N731 1.356 . S
N734 C726 1.356 . S
N734 H740 0.984 . S
N734 H741 0.984 . S
N735 C728 1.356 . S
N735 H738 0.984 . S
N735 H739 0.985 . S
H736 N731 0.984 . S
H737 N731 0.985 . S
H738 N735 0.984 . S
H739 N735 0.985 . S
H740 N734 0.984 . S
H741 N734 0.984 . S
H742 N730 0.984 . S
H743 N730 0.985 . S
C744 C745 1.363 . S
C744 C750 1.379 . S
C744 N752 1.356 . S
C745 C744 1.363 . S
C745 C751 1.363 . S
C746 C747 1.363 . S
C746 C751 1.379 . S
C746 N753 1.356 . S
C747 C746 1.363 . S
C747 C750 1.363 . S
N748 C750 1.356 . S
N748 H760 0.984 . S
N748 H761 0.985 . S
N749 C751 1.356 . S
N749 H754 0.984 . S
N749 H755 0.985 . S
C750 C744 1.379 . S
C750 C747 1.363 . S
C750 N748 1.356 . S
C751 C745 1.363 . S
C751 C746 1.379 . S
C751 N749 1.356 . S
N752 C744 1.356 . S
N752 H758 0.984 . S
N752 H759 0.984 . S
N753 C746 1.356 . S
N753 H756 0.984 . S
N753 H757 0.985 . S
H754 N749 0.984 . S
H755 N749 0.985 . S
H756 N753 0.984 . S
H757 N753 0.985 . S
H758 N752 0.984 . S
H759 N752 0.984 . S
H760 N748 0.984 . S
H761 N748 0.985 . S
C762 C763 1.363 . S
C762 C768 1.379 . S
C762 N770 1.356 . S
C763 C762 1.363 . S
C763 C769 1.363 . S
C764 C765 1.363 . S
C764 C769 1.379 . S
C764 N771 1.356 . S
C765 C764 1.363 . S
C765 C768 1.363 . S
N766 C768 1.356 . S
N766 H778 0.984 . S
N766 H779 0.985 . S
N767 C769 1.356 . S
N767 H772 0.984 . S
N767 H773 0.985 . S
C768 C762 1.379 . S
C768 C765 1.363 . S
C768 N766 1.356 . S
C769 C763 1.363 . S
C769 C764 1.379 . S
C769 N767 1.356 . S
N770 C762 1.356 . S
N770 H776 0.984 . S
N770 H777 0.984 . S
N771 C764 1.356 . S
N771 H774 0.984 . S
N771 H775 0.985 . S
H772 N767 0.984 . S
H773 N767 0.985 . S
H774 N771 0.984 . S
H775 N771 0.985 . S
H776 N770 0.984 . S
H777 N770 0.984 . S
H778 N766 0.984 . S
H779 N766 0.985 . S
C780 C781 1.363 . S
C780 C786 1.379 . S
C780 N788 1.356 . S
C781 C780 1.363 . S
C781 C787 1.363 . S
C782 C783 1.363 . S
C782 C787 1.379 . S
C782 N789 1.356 . S
C783 C782 1.363 . S
C783 C786 1.363 . S
N784 C786 1.356 . S
N784 H796 0.984 . S
N784 H797 0.985 . S
N785 C787 1.356 . S
N785 H790 0.984 . S
N785 H791 0.985 . S
C786 C780 1.379 . S
C786 C783 1.363 . S
C786 N784 1.356 . S
C787 C781 1.363 . S
C787 C782 1.379 . S
C787 N785 1.356 . S
N788 C780 1.356 . S
N788 H794 0.984 . S
N788 H795 0.984 . S
N789 C782 1.356 . S
N789 H792 0.984 . S
N789 H793 0.985 . S
H790 N785 0.984 . S
H791 N785 0.985 . S
H792 N789 0.984 . S
H793 N789 0.985 . S
H794 N788 0.984 . S
H795 N788 0.984 . S
H796 N784 0.984 . S
H797 N784 0.985 . S
C798 C799 1.363 . S
C798 C804 1.379 . S
C798 N806 1.356 . S
C799 C798 1.363 . S
C799 C805 1.363 . S
C800 C801 1.363 . S
C800 C805 1.379 . S
C800 N807 1.356 . S
C801 C800 1.363 . S
C801 C804 1.363 . S
N802 C804 1.356 . S
N802 H814 0.984 . S
N802 H815 0.985 . S
N803 C805 1.356 . S
N803 H808 0.984 . S
N803 H809 0.985 . S
C804 C798 1.379 . S
C804 C801 1.363 . S
C804 N802 1.356 . S
C805 C799 1.363 . S
C805 C800 1.379 . S
C805 N803 1.356 . S
N806 C798 1.356 . S
N806 H812 0.984 . S
N806 H813 0.984 . S
N807 C800 1.356 . S
N807 H810 0.984 . S
N807 H811 0.985 . S
H808 N803 0.984 . S
H809 N803 0.985 . S
H810 N807 0.984 . S
H811 N807 0.985 . S
H812 N806 0.984 . S
H813 N806 0.984 . S
H814 N802 0.984 . S
H815 N802 0.985 . S
C816 C817 1.363 . S
C816 C822 1.379 . S
C816 N824 1.356 . S
C817 C816 1.363 . S
C817 C823 1.363 . S
C818 C819 1.363 . S
C818 C823 1.379 . S
C818 N825 1.356 . S
C819 C818 1.363 . S
C819 C822 1.363 . S
N820 C822 1.356 . S
N820 H832 0.984 . S
N820 H833 0.985 . S
N821 C823 1.356 . S
N821 H826 0.984 . S
N821 H827 0.985 . S
C822 C816 1.379 . S
C822 C819 1.363 . S
C822 N820 1.356 . S
C823 C817 1.363 . S
C823 C818 1.379 . S
C823 N821 1.356 . S
N824 C816 1.356 . S
N824 H830 0.984 . S
N824 H831 0.984 . S
N825 C818 1.356 . S
N825 H828 0.984 . S
N825 H829 0.985 . S
H826 N821 0.984 . S
H827 N821 0.985 . S
H828 N825 0.984 . S
H829 N825 0.985 . S
H830 N824 0.984 . S
H831 N824 0.984 . S
H832 N820 0.984 . S
H833 N820 0.985 . S
C834 C835 1.363 1_565 S
C834 C840 1.379 . S
C834 N842 1.356 . S
C835 C834 1.363 1_545 S
C835 C841 1.363 . S
C836 C837 1.380 . S
C836 C841 1.379 . S
C836 N843 1.356 . S
C837 C836 1.380 . S
C837 C840 1.348 1_545 S
N838 C840 1.356 . S
N838 H850 0.984 . S
N838 H851 0.985 . S
N839 C841 1.356 . S
N839 H844 0.984 . S
N839 H845 0.985 . S
C840 C834 1.379 . S
C840 C837 1.348 1_565 S
C840 N838 1.356 . S
C841 C835 1.363 . S
C841 C836 1.379 . S
C841 N839 1.356 . S
N842 C834 1.356 . S
N842 H848 0.984 . S
N842 H849 0.984 . S
N843 C836 1.356 . S
N843 H846 0.984 . S
N843 H847 0.985 . S
H844 N839 0.984 . S
H845 N839 0.985 . S
H846 N843 0.984 . S
H847 N843 0.985 . S
H848 N842 0.984 . S
H849 N842 0.984 . S
H850 N838 0.984 . S
H851 N838 0.985 . S
C852 C853 1.363 . S
C852 C858 1.379 . S
C852 N860 1.356 . S
C853 C852 1.363 . S
C853 C859 1.363 . S
C854 C855 1.363 . S
C854 C859 1.379 . S
C854 N861 1.356 . S
C855 C854 1.363 . S
C855 C858 1.363 . S
N856 C858 1.356 . S
N856 H868 0.984 . S
N856 H869 0.985 . S
N857 C859 1.356 . S
N857 H862 0.984 . S
N857 H863 0.985 . S
C858 C852 1.379 . S
C858 C855 1.363 . S
C858 N856 1.356 . S
C859 C853 1.363 . S
C859 C854 1.379 . S
C859 N857 1.356 . S
N860 C852 1.356 . S
N860 H866 0.984 . S
N860 H867 0.984 . S
N861 C854 1.356 . S
N861 H864 0.984 . S
N861 H865 0.985 . S
H862 N857 0.984 . S
H863 N857 0.985 . S
H864 N861 0.984 . S
H865 N861 0.985 . S
H866 N860 0.984 . S
H867 N860 0.984 . S
H868 N856 0.984 . S
H869 N856 0.985 . S
C870 C871 1.363 . S
C870 C876 1.379 . S
C870 N878 1.356 . S
C871 C870 1.363 . S
C871 C877 1.363 . S
C872 C873 1.363 . S
C872 C877 1.379 . S
C872 N879 1.356 . S
C873 C872 1.363 . S
C873 C876 1.363 . S
N874 C876 1.356 . S
N874 H886 0.984 . S
N874 H887 0.985 . S
N875 C877 1.356 . S
N875 H880 0.984 . S
N875 H881 0.985 . S
C876 C870 1.379 . S
C876 C873 1.363 . S
C876 N874 1.356 . S
C877 C871 1.363 . S
C877 C872 1.379 . S
C877 N875 1.356 . S
N878 C870 1.356 . S
N878 H884 0.984 . S
N878 H885 0.984 . S
N879 C872 1.356 . S
N879 H882 0.984 . S
N879 H883 0.985 . S
H880 N875 0.984 . S
H881 N875 0.985 . S
H882 N879 0.984 . S
H883 N879 0.985 . S
H884 N878 0.984 . S
H885 N878 0.984 . S
H886 N874 0.984 . S
H887 N874 0.985 . S
C888 C889 1.363 . S
C888 C894 1.379 . S
C888 N896 1.356 . S
C889 C888 1.363 . S
C889 C895 1.363 . S
C890 C891 1.363 . S
C890 C895 1.379 . S
C890 N897 1.356 . S
C891 C890 1.363 . S
C891 C894 1.363 . S
N892 C894 1.356 . S
N892 H904 0.984 . S
N892 H905 0.985 . S
N893 C895 1.356 . S
N893 H898 0.984 . S
N893 H899 0.985 . S
C894 C888 1.379 . S
C894 C891 1.363 . S
C894 N892 1.356 . S
C895 C889 1.363 . S
C895 C890 1.379 . S
C895 N893 1.356 . S
N896 C888 1.356 . S
N896 H902 0.984 . S
N896 H903 0.984 . S
N897 C890 1.356 . S
N897 H900 0.984 . S
N897 H901 0.985 . S
H898 N893 0.984 . S
H899 N893 0.985 . S
H900 N897 0.984 . S
H901 N897 0.985 . S
H902 N896 0.984 . S
H903 N896 0.984 . S
H904 N892 0.984 . S
H905 N892 0.985 . S
C906 C907 1.363 . S
C906 C912 1.379 . S
C906 N914 1.356 . S
C907 C906 1.363 . S
C907 C913 1.363 . S
C908 C909 1.363 . S
C908 C913 1.379 . S
C908 N915 1.356 . S
C909 C908 1.363 . S
C909 C912 1.363 . S
N910 C912 1.356 . S
N910 H922 0.984 . S
N910 H923 0.985 . S
N911 C913 1.356 . S
N911 H916 0.984 . S
N911 H917 0.985 . S
C912 C906 1.379 . S
C912 C909 1.363 . S
C912 N910 1.356 . S
C913 C907 1.363 . S
C913 C908 1.379 . S
C913 N911 1.356 . S
N914 C906 1.356 . S
N914 H920 0.984 . S
N914 H921 0.984 . S
N915 C908 1.356 . S
N915 H918 0.984 . S
N915 H919 0.985 . S
H916 N911 0.984 . S
H917 N911 0.985 . S
H918 N915 0.984 . S
H919 N915 0.985 . S
H920 N914 0.984 . S
H921 N914 0.984 . S
H922 N910 0.984 . S
H923 N910 0.985 . S
C924 C925 1.354 1_655 S
C924 C930 1.379 . S
C924 N932 1.356 . S
C925 C924 1.354 1_455 S
C925 C931 1.375 . S
C926 C927 1.363 . S
C926 C931 1.379 . S
C926 N933 1.356 . S
C927 C926 1.363 . S
C927 C930 1.363 1_455 S
N928 C930 1.356 . S
N928 H940 0.984 . S
N928 H941 0.985 . S
N929 C931 1.356 . S
N929 H934 0.984 . S
N929 H935 0.985 . S
C930 C924 1.379 . S
C930 C927 1.363 1_655 S
C930 N928 1.356 . S
C931 C925 1.375 . S
C931 C926 1.379 . S
C931 N929 1.356 . S
N932 C924 1.356 . S
N932 H938 0.984 . S
N932 H939 0.984 . S
N933 C926 1.356 . S
N933 H936 0.984 . S
N933 H937 0.985 . S
H934 N929 0.984 . S
H935 N929 0.985 . S
H936 N933 0.984 . S
H937 N933 0.985 . S
H938 N932 0.984 . S
H939 N932 0.984 . S
H940 N928 0.984 . S
H941 N928 0.985 . S
C942 C943 1.363 . S
C942 C948 1.379 . S
C942 N950 1.356 . S
C943 C942 1.363 . S
C943 C949 1.363 . S
C944 C945 1.363 . S
C944 C949 1.379 . S
C944 N951 1.356 . S
C945 C944 1.363 . S
C945 C948 1.363 . S
N946 C948 1.356 . S
N946 H958 0.984 . S
N946 H959 0.985 . S
N947 C949 1.356 . S
N947 H952 0.984 . S
N947 H953 0.985 . S
C948 C942 1.379 . S
C948 C945 1.363 . S
C948 N946 1.356 . S
C949 C943 1.363 . S
C949 C944 1.379 . S
C949 N947 1.356 . S
N950 C942 1.356 . S
N950 H956 0.984 . S
N950 H957 0.984 . S
N951 C944 1.356 . S
N951 H954 0.984 . S
N951 H955 0.985 . S
H952 N947 0.984 . S
H953 N947 0.985 . S
H954 N951 0.984 . S
H955 N951 0.985 . S
H956 N950 0.984 . S
H957 N950 0.984 . S
H958 N946 0.984 . S
H959 N946 0.985 . S
C960 C961 1.363 . S
C960 C966 1.379 . S
C960 N968 1.356 . S
C961 C960 1.363 . S
C961 C967 1.363 . S
C962 C963 1.363 . S
C962 C967 1.379 . S
C962 N969 1.356 . S
C963 C962 1.363 . S
C963 C966 1.363 . S
N964 C966 1.356 . S
N964 H976 0.984 . S
N964 H977 0.985 . S
N965 C967 1.356 . S
N965 H970 0.984 . S
N965 H971 0.985 . S
C966 C960 1.379 . S
C966 C963 1.363 . S
C966 N964 1.356 . S
C967 C961 1.363 . S
C967 C962 1.379 . S
C967 N965 1.356 . S
N968 C960 1.356 . S
N968 H974 0.984 . S
N968 H975 0.984 . S
N969 C962 1.356 . S
N969 H972 0.984 . S
N969 H973 0.985 . S
H970 N965 0.984 . S
H971 N965 0.985 . S
H972 N969 0.984 . S
H973 N969 0.985 . S
H974 N968 0.984 . S
H975 N968 0.984 . S
H976 N964 0.984 . S
H977 N964 0.985 . S
C978 C979 1.363 . S
C978 C984 1.379 . S
C978 N986 1.356 . S
C979 C978 1.363 . S
C979 C985 1.363 . S
C980 C981 1.363 . S
C980 C985 1.379 . S
C980 N987 1.356 . S
C981 C980 1.363 . S
C981 C984 1.363 . S
N982 C984 1.356 . S
N982 H994 0.984 . S
N982 H995 0.985 . S
N983 C985 1.356 . S
N983 H988 0.984 . S
N983 H989 0.985 . S
C984 C978 1.379 . S
C984 C981 1.363 . S
C984 N982 1.356 . S
C985 C979 1.363 . S
C985 C980 1.379 . S
C985 N983 1.356 . S
N986 C978 1.356 . S
N986 H992 0.984 . S
N986 H993 0.984 . S
N987 C980 1.356 . S
N987 H990 0.984 . S
N987 H991 0.985 . S
H988 N983 0.984 . S
H989 N983 0.985 . S
H990 N987 0.984 . S
H991 N987 0.985 . S
H992 N986 0.984 . S
H993 N986 0.984 . S
H994 N982 0.984 . S
H995 N982 0.985 . S
C996 C997 1.363 . S
C996 C1002 1.379 . S
C996 N1004 1.356 . S
C997 C996 1.363 . S
C997 C1003 1.363 . S
C998 C999 1.363 . S
C998 C1003 1.379 . S
C998 N1005 1.356 . S
C999 C998 1.363 . S
C999 C1002 1.363 . S
N1000 C1002 1.356 . S
N1000 H1012 0.984 . S
N1000 H1013 0.985 . S
N1001 C1003 1.356 . S
N1001 H1006 0.984 . S
N1001 H1007 0.985 . S
C1002 C996 1.379 . S
C1002 C999 1.363 . S
C1002 N1000 1.356 . S
C1003 C997 1.363 . S
C1003 C998 1.379 . S
C1003 N1001 1.356 . S
N1004 C996 1.356 . S
N1004 H1010 0.984 . S
N1004 H1011 0.984 . S
N1005 C998 1.356 . S
N1005 H1008 0.984 . S
N1005 H1009 0.985 . S
H1006 N1001 0.984 . S
H1007 N1001 0.985 . S
H1008 N1005 0.984 . S
H1009 N1005 0.985 . S
H1010 N1004 0.984 . S
H1011 N1004 0.984 . S
H1012 N1000 0.984 . S
H1013 N1000 0.985 . S
C1014 C1015 1.363 . S
C1014 C1020 1.379 . S
C1014 N1022 1.356 . S
C1015 C1014 1.363 . S
C1015 C1021 1.363 . S
C1016 C1017 1.363 . S
C1016 C1021 1.379 . S
C1016 N1023 1.356 . S
C1017 C1016 1.363 . S
C1017 C1020 1.363 . S
N1018 C1020 1.356 . S
N1018 H1030 0.984 . S
N1018 H1031 0.985 . S
N1019 C1021 1.356 . S
N1019 H1024 0.984 . S
N1019 H1025 0.985 . S
C1020 C1014 1.379 . S
C1020 C1017 1.363 . S
C1020 N1018 1.356 . S
C1021 C1015 1.363 . S
C1021 C1016 1.379 . S
C1021 N1019 1.356 . S
N1022 C1014 1.356 . S
N1022 H1028 0.984 . S
N1022 H1029 0.984 . S
N1023 C1016 1.356 . S
N1023 H1026 0.984 . S
N1023 H1027 0.985 . S
H1024 N1019 0.984 . S
H1025 N1019 0.985 . S
H1026 N1023 0.984 . S
H1027 N1023 0.985 . S
H1028 N1022 0.984 . S
H1029 N1022 0.984 . S
H1030 N1018 0.984 . S
H1031 N1018 0.985 . S
C1032 C1033 1.363 . S
C1032 C1038 1.379 . S
C1032 N1040 1.356 . S
C1033 C1032 1.363 . S
C1033 C1039 1.363 . S
C1034 C1035 1.363 . S
C1034 C1039 1.379 . S
C1034 N1041 1.356 . S
C1035 C1034 1.363 . S
C1035 C1038 1.363 . S
N1036 C1038 1.356 . S
N1036 H1048 0.984 . S
N1036 H1049 0.985 . S
N1037 C1039 1.356 . S
N1037 H1042 0.984 1_554 S
N1037 H1043 0.985 . S
C1038 C1032 1.379 . S
C1038 C1035 1.363 . S
C1038 N1036 1.356 . S
C1039 C1033 1.363 . S
C1039 C1034 1.379 . S
C1039 N1037 1.356 . S
N1040 C1032 1.356 . S
N1040 H1046 0.984 . S
N1040 H1047 0.984 1_554 S
N1041 C1034 1.356 . S
N1041 H1044 0.984 . S
N1041 H1045 0.985 . S
H1042 N1037 0.984 1_556 S
H1043 N1037 0.985 . S
H1044 N1041 0.984 . S
H1045 N1041 0.985 . S
H1046 N1040 0.984 . S
H1047 N1040 0.984 1_556 S
H1048 N1036 0.984 . S
H1049 N1036 0.985 . S
C1050 C1051 1.363 . S
C1050 C1056 1.379 . S
C1050 N1058 1.356 . S
C1051 C1050 1.363 . S
C1051 C1057 1.363 . S
C1052 C1053 1.363 . S
C1052 C1057 1.379 . S
C1052 N1059 1.356 . S
C1053 C1052 1.363 . S
C1053 C1056 1.363 . S
N1054 C1056 1.356 . S
N1054 H1066 0.984 . S
N1054 H1067 0.985 . S
N1055 C1057 1.356 . S
N1055 H1060 0.984 . S
N1055 H1061 0.985 . S
C1056 C1050 1.379 . S
C1056 C1053 1.363 . S
C1056 N1054 1.356 . S
C1057 C1051 1.363 . S
C1057 C1052 1.379 . S
C1057 N1055 1.356 . S
N1058 C1050 1.356 . S
N1058 H1064 0.984 . S
N1058 H1065 0.984 . S
N1059 C1052 1.356 . S
N1059 H1062 0.984 . S
N1059 H1063 0.985 . S
H1060 N1055 0.984 . S
H1061 N1055 0.985 . S
H1062 N1059 0.984 . S
H1063 N1059 0.985 . S
H1064 N1058 0.984 . S
H1065 N1058 0.984 . S
H1066 N1054 0.984 . S
H1067 N1054 0.985 . S
C1068 C1069 1.363 . S
C1068 C1074 1.379 . S
C1068 N1076 1.356 . S
C1069 C1068 1.363 . S
C1069 C1075 1.363 . S
C1070 C1071 1.363 . S
C1070 C1075 1.379 . S
C1070 N1077 1.356 . S
C1071 C1070 1.363 . S
C1071 C1074 1.363 . S
N1072 C1074 1.356 . S
N1072 H1084 0.984 . S
N1072 H1085 0.985 . S
N1073 C1075 1.356 . S
N1073 H1078 0.984 . S
N1073 H1079 0.985 . S
C1074 C1068 1.379 . S
C1074 C1071 1.363 . S
C1074 N1072 1.356 . S
C1075 C1069 1.363 . S
C1075 C1070 1.379 . S
C1075 N1073 1.356 . S
N1076 C1068 1.356 . S
N1076 H1082 0.984 . S
N1076 H1083 0.984 . S
N1077 C1070 1.356 . S
N1077 H1080 0.984 . S
N1077 H1081 0.985 . S
H1078 N1073 0.984 . S
H1079 N1073 0.985 . S
H1080 N1077 0.984 . S
H1081 N1077 0.985 . S
H1082 N1076 0.984 . S
H1083 N1076 0.984 . S
H1084 N1072 0.984 . S
H1085 N1072 0.985 . S
C1086 C1087 1.363 . S
C1086 C1092 1.379 . S
C1086 N1094 1.356 . S
C1087 C1086 1.363 . S
C1087 C1093 1.363 . S
C1088 C1089 1.363 . S
C1088 C1093 1.379 . S
C1088 N1095 1.356 . S
C1089 C1088 1.363 . S
C1089 C1092 1.363 . S
N1090 C1092 1.356 . S
N1090 H1102 0.984 . S
N1090 H1103 0.985 1_545 S
N1091 C1093 1.356 . S
N1091 H1096 0.984 . S
N1091 H1097 0.985 . S
C1092 C1086 1.379 . S
C1092 C1089 1.363 . S
C1092 N1090 1.356 . S
C1093 C1087 1.363 . S
C1093 C1088 1.379 . S
C1093 N1091 1.356 . S
N1094 C1086 1.356 . S
N1094 H1100 0.984 . S
N1094 H1101 0.984 . S
N1095 C1088 1.356 . S
N1095 H1098 0.984 1_545 S
N1095 H1099 0.985 . S
H1096 N1091 0.984 . S
H1097 N1091 0.985 . S
H1098 N1095 0.984 1_565 S
H1099 N1095 0.985 . S
H1100 N1094 0.984 . S
H1101 N1094 0.984 . S
H1102 N1090 0.984 . S
H1103 N1090 0.985 1_565 S
C1104 C1105 1.363 . S
C1104 C1110 1.379 . S
C1104 N1112 1.356 . S
C1105 C1104 1.363 . S
C1105 C1111 1.363 . S
C1106 C1107 1.363 . S
C1106 C1111 1.379 . S
C1106 N1113 1.356 . S
C1107 C1106 1.363 . S
C1107 C1110 1.363 . S
N1108 C1110 1.356 1_455 S
N1108 H1120 0.984 . S
N1108 H1121 0.985 . S
N1109 C1111 1.356 . S
N1109 H1114 0.984 . S
N1109 H1115 0.985 . S
C1110 C1104 1.379 . S
C1110 C1107 1.363 . S
C1110 N1108 1.356 1_655 S
C1111 C1105 1.363 . S
C1111 C1106 1.379 . S
C1111 N1109 1.356 . S
N1112 C1104 1.356 . S
N1112 H1118 0.984 . S
N1112 H1119 0.984 . S
N1113 C1106 1.356 . S
N1113 H1116 0.984 . S
N1113 H1117 0.985 . S
H1114 N1109 0.984 . S
H1115 N1109 0.985 . S
H1116 N1113 0.984 . S
H1117 N1113 0.985 . S
H1118 N1112 0.984 . S
H1119 N1112 0.984 . S
H1120 N1108 0.984 . S
H1121 N1108 0.985 . S
C1122 C1123 1.363 . S
C1122 C1128 1.379 . S
C1122 N1130 1.356 . S
C1123 C1122 1.363 . S
C1123 C1129 1.363 . S
C1124 C1125 1.363 . S
C1124 C1129 1.379 . S
C1124 N1131 1.356 . S
C1125 C1124 1.363 . S
C1125 C1128 1.363 . S
N1126 C1128 1.356 . S
N1126 H1138 0.984 . S
N1126 H1139 0.985 . S
N1127 C1129 1.356 . S
N1127 H1132 0.984 . S
N1127 H1133 0.985 . S
C1128 C1122 1.379 . S
C1128 C1125 1.363 . S
C1128 N1126 1.356 . S
C1129 C1123 1.363 . S
C1129 C1124 1.379 . S
C1129 N1127 1.356 . S
N1130 C1122 1.356 . S
N1130 H1136 0.984 . S
N1130 H1137 0.984 . S
N1131 C1124 1.356 . S
N1131 H1134 0.984 . S
N1131 H1135 0.985 . S
H1132 N1127 0.984 . S
H1133 N1127 0.985 . S
H1134 N1131 0.984 . S
H1135 N1131 0.985 . S
H1136 N1130 0.984 . S
H1137 N1130 0.984 . S
H1138 N1126 0.984 . S
H1139 N1126 0.985 . S
C1140 C1141 1.363 . S
C1140 C1146 1.379 . S
C1140 N1148 1.356 . S
C1141 C1140 1.363 . S
C1141 C1147 1.363 . S
C1142 C1143 1.363 . S
C1142 C1147 1.379 . S
C1142 N1149 1.356 . S
C1143 C1142 1.363 . S
C1143 C1146 1.363 . S
N1144 C1146 1.356 . S
N1144 H1156 0.984 . S
N1144 H1157 0.985 . S
N1145 C1147 1.356 . S
N1145 H1150 0.984 . S
N1145 H1151 0.985 . S
C1146 C1140 1.379 . S
C1146 C1143 1.363 . S
C1146 N1144 1.356 . S
C1147 C1141 1.363 . S
C1147 C1142 1.379 . S
C1147 N1145 1.356 . S
N1148 C1140 1.356 . S
N1148 H1154 0.984 . S
N1148 H1155 0.984 . S
N1149 C1142 1.356 . S
N1149 H1152 0.984 . S
N1149 H1153 0.985 . S
H1150 N1145 0.984 . S
H1151 N1145 0.985 . S
H1152 N1149 0.984 . S
H1153 N1149 0.985 . S
H1154 N1148 0.984 . S
H1155 N1148 0.984 . S
H1156 N1144 0.984 . S
H1157 N1144 0.985 . S
C1158 C1159 1.363 . S
C1158 C1164 1.379 . S
C1158 N1166 1.356 . S
C1159 C1158 1.363 . S
C1159 C1165 1.363 . S
C1160 C1161 1.363 . S
C1160 C1165 1.379 . S
C1160 N1167 1.356 . S
C1161 C1160 1.363 . S
C1161 C1164 1.363 . S
N1162 C1164 1.356 . S
N1162 H1174 0.984 . S
N1162 H1175 0.985 . S
N1163 C1165 1.356 . S
N1163 H1168 0.984 . S
N1163 H1169 0.985 . S
C1164 C1158 1.379 . S
C1164 C1161 1.363 . S
C1164 N1162 1.356 . S
C1165 C1159 1.363 . S
C1165 C1160 1.379 . S
C1165 N1163 1.356 . S
N1166 C1158 1.356 . S
N1166 H1172 0.984 . S
N1166 H1173 0.984 . S
N1167 C1160 1.356 . S
N1167 H1170 0.984 . S
N1167 H1171 0.985 . S
H1168 N1163 0.984 . S
H1169 N1163 0.985 . S
H1170 N1167 0.984 . S
H1171 N1167 0.985 . S
H1172 N1166 0.984 . S
H1173 N1166 0.984 . S
H1174 N1162 0.984 . S
H1175 N1162 0.985 . S
C1176 C1177 1.363 . S
C1176 C1182 1.379 . S
C1176 N1184 1.356 1_565 S
C1177 C1176 1.363 . S
C1177 C1183 1.363 . S
C1178 C1179 1.363 . S
C1178 C1183 1.379 . S
C1178 N1185 1.356 . S
C1179 C1178 1.363 . S
C1179 C1182 1.363 . S
N1180 C1182 1.366 . S
N1180 H1192 0.962 1_565 S
N1180 H1193 0.998 . S
N1181 C1183 1.356 . S
N1181 H1186 0.984 . S
N1181 H1187 0.985 . S
C1182 C1176 1.379 . S
C1182 C1179 1.363 . S
C1182 N1180 1.366 . S
C1183 C1177 1.363 . S
C1183 C1178 1.379 . S
C1183 N1181 1.356 . S
N1184 C1176 1.356 1_545 S
N1184 H1190 0.984 . S
N1184 H1191 0.984 . S
N1185 C1178 1.356 . S
N1185 H1188 0.984 . S
N1185 H1189 0.985 . S
H1186 N1181 0.984 . S
H1187 N1181 0.985 . S
H1188 N1185 0.984 . S
H1189 N1185 0.985 . S
H1190 N1184 0.984 . S
H1191 N1184 0.984 . S
H1192 N1180 0.962 1_545 S
H1193 N1180 0.998 . S
C1194 C1195 1.363 . S
C1194 C1200 1.379 . S
C1194 N1202 1.356 . S
C1195 C1194 1.363 . S
C1195 C1201 1.363 . S
C1196 C1197 1.363 . S
C1196 C1201 1.379 . S
C1196 N1203 1.356 . S
C1197 C1196 1.363 . S
C1197 C1200 1.363 . S
N1198 C1200 1.356 . S
N1198 H1210 0.984 . S
N1198 H1211 0.985 . S
N1199 C1201 1.356 . S
N1199 H1204 0.984 . S
N1199 H1205 0.985 . S
C1200 C1194 1.379 . S
C1200 C1197 1.363 . S
C1200 N1198 1.356 . S
C1201 C1195 1.363 . S
C1201 C1196 1.379 . S
C1201 N1199 1.356 . S
N1202 C1194 1.356 . S
N1202 H1208 0.984 . S
N1202 H1209 0.984 . S
N1203 C1196 1.356 . S
N1203 H1206 0.984 . S
N1203 H1207 0.985 . S
H1204 N1199 0.984 . S
H1205 N1199 0.985 . S
H1206 N1203 0.984 . S
H1207 N1203 0.985 . S
H1208 N1202 0.984 . S
H1209 N1202 0.984 . S
H1210 N1198 0.984 . S
H1211 N1198 0.985 . S
C1212 C1213 1.363 . S
C1212 C1218 1.379 . S
C1212 N1220 1.356 . S
C1213 C1212 1.363 . S
C1213 C1219 1.363 . S
C1214 C1215 1.363 . S
C1214 C1219 1.379 . S
C1214 N1221 1.356 . S
C1215 C1214 1.363 . S
C1215 C1218 1.363 . S
N1216 C1218 1.356 . S
N1216 H1228 0.984 . S
N1216 H1229 0.985 . S
N1217 C1219 1.356 . S
N1217 H1222 0.984 . S
N1217 H1223 0.985 . S
C1218 C1212 1.379 . S
C1218 C1215 1.363 . S
C1218 N1216 1.356 . S
C1219 C1213 1.363 . S
C1219 C1214 1.379 . S
C1219 N1217 1.356 . S
N1220 C1212 1.356 . S
N1220 H1226 0.984 . S
N1220 H1227 0.984 . S
N1221 C1214 1.356 . S
N1221 H1224 0.984 . S
N1221 H1225 0.985 . S
H1222 N1217 0.984 . S
H1223 N1217 0.985 . S
H1224 N1221 0.984 . S
H1225 N1221 0.985 . S
H1226 N1220 0.984 . S
H1227 N1220 0.984 . S
H1228 N1216 0.984 . S
H1229 N1216 0.985 . S
C1230 C1231 1.363 . S
C1230 C1236 1.379 . S
C1230 N1238 1.356 . S
C1231 C1230 1.363 . S
C1231 C1237 1.363 . S
C1232 C1233 1.363 . S
C1232 C1237 1.379 . S
C1232 N1239 1.356 . S
C1233 C1232 1.363 . S
C1233 C1236 1.363 . S
N1234 C1236 1.356 . S
N1234 H1246 0.984 . S
N1234 H1247 0.985 . S
N1235 C1237 1.356 . S
N1235 H1240 0.984 . S
N1235 H1241 0.985 . S
C1236 C1230 1.379 . S
C1236 C1233 1.363 . S
C1236 N1234 1.356 . S
C1237 C1231 1.363 . S
C1237 C1232 1.379 . S
C1237 N1235 1.356 . S
N1238 C1230 1.356 . S
N1238 H1244 0.984 . S
N1238 H1245 0.984 . S
N1239 C1232 1.356 . S
N1239 H1242 0.984 . S
N1239 H1243 0.985 . S
H1240 N1235 0.984 . S
H1241 N1235 0.985 . S
H1242 N1239 0.984 . S
H1243 N1239 0.985 . S
H1244 N1238 0.984 . S
H1245 N1238 0.984 . S
H1246 N1234 0.984 . S
H1247 N1234 0.985 . S
C1248 C1249 1.363 . S
C1248 C1254 1.379 . S
C1248 N1256 1.356 . S
C1249 C1248 1.363 . S
C1249 C1255 1.363 . S
C1250 C1251 1.363 . S
C1250 C1255 1.379 . S
C1250 N1257 1.356 . S
C1251 C1250 1.363 . S
C1251 C1254 1.363 . S
N1252 C1254 1.356 . S
N1252 H1264 0.984 . S
N1252 H1265 0.985 . S
N1253 C1255 1.356 . S
N1253 H1258 0.984 . S
N1253 H1259 0.985 . S
C1254 C1248 1.379 . S
C1254 C1251 1.363 . S
C1254 N1252 1.356 . S
C1255 C1249 1.363 . S
C1255 C1250 1.379 . S
C1255 N1253 1.356 . S
N1256 C1248 1.356 . S
N1256 H1262 0.984 . S
N1256 H1263 0.984 . S
N1257 C1250 1.356 . S
N1257 H1260 0.984 . S
N1257 H1261 0.985 . S
H1258 N1253 0.984 . S
H1259 N1253 0.985 . S
H1260 N1257 0.984 . S
H1261 N1257 0.985 . S
H1262 N1256 0.984 . S
H1263 N1256 0.984 . S
H1264 N1252 0.984 . S
H1265 N1252 0.985 . S
C1266 C1267 1.363 . S
C1266 C1272 1.379 . S
C1266 N1274 1.356 . S
C1267 C1266 1.363 . S
C1267 C1273 1.363 . S
C1268 C1269 1.363 . S
C1268 C1273 1.379 . S
C1268 N1275 1.356 . S
C1269 C1268 1.363 . S
C1269 C1272 1.363 . S
N1270 C1272 1.356 . S
N1270 H1282 0.984 . S
N1270 H1283 0.985 . S
N1271 C1273 1.356 . S
N1271 H1276 0.984 . S
N1271 H1277 0.985 . S
C1272 C1266 1.379 . S
C1272 C1269 1.363 . S
C1272 N1270 1.356 . S
C1273 C1267 1.363 . S
C1273 C1268 1.379 . S
C1273 N1271 1.356 . S
N1274 C1266 1.356 . S
N1274 H1280 0.984 . S
N1274 H1281 0.984 . S
N1275 C1268 1.356 . S
N1275 H1278 0.984 . S
N1275 H1279 0.985 . S
H1276 N1271 0.984 . S
H1277 N1271 0.985 . S
H1278 N1275 0.984 . S
H1279 N1275 0.985 . S
H1280 N1274 0.984 . S
H1281 N1274 0.984 . S
H1282 N1270 0.984 . S
H1283 N1270 0.985 . S
C1284 C1285 1.363 . S
C1284 C1290 1.379 . S
C1284 N1292 1.356 . S
C1285 C1284 1.363 . S
C1285 C1291 1.363 . S
C1286 C1287 1.363 . S
C1286 C1291 1.379 . S
C1286 N1293 1.356 . S
C1287 C1286 1.363 . S
C1287 C1290 1.363 . S
N1288 C1290 1.356 . S
N1288 H1300 0.984 . S
N1288 H1301 0.985 . S
N1289 C1291 1.356 . S
N1289 H1294 0.984 . S
N1289 H1295 0.985 . S
C1290 C1284 1.379 . S
C1290 C1287 1.363 . S
C1290 N1288 1.356 . S
C1291 C1285 1.363 . S
C1291 C1286 1.379 . S
C1291 N1289 1.356 . S
N1292 C1284 1.356 . S
N1292 H1298 0.984 . S
N1292 H1299 0.984 . S
N1293 C1286 1.356 . S
N1293 H1296 0.984 . S
N1293 H1297 0.985 . S
H1294 N1289 0.984 . S
H1295 N1289 0.985 . S
H1296 N1293 0.984 . S
H1297 N1293 0.985 . S
H1298 N1292 0.984 . S
H1299 N1292 0.984 . S
H1300 N1288 0.984 . S
H1301 N1288 0.985 . S
C1302 C1303 1.363 . S
C1302 C1308 1.379 . S
C1302 N1310 1.356 . S
C1303 C1302 1.363 . S
C1303 C1309 1.363 . S
C1304 C1305 1.363 . S
C1304 C1309 1.379 . S
C1304 N1311 1.356 1_556 S
C1305 C1304 1.363 . S
C1305 C1308 1.363 . S
N1306 C1308 1.356 . S
N1306 H1318 0.984 . S
N1306 H1319 0.985 . S
N1307 C1309 1.356 1_554 S
N1307 H1312 0.984 . S
N1307 H1313 0.985 . S
C1308 C1302 1.379 . S
C1308 C1305 1.363 . S
C1308 N1306 1.356 . S
C1309 C1303 1.363 . S
C1309 C1304 1.379 . S
C1309 N1307 1.356 1_556 S
N1310 C1302 1.356 . S
N1310 H1316 0.984 . S
N1310 H1317 0.984 . S
N1311 C1304 1.356 1_554 S
N1311 H1314 0.984 1_554 S
N1311 H1315 0.985 . S
H1312 N1307 0.984 . S
H1313 N1307 0.985 . S
H1314 N1311 0.984 1_556 S
H1315 N1311 0.985 . S
H1316 N1310 0.984 . S
H1317 N1310 0.984 . S
H1318 N1306 0.984 . S
H1319 N1306 0.985 . S
C1320 C1321 1.363 . S
C1320 C1326 1.379 . S
C1320 N1328 1.356 . S
C1321 C1320 1.363 . S
C1321 C1327 1.363 . S
C1322 C1323 1.363 . S
C1322 C1327 1.379 . S
C1322 N1329 1.356 . S
C1323 C1322 1.363 . S
C1323 C1326 1.363 . S
N1324 C1326 1.356 . S
N1324 H1336 0.984 . S
N1324 H1337 0.985 . S
N1325 C1327 1.356 . S
N1325 H1330 0.984 . S
N1325 H1331 0.985 . S
C1326 C1320 1.379 . S
C1326 C1323 1.363 . S
C1326 N1324 1.356 . S
C1327 C1321 1.363 . S
C1327 C1322 1.379 . S
C1327 N1325 1.356 . S
N1328 C1320 1.356 . S
N1328 H1334 0.984 . S
N1328 H1335 0.984 . S
N1329 C1322 1.356 . S
N1329 H1332 0.984 . S
N1329 H1333 0.985 . S
H1330 N1325 0.984 . S
H1331 N1325 0.985 . S
H1332 N1329 0.984 . S
H1333 N1329 0.985 . S
H1334 N1328 0.984 . S
H1335 N1328 0.984 . S
H1336 N1324 0.984 . S
H1337 N1324 0.985 . S
C1338 C1339 1.363 . S
C1338 C1344 1.379 . S
C1338 N1346 1.356 . S
C1339 C1338 1.363 . S
C1339 C1345 1.363 . S
C1340 C1341 1.363 . S
C1340 C1345 1.379 . S
C1340 N1347 1.356 . S
C1341 C1340 1.363 . S
C1341 C1344 1.363 . S
N1342 C1344 1.356 . S
N1342 H1354 0.984 . S
N1342 H1355 0.985 . S
N1343 C1345 1.356 . S
N1343 H1348 0.984 . S
N1343 H1349 0.985 . S
C1344 C1338 1.379 . S
C1344 C1341 1.363 . S
C1344 N1342 1.356 . S
C1345 C1339 1.363 . S
C1345 C1340 1.379 . S
C1345 N1343 1.356 . S
N1346 C1338 1.356 . S
N1346 H1352 0.984 . S
N1346 H1353 0.984 . S
N1347 C1340 1.356 . S
N1347 H1350 0.984 . S
N1347 H1351 0.985 . S
H1348 N1343 0.984 . S
H1349 N1343 0.985 . S
H1350 N1347 0.984 . S
H1351 N1347 0.985 . S
H1352 N1346 0.984 . S
H1353 N1346 0.984 . S
H1354 N1342 0.984 . S
H1355 N1342 0.985 . S
C1356 C1357 1.363 . S
C1356 C1362 1.379 . S
C1356 N1364 1.356 . S
C1357 C1356 1.363 . S
C1357 C1363 1.363 . S
C1358 C1359 1.363 . S
C1358 C1363 1.379 . S
C1358 N1365 1.356 . S
C1359 C1358 1.363 . S
C1359 C1362 1.363 . S
N1360 C1362 1.356 . S
N1360 H1372 0.984 . S
N1360 H1373 0.985 . S
N1361 C1363 1.356 . S
N1361 H1366 0.984 . S
N1361 H1367 0.985 . S
C1362 C1356 1.379 . S
C1362 C1359 1.363 . S
C1362 N1360 1.356 . S
C1363 C1357 1.363 . S
C1363 C1358 1.379 . S
C1363 N1361 1.356 . S
N1364 C1356 1.356 . S
N1364 H1370 0.984 . S
N1364 H1371 0.984 . S
N1365 C1358 1.356 . S
N1365 H1368 0.984 . S
N1365 H1369 0.985 . S
H1366 N1361 0.984 . S
H1367 N1361 0.985 . S
H1368 N1365 0.984 . S
H1369 N1365 0.985 . S
H1370 N1364 0.984 . S
H1371 N1364 0.984 . S
H1372 N1360 0.984 . S
H1373 N1360 0.985 . S
C1374 C1375 1.363 . S
C1374 C1380 1.379 . S
C1374 N1382 1.356 . S
C1375 C1374 1.363 . S
C1375 C1381 1.363 . S
C1376 C1377 1.363 . S
C1376 C1381 1.379 . S
C1376 N1383 1.356 . S
C1377 C1376 1.363 . S
C1377 C1380 1.363 . S
N1378 C1380 1.356 . S
N1378 H1390 0.984 . S
N1378 H1391 0.985 . S
N1379 C1381 1.356 . S
N1379 H1384 0.984 . S
N1379 H1385 0.985 . S
C1380 C1374 1.379 . S
C1380 C1377 1.363 . S
C1380 N1378 1.356 . S
C1381 C1375 1.363 . S
C1381 C1376 1.379 . S
C1381 N1379 1.356 . S
N1382 C1374 1.356 . S
N1382 H1388 0.984 . S
N1382 H1389 0.984 . S
N1383 C1376 1.356 . S
N1383 H1386 0.984 . S
N1383 H1387 0.985 . S
H1384 N1379 0.984 . S
H1385 N1379 0.985 . S
H1386 N1383 0.984 . S
H1387 N1383 0.985 . S
H1388 N1382 0.984 . S
H1389 N1382 0.984 . S
H1390 N1378 0.984 . S
H1391 N1378 0.985 . S
C1392 C1393 1.363 . S
C1392 C1398 1.379 . S
C1392 N1400 1.356 . S
C1393 C1392 1.363 . S
C1393 C1399 1.363 . S
C1394 C1395 1.363 . S
C1394 C1399 1.379 . S
C1394 N1401 1.356 . S
C1395 C1394 1.363 . S
C1395 C1398 1.363 . S
N1396 C1398 1.356 . S
N1396 H1408 0.984 . S
N1396 H1409 0.985 . S
N1397 C1399 1.356 . S
N1397 H1402 0.984 . S
N1397 H1403 0.985 . S
C1398 C1392 1.379 . S
C1398 C1395 1.363 . S
C1398 N1396 1.356 . S
C1399 C1393 1.363 . S
C1399 C1394 1.379 . S
C1399 N1397 1.356 . S
N1400 C1392 1.356 . S
N1400 H1406 0.984 . S
N1400 H1407 0.984 . S
N1401 C1394 1.356 . S
N1401 H1404 0.984 . S
N1401 H1405 0.985 . S
H1402 N1397 0.984 . S
H1403 N1397 0.985 . S
H1404 N1401 0.984 . S
H1405 N1401 0.985 . S
H1406 N1400 0.984 . S
H1407 N1400 0.984 . S
H1408 N1396 0.984 . S
H1409 N1396 0.985 . S
C1410 C1411 1.363 . S
C1410 C1416 1.379 . S
C1410 N1418 1.356 . S
C1411 C1410 1.363 . S
C1411 C1417 1.363 . S
C1412 C1413 1.363 . S
C1412 C1417 1.379 . S
C1412 N1419 1.356 . S
C1413 C1412 1.363 . S
C1413 C1416 1.363 . S
N1414 C1416 1.356 . S
N1414 H1426 0.984 . S
N1414 H1427 0.985 . S
N1415 C1417 1.356 . S
N1415 H1420 0.984 . S
N1415 H1421 0.985 . S
C1416 C1410 1.379 . S
C1416 C1413 1.363 . S
C1416 N1414 1.356 . S
C1417 C1411 1.363 . S
C1417 C1412 1.379 . S
C1417 N1415 1.356 . S
N1418 C1410 1.356 . S
N1418 H1424 0.984 . S
N1418 H1425 0.984 . S
N1419 C1412 1.356 . S
N1419 H1422 0.984 . S
N1419 H1423 0.985 . S
H1420 N1415 0.984 . S
H1421 N1415 0.985 . S
H1422 N1419 0.984 . S
H1423 N1419 0.985 . S
H1424 N1418 0.984 . S
H1425 N1418 0.984 . S
H1426 N1414 0.984 . S
H1427 N1414 0.985 . S
C1428 C1429 1.363 . S
C1428 C1434 1.379 . S
C1428 N1436 1.356 . S
C1429 C1428 1.363 . S
C1429 C1435 1.363 . S
C1430 C1431 1.363 . S
C1430 C1435 1.379 . S
C1430 N1437 1.356 . S
C1431 C1430 1.363 . S
C1431 C1434 1.363 . S
N1432 C1434 1.356 . S
N1432 H1444 0.984 . S
N1432 H1445 0.985 . S
N1433 C1435 1.356 . S
N1433 H1438 0.984 . S
N1433 H1439 0.985 . S
C1434 C1428 1.379 . S
C1434 C1431 1.363 . S
C1434 N1432 1.356 . S
C1435 C1429 1.363 . S
C1435 C1430 1.379 . S
C1435 N1433 1.356 . S
N1436 C1428 1.356 . S
N1436 H1442 0.984 . S
N1436 H1443 0.984 . S
N1437 C1430 1.356 . S
N1437 H1440 0.984 . S
N1437 H1441 0.985 . S
H1438 N1433 0.984 . S
H1439 N1433 0.985 . S
H1440 N1437 0.984 . S
H1441 N1437 0.985 . S
H1442 N1436 0.984 . S
H1443 N1436 0.984 . S
H1444 N1432 0.984 . S
H1445 N1432 0.985 . S
C1446 C1447 1.363 . S
C1446 C1452 1.379 . S
C1446 N1454 1.356 . S
C1447 C1446 1.363 . S
C1447 C1453 1.363 . S
C1448 C1449 1.363 . S
C1448 C1453 1.379 . S
C1448 N1455 1.356 . S
C1449 C1448 1.363 . S
C1449 C1452 1.363 . S
N1450 C1452 1.356 . S
N1450 H1462 0.984 . S
N1450 H1463 0.985 . S
N1451 C1453 1.356 . S
N1451 H1456 0.984 . S
N1451 H1457 0.985 . S
C1452 C1446 1.379 . S
C1452 C1449 1.363 . S
C1452 N1450 1.356 . S
C1453 C1447 1.363 . S
C1453 C1448 1.379 . S
C1453 N1451 1.356 . S
N1454 C1446 1.356 . S
N1454 H1460 0.984 . S
N1454 H1461 0.984 . S
N1455 C1448 1.356 . S
N1455 H1458 0.984 . S
N1455 H1459 0.985 . S
H1456 N1451 0.984 . S
H1457 N1451 0.985 . S
H1458 N1455 0.984 . S
H1459 N1455 0.985 . S
H1460 N1454 0.984 . S
H1461 N1454 0.984 . S
H1462 N1450 0.984 . S
H1463 N1450 0.985 . S
C1464 C1465 1.363 . S
C1464 C1470 1.379 . S
C1464 N1472 1.356 . S
C1465 C1464 1.363 . S
C1465 C1471 1.363 . S
C1466 C1467 1.363 . S
C1466 C1471 1.379 . S
C1466 N1473 1.356 . S
C1467 C1466 1.363 . S
C1467 C1470 1.363 . S
N1468 C1470 1.356 . S
N1468 H1480 0.984 . S
N1468 H1481 0.985 . S
N1469 C1471 1.356 . S
N1469 H1474 0.984 . S
N1469 H1475 0.985 . S
C1470 C1464 1.379 . S
C1470 C1467 1.363 . S
C1470 N1468 1.356 . S
C1471 C1465 1.363 . S
C1471 C1466 1.379 . S
C1471 N1469 1.356 . S
N1472 C1464 1.356 . S
N1472 H1478 0.984 . S
N1472 H1479 0.984 . S
N1473 C1466 1.356 . S
N1473 H1476 0.984 . S
N1473 H1477 0.985 . S
H1474 N1469 0.984 . S
H1475 N1469 0.985 . S
H1476 N1473 0.984 . S
H1477 N1473 0.985 . S
H1478 N1472 0.984 . S
H1479 N1472 0.984 . S
H1480 N1468 0.984 . S
H1481 N1468 0.985 . S
C1482 C1483 1.363 . S
C1482 C1488 1.379 . S
C1482 N1490 1.356 . S
C1483 C1482 1.363 . S
C1483 C1489 1.363 . S
C1484 C1485 1.363 . S
C1484 C1489 1.379 . S
C1484 N1491 1.356 . S
C1485 C1484 1.363 . S
C1485 C1488 1.363 . S
N1486 C1488 1.356 . S
N1486 H1498 0.984 . S
N1486 H1499 0.985 . S
N1487 C1489 1.356 . S
N1487 H1492 0.984 . S
N1487 H1493 0.985 . S
C1488 C1482 1.379 . S
C1488 C1485 1.363 . S
C1488 N1486 1.356 . S
C1489 C1483 1.363 . S
C1489 C1484 1.379 . S
C1489 N1487 1.356 . S
N1490 C1482 1.356 . S
N1490 H1496 0.984 . S
N1490 H1497 0.984 . S
N1491 C1484 1.356 . S
N1491 H1494 0.984 . S
N1491 H1495 0.985 . S
H1492 N1487 0.984 . S
H1493 N1487 0.985 . S
H1494 N1491 0.984 . S
H1495 N1491 0.985 . S
H1496 N1490 0.984 . S
H1497 N1490 0.984 . S
H1498 N1486 0.984 . S
H1499 N1486 0.985 . S
C1500 C1501 1.363 . S
C1500 C1506 1.379 . S
C1500 N1508 1.356 . S
C1501 C1500 1.363 . S
C1501 C1507 1.363 . S
C1502 C1503 1.363 . S
C1502 C1507 1.379 . S
C1502 N1509 1.356 . S
C1503 C1502 1.363 . S
C1503 C1506 1.363 . S
N1504 C1506 1.356 . S
N1504 H1516 0.984 . S
N1504 H1517 0.985 . S
N1505 C1507 1.356 . S
N1505 H1510 0.984 . S
N1505 H1511 0.985 . S
C1506 C1500 1.379 . S
C1506 C1503 1.363 . S
C1506 N1504 1.356 . S
C1507 C1501 1.363 . S
C1507 C1502 1.379 . S
C1507 N1505 1.356 . S
N1508 C1500 1.356 . S
N1508 H1514 0.984 . S
N1508 H1515 0.984 . S
N1509 C1502 1.356 . S
N1509 H1512 0.984 . S
N1509 H1513 0.985 1_556 S
H1510 N1505 0.984 . S
H1511 N1505 0.985 . S
H1512 N1509 0.984 . S
H1513 N1509 0.985 1_554 S
H1514 N1508 0.984 . S
H1515 N1508 0.984 . S
H1516 N1504 0.984 . S
H1517 N1504 0.985 . S
C1518 C1519 1.363 . S
C1518 C1524 1.379 . S
C1518 N1526 1.356 . S
C1519 C1518 1.363 . S
C1519 C1525 1.363 . S
C1520 C1521 1.363 . S
C1520 C1525 1.379 . S
C1520 N1527 1.356 . S
C1521 C1520 1.363 . S
C1521 C1524 1.363 . S
N1522 C1524 1.356 . S
N1522 H1534 0.984 . S
N1522 H1535 0.985 . S
N1523 C1525 1.356 . S
N1523 H1528 0.984 . S
N1523 H1529 0.985 . S
C1524 C1518 1.379 . S
C1524 C1521 1.363 . S
C1524 N1522 1.356 . S
C1525 C1519 1.363 . S
C1525 C1520 1.379 . S
C1525 N1523 1.356 . S
N1526 C1518 1.356 . S
N1526 H1532 0.984 . S
N1526 H1533 0.984 . S
N1527 C1520 1.356 . S
N1527 H1530 0.984 . S
N1527 H1531 0.985 . S
H1528 N1523 0.984 . S
H1529 N1523 0.985 . S
H1530 N1527 0.984 . S
H1531 N1527 0.985 . S
H1532 N1526 0.984 . S
H1533 N1526 0.984 . S
H1534 N1522 0.984 . S
H1535 N1522 0.985 . S
C1536 C1537 1.363 . S
C1536 C1542 1.379 . S
C1536 N1544 1.356 . S
C1537 C1536 1.363 . S
C1537 C1543 1.363 . S
C1538 C1539 1.363 . S
C1538 C1543 1.379 . S
C1538 N1545 1.356 . S
C1539 C1538 1.363 . S
C1539 C1542 1.363 . S
N1540 C1542 1.356 . S
N1540 H1552 0.984 . S
N1540 H1553 0.985 . S
N1541 C1543 1.356 . S
N1541 H1546 0.984 . S
N1541 H1547 0.985 . S
C1542 C1536 1.379 . S
C1542 C1539 1.363 . S
C1542 N1540 1.356 . S
C1543 C1537 1.363 . S
C1543 C1538 1.379 . S
C1543 N1541 1.356 . S
N1544 C1536 1.356 . S
N1544 H1550 0.984 . S
N1544 H1551 0.984 . S
N1545 C1538 1.356 . S
N1545 H1548 0.984 . S
N1545 H1549 0.985 . S
H1546 N1541 0.984 . S
H1547 N1541 0.985 . S
H1548 N1545 0.984 . S
H1549 N1545 0.985 . S
H1550 N1544 0.984 . S
H1551 N1544 0.984 . S
H1552 N1540 0.984 . S
H1553 N1540 0.985 . S
C1554 C1555 1.363 . S
C1554 C1560 1.379 . S
C1554 N1562 1.356 . S
C1555 C1554 1.363 . S
C1555 C1561 1.363 . S
C1556 C1557 1.363 . S
C1556 C1561 1.379 . S
C1556 N1563 1.356 . S
C1557 C1556 1.363 . S
C1557 C1560 1.363 . S
N1558 C1560 1.356 1_655 S
N1558 H1570 0.984 . S
N1558 H1571 0.985 . S
N1559 C1561 1.356 . S
N1559 H1564 0.984 . S
N1559 H1565 0.985 . S
C1560 C1554 1.379 . S
C1560 C1557 1.363 . S
C1560 N1558 1.356 1_455 S
C1561 C1555 1.363 . S
C1561 C1556 1.379 . S
C1561 N1559 1.356 . S
N1562 C1554 1.356 . S
N1562 H1568 0.984 . S
N1562 H1569 0.984 . S
N1563 C1556 1.356 . S
N1563 H1566 0.984 . S
N1563 H1567 0.985 . S
H1564 N1559 0.984 . S
H1565 N1559 0.985 . S
H1566 N1563 0.984 . S
H1567 N1563 0.985 . S
H1568 N1562 0.984 . S
H1569 N1562 0.984 . S
H1570 N1558 0.984 . S
H1571 N1558 0.985 . S
C1572 C1573 1.363 . S
C1572 C1578 1.379 . S
C1572 N1580 1.356 . S
C1573 C1572 1.363 . S
C1573 C1579 1.363 . S
C1574 C1575 1.363 . S
C1574 C1579 1.379 . S
C1574 N1581 1.356 . S
C1575 C1574 1.363 . S
C1575 C1578 1.363 . S
N1576 C1578 1.356 . S
N1576 H1588 0.984 . S
N1576 H1589 0.985 . S
N1577 C1579 1.356 . S
N1577 H1582 0.984 . S
N1577 H1583 0.985 . S
C1578 C1572 1.379 . S
C1578 C1575 1.363 . S
C1578 N1576 1.356 . S
C1579 C1573 1.363 . S
C1579 C1574 1.379 . S
C1579 N1577 1.356 . S
N1580 C1572 1.356 . S
N1580 H1586 0.984 . S
N1580 H1587 0.984 . S
N1581 C1574 1.356 . S
N1581 H1584 0.984 . S
N1581 H1585 0.985 . S
H1582 N1577 0.984 . S
H1583 N1577 0.985 . S
H1584 N1581 0.984 . S
H1585 N1581 0.985 . S
H1586 N1580 0.984 . S
H1587 N1580 0.984 . S
H1588 N1576 0.984 . S
H1589 N1576 0.985 . S
C1590 C1591 1.363 . S
C1590 C1596 1.379 . S
C1590 N1598 1.356 . S
C1591 C1590 1.363 . S
C1591 C1597 1.363 . S
C1592 C1593 1.363 . S
C1592 C1597 1.379 . S
C1592 N1599 1.356 . S
C1593 C1592 1.363 . S
C1593 C1596 1.363 . S
N1594 C1596 1.356 . S
N1594 H1606 0.984 . S
N1594 H1607 0.985 . S
N1595 C1597 1.356 . S
N1595 H1600 0.984 . S
N1595 H1601 0.985 . S
C1596 C1590 1.379 . S
C1596 C1593 1.363 . S
C1596 N1594 1.356 . S
C1597 C1591 1.363 . S
C1597 C1592 1.379 . S
C1597 N1595 1.356 . S
N1598 C1590 1.356 . S
N1598 H1604 0.984 . S
N1598 H1605 0.984 . S
N1599 C1592 1.356 . S
N1599 H1602 0.984 . S
N1599 H1603 0.985 . S
H1600 N1595 0.984 . S
H1601 N1595 0.985 . S
H1602 N1599 0.984 . S
H1603 N1599 0.985 . S
H1604 N1598 0.984 . S
H1605 N1598 0.984 . S
H1606 N1594 0.984 . S
H1607 N1594 0.985 . S
C1608 C1609 1.363 . S
C1608 C1614 1.379 . S
C1608 N1616 1.356 . S
C1609 C1608 1.363 . S
C1609 C1615 1.363 . S
C1610 C1611 1.363 . S
C1610 C1615 1.379 . S
C1610 N1617 1.356 . S
C1611 C1610 1.363 . S
C1611 C1614 1.363 . S
N1612 C1614 1.356 . S
N1612 H1624 0.984 . S
N1612 H1625 0.985 . S
N1613 C1615 1.356 . S
N1613 H1618 0.984 . S
N1613 H1619 0.985 . S
C1614 C1608 1.379 . S
C1614 C1611 1.363 . S
C1614 N1612 1.356 . S
C1615 C1609 1.363 . S
C1615 C1610 1.379 . S
C1615 N1613 1.356 . S
N1616 C1608 1.356 . S
N1616 H1622 0.984 . S
N1616 H1623 0.984 . S
N1617 C1610 1.356 . S
N1617 H1620 0.984 . S
N1617 H1621 0.985 . S
H1618 N1613 0.984 . S
H1619 N1613 0.985 . S
H1620 N1617 0.984 . S
H1621 N1617 0.985 . S
H1622 N1616 0.984 . S
H1623 N1616 0.984 . S
H1624 N1612 0.984 . S
H1625 N1612 0.985 . S
C1626 C1627 1.363 . S
C1626 C1632 1.379 . S
C1626 N1634 1.356 . S
C1627 C1626 1.363 . S
C1627 C1633 1.363 . S
C1628 C1629 1.363 . S
C1628 C1633 1.379 . S
C1628 N1635 1.356 . S
C1629 C1628 1.363 . S
C1629 C1632 1.363 . S
N1630 C1632 1.356 . S
N1630 H1642 0.984 . S
N1630 H1643 0.985 . S
N1631 C1633 1.356 . S
N1631 H1636 0.984 . S
N1631 H1637 0.985 . S
C1632 C1626 1.379 . S
C1632 C1629 1.363 . S
C1632 N1630 1.356 . S
C1633 C1627 1.363 . S
C1633 C1628 1.379 . S
C1633 N1631 1.356 . S
N1634 C1626 1.356 . S
N1634 H1640 0.984 . S
N1634 H1641 0.984 . S
N1635 C1628 1.356 . S
N1635 H1638 0.984 . S
N1635 H1639 0.985 . S
H1636 N1631 0.984 . S
H1637 N1631 0.985 . S
H1638 N1635 0.984 . S
H1639 N1635 0.985 . S
H1640 N1634 0.984 . S
H1641 N1634 0.984 . S
H1642 N1630 0.984 . S
H1643 N1630 0.985 . S
C1644 C1645 1.363 . S
C1644 C1650 1.379 . S
C1644 N1652 1.356 . S
C1645 C1644 1.363 . S
C1645 C1651 1.363 . S
C1646 C1647 1.363 . S
C1646 C1651 1.379 . S
C1646 N1653 1.356 . S
C1647 C1646 1.363 . S
C1647 C1650 1.363 . S
N1648 C1650 1.356 . S
N1648 H1660 0.984 . S
N1648 H1661 0.985 . S
N1649 C1651 1.356 . S
N1649 H1654 0.984 . S
N1649 H1655 0.985 . S
C1650 C1644 1.379 . S
C1650 C1647 1.363 . S
C1650 N1648 1.356 . S
C1651 C1645 1.363 . S
C1651 C1646 1.379 . S
C1651 N1649 1.356 . S
N1652 C1644 1.356 . S
N1652 H1658 0.984 . S
N1652 H1659 0.984 . S
N1653 C1646 1.356 . S
N1653 H1656 0.984 . S
N1653 H1657 0.985 . S
H1654 N1649 0.984 . S
H1655 N1649 0.985 . S
H1656 N1653 0.984 . S
H1657 N1653 0.985 . S
H1658 N1652 0.984 . S
H1659 N1652 0.984 . S
H1660 N1648 0.984 . S
H1661 N1648 0.985 . S
C1662 C1663 1.363 . S
C1662 C1668 1.379 . S
C1662 N1670 1.356 . S
C1663 C1662 1.363 . S
C1663 C1669 1.363 . S
C1664 C1665 1.363 . S
C1664 C1669 1.379 . S
C1664 N1671 1.356 . S
C1665 C1664 1.363 . S
C1665 C1668 1.363 . S
N1666 C1668 1.356 . S
N1666 H1678 0.984 . S
N1666 H1679 0.985 . S
N1667 C1669 1.356 . S
N1667 H1672 0.984 . S
N1667 H1673 0.985 . S
C1668 C1662 1.379 . S
C1668 C1665 1.363 . S
C1668 N1666 1.356 . S
C1669 C1663 1.363 . S
C1669 C1664 1.379 . S
C1669 N1667 1.356 . S
N1670 C1662 1.356 . S
N1670 H1676 0.984 . S
N1670 H1677 0.984 . S
N1671 C1664 1.356 . S
N1671 H1674 0.984 . S
N1671 H1675 0.985 . S
H1672 N1667 0.984 . S
H1673 N1667 0.985 . S
H1674 N1671 0.984 . S
H1675 N1671 0.985 . S
H1676 N1670 0.984 . S
H1677 N1670 0.984 . S
H1678 N1666 0.984 . S
H1679 N1666 0.985 . S
C1680 C1681 1.363 . S
C1680 C1686 1.379 . S
C1680 N1688 1.356 . S
C1681 C1680 1.363 . S
C1681 C1687 1.363 . S
C1682 C1683 1.363 . S
C1682 C1687 1.379 . S
C1682 N1689 1.356 . S
C1683 C1682 1.363 . S
C1683 C1686 1.363 . S
N1684 C1686 1.356 . S
N1684 H1696 0.984 . S
N1684 H1697 0.985 . S
N1685 C1687 1.356 . S
N1685 H1690 0.984 . S
N1685 H1691 0.985 . S
C1686 C1680 1.379 . S
C1686 C1683 1.363 . S
C1686 N1684 1.356 . S
C1687 C1681 1.363 . S
C1687 C1682 1.379 . S
C1687 N1685 1.356 . S
N1688 C1680 1.356 . S
N1688 H1694 0.984 . S
N1688 H1695 0.984 . S
N1689 C1682 1.356 . S
N1689 H1692 0.984 . S
N1689 H1693 0.985 . S
H1690 N1685 0.984 . S
H1691 N1685 0.985 . S
H1692 N1689 0.984 . S
H1693 N1689 0.985 . S
H1694 N1688 0.984 . S
H1695 N1688 0.984 . S
H1696 N1684 0.984 . S
H1697 N1684 0.985 . S
C1698 C1699 1.363 . S
C1698 C1704 1.379 . S
C1698 N1706 1.356 . S
C1699 C1698 1.363 . S
C1699 C1705 1.363 . S
C1700 C1701 1.363 . S
C1700 C1705 1.379 . S
C1700 N1707 1.356 . S
C1701 C1700 1.363 . S
C1701 C1704 1.363 . S
N1702 C1704 1.356 . S
N1702 H1714 0.984 . S
N1702 H1715 0.985 . S
N1703 C1705 1.356 . S
N1703 H1708 0.984 . S
N1703 H1709 0.985 . S
C1704 C1698 1.379 . S
C1704 C1701 1.363 . S
C1704 N1702 1.356 . S
C1705 C1699 1.363 . S
C1705 C1700 1.379 . S
C1705 N1703 1.356 . S
N1706 C1698 1.356 . S
N1706 H1712 0.984 . S
N1706 H1713 0.984 . S
N1707 C1700 1.356 . S
N1707 H1710 0.984 . S
N1707 H1711 0.985 . S
H1708 N1703 0.984 . S
H1709 N1703 0.985 . S
H1710 N1707 0.984 . S
H1711 N1707 0.985 . S
H1712 N1706 0.984 . S
H1713 N1706 0.984 . S
H1714 N1702 0.984 . S
H1715 N1702 0.985 . S
C1716 C1717 1.363 . S
C1716 C1722 1.379 . S
C1716 N1724 1.356 . S
C1717 C1716 1.363 . S
C1717 C1723 1.363 . S
C1718 C1719 1.363 . S
C1718 C1723 1.379 . S
C1718 N1725 1.356 . S
C1719 C1718 1.363 . S
C1719 C1722 1.363 . S
N1720 C1722 1.356 . S
N1720 H1732 0.984 . S
N1720 H1733 0.985 1_545 S
N1721 C1723 1.356 . S
N1721 H1726 0.984 . S
N1721 H1727 0.985 . S
C1722 C1716 1.379 . S
C1722 C1719 1.363 . S
C1722 N1720 1.356 . S
C1723 C1717 1.363 . S
C1723 C1718 1.379 . S
C1723 N1721 1.356 . S
N1724 C1716 1.356 . S
N1724 H1730 0.984 . S
N1724 H1731 0.984 . S
N1725 C1718 1.356 . S
N1725 H1728 0.983 1_545 S
N1725 H1729 0.985 . S
H1726 N1721 0.984 . S
H1727 N1721 0.985 . S
H1728 N1725 0.983 1_565 S
H1729 N1725 0.985 . S
H1730 N1724 0.984 . S
H1731 N1724 0.984 . S
H1732 N1720 0.984 . S
H1733 N1720 0.985 1_565 S
C1734 C1735 1.363 . S
C1734 C1740 1.379 . S
C1734 N1742 1.356 . S
C1735 C1734 1.363 . S
C1735 C1741 1.363 . S
C1736 C1737 1.363 . S
C1736 C1741 1.379 . S
C1736 N1743 1.356 . S
C1737 C1736 1.363 . S
C1737 C1740 1.363 . S
N1738 C1740 1.356 . S
N1738 H1750 0.984 . S
N1738 H1751 0.985 . S
N1739 C1741 1.356 . S
N1739 H1744 0.984 . S
N1739 H1745 0.985 . S
C1740 C1734 1.379 . S
C1740 C1737 1.363 . S
C1740 N1738 1.356 . S
C1741 C1735 1.363 . S
C1741 C1736 1.379 . S
C1741 N1739 1.356 . S
N1742 C1734 1.356 . S
N1742 H1748 0.984 . S
N1742 H1749 0.984 . S
N1743 C1736 1.356 . S
N1743 H1746 0.984 . S
N1743 H1747 0.985 . S
H1744 N1739 0.984 . S
H1745 N1739 0.985 . S
H1746 N1743 0.984 . S
H1747 N1743 0.985 . S
H1748 N1742 0.984 . S
H1749 N1742 0.984 . S
H1750 N1738 0.984 . S
H1751 N1738 0.985 . S
C1752 C1753 1.363 . S
C1752 C1758 1.379 . S
C1752 N1760 1.356 . S
C1753 C1752 1.363 . S
C1753 C1759 1.363 . S
C1754 C1755 1.363 . S
C1754 C1759 1.379 . S
C1754 N1761 1.356 . S
C1755 C1754 1.363 . S
C1755 C1758 1.363 . S
N1756 C1758 1.356 . S
N1756 H1768 0.984 . S
N1756 H1769 0.985 . S
N1757 C1759 1.356 . S
N1757 H1762 0.984 . S
N1757 H1763 0.985 . S
C1758 C1752 1.379 . S
C1758 C1755 1.363 . S
C1758 N1756 1.356 . S
C1759 C1753 1.363 . S
C1759 C1754 1.379 . S
C1759 N1757 1.356 . S
N1760 C1752 1.356 . S
N1760 H1766 0.984 . S
N1760 H1767 0.984 . S
N1761 C1754 1.356 . S
N1761 H1764 0.984 . S
N1761 H1765 0.985 . S
H1762 N1757 0.984 . S
H1763 N1757 0.985 . S
H1764 N1761 0.984 . S
H1765 N1761 0.985 . S
H1766 N1760 0.984 . S
H1767 N1760 0.984 . S
H1768 N1756 0.984 . S
H1769 N1756 0.985 . S
C1770 C1771 1.363 . S
C1770 C1776 1.379 . S
C1770 N1778 1.356 . S
C1771 C1770 1.363 . S
C1771 C1777 1.363 . S
C1772 C1773 1.363 . S
C1772 C1777 1.379 . S
C1772 N1779 1.356 . S
C1773 C1772 1.363 . S
C1773 C1776 1.363 . S
N1774 C1776 1.356 . S
N1774 H1786 0.984 . S
N1774 H1787 0.985 . S
N1775 C1777 1.356 . S
N1775 H1780 0.984 . S
N1775 H1781 0.985 . S
C1776 C1770 1.379 . S
C1776 C1773 1.363 . S
C1776 N1774 1.356 . S
C1777 C1771 1.363 . S
C1777 C1772 1.379 . S
C1777 N1775 1.356 . S
N1778 C1770 1.356 . S
N1778 H1784 0.984 . S
N1778 H1785 0.984 . S
N1779 C1772 1.356 . S
N1779 H1782 0.984 . S
N1779 H1783 0.985 . S
H1780 N1775 0.984 . S
H1781 N1775 0.985 . S
H1782 N1779 0.984 . S
H1783 N1779 0.985 . S
H1784 N1778 0.984 . S
H1785 N1778 0.984 . S
H1786 N1774 0.984 . S
H1787 N1774 0.985 . S
C1788 C1789 1.363 . S
C1788 C1794 1.379 . S
C1788 N1796 1.356 . S
C1789 C1788 1.363 . S
C1789 C1795 1.363 . S
C1790 C1791 1.363 . S
C1790 C1795 1.379 . S
C1790 N1797 1.356 . S
C1791 C1790 1.363 . S
C1791 C1794 1.363 . S
N1792 C1794 1.356 . S
N1792 H1804 0.984 . S
N1792 H1805 0.985 . S
N1793 C1795 1.356 . S
N1793 H1798 0.984 . S
N1793 H1799 0.985 . S
C1794 C1788 1.379 . S
C1794 C1791 1.363 . S
C1794 N1792 1.356 . S
C1795 C1789 1.363 . S
C1795 C1790 1.379 . S
C1795 N1793 1.356 . S
N1796 C1788 1.356 . S
N1796 H1802 0.984 . S
N1796 H1803 0.984 . S
N1797 C1790 1.356 . S
N1797 H1800 0.984 . S
N1797 H1801 0.985 . S
H1798 N1793 0.984 . S
H1799 N1793 0.985 . S
H1800 N1797 0.984 . S
H1801 N1797 0.985 . S
H1802 N1796 0.984 . S
H1803 N1796 0.984 . S
H1804 N1792 0.984 . S
H1805 N1792 0.985 . S
C1806 C1807 1.363 . S
C1806 C1812 1.379 . S
C1806 N1814 1.356 . S
C1807 C1806 1.363 . S
C1807 C1813 1.363 . S
C1808 C1809 1.363 . S
C1808 C1813 1.379 . S
C1808 N1815 1.356 . S
C1809 C1808 1.363 . S
C1809 C1812 1.363 . S
N1810 C1812 1.356 . S
N1810 H1822 0.984 . S
N1810 H1823 0.985 . S
N1811 C1813 1.356 . S
N1811 H1816 0.984 . S
N1811 H1817 0.985 . S
C1812 C1806 1.379 . S
C1812 C1809 1.363 . S
C1812 N1810 1.356 . S
C1813 C1807 1.363 . S
C1813 C1808 1.379 . S
C1813 N1811 1.356 . S
N1814 C1806 1.356 . S
N1814 H1820 0.984 . S
N1814 H1821 0.984 . S
N1815 C1808 1.356 . S
N1815 H1818 0.984 . S
N1815 H1819 0.985 . S
H1816 N1811 0.984 . S
H1817 N1811 0.985 . S
H1818 N1815 0.984 . S
H1819 N1815 0.985 . S
H1820 N1814 0.984 . S
H1821 N1814 0.984 . S
H1822 N1810 0.984 . S
H1823 N1810 0.985 . S
C1824 C1825 1.363 . S
C1824 C1830 1.379 . S
C1824 N1832 1.356 . S
C1825 C1824 1.363 . S
C1825 C1831 1.363 . S
C1826 C1827 1.363 . S
C1826 C1831 1.379 . S
C1826 N1833 1.356 . S
C1827 C1826 1.363 . S
C1827 C1830 1.363 . S
N1828 C1830 1.356 . S
N1828 H1840 0.984 . S
N1828 H1841 0.985 . S
N1829 C1831 1.356 1_556 S
N1829 H1834 0.984 . S
N1829 H1835 0.985 . S
C1830 C1824 1.379 . S
C1830 C1827 1.363 . S
C1830 N1828 1.356 . S
C1831 C1825 1.363 . S
C1831 C1826 1.379 . S
C1831 N1829 1.356 1_554 S
N1832 C1824 1.356 . S
N1832 H1838 0.984 . S
N1832 H1839 0.984 . S
N1833 C1826 1.356 . S
N1833 H1836 0.984 . S
N1833 H1837 0.985 . S
H1834 N1829 0.984 . S
H1835 N1829 0.985 . S
H1836 N1833 0.984 . S
H1837 N1833 0.985 . S
H1838 N1832 0.984 . S
H1839 N1832 0.984 . S
H1840 N1828 0.984 . S
H1841 N1828 0.985 . S
C1842 C1843 1.363 . S
C1842 C1848 1.379 . S
C1842 N1850 1.356 . S
C1843 C1842 1.363 . S
C1843 C1849 1.363 . S
C1844 C1845 1.363 . S
C1844 C1849 1.379 . S
C1844 N1851 1.356 . S
C1845 C1844 1.363 . S
C1845 C1848 1.363 . S
N1846 C1848 1.356 . S
N1846 H1858 0.984 . S
N1846 H1859 0.985 . S
N1847 C1849 1.356 . S
N1847 H1852 0.984 . S
N1847 H1853 0.985 . S
C1848 C1842 1.379 . S
C1848 C1845 1.363 . S
C1848 N1846 1.356 . S
C1849 C1843 1.363 . S
C1849 C1844 1.379 . S
C1849 N1847 1.356 . S
N1850 C1842 1.356 . S
N1850 H1856 0.984 . S
N1850 H1857 0.984 . S
N1851 C1844 1.356 . S
N1851 H1854 0.984 . S
N1851 H1855 0.985 . S
H1852 N1847 0.984 . S
H1853 N1847 0.985 . S
H1854 N1851 0.984 . S
H1855 N1851 0.985 . S
H1856 N1850 0.984 . S
H1857 N1850 0.984 . S
H1858 N1846 0.984 . S
H1859 N1846 0.985 . S
C1860 C1861 1.363 . S
C1860 C1866 1.379 . S
C1860 N1868 1.356 . S
C1861 C1860 1.363 . S
C1861 C1867 1.363 . S
C1862 C1863 1.363 . S
C1862 C1867 1.379 . S
C1862 N1869 1.356 . S
C1863 C1862 1.363 . S
C1863 C1866 1.363 . S
N1864 C1866 1.356 . S
N1864 H1876 0.984 . S
N1864 H1877 0.985 . S
N1865 C1867 1.356 . S
N1865 H1870 0.984 . S
N1865 H1871 0.985 . S
C1866 C1860 1.379 . S
C1866 C1863 1.363 . S
C1866 N1864 1.356 . S
C1867 C1861 1.363 . S
C1867 C1862 1.379 . S
C1867 N1865 1.356 . S
N1868 C1860 1.356 . S
N1868 H1874 0.984 . S
N1868 H1875 0.984 . S
N1869 C1862 1.356 . S
N1869 H1872 0.984 . S
N1869 H1873 0.985 . S
H1870 N1865 0.984 . S
H1871 N1865 0.985 . S
H1872 N1869 0.984 . S
H1873 N1869 0.985 . S
H1874 N1868 0.984 . S
H1875 N1868 0.984 . S
H1876 N1864 0.984 . S
H1877 N1864 0.985 . S
C1878 C1879 1.363 . S
C1878 C1884 1.379 . S
C1878 N1886 1.356 . S
C1879 C1878 1.363 . S
C1879 C1885 1.363 . S
C1880 C1881 1.363 . S
C1880 C1885 1.379 . S
C1880 N1887 1.356 . S
C1881 C1880 1.363 . S
C1881 C1884 1.363 . S
N1882 C1884 1.356 . S
N1882 H1894 0.984 . S
N1882 H1895 0.985 . S
N1883 C1885 1.356 . S
N1883 H1888 0.984 . S
N1883 H1889 0.985 . S
C1884 C1878 1.379 . S
C1884 C1881 1.363 . S
C1884 N1882 1.356 . S
C1885 C1879 1.363 . S
C1885 C1880 1.379 . S
C1885 N1883 1.356 . S
N1886 C1878 1.356 . S
N1886 H1892 0.984 . S
N1886 H1893 0.984 . S
N1887 C1880 1.356 . S
N1887 H1890 0.984 . S
N1887 H1891 0.985 . S
H1888 N1883 0.984 . S
H1889 N1883 0.985 . S
H1890 N1887 0.984 . S
H1891 N1887 0.985 . S
H1892 N1886 0.984 . S
H1893 N1886 0.984 . S
H1894 N1882 0.984 . S
H1895 N1882 0.985 . S
C1896 C1897 1.363 . S
C1896 C1902 1.379 . S
C1896 N1904 1.356 . S
C1897 C1896 1.363 . S
C1897 C1903 1.363 . S
C1898 C1899 1.363 . S
C1898 C1903 1.379 . S
C1898 N1905 1.356 . S
C1899 C1898 1.363 . S
C1899 C1902 1.363 . S
N1900 C1902 1.356 . S
N1900 H1912 0.984 . S
N1900 H1913 0.985 . S
N1901 C1903 1.356 . S
N1901 H1906 0.984 . S
N1901 H1907 0.985 . S
C1902 C1896 1.379 . S
C1902 C1899 1.363 . S
C1902 N1900 1.356 . S
C1903 C1897 1.363 . S
C1903 C1898 1.379 . S
C1903 N1901 1.356 . S
N1904 C1896 1.356 . S
N1904 H1910 0.984 . S
N1904 H1911 0.984 . S
N1905 C1898 1.356 . S
N1905 H1908 0.984 . S
N1905 H1909 0.985 . S
H1906 N1901 0.984 . S
H1907 N1901 0.985 . S
H1908 N1905 0.984 . S
H1909 N1905 0.985 . S
H1910 N1904 0.984 . S
H1911 N1904 0.984 . S
H1912 N1900 0.984 . S
H1913 N1900 0.985 . S
C1914 C1915 1.363 . S
C1914 C1920 1.379 . S
C1914 N1922 1.356 . S
C1915 C1914 1.363 . S
C1915 C1921 1.363 . S
C1916 C1917 1.363 . S
C1916 C1921 1.379 . S
C1916 N1923 1.356 . S
C1917 C1916 1.363 . S
C1917 C1920 1.363 . S
N1918 C1920 1.356 . S
N1918 H1930 0.984 . S
N1918 H1931 0.985 . S
N1919 C1921 1.356 . S
N1919 H1924 0.984 . S
N1919 H1925 0.985 . S
C1920 C1914 1.379 . S
C1920 C1917 1.363 . S
C1920 N1918 1.356 . S
C1921 C1915 1.363 . S
C1921 C1916 1.379 . S
C1921 N1919 1.356 . S
N1922 C1914 1.356 . S
N1922 H1928 0.984 . S
N1922 H1929 0.984 . S
N1923 C1916 1.356 . S
N1923 H1926 0.984 . S
N1923 H1927 0.985 . S
H1924 N1919 0.984 . S
H1925 N1919 0.985 . S
H1926 N1923 0.984 . S
H1927 N1923 0.985 . S
H1928 N1922 0.984 . S
H1929 N1922 0.984 . S
H1930 N1918 0.984 . S
H1931 N1918 0.985 . S
C1932 C1933 1.363 . S
C1932 C1938 1.379 . S
C1932 N1940 1.356 . S
C1933 C1932 1.363 . S
C1933 C1939 1.363 . S
C1934 C1935 1.363 . S
C1934 C1939 1.379 . S
C1934 N1941 1.356 . S
C1935 C1934 1.363 . S
C1935 C1938 1.363 . S
N1936 C1938 1.356 . S
N1936 H1948 0.984 . S
N1936 H1949 0.985 . S
N1937 C1939 1.356 . S
N1937 H1942 0.984 . S
N1937 H1943 0.985 . S
C1938 C1932 1.379 . S
C1938 C1935 1.363 . S
C1938 N1936 1.356 . S
C1939 C1933 1.363 . S
C1939 C1934 1.379 . S
C1939 N1937 1.356 . S
N1940 C1932 1.356 . S
N1940 H1946 0.984 . S
N1940 H1947 0.984 . S
N1941 C1934 1.356 . S
N1941 H1944 0.984 . S
N1941 H1945 0.985 . S
H1942 N1937 0.984 . S
H1943 N1937 0.985 . S
H1944 N1941 0.984 . S
H1945 N1941 0.985 . S
H1946 N1940 0.984 . S
H1947 N1940 0.984 . S
H1948 N1936 0.984 . S
H1949 N1936 0.985 . S
C1950 C1951 1.363 . S
C1950 C1956 1.379 . S
C1950 N1958 1.356 . S
C1951 C1950 1.363 . S
C1951 C1957 1.363 . S
C1952 C1953 1.363 . S
C1952 C1957 1.379 . S
C1952 N1959 1.356 . S
C1953 C1952 1.363 . S
C1953 C1956 1.363 . S
N1954 C1956 1.356 . S
N1954 H1966 0.984 . S
N1954 H1967 0.985 . S
N1955 C1957 1.356 . S
N1955 H1960 0.984 . S
N1955 H1961 0.985 . S
C1956 C1950 1.379 . S
C1956 C1953 1.363 . S
C1956 N1954 1.356 . S
C1957 C1951 1.363 . S
C1957 C1952 1.379 . S
C1957 N1955 1.356 . S
N1958 C1950 1.356 . S
N1958 H1964 0.984 . S
N1958 H1965 0.984 . S
N1959 C1952 1.356 . S
N1959 H1962 0.984 . S
N1959 H1963 0.985 . S
H1960 N1955 0.984 . S
H1961 N1955 0.985 . S
H1962 N1959 0.984 . S
H1963 N1959 0.985 . S
H1964 N1958 0.984 . S
H1965 N1958 0.984 . S
H1966 N1954 0.984 . S
H1967 N1954 0.985 . S
C1968 C1969 1.363 . S
C1968 C1974 1.379 . S
C1968 N1976 1.356 . S
C1969 C1968 1.363 . S
C1969 C1975 1.363 . S
C1970 C1971 1.363 . S
C1970 C1975 1.379 . S
C1970 N1977 1.356 1_655 S
C1971 C1970 1.363 . S
C1971 C1974 1.363 . S
N1972 C1974 1.356 . S
N1972 H1984 0.984 . S
N1972 H1985 0.985 . S
N1973 C1975 1.356 1_455 S
N1973 H1978 0.984 . S
N1973 H1979 0.985 . S
C1974 C1968 1.379 . S
C1974 C1971 1.363 . S
C1974 N1972 1.356 . S
C1975 C1969 1.363 . S
C1975 C1970 1.379 . S
C1975 N1973 1.356 1_655 S
N1976 C1968 1.356 . S
N1976 H1982 0.984 . S
N1976 H1983 0.984 . S
N1977 C1970 1.356 1_455 S
N1977 H1980 0.984 . S
N1977 H1981 0.985 . S
H1978 N1973 0.984 . S
H1979 N1973 0.985 . S
H1980 N1977 0.984 . S
H1981 N1977 0.985 . S
H1982 N1976 0.984 . S
H1983 N1976 0.984 . S
H1984 N1972 0.984 . S
H1985 N1972 0.985 . S
C1986 C1987 1.363 . S
C1986 C1992 1.379 . S
C1986 N1994 1.356 . S
C1987 C1986 1.363 . S
C1987 C1993 1.363 . S
C1988 C1989 1.363 . S
C1988 C1993 1.379 . S
C1988 N1995 1.356 . S
C1989 C1988 1.363 . S
C1989 C1992 1.363 . S
N1990 C1992 1.356 . S
N1990 H2002 0.984 . S
N1990 H2003 0.985 . S
N1991 C1993 1.356 . S
N1991 H1996 0.984 . S
N1991 H1997 0.985 . S
C1992 C1986 1.379 . S
C1992 C1989 1.363 . S
C1992 N1990 1.356 . S
C1993 C1987 1.363 . S
C1993 C1988 1.379 . S
C1993 N1991 1.356 . S
N1994 C1986 1.356 . S
N1994 H2000 0.984 . S
N1994 H2001 0.984 . S
N1995 C1988 1.356 . S
N1995 H1998 0.984 . S
N1995 H1999 0.985 . S
H1996 N1991 0.984 . S
H1997 N1991 0.985 . S
H1998 N1995 0.984 . S
H1999 N1995 0.985 . S
H2000 N1994 0.984 . S
H2001 N1994 0.984 . S
H2002 N1990 0.984 . S
H2003 N1990 0.985 . S
C2004 C2005 1.363 . S
C2004 C2010 1.379 . S
C2004 N2012 1.356 . S
C2005 C2004 1.363 . S
C2005 C2011 1.363 . S
C2006 C2007 1.363 . S
C2006 C2011 1.379 . S
C2006 N2013 1.356 . S
C2007 C2006 1.363 . S
C2007 C2010 1.363 . S
N2008 C2010 1.356 . S
N2008 H2020 0.984 . S
N2008 H2021 0.985 . S
N2009 C2011 1.356 . S
N2009 H2014 0.984 . S
N2009 H2015 0.985 . S
C2010 C2004 1.379 . S
C2010 C2007 1.363 . S
C2010 N2008 1.356 . S
C2011 C2005 1.363 . S
C2011 C2006 1.379 . S
C2011 N2009 1.356 . S
N2012 C2004 1.356 . S
N2012 H2018 0.984 . S
N2012 H2019 0.984 . S
N2013 C2006 1.356 . S
N2013 H2016 0.984 . S
N2013 H2017 0.985 . S
H2014 N2009 0.984 . S
H2015 N2009 0.985 . S
H2016 N2013 0.984 . S
H2017 N2013 0.985 . S
H2018 N2012 0.984 . S
H2019 N2012 0.984 . S
H2020 N2008 0.984 . S
H2021 N2008 0.985 . S
C2022 C2023 1.363 . S
C2022 C2028 1.379 . S
C2022 N2030 1.356 . S
C2023 C2022 1.363 . S
C2023 C2029 1.326 1_556 S
C2024 C2025 1.363 1_554 S
C2024 C2029 1.386 . S
C2024 N2031 1.356 . S
C2025 C2024 1.363 1_556 S
C2025 C2028 1.363 . S
N2026 C2028 1.356 . S
N2026 H2038 0.984 . S
N2026 H2039 0.985 . S
N2027 C2029 1.379 . S
N2027 H2032 0.984 . S
N2027 H2033 0.985 . S
C2028 C2022 1.379 . S
C2028 C2025 1.363 . S
C2028 N2026 1.356 . S
C2029 C2023 1.326 1_554 S
C2029 C2024 1.386 . S
C2029 N2027 1.379 . S
N2030 C2022 1.356 . S
N2030 H2036 0.984 . S
N2030 H2037 0.984 . S
N2031 C2024 1.356 . S
N2031 H2034 0.984 . S
N2031 H2035 0.985 . S
H2032 N2027 0.984 . S
H2033 N2027 0.985 . S
H2034 N2031 0.984 . S
H2035 N2031 0.985 . S
H2036 N2030 0.984 . S
H2037 N2030 0.984 . S
H2038 N2026 0.984 . S
H2039 N2026 0.985 . S
C2040 C2041 1.363 . S
C2040 C2046 1.379 . S
C2040 N2048 1.356 . S
C2041 C2040 1.363 . S
C2041 C2047 1.363 . S
C2042 C2043 1.363 . S
C2042 C2047 1.379 . S
C2042 N2049 1.356 . S
C2043 C2042 1.363 . S
C2043 C2046 1.363 . S
N2044 C2046 1.356 . S
N2044 H2056 0.984 . S
N2044 H2057 0.985 . S
N2045 C2047 1.356 1_455 S
N2045 H2050 0.984 . S
N2045 H2051 0.985 . S
C2046 C2040 1.379 . S
C2046 C2043 1.363 . S
C2046 N2044 1.356 . S
C2047 C2041 1.363 . S
C2047 C2042 1.379 . S
C2047 N2045 1.356 1_655 S
N2048 C2040 1.356 . S
N2048 H2054 0.984 . S
N2048 H2055 0.984 . S
N2049 C2042 1.356 . S
N2049 H2052 0.984 . S
N2049 H2053 0.985 1_655 S
H2050 N2045 0.984 . S
H2051 N2045 0.985 . S
H2052 N2049 0.984 . S
H2053 N2049 0.985 1_455 S
H2054 N2048 0.984 . S
H2055 N2048 0.984 . S
H2056 N2044 0.984 . S
H2057 N2044 0.985 . S
C2058 C2059 1.363 . S
C2058 C2064 1.379 . S
C2058 N2066 1.356 . S
C2059 C2058 1.363 . S
C2059 C2065 1.363 . S
C2060 C2061 1.363 . S
C2060 C2065 1.379 . S
C2060 N2067 1.356 . S
C2061 C2060 1.363 . S
C2061 C2064 1.363 . S
N2062 C2064 1.356 . S
N2062 H2074 0.984 . S
N2062 H2075 0.985 . S
N2063 C2065 1.356 . S
N2063 H2068 0.984 . S
N2063 H2069 0.985 . S
C2064 C2058 1.379 . S
C2064 C2061 1.363 . S
C2064 N2062 1.356 . S
C2065 C2059 1.363 . S
C2065 C2060 1.379 . S
C2065 N2063 1.356 . S
N2066 C2058 1.356 . S
N2066 H2072 0.984 . S
N2066 H2073 0.984 . S
N2067 C2060 1.356 . S
N2067 H2070 0.984 . S
N2067 H2071 0.985 . S
H2068 N2063 0.984 . S
H2069 N2063 0.985 . S
H2070 N2067 0.984 . S
H2071 N2067 0.985 . S
H2072 N2066 0.984 . S
H2073 N2066 0.984 . S
H2074 N2062 0.984 . S
H2075 N2062 0.985 . S
C2076 C2077 1.363 . S
C2076 C2082 1.379 . S
C2076 N2084 1.356 . S
C2077 C2076 1.363 . S
C2077 C2083 1.363 . S
C2078 C2079 1.363 . S
C2078 C2083 1.379 . S
C2078 N2085 1.356 . S
C2079 C2078 1.363 . S
C2079 C2082 1.363 . S
N2080 C2082 1.356 . S
N2080 H2092 0.984 . S
N2080 H2093 0.985 . S
N2081 C2083 1.356 . S
N2081 H2086 0.984 . S
N2081 H2087 0.985 . S
C2082 C2076 1.379 . S
C2082 C2079 1.363 . S
C2082 N2080 1.356 . S
C2083 C2077 1.363 . S
C2083 C2078 1.379 . S
C2083 N2081 1.356 . S
N2084 C2076 1.356 . S
N2084 H2090 0.984 . S
N2084 H2091 0.984 . S
N2085 C2078 1.356 . S
N2085 H2088 0.984 . S
N2085 H2089 0.985 . S
H2086 N2081 0.984 . S
H2087 N2081 0.985 . S
H2088 N2085 0.984 . S
H2089 N2085 0.985 . S
H2090 N2084 0.984 . S
H2091 N2084 0.984 . S
H2092 N2080 0.984 . S
H2093 N2080 0.985 . S
C2094 C2095 1.363 . S
C2094 C2100 1.379 . S
C2094 N2102 1.356 . S
C2095 C2094 1.363 . S
C2095 C2101 1.363 . S
C2096 C2097 1.363 . S
C2096 C2101 1.379 . S
C2096 N2103 1.356 . S
C2097 C2096 1.363 . S
C2097 C2100 1.363 . S
N2098 C2100 1.356 . S
N2098 H2110 0.984 . S
N2098 H2111 0.985 . S
N2099 C2101 1.356 . S
N2099 H2104 0.984 . S
N2099 H2105 0.985 . S
C2100 C2094 1.379 . S
C2100 C2097 1.363 . S
C2100 N2098 1.356 . S
C2101 C2095 1.363 . S
C2101 C2096 1.379 . S
C2101 N2099 1.356 . S
N2102 C2094 1.356 . S
N2102 H2108 0.984 . S
N2102 H2109 0.984 . S
N2103 C2096 1.356 . S
N2103 H2106 0.984 . S
N2103 H2107 0.985 . S
H2104 N2099 0.984 . S
H2105 N2099 0.985 . S
H2106 N2103 0.984 . S
H2107 N2103 0.985 . S
H2108 N2102 0.984 . S
H2109 N2102 0.984 . S
H2110 N2098 0.984 . S
H2111 N2098 0.985 . S
C2112 C2113 1.363 . S
C2112 C2118 1.379 . S
C2112 N2120 1.356 . S
C2113 C2112 1.363 . S
C2113 C2119 1.363 1_565 S
C2114 C2115 1.363 1_545 S
C2114 C2119 1.379 . S
C2114 N2121 1.356 . S
C2115 C2114 1.363 1_565 S
C2115 C2118 1.363 . S
N2116 C2118 1.356 . S
N2116 H2128 0.984 . S
N2116 H2129 0.985 . S
N2117 C2119 1.356 . S
N2117 H2122 0.984 . S
N2117 H2123 0.985 . S
C2118 C2112 1.379 . S
C2118 C2115 1.363 . S
C2118 N2116 1.356 . S
C2119 C2113 1.363 1_545 S
C2119 C2114 1.379 . S
C2119 N2117 1.356 . S
N2120 C2112 1.356 . S
N2120 H2126 0.984 . S
N2120 H2127 0.984 . S
N2121 C2114 1.356 . S
N2121 H2124 0.984 . S
N2121 H2125 0.985 . S
H2122 N2117 0.984 . S
H2123 N2117 0.985 . S
H2124 N2121 0.984 . S
H2125 N2121 0.985 . S
H2126 N2120 0.984 . S
H2127 N2120 0.984 . S
H2128 N2116 0.984 . S
H2129 N2116 0.985 . S
C2130 C2131 1.363 1_545 S
C2130 C2136 1.379 1_545 S
C2130 N2138 1.356 . S
C2131 C2130 1.363 1_565 S
C2131 C2137 1.363 . S
C2132 C2133 1.363 . S
C2132 C2137 1.379 . S
C2132 N2139 1.356 . S
C2133 C2132 1.363 . S
C2133 C2136 1.363 . S
N2134 C2136 1.356 1_545 S
N2134 H2146 0.984 . S
N2134 H2147 0.985 . S
N2135 C2137 1.356 . S
N2135 H2140 0.984 . S
N2135 H2141 0.985 . S
C2136 C2130 1.379 1_565 S
C2136 C2133 1.363 . S
C2136 N2134 1.356 1_565 S
C2137 C2131 1.363 . S
C2137 C2132 1.379 . S
C2137 N2135 1.356 . S
N2138 C2130 1.356 . S
N2138 H2144 0.984 . S
N2138 H2145 0.984 . S
N2139 C2132 1.356 . S
N2139 H2142 0.984 . S
N2139 H2143 0.985 . S
H2140 N2135 0.984 . S
H2141 N2135 0.985 . S
H2142 N2139 0.984 . S
H2143 N2139 0.985 . S
H2144 N2138 0.984 . S
H2145 N2138 0.984 . S
H2146 N2134 0.984 . S
H2147 N2134 0.985 . S
C2148 C2149 1.363 . S
C2148 C2154 1.379 . S
C2148 N2156 1.356 . S
C2149 C2148 1.363 . S
C2149 C2155 1.363 . S
C2150 C2151 1.363 . S
C2150 C2155 1.379 . S
C2150 N2157 1.356 . S
C2151 C2150 1.363 . S
C2151 C2154 1.363 . S
N2152 C2154 1.356 . S
N2152 H2164 0.984 . S
N2152 H2165 0.985 . S
N2153 C2155 1.356 . S
N2153 H2158 0.984 . S
N2153 H2159 0.985 . S
C2154 C2148 1.379 . S
C2154 C2151 1.363 . S
C2154 N2152 1.356 . S
C2155 C2149 1.363 . S
C2155 C2150 1.379 . S
C2155 N2153 1.356 . S
N2156 C2148 1.356 . S
N2156 H2162 0.984 . S
N2156 H2163 0.984 . S
N2157 C2150 1.356 . S
N2157 H2160 0.984 . S
N2157 H2161 0.985 . S
H2158 N2153 0.984 . S
H2159 N2153 0.985 . S
H2160 N2157 0.984 . S
H2161 N2157 0.985 . S
H2162 N2156 0.984 . S
H2163 N2156 0.984 . S
H2164 N2152 0.984 . S
H2165 N2152 0.985 . S
C2166 C2167 1.363 . S
C2166 C2172 1.379 . S
C2166 N2174 1.356 . S
C2167 C2166 1.363 . S
C2167 C2173 1.363 . S
C2168 C2169 1.363 . S
C2168 C2173 1.379 . S
C2168 N2175 1.356 . S
C2169 C2168 1.363 . S
C2169 C2172 1.363 . S
N2170 C2172 1.356 . S
N2170 H2182 0.984 . S
N2170 H2183 0.985 . S
N2171 C2173 1.356 . S
N2171 H2176 0.984 . S
N2171 H2177 0.985 . S
C2172 C2166 1.379 . S
C2172 C2169 1.363 . S
C2172 N2170 1.356 . S
C2173 C2167 1.363 . S
C2173 C2168 1.379 . S
C2173 N2171 1.356 . S
N2174 C2166 1.356 . S
N2174 H2180 0.984 . S
N2174 H2181 0.984 . S
N2175 C2168 1.356 . S
N2175 H2178 0.984 . S
N2175 H2179 0.985 . S
H2176 N2171 0.984 . S
H2177 N2171 0.985 . S
H2178 N2175 0.984 . S
H2179 N2175 0.985 . S
H2180 N2174 0.984 . S
H2181 N2174 0.984 . S
H2182 N2170 0.984 . S
H2183 N2170 0.985 . S
C2184 C2185 1.363 . S
C2184 C2190 1.379 . S
C2184 N2192 1.356 . S
C2185 C2184 1.363 . S
C2185 C2191 1.363 . S
C2186 C2187 1.363 . S
C2186 C2191 1.379 . S
C2186 N2193 1.356 1_556 S
C2187 C2186 1.363 . S
C2187 C2190 1.363 . S
N2188 C2190 1.356 . S
N2188 H2200 0.984 . S
N2188 H2201 0.985 . S
N2189 C2191 1.343 1_554 S
N2189 H2194 0.977 1_554 S
N2189 H2195 1.009 . S
C2190 C2184 1.379 . S
C2190 C2187 1.363 . S
C2190 N2188 1.356 . S
C2191 C2185 1.363 . S
C2191 C2186 1.379 . S
C2191 N2189 1.343 1_556 S
N2192 C2184 1.356 . S
N2192 H2198 0.984 . S
N2192 H2199 0.984 . S
N2193 C2186 1.356 1_554 S
N2193 H2196 0.991 . S
N2193 H2197 0.985 . S
H2194 N2189 0.977 1_556 S
H2195 N2189 1.009 . S
H2196 N2193 0.991 . S
H2197 N2193 0.985 . S
H2198 N2192 0.984 . S
H2199 N2192 0.984 . S
H2200 N2188 0.984 . S
H2201 N2188 0.985 . S
C2202 C2203 1.363 . S
C2202 C2208 1.379 . S
C2202 N2210 1.356 . S
C2203 C2202 1.363 . S
C2203 C2209 1.363 . S
C2204 C2205 1.363 . S
C2204 C2209 1.379 . S
C2204 N2211 1.356 . S
C2205 C2204 1.363 . S
C2205 C2208 1.363 . S
N2206 C2208 1.356 . S
N2206 H2218 0.984 . S
N2206 H2219 0.985 . S
N2207 C2209 1.356 . S
N2207 H2212 0.984 . S
N2207 H2213 0.985 . S
C2208 C2202 1.379 . S
C2208 C2205 1.363 . S
C2208 N2206 1.356 . S
C2209 C2203 1.363 . S
C2209 C2204 1.379 . S
C2209 N2207 1.356 . S
N2210 C2202 1.356 . S
N2210 H2216 0.984 . S
N2210 H2217 0.984 . S
N2211 C2204 1.356 . S
N2211 H2214 0.984 . S
N2211 H2215 0.985 . S
H2212 N2207 0.984 . S
H2213 N2207 0.985 . S
H2214 N2211 0.984 . S
H2215 N2211 0.985 . S
H2216 N2210 0.984 . S
H2217 N2210 0.984 . S
H2218 N2206 0.984 . S
H2219 N2206 0.985 . S
C2220 C2221 1.363 . S
C2220 C2226 1.379 . S
C2220 N2228 1.356 . S
C2221 C2220 1.363 . S
C2221 C2227 1.363 . S
C2222 C2223 1.363 . S
C2222 C2227 1.379 . S
C2222 N2229 1.356 . S
C2223 C2222 1.363 . S
C2223 C2226 1.363 . S
N2224 C2226 1.356 . S
N2224 H2236 0.984 . S
N2224 H2237 0.985 . S
N2225 C2227 1.356 . S
N2225 H2230 0.984 . S
N2225 H2231 0.985 . S
C2226 C2220 1.379 . S
C2226 C2223 1.363 . S
C2226 N2224 1.356 . S
C2227 C2221 1.363 . S
C2227 C2222 1.379 . S
C2227 N2225 1.356 . S
N2228 C2220 1.356 . S
N2228 H2234 0.984 . S
N2228 H2235 0.984 . S
N2229 C2222 1.356 . S
N2229 H2232 0.984 . S
N2229 H2233 0.985 . S
H2230 N2225 0.984 . S
H2231 N2225 0.985 . S
H2232 N2229 0.984 . S
H2233 N2229 0.985 . S
H2234 N2228 0.984 . S
H2235 N2228 0.984 . S
H2236 N2224 0.984 . S
H2237 N2224 0.985 . S
C2238 C2239 1.363 . S
C2238 C2244 1.379 . S
C2238 N2246 1.356 . S
C2239 C2238 1.363 . S
C2239 C2245 1.363 . S
C2240 C2241 1.363 . S
C2240 C2245 1.379 . S
C2240 N2247 1.356 . S
C2241 C2240 1.363 . S
C2241 C2244 1.363 . S
N2242 C2244 1.356 . S
N2242 H2254 0.984 . S
N2242 H2255 0.985 . S
N2243 C2245 1.356 . S
N2243 H2248 0.984 . S
N2243 H2249 0.985 . S
C2244 C2238 1.379 . S
C2244 C2241 1.363 . S
C2244 N2242 1.356 . S
C2245 C2239 1.363 . S
C2245 C2240 1.379 . S
C2245 N2243 1.356 . S
N2246 C2238 1.356 . S
N2246 H2252 0.984 . S
N2246 H2253 0.984 . S
N2247 C2240 1.356 . S
N2247 H2250 0.984 . S
N2247 H2251 0.985 . S
H2248 N2243 0.984 . S
H2249 N2243 0.985 . S
H2250 N2247 0.984 . S
H2251 N2247 0.985 . S
H2252 N2246 0.984 . S
H2253 N2246 0.984 . S
H2254 N2242 0.984 . S
H2255 N2242 0.985 . S
C2256 C2257 1.363 . S
C2256 C2262 1.379 . S
C2256 N2264 1.356 . S
C2257 C2256 1.363 . S
C2257 C2263 1.363 . S
C2258 C2259 1.363 . S
C2258 C2263 1.379 . S
C2258 N2265 1.356 . S
C2259 C2258 1.363 . S
C2259 C2262 1.363 . S
N2260 C2262 1.356 . S
N2260 H2272 0.984 . S
N2260 H2273 0.985 . S
N2261 C2263 1.356 . S
N2261 H2266 0.984 . S
N2261 H2267 0.985 . S
C2262 C2256 1.379 . S
C2262 C2259 1.363 . S
C2262 N2260 1.356 . S
C2263 C2257 1.363 . S
C2263 C2258 1.379 . S
C2263 N2261 1.356 . S
N2264 C2256 1.356 . S
N2264 H2270 0.984 . S
N2264 H2271 0.984 . S
N2265 C2258 1.356 . S
N2265 H2268 0.984 . S
N2265 H2269 0.985 . S
H2266 N2261 0.984 . S
H2267 N2261 0.985 . S
H2268 N2265 0.984 . S
H2269 N2265 0.985 . S
H2270 N2264 0.984 . S
H2271 N2264 0.984 . S
H2272 N2260 0.984 . S
H2273 N2260 0.985 . S
C2274 C2275 1.363 . S
C2274 C2280 1.379 . S
C2274 N2282 1.356 . S
C2275 C2274 1.363 . S
C2275 C2281 1.363 . S
C2276 C2277 1.363 . S
C2276 C2281 1.379 . S
C2276 N2283 1.356 . S
C2277 C2276 1.363 . S
C2277 C2280 1.363 . S
N2278 C2280 1.356 . S
N2278 H2290 0.984 . S
N2278 H2291 0.985 . S
N2279 C2281 1.356 . S
N2279 H2284 0.984 . S
N2279 H2285 0.985 . S
C2280 C2274 1.379 . S
C2280 C2277 1.363 . S
C2280 N2278 1.356 . S
C2281 C2275 1.363 . S
C2281 C2276 1.379 . S
C2281 N2279 1.356 . S
N2282 C2274 1.356 . S
N2282 H2288 0.984 . S
N2282 H2289 0.984 . S
N2283 C2276 1.356 . S
N2283 H2286 0.984 . S
N2283 H2287 0.985 . S
H2284 N2279 0.984 . S
H2285 N2279 0.985 . S
H2286 N2283 0.984 . S
H2287 N2283 0.985 . S
H2288 N2282 0.984 . S
H2289 N2282 0.984 . S
H2290 N2278 0.984 . S
H2291 N2278 0.985 . S
C2292 C2293 1.363 . S
C2292 C2298 1.379 . S
C2292 N2300 1.356 . S
C2293 C2292 1.363 . S
C2293 C2299 1.363 . S
C2294 C2295 1.363 . S
C2294 C2299 1.379 . S
C2294 N2301 1.356 . S
C2295 C2294 1.363 . S
C2295 C2298 1.363 . S
N2296 C2298 1.356 . S
N2296 H2308 0.984 . S
N2296 H2309 0.985 . S
N2297 C2299 1.356 . S
N2297 H2302 0.984 . S
N2297 H2303 0.985 . S
C2298 C2292 1.379 . S
C2298 C2295 1.363 . S
C2298 N2296 1.356 . S
C2299 C2293 1.363 . S
C2299 C2294 1.379 . S
C2299 N2297 1.356 . S
N2300 C2292 1.356 . S
N2300 H2306 0.984 . S
N2300 H2307 0.984 . S
N2301 C2294 1.356 . S
N2301 H2304 0.984 . S
N2301 H2305 0.985 . S
H2302 N2297 0.984 . S
H2303 N2297 0.985 . S
H2304 N2301 0.984 . S
H2305 N2301 0.985 . S
H2306 N2300 0.984 . S
H2307 N2300 0.984 . S
H2308 N2296 0.984 . S
H2309 N2296 0.985 . S
C2310 C2311 1.363 . S
C2310 C2316 1.379 . S
C2310 N2318 1.356 . S
C2311 C2310 1.363 . S
C2311 C2317 1.363 . S
C2312 C2313 1.363 . S
C2312 C2317 1.379 . S
C2312 N2319 1.356 . S
C2313 C2312 1.363 . S
C2313 C2316 1.363 . S
N2314 C2316 1.356 . S
N2314 H2326 0.984 . S
N2314 H2327 0.985 . S
N2315 C2317 1.356 . S
N2315 H2320 0.984 . S
N2315 H2321 0.985 . S
C2316 C2310 1.379 . S
C2316 C2313 1.363 . S
C2316 N2314 1.356 . S
C2317 C2311 1.363 . S
C2317 C2312 1.379 . S
C2317 N2315 1.356 . S
N2318 C2310 1.356 . S
N2318 H2324 0.984 . S
N2318 H2325 0.984 . S
N2319 C2312 1.356 . S
N2319 H2322 0.984 . S
N2319 H2323 0.985 . S
H2320 N2315 0.984 . S
H2321 N2315 0.985 . S
H2322 N2319 0.984 . S
H2323 N2319 0.985 . S
H2324 N2318 0.984 . S
H2325 N2318 0.984 . S
H2326 N2314 0.984 . S
H2327 N2314 0.985 . S
C2328 C2329 1.363 . S
C2328 C2334 1.379 . S
C2328 N2336 1.356 . S
C2329 C2328 1.363 . S
C2329 C2335 1.363 . S
C2330 C2331 1.363 . S
C2330 C2335 1.379 . S
C2330 N2337 1.356 . S
C2331 C2330 1.363 . S
C2331 C2334 1.363 . S
N2332 C2334 1.356 . S
N2332 H2344 0.984 . S
N2332 H2345 0.985 . S
N2333 C2335 1.356 . S
N2333 H2338 0.984 . S
N2333 H2339 0.985 . S
C2334 C2328 1.379 . S
C2334 C2331 1.363 . S
C2334 N2332 1.356 . S
C2335 C2329 1.363 . S
C2335 C2330 1.379 . S
C2335 N2333 1.356 . S
N2336 C2328 1.356 . S
N2336 H2342 0.984 . S
N2336 H2343 0.984 . S
N2337 C2330 1.356 . S
N2337 H2340 0.984 . S
N2337 H2341 0.985 . S
H2338 N2333 0.984 . S
H2339 N2333 0.985 . S
H2340 N2337 0.984 . S
H2341 N2337 0.985 . S
H2342 N2336 0.984 . S
H2343 N2336 0.984 . S
H2344 N2332 0.984 . S
H2345 N2332 0.985 . S
C2346 C2347 1.363 . S
C2346 C2352 1.379 . S
C2346 N2354 1.356 . S
C2347 C2346 1.363 . S
C2347 C2353 1.363 . S
C2348 C2349 1.363 . S
C2348 C2353 1.379 . S
C2348 N2355 1.356 . S
C2349 C2348 1.363 . S
C2349 C2352 1.363 . S
N2350 C2352 1.356 . S
N2350 H2362 0.984 . S
N2350 H2363 0.985 . S
N2351 C2353 1.356 . S
N2351 H2356 0.984 . S
N2351 H2357 0.985 . S
C2352 C2346 1.379 . S
C2352 C2349 1.363 . S
C2352 N2350 1.356 . S
C2353 C2347 1.363 . S
C2353 C2348 1.379 . S
C2353 N2351 1.356 . S
N2354 C2346 1.356 . S
N2354 H2360 0.984 . S
N2354 H2361 0.984 . S
N2355 C2348 1.356 . S
N2355 H2358 0.984 . S
N2355 H2359 0.985 . S
H2356 N2351 0.984 . S
H2357 N2351 0.985 . S
H2358 N2355 0.984 . S
H2359 N2355 0.985 . S
H2360 N2354 0.984 . S
H2361 N2354 0.984 . S
H2362 N2350 0.984 . S
H2363 N2350 0.985 . S
C2364 C2365 1.363 . S
C2364 C2370 1.379 . S
C2364 N2372 1.356 . S
C2365 C2364 1.363 . S
C2365 C2371 1.363 . S
C2366 C2367 1.363 . S
C2366 C2371 1.379 . S
C2366 N2373 1.356 . S
C2367 C2366 1.363 . S
C2367 C2370 1.363 . S
N2368 C2370 1.356 . S
N2368 H2380 0.984 . S
N2368 H2381 0.985 . S
N2369 C2371 1.356 . S
N2369 H2374 0.984 . S
N2369 H2375 0.985 . S
C2370 C2364 1.379 . S
C2370 C2367 1.363 . S
C2370 N2368 1.356 . S
C2371 C2365 1.363 . S
C2371 C2366 1.379 . S
C2371 N2369 1.356 . S
N2372 C2364 1.356 . S
N2372 H2378 0.984 . S
N2372 H2379 0.984 . S
N2373 C2366 1.356 . S
N2373 H2376 0.984 . S
N2373 H2377 0.985 . S
H2374 N2369 0.984 . S
H2375 N2369 0.985 . S
H2376 N2373 0.984 . S
H2377 N2373 0.985 . S
H2378 N2372 0.984 . S
H2379 N2372 0.984 . S
H2380 N2368 0.984 . S
H2381 N2368 0.985 . S
C2382 C2383 1.363 . S
C2382 C2388 1.379 . S
C2382 N2390 1.356 . S
C2383 C2382 1.363 . S
C2383 C2389 1.363 . S
C2384 C2385 1.363 . S
C2384 C2389 1.379 . S
C2384 N2391 1.356 . S
C2385 C2384 1.363 . S
C2385 C2388 1.363 . S
N2386 C2388 1.356 . S
N2386 H2398 0.984 . S
N2386 H2399 0.985 . S
N2387 C2389 1.356 . S
N2387 H2392 0.984 . S
N2387 H2393 0.985 . S
C2388 C2382 1.379 . S
C2388 C2385 1.363 . S
C2388 N2386 1.356 . S
C2389 C2383 1.363 . S
C2389 C2384 1.379 . S
C2389 N2387 1.356 . S
N2390 C2382 1.356 . S
N2390 H2396 0.984 . S
N2390 H2397 0.984 . S
N2391 C2384 1.356 . S
N2391 H2394 0.984 . S
N2391 H2395 0.985 . S
H2392 N2387 0.984 . S
H2393 N2387 0.985 . S
H2394 N2391 0.984 . S
H2395 N2391 0.985 . S
H2396 N2390 0.984 . S
H2397 N2390 0.984 . S
H2398 N2386 0.984 . S
H2399 N2386 0.985 . S
C673 C3 0.917 . S
C675 C367 0.953 . S
C691 C381 1.066 . S
C693 C17 1.052 1_455 S
C709 C31 1.824 . S
C711 C339 1.859 . S
C727 C353 1.967 1_554 S
C729 C45 1.972 1_554 S
C745 C59 0.905 . S
C747 C423 0.942 . S
C763 C73 1.816 . S
C765 C437 1.831 . S
C781 C87 2.028 . S
C783 C395 2.054 . S
C799 C101 0.966 . S
C801 C409 0.994 . S
C817 C171 0.953 . S
C819 C115 0.917 . S
C835 C129 1.972 1_545 S
C837 C185 1.967 1_545 S
C853 C199 0.905 . S
C855 C143 0.942 . S
C871 C157 0.989 . S
C873 C213 0.971 . S
C889 C605 0.953 . S
C891 C227 0.917 . S
C907 C633 0.905 . S
C909 C241 0.942 . S
C925 C311 1.967 1_455 S
C927 C255 1.972 1_455 S
C943 C563 1.859 . S
C945 C269 1.824 . S
C961 C661 0.989 . S
C963 C283 0.971 . S
C979 C577 2.028 . S
C981 C297 2.054 . S
C997 C325 1.816 . S
C999 C619 1.831 . S
C1015 C451 1.859 . S
C1017 C507 1.824 . S
C1033 C521 1.052 1_554 S
C1035 C465 1.066 . S
C1051 C479 2.028 . S
C1053 C535 2.054 . S
C1069 C549 1.831 . S
C1071 C493 1.816 . S
C1087 C591 1.066 . S
C1089 C647 1.052 1_545 S
C1105 C7 0.763 . S
C1107 C105 0.784 . S
C1123 C63 0.794 . S
C1125 C21 0.874 . S
C1141 C35 1.913 . S
C1143 C77 1.923 . S
C1159 C49 2.003 . S
C1161 C91 2.021 . S
C1177 C287 0.788 . S
C1179 C119 0.768 . S
C1195 C581 2.021 . S
C1197 C133 2.003 . S
C1213 C147 0.759 . S
C1215 C595 0.795 . S
C1231 C161 0.763 . S
C1233 C609 0.752 . S
C1249 C665 0.763 . S
C1251 C175 0.752 . S
C1267 C189 2.039 . S
C1269 C301 2.052 . S
C1285 C203 0.794 . S
C1287 C651 0.874 . S
C1303 C217 0.788 . S
C1305 C231 0.768 . S
C1321 C245 0.759 . S
C1323 C469 0.795 . S
C1339 C259 2.003 . S
C1341 C483 2.021 . S
C1357 C497 1.923 . S
C1359 C273 1.913 . S
C1375 C315 2.039 . S
C1377 C539 2.052 . S
C1393 C511 1.913 . S
C1395 C329 1.923 . S
C1411 C441 1.912 . S
C1413 C343 1.891 . S
C1429 C357 2.039 . S
C1431 C399 2.052 . S
C1447 C413 0.763 . S
C1449 C371 0.752 . S
C1465 C385 0.795 . S
C1467 C427 0.759 . S
C1483 C455 1.891 . S
C1485 C623 1.912 . S
C1501 C637 0.794 . S
C1503 C525 0.874 . S
C1519 C567 1.891 . S
C1521 C553 1.912 . S
C1537 C9 1.573 . S
C1539 C415 1.189 . S
C1555 C429 1.574 . S
C1557 C23 1.201 . S
C1573 C37 1.170 . S
C1575 C443 1.183 . S
C1591 C51 1.095 . S
C1593 C401 1.098 . S
C1609 C387 1.195 . S
C1611 C65 1.501 . S
C1627 C79 1.156 . S
C1629 C345 1.165 . S
C1645 C359 1.137 . S
C1647 C93 1.107 . S
C1663 C107 1.211 . S
C1665 C373 1.610 . S
C1681 C667 1.189 . S
C1683 C121 1.573 . S
C1699 C135 1.095 . S
C1701 C303 1.098 . S
C1717 C149 1.574 . S
C1719 C653 1.201 . S
C1735 C233 1.573 . S
C1737 C163 1.189 . S
C1753 C177 1.606 . S
C1755 C289 1.215 . S
C1771 C191 1.137 . S
C1773 C583 1.107 . S
C1789 C597 1.195 . S
C1791 C205 1.501 . S
C1807 C611 1.606 . S
C1809 C219 1.215 . S
C1825 C527 1.201 . S
C1827 C247 1.574 . S
C1843 C541 1.098 . S
C1845 C261 1.095 . S
C1861 C555 1.183 . S
C1863 C275 1.170 . S
C1879 C317 1.137 . S
C1881 C485 1.107 . S
C1897 C457 1.165 . S
C1899 C331 1.156 . S
C1915 C471 1.195 . S
C1917 C639 1.501 . S
C1933 C499 1.156 . S
C1935 C569 1.165 . S
C1951 C625 1.183 . S
C1953 C513 1.170 . S
C1969 C8 1.688 . S
C1971 C316 1.752 . S
C1987 C22 1.758 . S
C1989 C568 1.823 . S
C2005 C330 1.758 . S
C2007 C36 1.757 . S
C2023 C638 1.705 . S
C2025 C50 1.778 . S
C2041 C260 1.778 . S
C2043 C64 1.706 . S
C2059 C274 1.757 . S
C2061 C78 1.758 . S
C2077 C92 1.776 . S
C2079 C624 1.790 . S
C2095 C106 1.759 . S
C2097 C246 1.771 . S
C2113 C190 1.752 . S
C2115 C120 1.688 . S
C2131 C134 1.778 . S
C2133 C204 1.706 . S
C2149 C218 1.759 . S
C2151 C148 1.771 . S
C2167 C176 1.727 . S
C2169 C162 1.743 . S
C2185 C232 1.688 . S
C2187 C358 1.752 . S
C2203 C428 1.777 . S
C2205 C288 1.753 . S
C2221 C386 1.722 . S
C2223 C302 1.779 . S
C2239 C344 1.823 . S
C2241 C652 1.758 . S
C2257 C666 1.743 . S
C2259 C372 1.727 . S
C2275 C596 1.722 . S
C2277 C400 1.779 . S
C2293 C610 1.727 . S
C2295 C414 1.743 . S
C2311 C582 1.776 . S
C2313 C442 1.790 . S
C2329 C526 1.758 . S
C2331 C456 1.823 . S
C2347 C540 1.779 . S
C2349 C470 1.722 . S
C2365 C484 1.776 . S
C2367 C554 1.790 . S
C2383 C498 1.758 . S
C2385 C512 1.757 . S
