# Generated by pormake.
# Topology utj, (3)-cn, num edge types: 1
# Building blocks:
#     Node 0, Type 0, BuildingBlock: WUSLED_clean_sbu_0, # of connection points: 3
#     Node 1, Type 0, BuildingBlock: WUSLED_clean_sbu_0, # of connection points: 3
#     Node 2, Type 0, BuildingBlock: WUSLED_clean_sbu_0, # of connection points: 3
#     Node 3, Type 0, BuildingBlock: WUSLED_clean_sbu_0, # of connection points: 3
#     Node 4, Type 0, BuildingBlock: WUSLED_clean_sbu_0, # of connection points: 3
#     Node 5, Type 0, BuildingBlock: WUSLED_clean_sbu_0, # of connection points: 3
#     Node 6, Type 0, BuildingBlock: WUSLED_clean_sbu_0, # of connection points: 3
#     Node 7, Type 0, BuildingBlock: WUSLED_clean_sbu_0, # of connection points: 3
#     Node 8, Type 0, BuildingBlock: WUSLED_clean_sbu_0, # of connection points: 3
#     Node 9, Type 0, BuildingBlock: WUSLED_clean_sbu_0, # of connection points: 3
#     Node 10, Type 0, BuildingBlock: WUSLED_clean_sbu_0, # of connection points: 3
#     Node 11, Type 0, BuildingBlock: WUSLED_clean_sbu_0, # of connection points: 3
#     Node 12, Type 0, BuildingBlock: WUSLED_clean_sbu_0, # of connection points: 3
#     Node 13, Type 0, BuildingBlock: WUSLED_clean_sbu_0, # of connection points: 3
#     Node 14, Type 0, BuildingBlock: WUSLED_clean_sbu_0, # of connection points: 3
#     Node 15, Type 0, BuildingBlock: WUSLED_clean_sbu_0, # of connection points: 3
#     Edge 16, Type (0, 0), BuildingBlock: OJICUG_clean_linker_0, # of connection points: 2
#     Edge 17, Type (0, 0), BuildingBlock: OJICUG_clean_linker_0, # of connection points: 2
#     Edge 18, Type (0, 0), BuildingBlock: OJICUG_clean_linker_0, # of connection points: 2
#     Edge 19, Type (0, 0), BuildingBlock: OJICUG_clean_linker_0, # of connection points: 2
#     Edge 20, Type (0, 0), BuildingBlock: OJICUG_clean_linker_0, # of connection points: 2
#     Edge 21, Type (0, 0), BuildingBlock: OJICUG_clean_linker_0, # of connection points: 2
#     Edge 22, Type (0, 0), BuildingBlock: OJICUG_clean_linker_0, # of connection points: 2
#     Edge 23, Type (0, 0), BuildingBlock: OJICUG_clean_linker_0, # of connection points: 2
#     Edge 24, Type (0, 0), BuildingBlock: OJICUG_clean_linker_0, # of connection points: 2
#     Edge 25, Type (0, 0), BuildingBlock: OJICUG_clean_linker_0, # of connection points: 2
#     Edge 26, Type (0, 0), BuildingBlock: OJICUG_clean_linker_0, # of connection points: 2
#     Edge 27, Type (0, 0), BuildingBlock: OJICUG_clean_linker_0, # of connection points: 2
#     Edge 28, Type (0, 0), BuildingBlock: OJICUG_clean_linker_0, # of connection points: 2
#     Edge 29, Type (0, 0), BuildingBlock: OJICUG_clean_linker_0, # of connection points: 2
#     Edge 30, Type (0, 0), BuildingBlock: OJICUG_clean_linker_0, # of connection points: 2
#     Edge 31, Type (0, 0), BuildingBlock: OJICUG_clean_linker_0, # of connection points: 2
#     Edge 32, Type (0, 0), BuildingBlock: OJICUG_clean_linker_0, # of connection points: 2
#     Edge 33, Type (0, 0), BuildingBlock: OJICUG_clean_linker_0, # of connection points: 2
#     Edge 34, Type (0, 0), BuildingBlock: OJICUG_clean_linker_0, # of connection points: 2
#     Edge 35, Type (0, 0), BuildingBlock: OJICUG_clean_linker_0, # of connection points: 2
#     Edge 36, Type (0, 0), BuildingBlock: OJICUG_clean_linker_0, # of connection points: 2
#     Edge 37, Type (0, 0), BuildingBlock: OJICUG_clean_linker_0, # of connection points: 2
#     Edge 38, Type (0, 0), BuildingBlock: OJICUG_clean_linker_0, # of connection points: 2
#     Edge 39, Type (0, 0), BuildingBlock: OJICUG_clean_linker_0, # of connection points: 2
# Relax obj value: 0.003
# Max RMSD: 0.009
# Mean RMSD: 0.009
data_MOF--net-utj--node1-WUSLED_clean_sbu_0--edge1-OJICUG_clean_linker_0
_symmetry_space_group_name_H-M    P1
_symmetry_Int_Tables_number       1
_symmetry_cell_setting            triclinic
loop_
_symmetry_equiv_pos_as_xyz
'x, y, z'
_cell_length_a     63.045625
_cell_length_b     63.158031
_cell_length_c     53.40294
_cell_angle_alpha  89.967864
_cell_angle_beta   89.973893
_cell_angle_gamma 90.089051
loop_
_atom_site_label
_atom_site_type_symbol
_atom_site_fract_x
_atom_site_fract_y
_atom_site_fract_z
_atom_type_partial_charge
C0 C 0.04855 0.43785 0.05395 0.0
C1 C 0.04893 0.45496 0.07068 0.0
C2 C 0.03468 0.47831 0.03839 0.0
C3 C 0.04205 0.47501 0.06299 0.0
C4 C 0.03436 0.46103 1.02174 0.0
C5 C 0.04123 0.44101 0.02947 0.0
U6 U 0.07212 0.40082 0.10295 0.0
O7 O 0.06402 0.36789 0.11249 0.0
O8 O 0.09598 0.37557 0.09895 0.0
C9 C 0.08244 0.36054 0.10489 0.0
C10 C 0.05585 0.41672 0.06174 0.0
C11 C 0.08171 0.34229 0.08763 0.0
C12 C 0.06688 0.32392 0.05155 0.0
C13 C 0.06725 0.34145 0.06766 0.0
C14 C 0.09558 0.30799 0.07501 0.0
C15 C 0.08109 0.30698 0.05499 0.0
C16 C 0.09585 0.32544 0.09115 0.0
C17 C 0.08574 0.42673 0.16727 0.0
C18 C 0.09465 0.40955 0.20669 0.0
C19 C 0.0964 0.44775 0.20324 0.0
C20 C 0.09004 0.44641 0.17824 0.0
C21 C 0.09867 0.42937 0.21792 0.0
C22 C 0.08825 0.40824 0.18155 0.0
C23 C 0.07787 0.42633 0.14129 0.0
O24 O 0.07635 0.415 0.06562 0.0
O25 O 0.0444 0.40748 0.07919 0.0
O26 O 0.06015 0.41588 0.13729 0.0
O27 O 0.0921 0.42352 0.12363 0.0
H28 H 0.05462 0.45282 0.08966 0.0
H29 H 0.04278 0.48798 0.07621 0.0
H30 H 0.02854 0.4629 1.00279 0.0
H31 H 0.04079 0.42795 1.01632 0.0
H32 H 0.05569 0.32379 0.03617 0.0
H33 H 0.05628 0.35437 0.06448 0.0
H34 H 0.10657 0.29514 0.0784 0.0
H35 H 0.10712 0.32576 0.10646 0.0
H36 H 0.09641 0.39506 0.21733 0.0
H37 H 0.09893 0.46329 0.21125 0.0
H38 H 0.08808 0.46087 0.16756 0.0
H39 H 0.08503 0.39288 0.17337 0.0
C40 C 0.10407 0.04807 0.55496 0.0
C41 C 0.08757 0.04559 0.57237 0.0
C42 C 0.06367 0.03393 0.53915 0.0
C43 C 0.06757 0.03854 0.56455 0.0
C44 C 0.08031 0.03654 0.52182 0.0
C45 C 0.1003 0.04353 0.52967 0.0
U46 U 0.14136 0.07176 0.60391 0.0
O47 O 0.17437 0.06365 0.61318 0.0
O48 O 0.16674 0.09552 0.59958 0.0
C49 C 0.18177 0.08202 0.60549 0.0
C50 C 0.1252 0.05545 0.56284 0.0
C51 C 0.20002 0.08126 0.58816 0.0
C52 C 0.21825 0.06646 0.55198 0.0
C53 C 0.20072 0.06686 0.56814 0.0
C54 C 0.23445 0.095 0.57547 0.0
C55 C 0.23532 0.08059 0.5554 0.0
C56 C 0.217 0.09529 0.59168 0.0
C57 C 0.11633 0.0858 0.66852 0.0
C58 C 0.13319 0.09068 0.70912 0.0
C59 C 0.09625 0.1 0.70356 0.0
C60 C 0.09742 0.09384 0.67847 0.0
C61 C 0.11403 0.09827 0.71937 0.0
C62 C 0.13434 0.08451 0.68391 0.0
C63 C 0.11622 0.07778 0.64257 0.0
O64 O 0.12693 0.07593 0.56668 0.0
O65 O 0.13448 0.04406 0.58028 0.0
O66 O 0.12639 0.05997 0.6384 0.0
O67 O 0.11887 0.09187 0.62472 0.0
H68 H 0.09016 0.04914 0.59198 0.0
H69 H 0.05507 0.03697 0.57835 0.0
H70 H 0.07797 0.0329 0.50219 0.0
H71 H 0.11286 0.04535 0.51598 0.0
H72 H 0.21829 0.05534 0.53656 0.0
H73 H 0.1877 0.05597 0.56497 0.0
H74 H 0.24739 0.10592 0.57886 0.0
H75 H 0.21677 0.10651 0.60702 0.0
H76 H 0.14726 0.08936 0.72063 0.0
H77 H 0.08115 0.10541 0.71077 0.0
H78 H 0.08332 0.09486 0.66694 0.0
H79 H 0.14914 0.0784 0.67658 0.0
C80 C 0.4958 0.10284 0.05444 0.0
C81 C 0.49545 0.08569 0.07115 0.0
C82 C 0.50958 0.06239 0.03875 0.0
C83 C 0.50229 0.06565 0.06339 0.0
C84 C 0.50988 0.0797 0.02213 0.0
C85 C 0.50306 0.09972 0.02992 0.0
U86 U 0.47225 0.1397 0.10359 0.0
O87 O 0.48041 0.17257 0.11331 0.0
O88 O 0.44845 0.16501 0.09971 0.0
C89 C 0.46201 0.17999 0.10577 0.0
C90 C 0.48855 0.12395 0.06231 0.0
C91 C 0.46278 0.19835 0.08865 0.0
C92 C 0.47763 0.21689 0.05267 0.0
C93 C 0.47722 0.19925 0.06864 0.0
C94 C 0.44902 0.23278 0.07634 0.0
C95 C 0.46348 0.23386 0.05628 0.0
C96 C 0.44871 0.21522 0.09235 0.0
C97 C 0.45848 0.11363 0.16776 0.0
C98 C 0.44847 0.13094 0.20671 0.0
C99 C 0.44841 0.09266 0.20404 0.0
C100 C 0.45495 0.09394 0.17909 0.0
C101 C 0.44518 0.11112 0.21829 0.0
C102 C 0.45505 0.13219 0.18162 0.0
C103 C 0.4664 0.11403 0.1418 0.0
O104 O 0.46804 0.12571 0.06618 0.0
O105 O 0.49999 0.1331 0.07981 0.0
O106 O 0.48415 0.12446 0.13786 0.0
O107 O 0.4522 0.11695 0.12413 0.0
H108 H 0.48981 0.0878 0.09016 0.0
H109 H 0.50158 0.05265 0.0766 0.0
H110 H 0.51564 0.07786 1.00315 0.0
H111 H 0.50348 0.1128 1.01679 0.0
H112 H 0.48879 0.21708 0.03725 0.0
H113 H 0.48813 0.18632 0.06532 0.0
H114 H 0.43808 0.24564 0.07986 0.0
H115 H 0.43746 0.21484 0.10768 0.0
H116 H 0.44596 0.14548 0.21703 0.0
H117 H 0.44646 0.07713 0.21234 0.0
H118 H 0.45763 0.07944 0.16872 0.0
H119 H 0.45766 0.14756 0.17315 0.0
C120 C 0.43944 0.49304 0.55525 0.0
C121 C 0.4558 0.49577 0.57278 0.0
C122 C 0.48005 0.50667 0.53951 0.0
C123 C 0.47591 0.50257 0.56498 0.0
C124 C 0.46355 0.50381 0.52207 0.0
C125 C 0.44346 0.49707 0.52989 0.0
U126 U 0.40099 0.47095 0.60425 0.0
O127 O 0.36791 0.4797 0.61225 0.0
O128 O 0.37539 0.4474 0.60003 0.0
C129 C 0.36043 0.46122 0.60508 0.0
C130 C 0.41816 0.48602 0.56305 0.0
C131 C 0.34243 0.46169 0.5874 0.0
C132 C 0.32427 0.47639 0.5511 0.0
C133 C 0.34167 0.47618 0.56745 0.0
C134 C 0.30834 0.44747 0.57424 0.0
C135 C 0.30739 0.462 0.55428 0.0
C136 C 0.32565 0.44736 0.59062 0.0
C137 C 0.42368 0.45806 0.67054 0.0
C138 C 0.43325 0.43175 0.70202 0.0
C139 C 0.41881 0.46546 0.715 0.0
C140 C 0.41711 0.47166 0.6899 0.0
C141 C 0.42725 0.44556 0.72143 0.0
C142 C 0.43156 0.43795 0.67693 0.0
C143 C 0.42484 0.46555 0.64416 0.0
O144 O 0.4162 0.46567 0.56766 0.0
O145 O 0.4087 0.49795 0.57983 0.0
O146 O 0.41536 0.48351 0.63873 0.0
O147 O 0.42271 0.45119 0.62651 0.0
H148 H 0.453 0.49263 0.59246 0.0
H149 H 0.48829 0.50435 0.57888 0.0
H150 H 0.46606 0.50707 0.50238 0.0
H151 H 0.43101 0.49507 0.51611 0.0
H152 H 0.32417 0.48762 0.53577 0.0
H153 H 0.35453 0.48731 0.5645 0.0
H154 H 0.29553 0.43634 0.57743 0.0
H155 H 0.32591 0.43607 0.60591 0.0
H156 H 0.43957 0.41622 0.70623 0.0
H157 H 0.41431 0.47665 0.7294 0.0
H158 H 0.41128 0.4874 0.68576 0.0
H159 H 0.43701 0.42718 0.66253 0.0
C160 C 0.04832 0.10353 0.98957 0.0
C161 C 0.04872 0.08632 0.97297 0.0
C162 C 0.03444 0.06311 1.00544 0.0
C163 C 0.04183 0.0663 0.98082 0.0
C164 C 0.03408 0.08048 1.02195 0.0
C165 C 0.04096 0.10049 1.01407 0.0
U166 U 0.0719 0.14037 0.94028 0.0
O167 O 0.06387 0.17326 0.9306 0.0
O168 O 0.09582 0.16565 0.94409 0.0
C169 C 0.08231 0.18065 0.93812 0.0
C170 C 0.05565 0.12463 0.98162 0.0
C171 C 0.08161 0.19893 0.95534 0.0
C172 C 0.06701 0.21716 0.99162 0.0
C173 C 0.06735 0.19962 0.97554 0.0
C174 C 0.09532 0.23341 0.96769 0.0
C175 C 0.08104 0.23426 0.98794 0.0
C176 C 0.09556 0.21594 0.95156 0.0
C177 C 0.08535 0.11416 0.87608 0.0
C178 C 0.09586 0.1313 0.83715 0.0
C179 C 0.09478 0.09303 0.83975 0.0
C180 C 0.08827 0.09442 0.86469 0.0
C181 C 0.09858 0.11142 0.82554 0.0
C182 C 0.08931 0.13266 0.86224 0.0
C183 C 0.07752 0.1147 0.90207 0.0
O184 O 0.07615 0.12635 0.97767 0.0
O185 O 0.0442 0.13378 0.96415 0.0
O186 O 0.05984 0.12518 0.90604 0.0
O187 O 0.0918 0.11761 0.91966 0.0
H188 H 0.05444 0.08838 0.95398 0.0
H189 H 0.04258 0.05325 0.9677 0.0
H190 H 0.02824 0.07869 0.04091 0.0
H191 H 0.0405 0.11361 0.02711 0.0
H192 H 0.05599 0.21718 1.00719 0.0
H193 H 0.05654 0.18658 0.97891 0.0
H194 H 0.10617 0.24637 0.96411 0.0
H195 H 0.10668 0.21572 0.93608 0.0
H196 H 0.09881 0.14579 0.82686 0.0
H197 H 0.09627 0.07747 0.83142 0.0
H198 H 0.08517 0.07996 0.87503 0.0
H199 H 0.08716 0.14807 0.87076 0.0
C200 C 0.43919 0.04819 0.489 0.0
C201 C 0.45595 0.04662 0.47181 0.0
C202 C 0.47958 0.03424 0.50491 0.0
C203 C 0.47596 0.03967 0.47968 0.0
C204 C 0.46266 0.0359 0.52202 0.0
C205 C 0.44267 0.0428 0.51411 0.0
U206 U 0.40206 0.07176 0.4399 0.0
O207 O 0.36906 0.0636 0.43051 0.0
O208 O 0.37672 0.0955 0.44404 0.0
C209 C 0.36168 0.08197 0.43812 0.0
C210 C 0.41807 0.05551 0.48106 0.0
C211 C 0.3434 0.0812 0.4554 0.0
C212 C 0.32513 0.06651 0.49167 0.0
C213 C 0.34268 0.0669 0.47553 0.0
C214 C 0.30894 0.09487 0.46792 0.0
C215 C 0.30805 0.08055 0.48811 0.0
C216 C 0.32641 0.09515 0.45174 0.0
C217 C 0.42736 0.08571 0.37537 0.0
C218 C 0.41046 0.09105 0.33488 0.0
C219 C 0.44768 0.0994 0.34019 0.0
C220 C 0.44645 0.09326 0.36529 0.0
C221 C 0.42978 0.09815 0.32451 0.0
C222 C 0.40925 0.08489 0.36011 0.0
C223 C 0.42736 0.07774 0.40134 0.0
O224 O 0.41637 0.07598 0.47717 0.0
O225 O 0.40883 0.04409 0.46361 0.0
O226 O 0.41711 0.05993 0.4055 0.0
O227 O 0.42466 0.09186 0.41912 0.0
H228 H 0.45357 0.05083 0.45234 0.0
H229 H 0.48867 0.03884 0.46607 0.0
H230 H 0.46477 0.0316 0.54149 0.0
H231 H 0.42989 0.0439 0.52763 0.0
H232 H 0.32509 0.05546 0.50719 0.0
H233 H 0.35571 0.05608 0.47881 0.0
H234 H 0.29599 0.10572 0.46443 0.0
H235 H 0.32665 0.1063 0.43632 0.0
H236 H 0.3963 0.09011 0.32347 0.0
H237 H 0.4629 0.10441 0.33287 0.0
H238 H 0.46063 0.09391 0.37673 0.0
H239 H 0.39432 0.07917 0.36755 0.0
C240 C 0.4964 0.4382 0.99019 0.0
C241 C 0.49566 0.45535 0.9735 0.0
C242 C 0.51021 0.47875 1.00556 0.0
C243 C 0.5025 0.47545 0.98112 0.0
C244 C 0.51092 0.46143 0.02215 0.0
C245 C 0.50407 0.44136 1.01452 0.0
U246 U 0.47252 0.40092 0.94159 0.0
O247 O 0.48059 0.36798 0.93218 0.0
O248 O 0.44872 0.37559 0.946 0.0
C249 C 0.4622 0.36059 0.93992 0.0
C250 C 0.48911 0.41702 0.98252 0.0
C251 C 0.46297 0.34229 0.95711 0.0
C252 C 0.47767 0.32395 0.99326 0.0
C253 C 0.4773 0.34153 0.97722 0.0
C254 C 0.44925 0.30781 0.96945 0.0
C255 C 0.46359 0.30688 0.98962 0.0
C256 C 0.44898 0.32531 0.95337 0.0
C257 C 0.45793 0.42602 0.87716 0.0
C258 C 0.45543 0.41084 0.83535 0.0
C259 C 0.44057 0.44546 0.84362 0.0
C260 C 0.44701 0.44394 0.8686 0.0
C261 C 0.44494 0.42908 0.82655 0.0
C262 C 0.46184 0.40931 0.86044 0.0
C263 C 0.4662 0.42607 0.90304 0.0
O264 O 0.46857 0.41517 0.97889 0.0
O265 O 0.50043 0.40783 0.96496 0.0
O266 O 0.48411 0.41595 0.90704 0.0
O267 O 0.45224 0.42345 0.92106 0.0
H268 H 0.48981 0.45317 0.9546 0.0
H269 H 0.50198 0.48833 0.96775 0.0
H270 H 0.51647 0.46343 0.0412 0.0
H271 H 0.50467 0.42831 0.02767 0.0
H272 H 0.48873 0.32386 1.00877 0.0
H273 H 0.48814 0.35455 0.98056 0.0
H274 H 0.43837 0.29487 0.96589 0.0
H275 H 0.43782 0.32559 0.93795 0.0
H276 H 0.45883 0.39782 0.8228 0.0
H277 H 0.43282 0.45986 0.8375 0.0
H278 H 0.44395 0.45707 0.88113 0.0
H279 H 0.47019 0.39527 0.86663 0.0
C280 C 0.10361 0.49367 0.48847 0.0
C281 C 0.0872 0.49665 0.47108 0.0
C282 C 0.06328 0.50771 0.50456 0.0
C283 C 0.06723 0.50363 0.47904 0.0
C284 C 0.07982 0.50459 0.52187 0.0
C285 C 0.09978 0.49764 0.51388 0.0
U286 U 0.14061 0.47004 0.43924 0.0
O287 O 0.17355 0.47823 0.42962 0.0
O288 O 0.166 0.44635 0.44333 0.0
C289 C 0.18099 0.45989 0.43726 0.0
C290 C 0.1247 0.48633 0.48043 0.0
C291 C 0.19931 0.46075 0.45445 0.0
C292 C 0.21747 0.47537 0.49079 0.0
C293 C 0.19988 0.47489 0.47473 0.0
C294 C 0.23399 0.44745 0.46665 0.0
C295 C 0.23473 0.4616 0.48699 0.0
C296 C 0.21648 0.44706 0.45056 0.0
C297 C 0.11521 0.45595 0.3749 0.0
C298 C 0.13246 0.44959 0.33482 0.0
C299 C 0.09486 0.44281 0.3395 0.0
C300 C 0.09597 0.44912 0.36454 0.0
C301 C 0.11302 0.44316 0.32417 0.0
C302 C 0.13355 0.45592 0.35998 0.0
C303 C 0.11521 0.46398 0.40083 0.0
O304 O 0.12639 0.46586 0.4766 0.0
O305 O 0.13391 0.49773 0.46291 0.0
O306 O 0.12545 0.4818 0.40487 0.0
O307 O 0.11797 0.44989 0.41864 0.0
H308 H 0.08987 0.49364 0.45136 0.0
H309 H 0.05497 0.5061 0.46515 0.0
H310 H 0.07729 0.50723 0.54168 0.0
H311 H 0.11223 0.4953 0.52758 0.0
H312 H 0.2174 0.48629 0.50642 0.0
H313 H 0.18671 0.4855 0.47818 0.0
H314 H 0.24708 0.43681 0.46299 0.0
H315 H 0.21635 0.43605 0.43501 0.0
H316 H 0.14681 0.44985 0.32367 0.0
H317 H 0.07955 0.43834 0.33196 0.0
H318 H 0.08162 0.44912 0.37571 0.0
H319 H 0.1486 0.46109 0.36765 0.0
C320 C 0.99274 0.60221 0.99064 0.0
C321 C 0.99213 0.5851 0.9739 0.0
C322 C 1.00629 0.56162 1.00612 0.0
C323 C 0.99886 0.56499 0.98156 0.0
C324 C 1.00683 0.57889 0.02277 0.0
C325 C 1.00012 0.59898 1.01508 0.0
U326 U 0.9701 0.63991 0.94162 0.0
O327 O 0.94658 0.66547 0.9456 0.0
O328 O 0.97878 0.67279 0.93259 0.0
C329 C 0.96036 0.68034 0.93989 0.0
C330 C 0.98573 0.62344 0.98287 0.0
C331 C 0.96105 0.69862 0.9571 0.0
C332 C 0.97584 0.71716 0.99307 0.0
C333 C 0.97548 0.69954 0.97711 0.0
C334 C 0.9472 0.73299 0.96942 0.0
C335 C 0.96165 0.7341 0.98945 0.0
C336 C 0.94694 0.71546 0.95342 0.0
C337 C 0.95642 0.61582 0.8765 0.0
C338 C 0.95671 0.63055 0.83434 0.0
C339 C 0.93776 0.59793 0.84267 0.0
C340 C 0.94372 0.59911 0.86786 0.0
C341 C 0.94446 0.61345 0.82548 0.0
C342 C 0.96262 0.63175 0.85961 0.0
C343 C 0.96418 0.6152 0.90262 0.0
O344 O 0.99748 0.63266 0.96569 0.0
O345 O 0.96529 0.62541 0.97868 0.0
O346 O 0.94991 0.61777 0.9203 0.0
O347 O 0.9822 0.62493 0.90734 0.0
H348 H 0.9864 0.5873 0.95495 0.0
H349 H 0.99798 0.55202 0.96835 0.0
H350 H 1.01272 0.57697 0.04168 0.0
H351 H 1.00075 0.61203 0.02822 0.0
H352 H 0.987 0.71738 1.00848 0.0
H353 H 0.98643 0.68663 0.98041 0.0
H354 H 0.93623 0.74583 0.96589 0.0
H355 H 0.9357 0.71507 0.93808 0.0
H356 H 0.96192 0.64291 0.82168 0.0
H357 H 0.92856 0.58441 0.83652 0.0
H358 H 0.93887 0.58657 0.8805 0.0
H359 H 0.97237 0.64487 0.8658 0.0
C360 C 0.93996 0.99103 0.49089 0.0
C361 C 0.95637 0.99343 0.47336 0.0
C362 C 0.98058 1.00472 0.50645 0.0
C363 C 0.97649 1.00026 0.48105 0.0
C364 C 0.96402 1.00217 0.52391 0.0
C365 C 0.94393 0.9954 0.51618 0.0
U366 U 0.90162 0.96888 0.44196 0.0
O367 O 0.87603 0.94531 0.44612 0.0
O368 O 0.86857 0.97759 0.43376 0.0
C369 C 0.86108 0.9591 0.44093 0.0
C370 C 0.91867 0.98399 0.48316 0.0
C371 C 0.84296 0.95955 0.45846 0.0
C372 C 0.82426 0.97454 0.4942 0.0
C373 C 0.84182 0.97433 0.47806 0.0
C374 C 0.80896 0.94503 0.47157 0.0
C375 C 0.80762 0.95986 0.49116 0.0
C376 C 0.82642 0.94492 0.45539 0.0
C377 C 0.92451 0.95594 0.37583 0.0
C378 C 0.93611 0.93078 0.34404 0.0
C379 C 0.91737 0.96248 0.33161 0.0
C380 C 0.91572 0.96856 0.35676 0.0
C381 C 0.92793 0.9437 0.32487 0.0
C382 C 0.93449 0.93688 0.36916 0.0
C383 C 0.92562 0.96346 0.40216 0.0
O384 O 0.90922 0.9959 0.46635 0.0
O385 O 0.91672 0.96363 0.47861 0.0
O386 O 0.92343 0.94909 0.41981 0.0
O387 O 0.91613 0.98143 0.40753 0.0
H388 H 0.95361 0.99002 0.45374 0.0
H389 H 0.98891 1.00179 0.46716 0.0
H390 H 0.9665 1.00572 0.54353 0.0
H391 H 0.93143 0.99365 0.52997 0.0
H392 H 0.82386 0.98601 0.50926 0.0
H393 H 0.85448 0.9857 0.48089 0.0
H394 H 0.79634 0.93367 0.4685 0.0
H395 H 0.82698 0.93341 0.44037 0.0
H396 H 0.94407 0.91607 0.33962 0.0
H397 H 0.91112 0.97298 0.31739 0.0
H398 H 0.90814 0.98348 0.36113 0.0
H399 H 0.94162 0.92691 0.38337 0.0
C400 C 0.55145 0.9386 0.99063 0.0
C401 C 0.55184 0.95571 0.97387 0.0
C402 C 0.53781 0.97912 1.00623 0.0
C403 C 0.54506 0.97579 0.98158 0.0
C404 C 0.53748 0.96184 0.0229 0.0
C405 C 0.54423 0.94179 1.01515 0.0
U406 U 0.5745 0.90137 0.94149 0.0
O407 O 0.59824 0.876 0.94532 0.0
O408 O 0.56614 0.86848 0.93215 0.0
C409 C 0.58459 0.86104 0.93952 0.0
C410 C 0.55861 0.91744 0.98282 0.0
C411 C 0.58394 0.84274 0.95673 0.0
C412 C 0.56921 0.82423 0.9928 0.0
C413 C 0.56954 0.84183 0.97679 0.0
C414 C 0.59783 0.80839 0.9691 0.0
C415 C 0.5834 0.80729 0.98919 0.0
C416 C 0.59806 0.82591 0.95305 0.0
C417 C 0.58785 0.92662 0.87682 0.0
C418 C 0.59417 0.90919 0.83688 0.0
C419 C 0.6 0.94694 0.8409 0.0
C420 C 0.59403 0.9459 0.86607 0.0
C421 C 0.59995 0.92866 0.82584 0.0
C422 C 0.58818 0.90817 0.86217 0.0
C423 C 0.58015 0.92665 0.9029 0.0
O424 O 0.54699 0.90821 0.96554 0.0
O425 O 0.57907 0.91562 0.97871 0.0
O426 O 0.59448 0.92389 0.92045 0.0
O427 O 0.56234 0.91645 0.90727 0.0
H428 H 0.55744 0.95354 0.95486 0.0
H429 H 0.54579 0.98876 0.96834 0.0
H430 H 0.53173 0.96374 0.04188 0.0
H431 H 0.54379 0.92874 0.02832 0.0
H432 H 0.55807 0.82402 1.00824 0.0
H433 H 0.55859 0.85474 0.98009 0.0
H434 H 0.60881 0.79555 0.96558 0.0
H435 H 0.60928 0.8263 0.93768 0.0
H436 H 0.59416 0.89476 0.82594 0.0
H437 H 0.60397 0.96226 0.83306 0.0
H438 H 0.59378 0.96032 0.87704 0.0
H439 H 0.58351 0.8931 0.87016 0.0
C440 C 0.60333 0.5498 0.48986 0.0
C441 C 0.58681 0.547 0.47257 0.0
C442 C 0.56302 0.53575 0.50613 0.0
C443 C 0.56685 0.53999 0.48062 0.0
C444 C 0.57967 0.53871 0.52335 0.0
C445 C 0.59962 0.54566 0.51526 0.0
U446 U 0.64026 0.57299 0.4402 0.0
O447 O 0.66574 0.59672 0.44383 0.0
O448 O 0.67314 0.56472 0.43052 0.0
C449 C 0.68067 0.58313 0.43785 0.0
C450 C 0.62443 0.55709 0.48169 0.0
C451 C 0.69906 0.58243 0.45492 0.0
C452 C 0.71731 0.56814 0.49137 0.0
C453 C 0.69963 0.56853 0.47545 0.0
C454 C 0.73391 0.59569 0.46659 0.0
C455 C 0.73466 0.58177 0.48716 0.0
C456 C 0.71631 0.59598 0.45064 0.0
C457 C 0.61487 0.5864 0.37575 0.0
C458 C 0.6326 0.59347 0.33611 0.0
C459 C 0.59463 0.59834 0.33971 0.0
C460 C 0.59554 0.59218 0.36482 0.0
C461 C 0.61309 0.59889 0.3249 0.0
C462 C 0.63348 0.58729 0.36135 0.0
C463 C 0.61478 0.57864 0.40179 0.0
O464 O 0.63359 0.54553 0.46433 0.0
O465 O 0.62616 0.57753 0.47755 0.0
O466 O 0.61764 0.59292 0.41937 0.0
O467 O 0.62496 0.56086 0.40609 0.0
H468 H 0.58936 0.55025 0.45287 0.0
H469 H 0.55434 0.53816 0.4669 0.0
H470 H 0.57738 0.53538 0.54306 0.0
H471 H 0.6122 0.54773 0.52886 0.0
H472 H 0.71725 0.55741 0.50719 0.0
H473 H 0.6864 0.55803 0.4792 0.0
H474 H 0.74707 0.60622 0.46262 0.0
H475 H 0.71618 0.6068 0.43489 0.0
H476 H 0.64716 0.59391 0.32537 0.0
H477 H 0.57929 0.60201 0.33172 0.0
H478 H 0.58099 0.5915 0.3756 0.0
H479 H 0.6486 0.58294 0.36949 0.0
C480 C 0.99278 0.93921 0.05405 0.0
C481 C 0.99225 0.95636 0.07073 0.0
C482 C 1.00625 0.97981 0.03832 0.0
C483 C 0.99894 0.97647 0.06295 0.0
C484 C 1.00672 0.96249 1.02172 0.0
C485 C 1.00005 0.9424 0.02954 0.0
U486 U 0.97012 0.90159 0.10324 0.0
O487 O 0.9466 0.87595 0.09937 0.0
O488 O 0.97879 0.86875 0.11239 0.0
C489 C 0.96037 0.86113 0.10512 0.0
C490 C 0.98578 0.91798 0.06192 0.0
C491 C 0.96107 0.84282 0.08796 0.0
C492 C 0.97569 0.82441 0.05182 0.0
C493 C 0.97533 0.84204 0.06777 0.0
C494 C 0.9474 0.80828 0.0759 0.0
C495 C 0.96167 0.80732 0.05566 0.0
C496 C 0.94714 0.82583 0.09187 0.0
C497 C 0.95637 0.92582 0.16824 0.0
C498 C 0.95632 0.91097 0.21035 0.0
C499 C 0.93791 0.94385 0.20209 0.0
C500 C 0.94392 0.94267 0.17692 0.0
C501 C 0.94431 0.9282 0.21924 0.0
C502 C 0.96227 0.90977 0.18508 0.0
C503 C 0.96416 0.92639 0.14214 0.0
O504 O 0.99752 0.90886 0.07915 0.0
O505 O 0.96534 0.91595 0.06611 0.0
O506 O 0.94991 0.92373 0.12446 0.0
O507 O 0.98218 0.91669 0.13747 0.0
H508 H 0.98661 0.95418 0.08973 0.0
H509 H 0.99811 0.98947 0.07613 0.0
H510 H 1.01251 0.96439 1.00276 0.0
H511 H 1.00061 0.92932 1.01643 0.0
H512 H 0.98671 0.8243 0.03626 0.0
H513 H 0.98614 0.85507 0.0643 0.0
H514 H 0.93657 0.79532 0.0796 0.0
H515 H 0.93603 0.82612 0.10736 0.0
H516 H 0.96129 0.89851 0.22297 0.0
H517 H 0.92892 0.95748 0.20828 0.0
H518 H 0.93929 0.9553 0.16431 0.0
H519 H 0.97182 0.89654 0.17886 0.0
C520 C 0.60284 0.99137 0.55437 0.0
C521 C 0.58601 0.99294 0.57147 0.0
C522 C 0.56249 1.00526 0.53824 0.0
C523 C 0.56603 0.99985 0.56349 0.0
C524 C 0.57946 1.00356 0.52121 0.0
C525 C 0.59943 0.99669 0.52923 0.0
U526 U 0.63967 0.96832 0.60403 0.0
O527 O 0.66513 0.94464 0.60051 0.0
O528 O 0.67253 0.97667 0.61378 0.0
C529 C 0.68006 0.95826 0.60651 0.0
C530 C 0.62394 0.98416 0.56249 0.0
C531 C 0.6985 0.95897 0.5895 0.0
C532 C 0.71684 0.97314 0.55301 0.0
C533 C 0.69911 0.97274 0.56885 0.0
C534 C 0.73344 0.94586 0.57809 0.0
C535 C 0.73423 0.95965 0.5574 0.0
C536 C 0.71578 0.94555 0.59397 0.0
C537 C 0.61401 0.95502 0.66841 0.0
C538 C 0.63182 0.94672 0.70763 0.0
C539 C 0.59357 0.94416 0.70481 0.0
C540 C 0.59451 0.95039 0.67973 0.0
C541 C 0.61217 0.94239 0.71921 0.0
C542 C 0.63274 0.95297 0.68241 0.0
C543 C 0.61405 0.96272 0.64236 0.0
O544 O 0.63308 0.99575 0.57985 0.0
O545 O 0.62566 0.96373 0.56666 0.0
O546 O 0.61696 0.94841 0.62484 0.0
O547 O 0.62431 0.98049 0.63808 0.0
H548 H 0.58833 0.98878 0.59097 0.0
H549 H 0.55328 1.0007 0.57705 0.0
H550 H 0.5774 1.00782 0.50172 0.0
H551 H 0.61225 0.99559 0.51577 0.0
H552 H 0.71681 0.98378 0.53709 0.0
H553 H 0.68586 0.98314 0.56496 0.0
H554 H 0.74662 0.93544 0.58221 0.0
H555 H 0.71563 0.93483 0.60981 0.0
H556 H 0.64648 0.94533 0.71805 0.0
H557 H 0.57814 0.94137 0.71311 0.0
H558 H 0.57988 0.95198 0.66925 0.0
H559 H 0.64797 0.95643 0.67396 0.0
C560 C 0.55167 0.6028 0.05367 0.0
C561 C 0.55241 0.5856 0.07027 0.0
C562 C 0.53809 0.56225 0.03802 0.0
C563 C 0.54569 0.5655 0.06252 0.0
C564 C 0.53739 0.57963 1.0215 0.0
C565 C 0.54413 0.5997 0.02928 0.0
U566 U 0.57464 0.63995 0.10295 0.0
O567 O 0.59836 0.66543 0.09927 0.0
O568 O 0.56625 0.67277 0.11249 0.0
C569 C 0.58469 0.68031 0.10515 0.0
C570 C 0.55878 0.62399 0.06154 0.0
C571 C 0.58401 0.69865 0.08801 0.0
C572 C 0.56939 0.71708 0.05187 0.0
C573 C 0.56974 0.69945 0.06783 0.0
C574 C 0.59772 0.73319 0.07586 0.0
C575 C 0.58343 0.73416 0.05565 0.0
C576 C 0.59797 0.71563 0.09187 0.0
C577 C 0.58792 0.61435 0.16743 0.0
C578 C 0.59558 0.63182 0.20702 0.0
C579 C 0.599 0.59375 0.20356 0.0
C580 C 0.59293 0.59486 0.17844 0.0
C581 C 0.60024 0.61217 0.21831 0.0
C582 C 0.58948 0.6329 0.18177 0.0
C583 C 0.58026 0.61448 0.14136 0.0
O584 O 0.54714 0.63311 0.07887 0.0
O585 O 0.57925 0.62589 0.06565 0.0
O586 O 0.59461 0.61741 0.12384 0.0
O587 O 0.56246 0.62469 0.13709 0.0
H588 H 0.55816 0.58773 0.08923 0.0
H589 H 0.54621 0.55257 0.07583 0.0
H590 H 0.53192 0.57767 1.00243 0.0
H591 H 0.54352 0.6128 1.01619 0.0
H592 H 0.55837 0.71719 0.03632 0.0
H593 H 0.55892 0.68643 0.0644 0.0
H594 H 0.60857 0.74613 0.07951 0.0
H595 H 0.60908 0.71533 0.10733 0.0
H596 H 0.59657 0.64635 0.21772 0.0
H597 H 0.60206 0.57831 0.21161 0.0
H598 H 0.59171 0.58035 0.1677 0.0
H599 H 0.58572 0.64813 0.17356 0.0
C600 C 0.93984 0.55051 0.55371 0.0
C601 C 0.95615 0.54752 0.57122 0.0
C602 C 0.9803 0.53666 0.53787 0.0
C603 C 0.9762 0.54064 0.56338 0.0
C604 C 0.96385 0.53984 0.52044 0.0
C605 C 0.94384 0.54669 0.52831 0.0
U606 U 0.9017 0.5727 0.60285 0.0
O607 O 0.87617 0.59626 0.59876 0.0
O608 O 0.86863 0.56399 0.61116 0.0
C609 C 0.86119 0.58246 0.60398 0.0
C610 C 0.91861 0.55758 0.56158 0.0
C611 C 0.84308 0.58198 0.58646 0.0
C612 C 0.82453 0.56709 0.55054 0.0
C613 C 0.84205 0.56732 0.56671 0.0
C614 C 0.80904 0.59633 0.57342 0.0
C615 C 0.80782 0.58162 0.55367 0.0
C616 C 0.82647 0.59646 0.58963 0.0
C617 C 0.92473 0.58567 0.66888 0.0
C618 C 0.93665 0.61069 0.70067 0.0
C619 C 0.91732 0.57928 0.71309 0.0
C620 C 0.91565 0.5732 0.68794 0.0
C621 C 0.92819 0.59792 0.71983 0.0
C622 C 0.93502 0.60459 0.67555 0.0
C623 C 0.92577 0.57813 0.64256 0.0
O624 O 0.90915 0.54567 0.57843 0.0
O625 O 0.91676 0.57794 0.56614 0.0
O626 O 0.9236 0.5925 0.62491 0.0
O627 O 0.91622 0.56016 0.63723 0.0
H628 H 0.95335 0.55041 0.59094 0.0
H629 H 0.98839 0.53815 0.57734 0.0
H630 H 0.9665 0.53727 0.50064 0.0
H631 H 0.93146 0.54903 0.51452 0.0
H632 H 0.82422 0.55573 0.53536 0.0
H633 H 0.85478 0.55608 0.56379 0.0
H634 H 0.79637 0.60757 0.57657 0.0
H635 H 0.82695 0.60788 0.60477 0.0
H636 H 0.94485 0.6253 0.70509 0.0
H637 H 0.91083 0.56889 0.7273 0.0
H638 H 0.90781 0.55839 0.68356 0.0
H639 H 0.94236 0.61444 0.66136 0.0
C640 C 0.11868 0.44668 0.25333 0.0
C641 C 0.1042 0.43121 0.24503 0.0
H642 H 0.13272 0.46268 0.28453 0.0
C643 C 0.09402 0.4185 0.26304 0.0
H644 H 0.1271 0.45654 0.24002 0.0
C645 C 0.0975 0.42181 0.28864 0.0
C646 C 0.11123 0.43796 0.29695 0.0
H647 H 0.08269 0.4065 0.25743 0.0
H648 H 0.0891 0.41195 0.30196 0.0
C649 C 0.12213 0.45003 0.27892 0.0
C650 C 0.09928 0.12007 0.75496 0.0
C651 C 0.11203 0.10319 0.74664 0.0
H652 H 0.08496 0.13587 0.78615 0.0
C653 C 0.1217 0.09015 0.76467 0.0
H654 H 0.09184 0.13066 0.74166 0.0
C655 C 0.11799 0.09334 0.79024 0.0
C656 C 0.10446 0.10961 0.79851 0.0
H657 H 0.1315 0.07691 0.75905 0.0
H658 H 0.12545 0.08275 0.80353 0.0
C659 C 0.09553 0.12324 0.78055 0.0
C660 C 0.42166 0.09033 0.27924 0.0
C661 C 0.43178 0.10308 0.29723 0.0
H662 H 0.41755 0.08311 0.2404 0.0
C663 C 0.44498 0.11965 0.28886 0.0
H664 H 0.41151 0.07734 0.2849 0.0
C665 C 0.44872 0.12276 0.26327 0.0
C666 C 0.43933 0.10941 0.24533 0.0
H667 H 0.45278 0.13001 0.30214 0.0
H668 H 0.45964 0.13513 0.25763 0.0
C669 C 0.42536 0.09347 0.25366 0.0
C670 C 0.42049 0.4415 0.79217 0.0
C671 C 0.4395 0.43163 0.7995 0.0
H672 H 0.40151 0.45327 0.76196 0.0
C673 C 0.45387 0.42534 0.78078 0.0
H674 H 0.40889 0.44626 0.80603 0.0
C675 C 0.44964 0.42938 0.7555 0.0
C676 C 0.43091 0.43981 0.74822 0.0
H677 H 0.46881 0.41799 0.78571 0.0
H678 H 0.46146 0.42501 0.74173 0.0
C679 C 0.41625 0.44554 0.76688 0.0
C680 C 0.91977 0.60345 0.79022 0.0
C681 C 0.93962 0.61107 0.79827 0.0
H682 H 0.90042 0.59374 0.75929 0.0
C683 C 0.95527 0.61529 0.78015 0.0
H684 H 0.90725 0.60032 0.80361 0.0
C685 C 0.95138 0.61146 0.75476 0.0
C686 C 0.93171 0.60335 0.74674 0.0
H687 H 0.97084 0.62083 0.78567 0.0
H688 H 0.9641 0.61418 0.74151 0.0
C689 C 0.91586 0.59965 0.76479 0.0
C690 C 0.91967 0.93842 0.25445 0.0
C691 C 0.93942 0.93056 0.24645 0.0
H692 H 0.90037 0.94831 0.28533 0.0
C693 C 0.95492 0.92608 0.2646 0.0
H694 H 0.90724 0.94176 0.24102 0.0
C695 C 0.95101 0.9299 0.29 0.0
C696 C 0.93145 0.93826 0.29797 0.0
H697 H 0.97042 0.92034 0.25913 0.0
H698 H 0.96364 0.92698 0.30329 0.0
C699 C 0.91573 0.94221 0.27987 0.0
C700 C 0.62346 0.94768 0.76406 0.0
C701 C 0.61076 0.93706 0.74642 0.0
H702 H 0.63036 0.95308 0.80279 0.0
C703 C 0.5957 0.92231 0.75516 0.0
H704 H 0.63513 0.95922 0.7581 0.0
C705 C 0.59274 0.91901 0.78085 0.0
C706 C 0.60479 0.93032 0.79852 0.0
H707 H 0.58587 0.91357 0.74214 0.0
H708 H 0.5804 0.90819 0.78683 0.0
C709 C 0.62053 0.94434 0.78976 0.0
C710 C 0.59737 0.61953 0.28896 0.0
C711 C 0.61161 0.60402 0.29764 0.0
H712 H 0.58252 0.63419 0.25736 0.0
C713 C 0.62338 0.59249 0.27992 0.0
H714 H 0.58828 0.62896 0.30204 0.0
C715 C 0.6203 0.59572 0.25424 0.0
C716 C 0.60533 0.61053 0.24556 0.0
H717 H 0.6344 0.58035 0.28583 0.0
H718 H 0.62939 0.58629 0.24116 0.0
C719 C 0.59425 0.62272 0.26328 0.0
C720 C 0.10015 0.27949 0.02934 0.0
C721 C 0.08098 0.2884 0.03773 0.0
H722 H 0.1152 0.25549 1.00733 0.0
C723 C 0.06178 0.27932 0.0296 0.0
H724 H 0.11522 0.28618 0.03502 0.0
C725 C 0.06177 0.26172 1.01362 0.0
C726 C 0.08096 0.25286 1.00518 0.0
H727 H 0.04673 0.28566 0.03586 0.0
H728 H 0.04671 0.2552 1.00761 0.0
C729 C 0.10013 0.262 1.01325 0.0
C730 C 0.28049 0.0613 0.51381 0.0
C731 C 0.28946 0.08045 0.50542 0.0
H732 H 0.25646 0.04628 0.53606 0.0
C733 C 0.28042 0.0996 0.51359 0.0
H734 H 0.28693 0.04627 0.50772 0.0
C735 C 0.26293 0.0996 0.52974 0.0
C736 C 0.25391 0.08047 0.53807 0.0
H737 H 0.28702 0.11464 0.50771 0.0
H738 H 0.25632 0.11465 0.53549 0.0
C739 C 0.26288 0.06131 0.52985 0.0
C740 C 0.48285 0.27929 1.01512 0.0
C741 C 0.46367 0.28823 1.00681 0.0
H742 H 0.49787 0.2552 0.03716 0.0
C743 C 0.44448 0.27912 1.01492 0.0
H744 H 0.49791 0.28579 1.00908 0.0
C745 C 0.44446 0.26155 0.03091 0.0
C746 C 0.46362 0.25254 0.03915 0.0
H747 H 0.42942 0.2857 1.0091 0.0
H748 H 0.42937 0.25487 0.0366 0.0
C749 C 0.48282 0.26161 0.031 0.0
C750 C 0.27966 0.48111 0.52883 0.0
C751 C 0.28888 0.462 0.53686 0.0
H752 H 0.25541 0.496 0.50688 0.0
C753 C 0.28014 0.44282 0.52831 0.0
H754 H 0.28586 0.49616 0.53522 0.0
C755 C 0.26266 0.44272 0.51217 0.0
C756 C 0.25336 0.46181 0.50423 0.0
H757 H 0.28695 0.42781 0.53391 0.0
H758 H 0.25626 0.42764 0.50614 0.0
C759 C 0.26206 0.48101 0.5128 0.0
C760 C 0.98097 0.77968 0.03031 0.0
C761 C 0.96178 0.7886 0.03861 0.0
H762 H 0.99601 0.75554 1.00838 0.0
C763 C 0.9426 0.77941 0.03064 0.0
H764 H 0.99602 0.78624 0.03626 0.0
C765 C 0.9426 0.76178 1.01477 0.0
C766 C 0.96177 0.7528 1.00652 0.0
H767 H 0.92753 0.78597 0.03646 0.0
H768 H 0.92752 0.75505 1.00916 0.0
C769 C 0.98096 0.76194 1.01454 0.0
C770 C 0.76268 0.94071 0.53311 0.0
C771 C 0.75304 0.9598 0.54043 0.0
H772 H 0.78742 0.92576 0.51211 0.0
C773 C 0.76159 0.97897 0.5315 0.0
H774 H 0.75642 0.92565 0.53944 0.0
C775 C 0.77936 0.97903 0.51573 0.0
C776 C 0.78893 0.95991 0.50832 0.0
H777 H 0.75468 0.99397 0.53693 0.0
H778 H 0.78544 0.99405 0.50904 0.0
C779 C 0.78035 0.94076 0.51723 0.0
C780 C 0.60249 0.76204 0.0305 0.0
C781 C 0.58332 0.75286 0.03855 0.0
H782 H 0.61756 0.78636 1.00888 0.0
C783 C 0.56413 0.76178 0.03026 0.0
H784 H 0.61757 0.75548 0.03631 0.0
C785 C 0.56412 0.77949 1.01442 0.0
C786 C 0.58331 0.78861 1.00631 0.0
H787 H 0.54908 0.75523 0.03627 0.0
H788 H 0.54907 0.78588 1.00827 0.0
C789 C 0.60249 0.77964 1.01455 0.0
C790 C 0.76295 0.60075 0.51175 0.0
C791 C 0.75341 0.58164 0.50421 0.0
H792 H 0.78755 0.61573 0.53299 0.0
C793 C 0.762 0.56247 0.51299 0.0
H794 H 0.75665 0.6158 0.50554 0.0
C795 C 0.77972 0.56243 0.52884 0.0
C796 C 0.78918 0.58156 0.53646 0.0
H797 H 0.75517 0.54746 0.50739 0.0
H798 H 0.78583 0.5474 0.5354 0.0
C799 C 0.78056 0.60071 0.5277 0.0
C800 C 0.02551 0.52731 0.99828 0.0
C801 C 1.01349 0.54023 1.01434 0.0
H802 H 0.0419 0.49794 0.99334 0.0
C803 C 1.00849 0.53259 0.03839 0.0
H804 H 0.02994 0.53281 0.97978 0.0
C805 C 1.01535 0.51258 0.04617 0.0
C806 C 0.02739 0.49966 0.03012 0.0
H807 H 0.99899 0.54196 0.05112 0.0
H808 H 1.01092 0.50709 0.06467 0.0
C809 C 0.03238 0.5073 1.00606 0.0
C810 C 0.0335 0.0338 0.50822 0.0
C811 C 0.04239 0.02642 0.53075 0.0
H812 H 1.00705 0.03304 0.48309 0.0
C813 C 0.03081 1.01175 0.54514 0.0
H814 H 0.04182 0.04534 0.49685 0.0
C815 C 1.01086 1.00468 0.53723 0.0
C816 C 1.00195 1.01209 0.51473 0.0
H817 H 0.0373 1.00547 0.56238 0.0
H818 H 1.00254 0.99315 0.54861 0.0
C819 C 1.01355 0.02673 0.50031 0.0
C820 C 0.52895 0.02812 0.04636 0.0
C821 C 0.51682 0.04105 0.03041 0.0
H822 H 0.54536 0.99874 0.05116 0.0
C823 C 0.51169 0.03343 1.00641 0.0
H824 H 0.53349 0.0336 0.06481 0.0
C825 C 0.51851 1.01342 0.99857 0.0
C826 C 0.53062 1.00049 1.01452 0.0
H827 H 0.5021 0.04281 0.99377 0.0
H828 H 0.51396 1.00795 0.98012 0.0
C829 C 0.53577 1.00812 0.03852 0.0
C830 C 0.53286 0.53593 0.53711 0.0
C831 C 0.54179 0.52825 0.51474 0.0
H832 H 0.50638 0.53543 0.56225 0.0
C833 C 0.5303 0.5133 0.50071 0.0
H834 H 0.54112 0.54769 0.5482 0.0
C835 C 0.51038 0.50625 0.50878 0.0
C836 C 0.50141 0.51398 0.5311 0.0
H837 H 0.53683 0.50677 0.48362 0.0
H838 H 0.50213 0.4945 0.49767 0.0
C839 C 0.51293 0.52889 0.54518 0.0
C840 C 1.01511 0.02874 0.99796 0.0
C841 C 0.02717 0.04178 1.01388 0.0
H842 H 0.99878 0.99927 0.99325 0.0
C843 C 0.03222 0.03427 0.03796 0.0
H844 H 1.01064 0.03413 0.97945 0.0
C845 C 0.02541 1.01425 0.04589 0.0
C846 C 1.01338 1.0012 0.02995 0.0
H847 H 0.04176 0.04372 0.05059 0.0
H848 H 0.0299 1.00886 0.06439 0.0
C849 C 1.0083 1.00873 1.00588 0.0
C850 C 0.51294 1.01299 0.49855 0.0
C851 C 0.50087 0.02687 0.51339 0.0
H852 H 0.54155 0.99502 0.49486 0.0
C853 C 0.50926 0.03358 0.53648 0.0
H854 H 0.50684 1.00723 0.48086 0.0
C855 C 0.52917 0.02657 0.54452 0.0
C856 C 0.54124 1.01267 0.52969 0.0
H857 H 0.50056 0.04453 0.54821 0.0
H858 H 0.53526 0.03233 0.56221 0.0
C859 C 0.53286 1.00598 0.50659 0.0
C860 C 0.5129 0.53851 1.01446 0.0
C861 C 0.53095 0.54085 0.02969 0.0
H862 H 0.49205 0.51722 0.99524 0.0
C863 C 0.54216 0.52258 0.03685 0.0
H864 H 0.50369 0.55218 1.0089 0.0
C865 C 0.53548 0.50251 0.02899 0.0
C866 C 0.51742 0.50016 1.01378 0.0
H867 H 0.55632 0.52379 0.04822 0.0
H868 H 0.54469 0.48883 0.03456 0.0
C869 C 0.50622 0.51844 1.0066 0.0
C870 C 1.02023 0.53752 0.54001 0.0
C871 C 1.00157 0.52919 0.52943 0.0
H872 H 0.05419 0.53763 0.54024 0.0
C873 C 1.00341 0.51372 0.51061 0.0
H874 H 1.01945 0.54969 0.55426 0.0
C875 C 0.02335 0.50679 0.50256 0.0
C876 C 0.04201 0.51514 0.51311 0.0
H877 H 0.9894 0.50669 0.50232 0.0
H878 H 0.02412 0.49461 0.48832 0.0
C879 C 0.04018 0.5306 0.53195 0.0
loop_
_geom_bond_atom_site_label_1
_geom_bond_atom_site_label_2
_geom_bond_distance
_geom_bond_site_symmetry_2
_ccdc_geom_bond_type
C0 C1 1.264 . S
C0 C5 1.479 . S
C0 C10 1.465 . S
C1 C0 1.264 . S
C1 C3 1.339 . S
C1 H28 0.931 . S
C2 C3 1.395 . S
C2 C4 1.320 . S
C3 C1 1.339 . S
C3 C2 1.395 . S
C3 H29 0.929 . S
C4 C2 1.320 . S
C4 C5 1.405 . S
C4 H30 0.930 1_554 S
C5 C0 1.479 . S
C5 C4 1.405 . S
C5 H31 0.931 . S
U6 O7 2.454 . S
U6 O8 2.458 . S
U6 C9 2.984 . S
U6 C10 2.847 . S
U6 C23 2.882 . S
U6 O24 2.441 . S
U6 O25 2.420 . S
U6 O26 2.455 . S
U6 O27 2.449 . S
O7 U6 2.454 . S
O7 C9 1.353 . S
O8 U6 2.458 . S
O8 C9 1.286 . S
C9 U6 2.984 . S
C9 O7 1.353 . S
C9 O8 1.286 . S
C9 C11 1.363 . S
C10 C0 1.465 . S
C10 U6 2.847 . S
C10 O24 1.249 . S
C10 O25 1.202 . S
C11 C9 1.363 . S
C11 C13 1.408 . S
C11 C16 1.342 . S
C12 C13 1.310 . S
C12 C15 1.461 . S
C12 H32 0.932 1_554 S
C13 C11 1.408 . S
C13 C12 1.310 . S
C13 H33 0.930 . S
C14 C15 1.474 . S
C14 C16 1.285 . S
C14 H34 0.929 . S
C15 C12 1.461 . S
C15 C14 1.474 . S
C16 C11 1.342 . S
C16 C14 1.285 . S
C16 H35 0.930 . S
C17 C20 1.424 . S
C17 C22 1.245 . S
C17 C23 1.428 . S
C18 C21 1.260 . S
C18 C22 1.477 . S
C18 H36 0.932 . S
C19 C20 1.384 . S
C19 C21 1.479 . S
C19 H37 0.929 . S
C20 C17 1.424 . S
C20 C19 1.384 . S
C20 H38 0.928 . S
C21 C18 1.260 . S
C21 C19 1.479 . S
C22 C17 1.245 . S
C22 C18 1.477 . S
C22 H39 0.932 . S
C23 U6 2.882 . S
C23 C17 1.428 . S
C23 O26 1.301 . S
C23 O27 1.282 . S
O24 U6 2.441 . S
O24 C10 1.249 . S
O25 U6 2.420 . S
O25 C10 1.202 . S
O26 U6 2.455 . S
O26 C23 1.301 . S
O27 U6 2.449 . S
O27 C23 1.282 . S
H28 C1 0.931 . S
H29 C3 0.929 . S
H30 C4 0.930 1_556 S
H31 C5 0.931 . S
H32 C12 0.932 1_556 S
H33 C13 0.930 . S
H34 C14 0.929 . S
H35 C16 0.930 . S
H36 C18 0.932 . S
H37 C19 0.929 . S
H38 C20 0.928 . S
H39 C22 0.932 . S
C40 C41 1.264 . S
C40 C45 1.479 . S
C40 C50 1.465 . S
C41 C40 1.264 . S
C41 C43 1.339 . S
C41 H68 0.931 . S
C42 C43 1.395 . S
C42 C44 1.320 . S
C43 C41 1.339 . S
C43 C42 1.395 . S
C43 H69 0.929 . S
C44 C42 1.320 . S
C44 C45 1.405 . S
C44 H70 0.930 . S
C45 C40 1.479 . S
C45 C44 1.405 . S
C45 H71 0.931 . S
U46 O47 2.454 . S
U46 O48 2.458 . S
U46 C49 2.984 . S
U46 C50 2.847 . S
U46 C63 2.882 . S
U46 O64 2.441 . S
U46 O65 2.420 . S
U46 O66 2.455 . S
U46 O67 2.449 . S
O47 U46 2.454 . S
O47 C49 1.353 . S
O48 U46 2.458 . S
O48 C49 1.286 . S
C49 U46 2.984 . S
C49 O47 1.353 . S
C49 O48 1.286 . S
C49 C51 1.363 . S
C50 C40 1.465 . S
C50 U46 2.847 . S
C50 O64 1.249 . S
C50 O65 1.202 . S
C51 C49 1.363 . S
C51 C53 1.408 . S
C51 C56 1.342 . S
C52 C53 1.310 . S
C52 C55 1.461 . S
C52 H72 0.932 . S
C53 C51 1.408 . S
C53 C52 1.310 . S
C53 H73 0.930 . S
C54 C55 1.474 . S
C54 C56 1.285 . S
C54 H74 0.929 . S
C55 C52 1.461 . S
C55 C54 1.474 . S
C56 C51 1.342 . S
C56 C54 1.285 . S
C56 H75 0.930 . S
C57 C60 1.424 . S
C57 C62 1.245 . S
C57 C63 1.428 . S
C58 C61 1.260 . S
C58 C62 1.477 . S
C58 H76 0.932 . S
C59 C60 1.384 . S
C59 C61 1.479 . S
C59 H77 0.929 . S
C60 C57 1.424 . S
C60 C59 1.384 . S
C60 H78 0.928 . S
C61 C58 1.260 . S
C61 C59 1.479 . S
C62 C57 1.245 . S
C62 C58 1.477 . S
C62 H79 0.932 . S
C63 U46 2.882 . S
C63 C57 1.428 . S
C63 O66 1.301 . S
C63 O67 1.282 . S
O64 U46 2.441 . S
O64 C50 1.249 . S
O65 U46 2.420 . S
O65 C50 1.202 . S
O66 U46 2.455 . S
O66 C63 1.301 . S
O67 U46 2.449 . S
O67 C63 1.282 . S
H68 C41 0.931 . S
H69 C43 0.929 . S
H70 C44 0.930 . S
H71 C45 0.931 . S
H72 C52 0.932 . S
H73 C53 0.930 . S
H74 C54 0.929 . S
H75 C56 0.930 . S
H76 C58 0.932 . S
H77 C59 0.929 . S
H78 C60 0.928 . S
H79 C62 0.932 . S
C80 C81 1.264 . S
C80 C85 1.479 . S
C80 C90 1.465 . S
C81 C80 1.264 . S
C81 C83 1.339 . S
C81 H108 0.931 . S
C82 C83 1.395 . S
C82 C84 1.320 . S
C83 C81 1.339 . S
C83 C82 1.395 . S
C83 H109 0.929 . S
C84 C82 1.320 . S
C84 C85 1.405 . S
C84 H110 0.930 1_554 S
C85 C80 1.479 . S
C85 C84 1.405 . S
C85 H111 0.931 . S
U86 O87 2.454 . S
U86 O88 2.458 . S
U86 C89 2.984 . S
U86 C90 2.847 . S
U86 C103 2.882 . S
U86 O104 2.441 . S
U86 O105 2.420 . S
U86 O106 2.455 . S
U86 O107 2.449 . S
O87 U86 2.454 . S
O87 C89 1.353 . S
O88 U86 2.458 . S
O88 C89 1.286 . S
C89 U86 2.984 . S
C89 O87 1.353 . S
C89 O88 1.286 . S
C89 C91 1.363 . S
C90 C80 1.465 . S
C90 U86 2.847 . S
C90 O104 1.249 . S
C90 O105 1.202 . S
C91 C89 1.363 . S
C91 C93 1.408 . S
C91 C96 1.342 . S
C92 C93 1.310 . S
C92 C95 1.461 . S
C92 H112 0.932 1_554 S
C93 C91 1.408 . S
C93 C92 1.310 . S
C93 H113 0.930 . S
C94 C95 1.474 . S
C94 C96 1.285 . S
C94 H114 0.929 . S
C95 C92 1.461 . S
C95 C94 1.474 . S
C96 C91 1.342 . S
C96 C94 1.285 . S
C96 H115 0.930 . S
C97 C100 1.424 . S
C97 C102 1.245 . S
C97 C103 1.428 . S
C98 C101 1.260 . S
C98 C102 1.477 . S
C98 H116 0.932 . S
C99 C100 1.384 . S
C99 C101 1.479 . S
C99 H117 0.929 . S
C100 C97 1.424 . S
C100 C99 1.384 . S
C100 H118 0.928 . S
C101 C98 1.260 . S
C101 C99 1.479 . S
C102 C97 1.245 . S
C102 C98 1.477 . S
C102 H119 0.932 . S
C103 U86 2.882 . S
C103 C97 1.428 . S
C103 O106 1.301 . S
C103 O107 1.282 . S
O104 U86 2.441 . S
O104 C90 1.249 . S
O105 U86 2.420 . S
O105 C90 1.202 . S
O106 U86 2.455 . S
O106 C103 1.301 . S
O107 U86 2.449 . S
O107 C103 1.282 . S
H108 C81 0.931 . S
H109 C83 0.929 . S
H110 C84 0.930 1_556 S
H111 C85 0.931 . S
H112 C92 0.932 1_556 S
H113 C93 0.930 . S
H114 C94 0.929 . S
H115 C96 0.930 . S
H116 C98 0.932 . S
H117 C99 0.929 . S
H118 C100 0.928 . S
H119 C102 0.932 . S
C120 C121 1.264 . S
C120 C125 1.479 . S
C120 C130 1.465 . S
C121 C120 1.264 . S
C121 C123 1.339 . S
C121 H148 0.931 . S
C122 C123 1.395 . S
C122 C124 1.320 . S
C123 C121 1.339 . S
C123 C122 1.395 . S
C123 H149 0.929 . S
C124 C122 1.320 . S
C124 C125 1.405 . S
C124 H150 0.930 . S
C125 C120 1.479 . S
C125 C124 1.405 . S
C125 H151 0.931 . S
U126 O127 2.454 . S
U126 O128 2.458 . S
U126 C129 2.984 . S
U126 C130 2.847 . S
U126 C143 2.882 . S
U126 O144 2.441 . S
U126 O145 2.420 . S
U126 O146 2.455 . S
U126 O147 2.449 . S
O127 U126 2.454 . S
O127 C129 1.353 . S
O128 U126 2.458 . S
O128 C129 1.286 . S
C129 U126 2.984 . S
C129 O127 1.353 . S
C129 O128 1.286 . S
C129 C131 1.363 . S
C130 C120 1.465 . S
C130 U126 2.847 . S
C130 O144 1.249 . S
C130 O145 1.202 . S
C131 C129 1.363 . S
C131 C133 1.408 . S
C131 C136 1.342 . S
C132 C133 1.310 . S
C132 C135 1.461 . S
C132 H152 0.932 . S
C133 C131 1.408 . S
C133 C132 1.310 . S
C133 H153 0.930 . S
C134 C135 1.474 . S
C134 C136 1.285 . S
C134 H154 0.929 . S
C135 C132 1.461 . S
C135 C134 1.474 . S
C136 C131 1.342 . S
C136 C134 1.285 . S
C136 H155 0.930 . S
C137 C140 1.424 . S
C137 C142 1.245 . S
C137 C143 1.428 . S
C138 C141 1.260 . S
C138 C142 1.477 . S
C138 H156 0.932 . S
C139 C140 1.384 . S
C139 C141 1.479 . S
C139 H157 0.929 . S
C140 C137 1.424 . S
C140 C139 1.384 . S
C140 H158 0.928 . S
C141 C138 1.260 . S
C141 C139 1.479 . S
C142 C137 1.245 . S
C142 C138 1.477 . S
C142 H159 0.932 . S
C143 U126 2.882 . S
C143 C137 1.428 . S
C143 O146 1.301 . S
C143 O147 1.282 . S
O144 U126 2.441 . S
O144 C130 1.249 . S
O145 U126 2.420 . S
O145 C130 1.202 . S
O146 U126 2.455 . S
O146 C143 1.301 . S
O147 U126 2.449 . S
O147 C143 1.282 . S
H148 C121 0.931 . S
H149 C123 0.929 . S
H150 C124 0.930 . S
H151 C125 0.931 . S
H152 C132 0.932 . S
H153 C133 0.930 . S
H154 C134 0.929 . S
H155 C136 0.930 . S
H156 C138 0.932 . S
H157 C139 0.929 . S
H158 C140 0.928 . S
H159 C142 0.932 . S
C160 C161 1.264 . S
C160 C165 1.479 . S
C160 C170 1.465 . S
C161 C160 1.264 . S
C161 C163 1.339 . S
C161 H188 0.931 . S
C162 C163 1.395 . S
C162 C164 1.320 . S
C163 C161 1.339 . S
C163 C162 1.395 . S
C163 H189 0.929 . S
C164 C162 1.320 . S
C164 C165 1.405 . S
C164 H190 0.930 1_556 S
C165 C160 1.479 . S
C165 C164 1.405 . S
C165 H191 0.931 . S
U166 O167 2.454 . S
U166 O168 2.458 . S
U166 C169 2.984 . S
U166 C170 2.847 . S
U166 C183 2.882 . S
U166 O184 2.441 . S
U166 O185 2.420 . S
U166 O186 2.455 . S
U166 O187 2.449 . S
O167 U166 2.454 . S
O167 C169 1.353 . S
O168 U166 2.458 . S
O168 C169 1.286 . S
C169 U166 2.984 . S
C169 O167 1.353 . S
C169 O168 1.286 . S
C169 C171 1.363 . S
C170 C160 1.465 . S
C170 U166 2.847 . S
C170 O184 1.249 . S
C170 O185 1.202 . S
C171 C169 1.363 . S
C171 C173 1.408 . S
C171 C176 1.342 . S
C172 C173 1.310 . S
C172 C175 1.461 . S
C172 H192 0.932 1_556 S
C173 C171 1.408 . S
C173 C172 1.310 . S
C173 H193 0.930 . S
C174 C175 1.474 . S
C174 C176 1.285 . S
C174 H194 0.929 . S
C175 C172 1.461 . S
C175 C174 1.474 . S
C176 C171 1.342 . S
C176 C174 1.285 . S
C176 H195 0.930 . S
C177 C180 1.424 . S
C177 C182 1.245 . S
C177 C183 1.428 . S
C178 C181 1.260 . S
C178 C182 1.477 . S
C178 H196 0.932 . S
C179 C180 1.384 . S
C179 C181 1.479 . S
C179 H197 0.929 . S
C180 C177 1.424 . S
C180 C179 1.384 . S
C180 H198 0.928 . S
C181 C178 1.260 . S
C181 C179 1.479 . S
C182 C177 1.245 . S
C182 C178 1.477 . S
C182 H199 0.932 . S
C183 U166 2.882 . S
C183 C177 1.428 . S
C183 O186 1.301 . S
C183 O187 1.282 . S
O184 U166 2.441 . S
O184 C170 1.249 . S
O185 U166 2.420 . S
O185 C170 1.202 . S
O186 U166 2.455 . S
O186 C183 1.301 . S
O187 U166 2.449 . S
O187 C183 1.282 . S
H188 C161 0.931 . S
H189 C163 0.929 . S
H190 C164 0.930 1_554 S
H191 C165 0.931 . S
H192 C172 0.932 1_554 S
H193 C173 0.930 . S
H194 C174 0.929 . S
H195 C176 0.930 . S
H196 C178 0.932 . S
H197 C179 0.929 . S
H198 C180 0.928 . S
H199 C182 0.932 . S
C200 C201 1.264 . S
C200 C205 1.479 . S
C200 C210 1.465 . S
C201 C200 1.264 . S
C201 C203 1.339 . S
C201 H228 0.931 . S
C202 C203 1.395 . S
C202 C204 1.320 . S
C203 C201 1.339 . S
C203 C202 1.395 . S
C203 H229 0.929 . S
C204 C202 1.320 . S
C204 C205 1.405 . S
C204 H230 0.930 . S
C205 C200 1.479 . S
C205 C204 1.405 . S
C205 H231 0.931 . S
U206 O207 2.454 . S
U206 O208 2.458 . S
U206 C209 2.984 . S
U206 C210 2.847 . S
U206 C223 2.882 . S
U206 O224 2.441 . S
U206 O225 2.420 . S
U206 O226 2.455 . S
U206 O227 2.449 . S
O207 U206 2.454 . S
O207 C209 1.353 . S
O208 U206 2.458 . S
O208 C209 1.286 . S
C209 U206 2.984 . S
C209 O207 1.353 . S
C209 O208 1.286 . S
C209 C211 1.363 . S
C210 C200 1.465 . S
C210 U206 2.847 . S
C210 O224 1.249 . S
C210 O225 1.202 . S
C211 C209 1.363 . S
C211 C213 1.408 . S
C211 C216 1.342 . S
C212 C213 1.310 . S
C212 C215 1.461 . S
C212 H232 0.932 . S
C213 C211 1.408 . S
C213 C212 1.310 . S
C213 H233 0.930 . S
C214 C215 1.474 . S
C214 C216 1.285 . S
C214 H234 0.929 . S
C215 C212 1.461 . S
C215 C214 1.474 . S
C216 C211 1.342 . S
C216 C214 1.285 . S
C216 H235 0.930 . S
C217 C220 1.424 . S
C217 C222 1.245 . S
C217 C223 1.428 . S
C218 C221 1.260 . S
C218 C222 1.477 . S
C218 H236 0.932 . S
C219 C220 1.384 . S
C219 C221 1.479 . S
C219 H237 0.929 . S
C220 C217 1.424 . S
C220 C219 1.384 . S
C220 H238 0.928 . S
C221 C218 1.260 . S
C221 C219 1.479 . S
C222 C217 1.245 . S
C222 C218 1.477 . S
C222 H239 0.932 . S
C223 U206 2.882 . S
C223 C217 1.428 . S
C223 O226 1.301 . S
C223 O227 1.282 . S
O224 U206 2.441 . S
O224 C210 1.249 . S
O225 U206 2.420 . S
O225 C210 1.202 . S
O226 U206 2.455 . S
O226 C223 1.301 . S
O227 U206 2.449 . S
O227 C223 1.282 . S
H228 C201 0.931 . S
H229 C203 0.929 . S
H230 C204 0.930 . S
H231 C205 0.931 . S
H232 C212 0.932 . S
H233 C213 0.930 . S
H234 C214 0.929 . S
H235 C216 0.930 . S
H236 C218 0.932 . S
H237 C219 0.929 . S
H238 C220 0.928 . S
H239 C222 0.932 . S
C240 C241 1.264 . S
C240 C245 1.479 . S
C240 C250 1.465 . S
C241 C240 1.264 . S
C241 C243 1.339 . S
C241 H268 0.931 . S
C242 C243 1.395 . S
C242 C244 1.320 . S
C243 C241 1.339 . S
C243 C242 1.395 . S
C243 H269 0.929 . S
C244 C242 1.320 . S
C244 C245 1.405 . S
C244 H270 0.930 1_556 S
C245 C240 1.479 . S
C245 C244 1.405 . S
C245 H271 0.931 . S
U246 O247 2.454 . S
U246 O248 2.458 . S
U246 C249 2.984 . S
U246 C250 2.847 . S
U246 C263 2.882 . S
U246 O264 2.441 . S
U246 O265 2.420 . S
U246 O266 2.455 . S
U246 O267 2.449 . S
O247 U246 2.454 . S
O247 C249 1.353 . S
O248 U246 2.458 . S
O248 C249 1.286 . S
C249 U246 2.984 . S
C249 O247 1.353 . S
C249 O248 1.286 . S
C249 C251 1.363 . S
C250 C240 1.465 . S
C250 U246 2.847 . S
C250 O264 1.249 . S
C250 O265 1.202 . S
C251 C249 1.363 . S
C251 C253 1.408 . S
C251 C256 1.342 . S
C252 C253 1.310 . S
C252 C255 1.461 . S
C252 H272 0.932 1_556 S
C253 C251 1.408 . S
C253 C252 1.310 . S
C253 H273 0.930 . S
C254 C255 1.474 . S
C254 C256 1.285 . S
C254 H274 0.929 . S
C255 C252 1.461 . S
C255 C254 1.474 . S
C256 C251 1.342 . S
C256 C254 1.285 . S
C256 H275 0.930 . S
C257 C260 1.424 . S
C257 C262 1.245 . S
C257 C263 1.428 . S
C258 C261 1.260 . S
C258 C262 1.477 . S
C258 H276 0.932 . S
C259 C260 1.384 . S
C259 C261 1.479 . S
C259 H277 0.929 . S
C260 C257 1.424 . S
C260 C259 1.384 . S
C260 H278 0.928 . S
C261 C258 1.260 . S
C261 C259 1.479 . S
C262 C257 1.245 . S
C262 C258 1.477 . S
C262 H279 0.932 . S
C263 U246 2.882 . S
C263 C257 1.428 . S
C263 O266 1.301 . S
C263 O267 1.282 . S
O264 U246 2.441 . S
O264 C250 1.249 . S
O265 U246 2.420 . S
O265 C250 1.202 . S
O266 U246 2.455 . S
O266 C263 1.301 . S
O267 U246 2.449 . S
O267 C263 1.282 . S
H268 C241 0.931 . S
H269 C243 0.929 . S
H270 C244 0.930 1_554 S
H271 C245 0.931 . S
H272 C252 0.932 1_554 S
H273 C253 0.930 . S
H274 C254 0.929 . S
H275 C256 0.930 . S
H276 C258 0.932 . S
H277 C259 0.929 . S
H278 C260 0.928 . S
H279 C262 0.932 . S
C280 C281 1.264 . S
C280 C285 1.479 . S
C280 C290 1.465 . S
C281 C280 1.264 . S
C281 C283 1.339 . S
C281 H308 0.931 . S
C282 C283 1.395 . S
C282 C284 1.320 . S
C283 C281 1.339 . S
C283 C282 1.395 . S
C283 H309 0.929 . S
C284 C282 1.320 . S
C284 C285 1.405 . S
C284 H310 0.930 . S
C285 C280 1.479 . S
C285 C284 1.405 . S
C285 H311 0.931 . S
U286 O287 2.454 . S
U286 O288 2.458 . S
U286 C289 2.984 . S
U286 C290 2.847 . S
U286 C303 2.882 . S
U286 O304 2.441 . S
U286 O305 2.420 . S
U286 O306 2.455 . S
U286 O307 2.449 . S
O287 U286 2.454 . S
O287 C289 1.353 . S
O288 U286 2.458 . S
O288 C289 1.286 . S
C289 U286 2.984 . S
C289 O287 1.353 . S
C289 O288 1.286 . S
C289 C291 1.363 . S
C290 C280 1.465 . S
C290 U286 2.847 . S
C290 O304 1.249 . S
C290 O305 1.202 . S
C291 C289 1.363 . S
C291 C293 1.408 . S
C291 C296 1.342 . S
C292 C293 1.310 . S
C292 C295 1.461 . S
C292 H312 0.932 . S
C293 C291 1.408 . S
C293 C292 1.310 . S
C293 H313 0.930 . S
C294 C295 1.474 . S
C294 C296 1.285 . S
C294 H314 0.929 . S
C295 C292 1.461 . S
C295 C294 1.474 . S
C296 C291 1.342 . S
C296 C294 1.285 . S
C296 H315 0.930 . S
C297 C300 1.424 . S
C297 C302 1.245 . S
C297 C303 1.428 . S
C298 C301 1.260 . S
C298 C302 1.477 . S
C298 H316 0.932 . S
C299 C300 1.384 . S
C299 C301 1.479 . S
C299 H317 0.929 . S
C300 C297 1.424 . S
C300 C299 1.384 . S
C300 H318 0.928 . S
C301 C298 1.260 . S
C301 C299 1.479 . S
C302 C297 1.245 . S
C302 C298 1.477 . S
C302 H319 0.932 . S
C303 U286 2.882 . S
C303 C297 1.428 . S
C303 O306 1.301 . S
C303 O307 1.282 . S
O304 U286 2.441 . S
O304 C290 1.249 . S
O305 U286 2.420 . S
O305 C290 1.202 . S
O306 U286 2.455 . S
O306 C303 1.301 . S
O307 U286 2.449 . S
O307 C303 1.282 . S
H308 C281 0.931 . S
H309 C283 0.929 . S
H310 C284 0.930 . S
H311 C285 0.931 . S
H312 C292 0.932 . S
H313 C293 0.930 . S
H314 C294 0.929 . S
H315 C296 0.930 . S
H316 C298 0.932 . S
H317 C299 0.929 . S
H318 C300 0.928 . S
H319 C302 0.932 . S
C320 C321 1.264 . S
C320 C325 1.479 . S
C320 C330 1.465 . S
C321 C320 1.264 . S
C321 C323 1.339 . S
C321 H348 0.931 . S
C322 C323 1.395 . S
C322 C324 1.320 . S
C323 C321 1.339 . S
C323 C322 1.395 . S
C323 H349 0.929 . S
C324 C322 1.320 . S
C324 C325 1.405 . S
C324 H350 0.931 1_556 S
C325 C320 1.479 . S
C325 C324 1.405 . S
C325 H351 0.915 1_556 S
U326 O327 2.454 . S
U326 O328 2.458 . S
U326 C329 2.984 . S
U326 C330 2.847 . S
U326 C343 2.882 . S
U326 O344 2.441 . S
U326 O345 2.420 . S
U326 O346 2.455 . S
U326 O347 2.449 . S
O327 U326 2.454 . S
O327 C329 1.353 . S
O328 U326 2.458 . S
O328 C329 1.286 . S
C329 U326 2.984 . S
C329 O327 1.353 . S
C329 O328 1.286 . S
C329 C331 1.363 . S
C330 C320 1.465 . S
C330 U326 2.847 . S
C330 O344 1.249 . S
C330 O345 1.202 . S
C331 C329 1.363 . S
C331 C333 1.408 . S
C331 C336 1.342 . S
C332 C333 1.310 . S
C332 C335 1.461 . S
C332 H352 0.932 1_556 S
C333 C331 1.408 . S
C333 C332 1.310 . S
C333 H353 0.930 . S
C334 C335 1.474 . S
C334 C336 1.285 . S
C334 H354 0.929 . S
C335 C332 1.461 . S
C335 C334 1.474 . S
C336 C331 1.342 . S
C336 C334 1.285 . S
C336 H355 0.930 . S
C337 C340 1.424 . S
C337 C342 1.245 . S
C337 C343 1.428 . S
C338 C341 1.260 . S
C338 C342 1.477 . S
C338 H356 0.932 . S
C339 C340 1.384 . S
C339 C341 1.479 . S
C339 H357 0.929 . S
C340 C337 1.424 . S
C340 C339 1.384 . S
C340 H358 0.928 . S
C341 C338 1.260 . S
C341 C339 1.479 . S
C342 C337 1.245 . S
C342 C338 1.477 . S
C342 H359 0.932 . S
C343 U326 2.882 . S
C343 C337 1.428 . S
C343 O346 1.301 . S
C343 O347 1.282 . S
O344 U326 2.441 . S
O344 C330 1.249 . S
O345 U326 2.420 . S
O345 C330 1.202 . S
O346 U326 2.455 . S
O346 C343 1.301 . S
O347 U326 2.449 . S
O347 C343 1.282 . S
H348 C321 0.931 . S
H349 C323 0.929 . S
H350 C324 0.931 1_554 S
H351 C325 0.915 1_554 S
H352 C332 0.932 1_554 S
H353 C333 0.930 . S
H354 C334 0.929 . S
H355 C336 0.930 . S
H356 C338 0.932 . S
H357 C339 0.929 . S
H358 C340 0.928 . S
H359 C342 0.932 . S
C360 C361 1.264 . S
C360 C365 1.479 . S
C360 C370 1.465 . S
C361 C360 1.264 . S
C361 C363 1.339 . S
C361 H388 0.931 . S
C362 C363 1.395 . S
C362 C364 1.320 . S
C363 C361 1.339 . S
C363 C362 1.395 . S
C363 H389 0.929 . S
C364 C362 1.320 . S
C364 C365 1.405 . S
C364 H390 0.930 . S
C365 C360 1.479 . S
C365 C364 1.405 . S
C365 H391 0.931 . S
U366 O367 2.454 . S
U366 O368 2.458 . S
U366 C369 2.984 . S
U366 C370 2.847 . S
U366 C383 2.882 . S
U366 O384 2.441 . S
U366 O385 2.420 . S
U366 O386 2.455 . S
U366 O387 2.449 . S
O367 U366 2.454 . S
O367 C369 1.353 . S
O368 U366 2.458 . S
O368 C369 1.286 . S
C369 U366 2.984 . S
C369 O367 1.353 . S
C369 O368 1.286 . S
C369 C371 1.363 . S
C370 C360 1.465 . S
C370 U366 2.847 . S
C370 O384 1.249 . S
C370 O385 1.202 . S
C371 C369 1.363 . S
C371 C373 1.408 . S
C371 C376 1.342 . S
C372 C373 1.310 . S
C372 C375 1.461 . S
C372 H392 0.932 . S
C373 C371 1.408 . S
C373 C372 1.310 . S
C373 H393 0.930 . S
C374 C375 1.474 . S
C374 C376 1.285 . S
C374 H394 0.929 . S
C375 C372 1.461 . S
C375 C374 1.474 . S
C376 C371 1.342 . S
C376 C374 1.285 . S
C376 H395 0.930 . S
C377 C380 1.424 . S
C377 C382 1.245 . S
C377 C383 1.428 . S
C378 C381 1.260 . S
C378 C382 1.477 . S
C378 H396 0.932 . S
C379 C380 1.384 . S
C379 C381 1.479 . S
C379 H397 0.929 . S
C380 C377 1.424 . S
C380 C379 1.384 . S
C380 H398 0.928 . S
C381 C378 1.260 . S
C381 C379 1.479 . S
C382 C377 1.245 . S
C382 C378 1.477 . S
C382 H399 0.932 . S
C383 U366 2.882 . S
C383 C377 1.428 . S
C383 O386 1.301 . S
C383 O387 1.282 . S
O384 U366 2.441 . S
O384 C370 1.249 . S
O385 U366 2.420 . S
O385 C370 1.202 . S
O386 U366 2.455 . S
O386 C383 1.301 . S
O387 U366 2.449 . S
O387 C383 1.282 . S
H388 C361 0.931 . S
H389 C363 0.929 . S
H390 C364 0.930 . S
H391 C365 0.931 . S
H392 C372 0.932 . S
H393 C373 0.930 . S
H394 C374 0.929 . S
H395 C376 0.930 . S
H396 C378 0.932 . S
H397 C379 0.929 . S
H398 C380 0.928 . S
H399 C382 0.932 . S
C400 C401 1.264 . S
C400 C405 1.479 . S
C400 C410 1.465 . S
C401 C400 1.264 . S
C401 C403 1.339 . S
C401 H428 0.931 . S
C402 C403 1.395 . S
C402 C404 1.320 . S
C403 C401 1.339 . S
C403 C402 1.395 . S
C403 H429 0.929 . S
C404 C402 1.320 . S
C404 C405 1.405 . S
C404 H430 0.931 1_556 S
C405 C400 1.479 . S
C405 C404 1.405 . S
C405 H431 0.915 1_556 S
U406 O407 2.454 . S
U406 O408 2.458 . S
U406 C409 2.984 . S
U406 C410 2.847 . S
U406 C423 2.882 . S
U406 O424 2.441 . S
U406 O425 2.420 . S
U406 O426 2.455 . S
U406 O427 2.449 . S
O407 U406 2.454 . S
O407 C409 1.353 . S
O408 U406 2.458 . S
O408 C409 1.286 . S
C409 U406 2.984 . S
C409 O407 1.353 . S
C409 O408 1.286 . S
C409 C411 1.363 . S
C410 C400 1.465 . S
C410 U406 2.847 . S
C410 O424 1.249 . S
C410 O425 1.202 . S
C411 C409 1.363 . S
C411 C413 1.408 . S
C411 C416 1.342 . S
C412 C413 1.310 . S
C412 C415 1.461 . S
C412 H432 0.932 1_556 S
C413 C411 1.408 . S
C413 C412 1.310 . S
C413 H433 0.930 . S
C414 C415 1.474 . S
C414 C416 1.285 . S
C414 H434 0.929 . S
C415 C412 1.461 . S
C415 C414 1.474 . S
C416 C411 1.342 . S
C416 C414 1.285 . S
C416 H435 0.930 . S
C417 C420 1.424 . S
C417 C422 1.245 . S
C417 C423 1.428 . S
C418 C421 1.260 . S
C418 C422 1.477 . S
C418 H436 0.932 . S
C419 C420 1.384 . S
C419 C421 1.479 . S
C419 H437 0.929 . S
C420 C417 1.424 . S
C420 C419 1.384 . S
C420 H438 0.928 . S
C421 C418 1.260 . S
C421 C419 1.479 . S
C422 C417 1.245 . S
C422 C418 1.477 . S
C422 H439 0.932 . S
C423 U406 2.882 . S
C423 C417 1.428 . S
C423 O426 1.301 . S
C423 O427 1.282 . S
O424 U406 2.441 . S
O424 C410 1.249 . S
O425 U406 2.420 . S
O425 C410 1.202 . S
O426 U406 2.455 . S
O426 C423 1.301 . S
O427 U406 2.449 . S
O427 C423 1.282 . S
H428 C401 0.931 . S
H429 C403 0.929 . S
H430 C404 0.931 1_554 S
H431 C405 0.915 1_554 S
H432 C412 0.932 1_554 S
H433 C413 0.930 . S
H434 C414 0.929 . S
H435 C416 0.930 . S
H436 C418 0.932 . S
H437 C419 0.929 . S
H438 C420 0.928 . S
H439 C422 0.932 . S
C440 C441 1.264 . S
C440 C445 1.479 . S
C440 C450 1.465 . S
C441 C440 1.264 . S
C441 C443 1.339 . S
C441 H468 0.931 . S
C442 C443 1.395 . S
C442 C444 1.320 . S
C443 C441 1.339 . S
C443 C442 1.395 . S
C443 H469 0.929 . S
C444 C442 1.320 . S
C444 C445 1.405 . S
C444 H470 0.930 . S
C445 C440 1.479 . S
C445 C444 1.405 . S
C445 H471 0.931 . S
U446 O447 2.454 . S
U446 O448 2.458 . S
U446 C449 2.984 . S
U446 C450 2.847 . S
U446 C463 2.882 . S
U446 O464 2.441 . S
U446 O465 2.420 . S
U446 O466 2.455 . S
U446 O467 2.449 . S
O447 U446 2.454 . S
O447 C449 1.353 . S
O448 U446 2.458 . S
O448 C449 1.286 . S
C449 U446 2.984 . S
C449 O447 1.353 . S
C449 O448 1.286 . S
C449 C451 1.363 . S
C450 C440 1.465 . S
C450 U446 2.847 . S
C450 O464 1.249 . S
C450 O465 1.202 . S
C451 C449 1.363 . S
C451 C453 1.408 . S
C451 C456 1.342 . S
C452 C453 1.310 . S
C452 C455 1.461 . S
C452 H472 0.932 . S
C453 C451 1.408 . S
C453 C452 1.310 . S
C453 H473 0.930 . S
C454 C455 1.474 . S
C454 C456 1.285 . S
C454 H474 0.929 . S
C455 C452 1.461 . S
C455 C454 1.474 . S
C456 C451 1.342 . S
C456 C454 1.285 . S
C456 H475 0.930 . S
C457 C460 1.424 . S
C457 C462 1.245 . S
C457 C463 1.428 . S
C458 C461 1.260 . S
C458 C462 1.477 . S
C458 H476 0.932 . S
C459 C460 1.384 . S
C459 C461 1.479 . S
C459 H477 0.929 . S
C460 C457 1.424 . S
C460 C459 1.384 . S
C460 H478 0.928 . S
C461 C458 1.260 . S
C461 C459 1.479 . S
C462 C457 1.245 . S
C462 C458 1.477 . S
C462 H479 0.932 . S
C463 U446 2.882 . S
C463 C457 1.428 . S
C463 O466 1.301 . S
C463 O467 1.282 . S
O464 U446 2.441 . S
O464 C450 1.249 . S
O465 U446 2.420 . S
O465 C450 1.202 . S
O466 U446 2.455 . S
O466 C463 1.301 . S
O467 U446 2.449 . S
O467 C463 1.282 . S
H468 C441 0.931 . S
H469 C443 0.929 . S
H470 C444 0.930 . S
H471 C445 0.931 . S
H472 C452 0.932 . S
H473 C453 0.930 . S
H474 C454 0.929 . S
H475 C456 0.930 . S
H476 C458 0.932 . S
H477 C459 0.929 . S
H478 C460 0.928 . S
H479 C462 0.932 . S
C480 C481 1.264 . S
C480 C485 1.479 . S
C480 C490 1.465 . S
C481 C480 1.264 . S
C481 C483 1.339 . S
C481 H508 0.931 . S
C482 C483 1.395 . S
C482 C484 1.320 . S
C483 C481 1.339 . S
C483 C482 1.395 . S
C483 H509 0.929 . S
C484 C482 1.320 . S
C484 C485 1.405 . S
C484 H510 0.931 1_554 S
C485 C480 1.479 . S
C485 C484 1.405 . S
C485 H511 0.915 1_554 S
U486 O487 2.454 . S
U486 O488 2.458 . S
U486 C489 2.984 . S
U486 C490 2.847 . S
U486 C503 2.882 . S
U486 O504 2.441 . S
U486 O505 2.420 . S
U486 O506 2.455 . S
U486 O507 2.449 . S
O487 U486 2.454 . S
O487 C489 1.353 . S
O488 U486 2.458 . S
O488 C489 1.286 . S
C489 U486 2.984 . S
C489 O487 1.353 . S
C489 O488 1.286 . S
C489 C491 1.363 . S
C490 C480 1.465 . S
C490 U486 2.847 . S
C490 O504 1.249 . S
C490 O505 1.202 . S
C491 C489 1.363 . S
C491 C493 1.408 . S
C491 C496 1.342 . S
C492 C493 1.310 . S
C492 C495 1.461 . S
C492 H512 0.932 1_554 S
C493 C491 1.408 . S
C493 C492 1.310 . S
C493 H513 0.930 . S
C494 C495 1.474 . S
C494 C496 1.285 . S
C494 H514 0.929 . S
C495 C492 1.461 . S
C495 C494 1.474 . S
C496 C491 1.342 . S
C496 C494 1.285 . S
C496 H515 0.930 . S
C497 C500 1.424 . S
C497 C502 1.245 . S
C497 C503 1.428 . S
C498 C501 1.260 . S
C498 C502 1.477 . S
C498 H516 0.932 . S
C499 C500 1.384 . S
C499 C501 1.479 . S
C499 H517 0.929 . S
C500 C497 1.424 . S
C500 C499 1.384 . S
C500 H518 0.928 . S
C501 C498 1.260 . S
C501 C499 1.479 . S
C502 C497 1.245 . S
C502 C498 1.477 . S
C502 H519 0.932 . S
C503 U486 2.882 . S
C503 C497 1.428 . S
C503 O506 1.301 . S
C503 O507 1.282 . S
O504 U486 2.441 . S
O504 C490 1.249 . S
O505 U486 2.420 . S
O505 C490 1.202 . S
O506 U486 2.455 . S
O506 C503 1.301 . S
O507 U486 2.449 . S
O507 C503 1.282 . S
H508 C481 0.931 . S
H509 C483 0.929 . S
H510 C484 0.931 1_556 S
H511 C485 0.915 1_556 S
H512 C492 0.932 1_556 S
H513 C493 0.930 . S
H514 C494 0.929 . S
H515 C496 0.930 . S
H516 C498 0.932 . S
H517 C499 0.929 . S
H518 C500 0.928 . S
H519 C502 0.932 . S
C520 C521 1.264 . S
C520 C525 1.479 . S
C520 C530 1.465 . S
C521 C520 1.264 . S
C521 C523 1.339 . S
C521 H548 0.931 . S
C522 C523 1.395 . S
C522 C524 1.320 . S
C523 C521 1.339 . S
C523 C522 1.395 . S
C523 H549 0.929 . S
C524 C522 1.320 . S
C524 C525 1.405 . S
C524 H550 0.930 . S
C525 C520 1.479 . S
C525 C524 1.405 . S
C525 H551 0.931 . S
U526 O527 2.454 . S
U526 O528 2.458 . S
U526 C529 2.984 . S
U526 C530 2.847 . S
U526 C543 2.882 . S
U526 O544 2.441 . S
U526 O545 2.420 . S
U526 O546 2.455 . S
U526 O547 2.449 . S
O527 U526 2.454 . S
O527 C529 1.353 . S
O528 U526 2.458 . S
O528 C529 1.286 . S
C529 U526 2.984 . S
C529 O527 1.353 . S
C529 O528 1.286 . S
C529 C531 1.363 . S
C530 C520 1.465 . S
C530 U526 2.847 . S
C530 O544 1.249 . S
C530 O545 1.202 . S
C531 C529 1.363 . S
C531 C533 1.408 . S
C531 C536 1.342 . S
C532 C533 1.310 . S
C532 C535 1.461 . S
C532 H552 0.932 . S
C533 C531 1.408 . S
C533 C532 1.310 . S
C533 H553 0.930 . S
C534 C535 1.474 . S
C534 C536 1.285 . S
C534 H554 0.929 . S
C535 C532 1.461 . S
C535 C534 1.474 . S
C536 C531 1.342 . S
C536 C534 1.285 . S
C536 H555 0.930 . S
C537 C540 1.424 . S
C537 C542 1.245 . S
C537 C543 1.428 . S
C538 C541 1.260 . S
C538 C542 1.477 . S
C538 H556 0.932 . S
C539 C540 1.384 . S
C539 C541 1.479 . S
C539 H557 0.929 . S
C540 C537 1.424 . S
C540 C539 1.384 . S
C540 H558 0.928 . S
C541 C538 1.260 . S
C541 C539 1.479 . S
C542 C537 1.245 . S
C542 C538 1.477 . S
C542 H559 0.932 . S
C543 U526 2.882 . S
C543 C537 1.428 . S
C543 O546 1.301 . S
C543 O547 1.282 . S
O544 U526 2.441 . S
O544 C530 1.249 . S
O545 U526 2.420 . S
O545 C530 1.202 . S
O546 U526 2.455 . S
O546 C543 1.301 . S
O547 U526 2.449 . S
O547 C543 1.282 . S
H548 C521 0.931 . S
H549 C523 0.929 . S
H550 C524 0.930 . S
H551 C525 0.931 . S
H552 C532 0.932 . S
H553 C533 0.930 . S
H554 C534 0.929 . S
H555 C536 0.930 . S
H556 C538 0.932 . S
H557 C539 0.929 . S
H558 C540 0.928 . S
H559 C542 0.932 . S
C560 C561 1.264 . S
C560 C565 1.479 . S
C560 C570 1.465 . S
C561 C560 1.264 . S
C561 C563 1.339 . S
C561 H588 0.931 . S
C562 C563 1.395 . S
C562 C564 1.320 . S
C563 C561 1.339 . S
C563 C562 1.395 . S
C563 H589 0.929 . S
C564 C562 1.320 . S
C564 C565 1.405 . S
C564 H590 0.931 1_554 S
C565 C560 1.479 . S
C565 C564 1.405 . S
C565 H591 0.915 1_554 S
U566 O567 2.454 . S
U566 O568 2.458 . S
U566 C569 2.984 . S
U566 C570 2.847 . S
U566 C583 2.882 . S
U566 O584 2.441 . S
U566 O585 2.420 . S
U566 O586 2.455 . S
U566 O587 2.449 . S
O567 U566 2.454 . S
O567 C569 1.353 . S
O568 U566 2.458 . S
O568 C569 1.286 . S
C569 U566 2.984 . S
C569 O567 1.353 . S
C569 O568 1.286 . S
C569 C571 1.363 . S
C570 C560 1.465 . S
C570 U566 2.847 . S
C570 O584 1.249 . S
C570 O585 1.202 . S
C571 C569 1.363 . S
C571 C573 1.408 . S
C571 C576 1.342 . S
C572 C573 1.310 . S
C572 C575 1.461 . S
C572 H592 0.932 1_554 S
C573 C571 1.408 . S
C573 C572 1.310 . S
C573 H593 0.930 . S
C574 C575 1.474 . S
C574 C576 1.285 . S
C574 H594 0.929 . S
C575 C572 1.461 . S
C575 C574 1.474 . S
C576 C571 1.342 . S
C576 C574 1.285 . S
C576 H595 0.930 . S
C577 C580 1.424 . S
C577 C582 1.245 . S
C577 C583 1.428 . S
C578 C581 1.260 . S
C578 C582 1.477 . S
C578 H596 0.932 . S
C579 C580 1.384 . S
C579 C581 1.479 . S
C579 H597 0.929 . S
C580 C577 1.424 . S
C580 C579 1.384 . S
C580 H598 0.928 . S
C581 C578 1.260 . S
C581 C579 1.479 . S
C582 C577 1.245 . S
C582 C578 1.477 . S
C582 H599 0.932 . S
C583 U566 2.882 . S
C583 C577 1.428 . S
C583 O586 1.301 . S
C583 O587 1.282 . S
O584 U566 2.441 . S
O584 C570 1.249 . S
O585 U566 2.420 . S
O585 C570 1.202 . S
O586 U566 2.455 . S
O586 C583 1.301 . S
O587 U566 2.449 . S
O587 C583 1.282 . S
H588 C561 0.931 . S
H589 C563 0.929 . S
H590 C564 0.931 1_556 S
H591 C565 0.915 1_556 S
H592 C572 0.932 1_556 S
H593 C573 0.930 . S
H594 C574 0.929 . S
H595 C576 0.930 . S
H596 C578 0.932 . S
H597 C579 0.929 . S
H598 C580 0.928 . S
H599 C582 0.932 . S
C600 C601 1.264 . S
C600 C605 1.479 . S
C600 C610 1.465 . S
C601 C600 1.264 . S
C601 C603 1.339 . S
C601 H628 0.931 . S
C602 C603 1.395 . S
C602 C604 1.320 . S
C603 C601 1.339 . S
C603 C602 1.395 . S
C603 H629 0.929 . S
C604 C602 1.320 . S
C604 C605 1.405 . S
C604 H630 0.930 . S
C605 C600 1.479 . S
C605 C604 1.405 . S
C605 H631 0.931 . S
U606 O607 2.454 . S
U606 O608 2.458 . S
U606 C609 2.984 . S
U606 C610 2.847 . S
U606 C623 2.882 . S
U606 O624 2.441 . S
U606 O625 2.420 . S
U606 O626 2.455 . S
U606 O627 2.449 . S
O607 U606 2.454 . S
O607 C609 1.353 . S
O608 U606 2.458 . S
O608 C609 1.286 . S
C609 U606 2.984 . S
C609 O607 1.353 . S
C609 O608 1.286 . S
C609 C611 1.363 . S
C610 C600 1.465 . S
C610 U606 2.847 . S
C610 O624 1.249 . S
C610 O625 1.202 . S
C611 C609 1.363 . S
C611 C613 1.408 . S
C611 C616 1.342 . S
C612 C613 1.310 . S
C612 C615 1.461 . S
C612 H632 0.932 . S
C613 C611 1.408 . S
C613 C612 1.310 . S
C613 H633 0.930 . S
C614 C615 1.474 . S
C614 C616 1.285 . S
C614 H634 0.929 . S
C615 C612 1.461 . S
C615 C614 1.474 . S
C616 C611 1.342 . S
C616 C614 1.285 . S
C616 H635 0.930 . S
C617 C620 1.424 . S
C617 C622 1.245 . S
C617 C623 1.428 . S
C618 C621 1.260 . S
C618 C622 1.477 . S
C618 H636 0.932 . S
C619 C620 1.384 . S
C619 C621 1.479 . S
C619 H637 0.929 . S
C620 C617 1.424 . S
C620 C619 1.384 . S
C620 H638 0.928 . S
C621 C618 1.260 . S
C621 C619 1.479 . S
C622 C617 1.245 . S
C622 C618 1.477 . S
C622 H639 0.932 . S
C623 U606 2.882 . S
C623 C617 1.428 . S
C623 O626 1.301 . S
C623 O627 1.282 . S
O624 U606 2.441 . S
O624 C610 1.249 . S
O625 U606 2.420 . S
O625 C610 1.202 . S
O626 U606 2.455 . S
O626 C623 1.301 . S
O627 U606 2.449 . S
O627 C623 1.282 . S
H628 C601 0.931 . S
H629 C603 0.929 . S
H630 C604 0.930 . S
H631 C605 0.931 . S
H632 C612 0.932 . S
H633 C613 0.930 . S
H634 C614 0.929 . S
H635 C616 0.930 . S
H636 C618 0.932 . S
H637 C619 0.929 . S
H638 C620 0.928 . S
H639 C622 0.932 . S
C640 C641 1.387 . S
C640 H644 0.950 . S
C640 C649 1.390 . S
C641 C640 1.387 . S
C641 C643 1.387 . S
H642 C649 0.950 . S
C643 C641 1.387 . S
C643 C645 1.390 . S
C643 H647 0.950 . S
H644 C640 0.950 . S
C645 C643 1.390 . S
C645 C646 1.387 . S
C645 H648 0.950 . S
C646 C645 1.387 . S
C646 C649 1.387 . S
H647 C643 0.950 . S
H648 C645 0.950 . S
C649 C640 1.390 . S
C649 H642 0.950 . S
C649 C646 1.387 . S
C650 C651 1.387 . S
C650 H654 0.950 . S
C650 C659 1.390 . S
C651 C650 1.387 . S
C651 C653 1.387 . S
H652 C659 0.950 . S
C653 C651 1.387 . S
C653 C655 1.390 . S
C653 H657 0.950 . S
H654 C650 0.950 . S
C655 C653 1.390 . S
C655 C656 1.387 . S
C655 H658 0.950 . S
C656 C655 1.387 . S
C656 C659 1.387 . S
H657 C653 0.950 . S
H658 C655 0.950 . S
C659 C650 1.390 . S
C659 H652 0.950 . S
C659 C656 1.387 . S
C660 C661 1.387 . S
C660 H664 0.950 . S
C660 C669 1.390 . S
C661 C660 1.387 . S
C661 C663 1.387 . S
H662 C669 0.950 . S
C663 C661 1.387 . S
C663 C665 1.390 . S
C663 H667 0.950 . S
H664 C660 0.950 . S
C665 C663 1.390 . S
C665 C666 1.387 . S
C665 H668 0.950 . S
C666 C665 1.387 . S
C666 C669 1.387 . S
H667 C663 0.950 . S
H668 C665 0.950 . S
C669 C660 1.390 . S
C669 H662 0.950 . S
C669 C666 1.387 . S
C670 C671 1.387 . S
C670 H674 0.950 . S
C670 C679 1.390 . S
C671 C670 1.387 . S
C671 C673 1.387 . S
H672 C679 0.950 . S
C673 C671 1.387 . S
C673 C675 1.390 . S
C673 H677 0.950 . S
H674 C670 0.950 . S
C675 C673 1.390 . S
C675 C676 1.387 . S
C675 H678 0.950 . S
C676 C675 1.387 . S
C676 C679 1.387 . S
H677 C673 0.950 . S
H678 C675 0.950 . S
C679 C670 1.390 . S
C679 H672 0.950 . S
C679 C676 1.387 . S
C680 C681 1.387 . S
C680 H684 0.950 . S
C680 C689 1.390 . S
C681 C680 1.387 . S
C681 C683 1.387 . S
H682 C689 0.950 . S
C683 C681 1.387 . S
C683 C685 1.390 . S
C683 H687 0.950 . S
H684 C680 0.950 . S
C685 C683 1.390 . S
C685 C686 1.387 . S
C685 H688 0.950 . S
C686 C685 1.387 . S
C686 C689 1.387 . S
H687 C683 0.950 . S
H688 C685 0.950 . S
C689 C680 1.390 . S
C689 H682 0.950 . S
C689 C686 1.387 . S
C690 C691 1.387 . S
C690 H694 0.950 . S
C690 C699 1.390 . S
C691 C690 1.387 . S
C691 C693 1.387 . S
H692 C699 0.950 . S
C693 C691 1.387 . S
C693 C695 1.390 . S
C693 H697 0.950 . S
H694 C690 0.950 . S
C695 C693 1.390 . S
C695 C696 1.387 . S
C695 H698 0.950 . S
C696 C695 1.387 . S
C696 C699 1.387 . S
H697 C693 0.950 . S
H698 C695 0.950 . S
C699 C690 1.390 . S
C699 H692 0.950 . S
C699 C696 1.387 . S
C700 C701 1.387 . S
C700 H704 0.950 . S
C700 C709 1.390 . S
C701 C700 1.387 . S
C701 C703 1.387 . S
H702 C709 0.950 . S
C703 C701 1.387 . S
C703 C705 1.390 . S
C703 H707 0.950 . S
H704 C700 0.950 . S
C705 C703 1.390 . S
C705 C706 1.387 . S
C705 H708 0.950 . S
C706 C705 1.387 . S
C706 C709 1.387 . S
H707 C703 0.950 . S
H708 C705 0.950 . S
C709 C700 1.390 . S
C709 H702 0.950 . S
C709 C706 1.387 . S
C710 C711 1.387 . S
C710 H714 0.950 . S
C710 C719 1.390 . S
C711 C710 1.387 . S
C711 C713 1.387 . S
H712 C719 0.950 . S
C713 C711 1.387 . S
C713 C715 1.390 . S
C713 H717 0.950 . S
H714 C710 0.950 . S
C715 C713 1.390 . S
C715 C716 1.387 . S
C715 H718 0.950 . S
C716 C715 1.387 . S
C716 C719 1.387 . S
H717 C713 0.950 . S
H718 C715 0.950 . S
C719 C710 1.390 . S
C719 H712 0.950 . S
C719 C716 1.387 . S
C720 C721 1.387 . S
C720 H724 0.950 . S
C720 C729 1.390 1_554 S
C721 C720 1.387 . S
C721 C723 1.387 . S
H722 C729 0.950 . S
C723 C721 1.387 . S
C723 C725 1.390 1_554 S
C723 H727 0.950 . S
H724 C720 0.950 . S
C725 C723 1.390 1_556 S
C725 C726 1.387 . S
C725 H728 0.950 . S
C726 C725 1.387 . S
C726 C729 1.387 . S
H727 C723 0.950 . S
H728 C725 0.950 . S
C729 C720 1.390 1_556 S
C729 H722 0.950 . S
C729 C726 1.387 . S
C730 C731 1.387 . S
C730 H734 0.950 . S
C730 C739 1.390 . S
C731 C730 1.387 . S
C731 C733 1.387 . S
H732 C739 0.950 . S
C733 C731 1.387 . S
C733 C735 1.390 . S
C733 H737 0.950 . S
H734 C730 0.950 . S
C735 C733 1.390 . S
C735 C736 1.387 . S
C735 H738 0.950 . S
C736 C735 1.387 . S
C736 C739 1.387 . S
H737 C733 0.950 . S
H738 C735 0.950 . S
C739 C730 1.390 . S
C739 H732 0.950 . S
C739 C736 1.387 . S
C740 C741 1.387 . S
C740 H744 0.950 . S
C740 C749 1.390 1_556 S
C741 C740 1.387 . S
C741 C743 1.387 . S
H742 C749 0.950 . S
C743 C741 1.387 . S
C743 C745 1.390 1_556 S
C743 H747 0.950 . S
H744 C740 0.950 . S
C745 C743 1.390 1_554 S
C745 C746 1.387 . S
C745 H748 0.950 . S
C746 C745 1.387 . S
C746 C749 1.387 . S
H747 C743 0.950 . S
H748 C745 0.950 . S
C749 C740 1.390 1_554 S
C749 H742 0.950 . S
C749 C746 1.387 . S
C750 C751 1.387 . S
C750 H754 0.950 . S
C750 C759 1.390 . S
C751 C750 1.387 . S
C751 C753 1.387 . S
H752 C759 0.950 . S
C753 C751 1.387 . S
C753 C755 1.390 . S
C753 H757 0.950 . S
H754 C750 0.950 . S
C755 C753 1.390 . S
C755 C756 1.387 . S
C755 H758 0.950 . S
C756 C755 1.387 . S
C756 C759 1.387 . S
H757 C753 0.950 . S
H758 C755 0.950 . S
C759 C750 1.390 . S
C759 H752 0.950 . S
C759 C756 1.387 . S
C760 C761 1.387 . S
C760 H764 0.950 . S
C760 C769 1.390 1_554 S
C761 C760 1.387 . S
C761 C763 1.387 . S
H762 C769 0.950 . S
C763 C761 1.387 . S
C763 C765 1.390 1_554 S
C763 H767 0.950 . S
H764 C760 0.950 . S
C765 C763 1.390 1_556 S
C765 C766 1.387 . S
C765 H768 0.950 . S
C766 C765 1.387 . S
C766 C769 1.387 . S
H767 C763 0.950 . S
H768 C765 0.950 . S
C769 C760 1.390 1_556 S
C769 H762 0.950 . S
C769 C766 1.387 . S
C770 C771 1.387 . S
C770 H774 0.950 . S
C770 C779 1.390 . S
C771 C770 1.387 . S
C771 C773 1.387 . S
H772 C779 0.950 . S
C773 C771 1.387 . S
C773 C775 1.390 . S
C773 H777 0.950 . S
H774 C770 0.950 . S
C775 C773 1.390 . S
C775 C776 1.387 . S
C775 H778 0.950 . S
C776 C775 1.387 . S
C776 C779 1.387 . S
H777 C773 0.950 . S
H778 C775 0.950 . S
C779 C770 1.390 . S
C779 H772 0.950 . S
C779 C776 1.387 . S
C780 C781 1.387 . S
C780 H784 0.950 . S
C780 C789 1.390 1_554 S
C781 C780 1.387 . S
C781 C783 1.387 . S
H782 C789 0.950 . S
C783 C781 1.387 . S
C783 C785 1.390 1_554 S
C783 H787 0.950 . S
H784 C780 0.950 . S
C785 C783 1.390 1_556 S
C785 C786 1.387 . S
C785 H788 0.950 . S
C786 C785 1.387 . S
C786 C789 1.387 . S
H787 C783 0.950 . S
H788 C785 0.950 . S
C789 C780 1.390 1_556 S
C789 H782 0.950 . S
C789 C786 1.387 . S
C790 C791 1.387 . S
C790 H794 0.950 . S
C790 C799 1.390 . S
C791 C790 1.387 . S
C791 C793 1.387 . S
H792 C799 0.950 . S
C793 C791 1.387 . S
C793 C795 1.390 . S
C793 H797 0.950 . S
H794 C790 0.950 . S
C795 C793 1.390 . S
C795 C796 1.387 . S
C795 H798 0.950 . S
C796 C795 1.387 . S
C796 C799 1.387 . S
H797 C793 0.950 . S
H798 C795 0.950 . S
C799 C790 1.390 . S
C799 H792 0.950 . S
C799 C796 1.387 . S
C800 C801 1.387 . S
C800 H804 0.950 . S
C800 C809 1.390 1_655 S
C801 C800 1.387 . S
C801 C803 1.387 1_556 S
H802 C809 0.950 . S
C803 C801 1.387 1_554 S
C803 C805 1.390 1_655 S
C803 H807 0.950 . S
H804 C800 0.950 . S
C805 C803 1.390 1_455 S
C805 C806 1.387 . S
C805 H808 0.950 . S
C806 C805 1.387 . S
C806 C809 1.387 1_554 S
H807 C803 0.950 . S
H808 C805 0.950 . S
C809 C800 1.390 1_455 S
C809 H802 0.950 . S
C809 C806 1.387 1_556 S
C810 C811 1.406 . S
C810 H814 0.952 . S
C810 C819 1.372 1_445 S
C811 C810 1.406 . S
C811 C813 1.387 . S
H812 C819 0.950 . S
C813 C811 1.387 . S
C813 C815 1.372 1_445 S
C813 H817 0.950 . S
H814 C810 0.952 . S
C815 C813 1.372 1_665 S
C815 C816 1.406 . S
C815 H818 0.952 . S
C816 C815 1.406 . S
C816 C819 1.387 . S
H817 C813 0.950 . S
H818 C815 0.952 . S
C819 C810 1.372 1_665 S
C819 H812 0.950 . S
C819 C816 1.387 . S
C820 C821 1.377 1_565 S
C820 H824 0.950 . S
C820 C829 1.401 . S
C821 C820 1.377 1_545 S
C821 C823 1.387 1_554 S
H822 C829 0.950 . S
C823 C821 1.387 1_556 S
C823 C825 1.401 . S
C823 H827 0.950 . S
H824 C820 0.950 . S
C825 C823 1.401 . S
C825 C826 1.377 1_545 S
C825 H828 0.950 . S
C826 C825 1.377 1_565 S
C826 C829 1.387 1_556 S
H827 C823 0.950 . S
H828 C825 0.950 . S
C829 C820 1.401 . S
C829 H822 0.950 . S
C829 C826 1.387 1_554 S
C830 C831 1.387 . S
C830 H834 0.950 . S
C830 C839 1.390 . S
C831 C830 1.387 . S
C831 C833 1.387 . S
H832 C839 0.950 . S
C833 C831 1.387 . S
C833 C835 1.390 . S
C833 H837 0.950 . S
H834 C830 0.950 . S
C835 C833 1.390 . S
C835 C836 1.387 . S
C835 H838 0.950 . S
C836 C835 1.387 . S
C836 C839 1.387 . S
H837 C833 0.950 . S
H838 C835 0.950 . S
C839 C830 1.390 . S
C839 H832 0.950 . S
C839 C836 1.387 . S
C840 C841 1.387 1_565 S
C840 H844 0.950 . S
C840 C849 1.390 1_455 S
C841 C840 1.387 1_545 S
C841 C843 1.387 1_556 S
H842 C849 0.950 . S
C843 C841 1.387 1_554 S
C843 C845 1.390 1_455 S
C843 H847 0.950 . S
H844 C840 0.950 . S
C845 C843 1.390 1_655 S
C845 C846 1.387 1_545 S
C845 H848 0.950 . S
C846 C845 1.387 1_565 S
C846 C849 1.387 1_554 S
H847 C843 0.950 . S
H848 C845 0.950 . S
C849 C840 1.390 1_655 S
C849 H842 0.950 . S
C849 C846 1.387 1_556 S
C850 C851 1.387 . S
C850 H854 0.950 . S
C850 C859 1.390 1_545 S
C851 C850 1.387 . S
C851 C853 1.387 . S
H852 C859 0.950 . S
C853 C851 1.387 . S
C853 C855 1.390 1_545 S
C853 H857 0.950 . S
H854 C850 0.950 . S
C855 C853 1.390 1_565 S
C855 C856 1.387 . S
C855 H858 0.950 . S
C856 C855 1.387 . S
C856 C859 1.387 . S
H857 C853 0.950 . S
H858 C855 0.950 . S
C859 C850 1.390 1_565 S
C859 H852 0.950 . S
C859 C856 1.387 . S
C860 C861 1.387 . S
C860 H864 0.950 . S
C860 C869 1.392 . S
C861 C860 1.387 . S
C861 C863 1.385 1_554 S
H862 C869 0.950 . S
C863 C861 1.385 1_556 S
C863 C865 1.392 . S
C863 H867 0.950 . S
H864 C860 0.950 . S
C865 C863 1.392 . S
C865 C866 1.387 . S
C865 H868 0.950 . S
C866 C865 1.387 . S
C866 C869 1.385 1_556 S
H867 C863 0.950 . S
H868 C865 0.950 . S
C869 C860 1.392 . S
C869 H862 0.950 . S
C869 C866 1.385 1_554 S
C870 C871 1.387 1_455 S
C870 H874 0.950 . S
C870 C879 1.390 . S
C871 C870 1.387 1_655 S
C871 C873 1.387 . S
H872 C879 0.950 . S
C873 C871 1.387 . S
C873 C875 1.390 . S
C873 H877 0.950 . S
H874 C870 0.950 . S
C875 C873 1.390 . S
C875 C876 1.387 1_655 S
C875 H878 0.950 . S
C876 C875 1.387 1_455 S
C876 C879 1.387 . S
H877 C873 0.950 . S
H878 C875 0.950 . S
C879 C870 1.390 . S
C879 H872 0.950 . S
C879 C876 1.387 . S
C641 C21 1.753 . S
C646 C301 1.753 . S
C651 C61 1.751 . S
C656 C181 1.750 . S
C661 C221 1.753 . S
C666 C101 1.753 . S
C671 C261 1.753 . S
C676 C141 1.753 . S
C681 C341 1.870 . S
C686 C621 1.870 . S
C691 C501 1.870 . S
C696 C381 1.870 . S
C701 C541 1.871 . S
C706 C421 1.871 . S
C711 C461 1.870 . S
C716 C581 1.871 . S
C721 C15 1.690 . S
C726 C175 1.690 . S
C731 C215 1.689 . S
C736 C55 1.689 . S
C741 C255 1.689 . S
C746 C95 1.689 . S
C751 C135 1.689 . S
C756 C295 1.689 . S
C761 C495 1.694 . S
C766 C335 1.694 . S
C771 C535 1.693 . S
C776 C375 1.693 . S
C781 C575 1.693 . S
C786 C415 1.693 . S
C791 C455 1.693 . S
C796 C615 1.693 . S
C801 C322 1.951 . S
C806 C2 1.814 . S
C811 C42 1.814 . S
C816 C362 1.950 . S
C821 C82 1.810 . S
C826 C402 1.949 . S
C831 C442 1.949 . S
C836 C122 1.812 . S
C841 C162 1.810 . S
C846 C482 1.949 . S
C851 C202 1.811 . S
C856 C522 1.949 . S
C861 C562 1.949 . S
C866 C242 1.812 . S
C871 C602 1.950 . S
C876 C282 1.814 . S
