# Generated by pormake.
# Topology rkf, (6)-cn, num edge types: 1
# Building blocks:
#     Node 0, Type 0, BuildingBlock: VOLQOD_clean_sbu_1, # of connection points: 6
#     Node 1, Type 0, BuildingBlock: VOLQOD_clean_sbu_1, # of connection points: 6
#     Node 2, Type 0, BuildingBlock: VOLQOD_clean_sbu_1, # of connection points: 6
#     Node 3, Type 0, BuildingBlock: VOLQOD_clean_sbu_1, # of connection points: 6
#     Node 4, Type 0, BuildingBlock: VOLQOD_clean_sbu_1, # of connection points: 6
#     Node 5, Type 0, BuildingBlock: VOLQOD_clean_sbu_1, # of connection points: 6
#     Edge 6, Type (0, 0), BuildingBlock: XUDNAN_clean_linker_2, # of connection points: 2
#     Edge 7, Type (0, 0), BuildingBlock: XUDNAN_clean_linker_2, # of connection points: 2
#     Edge 8, Type (0, 0), BuildingBlock: XUDNAN_clean_linker_2, # of connection points: 2
#     Edge 9, Type (0, 0), BuildingBlock: XUDNAN_clean_linker_2, # of connection points: 2
#     Edge 10, Type (0, 0), BuildingBlock: XUDNAN_clean_linker_2, # of connection points: 2
#     Edge 11, Type (0, 0), BuildingBlock: XUDNAN_clean_linker_2, # of connection points: 2
#     Edge 12, Type (0, 0), BuildingBlock: XUDNAN_clean_linker_2, # of connection points: 2
#     Edge 13, Type (0, 0), BuildingBlock: XUDNAN_clean_linker_2, # of connection points: 2
#     Edge 14, Type (0, 0), BuildingBlock: XUDNAN_clean_linker_2, # of connection points: 2
#     Edge 15, Type (0, 0), BuildingBlock: XUDNAN_clean_linker_2, # of connection points: 2
#     Edge 16, Type (0, 0), BuildingBlock: XUDNAN_clean_linker_2, # of connection points: 2
#     Edge 17, Type (0, 0), BuildingBlock: XUDNAN_clean_linker_2, # of connection points: 2
#     Edge 18, Type (0, 0), BuildingBlock: XUDNAN_clean_linker_2, # of connection points: 2
#     Edge 19, Type (0, 0), BuildingBlock: XUDNAN_clean_linker_2, # of connection points: 2
#     Edge 20, Type (0, 0), BuildingBlock: XUDNAN_clean_linker_2, # of connection points: 2
#     Edge 21, Type (0, 0), BuildingBlock: XUDNAN_clean_linker_2, # of connection points: 2
#     Edge 22, Type (0, 0), BuildingBlock: XUDNAN_clean_linker_2, # of connection points: 2
#     Edge 23, Type (0, 0), BuildingBlock: XUDNAN_clean_linker_2, # of connection points: 2
# Relax obj value: 0.814
# Max RMSD: 0.323
# Mean RMSD: 0.323
data_MOF--net-rkf--node1-VOLQOD_clean_sbu_1--edge1-XUDNAN_clean_linker_2
_symmetry_space_group_name_H-M    P1
_symmetry_Int_Tables_number       1
_symmetry_cell_setting            triclinic
loop_
_symmetry_equiv_pos_as_xyz
'x, y, z'
_cell_length_a     28.377074
_cell_length_b     28.435693
_cell_length_c     36.828746
_cell_angle_alpha  90.203465
_cell_angle_beta   89.998867
_cell_angle_gamma 120.46681
loop_
_atom_site_label
_atom_site_type_symbol
_atom_site_fract_x
_atom_site_fract_y
_atom_site_fract_z
_atom_type_partial_charge
O0 O 0.25654 0.12081 0.05193 0.0
Zn1 Zn 0.24895 0.05013 0.03493 0.0
O2 O 0.32073 0.06787 0.02245 0.0
Zn3 Zn 0.31647 0.04874 0.97348 0.0
Zn4 Zn 0.37145 0.14617 0.02305 0.0
Zn5 Zn 0.3429 0.02219 0.04693 0.0
O6 O 0.37319 0.02833 0.96294 0.0
O7 O 0.34745 0.97215 0.0102 0.0
O8 O 0.19474 0.00916 0.99289 0.0
O9 O 0.2467 0.98076 0.96766 0.0
O10 O 0.31454 0.10771 0.94259 0.0
O11 O 0.36607 0.18183 0.97565 0.0
O12 O 0.44369 0.15386 0.0379 0.0
O13 O 0.22383 0.00072 0.07825 0.0
O14 O 0.4242 0.07414 0.05799 0.0
O15 O 0.28787 0.97983 0.09016 0.0
C16 C 0.29642 0.16546 0.06442 0.0
C17 C 0.37316 0.98941 0.98021 0.0
C18 C 0.33648 0.15917 0.94758 0.0
C19 C 0.2002 0.97572 0.9725 0.0
C20 C 0.44112 0.12419 0.06468 0.0
C21 C 0.24183 0.97623 0.0977 0.0
O22 O 0.34616 0.17924 0.05999 0.0
O23 O 0.1415 0.18308 0.30514 0.0
Zn24 Zn 0.21811 0.21782 0.32167 0.0
O25 O 0.23735 0.29038 0.32886 0.0
Zn26 Zn 0.26213 0.32495 0.28257 0.0
Zn27 Zn 0.16609 0.2797 0.34354 0.0
Zn28 Zn 0.29105 0.31915 0.36607 0.0
O29 O 0.33021 0.39919 0.29214 0.0
O30 O 0.35955 0.38318 0.34471 0.0
O31 O 0.25997 0.20963 0.28375 0.0
O32 O 0.29001 0.28465 0.25117 0.0
O33 O 0.1945 0.31929 0.25687 0.0
O34 O 0.12975 0.2925 0.29951 0.0
O35 O 0.17615 0.32236 0.39016 0.0
O36 O 0.23026 0.18617 0.3674 0.0
O37 O 0.26289 0.34854 0.40294 0.0
O38 O 0.2974 0.25902 0.39484 0.0
C39 C 0.11571 0.16452 0.33432 0.0
C40 C 0.36708 0.4129 0.31672 0.0
C41 C 0.14553 0.30508 0.26655 0.0
C42 C 0.28573 0.23844 0.2567 0.0
C43 C 0.21809 0.34604 0.41095 0.0
C44 C 0.26522 0.20723 0.39301 0.0
O45 O 0.11951 0.19941 0.35759 0.0
O46 O 0.01501 0.14869 0.73199 0.0
Zn47 Zn 0.08329 0.21076 0.71107 0.0
O48 O 0.06425 0.26328 0.69839 0.0
Zn49 Zn 0.09145 0.28208 0.6518 0.0
Zn50 Zn 0.98741 0.23262 0.69344 0.0
Zn51 Zn 0.09738 0.32553 0.72908 0.0
O52 O 0.10719 0.35865 0.64151 0.0
O53 O 0.134 0.39195 0.6975 0.0
O54 O 0.11846 0.19587 0.66647 0.0
O55 O 0.16145 0.28384 0.65599 0.0
O56 O 0.03878 0.21909 0.61737 0.0
O57 O 0.95939 0.19315 0.64438 0.0
O58 O 0.96898 0.28953 0.7082 0.0
O59 O 0.13645 0.2394 0.75236 0.0
O60 O 0.03331 0.32738 0.75101 0.0
O61 O 0.14823 0.3203 0.7681 0.0
C62 C 0.96859 0.14221 0.74126 0.0
C63 C 0.12864 0.39884 0.6638 0.0
C64 C 0.98671 0.18825 0.61855 0.0
C65 C 0.15762 0.23792 0.65128 0.0
C66 C 0.98693 0.31632 0.7379 0.0
C67 C 0.15795 0.28137 0.77292 0.0
O68 O 0.95206 0.17363 0.73012 0.0
O69 O 0.97471 0.08422 0.98134 0.0
Zn70 Zn 0.90781 0.08892 0.98808 0.0
O71 O 0.84485 0.01784 0.99229 0.0
Zn72 Zn 0.81041 0.99391 0.94562 0.0
Zn73 Zn 0.86909 0.97014 0.00772 0.0
Zn74 Zn 0.79955 0.02559 0.02809 0.0
O75 O 0.72953 0.96253 0.95294 0.0
O76 O 0.72863 0.00692 1.00328 0.0
O77 O 0.89508 0.12961 0.94906 0.0
O78 O 0.83041 0.06127 0.91643 0.0
O79 O 0.83343 0.94293 0.91967 0.0
O80 O 0.86924 0.92301 0.96675 0.0
O81 O 0.83169 0.93262 0.05403 0.0
O82 O 0.92255 0.12867 0.03542 0.0
O83 O 0.7811 0.97013 0.06598 0.0
O84 O 0.84091 0.09645 0.06003 0.0
C85 C 0.9847 0.06072 0.00704 0.0
C86 C 0.7049 0.97735 0.97528 0.0
C87 C 0.85672 0.91827 0.9331 0.0
C88 C 0.8621 0.11216 0.92225 0.0
C89 C 0.79921 0.93904 0.07467 0.0
C90 C 0.89274 0.12896 0.06106 0.0
O91 O 0.94629 0.01823 0.02188 0.0
O92 O 0.00119 0.89298 0.39049 0.0
Zn93 Zn 0.92889 0.88372 0.37824 0.0
O94 O 0.8827 0.80871 0.36744 0.0
Zn95 Zn 0.85996 0.80143 0.31841 0.0
Zn96 Zn 0.92435 0.77227 0.369 0.0
Zn97 Zn 0.82097 0.77708 0.39961 0.0
O98 O 0.78219 0.73752 0.31387 0.0
O99 O 0.75175 0.74187 0.3691 0.0
O100 O 0.92815 0.93173 0.33733 0.0
O101 O 0.85577 0.86663 0.30785 0.0
O102 O 0.91962 0.80542 0.28371 0.0
O103 O 0.9643 0.78049 0.32085 0.0
O104 O 0.87456 0.69573 0.38634 0.0
O105 O 0.90488 0.90509 0.42369 0.0
O106 O 0.81941 0.71124 0.42122 0.0
O107 O 0.82552 0.83328 0.43946 0.0
C108 C 0.0151 0.86184 0.40625 0.0
C109 C 0.74306 0.72325 0.33656 0.0
C110 C 0.9592 0.79704 0.28971 0.0
C111 C 0.88902 0.91662 0.31465 0.0
C112 C 0.83739 0.68032 0.41057 0.0
C113 C 0.86414 0.88266 0.44495 0.0
O114 O 0.98536 0.8102 0.40518 0.0
O115 O 0.979 0.85761 0.64512 0.0
Zn116 Zn 0.99702 0.80088 0.65779 0.0
O117 O 0.07481 0.8311 0.65357 0.0
Zn118 Zn 0.09442 0.81172 0.60931 0.0
Zn119 Zn 0.11294 0.90855 0.66024 0.0
Zn120 Zn 0.09264 0.79894 0.69229 0.0
O121 O 0.13493 0.77157 0.61956 0.0
O122 O 0.0984 0.73587 0.6734 0.0
O123 O 0.95858 0.73468 0.62631 0.0
O124 O 0.02513 0.75116 0.58701 0.0
O125 O 0.13681 0.88067 0.57738 0.0
O126 O 0.15469 0.95014 0.6143 0.0
O127 O 0.15576 0.92416 0.70757 0.0
O128 O 0.97192 0.7858 0.70997 0.0
O129 O 0.16719 0.85328 0.7078 0.0
O130 O 0.04264 0.78691 0.73616 0.0
C131 C 0.00271 0.90112 0.66402 0.0
C132 C 0.12366 0.73629 0.64454 0.0
C133 C 0.1583 0.93217 0.5831 0.0
C134 C 0.97606 0.72178 0.59833 0.0
C135 C 0.17317 0.89581 0.72322 0.0
C136 C 0.99637 0.78433 0.73848 0.0
O137 O 0.05328 0.92349 0.67214 0.0
H138 H 0.07856 0.15364 0.98612 0.0
H139 H 0.00843 0.03483 0.07292 0.0
H140 H 0.08931 0.09001 0.11007 0.0
H141 H 0.20092 0.16465 0.99203 0.0
H142 H 0.2408 0.23613 0.98064 0.0
H143 H 0.17136 0.19698 0.96609 0.0
H144 H 0.1522 0.26735 0.99791 0.0
H145 H 0.2222 0.30495 0.01338 0.0
H146 H 0.16723 0.28193 0.04555 0.0
H147 H 0.17414 0.1511 0.13779 0.0
H148 H 0.266 0.16476 0.1341 0.0
H149 H 0.29172 0.24669 0.03184 0.0
C150 C 0.07977 0.1403 0.01343 0.0
C151 C 0.03649 0.09092 0.02697 0.0
C152 C 0.04057 0.07308 0.06201 0.0
C153 C 0.08586 0.10498 0.08381 0.0
C154 C 0.12623 0.15548 0.07092 0.0
C155 C 0.12513 0.17161 0.03568 0.0
C156 C 0.18073 0.21744 0.02432 0.0
C157 C 0.19958 0.20283 0.98878 0.0
C158 C 0.18049 0.27105 0.02007 0.0
C159 C 0.21415 0.2199 0.0573 0.0
C160 C 0.18042 0.18857 0.08555 0.0
C161 C 0.20081 0.17555 0.11599 0.0
C162 C 0.25365 0.18428 0.11408 0.0
C163 C 0.28267 0.20311 0.08135 0.0
C164 C 0.26806 0.23089 0.05647 0.0
H165 H 0.04805 0.92446 0.46711 0.0
H166 H 0.10919 0.86524 0.38307 0.0
H167 H 0.16312 0.95745 0.35804 0.0
H168 H 0.00319 0.97911 0.41033 0.0
H169 H 0.01273 0.03449 0.43865 0.0
H170 H 0.00625 0.97453 0.45915 0.0
H171 H 0.10652 0.03895 0.49054 0.0
H172 H 0.09908 0.09239 0.46981 0.0
H173 H 0.15838 0.08812 0.46078 0.0
H174 H 0.16266 0.03075 0.32459 0.0
H175 H 0.1468 0.10043 0.29828 0.0
H176 H 0.07911 0.11507 0.40071 0.0
C177 C 0.07671 0.93254 0.44528 0.0
C178 C 0.0693 0.88869 0.42323 0.0
C179 C 0.11053 0.8989 0.39786 0.0
C180 C 0.1403 0.95119 0.38287 0.0
C181 C 0.13141 0.99173 0.397 0.0
C182 C 0.10231 0.98403 0.42892 0.0
C183 C 0.08564 0.02682 0.43306 0.0
C184 C 0.02328 0.00202 0.4355 0.0
C185 C 0.11406 0.06364 0.46562 0.0
C186 C 0.10679 0.05724 0.39792 0.0
C187 C 0.1326 0.03612 0.37744 0.0
C188 C 0.14552 0.04988 0.34117 0.0
C189 C 0.13514 0.08877 0.32627 0.0
C190 C 0.11306 0.11451 0.34785 0.0
C191 C 0.0975 0.09738 0.38388 0.0
H192 H 0.02795 0.9458 0.7308 0.0
H193 H 0.90113 0.88611 0.64873 0.0
H194 H 0.84938 0.91631 0.68644 0.0
H195 H 0.93648 0.94194 0.81916 0.0
H196 H 0.00126 0.99891 0.83117 0.0
H197 H -0.00182 0.94213 0.80702 0.0
H198 H 0.06899 0.02502 0.764 0.0
H199 H 0.05684 0.07254 0.7874 0.0
H200 H 0.04306 0.06188 0.7393 0.0
H201 H 0.83004 0.97795 0.71802 0.0
H202 H 0.86052 0.07451 0.72604 0.0
H203 H 0.99151 0.09468 0.79546 0.0
C204 C 0.9887 0.93832 0.72113 0.0
C205 C 0.96909 0.91546 0.68649 0.0
C206 C 0.91717 0.90462 0.675 0.0
C207 C 0.88717 0.92073 0.69665 0.0
C208 C 0.90928 0.94656 0.72993 0.0
C209 C 0.95895 0.95467 0.74236 0.0
C210 C 0.98146 0.99536 0.77333 0.0
C211 C 0.97912 0.96778 0.80968 0.0
C212 C 0.04089 0.04139 0.76543 0.0
C213 C 0.94072 0.01487 0.77279 0.0
C214 C 0.89693 0.9832 0.74956 0.0
C215 C 0.86314 0.00209 0.73673 0.0
C216 C 0.88022 0.05718 0.74182 0.0
C217 C 0.93028 0.0913 0.75951 0.0
C218 C 0.95394 0.06807 0.78098 0.0
H219 H 0.24508 0.1205 0.90523 0.0
H220 H 0.38924 0.27146 0.93721 0.0
H221 H 0.35785 0.32319 0.89991 0.0
H222 H 0.24351 0.16483 0.81013 0.0
H223 H 0.16974 0.12403 0.80932 0.0
H224 H 0.20871 0.10479 0.83713 0.0
H225 H 0.15017 0.10321 0.89384 0.0
H226 H 0.11438 0.1244 0.8638 0.0
H227 H 0.14861 0.16455 0.90344 0.0
H228 H 0.30877 0.35754 0.85373 0.0
H229 H 0.25038 0.36701 0.80695 0.0
H230 H 0.13996 0.19226 0.80946 0.0
C231 C 0.27117 0.16422 0.90346 0.0
C232 C 0.32073 0.19139 0.92325 0.0
C233 C 0.35161 0.2493 0.92186 0.0
C234 C 0.3339 0.2791 0.90078 0.0
C235 C 0.28479 0.25064 0.88136 0.0
C236 C 0.25424 0.19428 0.88259 0.0
C237 C 0.20365 0.17249 0.85908 0.0
C238 C 0.20654 0.13965 0.82692 0.0
C239 C 0.15111 0.13918 0.88137 0.0
C240 C 0.20895 0.22464 0.84532 0.0
C241 C 0.25637 0.26986 0.85748 0.0
C242 C 0.2714 0.32201 0.84454 0.0
C243 C 0.23798 0.32716 0.81799 0.0
C244 C 0.19056 0.28033 0.80441 0.0
C245 C 0.17578 0.22903 0.81921 0.0
H246 H 0.14463 0.27008 0.19752 0.0
H247 H 0.04794 0.30511 0.27174 0.0
H248 H 0.97246 0.2691 0.22642 0.0
H249 H 0.10321 0.2935 0.11155 0.0
H250 H 0.096 0.23287 0.09078 0.0
H251 H 0.14496 0.26625 0.1268 0.0
H252 H 0.10308 0.17691 0.15945 0.0
H253 H 0.04271 0.13773 0.13176 0.0
H254 H 0.03564 0.14768 0.17866 0.0
H255 H 0.90316 0.22012 0.17156 0.0
H256 H 0.85281 0.16724 0.11643 0.0
H257 H 0.99707 0.16382 0.08208 0.0
C258 C 0.10867 0.27259 0.20378 0.0
C259 C 0.10328 0.29236 0.23784 0.0
C260 C 0.0537 0.29134 0.24555 0.0
C261 C 0.01047 0.27076 0.21992 0.0
C262 C 0.01683 0.25037 0.1868 0.0
C263 C 0.065 0.25127 0.17903 0.0
C264 C 0.05959 0.21981 0.14471 0.0
C265 C 0.10363 0.25525 0.11684 0.0
C266 C 0.06068 0.16767 0.15414 0.0
C267 C 0.00318 0.20552 0.13208 0.0
C268 C 0.97785 0.22171 0.15699 0.0
C269 C 0.92341 0.20823 0.15177 0.0
C270 C 0.89497 0.17812 0.12034 0.0
C271 C 0.92116 0.16242 0.09417 0.0
C272 C 0.976 0.17656 0.10064 0.0
H273 H 0.01325 0.11101 0.59838 0.0
H274 H 0.89264 0.15886 0.5802 0.0
H275 H 0.84249 0.08035 0.53812 0.0
H276 H 0.01749 0.06309 0.50882 0.0
H277 H 0.0232 0.00662 0.52545 0.0
H278 H 0.04812 0.06729 0.55267 0.0
H279 H 0.9859 0.00576 0.60499 0.0
H280 H 0.95968 0.94622 0.57627 0.0
H281 H 0.91335 0.96382 0.59737 0.0
H282 H 0.8076 0.99734 0.49499 0.0
H283 H 0.79425 0.92179 0.45421 0.0
H284 H 0.93528 0.92573 0.50237 0.0
C285 C 0.97676 0.10546 0.58508 0.0
C286 C 0.95773 0.1422 0.59189 0.0
C287 C 0.90849 0.13193 0.57506 0.0
C288 C 0.8796 0.08718 0.55121 0.0
C289 C 0.89945 0.05176 0.54502 0.0
C290 C 0.9468 0.06025 0.56177 0.0
C291 C 0.9589 0.01561 0.55122 0.0
C292 C 0.01537 0.03972 0.53348 0.0
C293 C 0.95417 0.98081 0.58443 0.0
C294 C 0.91324 0.98279 0.52405 0.0
C295 C 0.87853 0.00344 0.52144 0.0
C296 C 0.83433 0.98069 0.49721 0.0
C297 C 0.82662 0.93731 0.47431 0.0
C298 C 0.86309 0.91713 0.47539 0.0
C299 C 0.90626 0.93975 0.5012 0.0
H300 H 0.81367 0.85565 0.86913 0.0
H301 H 0.95257 0.92212 0.94271 0.0
H302 H 0.99663 0.88478 0.90452 0.0
H303 H 0.82448 0.72807 0.85107 0.0
H304 H 0.801 0.72153 0.80488 0.0
H305 H 0.77616 0.74893 0.83924 0.0
H306 H 0.80883 0.83745 0.80153 0.0
H307 H 0.82914 0.80635 0.76696 0.0
H308 H 0.87759 0.87218 0.78446 0.0
H309 H 0.02946 0.84628 0.85802 0.0
H310 H 0.05236 0.81438 0.80228 0.0
H311 H 0.89504 0.77199 0.75616 0.0
C312 C 0.85304 0.86171 0.87724 0.0
C313 C 0.87941 0.8918 0.90922 0.0
C314 C 0.93098 0.89871 0.91883 0.0
C315 C 0.9565 0.87752 0.89729 0.0
C316 C 0.92967 0.84794 0.86633 0.0
C317 C 0.87884 0.83923 0.85628 0.0
C318 C 0.85989 0.8054 0.82134 0.0
C319 C 0.81259 0.74756 0.82963 0.0
C320 C 0.84286 0.83201 0.7919 0.0
C321 C 0.91126 0.80384 0.81105 0.0
C322 C 0.94947 0.82585 0.8386 0.0
C323 C -0.00013 0.82874 0.83624 0.0
C324 C 0.01258 0.81039 0.8044 0.0
C325 C 0.97605 0.79087 0.77458 0.0
C326 C 0.92399 0.78646 0.77843 0.0
H327 H 0.97944 0.8596 0.22806 0.0
H328 H 0.04282 0.77397 0.28935 0.0
H329 H 0.12186 0.80892 0.24763 0.0
H330 H 0.02358 0.84195 0.13723 0.0
H331 H 0.03781 0.90884 0.12384 0.0
H332 H 0.9862 0.87073 0.15737 0.0
H333 H 0.04035 0.95705 0.20156 0.0
H334 H 0.09046 0.99026 0.16645 0.0
H335 H 0.11101 0.98051 0.21078 0.0
H336 H 0.19794 0.85767 0.19828 0.0
H337 H 0.25859 0.91199 0.14735 0.0
H338 H 0.1448 0.96596 0.12015 0.0
C339 C 0.00937 0.84742 0.23237 0.0
C340 C 0.00393 0.81324 0.26195 0.0
C341 C 0.0452 0.7995 0.26685 0.0
C342 C 0.09062 0.81944 0.24326 0.0
C343 C 0.09505 0.85375 0.21474 0.0
C344 C 0.05529 0.86752 0.2093 0.0
C345 C 0.07007 0.90623 0.17741 0.0
C346 C 0.02688 0.88049 0.14717 0.0
C347 C 0.07839 0.96173 0.18976 0.0
C348 C 0.12384 0.9118 0.16551 0.0
C349 C 0.13806 0.88151 0.18725 0.0
C350 C 0.18674 0.8813 0.18113 0.0
C351 C 0.22114 0.91239 0.15208 0.0
C352 C 0.20694 0.94343 0.12927 0.0
C353 C 0.15744 0.9428 0.13662 0.0
H354 H 0.20543 0.04609 0.58152 0.0
H355 H 0.17286 0.90719 0.51389 0.0
H356 H 0.21235 0.96789 0.46156 0.0
H357 H 0.17237 0.11658 0.52469 0.0
H358 H 0.22876 0.18503 0.53048 0.0
H359 H 0.2099 0.13609 0.56637 0.0
H360 H 0.30473 0.1488 0.57012 0.0
H361 H 0.3272 0.201 0.53587 0.0
H362 H 0.33823 0.14439 0.52978 0.0
H363 H 0.24782 0.03912 0.41551 0.0
H364 H 0.26252 0.11421 0.37554 0.0
H365 H 0.27286 0.21169 0.46938 0.0
C366 C 0.20762 0.02864 0.55586 0.0
C367 C 0.18611 0.97129 0.55228 0.0
C368 C 0.1892 0.95049 0.51788 0.0
C369 C 0.21206 0.98489 0.48784 0.0
C370 C 0.23274 0.0407 0.49222 0.0
C371 C 0.23088 0.06285 0.52526 0.0
C372 C 0.25343 0.12428 0.5213 0.0
C373 C 0.21371 0.14141 0.53644 0.0
C374 C 0.3092 0.15651 0.5404 0.0
C375 C 0.26089 0.13107 0.48006 0.0
C376 C 0.25209 0.08281 0.46458 0.0
C377 C 0.25473 0.07705 0.42723 0.0
C378 C 0.26309 0.12008 0.40466 0.0
C379 C 0.26872 0.16885 0.41908 0.0
C380 C 0.26954 0.17524 0.45753 0.0
H381 H 0.42587 0.95681 0.02547 0.0
H382 H 0.41017 0.98591 0.91187 0.0
H383 H 0.48586 0.96957 0.89684 0.0
H384 H 0.56371 0.03324 0.02694 0.0
H385 H 0.5749 0.99197 0.05889 0.0
H386 H 0.5116 0.9919 0.05948 0.0
H387 H 0.45746 0.88677 0.05149 0.0
H388 H 0.5208 0.88638 0.05118 0.0
H389 H 0.47321 0.85609 0.01404 0.0
H390 H 0.56995 0.96086 0.8956 0.0
H391 H 0.65977 0.96994 0.90858 0.0
H392 H 0.62416 0.95561 0.0238 0.0
C393 C 0.43679 0.95748 0.99722 0.0
C394 C 0.41153 0.97134 0.96966 0.0
C395 C 0.42863 0.97448 0.93323 0.0
C396 C 0.47133 0.96505 0.9245 0.0
C397 C 0.49665 0.95318 0.9526 0.0
C398 C 0.48007 0.9497 0.98829 0.0
C399 C 0.51912 0.9456 0.01422 0.0
C400 C 0.54378 0.99353 0.04145 0.0
C401 C 0.49096 0.89041 0.03388 0.0
C402 C 0.56149 0.94935 0.98775 0.0
C403 C 0.54704 0.9519 0.95224 0.0
C404 C 0.58131 0.9582 0.92324 0.0
C405 C 0.63213 0.96324 0.93084 0.0
C406 C 0.64853 0.96343 0.96717 0.0
C407 C 0.61234 0.9554 0.99581 0.0
H408 H 0.44288 0.47115 0.36956 0.0
H409 H 0.41326 0.46915 0.25381 0.0
H410 H 0.50546 0.55011 0.24607 0.0
H411 H 0.51859 0.61914 0.37955 0.0
H412 H 0.56468 0.61843 0.41293 0.0
H413 H 0.49597 0.56131 0.4092 0.0
H414 H 0.53402 0.49624 0.40039 0.0
H415 H 0.60279 0.55314 0.40396 0.0
H416 H 0.5824 0.50939 0.36453 0.0
H417 H 0.60443 0.62748 0.25067 0.0
H418 H 0.69844 0.69882 0.268 0.0
H419 H 0.66027 0.65272 0.38103 0.0
C420 C 0.45558 0.48789 0.34258 0.0
C421 C 0.42083 0.46365 0.31226 0.0
C422 C 0.43901 0.48712 0.27747 0.0
C423 C 0.4914 0.53301 0.27279 0.0
C424 C 0.52485 0.55547 0.30323 0.0
C425 C 0.5073 0.53407 0.33752 0.0
C426 C 0.55093 0.56571 0.36584 0.0
C427 C 0.53136 0.59276 0.39351 0.0
C428 C 0.56857 0.52892 0.38478 0.0
C429 C 0.59613 0.60781 0.34212 0.0
C430 C 0.58057 0.60112 0.30604 0.0
C431 C 0.61674 0.63353 0.27891 0.0
C432 C 0.67007 0.67383 0.28897 0.0
C433 C 0.68647 0.68181 0.32588 0.0
C434 C 0.64869 0.64838 0.35266 0.0
H435 H 0.14649 0.48369 0.70734 0.0
H436 H 0.13657 0.43726 0.59397 0.0
H437 H 0.14605 0.5256 0.57606 0.0
H438 H 0.06266 0.53705 0.69972 0.0
H439 H 0.09853 0.59113 0.73241 0.0
H440 H 0.10122 0.52952 0.73583 0.0
H441 H 0.20715 0.58569 0.73399 0.0
H442 H 0.20485 0.64773 0.73082 0.0
H443 H 0.241 0.63223 0.69703 0.0
H444 H 0.14791 0.61577 0.5713 0.0
H445 H 0.13639 0.69573 0.58002 0.0
H446 H 0.13952 0.67808 0.69678 0.0
C447 C 0.14794 0.49251 0.67865 0.0
C448 C 0.14147 0.45378 0.65202 0.0
C449 C 0.14196 0.46654 0.61483 0.0
C450 C 0.14748 0.51664 0.60443 0.0
C451 C 0.15225 0.55324 0.63158 0.0
C452 C 0.15248 0.54156 0.66794 0.0
C453 C 0.15165 0.58422 0.69209 0.0
C454 C 0.10047 0.55895 0.71642 0.0
C455 C 0.20431 0.61425 0.71482 0.0
C456 C 0.14937 0.62117 0.66372 0.0
C457 C 0.15097 0.60348 0.62895 0.0
C458 C 0.14721 0.63024 0.59841 0.0
C459 C 0.14078 0.67563 0.60361 0.0
C460 C 0.13709 0.69296 0.63908 0.0
C461 C 0.14227 0.66575 0.66937 0.0
H462 H 0.46387 0.22299 0.09407 0.0
H463 H 0.37968 0.04894 0.11611 0.0
H464 H 0.33509 0.06201 0.16852 0.0
H465 H 0.48057 0.25235 0.19828 0.0
H466 H 0.47879 0.31436 0.19273 0.0
H467 H 0.50912 0.2931 0.15811 0.0
H468 H 0.4447 0.29681 0.10988 0.0
H469 H 0.41594 0.31919 0.14475 0.0
H470 H 0.37231 0.26011 0.11798 0.0
H471 H 0.28803 0.0889 0.20987 0.0
H472 H 0.25072 0.13166 0.2488 0.0
H473 H 0.37096 0.29156 0.20759 0.0
C474 C 0.43654 0.18794 0.1103 0.0
C475 C 0.42235 0.13448 0.09955 0.0
C476 C 0.38854 0.08981 0.12232 0.0
C477 C 0.36362 0.09685 0.1526 0.0
C478 C 0.37567 0.14931 0.16114 0.0
C479 C 0.41308 0.19459 0.14194 0.0
C480 C 0.41961 0.24643 0.15892 0.0
C481 C 0.47532 0.27843 0.17815 0.0
C482 C 0.4127 0.2827 0.13118 0.0
C483 C 0.37355 0.22183 0.18649 0.0
C484 C 0.35069 0.16586 0.18802 0.0
C485 C 0.30644 0.13283 0.20992 0.0
C486 C 0.28539 0.15763 0.23174 0.0
C487 C 0.30833 0.215 0.23141 0.0
C488 C 0.35281 0.24766 0.20829 0.0
H489 H 0.12879 0.28021 0.45109 0.0
H490 H 0.29392 0.41835 0.45875 0.0
H491 H 0.30137 0.39137 0.52113 0.0
H492 H 0.08947 0.27751 0.54936 0.0
H493 H 0.0502 0.20406 0.54592 0.0
H494 H 0.05901 0.24484 0.50669 0.0
H495 H 0.09261 0.18534 0.47546 0.0
H496 H 0.09444 0.1526 0.51678 0.0
H497 H 0.15568 0.19067 0.49035 0.0
H498 H 0.29614 0.34004 0.57793 0.0
H499 H 0.2655 0.29065 0.63591 0.0
H500 H 0.10527 0.18444 0.58991 0.0
C501 C 0.16523 0.30693 0.46662 0.0
C502 C 0.21093 0.35114 0.45 0.0
C503 C 0.25834 0.38436 0.47111 0.0
C504 C 0.26344 0.36854 0.5062 0.0
C505 C 0.22022 0.32032 0.51987 0.0
C506 C 0.17111 0.29158 0.50152 0.0
C507 C 0.13144 0.24056 0.52174 0.0
C508 C 0.07951 0.24194 0.53158 0.0
C509 C 0.11774 0.18929 0.49969 0.0
C510 C 0.16534 0.2455 0.55482 0.0
C511 C 0.21711 0.29092 0.55257 0.0
C512 C 0.25548 0.30478 0.58019 0.0
C513 C 0.23823 0.27541 0.6127 0.0
C514 C 0.18278 0.23448 0.61746 0.0
C515 C 0.14786 0.21539 0.58695 0.0
H516 H 0.00704 0.36275 0.80481 0.0
H517 H 0.87591 0.26937 0.72869 0.0
H518 H 0.8135 0.2229 0.77898 0.0
H519 H 0.00089 0.27146 0.8458 0.0
H520 H 0.01149 0.29299 0.89269 0.0
H521 H 0.03548 0.34299 0.85773 0.0
H522 H 0.97952 0.38433 0.88309 0.0
H523 H 0.95662 0.33547 0.91958 0.0
H524 H 0.90746 0.34103 0.89172 0.0
H525 H 0.78441 0.15681 0.82688 0.0
H526 H 0.78413 0.09198 0.87093 0.0
H527 H 0.93345 0.22161 0.91891 0.0
C528 C 0.96418 0.33512 0.79909 0.0
C529 C 0.94693 0.31733 0.76319 0.0
C530 C 0.89057 0.28254 0.75612 0.0
C531 C 0.85462 0.25567 0.78478 0.0
C532 C 0.87562 0.26528 0.82004 0.0
C533 C 0.92874 0.30647 0.82765 0.0
C534 C 0.94614 0.29978 0.86535 0.0
C535 C 0.00165 0.30181 0.86528 0.0
C536 C 0.94747 0.34268 0.89148 0.0
C537 C 0.8993 0.2436 0.87451 0.0
C538 C 0.8577 0.22564 0.84907 0.0
C539 C 0.81542 0.1713 0.84785 0.0
C540 C 0.81613 0.13442 0.87259 0.0
C541 C 0.85911 0.15187 0.89812 0.0
C542 C 0.89985 0.20746 0.89987 0.0
H543 H 0.8793 0.9355 0.11207 0.0
H544 H 0.72283 0.92607 0.12555 0.0
H545 H 0.74053 0.94234 0.19158 0.0
H546 H 0.87441 0.86879 0.19464 0.0
H547 H 0.94678 0.91038 0.20179 0.0
H548 H 0.91973 0.89737 0.15636 0.0
H549 H 0.96959 0.0014 0.14522 0.0
H550 H 0.99504 0.016 0.19114 0.0
H551 H 0.95482 0.04379 0.17391 0.0
H552 H 0.77526 0.95716 0.25605 0.0
H553 H 0.81399 0.94838 0.31387 0.0
H554 H 0.95181 0.95904 0.25646 0.0
C555 C 0.84786 0.93522 0.12892 0.0
C556 C 0.79938 0.92884 0.11375 0.0
C557 C 0.75995 0.93 0.1368 0.0
C558 C 0.77023 0.94052 0.17411 0.0
C559 C 0.8205 0.95079 0.18761 0.0
C560 C 0.85807 0.94728 0.16573 0.0
C561 C 0.90749 0.95654 0.18682 0.0
C562 C 0.9124 0.9052 0.18478 0.0
C563 C 0.95981 0.00744 0.17346 0.0
C564 C 0.89198 0.9652 0.22442 0.0
C565 C 0.84179 0.96238 0.22431 0.0
C566 C 0.81513 0.96082 0.25645 0.0
C567 C 0.83791 0.95696 0.28928 0.0
C568 C 0.88647 0.95453 0.28939 0.0
C569 C 0.91605 0.96346 0.25704 0.0
H570 H 0.76707 0.63947 0.4671 0.0
H571 H 0.87876 0.61189 0.40361 0.0
H572 H 0.89536 0.56981 0.45578 0.0
H573 H 0.83016 0.69987 0.52551 0.0
H574 H 0.79219 0.67334 0.56712 0.0
H575 H 0.75633 0.65895 0.52521 0.0
H576 H 0.70953 0.55586 0.53757 0.0
H577 H 0.7455 0.57041 0.58029 0.0
H578 H 0.74986 0.52505 0.54799 0.0
H579 H 0.94411 0.59228 0.51089 0.0
H580 H 0.00218 0.65871 0.55703 0.0
H581 H 0.86631 0.67528 0.59272 0.0
C582 C 0.79241 0.62138 0.46404 0.0
C583 C 0.82407 0.63161 0.43243 0.0
C584 C 0.8554 0.60618 0.42813 0.0
C585 C 0.86481 0.58174 0.45788 0.0
C586 C 0.84276 0.58334 0.4915 0.0
C587 C 0.80387 0.59925 0.49439 0.0
C588 C 0.79778 0.61196 0.5336 0.0
C589 C 0.79415 0.66421 0.53801 0.0
C590 C 0.74774 0.56289 0.55088 0.0
C591 C 0.84988 0.61792 0.5492 0.0
C592 C 0.87218 0.59595 0.52577 0.0
C593 C 0.92608 0.60775 0.52989 0.0
C594 C 0.95928 0.6464 0.55581 0.0
C595 C 0.93839 0.67244 0.57766 0.0
C596 C 0.88237 0.65503 0.57626 0.0
H597 H 0.18261 0.97676 0.76806 0.0
H598 H 0.16893 0.81769 0.76949 0.0
H599 H 0.15251 0.81184 0.83563 0.0
H600 H 0.25716 0.01005 0.85075 0.0
H601 H 0.23544 0.05469 0.86753 0.0
H602 H 0.2407 0.04758 0.81911 0.0
H603 H 0.13881 0.01743 0.80736 0.0
H604 H 0.12712 0.02398 0.85486 0.0
H605 H 0.08607 0.96013 0.8318 0.0
H606 H 0.13713 0.82478 0.90263 0.0
H607 H 0.15089 0.86592 0.96379 0.0
H608 H 0.16993 0.01348 0.91669 0.0
C609 C 0.17602 0.94052 0.78212 0.0
C610 C 0.17614 0.89751 0.76334 0.0
C611 C 0.16908 0.85153 0.7832 0.0
C612 C 0.15876 0.84729 0.82073 0.0
C613 C 0.15535 0.88917 0.83793 0.0
C614 C 0.16548 0.93536 0.81929 0.0
C615 C 0.16902 0.97847 0.84451 0.0
C616 C 0.22889 0.02564 0.84545 0.0
C617 C 0.12797 0.99623 0.83396 0.0
C618 C 0.1538 0.94818 0.87997 0.0
C619 C 0.14697 0.89673 0.87594 0.0
C620 C 0.14139 0.86458 0.90593 0.0
C621 C 0.14794 0.88775 0.94067 0.0
C622 C 0.15992 0.94231 0.94485 0.0
C623 C 0.15809 0.97085 0.91436 0.0
loop_
_geom_bond_atom_site_label_1
_geom_bond_atom_site_label_2
_geom_bond_distance
_geom_bond_site_symmetry_2
_ccdc_geom_bond_type
O0 Zn1 1.953 1_556 S
O0 C16 1.225 1_556 S
Zn1 O0 1.953 1_554 S
Zn1 O2 1.949 . S
Zn1 O8 1.919 1_544 S
Zn1 O13 1.924 1_545 S
O2 Zn1 1.949 . S
O2 Zn3 1.923 1_554 S
O2 Zn4 1.950 . S
O2 Zn5 1.945 . S
Zn3 O2 1.923 1_556 S
Zn3 O6 1.933 . S
Zn3 O9 1.941 . S
Zn3 O10 1.965 . S
Zn4 O2 1.950 . S
Zn4 O11 1.938 1_554 S
Zn4 O12 1.906 . S
Zn4 O22 1.953 . S
Zn5 O2 1.945 . S
Zn5 O7 1.932 . S
Zn5 O14 1.977 . S
Zn5 O15 1.910 1_545 S
O6 Zn3 1.933 . S
O6 C17 1.226 1_556 S
O7 Zn5 1.932 . S
O7 C17 1.307 . S
O8 Zn1 1.919 1_566 S
O8 C19 1.253 . S
O9 Zn3 1.941 . S
O9 C19 1.283 1_545 S
O10 Zn3 1.965 . S
O10 C18 1.303 . S
O11 Zn4 1.938 1_556 S
O11 C18 1.247 . S
O12 Zn4 1.906 . S
O12 C20 1.304 . S
O13 Zn1 1.924 1_565 S
O13 C21 1.311 . S
O14 Zn5 1.977 . S
O14 C20 1.272 . S
O15 Zn5 1.910 1_565 S
O15 C21 1.231 . S
C16 O0 1.225 1_554 S
C16 O22 1.298 . S
C17 O6 1.226 1_554 S
C17 O7 1.307 . S
C18 O10 1.303 . S
C18 O11 1.247 . S
C19 O8 1.253 . S
C19 O9 1.283 1_565 S
C20 O12 1.304 . S
C20 O14 1.272 . S
C21 O13 1.311 . S
C21 O15 1.231 . S
O22 Zn4 1.953 . S
O22 C16 1.298 . S
O23 Zn24 1.953 . S
O23 C39 1.225 . S
Zn24 O23 1.953 . S
Zn24 O25 1.949 . S
Zn24 O31 1.919 . S
Zn24 O36 1.924 . S
O25 Zn24 1.949 . S
O25 Zn26 1.923 . S
O25 Zn27 1.950 . S
O25 Zn28 1.945 . S
Zn26 O25 1.923 . S
Zn26 O29 1.933 . S
Zn26 O32 1.941 . S
Zn26 O33 1.965 . S
Zn27 O25 1.950 . S
Zn27 O34 1.938 . S
Zn27 O35 1.906 . S
Zn27 O45 1.953 . S
Zn28 O25 1.945 . S
Zn28 O30 1.932 . S
Zn28 O37 1.977 . S
Zn28 O38 1.910 . S
O29 Zn26 1.933 . S
O29 C40 1.226 . S
O30 Zn28 1.932 . S
O30 C40 1.307 . S
O31 Zn24 1.919 . S
O31 C42 1.253 . S
O32 Zn26 1.941 . S
O32 C42 1.283 . S
O33 Zn26 1.965 . S
O33 C41 1.303 . S
O34 Zn27 1.938 . S
O34 C41 1.247 . S
O35 Zn27 1.906 . S
O35 C43 1.304 . S
O36 Zn24 1.924 . S
O36 C44 1.311 . S
O37 Zn28 1.977 . S
O37 C43 1.272 . S
O38 Zn28 1.910 . S
O38 C44 1.231 . S
C39 O23 1.225 . S
C39 O45 1.298 . S
C40 O29 1.226 . S
C40 O30 1.307 . S
C41 O33 1.303 . S
C41 O34 1.247 . S
C42 O31 1.253 . S
C42 O32 1.283 . S
C43 O35 1.304 . S
C43 O37 1.272 . S
C44 O36 1.311 . S
C44 O38 1.231 . S
O45 Zn27 1.953 . S
O45 C39 1.298 . S
O46 Zn47 1.953 . S
O46 C62 1.225 . S
Zn47 O46 1.953 . S
Zn47 O48 1.949 . S
Zn47 O54 1.919 . S
Zn47 O59 1.924 . S
O48 Zn47 1.949 . S
O48 Zn49 1.923 . S
O48 Zn50 1.950 1_455 S
O48 Zn51 1.945 . S
Zn49 O48 1.923 . S
Zn49 O52 1.933 . S
Zn49 O55 1.941 . S
Zn49 O56 1.965 1_455 S
Zn50 O48 1.950 1_655 S
Zn50 O57 1.938 . S
Zn50 O58 1.906 . S
Zn50 O68 1.953 1_655 S
Zn51 O48 1.945 . S
Zn51 O53 1.932 . S
Zn51 O60 1.977 1_455 S
Zn51 O61 1.910 . S
O52 Zn49 1.933 . S
O52 C63 1.226 . S
O53 Zn51 1.932 . S
O53 C63 1.307 . S
O54 Zn47 1.919 . S
O54 C65 1.253 . S
O55 Zn49 1.941 . S
O55 C65 1.283 . S
O56 Zn49 1.965 1_655 S
O56 C64 1.303 . S
O57 Zn50 1.938 . S
O57 C64 1.247 . S
O58 Zn50 1.906 . S
O58 C66 1.304 . S
O59 Zn47 1.924 . S
O59 C67 1.311 . S
O60 Zn51 1.977 1_655 S
O60 C66 1.272 . S
O61 Zn51 1.910 . S
O61 C67 1.231 . S
C62 O46 1.225 . S
C62 O68 1.298 . S
C63 O52 1.226 . S
C63 O53 1.307 . S
C64 O56 1.303 . S
C64 O57 1.247 . S
C65 O54 1.253 . S
C65 O55 1.283 . S
C66 O58 1.304 . S
C66 O60 1.272 . S
C67 O59 1.311 . S
C67 O61 1.231 . S
O68 Zn50 1.953 1_455 S
O68 C62 1.298 . S
O69 Zn70 1.953 1_556 S
O69 C85 1.225 1_556 S
Zn70 O69 1.953 1_554 S
Zn70 O71 1.949 . S
Zn70 O77 1.919 1_554 S
Zn70 O82 1.924 . S
O71 Zn70 1.949 . S
O71 Zn72 1.923 1_554 S
O71 Zn73 1.950 1_545 S
O71 Zn74 1.945 . S
Zn72 O71 1.923 1_556 S
Zn72 O75 1.933 . S
Zn72 O78 1.941 . S
Zn72 O79 1.965 1_545 S
Zn73 O71 1.950 1_565 S
Zn73 O80 1.938 1_554 S
Zn73 O81 1.906 . S
Zn73 O91 1.953 . S
Zn74 O71 1.945 . S
Zn74 O76 1.932 . S
Zn74 O83 1.977 1_545 S
Zn74 O84 1.910 . S
O75 Zn72 1.933 . S
O75 C86 1.226 1_556 S
O76 Zn74 1.932 . S
O76 C86 1.307 . S
O77 Zn70 1.919 1_556 S
O77 C88 1.253 . S
O78 Zn72 1.941 . S
O78 C88 1.283 . S
O79 Zn72 1.965 1_565 S
O79 C87 1.303 . S
O80 Zn73 1.938 1_556 S
O80 C87 1.247 . S
O81 Zn73 1.906 . S
O81 C89 1.304 . S
O82 Zn70 1.924 . S
O82 C90 1.311 . S
O83 Zn74 1.977 1_565 S
O83 C89 1.272 . S
O84 Zn74 1.910 . S
O84 C90 1.231 . S
C85 O69 1.225 1_554 S
C85 O91 1.298 1_545 S
C86 O75 1.226 1_554 S
C86 O76 1.307 . S
C87 O79 1.303 . S
C87 O80 1.247 . S
C88 O77 1.253 . S
C88 O78 1.283 . S
C89 O81 1.304 . S
C89 O83 1.272 . S
C90 O82 1.311 . S
C90 O84 1.231 . S
O91 Zn73 1.953 . S
O91 C85 1.298 1_565 S
O92 Zn93 1.953 . S
O92 C108 1.225 . S
Zn93 O92 1.953 . S
Zn93 O94 1.949 . S
Zn93 O100 1.919 . S
Zn93 O105 1.924 . S
O94 Zn93 1.949 . S
O94 Zn95 1.923 . S
O94 Zn96 1.950 . S
O94 Zn97 1.945 . S
Zn95 O94 1.923 . S
Zn95 O98 1.933 . S
Zn95 O101 1.941 . S
Zn95 O102 1.965 . S
Zn96 O94 1.950 . S
Zn96 O103 1.938 . S
Zn96 O104 1.906 . S
Zn96 O114 1.953 . S
Zn97 O94 1.945 . S
Zn97 O99 1.932 . S
Zn97 O106 1.977 . S
Zn97 O107 1.910 . S
O98 Zn95 1.933 . S
O98 C109 1.226 . S
O99 Zn97 1.932 . S
O99 C109 1.307 . S
O100 Zn93 1.919 . S
O100 C111 1.253 . S
O101 Zn95 1.941 . S
O101 C111 1.283 . S
O102 Zn95 1.965 . S
O102 C110 1.303 . S
O103 Zn96 1.938 . S
O103 C110 1.247 . S
O104 Zn96 1.906 . S
O104 C112 1.304 . S
O105 Zn93 1.924 . S
O105 C113 1.311 . S
O106 Zn97 1.977 . S
O106 C112 1.272 . S
O107 Zn97 1.910 . S
O107 C113 1.231 . S
C108 O92 1.225 . S
C108 O114 1.298 . S
C109 O98 1.226 . S
C109 O99 1.307 . S
C110 O102 1.303 . S
C110 O103 1.247 . S
C111 O100 1.253 . S
C111 O101 1.283 . S
C112 O104 1.304 . S
C112 O106 1.272 . S
C113 O105 1.311 . S
C113 O107 1.231 . S
O114 Zn96 1.953 . S
O114 C108 1.298 . S
O115 Zn116 1.953 . S
O115 C131 1.225 . S
Zn116 O115 1.953 . S
Zn116 O117 1.949 . S
Zn116 O123 1.919 1_455 S
Zn116 O128 1.924 1_455 S
O117 Zn116 1.949 . S
O117 Zn118 1.923 . S
O117 Zn119 1.950 . S
O117 Zn120 1.945 . S
Zn118 O117 1.923 . S
Zn118 O121 1.933 . S
Zn118 O124 1.941 . S
Zn118 O125 1.965 . S
Zn119 O117 1.950 . S
Zn119 O126 1.938 . S
Zn119 O127 1.906 . S
Zn119 O137 1.953 . S
Zn120 O117 1.945 . S
Zn120 O122 1.932 . S
Zn120 O129 1.977 . S
Zn120 O130 1.910 . S
O121 Zn118 1.933 . S
O121 C132 1.226 . S
O122 Zn120 1.932 . S
O122 C132 1.307 . S
O123 Zn116 1.919 1_655 S
O123 C134 1.253 1_655 S
O124 Zn118 1.941 . S
O124 C134 1.283 . S
O125 Zn118 1.965 . S
O125 C133 1.303 . S
O126 Zn119 1.938 . S
O126 C133 1.247 . S
O127 Zn119 1.906 . S
O127 C135 1.304 . S
O128 Zn116 1.924 1_655 S
O128 C136 1.311 . S
O129 Zn120 1.977 . S
O129 C135 1.272 . S
O130 Zn120 1.910 . S
O130 C136 1.231 1_455 S
C131 O115 1.225 . S
C131 O137 1.298 . S
C132 O121 1.226 . S
C132 O122 1.307 . S
C133 O125 1.303 . S
C133 O126 1.247 . S
C134 O123 1.253 1_455 S
C134 O124 1.283 . S
C135 O127 1.304 . S
C135 O129 1.272 . S
C136 O128 1.311 . S
C136 O130 1.231 1_655 S
O137 Zn119 1.953 . S
O137 C131 1.298 . S
H138 C150 0.930 . S
H139 C152 0.930 . S
H140 C153 0.930 . S
H141 C157 0.959 . S
H142 C157 0.959 . S
H143 C157 0.961 . S
H144 C158 0.960 . S
H145 C158 0.961 . S
H146 C158 0.959 . S
H147 C161 0.929 . S
H148 C162 0.931 . S
H149 C164 0.930 . S
C150 H138 0.930 . S
C150 C151 1.399 1_556 S
C150 C155 1.399 1_655 S
C151 C150 1.399 1_554 S
C151 C152 1.376 . S
C152 H139 0.930 . S
C152 C151 1.376 . S
C152 C153 1.388 1_655 S
C153 H140 0.930 . S
C153 C152 1.388 1_455 S
C153 C154 1.390 . S
C154 C153 1.390 . S
C154 C155 1.394 1_554 S
C154 C160 1.465 . S
C155 C150 1.399 1_455 S
C155 C154 1.394 1_556 S
C155 C156 1.516 . S
C156 C155 1.516 . S
C156 C157 1.502 1_545 S
C156 C158 1.561 . S
C156 C159 1.526 . S
C157 H141 0.959 . S
C157 H142 0.959 . S
C157 H143 0.961 . S
C157 C156 1.502 1_565 S
C158 H144 0.960 . S
C158 H145 0.961 . S
C158 H146 0.959 . S
C158 C156 1.561 . S
C159 C156 1.526 . S
C159 C160 1.396 1_556 S
C159 C164 1.390 . S
C160 C154 1.465 . S
C160 C159 1.396 1_554 S
C160 C161 1.399 . S
C161 H147 0.929 . S
C161 C160 1.399 . S
C161 C162 1.385 . S
C162 H148 0.931 . S
C162 C161 1.385 . S
C162 C163 1.389 . S
C163 C162 1.389 . S
C163 C164 1.387 1_554 S
C164 H149 0.930 . S
C164 C159 1.390 . S
C164 C163 1.387 1_556 S
H165 C177 0.930 . S
H166 C179 0.930 . S
H167 C180 0.930 . S
H168 C184 0.959 . S
H169 C184 0.959 . S
H170 C184 0.961 1_655 S
H171 C185 0.960 . S
H172 C185 0.961 . S
H173 C185 0.959 . S
H174 C188 0.929 . S
H175 C189 0.931 . S
H176 C191 0.930 . S
C177 H165 0.930 . S
C177 C178 1.399 . S
C177 C182 1.399 1_665 S
C178 C177 1.399 . S
C178 C179 1.376 . S
C179 H166 0.930 . S
C179 C178 1.376 . S
C179 C180 1.388 1_655 S
C180 H167 0.930 . S
C180 C179 1.388 1_455 S
C180 C181 1.390 1_565 S
C181 C180 1.390 1_545 S
C181 C182 1.394 . S
C181 C187 1.465 . S
C182 C177 1.399 1_445 S
C182 C181 1.394 . S
C182 C183 1.516 . S
C183 C182 1.516 . S
C183 C184 1.502 . S
C183 C185 1.561 . S
C183 C186 1.526 . S
C184 H168 0.959 . S
C184 H169 0.959 . S
C184 H170 0.961 1_455 S
C184 C183 1.502 . S
C185 H171 0.960 . S
C185 H172 0.961 . S
C185 H173 0.959 . S
C185 C183 1.561 . S
C186 C183 1.526 . S
C186 C187 1.396 . S
C186 C191 1.390 . S
C187 C181 1.465 . S
C187 C186 1.396 . S
C187 C188 1.399 . S
C188 H174 0.929 . S
C188 C187 1.399 . S
C188 C189 1.385 . S
C189 H175 0.931 . S
C189 C188 1.385 . S
C189 C190 1.389 . S
C190 C189 1.389 . S
C190 C191 1.387 . S
C191 H176 0.930 . S
C191 C186 1.390 . S
C191 C190 1.387 . S
H192 C204 0.930 . S
H193 C206 0.930 . S
H194 C207 0.930 . S
H195 C211 0.959 . S
H196 C211 0.959 1_545 S
H197 C211 0.961 . S
H198 C212 0.960 . S
H199 C212 0.961 . S
H200 C212 0.959 . S
H201 C215 0.929 . S
H202 C216 0.931 . S
H203 C218 0.930 . S
C204 H192 0.930 . S
C204 C205 1.399 . S
C204 C209 1.399 1_565 S
C205 C204 1.399 . S
C205 C206 1.376 . S
C206 H193 0.930 . S
C206 C205 1.376 . S
C206 C207 1.388 1_565 S
C207 H194 0.930 . S
C207 C206 1.388 1_545 S
C207 C208 1.390 . S
C208 C207 1.390 . S
C208 C209 1.394 . S
C208 C214 1.465 . S
C209 C204 1.399 1_545 S
C209 C208 1.394 . S
C209 C210 1.516 . S
C210 C209 1.516 . S
C210 C211 1.502 1_445 S
C210 C212 1.561 . S
C210 C213 1.526 . S
C211 H195 0.959 . S
C211 H196 0.959 1_565 S
C211 H197 0.961 . S
C211 C210 1.502 1_665 S
C212 H198 0.960 . S
C212 H199 0.961 . S
C212 H200 0.959 . S
C212 C210 1.561 . S
C213 C210 1.526 . S
C213 C214 1.396 . S
C213 C218 1.390 . S
C214 C208 1.465 . S
C214 C213 1.396 . S
C214 C215 1.399 . S
C215 H201 0.929 . S
C215 C214 1.399 . S
C215 C216 1.385 . S
C216 H202 0.931 . S
C216 C215 1.385 . S
C216 C217 1.389 . S
C217 C216 1.389 . S
C217 C218 1.387 . S
C218 H203 0.930 . S
C218 C213 1.390 . S
C218 C217 1.387 . S
H219 C231 0.930 . S
H220 C233 0.930 . S
H221 C234 0.930 . S
H222 C238 0.959 . S
H223 C238 0.959 . S
H224 C238 0.961 . S
H225 C239 0.960 . S
H226 C239 0.961 . S
H227 C239 0.959 . S
H228 C242 0.929 . S
H229 C243 0.931 . S
H230 C245 0.930 . S
C231 H219 0.930 . S
C231 C232 1.399 . S
C231 C236 1.399 . S
C232 C231 1.399 . S
C232 C233 1.376 . S
C233 H220 0.930 . S
C233 C232 1.376 . S
C233 C234 1.388 . S
C234 H221 0.930 . S
C234 C233 1.388 . S
C234 C235 1.390 . S
C235 C234 1.390 . S
C235 C236 1.394 . S
C235 C241 1.465 . S
C236 C231 1.399 . S
C236 C235 1.394 . S
C236 C237 1.516 . S
C237 C236 1.516 . S
C237 C238 1.502 . S
C237 C239 1.561 . S
C237 C240 1.526 . S
C238 H222 0.959 . S
C238 H223 0.959 . S
C238 H224 0.961 . S
C238 C237 1.502 . S
C239 H225 0.960 . S
C239 H226 0.961 . S
C239 H227 0.959 . S
C239 C237 1.561 . S
C240 C237 1.526 . S
C240 C241 1.396 . S
C240 C245 1.390 . S
C241 C235 1.465 . S
C241 C240 1.396 . S
C241 C242 1.399 . S
C242 H228 0.929 . S
C242 C241 1.399 . S
C242 C243 1.385 . S
C243 H229 0.931 . S
C243 C242 1.385 . S
C243 C244 1.389 . S
C244 C243 1.389 . S
C244 C245 1.387 . S
C245 H230 0.930 . S
C245 C240 1.390 . S
C245 C244 1.387 . S
H246 C258 0.930 . S
H247 C260 0.930 . S
H248 C261 0.930 . S
H249 C265 0.959 . S
H250 C265 0.959 . S
H251 C265 0.961 . S
H252 C266 0.960 . S
H253 C266 0.961 . S
H254 C266 0.959 . S
H255 C269 0.929 . S
H256 C270 0.931 . S
H257 C272 0.930 1_455 S
C258 H246 0.930 . S
C258 C259 1.399 . S
C258 C263 1.399 . S
C259 C258 1.399 . S
C259 C260 1.376 . S
C260 H247 0.930 . S
C260 C259 1.376 . S
C260 C261 1.388 . S
C261 H248 0.930 . S
C261 C260 1.388 . S
C261 C262 1.390 . S
C262 C261 1.390 . S
C262 C263 1.394 . S
C262 C268 1.465 . S
C263 C258 1.399 . S
C263 C262 1.394 . S
C263 C264 1.516 . S
C264 C263 1.516 . S
C264 C265 1.502 . S
C264 C266 1.561 . S
C264 C267 1.526 . S
C265 H249 0.959 . S
C265 H250 0.959 . S
C265 H251 0.961 . S
C265 C264 1.502 . S
C266 H252 0.960 . S
C266 H253 0.961 . S
C266 H254 0.959 . S
C266 C264 1.561 . S
C267 C264 1.526 . S
C267 C268 1.396 . S
C267 C272 1.390 1_455 S
C268 C262 1.465 . S
C268 C267 1.396 . S
C268 C269 1.399 1_455 S
C269 H255 0.929 . S
C269 C268 1.399 1_655 S
C269 C270 1.385 . S
C270 H256 0.931 . S
C270 C269 1.385 . S
C270 C271 1.389 . S
C271 C270 1.389 . S
C271 C272 1.387 . S
C272 H257 0.930 1_655 S
C272 C267 1.390 1_655 S
C272 C271 1.387 . S
H273 C285 0.930 . S
H274 C287 0.930 . S
H275 C288 0.930 . S
H276 C292 0.959 . S
H277 C292 0.959 . S
H278 C292 0.961 1_455 S
H279 C293 0.960 . S
H280 C293 0.961 1_565 S
H281 C293 0.959 1_565 S
H282 C296 0.929 . S
H283 C297 0.931 . S
H284 C299 0.930 . S
C285 H273 0.930 . S
C285 C286 1.399 . S
C285 C290 1.399 . S
C286 C285 1.399 . S
C286 C287 1.376 . S
C287 H274 0.930 . S
C287 C286 1.376 . S
C287 C288 1.388 . S
C288 H275 0.930 . S
C288 C287 1.388 . S
C288 C289 1.390 . S
C289 C288 1.390 . S
C289 C290 1.394 . S
C289 C295 1.464 1_545 S
C290 C285 1.399 . S
C290 C289 1.394 . S
C290 C291 1.516 . S
C291 C290 1.516 . S
C291 C292 1.502 . S
C291 C293 1.561 . S
C291 C294 1.526 . S
C292 H276 0.959 . S
C292 H277 0.959 . S
C292 H278 0.961 1_655 S
C292 C291 1.502 . S
C293 H279 0.960 . S
C293 H280 0.961 1_545 S
C293 H281 0.959 1_545 S
C293 C291 1.561 . S
C294 C291 1.526 . S
C294 C295 1.397 1_545 S
C294 C299 1.390 1_545 S
C295 C289 1.464 1_565 S
C295 C294 1.397 1_565 S
C295 C296 1.399 . S
C296 H282 0.929 . S
C296 C295 1.399 . S
C296 C297 1.385 . S
C297 H283 0.931 . S
C297 C296 1.385 . S
C297 C298 1.389 . S
C298 C297 1.389 . S
C298 C299 1.387 . S
C299 H284 0.930 . S
C299 C294 1.390 1_565 S
C299 C298 1.387 . S
H300 C312 0.930 . S
H301 C314 0.930 . S
H302 C315 0.930 . S
H303 C319 0.959 . S
H304 C319 0.959 . S
H305 C319 0.961 . S
H306 C320 0.960 . S
H307 C320 0.961 . S
H308 C320 0.959 . S
H309 C323 0.929 . S
H310 C324 0.931 1_455 S
H311 C326 0.930 . S
C312 H300 0.930 . S
C312 C313 1.399 . S
C312 C317 1.399 . S
C313 C312 1.399 . S
C313 C314 1.376 . S
C314 H301 0.930 . S
C314 C313 1.376 . S
C314 C315 1.388 . S
C315 H302 0.930 . S
C315 C314 1.388 . S
C315 C316 1.390 . S
C316 C315 1.390 . S
C316 C317 1.394 . S
C316 C322 1.465 . S
C317 C312 1.399 . S
C317 C316 1.394 . S
C317 C318 1.516 . S
C318 C317 1.516 . S
C318 C319 1.502 . S
C318 C320 1.561 . S
C318 C321 1.526 . S
C319 H303 0.959 . S
C319 H304 0.959 . S
C319 H305 0.961 . S
C319 C318 1.502 . S
C320 H306 0.960 . S
C320 H307 0.961 . S
C320 H308 0.959 . S
C320 C318 1.561 . S
C321 C318 1.526 . S
C321 C322 1.396 . S
C321 C326 1.390 . S
C322 C316 1.465 . S
C322 C321 1.396 . S
C322 C323 1.399 . S
C323 H309 0.929 . S
C323 C322 1.399 . S
C323 C324 1.385 . S
C324 H310 0.931 1_655 S
C324 C323 1.385 . S
C324 C325 1.389 . S
C325 C324 1.389 . S
C325 C326 1.387 . S
C326 H311 0.930 . S
C326 C321 1.390 . S
C326 C325 1.387 . S
H327 C339 0.930 . S
H328 C341 0.930 . S
H329 C342 0.930 . S
H330 C346 0.959 . S
H331 C346 0.959 . S
H332 C346 0.961 . S
H333 C347 0.960 1_655 S
H334 C347 0.961 . S
H335 C347 0.959 . S
H336 C350 0.929 . S
H337 C351 0.931 . S
H338 C353 0.930 . S
C339 H327 0.930 . S
C339 C340 1.399 . S
C339 C344 1.399 1_655 S
C340 C339 1.399 . S
C340 C341 1.376 1_655 S
C341 H328 0.930 . S
C341 C340 1.376 1_455 S
C341 C342 1.388 . S
C342 H329 0.930 . S
C342 C341 1.388 . S
C342 C343 1.390 . S
C343 C342 1.390 . S
C343 C344 1.394 . S
C343 C349 1.465 . S
C344 C339 1.399 1_455 S
C344 C343 1.394 . S
C344 C345 1.516 . S
C345 C344 1.516 . S
C345 C346 1.502 . S
C345 C347 1.561 . S
C345 C348 1.526 . S
C346 H330 0.959 . S
C346 H331 0.959 . S
C346 H332 0.961 . S
C346 C345 1.502 . S
C347 H333 0.960 1_455 S
C347 H334 0.961 . S
C347 H335 0.959 . S
C347 C345 1.561 . S
C348 C345 1.526 . S
C348 C349 1.396 . S
C348 C353 1.390 . S
C349 C343 1.465 . S
C349 C348 1.396 . S
C349 C350 1.399 . S
C350 H336 0.929 . S
C350 C349 1.399 . S
C350 C351 1.385 . S
C351 H337 0.931 . S
C351 C350 1.385 . S
C351 C352 1.389 . S
C352 C351 1.389 . S
C352 C353 1.387 . S
C353 H338 0.930 . S
C353 C348 1.390 . S
C353 C352 1.387 . S
H354 C366 0.930 . S
H355 C368 0.930 . S
H356 C369 0.930 . S
H357 C373 0.959 . S
H358 C373 0.959 . S
H359 C373 0.961 . S
H360 C374 0.960 . S
H361 C374 0.961 . S
H362 C374 0.959 . S
H363 C377 0.929 . S
H364 C378 0.931 . S
H365 C380 0.930 . S
C366 H354 0.930 . S
C366 C367 1.399 1_545 S
C366 C371 1.399 . S
C367 C366 1.399 1_565 S
C367 C368 1.376 . S
C368 H355 0.930 . S
C368 C367 1.376 . S
C368 C369 1.388 . S
C369 H356 0.930 . S
C369 C368 1.388 . S
C369 C370 1.390 1_565 S
C370 C369 1.390 1_545 S
C370 C371 1.394 . S
C370 C376 1.465 . S
C371 C366 1.399 . S
C371 C370 1.394 . S
C371 C372 1.516 . S
C372 C371 1.516 . S
C372 C373 1.502 . S
C372 C374 1.561 . S
C372 C375 1.526 . S
C373 H357 0.959 . S
C373 H358 0.959 . S
C373 H359 0.961 . S
C373 C372 1.502 . S
C374 H360 0.960 . S
C374 H361 0.961 . S
C374 H362 0.959 . S
C374 C372 1.561 . S
C375 C372 1.526 . S
C375 C376 1.396 . S
C375 C380 1.390 . S
C376 C370 1.465 . S
C376 C375 1.396 . S
C376 C377 1.399 . S
C377 H363 0.929 . S
C377 C376 1.399 . S
C377 C378 1.385 . S
C378 H364 0.931 . S
C378 C377 1.385 . S
C378 C379 1.389 . S
C379 C378 1.389 . S
C379 C380 1.387 . S
C380 H365 0.930 . S
C380 C375 1.390 . S
C380 C379 1.387 . S
H381 C393 0.930 . S
H382 C395 0.930 . S
H383 C396 0.930 . S
H384 C400 0.959 . S
H385 C400 0.959 . S
H386 C400 0.961 . S
H387 C401 0.960 . S
H388 C401 0.961 . S
H389 C401 0.959 1_565 S
H390 C404 0.929 . S
H391 C405 0.931 1_565 S
H392 C407 0.930 . S
C393 H381 0.930 . S
C393 C394 1.399 . S
C393 C398 1.399 . S
C394 C393 1.399 . S
C394 C395 1.376 1_554 S
C395 H382 0.930 . S
C395 C394 1.376 1_556 S
C395 C396 1.388 . S
C396 H383 0.930 . S
C396 C395 1.388 . S
C396 C397 1.390 . S
C397 C396 1.390 . S
C397 C398 1.394 1_556 S
C397 C403 1.465 . S
C398 C393 1.399 . S
C398 C397 1.394 1_554 S
C398 C399 1.516 . S
C399 C398 1.516 . S
C399 C400 1.502 . S
C399 C401 1.561 . S
C399 C402 1.526 . S
C400 H384 0.959 . S
C400 H385 0.959 . S
C400 H386 0.961 . S
C400 C399 1.502 . S
C401 H387 0.960 . S
C401 H388 0.961 . S
C401 H389 0.959 1_545 S
C401 C399 1.561 . S
C402 C399 1.526 . S
C402 C403 1.396 1_554 S
C402 C407 1.390 . S
C403 C397 1.465 . S
C403 C402 1.396 1_556 S
C403 C404 1.399 . S
C404 H390 0.929 . S
C404 C403 1.399 . S
C404 C405 1.385 . S
C405 H391 0.931 1_545 S
C405 C404 1.385 . S
C405 C406 1.389 1_556 S
C406 C405 1.389 1_554 S
C406 C407 1.387 . S
C407 H392 0.930 . S
C407 C402 1.390 . S
C407 C406 1.387 . S
H408 C420 0.930 . S
H409 C422 0.930 . S
H410 C423 0.930 . S
H411 C427 0.959 . S
H412 C427 0.959 . S
H413 C427 0.961 . S
H414 C428 0.960 . S
H415 C428 0.961 . S
H416 C428 0.959 . S
H417 C431 0.929 . S
H418 C432 0.931 . S
H419 C434 0.930 . S
C420 H408 0.930 . S
C420 C421 1.399 . S
C420 C425 1.399 . S
C421 C420 1.399 . S
C421 C422 1.376 . S
C422 H409 0.930 . S
C422 C421 1.376 . S
C422 C423 1.388 . S
C423 H410 0.930 . S
C423 C422 1.388 . S
C423 C424 1.390 . S
C424 C423 1.390 . S
C424 C425 1.394 . S
C424 C430 1.465 . S
C425 C420 1.399 . S
C425 C424 1.394 . S
C425 C426 1.516 . S
C426 C425 1.516 . S
C426 C427 1.502 . S
C426 C428 1.561 . S
C426 C429 1.526 . S
C427 H411 0.959 . S
C427 H412 0.959 . S
C427 H413 0.961 . S
C427 C426 1.502 . S
C428 H414 0.960 . S
C428 H415 0.961 . S
C428 H416 0.959 . S
C428 C426 1.561 . S
C429 C426 1.526 . S
C429 C430 1.396 . S
C429 C434 1.390 . S
C430 C424 1.465 . S
C430 C429 1.396 . S
C430 C431 1.399 . S
C431 H417 0.929 . S
C431 C430 1.399 . S
C431 C432 1.385 . S
C432 H418 0.931 . S
C432 C431 1.385 . S
C432 C433 1.389 . S
C433 C432 1.389 . S
C433 C434 1.387 . S
C434 H419 0.930 . S
C434 C429 1.390 . S
C434 C433 1.387 . S
H435 C447 0.930 . S
H436 C449 0.930 . S
H437 C450 0.930 . S
H438 C454 0.959 1_655 S
H439 C454 0.959 . S
H440 C454 0.961 . S
H441 C455 0.960 . S
H442 C455 0.961 . S
H443 C455 0.959 . S
H444 C458 0.929 . S
H445 C459 0.931 . S
H446 C461 0.930 . S
C447 H435 0.930 . S
C447 C448 1.399 . S
C447 C452 1.399 . S
C448 C447 1.399 . S
C448 C449 1.376 . S
C449 H436 0.930 . S
C449 C448 1.376 . S
C449 C450 1.388 . S
C450 H437 0.930 . S
C450 C449 1.388 . S
C450 C451 1.390 . S
C451 C450 1.390 . S
C451 C452 1.394 . S
C451 C457 1.465 . S
C452 C447 1.399 . S
C452 C451 1.394 . S
C452 C453 1.516 . S
C453 C452 1.516 . S
C453 C454 1.502 . S
C453 C455 1.561 . S
C453 C456 1.526 . S
C454 H438 0.959 1_455 S
C454 H439 0.959 . S
C454 H440 0.961 . S
C454 C453 1.502 . S
C455 H441 0.960 . S
C455 H442 0.961 . S
C455 H443 0.959 . S
C455 C453 1.561 . S
C456 C453 1.526 . S
C456 C457 1.396 . S
C456 C461 1.390 . S
C457 C451 1.465 . S
C457 C456 1.396 . S
C457 C458 1.399 . S
C458 H444 0.929 . S
C458 C457 1.399 . S
C458 C459 1.385 . S
C459 H445 0.931 . S
C459 C458 1.385 . S
C459 C460 1.389 . S
C460 C459 1.389 . S
C460 C461 1.387 . S
C461 H446 0.930 . S
C461 C456 1.390 . S
C461 C460 1.387 . S
H462 C474 0.930 . S
H463 C476 0.930 . S
H464 C477 0.930 . S
H465 C481 0.959 . S
H466 C481 0.959 . S
H467 C481 0.961 . S
H468 C482 0.960 . S
H469 C482 0.961 . S
H470 C482 0.959 . S
H471 C485 0.929 . S
H472 C486 0.931 . S
H473 C488 0.930 . S
C474 H462 0.930 . S
C474 C475 1.399 . S
C474 C479 1.399 . S
C475 C474 1.399 . S
C475 C476 1.376 . S
C476 H463 0.930 . S
C476 C475 1.376 . S
C476 C477 1.388 . S
C477 H464 0.930 . S
C477 C476 1.388 . S
C477 C478 1.390 . S
C478 C477 1.390 . S
C478 C479 1.394 . S
C478 C484 1.465 . S
C479 C474 1.399 . S
C479 C478 1.394 . S
C479 C480 1.516 . S
C480 C479 1.516 . S
C480 C481 1.502 . S
C480 C482 1.561 . S
C480 C483 1.526 . S
C481 H465 0.959 . S
C481 H466 0.959 . S
C481 H467 0.961 . S
C481 C480 1.502 . S
C482 H468 0.960 . S
C482 H469 0.961 . S
C482 H470 0.959 . S
C482 C480 1.561 . S
C483 C480 1.526 . S
C483 C484 1.396 . S
C483 C488 1.390 . S
C484 C478 1.465 . S
C484 C483 1.396 . S
C484 C485 1.399 . S
C485 H471 0.929 . S
C485 C484 1.399 . S
C485 C486 1.385 . S
C486 H472 0.931 . S
C486 C485 1.385 . S
C486 C487 1.389 . S
C487 C486 1.389 . S
C487 C488 1.387 . S
C488 H473 0.930 . S
C488 C483 1.390 . S
C488 C487 1.387 . S
H489 C501 0.930 . S
H490 C503 0.930 . S
H491 C504 0.930 . S
H492 C508 0.959 . S
H493 C508 0.959 . S
H494 C508 0.961 . S
H495 C509 0.960 . S
H496 C509 0.961 . S
H497 C509 0.959 . S
H498 C512 0.929 . S
H499 C513 0.931 . S
H500 C515 0.930 . S
C501 H489 0.930 . S
C501 C502 1.399 . S
C501 C506 1.399 . S
C502 C501 1.399 . S
C502 C503 1.376 . S
C503 H490 0.930 . S
C503 C502 1.376 . S
C503 C504 1.388 . S
C504 H491 0.930 . S
C504 C503 1.388 . S
C504 C505 1.390 . S
C505 C504 1.390 . S
C505 C506 1.394 . S
C505 C511 1.465 . S
C506 C501 1.399 . S
C506 C505 1.394 . S
C506 C507 1.516 . S
C507 C506 1.516 . S
C507 C508 1.502 . S
C507 C509 1.561 . S
C507 C510 1.526 . S
C508 H492 0.959 . S
C508 H493 0.959 . S
C508 H494 0.961 . S
C508 C507 1.502 . S
C509 H495 0.960 . S
C509 H496 0.961 . S
C509 H497 0.959 . S
C509 C507 1.561 . S
C510 C507 1.526 . S
C510 C511 1.396 . S
C510 C515 1.390 . S
C511 C505 1.465 . S
C511 C510 1.396 . S
C511 C512 1.399 . S
C512 H498 0.929 . S
C512 C511 1.399 . S
C512 C513 1.385 . S
C513 H499 0.931 . S
C513 C512 1.385 . S
C513 C514 1.389 . S
C514 C513 1.389 . S
C514 C515 1.387 . S
C515 H500 0.930 . S
C515 C510 1.390 . S
C515 C514 1.387 . S
H516 C528 0.930 . S
H517 C530 0.930 . S
H518 C531 0.930 . S
H519 C535 0.959 . S
H520 C535 0.959 . S
H521 C535 0.961 . S
H522 C536 0.960 . S
H523 C536 0.961 . S
H524 C536 0.959 . S
H525 C539 0.929 . S
H526 C540 0.931 . S
H527 C542 0.930 . S
C528 H516 0.930 . S
C528 C529 1.399 . S
C528 C533 1.399 . S
C529 C528 1.399 . S
C529 C530 1.376 . S
C530 H517 0.930 . S
C530 C529 1.376 . S
C530 C531 1.388 . S
C531 H518 0.930 . S
C531 C530 1.388 . S
C531 C532 1.390 . S
C532 C531 1.390 . S
C532 C533 1.394 . S
C532 C538 1.465 . S
C533 C528 1.399 . S
C533 C532 1.394 . S
C533 C534 1.516 . S
C534 C533 1.516 . S
C534 C535 1.502 1_655 S
C534 C536 1.561 . S
C534 C537 1.526 . S
C535 H519 0.959 . S
C535 H520 0.959 . S
C535 H521 0.961 . S
C535 C534 1.502 1_455 S
C536 H522 0.960 . S
C536 H523 0.961 . S
C536 H524 0.959 . S
C536 C534 1.561 . S
C537 C534 1.526 . S
C537 C538 1.396 . S
C537 C542 1.390 . S
C538 C532 1.465 . S
C538 C537 1.396 . S
C538 C539 1.399 . S
C539 H525 0.929 . S
C539 C538 1.399 . S
C539 C540 1.385 . S
C540 H526 0.931 . S
C540 C539 1.385 . S
C540 C541 1.389 . S
C541 C540 1.389 . S
C541 C542 1.387 . S
C542 H527 0.930 . S
C542 C537 1.390 . S
C542 C541 1.387 . S
H543 C555 0.930 . S
H544 C557 0.930 . S
H545 C558 0.930 . S
H546 C562 0.959 . S
H547 C562 0.959 . S
H548 C562 0.961 1_545 S
H549 C563 0.960 . S
H550 C563 0.961 . S
H551 C563 0.959 . S
H552 C566 0.929 . S
H553 C567 0.931 . S
H554 C569 0.930 . S
C555 H543 0.930 . S
C555 C556 1.399 . S
C555 C560 1.399 . S
C556 C555 1.399 . S
C556 C557 1.376 . S
C557 H544 0.930 . S
C557 C556 1.376 . S
C557 C558 1.388 . S
C558 H545 0.930 . S
C558 C557 1.388 . S
C558 C559 1.390 . S
C559 C558 1.390 . S
C559 C560 1.394 . S
C559 C565 1.465 . S
C560 C555 1.399 . S
C560 C559 1.394 . S
C560 C561 1.516 . S
C561 C560 1.516 . S
C561 C562 1.502 . S
C561 C563 1.561 . S
C561 C564 1.526 . S
C562 H546 0.959 . S
C562 H547 0.959 . S
C562 H548 0.961 1_565 S
C562 C561 1.502 . S
C563 H549 0.960 . S
C563 H550 0.961 . S
C563 H551 0.959 . S
C563 C561 1.561 . S
C564 C561 1.526 . S
C564 C565 1.396 . S
C564 C569 1.390 . S
C565 C559 1.465 . S
C565 C564 1.396 . S
C565 C566 1.399 . S
C566 H552 0.929 . S
C566 C565 1.399 . S
C566 C567 1.385 . S
C567 H553 0.931 . S
C567 C566 1.385 . S
C567 C568 1.389 . S
C568 C567 1.389 . S
C568 C569 1.387 . S
C569 H554 0.930 . S
C569 C564 1.390 . S
C569 C568 1.387 . S
H570 C582 0.930 . S
H571 C584 0.930 . S
H572 C585 0.930 1_455 S
H573 C589 0.959 . S
H574 C589 0.959 . S
H575 C589 0.961 . S
H576 C590 0.960 . S
H577 C590 0.961 . S
H578 C590 0.959 . S
H579 C593 0.929 . S
H580 C594 0.931 . S
H581 C596 0.930 . S
C582 H570 0.930 . S
C582 C583 1.399 . S
C582 C587 1.399 . S
C583 C582 1.399 . S
C583 C584 1.376 . S
C584 H571 0.930 . S
C584 C583 1.376 . S
C584 C585 1.388 . S
C585 H572 0.930 1_655 S
C585 C584 1.388 . S
C585 C586 1.390 . S
C586 C585 1.390 . S
C586 C587 1.394 . S
C586 C592 1.465 . S
C587 C582 1.399 . S
C587 C586 1.394 . S
C587 C588 1.516 . S
C588 C587 1.516 . S
C588 C589 1.502 . S
C588 C590 1.561 . S
C588 C591 1.526 . S
C589 H573 0.959 . S
C589 H574 0.959 . S
C589 H575 0.961 . S
C589 C588 1.502 . S
C590 H576 0.960 . S
C590 H577 0.961 . S
C590 H578 0.959 . S
C590 C588 1.561 . S
C591 C588 1.526 . S
C591 C592 1.396 . S
C591 C596 1.390 . S
C592 C586 1.465 . S
C592 C591 1.396 . S
C592 C593 1.399 1_655 S
C593 H579 0.929 . S
C593 C592 1.399 1_455 S
C593 C594 1.385 . S
C594 H580 0.931 . S
C594 C593 1.385 . S
C594 C595 1.389 1_455 S
C595 C594 1.389 1_655 S
C595 C596 1.387 . S
C596 H581 0.930 . S
C596 C591 1.390 . S
C596 C595 1.387 . S
H597 C609 0.930 . S
H598 C611 0.930 . S
H599 C612 0.930 . S
H600 C616 0.959 1_565 S
H601 C616 0.959 . S
H602 C616 0.961 . S
H603 C617 0.960 . S
H604 C617 0.961 . S
H605 C617 0.959 . S
H606 C620 0.929 . S
H607 C621 0.931 . S
H608 C623 0.930 1_545 S
C609 H597 0.930 . S
C609 C610 1.399 . S
C609 C614 1.399 . S
C610 C609 1.399 . S
C610 C611 1.376 . S
C611 H598 0.930 . S
C611 C610 1.376 . S
C611 C612 1.388 . S
C612 H599 0.930 . S
C612 C611 1.388 . S
C612 C613 1.390 . S
C613 C612 1.390 . S
C613 C614 1.394 . S
C613 C619 1.465 . S
C614 C609 1.399 . S
C614 C613 1.394 . S
C614 C615 1.516 . S
C615 C614 1.516 . S
C615 C616 1.502 1_565 S
C615 C617 1.561 1_565 S
C615 C618 1.526 . S
C616 H600 0.959 1_545 S
C616 H601 0.959 . S
C616 H602 0.961 . S
C616 C615 1.502 1_545 S
C617 H603 0.960 . S
C617 H604 0.961 . S
C617 H605 0.959 . S
C617 C615 1.561 1_545 S
C618 C615 1.526 . S
C618 C619 1.396 . S
C618 C623 1.390 . S
C619 C613 1.465 . S
C619 C618 1.396 . S
C619 C620 1.399 . S
C620 H606 0.929 . S
C620 C619 1.399 . S
C620 C621 1.385 . S
C621 H607 0.931 . S
C621 C620 1.385 . S
C621 C622 1.389 . S
C622 C621 1.389 . S
C622 C623 1.387 . S
C623 H608 0.930 1_565 S
C623 C618 1.390 . S
C623 C622 1.387 . S
C151 C85 0.798 . S
C163 C16 0.819 . S
C178 C108 0.829 . S
C190 C39 0.796 . S
C205 C131 0.829 . S
C217 C62 0.796 . S
C232 C18 1.910 . S
C244 C67 1.937 . S
C259 C41 1.912 . S
C271 C90 1.937 . S
C286 C64 1.917 . S
C298 C113 1.938 . S
C313 C87 1.914 . S
C325 C136 1.912 . S
C340 C110 1.898 . S
C352 C21 1.920 . S
C367 C133 1.931 . S
C379 C44 1.933 . S
C394 C17 0.939 . S
C406 C86 0.955 . S
C421 C40 0.936 . S
C433 C109 0.957 . S
C448 C63 0.939 . S
C460 C132 0.955 . S
C475 C20 0.560 . S
C487 C42 0.608 . S
C502 C43 0.759 . S
C514 C65 0.793 . S
C529 C66 0.792 . S
C541 C88 0.679 . S
C556 C89 0.812 . S
C568 C111 0.734 . S
C583 C112 0.698 . S
C595 C134 0.582 1_655 S
C610 C135 0.623 . S
C622 C19 0.731 . S
