# Generated by pormake.
# Topology yfm, (5)-cn, num edge types: 1
# Building blocks:
#     Node 0, Type 0, BuildingBlock: XOMCOT_clean_sbu_0, # of connection points: 5
#     Node 1, Type 0, BuildingBlock: XOMCOT_clean_sbu_0, # of connection points: 5
#     Node 2, Type 0, BuildingBlock: XOMCOT_clean_sbu_0, # of connection points: 5
#     Node 3, Type 0, BuildingBlock: XOMCOT_clean_sbu_0, # of connection points: 5
#     Node 4, Type 0, BuildingBlock: XOMCOT_clean_sbu_0, # of connection points: 5
#     Node 5, Type 0, BuildingBlock: XOMCOT_clean_sbu_0, # of connection points: 5
#     Node 6, Type 0, BuildingBlock: XOMCOT_clean_sbu_0, # of connection points: 5
#     Node 7, Type 0, BuildingBlock: XOMCOT_clean_sbu_0, # of connection points: 5
#     Node 8, Type 0, BuildingBlock: XOMCOT_clean_sbu_0, # of connection points: 5
#     Node 9, Type 0, BuildingBlock: XOMCOT_clean_sbu_0, # of connection points: 5
#     Node 10, Type 0, BuildingBlock: XOMCOT_clean_sbu_0, # of connection points: 5
#     Node 11, Type 0, BuildingBlock: XOMCOT_clean_sbu_0, # of connection points: 5
#     Node 12, Type 0, BuildingBlock: XOMCOT_clean_sbu_0, # of connection points: 5
#     Node 13, Type 0, BuildingBlock: XOMCOT_clean_sbu_0, # of connection points: 5
#     Node 14, Type 0, BuildingBlock: XOMCOT_clean_sbu_0, # of connection points: 5
#     Node 15, Type 0, BuildingBlock: XOMCOT_clean_sbu_0, # of connection points: 5
#     Node 16, Type 0, BuildingBlock: XOMCOT_clean_sbu_0, # of connection points: 5
#     Node 17, Type 0, BuildingBlock: XOMCOT_clean_sbu_0, # of connection points: 5
#     Node 18, Type 0, BuildingBlock: XOMCOT_clean_sbu_0, # of connection points: 5
#     Node 19, Type 0, BuildingBlock: XOMCOT_clean_sbu_0, # of connection points: 5
#     Node 20, Type 0, BuildingBlock: XOMCOT_clean_sbu_0, # of connection points: 5
#     Node 21, Type 0, BuildingBlock: XOMCOT_clean_sbu_0, # of connection points: 5
#     Node 22, Type 0, BuildingBlock: XOMCOT_clean_sbu_0, # of connection points: 5
#     Node 23, Type 0, BuildingBlock: XOMCOT_clean_sbu_0, # of connection points: 5
#     Node 24, Type 0, BuildingBlock: XOMCOT_clean_sbu_0, # of connection points: 5
#     Node 25, Type 0, BuildingBlock: XOMCOT_clean_sbu_0, # of connection points: 5
#     Node 26, Type 0, BuildingBlock: XOMCOT_clean_sbu_0, # of connection points: 5
#     Node 27, Type 0, BuildingBlock: XOMCOT_clean_sbu_0, # of connection points: 5
#     Node 28, Type 0, BuildingBlock: XOMCOT_clean_sbu_0, # of connection points: 5
#     Node 29, Type 0, BuildingBlock: XOMCOT_clean_sbu_0, # of connection points: 5
#     Node 30, Type 0, BuildingBlock: XOMCOT_clean_sbu_0, # of connection points: 5
#     Node 31, Type 0, BuildingBlock: XOMCOT_clean_sbu_0, # of connection points: 5
#     Edge 32, Type (0, 0), None
#     Edge 33, Type (0, 0), None
#     Edge 34, Type (0, 0), None
#     Edge 35, Type (0, 0), None
#     Edge 36, Type (0, 0), None
#     Edge 37, Type (0, 0), None
#     Edge 38, Type (0, 0), None
#     Edge 39, Type (0, 0), None
#     Edge 40, Type (0, 0), None
#     Edge 41, Type (0, 0), None
#     Edge 42, Type (0, 0), None
#     Edge 43, Type (0, 0), None
#     Edge 44, Type (0, 0), None
#     Edge 45, Type (0, 0), None
#     Edge 46, Type (0, 0), None
#     Edge 47, Type (0, 0), None
#     Edge 48, Type (0, 0), None
#     Edge 49, Type (0, 0), None
#     Edge 50, Type (0, 0), None
#     Edge 51, Type (0, 0), None
#     Edge 52, Type (0, 0), None
#     Edge 53, Type (0, 0), None
#     Edge 54, Type (0, 0), None
#     Edge 55, Type (0, 0), None
#     Edge 56, Type (0, 0), None
#     Edge 57, Type (0, 0), None
#     Edge 58, Type (0, 0), None
#     Edge 59, Type (0, 0), None
#     Edge 60, Type (0, 0), None
#     Edge 61, Type (0, 0), None
#     Edge 62, Type (0, 0), None
#     Edge 63, Type (0, 0), None
#     Edge 64, Type (0, 0), None
#     Edge 65, Type (0, 0), None
#     Edge 66, Type (0, 0), None
#     Edge 67, Type (0, 0), None
#     Edge 68, Type (0, 0), None
#     Edge 69, Type (0, 0), None
#     Edge 70, Type (0, 0), None
#     Edge 71, Type (0, 0), None
#     Edge 72, Type (0, 0), None
#     Edge 73, Type (0, 0), None
#     Edge 74, Type (0, 0), None
#     Edge 75, Type (0, 0), None
#     Edge 76, Type (0, 0), None
#     Edge 77, Type (0, 0), None
#     Edge 78, Type (0, 0), None
#     Edge 79, Type (0, 0), None
#     Edge 80, Type (0, 0), None
#     Edge 81, Type (0, 0), None
#     Edge 82, Type (0, 0), None
#     Edge 83, Type (0, 0), None
#     Edge 84, Type (0, 0), None
#     Edge 85, Type (0, 0), None
#     Edge 86, Type (0, 0), None
#     Edge 87, Type (0, 0), None
#     Edge 88, Type (0, 0), None
#     Edge 89, Type (0, 0), None
#     Edge 90, Type (0, 0), None
#     Edge 91, Type (0, 0), None
#     Edge 92, Type (0, 0), None
#     Edge 93, Type (0, 0), None
#     Edge 94, Type (0, 0), None
#     Edge 95, Type (0, 0), None
#     Edge 96, Type (0, 0), None
#     Edge 97, Type (0, 0), None
#     Edge 98, Type (0, 0), None
#     Edge 99, Type (0, 0), None
#     Edge 100, Type (0, 0), None
#     Edge 101, Type (0, 0), None
#     Edge 102, Type (0, 0), None
#     Edge 103, Type (0, 0), None
#     Edge 104, Type (0, 0), None
#     Edge 105, Type (0, 0), None
#     Edge 106, Type (0, 0), None
#     Edge 107, Type (0, 0), None
#     Edge 108, Type (0, 0), None
#     Edge 109, Type (0, 0), None
#     Edge 110, Type (0, 0), None
#     Edge 111, Type (0, 0), None
# Relax obj value: 0.403
# Max RMSD: 0.240
# Mean RMSD: 0.240
data_MOF--net-yfm--node1-XOMCOT_clean_sbu_0--edge1-none
_symmetry_space_group_name_H-M    P1
_symmetry_Int_Tables_number       1
_symmetry_cell_setting            triclinic
loop_
_symmetry_equiv_pos_as_xyz
'x, y, z'
_cell_length_a     36.057602
_cell_length_b     36.061384
_cell_length_c     24.618858
_cell_angle_alpha  90.124122
_cell_angle_beta   90.009785
_cell_angle_gamma 90.075465
loop_
_atom_site_label
_atom_site_type_symbol
_atom_site_fract_x
_atom_site_fract_y
_atom_site_fract_z
_atom_type_partial_charge
Co0 Co 0.24452 0.1043 0.08424 0.0
C1 C 0.28149 0.08211 0.98148 0.0
C2 C 0.23539 0.04652 0.99972 0.0
C3 C 0.25339 0.03302 0.95424 0.0
N4 N 0.25314 0.07718 1.01702 0.0
N5 N 0.28227 0.05555 0.94251 0.0
H6 H 0.30246 0.10334 0.98587 0.0
H7 H 0.21218 0.03374 1.0203 0.0
C8 C 0.19138 0.05755 0.15315 0.0
O9 O 0.16865 0.08587 0.14913 0.0
N10 N 0.23671 0.13198 0.15105 0.0
C11 C 0.21656 0.16337 0.15716 0.0
C12 C 0.21953 0.17564 0.20998 0.0
C13 C 0.25066 0.12493 0.20095 0.0
N14 N 0.24079 0.15127 0.23674 0.0
C15 C 0.28709 0.16659 0.04485 0.0
C16 C 0.225 0.2069 1.01581 0.0
C17 C 0.25919 0.22549 1.02132 0.0
C18 C 0.29092 0.20378 0.03077 0.0
C19 C 0.22278 0.16892 0.02701 0.0
N20 N 0.25294 0.15039 0.04608 0.0
H21 H 0.3115 0.15166 0.05738 0.0
H22 H 0.19599 0.15537 0.02711 0.0
H23 H 0.20014 0.17642 0.12606 0.0
H24 H 0.2677 0.1014 0.21139 0.0
O25 O 0.29835 0.09655 0.10574 0.0
O26 O 0.25599 0.05745 0.12268 0.0
O27 O 0.2226 0.05801 0.12595 0.0
C28 C 0.29055 0.06526 0.12568 0.0
H29 H 0.24684 0.00743 0.93359 0.0
H30 H 0.20642 0.19979 0.22771 0.0
H31 H 0.19953 0.22173 1.00797 0.0
H32 H 0.31838 0.21589 0.03171 0.0
Co33 Co 0.13669 0.99618 0.33503 0.0
C34 C 0.15927 0.03125 0.23137 0.0
C35 C 0.19455 0.98531 0.2511 0.0
C36 C 0.20803 0.0024 0.20489 0.0
N37 N 0.16411 0.00357 0.2679 0.0
N38 N 0.18569 0.03119 0.19229 0.0
H39 H 0.13818 0.05238 0.23507 0.0
H40 H 0.20713 0.96231 0.27235 0.0
C41 C 0.18342 0.94321 0.40457 0.0
O42 O 0.15491 0.92059 0.40111 0.0
N43 N 0.10858 0.98976 0.40184 0.0
C44 C 0.07436 0.97467 0.4076 0.0
C45 C 0.06287 0.97863 0.46062 0.0
C46 C 0.11787 0.00158 0.45216 0.0
N47 N 0.09039 0.99541 0.48778 0.0
C48 C 0.07469 0.03847 0.29444 0.0
C49 C 0.03471 0.97621 0.26434 0.0
C50 C 0.01598 0.01025 0.27012 0.0
C51 C 0.03756 0.04211 0.27985 0.0
C52 C 0.07265 0.97417 0.2761 0.0
N53 N 0.09092 0.00438 0.29587 0.0
H54 H 0.08948 0.06292 0.30738 0.0
H55 H 0.08624 0.94743 0.27643 0.0
H56 H 0.05847 0.96134 0.37612 0.0
H57 H 0.14379 0.01468 0.46302 0.0
O58 O 0.14492 0.0503 0.35538 0.0
O59 O 0.18343 0.00784 0.37388 0.0
O60 O 0.18282 0.97445 0.37752 0.0
C61 C 0.17593 0.04248 0.37626 0.0
H62 H 0.2334 0.99524 0.18416 0.0
H63 H 0.03696 0.96928 0.47812 0.0
H64 H 0.01994 0.95068 0.25618 0.0
H65 H 0.02533 0.06949 0.28089 0.0
Co66 Co 0.24788 0.88724 0.58344 0.0
C67 C 0.21119 0.91033 0.48109 0.0
C68 C 0.25776 0.94527 0.49958 0.0
C69 C 0.23973 0.95923 0.45444 0.0
N70 N 0.23972 0.91471 0.5165 0.0
N71 N 0.21052 0.93713 0.44262 0.0
H72 H 0.18999 0.8893 0.48529 0.0
H73 H 0.28119 0.95768 0.52021 0.0
C74 C 0.30114 0.93379 0.65342 0.0
O75 O 0.3237 0.90529 0.64985 0.0
N76 N 0.25491 0.85917 0.6501 0.0
C77 C 0.27208 0.82601 0.65585 0.0
C78 C 0.26817 0.81396 0.70862 0.0
C79 C 0.24191 0.86737 0.7002 0.0
N80 N 0.24931 0.84014 0.73565 0.0
C81 C 0.2052 0.82513 0.54345 0.0
C82 C 0.26731 0.78492 0.51399 0.0
C83 C 0.23327 0.7662 0.52032 0.0
C84 C 0.20146 0.78782 0.52975 0.0
C85 C 0.26943 0.82298 0.52493 0.0
N86 N 0.23932 0.84142 0.54443 0.0
H87 H 0.18081 0.84002 0.55622 0.0
H88 H 0.2962 0.83658 0.52492 0.0
H89 H 0.28695 0.81136 0.62456 0.0
H90 H 0.22722 0.89238 0.71107 0.0
O91 O 0.19401 0.8953 0.60453 0.0
O92 O 0.23665 0.93397 0.62242 0.0
O93 O 0.26999 0.93334 0.62599 0.0
C94 C 0.20203 0.9264 0.6251 0.0
H95 H 0.24656 0.98479 0.43399 0.0
H96 H 0.27906 0.7887 0.72611 0.0
H97 H 0.29281 0.77013 0.50605 0.0
H98 H 0.17408 0.77555 0.53122 0.0
Co99 Co 0.3562 -0.00302 0.83432 0.0
C100 C 0.33358 0.96095 0.73104 0.0
C101 C 0.29844 0.00719 0.75008 0.0
C102 C 0.28479 0.98956 0.70431 0.0
N103 N 0.32892 0.98911 0.76704 0.0
N104 N 0.30701 0.96056 0.69213 0.0
H105 H 0.35463 0.93982 0.73507 0.0
H106 H 0.2859 0.03039 0.77104 0.0
C107 C 0.3093 0.04989 0.90422 0.0
O108 O 0.33773 0.07263 0.90119 0.0
N109 N 0.38411 0.00373 0.90132 0.0
C110 C 0.41796 0.01962 0.90733 0.0
C111 C 0.42958 0.01564 0.96029 0.0
C112 C 0.37514 0.99144 0.95146 0.0
N113 N 0.40249 -0.00195 0.9872 0.0
C114 C 0.41841 0.95463 0.79432 0.0
C115 C 0.45836 0.01687 0.76446 0.0
C116 C 0.47715 0.98289 0.77042 0.0
C117 C 0.45562 0.95102 0.78012 0.0
C118 C 0.42037 0.01886 0.77591 0.0
N119 N 0.40209 0.98868 0.79551 0.0
H120 H 0.40363 0.93019 0.80718 0.0
H121 H 0.40673 0.04557 0.77608 0.0
H122 H 0.43348 0.0335 0.87604 0.0
H123 H 0.34955 0.97767 0.96209 0.0
O124 O 0.34802 0.94299 0.85475 0.0
O125 O 0.30934 0.98546 0.87279 0.0
O126 O 0.30997 0.01879 0.87661 0.0
C127 C 0.31689 0.95085 0.87525 0.0
H128 H 0.25932 0.99647 0.6837 0.0
H129 H 0.45527 0.02552 0.97794 0.0
H130 H 0.47307 0.04241 0.75637 0.0
H131 H 0.46791 0.92368 0.78133 0.0
Co132 Co 0.24603 0.88629 0.94383 0.0
C133 C 0.28251 0.90851 0.04719 0.0
C134 C 0.23629 0.94376 0.02848 0.0
C135 C 0.25364 0.95708 0.07462 0.0
N136 N 0.25455 0.91348 1.01104 0.0
N137 N 0.28262 0.93483 0.08666 0.0
H138 H 0.30345 0.8872 0.04302 0.0
H139 H 0.21302 0.95628 1.00779 0.0
C140 C 0.19222 0.93294 0.87543 0.0
O141 O 0.16955 0.90448 0.87885 0.0
N142 N 0.23799 0.8586 0.87728 0.0
C143 C 0.2227 0.82443 0.8729 0.0
C144 C 0.22511 0.81274 0.81964 0.0
C145 C 0.24836 0.86778 0.82637 0.0
N146 N 0.24093 0.84027 0.79123 0.0
C147 C 0.28492 0.81904 0.96415 0.0
C148 C 0.2338 0.79057 0.03677 0.0
C149 C 0.2614 0.76689 1.0158 0.0
C150 C 0.28791 0.78235 0.9805 0.0
C151 C 0.23145 0.8273 1.01846 0.0
N152 N 0.25609 0.84043 0.98124 0.0
H153 H 0.30389 0.82901 0.9336 0.0
H154 H 0.20867 0.84466 0.03154 0.0
H155 H 0.21129 0.80866 0.90626 0.0
H156 H 0.26166 0.89345 0.81491 0.0
O157 O 0.29976 0.89461 0.92216 0.0
O158 O 0.25708 0.93318 0.90512 0.0
O159 O 0.22347 0.93244 0.90263 0.0
C160 C 0.29163 0.92554 0.90151 0.0
H161 H 0.24647 0.98231 0.09576 0.0
H162 H 0.21597 0.78645 0.80303 0.0
H163 H 0.21308 0.78052 0.06492 0.0
H164 H 0.30926 0.76578 0.9615 0.0
Co165 Co 0.35533 0.995 0.19468 0.0
C166 C 0.33314 0.03203 0.29752 0.0
C167 C 0.29727 0.98621 0.2786 0.0
C168 C 0.28383 0.0041 0.32421 0.0
N169 N 0.32802 0.00387 0.26162 0.0
N170 N 0.30649 0.03283 0.33637 0.0
H171 H 0.3548 0.05268 0.2935 0.0
H172 H 0.28446 0.96303 0.25785 0.0
C173 C 0.30912 0.94072 0.12572 0.0
O174 O 0.33777 0.91837 0.12923 0.0
N175 N 0.38316 0.98674 0.12847 0.0
C176 C 0.41722 0.97126 0.12454 0.0
C177 C 0.42922 0.97363 0.07148 0.0
C178 C 0.37433 -0.00279 0.07749 0.0
N179 N 0.40197 0.98963 0.04273 0.0
C180 C 0.42239 0.03446 0.21497 0.0
C181 C 0.4513 0.98384 0.2878 0.0
C182 C 0.4748 0.01156 0.26666 0.0
C183 C 0.4591 0.0378 0.23125 0.0
C184 C 0.41451 0.98115 0.26958 0.0
N185 N 0.40116 0.00555 0.23225 0.0
H186 H 0.4123 0.05322 0.18429 0.0
H187 H 0.3973 0.95829 0.28279 0.0
H188 H 0.43272 0.95978 0.15811 0.0
H189 H 0.34884 0.01071 0.06575 0.0
O190 O 0.34686 0.04853 0.17258 0.0
O191 O 0.3084 0.00557 0.15564 0.0
O192 O 0.30931 0.97194 0.15315 0.0
C193 C 0.31593 0.04016 0.15199 0.0
H194 H 0.25828 -0.00252 0.34488 0.0
H195 H 0.45552 0.96435 0.05523 0.0
H196 H 0.46153 0.9633 0.31601 0.0
H197 H 0.4755 0.0592 0.21208 0.0
Co198 Co 0.24757 0.10626 0.44527 0.0
C199 C 0.21175 0.08286 0.54822 0.0
C200 C 0.25771 0.04759 0.52839 0.0
C201 C 0.2404 0.03402 0.57443 0.0
N202 N 0.23959 0.07813 0.51175 0.0
N203 N 0.21163 0.05641 0.58718 0.0
H204 H 0.19064 0.10394 0.54467 0.0
H205 H 0.28082 0.03508 0.50723 0.0
C206 C 0.30079 0.05961 0.3751 0.0
O207 O 0.32375 0.08782 0.37913 0.0
N208 N 0.25411 0.13511 0.37888 0.0
C209 C 0.26243 0.17167 0.37439 0.0
C210 C 0.25921 0.1824 0.321 0.0
C211 C 0.24678 0.12406 0.32739 0.0
N212 N 0.24973 0.15229 0.29217 0.0
C213 C 0.20543 0.16727 0.48985 0.0
C214 C 0.2676 0.20615 0.52329 0.0
C215 C 0.23323 0.22467 0.5213 0.0
C216 C 0.20153 0.20334 0.50932 0.0
C217 C 0.26993 0.16905 0.50673 0.0
N218 N 0.23961 0.15143 0.48606 0.0
H219 H 0.18099 0.1529 0.47586 0.0
H220 H 0.29675 0.15574 0.50437 0.0
H221 H 0.26936 0.19019 0.40717 0.0
H222 H 0.23798 0.09651 0.3157 0.0
O223 O 0.19354 0.09859 0.42419 0.0
O224 O 0.23595 0.06008 0.40504 0.0
O225 O 0.2694 0.06041 0.40194 0.0
C226 C 0.20141 0.0679 0.40221 0.0
H227 H 0.24745 0.00859 0.59498 0.0
H228 H 0.26299 0.21 0.3047 0.0
H229 H 0.29308 0.22064 0.53268 0.0
H230 H 0.17396 0.21505 0.51088 0.0
Co231 Co 0.13811 -0.00279 0.69495 0.0
C232 C 0.1601 0.96016 0.79758 0.0
C233 C 0.19599 0.00599 0.77893 0.0
C234 C 0.20925 0.9883 0.82466 0.0
N235 N 0.16537 0.98817 0.7617 0.0
N236 N 0.18659 0.95958 0.83667 0.0
H237 H 0.13845 0.93951 0.79345 0.0
H238 H 0.20879 0.02914 0.75829 0.0
C239 C 0.18514 0.05082 0.62632 0.0
O240 O 0.15685 0.07362 0.63023 0.0
N241 N 0.11026 0.00588 0.62902 0.0
C242 C 0.07647 0.02197 0.62549 0.0
C243 C 0.06427 0.01994 0.57249 0.0
C244 C 0.11876 0.99538 0.5779 0.0
N245 N 0.09115 0.00352 0.54343 0.0
C246 C 0.07079 0.95832 0.71514 0.0
C247 C 0.04217 0.00919 0.78813 0.0
C248 C 0.01854 0.98153 0.76695 0.0
C249 C 0.03409 0.95518 0.73145 0.0
C250 C 0.07898 0.01165 0.76994 0.0
N251 N 0.0922 0.98711 0.73255 0.0
H252 H 0.08072 0.93948 0.68437 0.0
H253 H 0.09631 0.03444 0.78323 0.0
H254 H 0.0613 0.03369 0.65926 0.0
H255 H 0.144 0.9815 0.56586 0.0
O256 O 0.14593 0.94354 0.67243 0.0
O257 O 0.18479 0.98609 0.65572 0.0
O258 O 0.18449 0.01959 0.65345 0.0
C259 C 0.17689 0.9516 0.65173 0.0
H260 H 0.23475 0.99501 0.84541 0.0
H261 H 0.03812 0.02977 0.55649 0.0
H262 H 0.03202 0.02985 0.81636 0.0
H263 H 0.01758 0.93383 0.71219 0.0
Co264 Co 0.74872 0.88888 0.95968 0.0
C265 C 0.71175 0.91107 0.06244 0.0
C266 C 0.75785 0.94666 0.0442 0.0
C267 C 0.73985 0.96016 0.08968 0.0
N268 N 0.7401 0.91599 0.0269 0.0
N269 N 0.71097 0.93763 0.10141 0.0
H270 H 0.69077 0.88984 0.05805 0.0
H271 H 0.78106 0.95943 0.02362 0.0
C272 C 0.80186 0.93562 0.89078 0.0
O273 O 0.82459 0.9073 0.89479 0.0
N274 N 0.75652 0.86119 0.89287 0.0
C275 C 0.77668 0.82981 0.88676 0.0
C276 C 0.77371 0.81753 0.83394 0.0
C277 C 0.74258 0.86825 0.84298 0.0
N278 N 0.75245 0.84191 0.80718 0.0
C279 C 0.70614 0.82659 0.99907 0.0
C280 C 0.76823 0.78628 0.02811 0.0
C281 C 0.73405 0.76769 0.0226 0.0
C282 C 0.70231 0.78939 1.01315 0.0
C283 C 0.77046 0.82426 1.01691 0.0
N284 N 0.7403 0.84279 0.99784 0.0
H285 H 0.68174 0.84152 0.98654 0.0
H286 H 0.79725 0.8378 1.01681 0.0
H287 H 0.7931 0.81676 0.91786 0.0
H288 H 0.72554 0.89178 0.83253 0.0
O289 O 0.69489 0.89663 0.93818 0.0
O290 O 0.73725 0.93573 0.92125 0.0
O291 O 0.77064 0.93517 0.91797 0.0
C292 C 0.70269 0.92792 0.91824 0.0
H293 H 0.7464 0.98575 0.11034 0.0
H294 H 0.78682 0.79339 0.81621 0.0
H295 H 0.79371 0.77144 0.03595 0.0
H296 H 0.67485 0.77728 1.0122 0.0
Co297 Co 0.85655 -0.003 0.70889 0.0
C298 C 0.83397 0.96192 0.81255 0.0
C299 C 0.79869 0.00787 0.79282 0.0
C300 C 0.78521 0.99078 0.83903 0.0
N301 N 0.82913 0.9896 0.77602 0.0
N302 N 0.80755 0.96199 0.85163 0.0
H303 H 0.85506 0.9408 0.80885 0.0
H304 H 0.78611 0.03086 0.77158 0.0
C305 C 0.80982 0.04996 0.63935 0.0
O306 O 0.83834 0.07258 0.64281 0.0
N307 N 0.88465 0.00341 0.64208 0.0
C308 C 0.91887 0.01852 0.63632 0.0
C309 C 0.93037 0.01455 0.5833 0.0
C310 C 0.87538 0.99159 0.59176 0.0
N311 N 0.90285 -0.00224 0.55614 0.0
C312 C 0.91855 0.95471 0.74948 0.0
C313 C 0.95853 0.01697 0.77958 0.0
C314 C 0.97725 0.98292 0.77378 0.0
C315 C 0.95568 0.95106 0.76406 0.0
C316 C 0.92059 0.01901 0.76782 0.0
N317 N 0.90232 0.98879 0.74805 0.0
H318 H 0.90375 0.93025 0.73655 0.0
H319 H 0.90701 0.04574 0.76749 0.0
H320 H 0.93476 0.03185 0.6678 0.0
H321 H 0.84946 0.97848 0.58091 0.0
O322 O 0.84832 0.94288 0.68855 0.0
O323 O 0.80981 0.98534 0.67004 0.0
O324 O 0.81042 0.01872 0.66641 0.0
C325 C 0.81731 0.9507 0.66766 0.0
H326 H 0.75984 -0.00207 0.85976 0.0
H327 H 0.95627 0.02391 0.5658 0.0
H328 H 0.9733 0.0425 0.78773 0.0
H329 H 0.96791 0.92368 0.76302 0.0
Co330 Co 0.74536 0.10594 0.46048 0.0
C331 C 0.78206 0.08285 0.56284 0.0
C332 C 0.73549 0.0479 0.54434 0.0
C333 C 0.75351 0.03394 0.58949 0.0
N334 N 0.75352 0.07846 0.52742 0.0
N335 N 0.78273 0.05605 0.6013 0.0
H336 H 0.80325 0.10388 0.55863 0.0
H337 H 0.71206 0.0355 0.52371 0.0
C338 C 0.6921 0.05939 0.3905 0.0
O339 O 0.66954 0.08789 0.39407 0.0
N340 N 0.73833 0.13401 0.39382 0.0
C341 C 0.72116 0.16717 0.38807 0.0
C342 C 0.72507 0.17922 0.3353 0.0
C343 C 0.75133 0.1258 0.34372 0.0
N344 N 0.74394 0.15304 0.30828 0.0
C345 C 0.78805 0.16804 0.50047 0.0
C346 C 0.72593 0.20826 0.52993 0.0
C347 C 0.75997 0.22698 0.5236 0.0
C348 C 0.79178 0.20535 0.51417 0.0
C349 C 0.72381 0.1702 0.51899 0.0
N350 N 0.75393 0.15176 0.49949 0.0
H351 H 0.81244 0.15316 0.4877 0.0
H352 H 0.69705 0.1566 0.519 0.0
H353 H 0.70629 0.18181 0.41936 0.0
H354 H 0.76602 0.10079 0.33285 0.0
O355 O 0.79924 0.09788 0.43939 0.0
O356 O 0.75659 0.05921 0.42151 0.0
O357 O 0.72325 0.05984 0.41793 0.0
C358 C 0.79121 0.06678 0.41882 0.0
H359 H 0.74668 0.00839 0.60993 0.0
H360 H 0.71418 0.20447 0.31781 0.0
H361 H 0.70043 0.22305 0.53787 0.0
H362 H 0.81916 0.21763 0.5127 0.0
Co363 Co 0.63704 0.9962 0.2096 0.0
C364 C 0.65966 0.03223 0.31288 0.0
C365 C 0.6948 0.98598 0.29384 0.0
C366 C 0.70845 0.00362 0.33961 0.0
N367 N 0.66432 0.00407 0.27688 0.0
N368 N 0.68623 0.03262 0.35179 0.0
H369 H 0.63861 0.05336 0.30885 0.0
H370 H 0.70734 0.96279 0.27288 0.0
C371 C 0.68394 0.94329 0.1397 0.0
O372 O 0.6555 0.92055 0.14273 0.0
N373 N 0.60913 0.98945 0.1426 0.0
C374 C 0.57528 0.97356 0.13659 0.0
C375 C 0.56366 0.97754 0.08363 0.0
C376 C 0.6181 0.00175 0.09246 0.0
N377 N 0.59075 0.99513 0.05673 0.0
C378 C 0.57483 0.03856 0.2496 0.0
C379 C 0.53488 0.97631 0.27945 0.0
C380 C 0.51609 0.01029 0.27349 0.0
C381 C 0.53762 0.04216 0.2638 0.0
C382 C 0.57287 0.97432 0.26801 0.0
N383 N 0.59116 0.0045 0.24841 0.0
H384 H 0.58962 0.06299 0.23674 0.0
H385 H 0.58651 0.94761 0.26784 0.0
H386 H 0.55977 0.95967 0.16788 0.0
H387 H 0.64369 0.01551 0.08183 0.0
O388 O 0.64522 0.05019 0.18917 0.0
O389 O 0.6839 0.00772 0.17113 0.0
O390 O 0.68327 0.97439 0.16731 0.0
C391 C 0.67635 0.04233 0.16867 0.0
H392 H 0.73392 -0.00329 0.36022 0.0
H393 H 0.53797 0.96766 0.06598 0.0
H394 H 0.52017 0.95077 0.28755 0.0
H395 H 0.52533 0.0695 0.26259 0.0
Co396 Co 0.74721 0.10689 0.1001 0.0
C397 C 0.71073 0.08467 0.99673 0.0
C398 C 0.75695 0.04942 1.01544 0.0
C399 C 0.7396 0.03609 0.9693 0.0
N400 N 0.7387 0.0797 0.03288 0.0
N401 N 0.71063 0.05835 0.95726 0.0
H402 H 0.6898 0.10598 1.0009 0.0
H403 H 0.78022 0.0369 0.03614 0.0
C404 C 0.80102 0.06024 0.16849 0.0
O405 O 0.82369 0.0887 0.16507 0.0
N406 N 0.75525 0.13458 0.16664 0.0
C407 C 0.77054 0.16875 0.17103 0.0
C408 C 0.76813 0.18044 0.22428 0.0
C409 C 0.74488 0.1254 0.21755 0.0
N410 N 0.75232 0.15291 0.25269 0.0
C411 C 0.70833 0.17414 0.07977 0.0
C412 C 0.75945 0.20261 1.00715 0.0
C413 C 0.73184 0.22629 0.02812 0.0
C414 C 0.70533 0.21083 0.06342 0.0
C415 C 0.7618 0.16588 0.02546 0.0
N416 N 0.73715 0.15275 0.06268 0.0
H417 H 0.68936 0.16417 0.11032 0.0
H418 H 0.78457 0.14852 1.01238 0.0
H419 H 0.78195 0.18451 0.13766 0.0
H420 H 0.73158 0.09972 0.22901 0.0
O421 O 0.69349 0.09856 0.12176 0.0
O422 O 0.73616 0.06 0.1388 0.0
O423 O 0.76978 0.06074 0.14129 0.0
C424 C 0.70161 0.06764 0.14241 0.0
H425 H 0.74677 0.01086 0.94817 0.0
H426 H 0.77728 0.20672 0.24089 0.0
H427 H 0.78017 0.21266 0.979 0.0
H428 H 0.68399 0.2274 0.08242 0.0
Co429 Co 0.63791 -0.00182 0.84925 0.0
C430 C 0.66009 0.96115 0.74641 0.0
C431 C 0.69597 0.00697 0.76532 0.0
C432 C 0.70941 0.98908 0.71971 0.0
N433 N 0.66522 0.9893 0.7823 0.0
N434 N 0.68675 0.96035 0.70755 0.0
H435 H 0.63844 0.9405 0.75042 0.0
H436 H 0.70878 0.03015 0.78607 0.0
C437 C 0.68413 0.05245 0.9182 0.0
O438 O 0.65547 0.07481 0.91469 0.0
N439 N 0.61008 0.00644 0.91545 0.0
C440 C 0.57602 0.02192 0.91938 0.0
C441 C 0.56402 0.01955 0.97244 0.0
C442 C 0.61891 0.99597 0.96643 0.0
N443 N 0.59127 0.00355 1.00119 0.0
C444 C 0.57085 0.95873 0.82896 0.0
C445 C 0.54194 0.00934 0.75612 0.0
C446 C 0.51844 0.98163 0.77726 0.0
C447 C 0.53413 0.95539 0.81267 0.0
C448 C 0.57873 0.01203 0.77434 0.0
N449 N 0.59208 0.98763 0.81167 0.0
H450 H 0.58094 0.93997 0.85964 0.0
H451 H 0.59594 0.03489 0.76113 0.0
H452 H 0.56052 0.0334 0.88582 0.0
H453 H 0.6444 0.98247 0.97817 0.0
O454 O 0.64638 0.94465 0.87134 0.0
O455 O 0.68484 0.98761 0.88828 0.0
O456 O 0.68394 0.02124 0.89077 0.0
C457 C 0.67731 0.95302 0.89193 0.0
H458 H 0.73496 0.9957 0.69904 0.0
H459 H 0.53773 0.02883 0.98869 0.0
H460 H 0.53172 0.02988 0.7279 0.0
H461 H 0.51773 0.93399 0.83184 0.0
Co462 Co 0.74567 0.88692 0.59865 0.0
C463 C 0.78149 0.91032 0.4957 0.0
C464 C 0.73553 0.94559 0.51553 0.0
C465 C 0.75284 0.95916 0.46949 0.0
N466 N 0.75364 0.91505 0.53217 0.0
N467 N 0.78161 0.93677 0.45674 0.0
H468 H 0.8026 0.88924 0.49926 0.0
H469 H 0.71242 0.9581 0.53669 0.0
C470 C 0.69245 0.93357 0.66882 0.0
O471 O 0.66949 0.90536 0.66479 0.0
N472 N 0.73913 0.85807 0.66504 0.0
C473 C 0.7308 0.8215 0.66953 0.0
C474 C 0.73403 0.81078 0.72292 0.0
C475 C 0.74646 0.86912 0.71653 0.0
N476 N 0.74351 0.84088 0.75175 0.0
C477 C 0.78781 0.8259 0.55407 0.0
C478 C 0.72564 0.78703 0.52063 0.0
C479 C 0.76001 0.76851 0.52262 0.0
C480 C 0.7917 0.78984 0.5346 0.0
C481 C 0.72331 0.82413 0.53719 0.0
N482 N 0.75363 0.84175 0.55786 0.0
H483 H 0.81225 0.84028 0.56806 0.0
H484 H 0.69648 0.83744 0.53955 0.0
H485 H 0.72387 0.80299 0.63675 0.0
H486 H 0.75525 0.89666 0.72822 0.0
O487 O 0.7997 0.89459 0.61974 0.0
O488 O 0.75729 0.9331 0.63888 0.0
O489 O 0.72384 0.93277 0.64198 0.0
C490 C 0.79183 0.92528 0.64171 0.0
H491 H 0.74579 0.98458 0.44894 0.0
H492 H 0.73024 0.78318 0.73922 0.0
H493 H 0.70016 0.77254 0.51124 0.0
H494 H 0.81928 0.77812 0.53304 0.0
Co495 Co 0.85513 0.99597 0.34897 0.0
C496 C 0.83314 0.03302 0.24634 0.0
C497 C 0.79725 0.98719 0.265 0.0
C498 C 0.78399 0.00487 0.21926 0.0
N499 N 0.82787 0.00501 0.28222 0.0
N500 N 0.80665 0.03359 0.20725 0.0
H501 H 0.85479 0.05366 0.25047 0.0
H502 H 0.78445 0.96403 0.28563 0.0
C503 C 0.8081 0.94235 0.4176 0.0
O504 O 0.83639 0.91956 0.41369 0.0
N505 N 0.88298 0.9873 0.4149 0.0
C506 C 0.91677 0.97121 0.41844 0.0
C507 C 0.92897 0.97323 0.47143 0.0
C508 C 0.87448 -0.0022 0.46602 0.0
N509 N 0.90209 0.98965 0.50049 0.0
C510 C 0.92245 0.03485 0.32878 0.0
C511 C 0.95107 0.98399 0.25578 0.0
C512 C 0.9747 0.01164 0.27697 0.0
C513 C 0.95915 0.038 0.31248 0.0
C514 C 0.91426 0.98152 0.27397 0.0
N515 N 0.90104 0.00606 0.31137 0.0
H516 H 0.91252 0.0537 0.35956 0.0
H517 H 0.89693 0.95873 0.26069 0.0
H518 H 0.93194 0.95948 0.38466 0.0
H519 H 0.84924 0.01168 0.47806 0.0
O520 O 0.84731 0.04964 0.37149 0.0
O521 O 0.80845 0.00709 0.3882 0.0
O522 O 0.80875 0.97358 0.39048 0.0
C523 C 0.81636 0.04157 0.3922 0.0
H524 H 0.75849 -0.00184 0.19851 0.0
H525 H 0.95512 0.9634 0.48744 0.0
H526 H 0.96122 0.96333 0.22756 0.0
H527 H 0.97566 0.05934 0.33173 0.0
Co528 Co 0.74622 0.60559 0.58529 0.0
C529 C 0.78278 0.58379 0.48227 0.0
C530 C 0.73645 0.5484 0.50026 0.0
C531 C 0.75428 0.53498 0.45463 0.0
N532 N 0.75448 0.57883 0.5178 0.0
N533 N 0.78334 0.55733 0.44308 0.0
H534 H 0.80375 0.60509 0.48688 0.0
H535 H 0.71316 0.53571 0.52077 0.0
C536 C 0.69184 0.55919 0.65354 0.0
O537 O 0.66965 0.58801 0.65076 0.0
N538 N 0.73859 0.63307 0.65196 0.0
C539 C 0.72275 0.66695 0.65644 0.0
C540 C 0.72634 0.6793 0.70921 0.0
C541 C 0.75053 0.62471 0.70237 0.0
N542 N 0.74366 0.65253 0.7372 0.0
C543 C 0.78685 0.67194 0.56607 0.0
C544 C 0.73381 0.70451 0.50065 0.0
C545 C 0.76205 0.72696 0.52297 0.0
C546 C 0.78968 0.70938 0.55396 0.0
C547 C 0.7317 0.66684 0.51462 0.0
N548 N 0.75714 0.65172 0.54891 0.0
H549 H 0.8066 0.6605 0.59427 0.0
H550 H 0.70821 0.65044 0.50144 0.0
H551 H 0.71009 0.68206 0.62345 0.0
H552 H 0.76444 0.59935 0.71367 0.0
O553 O 0.7997 0.59622 0.60689 0.0
O554 O 0.75641 0.55814 0.62322 0.0
O555 O 0.72291 0.55941 0.62593 0.0
C556 C 0.79109 0.5652 0.62677 0.0
H557 H 0.74747 0.50956 0.43368 0.0
H558 H 0.71671 0.70537 0.72587 0.0
H559 H 0.71227 0.71615 0.47533 0.0
H560 H 0.81176 0.72464 0.5736 0.0
Co561 Co 0.63719 0.49611 0.83438 0.0
C562 C 0.65962 0.53219 0.73132 0.0
C563 C 0.69461 0.48574 0.7497 0.0
C564 C 0.70807 0.50327 0.70385 0.0
N565 N 0.66435 0.50402 0.76712 0.0
N566 N 0.68594 0.53239 0.69206 0.0
H567 H 0.63871 0.55343 0.73571 0.0
H568 H 0.70712 0.46247 0.77037 0.0
C569 C 0.68413 0.44316 0.90388 0.0
O570 O 0.65573 0.42038 0.90059 0.0
N571 N 0.60931 0.4893 0.90132 0.0
C572 C 0.57557 0.47319 0.90721 0.0
C573 C 0.56383 0.47727 0.96012 0.0
C574 C 0.61811 0.50184 0.95147 0.0
N575 N 0.59075 0.49517 0.9871 0.0
C576 C 0.57495 0.53846 0.79472 0.0
C577 C 0.53508 0.47621 0.76429 0.0
C578 C 0.51627 0.51017 0.77044 0.0
C579 C 0.53777 0.54205 0.78041 0.0
C580 C 0.57305 0.47423 0.77582 0.0
N581 N 0.59129 0.50442 0.7957 0.0
H582 H 0.58972 0.56289 0.80783 0.0
H583 H 0.58672 0.44754 0.77581 0.0
H584 H 0.56022 0.45908 0.87586 0.0
H585 H 0.6436 0.51581 0.9622 0.0
O586 O 0.64542 0.55009 0.85526 0.0
O587 O 0.68407 0.50757 0.87288 0.0
O588 O 0.68344 0.47426 0.87648 0.0
C589 C 0.67656 0.54217 0.87566 0.0
H590 H 0.7334 0.49623 0.68299 0.0
H591 H 0.5382 0.46725 0.97769 0.0
H592 H 0.52039 0.45066 0.75597 0.0
H593 H 0.52546 0.56939 0.78179 0.0
Co594 Co 0.74824 0.38876 0.08394 0.0
C595 C 0.71185 0.41095 0.98101 0.0
C596 C 0.75778 0.44664 0.99992 0.0
C597 C 0.73988 0.46014 0.95441 0.0
N598 N 0.74006 0.41591 1.0168 0.0
N599 N 0.71109 0.43756 0.94229 0.0
H600 H 0.6909 0.38967 0.98507 0.0
H601 H 0.78086 0.45948 1.02082 0.0
C602 C 0.80137 0.43553 0.15368 0.0
O603 O 0.82403 0.40712 0.14998 0.0
N604 N 0.75537 0.36094 0.15061 0.0
C605 C 0.77449 0.32892 0.15685 0.0
C606 C 0.77042 0.31653 0.20943 0.0
C607 C 0.74097 0.36819 0.20014 0.0
N608 N 0.74937 0.34136 0.23572 0.0
C609 C 0.70557 0.32656 0.04421 0.0
C610 C 0.76767 0.28608 1.01547 0.0
C611 C 0.73349 0.26753 1.0212 0.0
C612 C 0.70174 0.28927 0.03043 0.0
C613 C 0.7699 0.32412 0.02644 0.0
N614 N 0.73974 0.34274 0.0454 0.0
H615 H 0.68117 0.34154 0.05671 0.0
H616 H 0.7967 0.33764 0.02662 0.0
H617 H 0.79093 0.3155 0.12604 0.0
H618 H 0.72477 0.39232 0.21062 0.0
O619 O 0.69434 0.39687 0.10486 0.0
O620 O 0.73689 0.43566 0.12258 0.0
O621 O 0.77022 0.43501 0.12625 0.0
C622 C 0.70227 0.42809 0.12515 0.0
H623 H 0.7464 0.48579 0.93408 0.0
H624 H 0.78281 0.29214 0.22741 0.0
H625 H 0.79314 0.27118 1.00779 0.0
H626 H 0.6743 0.27712 0.03157 0.0
Co627 Co 0.8565 0.49811 0.33485 0.0
C628 C 0.83381 0.46263 0.2313 0.0
C629 C 0.79854 0.50867 0.25082 0.0
C630 C 0.78487 0.49113 0.20495 0.0
N631 N 0.82913 0.49066 0.26752 0.0
N632 N 0.80719 0.46226 0.19248 0.0
H633 H 0.85492 0.44154 0.23513 0.0
H634 H 0.78591 0.53172 0.27202 0.0
C635 C 0.81026 0.5514 0.40475 0.0
O636 O 0.83894 0.57382 0.4017 0.0
N637 N 0.88453 0.50424 0.40199 0.0
C638 C 0.91945 0.51766 0.40787 0.0
C639 C 0.9307 0.5133 0.46092 0.0
C640 C 0.87468 0.493 0.45234 0.0
N641 N 0.90238 0.49798 0.48809 0.0
C642 C 0.91852 0.4556 0.29457 0.0
C643 C 0.95834 0.51778 0.26399 0.0
C644 C 0.97714 0.48381 0.26995 0.0
C645 C 0.95564 0.45195 0.27994 0.0
C646 C 0.92043 0.51982 0.27587 0.0
N647 N 0.90224 0.48967 0.2958 0.0
H648 H 0.90377 0.43122 0.30776 0.0
H649 H 0.9068 0.54653 0.27613 0.0
H650 H 0.93615 0.52979 0.37635 0.0
H651 H 0.84828 0.48084 0.463 0.0
O652 O 0.84786 0.44415 0.35488 0.0
O653 O 0.80953 0.48686 0.37337 0.0
O654 O 0.81057 0.52027 0.37721 0.0
C655 C 0.81683 0.45218 0.37558 0.0
H656 H 0.75932 0.49798 0.1845 0.0
H657 H 0.95714 0.52113 0.47834 0.0
H658 H 0.97304 0.5433 0.25566 0.0
H659 H 0.96793 0.42461 0.28115 0.0
Co660 Co 0.74567 0.38754 0.44363 0.0
C661 C 0.7818 0.40903 0.54745 0.0
C662 C 0.7364 0.44517 0.52815 0.0
C663 C 0.75367 0.45809 0.57457 0.0
N664 N 0.75419 0.41458 0.51091 0.0
N665 N 0.78211 0.43525 0.58702 0.0
H666 H 0.80237 0.38734 0.54353 0.0
H667 H 0.71354 0.45818 0.50712 0.0
C668 C 0.69198 0.43429 0.37516 0.0
O669 O 0.66934 0.40579 0.37847 0.0
N670 N 0.73765 0.35991 0.37712 0.0
C671 C 0.72215 0.32583 0.37267 0.0
C672 C 0.72475 0.31405 0.31946 0.0
C673 C 0.74835 0.36895 0.32634 0.0
N674 N 0.74092 0.34145 0.29123 0.0
C675 C 0.78447 0.3202 0.46373 0.0
C676 C 0.73373 0.29187 0.53704 0.0
C677 C 0.76136 0.26819 0.51611 0.0
C678 C 0.78764 0.28358 0.48038 0.0
C679 C 0.73119 0.32852 0.51842 0.0
N680 N 0.75569 0.3416 0.48094 0.0
H681 H 0.8033 0.33012 0.43296 0.0
H682 H 0.70845 0.34588 0.5316 0.0
H683 H 0.71049 0.31019 0.40597 0.0
H684 H 0.76185 0.39454 0.31494 0.0
O685 O 0.79942 0.39587 0.42211 0.0
O686 O 0.75683 0.43452 0.40504 0.0
O687 O 0.7232 0.43378 0.40244 0.0
C688 C 0.7914 0.42686 0.40159 0.0
H689 H 0.7469 0.4835 0.59551 0.0
H690 H 0.71549 0.28784 0.30278 0.0
H691 H 0.71316 0.28188 0.56547 0.0
H692 H 0.80897 0.26701 0.46134 0.0
Co693 Co 0.85514 0.4943 0.69561 0.0
C694 C 0.8334 0.53151 0.79852 0.0
C695 C 0.79725 0.48586 0.7798 0.0
C696 C 0.78397 0.5039 0.82537 0.0
N697 N 0.82809 0.50332 0.76273 0.0
N698 N 0.8068 0.53251 0.83745 0.0
H699 H 0.85514 0.55205 0.79436 0.0
H700 H 0.78424 0.46281 0.75905 0.0
C701 C 0.80846 0.44059 0.62646 0.0
O702 O 0.83684 0.4179 0.62997 0.0
N703 N 0.88272 0.48594 0.62921 0.0
C704 C 0.91653 0.46996 0.62509 0.0
C705 C 0.92858 0.47247 0.57207 0.0
C706 C 0.87408 0.49687 0.57836 0.0
N707 N 0.9016 0.48909 0.54349 0.0
C708 C 0.92244 0.53338 0.71532 0.0
C709 C 0.9513 0.48296 0.78848 0.0
C710 C 0.97481 0.51061 0.76717 0.0
C711 C 0.95915 0.53673 0.73156 0.0
C712 C 0.91449 0.48027 0.77032 0.0
N713 N 0.90115 0.5046 0.73287 0.0
H714 H 0.9124 0.55205 0.68451 0.0
H715 H 0.89724 0.45749 0.78373 0.0
H716 H 0.93185 0.45808 0.65854 0.0
H717 H 0.84883 0.5109 0.56683 0.0
O718 O 0.84702 0.54786 0.67375 0.0
O719 O 0.80813 0.50528 0.65693 0.0
O720 O 0.80888 0.47167 0.6542 0.0
C721 C 0.81595 0.5398 0.65338 0.0
H722 H 0.7583 0.49755 0.84583 0.0
H723 H 0.95475 0.46291 0.55576 0.0
H724 H 0.96153 0.46249 0.8168 0.0
H725 H 0.97556 0.55804 0.7122 0.0
Co726 Co 0.74753 0.60659 0.9448 0.0
C727 C 0.71097 0.58465 0.04795 0.0
C728 C 0.75704 0.54916 0.02918 0.0
C729 C 0.73958 0.53596 0.0752 0.0
N730 N 0.73894 0.5795 1.01185 0.0
N731 N 0.7107 0.55837 0.08728 0.0
H732 H 0.69013 0.60605 0.04381 0.0
H733 H 0.78025 0.5365 1.00846 0.0
C734 C 0.8012 0.55948 0.87598 0.0
O735 O 0.82402 0.58784 0.87928 0.0
N736 N 0.75559 0.63424 0.87852 0.0
C737 C 0.77074 0.66847 0.87426 0.0
C738 C 0.7679 0.68025 0.82116 0.0
C739 C 0.74489 0.62512 0.82772 0.0
N740 N 0.75189 0.65273 0.7928 0.0
C741 C 0.70855 0.67379 0.96548 0.0
C742 C 0.76008 0.70284 0.03717 0.0
C743 C 0.73236 0.72637 1.01622 0.0
C744 C 0.70564 0.7106 0.98147 0.0
C745 C 0.76233 0.66595 1.01922 0.0
N746 N 0.7375 0.65254 0.98238 0.0
H747 H 0.68942 0.66363 0.93522 0.0
H748 H 0.78521 0.64872 0.03217 0.0
H749 H 0.78233 0.68422 0.90761 0.0
H750 H 0.73168 0.59938 0.81617 0.0
O751 O 0.69378 0.59833 0.92306 0.0
O752 O 0.73639 0.5597 0.90584 0.0
O753 O 0.76998 0.56026 0.90327 0.0
C754 C 0.70185 0.5674 0.90225 0.0
H755 H 0.74659 0.51069 0.09619 0.0
H756 H 0.77697 0.70653 0.80462 0.0
H757 H 0.78096 0.71311 0.06496 0.0
H758 H 0.68417 0.72699 0.96252 0.0
Co759 Co 0.63766 0.49847 0.19467 0.0
C760 C 0.65978 0.46157 0.2974 0.0
C761 C 0.69545 0.5076 0.27897 0.0
C762 C 0.70878 0.48988 0.32467 0.0
N763 N 0.66489 0.48969 0.26163 0.0
N764 N 0.68626 0.46102 0.33652 0.0
H765 H 0.63825 0.4408 0.29313 0.0
H766 H 0.70817 0.53083 0.25842 0.0
C767 C 0.68411 0.55262 0.12619 0.0
O768 O 0.65553 0.57507 0.12968 0.0
N769 N 0.6099 0.50671 0.12845 0.0
C770 C 0.57578 0.52206 0.1245 0.0
C771 C 0.56384 0.5196 0.0714 0.0
C772 C 0.61881 0.49625 0.07744 0.0
N773 N 0.59118 0.50369 0.04265 0.0
C774 C 0.57061 0.45903 0.21462 0.0
C775 C 0.54172 0.50953 0.28793 0.0
C776 C 0.51824 0.48179 0.26662 0.0
C777 C 0.53393 0.4556 0.23097 0.0
C778 C 0.57847 0.5123 0.26965 0.0
N779 N 0.59181 0.48795 0.23209 0.0
H780 H 0.58068 0.4403 0.18377 0.0
H781 H 0.59567 0.53517 0.28302 0.0
H782 H 0.56019 0.53348 0.15809 0.0
H783 H 0.64436 0.48283 0.06569 0.0
O784 O 0.64606 0.44491 0.17231 0.0
O785 O 0.68459 0.48779 0.15566 0.0
O786 O 0.68377 0.52141 0.15344 0.0
C787 C 0.67699 0.45322 0.15172 0.0
H788 H 0.73422 0.49668 0.34555 0.0
H789 H 0.53751 0.52875 0.05513 0.0
H790 H 0.53149 0.53003 0.31633 0.0
H791 H 0.51755 0.43419 0.21165 0.0
Co792 Co 0.24702 0.38758 0.45863 0.0
C793 C 0.21045 0.40939 0.56165 0.0
C794 C 0.25679 0.44478 0.54365 0.0
C795 C 0.23896 0.45819 0.58929 0.0
N796 N 0.23876 0.41435 0.52611 0.0
N797 N 0.2099 0.43585 0.60083 0.0
H798 H 0.18949 0.38809 0.55704 0.0
H799 H 0.28008 0.45747 0.52315 0.0
C800 C 0.3014 0.43399 0.39037 0.0
O801 O 0.32359 0.40517 0.39316 0.0
N802 N 0.25465 0.36011 0.39195 0.0
C803 C 0.27048 0.32623 0.38747 0.0
C804 C 0.2669 0.31388 0.3347 0.0
C805 C 0.24271 0.36847 0.34154 0.0
N806 N 0.24958 0.34064 0.30672 0.0
C807 C 0.20639 0.32124 0.47785 0.0
C808 C 0.25943 0.28867 0.54327 0.0
C809 C 0.23118 0.26622 0.52094 0.0
C810 C 0.20355 0.28379 0.48995 0.0
C811 C 0.26154 0.32634 0.5293 0.0
N812 N 0.23609 0.34146 0.49501 0.0
H813 H 0.18664 0.33267 0.44965 0.0
H814 H 0.28503 0.34274 0.54248 0.0
H815 H 0.28314 0.31112 0.42047 0.0
H816 H 0.2288 0.39383 0.33025 0.0
O817 O 0.19354 0.39696 0.43702 0.0
O818 O 0.23683 0.43504 0.42069 0.0
O819 O 0.27033 0.43377 0.41798 0.0
C820 C 0.20215 0.42798 0.41714 0.0
H821 H 0.24577 0.48362 0.61023 0.0
H822 H 0.27652 0.28781 0.31804 0.0
H823 H 0.28097 0.27703 0.56859 0.0
H824 H 0.18148 0.26854 0.47032 0.0
Co825 Co 0.35605 0.49707 0.20953 0.0
C826 C 0.33361 0.46099 0.31259 0.0
C827 C 0.29863 0.50743 0.29421 0.0
C828 C 0.28517 0.4899 0.34006 0.0
N829 N 0.32889 0.48916 0.27679 0.0
N830 N 0.3073 0.46078 0.35186 0.0
H831 H 0.35453 0.43974 0.3082 0.0
H832 H 0.28613 0.53071 0.27355 0.0
C833 C 0.30911 0.55002 0.14003 0.0
O834 O 0.33751 0.57279 0.14332 0.0
N835 N 0.38393 0.50388 0.14259 0.0
C836 C 0.41766 0.51999 0.1367 0.0
C837 C 0.4294 0.51591 0.08379 0.0
C838 C 0.37513 0.49133 0.09244 0.0
N839 N 0.40249 0.49801 0.05682 0.0
C840 C 0.41828 0.45471 0.24919 0.0
C841 C 0.45816 0.51697 0.27962 0.0
C842 C 0.47696 0.483 0.27346 0.0
C843 C 0.45547 0.45112 0.2635 0.0
C844 C 0.42019 0.51894 0.26809 0.0
N845 N 0.40195 0.48876 0.24822 0.0
H846 H 0.40352 0.43028 0.23609 0.0
H847 H 0.40652 0.54564 0.2681 0.0
H848 H 0.43302 0.5341 0.16805 0.0
H849 H 0.34964 0.47736 0.08172 0.0
O850 O 0.34782 0.44309 0.18866 0.0
O851 O 0.30916 0.48561 0.17104 0.0
O852 O 0.3098 0.51891 0.16743 0.0
C853 C 0.31668 0.451 0.16825 0.0
H854 H 0.25984 0.49695 0.36093 0.0
H855 H 0.45503 0.52593 0.06622 0.0
H856 H 0.47285 0.54252 0.28794 0.0
H857 H 0.46778 0.42379 0.26212 0.0
Co858 Co 0.24501 0.60442 0.95998 0.0
C859 C 0.28139 0.58223 0.06291 0.0
C860 C 0.23546 0.54653 0.044 0.0
C861 C 0.25336 0.53303 0.0895 0.0
N862 N 0.25318 0.57727 0.02712 0.0
N863 N 0.28216 0.55562 0.10162 0.0
H864 H 0.30234 0.60351 0.05884 0.0
H865 H 0.21238 0.5337 0.02309 0.0
C866 C 0.19187 0.55765 0.89024 0.0
O867 O 0.16921 0.58606 0.89394 0.0
N868 N 0.23788 0.63224 0.89331 0.0
C869 C 0.21876 0.66426 0.88707 0.0
C870 C 0.22283 0.67665 0.83449 0.0
C871 C 0.25227 0.62499 0.84377 0.0
N872 N 0.24388 0.65182 0.8082 0.0
C873 C 0.28767 0.66662 0.9997 0.0
C874 C 0.22558 0.7071 0.02845 0.0
C875 C 0.25975 0.72564 0.02272 0.0
C876 C 0.2915 0.70391 1.01348 0.0
C877 C 0.22335 0.66906 1.01748 0.0
N878 N 0.25351 0.65043 0.99851 0.0
H879 H 0.31207 0.65164 0.9872 0.0
H880 H 0.19654 0.65554 1.0173 0.0
H881 H 0.20232 0.67769 0.91788 0.0
H882 H 0.26847 0.60086 0.83329 0.0
O883 O 0.2989 0.5963 0.93906 0.0
O884 O 0.25635 0.55751 0.92133 0.0
O885 O 0.22302 0.55816 0.91766 0.0
C886 C 0.29097 0.56509 0.91876 0.0
H887 H 0.24684 0.50738 0.10983 0.0
H888 H 0.21045 0.70104 0.81651 0.0
H889 H 0.2001 0.722 0.03613 0.0
H890 H 0.31895 0.71605 1.01235 0.0
Co891 Co 0.13674 0.49507 0.70907 0.0
C892 C 0.15943 0.53055 0.81262 0.0
C893 C 0.1947 0.48451 0.7931 0.0
C894 C 0.20837 0.50205 0.83897 0.0
N895 N 0.16411 0.50252 0.77639 0.0
N896 N 0.18605 0.53092 0.85143 0.0
H897 H 0.13832 0.55164 0.80879 0.0
H898 H 0.20733 0.46146 0.77189 0.0
C899 C 0.18298 0.44178 0.63916 0.0
O900 O 0.1543 0.41936 0.64222 0.0
N901 N 0.10871 0.48894 0.64192 0.0
C902 C 0.0738 0.47551 0.63605 0.0
C903 C 0.06255 0.47988 0.583 0.0
C904 C 0.11856 0.50019 0.59157 0.0
N905 N 0.09086 0.4952 0.55583 0.0
C906 C 0.07472 0.53758 0.74934 0.0
C907 C 0.0349 0.4754 0.77992 0.0
C908 C 0.0161 0.50938 0.77395 0.0
C909 C 0.0376 0.54123 0.76397 0.0
C910 C 0.07281 0.47336 0.76804 0.0
N911 N 0.091 0.50351 0.74811 0.0
H912 H 0.08947 0.56196 0.73615 0.0
H913 H 0.08644 0.44665 0.76779 0.0
H914 H 0.05709 0.46338 0.66756 0.0
H915 H 0.14496 0.51234 0.58092 0.0
O916 O 0.14538 0.54903 0.68903 0.0
O917 O 0.18371 0.50632 0.67055 0.0
O918 O 0.18267 0.47291 0.6667 0.0
C919 C 0.17641 0.54099 0.66833 0.0
H920 H 0.23392 0.4952 0.85941 0.0
H921 H 0.0361 0.47204 0.56558 0.0
H922 H 0.0202 0.44989 0.78825 0.0
H923 H 0.02531 0.56857 0.76276 0.0
Co924 Co 0.24757 0.60564 0.60028 0.0
C925 C 0.21144 0.58415 0.49646 0.0
C926 C 0.25685 0.54801 0.51576 0.0
C927 C 0.23957 0.53509 0.46934 0.0
N928 N 0.23905 0.5786 0.533 0.0
N929 N 0.21113 0.55793 0.45689 0.0
H930 H 0.19087 0.60584 0.50039 0.0
H931 H 0.2797 0.53499 0.5368 0.0
C932 C 0.30127 0.55889 0.66876 0.0
O933 O 0.3239 0.58739 0.66545 0.0
N934 N 0.25559 0.63326 0.6668 0.0
C935 C 0.27109 0.66735 0.67124 0.0
C936 C 0.26849 0.67913 0.72445 0.0
C937 C 0.2449 0.62422 0.71758 0.0
N938 N 0.25232 0.65173 0.75268 0.0
C939 C 0.20877 0.67298 0.58018 0.0
C940 C 0.25952 0.70131 0.50687 0.0
C941 C 0.23189 0.72499 0.52781 0.0
C942 C 0.2056 0.7096 0.56354 0.0
C943 C 0.26205 0.66466 0.52549 0.0
N944 N 0.23755 0.65158 0.56297 0.0
H945 H 0.18994 0.66305 0.61095 0.0
H946 H 0.2848 0.6473 0.51232 0.0
H947 H 0.28275 0.68299 0.63795 0.0
H948 H 0.2314 0.59863 0.72897 0.0
O949 O 0.19382 0.59731 0.62181 0.0
O950 O 0.23641 0.55866 0.63887 0.0
O951 O 0.27004 0.5594 0.64148 0.0
C952 C 0.20185 0.56632 0.64233 0.0
H953 H 0.24634 0.50968 0.4484 0.0
H954 H 0.27776 0.70534 0.74114 0.0
H955 H 0.28008 0.7113 0.47845 0.0
H956 H 0.18428 0.72617 0.58258 0.0
Co957 Co 0.1381 0.49888 0.34831 0.0
C958 C 0.15983 0.46167 0.24539 0.0
C959 C 0.19599 0.50732 0.26411 0.0
C960 C 0.20927 0.48928 0.21855 0.0
N961 N 0.16515 0.48986 0.28119 0.0
N962 N 0.18644 0.46066 0.20647 0.0
H963 H 0.13809 0.44113 0.24956 0.0
H964 H 0.209 0.53037 0.28486 0.0
C965 C 0.18478 0.55259 0.41746 0.0
O966 O 0.1564 0.57528 0.41394 0.0
N967 N 0.11052 0.50725 0.41471 0.0
C968 C 0.07671 0.52322 0.41882 0.0
C969 C 0.06466 0.52071 0.47184 0.0
C970 C 0.11916 0.49631 0.46556 0.0
N971 N 0.09164 0.50409 0.50042 0.0
C972 C 0.07079 0.45981 0.32859 0.0
C973 C 0.04194 0.51022 0.25543 0.0
C974 C 0.01843 0.48257 0.27675 0.0
C975 C 0.03409 0.45645 0.31235 0.0
C976 C 0.07875 0.51291 0.27359 0.0
N977 N 0.09209 0.48859 0.31104 0.0
H978 H 0.08084 0.44113 0.35941 0.0
H979 H 0.096 0.53569 0.26018 0.0
H980 H 0.06139 0.5351 0.38537 0.0
H981 H 0.14441 0.48228 0.47709 0.0
O982 O 0.14621 0.44532 0.37017 0.0
O983 O 0.18511 0.4879 0.38699 0.0
O984 O 0.18436 0.52151 0.38971 0.0
C985 C 0.17729 0.45338 0.39053 0.0
H986 H 0.23494 0.49563 0.19808 0.0
H987 H 0.03849 0.53027 0.48815 0.0
H988 H 0.03171 0.53069 0.22711 0.0
H989 H 0.01767 0.43514 0.33171 0.0
Co990 Co 0.2457 0.38659 0.09912 0.0
C991 C 0.28226 0.40853 0.99597 0.0
C992 C 0.2362 0.44402 1.01473 0.0
C993 C 0.25366 0.45722 0.96871 0.0
N994 N 0.2543 0.41367 0.03206 0.0
N995 N 0.28254 0.4348 0.95663 0.0
H996 H 0.3031 0.38713 1.00011 0.0
H997 H 0.21299 0.45668 0.03546 0.0
C998 C 0.19204 0.4337 0.16793 0.0
O999 O 0.16921 0.40534 0.16463 0.0
N1000 N 0.23765 0.35894 0.1654 0.0
C1001 C 0.2225 0.32471 0.16965 0.0
C1002 C 0.22534 0.31292 0.22275 0.0
C1003 C 0.24835 0.36806 0.21619 0.0
N1004 N 0.24135 0.34045 0.25112 0.0
C1005 C 0.28469 0.31939 0.07844 0.0
C1006 C 0.23316 0.29034 1.00675 0.0
C1007 C 0.26087 0.26681 0.02769 0.0
C1008 C 0.2876 0.28258 0.06244 0.0
C1009 C 0.2309 0.32722 0.0247 0.0
N1010 N 0.25573 0.34064 0.06153 0.0
H1011 H 0.30382 0.32954 0.1087 0.0
H1012 H 0.20803 0.34446 1.01175 0.0
H1013 H 0.21091 0.30895 0.13631 0.0
H1014 H 0.26156 0.3938 0.22774 0.0
O1015 O 0.29946 0.39484 0.12085 0.0
O1016 O 0.25685 0.43348 0.13807 0.0
O1017 O 0.22326 0.43292 0.14064 0.0
C1018 C 0.29139 0.42578 0.14167 0.0
H1019 H 0.24665 0.48249 0.94772 0.0
H1020 H 0.21627 0.28665 0.2393 0.0
H1021 H 0.21228 0.28007 0.97896 0.0
H1022 H 0.30907 0.26619 0.08139 0.0
Co1023 Co 0.35558 0.4947 0.84924 0.0
C1024 C 0.33346 0.53161 0.74652 0.0
C1025 C 0.29779 0.48558 0.76494 0.0
C1026 C 0.28446 0.5033 0.71924 0.0
N1027 N 0.32835 0.50349 0.78229 0.0
N1028 N 0.30698 0.53216 0.70739 0.0
H1029 H 0.35499 0.55238 0.75078 0.0
H1030 H 0.28506 0.46235 0.78549 0.0
C1031 C 0.30912 0.44056 0.91772 0.0
O1032 O 0.33771 0.4181 0.91424 0.0
N1033 N 0.38334 0.48647 0.91547 0.0
C1034 C 0.41746 0.47112 0.91941 0.0
C1035 C 0.4294 0.47357 0.97252 0.0
C1036 C 0.37443 0.49692 0.96648 0.0
N1037 N 0.40206 0.48949 1.00126 0.0
C1038 C 0.42263 0.53415 0.8293 0.0
C1039 C 0.45152 0.48364 0.75598 0.0
C1040 C 0.475 0.51138 0.7773 0.0
C1041 C 0.45931 0.53757 0.81295 0.0
C1042 C 0.41476 0.48087 0.77427 0.0
N1043 N 0.40143 0.50522 0.81182 0.0
H1044 H 0.41256 0.55287 0.86014 0.0
H1045 H 0.39757 0.45801 0.76089 0.0
H1046 H 0.43305 0.45969 0.88582 0.0
H1047 H 0.34888 0.51035 0.97823 0.0
O1048 O 0.34718 0.54826 0.87161 0.0
O1049 O 0.30865 0.50539 0.88826 0.0
O1050 O 0.30947 0.47176 0.89047 0.0
C1051 C 0.31626 0.53996 0.89219 0.0
H1052 H 0.25902 0.49649 0.69836 0.0
H1053 H 0.45572 0.46443 0.98878 0.0
H1054 H 0.46175 0.46314 0.72758 0.0
H1055 H 0.4757 0.55898 0.83227 0.0
loop_
_geom_bond_atom_site_label_1
_geom_bond_atom_site_label_2
_geom_bond_distance
_geom_bond_site_symmetry_2
_ccdc_geom_bond_type
Co0 N4 2.148 . S
Co0 N10 2.128 . S
Co0 N20 2.194 . S
Co0 O25 2.351 . S
Co0 O26 2.155 . S
Co0 O27 2.096 . S
C1 N4 1.301 1_556 S
C1 N5 1.328 . S
C1 H6 0.930 . S
C2 C3 1.333 . S
C2 N4 1.317 1_556 S
C2 H7 0.930 1_556 S
C3 C2 1.333 . S
C3 N5 1.350 . S
C3 H29 0.931 . S
N4 Co0 2.148 . S
N4 C1 1.301 1_554 S
N4 C2 1.317 1_554 S
N5 C1 1.328 . S
N5 C3 1.350 . S
H6 C1 0.930 . S
H7 C2 0.930 1_554 S
C8 O9 1.224 . S
C8 O27 1.247 . S
O9 C8 1.224 . S
N10 Co0 2.128 . S
N10 C11 1.355 . S
N10 C13 1.311 . S
C11 N10 1.355 . S
C11 C12 1.363 . S
C11 H23 0.929 . S
C12 C11 1.363 . S
C12 N14 1.375 . S
C12 H30 0.931 . S
C13 N10 1.311 . S
C13 N14 1.347 . S
C13 H24 0.929 . S
N14 C12 1.375 . S
N14 C13 1.347 . S
C15 C18 1.365 . S
C15 N20 1.328 . S
C15 H21 0.929 . S
C16 C17 1.362 . S
C16 C19 1.378 . S
C16 H31 0.929 . S
C17 C16 1.362 . S
C17 C18 1.366 . S
C18 C15 1.365 . S
C18 C17 1.366 . S
C18 H32 0.930 . S
C19 C16 1.378 . S
C19 N20 1.315 . S
C19 H22 0.930 . S
N20 Co0 2.194 . S
N20 C15 1.328 . S
N20 C19 1.315 . S
H21 C15 0.929 . S
H22 C19 0.930 . S
H23 C11 0.929 . S
H24 C13 0.929 . S
O25 Co0 2.351 . S
O25 C28 1.244 . S
O26 Co0 2.155 . S
O26 C28 1.240 . S
O27 Co0 2.096 . S
O27 C8 1.247 . S
C28 O25 1.244 . S
C28 O26 1.240 . S
H29 C3 0.931 . S
H30 C12 0.931 . S
H31 C16 0.929 . S
H32 C18 0.930 . S
Co33 N37 2.146 1_545 S
Co33 N43 2.129 . S
Co33 N53 2.193 1_545 S
Co33 O58 2.358 . S
Co33 O59 2.160 . S
Co33 O60 2.090 1_545 S
C34 N37 1.301 1_545 S
C34 N38 1.328 1_545 S
C34 H39 0.930 . S
C35 C36 1.333 . S
C35 N37 1.317 . S
C35 H40 0.930 . S
C36 C35 1.333 . S
C36 N38 1.350 . S
C36 H62 0.931 . S
N37 Co33 2.146 1_565 S
N37 C34 1.301 1_565 S
N37 C35 1.317 . S
N38 C34 1.328 1_565 S
N38 C36 1.350 . S
H39 C34 0.930 . S
H40 C35 0.930 . S
C41 O42 1.224 . S
C41 O60 1.247 . S
O42 C41 1.224 . S
N43 Co33 2.129 . S
N43 C44 1.355 . S
N43 C46 1.311 1_545 S
C44 N43 1.355 . S
C44 C45 1.363 . S
C44 H56 0.929 . S
C45 C44 1.363 . S
C45 N47 1.375 1_545 S
C45 H63 0.931 . S
C46 N43 1.311 1_565 S
C46 N47 1.347 . S
C46 H57 0.929 . S
N47 C45 1.375 1_565 S
N47 C46 1.347 . S
C48 C51 1.365 . S
C48 N53 1.328 1_545 S
C48 H54 0.929 . S
C49 C50 1.362 . S
C49 C52 1.378 . S
C49 H64 0.929 . S
C50 C49 1.362 . S
C50 C51 1.366 1_565 S
C51 C48 1.365 . S
C51 C50 1.366 1_545 S
C51 H65 0.930 . S
C52 C49 1.378 . S
C52 N53 1.315 . S
C52 H55 0.930 . S
N53 Co33 2.193 1_565 S
N53 C48 1.328 1_565 S
N53 C52 1.315 . S
H54 C48 0.929 . S
H55 C52 0.930 . S
H56 C44 0.929 . S
H57 C46 0.929 . S
O58 Co33 2.358 . S
O58 C61 1.244 . S
O59 Co33 2.160 . S
O59 C61 1.240 . S
O60 Co33 2.090 1_565 S
O60 C41 1.247 . S
C61 O58 1.244 . S
C61 O59 1.240 . S
H62 C36 0.931 . S
H63 C45 0.931 . S
H64 C49 0.929 . S
H65 C51 0.930 . S
Co66 N70 2.148 . S
Co66 N76 2.128 . S
Co66 N86 2.194 . S
Co66 O91 2.351 . S
Co66 O92 2.155 . S
Co66 O93 2.096 . S
C67 N70 1.301 . S
C67 N71 1.328 . S
C67 H72 0.930 . S
C68 C69 1.333 . S
C68 N70 1.317 . S
C68 H73 0.930 . S
C69 C68 1.333 . S
C69 N71 1.350 . S
C69 H95 0.931 . S
N70 Co66 2.148 . S
N70 C67 1.301 . S
N70 C68 1.317 . S
N71 C67 1.328 . S
N71 C69 1.350 . S
H72 C67 0.930 . S
H73 C68 0.930 . S
C74 O75 1.224 . S
C74 O93 1.247 . S
O75 C74 1.224 . S
N76 Co66 2.128 . S
N76 C77 1.355 . S
N76 C79 1.311 . S
C77 N76 1.355 . S
C77 C78 1.363 . S
C77 H89 0.929 . S
C78 C77 1.363 . S
C78 N80 1.375 . S
C78 H96 0.931 . S
C79 N76 1.311 . S
C79 N80 1.347 . S
C79 H90 0.929 . S
N80 C78 1.375 . S
N80 C79 1.347 . S
C81 C84 1.365 . S
C81 N86 1.328 . S
C81 H87 0.929 . S
C82 C83 1.362 . S
C82 C85 1.378 . S
C82 H97 0.929 . S
C83 C82 1.362 . S
C83 C84 1.366 . S
C84 C81 1.365 . S
C84 C83 1.366 . S
C84 H98 0.930 . S
C85 C82 1.378 . S
C85 N86 1.315 . S
C85 H88 0.930 . S
N86 Co66 2.194 . S
N86 C81 1.328 . S
N86 C85 1.315 . S
H87 C81 0.929 . S
H88 C85 0.930 . S
H89 C77 0.929 . S
H90 C79 0.929 . S
O91 Co66 2.351 . S
O91 C94 1.244 . S
O92 Co66 2.155 . S
O92 C94 1.240 . S
O93 Co66 2.096 . S
O93 C74 1.247 . S
C94 O91 1.244 . S
C94 O92 1.240 . S
H95 C69 0.931 . S
H96 C78 0.931 . S
H97 C82 0.929 . S
H98 C84 0.930 . S
Co99 N103 2.146 1_565 S
Co99 N109 2.129 . S
Co99 N119 2.193 1_565 S
Co99 O124 2.359 . S
Co99 O125 2.160 . S
Co99 O126 2.090 1_565 S
C100 N103 1.301 1_565 S
C100 N104 1.328 1_565 S
C100 H105 0.930 . S
C101 C102 1.333 . S
C101 N103 1.317 . S
C101 H106 0.930 . S
C102 C101 1.333 . S
C102 N104 1.350 . S
C102 H128 0.931 . S
N103 Co99 2.146 1_545 S
N103 C100 1.301 1_545 S
N103 C101 1.317 . S
N104 C100 1.328 1_545 S
N104 C102 1.350 . S
H105 C100 0.930 . S
H106 C101 0.930 . S
C107 O108 1.224 . S
C107 O126 1.247 . S
O108 C107 1.224 . S
N109 Co99 2.129 . S
N109 C110 1.355 . S
N109 C112 1.311 1_565 S
C110 N109 1.355 . S
C110 C111 1.363 . S
C110 H122 0.929 . S
C111 C110 1.363 . S
C111 N113 1.375 1_565 S
C111 H129 0.931 . S
C112 N109 1.311 1_545 S
C112 N113 1.347 . S
C112 H123 0.929 . S
N113 C111 1.375 1_545 S
N113 C112 1.347 . S
C114 C117 1.365 . S
C114 N119 1.328 1_565 S
C114 H120 0.929 . S
C115 C116 1.362 . S
C115 C118 1.378 . S
C115 H130 0.929 . S
C116 C115 1.362 . S
C116 C117 1.366 1_545 S
C117 C114 1.365 . S
C117 C116 1.366 1_565 S
C117 H131 0.930 . S
C118 C115 1.378 . S
C118 N119 1.315 . S
C118 H121 0.930 . S
N119 Co99 2.193 1_545 S
N119 C114 1.328 1_545 S
N119 C118 1.315 . S
H120 C114 0.929 . S
H121 C118 0.930 . S
H122 C110 0.929 . S
H123 C112 0.929 . S
O124 Co99 2.359 . S
O124 C127 1.244 . S
O125 Co99 2.160 . S
O125 C127 1.240 . S
O126 Co99 2.090 1_545 S
O126 C107 1.247 . S
C127 O124 1.244 . S
C127 O125 1.240 . S
H128 C102 0.931 . S
H129 C111 0.931 . S
H130 C115 0.929 . S
H131 C117 0.930 . S
Co132 N136 2.148 . S
Co132 N142 2.128 . S
Co132 N152 2.194 . S
Co132 O157 2.351 . S
Co132 O158 2.155 . S
Co132 O159 2.096 . S
C133 N136 1.301 1_554 S
C133 N137 1.328 . S
C133 H138 0.930 . S
C134 C135 1.333 . S
C134 N136 1.317 1_554 S
C134 H139 0.930 1_554 S
C135 C134 1.333 . S
C135 N137 1.350 . S
C135 H161 0.931 . S
N136 Co132 2.148 . S
N136 C133 1.301 1_556 S
N136 C134 1.317 1_556 S
N137 C133 1.328 . S
N137 C135 1.350 . S
H138 C133 0.930 . S
H139 C134 0.930 1_556 S
C140 O141 1.224 . S
C140 O159 1.247 . S
O141 C140 1.224 . S
N142 Co132 2.128 . S
N142 C143 1.355 . S
N142 C145 1.311 . S
C143 N142 1.355 . S
C143 C144 1.363 . S
C143 H155 0.929 . S
C144 C143 1.363 . S
C144 N146 1.375 . S
C144 H162 0.931 . S
C145 N142 1.311 . S
C145 N146 1.347 . S
C145 H156 0.929 . S
N146 C144 1.375 . S
N146 C145 1.347 . S
C147 C150 1.365 . S
C147 N152 1.328 . S
C147 H153 0.929 . S
C148 C149 1.362 . S
C148 C151 1.378 . S
C148 H163 0.929 . S
C149 C148 1.362 . S
C149 C150 1.366 . S
C150 C147 1.365 . S
C150 C149 1.366 . S
C150 H164 0.930 . S
C151 C148 1.378 . S
C151 N152 1.315 . S
C151 H154 0.930 . S
N152 Co132 2.194 . S
N152 C147 1.328 . S
N152 C151 1.315 . S
H153 C147 0.929 . S
H154 C151 0.930 . S
H155 C143 0.929 . S
H156 C145 0.929 . S
O157 Co132 2.351 . S
O157 C160 1.244 . S
O158 Co132 2.155 . S
O158 C160 1.240 . S
O159 Co132 2.096 . S
O159 C140 1.247 . S
C160 O157 1.244 . S
C160 O158 1.240 . S
H161 C135 0.931 . S
H162 C144 0.931 . S
H163 C148 0.929 . S
H164 C150 0.930 . S
Co165 N169 2.146 1_545 S
Co165 N175 2.129 . S
Co165 N185 2.193 1_545 S
Co165 O190 2.359 . S
Co165 O191 2.160 . S
Co165 O192 2.090 1_545 S
C166 N169 1.301 1_545 S
C166 N170 1.328 1_545 S
C166 H171 0.930 . S
C167 C168 1.333 . S
C167 N169 1.317 . S
C167 H172 0.930 . S
C168 C167 1.333 . S
C168 N170 1.350 . S
C168 H194 0.931 . S
N169 Co165 2.146 1_565 S
N169 C166 1.301 1_565 S
N169 C167 1.317 . S
N170 C166 1.328 1_565 S
N170 C168 1.350 . S
H171 C166 0.930 . S
H172 C167 0.930 . S
C173 O174 1.224 . S
C173 O192 1.247 . S
O174 C173 1.224 . S
N175 Co165 2.129 . S
N175 C176 1.355 . S
N175 C178 1.311 1_545 S
C176 N175 1.355 . S
C176 C177 1.363 . S
C176 H188 0.929 . S
C177 C176 1.363 . S
C177 N179 1.375 1_545 S
C177 H195 0.931 . S
C178 N175 1.311 1_565 S
C178 N179 1.347 . S
C178 H189 0.929 . S
N179 C177 1.375 1_565 S
N179 C178 1.347 . S
C180 C183 1.365 . S
C180 N185 1.328 1_545 S
C180 H186 0.929 . S
C181 C182 1.362 . S
C181 C184 1.378 . S
C181 H196 0.929 . S
C182 C181 1.362 . S
C182 C183 1.366 1_565 S
C183 C180 1.365 . S
C183 C182 1.366 1_545 S
C183 H197 0.930 . S
C184 C181 1.378 . S
C184 N185 1.315 . S
C184 H187 0.930 . S
N185 Co165 2.193 1_565 S
N185 C180 1.328 1_565 S
N185 C184 1.315 . S
H186 C180 0.929 . S
H187 C184 0.930 . S
H188 C176 0.929 . S
H189 C178 0.929 . S
O190 Co165 2.359 . S
O190 C193 1.244 . S
O191 Co165 2.160 . S
O191 C193 1.240 . S
O192 Co165 2.090 1_565 S
O192 C173 1.247 . S
C193 O190 1.244 . S
C193 O191 1.240 . S
H194 C168 0.931 . S
H195 C177 0.931 . S
H196 C181 0.929 . S
H197 C183 0.930 . S
Co198 N202 2.148 . S
Co198 N208 2.128 . S
Co198 N218 2.194 . S
Co198 O223 2.351 . S
Co198 O224 2.155 . S
Co198 O225 2.096 . S
C199 N202 1.301 . S
C199 N203 1.328 . S
C199 H204 0.930 . S
C200 C201 1.333 . S
C200 N202 1.317 . S
C200 H205 0.930 . S
C201 C200 1.333 . S
C201 N203 1.350 . S
C201 H227 0.931 . S
N202 Co198 2.148 . S
N202 C199 1.301 . S
N202 C200 1.317 . S
N203 C199 1.328 . S
N203 C201 1.350 . S
H204 C199 0.930 . S
H205 C200 0.930 . S
C206 O207 1.224 . S
C206 O225 1.247 . S
O207 C206 1.224 . S
N208 Co198 2.128 . S
N208 C209 1.355 . S
N208 C211 1.311 . S
C209 N208 1.355 . S
C209 C210 1.363 . S
C209 H221 0.929 . S
C210 C209 1.363 . S
C210 N212 1.375 . S
C210 H228 0.931 . S
C211 N208 1.311 . S
C211 N212 1.347 . S
C211 H222 0.929 . S
N212 C210 1.375 . S
N212 C211 1.347 . S
C213 C216 1.365 . S
C213 N218 1.328 . S
C213 H219 0.929 . S
C214 C215 1.362 . S
C214 C217 1.378 . S
C214 H229 0.929 . S
C215 C214 1.362 . S
C215 C216 1.366 . S
C216 C213 1.365 . S
C216 C215 1.366 . S
C216 H230 0.930 . S
C217 C214 1.378 . S
C217 N218 1.315 . S
C217 H220 0.930 . S
N218 Co198 2.194 . S
N218 C213 1.328 . S
N218 C217 1.315 . S
H219 C213 0.929 . S
H220 C217 0.930 . S
H221 C209 0.929 . S
H222 C211 0.929 . S
O223 Co198 2.351 . S
O223 C226 1.244 . S
O224 Co198 2.155 . S
O224 C226 1.240 . S
O225 Co198 2.096 . S
O225 C206 1.247 . S
C226 O223 1.244 . S
C226 O224 1.240 . S
H227 C201 0.931 . S
H228 C210 0.931 . S
H229 C214 0.929 . S
H230 C216 0.930 . S
Co231 N235 2.146 1_565 S
Co231 N241 2.129 . S
Co231 N251 2.193 1_565 S
Co231 O256 2.358 . S
Co231 O257 2.160 . S
Co231 O258 2.090 1_565 S
C232 N235 1.301 1_565 S
C232 N236 1.328 1_565 S
C232 H237 0.930 . S
C233 C234 1.333 . S
C233 N235 1.317 . S
C233 H238 0.930 . S
C234 C233 1.333 . S
C234 N236 1.350 . S
C234 H260 0.931 . S
N235 Co231 2.146 1_545 S
N235 C232 1.301 1_545 S
N235 C233 1.317 . S
N236 C232 1.328 1_545 S
N236 C234 1.350 . S
H237 C232 0.930 . S
H238 C233 0.930 . S
C239 O240 1.224 . S
C239 O258 1.247 . S
O240 C239 1.224 . S
N241 Co231 2.129 . S
N241 C242 1.355 . S
N241 C244 1.311 1_565 S
C242 N241 1.355 . S
C242 C243 1.363 . S
C242 H254 0.929 . S
C243 C242 1.363 . S
C243 N245 1.375 1_565 S
C243 H261 0.931 . S
C244 N241 1.311 1_545 S
C244 N245 1.347 . S
C244 H255 0.929 . S
N245 C243 1.375 1_545 S
N245 C244 1.347 . S
C246 C249 1.365 . S
C246 N251 1.328 1_565 S
C246 H252 0.929 . S
C247 C248 1.362 . S
C247 C250 1.378 . S
C247 H262 0.929 . S
C248 C247 1.362 . S
C248 C249 1.366 1_545 S
C249 C246 1.365 . S
C249 C248 1.366 1_565 S
C249 H263 0.930 . S
C250 C247 1.378 . S
C250 N251 1.315 . S
C250 H253 0.930 . S
N251 Co231 2.193 1_545 S
N251 C246 1.328 1_545 S
N251 C250 1.315 . S
H252 C246 0.929 . S
H253 C250 0.930 . S
H254 C242 0.929 . S
H255 C244 0.929 . S
O256 Co231 2.358 . S
O256 C259 1.244 . S
O257 Co231 2.160 . S
O257 C259 1.240 . S
O258 Co231 2.090 1_545 S
O258 C239 1.247 . S
C259 O256 1.244 . S
C259 O257 1.240 . S
H260 C234 0.931 . S
H261 C243 0.931 . S
H262 C247 0.929 . S
H263 C249 0.930 . S
Co264 N268 2.148 . S
Co264 N274 2.128 . S
Co264 N284 2.194 . S
Co264 O289 2.351 . S
Co264 O290 2.155 . S
Co264 O291 2.096 . S
C265 N268 1.301 1_554 S
C265 N269 1.328 . S
C265 H270 0.930 . S
C266 C267 1.333 . S
C266 N268 1.317 1_554 S
C266 H271 0.930 1_554 S
C267 C266 1.333 . S
C267 N269 1.350 . S
C267 H293 0.931 . S
N268 Co264 2.148 . S
N268 C265 1.301 1_556 S
N268 C266 1.317 1_556 S
N269 C265 1.328 . S
N269 C267 1.350 . S
H270 C265 0.930 . S
H271 C266 0.930 1_556 S
C272 O273 1.224 . S
C272 O291 1.247 . S
O273 C272 1.224 . S
N274 Co264 2.128 . S
N274 C275 1.355 . S
N274 C277 1.311 . S
C275 N274 1.355 . S
C275 C276 1.363 . S
C275 H287 0.929 . S
C276 C275 1.363 . S
C276 N278 1.375 . S
C276 H294 0.931 . S
C277 N274 1.311 . S
C277 N278 1.347 . S
C277 H288 0.929 . S
N278 C276 1.375 . S
N278 C277 1.347 . S
C279 C282 1.365 . S
C279 N284 1.328 . S
C279 H285 0.929 . S
C280 C281 1.362 . S
C280 C283 1.378 . S
C280 H295 0.929 . S
C281 C280 1.362 . S
C281 C282 1.366 . S
C282 C279 1.365 . S
C282 C281 1.366 . S
C282 H296 0.930 . S
C283 C280 1.378 . S
C283 N284 1.315 . S
C283 H286 0.930 . S
N284 Co264 2.194 . S
N284 C279 1.328 . S
N284 C283 1.315 . S
H285 C279 0.929 . S
H286 C283 0.930 . S
H287 C275 0.929 . S
H288 C277 0.929 . S
O289 Co264 2.351 . S
O289 C292 1.244 . S
O290 Co264 2.155 . S
O290 C292 1.240 . S
O291 Co264 2.096 . S
O291 C272 1.247 . S
C292 O289 1.244 . S
C292 O290 1.240 . S
H293 C267 0.931 . S
H294 C276 0.931 . S
H295 C280 0.929 . S
H296 C282 0.930 . S
Co297 N301 2.146 1_565 S
Co297 N307 2.129 . S
Co297 N317 2.193 1_565 S
Co297 O322 2.358 . S
Co297 O323 2.160 . S
Co297 O324 2.090 1_565 S
C298 N301 1.301 1_565 S
C298 N302 1.328 1_565 S
C298 H303 0.930 . S
C299 C300 1.333 . S
C299 N301 1.317 . S
C299 H304 0.930 . S
C300 C299 1.333 . S
C300 N302 1.350 . S
C300 H326 0.931 . S
N301 Co297 2.146 1_545 S
N301 C298 1.301 1_545 S
N301 C299 1.317 . S
N302 C298 1.328 1_545 S
N302 C300 1.350 . S
H303 C298 0.930 . S
H304 C299 0.930 . S
C305 O306 1.224 . S
C305 O324 1.247 . S
O306 C305 1.224 . S
N307 Co297 2.129 . S
N307 C308 1.355 . S
N307 C310 1.311 1_565 S
C308 N307 1.355 . S
C308 C309 1.363 . S
C308 H320 0.929 . S
C309 C308 1.363 . S
C309 N311 1.375 1_565 S
C309 H327 0.931 . S
C310 N307 1.311 1_545 S
C310 N311 1.347 . S
C310 H321 0.929 . S
N311 C309 1.375 1_545 S
N311 C310 1.347 . S
C312 C315 1.365 . S
C312 N317 1.328 1_565 S
C312 H318 0.929 . S
C313 C314 1.362 . S
C313 C316 1.378 . S
C313 H328 0.929 . S
C314 C313 1.362 . S
C314 C315 1.366 1_545 S
C315 C312 1.365 . S
C315 C314 1.366 1_565 S
C315 H329 0.930 . S
C316 C313 1.378 . S
C316 N317 1.315 . S
C316 H319 0.930 . S
N317 Co297 2.193 1_545 S
N317 C312 1.328 1_545 S
N317 C316 1.315 . S
H318 C312 0.929 . S
H319 C316 0.930 . S
H320 C308 0.929 . S
H321 C310 0.929 . S
O322 Co297 2.358 . S
O322 C325 1.244 . S
O323 Co297 2.160 . S
O323 C325 1.240 . S
O324 Co297 2.090 1_545 S
O324 C305 1.247 . S
C325 O322 1.244 . S
C325 O323 1.240 . S
H326 C300 0.931 . S
H327 C309 0.931 . S
H328 C313 0.929 . S
H329 C315 0.930 . S
Co330 N334 2.148 . S
Co330 N340 2.128 . S
Co330 N350 2.194 . S
Co330 O355 2.351 . S
Co330 O356 2.155 . S
Co330 O357 2.096 . S
C331 N334 1.301 . S
C331 N335 1.328 . S
C331 H336 0.930 . S
C332 C333 1.333 . S
C332 N334 1.317 . S
C332 H337 0.930 . S
C333 C332 1.333 . S
C333 N335 1.350 . S
C333 H359 0.931 . S
N334 Co330 2.148 . S
N334 C331 1.301 . S
N334 C332 1.317 . S
N335 C331 1.328 . S
N335 C333 1.350 . S
H336 C331 0.930 . S
H337 C332 0.930 . S
C338 O339 1.224 . S
C338 O357 1.247 . S
O339 C338 1.224 . S
N340 Co330 2.128 . S
N340 C341 1.355 . S
N340 C343 1.311 . S
C341 N340 1.355 . S
C341 C342 1.363 . S
C341 H353 0.929 . S
C342 C341 1.363 . S
C342 N344 1.375 . S
C342 H360 0.931 . S
C343 N340 1.311 . S
C343 N344 1.347 . S
C343 H354 0.929 . S
N344 C342 1.375 . S
N344 C343 1.347 . S
C345 C348 1.365 . S
C345 N350 1.328 . S
C345 H351 0.929 . S
C346 C347 1.362 . S
C346 C349 1.378 . S
C346 H361 0.929 . S
C347 C346 1.362 . S
C347 C348 1.366 . S
C348 C345 1.365 . S
C348 C347 1.366 . S
C348 H362 0.930 . S
C349 C346 1.378 . S
C349 N350 1.315 . S
C349 H352 0.930 . S
N350 Co330 2.194 . S
N350 C345 1.328 . S
N350 C349 1.315 . S
H351 C345 0.929 . S
H352 C349 0.930 . S
H353 C341 0.929 . S
H354 C343 0.929 . S
O355 Co330 2.351 . S
O355 C358 1.244 . S
O356 Co330 2.155 . S
O356 C358 1.240 . S
O357 Co330 2.096 . S
O357 C338 1.247 . S
C358 O355 1.244 . S
C358 O356 1.240 . S
H359 C333 0.931 . S
H360 C342 0.931 . S
H361 C346 0.929 . S
H362 C348 0.930 . S
Co363 N367 2.146 1_545 S
Co363 N373 2.129 . S
Co363 N383 2.193 1_545 S
Co363 O388 2.359 . S
Co363 O389 2.160 . S
Co363 O390 2.090 1_545 S
C364 N367 1.301 1_545 S
C364 N368 1.328 1_545 S
C364 H369 0.930 . S
C365 C366 1.333 . S
C365 N367 1.317 . S
C365 H370 0.930 . S
C366 C365 1.333 . S
C366 N368 1.350 . S
C366 H392 0.931 . S
N367 Co363 2.146 1_565 S
N367 C364 1.301 1_565 S
N367 C365 1.317 . S
N368 C364 1.328 1_565 S
N368 C366 1.350 . S
H369 C364 0.930 . S
H370 C365 0.930 . S
C371 O372 1.224 . S
C371 O390 1.247 . S
O372 C371 1.224 . S
N373 Co363 2.129 . S
N373 C374 1.355 . S
N373 C376 1.311 1_545 S
C374 N373 1.355 . S
C374 C375 1.363 . S
C374 H386 0.929 . S
C375 C374 1.363 . S
C375 N377 1.375 1_545 S
C375 H393 0.931 . S
C376 N373 1.311 1_565 S
C376 N377 1.347 . S
C376 H387 0.929 . S
N377 C375 1.375 1_565 S
N377 C376 1.347 . S
C378 C381 1.365 . S
C378 N383 1.328 1_545 S
C378 H384 0.929 . S
C379 C380 1.362 . S
C379 C382 1.378 . S
C379 H394 0.929 . S
C380 C379 1.362 . S
C380 C381 1.366 1_565 S
C381 C378 1.365 . S
C381 C380 1.366 1_545 S
C381 H395 0.930 . S
C382 C379 1.378 . S
C382 N383 1.315 . S
C382 H385 0.930 . S
N383 Co363 2.193 1_565 S
N383 C378 1.328 1_565 S
N383 C382 1.315 . S
H384 C378 0.929 . S
H385 C382 0.930 . S
H386 C374 0.929 . S
H387 C376 0.929 . S
O388 Co363 2.359 . S
O388 C391 1.244 . S
O389 Co363 2.160 . S
O389 C391 1.240 . S
O390 Co363 2.090 1_565 S
O390 C371 1.247 . S
C391 O388 1.244 . S
C391 O389 1.240 . S
H392 C366 0.931 . S
H393 C375 0.931 . S
H394 C379 0.929 . S
H395 C381 0.930 . S
Co396 N400 2.148 . S
Co396 N406 2.128 . S
Co396 N416 2.194 . S
Co396 O421 2.351 . S
Co396 O422 2.155 . S
Co396 O423 2.096 . S
C397 N400 1.301 1_556 S
C397 N401 1.328 . S
C397 H402 0.930 . S
C398 C399 1.333 . S
C398 N400 1.317 1_556 S
C398 H403 0.930 1_556 S
C399 C398 1.333 . S
C399 N401 1.350 . S
C399 H425 0.931 . S
N400 Co396 2.148 . S
N400 C397 1.301 1_554 S
N400 C398 1.317 1_554 S
N401 C397 1.328 . S
N401 C399 1.350 . S
H402 C397 0.930 . S
H403 C398 0.930 1_554 S
C404 O405 1.224 . S
C404 O423 1.247 . S
O405 C404 1.224 . S
N406 Co396 2.128 . S
N406 C407 1.355 . S
N406 C409 1.311 . S
C407 N406 1.355 . S
C407 C408 1.363 . S
C407 H419 0.929 . S
C408 C407 1.363 . S
C408 N410 1.375 . S
C408 H426 0.931 . S
C409 N406 1.311 . S
C409 N410 1.347 . S
C409 H420 0.929 . S
N410 C408 1.375 . S
N410 C409 1.347 . S
C411 C414 1.365 . S
C411 N416 1.328 . S
C411 H417 0.929 . S
C412 C413 1.362 . S
C412 C415 1.378 . S
C412 H427 0.929 . S
C413 C412 1.362 . S
C413 C414 1.366 . S
C414 C411 1.365 . S
C414 C413 1.366 . S
C414 H428 0.930 . S
C415 C412 1.378 . S
C415 N416 1.315 . S
C415 H418 0.930 . S
N416 Co396 2.194 . S
N416 C411 1.328 . S
N416 C415 1.315 . S
H417 C411 0.929 . S
H418 C415 0.930 . S
H419 C407 0.929 . S
H420 C409 0.929 . S
O421 Co396 2.351 . S
O421 C424 1.244 . S
O422 Co396 2.155 . S
O422 C424 1.240 . S
O423 Co396 2.096 . S
O423 C404 1.247 . S
C424 O421 1.244 . S
C424 O422 1.240 . S
H425 C399 0.931 . S
H426 C408 0.931 . S
H427 C412 0.929 . S
H428 C414 0.930 . S
Co429 N433 2.146 1_565 S
Co429 N439 2.129 . S
Co429 N449 2.193 1_565 S
Co429 O454 2.359 . S
Co429 O455 2.160 . S
Co429 O456 2.090 1_565 S
C430 N433 1.301 1_565 S
C430 N434 1.328 1_565 S
C430 H435 0.930 . S
C431 C432 1.333 . S
C431 N433 1.317 . S
C431 H436 0.930 . S
C432 C431 1.333 . S
C432 N434 1.350 . S
C432 H458 0.931 . S
N433 Co429 2.146 1_545 S
N433 C430 1.301 1_545 S
N433 C431 1.317 . S
N434 C430 1.328 1_545 S
N434 C432 1.350 . S
H435 C430 0.930 . S
H436 C431 0.930 . S
C437 O438 1.224 . S
C437 O456 1.247 . S
O438 C437 1.224 . S
N439 Co429 2.129 . S
N439 C440 1.355 . S
N439 C442 1.311 1_565 S
C440 N439 1.355 . S
C440 C441 1.363 . S
C440 H452 0.929 . S
C441 C440 1.363 . S
C441 N443 1.375 1_565 S
C441 H459 0.931 . S
C442 N439 1.311 1_545 S
C442 N443 1.347 . S
C442 H453 0.929 . S
N443 C441 1.375 1_545 S
N443 C442 1.347 . S
C444 C447 1.365 . S
C444 N449 1.328 1_565 S
C444 H450 0.929 . S
C445 C446 1.362 . S
C445 C448 1.378 . S
C445 H460 0.929 . S
C446 C445 1.362 . S
C446 C447 1.366 1_545 S
C447 C444 1.365 . S
C447 C446 1.366 1_565 S
C447 H461 0.930 . S
C448 C445 1.378 . S
C448 N449 1.315 . S
C448 H451 0.930 . S
N449 Co429 2.193 1_545 S
N449 C444 1.328 1_545 S
N449 C448 1.315 . S
H450 C444 0.929 . S
H451 C448 0.930 . S
H452 C440 0.929 . S
H453 C442 0.929 . S
O454 Co429 2.359 . S
O454 C457 1.244 . S
O455 Co429 2.160 . S
O455 C457 1.240 . S
O456 Co429 2.090 1_545 S
O456 C437 1.247 . S
C457 O454 1.244 . S
C457 O455 1.240 . S
H458 C432 0.931 . S
H459 C441 0.931 . S
H460 C445 0.929 . S
H461 C447 0.930 . S
Co462 N466 2.148 . S
Co462 N472 2.128 . S
Co462 N482 2.194 . S
Co462 O487 2.351 . S
Co462 O488 2.155 . S
Co462 O489 2.096 . S
C463 N466 1.301 . S
C463 N467 1.328 . S
C463 H468 0.930 . S
C464 C465 1.333 . S
C464 N466 1.317 . S
C464 H469 0.930 . S
C465 C464 1.333 . S
C465 N467 1.350 . S
C465 H491 0.931 . S
N466 Co462 2.148 . S
N466 C463 1.301 . S
N466 C464 1.317 . S
N467 C463 1.328 . S
N467 C465 1.350 . S
H468 C463 0.930 . S
H469 C464 0.930 . S
C470 O471 1.224 . S
C470 O489 1.247 . S
O471 C470 1.224 . S
N472 Co462 2.128 . S
N472 C473 1.355 . S
N472 C475 1.311 . S
C473 N472 1.355 . S
C473 C474 1.363 . S
C473 H485 0.929 . S
C474 C473 1.363 . S
C474 N476 1.375 . S
C474 H492 0.931 . S
C475 N472 1.311 . S
C475 N476 1.347 . S
C475 H486 0.929 . S
N476 C474 1.375 . S
N476 C475 1.347 . S
C477 C480 1.365 . S
C477 N482 1.328 . S
C477 H483 0.929 . S
C478 C479 1.362 . S
C478 C481 1.378 . S
C478 H493 0.929 . S
C479 C478 1.362 . S
C479 C480 1.366 . S
C480 C477 1.365 . S
C480 C479 1.366 . S
C480 H494 0.930 . S
C481 C478 1.378 . S
C481 N482 1.315 . S
C481 H484 0.930 . S
N482 Co462 2.194 . S
N482 C477 1.328 . S
N482 C481 1.315 . S
H483 C477 0.929 . S
H484 C481 0.930 . S
H485 C473 0.929 . S
H486 C475 0.929 . S
O487 Co462 2.351 . S
O487 C490 1.244 . S
O488 Co462 2.155 . S
O488 C490 1.240 . S
O489 Co462 2.096 . S
O489 C470 1.247 . S
C490 O487 1.244 . S
C490 O488 1.240 . S
H491 C465 0.931 . S
H492 C474 0.931 . S
H493 C478 0.929 . S
H494 C480 0.930 . S
Co495 N499 2.146 1_545 S
Co495 N505 2.129 . S
Co495 N515 2.193 1_545 S
Co495 O520 2.358 . S
Co495 O521 2.160 . S
Co495 O522 2.090 1_545 S
C496 N499 1.301 1_545 S
C496 N500 1.328 1_545 S
C496 H501 0.930 . S
C497 C498 1.333 . S
C497 N499 1.317 . S
C497 H502 0.930 . S
C498 C497 1.333 . S
C498 N500 1.350 . S
C498 H524 0.931 . S
N499 Co495 2.146 1_565 S
N499 C496 1.301 1_565 S
N499 C497 1.317 . S
N500 C496 1.328 1_565 S
N500 C498 1.350 . S
H501 C496 0.930 . S
H502 C497 0.930 . S
C503 O504 1.224 . S
C503 O522 1.247 . S
O504 C503 1.224 . S
N505 Co495 2.129 . S
N505 C506 1.355 . S
N505 C508 1.311 1_545 S
C506 N505 1.355 . S
C506 C507 1.363 . S
C506 H518 0.929 . S
C507 C506 1.363 . S
C507 N509 1.375 1_545 S
C507 H525 0.931 . S
C508 N505 1.311 1_565 S
C508 N509 1.347 . S
C508 H519 0.929 . S
N509 C507 1.375 1_565 S
N509 C508 1.347 . S
C510 C513 1.365 . S
C510 N515 1.328 1_545 S
C510 H516 0.929 . S
C511 C512 1.362 . S
C511 C514 1.378 . S
C511 H526 0.929 . S
C512 C511 1.362 . S
C512 C513 1.366 1_565 S
C513 C510 1.365 . S
C513 C512 1.366 1_545 S
C513 H527 0.930 . S
C514 C511 1.378 . S
C514 N515 1.315 . S
C514 H517 0.930 . S
N515 Co495 2.193 1_565 S
N515 C510 1.328 1_565 S
N515 C514 1.315 . S
H516 C510 0.929 . S
H517 C514 0.930 . S
H518 C506 0.929 . S
H519 C508 0.929 . S
O520 Co495 2.358 . S
O520 C523 1.244 . S
O521 Co495 2.160 . S
O521 C523 1.240 . S
O522 Co495 2.090 1_565 S
O522 C503 1.247 . S
C523 O520 1.244 . S
C523 O521 1.240 . S
H524 C498 0.931 . S
H525 C507 0.931 . S
H526 C511 0.929 . S
H527 C513 0.930 . S
Co528 N532 2.148 . S
Co528 N538 2.128 . S
Co528 N548 2.194 . S
Co528 O553 2.351 . S
Co528 O554 2.155 . S
Co528 O555 2.096 . S
C529 N532 1.301 . S
C529 N533 1.328 . S
C529 H534 0.930 . S
C530 C531 1.333 . S
C530 N532 1.317 . S
C530 H535 0.930 . S
C531 C530 1.333 . S
C531 N533 1.350 . S
C531 H557 0.931 . S
N532 Co528 2.148 . S
N532 C529 1.301 . S
N532 C530 1.317 . S
N533 C529 1.328 . S
N533 C531 1.350 . S
H534 C529 0.930 . S
H535 C530 0.930 . S
C536 O537 1.224 . S
C536 O555 1.247 . S
O537 C536 1.224 . S
N538 Co528 2.128 . S
N538 C539 1.355 . S
N538 C541 1.311 . S
C539 N538 1.355 . S
C539 C540 1.363 . S
C539 H551 0.929 . S
C540 C539 1.363 . S
C540 N542 1.375 . S
C540 H558 0.931 . S
C541 N538 1.311 . S
C541 N542 1.347 . S
C541 H552 0.929 . S
N542 C540 1.375 . S
N542 C541 1.347 . S
C543 C546 1.365 . S
C543 N548 1.328 . S
C543 H549 0.929 . S
C544 C545 1.362 . S
C544 C547 1.378 . S
C544 H559 0.929 . S
C545 C544 1.362 . S
C545 C546 1.366 . S
C546 C543 1.365 . S
C546 C545 1.366 . S
C546 H560 0.930 . S
C547 C544 1.378 . S
C547 N548 1.315 . S
C547 H550 0.930 . S
N548 Co528 2.194 . S
N548 C543 1.328 . S
N548 C547 1.315 . S
H549 C543 0.929 . S
H550 C547 0.930 . S
H551 C539 0.929 . S
H552 C541 0.929 . S
O553 Co528 2.351 . S
O553 C556 1.244 . S
O554 Co528 2.155 . S
O554 C556 1.240 . S
O555 Co528 2.096 . S
O555 C536 1.247 . S
C556 O553 1.244 . S
C556 O554 1.240 . S
H557 C531 0.931 . S
H558 C540 0.931 . S
H559 C544 0.929 . S
H560 C546 0.930 . S
Co561 N565 2.148 . S
Co561 N571 2.128 . S
Co561 N581 2.194 . S
Co561 O586 2.351 . S
Co561 O587 2.155 . S
Co561 O588 2.096 . S
C562 N565 1.301 . S
C562 N566 1.328 . S
C562 H567 0.930 . S
C563 C564 1.333 . S
C563 N565 1.317 . S
C563 H568 0.930 . S
C564 C563 1.333 . S
C564 N566 1.350 . S
C564 H590 0.931 . S
N565 Co561 2.148 . S
N565 C562 1.301 . S
N565 C563 1.317 . S
N566 C562 1.328 . S
N566 C564 1.350 . S
H567 C562 0.930 . S
H568 C563 0.930 . S
C569 O570 1.224 . S
C569 O588 1.247 . S
O570 C569 1.224 . S
N571 Co561 2.128 . S
N571 C572 1.355 . S
N571 C574 1.311 . S
C572 N571 1.355 . S
C572 C573 1.363 . S
C572 H584 0.929 . S
C573 C572 1.363 . S
C573 N575 1.375 . S
C573 H591 0.931 . S
C574 N571 1.311 . S
C574 N575 1.347 . S
C574 H585 0.929 . S
N575 C573 1.375 . S
N575 C574 1.347 . S
C576 C579 1.365 . S
C576 N581 1.328 . S
C576 H582 0.929 . S
C577 C578 1.362 . S
C577 C580 1.378 . S
C577 H592 0.929 . S
C578 C577 1.362 . S
C578 C579 1.366 . S
C579 C576 1.365 . S
C579 C578 1.366 . S
C579 H593 0.930 . S
C580 C577 1.378 . S
C580 N581 1.315 . S
C580 H583 0.930 . S
N581 Co561 2.194 . S
N581 C576 1.328 . S
N581 C580 1.315 . S
H582 C576 0.929 . S
H583 C580 0.930 . S
H584 C572 0.929 . S
H585 C574 0.929 . S
O586 Co561 2.351 . S
O586 C589 1.244 . S
O587 Co561 2.155 . S
O587 C589 1.240 . S
O588 Co561 2.096 . S
O588 C569 1.247 . S
C589 O586 1.244 . S
C589 O587 1.240 . S
H590 C564 0.931 . S
H591 C573 0.931 . S
H592 C577 0.929 . S
H593 C579 0.930 . S
Co594 N598 2.148 . S
Co594 N604 2.128 . S
Co594 N614 2.194 . S
Co594 O619 2.351 . S
Co594 O620 2.155 . S
Co594 O621 2.096 . S
C595 N598 1.301 1_556 S
C595 N599 1.328 . S
C595 H600 0.930 . S
C596 C597 1.333 . S
C596 N598 1.317 1_556 S
C596 H601 0.930 1_556 S
C597 C596 1.333 . S
C597 N599 1.350 . S
C597 H623 0.931 . S
N598 Co594 2.148 . S
N598 C595 1.301 1_554 S
N598 C596 1.317 1_554 S
N599 C595 1.328 . S
N599 C597 1.350 . S
H600 C595 0.930 . S
H601 C596 0.930 1_554 S
C602 O603 1.224 . S
C602 O621 1.247 . S
O603 C602 1.224 . S
N604 Co594 2.128 . S
N604 C605 1.355 . S
N604 C607 1.311 . S
C605 N604 1.355 . S
C605 C606 1.363 . S
C605 H617 0.929 . S
C606 C605 1.363 . S
C606 N608 1.375 . S
C606 H624 0.931 . S
C607 N604 1.311 . S
C607 N608 1.347 . S
C607 H618 0.929 . S
N608 C606 1.375 . S
N608 C607 1.347 . S
C609 C612 1.365 . S
C609 N614 1.328 . S
C609 H615 0.929 . S
C610 C611 1.362 . S
C610 C613 1.378 . S
C610 H625 0.929 . S
C611 C610 1.362 . S
C611 C612 1.366 . S
C612 C609 1.365 . S
C612 C611 1.366 . S
C612 H626 0.930 . S
C613 C610 1.378 . S
C613 N614 1.315 . S
C613 H616 0.930 . S
N614 Co594 2.194 . S
N614 C609 1.328 . S
N614 C613 1.315 . S
H615 C609 0.929 . S
H616 C613 0.930 . S
H617 C605 0.929 . S
H618 C607 0.929 . S
O619 Co594 2.351 . S
O619 C622 1.244 . S
O620 Co594 2.155 . S
O620 C622 1.240 . S
O621 Co594 2.096 . S
O621 C602 1.247 . S
C622 O619 1.244 . S
C622 O620 1.240 . S
H623 C597 0.931 . S
H624 C606 0.931 . S
H625 C610 0.929 . S
H626 C612 0.930 . S
Co627 N631 2.148 . S
Co627 N637 2.128 . S
Co627 N647 2.194 . S
Co627 O652 2.351 . S
Co627 O653 2.155 . S
Co627 O654 2.096 . S
C628 N631 1.301 . S
C628 N632 1.328 . S
C628 H633 0.930 . S
C629 C630 1.333 . S
C629 N631 1.317 . S
C629 H634 0.930 . S
C630 C629 1.333 . S
C630 N632 1.350 . S
C630 H656 0.931 . S
N631 Co627 2.148 . S
N631 C628 1.301 . S
N631 C629 1.317 . S
N632 C628 1.328 . S
N632 C630 1.350 . S
H633 C628 0.930 . S
H634 C629 0.930 . S
C635 O636 1.224 . S
C635 O654 1.247 . S
O636 C635 1.224 . S
N637 Co627 2.128 . S
N637 C638 1.355 . S
N637 C640 1.311 . S
C638 N637 1.355 . S
C638 C639 1.363 . S
C638 H650 0.929 . S
C639 C638 1.363 . S
C639 N641 1.375 . S
C639 H657 0.931 . S
C640 N637 1.311 . S
C640 N641 1.347 . S
C640 H651 0.929 . S
N641 C639 1.375 . S
N641 C640 1.347 . S
C642 C645 1.365 . S
C642 N647 1.328 . S
C642 H648 0.929 . S
C643 C644 1.362 . S
C643 C646 1.378 . S
C643 H658 0.929 . S
C644 C643 1.362 . S
C644 C645 1.366 . S
C645 C642 1.365 . S
C645 C644 1.366 . S
C645 H659 0.930 . S
C646 C643 1.378 . S
C646 N647 1.315 . S
C646 H649 0.930 . S
N647 Co627 2.194 . S
N647 C642 1.328 . S
N647 C646 1.315 . S
H648 C642 0.929 . S
H649 C646 0.930 . S
H650 C638 0.929 . S
H651 C640 0.929 . S
O652 Co627 2.351 . S
O652 C655 1.244 . S
O653 Co627 2.155 . S
O653 C655 1.240 . S
O654 Co627 2.096 . S
O654 C635 1.247 . S
C655 O652 1.244 . S
C655 O653 1.240 . S
H656 C630 0.931 . S
H657 C639 0.931 . S
H658 C643 0.929 . S
H659 C645 0.930 . S
Co660 N664 2.148 . S
Co660 N670 2.128 . S
Co660 N680 2.194 . S
Co660 O685 2.351 . S
Co660 O686 2.155 . S
Co660 O687 2.096 . S
C661 N664 1.301 . S
C661 N665 1.328 . S
C661 H666 0.930 . S
C662 C663 1.333 . S
C662 N664 1.317 . S
C662 H667 0.930 . S
C663 C662 1.333 . S
C663 N665 1.350 . S
C663 H689 0.931 . S
N664 Co660 2.148 . S
N664 C661 1.301 . S
N664 C662 1.317 . S
N665 C661 1.328 . S
N665 C663 1.350 . S
H666 C661 0.930 . S
H667 C662 0.930 . S
C668 O669 1.224 . S
C668 O687 1.247 . S
O669 C668 1.224 . S
N670 Co660 2.128 . S
N670 C671 1.355 . S
N670 C673 1.311 . S
C671 N670 1.355 . S
C671 C672 1.363 . S
C671 H683 0.929 . S
C672 C671 1.363 . S
C672 N674 1.375 . S
C672 H690 0.931 . S
C673 N670 1.311 . S
C673 N674 1.347 . S
C673 H684 0.929 . S
N674 C672 1.375 . S
N674 C673 1.347 . S
C675 C678 1.365 . S
C675 N680 1.328 . S
C675 H681 0.929 . S
C676 C677 1.362 . S
C676 C679 1.378 . S
C676 H691 0.929 . S
C677 C676 1.362 . S
C677 C678 1.366 . S
C678 C675 1.365 . S
C678 C677 1.366 . S
C678 H692 0.930 . S
C679 C676 1.378 . S
C679 N680 1.315 . S
C679 H682 0.930 . S
N680 Co660 2.194 . S
N680 C675 1.328 . S
N680 C679 1.315 . S
H681 C675 0.929 . S
H682 C679 0.930 . S
H683 C671 0.929 . S
H684 C673 0.929 . S
O685 Co660 2.351 . S
O685 C688 1.244 . S
O686 Co660 2.155 . S
O686 C688 1.240 . S
O687 Co660 2.096 . S
O687 C668 1.247 . S
C688 O685 1.244 . S
C688 O686 1.240 . S
H689 C663 0.931 . S
H690 C672 0.931 . S
H691 C676 0.929 . S
H692 C678 0.930 . S
Co693 N697 2.148 . S
Co693 N703 2.128 . S
Co693 N713 2.194 . S
Co693 O718 2.351 . S
Co693 O719 2.155 . S
Co693 O720 2.096 . S
C694 N697 1.301 . S
C694 N698 1.328 . S
C694 H699 0.930 . S
C695 C696 1.333 . S
C695 N697 1.317 . S
C695 H700 0.930 . S
C696 C695 1.333 . S
C696 N698 1.350 . S
C696 H722 0.931 . S
N697 Co693 2.148 . S
N697 C694 1.301 . S
N697 C695 1.317 . S
N698 C694 1.328 . S
N698 C696 1.350 . S
H699 C694 0.930 . S
H700 C695 0.930 . S
C701 O702 1.224 . S
C701 O720 1.247 . S
O702 C701 1.224 . S
N703 Co693 2.128 . S
N703 C704 1.355 . S
N703 C706 1.311 . S
C704 N703 1.355 . S
C704 C705 1.363 . S
C704 H716 0.929 . S
C705 C704 1.363 . S
C705 N707 1.375 . S
C705 H723 0.931 . S
C706 N703 1.311 . S
C706 N707 1.347 . S
C706 H717 0.929 . S
N707 C705 1.375 . S
N707 C706 1.347 . S
C708 C711 1.365 . S
C708 N713 1.328 . S
C708 H714 0.929 . S
C709 C710 1.362 . S
C709 C712 1.378 . S
C709 H724 0.929 . S
C710 C709 1.362 . S
C710 C711 1.366 . S
C711 C708 1.365 . S
C711 C710 1.366 . S
C711 H725 0.930 . S
C712 C709 1.378 . S
C712 N713 1.315 . S
C712 H715 0.930 . S
N713 Co693 2.194 . S
N713 C708 1.328 . S
N713 C712 1.315 . S
H714 C708 0.929 . S
H715 C712 0.930 . S
H716 C704 0.929 . S
H717 C706 0.929 . S
O718 Co693 2.351 . S
O718 C721 1.244 . S
O719 Co693 2.155 . S
O719 C721 1.240 . S
O720 Co693 2.096 . S
O720 C701 1.247 . S
C721 O718 1.244 . S
C721 O719 1.240 . S
H722 C696 0.931 . S
H723 C705 0.931 . S
H724 C709 0.929 . S
H725 C711 0.930 . S
Co726 N730 2.148 . S
Co726 N736 2.128 . S
Co726 N746 2.194 . S
Co726 O751 2.351 . S
Co726 O752 2.155 . S
Co726 O753 2.096 . S
C727 N730 1.301 1_554 S
C727 N731 1.328 . S
C727 H732 0.930 . S
C728 C729 1.333 . S
C728 N730 1.317 1_554 S
C728 H733 0.930 1_554 S
C729 C728 1.333 . S
C729 N731 1.350 . S
C729 H755 0.931 . S
N730 Co726 2.148 . S
N730 C727 1.301 1_556 S
N730 C728 1.317 1_556 S
N731 C727 1.328 . S
N731 C729 1.350 . S
H732 C727 0.930 . S
H733 C728 0.930 1_556 S
C734 O735 1.224 . S
C734 O753 1.247 . S
O735 C734 1.224 . S
N736 Co726 2.128 . S
N736 C737 1.355 . S
N736 C739 1.311 . S
C737 N736 1.355 . S
C737 C738 1.363 . S
C737 H749 0.929 . S
C738 C737 1.363 . S
C738 N740 1.375 . S
C738 H756 0.931 . S
C739 N736 1.311 . S
C739 N740 1.347 . S
C739 H750 0.929 . S
N740 C738 1.375 . S
N740 C739 1.347 . S
C741 C744 1.365 . S
C741 N746 1.328 . S
C741 H747 0.929 . S
C742 C743 1.362 . S
C742 C745 1.378 . S
C742 H757 0.929 . S
C743 C742 1.362 . S
C743 C744 1.366 . S
C744 C741 1.365 . S
C744 C743 1.366 . S
C744 H758 0.930 . S
C745 C742 1.378 . S
C745 N746 1.315 . S
C745 H748 0.930 . S
N746 Co726 2.194 . S
N746 C741 1.328 . S
N746 C745 1.315 . S
H747 C741 0.929 . S
H748 C745 0.930 . S
H749 C737 0.929 . S
H750 C739 0.929 . S
O751 Co726 2.351 . S
O751 C754 1.244 . S
O752 Co726 2.155 . S
O752 C754 1.240 . S
O753 Co726 2.096 . S
O753 C734 1.247 . S
C754 O751 1.244 . S
C754 O752 1.240 . S
H755 C729 0.931 . S
H756 C738 0.931 . S
H757 C742 0.929 . S
H758 C744 0.930 . S
Co759 N763 2.148 . S
Co759 N769 2.128 . S
Co759 N779 2.194 . S
Co759 O784 2.351 . S
Co759 O785 2.155 . S
Co759 O786 2.096 . S
C760 N763 1.301 . S
C760 N764 1.328 . S
C760 H765 0.930 . S
C761 C762 1.333 . S
C761 N763 1.317 . S
C761 H766 0.930 . S
C762 C761 1.333 . S
C762 N764 1.350 . S
C762 H788 0.931 . S
N763 Co759 2.148 . S
N763 C760 1.301 . S
N763 C761 1.317 . S
N764 C760 1.328 . S
N764 C762 1.350 . S
H765 C760 0.930 . S
H766 C761 0.930 . S
C767 O768 1.224 . S
C767 O786 1.247 . S
O768 C767 1.224 . S
N769 Co759 2.128 . S
N769 C770 1.355 . S
N769 C772 1.311 . S
C770 N769 1.355 . S
C770 C771 1.363 . S
C770 H782 0.929 . S
C771 C770 1.363 . S
C771 N773 1.375 . S
C771 H789 0.931 . S
C772 N769 1.311 . S
C772 N773 1.347 . S
C772 H783 0.929 . S
N773 C771 1.375 . S
N773 C772 1.347 . S
C774 C777 1.365 . S
C774 N779 1.328 . S
C774 H780 0.929 . S
C775 C776 1.362 . S
C775 C778 1.378 . S
C775 H790 0.929 . S
C776 C775 1.362 . S
C776 C777 1.366 . S
C777 C774 1.365 . S
C777 C776 1.366 . S
C777 H791 0.930 . S
C778 C775 1.378 . S
C778 N779 1.315 . S
C778 H781 0.930 . S
N779 Co759 2.194 . S
N779 C774 1.328 . S
N779 C778 1.315 . S
H780 C774 0.929 . S
H781 C778 0.930 . S
H782 C770 0.929 . S
H783 C772 0.929 . S
O784 Co759 2.351 . S
O784 C787 1.244 . S
O785 Co759 2.155 . S
O785 C787 1.240 . S
O786 Co759 2.096 . S
O786 C767 1.247 . S
C787 O784 1.244 . S
C787 O785 1.240 . S
H788 C762 0.931 . S
H789 C771 0.931 . S
H790 C775 0.929 . S
H791 C777 0.930 . S
Co792 N796 2.148 . S
Co792 N802 2.128 . S
Co792 N812 2.194 . S
Co792 O817 2.351 . S
Co792 O818 2.155 . S
Co792 O819 2.096 . S
C793 N796 1.301 . S
C793 N797 1.328 . S
C793 H798 0.930 . S
C794 C795 1.333 . S
C794 N796 1.317 . S
C794 H799 0.930 . S
C795 C794 1.333 . S
C795 N797 1.350 . S
C795 H821 0.931 . S
N796 Co792 2.148 . S
N796 C793 1.301 . S
N796 C794 1.317 . S
N797 C793 1.328 . S
N797 C795 1.350 . S
H798 C793 0.930 . S
H799 C794 0.930 . S
C800 O801 1.224 . S
C800 O819 1.247 . S
O801 C800 1.224 . S
N802 Co792 2.128 . S
N802 C803 1.355 . S
N802 C805 1.311 . S
C803 N802 1.355 . S
C803 C804 1.363 . S
C803 H815 0.929 . S
C804 C803 1.363 . S
C804 N806 1.375 . S
C804 H822 0.931 . S
C805 N802 1.311 . S
C805 N806 1.347 . S
C805 H816 0.929 . S
N806 C804 1.375 . S
N806 C805 1.347 . S
C807 C810 1.365 . S
C807 N812 1.328 . S
C807 H813 0.929 . S
C808 C809 1.362 . S
C808 C811 1.378 . S
C808 H823 0.929 . S
C809 C808 1.362 . S
C809 C810 1.366 . S
C810 C807 1.365 . S
C810 C809 1.366 . S
C810 H824 0.930 . S
C811 C808 1.378 . S
C811 N812 1.315 . S
C811 H814 0.930 . S
N812 Co792 2.194 . S
N812 C807 1.328 . S
N812 C811 1.315 . S
H813 C807 0.929 . S
H814 C811 0.930 . S
H815 C803 0.929 . S
H816 C805 0.929 . S
O817 Co792 2.351 . S
O817 C820 1.244 . S
O818 Co792 2.155 . S
O818 C820 1.240 . S
O819 Co792 2.096 . S
O819 C800 1.247 . S
C820 O817 1.244 . S
C820 O818 1.240 . S
H821 C795 0.931 . S
H822 C804 0.931 . S
H823 C808 0.929 . S
H824 C810 0.930 . S
Co825 N829 2.148 . S
Co825 N835 2.128 . S
Co825 N845 2.194 . S
Co825 O850 2.351 . S
Co825 O851 2.155 . S
Co825 O852 2.096 . S
C826 N829 1.301 . S
C826 N830 1.328 . S
C826 H831 0.930 . S
C827 C828 1.333 . S
C827 N829 1.317 . S
C827 H832 0.930 . S
C828 C827 1.333 . S
C828 N830 1.350 . S
C828 H854 0.931 . S
N829 Co825 2.148 . S
N829 C826 1.301 . S
N829 C827 1.317 . S
N830 C826 1.328 . S
N830 C828 1.350 . S
H831 C826 0.930 . S
H832 C827 0.930 . S
C833 O834 1.224 . S
C833 O852 1.247 . S
O834 C833 1.224 . S
N835 Co825 2.128 . S
N835 C836 1.355 . S
N835 C838 1.311 . S
C836 N835 1.355 . S
C836 C837 1.363 . S
C836 H848 0.929 . S
C837 C836 1.363 . S
C837 N839 1.375 . S
C837 H855 0.931 . S
C838 N835 1.311 . S
C838 N839 1.347 . S
C838 H849 0.929 . S
N839 C837 1.375 . S
N839 C838 1.347 . S
C840 C843 1.365 . S
C840 N845 1.328 . S
C840 H846 0.929 . S
C841 C842 1.362 . S
C841 C844 1.378 . S
C841 H856 0.929 . S
C842 C841 1.362 . S
C842 C843 1.366 . S
C843 C840 1.365 . S
C843 C842 1.366 . S
C843 H857 0.930 . S
C844 C841 1.378 . S
C844 N845 1.315 . S
C844 H847 0.930 . S
N845 Co825 2.194 . S
N845 C840 1.328 . S
N845 C844 1.315 . S
H846 C840 0.929 . S
H847 C844 0.930 . S
H848 C836 0.929 . S
H849 C838 0.929 . S
O850 Co825 2.351 . S
O850 C853 1.244 . S
O851 Co825 2.155 . S
O851 C853 1.240 . S
O852 Co825 2.096 . S
O852 C833 1.247 . S
C853 O850 1.244 . S
C853 O851 1.240 . S
H854 C828 0.931 . S
H855 C837 0.931 . S
H856 C841 0.929 . S
H857 C843 0.930 . S
Co858 N862 2.148 . S
Co858 N868 2.128 . S
Co858 N878 2.194 . S
Co858 O883 2.351 . S
Co858 O884 2.155 . S
Co858 O885 2.096 . S
C859 N862 1.301 1_554 S
C859 N863 1.328 . S
C859 H864 0.930 . S
C860 C861 1.333 . S
C860 N862 1.317 1_554 S
C860 H865 0.930 1_554 S
C861 C860 1.333 . S
C861 N863 1.350 . S
C861 H887 0.931 . S
N862 Co858 2.148 . S
N862 C859 1.301 1_556 S
N862 C860 1.317 1_556 S
N863 C859 1.328 . S
N863 C861 1.350 . S
H864 C859 0.930 . S
H865 C860 0.930 1_556 S
C866 O867 1.224 . S
C866 O885 1.247 . S
O867 C866 1.224 . S
N868 Co858 2.128 . S
N868 C869 1.355 . S
N868 C871 1.311 . S
C869 N868 1.355 . S
C869 C870 1.363 . S
C869 H881 0.929 . S
C870 C869 1.363 . S
C870 N872 1.375 . S
C870 H888 0.931 . S
C871 N868 1.311 . S
C871 N872 1.347 . S
C871 H882 0.929 . S
N872 C870 1.375 . S
N872 C871 1.347 . S
C873 C876 1.365 . S
C873 N878 1.328 . S
C873 H879 0.929 . S
C874 C875 1.362 . S
C874 C877 1.378 . S
C874 H889 0.929 . S
C875 C874 1.362 . S
C875 C876 1.366 . S
C876 C873 1.365 . S
C876 C875 1.366 . S
C876 H890 0.930 . S
C877 C874 1.378 . S
C877 N878 1.315 . S
C877 H880 0.930 . S
N878 Co858 2.194 . S
N878 C873 1.328 . S
N878 C877 1.315 . S
H879 C873 0.929 . S
H880 C877 0.930 . S
H881 C869 0.929 . S
H882 C871 0.929 . S
O883 Co858 2.351 . S
O883 C886 1.244 . S
O884 Co858 2.155 . S
O884 C886 1.240 . S
O885 Co858 2.096 . S
O885 C866 1.247 . S
C886 O883 1.244 . S
C886 O884 1.240 . S
H887 C861 0.931 . S
H888 C870 0.931 . S
H889 C874 0.929 . S
H890 C876 0.930 . S
Co891 N895 2.148 . S
Co891 N901 2.128 . S
Co891 N911 2.194 . S
Co891 O916 2.351 . S
Co891 O917 2.155 . S
Co891 O918 2.096 . S
C892 N895 1.301 . S
C892 N896 1.328 . S
C892 H897 0.930 . S
C893 C894 1.333 . S
C893 N895 1.317 . S
C893 H898 0.930 . S
C894 C893 1.333 . S
C894 N896 1.350 . S
C894 H920 0.931 . S
N895 Co891 2.148 . S
N895 C892 1.301 . S
N895 C893 1.317 . S
N896 C892 1.328 . S
N896 C894 1.350 . S
H897 C892 0.930 . S
H898 C893 0.930 . S
C899 O900 1.224 . S
C899 O918 1.247 . S
O900 C899 1.224 . S
N901 Co891 2.128 . S
N901 C902 1.355 . S
N901 C904 1.311 . S
C902 N901 1.355 . S
C902 C903 1.363 . S
C902 H914 0.929 . S
C903 C902 1.363 . S
C903 N905 1.375 . S
C903 H921 0.931 . S
C904 N901 1.311 . S
C904 N905 1.347 . S
C904 H915 0.929 . S
N905 C903 1.375 . S
N905 C904 1.347 . S
C906 C909 1.365 . S
C906 N911 1.328 . S
C906 H912 0.929 . S
C907 C908 1.362 . S
C907 C910 1.378 . S
C907 H922 0.929 . S
C908 C907 1.362 . S
C908 C909 1.366 . S
C909 C906 1.365 . S
C909 C908 1.366 . S
C909 H923 0.930 . S
C910 C907 1.378 . S
C910 N911 1.315 . S
C910 H913 0.930 . S
N911 Co891 2.194 . S
N911 C906 1.328 . S
N911 C910 1.315 . S
H912 C906 0.929 . S
H913 C910 0.930 . S
H914 C902 0.929 . S
H915 C904 0.929 . S
O916 Co891 2.351 . S
O916 C919 1.244 . S
O917 Co891 2.155 . S
O917 C919 1.240 . S
O918 Co891 2.096 . S
O918 C899 1.247 . S
C919 O916 1.244 . S
C919 O917 1.240 . S
H920 C894 0.931 . S
H921 C903 0.931 . S
H922 C907 0.929 . S
H923 C909 0.930 . S
Co924 N928 2.148 . S
Co924 N934 2.128 . S
Co924 N944 2.194 . S
Co924 O949 2.351 . S
Co924 O950 2.155 . S
Co924 O951 2.096 . S
C925 N928 1.301 . S
C925 N929 1.328 . S
C925 H930 0.930 . S
C926 C927 1.333 . S
C926 N928 1.317 . S
C926 H931 0.930 . S
C927 C926 1.333 . S
C927 N929 1.350 . S
C927 H953 0.931 . S
N928 Co924 2.148 . S
N928 C925 1.301 . S
N928 C926 1.317 . S
N929 C925 1.328 . S
N929 C927 1.350 . S
H930 C925 0.930 . S
H931 C926 0.930 . S
C932 O933 1.224 . S
C932 O951 1.247 . S
O933 C932 1.224 . S
N934 Co924 2.128 . S
N934 C935 1.355 . S
N934 C937 1.311 . S
C935 N934 1.355 . S
C935 C936 1.363 . S
C935 H947 0.929 . S
C936 C935 1.363 . S
C936 N938 1.375 . S
C936 H954 0.931 . S
C937 N934 1.311 . S
C937 N938 1.347 . S
C937 H948 0.929 . S
N938 C936 1.375 . S
N938 C937 1.347 . S
C939 C942 1.365 . S
C939 N944 1.328 . S
C939 H945 0.929 . S
C940 C941 1.362 . S
C940 C943 1.378 . S
C940 H955 0.929 . S
C941 C940 1.362 . S
C941 C942 1.366 . S
C942 C939 1.365 . S
C942 C941 1.366 . S
C942 H956 0.930 . S
C943 C940 1.378 . S
C943 N944 1.315 . S
C943 H946 0.930 . S
N944 Co924 2.194 . S
N944 C939 1.328 . S
N944 C943 1.315 . S
H945 C939 0.929 . S
H946 C943 0.930 . S
H947 C935 0.929 . S
H948 C937 0.929 . S
O949 Co924 2.351 . S
O949 C952 1.244 . S
O950 Co924 2.155 . S
O950 C952 1.240 . S
O951 Co924 2.096 . S
O951 C932 1.247 . S
C952 O949 1.244 . S
C952 O950 1.240 . S
H953 C927 0.931 . S
H954 C936 0.931 . S
H955 C940 0.929 . S
H956 C942 0.930 . S
Co957 N961 2.148 . S
Co957 N967 2.128 . S
Co957 N977 2.194 . S
Co957 O982 2.351 . S
Co957 O983 2.155 . S
Co957 O984 2.096 . S
C958 N961 1.301 . S
C958 N962 1.328 . S
C958 H963 0.930 . S
C959 C960 1.333 . S
C959 N961 1.317 . S
C959 H964 0.930 . S
C960 C959 1.333 . S
C960 N962 1.350 . S
C960 H986 0.931 . S
N961 Co957 2.148 . S
N961 C958 1.301 . S
N961 C959 1.317 . S
N962 C958 1.328 . S
N962 C960 1.350 . S
H963 C958 0.930 . S
H964 C959 0.930 . S
C965 O966 1.224 . S
C965 O984 1.247 . S
O966 C965 1.224 . S
N967 Co957 2.128 . S
N967 C968 1.355 . S
N967 C970 1.311 . S
C968 N967 1.355 . S
C968 C969 1.363 . S
C968 H980 0.929 . S
C969 C968 1.363 . S
C969 N971 1.375 . S
C969 H987 0.931 . S
C970 N967 1.311 . S
C970 N971 1.347 . S
C970 H981 0.929 . S
N971 C969 1.375 . S
N971 C970 1.347 . S
C972 C975 1.365 . S
C972 N977 1.328 . S
C972 H978 0.929 . S
C973 C974 1.362 . S
C973 C976 1.378 . S
C973 H988 0.929 . S
C974 C973 1.362 . S
C974 C975 1.366 . S
C975 C972 1.365 . S
C975 C974 1.366 . S
C975 H989 0.930 . S
C976 C973 1.378 . S
C976 N977 1.315 . S
C976 H979 0.930 . S
N977 Co957 2.194 . S
N977 C972 1.328 . S
N977 C976 1.315 . S
H978 C972 0.929 . S
H979 C976 0.930 . S
H980 C968 0.929 . S
H981 C970 0.929 . S
O982 Co957 2.351 . S
O982 C985 1.244 . S
O983 Co957 2.155 . S
O983 C985 1.240 . S
O984 Co957 2.096 . S
O984 C965 1.247 . S
C985 O982 1.244 . S
C985 O983 1.240 . S
H986 C960 0.931 . S
H987 C969 0.931 . S
H988 C973 0.929 . S
H989 C975 0.930 . S
Co990 N994 2.148 . S
Co990 N1000 2.128 . S
Co990 N1010 2.194 . S
Co990 O1015 2.351 . S
Co990 O1016 2.155 . S
Co990 O1017 2.096 . S
C991 N994 1.301 1_556 S
C991 N995 1.328 . S
C991 H996 0.930 . S
C992 C993 1.333 . S
C992 N994 1.317 1_556 S
C992 H997 0.930 1_556 S
C993 C992 1.333 . S
C993 N995 1.350 . S
C993 H1019 0.931 . S
N994 Co990 2.148 . S
N994 C991 1.301 1_554 S
N994 C992 1.317 1_554 S
N995 C991 1.328 . S
N995 C993 1.350 . S
H996 C991 0.930 . S
H997 C992 0.930 1_554 S
C998 O999 1.224 . S
C998 O1017 1.247 . S
O999 C998 1.224 . S
N1000 Co990 2.128 . S
N1000 C1001 1.355 . S
N1000 C1003 1.311 . S
C1001 N1000 1.355 . S
C1001 C1002 1.363 . S
C1001 H1013 0.929 . S
C1002 C1001 1.363 . S
C1002 N1004 1.375 . S
C1002 H1020 0.931 . S
C1003 N1000 1.311 . S
C1003 N1004 1.347 . S
C1003 H1014 0.929 . S
N1004 C1002 1.375 . S
N1004 C1003 1.347 . S
C1005 C1008 1.365 . S
C1005 N1010 1.328 . S
C1005 H1011 0.929 . S
C1006 C1007 1.362 . S
C1006 C1009 1.378 . S
C1006 H1021 0.929 . S
C1007 C1006 1.362 . S
C1007 C1008 1.366 . S
C1008 C1005 1.365 . S
C1008 C1007 1.366 . S
C1008 H1022 0.930 . S
C1009 C1006 1.378 . S
C1009 N1010 1.315 . S
C1009 H1012 0.930 . S
N1010 Co990 2.194 . S
N1010 C1005 1.328 . S
N1010 C1009 1.315 . S
H1011 C1005 0.929 . S
H1012 C1009 0.930 . S
H1013 C1001 0.929 . S
H1014 C1003 0.929 . S
O1015 Co990 2.351 . S
O1015 C1018 1.244 . S
O1016 Co990 2.155 . S
O1016 C1018 1.240 . S
O1017 Co990 2.096 . S
O1017 C998 1.247 . S
C1018 O1015 1.244 . S
C1018 O1016 1.240 . S
H1019 C993 0.931 . S
H1020 C1002 0.931 . S
H1021 C1006 0.929 . S
H1022 C1008 0.930 . S
Co1023 N1027 2.148 . S
Co1023 N1033 2.128 . S
Co1023 N1043 2.194 . S
Co1023 O1048 2.351 . S
Co1023 O1049 2.155 . S
Co1023 O1050 2.096 . S
C1024 N1027 1.301 . S
C1024 N1028 1.328 . S
C1024 H1029 0.930 . S
C1025 C1026 1.333 . S
C1025 N1027 1.317 . S
C1025 H1030 0.930 . S
C1026 C1025 1.333 . S
C1026 N1028 1.350 . S
C1026 H1052 0.931 . S
N1027 Co1023 2.148 . S
N1027 C1024 1.301 . S
N1027 C1025 1.317 . S
N1028 C1024 1.328 . S
N1028 C1026 1.350 . S
H1029 C1024 0.930 . S
H1030 C1025 0.930 . S
C1031 O1032 1.224 . S
C1031 O1050 1.247 . S
O1032 C1031 1.224 . S
N1033 Co1023 2.128 . S
N1033 C1034 1.355 . S
N1033 C1036 1.311 . S
C1034 N1033 1.355 . S
C1034 C1035 1.363 . S
C1034 H1046 0.929 . S
C1035 C1034 1.363 . S
C1035 N1037 1.375 . S
C1035 H1053 0.931 . S
C1036 N1033 1.311 . S
C1036 N1037 1.347 . S
C1036 H1047 0.929 . S
N1037 C1035 1.375 . S
N1037 C1036 1.347 . S
C1038 C1041 1.365 . S
C1038 N1043 1.328 . S
C1038 H1044 0.929 . S
C1039 C1040 1.362 . S
C1039 C1042 1.378 . S
C1039 H1054 0.929 . S
C1040 C1039 1.362 . S
C1040 C1041 1.366 . S
C1041 C1038 1.365 . S
C1041 C1040 1.366 . S
C1041 H1055 0.930 . S
C1042 C1039 1.378 . S
C1042 N1043 1.315 . S
C1042 H1045 0.930 . S
N1043 Co1023 2.194 . S
N1043 C1038 1.328 . S
N1043 C1042 1.315 . S
H1044 C1038 0.929 . S
H1045 C1042 0.930 . S
H1046 C1034 0.929 . S
H1047 C1036 0.929 . S
O1048 Co1023 2.351 . S
O1048 C1051 1.244 . S
O1049 Co1023 2.155 . S
O1049 C1051 1.240 . S
O1050 Co1023 2.096 . S
O1050 C1031 1.247 . S
C1051 O1048 1.244 . S
C1051 O1049 1.240 . S
H1052 C1026 0.931 . S
H1053 C1035 0.931 . S
H1054 C1039 0.929 . S
H1055 C1041 0.930 . S
N38 C8 3.204 1_565 S
C41 N71 3.204 . S
C74 N104 3.204 1_565 S
C107 N5 3.204 . S
C140 N236 3.205 1_565 S
N137 C173 3.204 . S
C206 N170 3.204 1_545 S
C239 N203 3.204 . S
N302 C272 3.204 1_545 S
N335 C305 3.204 . S
C338 N368 3.204 1_545 S
N269 C371 3.204 . S
C404 N500 3.205 1_545 S
C437 N401 3.204 . S
N434 C470 3.204 1_545 S
N467 C503 3.204 . S
N566 C536 3.204 . S
C569 N599 3.204 . S
N632 C602 3.204 . S
N533 C635 3.204 . S
N764 C668 3.204 . S
C701 N665 3.204 . S
N698 C734 3.204 . S
C767 N731 3.204 . S
N830 C800 3.204 . S
C833 N863 3.204 . S
C866 N896 3.204 . S
C899 N797 3.204 . S
N1028 C932 3.204 . S
N929 C965 3.204 . S
N962 C998 3.204 . S
N995 C1031 3.204 . S
N212 N14 0.161 . S
N47 N245 0.161 1_565 S
N80 N146 0.161 . S
N113 N179 0.161 1_546 S
N476 N278 0.161 . S
N509 N311 0.161 1_565 S
N344 N410 0.161 . S
N443 N377 0.161 1_546 S
N542 N740 0.161 . S
N575 N773 0.161 1_556 S
N674 N608 0.161 . S
N707 N641 0.161 . S
N1004 N806 0.161 . S
N1037 N839 0.161 1_556 S
N938 N872 0.161 . S
N971 N905 0.161 . S
C193 C28 1.905 . S
C61 C226 1.905 . S
C94 C259 1.905 . S
C127 C160 1.905 . S
C457 C292 1.905 . S
C325 C490 1.905 . S
C523 C358 1.905 . S
C391 C424 1.905 . S
C556 C721 1.905 . S
C754 C589 1.905 . S
C787 C622 1.905 . S
C655 C688 1.905 . S
C820 C985 1.905 . S
C1018 C853 1.905 . S
C1051 C886 1.905 . S
C952 C919 1.905 . S
C17 C1007 1.600 . S
C512 C50 1.600 1_655 S
C941 C83 1.601 . S
C116 C446 1.601 . S
C149 C875 1.600 . S
C380 C182 1.601 . S
C215 C809 1.600 . S
C248 C314 1.600 1_455 S
C281 C743 1.600 . S
C347 C677 1.601 . S
C413 C611 1.600 . S
C479 C545 1.600 . S
C578 C1040 1.601 . S
C974 C644 1.600 1_455 S
C908 C710 1.600 1_455 S
C842 C776 1.601 . S
