# Generated by pormake.
# Topology smm, (6)-cn, num edge types: 1
# Building blocks:
#     Node 0, Type 0, BuildingBlock: KUMBOL_clean_sbu_0, # of connection points: 6
#     Node 1, Type 0, BuildingBlock: KUMBOL_clean_sbu_0, # of connection points: 6
#     Node 2, Type 0, BuildingBlock: KUMBOL_clean_sbu_0, # of connection points: 6
#     Node 3, Type 0, BuildingBlock: KUMBOL_clean_sbu_0, # of connection points: 6
#     Node 4, Type 0, BuildingBlock: KUMBOL_clean_sbu_0, # of connection points: 6
#     Node 5, Type 0, BuildingBlock: KUMBOL_clean_sbu_0, # of connection points: 6
#     Node 6, Type 0, BuildingBlock: KUMBOL_clean_sbu_0, # of connection points: 6
#     Node 7, Type 0, BuildingBlock: KUMBOL_clean_sbu_0, # of connection points: 6
#     Node 8, Type 0, BuildingBlock: KUMBOL_clean_sbu_0, # of connection points: 6
#     Edge 9, Type (0, 0), BuildingBlock: AJUNOK_clean_linker_0, # of connection points: 2
#     Edge 10, Type (0, 0), BuildingBlock: AJUNOK_clean_linker_0, # of connection points: 2
#     Edge 11, Type (0, 0), BuildingBlock: AJUNOK_clean_linker_0, # of connection points: 2
#     Edge 12, Type (0, 0), BuildingBlock: AJUNOK_clean_linker_0, # of connection points: 2
#     Edge 13, Type (0, 0), BuildingBlock: AJUNOK_clean_linker_0, # of connection points: 2
#     Edge 14, Type (0, 0), BuildingBlock: AJUNOK_clean_linker_0, # of connection points: 2
#     Edge 15, Type (0, 0), BuildingBlock: AJUNOK_clean_linker_0, # of connection points: 2
#     Edge 16, Type (0, 0), BuildingBlock: AJUNOK_clean_linker_0, # of connection points: 2
#     Edge 17, Type (0, 0), BuildingBlock: AJUNOK_clean_linker_0, # of connection points: 2
#     Edge 18, Type (0, 0), BuildingBlock: AJUNOK_clean_linker_0, # of connection points: 2
#     Edge 19, Type (0, 0), BuildingBlock: AJUNOK_clean_linker_0, # of connection points: 2
#     Edge 20, Type (0, 0), BuildingBlock: AJUNOK_clean_linker_0, # of connection points: 2
#     Edge 21, Type (0, 0), BuildingBlock: AJUNOK_clean_linker_0, # of connection points: 2
#     Edge 22, Type (0, 0), BuildingBlock: AJUNOK_clean_linker_0, # of connection points: 2
#     Edge 23, Type (0, 0), BuildingBlock: AJUNOK_clean_linker_0, # of connection points: 2
#     Edge 24, Type (0, 0), BuildingBlock: AJUNOK_clean_linker_0, # of connection points: 2
#     Edge 25, Type (0, 0), BuildingBlock: AJUNOK_clean_linker_0, # of connection points: 2
#     Edge 26, Type (0, 0), BuildingBlock: AJUNOK_clean_linker_0, # of connection points: 2
#     Edge 27, Type (0, 0), BuildingBlock: AJUNOK_clean_linker_0, # of connection points: 2
#     Edge 28, Type (0, 0), BuildingBlock: AJUNOK_clean_linker_0, # of connection points: 2
#     Edge 29, Type (0, 0), BuildingBlock: AJUNOK_clean_linker_0, # of connection points: 2
#     Edge 30, Type (0, 0), BuildingBlock: AJUNOK_clean_linker_0, # of connection points: 2
#     Edge 31, Type (0, 0), BuildingBlock: AJUNOK_clean_linker_0, # of connection points: 2
#     Edge 32, Type (0, 0), BuildingBlock: AJUNOK_clean_linker_0, # of connection points: 2
#     Edge 33, Type (0, 0), BuildingBlock: AJUNOK_clean_linker_0, # of connection points: 2
#     Edge 34, Type (0, 0), BuildingBlock: AJUNOK_clean_linker_0, # of connection points: 2
#     Edge 35, Type (0, 0), BuildingBlock: AJUNOK_clean_linker_0, # of connection points: 2
# Relax obj value: 0.137
# Max RMSD: 0.270
# Mean RMSD: 0.209
data_MOF--net-smm--node1-KUMBOL_clean_sbu_0--edge1-AJUNOK_clean_linker_0
_symmetry_space_group_name_H-M    P1
_symmetry_Int_Tables_number       1
_symmetry_cell_setting            triclinic
loop_
_symmetry_equiv_pos_as_xyz
'x, y, z'
_cell_length_a     44.876501
_cell_length_b     60.270943
_cell_length_c     11.219284
_cell_angle_alpha  98.967512
_cell_angle_beta   99.307534
_cell_angle_gamma 122.50184
loop_
_atom_site_label
_atom_site_type_symbol
_atom_site_fract_x
_atom_site_fract_y
_atom_site_fract_z
_atom_type_partial_charge
Gd0 Gd 1.02279 0.18947 0.14167 0.0
Gd1 Gd 0.10884 0.25477 0.25162 0.0
C2 C 0.21024 0.2534 0.36652 0.0
C3 C 0.23377 0.27598 0.59231 0.0
C4 C 0.17854 0.26938 0.4668 0.0
C5 C 0.18099 0.25643 0.35975 0.0
C6 C 0.20548 0.27997 0.58386 0.0
C7 C 0.23609 0.26266 0.48383 0.0
C8 C 0.21339 0.24204 0.25462 0.0
C9 C 0.18853 0.23494 0.1395 0.0
N10 N 0.15607 0.2483 0.24768 0.0
C11 C 0.16015 0.23849 0.13769 0.0
H12 H 0.14109 0.23277 0.048 0.0
C13 C 0.15056 0.28907 0.55466 0.0
N14 N 0.15098 0.27302 0.45501 0.0
C15 C 0.17667 0.29999 0.67273 0.0
C16 C 0.20392 0.29507 0.68787 0.0
H17 H 0.12951 0.29292 0.54306 0.0
H18 H 0.25859 0.26034 0.49105 0.0
H19 H 0.99497 0.21983 0.34735 0.0
H20 H 0.23544 0.23936 0.25578 0.0
H21 H 0.19109 0.22663 0.05205 0.0
H22 H 0.25453 0.28375 0.68159 0.0
H23 H 1.00196 0.15638 0.83407 0.0
H24 H 0.87774 0.16746 0.2255 0.0
H25 H 0.93641 0.20529 0.38573 0.0
H26 H 0.84893 0.11959 0.79643 0.0
H27 H 0.17575 0.31218 0.75188 0.0
H28 H 0.22419 0.30363 0.77929 0.0
H29 H 0.84556 0.13769 0.00168 0.0
H30 H 0.94696 0.12665 0.6493 0.0
N31 N 0.9712 0.18908 0.16933 0.0
C32 C 0.90379 0.17399 0.20709 0.0
C33 C 0.93672 0.19514 0.29786 0.0
C34 C 0.90479 0.16283 0.09022 0.0
C35 C 0.93939 0.17084 0.07369 0.0
C36 C 0.97024 0.203 0.27579 0.0
N37 N 0.97438 0.16585 0.94915 0.0
C38 C 0.94118 0.15977 0.95925 0.0
C39 C 0.94496 0.13599 0.7354 0.0
C40 C 0.91097 0.13018 0.74358 0.0
C41 C 0.97622 0.15325 0.8403 0.0
C42 C 0.90854 0.14145 0.8572 0.0
H43 H 0.88658 0.11621 0.66318 0.0
O44 O 1.01848 0.15265 0.05442 0.0
O45 O 0.08389 0.20946 0.16219 0.0
O46 O 0.09512 0.24244 0.0422 0.0
O47 O 1.03436 0.20389 0.9718 0.0
O48 O 0.06052 0.18209 0.26173 0.0
O49 O 0.98753 0.15169 0.1885 0.0
O50 O 0.12285 0.29622 0.28139 0.0
O51 O 0.04721 0.23487 0.16799 0.0
O52 O 1.03384 0.20605 0.34734 0.0
O53 O 0.09748 0.23755 0.41662 0.0
O54 O 0.0746 0.26751 0.32855 0.0
O55 O 0.14947 0.28404 0.17216 0.0
C56 C 0.08919 0.19488 0.22375 0.0
C57 C 0.87424 0.13387 0.87318 0.0
C58 C 0.8723 0.14408 -0.00986 0.0
C59 C 0.99709 0.13845 0.11869 0.0
C60 C 0.97173 0.10844 0.06551 0.0
C61 C 0.93887 0.09563 0.96785 0.0
C62 C 0.98168 0.09236 0.11281 0.0
C63 C 0.95937 0.06363 0.06167 0.0
C64 C 0.91668 0.06704 0.9158 0.0
C65 C 0.92693 0.05106 0.96184 0.0
C66 C 0.06447 0.22353 0.95231 0.0
C67 C 1.04319 0.25112 0.24218 0.0
C68 C 0.14777 0.30408 0.22228 0.0
C69 C 0.18309 0.33159 0.28181 0.0
C70 C 0.19622 0.34374 0.41327 0.0
C71 C 0.20303 0.34666 0.20515 0.0
C72 C 0.23562 0.37341 0.25941 0.0
C73 C 0.22885 0.37014 0.46726 0.0
C74 C 0.2485 0.38497 0.39082 0.0
C75 C 0.06534 0.22202 0.43788 0.0
H76 H 0.93038 0.10757 0.93194 0.0
H77 H 1.00702 0.10222 0.18898 0.0
H78 H 0.89139 0.05722 0.83994 0.0
H79 H 0.90921 1.02892 0.92143 0.0
H80 H 0.18106 0.33313 0.47435 0.0
H81 H 0.19293 0.33778 0.10342 0.0
H82 H 0.2387 0.37928 0.56861 0.0
H83 H 0.27352 0.40556 0.43397 0.0
Gd84 Gd 0.9458 0.87553 0.12678 0.0
Gd85 Gd 0.94055 0.81261 0.05871 0.0
C86 C 0.06187 0.84552 0.12016 0.0
C87 C 0.06174 0.82717 0.91137 0.0
C88 C 1.0047 0.818 0.94826 0.0
C89 C 1.02362 0.83333 0.07397 0.0
C90 C 1.02362 0.8146 0.86602 0.0
C91 C 0.08064 0.84222 0.0385 0.0
C92 C 0.07997 0.85976 0.24837 0.0
C93 C 0.05967 0.86053 0.32847 0.0
N94 N 1.00435 0.83492 0.15277 0.0
C95 C 1.02165 0.84744 0.27938 0.0
H96 H 1.00665 0.84715 0.34459 0.0
C97 C 0.94734 0.78639 0.79072 0.0
N98 N 0.96752 0.80489 0.90839 0.0
C99 C 0.96496 0.78307 0.70486 0.0
C100 C 1.00336 0.79752 0.74215 0.0
H101 H 0.91748 0.77463 0.76181 0.0
H102 H 0.10957 0.85048 0.07406 0.0
H103 H 0.92093 0.88457 0.83747 0.0
H104 H 0.10935 0.86952 0.287 0.0
H105 H 0.07315 0.87073 0.42866 0.0
H106 H 0.07662 0.82453 0.84997 0.0
H107 H 0.93256 0.88206 0.41368 0.0
H108 H 0.80987 0.85998 0.76473 0.0
H109 H 0.86571 0.87537 0.6964 0.0
H110 H 0.78421 0.84746 0.15379 0.0
H111 H 0.94889 0.76911 0.61053 0.0
H112 H 1.01695 0.79456 0.67613 0.0
H113 H 0.77961 0.84982 0.93603 0.0
H114 H 0.88293 0.87288 0.50555 0.0
N115 N 0.89566 0.87019 0.98119 0.0
C116 C 0.83388 0.86315 0.82661 0.0
C117 C 0.86519 0.87155 0.78728 0.0
C118 C 0.83473 0.86055 0.94821 0.0
C119 C 0.86658 0.86466 0.02523 0.0
C120 C 0.89629 0.87586 0.86727 0.0
N121 N 0.90015 0.86904 0.22358 0.0
C122 C 0.86923 0.86455 0.15006 0.0
C123 C 0.87817 0.86971 0.40487 0.0
C124 C 0.84466 0.86214 0.32823 0.0
C125 C 0.90603 0.87386 0.35117 0.0
C126 C 0.84027 0.86024 0.19993 0.0
H127 H 0.82296 0.8588 0.36976 0.0
O128 O 0.9805 0.91148 0.29154 0.0
O129 O 0.98383 0.86203 0.08759 0.0
O130 O 0.93636 0.82135 0.25498 0.0
O131 O 0.96354 0.86809 0.3086 0.0
O132 O 1.00191 0.90301 0.11066 0.0
O133 O 0.95355 0.91404 0.1169 0.0
O134 O 0.90627 0.76673 0.97868 0.0
O135 O 0.90807 0.83021 0.10758 0.0
O136 O 0.94547 0.8639 0.92544 0.0
O137 O 0.92647 0.81841 0.86983 0.0
O138 O 0.87929 0.79468 0.96267 0.0
O139 O 0.93964 0.78402 0.16657 0.0
C140 C 1.01312 0.88751 0.09386 0.0
C141 C 0.80766 0.85372 0.12014 0.0
C142 C 0.8049 0.85428 -0.00473 0.0
C143 C 0.97533 0.92678 0.23275 0.0
C144 C 0.99232 0.95615 0.29382 0.0
C145 C 1.0193 0.96966 0.41206 0.0
C146 C 0.98258 0.97111 0.23313 0.0
C147 C 0.99976 0.99934 0.28961 0.0
C148 C 1.03633 0.99759 0.46855 0.0
C149 C 1.0267 1.01237 0.40801 0.0
C150 C 0.95002 0.84486 0.33862 0.0
C151 C 0.87561 0.81214 0.02972 0.0
C152 C 0.91493 0.76066 0.07927 0.0
C153 C 0.91782 0.73534 0.06736 0.0
C154 C 0.94946 0.73928 0.04087 0.0
C155 C 0.89115 0.70777 0.08161 0.0
C156 C 0.8975 0.68582 0.07063 0.0
C157 C 0.9556 0.71871 0.03001 0.0
C158 C 0.93062 0.69295 0.04486 0.0
C159 C 0.93552 0.84132 0.84219 0.0
H160 H 1.02748 0.95872 0.46056 0.0
H161 H 0.96134 0.96074 0.14291 0.0
H162 H 0.0572 1.00787 0.5595 0.0
H163 H 1.04054 0.03408 0.45345 0.0
H164 H 0.97001 0.75874 0.02848 0.0
H165 H 0.86608 0.70357 0.10129 0.0
H166 H 0.98057 0.72285 0.00942 0.0
H167 H 0.93734 0.67809 0.03478 0.0
Gd168 Gd 0.20167 0.04807 0.06401 0.0
Gd169 Gd 0.24243 1.00952 0.04772 0.0
C170 C 0.15888 0.91696 0.92807 0.0
C171 C 0.1778 0.90481 0.10748 0.0
C172 C 0.20855 0.95303 0.11456 0.0
C173 C 0.18561 0.94515 -0.00718 0.0
C174 C 0.20461 0.9327 0.17211 0.0
C175 C 0.15542 0.89701 0.98547 0.0
C176 C 0.1371 0.90939 0.80512 0.0
C177 C 0.14197 0.92966 0.74899 0.0
N178 N 0.19071 0.9647 0.93481 0.0
C179 C 0.16876 0.9573 0.81562 0.0
H180 H 0.17111 0.97228 0.77008 0.0
C181 C 0.26144 0.98783 0.28525 0.0
N182 N 0.2361 0.98014 0.17305 0.0
C183 C 0.25769 0.96848 0.34696 0.0
C184 C 0.22903 0.94081 0.29055 0.0
H185 H 0.2838 1.00924 0.33007 0.0
H186 H 0.1361 0.87543 0.93421 0.0
H187 H 0.2755 0.08374 0.34011 0.0
H188 H 0.11638 0.88795 0.75279 0.0
H189 H 0.12493 0.92403 0.65439 0.0
H190 H 0.17504 0.88904 0.14961 0.0
H191 H 0.15622 0.05153 0.80864 0.0
H192 H 0.34409 0.16642 0.33368 0.0
H193 H 0.32991 0.1305 0.43984 0.0
H194 H 0.28038 0.16894 0.95863 0.0
H195 H 0.27719 0.97489 0.4374 0.0
H196 H 0.22665 0.92577 0.33755 0.0
H197 H 0.32596 0.18028 0.1534 0.0
H198 H 0.16147 0.08771 0.71709 0.0
N199 N 0.25632 0.09209 0.17727 0.0
C200 C 0.31943 0.14572 0.28899 0.0
C201 C 0.31137 0.12557 0.3497 0.0
C202 C 0.2954 0.13908 0.17235 0.0
C203 C 0.26383 0.11168 0.11661 0.0
C204 C 0.27951 0.0989 0.29323 0.0
N205 N 0.20911 0.07836 0.94559 0.0
C206 C 0.23917 0.10485 0.00063 0.0
C207 C 0.18376 0.09272 0.79535 0.0
C208 C 0.21579 0.11948 0.84342 0.0
C209 C 0.18096 0.07228 0.84719 0.0
C210 C 0.24402 0.12583 0.94665 0.0
H211 H 0.21818 0.13518 0.80151 0.0
O212 O 0.14769 0.04089 0.02247 0.0
O213 O 0.18793 1.00438 0.04231 0.0
O214 O 0.22984 1.01458 0.85606 0.0
O215 O 0.19824 0.03545 0.85881 0.0
O216 O 0.14669 1.00743 0.0593 0.0
O217 O 0.19178 0.07755 0.16734 0.0
O218 O 0.29817 1.02443 0.03893 0.0
O219 O 0.25597 0.05199 0.03834 0.0
O220 O 0.21448 0.04428 0.25517 0.0
O221 O 0.23661 1.01685 0.24266 0.0
O222 O 0.29466 0.05132 0.16383 0.0
O223 O 0.2563 0.98194 0.95843 0.0
C224 C 0.15384 0.98917 0.04919 0.0
C225 C 0.27589 0.15278 0.00067 0.0
C226 C 0.30177 0.15927 0.11196 0.0
C227 C 0.15731 0.06395 0.09892 0.0
C228 C 0.13916 0.07808 0.0505 0.0
C229 C 0.11133 0.063 0.9335 0.0
C230 C 0.14459 0.1035 0.11723 0.0
C231 C 0.12317 0.11308 0.06257 0.0
C232 C 0.09099 0.07198 0.88163 0.0
C233 C 0.09662 0.09625 0.94431 0.0
C234 C 0.21307 1.02455 0.80194 0.0
C235 C 0.29089 0.06745 0.10811 0.0
C236 C 0.29154 1.00077 -0.01072 0.0
C237 C 0.31832 0.99543 0.05405 0.0
C238 C 0.33409 1.0073 0.18501 0.0
C239 C 0.33104 0.98113 -0.01074 0.0
C240 C 0.35906 0.979 0.05716 0.0
C241 C 0.35999 1.00444 0.25168 0.0
C242 C 0.37291 0.99115 0.18925 0.0
C243 C 0.22572 0.0305 0.30295 0.0
H244 H 0.10434 0.04342 0.88008 0.0
H245 H 0.16486 0.11543 0.20916 0.0
H246 H 0.06986 0.05957 0.79149 0.0
H247 H 0.07885 0.10145 0.89964 0.0
H248 H 0.32738 1.01985 0.23659 0.0
H249 H 0.31945 0.97204 0.88798 0.0
H250 H 0.3709 1.01333 0.35292 0.0
H251 H 0.39487 0.9912 0.24621 0.0
Gd252 Gd 0.81292 0.50774 0.08983 0.0
Gd253 Gd 0.73827 0.51457 0.06111 0.0
C254 C 0.63463 0.43276 0.04765 0.0
C255 C 0.60464 0.41035 0.82299 0.0
C256 C 0.6635 0.4557 0.89824 0.0
C257 C 0.66446 0.45517 0.02203 0.0
C258 C 0.63295 0.43338 0.79769 0.0
C259 C 0.60518 0.41023 0.9476 0.0
C260 C 0.63463 0.43408 0.17317 0.0
C261 C 0.66356 0.45734 0.26933 0.0
N262 N 0.69348 0.47707 0.11767 0.0
C263 C 0.6925 0.47886 0.23964 0.0
H264 H 0.71308 0.49726 0.31465 0.0
C265 C 0.68434 0.48226 0.75862 0.0
N266 N 0.69029 0.47895 0.87665 0.0
C267 C 0.65545 0.46046 0.65608 0.0
C268 C 0.63023 0.43558 0.67498 0.0
H269 H 0.7006 0.50196 0.7423 0.0
H270 H 0.58206 0.39292 0.96527 0.0
H271 H 0.84397 0.53173 0.84687 0.0
H272 H 0.61188 0.41778 0.19692 0.0
H273 H 0.66332 0.45893 0.36636 0.0
H274 H 0.58118 0.3931 0.74684 0.0
H275 H 0.8505 0.51169 0.38845 0.0
H276 H 0.93615 0.61529 -0.00137 0.0
H277 H 0.8893 0.57519 0.81489 0.0
H278 H 0.96914 0.6262 0.44041 0.0
H279 H 0.65174 0.46332 0.56344 0.0
H280 H 0.60724 0.41894 0.59568 0.0
H281 H 0.96587 0.63402 0.23181 0.0
H282 H 0.90076 0.54665 0.57808 0.0
N283 N 0.85958 0.54746 0.04719 0.0
C284 C 0.91496 0.59641 0.01342 0.0
C285 C 0.8885 0.57388 0.90962 0.0
C286 C 0.91526 0.59366 0.13488 0.0
C287 C 0.88681 0.56865 0.14923 0.0
C288 C 0.86173 0.54927 0.9284 0.0
N289 N 0.86241 0.53936 0.27623 0.0
C290 C 0.88833 0.56444 0.26724 0.0
C291 C 0.89726 0.55215 0.49208 0.0
C292 C 0.92218 0.5787 0.48733 0.0
C293 C 0.86823 0.53247 0.38427 0.0
C294 C 0.91873 0.58488 0.37302 0.0
H295 H 0.9451 0.59381 0.5704 0.0
O296 O 0.82511 0.48088 0.16368 0.0
O297 O 0.75302 0.48492 0.09541 0.0
O298 O 0.76916 0.52954 0.268 0.0
O299 O 0.79618 0.50617 0.26877 0.0
O300 O 0.76462 0.46354 0.97419 0.0
O301 O 0.84513 0.49485 0.01187 0.0
O302 O 0.6955 0.51987 -0.01081 0.0
O303 O 0.80059 0.54117 0.08402 0.0
O304 O 0.78905 0.49931 0.88246 0.0
O305 O 0.75584 0.51834 0.88415 0.0
O306 O 0.77188 0.55879 0.06105 0.0
O307 O 0.72294 0.53472 0.19067 0.0
C308 C 0.73905 0.46073 0.02319 0.0
C309 C 0.9459 0.61023 0.35999 0.0
C310 C 0.94408 0.61466 0.2412 0.0
C311 C 0.84317 0.47975 0.08621 0.0
C312 C 0.87649 0.47967 0.13681 0.0
C313 C 0.91067 0.5048 0.19898 0.0
C314 C 0.87474 0.45478 0.12418 0.0
C315 C 0.90708 0.45557 0.17244 0.0
C316 C 0.94216 0.50564 0.2462 0.0
C317 C 0.94046 0.48148 0.2327 0.0
C318 C 0.78516 0.5198 0.32799 0.0
C319 C 0.80481 0.56474 0.08088 0.0
C320 C 0.69861 0.53272 0.1001 0.0
C321 C 0.69552 0.55605 0.10984 0.0
C322 C 0.68757 0.56344 0.00239 0.0
C323 C 0.69615 0.56896 0.22656 0.0
C324 C 0.68807 0.58857 0.23643 0.0
C325 C 0.68008 0.58324 0.01197 0.0
C326 C 0.68025 0.59574 0.12809 0.0
C327 C 0.77189 0.50886 0.82704 0.0
H328 H 0.91309 0.52395 0.21078 0.0
H329 H 0.84862 0.4351 0.07659 0.0
H330 H 0.96831 0.52531 0.29357 0.0
H331 H 0.96558 0.48308 0.26977 0.0
H332 H 0.68633 0.55357 0.91058 0.0
H333 H 0.70257 0.56346 0.30973 0.0
H334 H 0.67341 0.58851 0.9286 0.0
H335 H 0.67374 0.6107 0.13285 0.0
Gd336 Gd 0.52135 0.22155 0.10788 0.0
Gd337 Gd 0.50147 0.15349 0.04357 0.0
C338 C 0.61014 0.16018 0.1228 0.0
C339 C 0.61021 0.14293 0.91265 0.0
C340 C 0.55877 0.14465 0.94229 0.0
C341 C 0.57582 0.15576 0.07107 0.0
C342 C 0.57567 0.1378 0.86188 0.0
C343 C 0.62731 0.15396 0.04292 0.0
C344 C 0.62613 0.17051 0.25359 0.0
C345 C 0.60758 0.1755 0.32988 0.0
N346 N 0.55873 0.16185 0.14615 0.0
C347 C 0.57366 0.17074 0.27475 0.0
H348 H 0.56005 0.17445 0.33709 0.0
C349 C 0.50506 0.12434 0.77242 0.0
N350 N 0.52499 0.13936 0.89611 0.0
C351 C 0.52136 0.11841 0.68829 0.0
C352 C 0.55696 0.12535 0.73297 0.0
H353 H 0.4767 0.11753 0.73716 0.0
H354 H 0.65368 0.15735 0.08117 0.0
H355 H 0.45983 0.19263 0.81299 0.0
H356 H 0.65248 0.17431 0.29666 0.0
H357 H 0.61937 0.18304 0.43152 0.0
H358 H 0.62359 0.1379 0.85222 0.0
H359 H 0.54844 0.26299 0.39749 0.0
H360 H 0.36861 0.19578 0.83701 0.0
H361 H 0.40038 0.18308 0.71122 0.0
H362 H 0.40201 0.24383 0.26998 0.0
H363 H 0.50637 0.1083 0.58912 0.0
H364 H 0.56918 0.12012 0.66801 0.0
H365 H 0.36903 0.21777 0.046 0.0
H366 H 0.52287 0.28025 0.53351 0.0
N367 N 0.463 0.21036 -0.00133 0.0
C368 C 0.39502 0.2 0.88324 0.0
C369 C 0.41288 0.19284 0.81201 0.0
C370 C 0.4118 0.21301 0.01283 0.0
C371 C 0.44638 0.2182 0.06849 0.0
C372 C 0.44692 0.19823 0.87125 0.0
N373 N 0.49911 0.23913 0.24296 0.0
C374 C 0.46494 0.23292 0.19447 0.0
C375 C 0.50611 0.26674 0.43878 0.0
C376 C 0.4703 0.25945 0.3924 0.0
C377 C 0.52039 0.25676 0.36164 0.0
C378 C 0.44948 0.2428 0.26819 0.0
H379 H 0.45943 0.26746 0.45186 0.0
O380 O 0.56767 0.26576 0.18719 0.0
O381 O 0.54616 0.19805 0.06835 0.0
O382 O 0.50427 0.16805 0.24425 0.0
O383 O 0.52638 0.21434 0.29809 0.0
O384 O 0.57721 0.23329 0.21957 0.0
O385 O 0.5372 0.25105 -0.00584 0.0
O386 O 0.46346 0.10895 0.96412 0.0
O387 O 0.47383 0.1747 0.09402 0.0
O388 O 0.5233 0.20898 0.91351 0.0
O389 O 0.49435 0.16189 0.85587 0.0
O390 O 0.44353 0.13942 0.94461 0.0
O391 O 0.48903 0.12686 0.16548 0.0
C392 C 0.57808 0.21454 0.15016 0.0
C393 C 0.41441 0.23659 0.21458 0.0
C394 C 0.39563 0.22177 0.08709 0.0
C395 C 0.566 0.27238 0.08241 0.0
C396 C 0.57657 0.30155 0.0869 0.0
C397 C 0.5517 0.30748 0.11232 0.0
C398 C 0.61062 0.3237 0.06853 0.0
C399 C 0.61876 0.35099 0.07798 0.0
C400 C 0.55929 0.33348 0.12119 0.0
C401 C 0.59199 0.35464 0.10538 0.0
C402 C 0.51636 0.19136 0.32666 0.0
C403 C 0.43967 0.15543 0.02172 0.0
C404 C 0.46867 0.10424 0.0725 0.0
C405 C 0.47463 0.08236 0.07898 0.0
C406 C 0.46883 0.06424 0.96799 0.0
C407 C 0.48381 0.07828 0.19652 0.0
C408 C 0.48718 0.05645 0.20314 0.0
C409 C 0.47201 0.04261 0.97395 0.0
C410 C 0.48115 0.03872 0.09018 0.0
C411 C 0.51034 0.18565 0.83066 0.0
H412 H 0.52609 0.29183 0.12639 0.0
H413 H 0.63051 0.31984 0.04883 0.0
H414 H 0.53951 0.33741 0.14168 0.0
H415 H 0.59645 0.37435 0.1153 0.0
H416 H 0.46144 0.06655 0.87623 0.0
H417 H 0.48847 0.09215 0.28281 0.0
H418 H 0.46731 1.02872 0.88783 0.0
H419 H 0.48312 1.02161 0.09153 0.0
Gd420 Gd 0.90052 0.31117 0.1644 0.0
Gd421 Gd 0.99829 0.36789 0.268 0.0
C422 C 1.01424 0.44955 0.28651 0.0
C423 C 1.04441 0.46329 0.12402 0.0
C424 C 1.02749 0.4203 0.16719 0.0
C425 C 1.01242 0.42512 0.25871 0.0
C426 C 0.04473 0.43984 0.10211 0.0
C427 C 1.02922 0.46813 0.21599 0.0
C428 C 1.00207 0.45502 0.38718 0.0
C429 C 0.98939 0.43674 0.45943 0.0
N430 N 0.99813 0.40685 0.32605 0.0
C431 C 0.9878 0.41267 0.42786 0.0
H432 H 0.97805 0.39874 0.48443 0.0
C433 C 0.04896 0.39509 0.0798 0.0
N434 N 1.02781 0.39759 0.14867 0.0
C435 C 0.06604 0.41372 0.0121 0.0
C436 C 0.06325 0.43588 0.02121 0.0
H437 H 0.05116 0.37797 0.07315 0.0
H438 H 1.03024 0.48676 0.23461 0.0
H439 H 0.85381 0.28641 0.85427 0.0
H440 H 1.00328 0.47365 0.4121 0.0
H441 H 0.98065 0.44109 0.53902 0.0
H442 H 0.05702 0.47831 0.07349 0.0
H443 H 0.91618 0.29273 0.42134 0.0
H444 H 0.83938 0.21053 0.70249 0.0
H445 H 0.83298 0.24763 0.67108 0.0
H446 H 0.86739 0.18817 0.0727 0.0
H447 H 0.08147 0.41105 0.95352 0.0
H448 H 0.0768 0.45042 0.96952 0.0
H449 H 0.85178 0.18816 0.85437 0.0
H450 H 0.9109 0.25326 0.47462 0.0
N451 N 0.87726 0.27379 0.98458 0.0
C452 C 0.84993 0.2281 0.78218 0.0
C453 C 0.84614 0.24892 0.76416 0.0
C454 C 0.8646 0.22918 0.90445 0.0
C455 C 0.87857 0.25273 0.00505 0.0
C456 C 0.8584 0.27102 0.86785 0.0
N457 N 0.90143 0.27572 0.2229 0.0
C458 C 0.89 0.25336 0.12835 0.0
C459 C 0.90551 0.25317 0.37688 0.0
C460 C 0.89377 0.23008 0.28087 0.0
C461 C 0.90892 0.2758 0.34601 0.0
C462 C 0.88609 0.22998 0.15483 0.0
H463 H 0.88939 0.21215 0.30531 0.0
O464 O 0.85596 0.29219 0.25461 0.0
O465 O 0.94024 0.35781 0.23796 0.0
O466 O 0.98116 0.35738 0.43894 0.0
O467 O 0.9169 0.33128 0.37284 0.0
O468 O 0.89534 0.34061 0.07831 0.0
O469 O 0.8453 0.30144 0.08493 0.0
O470 O 0.04462 0.36706 0.35668 0.0
O471 O 0.95918 0.32144 0.23579 0.0
O472 O 0.92024 0.31819 -0.00868 0.0
O473 O 0.97912 0.35968 0.05915 0.0
O474 O 1.00222 0.33542 0.15539 0.0
O475 O 0.04893 0.40436 0.40897 0.0
C476 C 0.92347 0.36348 0.15649 0.0
C477 C 0.87248 0.20671 0.05491 0.0
C478 C 0.86287 0.20657 0.92998 0.0
C479 C 0.83105 0.291 0.17064 0.0
C480 C 0.7918 0.26503 0.12593 0.0
C481 C 0.78575 0.24067 0.05861 0.0
C482 C 0.76009 0.26413 0.14497 0.0
C483 C 0.72312 0.23913 0.09439 0.0
C484 C 0.75017 0.21642 0.00986 0.0
C485 C 0.71949 0.21568 0.02658 0.0
C486 C 0.94893 0.34512 0.46164 0.0
C487 C 0.97557 0.31349 0.17374 0.0
C488 C 0.06664 0.39311 0.41817 0.0
C489 C 0.10566 0.40886 0.40848 0.0
C490 C 0.11346 0.39674 0.31207 0.0
C491 C 0.13554 0.43513 0.49518 0.0
C492 C 0.17216 0.4487 0.48251 0.0
C493 C 0.14903 0.40972 0.30052 0.0
C494 C 0.17788 0.43517 0.38423 0.0
C495 C 0.94932 0.33881 0.97054 0.0
H496 H 0.80872 0.2404 0.04276 0.0
H497 H 0.76411 0.28275 0.19635 0.0
H498 H 0.74626 0.19789 0.95789 0.0
H499 H 0.69257 0.19629 -0.01304 0.0
H500 H 0.09199 0.37688 0.24508 0.0
H501 H 0.13029 0.44495 0.57017 0.0
H502 H 0.15431 0.39988 0.22578 0.0
H503 H 0.20516 0.44441 0.37181 0.0
Gd504 Gd 0.41938 0.88121 0.784 0.0
Gd505 Gd 0.51266 0.94504 0.89564 0.0
C506 C 0.61472 0.94625 0.05042 0.0
C507 C 0.63777 0.9745 0.26727 0.0
C508 C 0.58341 0.96579 0.1228 0.0
C509 C 0.58557 0.94953 0.02751 0.0
C510 C 0.61004 0.97896 0.24275 0.0
C511 C 0.64011 0.95819 0.1713 0.0
C512 C 0.6183 0.93179 0.95037 0.0
C513 C 0.59389 0.92164 0.83038 0.0
N514 N 0.56062 0.93827 0.91104 0.0
C515 C 0.56554 0.9254 0.81174 0.0
H516 H 0.54765 0.91719 0.71704 0.0
C517 C 0.5567 0.98894 0.18229 0.0
N518 N 0.55668 0.9701 0.09627 0.0
C519 C 0.58229 1.00225 0.30242 0.0
C520 C 0.60875 0.99695 0.3335 0.0
H521 H 0.53652 0.99337 0.15981 0.0
H522 H 0.66229 0.95555 0.19057 0.0
H523 H 0.38517 0.8755 0.0383 0.0
H524 H 0.64041 0.929 0.96399 0.0
H525 H 0.59684 0.91084 0.75169 0.0
H526 H 0.65818 0.98422 0.35914 0.0
H527 H 0.38531 0.86269 0.46209 0.0
H528 H 0.30173 0.8899 0.97543 0.0
H529 H 0.33978 0.88005 0.11007 0.0
H530 H 0.28535 0.89398 0.55107 0.0
H531 H 0.58164 1.01666 0.37085 0.0
H532 H 0.6287 1.00743 0.42653 0.0
H533 H 0.28324 0.89672 0.7698 0.0
H534 H 0.34308 0.86546 0.30666 0.0
N535 N 0.37584 0.88473 0.86472 0.0
C536 C 0.32212 0.88825 0.943 0.0
C537 C 0.34361 0.88275 0.01935 0.0
C538 C 0.32621 0.8905 0.82376 0.0
C539 C 0.35295 0.88789 0.78517 0.0
C540 C 0.3701 0.88075 0.97832 0.0
N541 N 0.3767 0.88028 0.62261 0.0
C542 C 0.354 0.88621 0.66144 0.0
C543 C 0.34637 0.87193 0.40622 0.0
C544 C 0.3261 0.88116 0.44626 0.0
C545 C 0.37051 0.8706 0.49535 0.0
C546 C 0.32854 0.8873 0.57439 0.0
H547 H 0.30693 0.88176 0.37679 0.0
O548 O 0.38849 0.84134 0.64576 0.0
O549 O 0.47981 0.89911 0.86886 0.0
O550 O 0.50055 0.92167 0.69548 0.0
O551 O 0.43819 0.90119 0.63148 0.0
O552 O 0.45009 0.863 0.72668 0.0
O553 O 0.38442 0.84465 0.83762 0.0
O554 O 0.55774 0.98651 0.90444 0.0
O555 O 0.45213 0.92652 0.83991 0.0
O556 O 0.44115 0.89183 -0.00147 0.0
O557 O 0.49822 0.93524 0.07355 0.0
O558 O 0.48531 0.96459 0.97109 0.0
O559 O 0.50847 0.96329 0.74671 0.0
C560 C 0.48193 0.88041 0.80927 0.0
C561 C 0.30451 0.89256 0.61609 0.0
C562 C 0.30323 0.89404 0.7405 0.0
C563 C 0.37578 0.82827 0.72744 0.0
C564 C 0.37939 0.80564 0.72695 0.0
C565 C 0.35566 0.78127 0.62741 0.0
C566 C 0.40678 0.80832 0.82152 0.0
C567 C 0.40994 0.78637 0.81704 0.0
C568 C 0.35898 0.75952 0.62196 0.0
C569 C 0.3858 0.76194 0.71617 0.0
C570 C 0.46934 0.90943 0.60525 0.0
C571 C 0.45155 0.94525 0.90746 0.0
C572 C 0.53986 0.9868 0.80161 0.0
C573 C 0.53978 1.01135 0.80185 0.0
C574 C 0.54926 0.03053 0.91517 0.0
C575 C 0.52962 1.01547 0.68584 0.0
C576 C 0.52837 0.03827 0.6828 0.0
C577 C 0.54878 0.05344 0.91266 0.0
C578 C 0.53824 0.05724 0.79764 0.0
C579 C 0.46991 0.91334 0.09106 0.0
H580 H 0.33458 0.77913 0.55387 0.0
H581 H 0.42517 0.82715 0.89878 0.0
H582 H 0.34038 0.74058 0.5457 0.0
H583 H 0.38676 0.74427 0.7124 0.0
H584 H 0.55699 1.02784 0.00557 0.0
H585 H 0.52208 1.00067 0.59792 0.0
H586 H 0.55629 0.06822 0.00037 0.0
H587 H 0.53796 0.07511 0.79851 0.0
Gd588 Gd 0.37322 0.60639 0.90684 0.0
Gd589 Gd 0.3905 0.55508 0.85806 0.0
C590 C 0.4926 0.55902 0.03551 0.0
C591 C 0.49415 0.53108 0.85884 0.0
C592 C 0.45098 0.54373 0.82785 0.0
C593 C 0.46368 0.55754 0.95419 0.0
C594 C 0.46686 0.53111 0.77746 0.0
C595 C 0.50661 0.54467 -0.01177 0.0
C596 C 0.50716 0.57538 0.16075 0.0
C597 C 0.49337 0.59018 0.20092 0.0
N598 N 0.44849 0.57029 -0.00368 0.0
C599 C 0.46403 0.58742 0.11743 0.0
H600 H 0.45388 0.59893 0.15283 0.0
C601 C 0.41105 0.53087 0.62649 0.0
N602 N 0.42345 0.54314 0.75368 0.0
C603 C 0.42689 0.51898 0.571 0.0
C604 C 0.45463 0.51879 0.64705 0.0
H605 H 0.38793 0.52932 0.56833 0.0
H606 H 0.52833 0.54511 0.04965 0.0
H607 H 0.29755 0.57502 0.66293 0.0
H608 H 0.52962 0.5773 0.22596 0.0
H609 H 0.50494 0.60345 0.29688 0.0
H610 H 0.5062 0.52101 0.82248 0.0
H611 H 0.41655 0.64651 0.21056 0.0
H612 H 0.21005 0.56854 0.79738 0.0
H613 H 0.2322 0.55879 0.62161 0.0
H614 H 0.27159 0.62211 0.2314 0.0
H615 H 0.41692 0.50923 0.4702 0.0
H616 H 0.4663 0.50904 0.60436 0.0
H617 H 0.22515 0.5925 0.02488 0.0
H618 H 0.40138 0.6632 0.38893 0.0
N619 N 0.31087 0.59061 0.86053 0.0
C620 C 0.2384 0.57491 0.81625 0.0
C621 C 0.25078 0.56936 0.71684 0.0
C622 C 0.2633 0.58987 0.93762 0.0
C623 C 0.29989 0.59757 0.95717 0.0
C624 C 0.28758 0.57809 0.74056 0.0
N625 N 0.36126 0.62187 0.0881 0.0
C626 C 0.32604 0.61431 0.07348 0.0
C627 C 0.37991 0.64939 0.30086 0.0
C628 C 0.34374 0.64129 0.28812 0.0
C629 C 0.38836 0.63975 0.19911 0.0
C630 C 0.31631 0.62368 0.17333 0.0
H631 H 0.33733 0.64886 0.36713 0.0
O632 O 0.41137 0.6505 0.94807 0.0
O633 O 0.4175 0.60032 0.88388 0.0
O634 O 0.39083 0.56681 0.05974 0.0
O635 O 0.35794 0.58592 0.05816 0.0
O636 O 0.43167 0.63032 0.03829 0.0
O637 O 0.36107 0.62792 0.79117 0.0
O638 O 0.35595 0.51154 0.76305 0.0
O639 O 0.34452 0.56056 0.84826 0.0
O640 O 0.36713 0.59229 0.69867 0.0
O641 O 0.4022 0.57451 0.69896 0.0
O642 O 0.33979 0.53401 0.69231 0.0
O643 O 0.36849 0.52547 0.96664 0.0
C644 C 0.44522 0.62042 0.97341 0.0
C645 C 0.27964 0.61531 0.15545 0.0
C646 C 0.25316 0.59835 0.03803 0.0
C647 C 0.38872 0.65197 0.86703 0.0
C648 C 0.38052 0.67128 0.9201 0.0
C649 C 0.34425 0.66237 0.9157 0.0
C650 C 0.40976 0.69894 0.97994 0.0
C651 C 0.40288 0.71829 0.02703 0.0
C652 C 0.33738 0.68074 0.97202 0.0
C653 C 0.36617 0.70847 0.02555 0.0
C654 C 0.37298 0.57508 0.11271 0.0
C655 C 0.32278 0.5431 0.74007 0.0
C656 C 0.35111 0.50441 0.86573 0.0
C657 C 0.3472 0.47871 0.87237 0.0
C658 C 0.35633 0.46585 0.78456 0.0
C659 C 0.32871 0.46474 0.95451 0.0
C660 C 0.31778 0.43761 0.94559 0.0
C661 C 0.34623 0.43924 0.77651 0.0
C662 C 0.32678 0.4251 0.85509 0.0
C663 C 0.38427 0.58355 0.64196 0.0
H664 H 0.3211 0.64135 0.86811 0.0
H665 H 0.43769 0.70556 0.98318 0.0
H666 H 0.30932 0.6737 0.9686 0.0
H667 H 0.35865 0.7222 0.05635 0.0
H668 H 0.37023 0.47597 0.71939 0.0
H669 H 0.32229 0.47494 0.02343 0.0
H670 H 0.35272 0.42927 0.7069 0.0
H671 H 0.31827 0.40414 0.84339 0.0
Gd672 Gd 0.64643 0.77467 0.00905 0.0
Gd673 Gd 0.66011 0.72076 0.96125 0.0
C674 C 0.55453 0.63387 0.7814 0.0
C675 C 0.56181 0.60987 0.92521 0.0
C676 C 0.60715 0.65902 0.96989 0.0
C677 C 0.58763 0.65871 0.8599 0.0
C678 C 0.59494 0.63438 0.00166 0.0
C679 C 0.5413 0.60961 0.81633 0.0
C680 C 0.53646 0.63389 0.66759 0.0
C681 C 0.55159 0.65821 0.63378 0.0
N682 N 0.60179 0.68236 0.82676 0.0
C683 C 0.58422 0.68233 0.71502 0.0
H684 H 0.59454 0.70088 0.68849 0.0
C685 C 0.66278 0.68303 0.13597 0.0
N686 N 0.63963 0.68291 0.04019 0.0
C687 C 0.65197 0.65906 0.17073 0.0
C688 C 0.61751 0.63473 0.10491 0.0
H689 H 0.68966 0.70183 0.18639 0.0
H690 H 0.51607 0.59036 0.75715 0.0
H691 H 0.71192 0.79503 0.30044 0.0
H692 H 0.51108 0.61524 0.60478 0.0
H693 H 0.53787 0.65851 0.54596 0.0
H694 H 0.55285 0.59087 0.94674 0.0
H695 H 0.63246 0.79442 0.75136 0.0
H696 H 0.78142 0.88206 0.41472 0.0
H697 H 0.75883 0.83789 0.46032 0.0
H698 H 0.76023 0.90588 0.04036 0.0
H699 H 0.67024 0.65939 0.24797 0.0
H700 H 0.60919 0.61614 0.13156 0.0
H701 H 0.78293 0.90697 0.25658 0.0
H702 H 0.66037 0.83567 0.68199 0.0
N703 N 0.70299 0.81324 0.16067 0.0
C704 C 0.75964 0.863 0.34289 0.0
C705 C 0.74695 0.83814 0.36892 0.0
C706 C 0.74587 0.86289 0.22193 0.0
C707 C 0.71765 0.83737 0.13077 0.0
C708 C 0.71918 0.81348 0.2764 0.0
N709 N 0.67522 0.81258 0.92616 0.0
C710 C 0.70455 0.83684 0.00893 0.0
C711 C 0.6736 0.83629 0.77335 0.0
C712 C 0.70476 0.86094 0.85456 0.0
C713 C 0.65846 0.81258 0.81254 0.0
C714 C 0.71985 0.86168 0.97533 0.0
H715 H 0.71584 0.87949 0.8254 0.0
O716 O 0.60389 0.7801 0.91709 0.0
O717 O 0.61618 0.72824 0.93617 0.0
O718 O 0.66747 0.73794 0.79884 0.0
O719 O 0.63743 0.75941 0.80024 0.0
O720 O 0.59343 0.7417 0.04564 0.0
O721 O 0.62805 0.79579 0.1175 0.0
O722 O 0.7084 0.71983 -0.00724 0.0
O723 O 0.69189 0.76683 -0.01114 0.0
O724 O 0.65113 0.76422 0.19014 0.0
O725 O 0.65212 0.72527 0.1537 0.0
O726 O 0.71134 0.75341 0.11968 0.0
O727 O 0.66839 0.69968 0.80853 0.0
C728 C 0.58888 0.71982 0.98273 0.0
C729 C 0.74836 0.88675 0.06485 0.0
C730 C 0.76101 0.8874 0.1882 0.0
C731 C 0.60621 0.79485 0.02122 0.0
C732 C 0.60896 0.82138 0.02447 0.0
C733 C 0.64272 0.84632 0.09463 0.0
C734 C 0.57846 0.82271 0.97214 0.0
C735 C 0.58279 0.84872 -0.00899 0.0
C736 C 0.64739 0.87141 0.10894 0.0
C737 C 0.61811 0.87263 0.05827 0.0
C738 C 0.65271 0.74893 0.74448 0.0
C739 C 0.72149 0.77389 0.07327 0.0
C740 C 0.69807 0.70411 0.87971 0.0
C741 C 0.70116 0.68074 0.8675 0.0
C742 C 0.71463 0.67546 0.97381 0.0
C743 C 0.69318 0.6647 0.74655 0.0
C744 C 0.69864 0.6437 0.73102 0.0
C745 C 0.71915 0.65412 0.95894 0.0
C746 C 0.71149 0.63842 0.83828 0.0
C747 C 0.65186 0.74463 0.22661 0.0
H748 H 0.66577 0.84659 0.14275 0.0
H749 H 0.55162 0.80382 0.92168 0.0
H750 H 0.674 0.89021 0.16252 0.0
H751 H 0.62329 0.89273 0.07324 0.0
H752 H 0.72244 0.68808 0.06838 0.0
H753 H 0.68348 0.669 0.66414 0.0
H754 H 0.7296 0.65023 0.04121 0.0
H755 H 0.71684 0.62281 0.82892 0.0
C756 C 0.28487 0.38919 0.15119 0.0
C757 C 0.25592 0.38975 0.17928 0.0
C758 C 0.30491 0.40501 0.07735 0.0
C759 C 0.29665 0.42191 0.02814 0.0
H760 H 0.29215 0.37651 0.18702 0.0
H761 H 0.32729 0.40409 0.05947 0.0
S762 S 0.22267 0.43014 0.07688 0.0
N763 N 0.22004 0.40857 0.15617 0.0
N764 N 0.25646 0.43758 0.01325 0.0
C765 C 0.26755 0.42256 0.05658 0.0
C766 C 0.24746 0.40661 0.13291 0.0
C767 C 0.82708 0.80245 0.1545 0.0
C768 C 0.83681 0.80438 0.04037 0.0
C769 C 0.79098 0.79409 0.16316 0.0
C770 C 0.76144 0.78712 0.05917 0.0
H771 H 0.8476 0.8073 0.2389 0.0
H772 H 0.78602 0.79279 0.25395 0.0
S773 S 0.77006 0.78593 0.73395 0.0
N774 N 0.81147 0.79614 0.81718 0.0
N775 N 0.74551 0.78148 0.83426 0.0
C776 C 0.77055 0.78834 0.94373 0.0
C777 C 0.80722 0.79644 0.93435 0.0
C778 C 0.38832 0.95284 0.07035 0.0
C779 C 0.37577 0.96522 -0.00129 0.0
C780 C 0.41105 0.94518 0.03603 0.0
C781 C 0.42034 0.94716 0.92295 0.0
H782 H 0.38163 0.94975 0.15745 0.0
H783 H 0.42179 0.93776 0.09994 0.0
S784 S 0.39436 0.97675 0.6949 0.0
N785 N 0.37505 0.97886 0.8058 0.0
N786 N 0.41527 0.96228 0.73729 0.0
C787 C 0.40679 0.95817 0.84621 0.0
C788 C 0.38469 0.9672 0.88373 0.0
C789 C 0.399 0.12408 0.15426 0.0
C790 C 0.40241 0.13829 0.06116 0.0
C791 C 0.36389 0.10303 0.16925 0.0
C792 C 0.32793 0.09312 0.09109 0.0
H793 H 0.42394 0.12821 0.21328 0.0
H794 H 0.36523 0.09356 0.24247 0.0
S795 S 0.31914 0.12165 0.82588 0.0
N796 N 0.36431 0.13905 0.88547 0.0
N797 N 0.3004 0.10066 0.91164 0.0
C798 C 0.3309 0.10712 -0.00285 0.0
C799 C 0.36687 0.12879 0.98268 0.0
C800 C 0.99803 0.29067 0.30576 0.0
C801 C 0.98258 0.29119 0.18658 0.0
C802 C 1.01494 0.27629 0.31994 0.0
C803 C 1.01753 0.26099 0.21649 0.0
H804 H 0.99929 0.30301 0.39023 0.0
H805 H 1.02769 0.27819 0.41503 0.0
S806 S 0.9797 0.25387 0.88176 0.0
N807 N 0.97032 0.27373 0.96127 0.0
N808 N 1.00054 0.24656 -0.01206 0.0
C809 C 1.00052 0.26015 0.09635 0.0
C810 C 0.98378 0.27521 0.08183 0.0
C811 C 0.84592 0.63229 0.97251 0.0
C812 C 0.87247 0.65515 0.08018 0.0
C813 C 0.82796 0.60382 0.97198 0.0
C814 C 0.83525 0.59475 0.07679 0.0
H815 H 0.83874 0.63636 0.88563 0.0
H816 H 0.8067 0.58841 0.88698 0.0
S817 S 0.90261 0.64545 0.38667 0.0
N818 N 0.90579 0.6655 0.29703 0.0
N819 N 0.87128 0.61343 0.29708 0.0
C820 C 0.86183 0.61747 0.18558 0.0
C821 C 0.88059 0.64667 0.18618 0.0
C822 C 0.26402 0.51878 0.56512 0.0
C823 C 0.28106 0.52477 0.69389 0.0
C824 C 0.22726 0.49608 0.50294 0.0
C825 C 0.20559 0.477 0.56393 0.0
H826 H 0.28009 0.53087 0.50915 0.0
H827 H 0.2167 0.49216 0.40249 0.0
S828 S 0.2362 0.48315 0.90273 0.0
N829 N 0.27232 0.51027 0.88278 0.0
N830 N 0.20385 0.46672 0.76468 0.0
C831 C 0.22147 0.48336 0.6947 0.0
C832 C 0.25898 0.50721 0.75943 0.0
C833 C 0.70973 0.64378 0.5201 0.0
C834 C 0.69365 0.62883 0.60308 0.0
C835 C 0.70714 0.63053 0.40091 0.0
C836 C 0.68837 0.60181 0.36017 0.0
H837 H 0.7253 0.66601 0.54876 0.0
H838 H 0.72081 0.64296 0.34162 0.0
S839 S 0.63813 0.55302 0.53685 0.0
N840 N 0.65615 0.58367 0.63333 0.0
N841 N 0.65091 0.5586 0.40845 0.0
C842 C 0.67115 0.58651 0.44074 0.0
C843 C 0.6739 0.60005 0.56239 0.0
C844 C 0.5246 0.04702 0.35215 0.0
C845 C 0.49722 0.05201 0.32681 0.0
C846 C 0.53424 0.04231 0.46648 0.0
C847 C 0.51697 0.04243 0.56041 0.0
H848 H 0.53904 0.04704 0.28348 0.0
H849 H 0.55581 0.03899 0.48242 0.0
S850 S 0.44121 0.05171 0.53749 0.0
N851 N 0.45137 0.05495 0.40326 0.0
N852 N 0.46964 0.0462 0.61758 0.0
C853 C 0.48916 0.04689 0.5357 0.0
C854 C 0.47928 0.05166 0.41931 0.0
C855 C 0.12025 0.15402 0.03869 0.0
C856 C 0.12462 0.13911 0.11915 0.0
C857 C 0.11093 0.17289 0.07323 0.0
C858 C 0.10681 0.17934 0.19332 0.0
H859 H 0.12194 0.14986 0.9435 0.0
H860 H 0.10513 0.18143 0.00227 0.0
S861 S 0.11797 0.14869 0.44661 0.0
N862 N 0.12527 0.13388 0.32905 0.0
N863 N 0.11007 0.16991 0.39605 0.0
C864 C 0.11328 0.16594 0.2776 0.0
C865 C 0.1219 0.14615 0.24114 0.0
C866 C 0.98215 0.03248 0.29864 0.0
C867 C 0.98917 1.01526 0.22772 0.0
C868 C 0.97263 0.04806 0.24405 0.0
C869 C 0.96944 0.04685 0.11619 0.0
H870 H 0.98375 0.03379 0.39714 0.0
H871 H 0.96736 0.06097 0.30202 0.0
S872 S 0.98775 1.00691 0.89147 0.0
N873 N 0.99439 0.99932 0.02418 0.0
N874 N 0.97568 1.02824 0.92123 0.0
C875 C 0.9766 0.02996 0.04414 0.0
C876 C 0.98662 1.01424 0.09992 0.0
C877 C 0.06325 0.90985 0.96725 0.0
C878 C 0.05482 0.90511 0.08323 0.0
C879 C 0.0957 0.93508 0.95697 0.0
C880 C 0.12467 0.95858 0.06159 0.0
H881 H 1.04293 0.89444 0.88024 0.0
H882 H 0.09651 0.93673 0.8629 0.0
S883 S 0.11658 0.96062 0.38903 0.0
N884 N 0.07995 0.92959 0.30624 0.0
N885 N 0.13829 0.97457 0.28764 0.0
C886 C 0.11659 0.95411 0.17764 0.0
C887 C 0.08351 0.92862 0.18795 0.0
C888 C 0.90134 0.41639 0.25463 0.0
C889 C 0.90824 0.43049 0.16163 0.0
C890 C 0.90798 0.39579 0.25689 0.0
C891 C 0.92296 0.38875 0.16863 0.0
H892 H 0.89111 0.42156 0.32751 0.0
H893 H 0.90107 0.38513 0.32809 0.0
S894 S 0.94563 0.41895 0.9046 0.0
N895 N 0.93104 0.43548 0.97882 0.0
N896 N 0.94263 0.39695 0.98174 0.0
C897 C 0.92936 0.40238 0.07432 0.0
C898 C 0.92271 0.4233 0.07209 0.0
C899 C 0.68495 0.40831 0.93461 0.0
C900 C 0.70993 0.43222 0.03986 0.0
C901 C 0.65757 0.38189 0.94655 0.0
C902 C 0.65388 0.377 0.06509 0.0
H903 H 0.68561 0.41024 0.84056 0.0
H904 H 0.63815 0.36533 0.86109 0.0
S905 S 0.71424 0.4311 0.37288 0.0
N906 N 0.73005 0.44758 0.26866 0.0
N907 N 0.6797 0.39924 0.29067 0.0
C908 C 0.67958 0.40049 0.17085 0.0
C909 C 0.70718 0.42737 0.15868 0.0
C910 C 0.61978 0.21366 0.01776 0.0
C911 C 0.61517 0.22099 0.1358 0.0
C912 C 0.65465 0.22054 0.00515 0.0
C913 C 0.68745 0.23577 0.10905 0.0
H914 H 0.59616 0.20232 0.934 0.0
H915 H 0.65579 0.21355 0.91213 0.0
S916 S 0.69129 0.26133 0.43837 0.0
N917 N 0.64746 0.24547 0.35837 0.0
N918 N 0.71206 0.25832 0.3344 0.0
C919 C 0.68336 0.24399 0.2266 0.0
C920 C 0.64778 0.23677 0.23971 0.0
C921 C 0.5503 0.87247 0.02639 0.0
C922 C 0.55259 0.85306 0.94577 0.0
C923 C 0.52801 0.88134 0.98314 0.0
C924 C 0.50665 0.87149 0.85613 0.0
H925 H 0.56675 0.88155 0.12458 0.0
H926 H 0.52787 0.8963 0.0499 0.0
S927 S 0.49943 0.81881 0.60632 0.0
N928 N 0.52903 0.82325 0.73245 0.0
N929 N 0.48725 0.83944 0.65182 0.0
C930 C 0.50724 0.85116 0.77567 0.0
C931 C 0.52998 0.84211 0.81988 0.0
C932 C 0.45056 0.75514 0.95495 0.0
C933 C 0.4307 0.74823 0.04448 0.0
C934 C 0.45233 0.77435 0.89537 0.0
C935 C 0.43401 0.78646 0.92407 0.0
H936 H 0.45842 0.74242 0.91256 0.0
H937 H 0.46118 0.77534 0.81082 0.0
S938 S 0.40437 0.7899 0.21189 0.0
N939 N 0.41369 0.76678 0.2079 0.0
N940 N 0.41328 0.80099 0.08762 0.0
C941 C 0.42561 0.7864 0.0393 0.0
C942 C 0.42529 0.76766 0.10301 0.0
C943 C 0.52415 0.67505 0.86099 0.0
C944 C 0.55517 0.69082 0.97088 0.0
C945 C 0.48985 0.65065 0.85691 0.0
C946 C 0.48388 0.64119 0.96455 0.0
H947 H 0.52561 0.68241 0.7787 0.0
H948 H 0.46702 0.64031 0.7711 0.0
S949 S 0.55262 0.67696 0.28215 0.0
N950 N 0.57476 0.6956 0.19293 0.0
N951 N 0.51142 0.65152 0.18709 0.0
C952 C 0.51414 0.65716 0.07519 0.0
C953 C 0.54905 0.68145 0.07834 0.0
C954 C 0.0974 0.23476 0.7896 0.0
C955 C 0.06434 0.22392 0.82244 0.0
C956 C 0.0974 0.23365 0.66448 0.0
C957 C 0.06439 0.22177 0.56833 0.0
H958 H 0.1234 0.24373 0.86034 0.0
H959 H 0.12338 0.24172 0.64314 0.0
S960 S 0.97053 0.19106 0.60848 0.0
N961 N 0.99838 0.20275 0.75233 0.0
N962 N 0.99744 0.19776 0.51588 0.0
C963 C 1.03108 0.21046 0.60075 0.0
C964 C 1.03133 0.21245 0.72839 0.0
C965 C 0.91918 0.81878 0.61261 0.0
C966 C 0.93881 0.84292 0.71413 0.0
C967 C 0.92378 0.81961 0.49255 0.0
C968 C 0.94857 0.84459 0.46947 0.0
H969 H 0.89977 0.79907 0.62546 0.0
H970 H 0.90718 0.80048 0.41681 0.0
S971 S 1.00775 0.91368 0.70437 0.0
N972 N 0.984 0.89274 0.78336 0.0
N973 N 0.99437 0.89393 0.55994 0.0
C974 C 0.96907 0.86883 0.57088 0.0
C975 C 0.9636 0.86811 0.69233 0.0
C976 C 0.21289 1.00481 0.58967 0.0
C977 C 0.21483 1.02582 0.67335 0.0
C978 C 0.21749 1.00666 0.47044 0.0
C979 C 0.22424 0.0296 0.43162 0.0
H980 H 0.20753 0.98673 0.61594 0.0
H981 H 0.21411 0.98951 0.40686 0.0
S982 S 0.23542 0.09119 0.61857 0.0
N983 N 0.22784 0.07136 0.71232 0.0
N984 N 0.23388 0.07398 0.48644 0.0
C985 C 0.22676 0.0508 0.51483 0.0
C986 C 0.22272 0.04912 0.63625 0.0
C987 C 0.79014 0.50146 0.50982 0.0
C988 C 0.784 0.5191 0.45894 0.0
C989 C 0.78522 0.4978 0.62685 0.0
C990 C 0.77415 0.51173 0.69901 0.0
H991 H 0.79777 0.48959 0.4576 0.0
H992 H 0.79015 0.48384 0.66077 0.0
S993 S 0.75522 0.56093 0.61019 0.0
N994 N 0.76712 0.55127 0.49154 0.0
N995 N 0.75741 0.54422 0.71079 0.0
C996 C 0.76813 0.52964 0.64981 0.0
C997 C 0.77339 0.53349 0.5306 0.0
C998 C 0.48968 0.16573 0.477 0.0
C999 C 0.51614 0.19046 0.45612 0.0
C1000 C 0.4882 0.16407 0.59869 0.0
C1001 C 0.5136 0.18698 0.70357 0.0
H1002 H 0.46953 0.14755 0.39883 0.0
H1003 H 0.46657 0.14494 0.61019 0.0
S1004 S 0.59222 0.25512 0.70005 0.0
N1005 N 0.57051 0.23739 0.54971 0.0
N1006 N 0.56875 0.23432 0.78007 0.0
C1007 C 0.54144 0.21149 0.68434 0.0
C1008 C 0.54248 0.21324 0.56009 0.0
C1009 C 0.97884 0.34803 0.676 0.0
C1010 C 0.94874 0.34473 0.59265 0.0
C1011 C 0.97842 0.34554 0.79753 0.0
C1012 C 0.94797 0.33968 0.84002 0.0
H1013 H 1.00263 0.35194 0.64646 0.0
H1014 H 1.0019 0.34785 0.85805 0.0
S1015 S 0.86395 0.33194 0.66452 0.0
N1016 N 0.88855 0.33686 0.56422 0.0
N1017 N 0.88826 0.33271 0.79439 0.0
C1018 C 0.91806 0.33692 0.7593 0.0
C1019 C 0.91835 0.33935 0.63512 0.0
C1020 C 0.4665 0.92928 0.42787 0.0
C1021 C 0.47083 0.91063 0.47564 0.0
C1022 C 0.46736 0.93061 0.30436 0.0
C1023 C 0.47088 0.91248 0.22268 0.0
H1024 H 0.4628 0.94313 0.48687 0.0
H1025 H 0.4649 0.94574 0.27249 0.0
S1026 S 0.48593 0.86141 0.30584 0.0
N1027 N 0.48174 0.87525 0.43572 0.0
N1028 N 0.48081 0.87642 0.20066 0.0
C1029 C 0.4756 0.89396 0.26988 0.0
C1030 C 0.47613 0.89333 0.39715 0.0
C1031 C 0.40184 0.57597 0.32467 0.0
C1032 C 0.37328 0.57491 0.24439 0.0
C1033 C 0.40548 0.57919 0.4534 0.0
C1034 C 0.38055 0.58132 0.50678 0.0
H1035 H 0.4221 0.57485 0.28904 0.0
H1036 H 0.42825 0.58027 0.51155 0.0
S1037 S 0.29685 0.57445 0.33309 0.0
N1038 N 0.31656 0.57219 0.22407 0.0
N1039 N 0.32414 0.57939 0.46702 0.0
C1040 C 0.35097 0.57919 0.42673 0.0
C1041 C 0.34703 0.57555 0.29521 0.0
C1042 C 0.65654 0.76861 0.56405 0.0
C1043 C 0.65162 0.74724 0.6122 0.0
C1044 C 0.6565 0.76747 0.43948 0.0
C1045 C 0.65223 0.745 0.35837 0.0
H1046 H 0.66185 0.78685 0.62265 0.0
H1047 H 0.66033 0.78467 0.40787 0.0
S1048 S 0.63906 0.68356 0.4407 0.0
N1049 N 0.64282 0.70296 0.57087 0.0
N1050 N 0.64311 0.70082 0.33687 0.0
C1051 C 0.64805 0.72366 0.40643 0.0
C1052 C 0.64769 0.72476 0.5332 0.0
loop_
_geom_bond_atom_site_label_1
_geom_bond_atom_site_label_2
_geom_bond_distance
_geom_bond_site_symmetry_2
_ccdc_geom_bond_type
Gd0 N31 2.661 . S
Gd0 N37 2.601 1_554 S
Gd0 O44 2.545 . S
Gd0 O45 2.606 1_655 S
Gd0 O47 2.429 1_654 S
Gd0 O48 2.545 1_655 S
Gd0 O49 2.412 . S
Gd0 O51 2.362 1_655 S
Gd0 O52 2.324 1_655 S
Gd0 C59 2.828 . S
Gd1 N10 2.661 . S
Gd1 N14 2.601 . S
Gd1 O45 2.362 . S
Gd1 O46 2.324 . S
Gd1 O50 2.545 . S
Gd1 O51 2.606 . S
Gd1 O53 2.429 . S
Gd1 O54 2.545 . S
Gd1 O55 2.412 . S
Gd1 C68 2.828 . S
C2 C5 1.417 . S
C2 C7 1.431 . S
C2 C8 1.412 . S
C3 C6 1.437 . S
C3 C7 1.317 . S
C3 H22 0.929 . S
C4 C5 1.426 . S
C4 C6 1.413 . S
C4 N14 1.359 . S
C5 C2 1.417 . S
C5 C4 1.426 . S
C5 N10 1.350 . S
C6 C3 1.437 . S
C6 C4 1.413 . S
C6 C16 1.391 . S
C7 C2 1.431 . S
C7 C3 1.317 . S
C7 H18 0.930 . S
C8 C2 1.412 . S
C8 C9 1.355 . S
C8 H20 0.930 . S
C9 C8 1.355 . S
C9 C11 1.402 . S
C9 H21 0.930 1_554 S
N10 Gd1 2.661 . S
N10 C5 1.350 . S
N10 C11 1.307 . S
C11 C9 1.402 . S
C11 N10 1.307 . S
C11 H12 0.930 . S
H12 C11 0.930 . S
C13 N14 1.334 . S
C13 C15 1.394 . S
C13 H17 0.930 . S
N14 Gd1 2.601 . S
N14 C4 1.359 . S
N14 C13 1.334 . S
C15 C13 1.394 . S
C15 C16 1.359 . S
C15 H27 0.930 . S
C16 C6 1.391 . S
C16 C15 1.359 . S
C16 H28 0.929 . S
H17 C13 0.930 . S
H18 C7 0.930 . S
H19 C36 0.930 . S
H20 C8 0.930 . S
H21 C9 0.930 1_556 S
H22 C3 0.929 . S
H23 C41 0.930 . S
H24 C32 0.930 . S
H25 C33 0.930 . S
H26 C57 0.929 . S
H27 C15 0.930 . S
H28 C16 0.929 . S
H29 C58 0.930 . S
H30 C39 0.930 . S
N31 Gd0 2.661 . S
N31 C35 1.350 . S
N31 C36 1.307 . S
C32 H24 0.930 . S
C32 C33 1.355 . S
C32 C34 1.412 . S
C33 H25 0.930 . S
C33 C32 1.355 . S
C33 C36 1.402 . S
C34 C32 1.412 . S
C34 C35 1.417 . S
C34 C58 1.431 . S
C35 N31 1.350 . S
C35 C34 1.417 . S
C35 C38 1.426 . S
C36 H19 0.930 . S
C36 N31 1.307 . S
C36 C33 1.402 . S
N37 Gd0 2.601 1_556 S
N37 C38 1.359 1_556 S
N37 C41 1.334 . S
C38 C35 1.426 . S
C38 N37 1.359 1_554 S
C38 C42 1.413 1_554 S
C39 H30 0.930 . S
C39 C40 1.359 . S
C39 C41 1.394 . S
C40 C39 1.359 . S
C40 C42 1.391 . S
C40 H43 0.929 . S
C41 H23 0.930 . S
C41 N37 1.334 . S
C41 C39 1.394 . S
C42 C38 1.413 1_556 S
C42 C40 1.391 . S
C42 C57 1.437 . S
H43 C40 0.929 . S
O44 Gd0 2.545 . S
O44 C59 1.258 . S
O45 Gd0 2.606 1_455 S
O45 Gd1 2.362 . S
O45 C56 1.284 . S
O46 Gd1 2.324 . S
O46 C66 1.254 1_554 S
O47 Gd0 2.429 1_456 S
O47 C66 1.268 . S
O48 Gd0 2.545 1_455 S
O48 C56 1.250 . S
O49 Gd0 2.412 . S
O49 C59 1.252 . S
O50 Gd1 2.545 . S
O50 C68 1.258 . S
O51 Gd0 2.362 1_455 S
O51 Gd1 2.606 . S
O51 C67 1.284 . S
O52 Gd0 2.324 1_455 S
O52 C75 1.254 . S
O53 Gd1 2.429 . S
O53 C75 1.268 . S
O54 Gd1 2.545 . S
O54 C67 1.250 . S
O55 Gd1 2.412 . S
O55 C68 1.252 . S
C56 O45 1.284 . S
C56 O48 1.250 . S
C57 H26 0.929 . S
C57 C42 1.437 . S
C57 C58 1.317 1_556 S
C58 H29 0.930 . S
C58 C34 1.431 . S
C58 C57 1.317 1_554 S
C59 Gd0 2.828 . S
C59 O44 1.258 . S
C59 O49 1.252 . S
C59 C60 1.497 . S
C60 C59 1.497 . S
C60 C61 1.396 . S
C60 C62 1.380 . S
C61 C60 1.396 . S
C61 C64 1.398 1_554 S
C61 H76 0.928 1_554 S
C62 C60 1.380 . S
C62 C63 1.391 . S
C62 H77 0.930 . S
C63 C62 1.391 . S
C63 C65 1.387 . S
C64 C61 1.398 1_556 S
C64 C65 1.380 1_556 S
C64 H78 0.930 . S
C65 C63 1.387 . S
C65 C64 1.380 1_554 S
C65 H79 0.930 1_545 S
C66 O46 1.254 1_556 S
C66 O47 1.268 . S
C67 O51 1.284 . S
C67 O54 1.250 . S
C68 Gd1 2.828 . S
C68 O50 1.258 . S
C68 O55 1.252 . S
C68 C69 1.497 . S
C69 C68 1.497 . S
C69 C70 1.395 . S
C69 C71 1.380 . S
C70 C69 1.395 . S
C70 C73 1.398 . S
C70 H80 0.930 . S
C71 C69 1.380 . S
C71 C72 1.391 . S
C71 H81 0.930 . S
C72 C71 1.391 . S
C72 C74 1.387 . S
C73 C70 1.398 . S
C73 C74 1.380 . S
C73 H82 0.930 . S
C74 C72 1.387 . S
C74 C73 1.380 . S
C74 H83 0.930 . S
C75 O52 1.254 . S
C75 O53 1.268 . S
H76 C61 0.928 1_556 S
H77 C62 0.930 . S
H78 C64 0.930 . S
H79 C65 0.930 1_565 S
H80 C70 0.930 . S
H81 C71 0.930 . S
H82 C73 0.930 . S
H83 C74 0.930 . S
Gd84 N115 2.661 . S
Gd84 N121 2.601 . S
Gd84 O128 2.545 . S
Gd84 O129 2.606 . S
Gd84 O131 2.429 . S
Gd84 O132 2.545 . S
Gd84 O133 2.412 . S
Gd84 O135 2.362 . S
Gd84 O136 2.324 . S
Gd84 C143 2.828 . S
Gd85 N94 2.661 . S
Gd85 N98 2.601 . S
Gd85 O129 2.362 . S
Gd85 O130 2.324 . S
Gd85 O134 2.545 . S
Gd85 O135 2.606 . S
Gd85 O137 2.429 1_554 S
Gd85 O138 2.545 . S
Gd85 O139 2.412 . S
Gd85 C152 2.828 . S
C86 C89 1.417 1_455 S
C86 C91 1.431 . S
C86 C92 1.412 . S
C87 C90 1.435 1_454 S
C87 C91 1.317 . S
C87 H106 0.929 . S
C88 C89 1.426 . S
C88 C90 1.410 1_554 S
C88 N98 1.359 . S
C89 C86 1.417 1_655 S
C89 C88 1.426 . S
C89 N94 1.350 . S
C90 C87 1.435 1_656 S
C90 C88 1.410 1_556 S
C90 C100 1.396 . S
C91 C86 1.431 . S
C91 C87 1.317 . S
C91 H102 0.930 . S
C92 C86 1.412 . S
C92 C93 1.355 . S
C92 H104 0.930 . S
C93 C92 1.355 . S
C93 C95 1.402 1_455 S
C93 H105 0.930 . S
N94 Gd85 2.661 . S
N94 C89 1.350 . S
N94 C95 1.307 . S
C95 C93 1.402 1_655 S
C95 N94 1.307 . S
C95 H96 0.930 . S
H96 C95 0.930 . S
C97 N98 1.334 1_556 S
C97 C99 1.394 . S
C97 H101 0.930 . S
N98 Gd85 2.601 . S
N98 C88 1.359 . S
N98 C97 1.334 1_554 S
C99 C97 1.394 . S
C99 C100 1.359 . S
C99 H111 0.930 . S
C100 C90 1.396 . S
C100 C99 1.359 . S
C100 H112 0.929 . S
H101 C97 0.930 . S
H102 C91 0.930 . S
H103 C120 0.930 . S
H104 C92 0.930 . S
H105 C93 0.930 . S
H106 C87 0.929 . S
H107 C125 0.930 . S
H108 C116 0.930 . S
H109 C117 0.930 . S
H110 C141 0.929 . S
H111 C99 0.930 . S
H112 C100 0.929 . S
H113 C142 0.930 . S
H114 C123 0.930 . S
N115 Gd84 2.661 . S
N115 C119 1.350 . S
N115 C120 1.307 1_554 S
C116 H108 0.930 . S
C116 C117 1.355 . S
C116 C118 1.412 1_556 S
C117 H109 0.930 . S
C117 C116 1.355 . S
C117 C120 1.402 . S
C118 C116 1.412 1_554 S
C118 C119 1.417 . S
C118 C142 1.431 . S
C119 N115 1.350 . S
C119 C118 1.417 . S
C119 C122 1.426 . S
C120 H103 0.930 . S
C120 N115 1.307 1_556 S
C120 C117 1.402 . S
N121 Gd84 2.601 . S
N121 C122 1.359 . S
N121 C125 1.334 . S
C122 C119 1.426 . S
C122 N121 1.359 . S
C122 C126 1.413 . S
C123 H114 0.930 . S
C123 C124 1.359 . S
C123 C125 1.394 . S
C124 C123 1.359 . S
C124 C126 1.391 . S
C124 H127 0.929 . S
C125 H107 0.930 . S
C125 N121 1.334 . S
C125 C123 1.394 . S
C126 C122 1.413 . S
C126 C124 1.391 . S
C126 C141 1.437 . S
H127 C124 0.929 . S
O128 Gd84 2.545 . S
O128 C143 1.258 . S
O129 Gd84 2.606 . S
O129 Gd85 2.362 . S
O129 C140 1.284 . S
O130 Gd85 2.324 . S
O130 C150 1.254 . S
O131 Gd84 2.429 . S
O131 C150 1.268 . S
O132 Gd84 2.545 . S
O132 C140 1.250 . S
O133 Gd84 2.412 . S
O133 C143 1.252 . S
O134 Gd85 2.545 . S
O134 C152 1.258 . S
O135 Gd84 2.362 . S
O135 Gd85 2.606 . S
O135 C151 1.284 . S
O136 Gd84 2.324 . S
O136 C159 1.254 1_554 S
O137 Gd85 2.429 1_556 S
O137 C159 1.268 . S
O138 Gd85 2.545 . S
O138 C151 1.250 . S
O139 Gd85 2.412 . S
O139 C152 1.252 . S
C140 O129 1.284 . S
C140 O132 1.250 . S
C141 H110 0.929 . S
C141 C126 1.437 . S
C141 C142 1.317 . S
C142 H113 0.930 . S
C142 C118 1.431 . S
C142 C141 1.317 . S
C143 Gd84 2.828 . S
C143 O128 1.258 . S
C143 O133 1.252 . S
C143 C144 1.497 . S
C144 C143 1.497 . S
C144 C145 1.395 . S
C144 C146 1.380 . S
C145 C144 1.395 . S
C145 C148 1.398 . S
C145 H160 0.930 . S
C146 C144 1.380 . S
C146 C147 1.391 . S
C146 H161 0.930 . S
C147 C146 1.391 . S
C147 C149 1.387 . S
C148 C145 1.398 . S
C148 C149 1.380 . S
C148 H162 0.930 . S
C149 C147 1.387 . S
C149 C148 1.380 . S
C149 H163 0.930 . S
C150 O130 1.254 . S
C150 O131 1.268 . S
C151 O135 1.284 . S
C151 O138 1.250 . S
C152 Gd85 2.828 . S
C152 O134 1.258 . S
C152 O139 1.252 . S
C152 C153 1.497 . S
C153 C152 1.497 . S
C153 C154 1.395 . S
C153 C155 1.380 . S
C154 C153 1.395 . S
C154 C157 1.398 . S
C154 H164 0.930 1_554 S
C155 C153 1.380 . S
C155 C156 1.391 . S
C155 H165 0.930 . S
C156 C155 1.391 . S
C156 C158 1.387 . S
C157 C154 1.398 . S
C157 C158 1.380 . S
C157 H166 0.930 1_554 S
C158 C156 1.387 . S
C158 C157 1.380 . S
C158 H167 0.930 . S
C159 O136 1.254 1_556 S
C159 O137 1.268 . S
H160 C145 0.930 . S
H161 C146 0.930 . S
H162 C148 0.930 . S
H163 C149 0.930 . S
H164 C154 0.930 1_556 S
H165 C155 0.930 . S
H166 C157 0.930 1_556 S
H167 C158 0.930 . S
Gd168 N199 2.661 . S
Gd168 N205 2.601 1_554 S
Gd168 O212 2.545 1_554 S
Gd168 O213 2.606 1_545 S
Gd168 O215 2.429 1_554 S
Gd168 O216 2.545 1_545 S
Gd168 O217 2.412 . S
Gd168 O219 2.362 . S
Gd168 O220 2.324 . S
Gd168 C227 2.828 . S
Gd169 N178 2.661 1_554 S
Gd169 N182 2.601 . S
Gd169 O213 2.362 . S
Gd169 O214 2.324 1_554 S
Gd169 O218 2.545 . S
Gd169 O219 2.606 1_565 S
Gd169 O221 2.429 1_565 S
Gd169 O222 2.545 1_565 S
Gd169 O223 2.412 1_554 S
Gd169 C236 2.828 . S
C170 C173 1.417 . S
C170 C175 1.431 . S
C170 C176 1.412 . S
C171 C174 1.437 . S
C171 C175 1.317 1_554 S
C171 H190 0.929 . S
C172 C173 1.426 1_554 S
C172 C174 1.413 . S
C172 N182 1.359 . S
C173 C170 1.417 . S
C173 C172 1.426 1_556 S
C173 N178 1.350 . S
C174 C171 1.437 . S
C174 C172 1.413 . S
C174 C184 1.391 . S
C175 C170 1.431 . S
C175 C171 1.317 1_556 S
C175 H186 0.930 . S
C176 C170 1.412 . S
C176 C177 1.355 . S
C176 H188 0.930 . S
C177 C176 1.355 . S
C177 C179 1.402 . S
C177 H189 0.930 . S
N178 Gd169 2.661 1_556 S
N178 C173 1.350 . S
N178 C179 1.307 . S
C179 C177 1.402 . S
C179 N178 1.307 . S
C179 H180 0.930 . S
H180 C179 0.930 . S
C181 N182 1.334 . S
C181 C183 1.394 . S
C181 H185 0.930 . S
N182 Gd169 2.601 . S
N182 C172 1.359 . S
N182 C181 1.334 . S
C183 C181 1.394 . S
C183 C184 1.359 . S
C183 H195 0.930 . S
C184 C174 1.391 . S
C184 C183 1.359 . S
C184 H196 0.929 . S
H185 C181 0.930 . S
H186 C175 0.930 . S
H187 C204 0.930 . S
H188 C176 0.930 . S
H189 C177 0.930 . S
H190 C171 0.929 . S
H191 C209 0.930 . S
H192 C200 0.930 . S
H193 C201 0.930 . S
H194 C225 0.929 . S
H195 C183 0.930 . S
H196 C184 0.929 . S
H197 C226 0.930 . S
H198 C207 0.930 . S
N199 Gd168 2.661 . S
N199 C203 1.350 . S
N199 C204 1.307 . S
C200 H192 0.930 . S
C200 C201 1.355 . S
C200 C202 1.412 . S
C201 H193 0.930 . S
C201 C200 1.355 . S
C201 C204 1.402 . S
C202 C200 1.412 . S
C202 C203 1.417 . S
C202 C226 1.431 . S
C203 N199 1.350 . S
C203 C202 1.417 . S
C203 C206 1.426 1_554 S
C204 H187 0.930 . S
C204 N199 1.307 . S
C204 C201 1.402 . S
N205 Gd168 2.601 1_556 S
N205 C206 1.359 . S
N205 C209 1.334 . S
C206 C203 1.426 1_556 S
C206 N205 1.359 . S
C206 C210 1.413 . S
C207 H198 0.930 . S
C207 C208 1.359 . S
C207 C209 1.394 . S
C208 C207 1.359 . S
C208 C210 1.391 . S
C208 H211 0.929 . S
C209 H191 0.930 . S
C209 N205 1.334 . S
C209 C207 1.394 . S
C210 C206 1.413 . S
C210 C208 1.391 . S
C210 C225 1.437 . S
H211 C208 0.929 . S
O212 Gd168 2.545 1_556 S
O212 C227 1.258 1_556 S
O213 Gd168 2.606 1_565 S
O213 Gd169 2.362 . S
O213 C224 1.284 . S
O214 Gd169 2.324 1_556 S
O214 C234 1.254 . S
O215 Gd168 2.429 1_556 S
O215 C234 1.268 1_545 S
O216 Gd168 2.545 1_565 S
O216 C224 1.250 . S
O217 Gd168 2.412 . S
O217 C227 1.252 . S
O218 Gd169 2.545 . S
O218 C236 1.258 . S
O219 Gd168 2.362 . S
O219 Gd169 2.606 1_545 S
O219 C235 1.284 . S
O220 Gd168 2.324 . S
O220 C243 1.254 . S
O221 Gd169 2.429 1_545 S
O221 C243 1.268 . S
O222 Gd169 2.545 1_545 S
O222 C235 1.250 . S
O223 Gd169 2.412 1_556 S
O223 C236 1.252 1_556 S
C224 O213 1.284 . S
C224 O216 1.250 . S
C225 H194 0.929 . S
C225 C210 1.437 . S
C225 C226 1.317 1_556 S
C226 H197 0.930 . S
C226 C202 1.431 . S
C226 C225 1.317 1_554 S
C227 Gd168 2.828 . S
C227 O212 1.258 1_554 S
C227 O217 1.252 . S
C227 C228 1.497 . S
C228 C227 1.497 . S
C228 C229 1.395 1_554 S
C228 C230 1.380 . S
C229 C228 1.395 1_556 S
C229 C232 1.398 1_556 S
C229 H244 0.930 . S
C230 C228 1.380 . S
C230 C231 1.391 . S
C230 H245 0.930 . S
C231 C230 1.391 . S
C231 C233 1.387 . S
C232 C229 1.398 1_554 S
C232 C233 1.380 . S
C232 H246 0.930 1_554 S
C233 C231 1.387 . S
C233 C232 1.380 . S
C233 H247 0.930 . S
C234 O214 1.254 . S
C234 O215 1.268 1_565 S
C235 O219 1.284 . S
C235 O222 1.250 . S
C236 Gd169 2.828 . S
C236 O218 1.258 . S
C236 O223 1.252 1_554 S
C236 C237 1.497 . S
C237 C236 1.497 . S
C237 C238 1.395 . S
C237 C239 1.380 1_554 S
C238 C237 1.395 . S
C238 C241 1.398 . S
C238 H248 0.930 . S
C239 C237 1.380 1_556 S
C239 C240 1.391 . S
C239 H249 0.930 . S
C240 C239 1.391 . S
C240 C242 1.387 . S
C241 C238 1.398 . S
C241 C242 1.380 1_554 S
C241 H250 0.930 . S
C242 C240 1.387 . S
C242 C241 1.380 1_556 S
C242 H251 0.930 . S
C243 O220 1.254 . S
C243 O221 1.268 . S
H244 C229 0.930 . S
H245 C230 0.930 . S
H246 C232 0.930 1_556 S
H247 C233 0.930 . S
H248 C238 0.930 . S
H249 C239 0.930 . S
H250 C241 0.930 . S
H251 C242 0.930 . S
Gd252 N283 2.661 . S
Gd252 N289 2.601 . S
Gd252 O296 2.545 . S
Gd252 O297 2.606 . S
Gd252 O299 2.429 . S
Gd252 O300 2.545 . S
Gd252 O301 2.412 . S
Gd252 O303 2.362 . S
Gd252 O304 2.324 1_554 S
Gd252 C311 2.828 . S
Gd253 N262 2.661 . S
Gd253 N266 2.601 1_554 S
Gd253 O297 2.362 . S
Gd253 O298 2.324 . S
Gd253 O302 2.545 1_554 S
Gd253 O303 2.606 . S
Gd253 O305 2.429 1_554 S
Gd253 O306 2.545 . S
Gd253 O307 2.412 . S
Gd253 C320 2.828 . S
C254 C257 1.417 1_554 S
C254 C259 1.431 1_554 S
C254 C260 1.412 . S
C255 C258 1.437 . S
C255 C259 1.317 . S
C255 H274 0.929 . S
C256 C257 1.426 . S
C256 C258 1.413 . S
C256 N266 1.359 . S
C257 C254 1.417 1_556 S
C257 C256 1.426 . S
C257 N262 1.350 1_556 S
C258 C255 1.437 . S
C258 C256 1.413 . S
C258 C268 1.391 . S
C259 C254 1.431 1_556 S
C259 C255 1.317 . S
C259 H270 0.930 . S
C260 C254 1.412 . S
C260 C261 1.355 . S
C260 H272 0.930 . S
C261 C260 1.355 . S
C261 C263 1.402 . S
C261 H273 0.930 . S
N262 Gd253 2.661 . S
N262 C257 1.350 1_554 S
N262 C263 1.307 . S
C263 C261 1.402 . S
C263 N262 1.307 . S
C263 H264 0.930 . S
H264 C263 0.930 . S
C265 N266 1.334 . S
C265 C267 1.394 . S
C265 H269 0.930 . S
N266 Gd253 2.601 1_556 S
N266 C256 1.359 . S
N266 C265 1.334 . S
C267 C265 1.394 . S
C267 C268 1.359 . S
C267 H279 0.930 . S
C268 C258 1.391 . S
C268 C267 1.359 . S
C268 H280 0.929 . S
H269 C265 0.930 . S
H270 C259 0.930 . S
H271 C288 0.930 . S
H272 C260 0.930 . S
H273 C261 0.930 . S
H274 C255 0.929 . S
H275 C293 0.930 . S
H276 C284 0.930 . S
H277 C285 0.930 . S
H278 C309 0.929 . S
H279 C267 0.930 . S
H280 C268 0.929 . S
H281 C310 0.930 . S
H282 C291 0.930 . S
N283 Gd252 2.661 . S
N283 C287 1.350 . S
N283 C288 1.307 1_554 S
C284 H276 0.930 . S
C284 C285 1.355 1_554 S
C284 C286 1.412 . S
C285 H277 0.930 . S
C285 C284 1.355 1_556 S
C285 C288 1.402 . S
C286 C284 1.412 . S
C286 C287 1.417 . S
C286 C310 1.431 . S
C287 N283 1.350 . S
C287 C286 1.417 . S
C287 C290 1.426 . S
C288 H271 0.930 . S
C288 N283 1.307 1_556 S
C288 C285 1.402 . S
N289 Gd252 2.601 . S
N289 C290 1.359 . S
N289 C293 1.334 . S
C290 C287 1.426 . S
C290 N289 1.359 . S
C290 C294 1.413 . S
C291 H282 0.930 . S
C291 C292 1.359 . S
C291 C293 1.394 . S
C292 C291 1.359 . S
C292 C294 1.391 . S
C292 H295 0.929 . S
C293 H275 0.930 . S
C293 N289 1.334 . S
C293 C291 1.394 . S
C294 C290 1.413 . S
C294 C292 1.391 . S
C294 C309 1.437 . S
H295 C292 0.929 . S
O296 Gd252 2.545 . S
O296 C311 1.258 . S
O297 Gd252 2.606 . S
O297 Gd253 2.362 . S
O297 C308 1.284 . S
O298 Gd253 2.324 . S
O298 C318 1.254 . S
O299 Gd252 2.429 . S
O299 C318 1.268 . S
O300 Gd252 2.545 . S
O300 C308 1.250 . S
O301 Gd252 2.412 . S
O301 C311 1.252 . S
O302 Gd253 2.545 1_556 S
O302 C320 1.258 1_556 S
O303 Gd252 2.362 . S
O303 Gd253 2.606 . S
O303 C319 1.284 . S
O304 Gd252 2.324 1_556 S
O304 C327 1.254 . S
O305 Gd253 2.429 1_556 S
O305 C327 1.268 . S
O306 Gd253 2.545 . S
O306 C319 1.250 . S
O307 Gd253 2.412 . S
O307 C320 1.252 . S
C308 O297 1.284 . S
C308 O300 1.250 . S
C309 H278 0.929 . S
C309 C294 1.437 . S
C309 C310 1.317 . S
C310 H281 0.930 . S
C310 C286 1.431 . S
C310 C309 1.317 . S
C311 Gd252 2.828 . S
C311 O296 1.258 . S
C311 O301 1.252 . S
C311 C312 1.497 . S
C312 C311 1.497 . S
C312 C313 1.395 . S
C312 C314 1.380 1_554 S
C313 C312 1.395 . S
C313 C316 1.398 . S
C313 H328 0.930 . S
C314 C312 1.380 1_556 S
C314 C315 1.391 . S
C314 H329 0.930 . S
C315 C314 1.391 . S
C315 C317 1.387 1_556 S
C316 C313 1.398 . S
C316 C317 1.380 . S
C316 H330 0.930 . S
C317 C315 1.387 1_554 S
C317 C316 1.380 . S
C317 H331 0.930 . S
C318 O298 1.254 . S
C318 O299 1.268 . S
C319 O303 1.284 . S
C319 O306 1.250 . S
C320 Gd253 2.828 . S
C320 O302 1.258 1_554 S
C320 O307 1.252 . S
C320 C321 1.497 . S
C321 C320 1.497 . S
C321 C322 1.395 1_554 S
C321 C323 1.380 . S
C322 C321 1.395 1_556 S
C322 C325 1.398 1_556 S
C322 H332 0.930 . S
C323 C321 1.380 . S
C323 C324 1.391 . S
C323 H333 0.930 . S
C324 C323 1.391 . S
C324 C326 1.387 . S
C325 C322 1.398 1_554 S
C325 C326 1.380 . S
C325 H334 0.930 1_554 S
C326 C324 1.387 . S
C326 C325 1.380 . S
C326 H335 0.930 . S
C327 O304 1.254 . S
C327 O305 1.268 . S
H328 C313 0.930 . S
H329 C314 0.930 . S
H330 C316 0.930 . S
H331 C317 0.930 . S
H332 C322 0.930 . S
H333 C323 0.930 . S
H334 C325 0.930 1_556 S
H335 C326 0.930 . S
Gd336 N367 2.661 1_554 S
Gd336 N373 2.601 . S
Gd336 O380 2.545 . S
Gd336 O381 2.606 . S
Gd336 O383 2.429 . S
Gd336 O384 2.545 . S
Gd336 O385 2.412 1_554 S
Gd336 O387 2.362 1_554 S
Gd336 O388 2.324 1_554 S
Gd336 C395 2.828 . S
Gd337 N346 2.661 1_556 S
Gd337 N350 2.601 . S
Gd337 O381 2.362 1_556 S
Gd337 O382 2.324 1_556 S
Gd337 O386 2.545 . S
Gd337 O387 2.606 . S
Gd337 O389 2.429 . S
Gd337 O390 2.545 . S
Gd337 O391 2.412 1_556 S
Gd337 C404 2.828 . S
C338 C341 1.417 . S
C338 C343 1.431 . S
C338 C344 1.412 . S
C339 C342 1.437 . S
C339 C343 1.317 1_556 S
C339 H358 0.929 . S
C340 C341 1.426 1_556 S
C340 C342 1.413 . S
C340 N350 1.359 . S
C341 C338 1.417 . S
C341 C340 1.426 1_554 S
C341 N346 1.350 . S
C342 C339 1.437 . S
C342 C340 1.413 . S
C342 C352 1.391 . S
C343 C338 1.431 . S
C343 C339 1.317 1_554 S
C343 H354 0.930 . S
C344 C338 1.412 . S
C344 C345 1.355 . S
C344 H356 0.930 . S
C345 C344 1.355 . S
C345 C347 1.402 . S
C345 H357 0.930 . S
N346 Gd337 2.661 1_554 S
N346 C341 1.350 . S
N346 C347 1.307 . S
C347 C345 1.402 . S
C347 N346 1.307 . S
C347 H348 0.930 . S
H348 C347 0.930 . S
C349 N350 1.334 . S
C349 C351 1.394 . S
C349 H353 0.930 . S
N350 Gd337 2.601 . S
N350 C340 1.359 . S
N350 C349 1.334 . S
C351 C349 1.394 . S
C351 C352 1.359 . S
C351 H363 0.930 . S
C352 C342 1.391 . S
C352 C351 1.359 . S
C352 H364 0.929 . S
H353 C349 0.930 . S
H354 C343 0.930 . S
H355 C372 0.930 . S
H356 C344 0.930 . S
H357 C345 0.930 . S
H358 C339 0.929 . S
H359 C377 0.930 . S
H360 C368 0.930 . S
H361 C369 0.930 . S
H362 C393 0.929 . S
H363 C351 0.930 . S
H364 C352 0.929 . S
H365 C394 0.930 . S
H366 C375 0.930 . S
N367 Gd336 2.661 1_556 S
N367 C371 1.350 . S
N367 C372 1.307 . S
C368 H360 0.930 . S
C368 C369 1.355 . S
C368 C370 1.412 . S
C369 H361 0.930 . S
C369 C368 1.355 . S
C369 C372 1.402 . S
C370 C368 1.412 . S
C370 C371 1.417 . S
C370 C394 1.431 . S
C371 N367 1.350 . S
C371 C370 1.417 . S
C371 C374 1.426 1_556 S
C372 H355 0.930 . S
C372 N367 1.307 . S
C372 C369 1.402 . S
N373 Gd336 2.601 . S
N373 C374 1.359 . S
N373 C377 1.334 . S
C374 C371 1.426 1_554 S
C374 N373 1.359 . S
C374 C378 1.413 . S
C375 H366 0.930 . S
C375 C376 1.359 . S
C375 C377 1.394 . S
C376 C375 1.359 . S
C376 C378 1.391 . S
C376 H379 0.929 . S
C377 H359 0.930 . S
C377 N373 1.334 . S
C377 C375 1.394 . S
C378 C374 1.413 . S
C378 C376 1.391 . S
C378 C393 1.437 . S
H379 C376 0.929 . S
O380 Gd336 2.545 . S
O380 C395 1.258 . S
O381 Gd336 2.606 . S
O381 Gd337 2.362 1_554 S
O381 C392 1.284 . S
O382 Gd337 2.324 1_554 S
O382 C402 1.254 . S
O383 Gd336 2.429 . S
O383 C402 1.268 . S
O384 Gd336 2.545 . S
O384 C392 1.250 . S
O385 Gd336 2.412 1_556 S
O385 C395 1.252 1_556 S
O386 Gd337 2.545 . S
O386 C404 1.258 . S
O387 Gd336 2.362 1_556 S
O387 Gd337 2.606 . S
O387 C403 1.284 . S
O388 Gd336 2.324 1_556 S
O388 C411 1.254 . S
O389 Gd337 2.429 . S
O389 C411 1.268 . S
O390 Gd337 2.545 . S
O390 C403 1.250 . S
O391 Gd337 2.412 1_554 S
O391 C404 1.252 1_554 S
C392 O381 1.284 . S
C392 O384 1.250 . S
C393 H362 0.929 . S
C393 C378 1.437 . S
C393 C394 1.317 1_554 S
C394 H365 0.930 . S
C394 C370 1.431 . S
C394 C393 1.317 1_556 S
C395 Gd336 2.828 . S
C395 O380 1.258 . S
C395 O385 1.252 1_554 S
C395 C396 1.497 . S
C396 C395 1.497 . S
C396 C397 1.395 . S
C396 C398 1.380 1_554 S
C397 C396 1.395 . S
C397 C400 1.398 . S
C397 H412 0.930 . S
C398 C396 1.380 1_556 S
C398 C399 1.391 . S
C398 H413 0.930 . S
C399 C398 1.391 . S
C399 C401 1.387 . S
C400 C397 1.398 . S
C400 C401 1.380 1_554 S
C400 H414 0.930 . S
C401 C399 1.387 . S
C401 C400 1.380 1_556 S
C401 H415 0.930 . S
C402 O382 1.254 . S
C402 O383 1.268 . S
C403 O387 1.284 . S
C403 O390 1.250 . S
C404 Gd337 2.828 . S
C404 O386 1.258 . S
C404 O391 1.252 1_556 S
C404 C405 1.497 . S
C405 C404 1.497 . S
C405 C406 1.395 . S
C405 C407 1.380 1_556 S
C406 C405 1.395 . S
C406 C409 1.398 . S
C406 H416 0.930 . S
C407 C405 1.380 1_554 S
C407 C408 1.391 . S
C407 H417 0.930 . S
C408 C407 1.391 . S
C408 C410 1.387 . S
C409 C406 1.398 . S
C409 C410 1.380 1_556 S
C409 H418 0.930 . S
C410 C408 1.387 . S
C410 C409 1.380 1_554 S
C410 H419 0.930 1_545 S
C411 O388 1.254 . S
C411 O389 1.268 . S
H412 C397 0.930 . S
H413 C398 0.930 . S
H414 C400 0.930 . S
H415 C401 0.930 . S
H416 C406 0.930 . S
H417 C407 0.930 . S
H418 C409 0.930 . S
H419 C410 0.930 1_565 S
Gd420 N451 2.661 . S
Gd420 N457 2.601 . S
Gd420 O464 2.545 . S
Gd420 O465 2.606 . S
Gd420 O467 2.429 . S
Gd420 O468 2.545 . S
Gd420 O469 2.412 1_554 S
Gd420 O471 2.362 . S
Gd420 O472 2.324 1_554 S
Gd420 C479 2.828 . S
Gd421 N430 2.661 . S
Gd421 N434 2.601 . S
Gd421 O465 2.362 . S
Gd421 O466 2.324 . S
Gd421 O470 2.545 1_655 S
Gd421 O471 2.606 . S
Gd421 O473 2.429 1_554 S
Gd421 O474 2.545 . S
Gd421 O475 2.412 1_655 S
Gd421 C488 2.828 1_655 S
C422 C425 1.417 . S
C422 C427 1.431 . S
C422 C428 1.412 . S
C423 C426 1.437 . S
C423 C427 1.317 . S
C423 H442 0.929 . S
C424 C425 1.426 . S
C424 C426 1.413 . S
C424 N434 1.359 . S
C425 C422 1.417 . S
C425 C424 1.426 . S
C425 N430 1.350 . S
C426 C423 1.437 . S
C426 C424 1.413 . S
C426 C436 1.391 1_554 S
C427 C422 1.431 . S
C427 C423 1.317 . S
C427 H438 0.930 . S
C428 C422 1.412 . S
C428 C429 1.355 . S
C428 H440 0.930 . S
C429 C428 1.355 . S
C429 C431 1.402 . S
C429 H441 0.930 . S
N430 Gd421 2.661 . S
N430 C425 1.350 . S
N430 C431 1.307 . S
C431 C429 1.402 . S
C431 N430 1.307 . S
C431 H432 0.930 . S
H432 C431 0.930 . S
C433 N434 1.334 1_556 S
C433 C435 1.394 . S
C433 H437 0.930 . S
N434 Gd421 2.601 . S
N434 C424 1.359 . S
N434 C433 1.334 1_554 S
C435 C433 1.394 . S
C435 C436 1.359 . S
C435 H447 0.930 1_655 S
C436 C426 1.391 1_556 S
C436 C435 1.359 . S
C436 H448 0.929 1_655 S
H437 C433 0.930 . S
H438 C427 0.930 . S
H439 C456 0.930 . S
H440 C428 0.930 . S
H441 C429 0.930 . S
H442 C423 0.929 . S
H443 C461 0.930 . S
H444 C452 0.930 . S
H445 C453 0.930 . S
H446 C477 0.929 . S
H447 C435 0.930 1_455 S
H448 C436 0.929 1_455 S
H449 C478 0.930 . S
H450 C459 0.930 . S
N451 Gd420 2.661 . S
N451 C455 1.350 . S
N451 C456 1.307 1_554 S
C452 H444 0.930 . S
C452 C453 1.355 . S
C452 C454 1.412 1_556 S
C453 H445 0.930 . S
C453 C452 1.355 . S
C453 C456 1.402 . S
C454 C452 1.412 1_554 S
C454 C455 1.417 . S
C454 C478 1.431 . S
C455 N451 1.350 . S
C455 C454 1.417 . S
C455 C458 1.426 . S
C456 H439 0.930 . S
C456 N451 1.307 1_556 S
C456 C453 1.402 . S
N457 Gd420 2.601 . S
N457 C458 1.359 . S
N457 C461 1.334 . S
C458 C455 1.426 . S
C458 N457 1.359 . S
C458 C462 1.413 . S
C459 H450 0.930 . S
C459 C460 1.359 . S
C459 C461 1.394 . S
C460 C459 1.359 . S
C460 C462 1.391 . S
C460 H463 0.929 . S
C461 H443 0.930 . S
C461 N457 1.334 . S
C461 C459 1.394 . S
C462 C458 1.413 . S
C462 C460 1.391 . S
C462 C477 1.437 . S
H463 C460 0.929 . S
O464 Gd420 2.545 . S
O464 C479 1.258 . S
O465 Gd420 2.606 . S
O465 Gd421 2.362 . S
O465 C476 1.284 . S
O466 Gd421 2.324 . S
O466 C486 1.254 . S
O467 Gd420 2.429 . S
O467 C486 1.268 . S
O468 Gd420 2.545 . S
O468 C476 1.250 . S
O469 Gd420 2.412 1_556 S
O469 C479 1.252 1_556 S
O470 Gd421 2.545 1_455 S
O470 C488 1.258 . S
O471 Gd420 2.362 . S
O471 Gd421 2.606 . S
O471 C487 1.284 . S
O472 Gd420 2.324 1_556 S
O472 C495 1.254 . S
O473 Gd421 2.429 1_556 S
O473 C495 1.268 . S
O474 Gd421 2.545 . S
O474 C487 1.250 . S
O475 Gd421 2.412 1_455 S
O475 C488 1.252 . S
C476 O465 1.284 . S
C476 O468 1.250 . S
C477 H446 0.929 . S
C477 C462 1.437 . S
C477 C478 1.317 . S
C478 H449 0.930 . S
C478 C454 1.431 . S
C478 C477 1.317 . S
C479 Gd420 2.828 . S
C479 O464 1.258 . S
C479 O469 1.252 1_554 S
C479 C480 1.497 1_554 S
C480 C479 1.497 1_556 S
C480 C481 1.395 1_556 S
C480 C482 1.380 . S
C481 C480 1.395 1_554 S
C481 C484 1.398 1_554 S
C481 H496 0.930 . S
C482 C480 1.380 . S
C482 C483 1.391 . S
C482 H497 0.930 . S
C483 C482 1.391 . S
C483 C485 1.387 . S
C484 C481 1.398 1_556 S
C484 C485 1.380 . S
C484 H498 0.930 1_556 S
C485 C483 1.387 . S
C485 C484 1.380 . S
C485 H499 0.930 . S
C486 O466 1.254 . S
C486 O467 1.268 . S
C487 O471 1.284 . S
C487 O474 1.250 . S
C488 Gd421 2.828 1_455 S
C488 O470 1.258 . S
C488 O475 1.252 . S
C488 C489 1.497 . S
C489 C488 1.497 . S
C489 C490 1.395 . S
C489 C491 1.380 . S
C490 C489 1.395 . S
C490 C493 1.398 . S
C490 H500 0.930 . S
C491 C489 1.380 . S
C491 C492 1.391 . S
C491 H501 0.930 . S
C492 C491 1.391 . S
C492 C494 1.387 . S
C493 C490 1.398 . S
C493 C494 1.380 . S
C493 H502 0.930 . S
C494 C492 1.387 . S
C494 C493 1.380 . S
C494 H503 0.930 . S
C495 O472 1.254 . S
C495 O473 1.268 . S
H496 C481 0.930 . S
H497 C482 0.930 . S
H498 C484 0.930 1_554 S
H499 C485 0.930 . S
H500 C490 0.930 . S
H501 C491 0.930 . S
H502 C493 0.930 . S
H503 C494 0.930 . S
Gd504 N535 2.661 . S
Gd504 N541 2.601 . S
Gd504 O548 2.545 . S
Gd504 O549 2.606 . S
Gd504 O551 2.429 . S
Gd504 O552 2.545 . S
Gd504 O553 2.412 . S
Gd504 O555 2.362 . S
Gd504 O556 2.324 1_556 S
Gd504 C563 2.828 . S
Gd505 N514 2.661 . S
Gd505 N518 2.601 1_556 S
Gd505 O549 2.362 . S
Gd505 O550 2.324 . S
Gd505 O554 2.545 1_556 S
Gd505 O555 2.606 . S
Gd505 O557 2.429 1_556 S
Gd505 O558 2.545 . S
Gd505 O559 2.412 . S
Gd505 C572 2.828 . S
C506 C509 1.417 . S
C506 C511 1.431 1_556 S
C506 C512 1.412 . S
C507 C510 1.437 . S
C507 C511 1.317 . S
C507 H526 0.929 . S
C508 C509 1.426 1_554 S
C508 C510 1.413 . S
C508 N518 1.359 . S
C509 C506 1.417 . S
C509 C508 1.426 1_556 S
C509 N514 1.350 . S
C510 C507 1.437 . S
C510 C508 1.413 . S
C510 C520 1.391 . S
C511 C506 1.431 1_554 S
C511 C507 1.317 . S
C511 H522 0.930 . S
C512 C506 1.412 . S
C512 C513 1.355 . S
C512 H524 0.930 . S
C513 C512 1.355 . S
C513 C515 1.402 . S
C513 H525 0.930 . S
N514 Gd505 2.661 . S
N514 C509 1.350 . S
N514 C515 1.307 . S
C515 C513 1.402 . S
C515 N514 1.307 . S
C515 H516 0.930 . S
H516 C515 0.930 . S
C517 N518 1.334 . S
C517 C519 1.394 . S
C517 H521 0.930 . S
N518 Gd505 2.601 1_554 S
N518 C508 1.359 . S
N518 C517 1.334 . S
C519 C517 1.394 . S
C519 C520 1.359 . S
C519 H531 0.930 . S
C520 C510 1.391 . S
C520 C519 1.359 . S
C520 H532 0.929 . S
H521 C517 0.930 . S
H522 C511 0.930 . S
H523 C540 0.930 . S
H524 C512 0.930 . S
H525 C513 0.930 . S
H526 C507 0.929 . S
H527 C545 0.930 . S
H528 C536 0.930 . S
H529 C537 0.930 . S
H530 C561 0.929 . S
H531 C519 0.930 . S
H532 C520 0.929 . S
H533 C562 0.930 . S
H534 C543 0.930 . S
N535 Gd504 2.661 . S
N535 C539 1.350 . S
N535 C540 1.307 1_556 S
C536 H528 0.930 . S
C536 C537 1.355 1_556 S
C536 C538 1.412 . S
C537 H529 0.930 . S
C537 C536 1.355 1_554 S
C537 C540 1.402 . S
C538 C536 1.412 . S
C538 C539 1.417 . S
C538 C562 1.431 . S
C539 N535 1.350 . S
C539 C538 1.417 . S
C539 C542 1.426 . S
C540 H523 0.930 . S
C540 N535 1.307 1_554 S
C540 C537 1.402 . S
N541 Gd504 2.601 . S
N541 C542 1.359 . S
N541 C545 1.334 . S
C542 C539 1.426 . S
C542 N541 1.359 . S
C542 C546 1.413 . S
C543 H534 0.930 . S
C543 C544 1.359 . S
C543 C545 1.394 . S
C544 C543 1.359 . S
C544 C546 1.391 . S
C544 H547 0.929 . S
C545 H527 0.930 . S
C545 N541 1.334 . S
C545 C543 1.394 . S
C546 C542 1.413 . S
C546 C544 1.391 . S
C546 C561 1.437 . S
H547 C544 0.929 . S
O548 Gd504 2.545 . S
O548 C563 1.258 . S
O549 Gd504 2.606 . S
O549 Gd505 2.362 . S
O549 C560 1.284 . S
O550 Gd505 2.324 . S
O550 C570 1.254 . S
O551 Gd504 2.429 . S
O551 C570 1.268 . S
O552 Gd504 2.545 . S
O552 C560 1.250 . S
O553 Gd504 2.412 . S
O553 C563 1.252 . S
O554 Gd505 2.545 1_554 S
O554 C572 1.258 1_554 S
O555 Gd504 2.362 . S
O555 Gd505 2.606 . S
O555 C571 1.284 . S
O556 Gd504 2.324 1_554 S
O556 C579 1.254 . S
O557 Gd505 2.429 1_554 S
O557 C579 1.268 . S
O558 Gd505 2.545 . S
O558 C571 1.250 . S
O559 Gd505 2.412 . S
O559 C572 1.252 . S
C560 O549 1.284 . S
C560 O552 1.250 . S
C561 H530 0.929 . S
C561 C546 1.437 . S
C561 C562 1.317 . S
C562 H533 0.930 . S
C562 C538 1.431 . S
C562 C561 1.317 . S
C563 Gd504 2.828 . S
C563 O548 1.258 . S
C563 O553 1.252 . S
C563 C564 1.497 . S
C564 C563 1.497 . S
C564 C565 1.395 . S
C564 C566 1.380 . S
C565 C564 1.395 . S
C565 C568 1.398 . S
C565 H580 0.930 . S
C566 C564 1.380 . S
C566 C567 1.391 . S
C566 H581 0.930 1_556 S
C567 C566 1.391 . S
C567 C569 1.387 . S
C568 C565 1.398 . S
C568 C569 1.380 . S
C568 H582 0.930 . S
C569 C567 1.387 . S
C569 C568 1.380 . S
C569 H583 0.930 . S
C570 O550 1.254 . S
C570 O551 1.268 . S
C571 O555 1.284 . S
C571 O558 1.250 . S
C572 Gd505 2.828 . S
C572 O554 1.258 1_556 S
C572 O559 1.252 . S
C572 C573 1.497 1_565 S
C573 C572 1.497 1_545 S
C573 C574 1.395 1_556 S
C573 C575 1.380 . S
C574 C573 1.395 1_554 S
C574 C577 1.398 . S
C574 H584 0.930 . S
C575 C573 1.380 . S
C575 C576 1.391 . S
C575 H585 0.930 1_545 S
C576 C575 1.391 . S
C576 C578 1.387 . S
C577 C574 1.398 . S
C577 C578 1.380 1_554 S
C577 H586 0.930 . S
C578 C576 1.387 . S
C578 C577 1.380 1_556 S
C578 H587 0.930 . S
C579 O556 1.254 . S
C579 O557 1.268 . S
H580 C565 0.930 . S
H581 C566 0.930 1_554 S
H582 C568 0.930 . S
H583 C569 0.930 . S
H584 C574 0.930 . S
H585 C575 0.930 1_565 S
H586 C577 0.930 . S
H587 C578 0.930 . S
Gd588 N619 2.661 1_554 S
Gd588 N625 2.601 . S
Gd588 O632 2.545 . S
Gd588 O633 2.606 . S
Gd588 O635 2.429 . S
Gd588 O636 2.545 . S
Gd588 O637 2.412 1_554 S
Gd588 O639 2.362 1_554 S
Gd588 O640 2.324 1_554 S
Gd588 C647 2.828 . S
Gd589 N598 2.661 1_556 S
Gd589 N602 2.601 . S
Gd589 O633 2.362 1_556 S
Gd589 O634 2.324 1_556 S
Gd589 O638 2.545 . S
Gd589 O639 2.606 . S
Gd589 O641 2.429 . S
Gd589 O642 2.545 . S
Gd589 O643 2.412 1_556 S
Gd589 C656 2.828 . S
C590 C593 1.417 . S
C590 C595 1.431 . S
C590 C596 1.412 . S
C591 C594 1.437 . S
C591 C595 1.317 1_556 S
C591 H610 0.929 . S
C592 C593 1.426 1_556 S
C592 C594 1.413 . S
C592 N602 1.359 . S
C593 C590 1.417 . S
C593 C592 1.426 1_554 S
C593 N598 1.350 . S
C594 C591 1.437 . S
C594 C592 1.413 . S
C594 C604 1.391 . S
C595 C590 1.431 . S
C595 C591 1.317 1_554 S
C595 H606 0.930 . S
C596 C590 1.412 . S
C596 C597 1.355 . S
C596 H608 0.930 . S
C597 C596 1.355 . S
C597 C599 1.402 . S
C597 H609 0.930 . S
N598 Gd589 2.661 1_554 S
N598 C593 1.350 . S
N598 C599 1.307 . S
C599 C597 1.402 . S
C599 N598 1.307 . S
C599 H600 0.930 . S
H600 C599 0.930 . S
C601 N602 1.334 . S
C601 C603 1.394 . S
C601 H605 0.930 . S
N602 Gd589 2.601 . S
N602 C592 1.359 . S
N602 C601 1.334 . S
C603 C601 1.394 . S
C603 C604 1.359 . S
C603 H615 0.930 . S
C604 C594 1.391 . S
C604 C603 1.359 . S
C604 H616 0.929 . S
H605 C601 0.930 . S
H606 C595 0.930 . S
H607 C624 0.930 . S
H608 C596 0.930 . S
H609 C597 0.930 . S
H610 C591 0.929 . S
H611 C629 0.930 . S
H612 C620 0.930 . S
H613 C621 0.930 . S
H614 C645 0.929 . S
H615 C603 0.930 . S
H616 C604 0.929 . S
H617 C646 0.930 . S
H618 C627 0.930 . S
N619 Gd588 2.661 1_556 S
N619 C623 1.350 . S
N619 C624 1.307 . S
C620 H612 0.930 . S
C620 C621 1.355 . S
C620 C622 1.412 . S
C621 H613 0.930 . S
C621 C620 1.355 . S
C621 C624 1.402 . S
C622 C620 1.412 . S
C622 C623 1.417 . S
C622 C646 1.431 . S
C623 N619 1.350 . S
C623 C622 1.417 . S
C623 C626 1.426 1_556 S
C624 H607 0.930 . S
C624 N619 1.307 . S
C624 C621 1.402 . S
N625 Gd588 2.601 . S
N625 C626 1.359 . S
N625 C629 1.334 . S
C626 C623 1.426 1_554 S
C626 N625 1.359 . S
C626 C630 1.413 . S
C627 H618 0.930 . S
C627 C628 1.359 . S
C627 C629 1.394 . S
C628 C627 1.359 . S
C628 C630 1.391 . S
C628 H631 0.929 . S
C629 H611 0.930 . S
C629 N625 1.334 . S
C629 C627 1.394 . S
C630 C626 1.413 . S
C630 C628 1.391 . S
C630 C645 1.437 . S
H631 C628 0.929 . S
O632 Gd588 2.545 . S
O632 C647 1.258 . S
O633 Gd588 2.606 . S
O633 Gd589 2.362 1_554 S
O633 C644 1.284 . S
O634 Gd589 2.324 1_554 S
O634 C654 1.254 . S
O635 Gd588 2.429 . S
O635 C654 1.268 . S
O636 Gd588 2.545 . S
O636 C644 1.250 . S
O637 Gd588 2.412 1_556 S
O637 C647 1.252 1_556 S
O638 Gd589 2.545 . S
O638 C656 1.258 . S
O639 Gd588 2.362 1_556 S
O639 Gd589 2.606 . S
O639 C655 1.284 . S
O640 Gd588 2.324 1_556 S
O640 C663 1.254 . S
O641 Gd589 2.429 . S
O641 C663 1.268 . S
O642 Gd589 2.545 . S
O642 C655 1.250 . S
O643 Gd589 2.412 1_554 S
O643 C656 1.252 1_554 S
C644 O633 1.284 . S
C644 O636 1.250 . S
C645 H614 0.929 . S
C645 C630 1.437 . S
C645 C646 1.317 1_554 S
C646 H617 0.930 . S
C646 C622 1.431 . S
C646 C645 1.317 1_556 S
C647 Gd588 2.828 . S
C647 O632 1.258 . S
C647 O637 1.252 1_554 S
C647 C648 1.497 . S
C648 C647 1.497 . S
C648 C649 1.395 . S
C648 C650 1.380 1_554 S
C649 C648 1.395 . S
C649 C652 1.398 . S
C649 H664 0.930 . S
C650 C648 1.380 1_556 S
C650 C651 1.391 . S
C650 H665 0.930 . S
C651 C650 1.391 . S
C651 C653 1.387 1_556 S
C652 C649 1.398 . S
C652 C653 1.380 . S
C652 H666 0.930 . S
C653 C651 1.387 1_554 S
C653 C652 1.380 . S
C653 H667 0.930 . S
C654 O634 1.254 . S
C654 O635 1.268 . S
C655 O639 1.284 . S
C655 O642 1.250 . S
C656 Gd589 2.828 . S
C656 O638 1.258 . S
C656 O643 1.252 1_556 S
C656 C657 1.497 . S
C657 C656 1.497 . S
C657 C658 1.395 . S
C657 C659 1.380 1_556 S
C658 C657 1.395 . S
C658 C661 1.398 . S
C658 H668 0.930 . S
C659 C657 1.380 1_554 S
C659 C660 1.391 . S
C659 H669 0.930 . S
C660 C659 1.391 . S
C660 C662 1.387 1_554 S
C661 C658 1.398 . S
C661 C662 1.380 . S
C661 H670 0.930 . S
C662 C660 1.387 1_556 S
C662 C661 1.380 . S
C662 H671 0.930 . S
C663 O640 1.254 . S
C663 O641 1.268 . S
H664 C649 0.930 . S
H665 C650 0.930 . S
H666 C652 0.930 . S
H667 C653 0.930 . S
H668 C658 0.930 . S
H669 C659 0.930 . S
H670 C661 0.930 . S
H671 C662 0.930 . S
Gd672 N703 2.661 1_556 S
Gd672 N709 2.601 . S
Gd672 O716 2.545 . S
Gd672 O717 2.606 . S
Gd672 O719 2.429 . S
Gd672 O720 2.545 . S
Gd672 O721 2.412 1_556 S
Gd672 O723 2.362 . S
Gd672 O724 2.324 1_556 S
Gd672 C731 2.828 1_556 S
Gd673 N682 2.661 . S
Gd673 N686 2.601 1_556 S
Gd673 O717 2.362 . S
Gd673 O718 2.324 . S
Gd673 O722 2.545 1_556 S
Gd673 O723 2.606 . S
Gd673 O725 2.429 1_556 S
Gd673 O726 2.545 1_556 S
Gd673 O727 2.412 . S
Gd673 C740 2.828 . S
C674 C677 1.417 . S
C674 C679 1.431 . S
C674 C680 1.412 . S
C675 C678 1.437 1_556 S
C675 C679 1.317 . S
C675 H694 0.929 . S
C676 C677 1.426 . S
C676 C678 1.413 1_556 S
C676 N686 1.359 1_556 S
C677 C674 1.417 . S
C677 C676 1.426 . S
C677 N682 1.350 . S
C678 C675 1.437 1_554 S
C678 C676 1.413 1_554 S
C678 C688 1.391 . S
C679 C674 1.431 . S
C679 C675 1.317 . S
C679 H690 0.930 . S
C680 C674 1.412 . S
C680 C681 1.355 . S
C680 H692 0.930 . S
C681 C680 1.355 . S
C681 C683 1.402 . S
C681 H693 0.930 . S
N682 Gd673 2.661 . S
N682 C677 1.350 . S
N682 C683 1.307 . S
C683 C681 1.402 . S
C683 N682 1.307 . S
C683 H684 0.930 . S
H684 C683 0.930 . S
C685 N686 1.334 . S
C685 C687 1.394 . S
C685 H689 0.930 . S
N686 Gd673 2.601 1_554 S
N686 C676 1.359 1_554 S
N686 C685 1.334 . S
C687 C685 1.394 . S
C687 C688 1.359 . S
C687 H699 0.930 . S
C688 C678 1.391 . S
C688 C687 1.359 . S
C688 H700 0.929 . S
H689 C685 0.930 . S
H690 C679 0.930 . S
H691 C708 0.930 . S
H692 C680 0.930 . S
H693 C681 0.930 . S
H694 C675 0.929 . S
H695 C713 0.930 . S
H696 C704 0.930 . S
H697 C705 0.930 . S
H698 C729 0.929 1_556 S
H699 C687 0.930 . S
H700 C688 0.929 . S
H701 C730 0.930 . S
H702 C711 0.930 . S
N703 Gd672 2.661 1_554 S
N703 C707 1.350 . S
N703 C708 1.307 . S
C704 H696 0.930 . S
C704 C705 1.355 . S
C704 C706 1.412 . S
C705 H697 0.930 . S
C705 C704 1.355 . S
C705 C708 1.402 . S
C706 C704 1.412 . S
C706 C707 1.417 . S
C706 C730 1.431 . S
C707 N703 1.350 . S
C707 C706 1.417 . S
C707 C710 1.426 1_554 S
C708 H691 0.930 . S
C708 N703 1.307 . S
C708 C705 1.402 . S
N709 Gd672 2.601 . S
N709 C710 1.359 . S
N709 C713 1.334 . S
C710 C707 1.426 1_556 S
C710 N709 1.359 . S
C710 C714 1.413 . S
C711 H702 0.930 . S
C711 C712 1.359 . S
C711 C713 1.394 . S
C712 C711 1.359 . S
C712 C714 1.391 . S
C712 H715 0.929 . S
C713 H695 0.930 . S
C713 N709 1.334 . S
C713 C711 1.394 . S
C714 C710 1.413 . S
C714 C712 1.391 . S
C714 C729 1.437 1_556 S
H715 C712 0.929 . S
O716 Gd672 2.545 . S
O716 C731 1.258 1_556 S
O717 Gd672 2.606 . S
O717 Gd673 2.362 . S
O717 C728 1.284 . S
O718 Gd673 2.324 . S
O718 C738 1.254 . S
O719 Gd672 2.429 . S
O719 C738 1.268 . S
O720 Gd672 2.545 . S
O720 C728 1.250 . S
O721 Gd672 2.412 1_554 S
O721 C731 1.252 . S
O722 Gd673 2.545 1_554 S
O722 C740 1.258 1_554 S
O723 Gd672 2.362 . S
O723 Gd673 2.606 . S
O723 C739 1.284 1_556 S
O724 Gd672 2.324 1_554 S
O724 C747 1.254 . S
O725 Gd673 2.429 1_554 S
O725 C747 1.268 . S
O726 Gd673 2.545 1_554 S
O726 C739 1.250 . S
O727 Gd673 2.412 . S
O727 C740 1.252 . S
C728 O717 1.284 . S
C728 O720 1.250 . S
C729 H698 0.929 1_554 S
C729 C714 1.437 1_554 S
C729 C730 1.317 . S
C730 H701 0.930 . S
C730 C706 1.431 . S
C730 C729 1.317 . S
C731 Gd672 2.828 1_554 S
C731 O716 1.258 1_554 S
C731 O721 1.252 . S
C731 C732 1.497 . S
C732 C731 1.497 . S
C732 C733 1.395 1_554 S
C732 C734 1.380 . S
C733 C732 1.395 1_556 S
C733 C736 1.398 1_556 S
C733 H748 0.930 . S
C734 C732 1.380 . S
C734 C735 1.391 . S
C734 H749 0.930 . S
C735 C734 1.391 . S
C735 C737 1.387 . S
C736 C733 1.398 1_554 S
C736 C737 1.380 . S
C736 H750 0.930 1_554 S
C737 C735 1.387 . S
C737 C736 1.380 . S
C737 H751 0.930 . S
C738 O718 1.254 . S
C738 O719 1.268 . S
C739 O723 1.284 1_554 S
C739 O726 1.250 . S
C740 Gd673 2.828 . S
C740 O722 1.258 1_556 S
C740 O727 1.252 . S
C740 C741 1.497 . S
C741 C740 1.497 . S
C741 C742 1.395 . S
C741 C743 1.380 . S
C742 C741 1.395 . S
C742 C745 1.398 . S
C742 H752 0.930 1_556 S
C743 C741 1.380 . S
C743 C744 1.391 . S
C743 H753 0.930 . S
C744 C743 1.391 . S
C744 C746 1.387 . S
C745 C742 1.398 . S
C745 C746 1.380 . S
C745 H754 0.930 . S
C746 C744 1.387 . S
C746 C745 1.380 . S
C746 H755 0.930 . S
C747 O724 1.254 . S
C747 O725 1.268 . S
H748 C733 0.930 . S
H749 C734 0.930 . S
H750 C736 0.930 1_556 S
H751 C737 0.930 . S
H752 C742 0.930 1_554 S
H753 C743 0.930 . S
H754 C745 0.930 . S
H755 C746 0.930 . S
C756 C757 1.369 . S
C756 C758 1.419 . S
C756 H760 0.930 . S
C757 C756 1.369 . S
C757 C766 1.429 . S
C758 C756 1.419 . S
C758 C759 1.363 . S
C758 H761 0.929 . S
C759 C758 1.363 . S
C759 C765 1.428 . S
H760 C756 0.930 . S
H761 C758 0.929 . S
S762 N763 1.613 . S
S762 N764 1.610 . S
N763 S762 1.613 . S
N763 C766 1.350 . S
N764 S762 1.610 . S
N764 C765 1.351 . S
C765 C759 1.428 . S
C765 N764 1.351 . S
C765 C766 1.434 . S
C766 C757 1.429 . S
C766 N763 1.350 . S
C766 C765 1.434 . S
C767 C768 1.369 . S
C767 C769 1.419 . S
C767 H771 0.930 . S
C768 C767 1.369 . S
C768 C777 1.429 1_554 S
C769 C767 1.419 . S
C769 C770 1.363 . S
C769 H772 0.929 . S
C770 C769 1.363 . S
C770 C776 1.428 1_554 S
H771 C767 0.930 . S
H772 C769 0.929 . S
S773 N774 1.613 . S
S773 N775 1.610 . S
N774 S773 1.613 . S
N774 C777 1.350 . S
N775 S773 1.610 . S
N775 C776 1.351 . S
C776 C770 1.428 1_556 S
C776 N775 1.351 . S
C776 C777 1.434 . S
C777 C768 1.429 1_556 S
C777 N774 1.350 . S
C777 C776 1.434 . S
C778 C779 1.369 . S
C778 C780 1.419 . S
C778 H782 0.930 . S
C779 C778 1.369 . S
C779 C788 1.429 . S
C780 C778 1.419 . S
C780 C781 1.363 . S
C780 H783 0.929 . S
C781 C780 1.363 . S
C781 C787 1.428 . S
H782 C778 0.930 . S
H783 C780 0.929 . S
S784 N785 1.613 . S
S784 N786 1.610 . S
N785 S784 1.613 . S
N785 C788 1.350 . S
N786 S784 1.610 . S
N786 C787 1.351 . S
C787 C781 1.428 . S
C787 N786 1.351 . S
C787 C788 1.434 . S
C788 C779 1.429 . S
C788 N785 1.350 . S
C788 C787 1.434 . S
C789 C790 1.369 . S
C789 C791 1.419 . S
C789 H793 0.930 . S
C790 C789 1.369 . S
C790 C799 1.429 1_554 S
C791 C789 1.419 . S
C791 C792 1.363 . S
C791 H794 0.929 . S
C792 C791 1.363 . S
C792 C798 1.428 1_554 S
H793 C789 0.930 . S
H794 C791 0.929 . S
S795 N796 1.613 . S
S795 N797 1.610 . S
N796 S795 1.613 . S
N796 C799 1.350 . S
N797 S795 1.610 . S
N797 C798 1.351 . S
C798 C792 1.428 1_556 S
C798 N797 1.351 . S
C798 C799 1.434 . S
C799 C790 1.429 1_556 S
C799 N796 1.350 . S
C799 C798 1.434 . S
C800 C801 1.369 . S
C800 C802 1.419 1_655 S
C800 H804 0.930 1_655 S
C801 C800 1.369 . S
C801 C810 1.429 . S
C802 C800 1.419 1_455 S
C802 C803 1.363 1_455 S
C802 H805 0.929 . S
C803 C802 1.363 1_655 S
C803 C809 1.428 . S
H804 C800 0.930 1_455 S
H805 C802 0.929 . S
S806 N807 1.613 1_556 S
S806 N808 1.610 1_556 S
N807 S806 1.613 1_554 S
N807 C810 1.350 . S
N808 S806 1.610 1_554 S
N808 C809 1.351 . S
C809 C803 1.428 . S
C809 N808 1.351 . S
C809 C810 1.434 . S
C810 C801 1.429 . S
C810 N807 1.350 . S
C810 C809 1.434 . S
C811 C812 1.369 . S
C811 C813 1.419 . S
C811 H815 0.930 . S
C812 C811 1.369 . S
C812 C821 1.429 . S
C813 C811 1.419 . S
C813 C814 1.363 . S
C813 H816 0.929 . S
C814 C813 1.363 . S
C814 C820 1.428 . S
H815 C811 0.930 . S
H816 C813 0.929 . S
S817 N818 1.613 . S
S817 N819 1.610 . S
N818 S817 1.613 . S
N818 C821 1.350 . S
N819 S817 1.610 . S
N819 C820 1.351 . S
C820 C814 1.428 . S
C820 N819 1.351 . S
C820 C821 1.434 . S
C821 C812 1.429 . S
C821 N818 1.350 . S
C821 C820 1.434 . S
C822 C823 1.369 . S
C822 C824 1.419 . S
C822 H826 0.930 . S
C823 C822 1.369 . S
C823 C832 1.429 . S
C824 C822 1.419 . S
C824 C825 1.363 . S
C824 H827 0.929 . S
C825 C824 1.363 . S
C825 C831 1.428 . S
H826 C822 0.930 . S
H827 C824 0.929 . S
S828 N829 1.614 1_556 S
S828 N830 1.615 . S
N829 S828 1.614 1_554 S
N829 C832 1.350 1_554 S
N830 S828 1.615 . S
N830 C831 1.351 . S
C831 C825 1.428 . S
C831 N830 1.351 . S
C831 C832 1.434 . S
C832 C823 1.429 . S
C832 N829 1.350 1_556 S
C832 C831 1.434 . S
C833 C834 1.369 . S
C833 C835 1.419 . S
C833 H837 0.930 . S
C834 C833 1.369 . S
C834 C843 1.429 . S
C835 C833 1.419 . S
C835 C836 1.363 . S
C835 H838 0.929 . S
C836 C835 1.363 . S
C836 C842 1.428 . S
H837 C833 0.930 . S
H838 C835 0.929 . S
S839 N840 1.613 . S
S839 N841 1.610 . S
N840 S839 1.613 . S
N840 C843 1.350 . S
N841 S839 1.610 . S
N841 C842 1.351 . S
C842 C836 1.428 . S
C842 N841 1.351 . S
C842 C843 1.434 . S
C843 C834 1.429 . S
C843 N840 1.350 . S
C843 C842 1.434 . S
C844 C845 1.369 . S
C844 C846 1.419 . S
C844 H848 0.930 . S
C845 C844 1.369 . S
C845 C854 1.429 . S
C846 C844 1.419 . S
C846 C847 1.363 . S
C846 H849 0.929 . S
C847 C846 1.363 . S
C847 C853 1.428 . S
H848 C844 0.930 . S
H849 C846 0.929 . S
S850 N851 1.613 . S
S850 N852 1.610 . S
N851 S850 1.613 . S
N851 C854 1.350 . S
N852 S850 1.610 . S
N852 C853 1.351 . S
C853 C847 1.428 . S
C853 N852 1.351 . S
C853 C854 1.434 . S
C854 C845 1.429 . S
C854 N851 1.350 . S
C854 C853 1.434 . S
C855 C856 1.369 . S
C855 C857 1.419 . S
C855 H859 0.930 . S
C856 C855 1.369 . S
C856 C865 1.429 . S
C857 C855 1.419 . S
C857 C858 1.363 . S
C857 H860 0.929 . S
C858 C857 1.363 . S
C858 C864 1.428 . S
H859 C855 0.930 . S
H860 C857 0.929 . S
S861 N862 1.613 . S
S861 N863 1.610 . S
N862 S861 1.613 . S
N862 C865 1.350 . S
N863 S861 1.610 . S
N863 C864 1.351 . S
C864 C858 1.428 . S
C864 N863 1.351 . S
C864 C865 1.434 . S
C865 C856 1.429 . S
C865 N862 1.350 . S
C865 C864 1.434 . S
C866 C867 1.369 . S
C866 C868 1.419 1_565 S
C866 H870 0.930 . S
C867 C866 1.369 . S
C867 C876 1.429 . S
C868 C866 1.419 1_545 S
C868 C869 1.363 . S
C868 H871 0.929 . S
C869 C868 1.363 . S
C869 C875 1.428 . S
H870 C866 0.930 . S
H871 C868 0.929 . S
S872 N873 1.611 1_545 S
S872 N874 1.611 1_556 S
N873 S872 1.611 1_565 S
N873 C876 1.350 1_556 S
N874 S872 1.611 1_554 S
N874 C875 1.351 . S
C875 C869 1.428 . S
C875 N874 1.351 . S
C875 C876 1.434 1_545 S
C876 C867 1.429 . S
C876 N873 1.350 1_554 S
C876 C875 1.434 1_565 S
C877 C878 1.369 . S
C877 C879 1.419 . S
C877 H881 0.930 . S
C878 C877 1.369 . S
C878 C887 1.429 . S
C879 C877 1.419 . S
C879 C880 1.363 . S
C879 H882 0.929 1_554 S
C880 C879 1.363 . S
C880 C886 1.428 . S
H881 C877 0.930 . S
H882 C879 0.929 1_556 S
S883 N884 1.613 . S
S883 N885 1.610 . S
N884 S883 1.613 . S
N884 C887 1.350 . S
N885 S883 1.610 . S
N885 C886 1.351 . S
C886 C880 1.428 . S
C886 N885 1.351 . S
C886 C887 1.434 . S
C887 C878 1.429 . S
C887 N884 1.350 . S
C887 C886 1.434 . S
C888 C889 1.369 . S
C888 C890 1.419 1_556 S
C888 H892 0.930 . S
C889 C888 1.369 . S
C889 C898 1.429 . S
C890 C888 1.419 1_554 S
C890 C891 1.363 . S
C890 H893 0.929 . S
C891 C890 1.363 . S
C891 C897 1.428 . S
H892 C888 0.930 . S
H893 C890 0.929 . S
S894 N895 1.613 . S
S894 N896 1.610 1_556 S
N895 S894 1.613 . S
N895 C898 1.350 . S
N896 S894 1.610 1_554 S
N896 C897 1.351 . S
C897 C891 1.428 . S
C897 N896 1.351 . S
C897 C898 1.434 1_554 S
C898 C889 1.429 . S
C898 N895 1.350 . S
C898 C897 1.434 1_556 S
C899 C900 1.369 . S
C899 C901 1.419 . S
C899 H903 0.930 . S
C900 C899 1.369 . S
C900 C909 1.429 . S
C901 C899 1.419 . S
C901 C902 1.363 . S
C901 H904 0.929 . S
C902 C901 1.363 . S
C902 C908 1.428 . S
H903 C899 0.930 . S
H904 C901 0.929 . S
S905 N906 1.613 . S
S905 N907 1.610 . S
N906 S905 1.613 . S
N906 C909 1.350 1_554 S
N907 S905 1.610 . S
N907 C908 1.351 1_554 S
C908 C902 1.428 . S
C908 N907 1.351 1_556 S
C908 C909 1.434 . S
C909 C900 1.429 . S
C909 N906 1.350 1_556 S
C909 C908 1.434 . S
C910 C911 1.369 . S
C910 C912 1.419 . S
C910 H914 0.930 . S
C911 C910 1.369 . S
C911 C920 1.429 . S
C912 C910 1.419 . S
C912 C913 1.363 . S
C912 H915 0.929 . S
C913 C912 1.363 . S
C913 C919 1.428 . S
H914 C910 0.930 . S
H915 C912 0.929 . S
S916 N917 1.613 . S
S916 N918 1.610 . S
N917 S916 1.613 . S
N917 C920 1.350 . S
N918 S916 1.610 . S
N918 C919 1.351 . S
C919 C913 1.428 . S
C919 N918 1.351 . S
C919 C920 1.434 . S
C920 C911 1.429 . S
C920 N917 1.350 . S
C920 C919 1.434 . S
C921 C922 1.369 . S
C921 C923 1.419 . S
C921 H925 0.930 . S
C922 C921 1.369 . S
C922 C931 1.429 . S
C923 C921 1.419 . S
C923 C924 1.363 . S
C923 H926 0.929 . S
C924 C923 1.363 . S
C924 C930 1.428 1_554 S
H925 C921 0.930 . S
H926 C923 0.929 . S
S927 N928 1.613 . S
S927 N929 1.610 . S
N928 S927 1.613 . S
N928 C931 1.350 1_556 S
N929 S927 1.610 . S
N929 C930 1.351 . S
C930 C924 1.428 1_556 S
C930 N929 1.351 . S
C930 C931 1.434 1_556 S
C931 C922 1.429 . S
C931 N928 1.350 1_554 S
C931 C930 1.434 1_554 S
C932 C933 1.369 . S
C932 C934 1.419 . S
C932 H936 0.930 . S
C933 C932 1.369 . S
C933 C942 1.429 1_556 S
C934 C932 1.419 . S
C934 C935 1.364 . S
C934 H937 0.929 . S
C935 C934 1.364 . S
C935 C941 1.427 1_556 S
H936 C932 0.930 . S
H937 C934 0.929 . S
S938 N939 1.613 . S
S938 N940 1.610 . S
N939 S938 1.613 . S
N939 C942 1.350 . S
N940 S938 1.610 . S
N940 C941 1.351 . S
C941 C935 1.427 1_554 S
C941 N940 1.351 . S
C941 C942 1.434 . S
C942 C933 1.429 1_554 S
C942 N939 1.350 . S
C942 C941 1.434 . S
C943 C944 1.369 . S
C943 C945 1.419 . S
C943 H947 0.930 . S
C944 C943 1.369 . S
C944 C953 1.429 1_556 S
C945 C943 1.419 . S
C945 C946 1.363 1_556 S
C945 H948 0.929 . S
C946 C945 1.363 1_554 S
C946 C952 1.428 . S
H947 C943 0.930 . S
H948 C945 0.929 . S
S949 N950 1.613 . S
S949 N951 1.610 . S
N950 S949 1.613 . S
N950 C953 1.350 . S
N951 S949 1.610 . S
N951 C952 1.351 . S
C952 C946 1.428 . S
C952 N951 1.351 . S
C952 C953 1.434 . S
C953 C944 1.429 1_554 S
C953 N950 1.350 . S
C953 C952 1.434 . S
C954 C955 1.369 . S
C954 C956 1.419 . S
C954 H958 0.930 . S
C955 C954 1.369 . S
C955 C964 1.429 . S
C956 C954 1.419 . S
C956 C957 1.363 . S
C956 H959 0.929 . S
C957 C956 1.363 . S
C957 C963 1.428 . S
H958 C954 0.930 . S
H959 C956 0.929 . S
S960 N961 1.613 . S
S960 N962 1.610 . S
N961 S960 1.613 . S
N961 C964 1.350 1_655 S
N962 S960 1.610 . S
N962 C963 1.351 1_655 S
C963 C957 1.428 . S
C963 N962 1.351 1_455 S
C963 C964 1.434 . S
C964 C955 1.429 . S
C964 N961 1.350 1_455 S
C964 C963 1.434 . S
C965 C966 1.369 . S
C965 C967 1.419 . S
C965 H969 0.930 . S
C966 C965 1.369 . S
C966 C975 1.429 . S
C967 C965 1.419 . S
C967 C968 1.363 . S
C967 H970 0.929 . S
C968 C967 1.363 . S
C968 C974 1.428 . S
H969 C965 0.930 . S
H970 C967 0.929 . S
S971 N972 1.613 . S
S971 N973 1.610 . S
N972 S971 1.613 . S
N972 C975 1.350 . S
N973 S971 1.610 . S
N973 C974 1.351 . S
C974 C968 1.428 . S
C974 N973 1.351 . S
C974 C975 1.434 . S
C975 C966 1.429 . S
C975 N972 1.350 . S
C975 C974 1.434 . S
C976 C977 1.361 1_565 S
C976 C978 1.419 . S
C976 H980 0.930 . S
C977 C976 1.361 1_545 S
C977 C986 1.452 . S
C978 C976 1.419 . S
C978 C979 1.363 1_565 S
C978 H981 0.929 . S
C979 C978 1.363 1_545 S
C979 C985 1.428 . S
H980 C976 0.930 . S
H981 C978 0.929 . S
S982 N983 1.613 . S
S982 N984 1.610 . S
N983 S982 1.613 . S
N983 C986 1.350 . S
N984 S982 1.610 . S
N984 C985 1.351 . S
C985 C979 1.428 . S
C985 N984 1.351 . S
C985 C986 1.434 . S
C986 C977 1.452 . S
C986 N983 1.350 . S
C986 C985 1.434 . S
C987 C988 1.369 . S
C987 C989 1.419 . S
C987 H991 0.930 . S
C988 C987 1.369 . S
C988 C997 1.429 . S
C989 C987 1.419 . S
C989 C990 1.363 . S
C989 H992 0.929 . S
C990 C989 1.363 . S
C990 C996 1.428 . S
H991 C987 0.930 . S
H992 C989 0.929 . S
S993 N994 1.613 . S
S993 N995 1.610 . S
N994 S993 1.613 . S
N994 C997 1.350 . S
N995 S993 1.610 . S
N995 C996 1.351 . S
C996 C990 1.428 . S
C996 N995 1.351 . S
C996 C997 1.434 . S
C997 C988 1.429 . S
C997 N994 1.350 . S
C997 C996 1.434 . S
C998 C999 1.369 . S
C998 C1000 1.419 . S
C998 H1002 0.930 . S
C999 C998 1.369 . S
C999 C1008 1.429 . S
C1000 C998 1.419 . S
C1000 C1001 1.363 . S
C1000 H1003 0.929 . S
C1001 C1000 1.363 . S
C1001 C1007 1.428 . S
H1002 C998 0.930 . S
H1003 C1000 0.929 . S
S1004 N1005 1.613 . S
S1004 N1006 1.610 . S
N1005 S1004 1.613 . S
N1005 C1008 1.350 . S
N1006 S1004 1.610 . S
N1006 C1007 1.351 . S
C1007 C1001 1.428 . S
C1007 N1006 1.351 . S
C1007 C1008 1.434 . S
C1008 C999 1.429 . S
C1008 N1005 1.350 . S
C1008 C1007 1.434 . S
C1009 C1010 1.369 . S
C1009 C1011 1.419 . S
C1009 H1013 0.930 . S
C1010 C1009 1.369 . S
C1010 C1019 1.429 . S
C1011 C1009 1.419 . S
C1011 C1012 1.363 . S
C1011 H1014 0.929 . S
C1012 C1011 1.363 . S
C1012 C1018 1.428 . S
H1013 C1009 0.930 . S
H1014 C1011 0.929 . S
S1015 N1016 1.613 . S
S1015 N1017 1.610 . S
N1016 S1015 1.613 . S
N1016 C1019 1.350 . S
N1017 S1015 1.610 . S
N1017 C1018 1.351 . S
C1018 C1012 1.428 . S
C1018 N1017 1.351 . S
C1018 C1019 1.434 . S
C1019 C1010 1.429 . S
C1019 N1016 1.350 . S
C1019 C1018 1.434 . S
C1020 C1021 1.369 . S
C1020 C1022 1.419 . S
C1020 H1024 0.930 . S
C1021 C1020 1.369 . S
C1021 C1030 1.429 . S
C1022 C1020 1.419 . S
C1022 C1023 1.363 . S
C1022 H1025 0.929 . S
C1023 C1022 1.363 . S
C1023 C1029 1.428 . S
H1024 C1020 0.930 . S
H1025 C1022 0.929 . S
S1026 N1027 1.613 . S
S1026 N1028 1.610 . S
N1027 S1026 1.613 . S
N1027 C1030 1.350 . S
N1028 S1026 1.610 . S
N1028 C1029 1.351 . S
C1029 C1023 1.428 . S
C1029 N1028 1.351 . S
C1029 C1030 1.434 . S
C1030 C1021 1.429 . S
C1030 N1027 1.350 . S
C1030 C1029 1.434 . S
C1031 C1032 1.369 . S
C1031 C1033 1.419 . S
C1031 H1035 0.930 . S
C1032 C1031 1.369 . S
C1032 C1041 1.429 . S
C1033 C1031 1.419 . S
C1033 C1034 1.363 . S
C1033 H1036 0.929 . S
C1034 C1033 1.363 . S
C1034 C1040 1.428 . S
H1035 C1031 0.930 . S
H1036 C1033 0.929 . S
S1037 N1038 1.613 . S
S1037 N1039 1.610 . S
N1038 S1037 1.613 . S
N1038 C1041 1.350 . S
N1039 S1037 1.610 . S
N1039 C1040 1.351 . S
C1040 C1034 1.428 . S
C1040 N1039 1.351 . S
C1040 C1041 1.434 . S
C1041 C1032 1.429 . S
C1041 N1038 1.350 . S
C1041 C1040 1.434 . S
C1042 C1043 1.369 . S
C1042 C1044 1.419 . S
C1042 H1046 0.930 . S
C1043 C1042 1.369 . S
C1043 C1052 1.429 . S
C1044 C1042 1.419 . S
C1044 C1045 1.363 . S
C1044 H1047 0.929 . S
C1045 C1044 1.363 . S
C1045 C1051 1.428 . S
H1046 C1042 0.930 . S
H1047 C1044 0.929 . S
S1048 N1049 1.613 . S
S1048 N1050 1.610 . S
N1049 S1048 1.613 . S
N1049 C1052 1.350 . S
N1050 S1048 1.610 . S
N1050 C1051 1.351 . S
C1051 C1045 1.428 . S
C1051 N1050 1.351 . S
C1051 C1052 1.434 . S
C1052 C1043 1.429 . S
C1052 N1049 1.350 . S
C1052 C1051 1.434 . S
C757 C72 1.318 . S
C759 C660 1.509 . S
C768 C151 2.316 . S
C770 C739 2.147 . S
C779 C240 1.269 . S
C781 C571 1.480 . S
C790 C403 2.437 1_554 S
C792 C235 2.555 . S
C801 C487 2.398 . S
C803 C67 2.286 1_655 S
C812 C156 1.977 . S
C814 C319 2.157 . S
C823 C655 1.635 . S
C825 C492 1.693 . S
C834 C744 1.618 . S
C836 C324 1.776 . S
C845 C408 2.497 . S
C847 C576 2.695 . S
C856 C231 1.496 . S
C858 C56 1.807 . S
C867 C147 1.240 . S
C869 C63 1.507 . S
C878 C140 3.009 1_455 S
C880 C224 3.233 . S
C889 C315 1.747 . S
C891 C476 2.303 . S
C900 C308 2.113 1_556 S
C902 C399 1.795 . S
C911 C392 2.308 1_556 S
C913 C483 1.645 . S
C922 C735 1.812 . S
C924 C560 2.420 1_554 S
C933 C651 0.769 . S
C935 C567 0.995 . S
C944 C728 2.140 . S
C946 C644 1.962 . S
C955 C66 1.408 . S
C957 C75 1.410 . S
C966 C159 1.403 . S
C968 C150 1.394 . S
C977 C234 1.457 1_545 S
C979 C243 1.467 . S
C988 C318 1.505 . S
C990 C327 1.501 . S
C999 C402 1.379 . S
C1001 C411 1.385 . S
C1010 C486 1.472 . S
C1012 C495 1.473 . S
C1021 C570 1.417 . S
C1023 C579 1.429 . S
C1032 C654 1.392 . S
C1034 C663 1.388 . S
C1043 C738 1.396 . S
C1045 C747 1.397 . S
