# Generated by pormake.
# Topology mdf, (4)-cn, num edge types: 1
# Building blocks:
#     Node 0, Type 0, BuildingBlock: AZAVOO_clean_sbu_0, # of connection points: 4
#     Node 1, Type 0, BuildingBlock: AZAVOO_clean_sbu_0, # of connection points: 4
#     Node 2, Type 0, BuildingBlock: AZAVOO_clean_sbu_0, # of connection points: 4
#     Node 3, Type 0, BuildingBlock: AZAVOO_clean_sbu_0, # of connection points: 4
#     Node 4, Type 0, BuildingBlock: AZAVOO_clean_sbu_0, # of connection points: 4
#     Node 5, Type 0, BuildingBlock: AZAVOO_clean_sbu_0, # of connection points: 4
#     Node 6, Type 0, BuildingBlock: AZAVOO_clean_sbu_0, # of connection points: 4
#     Node 7, Type 0, BuildingBlock: AZAVOO_clean_sbu_0, # of connection points: 4
#     Edge 8, Type (0, 0), BuildingBlock: FUNLAD_clean_linker_1, # of connection points: 2
#     Edge 9, Type (0, 0), BuildingBlock: FUNLAD_clean_linker_1, # of connection points: 2
#     Edge 10, Type (0, 0), BuildingBlock: FUNLAD_clean_linker_1, # of connection points: 2
#     Edge 11, Type (0, 0), BuildingBlock: FUNLAD_clean_linker_1, # of connection points: 2
#     Edge 12, Type (0, 0), BuildingBlock: FUNLAD_clean_linker_1, # of connection points: 2
#     Edge 13, Type (0, 0), BuildingBlock: FUNLAD_clean_linker_1, # of connection points: 2
#     Edge 14, Type (0, 0), BuildingBlock: FUNLAD_clean_linker_1, # of connection points: 2
#     Edge 15, Type (0, 0), BuildingBlock: FUNLAD_clean_linker_1, # of connection points: 2
#     Edge 16, Type (0, 0), BuildingBlock: FUNLAD_clean_linker_1, # of connection points: 2
#     Edge 17, Type (0, 0), BuildingBlock: FUNLAD_clean_linker_1, # of connection points: 2
#     Edge 18, Type (0, 0), BuildingBlock: FUNLAD_clean_linker_1, # of connection points: 2
#     Edge 19, Type (0, 0), BuildingBlock: FUNLAD_clean_linker_1, # of connection points: 2
#     Edge 20, Type (0, 0), BuildingBlock: FUNLAD_clean_linker_1, # of connection points: 2
#     Edge 21, Type (0, 0), BuildingBlock: FUNLAD_clean_linker_1, # of connection points: 2
#     Edge 22, Type (0, 0), BuildingBlock: FUNLAD_clean_linker_1, # of connection points: 2
#     Edge 23, Type (0, 0), BuildingBlock: FUNLAD_clean_linker_1, # of connection points: 2
# Relax obj value: 0.038
# Max RMSD: 0.047
# Mean RMSD: 0.047
data_MOF--net-mdf--node1-AZAVOO_clean_sbu_0--edge1-FUNLAD_clean_linker_1
_symmetry_space_group_name_H-M    P1
_symmetry_Int_Tables_number       1
_symmetry_cell_setting            triclinic
loop_
_symmetry_equiv_pos_as_xyz
'x, y, z'
_cell_length_a     35.52911
_cell_length_b     35.538298
_cell_length_c     16.534081
_cell_angle_alpha  90.079384
_cell_angle_beta   89.974898
_cell_angle_gamma 95.208875
loop_
_atom_site_label
_atom_site_type_symbol
_atom_site_fract_x
_atom_site_fract_y
_atom_site_fract_z
_atom_type_partial_charge
Mg0 Mg 0.2589 0.57148 0.36786 0.0
O1 O 0.22395 0.51867 0.31984 0.0
O2 O 0.26082 0.48879 0.23614 0.0
Mg3 Mg 0.31817 0.52351 0.22662 0.0
C4 C 0.22943 0.49134 0.2723 0.0
C5 C 0.21562 0.6059 0.49767 0.0
O6 O 0.25133 0.60897 0.51961 0.0
O7 O 0.25015 0.60235 0.24805 0.0
O8 O 0.28983 0.57266 0.17046 0.0
O9 O 0.28234 0.53649 0.46507 0.0
O10 O 0.30943 0.54752 0.34603 0.0
C11 C 0.26689 0.59798 0.18063 0.0
C12 C 0.30908 0.53071 0.4147 0.0
O13 O 0.20689 0.59171 0.42888 0.0
Mg14 Mg 0.44226 0.72239 0.56364 0.0
O15 O 0.4862 0.76765 0.61609 0.0
O16 O 0.51742 0.74032 0.71409 0.0
Mg17 Mg 0.49503 0.6781 0.72183 0.0
C18 C 0.51113 0.76914 0.67188 0.0
C19 C 0.40317 0.75876 0.42556 0.0
O20 O 0.40936 0.72524 0.39761 0.0
O21 O 0.40448 0.72535 0.67494 0.0
O22 O 0.43791 0.69583 0.76615 0.0
O23 O 0.48453 0.70516 0.47459 0.0
O24 O 0.47566 0.67945 0.5956 0.0
C25 C 0.40878 0.71217 0.74584 0.0
C26 C 0.49402 0.68137 0.52834 0.0
O27 O 0.41315 0.76761 0.49733 0.0
Mg28 Mg 0.24171 0.96534 0.89184 0.0
O29 O 0.29301 0.99862 0.83173 0.0
O30 O 0.27021 0.03596 0.73839 0.0
Mg31 Mg 0.20621 0.02344 0.73238 0.0
C32 C 0.29779 0.02408 0.77734 0.0
C33 C 0.26555 0.89462 0.97493 0.0
O34 O 0.23172 0.88309 0.94792 0.0
O35 O 0.23443 0.92491 0.78475 0.0
O36 O 0.21319 0.96251 0.68983 0.0
O37 O 0.23719 0.01325 0.97657 0.0
O38 O 0.20616 0.00649 0.8604 0.0
C39 C 0.22328 0.93058 0.71287 0.0
C40 C 0.2145 0.0262 0.92446 0.0
O41 O 0.27976 0.92778 0.95808 0.0
Mg42 Mg 0.04309 0.75178 0.09972 0.0
O43 O 0.00996 0.70425 0.1713 0.0
O44 O 0.97637 0.73153 0.26567 0.0
Mg45 Mg 0.99141 0.79532 0.26078 0.0
C46 C 0.98603 0.70225 0.22906 0.0
C47 C 0.11075 0.71438 0.02052 0.0
O48 O 0.13037 0.74307 0.0551 0.0
O49 O 0.08724 0.76096 0.2002 0.0
O50 O 0.05344 0.7885 0.29373 0.0
O51 O 0.99257 0.75537 0.0216 0.0
O52 O 0.00437 0.79 0.13169 0.0
C53 C 0.08429 0.77622 0.26955 0.0
C54 C 0.9821 0.78002 0.07249 0.0
O55 O 0.07537 0.70911 0.03267 0.0
Mg56 Mg 0.77112 0.04326 0.95771 0.0
O57 O 0.72117 0.00486 0.90433 0.0
O58 O 0.74539 0.97393 0.80134 0.0
Mg59 Mg 0.80866 0.99067 0.79008 0.0
C60 C 0.71756 0.98123 0.84585 0.0
C61 C 0.75021 0.09147 0.09524 0.0
O62 O 0.7857 0.08519 0.10611 0.0
O63 O 0.77081 0.08429 0.85102 0.0
O64 O 0.79721 0.05101 0.75485 0.0
O65 O 0.7842 0.99629 0.03969 0.0
O66 O 0.80929 0.00628 0.91826 0.0
C67 C 0.78355 0.08108 0.77933 0.0
C68 C 0.80565 0.98574 0.98217 0.0
O69 O 0.73272 0.07723 0.03371 0.0
Mg70 Mg 0.94687 0.22052 0.12795 0.0
O71 O 0.98498 0.27201 0.17381 0.0
O72 O 0.02453 0.25116 0.26514 0.0
Mg73 Mg 0.00885 0.18816 0.28415 0.0
C74 C 0.01259 0.27768 0.223 0.0
C75 C 0.92167 0.27708 0.00126 0.0
O76 O 0.95698 0.27523 0.97917 0.0
O77 O 0.91065 0.21942 0.24137 0.0
O78 O 0.95029 0.2 0.33447 0.0
O79 O 0.99067 0.20943 0.03711 0.0
O80 O 0.9871 0.18385 0.15928 0.0
C81 C 0.9183 0.21084 0.31397 0.0
C82 C 0.00463 0.18847 0.09136 0.0
O83 O 0.90915 0.25908 0.06334 0.0
Mg84 Mg 0.72381 0.42806 0.42046 0.0
O85 O 0.76307 0.47845 0.37405 0.0
O86 O 0.72887 0.51219 0.29229 0.0
Mg87 Mg 0.66913 0.48275 0.28372 0.0
C88 C 0.75981 0.50666 0.32753 0.0
C89 C 0.76568 0.38203 0.53611 0.0
O90 O 0.73035 0.37779 0.5606 0.0
O91 O 0.72883 0.39799 0.29958 0.0
O92 O 0.69275 0.43162 0.222 0.0
O93 O 0.70545 0.46311 0.52231 0.0
O94 O 0.67671 0.45831 0.40367 0.0
C95 C 0.71342 0.40431 0.23189 0.0
C96 C 0.67974 0.47369 0.47427 0.0
O97 O 0.77386 0.40144 0.47316 0.0
Mg98 Mg 0.55385 0.29966 0.57069 0.0
O99 O 0.51252 0.25286 0.62669 0.0
O100 O 0.47582 0.28168 0.71296 0.0
Mg101 Mg 0.49563 0.34445 0.71938 0.0
C102 C 0.48528 0.25207 0.67745 0.0
C103 C 0.59209 0.2644 0.43246 0.0
O104 O 0.57839 0.29468 0.40343 0.0
O105 O 0.59043 0.30104 0.68502 0.0
O106 O 0.55244 0.32916 0.7697 0.0
O107 O 0.50973 0.31052 0.47954 0.0
O108 O 0.51701 0.3407 0.59624 0.0
C109 C 0.58312 0.31438 0.75456 0.0
C110 C 0.49827 0.33468 0.53027 0.0
O111 O 0.58729 0.25643 0.50699 0.0
H112 H 0.38539 0.70474 0.8676 0.0
C113 C 0.37813 0.71178 0.80581 0.0
H114 H 0.33331 0.71559 0.72314 0.0
H115 H 0.26246 0.57918 0.94188 0.0
H116 H 0.26635 0.54978 0.8094 0.0
H117 H 0.28809 0.58753 0.69049 0.0
H118 H 0.30805 0.65448 0.70391 0.0
C119 C 0.34145 0.71147 0.78559 0.0
C120 C 0.31283 0.69507 0.84462 0.0
C121 C 0.29801 0.6571 0.83426 0.0
C122 C 0.28475 0.63558 0.90251 0.0
C123 C 0.2731 0.59672 0.89191 0.0
C124 C 0.27493 0.57962 0.81628 0.0
C125 C 0.28727 0.60085 0.74932 0.0
C126 C 0.2987 0.63918 0.75784 0.0
H127 H 0.23841 0.64208 0.11436 0.0
C128 C 0.26163 0.6242 0.1128 0.0
H129 H 0.3097 0.60873 0.05077 0.0
H130 H 0.3288 0.76952 0.87716 0.0
H131 H 0.32487 0.79988 0.00831 0.0
H132 H 0.30296 0.76301 0.12875 0.0
H133 H 0.28485 0.69582 0.11851 0.0
C134 C 0.28678 0.62703 0.05165 0.0
C135 C 0.28547 0.6524 0.98042 0.0
C136 C 0.29503 0.69191 0.98829 0.0
C137 C 0.3084 0.71325 0.91966 0.0
C138 C 0.319 0.7523 0.92831 0.0
C139 C 0.31678 0.76997 0.00306 0.0
C140 C 0.30442 0.74917 0.07068 0.0
C141 C 0.29394 0.71052 0.06388 0.0
H142 H 0.3818 0.81388 0.39848 0.0
C143 C 0.38598 0.78621 0.37371 0.0
H144 H 0.38131 0.75086 0.27066 0.0
H145 H 0.26339 0.88064 0.18573 0.0
H146 H 0.22608 0.85508 0.2993 0.0
H147 H 0.24939 0.80573 0.38564 0.0
H148 H 0.31027 0.78256 0.3615 0.0
C149 C 0.37608 0.77797 0.29683 0.0
C150 C 0.36091 0.80634 0.24271 0.0
C151 C 0.32464 0.81875 0.25671 0.0
C152 C 0.31034 0.84559 0.20392 0.0
C153 C 0.27486 0.85898 0.22163 0.0
C154 C 0.25327 0.84478 0.28695 0.0
C155 C 0.26645 0.81716 0.33596 0.0
C156 C 0.30166 0.80423 0.32151 0.0
H157 H 0.27185 0.84166 0.04007 0.0
C158 C 0.28461 0.8703 0.03064 0.0
H159 H 0.32826 0.91156 0.06557 0.0
H160 H 0.4317 0.78882 0.1994 0.0
H161 H 0.46759 0.8121 0.0821 0.0
H162 H 0.44172 0.85687 0.9877 0.0
H163 H 0.37986 0.87877 0.01028 0.0
C164 C 0.31493 0.88312 0.07445 0.0
C165 C 0.33151 0.85844 0.1349 0.0
C166 C 0.3679 0.84635 0.12139 0.0
C167 C 0.38258 0.82018 0.17524 0.0
C168 C 0.41894 0.80834 0.15997 0.0
C169 C 0.4399 0.82154 0.09292 0.0
C170 C 0.42536 0.84678 0.03983 0.0
C171 C 0.38982 0.85915 0.05359 0.0
H172 H 0.1461 0.78662 0.28801 0.0
C173 C 0.11884 0.78553 0.31823 0.0
H174 H 0.08914 0.79865 0.42321 0.0
H175 H 0.2532 0.84049 0.59394 0.0
H176 H 0.26067 0.77317 0.59194 0.0
H177 H 0.21663 0.72912 0.51456 0.0
H178 H 0.16476 0.75216 0.43851 0.0
C179 C 0.11656 0.79907 0.39386 0.0
C180 C 0.14723 0.82514 0.42945 0.0
C181 C 0.17733 0.81133 0.47304 0.0
C182 C 0.2024 0.83674 0.51867 0.0
C183 C 0.23264 0.82227 0.56063 0.0
C184 C 0.23741 0.78377 0.55938 0.0
C185 C 0.21262 0.75895 0.51573 0.0
C186 C 0.18295 0.77246 0.47262 0.0
H187 H 0.20412 0.87153 0.68349 0.0
C188 C 0.21629 0.89804 0.65788 0.0
H189 H 0.23172 0.9289 0.55322 0.0
H190 H 0.09606 0.86128 0.34146 0.0
H191 H 0.08906 0.92838 0.34058 0.0
H192 H 0.13075 0.97239 0.42313 0.0
H193 H 0.17964 0.94973 0.5062 0.0
C194 C 0.21891 0.90232 0.57729 0.0
C195 C 0.19688 0.87583 0.52112 0.0
C196 C 0.16828 0.8899 0.47261 0.0
C197 C 0.14365 0.86451 0.42644 0.0
C198 C 0.11522 0.87921 0.37875 0.0
C199 C 0.11091 0.91772 0.37744 0.0
C200 C 0.13441 0.94248 0.42375 0.0
C201 C 0.16264 0.92894 0.47108 0.0
H202 H 0.15922 0.69682 0.95106 0.0
C203 C 0.12868 0.69258 0.95777 0.0
H204 H 0.07739 0.66921 0.90558 0.0
H205 H 0.15996 0.6834 0.562 0.0
H206 H 0.12093 0.73594 0.55565 0.0
H207 H 0.08493 0.7541 0.67437 0.0
H208 H 0.08661 0.71915 0.80004 0.0
C209 C 0.10808 0.67193 0.90267 0.0
C210 C 0.12622 0.65803 0.82896 0.0
C211 C 0.12454 0.67843 0.75563 0.0
C212 C 0.14546 0.66794 0.68709 0.0
C213 C 0.14434 0.6897 0.61562 0.0
C214 C 0.1223 0.72015 0.61124 0.0
C215 C 0.10182 0.7303 0.67807 0.0
C216 C 0.10301 0.70995 0.74975 0.0
H217 H 0.15666 0.61137 0.53728 0.0
C218 C 0.1862 0.61612 0.5547 0.0
H219 H 0.22508 0.63304 0.64701 0.0
H220 H 0.13051 0.60998 0.95681 0.0
H221 H 0.16284 0.55259 0.95876 0.0
H222 H 0.19623 0.53229 0.83775 0.0
H223 H 0.19906 0.57014 0.71508 0.0
C224 C 0.19561 0.62969 0.62864 0.0
C225 C 0.16738 0.63658 0.69208 0.0
C226 C 0.16594 0.61411 0.76306 0.0
C227 C 0.14575 0.62515 0.83201 0.0
C228 C 0.14538 0.60269 0.90268 0.0
C229 C 0.16365 0.56964 0.90447 0.0
C230 C 0.18252 0.55826 0.83635 0.0
C231 C 0.18405 0.58029 0.76652 0.0
H232 H 0.78322 0.14214 0.75332 0.0
C233 C 0.78805 0.11496 0.72707 0.0
H234 H 0.80988 0.08639 0.62798 0.0
H235 H 0.82441 0.24063 0.4207 0.0
H236 H 0.75623 0.2303 0.40367 0.0
H237 H 0.71877 0.18074 0.48122 0.0
H238 H 0.74928 0.14217 0.57904 0.0
C239 C 0.80427 0.11346 0.65372 0.0
C240 C 0.82445 0.14725 0.61537 0.0
C241 C 0.80639 0.16842 0.55708 0.0
C242 C 0.82814 0.19572 0.50951 0.0
C243 C 0.80924 0.21825 0.45524 0.0
C244 C 0.77017 0.21279 0.44548 0.0
C245 C 0.7491 0.18495 0.48942 0.0
C246 C 0.76688 0.16292 0.54486 0.0
H247 H 0.862 0.18924 0.35529 0.0
C248 C 0.88737 0.20659 0.37328 0.0
H249 H 0.91789 0.23546 0.46549 0.0
H250 H 0.86624 0.11687 0.73371 0.0
H251 H 0.93325 0.13068 0.75816 0.0
H252 H 0.97149 0.17648 0.6731 0.0
H253 H 0.94314 0.20869 0.56392 0.0
C254 C 0.89239 0.21771 0.45057 0.0
C255 C 0.86814 0.1999 0.51677 0.0
C256 C 0.88549 0.18212 0.58215 0.0
C257 C 0.86353 0.15561 0.63122 0.0
C258 C 0.88156 0.13718 0.69443 0.0
C259 C 0.92004 0.14487 0.70928 0.0
C260 C 0.94154 0.17064 0.6614 0.0
C261 C 0.92473 0.18894 0.59834 0.0
H262 H 0.86571 0.29422 0.9678 0.0
C263 C 0.89506 0.2949 0.94865 0.0
H264 H 0.93402 0.30889 0.85403 0.0
H265 H 0.7738 0.27894 0.65351 0.0
H266 H 0.77934 0.21322 0.68559 0.0
H267 H 0.83099 0.19485 0.77295 0.0
H268 H 0.87622 0.24211 0.83113 0.0
C269 C 0.90493 0.30791 0.87475 0.0
C270 C 0.87582 0.31899 0.81732 0.0
C271 C 0.85074 0.29078 0.78027 0.0
C272 C 0.82174 0.30133 0.72812 0.0
C273 C 0.79642 0.2726 0.69362 0.0
C274 C 0.79948 0.23468 0.71088 0.0
C275 C 0.82838 0.22434 0.76032 0.0
C276 C 0.85401 0.25187 0.79405 0.0
H277 H 0.82511 0.37461 0.56667 0.0
C278 C 0.79594 0.36825 0.58574 0.0
H279 H 0.75924 0.34293 0.67434 0.0
H280 H 0.91957 0.37962 0.87838 0.0
H281 H 0.91131 0.44582 0.85493 0.0
H282 H 0.8598 0.46437 0.76772 0.0
H283 H 0.81667 0.41706 0.70271 0.0
C284 C 0.78828 0.35062 0.65638 0.0
C285 C 0.8186 0.33999 0.71133 0.0
C286 C 0.84334 0.36827 0.7495 0.0
C287 C 0.87237 0.35765 0.80162 0.0
C288 C 0.89687 0.38624 0.83869 0.0
C289 C 0.89242 0.42431 0.82586 0.0
C290 C 0.86348 0.43475 0.77662 0.0
C291 C 0.83908 0.40722 0.73899 0.0
H292 H 0.73501 0.35445 0.17224 0.0
C293 C 0.7179 0.37799 0.16384 0.0
H294 H 0.68287 0.4056 0.08494 0.0
H295 H 0.70031 0.35329 0.74547 0.0
H296 H 0.74372 0.4103 0.73997 0.0
H297 H 0.76862 0.441 0.86536 0.0
H298 H 0.74906 0.41558 0.99736 0.0
C299 C 0.69912 0.38148 0.09413 0.0
C300 C 0.699 0.35436 0.02561 0.0
C301 C 0.71236 0.36811 0.94953 0.0
C302 C 0.69898 0.34976 0.87735 0.0
C303 C 0.71024 0.36586 0.80203 0.0
C304 C 0.73515 0.39847 0.79813 0.0
C305 C 0.74908 0.41583 0.86876 0.0
C306 C 0.73765 0.40111 0.94385 0.0
H307 H 0.60112 0.32448 0.87943 0.0
C308 C 0.61065 0.31474 0.82107 0.0
H309 H 0.65805 0.30001 0.75447 0.0
H310 H 0.67337 0.31584 0.16229 0.0
H311 H 0.63676 0.25493 0.16639 0.0
H312 H 0.61829 0.22079 0.04054 0.0
H313 H 0.63539 0.24843 0.90896 0.0
C314 C 0.64698 0.30769 0.81286 0.0
C315 C 0.67305 0.3172 0.88203 0.0
C316 C 0.66558 0.29964 0.9579 0.0
C317 C 0.67763 0.31869 0.03029 0.0
C318 C 0.6661 0.30229 0.10528 0.0
C319 C 0.64497 0.26728 0.10852 0.0
C320 C 0.63448 0.24807 0.03762 0.0
C321 C 0.64433 0.26412 0.96287 0.0
H322 H 0.74921 0.12587 0.20555 0.0
C323 C 0.73211 0.11489 0.15475 0.0
H324 H 0.67806 0.11154 0.10056 0.0
H325 H 0.59587 0.14706 0.42903 0.0
H326 H 0.5743 0.08098 0.40952 0.0
H327 H 0.60086 0.04383 0.30075 0.0
H328 H 0.64891 0.07264 0.21032 0.0
C329 C 0.69613 0.1232 0.14916 0.0
C330 C 0.67953 0.14615 0.21324 0.0
C331 C 0.65165 0.12882 0.26595 0.0
C332 C 0.63671 0.15012 0.32938 0.0
C333 C 0.60847 0.13219 0.38033 0.0
C334 C 0.59581 0.09424 0.36981 0.0
C335 C 0.61074 0.07333 0.30854 0.0
C336 C 0.63832 0.09025 0.25703 0.0
H337 H 0.61096 0.24732 0.31284 0.0
C338 C 0.61184 0.24051 0.37688 0.0
H339 H 0.63189 0.20403 0.46452 0.0
H340 H 0.72985 0.18925 0.11812 0.0
H341 H 0.75417 0.25428 0.14236 0.0
H342 H 0.73266 0.28937 0.25996 0.0
H343 H 0.68592 0.26001 0.35251 0.0
C344 C 0.63118 0.21183 0.40105 0.0
C345 C 0.64976 0.18869 0.34011 0.0
C346 C 0.67864 0.20567 0.28908 0.0
C347 C 0.69268 0.18474 0.22409 0.0
C348 C 0.71951 0.20324 0.17069 0.0
C349 C 0.73356 0.24065 0.1836 0.0
C350 C 0.72131 0.26047 0.24954 0.0
C351 C 0.69414 0.24338 0.30173 0.0
H352 H 0.36467 0.50951 0.40067 0.0
C353 C 0.33788 0.50484 0.43251 0.0
H354 H 0.30483 0.47024 0.51381 0.0
H355 H 0.46228 0.3936 0.38475 0.0
H356 H 0.43711 0.39808 0.24951 0.0
H357 H 0.37502 0.42228 0.22696 0.0
H358 H 0.33897 0.44415 0.3396 0.0
C359 C 0.33168 0.47514 0.48234 0.0
C360 C 0.36195 0.44955 0.49805 0.0
C361 C 0.38027 0.43272 0.43268 0.0
C362 C 0.41379 0.41474 0.4466 0.0
C363 C 0.43479 0.40401 0.37877 0.0
C364 C 0.42092 0.40697 0.30047 0.0
C365 C 0.38614 0.42085 0.28771 0.0
C366 C 0.36595 0.43367 0.35281 0.0
H367 H 0.44243 0.33947 0.47505 0.0
C368 C 0.46381 0.35339 0.5146 0.0
H369 H 0.48171 0.40185 0.58245 0.0
H370 H 0.3327 0.47682 0.63779 0.0
H371 H 0.35359 0.46583 0.77433 0.0
H372 H 0.40663 0.42726 0.79998 0.0
H373 H 0.43961 0.40015 0.68914 0.0
C374 C 0.45986 0.38815 0.54363 0.0
C375 C 0.42588 0.40868 0.5271 0.0
C376 C 0.40582 0.42301 0.59297 0.0
C377 C 0.37435 0.44415 0.57835 0.0
C378 C 0.35621 0.45983 0.64515 0.0
C379 C 0.36794 0.45379 0.72406 0.0
C380 C 0.39784 0.43215 0.73848 0.0
C381 C 0.41664 0.41686 0.67407 0.0
H382 H 0.66048 0.95745 0.88359 0.0
C383 C 0.68097 0.95844 0.83463 0.0
H384 H 0.69529 0.93673 0.72116 0.0
H385 H 0.61571 0.77463 0.74767 0.0
H386 H 0.68173 0.76327 0.75488 0.0
H387 H 0.73118 0.81616 0.77011 0.0
H388 H 0.71488 0.88071 0.77709 0.0
C389 C 0.67445 0.93607 0.76942 0.0
C390 C 0.64368 0.90465 0.76738 0.0
C391 C 0.65364 0.86687 0.76538 0.0
C392 C 0.62506 0.83631 0.75906 0.0
C393 C 0.63605 0.79897 0.75444 0.0
C394 C 0.67394 0.79198 0.75822 0.0
C395 C 0.70177 0.82175 0.76657 0.0
C396 C 0.69195 0.85876 0.77015 0.0
H397 H 0.53541 0.82649 0.63795 0.0
C398 C 0.53493 0.80498 0.68472 0.0
H399 H 0.55687 0.78912 0.79681 0.0
H400 H 0.61486 0.97354 0.76444 0.0
H401 H 0.54854 0.98485 0.76548 0.0
H402 H 0.49883 0.93166 0.76621 0.0
H403 H 0.51512 0.86684 0.76408 0.0
C404 C 0.55706 0.81077 0.75039 0.0
C405 C 0.58642 0.84341 0.7566 0.0
C406 C 0.57637 0.88112 0.76127 0.0
C407 C 0.60507 0.91183 0.76478 0.0
C408 C 0.59427 0.9492 0.76476 0.0
C409 C 0.55629 0.95609 0.76497 0.0
C410 C 0.5283 0.92614 0.76508 0.0
C411 C 0.53804 0.88905 0.76332 0.0
H412 H 0.04184 0.14331 0.11006 0.0
C413 C 0.03834 0.16861 0.07502 0.0
H414 H 0.0595 0.20486 0.9819 0.0
H415 H 0.17193 0.06738 0.08405 0.0
H416 H 0.17422 0.09431 0.21832 0.0
H417 H 0.14257 0.1517 0.24869 0.0
H418 H 0.10673 0.18113 0.14502 0.0
C419 C 0.06318 0.17944 0.0163 0.0
C420 C 0.09308 0.15482 0.99125 0.0
C421 C 0.11746 0.14072 0.04962 0.0
C422 C 0.13899 0.11016 0.02974 0.0
C423 C 0.158 0.09279 0.09303 0.0
C424 C 0.15908 0.10767 0.1711 0.0
C425 C 0.14105 0.13979 0.18836 0.0
C426 C 0.12034 0.15618 0.12859 0.0
H427 H 0.21392 0.08432 0.97166 0.0
C428 C 0.1974 0.06159 0.94022 0.0
H429 H 0.14425 0.04036 0.8958 0.0
H430 H 0.05248 0.17792 0.86153 0.0
H431 H 0.05676 0.15697 0.72306 0.0
H432 H 0.10041 0.10981 0.68478 0.0
H433 H 0.13939 0.0827 0.78552 0.0
C434 C 0.16045 0.06375 0.92599 0.0
C435 C 0.13998 0.0971 0.94842 0.0
C436 C 0.11882 0.11423 0.88811 0.0
C437 C 0.09471 0.14249 0.90974 0.0
C438 C 0.07204 0.15712 0.84883 0.0
C439 C 0.07415 0.14528 0.76875 0.0
C440 C 0.09864 0.11868 0.74723 0.0
C441 C 0.12074 0.10323 0.80586 0.0
H442 H 0.97728 0.63987 0.22308 0.0
C443 C 0.96652 0.66494 0.24882 0.0
H444 H 0.92265 0.68662 0.31571 0.0
H445 H 0.83744 0.52443 0.18403 0.0
H446 H 0.85086 0.54779 0.04824 0.0
H447 H 0.88973 0.60803 0.02642 0.0
H448 H 0.91631 0.64449 0.13951 0.0
C449 C 0.9336 0.66174 0.28953 0.0
C450 C 0.91055 0.62496 0.30072 0.0
C451 C 0.89366 0.60511 0.23335 0.0
C452 C 0.86907 0.57176 0.24594 0.0
C453 C 0.85463 0.55099 0.17782 0.0
C454 C 0.86235 0.56392 0.09958 0.0
C455 C 0.88438 0.59772 0.08731 0.0
C456 C 0.89981 0.61825 0.15308 0.0
H457 H 0.78741 0.56007 0.28058 0.0
C458 C 0.79244 0.5346 0.31377 0.0
H459 H 0.83317 0.50497 0.37383 0.0
H460 H 0.94096 0.65399 0.44204 0.0
H461 H 0.92613 0.63113 0.57761 0.0
H462 H 0.88024 0.57572 0.59955 0.0
H463 H 0.84918 0.54262 0.48617 0.0
C464 C 0.82763 0.52988 0.33936 0.0
C465 C 0.85905 0.55998 0.32567 0.0
C466 C 0.877 0.57892 0.39271 0.0
C467 C 0.90295 0.61129 0.38015 0.0
C468 C 0.92056 0.62963 0.44819 0.0
C469 C 0.9124 0.61674 0.52633 0.0
C470 C 0.8866 0.58552 0.53867 0.0
C471 C 0.86896 0.56676 0.47295 0.0
H472 H 0.36014 0.0298 0.79065 0.0
C473 C 0.33638 0.04201 0.76272 0.0
H474 H 0.31856 0.08663 0.69252 0.0
H475 H 0.47933 0.17173 0.82385 0.0
H476 H 0.45671 0.15851 0.96059 0.0
H477 H 0.39756 0.11808 0.98428 0.0
H478 H 0.36145 0.0898 0.87243 0.0
C479 C 0.34219 0.07461 0.72141 0.0
C480 C 0.38011 0.09558 0.71063 0.0
C481 C 0.39992 0.113 0.77745 0.0
C482 C 0.43271 0.13826 0.76381 0.0
C483 C 0.45326 0.1538 0.83117 0.0
C484 C 0.44074 0.14625 0.90978 0.0
C485 C 0.40754 0.12335 0.9231 0.0
C486 C 0.38717 0.107 0.85803 0.0
H487 H 0.43669 0.21825 0.73006 0.0
C488 C 0.46232 0.21635 0.6948 0.0
H489 H 0.49594 0.17976 0.63224 0.0
H490 H 0.35285 0.062 0.57108 0.0
H491 H 0.37622 0.07513 0.43502 0.0
H492 H 0.43073 0.12193 0.41127 0.0
H493 H 0.46241 0.15562 0.52323 0.0
C494 C 0.47087 0.18229 0.66876 0.0
C495 C 0.44398 0.14821 0.68374 0.0
C496 C 0.42612 0.12853 0.61757 0.0
C497 C 0.39428 0.10203 0.63115 0.0
C498 C 0.37674 0.0829 0.56396 0.0
C499 C 0.38995 0.09006 0.48564 0.0
C500 C 0.42066 0.11638 0.47228 0.0
C501 C 0.43858 0.13556 0.53718 0.0
H502 H 0.85137 0.95109 0.95088 0.0
C503 C 0.82674 0.95226 0.98952 0.0
H504 H 0.79312 0.92577 0.08161 0.0
H505 H 0.931 0.82573 0.92734 0.0
H506 H 0.89859 0.82814 0.7993 0.0
H507 H 0.83855 0.85768 0.7886 0.0
H508 H 0.8118 0.88671 0.90608 0.0
C509 C 0.81776 0.92451 0.04315 0.0
C510 C 0.84363 0.89423 0.05632 0.0
C511 C 0.85654 0.87376 0.98964 0.0
C512 C 0.88903 0.85348 0.99778 0.0
C513 C 0.90462 0.83855 0.92697 0.0
C514 C 0.88652 0.84021 0.85246 0.0
C515 C 0.85288 0.85705 0.84628 0.0
C516 C 0.83801 0.87381 0.91386 0.0
H517 H 0.92255 0.77889 0.03343 0.0
C518 C 0.94549 0.79575 0.06347 0.0
H519 H 0.96484 0.84801 0.11511 0.0
H520 H 0.82233 0.92516 0.19991 0.0
H521 H 0.84878 0.9152 0.33204 0.0
H522 H 0.90038 0.87394 0.34927 0.0
H523 H 0.92629 0.84298 0.23392 0.0
C524 C 0.94146 0.83151 0.08559 0.0
C525 C 0.90565 0.8498 0.07529 0.0
C526 C 0.8895 0.86624 0.1439 0.0
C527 C 0.85893 0.88907 0.13429 0.0
C528 C 0.84503 0.90697 0.20339 0.0
C529 C 0.85997 0.9015 0.2799 0.0
C530 C 0.88906 0.87833 0.28959 0.0
C531 C 0.90378 0.86087 0.2227 0.0
H532 H 0.01965 0.33923 0.19939 0.0
C533 C 0.03232 0.31602 0.22839 0.0
H534 H 0.07905 0.29929 0.29365 0.0
H535 H 0.15186 0.4607 0.13154 0.0
H536 H 0.13735 0.43208 0.0006 0.0
H537 H 0.10176 0.36933 0.99044 0.0
H538 H 0.07959 0.33543 0.1106 0.0
C539 C 0.0664 0.32229 0.2638 0.0
C540 C 0.08755 0.36041 0.26784 0.0
C541 C 0.10183 0.37892 0.19661 0.0
C542 C 0.12446 0.41397 0.20254 0.0
C543 C 0.13628 0.4331 0.13053 0.0
C544 C 0.12788 0.41714 0.05498 0.0
C545 C 0.1077 0.38191 0.04927 0.0
C546 C 0.09485 0.36285 0.11897 0.0
H547 H 0.20644 0.43536 0.22852 0.0
C548 C 0.19917 0.46059 0.26004 0.0
H549 H 0.15608 0.48713 0.31957 0.0
H550 H 0.06174 0.33437 0.41531 0.0
H551 H 0.07757 0.36246 0.54607 0.0
H552 H 0.12016 0.42106 0.55667 0.0
H553 H 0.14686 0.45211 0.43674 0.0
C554 C 0.16363 0.46235 0.28692 0.0
C555 C 0.13495 0.42914 0.2796 0.0
C556 C 0.11967 0.41131 0.35054 0.0
C557 C 0.09575 0.37709 0.34456 0.0
C558 C 0.08063 0.36003 0.41638 0.0
C559 C 0.08937 0.37591 0.49187 0.0
C560 C 0.1133 0.40893 0.49782 0.0
C561 C 0.12841 0.4265 0.4283 0.0
H562 H 0.53876 0.65992 0.45353 0.0
C563 C 0.52409 0.65659 0.51115 0.0
H564 H 0.51565 0.62358 0.61676 0.0
H565 H 0.56646 0.475 0.45837 0.0
H566 H 0.49953 0.45841 0.479 0.0
H567 H 0.45799 0.5059 0.52615 0.0
H568 H 0.48322 0.5705 0.55221 0.0
C569 C 0.53146 0.62831 0.56087 0.0
C570 C 0.55706 0.59955 0.53547 0.0
C571 C 0.54178 0.56188 0.52062 0.0
C572 C 0.5656 0.53452 0.49274 0.0
C573 C 0.54963 0.49706 0.47878 0.0
C574 C 0.51121 0.48707 0.49069 0.0
C575 C 0.48785 0.51384 0.51714 0.0
C576 C 0.50277 0.55083 0.53198 0.0
H577 H 0.66112 0.51635 0.55865 0.0
C578 C 0.65632 0.50385 0.49907 0.0
H579 H 0.62313 0.50254 0.39304 0.0
H580 H 0.59625 0.66799 0.56718 0.0
H581 H 0.66263 0.68544 0.54008 0.0
H582 H 0.7029 0.63929 0.48171 0.0
H583 H 0.67722 0.57528 0.45172 0.0
C584 C 0.62928 0.51582 0.45133 0.0
C585 C 0.60462 0.54485 0.47965 0.0
C586 C 0.61983 0.58262 0.49375 0.0
C587 C 0.5962 0.60975 0.52357 0.0
C588 C 0.61255 0.64668 0.54133 0.0
C589 C 0.65068 0.65701 0.52657 0.0
C590 C 0.67338 0.631 0.49403 0.0
C591 C 0.65831 0.59422 0.47762 0.0
loop_
_geom_bond_atom_site_label_1
_geom_bond_atom_site_label_2
_geom_bond_distance
_geom_bond_site_symmetry_2
_ccdc_geom_bond_type
Mg0 O1 2.028 . S
Mg0 O7 1.986 . S
Mg0 O9 2.114 . S
Mg0 O10 2.251 . S
Mg0 O13 2.010 . S
O1 Mg0 2.028 . S
O1 C4 1.250 . S
O2 Mg3 2.028 . S
O2 C4 1.248 . S
Mg3 O2 2.028 . S
Mg3 O8 2.032 . S
Mg3 O10 2.079 . S
C4 O1 1.250 . S
C4 O2 1.248 . S
C5 O6 1.264 . S
C5 O13 1.249 . S
O6 C5 1.264 . S
O7 Mg0 1.986 . S
O7 C11 1.246 . S
O8 Mg3 2.032 . S
O8 C11 1.259 . S
O9 Mg0 2.114 . S
O9 C12 1.252 . S
O10 Mg0 2.251 . S
O10 Mg3 2.079 . S
O10 C12 1.273 . S
C11 O7 1.246 . S
C11 O8 1.259 . S
C12 O9 1.252 . S
C12 O10 1.273 . S
O13 Mg0 2.010 . S
O13 C5 1.249 . S
Mg14 O15 2.028 . S
Mg14 O21 1.986 . S
Mg14 O23 2.114 . S
Mg14 O24 2.251 . S
Mg14 O27 2.010 . S
O15 Mg14 2.028 . S
O15 C18 1.250 . S
O16 Mg17 2.028 . S
O16 C18 1.248 . S
Mg17 O16 2.028 . S
Mg17 O22 2.032 . S
Mg17 O24 2.079 . S
C18 O15 1.250 . S
C18 O16 1.248 . S
C19 O20 1.264 . S
C19 O27 1.249 . S
O20 C19 1.264 . S
O21 Mg14 1.986 . S
O21 C25 1.246 . S
O22 Mg17 2.032 . S
O22 C25 1.259 . S
O23 Mg14 2.114 . S
O23 C26 1.252 . S
O24 Mg14 2.251 . S
O24 Mg17 2.079 . S
O24 C26 1.273 . S
C25 O21 1.246 . S
C25 O22 1.259 . S
C26 O23 1.252 . S
C26 O24 1.273 . S
O27 Mg14 2.010 . S
O27 C19 1.249 . S
Mg28 O29 2.028 . S
Mg28 O35 1.986 . S
Mg28 O37 2.114 . S
Mg28 O38 2.251 . S
Mg28 O41 2.010 . S
O29 Mg28 2.028 . S
O29 C32 1.238 1_565 S
O30 Mg31 2.028 . S
O30 C32 1.255 . S
Mg31 O30 2.028 . S
Mg31 O36 2.032 1_545 S
Mg31 O38 2.079 1_545 S
C32 O29 1.238 1_545 S
C32 O30 1.255 . S
C33 O34 1.264 . S
C33 O41 1.249 1_554 S
O34 C33 1.264 . S
O35 Mg28 1.986 . S
O35 C39 1.246 . S
O36 Mg31 2.032 1_565 S
O36 C39 1.259 . S
O37 Mg28 2.114 . S
O37 C40 1.252 1_565 S
O38 Mg28 2.251 . S
O38 Mg31 2.079 1_565 S
O38 C40 1.273 1_565 S
C39 O35 1.246 . S
C39 O36 1.259 . S
C40 O37 1.252 1_545 S
C40 O38 1.273 1_545 S
O41 Mg28 2.010 . S
O41 C33 1.249 1_556 S
Mg42 O43 2.028 . S
Mg42 O49 1.986 . S
Mg42 O51 2.114 . S
Mg42 O52 2.251 . S
Mg42 O55 2.010 . S
O43 Mg42 2.028 . S
O43 C46 1.238 1_455 S
O44 Mg45 2.028 . S
O44 C46 1.255 . S
Mg45 O44 2.028 . S
Mg45 O50 2.032 1_655 S
Mg45 O52 2.079 1_655 S
C46 O43 1.238 1_655 S
C46 O44 1.255 . S
C47 O48 1.264 . S
C47 O55 1.249 1_556 S
O48 C47 1.264 . S
O49 Mg42 1.986 . S
O49 C53 1.246 . S
O50 Mg45 2.032 1_455 S
O50 C53 1.259 . S
O51 Mg42 2.114 . S
O51 C54 1.252 1_455 S
O52 Mg42 2.251 . S
O52 Mg45 2.079 1_455 S
O52 C54 1.273 1_455 S
C53 O49 1.246 . S
C53 O50 1.259 . S
C54 O51 1.252 1_655 S
C54 O52 1.273 1_655 S
O55 Mg42 2.010 . S
O55 C47 1.249 1_554 S
Mg56 O57 2.028 . S
Mg56 O63 1.986 . S
Mg56 O65 2.114 . S
Mg56 O66 2.251 . S
Mg56 O69 2.010 . S
O57 Mg56 2.028 . S
O57 C60 1.238 1_545 S
O58 Mg59 2.028 . S
O58 C60 1.255 . S
Mg59 O58 2.028 . S
Mg59 O64 2.032 1_565 S
Mg59 O66 2.079 1_565 S
C60 O57 1.238 1_565 S
C60 O58 1.255 . S
C61 O62 1.264 . S
C61 O69 1.249 1_554 S
O62 C61 1.264 . S
O63 Mg56 1.986 . S
O63 C67 1.246 . S
O64 Mg59 2.032 1_545 S
O64 C67 1.259 . S
O65 Mg56 2.114 . S
O65 C68 1.252 1_545 S
O66 Mg56 2.251 . S
O66 Mg59 2.079 1_545 S
O66 C68 1.273 1_545 S
C67 O63 1.246 . S
C67 O64 1.259 . S
C68 O65 1.252 1_565 S
C68 O66 1.273 1_565 S
O69 Mg56 2.010 . S
O69 C61 1.249 1_556 S
Mg70 O71 2.028 . S
Mg70 O77 1.986 . S
Mg70 O79 2.114 . S
Mg70 O80 2.251 . S
Mg70 O83 2.010 . S
O71 Mg70 2.028 . S
O71 C74 1.238 1_655 S
O72 Mg73 2.028 . S
O72 C74 1.255 . S
Mg73 O72 2.028 . S
Mg73 O78 2.032 1_455 S
Mg73 O80 2.079 1_455 S
C74 O71 1.238 1_455 S
C74 O72 1.255 . S
C75 O76 1.264 . S
C75 O83 1.249 1_556 S
O76 C75 1.264 . S
O77 Mg70 1.986 . S
O77 C81 1.246 . S
O78 Mg73 2.032 1_655 S
O78 C81 1.259 . S
O79 Mg70 2.114 . S
O79 C82 1.252 1_655 S
O80 Mg70 2.251 . S
O80 Mg73 2.079 1_655 S
O80 C82 1.273 1_655 S
C81 O77 1.246 . S
C81 O78 1.259 . S
C82 O79 1.252 1_455 S
C82 O80 1.273 1_455 S
O83 Mg70 2.010 . S
O83 C75 1.249 1_554 S
Mg84 O85 2.028 . S
Mg84 O91 1.986 . S
Mg84 O93 2.114 . S
Mg84 O94 2.251 . S
Mg84 O97 2.010 . S
O85 Mg84 2.028 . S
O85 C88 1.250 . S
O86 Mg87 2.028 . S
O86 C88 1.248 . S
Mg87 O86 2.028 . S
Mg87 O92 2.032 . S
Mg87 O94 2.079 . S
C88 O85 1.250 . S
C88 O86 1.248 . S
C89 O90 1.264 . S
C89 O97 1.249 . S
O90 C89 1.264 . S
O91 Mg84 1.986 . S
O91 C95 1.246 . S
O92 Mg87 2.032 . S
O92 C95 1.259 . S
O93 Mg84 2.114 . S
O93 C96 1.252 . S
O94 Mg84 2.251 . S
O94 Mg87 2.079 . S
O94 C96 1.273 . S
C95 O91 1.246 . S
C95 O92 1.259 . S
C96 O93 1.252 . S
C96 O94 1.273 . S
O97 Mg84 2.010 . S
O97 C89 1.249 . S
Mg98 O99 2.028 . S
Mg98 O105 1.986 . S
Mg98 O107 2.114 . S
Mg98 O108 2.251 . S
Mg98 O111 2.010 . S
O99 Mg98 2.028 . S
O99 C102 1.250 . S
O100 Mg101 2.028 . S
O100 C102 1.248 . S
Mg101 O100 2.028 . S
Mg101 O106 2.032 . S
Mg101 O108 2.079 . S
C102 O99 1.250 . S
C102 O100 1.248 . S
C103 O104 1.264 . S
C103 O111 1.249 . S
O104 C103 1.264 . S
O105 Mg98 1.986 . S
O105 C109 1.246 . S
O106 Mg101 2.032 . S
O106 C109 1.259 . S
O107 Mg98 2.114 . S
O107 C110 1.252 . S
O108 Mg98 2.251 . S
O108 Mg101 2.079 . S
O108 C110 1.273 . S
C109 O105 1.246 . S
C109 O106 1.259 . S
C110 O107 1.252 . S
C110 O108 1.273 . S
O111 Mg98 2.010 . S
O111 C103 1.249 . S
H112 C113 0.951 . S
C113 H112 0.951 . S
C113 C119 1.265 . S
H114 C119 0.950 . S
H115 C123 0.949 . S
H116 C124 0.950 . S
H117 C125 0.951 . S
H118 C126 0.951 . S
C119 C113 1.265 . S
C119 H114 0.950 . S
C119 C120 1.478 . S
C120 C119 1.478 . S
C120 C121 1.397 . S
C120 C137 1.394 . S
C121 C120 1.397 . S
C121 C122 1.438 1_556 S
C121 C126 1.429 . S
C122 C121 1.438 1_554 S
C122 C123 1.428 . S
C122 C135 1.394 . S
C123 H115 0.949 . S
C123 C122 1.428 . S
C123 C124 1.345 1_554 S
C124 H116 0.950 . S
C124 C123 1.345 1_556 S
C124 C125 1.424 . S
C125 H117 0.951 . S
C125 C124 1.424 . S
C125 C126 1.347 . S
C126 H118 0.951 . S
C126 C121 1.429 . S
C126 C125 1.347 . S
H127 C128 0.951 . S
C128 H127 0.951 . S
C128 C134 1.265 . S
H129 C134 0.950 . S
H130 C138 0.949 . S
H131 C139 0.950 . S
H132 C140 0.951 . S
H133 C141 0.951 . S
C134 C128 1.265 . S
C134 H129 0.950 . S
C134 C135 1.478 . S
C135 C122 1.394 . S
C135 C134 1.478 . S
C135 C136 1.397 . S
C136 C135 1.397 . S
C136 C137 1.438 1_554 S
C136 C141 1.429 . S
C137 C120 1.394 . S
C137 C136 1.438 1_556 S
C137 C138 1.428 . S
C138 H130 0.949 . S
C138 C137 1.428 . S
C138 C139 1.345 1_556 S
C139 H131 0.950 . S
C139 C138 1.345 1_554 S
C139 C140 1.424 . S
C140 H132 0.951 . S
C140 C139 1.424 . S
C140 C141 1.347 . S
C141 H133 0.951 . S
C141 C136 1.429 . S
C141 C140 1.347 . S
H142 C143 0.951 . S
C143 H142 0.951 . S
C143 C149 1.265 . S
H144 C149 0.950 . S
H145 C153 0.949 . S
H146 C154 0.950 . S
H147 C155 0.951 . S
H148 C156 0.951 . S
C149 C143 1.265 . S
C149 H144 0.950 . S
C149 C150 1.478 . S
C150 C149 1.478 . S
C150 C151 1.397 . S
C150 C167 1.394 . S
C151 C150 1.397 . S
C151 C152 1.438 . S
C151 C156 1.429 . S
C152 C151 1.438 . S
C152 C153 1.428 . S
C152 C165 1.394 . S
C153 H145 0.949 . S
C153 C152 1.428 . S
C153 C154 1.345 . S
C154 H146 0.950 . S
C154 C153 1.345 . S
C154 C155 1.424 . S
C155 H147 0.951 . S
C155 C154 1.424 . S
C155 C156 1.347 . S
C156 H148 0.951 . S
C156 C151 1.429 . S
C156 C155 1.347 . S
H157 C158 0.951 . S
C158 H157 0.951 . S
C158 C164 1.265 . S
H159 C164 0.950 . S
H160 C168 0.949 . S
H161 C169 0.950 . S
H162 C170 0.951 . S
H163 C171 0.951 . S
C164 C158 1.265 . S
C164 H159 0.950 . S
C164 C165 1.478 . S
C165 C152 1.394 . S
C165 C164 1.478 . S
C165 C166 1.397 . S
C166 C165 1.397 . S
C166 C167 1.438 . S
C166 C171 1.429 . S
C167 C150 1.394 . S
C167 C166 1.438 . S
C167 C168 1.428 . S
C168 H160 0.949 . S
C168 C167 1.428 . S
C168 C169 1.345 . S
C169 H161 0.950 . S
C169 C168 1.345 . S
C169 C170 1.424 . S
C170 H162 0.951 . S
C170 C169 1.424 . S
C170 C171 1.347 . S
C171 H163 0.951 . S
C171 C166 1.429 . S
C171 C170 1.347 . S
H172 C173 0.951 . S
C173 H172 0.951 . S
C173 C179 1.265 . S
H174 C179 0.950 . S
H175 C183 0.949 . S
H176 C184 0.950 . S
H177 C185 0.951 . S
H178 C186 0.951 . S
C179 C173 1.265 . S
C179 H174 0.950 . S
C179 C180 1.478 . S
C180 C179 1.478 . S
C180 C181 1.397 . S
C180 C197 1.394 . S
C181 C180 1.397 . S
C181 C182 1.438 . S
C181 C186 1.429 . S
C182 C181 1.438 . S
C182 C183 1.428 . S
C182 C195 1.394 . S
C183 H175 0.949 . S
C183 C182 1.428 . S
C183 C184 1.345 . S
C184 H176 0.950 . S
C184 C183 1.345 . S
C184 C185 1.424 . S
C185 H177 0.951 . S
C185 C184 1.424 . S
C185 C186 1.347 . S
C186 H178 0.951 . S
C186 C181 1.429 . S
C186 C185 1.347 . S
H187 C188 0.951 . S
C188 H187 0.951 . S
C188 C194 1.265 . S
H189 C194 0.950 . S
H190 C198 0.949 . S
H191 C199 0.950 . S
H192 C200 0.951 . S
H193 C201 0.951 . S
C194 C188 1.265 . S
C194 H189 0.950 . S
C194 C195 1.478 . S
C195 C182 1.394 . S
C195 C194 1.478 . S
C195 C196 1.397 . S
C196 C195 1.397 . S
C196 C197 1.438 . S
C196 C201 1.429 . S
C197 C180 1.394 . S
C197 C196 1.438 . S
C197 C198 1.428 . S
C198 H190 0.949 . S
C198 C197 1.428 . S
C198 C199 1.345 . S
C199 H191 0.950 . S
C199 C198 1.345 . S
C199 C200 1.424 . S
C200 H192 0.951 . S
C200 C199 1.424 . S
C200 C201 1.347 . S
C201 H193 0.951 . S
C201 C196 1.429 . S
C201 C200 1.347 . S
H202 C203 0.951 . S
C203 H202 0.951 . S
C203 C209 1.265 . S
H204 C209 0.950 . S
H205 C213 0.949 . S
H206 C214 0.950 . S
H207 C215 0.951 . S
H208 C216 0.951 . S
C209 C203 1.265 . S
C209 H204 0.950 . S
C209 C210 1.478 . S
C210 C209 1.478 . S
C210 C211 1.397 . S
C210 C227 1.394 . S
C211 C210 1.397 . S
C211 C212 1.438 . S
C211 C216 1.429 . S
C212 C211 1.438 . S
C212 C213 1.428 . S
C212 C225 1.394 . S
C213 H205 0.949 . S
C213 C212 1.428 . S
C213 C214 1.345 . S
C214 H206 0.950 . S
C214 C213 1.345 . S
C214 C215 1.424 . S
C215 H207 0.951 . S
C215 C214 1.424 . S
C215 C216 1.347 . S
C216 H208 0.951 . S
C216 C211 1.429 . S
C216 C215 1.347 . S
H217 C218 0.951 . S
C218 H217 0.951 . S
C218 C224 1.265 . S
H219 C224 0.950 . S
H220 C228 0.949 . S
H221 C229 0.950 . S
H222 C230 0.951 . S
H223 C231 0.951 . S
C224 C218 1.265 . S
C224 H219 0.950 . S
C224 C225 1.478 . S
C225 C212 1.394 . S
C225 C224 1.478 . S
C225 C226 1.397 . S
C226 C225 1.397 . S
C226 C227 1.438 . S
C226 C231 1.429 . S
C227 C210 1.394 . S
C227 C226 1.438 . S
C227 C228 1.428 . S
C228 H220 0.949 . S
C228 C227 1.428 . S
C228 C229 1.345 . S
C229 H221 0.950 . S
C229 C228 1.345 . S
C229 C230 1.424 . S
C230 H222 0.951 . S
C230 C229 1.424 . S
C230 C231 1.347 . S
C231 H223 0.951 . S
C231 C226 1.429 . S
C231 C230 1.347 . S
H232 C233 0.951 . S
C233 H232 0.951 . S
C233 C239 1.265 . S
H234 C239 0.950 . S
H235 C243 0.949 . S
H236 C244 0.950 . S
H237 C245 0.951 . S
H238 C246 0.951 . S
C239 C233 1.265 . S
C239 H234 0.950 . S
C239 C240 1.478 . S
C240 C239 1.478 . S
C240 C241 1.397 . S
C240 C257 1.394 . S
C241 C240 1.397 . S
C241 C242 1.438 . S
C241 C246 1.429 . S
C242 C241 1.438 . S
C242 C243 1.428 . S
C242 C255 1.394 . S
C243 H235 0.949 . S
C243 C242 1.428 . S
C243 C244 1.345 . S
C244 H236 0.950 . S
C244 C243 1.345 . S
C244 C245 1.424 . S
C245 H237 0.951 . S
C245 C244 1.424 . S
C245 C246 1.347 . S
C246 H238 0.951 . S
C246 C241 1.429 . S
C246 C245 1.347 . S
H247 C248 0.951 . S
C248 H247 0.951 . S
C248 C254 1.265 . S
H249 C254 0.950 . S
H250 C258 0.949 . S
H251 C259 0.950 . S
H252 C260 0.951 . S
H253 C261 0.951 . S
C254 C248 1.265 . S
C254 H249 0.950 . S
C254 C255 1.478 . S
C255 C242 1.394 . S
C255 C254 1.478 . S
C255 C256 1.397 . S
C256 C255 1.397 . S
C256 C257 1.438 . S
C256 C261 1.429 . S
C257 C240 1.394 . S
C257 C256 1.438 . S
C257 C258 1.428 . S
C258 H250 0.949 . S
C258 C257 1.428 . S
C258 C259 1.345 . S
C259 H251 0.950 . S
C259 C258 1.345 . S
C259 C260 1.424 . S
C260 H252 0.951 . S
C260 C259 1.424 . S
C260 C261 1.347 . S
C261 H253 0.951 . S
C261 C256 1.429 . S
C261 C260 1.347 . S
H262 C263 0.951 . S
C263 H262 0.951 . S
C263 C269 1.265 . S
H264 C269 0.950 . S
H265 C273 0.949 . S
H266 C274 0.950 . S
H267 C275 0.951 . S
H268 C276 0.951 . S
C269 C263 1.265 . S
C269 H264 0.950 . S
C269 C270 1.478 . S
C270 C269 1.478 . S
C270 C271 1.397 . S
C270 C287 1.394 . S
C271 C270 1.397 . S
C271 C272 1.438 . S
C271 C276 1.429 . S
C272 C271 1.438 . S
C272 C273 1.428 . S
C272 C285 1.394 . S
C273 H265 0.949 . S
C273 C272 1.428 . S
C273 C274 1.345 . S
C274 H266 0.950 . S
C274 C273 1.345 . S
C274 C275 1.424 . S
C275 H267 0.951 . S
C275 C274 1.424 . S
C275 C276 1.347 . S
C276 H268 0.951 . S
C276 C271 1.429 . S
C276 C275 1.347 . S
H277 C278 0.951 . S
C278 H277 0.951 . S
C278 C284 1.265 . S
H279 C284 0.950 . S
H280 C288 0.949 . S
H281 C289 0.950 . S
H282 C290 0.951 . S
H283 C291 0.951 . S
C284 C278 1.265 . S
C284 H279 0.950 . S
C284 C285 1.478 . S
C285 C272 1.394 . S
C285 C284 1.478 . S
C285 C286 1.397 . S
C286 C285 1.397 . S
C286 C287 1.438 . S
C286 C291 1.429 . S
C287 C270 1.394 . S
C287 C286 1.438 . S
C287 C288 1.428 . S
C288 H280 0.949 . S
C288 C287 1.428 . S
C288 C289 1.345 . S
C289 H281 0.950 . S
C289 C288 1.345 . S
C289 C290 1.424 . S
C290 H282 0.951 . S
C290 C289 1.424 . S
C290 C291 1.347 . S
C291 H283 0.951 . S
C291 C286 1.429 . S
C291 C290 1.347 . S
H292 C293 0.951 . S
C293 H292 0.951 . S
C293 C299 1.265 . S
H294 C299 0.950 . S
H295 C303 0.949 . S
H296 C304 0.950 . S
H297 C305 0.951 . S
H298 C306 0.951 1_554 S
C299 C293 1.265 . S
C299 H294 0.950 . S
C299 C300 1.478 . S
C300 C299 1.478 . S
C300 C301 1.397 1_554 S
C300 C317 1.394 . S
C301 C300 1.397 1_556 S
C301 C302 1.438 . S
C301 C306 1.429 . S
C302 C301 1.438 . S
C302 C303 1.428 . S
C302 C315 1.394 . S
C303 H295 0.949 . S
C303 C302 1.428 . S
C303 C304 1.345 . S
C304 H296 0.950 . S
C304 C303 1.345 . S
C304 C305 1.424 . S
C305 H297 0.951 . S
C305 C304 1.424 . S
C305 C306 1.347 . S
C306 H298 0.951 1_556 S
C306 C301 1.429 . S
C306 C305 1.347 . S
H307 C308 0.951 . S
C308 H307 0.951 . S
C308 C314 1.265 . S
H309 C314 0.950 . S
H310 C318 0.949 . S
H311 C319 0.950 . S
H312 C320 0.951 . S
H313 C321 0.951 1_556 S
C314 C308 1.265 . S
C314 H309 0.950 . S
C314 C315 1.478 . S
C315 C302 1.394 . S
C315 C314 1.478 . S
C315 C316 1.397 1_556 S
C316 C315 1.397 1_554 S
C316 C317 1.438 . S
C316 C321 1.429 . S
C317 C300 1.394 . S
C317 C316 1.438 . S
C317 C318 1.428 . S
C318 H310 0.949 . S
C318 C317 1.428 . S
C318 C319 1.345 . S
C319 H311 0.950 . S
C319 C318 1.345 . S
C319 C320 1.424 . S
C320 H312 0.951 . S
C320 C319 1.424 . S
C320 C321 1.347 . S
C321 H313 0.951 1_554 S
C321 C316 1.429 . S
C321 C320 1.347 . S
H322 C323 0.951 . S
C323 H322 0.951 . S
C323 C329 1.265 . S
H324 C329 0.950 . S
H325 C333 0.949 . S
H326 C334 0.950 . S
H327 C335 0.951 . S
H328 C336 0.951 . S
C329 C323 1.265 . S
C329 H324 0.950 . S
C329 C330 1.478 . S
C330 C329 1.478 . S
C330 C331 1.397 . S
C330 C347 1.394 . S
C331 C330 1.397 . S
C331 C332 1.438 . S
C331 C336 1.429 . S
C332 C331 1.438 . S
C332 C333 1.428 . S
C332 C345 1.394 . S
C333 H325 0.949 . S
C333 C332 1.428 . S
C333 C334 1.345 . S
C334 H326 0.950 . S
C334 C333 1.345 . S
C334 C335 1.424 . S
C335 H327 0.951 . S
C335 C334 1.424 . S
C335 C336 1.347 . S
C336 H328 0.951 . S
C336 C331 1.429 . S
C336 C335 1.347 . S
H337 C338 0.951 . S
C338 H337 0.951 . S
C338 C344 1.265 . S
H339 C344 0.950 . S
H340 C348 0.949 . S
H341 C349 0.950 . S
H342 C350 0.951 . S
H343 C351 0.951 . S
C344 C338 1.265 . S
C344 H339 0.950 . S
C344 C345 1.478 . S
C345 C332 1.394 . S
C345 C344 1.478 . S
C345 C346 1.397 . S
C346 C345 1.397 . S
C346 C347 1.438 . S
C346 C351 1.429 . S
C347 C330 1.394 . S
C347 C346 1.438 . S
C347 C348 1.428 . S
C348 H340 0.949 . S
C348 C347 1.428 . S
C348 C349 1.345 . S
C349 H341 0.950 . S
C349 C348 1.345 . S
C349 C350 1.424 . S
C350 H342 0.951 . S
C350 C349 1.424 . S
C350 C351 1.347 . S
C351 H343 0.951 . S
C351 C346 1.429 . S
C351 C350 1.347 . S
H352 C353 0.951 . S
C353 H352 0.951 . S
C353 C359 1.265 . S
H354 C359 0.950 . S
H355 C363 0.949 . S
H356 C364 0.950 . S
H357 C365 0.951 . S
H358 C366 0.951 . S
C359 C353 1.265 . S
C359 H354 0.950 . S
C359 C360 1.478 . S
C360 C359 1.478 . S
C360 C361 1.397 . S
C360 C377 1.394 . S
C361 C360 1.397 . S
C361 C362 1.438 . S
C361 C366 1.429 . S
C362 C361 1.438 . S
C362 C363 1.428 . S
C362 C375 1.394 . S
C363 H355 0.949 . S
C363 C362 1.428 . S
C363 C364 1.345 . S
C364 H356 0.950 . S
C364 C363 1.345 . S
C364 C365 1.424 . S
C365 H357 0.951 . S
C365 C364 1.424 . S
C365 C366 1.347 . S
C366 H358 0.951 . S
C366 C361 1.429 . S
C366 C365 1.347 . S
H367 C368 0.951 . S
C368 H367 0.951 . S
C368 C374 1.265 . S
H369 C374 0.950 . S
H370 C378 0.949 . S
H371 C379 0.950 . S
H372 C380 0.951 . S
H373 C381 0.951 . S
C374 C368 1.265 . S
C374 H369 0.950 . S
C374 C375 1.478 . S
C375 C362 1.394 . S
C375 C374 1.478 . S
C375 C376 1.397 . S
C376 C375 1.397 . S
C376 C377 1.438 . S
C376 C381 1.429 . S
C377 C360 1.394 . S
C377 C376 1.438 . S
C377 C378 1.428 . S
C378 H370 0.949 . S
C378 C377 1.428 . S
C378 C379 1.345 . S
C379 H371 0.950 . S
C379 C378 1.345 . S
C379 C380 1.424 . S
C380 H372 0.951 . S
C380 C379 1.424 . S
C380 C381 1.347 . S
C381 H373 0.951 . S
C381 C376 1.429 . S
C381 C380 1.347 . S
H382 C383 0.951 . S
C383 H382 0.951 . S
C383 C389 1.265 . S
H384 C389 0.950 . S
H385 C393 0.949 . S
H386 C394 0.950 . S
H387 C395 0.951 . S
H388 C396 0.951 . S
C389 C383 1.265 . S
C389 H384 0.950 . S
C389 C390 1.478 . S
C390 C389 1.478 . S
C390 C391 1.397 . S
C390 C407 1.394 . S
C391 C390 1.397 . S
C391 C392 1.438 . S
C391 C396 1.429 . S
C392 C391 1.438 . S
C392 C393 1.428 . S
C392 C405 1.394 . S
C393 H385 0.949 . S
C393 C392 1.428 . S
C393 C394 1.345 . S
C394 H386 0.950 . S
C394 C393 1.345 . S
C394 C395 1.424 . S
C395 H387 0.951 . S
C395 C394 1.424 . S
C395 C396 1.347 . S
C396 H388 0.951 . S
C396 C391 1.429 . S
C396 C395 1.347 . S
H397 C398 0.951 . S
C398 H397 0.951 . S
C398 C404 1.265 . S
H399 C404 0.950 . S
H400 C408 0.949 . S
H401 C409 0.950 1_545 S
H402 C410 0.951 . S
H403 C411 0.951 . S
C404 C398 1.265 . S
C404 H399 0.950 . S
C404 C405 1.478 . S
C405 C392 1.394 . S
C405 C404 1.478 . S
C405 C406 1.397 . S
C406 C405 1.397 . S
C406 C407 1.438 . S
C406 C411 1.429 . S
C407 C390 1.394 . S
C407 C406 1.438 . S
C407 C408 1.428 . S
C408 H400 0.949 . S
C408 C407 1.428 . S
C408 C409 1.345 . S
C409 H401 0.950 1_565 S
C409 C408 1.345 . S
C409 C410 1.424 . S
C410 H402 0.951 . S
C410 C409 1.424 . S
C410 C411 1.347 . S
C411 H403 0.951 . S
C411 C406 1.429 . S
C411 C410 1.347 . S
H412 C413 0.951 . S
C413 H412 0.951 . S
C413 C419 1.265 . S
H414 C419 0.950 . S
H415 C423 0.949 . S
H416 C424 0.950 . S
H417 C425 0.951 . S
H418 C426 0.951 . S
C419 C413 1.265 . S
C419 H414 0.950 . S
C419 C420 1.478 . S
C420 C419 1.478 . S
C420 C421 1.397 . S
C420 C437 1.394 1_554 S
C421 C420 1.397 . S
C421 C422 1.438 . S
C421 C426 1.429 . S
C422 C421 1.438 . S
C422 C423 1.428 . S
C422 C435 1.394 1_554 S
C423 H415 0.949 . S
C423 C422 1.428 . S
C423 C424 1.345 . S
C424 H416 0.950 . S
C424 C423 1.345 . S
C424 C425 1.424 . S
C425 H417 0.951 . S
C425 C424 1.424 . S
C425 C426 1.347 . S
C426 H418 0.951 . S
C426 C421 1.429 . S
C426 C425 1.347 . S
H427 C428 0.951 . S
C428 H427 0.951 . S
C428 C434 1.265 . S
H429 C434 0.950 . S
H430 C438 0.949 . S
H431 C439 0.950 . S
H432 C440 0.951 . S
H433 C441 0.951 . S
C434 C428 1.265 . S
C434 H429 0.950 . S
C434 C435 1.478 . S
C435 C422 1.394 1_556 S
C435 C434 1.478 . S
C435 C436 1.397 . S
C436 C435 1.397 . S
C436 C437 1.438 . S
C436 C441 1.429 . S
C437 C420 1.394 1_556 S
C437 C436 1.438 . S
C437 C438 1.428 . S
C438 H430 0.949 . S
C438 C437 1.428 . S
C438 C439 1.345 . S
C439 H431 0.950 . S
C439 C438 1.345 . S
C439 C440 1.424 . S
C440 H432 0.951 . S
C440 C439 1.424 . S
C440 C441 1.347 . S
C441 H433 0.951 . S
C441 C436 1.429 . S
C441 C440 1.347 . S
H442 C443 0.951 . S
C443 H442 0.951 . S
C443 C449 1.265 . S
H444 C449 0.950 . S
H445 C453 0.949 . S
H446 C454 0.950 . S
H447 C455 0.951 1_556 S
H448 C456 0.951 . S
C449 C443 1.265 . S
C449 H444 0.950 . S
C449 C450 1.478 . S
C450 C449 1.478 . S
C450 C451 1.397 . S
C450 C467 1.394 . S
C451 C450 1.397 . S
C451 C452 1.438 . S
C451 C456 1.429 . S
C452 C451 1.438 . S
C452 C453 1.428 . S
C452 C465 1.394 . S
C453 H445 0.949 . S
C453 C452 1.428 . S
C453 C454 1.345 . S
C454 H446 0.950 . S
C454 C453 1.345 . S
C454 C455 1.424 . S
C455 H447 0.951 1_554 S
C455 C454 1.424 . S
C455 C456 1.347 . S
C456 H448 0.951 . S
C456 C451 1.429 . S
C456 C455 1.347 . S
H457 C458 0.951 . S
C458 H457 0.951 . S
C458 C464 1.265 . S
H459 C464 0.950 . S
H460 C468 0.949 . S
H461 C469 0.950 . S
H462 C470 0.951 . S
H463 C471 0.951 . S
C464 C458 1.265 . S
C464 H459 0.950 . S
C464 C465 1.478 . S
C465 C452 1.394 . S
C465 C464 1.478 . S
C465 C466 1.397 . S
C466 C465 1.397 . S
C466 C467 1.438 . S
C466 C471 1.429 . S
C467 C450 1.394 . S
C467 C466 1.438 . S
C467 C468 1.428 . S
C468 H460 0.949 . S
C468 C467 1.428 . S
C468 C469 1.345 . S
C469 H461 0.950 . S
C469 C468 1.345 . S
C469 C470 1.424 . S
C470 H462 0.951 . S
C470 C469 1.424 . S
C470 C471 1.347 . S
C471 H463 0.951 . S
C471 C466 1.429 . S
C471 C470 1.347 . S
H472 C473 0.951 . S
C473 H472 0.951 . S
C473 C479 1.265 . S
H474 C479 0.950 . S
H475 C483 0.949 . S
H476 C484 0.950 . S
H477 C485 0.951 1_554 S
H478 C486 0.951 . S
C479 C473 1.265 . S
C479 H474 0.950 . S
C479 C480 1.478 . S
C480 C479 1.478 . S
C480 C481 1.397 . S
C480 C497 1.394 . S
C481 C480 1.397 . S
C481 C482 1.438 . S
C481 C486 1.429 . S
C482 C481 1.438 . S
C482 C483 1.428 . S
C482 C495 1.394 . S
C483 H475 0.949 . S
C483 C482 1.428 . S
C483 C484 1.345 . S
C484 H476 0.950 . S
C484 C483 1.345 . S
C484 C485 1.424 . S
C485 H477 0.951 1_556 S
C485 C484 1.424 . S
C485 C486 1.347 . S
C486 H478 0.951 . S
C486 C481 1.429 . S
C486 C485 1.347 . S
H487 C488 0.951 . S
C488 H487 0.951 . S
C488 C494 1.265 . S
H489 C494 0.950 . S
H490 C498 0.949 . S
H491 C499 0.950 . S
H492 C500 0.951 . S
H493 C501 0.951 . S
C494 C488 1.265 . S
C494 H489 0.950 . S
C494 C495 1.478 . S
C495 C482 1.394 . S
C495 C494 1.478 . S
C495 C496 1.397 . S
C496 C495 1.397 . S
C496 C497 1.438 . S
C496 C501 1.429 . S
C497 C480 1.394 . S
C497 C496 1.438 . S
C497 C498 1.428 . S
C498 H490 0.949 . S
C498 C497 1.428 . S
C498 C499 1.345 . S
C499 H491 0.950 . S
C499 C498 1.345 . S
C499 C500 1.424 . S
C500 H492 0.951 . S
C500 C499 1.424 . S
C500 C501 1.347 . S
C501 H493 0.951 . S
C501 C496 1.429 . S
C501 C500 1.347 . S
H502 C503 0.951 . S
C503 H502 0.951 . S
C503 C509 1.265 . S
H504 C509 0.950 . S
H505 C513 0.949 . S
H506 C514 0.950 . S
H507 C515 0.951 . S
H508 C516 0.951 . S
C509 C503 1.265 . S
C509 H504 0.950 . S
C509 C510 1.478 . S
C510 C509 1.478 . S
C510 C511 1.397 . S
C510 C527 1.394 1_556 S
C511 C510 1.397 . S
C511 C512 1.438 . S
C511 C516 1.429 . S
C512 C511 1.438 . S
C512 C513 1.428 . S
C512 C525 1.394 1_556 S
C513 H505 0.949 . S
C513 C512 1.428 . S
C513 C514 1.345 . S
C514 H506 0.950 . S
C514 C513 1.345 . S
C514 C515 1.424 . S
C515 H507 0.951 . S
C515 C514 1.424 . S
C515 C516 1.347 . S
C516 H508 0.951 . S
C516 C511 1.429 . S
C516 C515 1.347 . S
H517 C518 0.951 . S
C518 H517 0.951 . S
C518 C524 1.265 . S
H519 C524 0.950 . S
H520 C528 0.949 . S
H521 C529 0.950 . S
H522 C530 0.951 . S
H523 C531 0.951 . S
C524 C518 1.265 . S
C524 H519 0.950 . S
C524 C525 1.478 . S
C525 C512 1.394 1_554 S
C525 C524 1.478 . S
C525 C526 1.397 . S
C526 C525 1.397 . S
C526 C527 1.438 . S
C526 C531 1.429 . S
C527 C510 1.394 1_554 S
C527 C526 1.438 . S
C527 C528 1.428 . S
C528 H520 0.949 . S
C528 C527 1.428 . S
C528 C529 1.345 . S
C529 H521 0.950 . S
C529 C528 1.345 . S
C529 C530 1.424 . S
C530 H522 0.951 . S
C530 C529 1.424 . S
C530 C531 1.347 . S
C531 H523 0.951 . S
C531 C526 1.429 . S
C531 C530 1.347 . S
H532 C533 0.951 . S
C533 H532 0.951 . S
C533 C539 1.265 . S
H534 C539 0.950 . S
H535 C543 0.949 . S
H536 C544 0.950 . S
H537 C545 0.951 . S
H538 C546 0.951 . S
C539 C533 1.265 . S
C539 H534 0.950 . S
C539 C540 1.478 . S
C540 C539 1.478 . S
C540 C541 1.397 . S
C540 C557 1.394 . S
C541 C540 1.397 . S
C541 C542 1.438 . S
C541 C546 1.429 . S
C542 C541 1.438 . S
C542 C543 1.428 . S
C542 C555 1.394 . S
C543 H535 0.949 . S
C543 C542 1.428 . S
C543 C544 1.345 . S
C544 H536 0.950 . S
C544 C543 1.345 . S
C544 C545 1.424 . S
C545 H537 0.951 . S
C545 C544 1.424 . S
C545 C546 1.347 . S
C546 H538 0.951 . S
C546 C541 1.429 . S
C546 C545 1.347 . S
H547 C548 0.951 . S
C548 H547 0.951 . S
C548 C554 1.265 . S
H549 C554 0.950 . S
H550 C558 0.949 . S
H551 C559 0.950 . S
H552 C560 0.951 . S
H553 C561 0.951 . S
C554 C548 1.265 . S
C554 H549 0.950 . S
C554 C555 1.478 . S
C555 C542 1.394 . S
C555 C554 1.478 . S
C555 C556 1.397 . S
C556 C555 1.397 . S
C556 C557 1.438 . S
C556 C561 1.429 . S
C557 C540 1.394 . S
C557 C556 1.438 . S
C557 C558 1.428 . S
C558 H550 0.949 . S
C558 C557 1.428 . S
C558 C559 1.345 . S
C559 H551 0.950 . S
C559 C558 1.345 . S
C559 C560 1.424 . S
C560 H552 0.951 . S
C560 C559 1.424 . S
C560 C561 1.347 . S
C561 H553 0.951 . S
C561 C556 1.429 . S
C561 C560 1.347 . S
H562 C563 0.951 . S
C563 H562 0.951 . S
C563 C569 1.265 . S
H564 C569 0.950 . S
H565 C573 0.949 . S
H566 C574 0.950 . S
H567 C575 0.951 . S
H568 C576 0.951 . S
C569 C563 1.265 . S
C569 H564 0.950 . S
C569 C570 1.478 . S
C570 C569 1.478 . S
C570 C571 1.397 . S
C570 C587 1.394 . S
C571 C570 1.397 . S
C571 C572 1.438 . S
C571 C576 1.429 . S
C572 C571 1.438 . S
C572 C573 1.428 . S
C572 C585 1.394 . S
C573 H565 0.949 . S
C573 C572 1.428 . S
C573 C574 1.345 . S
C574 H566 0.950 . S
C574 C573 1.345 . S
C574 C575 1.424 . S
C575 H567 0.951 . S
C575 C574 1.424 . S
C575 C576 1.347 . S
C576 H568 0.951 . S
C576 C571 1.429 . S
C576 C575 1.347 . S
H577 C578 0.951 . S
C578 H577 0.951 . S
C578 C584 1.265 . S
H579 C584 0.950 . S
H580 C588 0.949 . S
H581 C589 0.950 . S
H582 C590 0.951 . S
H583 C591 0.951 . S
C584 C578 1.265 . S
C584 H579 0.950 . S
C584 C585 1.478 . S
C585 C572 1.394 . S
C585 C584 1.478 . S
C585 C586 1.397 . S
C586 C585 1.397 . S
C586 C587 1.438 . S
C586 C591 1.429 . S
C587 C570 1.394 . S
C587 C586 1.438 . S
C587 C588 1.428 . S
C588 H580 0.949 . S
C588 C587 1.428 . S
C588 C589 1.345 . S
C589 H581 0.950 . S
C589 C588 1.345 . S
C589 C590 1.424 . S
C590 H582 0.951 . S
C590 C589 1.424 . S
C590 C591 1.347 . S
C591 H583 0.951 . S
C591 C586 1.429 . S
C591 C590 1.347 . S
C113 C25 1.315 . S
C128 C11 1.333 . S
C143 C19 1.316 . S
C158 C33 1.146 . S
C173 C53 1.385 . S
C188 C39 1.356 . S
C203 C47 1.198 . S
C218 C5 1.312 . S
C233 C67 1.386 . S
C248 C81 1.354 . S
C263 C75 1.218 . S
C278 C89 1.302 . S
C293 C95 1.385 . S
C308 C109 1.309 . S
C323 C61 1.136 . S
C338 C103 1.253 . S
C353 C12 1.471 . S
C368 C110 1.463 . S
C383 C60 1.446 . S
C398 C18 1.395 . S
C413 C82 1.469 . S
C428 C40 1.461 . S
C443 C46 1.432 . S
C458 C88 1.358 . S
C473 C32 1.447 . S
C488 C102 1.361 . S
C503 C68 1.470 . S
C518 C54 1.462 . S
C533 C74 1.450 . S
C548 C4 1.365 . S
C563 C26 1.472 . S
C578 C96 1.464 . S
