# Generated by pormake.
# Topology uop, (4)-cn, num edge types: 1
# Building blocks:
#     Node 0, Type 0, BuildingBlock: QUQFOY_clean_sbu_1, # of connection points: 4
#     Node 1, Type 0, BuildingBlock: QUQFOY_clean_sbu_1, # of connection points: 4
#     Node 2, Type 0, BuildingBlock: QUQFOY_clean_sbu_1, # of connection points: 4
#     Node 3, Type 0, BuildingBlock: QUQFOY_clean_sbu_1, # of connection points: 4
#     Node 4, Type 0, BuildingBlock: QUQFOY_clean_sbu_1, # of connection points: 4
#     Node 5, Type 0, BuildingBlock: QUQFOY_clean_sbu_1, # of connection points: 4
#     Node 6, Type 0, BuildingBlock: QUQFOY_clean_sbu_1, # of connection points: 4
#     Node 7, Type 0, BuildingBlock: QUQFOY_clean_sbu_1, # of connection points: 4
#     Node 8, Type 0, BuildingBlock: QUQFOY_clean_sbu_1, # of connection points: 4
#     Node 9, Type 0, BuildingBlock: QUQFOY_clean_sbu_1, # of connection points: 4
#     Node 10, Type 0, BuildingBlock: QUQFOY_clean_sbu_1, # of connection points: 4
#     Node 11, Type 0, BuildingBlock: QUQFOY_clean_sbu_1, # of connection points: 4
#     Edge 12, Type (0, 0), BuildingBlock: EZIPEK_clean_linker_0, # of connection points: 2
#     Edge 13, Type (0, 0), BuildingBlock: EZIPEK_clean_linker_0, # of connection points: 2
#     Edge 14, Type (0, 0), BuildingBlock: EZIPEK_clean_linker_0, # of connection points: 2
#     Edge 15, Type (0, 0), BuildingBlock: EZIPEK_clean_linker_0, # of connection points: 2
#     Edge 16, Type (0, 0), BuildingBlock: EZIPEK_clean_linker_0, # of connection points: 2
#     Edge 17, Type (0, 0), BuildingBlock: EZIPEK_clean_linker_0, # of connection points: 2
#     Edge 18, Type (0, 0), BuildingBlock: EZIPEK_clean_linker_0, # of connection points: 2
#     Edge 19, Type (0, 0), BuildingBlock: EZIPEK_clean_linker_0, # of connection points: 2
#     Edge 20, Type (0, 0), BuildingBlock: EZIPEK_clean_linker_0, # of connection points: 2
#     Edge 21, Type (0, 0), BuildingBlock: EZIPEK_clean_linker_0, # of connection points: 2
#     Edge 22, Type (0, 0), BuildingBlock: EZIPEK_clean_linker_0, # of connection points: 2
#     Edge 23, Type (0, 0), BuildingBlock: EZIPEK_clean_linker_0, # of connection points: 2
#     Edge 24, Type (0, 0), BuildingBlock: EZIPEK_clean_linker_0, # of connection points: 2
#     Edge 25, Type (0, 0), BuildingBlock: EZIPEK_clean_linker_0, # of connection points: 2
#     Edge 26, Type (0, 0), BuildingBlock: EZIPEK_clean_linker_0, # of connection points: 2
#     Edge 27, Type (0, 0), BuildingBlock: EZIPEK_clean_linker_0, # of connection points: 2
#     Edge 28, Type (0, 0), BuildingBlock: EZIPEK_clean_linker_0, # of connection points: 2
#     Edge 29, Type (0, 0), BuildingBlock: EZIPEK_clean_linker_0, # of connection points: 2
#     Edge 30, Type (0, 0), BuildingBlock: EZIPEK_clean_linker_0, # of connection points: 2
#     Edge 31, Type (0, 0), BuildingBlock: EZIPEK_clean_linker_0, # of connection points: 2
#     Edge 32, Type (0, 0), BuildingBlock: EZIPEK_clean_linker_0, # of connection points: 2
#     Edge 33, Type (0, 0), BuildingBlock: EZIPEK_clean_linker_0, # of connection points: 2
#     Edge 34, Type (0, 0), BuildingBlock: EZIPEK_clean_linker_0, # of connection points: 2
#     Edge 35, Type (0, 0), BuildingBlock: EZIPEK_clean_linker_0, # of connection points: 2
# Relax obj value: 0.099
# Max RMSD: 0.119
# Mean RMSD: 0.119
data_MOF--net-uop--node1-QUQFOY_clean_sbu_1--edge1-EZIPEK_clean_linker_0
_symmetry_space_group_name_H-M    P1
_symmetry_Int_Tables_number       1
_symmetry_cell_setting            triclinic
loop_
_symmetry_equiv_pos_as_xyz
'x, y, z'
_cell_length_a     24.284474
_cell_length_b     24.236315
_cell_length_c     37.899837
_cell_angle_alpha  90.071421
_cell_angle_beta   89.845124
_cell_angle_gamma 119.70883
loop_
_atom_site_label
_atom_site_type_symbol
_atom_site_fract_x
_atom_site_fract_y
_atom_site_fract_z
_atom_type_partial_charge
O0 O 0.22816 0.46958 0.23326 0.0
Cd1 Cd 0.22669 0.38497 0.24242 0.0
Cd2 Cd 0.27834 0.44291 0.30022 0.0
O3 O 0.23248 0.49452 0.28964 0.0
O4 O 0.14915 0.31349 0.22114 0.0
O5 O 0.16478 0.33027 0.27894 0.0
C6 C 0.12758 0.2994 0.25305 0.0
C7 C 0.29641 0.39884 0.35152 0.0
C8 C 0.22563 0.50484 0.25732 0.0
C9 C 0.36075 0.43691 0.24585 0.0
O10 O 0.35532 0.47255 0.2684 0.0
O11 O 0.312 0.38712 0.23486 0.0
O12 O 0.31378 0.4585 0.34964 0.0
O13 O 0.26098 0.36284 0.32637 0.0
O14 O 0.77391 0.2377 0.57457 0.0
Cd15 Cd 0.85873 0.23903 0.58112 0.0
Cd16 Cd 0.83891 0.25937 0.64365 0.0
O17 O 0.74324 0.21125 0.62987 0.0
O18 O 0.86587 0.18465 0.54421 0.0
O19 O 0.84453 0.15711 0.60071 0.0
C20 C 0.84719 0.14141 0.5684 0.0
C21 C 0.90113 0.25433 0.68932 0.0
C22 C 0.73073 0.21829 0.598 0.0
C23 C 0.92803 0.36817 0.60199 0.0
O24 O 0.88207 0.34865 0.62341 0.0
O25 O 0.93773 0.32845 0.58505 0.0
O26 O 0.86109 0.27389 0.69512 0.0
O27 O 0.89932 0.22926 0.65891 0.0
O28 O 0.52109 0.73636 0.91613 0.0
Cd29 Cd 0.60222 0.82373 0.91806 0.0
Cd30 Cd 0.55534 0.82055 0.98342 0.0
O31 O 0.49515 0.7241 0.97283 0.0
O32 O 0.67006 0.81738 0.8916 0.0
O33 O 0.67196 0.83315 0.94932 0.0
C34 C 0.6966 0.82217 0.92185 0.0
C35 C 0.60795 0.87308 1.03588 0.0
C36 C 0.48619 0.70243 0.94134 0.0
C37 C 0.55356 0.90988 0.92718 0.0
O38 O 0.53249 0.87874 0.95564 0.0
O39 O 0.59134 0.90152 0.90755 0.0
O40 O 0.54707 0.84589 1.03313 0.0
O41 O 0.63807 0.86314 1.01083 0.0
O42 O 0.76326 0.52239 0.23619 0.0
Cd43 Cd 0.75849 0.60446 0.24438 0.0
Cd44 Cd 0.72465 0.55141 0.30296 0.0
O45 O 0.77732 0.50741 0.29217 0.0
O46 O 0.81912 0.67099 0.21154 0.0
O47 O 0.83467 0.67067 0.26938 0.0
C48 C 0.85641 0.69383 0.23846 0.0
C49 C 0.71185 0.60809 0.34966 0.0
C50 C 0.77589 0.49273 0.25966 0.0
C51 C 0.62626 0.53761 0.25549 0.0
O52 O 0.64439 0.50637 0.27403 0.0
O53 O 0.66729 0.59258 0.24468 0.0
O54 O 0.69411 0.54842 0.35286 0.0
O55 O 0.74387 0.63724 0.32177 0.0
O56 O 0.22939 0.76965 0.56779 0.0
Cd57 Cd 0.14528 0.76851 0.57618 0.0
Cd58 Cd 0.17024 0.75015 0.63838 0.0
O59 O 0.26506 0.79887 0.62208 0.0
O60 O 0.1385 0.82543 0.54075 0.0
O61 O 0.15995 0.84912 0.59767 0.0
C62 C 0.15683 0.86683 0.56597 0.0
C63 C 0.10837 0.75399 0.68499 0.0
C64 C 0.27467 0.79017 0.58985 0.0
C65 C 0.07832 0.64019 0.59853 0.0
O66 O 0.1264 0.66074 0.61833 0.0
O67 O 0.06681 0.67906 0.58206 0.0
O68 O 0.149 0.73497 0.69015 0.0
O69 O 0.11001 0.77979 0.65491 0.0
O70 O 0.47628 0.24473 0.90327 0.0
Cd71 Cd 0.3975 0.15838 0.91556 0.0
Cd72 Cd 0.46019 0.1835 0.973 0.0
O73 O 0.50157 0.27832 0.9582 0.0
O74 O 0.32289 0.15078 0.88863 0.0
O75 O 0.33727 0.16971 0.94617 0.0
C76 C 0.30581 0.1654 0.91794 0.0
C77 C 0.40631 0.12322 1.02306 0.0
C78 C 0.50916 0.28906 0.92505 0.0
C79 C 0.4648 0.0898 0.92797 0.0
O80 O 0.4997 0.14037 0.94487 0.0
O81 O 0.41052 0.07899 0.91741 0.0
O82 O 0.46641 0.16363 1.02419 0.0
O83 O 0.37576 0.12259 0.99512 0.0
O84 O 0.52893 0.77933 0.56284 0.0
Cd85 Cd 0.60977 0.77209 0.55544 0.0
Cd86 Cd 0.55342 0.73247 0.49769 0.0
O87 O 0.51527 0.79149 0.50649 0.0
O88 O 0.67951 0.84154 0.58313 0.0
O89 O 0.67439 0.83938 0.52453 0.0
C90 C 0.70038 0.87009 0.55319 0.0
C91 C 0.60702 0.71464 0.45077 0.0
C92 C 0.5016 0.79364 0.53887 0.0
C93 C 0.5414 0.63842 0.54825 0.0
O94 O 0.50879 0.65533 0.52996 0.0
O95 O 0.59675 0.68041 0.55789 0.0
O96 O 0.54764 0.69795 0.44825 0.0
O97 O 0.63736 0.74731 0.47811 0.0
O98 O 0.76351 0.54427 0.89991 0.0
Cd99 Cd 0.85277 0.62291 0.89806 0.0
Cd100 Cd 0.83964 0.58636 0.83424 0.0
O101 O 0.74224 0.54052 0.84308 0.0
O102 O 0.85686 0.67987 0.93695 0.0
O103 O 0.85778 0.70306 0.88064 0.0
C104 C 0.8563 0.71787 0.91328 0.0
C105 C 0.90696 0.65309 0.78963 0.0
C106 C 0.72437 0.52118 0.87459 0.0
C107 C 0.91811 0.55593 0.88071 0.0
O108 O 0.87736 0.53592 0.85622 0.0
O109 O 0.92653 0.60314 0.89936 0.0
O110 O 0.86696 0.59397 0.78352 0.0
O111 O 0.90307 0.6763 0.81966 0.0
O112 O 0.23081 0.76825 0.24174 0.0
Cd113 Cd 0.22987 0.85256 0.24181 0.0
Cd114 Cd 0.29533 0.86761 0.1834 0.0
O115 O 0.25681 0.76911 0.18573 0.0
O116 O 0.15135 0.83476 0.26757 0.0
O117 O 0.16631 0.85669 0.21021 0.0
C118 C 0.12895 0.83845 0.23735 0.0
C119 C 0.30948 0.93181 0.13386 0.0
C120 C 0.23865 0.74056 0.21534 0.0
C121 C 0.36295 0.93771 0.24973 0.0
O122 O 0.36495 0.91395 0.22022 0.0
O123 O 0.31048 0.92727 0.26293 0.0
O124 O 0.34051 0.90167 0.13715 0.0
O125 O 0.2664 0.92154 0.1571 0.0
O126 O 0.475 0.23305 0.57393 0.0
Cd127 Cd 0.39341 0.23692 0.56504 0.0
Cd128 Cd 0.45218 0.28623 0.50693 0.0
O129 O 0.50142 0.23781 0.51778 0.0
O130 O 0.32223 0.16449 0.59007 0.0
O131 O 0.33397 0.17127 0.53166 0.0
C132 C 0.30466 0.13854 0.55931 0.0
C133 C 0.40342 0.3001 0.45656 0.0
C134 C 0.50979 0.22901 0.5501 0.0
C135 C 0.44928 0.37259 0.55962 0.0
O136 O 0.48421 0.36567 0.53722 0.0
O137 O 0.39948 0.32451 0.57129 0.0
O138 O 0.46313 0.3177 0.45675 0.0
O139 O 0.36989 0.26666 0.48303 0.0
O140 O 0.21634 0.45164 0.91506 0.0
Cd141 Cd 0.13319 0.36774 0.90695 0.0
Cd142 Cd 0.15574 0.41171 0.84474 0.0
O143 O 0.25076 0.45969 0.86022 0.0
O144 O 0.13053 0.30227 0.93998 0.0
O145 O 0.15011 0.30529 0.88244 0.0
C146 C 0.14882 0.28204 0.91324 0.0
C147 C 0.09576 0.34852 0.79704 0.0
C148 C 0.26086 0.47748 0.89248 0.0
C149 C 0.06263 0.4269 0.88607 0.0
O150 O 0.11035 0.45507 0.86598 0.0
O151 O 0.0526 0.37679 0.90232 0.0
O152 O 0.13528 0.4085 0.793 0.0
O153 O 0.09719 0.32286 0.8266 0.0
O154 O 0.76016 0.22534 0.2547 0.0
Cd155 Cd 0.75462 0.13847 0.2573 0.0
Cd156 Cd 0.7091 0.12851 0.19428 0.0
O157 O 0.75808 0.22786 0.19647 0.0
O158 O 0.82217 0.14789 0.29008 0.0
O159 O 0.82621 0.13825 0.23184 0.0
C160 C 0.85464 0.15233 0.26207 0.0
C161 C 0.70149 0.06154 0.14735 0.0
C162 C 0.76694 0.25567 0.22627 0.0
C163 C 0.61991 0.0628 0.25482 0.0
O164 O 0.62875 0.08911 0.2248 0.0
O165 O 0.66642 0.06693 0.27227 0.0
O166 O 0.67652 0.0976 0.14532 0.0
O167 O 0.73533 0.06698 0.17478 0.0
C168 C 0.28946 0.68108 0.2398 0.0
C169 C 0.23759 0.67966 0.22179 0.0
C170 C 0.17589 0.56378 0.22896 0.0
C171 C 0.22816 0.56508 0.24657 0.0
N172 N 0.33934 0.62267 0.26172 0.0
N173 N 0.13642 0.62045 0.19344 0.0
C174 C 0.28622 0.62316 0.25015 0.0
C175 C 0.18223 0.62109 0.21457 0.0
N176 N 0.34179 0.7382 0.24741 0.0
N177 N 0.11975 0.50798 0.22683 0.0
H178 H 0.14073 0.6617 0.18224 0.0
H179 H 0.09697 0.57921 0.18454 0.0
H180 H 0.11415 0.46522 0.23638 0.0
H181 H 0.07771 0.50442 0.21777 0.0
H182 H 0.37734 0.74331 0.26463 0.0
H183 H 0.34841 0.78135 0.23771 0.0
H184 H 0.38467 0.66211 0.26084 0.0
H185 H 0.33949 0.58157 0.26961 0.0
C186 C 0.62268 0.16525 0.57005 0.0
C187 C 0.67085 0.2174 0.58895 0.0
C188 C 0.61392 0.27681 0.5816 0.0
C189 C 0.56684 0.22573 0.56135 0.0
N190 N 0.52839 0.12411 0.53321 0.0
N191 N 0.7171 0.32534 0.60972 0.0
C192 C 0.57185 0.17067 0.55463 0.0
C193 C 0.66741 0.27363 0.59419 0.0
N194 N 0.62537 0.11033 0.56749 0.0
N195 N 0.60754 0.32879 0.5887 0.0
H196 H 0.75585 0.3243 0.62075 0.0
H197 H 0.72216 0.37054 0.61012 0.0
H198 H 0.57369 0.33704 0.57672 0.0
H199 H 0.63425 0.36302 0.60747 0.0
H200 H 0.58981 0.06832 0.55662 0.0
H201 H 0.66202 0.10542 0.57856 0.0
H202 H 0.53141 0.08487 0.52474 0.0
H203 H 0.49061 0.1266 0.52191 0.0
C204 C 0.37224 0.64635 0.92377 0.0
C205 C 0.42748 0.64287 0.9319 0.0
C206 C 0.37638 0.53288 0.90977 0.0
C207 C 0.3201 0.53546 0.90335 0.0
N208 N 0.26152 0.59182 0.90681 0.0
N209 N 0.48188 0.58301 0.93595 0.0
C210 C 0.31728 0.59142 0.91115 0.0
C211 C 0.42949 0.58608 0.92578 0.0
N212 N 0.3733 0.70321 0.92667 0.0
N213 N 0.37893 0.47975 0.90025 0.0
H214 H 0.52117 0.62132 0.94758 0.0
H215 H 0.48524 0.54189 0.93518 0.0
H216 H 0.34052 0.44002 0.88904 0.0
H217 H 0.41965 0.47585 0.90145 0.0
H218 H 0.33812 0.71148 0.91676 0.0
H219 H 0.41144 0.74399 0.93721 0.0
H220 H 0.25333 0.62722 0.91666 0.0
H221 H 0.22174 0.55499 0.89471 0.0
C222 C 0.83163 0.42882 0.25151 0.0
C223 C 0.77556 0.43325 0.24929 0.0
C224 C 0.71616 0.32318 0.22755 0.0
C225 C 0.77238 0.31917 0.22907 0.0
N226 N 0.88491 0.36852 0.23767 0.0
N227 N 0.66601 0.3877 0.23106 0.0
C228 C 0.83062 0.37227 0.23965 0.0
C229 C 0.71851 0.38149 0.23582 0.0
N230 N 0.88551 0.47855 0.26512 0.0
N231 N 0.65947 0.26989 0.22033 0.0
H232 H 0.66233 0.4262 0.24018 0.0
H233 H 0.62674 0.35599 0.21641 0.0
H234 H 0.65558 0.22673 0.21274 0.0
H235 H 0.61553 0.26679 0.22396 0.0
H236 H 0.92662 0.47695 0.27062 0.0
H237 H 0.88833 0.52135 0.27254 0.0
H238 H 0.93011 0.40628 0.24253 0.0
H239 H 0.88511 0.32794 0.22858 0.0
C240 C 0.44883 0.85157 0.56558 0.0
C241 C 0.44391 0.79669 0.54892 0.0
C242 C 0.33136 0.73658 0.56507 0.0
C243 C 0.3346 0.79291 0.57839 0.0
N244 N 0.39396 0.90632 0.58655 0.0
N245 N 0.37814 0.68927 0.52803 0.0
C246 C 0.39273 0.85118 0.5774 0.0
C247 C 0.38432 0.74008 0.54701 0.0
N248 N 0.50714 0.90352 0.57082 0.0
N249 N 0.27856 0.67898 0.57127 0.0
H250 H 0.4159 0.68874 0.51523 0.0
H251 H 0.33449 0.64958 0.52238 0.0
H252 H 0.23956 0.67394 0.58557 0.0
H253 H 0.27593 0.63569 0.56559 0.0
H254 H 0.51453 0.94244 0.58601 0.0
H255 H 0.54876 0.90566 0.56194 0.0
H256 H 0.43329 0.95114 0.58269 0.0
H257 H 0.35392 0.9075 0.59556 0.0
C258 C 0.61087 0.34616 0.89082 0.0
C259 C 0.56305 0.34932 0.91115 0.0
C260 C 0.61444 0.4645 0.90005 0.0
C261 C 0.66399 0.46169 0.88173 0.0
N262 N 0.7131 0.40193 0.86153 0.0
N263 N 0.52073 0.41113 0.93743 0.0
C264 C 0.66261 0.40288 0.8771 0.0
C265 C 0.56519 0.40848 0.9164 0.0
N266 N 0.60752 0.28877 0.88512 0.0
N267 N 0.61444 0.52089 0.90122 0.0
H268 H 0.48363 0.37107 0.94919 0.0
H269 H 0.52213 0.45304 0.94504 0.0
H270 H 0.6498 0.56208 0.88921 0.0
H271 H 0.57773 0.52634 0.91157 0.0
H272 H 0.63418 0.28127 0.86616 0.0
H273 H 0.57658 0.24739 0.89866 0.0
H274 H 0.72012 0.36294 0.86177 0.0
H275 H 0.75049 0.44154 0.84957 0.0
C276 C 0.53144 0.51458 0.21705 0.0
C277 C 0.55706 0.5097 0.24988 0.0
C278 C 0.45067 0.43163 0.26981 0.0
C279 C 0.42483 0.4469 0.24074 0.0
N280 N 0.43889 0.50506 0.18702 0.0
N281 N 0.53724 0.47439 0.31084 0.0
C282 C 0.4647 0.48879 0.21423 0.0
C283 C 0.5156 0.47068 0.27717 0.0
N284 N 0.56973 0.541 0.18834 0.0
N285 N 0.41216 0.38234 0.29149 0.0
H286 H 0.58106 0.51097 0.31925 0.0
H287 H 0.50928 0.44603 0.33146 0.0
H288 H 0.36375 0.35366 0.28661 0.0
H289 H 0.42921 0.36601 0.3118 0.0
H290 H 0.55217 0.54058 0.16323 0.0
H291 H 0.61829 0.55741 0.18867 0.0
H292 H 0.46598 0.54104 0.16908 0.0
H293 H 0.38993 0.48425 0.18365 0.0
C294 C 0.01663 0.53848 0.63038 0.0
C295 C 0.03511 0.571 0.59767 0.0
C296 C 0.98201 0.46926 0.56639 0.0
C297 C 0.97069 0.4373 0.59927 0.0
N298 N 0.99126 0.44252 0.6619 0.0
N299 N 0.04534 0.56743 0.53438 0.0
C300 C 0.99229 0.47228 0.63107 0.0
C301 C 0.0205 0.53655 0.56551 0.0
N302 N 0.02068 0.57062 0.66082 0.0
N303 N 0.954 0.43607 0.53634 0.0
H304 H 0.07397 0.61659 0.53259 0.0
H305 H 0.0418 0.54375 0.5108 0.0
H306 H 0.92502 0.38686 0.53584 0.0
H307 H 0.95523 0.45796 0.51248 0.0
H308 H 0.00177 0.548 0.68479 0.0
H309 H 0.03678 0.61922 0.66139 0.0
H310 H 0.01247 0.467 0.68507 0.0
H311 H 0.97531 0.39399 0.66345 0.0
C312 C 0.48189 0.00892 0.89349 0.0
C313 C 0.48636 0.04222 0.92532 0.0
C314 C 0.55426 0.00465 0.9503 0.0
C315 C 0.54065 0.96274 0.92165 0.0
N316 N 0.48619 0.91985 0.86677 0.0
N317 N 0.51189 0.05418 0.98779 0.0
C318 C 0.50316 0.96349 0.89323 0.0
C319 C 0.51849 0.03526 0.95481 0.0
N320 N 0.45985 0.02205 0.86337 0.0
N321 N 0.60113 0.01457 0.97356 0.0
H322 H 0.48121 0.07141 0.99337 0.0
H323 H 0.53047 0.04487 1.01032 0.0
H324 H 0.62968 0.99406 0.96999 0.0
H325 H 0.61603 0.0485 0.99359 0.0
H326 H 0.46118 0.00324 0.83886 0.0
H327 H 0.44566 0.05614 0.86221 0.0
H328 H 0.45321 0.91368 0.84742 0.0
H329 H 0.50236 0.88723 0.86553 0.0
C330 C 0.4767 0.52644 0.52739 0.0
C331 C 0.51552 0.5693 0.5542 0.0
C332 C 0.50155 0.47859 0.58956 0.0
C333 C 0.45934 0.43709 0.56373 0.0
N334 N 0.39134 0.42079 0.51415 0.0
N335 N 0.55044 0.58402 0.61504 0.0
C336 C 0.44088 0.46109 0.53507 0.0
C337 C 0.5239 0.54495 0.58667 0.0
N338 N 0.47789 0.54717 0.49372 0.0
N339 N 0.52126 0.45478 0.61624 0.0
H340 H 0.56427 0.63214 0.61468 0.0
H341 H 0.55257 0.56727 0.64001 0.0
H342 H 0.50318 0.40606 0.61971 0.0
H343 H 0.55756 0.48343 0.63357 0.0
H344 H 0.45013 0.51784 0.47338 0.0
H345 H 0.51234 0.59177 0.48488 0.0
H346 H 0.37264 0.43653 0.49441 0.0
H347 H 0.3648 0.37211 0.51913 0.0
C348 C 0.98195 0.51346 0.85319 0.0
C349 C 0.9577 0.52564 0.88446 0.0
C350 C 1.00068 0.46983 0.91878 0.0
C351 C 0.01796 0.4517 0.88679 0.0
N352 N 0.00733 0.44122 0.82339 0.0
N353 N 0.93301 0.50457 0.94654 0.0
C354 C 0.00274 0.46865 0.85396 0.0
C355 C 0.96391 0.50087 0.91726 0.0
N356 N 0.98745 0.54644 0.8229 0.0
N357 N 0.02141 0.46014 0.95039 0.0
H358 H 0.90499 0.52607 0.94646 0.0
H359 H 0.93079 0.48144 0.9701 0.0
H360 H 0.04833 0.43766 0.95265 0.0
H361 H 0.01594 0.47884 0.97406 0.0
H362 H 0.0103 0.5431 0.80035 0.0
H363 H 0.97591 0.58247 0.82157 0.0
H364 H 0.99115 0.44783 0.79918 0.0
H365 H 0.0207 0.4065 0.82295 0.0
C366 C 0.45318 0.93854 0.27942 0.0
C367 C 0.42309 0.97308 0.26897 0.0
C368 C 0.52486 0.07083 0.26965 0.0
C369 C 0.55537 0.03376 0.26989 0.0
N370 N 0.54975 0.93238 0.27808 0.0
N371 N 0.4276 0.07271 0.2578 0.0
C372 C 0.52015 0.96775 0.27686 0.0
C373 C 0.45797 0.03986 0.26623 0.0
N374 N 0.41694 0.87726 0.29052 0.0
N375 N 0.56043 0.13546 0.27187 0.0
H376 H 0.37827 0.05074 0.25637 0.0
H377 H 0.4511 0.12068 0.25111 0.0
H378 H 0.60962 0.15864 0.27488 0.0
H379 H 0.54103 0.16519 0.27407 0.0
H380 H 0.43576 0.85043 0.30096 0.0
H381 H 0.36762 0.8558 0.2923 0.0
H382 H 0.5255 0.88293 0.27876 0.0
H383 H 0.59884 0.95245 0.27681 0.0
C384 C 0.28497 0.31254 0.39431 0.0
C385 C 0.3229 0.37385 0.37924 0.0
C386 C 0.41077 0.3892 0.41799 0.0
C387 C 0.37595 0.32462 0.4292 0.0
N388 N 0.2835 0.22125 0.42137 0.0
N389 N 0.42866 0.46358 0.37099 0.0
C390 C 0.31398 0.28525 0.41549 0.0
C391 C 0.38779 0.41023 0.38941 0.0
N392 N 0.22075 0.28115 0.38979 0.0
N393 N 0.46463 0.43154 0.43539 0.0
H394 H 0.41695 0.47699 0.34735 0.0
H395 H 0.47693 0.49021 0.3764 0.0
H396 H 0.47977 0.42099 0.4588 0.0
H397 H 0.49014 0.47973 0.42933 0.0
H398 H 0.19038 0.23904 0.40291 0.0
H399 H 0.19719 0.30072 0.37625 0.0
H400 H 0.24086 0.18971 0.40921 0.0
H401 H 0.30412 0.19888 0.43511 0.0
C402 C 0.01706 0.3013 0.70684 0.0
C403 C 0.95144 0.26636 0.71599 0.0
C404 C 0.9803 0.27844 0.77883 0.0
C405 C 0.04603 0.31239 0.76968 0.0
N406 N 0.12568 0.33848 0.72497 0.0
N407 N 0.87267 0.20581 0.75982 0.0
C408 C 0.06388 0.31807 0.73364 0.0
C409 C 0.93387 0.24983 0.75174 0.0
N410 N 0.03535 0.3223 0.67307 0.0
N411 N 0.96124 0.27674 0.81299 0.0
H412 H 0.83797 0.18319 0.74053 0.0
H413 H 0.85812 0.18678 0.78499 0.0
H414 H 0.99215 0.29719 0.83407 0.0
H415 H 0.9141 0.25981 0.82014 0.0
H416 H 0.082 0.35467 0.66616 0.0
H417 H 0.00389 0.31218 0.65229 0.0
H418 H 0.14072 0.33761 0.69931 0.0
H419 H 0.16071 0.34963 0.74396 0.0
C420 C 0.69115 0.98194 1.05892 0.0
C421 C 0.64162 0.9184 1.06567 0.0
C422 C 0.6363 0.94789 0.12732 0.0
C423 C 0.68576 0.01081 0.12052 0.0
N424 N 0.77039 0.08374 0.083 0.0
N425 N 0.58032 0.83761 0.10854 0.0
C426 C 0.71645 0.0264 0.0873 0.0
C427 C 0.61831 0.90046 0.10063 0.0
N428 N 0.7116 0.00157 1.02523 0.0
N429 N 0.60474 0.93393 0.15886 0.0
H430 H 0.56818 0.80168 0.08991 0.0
H431 H 0.56643 0.82063 0.13411 0.0
H432 H 0.61755 0.96665 0.17943 0.0
H433 H 0.56329 0.89131 0.16384 0.0
H434 H 0.74053 0.04902 1.01831 0.0
H435 H 0.69669 0.9717 1.00343 0.0
H436 H 0.79935 0.09557 1.06076 0.0
H437 H 0.78946 0.11739 0.10316 0.0
C438 C 0.63505 0.70097 0.3881 0.0
C439 C 0.63781 0.69139 0.42483 0.0
C440 C 0.69909 0.63724 0.41219 0.0
C441 C 0.68968 0.64011 0.37545 0.0
N442 N 0.63582 0.66326 0.32906 0.0
N443 N 0.66124 0.63775 0.47127 0.0
C444 C 0.65444 0.66919 0.36351 0.0
C445 C 0.66709 0.65634 0.43678 0.0
N446 N 0.61537 0.74175 0.37657 0.0
N447 N 0.7399 0.61767 0.42371 0.0
H448 H 0.63632 0.64817 0.49004 0.0
H449 H 0.67548 0.60629 0.48049 0.0
H450 H 0.76494 0.60441 0.40652 0.0
H451 H 0.7537 0.62076 0.44997 0.0
H452 H 0.61862 0.75573 0.35031 0.0
H453 H 0.60178 0.76657 0.39373 0.0
H454 H 0.60421 0.67729 0.3199 0.0
H455 H 0.64639 0.63848 0.31028 0.0
C456 C 0.07243 0.75119 0.74787 0.0
C457 C 0.0569 0.7396 0.71155 0.0
C458 C 0.94368 0.69024 0.72759 0.0
C459 C 0.95898 0.69093 0.76368 0.0
N460 N 0.04005 0.71707 0.808 0.0
N461 N 0.97463 0.68945 0.66712 0.0
C462 C 0.02396 0.72083 0.77392 0.0
C463 C 0.99171 0.70763 0.70136 0.0
N464 N 0.13356 0.79227 0.75755 0.0
N465 N 0.88307 0.67365 0.71831 0.0
H466 H 0.0067 0.69865 0.6467 0.0
H467 H 0.9279 0.65936 0.65945 0.0
H468 H 0.84718 0.66188 0.73692 0.0
H469 H 0.87026 0.6784 0.69275 0.0
H470 H 0.14682 0.80752 0.78344 0.0
H471 H 0.16974 0.81651 0.73916 0.0
H472 H 0.08626 0.731 0.81573 0.0
H473 H 0.00715 0.69514 0.82818 0.0
C474 C 0.31657 0.96164 0.06978 0.0
C475 C 0.32696 0.98063 0.10561 0.0
C476 C 0.37816 0.09281 0.0871 0.0
C477 C 0.37492 0.07407 1.05132 0.0
N478 N 0.34794 0.98961 1.00888 0.0
N479 N 0.37407 0.06451 0.14886 0.0
C480 C 0.34538 0.00816 1.04266 0.0
C481 C 0.35907 0.04632 0.11444 0.0
N482 N 0.278 0.89899 1.06164 0.0
N483 N 0.39779 0.15489 0.09493 0.0
H484 H 0.36065 0.03226 0.16968 0.0
H485 H 0.40392 0.11134 0.15657 0.0
H486 H 0.41118 0.18984 0.07557 0.0
H487 H 0.39512 0.17064 0.12011 0.0
H488 H 0.26267 0.88271 1.03612 0.0
H489 H 0.2564 0.8638 0.08086 0.0
H490 H 0.33469 0.94306 1.00201 0.0
H491 H 0.36829 0.0211 0.98793 0.0
C492 C 0.95702 0.25091 0.27516 0.0
C493 C 0.92494 0.18656 0.26349 0.0
C494 C 0.02738 0.19333 0.25029 0.0
C495 C 0.05864 0.25872 0.25927 0.0
N496 N 0.05368 0.35235 0.27618 0.0
N497 N 0.92783 0.09655 0.23861 0.0
C498 C 0.02373 0.28791 0.27122 0.0
C499 C 0.9597 0.15772 0.25068 0.0
N500 N 0.92382 0.27777 0.28923 0.0
N501 N 0.06272 0.16522 0.24234 0.0
H502 H 0.87872 0.06807 0.24066 0.0
H503 H 0.94931 0.07461 0.2253 0.0
H504 H 0.11219 0.19029 0.24208 0.0
H505 H 0.04378 0.11664 0.23851 0.0
H506 H 0.94481 0.31958 0.30391 0.0
H507 H 0.87489 0.25795 0.28758 0.0
H508 H 0.03007 0.37797 0.27959 0.0
H509 H 0.1025 0.38197 0.27421 0.0
C510 C 0.83915 0.03412 0.57392 0.0
C511 C 0.81709 0.07325 0.55889 0.0
C512 C 0.72141 0.97908 0.53753 0.0
C513 C 0.74378 0.93975 0.55208 0.0
N514 N 0.82805 0.92887 0.57814 0.0
N515 N 0.7421 0.08376 0.52122 0.0
C516 C 0.80403 0.96707 0.56852 0.0
C517 C 0.76045 0.04602 0.53859 0.0
N518 N 0.89315 0.06115 0.59378 0.0
N519 N 0.66039 0.95296 0.52553 0.0
H520 H 0.76258 0.13254 0.52473 0.0
H521 H 0.70788 0.06685 0.50145 0.0
H522 H 0.62861 0.90446 0.52458 0.0
H523 H 0.6385 0.97938 0.51947 0.0
H524 H 0.90807 0.0353 0.60898 0.0
H525 H 0.92209 0.11024 0.59618 0.0
H526 H 0.87395 0.94583 0.58743 0.0
H527 H 0.8035 0.87983 0.57408 0.0
C528 C 0.84289 0.81169 0.89669 0.0
C529 C 0.84029 0.76836 0.92266 0.0
C530 C 0.75343 0.77194 0.95247 0.0
C531 C 0.7514 0.81099 0.92502 0.0
N532 N 0.80848 0.88609 0.8786 0.0
N533 N 0.82147 0.74341 0.98457 0.0
C534 C 0.80088 0.83681 0.89943 0.0
C535 C 0.80529 0.76083 0.95382 0.0
N536 N 0.8854 0.82849 0.86963 0.0
N537 N 0.70409 0.74072 0.97551 0.0
H538 H 0.86313 0.74119 0.98689 0.0
H539 H 0.79893 0.74081 1.00848 0.0
H540 H 0.66168 0.74142 0.97406 0.0
H541 H 0.70253 0.7077 0.99369 0.0
H542 H 0.88471 0.85319 0.84734 0.0
H543 H 0.92154 0.81701 0.8698 0.0
H544 H 0.84612 0.90997 0.86112 0.0
H545 H 0.78036 0.90729 0.88138 0.0
C546 C 0.96068 0.71092 0.21639 0.0
C547 C 0.92555 0.736 0.23341 0.0
C548 C 0.02451 0.8348 0.24643 0.0
C549 C 0.0594 0.80699 0.23263 0.0
N550 N 0.06191 0.71606 0.20835 0.0
N551 N 0.92231 0.82008 0.26556 0.0
C552 C 0.02785 0.74485 0.21807 0.0
C553 C 0.95703 0.79769 0.24859 0.0
N554 N 0.93005 0.65369 0.19928 0.0
N555 N 0.05614 0.89691 0.25691 0.0
H556 H 0.87284 0.79548 0.26585 0.0
H557 H 0.94207 0.86151 0.28051 0.0
H558 H 0.10543 0.9247 0.2555 0.0
H559 H 0.03393 0.92234 0.26452 0.0
H560 H 0.95265 0.63791 0.18195 0.0
H561 H 0.88137 0.62283 0.20055 0.0
H562 H 0.0415 0.66787 0.20261 0.0
H563 H 0.11124 0.73885 0.20854 0.0
C564 C 0.16201 0.97288 0.5702 0.0
C565 C 0.18832 0.93548 0.55807 0.0
C566 C 0.28944 0.03137 0.54582 0.0
C567 C 0.26254 0.06911 0.55645 0.0
N568 N 0.17158 0.07759 0.5736 0.0
N569 N 0.27304 0.92862 0.52818 0.0
C570 C 0.19814 0.04035 0.56707 0.0
C571 C 0.25039 0.96463 0.54349 0.0
N572 N 0.10318 0.94383 0.58538 0.0
N573 N 0.35354 0.05866 0.54076 0.0
H574 H 0.24863 0.8792 0.52789 0.0
H575 H 0.31448 0.94794 0.51319 0.0
H576 H 0.38486 0.10724 0.54291 0.0
H577 H 0.37689 0.03266 0.53783 0.0
H578 H 0.08385 0.96818 0.59834 0.0
H579 H 0.0746 0.89451 0.58635 0.0
H580 H 0.12348 0.05967 0.57843 0.0
H581 H 0.19721 0.12701 0.57151 0.0
C582 C 0.24821 0.2835 0.92976 0.0
C583 C 0.1842 0.24765 0.91863 0.0
C584 C 0.19721 0.15417 0.91006 0.0
C585 C 0.26265 0.19217 0.91788 0.0
N586 N 0.35319 0.29673 0.92638 0.0
N587 N 0.09826 0.1511 0.89512 0.0
C588 C 0.28883 0.25773 0.92558 0.0
C589 C 0.15871 0.18346 0.90788 0.0
N590 N 0.27085 0.34276 0.94399 0.0
N591 N 0.17187 0.09022 0.90549 0.0
H592 H 0.0684 0.17061 0.89473 0.0
H593 H 0.07885 0.10651 0.88337 0.0
H594 H 0.19923 0.06798 0.90663 0.0
H595 H 0.12349 0.05875 0.903 0.0
H596 H 0.31476 0.3674 0.95641 0.0
H597 H 0.24426 0.36558 0.94618 0.0
H598 H 0.37486 0.34609 0.92735 0.0
H599 H 0.3853 0.28072 0.92206 0.0
loop_
_geom_bond_atom_site_label_1
_geom_bond_atom_site_label_2
_geom_bond_distance
_geom_bond_site_symmetry_2
_ccdc_geom_bond_type
O0 Cd1 2.223 . S
O0 C8 1.315 . S
Cd1 O0 2.223 . S
Cd1 O4 2.297 . S
Cd1 O5 2.439 . S
Cd1 O11 2.240 . S
Cd2 O3 2.240 . S
Cd2 O10 2.223 . S
Cd2 O12 2.297 . S
Cd2 O13 2.439 . S
O3 Cd2 2.240 . S
O3 C8 1.279 . S
O4 Cd1 2.297 . S
O4 C6 1.247 . S
O5 Cd1 2.439 . S
O5 C6 1.208 . S
C6 O4 1.247 . S
C6 O5 1.208 . S
C7 O12 1.247 . S
C7 O13 1.208 . S
C8 O0 1.315 . S
C8 O3 1.279 . S
C9 O10 1.315 . S
C9 O11 1.279 . S
O10 Cd2 2.223 . S
O10 C9 1.315 . S
O11 Cd1 2.240 . S
O11 C9 1.279 . S
O12 Cd2 2.297 . S
O12 C7 1.247 . S
O13 Cd2 2.439 . S
O13 C7 1.208 . S
O14 Cd15 2.223 . S
O14 C22 1.315 . S
Cd15 O14 2.223 . S
Cd15 O18 2.297 . S
Cd15 O19 2.439 . S
Cd15 O25 2.240 . S
Cd16 O17 2.240 . S
Cd16 O24 2.223 . S
Cd16 O26 2.297 . S
Cd16 O27 2.439 . S
O17 Cd16 2.240 . S
O17 C22 1.279 . S
O18 Cd15 2.297 . S
O18 C20 1.247 . S
O19 Cd15 2.439 . S
O19 C20 1.208 . S
C20 O18 1.247 . S
C20 O19 1.208 . S
C21 O26 1.247 . S
C21 O27 1.208 . S
C22 O14 1.315 . S
C22 O17 1.279 . S
C23 O24 1.315 . S
C23 O25 1.279 . S
O24 Cd16 2.223 . S
O24 C23 1.315 . S
O25 Cd15 2.240 . S
O25 C23 1.279 . S
O26 Cd16 2.297 . S
O26 C21 1.247 . S
O27 Cd16 2.439 . S
O27 C21 1.208 . S
O28 Cd29 2.223 . S
O28 C36 1.315 . S
Cd29 O28 2.223 . S
Cd29 O32 2.297 . S
Cd29 O33 2.439 . S
Cd29 O39 2.240 . S
Cd30 O31 2.240 . S
Cd30 O38 2.223 . S
Cd30 O40 2.297 . S
Cd30 O41 2.439 . S
O31 Cd30 2.240 . S
O31 C36 1.279 . S
O32 Cd29 2.297 . S
O32 C34 1.247 . S
O33 Cd29 2.439 . S
O33 C34 1.208 . S
C34 O32 1.247 . S
C34 O33 1.208 . S
C35 O40 1.247 . S
C35 O41 1.208 . S
C36 O28 1.315 . S
C36 O31 1.279 . S
C37 O38 1.315 . S
C37 O39 1.279 . S
O38 Cd30 2.223 . S
O38 C37 1.315 . S
O39 Cd29 2.240 . S
O39 C37 1.279 . S
O40 Cd30 2.297 . S
O40 C35 1.247 . S
O41 Cd30 2.439 . S
O41 C35 1.208 . S
O42 Cd43 2.223 . S
O42 C50 1.315 . S
Cd43 O42 2.223 . S
Cd43 O46 2.297 . S
Cd43 O47 2.439 . S
Cd43 O53 2.240 . S
Cd44 O45 2.240 . S
Cd44 O52 2.223 . S
Cd44 O54 2.297 . S
Cd44 O55 2.439 . S
O45 Cd44 2.240 . S
O45 C50 1.279 . S
O46 Cd43 2.297 . S
O46 C48 1.247 . S
O47 Cd43 2.439 . S
O47 C48 1.208 . S
C48 O46 1.247 . S
C48 O47 1.208 . S
C49 O54 1.247 . S
C49 O55 1.208 . S
C50 O42 1.315 . S
C50 O45 1.279 . S
C51 O52 1.315 . S
C51 O53 1.279 . S
O52 Cd44 2.223 . S
O52 C51 1.315 . S
O53 Cd43 2.240 . S
O53 C51 1.279 . S
O54 Cd44 2.297 . S
O54 C49 1.247 . S
O55 Cd44 2.439 . S
O55 C49 1.208 . S
O56 Cd57 2.223 . S
O56 C64 1.315 . S
Cd57 O56 2.223 . S
Cd57 O60 2.297 . S
Cd57 O61 2.439 . S
Cd57 O67 2.240 . S
Cd58 O59 2.240 . S
Cd58 O66 2.223 . S
Cd58 O68 2.297 . S
Cd58 O69 2.439 . S
O59 Cd58 2.240 . S
O59 C64 1.279 . S
O60 Cd57 2.297 . S
O60 C62 1.247 . S
O61 Cd57 2.439 . S
O61 C62 1.208 . S
C62 O60 1.247 . S
C62 O61 1.208 . S
C63 O68 1.247 . S
C63 O69 1.208 . S
C64 O56 1.315 . S
C64 O59 1.279 . S
C65 O66 1.315 . S
C65 O67 1.279 . S
O66 Cd58 2.223 . S
O66 C65 1.315 . S
O67 Cd57 2.240 . S
O67 C65 1.279 . S
O68 Cd58 2.297 . S
O68 C63 1.247 . S
O69 Cd58 2.439 . S
O69 C63 1.208 . S
O70 Cd71 2.223 . S
O70 C78 1.315 . S
Cd71 O70 2.223 . S
Cd71 O74 2.297 . S
Cd71 O75 2.439 . S
Cd71 O81 2.240 . S
Cd72 O73 2.240 . S
Cd72 O80 2.223 . S
Cd72 O82 2.297 . S
Cd72 O83 2.439 . S
O73 Cd72 2.240 . S
O73 C78 1.279 . S
O74 Cd71 2.297 . S
O74 C76 1.247 . S
O75 Cd71 2.439 . S
O75 C76 1.208 . S
C76 O74 1.247 . S
C76 O75 1.208 . S
C77 O82 1.247 . S
C77 O83 1.208 . S
C78 O70 1.315 . S
C78 O73 1.279 . S
C79 O80 1.315 . S
C79 O81 1.279 . S
O80 Cd72 2.223 . S
O80 C79 1.315 . S
O81 Cd71 2.240 . S
O81 C79 1.279 . S
O82 Cd72 2.297 . S
O82 C77 1.247 . S
O83 Cd72 2.439 . S
O83 C77 1.208 . S
O84 Cd85 2.223 . S
O84 C92 1.315 . S
Cd85 O84 2.223 . S
Cd85 O88 2.297 . S
Cd85 O89 2.439 . S
Cd85 O95 2.240 . S
Cd86 O87 2.240 . S
Cd86 O94 2.223 . S
Cd86 O96 2.297 . S
Cd86 O97 2.439 . S
O87 Cd86 2.240 . S
O87 C92 1.279 . S
O88 Cd85 2.297 . S
O88 C90 1.247 . S
O89 Cd85 2.439 . S
O89 C90 1.208 . S
C90 O88 1.247 . S
C90 O89 1.208 . S
C91 O96 1.247 . S
C91 O97 1.208 . S
C92 O84 1.315 . S
C92 O87 1.279 . S
C93 O94 1.315 . S
C93 O95 1.279 . S
O94 Cd86 2.223 . S
O94 C93 1.315 . S
O95 Cd85 2.240 . S
O95 C93 1.279 . S
O96 Cd86 2.297 . S
O96 C91 1.247 . S
O97 Cd86 2.439 . S
O97 C91 1.208 . S
O98 Cd99 2.223 . S
O98 C106 1.315 . S
Cd99 O98 2.223 . S
Cd99 O102 2.297 . S
Cd99 O103 2.439 . S
Cd99 O109 2.240 . S
Cd100 O101 2.240 . S
Cd100 O108 2.223 . S
Cd100 O110 2.297 . S
Cd100 O111 2.439 . S
O101 Cd100 2.240 . S
O101 C106 1.279 . S
O102 Cd99 2.297 . S
O102 C104 1.247 . S
O103 Cd99 2.439 . S
O103 C104 1.208 . S
C104 O102 1.247 . S
C104 O103 1.208 . S
C105 O110 1.247 . S
C105 O111 1.208 . S
C106 O98 1.315 . S
C106 O101 1.279 . S
C107 O108 1.315 . S
C107 O109 1.279 . S
O108 Cd100 2.223 . S
O108 C107 1.315 . S
O109 Cd99 2.240 . S
O109 C107 1.279 . S
O110 Cd100 2.297 . S
O110 C105 1.247 . S
O111 Cd100 2.439 . S
O111 C105 1.208 . S
O112 Cd113 2.223 . S
O112 C120 1.315 . S
Cd113 O112 2.223 . S
Cd113 O116 2.297 . S
Cd113 O117 2.439 . S
Cd113 O123 2.240 . S
Cd114 O115 2.240 . S
Cd114 O122 2.223 . S
Cd114 O124 2.297 . S
Cd114 O125 2.439 . S
O115 Cd114 2.240 . S
O115 C120 1.279 . S
O116 Cd113 2.297 . S
O116 C118 1.247 . S
O117 Cd113 2.439 . S
O117 C118 1.208 . S
C118 O116 1.247 . S
C118 O117 1.208 . S
C119 O124 1.247 . S
C119 O125 1.208 . S
C120 O112 1.315 . S
C120 O115 1.279 . S
C121 O122 1.315 . S
C121 O123 1.279 . S
O122 Cd114 2.223 . S
O122 C121 1.315 . S
O123 Cd113 2.240 . S
O123 C121 1.279 . S
O124 Cd114 2.297 . S
O124 C119 1.247 . S
O125 Cd114 2.439 . S
O125 C119 1.208 . S
O126 Cd127 2.223 . S
O126 C134 1.315 . S
Cd127 O126 2.223 . S
Cd127 O130 2.297 . S
Cd127 O131 2.439 . S
Cd127 O137 2.240 . S
Cd128 O129 2.240 . S
Cd128 O136 2.223 . S
Cd128 O138 2.297 . S
Cd128 O139 2.439 . S
O129 Cd128 2.240 . S
O129 C134 1.279 . S
O130 Cd127 2.297 . S
O130 C132 1.247 . S
O131 Cd127 2.439 . S
O131 C132 1.208 . S
C132 O130 1.247 . S
C132 O131 1.208 . S
C133 O138 1.247 . S
C133 O139 1.208 . S
C134 O126 1.315 . S
C134 O129 1.279 . S
C135 O136 1.315 . S
C135 O137 1.279 . S
O136 Cd128 2.223 . S
O136 C135 1.315 . S
O137 Cd127 2.240 . S
O137 C135 1.279 . S
O138 Cd128 2.297 . S
O138 C133 1.247 . S
O139 Cd128 2.439 . S
O139 C133 1.208 . S
O140 Cd141 2.223 . S
O140 C148 1.315 . S
Cd141 O140 2.223 . S
Cd141 O144 2.297 . S
Cd141 O145 2.439 . S
Cd141 O151 2.240 . S
Cd142 O143 2.240 . S
Cd142 O150 2.223 . S
Cd142 O152 2.297 . S
Cd142 O153 2.439 . S
O143 Cd142 2.240 . S
O143 C148 1.279 . S
O144 Cd141 2.297 . S
O144 C146 1.247 . S
O145 Cd141 2.439 . S
O145 C146 1.208 . S
C146 O144 1.247 . S
C146 O145 1.208 . S
C147 O152 1.247 . S
C147 O153 1.208 . S
C148 O140 1.315 . S
C148 O143 1.279 . S
C149 O150 1.315 . S
C149 O151 1.279 . S
O150 Cd142 2.223 . S
O150 C149 1.315 . S
O151 Cd141 2.240 . S
O151 C149 1.279 . S
O152 Cd142 2.297 . S
O152 C147 1.247 . S
O153 Cd142 2.439 . S
O153 C147 1.208 . S
O154 Cd155 2.223 . S
O154 C162 1.315 . S
Cd155 O154 2.223 . S
Cd155 O158 2.297 . S
Cd155 O159 2.439 . S
Cd155 O165 2.240 . S
Cd156 O157 2.240 . S
Cd156 O164 2.223 . S
Cd156 O166 2.297 . S
Cd156 O167 2.439 . S
O157 Cd156 2.240 . S
O157 C162 1.279 . S
O158 Cd155 2.297 . S
O158 C160 1.247 . S
O159 Cd155 2.439 . S
O159 C160 1.208 . S
C160 O158 1.247 . S
C160 O159 1.208 . S
C161 O166 1.247 . S
C161 O167 1.208 . S
C162 O154 1.315 . S
C162 O157 1.279 . S
C163 O164 1.315 . S
C163 O165 1.279 . S
O164 Cd156 2.223 . S
O164 C163 1.315 . S
O165 Cd155 2.240 . S
O165 C163 1.279 . S
O166 Cd156 2.297 . S
O166 C161 1.247 . S
O167 Cd156 2.439 . S
O167 C161 1.208 . S
C168 C169 1.363 . S
C168 C174 1.379 . S
C168 N176 1.356 . S
C169 C168 1.363 . S
C169 C175 1.363 . S
C170 C171 1.363 . S
C170 C175 1.379 . S
C170 N177 1.356 . S
C171 C170 1.363 . S
C171 C174 1.363 . S
N172 C174 1.356 . S
N172 H184 0.984 . S
N172 H185 0.985 . S
N173 C175 1.356 . S
N173 H178 0.984 . S
N173 H179 0.985 . S
C174 C168 1.379 . S
C174 C171 1.363 . S
C174 N172 1.356 . S
C175 C169 1.363 . S
C175 C170 1.379 . S
C175 N173 1.356 . S
N176 C168 1.356 . S
N176 H182 0.984 . S
N176 H183 0.984 . S
N177 C170 1.356 . S
N177 H180 0.984 . S
N177 H181 0.985 . S
H178 N173 0.984 . S
H179 N173 0.985 . S
H180 N177 0.984 . S
H181 N177 0.985 . S
H182 N176 0.984 . S
H183 N176 0.984 . S
H184 N172 0.984 . S
H185 N172 0.985 . S
C186 C187 1.363 . S
C186 C192 1.379 . S
C186 N194 1.356 . S
C187 C186 1.363 . S
C187 C193 1.363 . S
C188 C189 1.363 . S
C188 C193 1.379 . S
C188 N195 1.356 . S
C189 C188 1.363 . S
C189 C192 1.363 . S
N190 C192 1.356 . S
N190 H202 0.984 . S
N190 H203 0.985 . S
N191 C193 1.356 . S
N191 H196 0.984 . S
N191 H197 0.985 . S
C192 C186 1.379 . S
C192 C189 1.363 . S
C192 N190 1.356 . S
C193 C187 1.363 . S
C193 C188 1.379 . S
C193 N191 1.356 . S
N194 C186 1.356 . S
N194 H200 0.984 . S
N194 H201 0.984 . S
N195 C188 1.356 . S
N195 H198 0.984 . S
N195 H199 0.985 . S
H196 N191 0.984 . S
H197 N191 0.985 . S
H198 N195 0.984 . S
H199 N195 0.985 . S
H200 N194 0.984 . S
H201 N194 0.984 . S
H202 N190 0.984 . S
H203 N190 0.985 . S
C204 C205 1.363 . S
C204 C210 1.379 . S
C204 N212 1.356 . S
C205 C204 1.363 . S
C205 C211 1.363 . S
C206 C207 1.363 . S
C206 C211 1.379 . S
C206 N213 1.356 . S
C207 C206 1.363 . S
C207 C210 1.363 . S
N208 C210 1.356 . S
N208 H220 0.984 . S
N208 H221 0.985 . S
N209 C211 1.356 . S
N209 H214 0.984 . S
N209 H215 0.985 . S
C210 C204 1.379 . S
C210 C207 1.363 . S
C210 N208 1.356 . S
C211 C205 1.363 . S
C211 C206 1.379 . S
C211 N209 1.356 . S
N212 C204 1.356 . S
N212 H218 0.984 . S
N212 H219 0.984 . S
N213 C206 1.356 . S
N213 H216 0.984 . S
N213 H217 0.985 . S
H214 N209 0.984 . S
H215 N209 0.985 . S
H216 N213 0.984 . S
H217 N213 0.985 . S
H218 N212 0.984 . S
H219 N212 0.984 . S
H220 N208 0.984 . S
H221 N208 0.985 . S
C222 C223 1.363 . S
C222 C228 1.379 . S
C222 N230 1.356 . S
C223 C222 1.363 . S
C223 C229 1.363 . S
C224 C225 1.363 . S
C224 C229 1.379 . S
C224 N231 1.356 . S
C225 C224 1.363 . S
C225 C228 1.363 . S
N226 C228 1.356 . S
N226 H238 0.984 . S
N226 H239 0.985 . S
N227 C229 1.356 . S
N227 H232 0.984 . S
N227 H233 0.985 . S
C228 C222 1.379 . S
C228 C225 1.363 . S
C228 N226 1.356 . S
C229 C223 1.363 . S
C229 C224 1.379 . S
C229 N227 1.356 . S
N230 C222 1.356 . S
N230 H236 0.984 . S
N230 H237 0.984 . S
N231 C224 1.356 . S
N231 H234 0.984 . S
N231 H235 0.985 . S
H232 N227 0.984 . S
H233 N227 0.985 . S
H234 N231 0.984 . S
H235 N231 0.985 . S
H236 N230 0.984 . S
H237 N230 0.984 . S
H238 N226 0.984 . S
H239 N226 0.985 . S
C240 C241 1.363 . S
C240 C246 1.379 . S
C240 N248 1.356 . S
C241 C240 1.363 . S
C241 C247 1.363 . S
C242 C243 1.363 . S
C242 C247 1.379 . S
C242 N249 1.356 . S
C243 C242 1.363 . S
C243 C246 1.363 . S
N244 C246 1.356 . S
N244 H256 0.984 . S
N244 H257 0.985 . S
N245 C247 1.356 . S
N245 H250 0.984 . S
N245 H251 0.985 . S
C246 C240 1.379 . S
C246 C243 1.363 . S
C246 N244 1.356 . S
C247 C241 1.363 . S
C247 C242 1.379 . S
C247 N245 1.356 . S
N248 C240 1.356 . S
N248 H254 0.984 . S
N248 H255 0.984 . S
N249 C242 1.356 . S
N249 H252 0.984 . S
N249 H253 0.985 . S
H250 N245 0.984 . S
H251 N245 0.985 . S
H252 N249 0.984 . S
H253 N249 0.985 . S
H254 N248 0.984 . S
H255 N248 0.984 . S
H256 N244 0.984 . S
H257 N244 0.985 . S
C258 C259 1.363 . S
C258 C264 1.379 . S
C258 N266 1.356 . S
C259 C258 1.363 . S
C259 C265 1.363 . S
C260 C261 1.363 . S
C260 C265 1.379 . S
C260 N267 1.356 . S
C261 C260 1.363 . S
C261 C264 1.363 . S
N262 C264 1.356 . S
N262 H274 0.984 . S
N262 H275 0.985 . S
N263 C265 1.356 . S
N263 H268 0.984 . S
N263 H269 0.985 . S
C264 C258 1.379 . S
C264 C261 1.363 . S
C264 N262 1.356 . S
C265 C259 1.363 . S
C265 C260 1.379 . S
C265 N263 1.356 . S
N266 C258 1.356 . S
N266 H272 0.984 . S
N266 H273 0.984 . S
N267 C260 1.356 . S
N267 H270 0.984 . S
N267 H271 0.985 . S
H268 N263 0.984 . S
H269 N263 0.985 . S
H270 N267 0.984 . S
H271 N267 0.985 . S
H272 N266 0.984 . S
H273 N266 0.984 . S
H274 N262 0.984 . S
H275 N262 0.985 . S
C276 C277 1.363 . S
C276 C282 1.379 . S
C276 N284 1.356 . S
C277 C276 1.363 . S
C277 C283 1.363 . S
C278 C279 1.363 . S
C278 C283 1.379 . S
C278 N285 1.356 . S
C279 C278 1.363 . S
C279 C282 1.363 . S
N280 C282 1.356 . S
N280 H292 0.984 . S
N280 H293 0.985 . S
N281 C283 1.356 . S
N281 H286 0.984 . S
N281 H287 0.985 . S
C282 C276 1.379 . S
C282 C279 1.363 . S
C282 N280 1.356 . S
C283 C277 1.363 . S
C283 C278 1.379 . S
C283 N281 1.356 . S
N284 C276 1.356 . S
N284 H290 0.984 . S
N284 H291 0.984 . S
N285 C278 1.356 . S
N285 H288 0.984 . S
N285 H289 0.985 . S
H286 N281 0.984 . S
H287 N281 0.985 . S
H288 N285 0.984 . S
H289 N285 0.985 . S
H290 N284 0.984 . S
H291 N284 0.984 . S
H292 N280 0.984 . S
H293 N280 0.985 . S
C294 C295 1.363 . S
C294 C300 1.379 . S
C294 N302 1.356 . S
C295 C294 1.363 . S
C295 C301 1.363 1_455 S
C296 C297 1.363 . S
C296 C301 1.379 . S
C296 N303 1.356 . S
C297 C296 1.363 . S
C297 C300 1.363 1_655 S
N298 C300 1.356 . S
N298 H310 0.984 . S
N298 H311 0.985 1_455 S
N299 C301 1.356 . S
N299 H304 0.984 1_655 S
N299 H305 0.985 . S
C300 C294 1.379 . S
C300 C297 1.363 1_455 S
C300 N298 1.356 . S
C301 C295 1.363 1_655 S
C301 C296 1.379 . S
C301 N299 1.356 . S
N302 C294 1.356 . S
N302 H308 0.984 . S
N302 H309 0.984 . S
N303 C296 1.356 . S
N303 H306 0.984 . S
N303 H307 0.985 . S
H304 N299 0.984 1_455 S
H305 N299 0.985 . S
H306 N303 0.984 . S
H307 N303 0.985 . S
H308 N302 0.984 . S
H309 N302 0.984 . S
H310 N298 0.984 . S
H311 N298 0.985 1_655 S
C312 C313 1.363 1_565 S
C312 C318 1.379 . S
C312 N320 1.356 . S
C313 C312 1.363 1_545 S
C313 C319 1.363 . S
C314 C315 1.363 1_545 S
C314 C319 1.379 . S
C314 N321 1.356 . S
C315 C314 1.363 1_565 S
C315 C318 1.363 . S
N316 C318 1.356 . S
N316 H328 0.984 . S
N316 H329 0.985 . S
N317 C319 1.356 . S
N317 H322 0.984 . S
N317 H323 0.985 . S
C318 C312 1.379 . S
C318 C315 1.363 . S
C318 N316 1.356 . S
C319 C313 1.363 . S
C319 C314 1.379 . S
C319 N317 1.356 . S
N320 C312 1.356 . S
N320 H326 0.984 . S
N320 H327 0.984 1_565 S
N321 C314 1.356 . S
N321 H324 0.984 1_545 S
N321 H325 0.985 . S
H322 N317 0.984 . S
H323 N317 0.985 . S
H324 N321 0.984 1_565 S
H325 N321 0.985 . S
H326 N320 0.984 . S
H327 N320 0.984 1_545 S
H328 N316 0.984 . S
H329 N316 0.985 . S
C330 C331 1.363 . S
C330 C336 1.379 . S
C330 N338 1.356 . S
C331 C330 1.363 . S
C331 C337 1.363 . S
C332 C333 1.363 . S
C332 C337 1.379 . S
C332 N339 1.356 . S
C333 C332 1.363 . S
C333 C336 1.363 . S
N334 C336 1.356 . S
N334 H346 0.984 . S
N334 H347 0.985 . S
N335 C337 1.356 . S
N335 H340 0.984 . S
N335 H341 0.985 . S
C336 C330 1.379 . S
C336 C333 1.363 . S
C336 N334 1.356 . S
C337 C331 1.363 . S
C337 C332 1.379 . S
C337 N335 1.356 . S
N338 C330 1.356 . S
N338 H344 0.984 . S
N338 H345 0.984 . S
N339 C332 1.356 . S
N339 H342 0.984 . S
N339 H343 0.985 . S
H340 N335 0.984 . S
H341 N335 0.985 . S
H342 N339 0.984 . S
H343 N339 0.985 . S
H344 N338 0.984 . S
H345 N338 0.984 . S
H346 N334 0.984 . S
H347 N334 0.985 . S
C348 C349 1.363 . S
C348 C354 1.379 . S
C348 N356 1.356 . S
C349 C348 1.363 . S
C349 C355 1.363 1_655 S
C350 C351 1.363 . S
C350 C355 1.379 . S
C350 N357 1.356 . S
C351 C350 1.363 . S
C351 C354 1.363 1_455 S
N352 C354 1.356 . S
N352 H364 0.984 . S
N352 H365 0.985 1_655 S
N353 C355 1.356 . S
N353 H358 0.984 1_455 S
N353 H359 0.985 . S
C354 C348 1.379 . S
C354 C351 1.363 1_655 S
C354 N352 1.356 . S
C355 C349 1.363 1_455 S
C355 C350 1.379 . S
C355 N353 1.356 . S
N356 C348 1.356 . S
N356 H362 0.984 . S
N356 H363 0.984 . S
N357 C350 1.356 . S
N357 H360 0.984 . S
N357 H361 0.985 . S
H358 N353 0.984 1_655 S
H359 N353 0.985 . S
H360 N357 0.984 . S
H361 N357 0.985 . S
H362 N356 0.984 . S
H363 N356 0.984 . S
H364 N352 0.984 . S
H365 N352 0.985 1_455 S
C366 C367 1.363 . S
C366 C372 1.379 . S
C366 N374 1.356 . S
C367 C366 1.363 . S
C367 C373 1.363 1_565 S
C368 C369 1.363 . S
C368 C373 1.379 . S
C368 N375 1.356 . S
C369 C368 1.363 . S
C369 C372 1.363 1_545 S
N370 C372 1.356 . S
N370 H382 0.984 . S
N370 H383 0.985 1_565 S
N371 C373 1.356 . S
N371 H376 0.984 1_545 S
N371 H377 0.985 . S
C372 C366 1.379 . S
C372 C369 1.363 1_565 S
C372 N370 1.356 . S
C373 C367 1.363 1_545 S
C373 C368 1.379 . S
C373 N371 1.356 . S
N374 C366 1.356 . S
N374 H380 0.984 . S
N374 H381 0.984 . S
N375 C368 1.356 . S
N375 H378 0.984 . S
N375 H379 0.985 . S
H376 N371 0.984 1_565 S
H377 N371 0.985 . S
H378 N375 0.984 . S
H379 N375 0.985 . S
H380 N374 0.984 . S
H381 N374 0.984 . S
H382 N370 0.984 . S
H383 N370 0.985 1_545 S
C384 C385 1.363 . S
C384 C390 1.379 . S
C384 N392 1.356 . S
C385 C384 1.363 . S
C385 C391 1.363 . S
C386 C387 1.363 . S
C386 C391 1.379 . S
C386 N393 1.356 . S
C387 C386 1.363 . S
C387 C390 1.363 . S
N388 C390 1.356 . S
N388 H400 0.984 . S
N388 H401 0.985 . S
N389 C391 1.356 . S
N389 H394 0.984 . S
N389 H395 0.985 . S
C390 C384 1.379 . S
C390 C387 1.363 . S
C390 N388 1.356 . S
C391 C385 1.363 . S
C391 C386 1.379 . S
C391 N389 1.356 . S
N392 C384 1.356 . S
N392 H398 0.984 . S
N392 H399 0.984 . S
N393 C386 1.356 . S
N393 H396 0.984 . S
N393 H397 0.985 . S
H394 N389 0.984 . S
H395 N389 0.985 . S
H396 N393 0.984 . S
H397 N393 0.985 . S
H398 N392 0.984 . S
H399 N392 0.984 . S
H400 N388 0.984 . S
H401 N388 0.985 . S
C402 C403 1.363 1_455 S
C402 C408 1.379 . S
C402 N410 1.356 . S
C403 C402 1.363 1_655 S
C403 C409 1.363 . S
C404 C405 1.363 1_655 S
C404 C409 1.379 . S
C404 N411 1.356 . S
C405 C404 1.363 1_455 S
C405 C408 1.363 . S
N406 C408 1.356 . S
N406 H418 0.984 . S
N406 H419 0.985 . S
N407 C409 1.356 . S
N407 H412 0.984 . S
N407 H413 0.985 . S
C408 C402 1.379 . S
C408 C405 1.363 . S
C408 N406 1.356 . S
C409 C403 1.363 . S
C409 C404 1.379 . S
C409 N407 1.356 . S
N410 C402 1.356 . S
N410 H416 0.984 . S
N410 H417 0.984 . S
N411 C404 1.356 . S
N411 H414 0.984 . S
N411 H415 0.985 . S
H412 N407 0.984 . S
H413 N407 0.985 . S
H414 N411 0.984 . S
H415 N411 0.985 . S
H416 N410 0.984 . S
H417 N410 0.984 . S
H418 N406 0.984 . S
H419 N406 0.985 . S
C420 C421 1.363 1_545 S
C420 C426 1.379 1_556 S
C420 N428 1.356 . S
C421 C420 1.363 1_565 S
C421 C427 1.363 1_556 S
C422 C423 1.363 1_565 S
C422 C427 1.379 . S
C422 N429 1.356 . S
C423 C422 1.363 1_545 S
C423 C426 1.363 . S
N424 C426 1.356 . S
N424 H436 0.984 . S
N424 H437 0.985 . S
N425 C427 1.356 1_556 S
N425 H430 0.984 . S
N425 H431 0.972 1_556 S
C426 C420 1.379 1_554 S
C426 C423 1.363 . S
C426 N424 1.356 . S
C427 C421 1.363 1_554 S
C427 C422 1.379 . S
C427 N425 1.356 1_554 S
N428 C420 1.356 . S
N428 H434 0.984 . S
N428 H435 0.984 . S
N429 C422 1.356 . S
N429 H432 0.984 . S
N429 H433 0.985 . S
H430 N425 0.984 . S
H431 N425 0.972 1_554 S
H432 N429 0.984 . S
H433 N429 0.985 . S
H434 N428 0.984 . S
H435 N428 0.984 . S
H436 N424 0.984 . S
H437 N424 0.985 . S
C438 C439 1.363 . S
C438 C444 1.379 . S
C438 N446 1.356 . S
C439 C438 1.363 . S
C439 C445 1.363 . S
C440 C441 1.363 . S
C440 C445 1.379 . S
C440 N447 1.356 . S
C441 C440 1.363 . S
C441 C444 1.363 . S
N442 C444 1.356 . S
N442 H454 0.984 . S
N442 H455 0.985 . S
N443 C445 1.356 . S
N443 H448 0.984 . S
N443 H449 0.985 . S
C444 C438 1.379 . S
C444 C441 1.363 . S
C444 N442 1.356 . S
C445 C439 1.363 . S
C445 C440 1.379 . S
C445 N443 1.356 . S
N446 C438 1.356 . S
N446 H452 0.984 . S
N446 H453 0.984 . S
N447 C440 1.356 . S
N447 H450 0.984 . S
N447 H451 0.985 . S
H448 N443 0.984 . S
H449 N443 0.985 . S
H450 N447 0.984 . S
H451 N447 0.985 . S
H452 N446 0.984 . S
H453 N446 0.984 . S
H454 N442 0.984 . S
H455 N442 0.985 . S
C456 C457 1.363 . S
C456 C462 1.379 . S
C456 N464 1.356 . S
C457 C456 1.363 . S
C457 C463 1.363 1_455 S
C458 C459 1.363 . S
C458 C463 1.379 . S
C458 N465 1.356 . S
C459 C458 1.363 . S
C459 C462 1.363 1_655 S
N460 C462 1.356 . S
N460 H472 0.984 . S
N460 H473 0.985 . S
N461 C463 1.356 . S
N461 H466 0.984 . S
N461 H467 0.985 . S
C462 C456 1.379 . S
C462 C459 1.363 1_455 S
C462 N460 1.356 . S
C463 C457 1.363 1_655 S
C463 C458 1.379 . S
C463 N461 1.356 . S
N464 C456 1.356 . S
N464 H470 0.984 . S
N464 H471 0.984 . S
N465 C458 1.356 . S
N465 H468 0.984 . S
N465 H469 0.985 . S
H466 N461 0.984 . S
H467 N461 0.985 . S
H468 N465 0.984 . S
H469 N465 0.985 . S
H470 N464 0.984 . S
H471 N464 0.984 . S
H472 N460 0.984 . S
H473 N460 0.985 . S
C474 C475 1.363 . S
C474 C480 1.379 1_554 S
C474 N482 1.356 . S
C475 C474 1.363 . S
C475 C481 1.363 1_565 S
C476 C477 1.363 1_554 S
C476 C481 1.379 . S
C476 N483 1.356 1_554 S
C477 C476 1.363 1_556 S
C477 C480 1.363 1_545 S
N478 C480 1.356 . S
N478 H490 0.984 . S
N478 H491 0.985 . S
N479 C481 1.356 . S
N479 H484 0.984 . S
N479 H485 0.985 . S
C480 C474 1.379 1_556 S
C480 C477 1.363 1_565 S
C480 N478 1.356 . S
C481 C475 1.363 1_545 S
C481 C476 1.379 . S
C481 N479 1.356 . S
N482 C474 1.356 . S
N482 H488 0.984 . S
N482 H489 0.984 . S
N483 C476 1.356 1_556 S
N483 H486 0.984 . S
N483 H487 0.985 . S
H484 N479 0.984 . S
H485 N479 0.985 . S
H486 N483 0.984 . S
H487 N483 0.985 . S
H488 N482 0.984 . S
H489 N482 0.984 . S
H490 N478 0.984 . S
H491 N478 0.985 . S
C492 C493 1.363 . S
C492 C498 1.379 1_655 S
C492 N500 1.356 . S
C493 C492 1.363 . S
C493 C499 1.363 . S
C494 C495 1.363 . S
C494 C499 1.379 1_455 S
C494 N501 1.356 . S
C495 C494 1.363 . S
C495 C498 1.363 . S
N496 C498 1.356 . S
N496 H508 0.984 . S
N496 H509 0.985 . S
N497 C499 1.356 . S
N497 H502 0.984 . S
N497 H503 0.985 . S
C498 C492 1.379 1_455 S
C498 C495 1.363 . S
C498 N496 1.356 . S
C499 C493 1.363 . S
C499 C494 1.379 1_655 S
C499 N497 1.356 . S
N500 C492 1.356 . S
N500 H506 0.984 . S
N500 H507 0.984 . S
N501 C494 1.356 . S
N501 H504 0.984 . S
N501 H505 0.985 . S
H502 N497 0.984 . S
H503 N497 0.985 . S
H504 N501 0.984 . S
H505 N501 0.985 . S
H506 N500 0.984 . S
H507 N500 0.984 . S
H508 N496 0.984 . S
H509 N496 0.985 . S
C510 C511 1.363 . S
C510 C516 1.379 1_545 S
C510 N518 1.356 . S
C511 C510 1.363 . S
C511 C517 1.363 . S
C512 C513 1.363 . S
C512 C517 1.379 1_565 S
C512 N519 1.356 . S
C513 C512 1.363 . S
C513 C516 1.363 . S
N514 C516 1.356 . S
N514 H526 0.984 . S
N514 H527 0.985 . S
N515 C517 1.356 . S
N515 H520 0.984 . S
N515 H521 0.985 . S
C516 C510 1.379 1_565 S
C516 C513 1.363 . S
C516 N514 1.356 . S
C517 C511 1.363 . S
C517 C512 1.379 1_545 S
C517 N515 1.356 . S
N518 C510 1.356 . S
N518 H524 0.984 . S
N518 H525 0.984 . S
N519 C512 1.356 . S
N519 H522 0.984 . S
N519 H523 0.985 . S
H520 N515 0.984 . S
H521 N515 0.985 . S
H522 N519 0.984 . S
H523 N519 0.985 . S
H524 N518 0.984 . S
H525 N518 0.984 . S
H526 N514 0.984 . S
H527 N514 0.985 . S
C528 C529 1.363 . S
C528 C534 1.379 . S
C528 N536 1.356 . S
C529 C528 1.363 . S
C529 C535 1.363 . S
C530 C531 1.363 . S
C530 C535 1.379 . S
C530 N537 1.356 . S
C531 C530 1.363 . S
C531 C534 1.363 . S
N532 C534 1.356 . S
N532 H544 0.984 . S
N532 H545 0.985 . S
N533 C535 1.356 . S
N533 H538 0.984 . S
N533 H539 0.985 . S
C534 C528 1.379 . S
C534 C531 1.363 . S
C534 N532 1.356 . S
C535 C529 1.363 . S
C535 C530 1.379 . S
C535 N533 1.356 . S
N536 C528 1.356 . S
N536 H542 0.984 . S
N536 H543 0.984 . S
N537 C530 1.356 . S
N537 H540 0.984 . S
N537 H541 0.985 . S
H538 N533 0.984 . S
H539 N533 0.985 . S
H540 N537 0.984 . S
H541 N537 0.985 . S
H542 N536 0.984 . S
H543 N536 0.984 . S
H544 N532 0.984 . S
H545 N532 0.985 . S
C546 C547 1.363 . S
C546 C552 1.379 1_655 S
C546 N554 1.356 . S
C547 C546 1.363 . S
C547 C553 1.363 . S
C548 C549 1.363 . S
C548 C553 1.379 1_455 S
C548 N555 1.356 . S
C549 C548 1.363 . S
C549 C552 1.363 . S
N550 C552 1.356 . S
N550 H562 0.984 . S
N550 H563 0.985 . S
N551 C553 1.356 . S
N551 H556 0.984 . S
N551 H557 0.985 . S
C552 C546 1.379 1_455 S
C552 C549 1.363 . S
C552 N550 1.356 . S
C553 C547 1.363 . S
C553 C548 1.379 1_655 S
C553 N551 1.356 . S
N554 C546 1.356 . S
N554 H560 0.984 . S
N554 H561 0.984 . S
N555 C548 1.356 . S
N555 H558 0.984 . S
N555 H559 0.985 . S
H556 N551 0.984 . S
H557 N551 0.985 . S
H558 N555 0.984 . S
H559 N555 0.985 . S
H560 N554 0.984 . S
H561 N554 0.984 . S
H562 N550 0.984 . S
H563 N550 0.985 . S
C564 C565 1.363 . S
C564 C570 1.379 1_565 S
C564 N572 1.356 . S
C565 C564 1.363 . S
C565 C571 1.363 . S
C566 C567 1.363 . S
C566 C571 1.379 1_545 S
C566 N573 1.356 . S
C567 C566 1.363 . S
C567 C570 1.363 . S
N568 C570 1.356 . S
N568 H580 0.984 . S
N568 H581 0.985 . S
N569 C571 1.356 . S
N569 H574 0.984 . S
N569 H575 0.985 . S
C570 C564 1.379 1_545 S
C570 C567 1.363 . S
C570 N568 1.356 . S
C571 C565 1.363 . S
C571 C566 1.379 1_565 S
C571 N569 1.356 . S
N572 C564 1.356 . S
N572 H578 0.984 . S
N572 H579 0.984 . S
N573 C566 1.356 . S
N573 H576 0.984 . S
N573 H577 0.985 . S
H574 N569 0.984 . S
H575 N569 0.985 . S
H576 N573 0.984 . S
H577 N573 0.985 . S
H578 N572 0.984 . S
H579 N572 0.984 . S
H580 N568 0.984 . S
H581 N568 0.985 . S
C582 C583 1.363 . S
C582 C588 1.379 . S
C582 N590 1.356 . S
C583 C582 1.363 . S
C583 C589 1.363 . S
C584 C585 1.363 . S
C584 C589 1.379 . S
C584 N591 1.356 . S
C585 C584 1.363 . S
C585 C588 1.363 . S
N586 C588 1.356 . S
N586 H598 0.984 . S
N586 H599 0.985 . S
N587 C589 1.356 . S
N587 H592 0.984 . S
N587 H593 0.985 . S
C588 C582 1.379 . S
C588 C585 1.363 . S
C588 N586 1.356 . S
C589 C583 1.363 . S
C589 C584 1.379 . S
C589 N587 1.356 . S
N590 C582 1.356 . S
N590 H596 0.984 . S
N590 H597 0.984 . S
N591 C584 1.356 . S
N591 H594 0.984 . S
N591 H595 0.985 . S
H592 N587 0.984 . S
H593 N587 0.985 . S
H594 N591 0.984 . S
H595 N591 0.985 . S
H596 N590 0.984 . S
H597 N590 0.984 . S
H598 N586 0.984 . S
H599 N586 0.985 . S
C169 C120 2.032 . S
C171 C8 2.032 . S
C187 C22 2.032 . S
C189 C134 2.032 . S
C205 C36 2.032 . S
C207 C148 2.032 . S
C223 C50 2.032 . S
C225 C162 2.032 . S
C241 C92 2.032 . S
C243 C64 2.032 . S
C259 C78 2.032 . S
C261 C106 2.032 . S
C277 C51 0.932 . S
C279 C9 0.932 . S
C295 C65 0.932 . S
C297 C23 0.932 . S
C313 C79 0.932 . S
C315 C37 0.932 . S
C331 C93 0.932 . S
C333 C135 0.932 . S
C349 C107 0.932 . S
C351 C149 0.932 . S
C367 C121 0.932 . S
C369 C163 0.932 . S
C385 C7 1.507 . S
C387 C133 1.507 . S
C403 C21 1.507 . S
C405 C147 1.507 . S
C421 C35 1.507 . S
C423 C161 1.507 . S
C439 C91 1.507 . S
C441 C49 1.507 . S
C457 C63 1.507 . S
C459 C105 1.507 . S
C475 C119 1.507 . S
C477 C77 1.507 . S
C493 C160 1.386 . S
C495 C6 1.386 . S
C511 C20 1.386 . S
C513 C90 1.386 . S
C529 C104 1.386 . S
C531 C34 1.386 . S
C547 C48 1.386 . S
C549 C118 1.386 . S
C565 C62 1.386 . S
C567 C132 1.386 . S
C583 C146 1.386 . S
C585 C76 1.386 . S
