# Generated by pormake.
# Topology sxg, (6)-cn, num edge types: 1
# Building blocks:
#     Node 0, Type 0, BuildingBlock: UKALOJ_clean_sbu_0, # of connection points: 6
#     Node 1, Type 0, BuildingBlock: UKALOJ_clean_sbu_0, # of connection points: 6
#     Node 2, Type 0, BuildingBlock: UKALOJ_clean_sbu_0, # of connection points: 6
#     Node 3, Type 0, BuildingBlock: UKALOJ_clean_sbu_0, # of connection points: 6
#     Node 4, Type 0, BuildingBlock: UKALOJ_clean_sbu_0, # of connection points: 6
#     Node 5, Type 0, BuildingBlock: UKALOJ_clean_sbu_0, # of connection points: 6
#     Node 6, Type 0, BuildingBlock: UKALOJ_clean_sbu_0, # of connection points: 6
#     Node 7, Type 0, BuildingBlock: UKALOJ_clean_sbu_0, # of connection points: 6
#     Node 8, Type 0, BuildingBlock: UKALOJ_clean_sbu_0, # of connection points: 6
#     Node 9, Type 0, BuildingBlock: UKALOJ_clean_sbu_0, # of connection points: 6
#     Node 10, Type 0, BuildingBlock: UKALOJ_clean_sbu_0, # of connection points: 6
#     Node 11, Type 0, BuildingBlock: UKALOJ_clean_sbu_0, # of connection points: 6
#     Node 12, Type 0, BuildingBlock: UKALOJ_clean_sbu_0, # of connection points: 6
#     Node 13, Type 0, BuildingBlock: UKALOJ_clean_sbu_0, # of connection points: 6
#     Node 14, Type 0, BuildingBlock: UKALOJ_clean_sbu_0, # of connection points: 6
#     Node 15, Type 0, BuildingBlock: UKALOJ_clean_sbu_0, # of connection points: 6
#     Node 16, Type 0, BuildingBlock: UKALOJ_clean_sbu_0, # of connection points: 6
#     Node 17, Type 0, BuildingBlock: UKALOJ_clean_sbu_0, # of connection points: 6
#     Node 18, Type 0, BuildingBlock: UKALOJ_clean_sbu_0, # of connection points: 6
#     Node 19, Type 0, BuildingBlock: UKALOJ_clean_sbu_0, # of connection points: 6
#     Node 20, Type 0, BuildingBlock: UKALOJ_clean_sbu_0, # of connection points: 6
#     Node 21, Type 0, BuildingBlock: UKALOJ_clean_sbu_0, # of connection points: 6
#     Node 22, Type 0, BuildingBlock: UKALOJ_clean_sbu_0, # of connection points: 6
#     Node 23, Type 0, BuildingBlock: UKALOJ_clean_sbu_0, # of connection points: 6
#     Edge 24, Type (0, 0), BuildingBlock: XUDNAN_clean_linker_2, # of connection points: 2
#     Edge 25, Type (0, 0), BuildingBlock: XUDNAN_clean_linker_2, # of connection points: 2
#     Edge 26, Type (0, 0), BuildingBlock: XUDNAN_clean_linker_2, # of connection points: 2
#     Edge 27, Type (0, 0), BuildingBlock: XUDNAN_clean_linker_2, # of connection points: 2
#     Edge 28, Type (0, 0), BuildingBlock: XUDNAN_clean_linker_2, # of connection points: 2
#     Edge 29, Type (0, 0), BuildingBlock: XUDNAN_clean_linker_2, # of connection points: 2
#     Edge 30, Type (0, 0), BuildingBlock: XUDNAN_clean_linker_2, # of connection points: 2
#     Edge 31, Type (0, 0), BuildingBlock: XUDNAN_clean_linker_2, # of connection points: 2
#     Edge 32, Type (0, 0), BuildingBlock: XUDNAN_clean_linker_2, # of connection points: 2
#     Edge 33, Type (0, 0), BuildingBlock: XUDNAN_clean_linker_2, # of connection points: 2
#     Edge 34, Type (0, 0), BuildingBlock: XUDNAN_clean_linker_2, # of connection points: 2
#     Edge 35, Type (0, 0), BuildingBlock: XUDNAN_clean_linker_2, # of connection points: 2
#     Edge 36, Type (0, 0), BuildingBlock: XUDNAN_clean_linker_2, # of connection points: 2
#     Edge 37, Type (0, 0), BuildingBlock: XUDNAN_clean_linker_2, # of connection points: 2
#     Edge 38, Type (0, 0), BuildingBlock: XUDNAN_clean_linker_2, # of connection points: 2
#     Edge 39, Type (0, 0), BuildingBlock: XUDNAN_clean_linker_2, # of connection points: 2
#     Edge 40, Type (0, 0), BuildingBlock: XUDNAN_clean_linker_2, # of connection points: 2
#     Edge 41, Type (0, 0), BuildingBlock: XUDNAN_clean_linker_2, # of connection points: 2
#     Edge 42, Type (0, 0), BuildingBlock: XUDNAN_clean_linker_2, # of connection points: 2
#     Edge 43, Type (0, 0), BuildingBlock: XUDNAN_clean_linker_2, # of connection points: 2
#     Edge 44, Type (0, 0), BuildingBlock: XUDNAN_clean_linker_2, # of connection points: 2
#     Edge 45, Type (0, 0), BuildingBlock: XUDNAN_clean_linker_2, # of connection points: 2
#     Edge 46, Type (0, 0), BuildingBlock: XUDNAN_clean_linker_2, # of connection points: 2
#     Edge 47, Type (0, 0), BuildingBlock: XUDNAN_clean_linker_2, # of connection points: 2
#     Edge 48, Type (0, 0), BuildingBlock: XUDNAN_clean_linker_2, # of connection points: 2
#     Edge 49, Type (0, 0), BuildingBlock: XUDNAN_clean_linker_2, # of connection points: 2
#     Edge 50, Type (0, 0), BuildingBlock: XUDNAN_clean_linker_2, # of connection points: 2
#     Edge 51, Type (0, 0), BuildingBlock: XUDNAN_clean_linker_2, # of connection points: 2
#     Edge 52, Type (0, 0), BuildingBlock: XUDNAN_clean_linker_2, # of connection points: 2
#     Edge 53, Type (0, 0), BuildingBlock: XUDNAN_clean_linker_2, # of connection points: 2
#     Edge 54, Type (0, 0), BuildingBlock: XUDNAN_clean_linker_2, # of connection points: 2
#     Edge 55, Type (0, 0), BuildingBlock: XUDNAN_clean_linker_2, # of connection points: 2
#     Edge 56, Type (0, 0), BuildingBlock: XUDNAN_clean_linker_2, # of connection points: 2
#     Edge 57, Type (0, 0), BuildingBlock: XUDNAN_clean_linker_2, # of connection points: 2
#     Edge 58, Type (0, 0), BuildingBlock: XUDNAN_clean_linker_2, # of connection points: 2
#     Edge 59, Type (0, 0), BuildingBlock: XUDNAN_clean_linker_2, # of connection points: 2
#     Edge 60, Type (0, 0), BuildingBlock: XUDNAN_clean_linker_2, # of connection points: 2
#     Edge 61, Type (0, 0), BuildingBlock: XUDNAN_clean_linker_2, # of connection points: 2
#     Edge 62, Type (0, 0), BuildingBlock: XUDNAN_clean_linker_2, # of connection points: 2
#     Edge 63, Type (0, 0), BuildingBlock: XUDNAN_clean_linker_2, # of connection points: 2
#     Edge 64, Type (0, 0), BuildingBlock: XUDNAN_clean_linker_2, # of connection points: 2
#     Edge 65, Type (0, 0), BuildingBlock: XUDNAN_clean_linker_2, # of connection points: 2
#     Edge 66, Type (0, 0), BuildingBlock: XUDNAN_clean_linker_2, # of connection points: 2
#     Edge 67, Type (0, 0), BuildingBlock: XUDNAN_clean_linker_2, # of connection points: 2
#     Edge 68, Type (0, 0), BuildingBlock: XUDNAN_clean_linker_2, # of connection points: 2
#     Edge 69, Type (0, 0), BuildingBlock: XUDNAN_clean_linker_2, # of connection points: 2
#     Edge 70, Type (0, 0), BuildingBlock: XUDNAN_clean_linker_2, # of connection points: 2
#     Edge 71, Type (0, 0), BuildingBlock: XUDNAN_clean_linker_2, # of connection points: 2
#     Edge 72, Type (0, 0), BuildingBlock: XUDNAN_clean_linker_2, # of connection points: 2
#     Edge 73, Type (0, 0), BuildingBlock: XUDNAN_clean_linker_2, # of connection points: 2
#     Edge 74, Type (0, 0), BuildingBlock: XUDNAN_clean_linker_2, # of connection points: 2
#     Edge 75, Type (0, 0), BuildingBlock: XUDNAN_clean_linker_2, # of connection points: 2
#     Edge 76, Type (0, 0), BuildingBlock: XUDNAN_clean_linker_2, # of connection points: 2
#     Edge 77, Type (0, 0), BuildingBlock: XUDNAN_clean_linker_2, # of connection points: 2
#     Edge 78, Type (0, 0), BuildingBlock: XUDNAN_clean_linker_2, # of connection points: 2
#     Edge 79, Type (0, 0), BuildingBlock: XUDNAN_clean_linker_2, # of connection points: 2
#     Edge 80, Type (0, 0), BuildingBlock: XUDNAN_clean_linker_2, # of connection points: 2
#     Edge 81, Type (0, 0), BuildingBlock: XUDNAN_clean_linker_2, # of connection points: 2
#     Edge 82, Type (0, 0), BuildingBlock: XUDNAN_clean_linker_2, # of connection points: 2
#     Edge 83, Type (0, 0), BuildingBlock: XUDNAN_clean_linker_2, # of connection points: 2
#     Edge 84, Type (0, 0), BuildingBlock: XUDNAN_clean_linker_2, # of connection points: 2
#     Edge 85, Type (0, 0), BuildingBlock: XUDNAN_clean_linker_2, # of connection points: 2
#     Edge 86, Type (0, 0), BuildingBlock: XUDNAN_clean_linker_2, # of connection points: 2
#     Edge 87, Type (0, 0), BuildingBlock: XUDNAN_clean_linker_2, # of connection points: 2
#     Edge 88, Type (0, 0), BuildingBlock: XUDNAN_clean_linker_2, # of connection points: 2
#     Edge 89, Type (0, 0), BuildingBlock: XUDNAN_clean_linker_2, # of connection points: 2
#     Edge 90, Type (0, 0), BuildingBlock: XUDNAN_clean_linker_2, # of connection points: 2
#     Edge 91, Type (0, 0), BuildingBlock: XUDNAN_clean_linker_2, # of connection points: 2
#     Edge 92, Type (0, 0), BuildingBlock: XUDNAN_clean_linker_2, # of connection points: 2
#     Edge 93, Type (0, 0), BuildingBlock: XUDNAN_clean_linker_2, # of connection points: 2
#     Edge 94, Type (0, 0), BuildingBlock: XUDNAN_clean_linker_2, # of connection points: 2
#     Edge 95, Type (0, 0), BuildingBlock: XUDNAN_clean_linker_2, # of connection points: 2
# Relax obj value: 0.294
# Max RMSD: 0.283
# Mean RMSD: 0.283
data_MOF--net-sxg--node1-UKALOJ_clean_sbu_0--edge1-XUDNAN_clean_linker_2
_symmetry_space_group_name_H-M    P1
_symmetry_Int_Tables_number       1
_symmetry_cell_setting            triclinic
loop_
_symmetry_equiv_pos_as_xyz
'x, y, z'
_cell_length_a     47.716232
_cell_length_b     47.731291
_cell_length_c     47.735269
_cell_angle_alpha  89.979911
_cell_angle_beta   90.003036
_cell_angle_gamma 90.016739
loop_
_atom_site_label
_atom_site_type_symbol
_atom_site_fract_x
_atom_site_fract_y
_atom_site_fract_z
_atom_type_partial_charge
Zn0 Zn 0.01948 0.26214 0.19726 0.0
O1 O 0.98951 0.25696 0.22801 0.0
C2 C 0.00403 0.32338 0.1929 0.0
Zn3 Zn 0.04386 0.29018 0.22549 0.0
C4 C 0.98993 0.2706 0.25081 0.0
O5 O 0.01034 0.2871 0.25593 0.0
C6 C 0.07246 0.27982 0.17024 0.0
O7 O 0.0624 0.25469 0.24256 0.0
O8 O 0.04171 0.22563 0.21332 0.0
N9 N 0.06607 0.31656 0.25119 0.0
C10 C 0.09375 0.322 0.25216 0.0
C11 C 0.07301 0.35584 0.27245 0.0
N12 N 0.05324 0.33742 0.26422 0.0
N13 N 0.09869 0.34686 0.26487 0.0
C14 C 0.97179 0.24527 0.15685 0.0
C15 C 0.99317 0.21754 0.1294 0.0
N16 N 0.99654 0.23885 0.16904 0.0
N17 N 0.00948 0.22107 0.15217 0.0
N18 N 0.9694 0.23272 0.13158 0.0
H19 H 0.95552 0.27123 0.19047 0.0
H20 H 0.92964 0.25589 0.16822 0.0
H21 H 0.95 0.28454 0.15522 0.0
C22 C 0.95077 0.26551 0.16854 0.0
C23 C 0.11599 0.30227 0.24196 0.0
H24 H 0.10899 0.28025 0.24411 0.0
H25 H 0.13569 0.30535 0.25394 0.0
H26 H 0.12042 0.30626 0.21959 0.0
O27 O 0.07658 0.29202 0.19363 0.0
O28 O 0.04959 0.26697 0.16632 0.0
C29 C 0.05843 0.22986 0.23383 0.0
O30 O 0.99811 0.29934 0.18318 0.0
O31 O 0.02449 0.32577 0.20955 0.0
Zn32 Zn 0.48067 0.72401 0.69803 0.0
O33 O 0.51302 0.72686 0.72847 0.0
C34 C 0.49426 0.66204 0.69228 0.0
Zn35 Zn 0.45616 0.69538 0.72577 0.0
C36 C 0.5113 0.71159 0.75027 0.0
O37 O 0.48959 0.69669 0.75444 0.0
C38 C 0.42556 0.70733 0.67307 0.0
O39 O 0.43884 0.73119 0.74371 0.0
O40 O 0.46046 0.76071 0.71567 0.0
N41 N 0.43391 0.66954 0.75176 0.0
C42 C 0.40605 0.66559 0.75407 0.0
C43 C 0.42601 0.63054 0.77316 0.0
N44 N 0.44628 0.64793 0.76399 0.0
N45 N 0.40049 0.64093 0.76692 0.0
C46 C 0.5271 0.74111 0.65533 0.0
C47 C 0.50523 0.77103 0.63068 0.0
N48 N 0.50306 0.74729 0.66903 0.0
N49 N 0.48983 0.76633 0.65386 0.0
N50 N 0.5287 0.75524 0.63074 0.0
H51 H 0.54321 0.71205 0.68644 0.0
H52 H 0.569 0.73134 0.66787 0.0
H53 H 0.55116 0.70348 0.65009 0.0
C54 C 0.54856 0.72058 0.66559 0.0
C55 C 0.38441 0.68661 0.74513 0.0
H56 H 0.39234 0.70821 0.7479 0.0
H57 H 0.36491 0.68405 0.75756 0.0
H58 H 0.37924 0.68373 0.7227 0.0
O59 O 0.42366 0.69398 0.69598 0.0
O60 O 0.44765 0.72124 0.66794 0.0
C61 C 0.44344 0.7562 0.73586 0.0
O62 O 0.50027 0.6861 0.68252 0.0
O63 O 0.47391 0.65979 0.70905 0.0
Zn64 Zn 0.54957 0.20193 0.77301 0.0
O65 O 0.56689 0.23948 0.75864 0.0
C66 C 0.57887 0.21072 0.82655 0.0
Zn67 Zn 0.52377 0.22862 0.80122 0.0
C68 C 0.56082 0.26401 0.76706 0.0
O69 O 0.54272 0.26714 0.78655 0.0
C70 C 0.51181 0.16579 0.80359 0.0
O71 O 0.49156 0.23255 0.77047 0.0
O72 O 0.51715 0.20538 0.74363 0.0
N73 N 0.49997 0.24792 0.83174 0.0
C74 C 0.47476 0.2395 0.8415 0.0
C75 C 0.49511 0.26106 0.87476 0.0
N76 N 0.51238 0.26169 0.85239 0.0
N77 N 0.47148 0.24685 0.86864 0.0
C78 C 0.59971 0.17486 0.7414 0.0
C79 C 0.57817 0.14914 0.71194 0.0
N80 N 0.57206 0.17962 0.74461 0.0
N81 N 0.55876 0.16378 0.72614 0.0
N82 N 0.60407 0.15558 0.72116 0.0
H83 H 0.61537 0.21187 0.76188 0.0
H84 H 0.64182 0.19106 0.74442 0.0
H85 H 0.62669 0.17925 0.77693 0.0
C86 C 0.62224 0.19024 0.75695 0.0
C87 C 0.45247 0.22565 0.82407 0.0
H88 H 0.45172 0.23516 0.80294 0.0
H89 H 0.43158 0.22824 0.83397 0.0
H90 H 0.45658 0.20295 0.82186 0.0
O91 O 0.50523 0.18933 0.81409 0.0
O92 O 0.53166 0.16458 0.7861 0.0
C93 C 0.4947 0.219 0.74776 0.0
O94 O 0.5814 0.19809 0.8033 0.0
O95 O 0.55674 0.22469 0.83141 0.0
Zn96 Zn 0.95052 0.80165 0.27069 0.0
O97 O 0.93347 0.76284 0.25567 0.0
C98 C 0.92884 0.78887 0.32712 0.0
Zn99 Zn 0.98286 0.77788 0.29486 0.0
C100 C 0.94401 0.7397 0.26389 0.0
O101 O 0.96465 0.73996 0.28083 0.0
C102 C 0.99129 0.83979 0.29835 0.0
O103 O 0.01148 0.77652 0.26121 0.0
O104 O 0.98078 0.80182 0.23776 0.0
N105 N 0.00939 0.75643 0.32153 0.0
C106 C 0.03295 0.76481 0.33483 0.0
C107 C 0.0161 0.73085 0.35815 0.0
N108 N 0.99934 0.73489 0.33581 0.0
N109 N 0.03736 0.74948 0.35825 0.0
C110 C 0.89616 0.8298 0.24798 0.0
C111 C 0.91344 0.86347 0.22438 0.0
N112 N 0.92408 0.82569 0.24674 0.0
N113 N 0.93469 0.84644 0.23172 0.0
N114 N 0.88892 0.85382 0.2346 0.0
H115 H 0.88456 0.7876 0.25889 0.0
H116 H 0.85547 0.81027 0.24983 0.0
H117 H 0.87307 0.81394 0.28296 0.0
C118 C 0.8761 0.80916 0.26052 0.0
C119 C 0.05066 0.78905 0.32578 0.0
H120 H 0.04774 0.79296 0.3031 0.0
H121 H 0.07314 0.78468 0.32941 0.0
H122 H 0.04498 0.80792 0.33811 0.0
O123 O 0.00095 0.81654 0.30682 0.0
O124 O 0.96841 0.84005 0.28483 0.0
C125 C 0.00465 0.78995 0.23921 0.0
O126 O 0.92113 0.8009 0.30463 0.0
O127 O 0.95354 0.77903 0.32856 0.0
Zn128 Zn 0.23049 0.04692 0.30861 0.0
O129 O 0.24785 0.06568 0.27287 0.0
C130 C 0.17768 0.07455 0.29558 0.0
Zn131 Zn 0.20638 0.01988 0.27907 0.0
C132 C 0.2417 0.05992 0.2476 0.0
O133 O 0.2236 0.04083 0.24258 0.0
C134 C 0.19906 0.00651 0.34115 0.0
O135 O 0.23796 0.98835 0.27688 0.0
O136 O 0.26063 0.01487 0.30687 0.0
N137 N 0.17812 0.99681 0.25547 0.0
C138 C 0.16402 0.97311 0.26211 0.0
C139 C 0.14021 0.99428 0.23101 0.0
N140 N 0.16347 0.00958 0.2357 0.0
N141 N 0.13977 0.97129 0.24747 0.0
C142 C 0.2599 0.0965 0.33955 0.0
C143 C 0.2878 0.07412 0.36629 0.0
N144 N 0.25676 0.06901 0.33392 0.0
N145 N 0.27422 0.0552 0.35046 0.0
N146 N 0.27918 0.10024 0.35997 0.0
H147 H 0.24156 0.11318 0.30188 0.0
H148 H 0.25783 0.13904 0.32432 0.0
H149 H 0.22468 0.12359 0.33388 0.0
C150 C 0.24527 0.11947 0.32393 0.0
C151 C 0.17309 0.95277 0.28425 0.0
H152 H 0.19547 0.95578 0.28953 0.0
H153 H 0.17064 0.93099 0.27676 0.0
H154 H 0.15983 0.95536 0.30318 0.0
O155 O 0.19155 0.99959 0.31657 0.0
O156 O 0.21418 0.02802 0.34443 0.0
C157 C 0.25901 0.99234 0.2928 0.0
O158 O 0.19956 0.07815 0.31028 0.0
O159 O 0.175 0.05211 0.28148 0.0
Zn160 Zn 0.30604 0.97141 0.77191 0.0
O161 O 0.2773 0.00372 0.76569 0.0
C162 C 0.30453 0.98437 0.83476 0.0
Zn163 Zn 0.27372 0.94874 0.79699 0.0
C164 C 0.2531 0.00378 0.77666 0.0
O165 O 0.24524 0.98293 0.79132 0.0
C166 C 0.32783 0.91672 0.79071 0.0
O167 O 0.26091 0.93181 0.75882 0.0
O168 O 0.29254 0.95275 0.73254 0.0
N169 N 0.24326 0.92679 0.81788 0.0
C170 C 0.23961 0.89915 0.82252 0.0
C171 C 0.21131 0.92095 0.84925 0.0
N172 N 0.22532 0.94025 0.83417 0.0
N173 N 0.2198 0.89492 0.84237 0.0
C174 C 0.34837 0.01948 0.76289 0.0
C175 C 0.37954 1.00041 0.73746 0.0
N176 N 0.33779 0.99474 0.75405 0.0
N177 N 0.35714 0.9831 0.73791 0.0
N178 N 0.37449 0.02341 0.75298 0.0
H179 H 0.31153 0.03581 0.78421 0.0
H180 H 0.33804 0.0613 0.77557 0.0
H181 H 0.34383 0.0375 0.80374 0.0
C182 C 0.3343 0.03947 0.78267 0.0
C183 C 0.25732 0.87672 0.80948 0.0
H184 H 0.26574 0.8838 0.78904 0.0
H185 H 0.24522 0.85737 0.8057 0.0
H186 H 0.27485 0.87152 0.82383 0.0
O187 O 0.30382 0.91552 0.8023 0.0
O188 O 0.33458 0.93852 0.77717 0.0
C189 C 0.27134 0.9365 0.73477 0.0
O190 O 0.31753 0.98937 0.81205 0.0
O191 O 0.28528 0.96619 0.83484 0.0
Zn192 Zn 0.70108 0.47918 0.73706 0.0
O193 O 0.73176 0.51034 0.7446 0.0
C194 C 0.6971 0.49951 0.67583 0.0
Zn195 Zn 0.72702 0.4565 0.70569 0.0
C196 C 0.75267 0.50977 0.72814 0.0
O197 O 0.75556 0.48949 0.7112 0.0
C198 C 0.67464 0.42602 0.71374 0.0
O199 O 0.74319 0.43542 0.74152 0.0
O200 O 0.71546 0.45579 0.77227 0.0
N201 N 0.75544 0.43745 0.68006 0.0
C202 C 0.76013 0.41051 0.6731 0.0
C203 C 0.7855 0.4358 0.64636 0.0
N204 N 0.77145 0.45308 0.66363 0.0
N205 N 0.77891 0.40896 0.65197 0.0
C206 C 0.66383 0.52723 0.75534 0.0
C207 C 0.62606 0.50539 0.76412 0.0
N208 N 0.67072 0.50016 0.75945 0.0
N209 N 0.6472 0.48675 0.76551 0.0
N210 N 0.63579 0.53099 0.75717 0.0
H211 H 0.70005 0.54833 0.77114 0.0
H212 H 0.67479 0.57134 0.75503 0.0
H213 H 0.69699 0.54895 0.734 0.0
C214 C 0.68491 0.55047 0.75362 0.0
C215 C 0.74416 0.38622 0.68503 0.0
H216 H 0.73794 0.39059 0.70697 0.0
H217 H 0.75664 0.36671 0.68457 0.0
H218 H 0.725 0.38279 0.6723 0.0
O219 O 0.69726 0.42428 0.69985 0.0
O220 O 0.67072 0.4471 0.72945 0.0
C221 C 0.73493 0.43833 0.76676 0.0
O222 O 0.68863 0.50323 0.70086 0.0
O223 O 0.71194 0.47819 0.67044 0.0
Zn224 Zn 0.7774 0.55265 0.19869 0.0
O225 O 0.76742 0.57171 0.23684 0.0
C226 C 0.83429 0.57547 0.20803 0.0
Zn227 Zn 0.80259 0.5236 0.22522 0.0
C228 C 0.77591 0.56477 0.2611 0.0
O229 O 0.79177 0.54349 0.26406 0.0
C230 C 0.80236 0.51087 0.16265 0.0
O231 O 0.76833 0.49581 0.22933 0.0
O232 O 0.74376 0.52405 0.20241 0.0
N233 N 0.83011 0.49594 0.24352 0.0
C234 C 0.83564 0.46953 0.23502 0.0
C235 C 0.87276 0.4853 0.254 0.0
N236 N 0.85313 0.50553 0.25566 0.0
N237 N 0.86255 0.46259 0.24062 0.0
C238 C 0.75488 0.59254 0.15303 0.0
C239 C 0.71859 0.61036 0.17207 0.0
N240 N 0.75218 0.5807 0.17849 0.0
N241 N 0.72966 0.59183 0.19035 0.0
N242 N 0.73404 0.61103 0.1485 0.0
H243 H 0.78277 0.60597 0.11996 0.0
H244 H 0.77324 0.56952 0.11931 0.0
H245 H 0.79815 0.58195 0.1447 0.0
C246 C 0.77874 0.58731 0.13323 0.0
C247 C 0.81395 0.44971 0.22368 0.0
H248 H 0.79434 0.4516 0.23594 0.0
H249 H 0.82118 0.42768 0.22517 0.0
H250 H 0.8092 0.45457 0.2015 0.0
O251 O 0.81259 0.5043 0.18629 0.0
O252 O 0.78689 0.53236 0.16076 0.0
C253 C 0.74587 0.50126 0.21609 0.0
O254 O 0.81157 0.58128 0.19546 0.0
O255 O 0.83637 0.55227 0.22091 0.0
Zn256 Zn 0.28111 0.19502 0.02912 0.0
O257 O 0.2783 0.2222 0.99442 0.0
C258 C 0.34228 0.19943 0.01912 0.0
Zn259 Zn 0.30032 0.22951 0.05388 0.0
C260 C 0.28486 0.24793 0.99625 0.0
O261 O 0.29312 0.25768 0.01964 0.0
C262 C 0.29631 0.176 0.08652 0.0
O263 O 0.26084 0.23953 0.07107 0.0
O264 O 0.24069 0.20838 0.04347 0.0
N265 N 0.32015 0.26095 0.0753 0.0
C266 C 0.32675 0.26457 0.10255 0.0
C267 C 0.34974 0.29481 0.07916 0.0
N268 N 0.33427 0.27996 0.06089 0.0
N269 N 0.34571 0.28549 0.10552 0.0
C270 C 0.27373 0.15257 0.98109 0.0
C271 C 0.25471 0.11793 0.00172 0.0
N272 N 0.26548 0.16161 0.00658 0.0
N273 N 0.25342 0.14006 0.01926 0.0
N274 N 0.2677 0.12514 0.97771 0.0
H275 H 0.27049 0.1885 0.95486 0.0
H276 H 0.28818 0.15993 0.9385 0.0
H277 H 0.30578 0.18024 0.96518 0.0
C278 C 0.28546 0.17118 0.95862 0.0
C279 C 0.31313 0.2489 0.12608 0.0
H280 H 0.29147 0.24277 0.12024 0.0
H281 H 0.31256 0.26192 0.14533 0.0
H282 H 0.32522 0.22961 0.13054 0.0
O283 O 0.30717 0.20035 0.08754 0.0
O284 O 0.28398 0.16831 0.06429 0.0
C285 C 0.23876 0.22754 0.06208 0.0
O286 O 0.32163 0.18319 0.01502 0.0
O287 O 0.33935 0.22004 0.03558 0.0
Zn288 Zn 0.77373 0.29385 0.98162 0.0
O289 O 0.77121 0.26233 0.01324 0.0
C290 C 0.83609 0.2987 0.9932 0.0
Zn291 Zn 0.80098 0.26685 0.95523 0.0
C292 C 0.78657 0.24072 0.01022 0.0
O293 O 0.80047 0.23759 0.98776 0.0
C294 C 0.78946 0.31999 0.92607 0.0
O295 O 0.76393 0.24986 0.93902 0.0
O296 O 0.73601 0.27838 0.96219 0.0
N297 N 0.8254 0.24059 0.93221 0.0
C298 C 0.82911 0.23884 0.90432 0.0
C299 C 0.86402 0.2189 0.92365 0.0
N300 N 0.84688 0.22777 0.94419 0.0
N301 N 0.85359 0.22587 0.89835 0.0
C302 C 0.75979 0.33175 0.03165 0.0
C303 C 0.74087 0.36649 0.0112 0.0
N304 N 0.75295 0.32327 0.00556 0.0
N305 N 0.74072 0.34483 0.99308 0.0
N306 N 0.75321 0.35904 0.03549 0.0
H307 H 0.75892 0.29279 0.05408 0.0
H308 H 0.76882 0.32244 0.07508 0.0
H309 H 0.79313 0.30788 0.05019 0.0
C310 C 0.77085 0.31271 0.05408 0.0
C311 C 0.80784 0.2481 0.88307 0.0
H312 H 0.78634 0.24497 0.89122 0.0
H313 H 0.81034 0.23614 0.86329 0.0
H314 H 0.81045 0.27066 0.87836 0.0
O315 O 0.8019 0.29672 0.92316 0.0
O316 O 0.77669 0.32503 0.94889 0.0
C317 C 0.73933 0.25841 0.94469 0.0
O318 O 0.81215 0.30721 0.00113 0.0
O319 O 0.83782 0.28311 0.97189 0.0
Zn320 Zn 0.72461 0.70093 0.47507 0.0
O321 O 0.73026 0.73088 0.50643 0.0
C322 C 0.66269 0.70433 0.48488 0.0
Zn323 Zn 0.7044 0.7353 0.45029 0.0
C324 C 0.7203 0.75552 0.50595 0.0
O325 O 0.70706 0.764 0.4844 0.0
C326 C 0.71227 0.68082 0.41867 0.0
O327 O 0.74447 0.74829 0.4354 0.0
O328 O 0.76424 0.71297 0.45777 0.0
N329 N 0.68239 0.76399 0.42648 0.0
C330 C 0.67904 0.76568 0.39847 0.0
C331 C 0.64395 0.78581 0.41707 0.0
N332 N 0.66073 0.77696 0.43795 0.0
N333 N 0.65454 0.7786 0.39188 0.0
C334 C 0.73673 0.66335 0.52714 0.0
C335 C 0.7601 0.62961 0.50969 0.0
N336 N 0.74212 0.67004 0.50013 0.0
N337 N 0.75684 0.64909 0.48945 0.0
N338 N 0.74769 0.63798 0.53366 0.0
H339 H 0.70778 0.69747 0.53561 0.0
H340 H 0.73262 0.69097 0.56223 0.0
H341 H 0.70347 0.66731 0.55756 0.0
C342 C 0.71897 0.68067 0.54651 0.0
C343 C 0.70099 0.75672 0.37797 0.0
H344 H 0.7221 0.75791 0.38755 0.0
H345 H 0.70038 0.77011 0.35897 0.0
H346 H 0.69708 0.73477 0.37178 0.0
O347 O 0.70332 0.70589 0.41705 0.0
O348 O 0.72024 0.67133 0.4422 0.0
C349 C 0.76635 0.73424 0.44163 0.0
O350 O 0.68433 0.6908 0.49233 0.0
O351 O 0.66487 0.72246 0.46566 0.0
Zn352 Zn 0.20065 0.76823 0.54936 0.0
O353 O 0.23727 0.75411 0.56876 0.0
C354 C 0.21121 0.82277 0.57504 0.0
Zn355 Zn 0.22818 0.79341 0.52102 0.0
C356 C 0.262 0.76082 0.56142 0.0
O357 O 0.2656 0.77813 0.54133 0.0
C358 C 0.1659 0.79728 0.5084 0.0
O359 O 0.23129 0.76103 0.49044 0.0
O360 O 0.20513 0.73639 0.51925 0.0
N361 N 0.25027 0.82172 0.49666 0.0
C362 C 0.24269 0.8345 0.47254 0.0
C363 C 0.2728 0.86063 0.49226 0.0
N364 N 0.26949 0.8378 0.50854 0.0
N365 N 0.25606 0.8593 0.46951 0.0
C366 C 0.16943 0.7402 0.59992 0.0
C367 C 0.14639 0.7085 0.57853 0.0
N368 N 0.17667 0.74149 0.57264 0.0
N369 N 0.16244 0.72165 0.55949 0.0
N370 N 0.15022 0.71976 0.60411 0.0
H371 H 0.2047 0.76221 0.61726 0.0
H372 H 0.18135 0.74703 0.643 0.0
H373 H 0.17112 0.778 0.62389 0.0
C374 C 0.18247 0.75777 0.62241 0.0
C375 C 0.22071 0.82378 0.45288 0.0
H376 H 0.21675 0.80121 0.45651 0.0
H377 H 0.22764 0.82642 0.4309 0.0
H378 H 0.20115 0.83605 0.45563 0.0
O379 O 0.18984 0.80657 0.50134 0.0
O380 O 0.16393 0.78139 0.52953 0.0
C381 C 0.21864 0.73831 0.49641 0.0
O382 O 0.19698 0.80063 0.57903 0.0
O383 O 0.22537 0.82534 0.55262 0.0
Zn384 Zn 0.95022 0.7056 0.77713 0.0
O385 O 0.93527 0.74258 0.75837 0.0
C386 C 0.92667 0.72281 0.83132 0.0
Zn387 Zn 0.97966 0.73385 0.7991 0.0
C388 C 0.94192 0.76745 0.76533 0.0
O389 O 0.96032 0.77137 0.7843 0.0
C390 C 0.98843 0.67082 0.80785 0.0
O391 O 0.00739 0.7352 0.76479 0.0
O392 O 0.98202 0.70188 0.74599 0.0
N393 N 0.00777 0.75516 0.82397 0.0
C394 C 0.03462 0.7486 0.83007 0.0
C395 C 0.02057 0.77702 0.86138 0.0
N396 N 0.99925 0.77319 0.84323 0.0
N397 N 0.0431 0.76175 0.85373 0.0
C398 C 0.89688 0.67624 0.75214 0.0
C399 C 0.91579 0.65185 0.71987 0.0
N400 N 0.92457 0.68197 0.75238 0.0
N401 N 0.93616 0.66687 0.73221 0.0
N402 N 0.89094 0.65729 0.73202 0.0
H403 H 0.88098 0.71276 0.77302 0.0
H404 H 0.8543 0.68865 0.76122 0.0
H405 H 0.87554 0.68006 0.79124 0.0
C406 C 0.87561 0.69031 0.77038 0.0
C407 C 0.05182 0.72746 0.81428 0.0
H408 H 0.04028 0.71749 0.79712 0.0
H409 H 0.07001 0.73809 0.80452 0.0
H410 H 0.05966 0.71103 0.82875 0.0
O411 O 0.99838 0.69507 0.81249 0.0
O412 O 0.96528 0.6686 0.7951 0.0
C413 C 0.00379 0.71719 0.74562 0.0
O414 O 0.91971 0.7097 0.80921 0.0
O415 O 0.95115 0.73314 0.83313 0.0
Zn416 Zn 0.51717 0.28269 0.30127 0.0
O417 O 0.4867 0.27924 0.26976 0.0
C418 C 0.50888 0.34498 0.30324 0.0
Zn419 Zn 0.54844 0.3066 0.27593 0.0
C420 C 0.49224 0.29272 0.2475 0.0
O421 O 0.51582 0.30498 0.24499 0.0
C422 C 0.57231 0.29665 0.33093 0.0
O423 O 0.56523 0.26798 0.26169 0.0
O424 O 0.53543 0.24426 0.28777 0.0
N425 N 0.57244 0.32892 0.2483 0.0
C426 C 0.59969 0.3364 0.24688 0.0
C427 C 0.57816 0.35825 0.21445 0.0
N428 N 0.55924 0.34243 0.228 0.0
N429 N 0.60376 0.35508 0.2259 0.0
C430 C 0.46911 0.27084 0.344 0.0
C431 C 0.48741 0.23827 0.36827 0.0
N432 N 0.49242 0.26232 0.33037 0.0
N433 N 0.5034 0.24169 0.34527 0.0
N434 N 0.46575 0.25643 0.3682 0.0
H435 H 0.45329 0.29791 0.31172 0.0
H436 H 0.42851 0.29002 0.33857 0.0
H437 H 0.4565 0.31386 0.34622 0.0
C438 C 0.45087 0.29456 0.33455 0.0
C439 C 0.62225 0.32404 0.26485 0.0
H440 H 0.61737 0.30181 0.26962 0.0
H441 H 0.6429 0.32521 0.25424 0.0
H442 H 0.6234 0.33578 0.28487 0.0
O443 O 0.57954 0.30788 0.30788 0.0
O444 O 0.54794 0.28616 0.33314 0.0
C445 C 0.55567 0.24463 0.27032 0.0
O446 O 0.49934 0.32186 0.31227 0.0
O447 O 0.53146 0.34508 0.28929 0.0
Zn448 Zn 0.44729 0.79504 0.23355 0.0
O449 O 0.4318 0.75541 0.24451 0.0
C450 C 0.41445 0.78894 0.1801 0.0
Zn451 Zn 0.47169 0.77502 0.19908 0.0
C452 C 0.43995 0.73313 0.23247 0.0
O453 O 0.45768 0.7346 0.21254 0.0
C454 C 0.47982 0.83708 0.20255 0.0
O455 O 0.50597 0.77198 0.22642 0.0
O456 O 0.4822 0.79011 0.2615 0.0
N457 N 0.49452 0.75786 0.16669 0.0
C458 C 0.51756 0.76718 0.15309 0.0
C459 C 0.49955 0.73493 0.12812 0.0
N460 N 0.48367 0.7375 0.15131 0.0
N461 N 0.52099 0.75334 0.12859 0.0
C462 C 0.40466 0.83386 0.2632 0.0
C463 C 0.40661 0.8205 0.30576 0.0
N464 N 0.42357 0.8129 0.26452 0.0
N465 N 0.42472 0.8046 0.29098 0.0
N466 N 0.39351 0.83876 0.28867 0.0
H467 H 0.37841 0.84324 0.22818 0.0
H468 H 0.39549 0.87321 0.24303 0.0
H469 H 0.41495 0.84911 0.22153 0.0
C470 C 0.39829 0.85081 0.23747 0.0
C471 C 0.53511 0.79148 0.16259 0.0
H472 H 0.53187 0.79591 0.1851 0.0
H473 H 0.55765 0.78706 0.15964 0.0
H474 H 0.5298 0.81023 0.14992 0.0
O475 O 0.48499 0.81605 0.18709 0.0
O476 O 0.46363 0.8342 0.22336 0.0
C477 C 0.5049 0.77989 0.25182 0.0
O478 O 0.41315 0.79917 0.20467 0.0
O479 O 0.43703 0.77753 0.172 0.0
Zn480 Zn 0.0539 0.20064 0.73106 0.0
O481 O 0.07133 0.2397 0.74198 0.0
C482 C 0.07926 0.20362 0.67437 0.0
Zn483 Zn 0.02588 0.22244 0.70085 0.0
C484 C 0.06443 0.26218 0.72945 0.0
O485 O 0.04623 0.26139 0.70986 0.0
C486 C 0.01387 0.16103 0.70579 0.0
O487 O 0.99735 0.2314 0.73157 0.0
O488 O 0.02135 0.20642 0.76205 0.0
N489 N 0.00124 0.23995 0.67006 0.0
C490 C 0.97608 0.23125 0.66052 0.0
C491 C 0.99456 0.25576 0.62819 0.0
N492 N 0.01252 0.25551 0.65003 0.0
N493 N 0.97165 0.24036 0.63411 0.0
C494 C 0.10639 0.17653 0.76045 0.0
C495 C 0.0887 0.14194 0.78232 0.0
N496 N 0.07832 0.17924 0.75912 0.0
N497 N 0.06739 0.15797 0.77315 0.0
N498 N 0.11354 0.1528 0.7743 0.0
H499 H 0.11801 0.21954 0.75376 0.0
H500 H 0.14696 0.19658 0.76135 0.0
H501 H 0.13024 0.19576 0.72751 0.0
C502 C 0.12661 0.19833 0.75023 0.0
C503 C 0.95523 0.21473 0.67731 0.0
H504 H 0.95815 0.21817 0.70003 0.0
H505 H 0.93358 0.22078 0.67132 0.0
H506 H 0.95765 0.19212 0.67288 0.0
O507 O 0.00538 0.18344 0.69432 0.0
O508 O 0.03584 0.16165 0.72063 0.0
C509 C 0.99991 0.22119 0.75596 0.0
O510 O 0.08539 0.19591 0.69913 0.0
O511 O 0.05522 0.21378 0.6696 0.0
Zn512 Zn 0.77208 0.95752 0.70184 0.0
O513 O 0.75383 0.94122 0.73819 0.0
C514 C 0.82479 0.92748 0.71512 0.0
Zn515 Zn 0.79959 0.98282 0.72986 0.0
C516 C 0.76112 0.94748 0.76302 0.0
O517 O 0.78111 0.96481 0.76688 0.0
C518 C 0.80695 0.99426 0.66787 0.0
O519 O 0.76915 0.01559 0.73035 0.0
O520 O 0.74317 0.99018 0.70189 0.0
N521 N 0.8278 0.00588 0.75298 0.0
C522 C 0.84182 0.0295 0.74612 0.0
C523 C 0.86528 0.00901 0.77796 0.0
N524 N 0.84217 0.99351 0.77321 0.0
N525 N 0.86584 0.03167 0.76106 0.0
C526 C 0.74388 0.90626 0.67399 0.0
C527 C 0.72531 0.92479 0.6379 0.0
N528 N 0.74655 0.93424 0.67659 0.0
N529 N 0.73465 0.94573 0.65433 0.0
N530 N 0.7311 0.8997 0.64953 0.0
H531 H 0.74912 0.89443 0.71729 0.0
H532 H 0.73998 0.86599 0.69428 0.0
H533 H 0.77489 0.88039 0.69397 0.0
C534 C 0.75237 0.88558 0.69614 0.0
C535 C 0.83294 0.04953 0.72358 0.0
H536 H 0.81167 0.0448 0.71572 0.0
H537 H 0.83235 0.07111 0.73206 0.0
H538 H 0.84836 0.04913 0.7062 0.0
O539 O 0.81662 1.00035 0.69191 0.0
O540 O 0.78909 0.9748 0.66579 0.0
C541 C 0.74728 0.01279 0.71532 0.0
O542 O 0.80213 0.92541 0.70139 0.0
O543 O 0.82954 0.9496 0.72911 0.0
Zn544 Zn 0.6923 0.029 0.22911 0.0
O545 O 0.72201 0.999 0.23878 0.0
C546 C 0.70085 0.0196 0.16721 0.0
Zn547 Zn 0.72396 0.05702 0.20971 0.0
C548 C 0.74687 0.00138 0.22966 0.0
O549 O 0.75392 0.02327 0.21599 0.0
C550 C 0.668 0.08401 0.21126 0.0
O551 O 0.7321 0.07247 0.24997 0.0
O552 O 0.69865 0.0474 0.26941 0.0
N553 N 0.7545 0.08252 0.19396 0.0
C554 C 0.75344 0.10169 0.17324 0.0
C555 C 0.79557 0.1005 0.18804 0.0
N556 N 0.78067 0.08187 0.20321 0.0
N557 N 0.77885 0.11345 0.16934 0.0
C558 C 0.65011 0.98012 0.2329 0.0
C559 C 0.61774 0.99771 0.25803 0.0
N560 N 0.66001 0.00442 0.24338 0.0
N561 N 0.63995 0.01516 0.25926 0.0
N562 N 0.62345 0.97572 0.24129 0.0
H563 H 0.68955 0.96214 0.21982 0.0
H564 H 0.66023 0.93812 0.21997 0.0
H565 H 0.66319 0.96403 0.19299 0.0
C566 C 0.66686 0.95997 0.21553 0.0
C567 C 0.72804 0.10766 0.15563 0.0
H568 H 0.71733 0.12655 0.16393 0.0
H569 H 0.73413 0.11186 0.13359 0.0
H570 H 0.71299 0.0901 0.15593 0.0
O571 O 0.69325 0.08979 0.205 0.0
O572 O 0.66217 0.0596 0.21991 0.0
C573 C 0.7182 0.06549 0.27156 0.0
O574 O 0.68801 0.01072 0.18873 0.0
O575 O 0.71643 0.04098 0.16926 0.0
Zn576 Zn 0.29742 0.52035 0.26458 0.0
O577 O 0.26618 0.49106 0.25864 0.0
C578 C 0.29928 0.50435 0.32596 0.0
Zn579 Zn 0.26954 0.54551 0.29231 0.0
C580 C 0.24263 0.49286 0.27089 0.0
O581 O 0.23762 0.5136 0.28704 0.0
C582 C 0.32569 0.57207 0.28406 0.0
O583 O 0.25544 0.56528 0.2565 0.0
O584 O 0.2829 0.54248 0.22753 0.0
N585 N 0.24321 0.57025 0.3154 0.0
C586 C 0.24647 0.58132 0.34116 0.0
C587 C 0.20861 0.59807 0.32433 0.0
N588 N 0.21966 0.58068 0.30497 0.0
N589 N 0.22507 0.59865 0.3472 0.0
C590 C 0.33931 0.47357 0.24869 0.0
C591 C 0.36531 0.49526 0.21978 0.0
N592 N 0.32593 0.4975 0.2417 0.0
N593 N 0.34189 0.51059 0.2232 0.0
N594 N 0.36456 0.47198 0.23584 0.0
H595 H 0.30606 0.45673 0.27466 0.0
H596 H 0.32825 0.43129 0.25898 0.0
H597 H 0.34156 0.45141 0.28776 0.0
C598 C 0.32807 0.45226 0.26887 0.0
C599 C 0.27128 0.57646 0.35987 0.0
H600 H 0.27437 0.59427 0.37449 0.0
H601 H 0.26758 0.55727 0.37246 0.0
H602 H 0.29064 0.57352 0.34747 0.0
O603 O 0.30237 0.57687 0.29612 0.0
O604 O 0.32871 0.54964 0.27032 0.0
C605 C 0.26359 0.5605 0.23171 0.0
O606 O 0.31008 0.49902 0.30223 0.0
O607 O 0.28232 0.5246 0.32815 0.0
Zn608 Zn 0.22678 0.44719 0.80482 0.0
O609 O 0.23591 0.43026 0.76509 0.0
C610 C 0.16995 0.4218 0.80246 0.0
Zn611 Zn 0.19559 0.47631 0.78561 0.0
C612 C 0.22268 0.43844 0.74344 0.0
O613 O 0.20384 0.45726 0.74584 0.0
C614 C 0.203 0.48594 0.84695 0.0
O615 O 0.22562 0.50592 0.77699 0.0
O616 O 0.2575 0.48006 0.79802 0.0
N617 N 0.1644 0.50084 0.7686 0.0
C618 C 0.15229 0.52481 0.77753 0.0
C619 C 0.12499 0.5067 0.7473 0.0
N620 N 0.14757 0.48993 0.74946 0.0
N621 N 0.12734 0.5288 0.76471 0.0
C622 C 0.25817 0.39518 0.82999 0.0
C623 C 0.28991 0.41561 0.85384 0.0
N624 N 0.25673 0.42279 0.82396 0.0
N625 N 0.27675 0.43531 0.83854 0.0
N626 N 0.27872 0.39019 0.84887 0.0
H627 H 0.2305 0.37943 0.79813 0.0
H628 H 0.24722 0.35263 0.81859 0.0
H629 H 0.21956 0.37284 0.83388 0.0
C630 C 0.23777 0.37376 0.81946 0.0
C631 C 0.16374 0.543 0.80043 0.0
H632 H 0.18688 0.54117 0.8014 0.0
H633 H 0.15839 0.56527 0.7969 0.0
H634 H 0.15445 0.53657 0.82075 0.0
O635 O 0.18991 0.49497 0.82564 0.0
O636 O 0.21833 0.46441 0.8446 0.0
C637 C 0.25068 0.50245 0.7851 0.0
O638 O 0.19479 0.41575 0.81 0.0
O639 O 0.16485 0.44626 0.79352 0.0
Zn640 Zn 0.72024 0.80794 0.97762 0.0
O641 O 0.72528 0.77615 0.00856 0.0
C642 C 0.65861 0.8033 0.98639 0.0
Zn643 Zn 0.70001 0.77922 0.94687 0.0
C644 C 0.71804 0.75164 0.0009 0.0
O645 O 0.70797 0.74793 0.97656 0.0
C646 C 0.70288 0.83502 0.92264 0.0
O647 O 0.73951 0.77111 0.92828 0.0
O648 O 0.75985 0.79731 0.96025 0.0
N649 N 0.68093 0.74993 0.92232 0.0
C650 C 0.6748 0.74846 0.89479 0.0
C651 C 0.65505 0.71374 0.91473 0.0
N652 N 0.66879 0.72822 0.93458 0.0
N653 N 0.6583 0.72602 0.88952 0.0
C654 C 0.72985 0.85193 0.02554 0.0
C655 C 0.76432 0.87481 0.00888 0.0
N656 N 0.73873 0.8381 0.00249 0.0
N657 N 0.76045 0.85217 0.99251 0.0
N658 N 0.74539 0.87526 0.02982 0.0
H659 H 0.70192 0.82068 0.04183 0.0
H660 H 0.70661 0.85018 0.06451 0.0
H661 H 0.68578 0.85411 0.03358 0.0
C662 C 0.70463 0.84373 0.04237 0.0
C663 C 0.68638 0.76799 0.87311 0.0
H664 H 0.70766 0.77509 0.87923 0.0
H665 H 0.68743 0.75758 0.85235 0.0
H666 H 0.67263 0.78664 0.87142 0.0
O667 O 0.69248 0.81104 0.9178 0.0
O668 O 0.71543 0.83942 0.94574 0.0
C669 C 0.76172 0.78122 0.93905 0.0
O670 O 0.68009 0.81662 0.99468 0.0
O671 O 0.66077 0.78663 0.96584 0.0
Zn672 Zn 0.22855 0.69872 0.01858 0.0
O673 O 0.23493 0.72761 0.98619 0.0
C674 C 0.16909 0.69305 0.99728 0.0
Zn675 Zn 0.19757 0.72653 0.04012 0.0
C676 C 0.22102 0.75031 0.98651 0.0
O677 O 0.2048 0.75576 0.00699 0.0
C678 C 0.20549 0.67405 0.07159 0.0
O679 O 0.23095 0.74359 0.06268 0.0
O680 O 0.26242 0.71671 0.04246 0.0
N681 N 0.16979 0.75362 0.05842 0.0
C682 C 0.16182 0.75769 0.08524 0.0
C683 C 0.13543 0.7829 0.05954 0.0
N684 N 0.15343 0.76942 0.04254 0.0
N685 N 0.14004 0.77581 0.08649 0.0
C686 C 0.25217 0.65473 0.97665 0.0
C687 C 0.2775 0.63011 0.00367 0.0
N688 N 0.25484 0.66909 0.00086 0.0
N689 N 0.27118 0.65396 0.01737 0.0
N690 N 0.26551 0.62968 0.97805 0.0
H691 H 0.227 0.68597 0.95585 0.0
H692 H 0.25026 0.66721 0.93377 0.0
H693 H 0.21938 0.64972 0.94647 0.0
C694 C 0.23597 0.66505 0.95194 0.0
C695 C 0.17638 0.74505 0.11003 0.0
H696 H 0.19875 0.74107 0.1053 0.0
H697 H 0.17486 0.75908 0.12849 0.0
H698 H 0.16637 0.72475 0.11527 0.0
O699 O 0.19106 0.69641 0.0724 0.0
O700 O 0.22185 0.66992 0.0511 0.0
C701 C 0.25631 0.73596 0.05998 0.0
O702 O 0.19364 0.68283 0.99495 0.0
O703 O 0.16424 0.71037 0.01677 0.0
Zn704 Zn 0.27172 0.30141 0.52334 0.0
O705 O 0.26973 0.26937 0.49359 0.0
C706 C 0.33414 0.30746 0.51491 0.0
Zn707 Zn 0.29745 0.27774 0.55402 0.0
C708 C 0.28539 0.2485 0.49845 0.0
O709 O 0.29863 0.24709 0.52149 0.0
C710 C 0.28349 0.33136 0.57876 0.0
O711 O 0.25935 0.26087 0.56977 0.0
O712 O 0.23392 0.28671 0.54111 0.0
N713 N 0.32084 0.25127 0.57797 0.0
C714 C 0.3268 0.24873 0.60549 0.0
C715 C 0.35186 0.21901 0.58356 0.0
N716 N 0.33637 0.23268 0.56451 0.0
N717 N 0.34643 0.22865 0.6095 0.0
C718 C 0.25792 0.33478 0.47038 0.0
C719 C 0.24103 0.37215 0.48772 0.0
N720 N 0.25182 0.32938 0.49743 0.0
N721 N 0.24087 0.35255 0.50803 0.0
N722 N 0.2521 0.36172 0.46393 0.0
H723 H 0.25197 0.29512 0.45042 0.0
H724 H 0.26719 0.32115 0.42796 0.0
H725 H 0.28783 0.3048 0.45525 0.0
C726 C 0.26691 0.31292 0.44968 0.0
C727 C 0.31223 0.26475 0.62818 0.0
H728 H 0.29013 0.26881 0.62219 0.0
H729 H 0.31272 0.253 0.64824 0.0
H730 H 0.32292 0.28518 0.63115 0.0
O731 O 0.29608 0.30893 0.58561 0.0
O732 O 0.27343 0.33357 0.55421 0.0
C733 C 0.23546 0.26859 0.56068 0.0
O734 O 0.31035 0.31423 0.50509 0.0
O735 O 0.33528 0.294 0.53779 0.0
Zn736 Zn 0.79225 0.23653 0.45443 0.0
O737 O 0.75356 0.25063 0.43878 0.0
C738 C 0.77883 0.18015 0.43059 0.0
Zn739 Zn 0.77038 0.20891 0.485 0.0
C740 C 0.73062 0.24244 0.44968 0.0
O741 O 0.73112 0.22527 0.47024 0.0
C742 C 0.83189 0.20489 0.49056 0.0
O743 O 0.77294 0.23998 0.5153 0.0
O744 O 0.7923 0.26915 0.48531 0.0
N745 N 0.75206 0.18104 0.51217 0.0
C746 C 0.76324 0.1724 0.53666 0.0
C747 C 0.74059 0.138 0.51966 0.0
N748 N 0.73761 0.15972 0.50189 0.0
N749 N 0.75714 0.14513 0.54143 0.0
C750 C 0.81808 0.26092 0.39997 0.0
C751 C 0.85279 0.28345 0.4166 0.0
N752 N 0.8151 0.26139 0.42802 0.0
N753 N 0.83646 0.27579 0.43826 0.0
N754 N 0.84205 0.27408 0.39221 0.0
H755 H 0.77514 0.25192 0.38947 0.0
H756 H 0.79727 0.26042 0.35987 0.0
H757 H 0.80004 0.2269 0.37696 0.0
C758 C 0.79635 0.24949 0.38038 0.0
C759 C 0.77736 0.19159 0.5572 0.0
H760 H 0.76579 0.21168 0.55836 0.0
H761 H 0.77765 0.18233 0.57851 0.0
H762 H 0.79915 0.19605 0.55055 0.0
O763 O 0.8094 0.19358 0.49889 0.0
O764 O 0.83088 0.22304 0.47124 0.0
C765 C 0.78369 0.26368 0.50995 0.0
O766 O 0.79159 0.20265 0.42398 0.0
O767 O 0.7684 0.17795 0.45482 0.0
H768 H 0.11703 0.38513 0.30295 0.0
H769 H 0.1332 0.35174 0.22003 0.0
H770 H 0.17212 0.38446 0.21407 0.0
H771 H 0.12833 0.45633 0.2832 0.0
H772 H 0.14473 0.46679 0.31557 0.0
H773 H 0.11971 0.43851 0.31538 0.0
H774 H 0.15631 0.40533 0.3381 0.0
H775 H 0.18099 0.43387 0.33886 0.0
H776 H 0.19026 0.4014 0.32197 0.0
H777 H 0.20768 0.42115 0.21555 0.0
H778 H 0.23919 0.46078 0.22454 0.0
H779 H 0.19951 0.4744 0.30531 0.0
C780 C 0.12928 0.38437 0.28388 0.0
C781 C 0.12302 0.36463 0.26264 0.0
C782 C 0.13869 0.36506 0.23743 0.0
C783 C 0.16057 0.38408 0.23358 0.0
C784 C 0.16624 0.40309 0.25486 0.0
C785 C 0.15114 0.4036 0.27952 0.0
C786 C 0.16085 0.42753 0.29819 0.0
C787 C 0.13698 0.44853 0.30338 0.0
C788 C 0.17282 0.41634 0.32592 0.0
C789 C 0.18368 0.44026 0.28001 0.0
C790 C 0.18632 0.42562 0.25518 0.0
C791 C 0.2059 0.43282 0.2349 0.0
C792 C 0.22369 0.45538 0.24023 0.0
C793 C 0.22174 0.4707 0.26557 0.0
C794 C 0.20122 0.46325 0.28563 0.0
H795 H 0.29794 0.51791 0.81493 0.0
H796 H 0.24942 0.53684 0.74032 0.0
H797 H 0.28159 0.57541 0.72896 0.0
H798 H 0.3128 0.59024 0.83274 0.0
H799 H 0.3479 0.58347 0.8449 0.0
H800 H 0.32155 0.55655 0.84745 0.0
H801 H 0.35298 0.52249 0.81934 0.0
H802 H 0.37961 0.54915 0.81694 0.0
H803 H 0.36617 0.53304 0.78554 0.0
H804 H 0.3194 0.60969 0.72391 0.0
H805 H 0.36093 0.63956 0.72598 0.0
H806 H 0.38404 0.60277 0.80581 0.0
C807 C 0.29436 0.53008 0.79612 0.0
C808 C 0.27133 0.52437 0.7784 0.0
C809 C 0.26693 0.54093 0.75418 0.0
C810 C 0.28506 0.56289 0.74753 0.0
C811 C 0.30733 0.56827 0.7655 0.0
C812 C 0.31212 0.55253 0.78933 0.0
C813 C 0.33761 0.56331 0.80502 0.0
C814 C 0.32946 0.57403 0.83427 0.0
C815 C 0.36045 0.54065 0.8068 0.0
C816 C 0.34644 0.58724 0.786 0.0
C817 C 0.32859 0.58956 0.76336 0.0
C818 C 0.33309 0.60877 0.74196 0.0
C819 C 0.35655 0.62615 0.74363 0.0
C820 C 0.37495 0.62483 0.76691 0.0
C821 C 0.36981 0.60491 0.78828 0.0
H822 H 0.64542 0.13757 0.75614 0.0
H823 H 0.61759 0.13726 0.66974 0.0
H824 H 0.65493 0.10343 0.65795 0.0
H825 H 0.72294 0.12956 0.73995 0.0
H826 H 0.72799 0.10768 0.77033 0.0
H827 H 0.70198 0.13508 0.77089 0.0
H828 H 0.66429 0.09854 0.78459 0.0
H829 H 0.6899 0.07094 0.78346 0.0
H830 H 0.65865 0.0685 0.76238 0.0
H831 H 0.68821 0.06399 0.65767 0.0
H832 H 0.72064 0.02495 0.66713 0.0
H833 H 0.73044 0.05326 0.75286 0.0
C834 C 0.64814 0.13166 0.73446 0.0
C835 C 0.62906 0.14058 0.71363 0.0
C836 C 0.63227 0.13089 0.68582 0.0
C837 C 0.65338 0.11176 0.67898 0.0
C838 C 0.67133 0.1028 0.70016 0.0
C839 C 0.6694 0.11285 0.72722 0.0
C840 C 0.69 0.09816 0.74646 0.0
C841 C 0.71204 0.11886 0.75756 0.0
C842 C 0.67479 0.08315 0.77063 0.0
C843 C 0.70288 0.0774 0.72623 0.0
C844 C 0.69172 0.08051 0.69965 0.0
C845 C 0.69779 0.06189 0.67811 0.0
C846 C 0.716 0.03968 0.68374 0.0
C847 C 0.72819 0.03646 0.71056 0.0
C848 C 0.7218 0.05571 0.73202 0.0
H849 H 0.87068 0.89261 0.19726 0.0
H850 H 0.85175 0.85576 0.27819 0.0
H851 H 0.81244 0.88794 0.28388 0.0
H852 H 0.85992 0.96211 0.21955 0.0
H853 H 0.84475 0.97443 0.18724 0.0
H854 H 0.86909 0.94561 0.18684 0.0
H855 H 0.83251 0.91451 0.16152 0.0
H856 H 0.80818 0.94338 0.1615 0.0
H857 H 0.79814 0.91023 0.1766 0.0
H858 H 0.77691 0.92552 0.28267 0.0
H859 H 0.74697 0.96672 0.27445 0.0
H860 H 0.79067 0.98325 0.19642 0.0
C861 C 0.85775 0.89085 0.21581 0.0
C862 C 0.86365 0.87039 0.23652 0.0
C863 C 0.84687 0.8696 0.26104 0.0
C864 C 0.82465 0.88834 0.26478 0.0
C865 C 0.81971 0.90831 0.24415 0.0
C866 C 0.83574 0.90982 0.22014 0.0
C867 C 0.82721 0.9348 0.20233 0.0
C868 C 0.85171 0.95545 0.19879 0.0
C869 C 0.81583 0.92514 0.17379 0.0
C870 C 0.80415 0.94721 0.22035 0.0
C871 C 0.80007 0.93132 0.24422 0.0
C872 C 0.77986 0.93814 0.26407 0.0
C873 C 0.76303 0.96161 0.25924 0.0
C874 C 0.76671 0.97827 0.23496 0.0
C875 C 0.78774 0.97112 0.21538 0.0
H876 H 0.2484 0.22953 0.45891 0.0
H877 H 0.33377 0.22031 0.48876 0.0
H878 H 0.34306 0.18547 0.45167 0.0
H879 H 0.23743 0.1576 0.44659 0.0
H880 H 0.21593 0.16256 0.41593 0.0
H881 H 0.2172 0.18923 0.4425 0.0
H882 H 0.23205 0.22565 0.405 0.0
H883 H 0.23119 0.1989 0.37836 0.0
H884 H 0.26263 0.21912 0.38381 0.0
H885 H 0.34235 0.14985 0.41366 0.0
H886 H 0.33039 0.11235 0.38003 0.0
H887 H 0.24479 0.14248 0.37695 0.0
C888 C 0.26909 0.22031 0.45737 0.0
C889 C 0.29039 0.22743 0.47658 0.0
C890 C 0.31712 0.21482 0.47432 0.0
C891 C 0.32268 0.19528 0.45318 0.0
C892 C 0.30119 0.18847 0.43466 0.0
C893 C 0.27482 0.20033 0.43672 0.0
C894 C 0.25468 0.18727 0.41598 0.0
C895 C 0.22986 0.17333 0.43116 0.0
C896 C 0.24455 0.20904 0.39451 0.0
C897 C 0.27367 0.16577 0.40242 0.0
C898 C 0.30056 0.16729 0.41307 0.0
C899 C 0.32147 0.14866 0.4049 0.0
C900 C 0.31452 0.12747 0.38585 0.0
C901 C 0.28689 0.12494 0.37536 0.0
C902 C 0.26635 0.1446 0.38356 0.0
H903 H 0.22346 0.89218 0.89859 0.0
H904 H 0.20508 0.84263 0.82484 0.0
H905 H 0.20438 0.79965 0.85393 0.0
H906 H 0.26715 0.8449 0.93359 0.0
H907 H 0.2535 0.85175 0.96812 0.0
H908 H 0.25209 0.87858 0.94166 0.0
H909 H 0.19835 0.88289 0.94819 0.0
H910 H 0.19962 0.85635 0.97501 0.0
H911 H 0.17673 0.85204 0.94528 0.0
H912 H 0.21055 0.76202 0.89048 0.0
H913 H 0.21551 0.73276 0.93295 0.0
H914 H 0.22428 0.80753 0.98374 0.0
C915 C 0.21889 0.8723 0.88868 0.0
C916 C 0.21553 0.87041 0.85935 0.0
C917 C 0.20922 0.84421 0.84706 0.0
C918 C 0.20842 0.81982 0.86347 0.0
C919 C 0.21308 0.82227 0.8922 0.0
C920 C 0.2174 0.84794 0.90482 0.0
C921 C 0.22124 0.84498 0.93618 0.0
C922 C 0.25022 0.85568 0.94541 0.0
C923 C 0.19757 0.85995 0.9521 0.0
C924 C 0.21906 0.81351 0.93919 0.0
C925 C 0.21466 0.80078 0.91352 0.0
C926 C 0.2136 0.77176 0.91072 0.0
C927 C 0.21673 0.75535 0.93485 0.0
C928 C 0.22036 0.76804 0.96139 0.0
C929 C 0.22141 0.79745 0.96361 0.0
H930 H 0.77397 0.32035 0.51175 0.0
H931 H 0.80492 0.25024 0.5605 0.0
H932 H 0.81125 0.28116 0.60143 0.0
H933 H 0.81871 0.37501 0.54407 0.0
H934 H 0.79106 0.40073 0.54368 0.0
H935 H 0.79225 0.37391 0.51714 0.0
H936 H 0.74163 0.35892 0.52994 0.0
H937 H 0.74031 0.3856 0.55652 0.0
H938 H 0.73356 0.34957 0.56564 0.0
H939 H 0.81109 0.31857 0.6379 0.0
H940 H 0.80291 0.36018 0.66794 0.0
H941 H 0.77017 0.4054 0.59647 0.0
C942 C 0.78254 0.31179 0.53094 0.0
C943 C 0.78889 0.28306 0.53322 0.0
C944 C 0.79964 0.27223 0.55864 0.0
C945 C 0.80352 0.28964 0.58187 0.0
C946 C 0.79641 0.31778 0.57932 0.0
C947 C 0.78611 0.32884 0.55455 0.0
C948 C 0.7779 0.35925 0.55818 0.0
C949 C 0.79607 0.37836 0.53967 0.0
C950 C 0.74649 0.36357 0.55223 0.0
C951 C 0.78456 0.36328 0.58893 0.0
C952 C 0.79561 0.33923 0.60064 0.0
C953 C 0.8025 0.33757 0.62899 0.0
C954 C 0.79758 0.36106 0.64591 0.0
C955 C 0.78551 0.38551 0.63444 0.0
C956 C 0.77946 0.3868 0.60555 0.0
H957 H 0.72855 0.66738 0.14587 0.0
H958 H 0.72853 0.59159 0.09607 0.0
H959 H 0.72384 0.6198 0.05283 0.0
H960 H 0.67838 0.70703 0.10221 0.0
H961 H 0.69672 0.7397 0.10697 0.0
H962 H 0.69784 0.71334 0.13397 0.0
H963 H 0.75219 0.71445 0.13219 0.0
H964 H 0.75107 0.74042 0.10484 0.0
H965 H 0.76979 0.70808 0.09938 0.0
H966 H 0.72101 0.65548 0.0156 0.0
H967 H 0.71924 0.69709 0.98531 0.0
H968 H 0.72223 0.75091 0.05863 0.0
C969 C 0.72706 0.65692 0.1258 0.0
C970 C 0.72893 0.62748 0.12394 0.0
C971 C 0.7273 0.61419 0.09757 0.0
C972 C 0.72459 0.63001 0.07306 0.0
C973 C 0.72351 0.65906 0.07543 0.0
C974 C 0.72454 0.6725 0.10106 0.0
C975 C 0.72403 0.70409 0.09743 0.0
C976 C 0.69767 0.71678 0.11095 0.0
C977 C 0.75087 0.71754 0.10916 0.0
C978 C 0.72291 0.70622 0.06577 0.0
C979 C 0.72242 0.67993 0.05363 0.0
C980 C 0.7213 0.6762 0.02479 0.0
C981 C 0.72033 0.69999 0.00779 0.0
C982 C 0.7207 0.72722 0.01963 0.0
C983 C 0.72221 0.73035 0.04902 0.0
H984 H 0.36512 0.2516 0.14771 0.0
H985 H 0.368 0.3364 0.1152 0.0
H986 H 0.40504 0.34804 0.14941 0.0
H987 H 0.37702 0.27193 0.22285 0.0
H988 H 0.39728 0.24072 0.22929 0.0
H989 H 0.36918 0.24012 0.20404 0.0
H990 H 0.40391 0.22207 0.16649 0.0
H991 H 0.43226 0.22328 0.1913 0.0
H992 H 0.43496 0.24218 0.15871 0.0
H993 H 0.4462 0.34815 0.18182 0.0
H994 H 0.48402 0.33932 0.21603 0.0
H995 H 0.45125 0.25585 0.23088 0.0
C996 C 0.37228 0.27301 0.14863 0.0
C997 C 0.36303 0.29329 0.12905 0.0
C998 C 0.37454 0.32064 0.13015 0.0
C999 C 0.3956 0.32742 0.14947 0.0
C1000 C 0.40466 0.30673 0.16792 0.0
C1001 C 0.39288 0.2803 0.16821 0.0
C1002 C 0.40708 0.26163 0.18965 0.0
C1003 C 0.38641 0.25311 0.21284 0.0
C1004 C 0.42033 0.23577 0.17569 0.0
C1005 C 0.4293 0.28143 0.2007 0.0
C1006 C 0.42766 0.30726 0.18768 0.0
C1007 C 0.44734 0.32823 0.19259 0.0
C1008 C 0.46889 0.32292 0.21181 0.0
C1009 C 0.47042 0.29695 0.22606 0.0
C1010 C 0.4503 0.276 0.22048 0.0
H1011 H 0.89301 0.18883 0.88115 0.0
H1012 H 0.85473 0.26873 0.86081 0.0
H1013 H 0.88692 0.2745 0.82153 0.0
H1014 H 0.96239 0.2123 0.86968 0.0
H1015 H 0.97511 0.1799 0.85506 0.0
H1016 H 0.94647 0.17951 0.87963 0.0
H1017 H 0.91576 0.15286 0.84393 0.0
H1018 H 0.94412 0.15304 0.819 0.0
H1019 H 0.91044 0.16735 0.80948 0.0
H1020 H 0.92442 0.27381 0.78671 0.0
H1021 H 0.96538 0.26592 0.75655 0.0
H1022 H 0.98303 0.18811 0.80035 0.0
C1023 C 0.89099 0.20711 0.86787 0.0
C1024 C 0.87017 0.22751 0.87323 0.0
C1025 C 0.86894 0.2518 0.85617 0.0
C1026 C 0.88765 0.25561 0.83404 0.0
C1027 C 0.90798 0.23529 0.82955 0.0
C1028 C 0.90992 0.21151 0.8459 0.0
C1029 C 0.9351 0.19398 0.83756 0.0
C1030 C 0.956 0.19128 0.86194 0.0
C1031 C 0.9258 0.16508 0.82684 0.0
C1032 C 0.947 0.21183 0.81411 0.0
C1033 C 0.93083 0.23548 0.80992 0.0
C1034 C 0.93724 0.25534 0.78964 0.0
C1035 C 0.96058 0.25069 0.7727 0.0
C1036 C 0.97736 0.22648 0.77625 0.0
C1037 C 0.97071 0.20695 0.79747 0.0
H1038 H 0.5194 0.81015 0.29907 0.0
H1039 H 0.54787 0.74361 0.24397 0.0
H1040 H 0.59097 0.73883 0.27185 0.0
H1041 H 0.58842 0.84148 0.30943 0.0
H1042 H 0.58269 0.84992 0.34579 0.0
H1043 H 0.55352 0.84889 0.32185 0.0
H1044 H 0.52787 0.81289 0.35298 0.0
H1045 H 0.55644 0.81414 0.37759 0.0
H1046 H 0.54555 0.78105 0.363 0.0
H1047 H 0.62814 0.73779 0.30751 0.0
H1048 H 0.65855 0.74134 0.34797 0.0
H1049 H 0.61058 0.81236 0.37847 0.0
C1050 C 0.53471 0.79455 0.293 0.0
C1051 C 0.53022 0.77711 0.26945 0.0
C1052 C 0.55087 0.75718 0.26191 0.0
C1053 C 0.57546 0.75434 0.27757 0.0
C1054 C 0.57937 0.77187 0.30051 0.0
C1055 C 0.55977 0.79172 0.3082 0.0
C1056 C 0.56938 0.80763 0.33404 0.0
C1057 C 0.57378 0.83883 0.32736 0.0
C1058 C 0.54858 0.80368 0.35834 0.0
C1059 C 0.59708 0.79307 0.33994 0.0
C1060 C 0.60228 0.77256 0.32026 0.0
C1061 C 0.62496 0.75449 0.3225 0.0
C1062 C 0.64274 0.75716 0.34562 0.0
C1063 C 0.63847 0.77833 0.36608 0.0
C1064 C 0.61521 0.7966 0.36284 0.0
H1065 H 0.12822 0.75643 0.64194 0.0
H1066 H 0.13197 0.66863 0.61921 0.0
H1067 H 0.09609 0.65787 0.65499 0.0
H1068 H 0.11689 0.7445 0.71894 0.0
H1069 H 0.09389 0.77435 0.7214 0.0
H1070 H 0.12218 0.77433 0.69637 0.0
H1071 H 0.08654 0.78448 0.6567 0.0
H1072 H 0.05809 0.78388 0.68141 0.0
H1073 H 0.05745 0.76094 0.65143 0.0
H1074 H 0.05576 0.65778 0.68836 0.0
H1075 H 0.01679 0.66751 0.721 0.0
H1076 H 0.0413 0.75498 0.72424 0.0
C1077 C 0.12258 0.73478 0.6454 0.0
C1078 C 0.13339 0.71322 0.62825 0.0
C1079 C 0.12415 0.68534 0.63241 0.0
C1080 C 0.10382 0.67906 0.65263 0.0
C1081 C 0.09311 0.7009 0.6687 0.0
C1082 C 0.10254 0.72813 0.66574 0.0
C1083 C 0.0865 0.74796 0.68462 0.0
C1084 C 0.10603 0.76105 0.70664 0.0
C1085 C 0.07125 0.77064 0.66751 0.0
C1086 C 0.06598 0.72778 0.69795 0.0
C1087 C 0.07014 0.70074 0.68845 0.0
C1088 C 0.05256 0.67878 0.69628 0.0
C1089 C 0.03033 0.68455 0.71455 0.0
C1090 C 0.02608 0.71199 0.72496 0.0
C1091 C 0.04424 0.7338 0.71667 0.0
H1092 H 0.85633 0.63338 0.7702 0.0
H1093 H 0.87008 0.64517 0.68133 0.0
H1094 H 0.8319 0.61176 0.67095 0.0
H1095 H 0.84669 0.56298 0.76834 0.0
H1096 H 0.81943 0.5607 0.79438 0.0
H1097 H 0.84394 0.5893 0.79529 0.0
H1098 H 0.80322 0.6251 0.79346 0.0
H1099 H 0.77843 0.59658 0.7931 0.0
H1100 H 0.77754 0.62273 0.76586 0.0
H1101 H 0.79882 0.57238 0.6702 0.0
H1102 H 0.76949 0.53085 0.67874 0.0
H1103 H 0.77498 0.54483 0.76839 0.0
C1104 C 0.8503 0.62992 0.74863 0.0
C1105 C 0.86554 0.64225 0.72645 0.0
C1106 C 0.85822 0.63615 0.69844 0.0
C1107 C 0.83662 0.61729 0.69242 0.0
C1108 C 0.82252 0.60483 0.71472 0.0
C1109 C 0.82869 0.61113 0.7423 0.0
C1110 C 0.81214 0.59271 0.76226 0.0
C1111 C 0.83173 0.5754 0.78117 0.0
C1112 C 0.79161 0.61034 0.7797 0.0
C1113 C 0.79671 0.57424 0.74156 0.0
C1114 C 0.80292 0.58184 0.71428 0.0
C1115 C 0.79337 0.56654 0.69141 0.0
C1116 C 0.77703 0.54282 0.69651 0.0
C1117 C 0.77026 0.5347 0.72422 0.0
C1118 C 0.77979 0.55084 0.74705 0.0
H1119 H 0.64304 0.3774 0.26132 0.0
H1120 H 0.61719 0.37315 0.17434 0.0
H1121 H 0.65196 0.40946 0.16228 0.0
H1122 H 0.65301 0.4484 0.26553 0.0
H1123 H 0.6841 0.44769 0.28696 0.0
H1124 H 0.65935 0.4193 0.28877 0.0
H1125 H 0.69837 0.38359 0.27672 0.0
H1126 H 0.72347 0.4118 0.27553 0.0
H1127 H 0.71948 0.38882 0.24583 0.0
H1128 H 0.68395 0.45043 0.16094 0.0
H1129 H 0.71741 0.48909 0.16872 0.0
H1130 H 0.72635 0.46411 0.25565 0.0
C1131 C 0.64558 0.38302 0.23955 0.0
C1132 C 0.6277 0.37198 0.21863 0.0
C1133 C 0.63083 0.38118 0.19059 0.0
C1134 C 0.65046 0.4018 0.18357 0.0
C1135 C 0.66717 0.41277 0.20478 0.0
C1136 C 0.66552 0.40326 0.23207 0.0
C1137 C 0.68546 0.41928 0.25095 0.0
C1138 C 0.66952 0.43457 0.27443 0.0
C1139 C 0.70804 0.39971 0.26296 0.0
C1140 C 0.69786 0.43983 0.23015 0.0
C1141 C 0.68678 0.4358 0.20369 0.0
C1142 C 0.69323 0.45346 0.1814 0.0
C1143 C 0.71197 0.47553 0.1861 0.0
C1144 C 0.72431 0.47948 0.21276 0.0
C1145 C 0.71727 0.46134 0.23504 0.0
H1146 H 0.3437 0.85065 0.26403 0.0
H1147 H 0.3996 0.87536 0.33107 0.0
H1148 H 0.36928 0.91626 0.34123 0.0
H1149 H 0.33102 0.91753 0.23771 0.0
H1150 H 0.29456 0.91196 0.2295 0.0
H1151 H 0.31846 0.88279 0.2298 0.0
H1152 H 0.28708 0.85695 0.26589 0.0
H1153 H 0.26289 0.88594 0.26541 0.0
H1154 H 0.27771 0.87427 0.29812 0.0
H1155 H 0.33631 0.95663 0.34048 0.0
H1156 H 0.30091 0.99286 0.33148 0.0
H1157 H 0.2658 0.94227 0.26443 0.0
C1158 C 0.34933 0.86462 0.28096 0.0
C1159 C 0.37406 0.86028 0.29663 0.0
C1160 C 0.38064 0.87849 0.319 0.0
C1161 C 0.36363 0.90172 0.32479 0.0
C1162 C 0.33995 0.90606 0.30822 0.0
C1163 C 0.33253 0.88784 0.28702 0.0
C1164 C 0.30672 0.89803 0.27152 0.0
C1165 C 0.31308 0.90287 0.24029 0.0
C1166 C 0.28215 0.87758 0.27548 0.0
C1167 C 0.3014 0.9254 0.28666 0.0
C1168 C 0.3207 0.92942 0.3079 0.0
C1169 C 0.3209 0.95358 0.32413 0.0
C1170 C 0.30076 0.97414 0.31866 0.0
C1171 C 0.2806 0.97051 0.29711 0.0
C1172 C 0.28091 0.94568 0.28101 0.0
H1173 H 0.20953 0.02179 0.81005 0.0
H1174 H 0.2564 0.04192 0.73469 0.0
H1175 H 0.22819 0.08461 0.72842 0.0
H1176 H 0.14266 0.04522 0.78587 0.0
H1177 H 0.13209 0.05979 0.81906 0.0
H1178 H 0.1564 0.03098 0.81805 0.0
H1179 H 0.1918 0.06004 0.84703 0.0
H1180 H 0.16786 0.08923 0.84779 0.0
H1181 H 0.20291 0.09388 0.83446 0.0
H1182 H 0.19302 0.12223 0.72774 0.0
H1183 H 0.15294 0.15343 0.73273 0.0
H1184 H 0.1307 0.11307 0.81113 0.0
C1185 C 0.21369 0.03516 0.79218 0.0
C1186 C 0.23501 0.0285 0.77274 0.0
C1187 C 0.24016 0.04663 0.74982 0.0
C1188 C 0.22432 0.07097 0.74612 0.0
C1189 C 0.20368 0.07712 0.76574 0.0
C1190 C 0.19831 0.05989 0.78837 0.0
C1191 C 0.17457 0.07144 0.80606 0.0
C1192 C 0.14997 0.05062 0.80732 0.0
C1193 C 0.18491 0.07911 0.83558 0.0
C1194 C 0.16703 0.09741 0.78934 0.0
C1195 C 0.18423 0.10023 0.76625 0.0
C1196 C 0.17999 0.12094 0.74625 0.0
C1197 C 0.15728 0.1391 0.74963 0.0
C1198 C 0.13934 0.13702 0.77324 0.0
C1199 C 0.14459 0.1159 0.79342 0.0
H1200 H 0.6932 0.88365 0.61043 0.0
H1201 H 0.77003 0.85797 0.65165 0.0
H1202 H 0.77191 0.81598 0.62263 0.0
H1203 H 0.66489 0.81201 0.5953 0.0
H1204 H 0.65265 0.82212 0.56105 0.0
H1205 H 0.65371 0.84753 0.58897 0.0
H1206 H 0.68427 0.88007 0.55802 0.0
H1207 H 0.68359 0.85468 0.53017 0.0
H1208 H 0.71667 0.86694 0.54369 0.0
H1209 H 0.76846 0.77912 0.58708 0.0
H1210 H 0.76086 0.75012 0.54523 0.0
H1211 H 0.68899 0.80117 0.52259 0.0
C1212 C 0.70986 0.86865 0.6139 0.0
C1213 C 0.73048 0.87343 0.63467 0.0
C1214 C 0.75278 0.85403 0.63761 0.0
C1215 C 0.75434 0.83019 0.62075 0.0
C1216 C 0.73384 0.82625 0.60046 0.0
C1217 C 0.71206 0.84494 0.59675 0.0
C1218 C 0.69475 0.83732 0.57117 0.0
C1219 C 0.66472 0.82926 0.57964 0.0
C1220 C 0.69484 0.86117 0.54948 0.0
C1221 C 0.71085 0.81204 0.56069 0.0
C1222 C 0.73293 0.80577 0.57833 0.0
C1223 C 0.75116 0.78367 0.57315 0.0
C1224 C 0.7467 0.76739 0.54927 0.0
C1225 C 0.72448 0.77357 0.5306 0.0
C1226 C 0.7063 0.7962 0.53639 0.0
H1227 H 0.75632 0.23568 0.05927 0.0
H1228 H 0.82639 0.20006 0.01336 0.0
H1229 H 0.83482 0.16685 0.05178 0.0
H1230 H 0.78705 0.22818 0.12928 0.0
H1231 H 0.75418 0.21878 0.14538 0.0
H1232 H 0.75462 0.24144 0.11516 0.0
H1233 H 0.72101 0.20768 0.08906 0.0
H1234 H 0.7203 0.18504 0.11922 0.0
H1235 H 0.73041 0.17126 0.08556 0.0
H1236 H 0.83474 0.1361 0.09375 0.0
H1237 H 0.8233 0.10723 0.13531 0.0
H1238 H 0.75364 0.16216 0.15435 0.0
C1239 C 0.77348 0.22096 0.05738 0.0
C1240 C 0.79058 0.22042 0.03324 0.0
C1241 C 0.81279 0.20075 0.03152 0.0
C1242 C 0.81795 0.18191 0.05334 0.0
C1243 C 0.80075 0.18293 0.07681 0.0
C1244 C 0.77884 0.20177 0.07896 0.0
C1245 C 0.76251 0.19723 0.10579 0.0
C1246 C 0.76473 0.22294 0.12505 0.0
C1247 C 0.73174 0.18986 0.09952 0.0
C1248 C 0.7782 0.17241 0.11788 0.0
C1249 C 0.80049 0.16485 0.10105 0.0
C1250 C 0.81745 0.14189 0.10723 0.0
C1251 C 0.81093 0.12571 0.13083 0.0
C1252 C 0.78748 0.13239 0.14763 0.0
C1253 C 0.77145 0.15649 0.14152 0.0
H1254 H 0.22587 0.73757 0.43906 0.0
H1255 H 0.2124 0.6839 0.51128 0.0
H1256 H 0.21143 0.6425 0.48053 0.0
H1257 H 0.17986 0.70006 0.39289 0.0
H1258 H 0.20144 0.70407 0.36214 0.0
H1259 H 0.2025 0.73014 0.38937 0.0
H1260 H 0.25596 0.72423 0.39458 0.0
H1261 H 0.2556 0.6987 0.36681 0.0
H1262 H 0.27041 0.68982 0.4004 0.0
H1263 H 0.21316 0.60683 0.44275 0.0
H1264 H 0.21647 0.57892 0.39905 0.0
H1265 H 0.22611 0.65505 0.35082 0.0
C1266 C 0.223 0.71705 0.44834 0.0
C1267 C 0.21939 0.71387 0.47754 0.0
C1268 C 0.21519 0.68678 0.48894 0.0
C1269 C 0.21461 0.66313 0.47168 0.0
C1270 C 0.21794 0.66693 0.44299 0.0
C1271 C 0.22195 0.69314 0.4313 0.0
C1272 C 0.22446 0.69121 0.39969 0.0
C1273 C 0.20063 0.70732 0.38518 0.0
C1274 C 0.25333 0.7016 0.38979 0.0
C1275 C 0.22139 0.65986 0.39558 0.0
C1276 C 0.2178 0.64628 0.42091 0.0
C1277 C 0.21567 0.61721 0.42275 0.0
C1278 C 0.21749 0.60156 0.39801 0.0
C1279 C 0.22109 0.61506 0.37195 0.0
C1280 C 0.22279 0.64452 0.37063 0.0
H1281 H 0.27816 0.30512 0.9921 0.0
H1282 H 0.29357 0.23042 0.94276 0.0
H1283 H 0.29528 0.25888 0.8998 0.0
H1284 H 0.23308 0.33876 0.94206 0.0
H1285 H 0.24615 0.37349 0.94907 0.0
H1286 H 0.24691 0.34725 0.97617 0.0
H1287 H 0.30035 0.35493 0.98212 0.0
H1288 H 0.29979 0.3811 0.95492 0.0
H1289 H 0.32307 0.3515 0.95214 0.0
H1290 H 0.29573 0.29545 0.86201 0.0
H1291 H 0.29211 0.33769 0.83192 0.0
H1292 H 0.27482 0.38832 0.90513 0.0
C1293 C 0.28187 0.29482 0.97223 0.0
C1294 C 0.28526 0.26547 0.97071 0.0
C1295 C 0.29016 0.25274 0.94436 0.0
C1296 C 0.29149 0.26878 0.91983 0.0
C1297 C 0.28783 0.29761 0.92195 0.0
C1298 C 0.28296 0.31055 0.94742 0.0
C1299 C 0.27893 0.34181 0.9437 0.0
C1300 C 0.24952 0.35085 0.95331 0.0
C1301 C 0.30191 0.3583 0.95914 0.0
C1302 C 0.28212 0.34432 0.91221 0.0
C1303 C 0.28751 0.31862 0.90007 0.0
C1304 C 0.29126 0.31567 0.87123 0.0
C1305 C 0.28898 0.33961 0.85429 0.0
C1306 C 0.2826 0.36592 0.86624 0.0
C1307 C 0.27962 0.36831 0.89558 0.0
H1308 H 0.54675 0.75264 0.76949 0.0
H1309 H 0.52986 0.66349 0.77341 0.0
H1310 H 0.57063 0.65699 0.80466 0.0
H1311 H 0.62382 0.74934 0.77414 0.0
H1312 H 0.6261 0.77932 0.79698 0.0
H1313 H 0.59794 0.77676 0.77191 0.0
H1314 H 0.56145 0.78241 0.81176 0.0
H1315 H 0.58948 0.7854 0.83677 0.0
H1316 H 0.56276 0.7591 0.84147 0.0
H1317 H 0.61134 0.66019 0.83677 0.0
H1318 H 0.64565 0.6737 0.87308 0.0
H1319 H 0.63354 0.76114 0.85176 0.0
C1320 C 0.552 0.73177 0.77669 0.0
C1321 C 0.53549 0.70849 0.76904 0.0
C1322 C 0.54238 0.68152 0.7792 0.0
C1323 C 0.5656 0.6776 0.79667 0.0
C1324 C 0.58147 0.70094 0.80401 0.0
C1325 C 0.57475 0.72758 0.79477 0.0
C1326 C 0.59328 0.74942 0.80847 0.0
C1327 C 0.61136 0.7646 0.78656 0.0
C1328 C 0.5757 0.7703 0.82564 0.0
C1329 C 0.61106 0.73092 0.82718 0.0
C1330 C 0.60435 0.70298 0.82371 0.0
C1331 C 0.61698 0.68198 0.83952 0.0
C1332 C 0.63642 0.68981 0.86004 0.0
C1333 C 0.6428 0.71837 0.86483 0.0
C1334 C 0.63017 0.73911 0.84785 0.0
H1335 H 0.04476 0.75277 0.22141 0.0
H1336 H 0.01018 0.83522 0.20517 0.0
H1337 H 0.04431 0.84208 0.16686 0.0
H1338 H 0.1178 0.7689 0.20509 0.0
H1339 H 0.12397 0.73584 0.18793 0.0
H1340 H 0.09852 0.73821 0.21573 0.0
H1341 H 0.06027 0.71795 0.18292 0.0
H1342 H 0.08566 0.71523 0.15518 0.0
H1343 H 0.05371 0.7346 0.14965 0.0
H1344 H 0.08107 0.83949 0.12955 0.0
H1345 H 0.11546 0.82612 0.09322 0.0
H1346 H 0.1235 0.74407 0.13135 0.0
C1347 C 0.0446 0.77232 0.20989 0.0
C1348 C 0.02494 0.79351 0.21617 0.0
C1349 C 0.02499 0.81867 0.20048 0.0
C1350 C 0.04442 0.82284 0.17886 0.0
C1351 C 0.06344 0.8015 0.17301 0.0
C1352 C 0.06349 0.77659 0.18782 0.0
C1353 C 0.0847 0.75622 0.17585 0.0
C1354 C 0.1076 0.7494 0.19745 0.0
C1355 C 0.07022 0.72942 0.16526 0.0
C1356 C 0.09632 0.77346 0.15184 0.0
C1357 C 0.08412 0.79968 0.1509 0.0
C1358 C 0.09091 0.81908 0.13019 0.0
C1359 C 0.11042 0.81132 0.10965 0.0
C1360 C 0.12279 0.78435 0.10978 0.0
C1361 C 0.11555 0.76525 0.13126 0.0
H1362 H 0.45278 0.25671 0.73428 0.0
H1363 H 0.48461 0.17362 0.71556 0.0
H1364 H 0.44467 0.16512 0.68428 0.0
H1365 H 0.3773 0.24191 0.72839 0.0
H1366 H 0.36972 0.27395 0.70988 0.0
H1367 H 0.3984 0.27265 0.73444 0.0
H1368 H 0.43278 0.28954 0.69591 0.0
H1369 H 0.40411 0.2914 0.67151 0.0
H1370 H 0.4346 0.27069 0.66323 0.0
H1371 H 0.40231 0.16505 0.65521 0.0
H1372 H 0.36592 0.17725 0.62071 0.0
H1373 H 0.3647 0.26248 0.65218 0.0
C1374 C 0.45101 0.23666 0.72381 0.0
C1375 C 0.47134 0.21553 0.72788 0.0
C1376 C 0.46902 0.18992 0.71311 0.0
C1377 C 0.44631 0.1848 0.69542 0.0
C1378 C 0.42635 0.20575 0.69217 0.0
C1379 C 0.42887 0.23152 0.70515 0.0
C1380 C 0.40673 0.25172 0.6945 0.0
C1381 C 0.38686 0.26058 0.71822 0.0
C1382 C 0.42037 0.27734 0.68044 0.0
C1383 C 0.39178 0.23329 0.67331 0.0
C1384 C 0.4029 0.20658 0.67318 0.0
C1385 C 0.39335 0.18588 0.65506 0.0
C1386 C 0.37268 0.19298 0.6356 0.0
C1387 C 0.36218 0.22066 0.63393 0.0
C1388 C 0.37145 0.24091 0.65351 0.0
H1389 H 0.88236 0.30976 0.37391 0.0
H1390 H 0.84111 0.23112 0.35428 0.0
H1391 H 0.87254 0.22424 0.31475 0.0
H1392 H 0.90205 0.33054 0.30128 0.0
H1393 H 0.93579 0.34324 0.31265 0.0
H1394 H 0.90629 0.3445 0.33613 0.0
H1395 H 0.93584 0.31675 0.37248 0.0
H1396 H 0.9647 0.31463 0.34827 0.0
H1397 H 0.95002 0.28307 0.36293 0.0
H1398 H 0.91028 0.22304 0.2801 0.0
H1399 H 0.95232 0.22816 0.25098 0.0
H1400 H 0.97309 0.30568 0.29399 0.0
C1401 C 0.87941 0.29156 0.36071 0.0
C1402 C 0.85796 0.27186 0.36656 0.0
C1403 C 0.85569 0.24765 0.34949 0.0
C1404 C 0.87401 0.24319 0.32711 0.0
C1405 C 0.89504 0.26274 0.32231 0.0
C1406 C 0.89799 0.28646 0.33854 0.0
C1407 C 0.92416 0.30265 0.33036 0.0
C1408 C 0.91659 0.33197 0.31944 0.0
C1409 C 0.9449 0.30436 0.35498 0.0
C1410 C 0.93543 0.28415 0.3071 0.0
C1411 C 0.91809 0.26134 0.30286 0.0
C1412 C 0.92395 0.24089 0.28302 0.0
C1413 C 0.94797 0.244 0.26664 0.0
C1414 C 0.96604 0.26731 0.27021 0.0
C1415 C 0.95979 0.28755 0.29093 0.0
H1416 H 0.14102 0.08455 0.25223 0.0
H1417 H 0.16807 0.11661 0.33291 0.0
H1418 H 0.13694 0.15743 0.32705 0.0
H1419 H 0.14076 0.14964 0.21808 0.0
H1420 H 0.11042 0.14289 0.19661 0.0
H1421 H 0.13191 0.11422 0.2084 0.0
H1422 H 0.08851 0.09054 0.2308 0.0
H1423 H 0.06681 0.1191 0.21894 0.0
H1424 H 0.06749 0.10983 0.25554 0.0
H1425 H 0.1067 0.19613 0.31132 0.0
H1426 H 0.07914 0.23167 0.2865 0.0
H1427 H 0.07133 0.17617 0.21482 0.0
C1428 C 0.13979 0.09981 0.26897 0.0
C1429 C 0.1567 0.09726 0.29324 0.0
C1430 C 0.15519 0.11807 0.31428 0.0
C1431 C 0.13752 0.14128 0.31115 0.0
C1432 C 0.12157 0.14349 0.28679 0.0
C1433 C 0.12246 0.12339 0.26601 0.0
C1434 C 0.10488 0.13218 0.24092 0.0
C1435 C 0.12308 0.13489 0.21444 0.0
C1436 C 0.08047 0.11169 0.23628 0.0
C1437 C 0.09438 0.16059 0.2507 0.0
C1438 C 0.10416 0.1664 0.27735 0.0
C1439 C 0.09868 0.19173 0.29057 0.0
C1440 C 0.08307 0.21185 0.27617 0.0
C1441 C 0.073 0.20675 0.24867 0.0
C1442 C 0.07841 0.18054 0.23592 0.0
H1443 H 0.36966 0.90571 0.75316 0.0
H1444 H 0.32756 0.87143 0.82611 0.0
H1445 H 0.35581 0.82821 0.82187 0.0
H1446 H 0.37003 0.84335 0.71449 0.0
H1447 H 0.40378 0.84899 0.69849 0.0
H1448 H 0.38284 0.87848 0.7091 0.0
H1449 H 0.42377 0.89689 0.73963 0.0
H1450 H 0.44495 0.86748 0.729 0.0
H1451 H 0.43917 0.87429 0.76569 0.0
H1452 H 0.38582 0.7879 0.80788 0.0
H1453 H 0.41468 0.75218 0.7848 0.0
H1454 H 0.43701 0.81178 0.71972 0.0
C1455 C 0.36685 0.88939 0.76867 0.0
C1456 C 0.34658 0.89202 0.7902 0.0
C1457 C 0.343 0.86988 0.80957 0.0
C1458 C 0.35902 0.84533 0.80735 0.0
C1459 C 0.37844 0.84322 0.78559 0.0
C1460 C 0.38243 0.86463 0.76656 0.0
C1461 C 0.40304 0.85617 0.74383 0.0
C1462 C 0.38908 0.85678 0.71477 0.0
C1463 C 0.42929 0.87482 0.74459 0.0
C1464 C 0.40975 0.82645 0.75282 0.0
C1465 C 0.39549 0.81961 0.77712 0.0
C1466 C 0.39725 0.79309 0.789 0.0
C1467 C 0.41371 0.7729 0.7756 0.0
C1468 C 0.42823 0.77912 0.75039 0.0
C1469 C 0.42647 0.80645 0.73908 0.0
H1470 H 0.63581 0.4136 0.75425 0.0
H1471 H 0.66923 0.38427 0.67495 0.0
H1472 H 0.6399 0.34179 0.67846 0.0
H1473 H 0.63717 0.34852 0.78757 0.0
H1474 H 0.60536 0.35331 0.80735 0.0
H1475 H 0.6258 0.38327 0.79702 0.0
H1476 H 0.58248 0.40473 0.77237 0.0
H1477 H 0.56178 0.37488 0.78279 0.0
H1478 H 0.56397 0.38456 0.74635 0.0
H1479 H 0.61102 0.30108 0.6923 0.0
H1480 H 0.58433 0.26375 0.7155 0.0
H1481 H 0.56943 0.31819 0.78685 0.0
C1482 C 0.63634 0.3986 0.73723 0.0
C1483 C 0.65455 0.40239 0.71409 0.0
C1484 C 0.65531 0.38189 0.69271 0.0
C1485 C 0.63869 0.35774 0.69452 0.0
C1486 C 0.62148 0.35434 0.71789 0.0
C1487 C 0.6201 0.37418 0.73888 0.0
C1488 C 0.60168 0.36417 0.76288 0.0
C1489 C 0.61851 0.3622 0.79032 0.0
C1490 C 0.57595 0.38322 0.76629 0.0
C1491 C 0.59335 0.33536 0.75232 0.0
C1492 C 0.60488 0.33037 0.72619 0.0
C1493 C 0.60163 0.30485 0.71259 0.0
C1494 C 0.5865 0.28371 0.72608 0.0
C1495 C 0.5747 0.28802 0.75302 0.0
C1496 C 0.57785 0.31441 0.76613 0.0
H1497 H 0.82983 0.63269 0.20308 0.0
H1498 H 0.88895 0.56622 0.2219 0.0
H1499 H 0.92438 0.60147 0.23507 0.0
H1500 H 0.88172 0.68456 0.1763 0.0
H1501 H 0.86372 0.71357 0.19241 0.0
H1502 H 0.84424 0.68333 0.18089 0.0
H1503 H 0.82359 0.67778 0.23077 0.0
H1504 H 0.84323 0.70774 0.24255 0.0
H1505 H 0.84698 0.67459 0.26025 0.0
H1506 H 0.95143 0.64306 0.25116 0.0
H1507 H 0.96952 0.68871 0.26701 0.0
H1508 H 0.89326 0.72902 0.23804 0.0
C1509 C 0.85055 0.62561 0.20908 0.0
C1510 C 0.85676 0.59668 0.21111 0.0
C1511 C 0.8838 0.58824 0.21995 0.0
C1512 C 0.90407 0.60812 0.22751 0.0
C1513 C 0.897 0.63641 0.22616 0.0
C1514 C 0.871 0.64523 0.21694 0.0
C1515 C 0.86815 0.67683 0.2195 0.0
C1516 C 0.86423 0.69037 0.19055 0.0
C1517 C 0.84406 0.68468 0.23945 0.0
C1518 C 0.89644 0.68429 0.23201 0.0
C1519 C 0.91273 0.66061 0.23557 0.0
C1520 C 0.93904 0.6618 0.24812 0.0
C1521 C 0.94907 0.68785 0.25719 0.0
C1522 C 0.93291 0.71251 0.25366 0.0
C1523 C 0.90627 0.71063 0.24072 0.0
H1524 H 0.22695 0.06493 0.19143 0.0
H1525 H 0.28843 0.09199 0.25284 0.0
H1526 H 0.31097 0.12176 0.21744 0.0
H1527 H 0.27482 0.06468 0.13061 0.0
H1528 H 0.24864 0.07816 0.10696 0.0
H1529 H 0.2383 0.05699 0.13648 0.0
H1530 H 0.20505 0.09649 0.15325 0.0
H1531 H 0.21528 0.11772 0.1238 0.0
H1532 H 0.21888 0.13118 0.15889 0.0
H1533 H 0.32514 0.15141 0.17686 0.0
H1534 H 0.32986 0.17869 0.1331 0.0
H1535 H 0.26 0.13276 0.09729 0.0
C1536 C 0.24543 0.07675 0.19724 0.0
C1537 C 0.25589 0.07597 0.22497 0.0
C1538 C 0.2799 0.09216 0.23181 0.0
C1539 C 0.29299 0.10914 0.2118 0.0
C1540 C 0.28198 0.10983 0.18486 0.0
C1541 C 0.25881 0.09404 0.17743 0.0
C1542 C 0.25049 0.09989 0.14729 0.0
C1543 C 0.25323 0.07334 0.12927 0.0
C1544 C 0.22066 0.11204 0.14573 0.0
C1545 C 0.27233 0.12162 0.13923 0.0
C1546 C 0.29034 0.12695 0.16121 0.0
C1547 C 0.31134 0.14722 0.15936 0.0
C1548 C 0.31382 0.1627 0.13447 0.0
C1549 C 0.29546 0.15781 0.11172 0.0
C1550 C 0.27471 0.13668 0.11412 0.0
H1551 H 0.29304 0.9226 0.68217 0.0
H1552 H 0.2171 0.92085 0.73232 0.0
H1553 H 0.1926 0.89568 0.69489 0.0
H1554 H 0.25733 0.93008 0.61299 0.0
H1555 H 0.28167 0.90719 0.59541 0.0
H1556 H 0.29311 0.9278 0.62493 0.0
H1557 H 0.31012 0.88272 0.64992 0.0
H1558 H 0.29875 0.86203 0.62052 0.0
H1559 H 0.2859 0.85419 0.65515 0.0
H1560 H 0.1773 0.86642 0.65538 0.0
H1561 H 0.1719 0.83544 0.61434 0.0
H1562 H 0.25625 0.85636 0.5876 0.0
C1563 C 0.27112 0.91743 0.68491 0.0
C1564 C 0.25706 0.92374 0.71025 0.0
C1565 C 0.22846 0.91614 0.71324 0.0
C1566 C 0.21421 0.90192 0.69201 0.0
C1567 C 0.22868 0.8954 0.66764 0.0
C1568 C 0.25641 0.90295 0.66375 0.0
C1569 C 0.26722 0.89159 0.63603 0.0
C1570 C 0.27531 0.9156 0.61616 0.0
C1571 C 0.29195 0.87144 0.6407 0.0
C1572 C 0.24141 0.87609 0.62548 0.0
C1573 C 0.21944 0.87872 0.6441 0.0
C1574 C 0.19413 0.86461 0.6403 0.0
C1575 C 0.19124 0.84704 0.61697 0.0
C1576 C 0.2134 0.84393 0.59757 0.0
C1577 C 0.23866 0.859 0.60169 0.0
H1578 H 0.71715 0.42946 0.82137 0.0
H1579 H 0.78344 0.40872 0.76256 0.0
H1580 H 0.80621 0.37956 0.79839 0.0
H1581 H 0.76111 0.43152 0.88449 0.0
H1582 H 0.73495 0.41532 0.90639 0.0
H1583 H 0.72443 0.43633 0.87683 0.0
H1584 H 0.69551 0.39474 0.85732 0.0
H1585 H 0.70583 0.37367 0.88686 0.0
H1586 H 0.71242 0.36143 0.85176 0.0
H1587 H 0.82079 0.35078 0.83899 0.0
H1588 H 0.82545 0.32256 0.88195 0.0
H1589 H 0.75016 0.36106 0.91547 0.0
C1590 C 0.73663 0.41905 0.81619 0.0
C1591 C 0.74854 0.42153 0.78913 0.0
C1592 C 0.77384 0.4072 0.78307 0.0
C1593 C 0.78706 0.39064 0.80334 0.0
C1594 C 0.77477 0.38848 0.82968 0.0
C1595 C 0.7501 0.40216 0.83623 0.0
C1596 C 0.74068 0.39488 0.86576 0.0
C1597 C 0.74027 0.42108 0.88447 0.0
C1598 C 0.71191 0.38031 0.86539 0.0
C1599 C 0.76376 0.37479 0.87455 0.0
C1600 C 0.78326 0.37162 0.8534 0.0
C1601 C 0.8058 0.35325 0.85582 0.0
C1602 C 0.80825 0.33728 0.88031 0.0
C1603 C 0.7883 0.33972 0.90214 0.0
C1604 C 0.76603 0.35913 0.89936 0.0
H1605 H 0.75565 0.55441 0.3149 0.0
H1606 H 0.78341 0.62002 0.25834 0.0
H1607 H 0.76988 0.65578 0.29272 0.0
H1608 H 0.69528 0.5905 0.33996 0.0
H1609 H 0.69807 0.57902 0.37583 0.0
H1610 H 0.71189 0.55755 0.34804 0.0
H1611 H 0.76066 0.55742 0.37181 0.0
H1612 H 0.74689 0.57858 0.39989 0.0
H1613 H 0.77715 0.59027 0.38055 0.0
H1614 H 0.75257 0.68434 0.3307 0.0
H1615 H 0.73381 0.70569 0.37315 0.0
H1616 H 0.71423 0.62356 0.40684 0.0
C1617 C 0.75934 0.5763 0.31021 0.0
C1618 C 0.77061 0.5846 0.28408 0.0
C1619 C 0.77473 0.61336 0.27825 0.0
C1620 C 0.76712 0.63381 0.29761 0.0
C1621 C 0.75528 0.62521 0.32276 0.0
C1622 C 0.75154 0.59728 0.32944 0.0
C1623 C 0.73739 0.59443 0.35791 0.0
C1624 C 0.70897 0.57949 0.35526 0.0
C1625 C 0.75668 0.57928 0.37878 0.0
C1626 C 0.73362 0.62511 0.36579 0.0
C1627 C 0.7442 0.64224 0.34499 0.0
C1628 C 0.74371 0.67123 0.34695 0.0
C1629 C 0.73227 0.68324 0.37094 0.0
C1630 C 0.72095 0.66648 0.39264 0.0
C1631 C 0.72194 0.6369 0.39019 0.0
H1632 H 0.22715 0.25245 0.11258 0.0
H1633 H 0.18785 0.22208 0.03642 0.0
H1634 H 0.14169 0.23739 0.05422 0.0
H1635 H 0.17317 0.22892 0.1584 0.0
H1636 H 0.17589 0.25828 0.18198 0.0
H1637 H 0.20604 0.24716 0.16225 0.0
H1638 H 0.21119 0.2973 0.14207 0.0
H1639 H 0.18082 0.30848 0.16153 0.0
H1640 H 0.18202 0.31319 0.12408 0.0
H1641 H 0.10002 0.25466 0.0804 0.0
H1642 H 0.06443 0.26767 0.11531 0.0
H1643 H 0.13004 0.28521 0.17581 0.0
C1644 C 0.20884 0.2493 0.09954 0.0
C1645 C 0.21107 0.23629 0.07297 0.0
C1646 C 0.18661 0.232 0.05679 0.0
C1647 C 0.16035 0.24082 0.06664 0.0
C1648 C 0.15888 0.25366 0.09284 0.0
C1649 C 0.18239 0.25758 0.10926 0.0
C1650 C 0.17465 0.26988 0.13757 0.0
C1651 C 0.18292 0.24986 0.16145 0.0
C1652 C 0.18797 0.29894 0.14153 0.0
C1653 C 0.14307 0.27201 0.13459 0.0
C1654 C 0.13456 0.26295 0.10842 0.0
C1655 C 0.10643 0.2619 0.10091 0.0
C1656 C 0.08636 0.26939 0.12093 0.0
C1657 C 0.09439 0.27763 0.14834 0.0
C1658 C 0.12321 0.27959 0.15496 0.0
H1659 H 0.68574 0.27911 0.93581 0.0
H1660 H 0.73923 0.20719 0.92023 0.0
H1661 H 0.70206 0.18545 0.89206 0.0
H1662 H 0.61838 0.23974 0.93857 0.0
H1663 H 0.59934 0.26691 0.92053 0.0
H1664 H 0.62893 0.27582 0.94226 0.0
H1665 H 0.65211 0.30134 0.90031 0.0
H1666 H 0.62267 0.29246 0.87849 0.0
H1667 H 0.65758 0.2826 0.86798 0.0
H1668 H 0.66195 0.17346 0.86168 0.0
H1669 H 0.62012 0.17159 0.83137 0.0
H1670 H 0.59121 0.25032 0.86647 0.0
C1671 C 0.6893 0.25851 0.92701 0.0
C1672 C 0.71538 0.24482 0.93035 0.0
C1673 C 0.71947 0.21813 0.91797 0.0
C1674 C 0.69843 0.20551 0.90199 0.0
C1675 C 0.67325 0.21972 0.89853 0.0
C1676 C 0.66842 0.24555 0.91074 0.0
C1677 C 0.64007 0.25702 0.90194 0.0
C1678 C 0.62052 0.26004 0.92734 0.0
C1679 C 0.64332 0.28501 0.88625 0.0
C1680 C 0.63016 0.23387 0.88247 0.0
C1681 C 0.64962 0.21252 0.88099 0.0
C1682 C 0.64628 0.18979 0.86298 0.0
C1683 C 0.62251 0.18895 0.84579 0.0
C1684 C 0.6023 0.21061 0.8468 0.0
C1685 C 0.60602 0.23314 0.86572 0.0
H1686 H 0.77709 0.76704 0.39537 0.0
H1687 H 0.81822 0.7192 0.46085 0.0
H1688 H 0.86434 0.73157 0.44083 0.0
H1689 H 0.82309 0.74595 0.34067 0.0
H1690 H 0.82257 0.77924 0.32283 0.0
H1691 H 0.79292 0.76849 0.34354 0.0
H1692 H 0.79657 0.81426 0.37249 0.0
H1693 H 0.82634 0.82507 0.3519 0.0
H1694 H 0.82916 0.82295 0.3895 0.0
H1695 H 0.90592 0.74773 0.4129 0.0
H1696 H 0.93981 0.76352 0.37732 0.0
H1697 H 0.87191 0.80018 0.32916 0.0
C1698 C 0.79581 0.75948 0.40572 0.0
C1699 C 0.79403 0.74233 0.42988 0.0
C1700 C 0.81903 0.7324 0.44241 0.0
C1701 C 0.84534 0.73942 0.43125 0.0
C1702 C 0.84637 0.75627 0.4074 0.0
C1703 C 0.82228 0.76602 0.39464 0.0
C1704 C 0.82919 0.78228 0.36817 0.0
C1705 C 0.81617 0.76814 0.34228 0.0
C1706 C 0.81975 0.81296 0.37068 0.0
C1707 C 0.86091 0.77996 0.36794 0.0
C1708 C 0.87038 0.76512 0.39093 0.0
C1709 C 0.89874 0.75948 0.39488 0.0
C1710 C 0.91788 0.76863 0.37451 0.0
C1711 C 0.90867 0.78318 0.35027 0.0
C1712 C 0.87978 0.78933 0.34738 0.0
H1713 H 0.41295 0.74769 0.63388 0.0
H1714 H 0.38289 0.66963 0.66964 0.0
H1715 H 0.33966 0.67346 0.64164 0.0
H1716 H 0.34824 0.78238 0.63592 0.0
H1717 H 0.35261 0.8012 0.60347 0.0
H1718 H 0.38288 0.79094 0.6235 0.0
H1719 H 0.40292 0.76477 0.58041 0.0
H1720 H 0.37277 0.77512 0.56014 0.0
H1721 H 0.38188 0.73859 0.56311 0.0
H1722 H 0.29842 0.68746 0.61398 0.0
H1723 H 0.26091 0.71047 0.58731 0.0
H1724 H 0.31647 0.78007 0.56856 0.0
C1725 C 0.39757 0.73106 0.63521 0.0
C1726 C 0.40136 0.7082 0.65375 0.0
C1727 C 0.38045 0.68725 0.65553 0.0
C1728 C 0.35586 0.68921 0.63965 0.0
C1729 C 0.35245 0.71228 0.6221 0.0
C1730 C 0.37269 0.73283 0.61964 0.0
C1731 C 0.36266 0.75648 0.6008 0.0
C1732 C 0.36153 0.78439 0.61689 0.0
C1733 C 0.38116 0.75887 0.57455 0.0
C1734 C 0.33347 0.74617 0.59346 0.0
C1735 C 0.32823 0.72054 0.60594 0.0
C1736 C 0.30235 0.70734 0.60381 0.0
C1737 C 0.28113 0.7207 0.58871 0.0
C1738 C 0.28578 0.74703 0.57578 0.0
C1739 C 0.31247 0.75977 0.57788 0.0
H1740 H 0.86516 0.91578 0.75458 0.0
H1741 H 0.82847 0.8851 0.67721 0.0
H1742 H 0.85842 0.84314 0.67966 0.0
H1743 H 0.93689 0.88781 0.74313 0.0
H1744 H 0.94122 0.87841 0.77945 0.0
H1745 H 0.91949 0.90783 0.77001 0.0
H1746 H 0.87787 0.88582 0.79704 0.0
H1747 H 0.89939 0.85634 0.80649 0.0
H1748 H 0.86666 0.85077 0.78848 0.0
H1749 H 0.88841 0.80305 0.69222 0.0
H1750 H 0.91651 0.76613 0.71459 0.0
H1751 H 0.93426 0.8216 0.78446 0.0
C1752 C 0.86396 0.90053 0.73783 0.0
C1753 C 0.84467 0.90378 0.71556 0.0
C1754 C 0.84315 0.88306 0.6944 0.0
C1755 C 0.86016 0.85921 0.69555 0.0
C1756 C 0.87856 0.85635 0.71801 0.0
C1757 C 0.88065 0.87637 0.7388 0.0
C1758 C 0.90048 0.86689 0.76181 0.0
C1759 C 0.92604 0.8864 0.7637 0.0
C1760 C 0.88518 0.86483 0.79012 0.0
C1761 C 0.90869 0.83817 0.75095 0.0
C1762 C 0.89596 0.83276 0.7255 0.0
C1763 C 0.89879 0.80713 0.71196 0.0
C1764 C 0.91472 0.78626 0.72492 0.0
C1765 C 0.92767 0.79104 0.75121 0.0
C1766 C 0.92499 0.81754 0.76416 0.0
H1767 H 0.6746 0.14148 0.21282 0.0
H1768 H 0.61173 0.07573 0.21473 0.0
H1769 H 0.57575 0.11036 0.22745 0.0
H1770 H 0.6512 0.17728 0.27124 0.0
H1771 H 0.65751 0.21216 0.25819 0.0
H1772 H 0.67801 0.18327 0.24531 0.0
H1773 H 0.6636 0.19504 0.19434 0.0
H1774 H 0.64341 0.22433 0.207 0.0
H1775 H 0.62697 0.19796 0.18556 0.0
H1776 H 0.5482 0.15003 0.24687 0.0
H1777 H 0.52923 0.19415 0.26611 0.0
H1778 H 0.60875 0.23527 0.25004 0.0
C1779 C 0.65308 0.13457 0.21494 0.0
C1780 C 0.64599 0.10587 0.21267 0.0
C1781 C 0.61769 0.09758 0.21628 0.0
C1782 C 0.59706 0.11709 0.22357 0.0
C1783 C 0.60491 0.14496 0.22693 0.0
C1784 C 0.63208 0.15389 0.22221 0.0
C1785 C 0.63512 0.18486 0.22884 0.0
C1786 C 0.65674 0.18965 0.25228 0.0
C1787 C 0.64272 0.20153 0.20235 0.0
C1788 C 0.60564 0.19163 0.23871 0.0
C1789 C 0.58861 0.16825 0.23749 0.0
C1790 C 0.56113 0.16865 0.24739 0.0
C1791 C 0.5506 0.19373 0.25849 0.0
C1792 C 0.56742 0.21814 0.25935 0.0
C1793 C 0.59528 0.21702 0.24923 0.0
H1794 H 0.38966 0.72358 0.25805 0.0
H1795 H 0.46416 0.68139 0.22746 0.0
H1796 H 0.4449 0.63604 0.24363 0.0
H1797 H 0.37673 0.67931 0.31946 0.0
H1798 H 0.33925 0.67967 0.31475 0.0
H1799 H 0.35999 0.70917 0.30348 0.0
H1800 H 0.33958 0.70476 0.25336 0.0
H1801 H 0.3186 0.67551 0.26455 0.0
H1802 H 0.34207 0.67174 0.23521 0.0
H1803 H 0.41711 0.59559 0.26116 0.0
H1804 H 0.38042 0.5615 0.27326 0.0
H1805 H 0.32261 0.62946 0.29087 0.0
C1806 C 0.40209 0.70482 0.25512 0.0
C1807 C 0.42855 0.70593 0.24179 0.0
C1808 C 0.44389 0.68094 0.23767 0.0
C1809 C 0.43322 0.65517 0.24699 0.0
C1810 C 0.4071 0.65482 0.26014 0.0
C1811 C 0.39155 0.67891 0.26387 0.0
C1812 C 0.36294 0.67243 0.27617 0.0
C1813 C 0.35954 0.68595 0.30519 0.0
C1814 C 0.33942 0.68165 0.25612 0.0
C1815 C 0.36464 0.64081 0.27837 0.0
C1816 C 0.39054 0.63123 0.26951 0.0
C1817 C 0.39683 0.60283 0.26828 0.0
C1818 C 0.37581 0.58364 0.27524 0.0
C1819 C 0.34866 0.59284 0.28307 0.0
C1820 C 0.34329 0.62184 0.28547 0.0
H1821 H 0.11582 0.27184 0.75326 0.0
H1822 H 0.03865 0.31318 0.7288 0.0
H1823 H 0.05559 0.35723 0.75022 0.0
H1824 H 0.12644 0.30697 0.81916 0.0
H1825 H 0.16386 0.31016 0.81501 0.0
H1826 H 0.14544 0.28145 0.7988 0.0
H1827 H 0.16534 0.29545 0.75025 0.0
H1828 H 0.18425 0.3238 0.76643 0.0
H1829 H 0.16065 0.33081 0.7378 0.0
H1830 H 0.08029 0.3962 0.77501 0.0
H1831 H 0.11421 0.43017 0.79379 0.0
H1832 H 0.1767 0.36438 0.80022 0.0
C1833 C 0.10253 0.2902 0.7524 0.0
C1834 C 0.07585 0.28914 0.73952 0.0
C1835 C 0.0592 0.31363 0.73843 0.0
C1836 C 0.06853 0.33862 0.7508 0.0
C1837 C 0.09469 0.33882 0.76385 0.0
C1838 C 0.11175 0.31545 0.76417 0.0
C1839 C 0.13977 0.32186 0.77779 0.0
C1840 C 0.14412 0.30404 0.80427 0.0
C1841 C 0.16393 0.31774 0.75682 0.0
C1842 C 0.1358 0.35253 0.78508 0.0
C1843 C 0.10943 0.36168 0.77729 0.0
C1844 C 0.101 0.3893 0.78115 0.0
C1845 C 0.12042 0.40842 0.79201 0.0
C1846 C 0.14817 0.39999 0.79858 0.0
C1847 C 0.15559 0.37142 0.7959 0.0
H1848 H 0.74274 0.87514 0.91277 0.0
H1849 H 0.66469 0.84124 0.88079 0.0
H1850 H 0.66895 0.87109 0.83881 0.0
H1851 H 0.73537 0.9476 0.88288 0.0
H1852 H 0.77215 0.94958 0.87448 0.0
H1853 H 0.76063 0.92939 0.90427 0.0
H1854 H 0.78603 0.88578 0.88439 0.0
H1855 H 0.79737 0.90567 0.85445 0.0
H1856 H 0.77772 0.87379 0.84955 0.0
H1857 H 0.6842 0.89919 0.79826 0.0
H1858 H 0.70924 0.92446 0.76106 0.0
H1859 H 0.77844 0.94033 0.81798 0.0
C1860 C 0.72606 0.87484 0.89738 0.0
C1861 C 0.70312 0.85625 0.90016 0.0
C1862 C 0.68225 0.85555 0.87914 0.0
C1863 C 0.68447 0.87246 0.85527 0.0
C1864 C 0.70777 0.88989 0.85269 0.0
C1865 C 0.72818 0.89135 0.87317 0.0
C1866 C 0.75255 0.90955 0.86373 0.0
C1867 C 0.75533 0.93558 0.88245 0.0
C1868 C 0.78003 0.89268 0.86298 0.0
C1869 C 0.74297 0.91741 0.83445 0.0
C1870 C 0.71691 0.90605 0.82876 0.0
C1871 C 0.70438 0.90858 0.80259 0.0
C1872 C 0.7189 0.92287 0.78154 0.0
C1873 C 0.74576 0.93449 0.78664 0.0
C1874 C 0.75775 0.93208 0.81362 0.0
H1875 H 0.74565 0.11487 0.2804 0.0
H1876 H 0.70759 0.04473 0.32405 0.0
H1877 H 0.72282 0.06491 0.36933 0.0
H1878 H 0.80568 0.12374 0.32529 0.0
H1879 H 0.80489 0.16147 0.32376 0.0
H1880 H 0.79192 0.14114 0.29471 0.0
H1881 H 0.74405 0.16663 0.29773 0.0
H1882 H 0.75701 0.18726 0.32652 0.0
H1883 H 0.72534 0.16707 0.33053 0.0
H1884 H 0.74245 0.09234 0.4094 0.0
H1885 H 0.75987 0.12777 0.44243 0.0
H1886 H 0.78392 0.18116 0.37277 0.0
C1887 C 0.74058 0.1037 0.2995 0.0
C1888 C 0.72561 0.07812 0.29879 0.0
C1889 C 0.71899 0.06435 0.32418 0.0
C1890 C 0.72773 0.07555 0.34993 0.0
C1891 C 0.74281 0.10061 0.34982 0.0
C1892 C 0.74881 0.11475 0.32532 0.0
C1893 C 0.76394 0.14209 0.33109 0.0
C1894 C 0.79336 0.14209 0.31793 0.0
C1895 C 0.74654 0.16724 0.32087 0.0
C1896 C 0.76552 0.14117 0.36275 0.0
C1897 C 0.7535 0.11688 0.37304 0.0
C1898 C 0.75186 0.11144 0.40159 0.0
C1899 C 0.76191 0.13175 0.42017 0.0
C1900 C 0.77325 0.1574 0.41024 0.0
C1901 C 0.77567 0.16178 0.38108 0.0
H1902 H 0.24466 0.63372 0.08237 0.0
H1903 H 0.16875 0.6712 0.11568 0.0
H1904 H 0.17375 0.64264 0.15857 0.0
H1905 H 0.23545 0.56303 0.11334 0.0
H1906 H 0.27236 0.55946 0.12054 0.0
H1907 H 0.26079 0.57994 0.09098 0.0
H1908 H 0.28875 0.62254 0.10965 0.0
H1909 H 0.30019 0.60235 0.13936 0.0
H1910 H 0.28217 0.63511 0.14465 0.0
H1911 H 0.1892 0.6141 0.19898 0.0
H1912 H 0.21355 0.58699 0.23512 0.0
H1913 H 0.28052 0.56799 0.17644 0.0
C1914 C 0.22863 0.63538 0.09834 0.0
C1915 C 0.20611 0.65452 0.0956 0.0
C1916 C 0.18604 0.6566 0.11729 0.0
C1917 C 0.1887 0.64042 0.14167 0.0
C1918 C 0.21155 0.62233 0.14397 0.0
C1919 C 0.23113 0.6196 0.12288 0.0
C1920 C 0.25496 0.60041 0.13161 0.0
C1921 C 0.25593 0.57415 0.11301 0.0
C1922 C 0.28318 0.61605 0.1313 0.0
C1923 C 0.24604 0.59322 0.16122 0.0
C1924 C 0.22079 0.60594 0.16768 0.0
C1925 C 0.2088 0.6038 0.19408 0.0
C1926 C 0.22298 0.58843 0.21453 0.0
C1927 C 0.24906 0.57535 0.20866 0.0
C1928 C 0.26055 0.5775 0.18147 0.0
H1929 H 0.25226 0.39045 0.73209 0.0
H1930 H 0.20998 0.46027 0.69194 0.0
H1931 H 0.22431 0.44218 0.64561 0.0
H1932 H 0.311 0.3857 0.68466 0.0
H1933 H 0.31189 0.34794 0.68496 0.0
H1934 H 0.29916 0.36674 0.71512 0.0
H1935 H 0.25237 0.33922 0.71296 0.0
H1936 H 0.2651 0.32014 0.68302 0.0
H1937 H 0.23246 0.33901 0.68086 0.0
H1938 H 0.24311 0.41663 0.60381 0.0
H1939 H 0.26095 0.383 0.56898 0.0
H1940 H 0.29024 0.329 0.63611 0.0
C1941 C 0.24609 0.40199 0.71355 0.0
C1942 C 0.23011 0.42689 0.71563 0.0
C1943 C 0.22215 0.44116 0.69086 0.0
C1944 C 0.23035 0.43114 0.66447 0.0
C1945 C 0.24634 0.40672 0.66319 0.0
C1946 C 0.25384 0.39213 0.68703 0.0
C1947 C 0.26991 0.36569 0.67975 0.0
C1948 C 0.29976 0.36659 0.69184 0.0
C1949 C 0.25401 0.33947 0.68973 0.0
C1950 C 0.27026 0.36769 0.64806 0.0
C1951 C 0.25678 0.39167 0.639 0.0
C1952 C 0.25375 0.39781 0.61065 0.0
C1953 C 0.26406 0.37858 0.59102 0.0
C1954 C 0.27713 0.35336 0.59975 0.0
C1955 C 0.28073 0.34821 0.62871 0.0
H1956 H 0.86951 0.71555 0.82918 0.0
H1957 H 0.93652 0.74536 0.88301 0.0
H1958 H 0.90154 0.76203 0.91716 0.0
H1959 H 0.82443 0.77223 0.83971 0.0
H1960 H 0.79254 0.75199 0.83966 0.0
H1961 H 0.82268 0.73968 0.82062 0.0
H1962 H 0.82135 0.69281 0.84793 0.0
H1963 H 0.79094 0.70479 0.86682 0.0
H1964 H 0.82156 0.69326 0.88569 0.0
H1965 H 0.85952 0.77922 0.9434 0.0
H1966 H 0.81313 0.79307 0.96153 0.0
H1967 H 0.7733 0.75188 0.89084 0.0
C1968 C 0.87688 0.7249 0.84845 0.0
C1969 C 0.90581 0.72896 0.85346 0.0
C1970 C 0.9145 0.74189 0.87873 0.0
C1971 C 0.89478 0.75148 0.89827 0.0
C1972 C 0.86644 0.7479 0.8923 0.0
C1973 C 0.85747 0.73466 0.86817 0.0
C1974 C 0.82576 0.73467 0.86619 0.0
C1975 C 0.81578 0.75059 0.83999 0.0
C1976 C 0.81423 0.70459 0.8667 0.0
C1977 C 0.81836 0.75035 0.89278 0.0
C1978 C 0.84214 0.75777 0.90753 0.0
C1979 C 0.84072 0.77327 0.93221 0.0
C1980 C 0.81426 0.78116 0.94226 0.0
C1981 C 0.78955 0.7735 0.92769 0.0
C1982 C 0.79176 0.75791 0.90259 0.0
H1983 H 0.31256 0.72254 0.06518 0.0
H1984 H 0.24874 0.77999 0.09542 0.0
H1985 H 0.28313 0.80179 0.12687 0.0
H1986 H 0.34528 0.71154 0.13094 0.0
H1987 H 0.38046 0.71015 0.11726 0.0
H1988 H 0.35137 0.70007 0.09548 0.0
H1989 H 0.36675 0.73627 0.05803 0.0
H1990 H 0.3959 0.7465 0.07976 0.0
H1991 H 0.37118 0.77247 0.06788 0.0
H1992 H 0.32303 0.81546 0.15747 0.0
H1993 H 0.36654 0.82011 0.18504 0.0
H1994 H 0.40517 0.75489 0.13484 0.0
C1995 C 0.30595 0.73993 0.07815 0.0
C1996 C 0.27792 0.74953 0.0777 0.0
C1997 C 0.27006 0.77218 0.09528 0.0
C1998 C 0.28946 0.78482 0.11323 0.0
C1999 C 0.31678 0.77474 0.11339 0.0
C2000 C 0.32514 0.75289 0.0963 0.0
C2001 C 0.35557 0.74541 0.10158 0.0
C2002 C 0.35832 0.71499 0.11193 0.0
C2003 C 0.3734 0.75047 0.07524 0.0
C2004 C 0.36275 0.76618 0.12454 0.0
C2005 C 0.34008 0.78295 0.13095 0.0
C2006 C 0.34108 0.80269 0.15244 0.0
C2007 C 0.36586 0.80516 0.16803 0.0
C2008 C 0.38932 0.78808 0.16199 0.0
C2009 C 0.38776 0.76861 0.13967 0.0
H2010 H 0.22795 0.24606 0.613 0.0
H2011 H 0.18488 0.26292 0.53472 0.0
H2012 H 0.14184 0.2414 0.5538 0.0
H2013 H 0.19292 0.17959 0.63017 0.0
H2014 H 0.19069 0.18756 0.66702 0.0
H2015 H 0.21914 0.20143 0.64638 0.0
H2016 H 0.20616 0.25186 0.66177 0.0
H2017 H 0.17798 0.23809 0.68268 0.0
H2018 H 0.17089 0.26432 0.65645 0.0
H2019 H 0.10314 0.22059 0.58172 0.0
H2020 H 0.06945 0.20719 0.6184 0.0
H2021 H 0.13679 0.20508 0.67948 0.0
C2022 C 0.20954 0.24484 0.59978 0.0
C2023 C 0.20974 0.25591 0.5723 0.0
C2024 C 0.18513 0.25456 0.55582 0.0
C2025 C 0.16069 0.24215 0.56639 0.0
C2026 C 0.16116 0.2314 0.59353 0.0
C2027 C 0.1848 0.23293 0.61017 0.0
C2028 C 0.17886 0.22231 0.63954 0.0
C2029 C 0.19645 0.19616 0.64616 0.0
C2030 C 0.18375 0.24553 0.66139 0.0
C2031 C 0.14803 0.21505 0.63693 0.0
C2032 C 0.13844 0.21997 0.61004 0.0
C2033 C 0.11043 0.21643 0.60278 0.0
C2034 C 0.09146 0.20875 0.62379 0.0
C2035 C 0.10049 0.20491 0.65182 0.0
C2036 C 0.12932 0.20724 0.65821 0.0
H2037 H 0.62992 0.30128 0.32971 0.0
H2038 H 0.56005 0.28253 0.38487 0.0
H2039 H 0.59306 0.26955 0.42235 0.0
H2040 H 0.67154 0.2447 0.3499 0.0
H2041 H 0.70453 0.26302 0.34817 0.0
H2042 H 0.67568 0.27412 0.32657 0.0
H2043 H 0.67902 0.32421 0.34718 0.0
H2044 H 0.7081 0.31334 0.36868 0.0
H2045 H 0.67767 0.32903 0.38462 0.0
H2046 H 0.63323 0.25363 0.45213 0.0
H2047 H 0.67819 0.23846 0.47296 0.0
H2048 H 0.7221 0.26813 0.39902 0.0
C2049 C 0.62159 0.29521 0.34992 0.0
C2050 C 0.59237 0.2931 0.35437 0.0
C2051 C 0.58233 0.2844 0.38095 0.0
C2052 C 0.60092 0.27698 0.40242 0.0
C2053 C 0.62956 0.27844 0.39712 0.0
C2054 C 0.63991 0.28761 0.37164 0.0
C2055 C 0.67161 0.28561 0.37087 0.0
C2056 C 0.6814 0.26568 0.3475 0.0
C2057 C 0.68488 0.31479 0.36766 0.0
C2058 C 0.67735 0.27341 0.39965 0.0
C2059 C 0.65282 0.26949 0.41448 0.0
C2060 C 0.65265 0.25699 0.44091 0.0
C2061 C 0.67826 0.24834 0.45253 0.0
C2062 C 0.70369 0.2523 0.43778 0.0
C2063 C 0.70309 0.26518 0.41106 0.0
H2064 H 0.91255 0.23785 0.12664 0.0
H2065 H 0.99108 0.25217 0.08333 0.0
H2066 H 0.96568 0.27543 0.04472 0.0
H2067 H 0.8705 0.22434 0.06534 0.0
H2068 H 0.8401 0.24206 0.07903 0.0
H2069 H 0.86476 0.22608 0.10262 0.0
H2070 H 0.87028 0.27381 0.12813 0.0
H2071 H 0.84617 0.28995 0.10395 0.0
H2072 H 0.88083 0.30429 0.10846 0.0
H2073 H 0.93175 0.29588 0.0102 0.0
H2074 H 0.89098 0.309 0.98085 0.0
H2075 H 0.8351 0.28432 0.04792 0.0
C2076 C 0.92434 0.24606 0.10912 0.0
C2077 C 0.95379 0.24338 0.10802 0.0
C2078 C 0.96847 0.25377 0.08439 0.0
C2079 C 0.95427 0.26729 0.06255 0.0
C2080 C 0.92535 0.27039 0.06464 0.0
C2081 C 0.91047 0.25985 0.08718 0.0
C2082 C 0.87938 0.26547 0.08393 0.0
C2083 C 0.86272 0.23785 0.08264 0.0
C2084 C 0.86854 0.28452 0.10753 0.0
C2085 C 0.87916 0.28056 0.05597 0.0
C2086 C 0.9059 0.28328 0.04522 0.0
C2087 C 0.91075 0.29442 0.01862 0.0
C2088 C 0.88757 0.30208 0.0022 0.0
C2089 C 0.86002 0.29894 0.01264 0.0
C2090 C 0.85591 0.28862 0.04008 0.0
H2091 H 0.66129 0.70686 0.5417 0.0
H2092 H 0.6078 0.70697 0.46842 0.0
H2093 H 0.56704 0.71868 0.49844 0.0
H2094 H 0.61063 0.68072 0.59372 0.0
H2095 H 0.62323 0.70431 0.62038 0.0
H2096 H 0.64681 0.69163 0.59376 0.0
H2097 H 0.65933 0.74285 0.58071 0.0
H2098 H 0.63548 0.75574 0.60691 0.0
H2099 H 0.63177 0.76675 0.57099 0.0
H2100 H 0.53303 0.73351 0.53618 0.0
H2101 H 0.50797 0.74939 0.57847 0.0
H2102 H 0.58531 0.74465 0.62601 0.0
C2103 C 0.64084 0.70805 0.53211 0.0
C2104 C 0.63748 0.70489 0.50285 0.0
C2105 C 0.61059 0.70845 0.49089 0.0
C2106 C 0.58743 0.7153 0.50777 0.0
C2107 C 0.59169 0.71913 0.53646 0.0
C2108 C 0.61776 0.71565 0.54852 0.0
C2109 C 0.61747 0.7238 0.57925 0.0
C2110 C 0.62498 0.69861 0.59787 0.0
C2111 C 0.63717 0.74876 0.58477 0.0
C2112 C 0.58703 0.73213 0.58275 0.0
C2113 C 0.57252 0.72916 0.55785 0.0
C2114 C 0.54419 0.73577 0.55579 0.0
C2115 C 0.53019 0.74503 0.57991 0.0
C2116 C 0.54442 0.7478 0.60588 0.0
C2117 C 0.57344 0.74181 0.60697 0.0
H2118 H 0.37677 0.2428 0.00541 0.0
H2119 H 0.36041 0.15526 0.98713 0.0
H2120 H 0.39362 0.15758 0.9474 0.0
H2121 H 0.37598 0.26449 0.93621 0.0
H2122 H 0.4029 0.29075 0.93975 0.0
H2123 H 0.38171 0.28136 0.96949 0.0
H2124 H 0.42614 0.26927 0.99823 0.0
H2125 H 0.44762 0.27924 0.96882 0.0
H2126 H 0.45136 0.24493 0.98416 0.0
H2127 H 0.42575 0.17051 0.9077 0.0
H2128 H 0.45524 0.19247 0.87151 0.0
H2129 H 0.44792 0.27261 0.91352 0.0
C2130 C 0.381 0.22378 0.99378 0.0
C2131 C 0.36649 0.19862 0.99978 0.0
C2132 C 0.37172 0.17456 0.98325 0.0
C2133 C 0.39042 0.17576 0.96056 0.0
C2134 C 0.40348 0.20122 0.95456 0.0
C2135 C 0.39913 0.22477 0.97079 0.0
C2136 C 0.41365 0.2502 0.95843 0.0
C2137 C 0.39228 0.27304 0.9505 0.0
C2138 C 0.43603 0.26157 0.97861 0.0
C2139 C 0.42683 0.23734 0.9326 0.0
C2140 C 0.42079 0.20905 0.93086 0.0
C2141 C 0.43041 0.19267 0.90876 0.0
C2142 C 0.44677 0.20547 0.888 0.0
C2143 C 0.45298 0.23452 0.88912 0.0
C2144 C 0.44306 0.25052 0.91192 0.0
H2145 H 0.16767 0.79409 0.45162 0.0
H2146 H 0.11029 0.80058 0.52162 0.0
H2147 H 0.07045 0.79174 0.48959 0.0
H2148 H 0.12077 0.82374 0.39618 0.0
H2149 H 0.13326 0.7989 0.37065 0.0
H2150 H 0.15626 0.81093 0.39808 0.0
H2151 H 0.16533 0.75948 0.41286 0.0
H2152 H 0.14219 0.74733 0.38569 0.0
H2153 H 0.13608 0.73724 0.42157 0.0
H2154 H 0.03781 0.77718 0.45109 0.0
H2155 H 0.01415 0.75968 0.4085 0.0
H2156 H 0.09353 0.75912 0.36442 0.0
C2157 C 0.14666 0.79519 0.45997 0.0
C2158 C 0.14195 0.79904 0.48893 0.0
C2159 C 0.11421 0.7984 0.49937 0.0
C2160 C 0.09152 0.79327 0.48135 0.0
C2161 C 0.09703 0.78851 0.45304 0.0
C2162 C 0.12391 0.7896 0.44236 0.0
C2163 C 0.12459 0.7807 0.41186 0.0
C2164 C 0.13429 0.80502 0.39308 0.0
C2165 C 0.14313 0.75464 0.40777 0.0
C2166 C 0.09393 0.77397 0.40713 0.0
C2167 C 0.07838 0.77891 0.43108 0.0
C2168 C 0.04973 0.77352 0.43216 0.0
C2169 C 0.03654 0.76333 0.408 0.0
C2170 C 0.05196 0.7584 0.38312 0.0
C2171 C 0.08111 0.76346 0.38287 0.0
H2172 H 0.13303 0.91462 0.25391 0.0
H2173 H 0.08924 0.99401 0.2583 0.0
H2174 H 0.04651 0.96963 0.27456 0.0
H2175 H 0.07479 0.87287 0.23113 0.0
H2176 H 0.08444 0.84291 0.25195 0.0
H2177 H 0.11105 0.86673 0.23981 0.0
H2178 H 0.12777 0.87387 0.29106 0.0
H2179 H 0.1009 0.85034 0.30334 0.0
H2180 H 0.10306 0.8854 0.31719 0.0
H2181 H 0.00785 0.93597 0.28907 0.0
H2182 H 0.97687 0.89562 0.30005 0.0
H2183 H 0.04752 0.83951 0.29028 0.0
C2184 C 0.11468 0.92693 0.25885 0.0
C2185 C 0.11465 0.95631 0.25531 0.0
C2186 C 0.08968 0.97147 0.26079 0.0
C2187 C 0.06539 0.95784 0.27024 0.0
C2188 C 0.06635 0.92896 0.27429 0.0
C2189 C 0.09035 0.91367 0.26872 0.0
C2190 C 0.08582 0.88283 0.27466 0.0
C2191 C 0.08922 0.86532 0.24779 0.0
C2192 C 0.10556 0.87251 0.29795 0.0
C2193 C 0.05562 0.88321 0.28447 0.0
C2194 C 0.0446 0.90994 0.28392 0.0
C2195 C 0.01642 0.915 0.2901 0.0
C2196 C 0.999 0.89205 0.29647 0.0
C2197 C 0.00998 0.86453 0.29715 0.0
C2198 C 0.03874 0.86032 0.29141 0.0
H2199 H 0.47881 0.15232 0.76073 0.0
H2200 H 0.49865 0.12823 0.8458 0.0
H2201 H 0.46514 0.08828 0.84204 0.0
H2202 H 0.40355 0.13464 0.76477 0.0
H2203 H 0.40323 0.1244 0.72842 0.0
H2204 H 0.42728 0.1509 0.74045 0.0
H2205 H 0.46789 0.12094 0.71894 0.0
H2206 H 0.44352 0.09402 0.70882 0.0
H2207 H 0.47287 0.0855 0.73102 0.0
H2208 H 0.43049 0.05011 0.82744 0.0
H2209 H 0.39621 0.01836 0.80459 0.0
H2210 H 0.39925 0.06851 0.7292 0.0
C2211 C 0.47594 0.13864 0.77856 0.0
C2212 C 0.49124 0.14292 0.80343 0.0
C2213 C 0.48701 0.12503 0.82659 0.0
C2214 C 0.46811 0.1024 0.82455 0.0
C2215 C 0.45359 0.09848 0.79936 0.0
C2216 C 0.45707 0.11641 0.77693 0.0
C2217 C 0.43897 0.10812 0.75224 0.0
C2218 C 0.41695 0.13085 0.74609 0.0
C2219 C 0.45689 0.10176 0.72623 0.0
C2220 C 0.42538 0.08194 0.76374 0.0
C2221 C 0.43382 0.07687 0.79106 0.0
C2222 C 0.42376 0.05398 0.80614 0.0
C2223 C 0.40445 0.03608 0.79306 0.0
C2224 C 0.39545 0.04114 0.76525 0.0
C2225 C 0.40614 0.06422 0.75038 0.0
H2226 H 0.58309 0.54681 0.77134 0.0
H2227 H 0.64907 0.56129 0.71077 0.0
H2228 H 0.61864 0.59362 0.68478 0.0
H2229 H 0.52663 0.54632 0.72112 0.0
H2230 H 0.5022 0.56377 0.74403 0.0
H2231 H 0.52965 0.5423 0.75855 0.0
H2232 H 0.54674 0.58396 0.7886 0.0
H2233 H 0.51952 0.60586 0.77438 0.0
H2234 H 0.55568 0.61655 0.7718 0.0
H2235 H 0.58072 0.62522 0.66549 0.0
H2236 H 0.53958 0.65567 0.65693 0.0
H2237 H 0.49748 0.61783 0.7281 0.0
C2238 C 0.5912 0.55713 0.75283 0.0
C2239 C 0.61896 0.55229 0.74381 0.0
C2240 C 0.62853 0.56564 0.71901 0.0
C2241 C 0.61112 0.58366 0.70372 0.0
C2242 C 0.58384 0.58778 0.71309 0.0
C2243 C 0.57394 0.57494 0.73711 0.0
C2244 C 0.54382 0.58302 0.74277 0.0
C2245 C 0.52444 0.55731 0.74154 0.0
C2246 C 0.54128 0.59826 0.77106 0.0
C2247 C 0.5385 0.60262 0.71838 0.0
C2248 C 0.56175 0.60504 0.70137 0.0
C2249 C 0.56227 0.62334 0.67854 0.0
C2250 C 0.5388 0.64049 0.67374 0.0
C2251 C 0.51523 0.63916 0.69168 0.0
C2252 C 0.51484 0.6191 0.71355 0.0
H2253 H 0.99521 0.36351 0.2319 0.0
H2254 H 0.96492 0.3338 0.15157 0.0
H2255 H 0.92515 0.36719 0.15451 0.0
H2256 H 0.92946 0.3666 0.26317 0.0
H2257 H 0.93687 0.397 0.28431 0.0
H2258 H 0.96489 0.37394 0.27405 0.0
H2259 H 0.99166 0.41542 0.25139 0.0
H2260 H 0.96405 0.43881 0.26208 0.0
H2261 H 0.97422 0.43701 0.22576 0.0
H2262 H 0.88804 0.40339 0.16753 0.0
H2263 H 0.85668 0.43805 0.18917 0.0
H2264 H 0.90907 0.4396 0.26335 0.0
C2265 C 0.98081 0.36464 0.2144 0.0
C2266 C 0.98343 0.34644 0.19119 0.0
C2267 C 0.96343 0.3478 0.16934 0.0
C2268 C 0.9408 0.36664 0.17091 0.0
C2269 C 0.93837 0.3836 0.19464 0.0
C2270 C 0.9579 0.38271 0.21596 0.0
C2271 C 0.94945 0.40112 0.24035 0.0
C2272 C 0.9449 0.38362 0.26704 0.0
C2273 C 0.97113 0.42448 0.24516 0.0
C2274 C 0.92208 0.41274 0.22947 0.0
C2275 C 0.91612 0.4026 0.203 0.0
C2276 C 0.89228 0.41101 0.18846 0.0
C2277 C 0.87422 0.43039 0.20122 0.0
C2278 C 0.8796 0.44064 0.22864 0.0
C2279 C 0.904 0.43164 0.24273 0.0
H2280 H 0.24059 0.08166 0.9534 0.0
H2281 H 0.32086 0.12382 0.9578 0.0
H2282 H 0.34052 0.09046 0.92347 0.0
H2283 H 0.26875 0.01119 0.94818 0.0
H2284 H 0.24205 0.9994 0.92421 0.0
H2285 H 0.23429 0.02666 0.94913 0.0
H2286 H 0.21862 0.05954 0.90873 0.0
H2287 H 0.22604 0.03224 0.88382 0.0
H2288 H 0.24226 0.06612 0.88002 0.0
H2289 H 0.35056 0.05385 0.88636 0.0
H2290 H 0.35001 0.01647 0.85026 0.0
H2291 H 0.26419 0.99661 0.8728 0.0
C2292 C 0.26225 0.08379 0.94701 0.0
C2293 C 0.27893 0.10584 0.95743 0.0
C2294 C 0.30741 0.10774 0.94914 0.0
C2295 C 0.31885 0.08869 0.92993 0.0
C2296 C 0.30171 0.06745 0.91965 0.0
C2297 C 0.27406 0.06479 0.92801 0.0
C2298 C 0.26006 0.04025 0.91365 0.0
C2299 C 0.25075 0.01807 0.93508 0.0
C2300 C 0.2353 0.05014 0.89548 0.0
C2301 C 0.28406 0.02969 0.89579 0.0
C2302 C 0.30792 0.04565 0.89942 0.0
C2303 C 0.33211 0.04094 0.88362 0.0
C2304 C 0.33165 0.01972 0.8632 0.0
C2305 C 0.30725 0.0034 0.85902 0.0
C2306 C 0.28346 0.00819 0.87601 0.0
H2307 H 0.72919 0.40652 0.05559 0.0
H2308 H 0.80565 0.35749 0.05774 0.0
H2309 H 0.82758 0.39256 0.08838 0.0
H2310 H 0.76363 0.47356 0.05193 0.0
H2311 H 0.73841 0.49133 0.07369 0.0
H2312 H 0.72778 0.46165 0.05292 0.0
H2313 H 0.70926 0.43632 0.09743 0.0
H2314 H 0.7191 0.46641 0.11789 0.0
H2315 H 0.73218 0.43223 0.12718 0.0
H2316 H 0.841 0.43233 0.11994 0.0
H2317 H 0.84428 0.47384 0.15081 0.0
H2318 H 0.76091 0.49931 0.1252 0.0
C2319 C 0.7504 0.40307 0.06289 0.0
C2320 C 0.76518 0.37858 0.05524 0.0
C2321 C 0.79325 0.37519 0.06449 0.0
C2322 C 0.80614 0.39532 0.08152 0.0
C2323 C 0.79097 0.41915 0.0887 0.0
C2324 C 0.76372 0.42317 0.0797 0.0
C2325 C 0.75226 0.45086 0.09023 0.0
C2326 C 0.7451 0.47051 0.06572 0.0
C2327 C 0.7267 0.44616 0.10932 0.0
C2328 C 0.77725 0.4616 0.10667 0.0
C2329 C 0.79936 0.44295 0.10554 0.0
C2330 C 0.82401 0.44733 0.12063 0.0
C2331 C 0.82578 0.47099 0.13797 0.0
C2332 C 0.80319 0.49009 0.1398 0.0
C2333 C 0.77892 0.48562 0.1234 0.0
H2334 H 0.73867 0.58153 0.53504 0.0
H2335 H 0.74698 0.65457 0.58838 0.0
H2336 H 0.72855 0.62769 0.62824 0.0
H2337 H 0.67828 0.55034 0.56502 0.0
H2338 H 0.69119 0.51486 0.56442 0.0
H2339 H 0.70357 0.53987 0.53899 0.0
H2340 H 0.75496 0.53062 0.5539 0.0
H2341 H 0.74275 0.50505 0.57885 0.0
H2342 H 0.76452 0.53371 0.59032 0.0
H2343 H 0.70459 0.59489 0.66058 0.0
H2344 H 0.69108 0.55446 0.6888 0.0
H2345 H 0.70599 0.49928 0.61825 0.0
C2346 C 0.73682 0.59178 0.55518 0.0
C2347 C 0.74234 0.62084 0.55807 0.0
C2348 C 0.74076 0.6331 0.58503 0.0
C2349 C 0.73061 0.61786 0.60792 0.0
C2350 C 0.72347 0.58989 0.60389 0.0
C2351 C 0.72775 0.5765 0.57865 0.0
C2352 C 0.72105 0.54543 0.58106 0.0
C2353 C 0.69709 0.53715 0.56118 0.0
C2354 C 0.74739 0.52765 0.57572 0.0
C2355 C 0.71185 0.54371 0.61149 0.0
C2356 C 0.71271 0.56986 0.62384 0.0
C2357 C 0.70428 0.5742 0.65131 0.0
C2358 C 0.6962 0.55098 0.66718 0.0
C2359 C 0.69736 0.52352 0.65602 0.0
C2360 C 0.70468 0.51997 0.62745 0.0
H2361 H 0.24998 0.86588 0.41284 0.0
H2362 H 0.2384 0.9074 0.49271 0.0
H2363 H 0.21745 0.94814 0.46866 0.0
H2364 H 0.26788 0.92739 0.37337 0.0
H2365 H 0.24955 0.91648 0.34224 0.0
H2366 H 0.26336 0.89064 0.36595 0.0
H2367 H 0.21383 0.86853 0.37015 0.0
H2368 H 0.19984 0.89475 0.34684 0.0
H2369 H 0.18475 0.88999 0.38113 0.0
H2370 H 0.2 0.98525 0.43606 0.0
H2371 H 0.18963 0.01717 0.39651 0.0
H2372 H 0.20931 0.95068 0.33799 0.0
C2373 C 0.24272 0.88343 0.42519 0.0
C2374 C 0.24562 0.88346 0.45466 0.0
C2375 C 0.23655 0.90712 0.47011 0.0
C2376 C 0.22438 0.9302 0.45667 0.0
C2377 C 0.22127 0.92934 0.42769 0.0
C2378 C 0.23033 0.90668 0.41205 0.0
C2379 C 0.22533 0.9116 0.38104 0.0
C2380 C 0.25317 0.91153 0.3647 0.0
C2381 C 0.20471 0.88992 0.36909 0.0
C2382 C 0.21234 0.94062 0.38177 0.0
C2383 C 0.21013 0.95044 0.4089 0.0
C2384 C 0.20106 0.97761 0.41475 0.0
C2385 C 0.19499 0.99554 0.39223 0.0
C2386 C 0.19761 0.98608 0.36429 0.0
C2387 C 0.20571 0.95805 0.35912 0.0
H2388 H 0.04126 0.75497 0.91032 0.0
H2389 H 0.09767 0.75199 0.83918 0.0
H2390 H 0.13209 0.72598 0.86748 0.0
H2391 H 0.09914 0.7699 0.95973 0.0
H2392 H 0.08222 0.7515 0.98805 0.0
H2393 H 0.06142 0.76823 0.96138 0.0
H2394 H 0.03643 0.72086 0.95219 0.0
H2395 H 0.05795 0.70379 0.9781 0.0
H2396 H 0.05695 0.6906 0.94273 0.0
H2397 H 0.15717 0.69508 0.90154 0.0
H2398 H 0.18107 0.67789 0.94341 0.0
H2399 H 0.11357 0.70922 0.99546 0.0
C2400 C 0.06102 0.74921 0.90079 0.0
C2401 C 0.06592 0.75365 0.87186 0.0
C2402 C 0.09249 0.74681 0.86057 0.0
C2403 C 0.11227 0.73222 0.87657 0.0
C2404 C 0.10576 0.72604 0.90431 0.0
C2405 C 0.08156 0.73572 0.91683 0.0
C2406 C 0.0814 0.72915 0.94794 0.0
C2407 C 0.08104 0.75631 0.9653 0.0
C2408 C 0.05671 0.70996 0.95568 0.0
C2409 C 0.10914 0.71388 0.95075 0.0
C2410 C 0.12223 0.71151 0.92507 0.0
C2411 C 0.1475 0.69745 0.92191 0.0
C2412 C 0.16089 0.68747 0.94596 0.0
C2413 C 0.14976 0.69271 0.97295 0.0
C2414 C 0.12278 0.7049 0.97519 0.0
H2415 H 0.40946 0.26569 0.37381 0.0
H2416 H 0.48826 0.26655 0.41889 0.0
H2417 H 0.46396 0.28395 0.46119 0.0
H2418 H 0.38251 0.33065 0.40379 0.0
H2419 H 0.34687 0.3182 0.40516 0.0
H2420 H 0.37035 0.30535 0.37853 0.0
H2421 H 0.36078 0.25419 0.39438 0.0
H2422 H 0.33705 0.26689 0.42077 0.0
H2423 H 0.36601 0.24475 0.43057 0.0
H2424 H 0.43028 0.29865 0.4994 0.0
H2425 H 0.38968 0.30888 0.53017 0.0
H2426 H 0.3346 0.30419 0.45819 0.0
C2427 C 0.42169 0.27024 0.39232 0.0
C2428 C 0.45084 0.26531 0.39291 0.0
C2429 C 0.46588 0.27016 0.41806 0.0
C2430 C 0.45232 0.28027 0.44208 0.0
C2431 C 0.42369 0.2857 0.44057 0.0
C2432 C 0.40855 0.28089 0.41632 0.0
C2433 C 0.37791 0.28802 0.42036 0.0
C2434 C 0.36889 0.31198 0.4008 0.0
C2435 C 0.35936 0.26192 0.41628 0.0
C2436 C 0.3782 0.29739 0.45067 0.0
C2437 C 0.40472 0.29572 0.46209 0.0
C2438 C 0.4095 0.30065 0.49054 0.0
C2439 C 0.3864 0.30662 0.50784 0.0
C2440 C 0.35904 0.30812 0.49649 0.0
C2441 C 0.35524 0.30425 0.4674 0.0
H2442 H 0.65655 0.79865 0.04289 0.0
H2443 H 0.60402 0.80238 0.96898 0.0
H2444 H 0.56232 0.79205 0.99822 0.0
H2445 H 0.62381 0.73995 0.07134 0.0
H2446 H 0.62754 0.7506 0.10737 0.0
H2447 H 0.65224 0.76262 0.08155 0.0
H2448 H 0.64172 0.81416 0.09499 0.0
H2449 H 0.6171 0.80227 0.12105 0.0
H2450 H 0.60607 0.82663 0.09438 0.0
H2451 H 0.52712 0.77848 0.03513 0.0
H2452 H 0.50082 0.76239 0.07676 0.0
H2453 H 0.57755 0.76246 0.12531 0.0
C2454 C 0.63611 0.79848 0.03308 0.0
C2455 C 0.63322 0.80231 0.00389 0.0
C2456 C 0.60642 0.80021 0.99144 0.0
C2457 C 0.58272 0.79426 0.00787 0.0
C2458 C 0.5864 0.78991 0.03656 0.0
C2459 C 0.61245 0.79185 0.04904 0.0
C2460 C 0.61129 0.78342 0.07964 0.0
C2461 C 0.62981 0.75762 0.08529 0.0
C2462 C 0.61953 0.80809 0.09864 0.0
C2463 C 0.58046 0.77642 0.08249 0.0
C2464 C 0.56644 0.78059 0.05747 0.0
C2465 C 0.53786 0.7753 0.05484 0.0
C2466 C 0.52315 0.76599 0.0785 0.0
C2467 C 0.537 0.76183 0.10442 0.0
C2468 C 0.56616 0.76661 0.10619 0.0
H2469 H 0.86638 0.24718 0.50548 0.0
H2470 H 0.85165 0.1584 0.51768 0.0
H2471 H 0.88823 0.15753 0.55454 0.0
H2472 H 0.94202 0.24939 0.52094 0.0
H2473 H 0.93896 0.2819 0.5399 0.0
H2474 H 0.91522 0.2743 0.51154 0.0
H2475 H 0.8731 0.28216 0.54492 0.0
H2476 H 0.89662 0.28929 0.57353 0.0
H2477 H 0.87068 0.26202 0.57676 0.0
H2478 H 0.92498 0.16697 0.59095 0.0
H2479 H 0.95762 0.18594 0.62602 0.0
H2480 H 0.94406 0.26983 0.59412 0.0
C2481 C 0.87176 0.22731 0.51507 0.0
C2482 C 0.8571 0.20257 0.50809 0.0
C2483 C 0.86336 0.17731 0.52223 0.0
C2484 C 0.88394 0.17671 0.54323 0.0
C2485 C 0.89749 0.20169 0.55015 0.0
C2486 C 0.89156 0.22656 0.5366 0.0
C2487 C 0.90657 0.25105 0.55014 0.0
C2488 C 0.92691 0.26497 0.52939 0.0
C2489 C 0.88549 0.27238 0.56204 0.0
C2490 C 0.92214 0.23606 0.57335 0.0
C2491 C 0.91675 0.20759 0.5728 0.0
C2492 C 0.92894 0.18928 0.5919 0.0
C2493 C 0.94702 0.20035 0.61215 0.0
C2494 C 0.9522 0.22956 0.61373 0.0
C2495 C 0.9399 0.24754 0.59375 0.0
H2496 H 0.87192 0.08787 0.75104 0.0
H2497 H 0.91703 0.00909 0.7534 0.0
H2498 H 0.95961 0.0329 0.73612 0.0
H2499 H 0.90287 0.1129 0.68622 0.0
H2500 H 0.90417 0.14889 0.69759 0.0
H2501 H 0.87732 0.12585 0.71084 0.0
H2502 H 0.89259 0.13683 0.76186 0.0
H2503 H 0.91918 0.16018 0.74878 0.0
H2504 H 0.92869 0.13177 0.77177 0.0
H2505 H 0.99774 0.06573 0.71989 0.0
H2506 H 0.02863 0.10562 0.7074 0.0
H2507 H 0.95744 0.16173 0.71206 0.0
C2508 C 0.89053 0.07552 0.74739 0.0
C2509 C 0.89097 0.0465 0.75312 0.0
C2510 C 0.91626 0.03138 0.74926 0.0
C2511 C 0.94046 0.04465 0.73918 0.0
C2512 C 0.93905 0.07308 0.73285 0.0
C2513 C 0.91476 0.08836 0.73688 0.0
C2514 C 0.91895 0.11877 0.72886 0.0
C2515 C 0.89968 0.12708 0.70442 0.0
C2516 C 0.91459 0.13803 0.75432 0.0
C2517 C 0.94939 0.1182 0.71987 0.0
C2518 C 0.96067 0.09167 0.72238 0.0
C2519 C 0.98902 0.08649 0.71733 0.0
C2520 C 0.00637 0.10917 0.71012 0.0
C2521 C 0.99519 0.1365 0.70765 0.0
C2522 C 0.96627 0.14086 0.71224 0.0
H2523 H 0.58277 0.94827 0.26967 0.0
H2524 H 0.6161 0.96255 0.18647 0.0
H2525 H 0.58076 0.93072 0.16654 0.0
H2526 H 0.56551 0.87583 0.26107 0.0
H2527 H 0.5334 0.878 0.28079 0.0
H2528 H 0.56179 0.90163 0.2884 0.0
H2529 H 0.52839 0.94385 0.28078 0.0
H2530 H 0.5 0.92025 0.27283 0.0
H2531 H 0.5097 0.94712 0.24812 0.0
H2532 H 0.54353 0.89482 0.15606 0.0
H2533 H 0.50667 0.85822 0.15621 0.0
H2534 H 0.49463 0.87124 0.24533 0.0
C2535 C 0.58261 0.9445 0.2473 0.0
C2536 C 0.603 0.95677 0.2298 0.0
C2537 C 0.60181 0.95203 0.20051 0.0
C2538 C 0.58141 0.93442 0.1889 0.0
C2539 C 0.56185 0.92228 0.20676 0.0
C2540 C 0.56213 0.92724 0.23532 0.0
C2541 C 0.53875 0.91155 0.24988 0.0
C2542 C 0.55058 0.89052 0.27128 0.0
C2543 C 0.51798 0.93192 0.26371 0.0
C2544 C 0.52558 0.89675 0.22511 0.0
C2545 C 0.53921 0.90312 0.2004 0.0
C2546 C 0.5323 0.89005 0.17517 0.0
C2547 C 0.51134 0.86938 0.17539 0.0
C2548 C 0.49743 0.86236 0.2006 0.0
C2549 C 0.50423 0.87681 0.22553 0.0
H2550 H 0.45295 0.34385 0.2942 0.0
H2551 H 0.52309 0.40069 0.30379 0.0
H2552 H 0.49278 0.44019 0.28891 0.0
H2553 H 0.42948 0.37254 0.23196 0.0
H2554 H 0.3928 0.36676 0.23875 0.0
H2555 H 0.4186 0.34427 0.25456 0.0
H2556 H 0.39869 0.35602 0.3039 0.0
H2557 H 0.37277 0.37842 0.288 0.0
H2558 H 0.3958 0.39213 0.3146 0.0
H2559 H 0.45571 0.4724 0.26919 0.0
H2560 H 0.41462 0.49538 0.24783 0.0
H2561 H 0.37066 0.41586 0.24667 0.0
C2562 C 0.46161 0.36478 0.29459 0.0
C2563 C 0.4901 0.36943 0.30121 0.0
C2564 C 0.50111 0.3969 0.29958 0.0
C2565 C 0.48409 0.41935 0.29098 0.0
C2566 C 0.4563 0.41379 0.28365 0.0
C2567 C 0.44514 0.38715 0.28544 0.0
C2568 C 0.41568 0.38603 0.27361 0.0
C2569 C 0.41406 0.36621 0.24823 0.0
C2570 C 0.39448 0.37766 0.29639 0.0
C2571 C 0.41193 0.41625 0.26483 0.0
C2572 C 0.43551 0.43194 0.27097 0.0
C2573 C 0.43711 0.46031 0.26446 0.0
C2574 C 0.41377 0.47311 0.25204 0.0
C2575 C 0.38915 0.45756 0.24597 0.0
C2576 C 0.38863 0.42858 0.25191 0.0
H2577 H 0.12484 0.58573 0.76787 0.0
H2578 H 0.07747 0.50972 0.78246 0.0
H2579 H 0.03751 0.53775 0.79993 0.0
H2580 H 0.10006 0.62344 0.82983 0.0
H2581 H 0.0986 0.65676 0.8121 0.0
H2582 H 0.12375 0.63073 0.80132 0.0
H2583 H 0.10454 0.63281 0.75047 0.0
H2584 H 0.07971 0.6591 0.76109 0.0
H2585 H 0.06763 0.62747 0.74442 0.0
H2586 H 0.0017 0.57425 0.81272 0.0
H2587 H 0.97253 0.61677 0.81884 0.0
H2588 H 0.04456 0.66848 0.79935 0.0
C2589 C 0.10623 0.57508 0.77527 0.0
C2590 C 0.10424 0.54561 0.77426 0.0
C2591 C 0.07924 0.53232 0.78314 0.0
C2592 C 0.0566 0.54803 0.79326 0.0
C2593 C 0.05934 0.57705 0.79449 0.0
C2594 C 0.08351 0.59048 0.7857 0.0
C2595 C 0.08064 0.62197 0.78821 0.0
C2596 C 0.10204 0.63392 0.80912 0.0
C2597 C 0.08328 0.63616 0.75934 0.0
C2598 C 0.05105 0.6241 0.79952 0.0
C2599 C 0.03907 0.59799 0.80297 0.0
C2600 C 0.01103 0.59482 0.8107 0.0
C2601 C 0.99465 0.61901 0.81428 0.0
C2602 C 0.00652 0.64591 0.81053 0.0
C2603 C 0.03522 0.64833 0.80369 0.0
H2604 H 0.73773 0.87908 0.08633 0.0
H2605 H 0.73738 0.92707 0.00931 0.0
H2606 H 0.72348 0.96949 0.03565 0.0
H2607 H 0.67603 0.91207 0.11664 0.0
H2608 H 0.68969 0.91136 0.15184 0.0
H2609 H 0.70013 0.8849 0.12702 0.0
H2610 H 0.75236 0.8973 0.13547 0.0
H2611 H 0.74216 0.92371 0.16037 0.0
H2612 H 0.76389 0.93298 0.13092 0.0
H2613 H 0.71157 0.00708 0.07084 0.0
H2614 H 0.70211 0.03676 0.11247 0.0
H2615 H 0.70627 0.9632 0.16551 0.0
C2616 C 0.73411 0.89838 0.075 0.0
C2617 C 0.73807 0.89978 0.04575 0.0
C2618 C 0.73438 0.92569 0.03175 0.0
C2619 C 0.72633 0.94978 0.04648 0.0
C2620 C 0.7219 0.94758 0.07523 0.0
C2621 C 0.72561 0.92253 0.08935 0.0
C2622 C 0.71972 0.92588 0.12033 0.0
C2623 C 0.69492 0.90745 0.12949 0.0
C2624 C 0.74609 0.9196 0.1378 0.0
C2625 C 0.71221 0.95669 0.12139 0.0
C2626 C 0.71377 0.96892 0.09522 0.0
C2627 C 0.70974 0.99764 0.09138 0.0
C2628 C 0.70429 0.01431 0.11502 0.0
C2629 C 0.70242 0.00205 0.14191 0.0
C2630 C 0.7062 0.97288 0.145 0.0
H2631 H 0.21302 0.54168 0.8468 0.0
H2632 H 0.20471 0.47017 0.90208 0.0
H2633 H 0.22044 0.49942 0.94208 0.0
H2634 H 0.27648 0.56477 0.876 0.0
H2635 H 0.26945 0.60157 0.8713 0.0
H2636 H 0.25388 0.57629 0.84803 0.0
H2637 H 0.20429 0.59516 0.85996 0.0
H2638 H 0.21976 0.6208 0.88294 0.0
H2639 H 0.1934 0.59716 0.89607 0.0
H2640 H 0.2386 0.53643 0.97544 0.0
H2641 H 0.25664 0.57815 0.99993 0.0
H2642 H 0.25936 0.62313 0.92096 0.0
C2643 C 0.21341 0.5325 0.86754 0.0
C2644 C 0.20665 0.50399 0.8717 0.0
C2645 C 0.20904 0.4922 0.89877 0.0
C2646 C 0.21815 0.5086 0.92147 0.0
C2647 C 0.22543 0.53649 0.91649 0.0
C2648 C 0.22323 0.54831 0.89016 0.0
C2649 C 0.23467 0.57793 0.88976 0.0
C2650 C 0.26012 0.58027 0.8701 0.0
C2651 C 0.21166 0.59901 0.88171 0.0
C2652 C 0.24327 0.58116 0.92013 0.0
C2653 C 0.23762 0.5571 0.93521 0.0
C2654 C 0.24311 0.55536 0.9638 0.0
C2655 C 0.25365 0.57914 0.97748 0.0
C2656 C 0.25886 0.6044 0.96263 0.0
C2657 C 0.2546 0.60481 0.93331 0.0
H2658 H 0.22849 0.40763 0.44078 0.0
H2659 H 0.3032 0.35601 0.43913 0.0
H2660 H 0.32462 0.38776 0.40455 0.0
H2661 H 0.22885 0.42783 0.36745 0.0
H2662 H 0.21729 0.46303 0.37468 0.0
H2663 H 0.20731 0.43484 0.39767 0.0
H2664 H 0.2285 0.46207 0.4397 0.0
H2665 H 0.23902 0.49009 0.41671 0.0
H2666 H 0.26468 0.47292 0.43846 0.0
H2667 H 0.33778 0.4255 0.36942 0.0
H2668 H 0.34089 0.46581 0.33674 0.0
H2669 H 0.25951 0.49458 0.3652 0.0
C2670 C 0.24915 0.40282 0.43272 0.0
C2671 C 0.26358 0.37866 0.44172 0.0
C2672 C 0.29103 0.3735 0.43144 0.0
C2673 C 0.30362 0.39173 0.41213 0.0
C2674 C 0.28881 0.41542 0.40378 0.0
C2675 C 0.26218 0.42102 0.41379 0.0
C2676 C 0.25103 0.44828 0.40215 0.0
C2677 C 0.22456 0.44319 0.38444 0.0
C2678 C 0.24549 0.46959 0.42566 0.0
C2679 C 0.27553 0.45715 0.3841 0.0
C2680 C 0.29708 0.43788 0.38508 0.0
C2681 C 0.32115 0.44089 0.3687 0.0
C2682 C 0.3228 0.46382 0.35028 0.0
C2683 C 0.30069 0.4835 0.34874 0.0
C2684 C 0.27715 0.48035 0.36643 0.0
H2685 H 0.73566 0.0961 0.55974 0.0
H2686 H 0.81062 0.14741 0.56251 0.0
H2687 H 0.83355 0.11258 0.5927 0.0
H2688 H 0.73771 0.0684 0.62856 0.0
H2689 H 0.72632 0.03405 0.61755 0.0
H2690 H 0.71641 0.06438 0.59763 0.0
H2691 H 0.73808 0.04064 0.55357 0.0
H2692 H 0.74904 0.011 0.57424 0.0
H2693 H 0.77443 0.03035 0.55405 0.0
H2694 H 0.84697 0.07303 0.62593 0.0
H2695 H 0.84955 0.03196 0.65767 0.0
H2696 H 0.76848 0.0041 0.62742 0.0
C2697 C 0.75681 0.10011 0.56691 0.0
C2698 C 0.77056 0.12538 0.56004 0.0
C2699 C 0.79869 0.12932 0.569 0.0
C2700 C 0.81224 0.10924 0.58567 0.0
C2701 C 0.79788 0.08473 0.59229 0.0
C2702 C 0.77093 0.07994 0.58279 0.0
C2703 C 0.76026 0.05168 0.59221 0.0
C2704 C 0.73362 0.05484 0.61008 0.0
C2705 C 0.75516 0.03228 0.56701 0.0
C2706 C 0.78495 0.04179 0.60949 0.0
C2707 C 0.80656 0.06104 0.60925 0.0
C2708 C 0.83044 0.05751 0.62581 0.0
C2709 C 0.83179 0.03414 0.64372 0.0
C2710 C 0.80953 0.01456 0.64464 0.0
C2711 C 0.78633 0.01812 0.62656 0.0
loop_
_geom_bond_atom_site_label_1
_geom_bond_atom_site_label_2
_geom_bond_distance
_geom_bond_site_symmetry_2
_ccdc_geom_bond_type
Zn0 O1 2.055 1_455 S
Zn0 O8 2.046 . S
Zn0 N16 2.036 1_455 S
Zn0 O28 2.053 . S
Zn0 O30 2.066 . S
O1 Zn0 2.055 1_655 S
O1 C4 1.259 1_655 S
C2 O30 1.256 . S
C2 O31 1.244 . S
Zn3 O5 2.046 . S
Zn3 O7 2.055 . S
Zn3 N9 2.036 . S
Zn3 O27 2.066 . S
Zn3 O31 2.053 . S
C4 O1 1.259 1_455 S
C4 O5 1.254 . S
O5 Zn3 2.046 . S
O5 C4 1.254 . S
C6 O27 1.256 . S
C6 O28 1.244 . S
O7 Zn3 2.055 . S
O7 C29 1.259 . S
O8 Zn0 2.046 . S
O8 C29 1.254 . S
N9 Zn3 2.036 . S
N9 C10 1.298 . S
N9 N12 1.398 . S
C10 N9 1.298 . S
C10 N13 1.367 . S
C10 C23 1.481 . S
C11 N12 1.299 . S
C11 N13 1.379 . S
N12 N9 1.398 . S
N12 C11 1.299 . S
N13 C10 1.367 . S
N13 C11 1.379 . S
C14 N16 1.298 . S
C14 N18 1.367 . S
C14 C22 1.481 . S
C15 N17 1.299 1_655 S
C15 N18 1.379 . S
N16 Zn0 2.036 1_655 S
N16 C14 1.298 . S
N16 N17 1.398 1_655 S
N17 C15 1.299 1_455 S
N17 N16 1.398 1_455 S
N18 C14 1.367 . S
N18 C15 1.379 . S
H19 C22 0.980 . S
H20 C22 0.981 . S
H21 C22 0.981 . S
C22 C14 1.481 . S
C22 H19 0.980 . S
C22 H20 0.981 . S
C22 H21 0.981 . S
C23 C10 1.481 . S
C23 H24 0.980 . S
C23 H25 0.981 . S
C23 H26 0.981 . S
H24 C23 0.980 . S
H25 C23 0.981 . S
H26 C23 0.981 . S
O27 Zn3 2.066 . S
O27 C6 1.256 . S
O28 Zn0 2.053 . S
O28 C6 1.244 . S
C29 O7 1.259 . S
C29 O8 1.254 . S
O30 Zn0 2.066 . S
O30 C2 1.256 . S
O31 C2 1.244 . S
O31 Zn3 2.053 . S
Zn32 O33 2.055 . S
Zn32 O40 2.046 . S
Zn32 N48 2.036 . S
Zn32 O60 2.053 . S
Zn32 O62 2.066 . S
O33 Zn32 2.055 . S
O33 C36 1.259 . S
C34 O62 1.256 . S
C34 O63 1.244 . S
Zn35 O37 2.046 . S
Zn35 O39 2.055 . S
Zn35 N41 2.036 . S
Zn35 O59 2.066 . S
Zn35 O63 2.053 . S
C36 O33 1.259 . S
C36 O37 1.254 . S
O37 Zn35 2.046 . S
O37 C36 1.254 . S
C38 O59 1.256 . S
C38 O60 1.244 . S
O39 Zn35 2.055 . S
O39 C61 1.259 . S
O40 Zn32 2.046 . S
O40 C61 1.254 . S
N41 Zn35 2.036 . S
N41 C42 1.298 . S
N41 N44 1.398 . S
C42 N41 1.298 . S
C42 N45 1.367 . S
C42 C55 1.481 . S
C43 N44 1.299 . S
C43 N45 1.379 . S
N44 N41 1.398 . S
N44 C43 1.299 . S
N45 C42 1.367 . S
N45 C43 1.379 . S
C46 N48 1.298 . S
C46 N50 1.367 . S
C46 C54 1.481 . S
C47 N49 1.299 . S
C47 N50 1.379 . S
N48 Zn32 2.036 . S
N48 C46 1.298 . S
N48 N49 1.398 . S
N49 C47 1.299 . S
N49 N48 1.398 . S
N50 C46 1.367 . S
N50 C47 1.379 . S
H51 C54 0.980 . S
H52 C54 0.981 . S
H53 C54 0.981 . S
C54 C46 1.481 . S
C54 H51 0.980 . S
C54 H52 0.981 . S
C54 H53 0.981 . S
C55 C42 1.481 . S
C55 H56 0.980 . S
C55 H57 0.981 . S
C55 H58 0.981 . S
H56 C55 0.980 . S
H57 C55 0.981 . S
H58 C55 0.981 . S
O59 Zn35 2.066 . S
O59 C38 1.256 . S
O60 Zn32 2.053 . S
O60 C38 1.244 . S
C61 O39 1.259 . S
C61 O40 1.254 . S
O62 Zn32 2.066 . S
O62 C34 1.256 . S
O63 C34 1.244 . S
O63 Zn35 2.053 . S
Zn64 O65 2.055 . S
Zn64 O72 2.046 . S
Zn64 N80 2.036 . S
Zn64 O92 2.053 . S
Zn64 O94 2.066 . S
O65 Zn64 2.055 . S
O65 C68 1.259 . S
C66 O94 1.256 . S
C66 O95 1.244 . S
Zn67 O69 2.046 . S
Zn67 O71 2.055 . S
Zn67 N73 2.036 . S
Zn67 O91 2.066 . S
Zn67 O95 2.053 . S
C68 O65 1.259 . S
C68 O69 1.254 . S
O69 Zn67 2.046 . S
O69 C68 1.254 . S
C70 O91 1.256 . S
C70 O92 1.244 . S
O71 Zn67 2.055 . S
O71 C93 1.259 . S
O72 Zn64 2.046 . S
O72 C93 1.254 . S
N73 Zn67 2.036 . S
N73 C74 1.298 . S
N73 N76 1.398 . S
C74 N73 1.298 . S
C74 N77 1.367 . S
C74 C87 1.481 . S
C75 N76 1.299 . S
C75 N77 1.379 . S
N76 N73 1.398 . S
N76 C75 1.299 . S
N77 C74 1.367 . S
N77 C75 1.379 . S
C78 N80 1.298 . S
C78 N82 1.367 . S
C78 C86 1.481 . S
C79 N81 1.299 . S
C79 N82 1.379 . S
N80 Zn64 2.036 . S
N80 C78 1.298 . S
N80 N81 1.398 . S
N81 C79 1.299 . S
N81 N80 1.398 . S
N82 C78 1.367 . S
N82 C79 1.379 . S
H83 C86 0.980 . S
H84 C86 0.981 . S
H85 C86 0.981 . S
C86 C78 1.481 . S
C86 H83 0.980 . S
C86 H84 0.981 . S
C86 H85 0.981 . S
C87 C74 1.481 . S
C87 H88 0.980 . S
C87 H89 0.981 . S
C87 H90 0.981 . S
H88 C87 0.980 . S
H89 C87 0.981 . S
H90 C87 0.981 . S
O91 Zn67 2.066 . S
O91 C70 1.256 . S
O92 Zn64 2.053 . S
O92 C70 1.244 . S
C93 O71 1.259 . S
C93 O72 1.254 . S
O94 Zn64 2.066 . S
O94 C66 1.256 . S
O95 C66 1.244 . S
O95 Zn67 2.053 . S
Zn96 O97 2.055 . S
Zn96 O104 2.046 . S
Zn96 N112 2.036 . S
Zn96 O124 2.053 . S
Zn96 O126 2.066 . S
O97 Zn96 2.055 . S
O97 C100 1.259 . S
C98 O126 1.256 . S
C98 O127 1.244 . S
Zn99 O101 2.046 . S
Zn99 O103 2.055 1_655 S
Zn99 N105 2.036 1_655 S
Zn99 O123 2.066 . S
Zn99 O127 2.053 . S
C100 O97 1.259 . S
C100 O101 1.254 . S
O101 Zn99 2.046 . S
O101 C100 1.254 . S
C102 O123 1.256 . S
C102 O124 1.244 . S
O103 Zn99 2.055 1_455 S
O103 C125 1.259 1_455 S
O104 Zn96 2.046 . S
O104 C125 1.254 . S
N105 Zn99 2.036 1_455 S
N105 C106 1.298 . S
N105 N108 1.398 1_455 S
C106 N105 1.298 . S
C106 N109 1.367 . S
C106 C119 1.481 . S
C107 N108 1.299 1_455 S
C107 N109 1.379 . S
N108 N105 1.398 1_655 S
N108 C107 1.299 1_655 S
N109 C106 1.367 . S
N109 C107 1.379 . S
C110 N112 1.298 . S
C110 N114 1.367 . S
C110 C118 1.481 . S
C111 N113 1.299 . S
C111 N114 1.379 . S
N112 Zn96 2.036 . S
N112 C110 1.298 . S
N112 N113 1.398 . S
N113 C111 1.299 . S
N113 N112 1.398 . S
N114 C110 1.367 . S
N114 C111 1.379 . S
H115 C118 0.980 . S
H116 C118 0.981 . S
H117 C118 0.981 . S
C118 C110 1.481 . S
C118 H115 0.980 . S
C118 H116 0.981 . S
C118 H117 0.981 . S
C119 C106 1.481 . S
C119 H120 0.980 . S
C119 H121 0.981 . S
C119 H122 0.981 . S
H120 C119 0.980 . S
H121 C119 0.981 . S
H122 C119 0.981 . S
O123 Zn99 2.066 . S
O123 C102 1.256 . S
O124 Zn96 2.053 . S
O124 C102 1.244 . S
C125 O103 1.259 1_655 S
C125 O104 1.254 . S
O126 Zn96 2.066 . S
O126 C98 1.256 . S
O127 C98 1.244 . S
O127 Zn99 2.053 . S
Zn128 O129 2.055 . S
Zn128 O136 2.046 . S
Zn128 N144 2.036 . S
Zn128 O156 2.053 . S
Zn128 O158 2.066 . S
O129 Zn128 2.055 . S
O129 C132 1.259 . S
C130 O158 1.256 . S
C130 O159 1.244 . S
Zn131 O133 2.046 . S
Zn131 O135 2.055 1_545 S
Zn131 N137 2.036 1_545 S
Zn131 O155 2.066 . S
Zn131 O159 2.053 . S
C132 O129 1.259 . S
C132 O133 1.254 . S
O133 Zn131 2.046 . S
O133 C132 1.254 . S
C134 O155 1.256 . S
C134 O156 1.244 . S
O135 Zn131 2.055 1_565 S
O135 C157 1.259 1_565 S
O136 Zn128 2.046 . S
O136 C157 1.254 . S
N137 Zn131 2.036 1_565 S
N137 C138 1.298 . S
N137 N140 1.398 1_565 S
C138 N137 1.298 . S
C138 N141 1.367 . S
C138 C151 1.481 . S
C139 N140 1.299 1_565 S
C139 N141 1.379 . S
N140 N137 1.398 1_545 S
N140 C139 1.299 1_545 S
N141 C138 1.367 . S
N141 C139 1.379 . S
C142 N144 1.298 . S
C142 N146 1.367 . S
C142 C150 1.481 . S
C143 N145 1.299 . S
C143 N146 1.379 . S
N144 Zn128 2.036 . S
N144 C142 1.298 . S
N144 N145 1.398 . S
N145 C143 1.299 . S
N145 N144 1.398 . S
N146 C142 1.367 . S
N146 C143 1.379 . S
H147 C150 0.980 . S
H148 C150 0.981 . S
H149 C150 0.981 . S
C150 C142 1.481 . S
C150 H147 0.980 . S
C150 H148 0.981 . S
C150 H149 0.981 . S
C151 C138 1.481 . S
C151 H152 0.980 . S
C151 H153 0.981 . S
C151 H154 0.981 . S
H152 C151 0.980 . S
H153 C151 0.981 . S
H154 C151 0.981 . S
O155 Zn131 2.066 . S
O155 C134 1.256 . S
O156 Zn128 2.053 . S
O156 C134 1.244 . S
C157 O135 1.259 1_545 S
C157 O136 1.254 . S
O158 Zn128 2.066 . S
O158 C130 1.256 . S
O159 C130 1.244 . S
O159 Zn131 2.053 . S
Zn160 O161 2.055 1_565 S
Zn160 O168 2.046 . S
Zn160 N176 2.036 1_565 S
Zn160 O188 2.053 . S
Zn160 O190 2.066 . S
O161 Zn160 2.055 1_545 S
O161 C164 1.259 1_545 S
C162 O190 1.256 . S
C162 O191 1.244 . S
Zn163 O165 2.046 . S
Zn163 O167 2.055 . S
Zn163 N169 2.036 . S
Zn163 O187 2.066 . S
Zn163 O191 2.053 . S
C164 O161 1.259 1_565 S
C164 O165 1.254 . S
O165 Zn163 2.046 . S
O165 C164 1.254 . S
C166 O187 1.256 . S
C166 O188 1.244 . S
O167 Zn163 2.055 . S
O167 C189 1.259 . S
O168 Zn160 2.046 . S
O168 C189 1.254 . S
N169 Zn163 2.036 . S
N169 C170 1.298 . S
N169 N172 1.398 . S
C170 N169 1.298 . S
C170 N173 1.367 . S
C170 C183 1.481 . S
C171 N172 1.299 . S
C171 N173 1.379 . S
N172 N169 1.398 . S
N172 C171 1.299 . S
N173 C170 1.367 . S
N173 C171 1.379 . S
C174 N176 1.298 . S
C174 N178 1.367 . S
C174 C182 1.481 . S
C175 N177 1.299 1_545 S
C175 N178 1.379 . S
N176 Zn160 2.036 1_545 S
N176 C174 1.298 . S
N176 N177 1.398 1_545 S
N177 C175 1.299 1_565 S
N177 N176 1.398 1_565 S
N178 C174 1.367 . S
N178 C175 1.379 . S
H179 C182 0.980 . S
H180 C182 0.981 . S
H181 C182 0.981 . S
C182 C174 1.481 . S
C182 H179 0.980 . S
C182 H180 0.981 . S
C182 H181 0.981 . S
C183 C170 1.481 . S
C183 H184 0.980 . S
C183 H185 0.981 . S
C183 H186 0.981 . S
H184 C183 0.980 . S
H185 C183 0.981 . S
H186 C183 0.981 . S
O187 Zn163 2.066 . S
O187 C166 1.256 . S
O188 Zn160 2.053 . S
O188 C166 1.244 . S
C189 O167 1.259 . S
C189 O168 1.254 . S
O190 Zn160 2.066 . S
O190 C162 1.256 . S
O191 C162 1.244 . S
O191 Zn163 2.053 . S
Zn192 O193 2.055 . S
Zn192 O200 2.046 . S
Zn192 N208 2.036 . S
Zn192 O220 2.053 . S
Zn192 O222 2.066 . S
O193 Zn192 2.055 . S
O193 C196 1.259 . S
C194 O222 1.256 . S
C194 O223 1.244 . S
Zn195 O197 2.046 . S
Zn195 O199 2.055 . S
Zn195 N201 2.036 . S
Zn195 O219 2.066 . S
Zn195 O223 2.053 . S
C196 O193 1.259 . S
C196 O197 1.254 . S
O197 Zn195 2.046 . S
O197 C196 1.254 . S
C198 O219 1.256 . S
C198 O220 1.244 . S
O199 Zn195 2.055 . S
O199 C221 1.259 . S
O200 Zn192 2.046 . S
O200 C221 1.254 . S
N201 Zn195 2.036 . S
N201 C202 1.298 . S
N201 N204 1.398 . S
C202 N201 1.298 . S
C202 N205 1.367 . S
C202 C215 1.481 . S
C203 N204 1.299 . S
C203 N205 1.379 . S
N204 N201 1.398 . S
N204 C203 1.299 . S
N205 C202 1.367 . S
N205 C203 1.379 . S
C206 N208 1.298 . S
C206 N210 1.367 . S
C206 C214 1.481 . S
C207 N209 1.299 . S
C207 N210 1.379 . S
N208 Zn192 2.036 . S
N208 C206 1.298 . S
N208 N209 1.398 . S
N209 C207 1.299 . S
N209 N208 1.398 . S
N210 C206 1.367 . S
N210 C207 1.379 . S
H211 C214 0.980 . S
H212 C214 0.981 . S
H213 C214 0.981 . S
C214 C206 1.481 . S
C214 H211 0.980 . S
C214 H212 0.981 . S
C214 H213 0.981 . S
C215 C202 1.481 . S
C215 H216 0.980 . S
C215 H217 0.981 . S
C215 H218 0.981 . S
H216 C215 0.980 . S
H217 C215 0.981 . S
H218 C215 0.981 . S
O219 Zn195 2.066 . S
O219 C198 1.256 . S
O220 Zn192 2.053 . S
O220 C198 1.244 . S
C221 O199 1.259 . S
C221 O200 1.254 . S
O222 Zn192 2.066 . S
O222 C194 1.256 . S
O223 C194 1.244 . S
O223 Zn195 2.053 . S
Zn224 O225 2.055 . S
Zn224 O232 2.046 . S
Zn224 N240 2.036 . S
Zn224 O252 2.053 . S
Zn224 O254 2.066 . S
O225 Zn224 2.055 . S
O225 C228 1.259 . S
C226 O254 1.256 . S
C226 O255 1.244 . S
Zn227 O229 2.046 . S
Zn227 O231 2.055 . S
Zn227 N233 2.036 . S
Zn227 O251 2.066 . S
Zn227 O255 2.053 . S
C228 O225 1.259 . S
C228 O229 1.254 . S
O229 Zn227 2.046 . S
O229 C228 1.254 . S
C230 O251 1.256 . S
C230 O252 1.244 . S
O231 Zn227 2.055 . S
O231 C253 1.259 . S
O232 Zn224 2.046 . S
O232 C253 1.254 . S
N233 Zn227 2.036 . S
N233 C234 1.298 . S
N233 N236 1.398 . S
C234 N233 1.298 . S
C234 N237 1.367 . S
C234 C247 1.481 . S
C235 N236 1.299 . S
C235 N237 1.379 . S
N236 N233 1.398 . S
N236 C235 1.299 . S
N237 C234 1.367 . S
N237 C235 1.379 . S
C238 N240 1.298 . S
C238 N242 1.367 . S
C238 C246 1.481 . S
C239 N241 1.299 . S
C239 N242 1.379 . S
N240 Zn224 2.036 . S
N240 C238 1.298 . S
N240 N241 1.398 . S
N241 C239 1.299 . S
N241 N240 1.398 . S
N242 C238 1.367 . S
N242 C239 1.379 . S
H243 C246 0.980 . S
H244 C246 0.981 . S
H245 C246 0.981 . S
C246 C238 1.481 . S
C246 H243 0.980 . S
C246 H244 0.981 . S
C246 H245 0.981 . S
C247 C234 1.481 . S
C247 H248 0.980 . S
C247 H249 0.981 . S
C247 H250 0.981 . S
H248 C247 0.980 . S
H249 C247 0.981 . S
H250 C247 0.981 . S
O251 Zn227 2.066 . S
O251 C230 1.256 . S
O252 Zn224 2.053 . S
O252 C230 1.244 . S
C253 O231 1.259 . S
C253 O232 1.254 . S
O254 Zn224 2.066 . S
O254 C226 1.256 . S
O255 C226 1.244 . S
O255 Zn227 2.053 . S
Zn256 O257 2.055 1_554 S
Zn256 O264 2.046 . S
Zn256 N272 2.036 1_554 S
Zn256 O284 2.053 . S
Zn256 O286 2.066 . S
O257 Zn256 2.055 1_556 S
O257 C260 1.259 1_556 S
C258 O286 1.256 . S
C258 O287 1.244 . S
Zn259 O261 2.046 . S
Zn259 O263 2.055 . S
Zn259 N265 2.036 . S
Zn259 O283 2.066 . S
Zn259 O287 2.053 . S
C260 O257 1.259 1_554 S
C260 O261 1.254 . S
O261 Zn259 2.046 . S
O261 C260 1.254 . S
C262 O283 1.256 . S
C262 O284 1.244 . S
O263 Zn259 2.055 . S
O263 C285 1.259 . S
O264 Zn256 2.046 . S
O264 C285 1.254 . S
N265 Zn259 2.036 . S
N265 C266 1.298 . S
N265 N268 1.398 . S
C266 N265 1.298 . S
C266 N269 1.367 . S
C266 C279 1.481 . S
C267 N268 1.299 . S
C267 N269 1.379 . S
N268 N265 1.398 . S
N268 C267 1.299 . S
N269 C266 1.367 . S
N269 C267 1.379 . S
C270 N272 1.298 . S
C270 N274 1.367 . S
C270 C278 1.481 . S
C271 N273 1.299 1_556 S
C271 N274 1.379 . S
N272 Zn256 2.036 1_556 S
N272 C270 1.298 . S
N272 N273 1.398 1_556 S
N273 C271 1.299 1_554 S
N273 N272 1.398 1_554 S
N274 C270 1.367 . S
N274 C271 1.379 . S
H275 C278 0.980 . S
H276 C278 0.981 . S
H277 C278 0.981 . S
C278 C270 1.481 . S
C278 H275 0.980 . S
C278 H276 0.981 . S
C278 H277 0.981 . S
C279 C266 1.481 . S
C279 H280 0.980 . S
C279 H281 0.981 . S
C279 H282 0.981 . S
H280 C279 0.980 . S
H281 C279 0.981 . S
H282 C279 0.981 . S
O283 Zn259 2.066 . S
O283 C262 1.256 . S
O284 Zn256 2.053 . S
O284 C262 1.244 . S
C285 O263 1.259 . S
C285 O264 1.254 . S
O286 Zn256 2.066 . S
O286 C258 1.256 . S
O287 C258 1.244 . S
O287 Zn259 2.053 . S
Zn288 O289 2.055 1_556 S
Zn288 O296 2.046 . S
Zn288 N304 2.036 1_556 S
Zn288 O316 2.053 . S
Zn288 O318 2.066 . S
O289 Zn288 2.055 1_554 S
O289 C292 1.259 1_554 S
C290 O318 1.256 . S
C290 O319 1.244 . S
Zn291 O293 2.046 . S
Zn291 O295 2.055 . S
Zn291 N297 2.036 . S
Zn291 O315 2.066 . S
Zn291 O319 2.053 . S
C292 O289 1.259 1_556 S
C292 O293 1.254 . S
O293 Zn291 2.046 . S
O293 C292 1.254 . S
C294 O315 1.256 . S
C294 O316 1.244 . S
O295 Zn291 2.055 . S
O295 C317 1.259 . S
O296 Zn288 2.046 . S
O296 C317 1.254 . S
N297 Zn291 2.036 . S
N297 C298 1.298 . S
N297 N300 1.398 . S
C298 N297 1.298 . S
C298 N301 1.367 . S
C298 C311 1.481 . S
C299 N300 1.299 . S
C299 N301 1.379 . S
N300 N297 1.398 . S
N300 C299 1.299 . S
N301 C298 1.367 . S
N301 C299 1.379 . S
C302 N304 1.298 . S
C302 N306 1.367 . S
C302 C310 1.481 . S
C303 N305 1.299 1_554 S
C303 N306 1.379 . S
N304 Zn288 2.036 1_554 S
N304 C302 1.298 . S
N304 N305 1.398 1_554 S
N305 C303 1.299 1_556 S
N305 N304 1.398 1_556 S
N306 C302 1.367 . S
N306 C303 1.379 . S
H307 C310 0.980 . S
H308 C310 0.981 . S
H309 C310 0.981 . S
C310 C302 1.481 . S
C310 H307 0.980 . S
C310 H308 0.981 . S
C310 H309 0.981 . S
C311 C298 1.481 . S
C311 H312 0.980 . S
C311 H313 0.981 . S
C311 H314 0.981 . S
H312 C311 0.980 . S
H313 C311 0.981 . S
H314 C311 0.981 . S
O315 Zn291 2.066 . S
O315 C294 1.256 . S
O316 Zn288 2.053 . S
O316 C294 1.244 . S
C317 O295 1.259 . S
C317 O296 1.254 . S
O318 Zn288 2.066 . S
O318 C290 1.256 . S
O319 C290 1.244 . S
O319 Zn291 2.053 . S
Zn320 O321 2.055 . S
Zn320 O328 2.046 . S
Zn320 N336 2.036 . S
Zn320 O348 2.053 . S
Zn320 O350 2.066 . S
O321 Zn320 2.055 . S
O321 C324 1.259 . S
C322 O350 1.256 . S
C322 O351 1.244 . S
Zn323 O325 2.046 . S
Zn323 O327 2.055 . S
Zn323 N329 2.036 . S
Zn323 O347 2.066 . S
Zn323 O351 2.053 . S
C324 O321 1.259 . S
C324 O325 1.254 . S
O325 Zn323 2.046 . S
O325 C324 1.254 . S
C326 O347 1.256 . S
C326 O348 1.244 . S
O327 Zn323 2.055 . S
O327 C349 1.259 . S
O328 Zn320 2.046 . S
O328 C349 1.254 . S
N329 Zn323 2.036 . S
N329 C330 1.298 . S
N329 N332 1.398 . S
C330 N329 1.298 . S
C330 N333 1.367 . S
C330 C343 1.481 . S
C331 N332 1.299 . S
C331 N333 1.379 . S
N332 N329 1.398 . S
N332 C331 1.299 . S
N333 C330 1.367 . S
N333 C331 1.379 . S
C334 N336 1.298 . S
C334 N338 1.367 . S
C334 C342 1.481 . S
C335 N337 1.299 . S
C335 N338 1.379 . S
N336 Zn320 2.036 . S
N336 C334 1.298 . S
N336 N337 1.398 . S
N337 C335 1.299 . S
N337 N336 1.398 . S
N338 C334 1.367 . S
N338 C335 1.379 . S
H339 C342 0.980 . S
H340 C342 0.981 . S
H341 C342 0.981 . S
C342 C334 1.481 . S
C342 H339 0.980 . S
C342 H340 0.981 . S
C342 H341 0.981 . S
C343 C330 1.481 . S
C343 H344 0.980 . S
C343 H345 0.981 . S
C343 H346 0.981 . S
H344 C343 0.980 . S
H345 C343 0.981 . S
H346 C343 0.981 . S
O347 Zn323 2.066 . S
O347 C326 1.256 . S
O348 Zn320 2.053 . S
O348 C326 1.244 . S
C349 O327 1.259 . S
C349 O328 1.254 . S
O350 Zn320 2.066 . S
O350 C322 1.256 . S
O351 C322 1.244 . S
O351 Zn323 2.053 . S
Zn352 O353 2.055 . S
Zn352 O360 2.046 . S
Zn352 N368 2.036 . S
Zn352 O380 2.053 . S
Zn352 O382 2.066 . S
O353 Zn352 2.055 . S
O353 C356 1.259 . S
C354 O382 1.256 . S
C354 O383 1.244 . S
Zn355 O357 2.046 . S
Zn355 O359 2.055 . S
Zn355 N361 2.036 . S
Zn355 O379 2.066 . S
Zn355 O383 2.053 . S
C356 O353 1.259 . S
C356 O357 1.254 . S
O357 Zn355 2.046 . S
O357 C356 1.254 . S
C358 O379 1.256 . S
C358 O380 1.244 . S
O359 Zn355 2.055 . S
O359 C381 1.259 . S
O360 Zn352 2.046 . S
O360 C381 1.254 . S
N361 Zn355 2.036 . S
N361 C362 1.298 . S
N361 N364 1.398 . S
C362 N361 1.298 . S
C362 N365 1.367 . S
C362 C375 1.481 . S
C363 N364 1.299 . S
C363 N365 1.379 . S
N364 N361 1.398 . S
N364 C363 1.299 . S
N365 C362 1.367 . S
N365 C363 1.379 . S
C366 N368 1.298 . S
C366 N370 1.367 . S
C366 C374 1.481 . S
C367 N369 1.299 . S
C367 N370 1.379 . S
N368 Zn352 2.036 . S
N368 C366 1.298 . S
N368 N369 1.398 . S
N369 C367 1.299 . S
N369 N368 1.398 . S
N370 C366 1.367 . S
N370 C367 1.379 . S
H371 C374 0.980 . S
H372 C374 0.981 . S
H373 C374 0.981 . S
C374 C366 1.481 . S
C374 H371 0.980 . S
C374 H372 0.981 . S
C374 H373 0.981 . S
C375 C362 1.481 . S
C375 H376 0.980 . S
C375 H377 0.981 . S
C375 H378 0.981 . S
H376 C375 0.980 . S
H377 C375 0.981 . S
H378 C375 0.981 . S
O379 Zn355 2.066 . S
O379 C358 1.256 . S
O380 Zn352 2.053 . S
O380 C358 1.244 . S
C381 O359 1.259 . S
C381 O360 1.254 . S
O382 Zn352 2.066 . S
O382 C354 1.256 . S
O383 C354 1.244 . S
O383 Zn355 2.053 . S
Zn384 O385 2.055 . S
Zn384 O392 2.046 . S
Zn384 N400 2.036 . S
Zn384 O412 2.053 . S
Zn384 O414 2.066 . S
O385 Zn384 2.055 . S
O385 C388 1.259 . S
C386 O414 1.256 . S
C386 O415 1.244 . S
Zn387 O389 2.046 . S
Zn387 O391 2.055 1_655 S
Zn387 N393 2.036 1_655 S
Zn387 O411 2.066 . S
Zn387 O415 2.053 . S
C388 O385 1.259 . S
C388 O389 1.254 . S
O389 Zn387 2.046 . S
O389 C388 1.254 . S
C390 O411 1.256 . S
C390 O412 1.244 . S
O391 Zn387 2.055 1_455 S
O391 C413 1.259 1_455 S
O392 Zn384 2.046 . S
O392 C413 1.254 . S
N393 Zn387 2.036 1_455 S
N393 C394 1.298 . S
N393 N396 1.398 1_455 S
C394 N393 1.298 . S
C394 N397 1.367 . S
C394 C407 1.481 . S
C395 N396 1.299 1_455 S
C395 N397 1.379 . S
N396 N393 1.398 1_655 S
N396 C395 1.299 1_655 S
N397 C394 1.367 . S
N397 C395 1.379 . S
C398 N400 1.298 . S
C398 N402 1.367 . S
C398 C406 1.481 . S
C399 N401 1.299 . S
C399 N402 1.379 . S
N400 Zn384 2.036 . S
N400 C398 1.298 . S
N400 N401 1.398 . S
N401 C399 1.299 . S
N401 N400 1.398 . S
N402 C398 1.367 . S
N402 C399 1.379 . S
H403 C406 0.980 . S
H404 C406 0.981 . S
H405 C406 0.981 . S
C406 C398 1.481 . S
C406 H403 0.980 . S
C406 H404 0.981 . S
C406 H405 0.981 . S
C407 C394 1.481 . S
C407 H408 0.980 . S
C407 H409 0.981 . S
C407 H410 0.981 . S
H408 C407 0.980 . S
H409 C407 0.981 . S
H410 C407 0.981 . S
O411 Zn387 2.066 . S
O411 C390 1.256 . S
O412 Zn384 2.053 . S
O412 C390 1.244 . S
C413 O391 1.259 1_655 S
C413 O392 1.254 . S
O414 Zn384 2.066 . S
O414 C386 1.256 . S
O415 C386 1.244 . S
O415 Zn387 2.053 . S
Zn416 O417 2.055 . S
Zn416 O424 2.046 . S
Zn416 N432 2.036 . S
Zn416 O444 2.053 . S
Zn416 O446 2.066 . S
O417 Zn416 2.055 . S
O417 C420 1.259 . S
C418 O446 1.256 . S
C418 O447 1.244 . S
Zn419 O421 2.046 . S
Zn419 O423 2.055 . S
Zn419 N425 2.036 . S
Zn419 O443 2.066 . S
Zn419 O447 2.053 . S
C420 O417 1.259 . S
C420 O421 1.254 . S
O421 Zn419 2.046 . S
O421 C420 1.254 . S
C422 O443 1.256 . S
C422 O444 1.244 . S
O423 Zn419 2.055 . S
O423 C445 1.259 . S
O424 Zn416 2.046 . S
O424 C445 1.254 . S
N425 Zn419 2.036 . S
N425 C426 1.298 . S
N425 N428 1.398 . S
C426 N425 1.298 . S
C426 N429 1.367 . S
C426 C439 1.481 . S
C427 N428 1.299 . S
C427 N429 1.379 . S
N428 N425 1.398 . S
N428 C427 1.299 . S
N429 C426 1.367 . S
N429 C427 1.379 . S
C430 N432 1.298 . S
C430 N434 1.367 . S
C430 C438 1.481 . S
C431 N433 1.299 . S
C431 N434 1.379 . S
N432 Zn416 2.036 . S
N432 C430 1.298 . S
N432 N433 1.398 . S
N433 C431 1.299 . S
N433 N432 1.398 . S
N434 C430 1.367 . S
N434 C431 1.379 . S
H435 C438 0.980 . S
H436 C438 0.981 . S
H437 C438 0.981 . S
C438 C430 1.481 . S
C438 H435 0.980 . S
C438 H436 0.981 . S
C438 H437 0.981 . S
C439 C426 1.481 . S
C439 H440 0.980 . S
C439 H441 0.981 . S
C439 H442 0.981 . S
H440 C439 0.980 . S
H441 C439 0.981 . S
H442 C439 0.981 . S
O443 Zn419 2.066 . S
O443 C422 1.256 . S
O444 Zn416 2.053 . S
O444 C422 1.244 . S
C445 O423 1.259 . S
C445 O424 1.254 . S
O446 Zn416 2.066 . S
O446 C418 1.256 . S
O447 C418 1.244 . S
O447 Zn419 2.053 . S
Zn448 O449 2.055 . S
Zn448 O456 2.046 . S
Zn448 N464 2.036 . S
Zn448 O476 2.053 . S
Zn448 O478 2.066 . S
O449 Zn448 2.055 . S
O449 C452 1.259 . S
C450 O478 1.256 . S
C450 O479 1.244 . S
Zn451 O453 2.046 . S
Zn451 O455 2.055 . S
Zn451 N457 2.036 . S
Zn451 O475 2.066 . S
Zn451 O479 2.053 . S
C452 O449 1.259 . S
C452 O453 1.254 . S
O453 Zn451 2.046 . S
O453 C452 1.254 . S
C454 O475 1.256 . S
C454 O476 1.244 . S
O455 Zn451 2.055 . S
O455 C477 1.259 . S
O456 Zn448 2.046 . S
O456 C477 1.254 . S
N457 Zn451 2.036 . S
N457 C458 1.298 . S
N457 N460 1.398 . S
C458 N457 1.298 . S
C458 N461 1.367 . S
C458 C471 1.481 . S
C459 N460 1.299 . S
C459 N461 1.379 . S
N460 N457 1.398 . S
N460 C459 1.299 . S
N461 C458 1.367 . S
N461 C459 1.379 . S
C462 N464 1.298 . S
C462 N466 1.367 . S
C462 C470 1.481 . S
C463 N465 1.299 . S
C463 N466 1.379 . S
N464 Zn448 2.036 . S
N464 C462 1.298 . S
N464 N465 1.398 . S
N465 C463 1.299 . S
N465 N464 1.398 . S
N466 C462 1.367 . S
N466 C463 1.379 . S
H467 C470 0.980 . S
H468 C470 0.981 . S
H469 C470 0.981 . S
C470 C462 1.481 . S
C470 H467 0.980 . S
C470 H468 0.981 . S
C470 H469 0.981 . S
C471 C458 1.481 . S
C471 H472 0.980 . S
C471 H473 0.981 . S
C471 H474 0.981 . S
H472 C471 0.980 . S
H473 C471 0.981 . S
H474 C471 0.981 . S
O475 Zn451 2.066 . S
O475 C454 1.256 . S
O476 Zn448 2.053 . S
O476 C454 1.244 . S
C477 O455 1.259 . S
C477 O456 1.254 . S
O478 Zn448 2.066 . S
O478 C450 1.256 . S
O479 C450 1.244 . S
O479 Zn451 2.053 . S
Zn480 O481 2.055 . S
Zn480 O488 2.046 . S
Zn480 N496 2.036 . S
Zn480 O508 2.053 . S
Zn480 O510 2.066 . S
O481 Zn480 2.055 . S
O481 C484 1.259 . S
C482 O510 1.256 . S
C482 O511 1.244 . S
Zn483 O485 2.046 . S
Zn483 O487 2.055 1_455 S
Zn483 N489 2.036 1_455 S
Zn483 O507 2.066 . S
Zn483 O511 2.053 . S
C484 O481 1.259 . S
C484 O485 1.254 . S
O485 Zn483 2.046 . S
O485 C484 1.254 . S
C486 O507 1.256 . S
C486 O508 1.244 . S
O487 Zn483 2.055 1_655 S
O487 C509 1.259 1_655 S
O488 Zn480 2.046 . S
O488 C509 1.254 . S
N489 Zn483 2.036 1_655 S
N489 C490 1.298 . S
N489 N492 1.398 1_655 S
C490 N489 1.298 . S
C490 N493 1.367 . S
C490 C503 1.481 . S
C491 N492 1.299 1_655 S
C491 N493 1.379 . S
N492 N489 1.398 1_455 S
N492 C491 1.299 1_455 S
N493 C490 1.367 . S
N493 C491 1.379 . S
C494 N496 1.298 . S
C494 N498 1.367 . S
C494 C502 1.481 . S
C495 N497 1.299 . S
C495 N498 1.379 . S
N496 Zn480 2.036 . S
N496 C494 1.298 . S
N496 N497 1.398 . S
N497 C495 1.299 . S
N497 N496 1.398 . S
N498 C494 1.367 . S
N498 C495 1.379 . S
H499 C502 0.980 . S
H500 C502 0.981 . S
H501 C502 0.981 . S
C502 C494 1.481 . S
C502 H499 0.980 . S
C502 H500 0.981 . S
C502 H501 0.981 . S
C503 C490 1.481 . S
C503 H504 0.980 . S
C503 H505 0.981 . S
C503 H506 0.981 . S
H504 C503 0.980 . S
H505 C503 0.981 . S
H506 C503 0.981 . S
O507 Zn483 2.066 . S
O507 C486 1.256 . S
O508 Zn480 2.053 . S
O508 C486 1.244 . S
C509 O487 1.259 1_455 S
C509 O488 1.254 . S
O510 Zn480 2.066 . S
O510 C482 1.256 . S
O511 C482 1.244 . S
O511 Zn483 2.053 . S
Zn512 O513 2.055 . S
Zn512 O520 2.046 . S
Zn512 N528 2.036 . S
Zn512 O540 2.053 . S
Zn512 O542 2.066 . S
O513 Zn512 2.055 . S
O513 C516 1.259 . S
C514 O542 1.256 . S
C514 O543 1.244 . S
Zn515 O517 2.046 . S
Zn515 O519 2.055 1_565 S
Zn515 N521 2.036 1_565 S
Zn515 O539 2.066 . S
Zn515 O543 2.053 . S
C516 O513 1.259 . S
C516 O517 1.254 . S
O517 Zn515 2.046 . S
O517 C516 1.254 . S
C518 O539 1.256 . S
C518 O540 1.244 . S
O519 Zn515 2.055 1_545 S
O519 C541 1.259 1_545 S
O520 Zn512 2.046 . S
O520 C541 1.254 . S
N521 Zn515 2.036 1_545 S
N521 C522 1.298 . S
N521 N524 1.398 1_545 S
C522 N521 1.298 . S
C522 N525 1.367 . S
C522 C535 1.481 . S
C523 N524 1.299 1_545 S
C523 N525 1.379 . S
N524 N521 1.398 1_565 S
N524 C523 1.299 1_565 S
N525 C522 1.367 . S
N525 C523 1.379 . S
C526 N528 1.298 . S
C526 N530 1.367 . S
C526 C534 1.481 . S
C527 N529 1.299 . S
C527 N530 1.379 . S
N528 Zn512 2.036 . S
N528 C526 1.298 . S
N528 N529 1.398 . S
N529 C527 1.299 . S
N529 N528 1.398 . S
N530 C526 1.367 . S
N530 C527 1.379 . S
H531 C534 0.980 . S
H532 C534 0.981 . S
H533 C534 0.981 . S
C534 C526 1.481 . S
C534 H531 0.980 . S
C534 H532 0.981 . S
C534 H533 0.981 . S
C535 C522 1.481 . S
C535 H536 0.980 . S
C535 H537 0.981 . S
C535 H538 0.981 . S
H536 C535 0.980 . S
H537 C535 0.981 . S
H538 C535 0.981 . S
O539 Zn515 2.066 . S
O539 C518 1.256 . S
O540 Zn512 2.053 . S
O540 C518 1.244 . S
C541 O519 1.259 1_565 S
C541 O520 1.254 . S
O542 Zn512 2.066 . S
O542 C514 1.256 . S
O543 C514 1.244 . S
O543 Zn515 2.053 . S
Zn544 O545 2.055 1_545 S
Zn544 O552 2.046 . S
Zn544 N560 2.036 1_545 S
Zn544 O572 2.053 . S
Zn544 O574 2.066 . S
O545 Zn544 2.055 1_565 S
O545 C548 1.259 1_565 S
C546 O574 1.256 . S
C546 O575 1.244 . S
Zn547 O549 2.046 . S
Zn547 O551 2.055 . S
Zn547 N553 2.036 . S
Zn547 O571 2.066 . S
Zn547 O575 2.053 . S
C548 O545 1.259 1_545 S
C548 O549 1.254 . S
O549 Zn547 2.046 . S
O549 C548 1.254 . S
C550 O571 1.256 . S
C550 O572 1.244 . S
O551 Zn547 2.055 . S
O551 C573 1.259 . S
O552 Zn544 2.046 . S
O552 C573 1.254 . S
N553 Zn547 2.036 . S
N553 C554 1.298 . S
N553 N556 1.398 . S
C554 N553 1.298 . S
C554 N557 1.367 . S
C554 C567 1.481 . S
C555 N556 1.299 . S
C555 N557 1.379 . S
N556 N553 1.398 . S
N556 C555 1.299 . S
N557 C554 1.367 . S
N557 C555 1.379 . S
C558 N560 1.298 . S
C558 N562 1.367 . S
C558 C566 1.481 . S
C559 N561 1.299 1_565 S
C559 N562 1.379 . S
N560 Zn544 2.036 1_565 S
N560 C558 1.298 . S
N560 N561 1.398 1_565 S
N561 C559 1.299 1_545 S
N561 N560 1.398 1_545 S
N562 C558 1.367 . S
N562 C559 1.379 . S
H563 C566 0.980 . S
H564 C566 0.981 . S
H565 C566 0.981 . S
C566 C558 1.481 . S
C566 H563 0.980 . S
C566 H564 0.981 . S
C566 H565 0.981 . S
C567 C554 1.481 . S
C567 H568 0.980 . S
C567 H569 0.981 . S
C567 H570 0.981 . S
H568 C567 0.980 . S
H569 C567 0.981 . S
H570 C567 0.981 . S
O571 Zn547 2.066 . S
O571 C550 1.256 . S
O572 Zn544 2.053 . S
O572 C550 1.244 . S
C573 O551 1.259 . S
C573 O552 1.254 . S
O574 Zn544 2.066 . S
O574 C546 1.256 . S
O575 C546 1.244 . S
O575 Zn547 2.053 . S
Zn576 O577 2.055 . S
Zn576 O584 2.046 . S
Zn576 N592 2.036 . S
Zn576 O604 2.053 . S
Zn576 O606 2.066 . S
O577 Zn576 2.055 . S
O577 C580 1.259 . S
C578 O606 1.256 . S
C578 O607 1.244 . S
Zn579 O581 2.046 . S
Zn579 O583 2.055 . S
Zn579 N585 2.036 . S
Zn579 O603 2.066 . S
Zn579 O607 2.053 . S
C580 O577 1.259 . S
C580 O581 1.254 . S
O581 Zn579 2.046 . S
O581 C580 1.254 . S
C582 O603 1.256 . S
C582 O604 1.244 . S
O583 Zn579 2.055 . S
O583 C605 1.259 . S
O584 Zn576 2.046 . S
O584 C605 1.254 . S
N585 Zn579 2.036 . S
N585 C586 1.298 . S
N585 N588 1.398 . S
C586 N585 1.298 . S
C586 N589 1.367 . S
C586 C599 1.481 . S
C587 N588 1.299 . S
C587 N589 1.379 . S
N588 N585 1.398 . S
N588 C587 1.299 . S
N589 C586 1.367 . S
N589 C587 1.379 . S
C590 N592 1.298 . S
C590 N594 1.367 . S
C590 C598 1.481 . S
C591 N593 1.299 . S
C591 N594 1.379 . S
N592 Zn576 2.036 . S
N592 C590 1.298 . S
N592 N593 1.398 . S
N593 C591 1.299 . S
N593 N592 1.398 . S
N594 C590 1.367 . S
N594 C591 1.379 . S
H595 C598 0.980 . S
H596 C598 0.981 . S
H597 C598 0.981 . S
C598 C590 1.481 . S
C598 H595 0.980 . S
C598 H596 0.981 . S
C598 H597 0.981 . S
C599 C586 1.481 . S
C599 H600 0.980 . S
C599 H601 0.981 . S
C599 H602 0.981 . S
H600 C599 0.980 . S
H601 C599 0.981 . S
H602 C599 0.981 . S
O603 Zn579 2.066 . S
O603 C582 1.256 . S
O604 Zn576 2.053 . S
O604 C582 1.244 . S
C605 O583 1.259 . S
C605 O584 1.254 . S
O606 Zn576 2.066 . S
O606 C578 1.256 . S
O607 C578 1.244 . S
O607 Zn579 2.053 . S
Zn608 O609 2.055 . S
Zn608 O616 2.046 . S
Zn608 N624 2.036 . S
Zn608 O636 2.053 . S
Zn608 O638 2.066 . S
O609 Zn608 2.055 . S
O609 C612 1.259 . S
C610 O638 1.256 . S
C610 O639 1.244 . S
Zn611 O613 2.046 . S
Zn611 O615 2.055 . S
Zn611 N617 2.036 . S
Zn611 O635 2.066 . S
Zn611 O639 2.053 . S
C612 O609 1.259 . S
C612 O613 1.254 . S
O613 Zn611 2.046 . S
O613 C612 1.254 . S
C614 O635 1.256 . S
C614 O636 1.244 . S
O615 Zn611 2.055 . S
O615 C637 1.259 . S
O616 Zn608 2.046 . S
O616 C637 1.254 . S
N617 Zn611 2.036 . S
N617 C618 1.298 . S
N617 N620 1.398 . S
C618 N617 1.298 . S
C618 N621 1.367 . S
C618 C631 1.481 . S
C619 N620 1.299 . S
C619 N621 1.379 . S
N620 N617 1.398 . S
N620 C619 1.299 . S
N621 C618 1.367 . S
N621 C619 1.379 . S
C622 N624 1.298 . S
C622 N626 1.367 . S
C622 C630 1.481 . S
C623 N625 1.299 . S
C623 N626 1.379 . S
N624 Zn608 2.036 . S
N624 C622 1.298 . S
N624 N625 1.398 . S
N625 C623 1.299 . S
N625 N624 1.398 . S
N626 C622 1.367 . S
N626 C623 1.379 . S
H627 C630 0.980 . S
H628 C630 0.981 . S
H629 C630 0.981 . S
C630 C622 1.481 . S
C630 H627 0.980 . S
C630 H628 0.981 . S
C630 H629 0.981 . S
C631 C618 1.481 . S
C631 H632 0.980 . S
C631 H633 0.981 . S
C631 H634 0.981 . S
H632 C631 0.980 . S
H633 C631 0.981 . S
H634 C631 0.981 . S
O635 Zn611 2.066 . S
O635 C614 1.256 . S
O636 Zn608 2.053 . S
O636 C614 1.244 . S
C637 O615 1.259 . S
C637 O616 1.254 . S
O638 Zn608 2.066 . S
O638 C610 1.256 . S
O639 C610 1.244 . S
O639 Zn611 2.053 . S
Zn640 O641 2.055 1_556 S
Zn640 O648 2.046 . S
Zn640 N656 2.036 1_556 S
Zn640 O668 2.053 . S
Zn640 O670 2.066 . S
O641 Zn640 2.055 1_554 S
O641 C644 1.259 1_554 S
C642 O670 1.256 . S
C642 O671 1.244 . S
Zn643 O645 2.046 . S
Zn643 O647 2.055 . S
Zn643 N649 2.036 . S
Zn643 O667 2.066 . S
Zn643 O671 2.053 . S
C644 O641 1.259 1_556 S
C644 O645 1.254 . S
O645 Zn643 2.046 . S
O645 C644 1.254 . S
C646 O667 1.256 . S
C646 O668 1.244 . S
O647 Zn643 2.055 . S
O647 C669 1.259 . S
O648 Zn640 2.046 . S
O648 C669 1.254 . S
N649 Zn643 2.036 . S
N649 C650 1.298 . S
N649 N652 1.398 . S
C650 N649 1.298 . S
C650 N653 1.367 . S
C650 C663 1.481 . S
C651 N652 1.299 . S
C651 N653 1.379 . S
N652 N649 1.398 . S
N652 C651 1.299 . S
N653 C650 1.367 . S
N653 C651 1.379 . S
C654 N656 1.298 . S
C654 N658 1.367 . S
C654 C662 1.481 . S
C655 N657 1.299 1_554 S
C655 N658 1.379 . S
N656 Zn640 2.036 1_554 S
N656 C654 1.298 . S
N656 N657 1.398 1_554 S
N657 C655 1.299 1_556 S
N657 N656 1.398 1_556 S
N658 C654 1.367 . S
N658 C655 1.379 . S
H659 C662 0.980 . S
H660 C662 0.981 . S
H661 C662 0.981 . S
C662 C654 1.481 . S
C662 H659 0.980 . S
C662 H660 0.981 . S
C662 H661 0.981 . S
C663 C650 1.481 . S
C663 H664 0.980 . S
C663 H665 0.981 . S
C663 H666 0.981 . S
H664 C663 0.980 . S
H665 C663 0.981 . S
H666 C663 0.981 . S
O667 Zn643 2.066 . S
O667 C646 1.256 . S
O668 Zn640 2.053 . S
O668 C646 1.244 . S
C669 O647 1.259 . S
C669 O648 1.254 . S
O670 Zn640 2.066 . S
O670 C642 1.256 . S
O671 C642 1.244 . S
O671 Zn643 2.053 . S
Zn672 O673 2.055 1_554 S
Zn672 O680 2.046 . S
Zn672 N688 2.036 1_554 S
Zn672 O700 2.053 . S
Zn672 O702 2.066 . S
O673 Zn672 2.055 1_556 S
O673 C676 1.259 1_556 S
C674 O702 1.256 . S
C674 O703 1.244 . S
Zn675 O677 2.046 . S
Zn675 O679 2.055 . S
Zn675 N681 2.036 . S
Zn675 O699 2.066 . S
Zn675 O703 2.053 . S
C676 O673 1.259 1_554 S
C676 O677 1.254 . S
O677 Zn675 2.046 . S
O677 C676 1.254 . S
C678 O699 1.256 . S
C678 O700 1.244 . S
O679 Zn675 2.055 . S
O679 C701 1.259 . S
O680 Zn672 2.046 . S
O680 C701 1.254 . S
N681 Zn675 2.036 . S
N681 C682 1.298 . S
N681 N684 1.398 . S
C682 N681 1.298 . S
C682 N685 1.367 . S
C682 C695 1.481 . S
C683 N684 1.299 . S
C683 N685 1.379 . S
N684 N681 1.398 . S
N684 C683 1.299 . S
N685 C682 1.367 . S
N685 C683 1.379 . S
C686 N688 1.298 . S
C686 N690 1.367 . S
C686 C694 1.481 . S
C687 N689 1.299 1_556 S
C687 N690 1.379 . S
N688 Zn672 2.036 1_556 S
N688 C686 1.298 . S
N688 N689 1.398 1_556 S
N689 C687 1.299 1_554 S
N689 N688 1.398 1_554 S
N690 C686 1.367 . S
N690 C687 1.379 . S
H691 C694 0.980 . S
H692 C694 0.981 . S
H693 C694 0.981 . S
C694 C686 1.481 . S
C694 H691 0.980 . S
C694 H692 0.981 . S
C694 H693 0.981 . S
C695 C682 1.481 . S
C695 H696 0.980 . S
C695 H697 0.981 . S
C695 H698 0.981 . S
H696 C695 0.980 . S
H697 C695 0.981 . S
H698 C695 0.981 . S
O699 Zn675 2.066 . S
O699 C678 1.256 . S
O700 Zn672 2.053 . S
O700 C678 1.244 . S
C701 O679 1.259 . S
C701 O680 1.254 . S
O702 Zn672 2.066 . S
O702 C674 1.256 . S
O703 C674 1.244 . S
O703 Zn675 2.053 . S
Zn704 O705 2.055 . S
Zn704 O712 2.046 . S
Zn704 N720 2.036 . S
Zn704 O732 2.053 . S
Zn704 O734 2.066 . S
O705 Zn704 2.055 . S
O705 C708 1.259 . S
C706 O734 1.256 . S
C706 O735 1.244 . S
Zn707 O709 2.046 . S
Zn707 O711 2.055 . S
Zn707 N713 2.036 . S
Zn707 O731 2.066 . S
Zn707 O735 2.053 . S
C708 O705 1.259 . S
C708 O709 1.254 . S
O709 Zn707 2.046 . S
O709 C708 1.254 . S
C710 O731 1.256 . S
C710 O732 1.244 . S
O711 Zn707 2.055 . S
O711 C733 1.259 . S
O712 Zn704 2.046 . S
O712 C733 1.254 . S
N713 Zn707 2.036 . S
N713 C714 1.298 . S
N713 N716 1.398 . S
C714 N713 1.298 . S
C714 N717 1.367 . S
C714 C727 1.481 . S
C715 N716 1.299 . S
C715 N717 1.379 . S
N716 N713 1.398 . S
N716 C715 1.299 . S
N717 C714 1.367 . S
N717 C715 1.379 . S
C718 N720 1.298 . S
C718 N722 1.367 . S
C718 C726 1.481 . S
C719 N721 1.299 . S
C719 N722 1.379 . S
N720 Zn704 2.036 . S
N720 C718 1.298 . S
N720 N721 1.398 . S
N721 C719 1.299 . S
N721 N720 1.398 . S
N722 C718 1.367 . S
N722 C719 1.379 . S
H723 C726 0.980 . S
H724 C726 0.981 . S
H725 C726 0.981 . S
C726 C718 1.481 . S
C726 H723 0.980 . S
C726 H724 0.981 . S
C726 H725 0.981 . S
C727 C714 1.481 . S
C727 H728 0.980 . S
C727 H729 0.981 . S
C727 H730 0.981 . S
H728 C727 0.980 . S
H729 C727 0.981 . S
H730 C727 0.981 . S
O731 Zn707 2.066 . S
O731 C710 1.256 . S
O732 Zn704 2.053 . S
O732 C710 1.244 . S
C733 O711 1.259 . S
C733 O712 1.254 . S
O734 Zn704 2.066 . S
O734 C706 1.256 . S
O735 C706 1.244 . S
O735 Zn707 2.053 . S
Zn736 O737 2.055 . S
Zn736 O744 2.046 . S
Zn736 N752 2.036 . S
Zn736 O764 2.053 . S
Zn736 O766 2.066 . S
O737 Zn736 2.055 . S
O737 C740 1.259 . S
C738 O766 1.256 . S
C738 O767 1.244 . S
Zn739 O741 2.046 . S
Zn739 O743 2.055 . S
Zn739 N745 2.036 . S
Zn739 O763 2.066 . S
Zn739 O767 2.053 . S
C740 O737 1.259 . S
C740 O741 1.254 . S
O741 Zn739 2.046 . S
O741 C740 1.254 . S
C742 O763 1.256 . S
C742 O764 1.244 . S
O743 Zn739 2.055 . S
O743 C765 1.259 . S
O744 Zn736 2.046 . S
O744 C765 1.254 . S
N745 Zn739 2.036 . S
N745 C746 1.298 . S
N745 N748 1.398 . S
C746 N745 1.298 . S
C746 N749 1.367 . S
C746 C759 1.481 . S
C747 N748 1.299 . S
C747 N749 1.379 . S
N748 N745 1.398 . S
N748 C747 1.299 . S
N749 C746 1.367 . S
N749 C747 1.379 . S
C750 N752 1.298 . S
C750 N754 1.367 . S
C750 C758 1.481 . S
C751 N753 1.299 . S
C751 N754 1.379 . S
N752 Zn736 2.036 . S
N752 C750 1.298 . S
N752 N753 1.398 . S
N753 C751 1.299 . S
N753 N752 1.398 . S
N754 C750 1.367 . S
N754 C751 1.379 . S
H755 C758 0.980 . S
H756 C758 0.981 . S
H757 C758 0.981 . S
C758 C750 1.481 . S
C758 H755 0.980 . S
C758 H756 0.981 . S
C758 H757 0.981 . S
C759 C746 1.481 . S
C759 H760 0.980 . S
C759 H761 0.981 . S
C759 H762 0.981 . S
H760 C759 0.980 . S
H761 C759 0.981 . S
H762 C759 0.981 . S
O763 Zn739 2.066 . S
O763 C742 1.256 . S
O764 Zn736 2.053 . S
O764 C742 1.244 . S
C765 O743 1.259 . S
C765 O744 1.254 . S
O766 Zn736 2.066 . S
O766 C738 1.256 . S
O767 C738 1.244 . S
O767 Zn739 2.053 . S
H768 C780 0.930 . S
H769 C782 0.930 . S
H770 C783 0.930 . S
H771 C787 0.959 . S
H772 C787 0.959 . S
H773 C787 0.961 . S
H774 C788 0.960 . S
H775 C788 0.961 . S
H776 C788 0.959 . S
H777 C791 0.929 . S
H778 C792 0.931 . S
H779 C794 0.930 . S
C780 H768 0.930 . S
C780 C781 1.399 . S
C780 C785 1.399 . S
C781 C780 1.399 . S
C781 C782 1.376 . S
C782 H769 0.930 . S
C782 C781 1.376 . S
C782 C783 1.388 . S
C783 H770 0.930 . S
C783 C782 1.388 . S
C783 C784 1.390 . S
C784 C783 1.390 . S
C784 C785 1.394 . S
C784 C790 1.465 . S
C785 C780 1.399 . S
C785 C784 1.394 . S
C785 C786 1.516 . S
C786 C785 1.516 . S
C786 C787 1.502 . S
C786 C788 1.561 . S
C786 C789 1.526 . S
C787 H771 0.959 . S
C787 H772 0.959 . S
C787 H773 0.961 . S
C787 C786 1.502 . S
C788 H774 0.960 . S
C788 H775 0.961 . S
C788 H776 0.959 . S
C788 C786 1.561 . S
C789 C786 1.526 . S
C789 C790 1.396 . S
C789 C794 1.390 . S
C790 C784 1.465 . S
C790 C789 1.396 . S
C790 C791 1.399 . S
C791 H777 0.929 . S
C791 C790 1.399 . S
C791 C792 1.385 . S
C792 H778 0.931 . S
C792 C791 1.385 . S
C792 C793 1.389 . S
C793 C792 1.389 . S
C793 C794 1.387 . S
C794 H779 0.930 . S
C794 C789 1.390 . S
C794 C793 1.387 . S
H795 C807 0.930 . S
H796 C809 0.930 . S
H797 C810 0.930 . S
H798 C814 0.959 . S
H799 C814 0.959 . S
H800 C814 0.961 . S
H801 C815 0.960 . S
H802 C815 0.961 . S
H803 C815 0.959 . S
H804 C818 0.929 . S
H805 C819 0.931 . S
H806 C821 0.930 . S
C807 H795 0.930 . S
C807 C808 1.399 . S
C807 C812 1.399 . S
C808 C807 1.399 . S
C808 C809 1.376 . S
C809 H796 0.930 . S
C809 C808 1.376 . S
C809 C810 1.388 . S
C810 H797 0.930 . S
C810 C809 1.388 . S
C810 C811 1.390 . S
C811 C810 1.390 . S
C811 C812 1.394 . S
C811 C817 1.465 . S
C812 C807 1.399 . S
C812 C811 1.394 . S
C812 C813 1.516 . S
C813 C812 1.516 . S
C813 C814 1.502 . S
C813 C815 1.561 . S
C813 C816 1.526 . S
C814 H798 0.959 . S
C814 H799 0.959 . S
C814 H800 0.961 . S
C814 C813 1.502 . S
C815 H801 0.960 . S
C815 H802 0.961 . S
C815 H803 0.959 . S
C815 C813 1.561 . S
C816 C813 1.526 . S
C816 C817 1.396 . S
C816 C821 1.390 . S
C817 C811 1.465 . S
C817 C816 1.396 . S
C817 C818 1.399 . S
C818 H804 0.929 . S
C818 C817 1.399 . S
C818 C819 1.385 . S
C819 H805 0.931 . S
C819 C818 1.385 . S
C819 C820 1.389 . S
C820 C819 1.389 . S
C820 C821 1.387 . S
C821 H806 0.930 . S
C821 C816 1.390 . S
C821 C820 1.387 . S
H822 C834 0.930 . S
H823 C836 0.930 . S
H824 C837 0.930 . S
H825 C841 0.959 . S
H826 C841 0.959 . S
H827 C841 0.961 . S
H828 C842 0.960 . S
H829 C842 0.961 . S
H830 C842 0.959 . S
H831 C845 0.929 . S
H832 C846 0.931 . S
H833 C848 0.930 . S
C834 H822 0.930 . S
C834 C835 1.399 . S
C834 C839 1.399 . S
C835 C834 1.399 . S
C835 C836 1.376 . S
C836 H823 0.930 . S
C836 C835 1.376 . S
C836 C837 1.388 . S
C837 H824 0.930 . S
C837 C836 1.388 . S
C837 C838 1.390 . S
C838 C837 1.390 . S
C838 C839 1.394 . S
C838 C844 1.465 . S
C839 C834 1.399 . S
C839 C838 1.394 . S
C839 C840 1.516 . S
C840 C839 1.516 . S
C840 C841 1.502 . S
C840 C842 1.561 . S
C840 C843 1.526 . S
C841 H825 0.959 . S
C841 H826 0.959 . S
C841 H827 0.961 . S
C841 C840 1.502 . S
C842 H828 0.960 . S
C842 H829 0.961 . S
C842 H830 0.959 . S
C842 C840 1.561 . S
C843 C840 1.526 . S
C843 C844 1.396 . S
C843 C848 1.390 . S
C844 C838 1.465 . S
C844 C843 1.396 . S
C844 C845 1.399 . S
C845 H831 0.929 . S
C845 C844 1.399 . S
C845 C846 1.385 . S
C846 H832 0.931 . S
C846 C845 1.385 . S
C846 C847 1.389 . S
C847 C846 1.389 . S
C847 C848 1.387 . S
C848 H833 0.930 . S
C848 C843 1.390 . S
C848 C847 1.387 . S
H849 C861 0.930 . S
H850 C863 0.930 . S
H851 C864 0.930 . S
H852 C868 0.959 . S
H853 C868 0.959 . S
H854 C868 0.961 . S
H855 C869 0.960 . S
H856 C869 0.961 . S
H857 C869 0.959 . S
H858 C872 0.929 . S
H859 C873 0.931 . S
H860 C875 0.930 . S
C861 H849 0.930 . S
C861 C862 1.399 . S
C861 C866 1.399 . S
C862 C861 1.399 . S
C862 C863 1.376 . S
C863 H850 0.930 . S
C863 C862 1.376 . S
C863 C864 1.388 . S
C864 H851 0.930 . S
C864 C863 1.388 . S
C864 C865 1.390 . S
C865 C864 1.390 . S
C865 C866 1.394 . S
C865 C871 1.465 . S
C866 C861 1.399 . S
C866 C865 1.394 . S
C866 C867 1.516 . S
C867 C866 1.516 . S
C867 C868 1.502 . S
C867 C869 1.561 . S
C867 C870 1.526 . S
C868 H852 0.959 . S
C868 H853 0.959 . S
C868 H854 0.961 . S
C868 C867 1.502 . S
C869 H855 0.960 . S
C869 H856 0.961 . S
C869 H857 0.959 . S
C869 C867 1.561 . S
C870 C867 1.526 . S
C870 C871 1.396 . S
C870 C875 1.390 . S
C871 C865 1.465 . S
C871 C870 1.396 . S
C871 C872 1.399 . S
C872 H858 0.929 . S
C872 C871 1.399 . S
C872 C873 1.385 . S
C873 H859 0.931 . S
C873 C872 1.385 . S
C873 C874 1.389 . S
C874 C873 1.389 . S
C874 C875 1.387 . S
C875 H860 0.930 . S
C875 C870 1.390 . S
C875 C874 1.387 . S
H876 C888 0.930 . S
H877 C890 0.930 . S
H878 C891 0.930 . S
H879 C895 0.959 . S
H880 C895 0.959 . S
H881 C895 0.961 . S
H882 C896 0.960 . S
H883 C896 0.961 . S
H884 C896 0.959 . S
H885 C899 0.929 . S
H886 C900 0.931 . S
H887 C902 0.930 . S
C888 H876 0.930 . S
C888 C889 1.399 . S
C888 C893 1.399 . S
C889 C888 1.399 . S
C889 C890 1.376 . S
C890 H877 0.930 . S
C890 C889 1.376 . S
C890 C891 1.388 . S
C891 H878 0.930 . S
C891 C890 1.388 . S
C891 C892 1.390 . S
C892 C891 1.390 . S
C892 C893 1.394 . S
C892 C898 1.465 . S
C893 C888 1.399 . S
C893 C892 1.394 . S
C893 C894 1.516 . S
C894 C893 1.516 . S
C894 C895 1.502 . S
C894 C896 1.561 . S
C894 C897 1.526 . S
C895 H879 0.959 . S
C895 H880 0.959 . S
C895 H881 0.961 . S
C895 C894 1.502 . S
C896 H882 0.960 . S
C896 H883 0.961 . S
C896 H884 0.959 . S
C896 C894 1.561 . S
C897 C894 1.526 . S
C897 C898 1.396 . S
C897 C902 1.390 . S
C898 C892 1.465 . S
C898 C897 1.396 . S
C898 C899 1.399 . S
C899 H885 0.929 . S
C899 C898 1.399 . S
C899 C900 1.385 . S
C900 H886 0.931 . S
C900 C899 1.385 . S
C900 C901 1.389 . S
C901 C900 1.389 . S
C901 C902 1.387 . S
C902 H887 0.930 . S
C902 C897 1.390 . S
C902 C901 1.387 . S
H903 C915 0.930 . S
H904 C917 0.930 . S
H905 C918 0.930 . S
H906 C922 0.959 . S
H907 C922 0.959 . S
H908 C922 0.961 . S
H909 C923 0.960 . S
H910 C923 0.961 . S
H911 C923 0.959 . S
H912 C926 0.929 . S
H913 C927 0.931 . S
H914 C929 0.930 . S
C915 H903 0.930 . S
C915 C916 1.399 . S
C915 C920 1.399 . S
C916 C915 1.399 . S
C916 C917 1.376 . S
C917 H904 0.930 . S
C917 C916 1.376 . S
C917 C918 1.388 . S
C918 H905 0.930 . S
C918 C917 1.388 . S
C918 C919 1.390 . S
C919 C918 1.390 . S
C919 C920 1.394 . S
C919 C925 1.465 . S
C920 C915 1.399 . S
C920 C919 1.394 . S
C920 C921 1.516 . S
C921 C920 1.516 . S
C921 C922 1.502 . S
C921 C923 1.561 . S
C921 C924 1.526 . S
C922 H906 0.959 . S
C922 H907 0.959 . S
C922 H908 0.961 . S
C922 C921 1.502 . S
C923 H909 0.960 . S
C923 H910 0.961 . S
C923 H911 0.959 . S
C923 C921 1.561 . S
C924 C921 1.526 . S
C924 C925 1.396 . S
C924 C929 1.390 . S
C925 C919 1.465 . S
C925 C924 1.396 . S
C925 C926 1.399 . S
C926 H912 0.929 . S
C926 C925 1.399 . S
C926 C927 1.385 . S
C927 H913 0.931 . S
C927 C926 1.385 . S
C927 C928 1.389 . S
C928 C927 1.389 . S
C928 C929 1.387 . S
C929 H914 0.930 . S
C929 C924 1.390 . S
C929 C928 1.387 . S
H930 C942 0.930 . S
H931 C944 0.930 . S
H932 C945 0.930 . S
H933 C949 0.959 . S
H934 C949 0.959 . S
H935 C949 0.961 . S
H936 C950 0.960 . S
H937 C950 0.961 . S
H938 C950 0.959 . S
H939 C953 0.929 . S
H940 C954 0.931 . S
H941 C956 0.930 . S
C942 H930 0.930 . S
C942 C943 1.399 . S
C942 C947 1.399 . S
C943 C942 1.399 . S
C943 C944 1.376 . S
C944 H931 0.930 . S
C944 C943 1.376 . S
C944 C945 1.388 . S
C945 H932 0.930 . S
C945 C944 1.388 . S
C945 C946 1.390 . S
C946 C945 1.390 . S
C946 C947 1.394 . S
C946 C952 1.465 . S
C947 C942 1.399 . S
C947 C946 1.394 . S
C947 C948 1.516 . S
C948 C947 1.516 . S
C948 C949 1.502 . S
C948 C950 1.561 . S
C948 C951 1.526 . S
C949 H933 0.959 . S
C949 H934 0.959 . S
C949 H935 0.961 . S
C949 C948 1.502 . S
C950 H936 0.960 . S
C950 H937 0.961 . S
C950 H938 0.959 . S
C950 C948 1.561 . S
C951 C948 1.526 . S
C951 C952 1.396 . S
C951 C956 1.390 . S
C952 C946 1.465 . S
C952 C951 1.396 . S
C952 C953 1.399 . S
C953 H939 0.929 . S
C953 C952 1.399 . S
C953 C954 1.385 . S
C954 H940 0.931 . S
C954 C953 1.385 . S
C954 C955 1.389 . S
C955 C954 1.389 . S
C955 C956 1.387 . S
C956 H941 0.930 . S
C956 C951 1.390 . S
C956 C955 1.387 . S
H957 C969 0.930 . S
H958 C971 0.930 . S
H959 C972 0.930 . S
H960 C976 0.959 . S
H961 C976 0.959 . S
H962 C976 0.961 . S
H963 C977 0.960 . S
H964 C977 0.961 . S
H965 C977 0.959 . S
H966 C980 0.929 . S
H967 C981 0.931 1_556 S
H968 C983 0.930 . S
C969 H957 0.930 . S
C969 C970 1.399 . S
C969 C974 1.399 . S
C970 C969 1.399 . S
C970 C971 1.376 . S
C971 H958 0.930 . S
C971 C970 1.376 . S
C971 C972 1.388 . S
C972 H959 0.930 . S
C972 C971 1.388 . S
C972 C973 1.390 . S
C973 C972 1.390 . S
C973 C974 1.394 . S
C973 C979 1.465 . S
C974 C969 1.399 . S
C974 C973 1.394 . S
C974 C975 1.516 . S
C975 C974 1.516 . S
C975 C976 1.502 . S
C975 C977 1.561 . S
C975 C978 1.526 . S
C976 H960 0.959 . S
C976 H961 0.959 . S
C976 H962 0.961 . S
C976 C975 1.502 . S
C977 H963 0.960 . S
C977 H964 0.961 . S
C977 H965 0.959 . S
C977 C975 1.561 . S
C978 C975 1.526 . S
C978 C979 1.396 . S
C978 C983 1.390 . S
C979 C973 1.465 . S
C979 C978 1.396 . S
C979 C980 1.399 . S
C980 H966 0.929 . S
C980 C979 1.399 . S
C980 C981 1.385 . S
C981 H967 0.931 1_554 S
C981 C980 1.385 . S
C981 C982 1.389 . S
C982 C981 1.389 . S
C982 C983 1.387 . S
C983 H968 0.930 . S
C983 C978 1.390 . S
C983 C982 1.387 . S
H984 C996 0.930 . S
H985 C998 0.930 . S
H986 C999 0.930 . S
H987 C1003 0.959 . S
H988 C1003 0.959 . S
H989 C1003 0.961 . S
H990 C1004 0.960 . S
H991 C1004 0.961 . S
H992 C1004 0.959 . S
H993 C1007 0.929 . S
H994 C1008 0.931 . S
H995 C1010 0.930 . S
C996 H984 0.930 . S
C996 C997 1.399 . S
C996 C1001 1.399 . S
C997 C996 1.399 . S
C997 C998 1.376 . S
C998 H985 0.930 . S
C998 C997 1.376 . S
C998 C999 1.388 . S
C999 H986 0.930 . S
C999 C998 1.388 . S
C999 C1000 1.390 . S
C1000 C999 1.390 . S
C1000 C1001 1.394 . S
C1000 C1006 1.465 . S
C1001 C996 1.399 . S
C1001 C1000 1.394 . S
C1001 C1002 1.516 . S
C1002 C1001 1.516 . S
C1002 C1003 1.502 . S
C1002 C1004 1.561 . S
C1002 C1005 1.526 . S
C1003 H987 0.959 . S
C1003 H988 0.959 . S
C1003 H989 0.961 . S
C1003 C1002 1.502 . S
C1004 H990 0.960 . S
C1004 H991 0.961 . S
C1004 H992 0.959 . S
C1004 C1002 1.561 . S
C1005 C1002 1.526 . S
C1005 C1006 1.396 . S
C1005 C1010 1.390 . S
C1006 C1000 1.465 . S
C1006 C1005 1.396 . S
C1006 C1007 1.399 . S
C1007 H993 0.929 . S
C1007 C1006 1.399 . S
C1007 C1008 1.385 . S
C1008 H994 0.931 . S
C1008 C1007 1.385 . S
C1008 C1009 1.389 . S
C1009 C1008 1.389 . S
C1009 C1010 1.387 . S
C1010 H995 0.930 . S
C1010 C1005 1.390 . S
C1010 C1009 1.387 . S
H1011 C1023 0.930 . S
H1012 C1025 0.930 . S
H1013 C1026 0.930 . S
H1014 C1030 0.959 . S
H1015 C1030 0.959 . S
H1016 C1030 0.961 . S
H1017 C1031 0.960 . S
H1018 C1031 0.961 . S
H1019 C1031 0.959 . S
H1020 C1034 0.929 . S
H1021 C1035 0.931 . S
H1022 C1037 0.930 . S
C1023 H1011 0.930 . S
C1023 C1024 1.399 . S
C1023 C1028 1.399 . S
C1024 C1023 1.399 . S
C1024 C1025 1.376 . S
C1025 H1012 0.930 . S
C1025 C1024 1.376 . S
C1025 C1026 1.388 . S
C1026 H1013 0.930 . S
C1026 C1025 1.388 . S
C1026 C1027 1.390 . S
C1027 C1026 1.390 . S
C1027 C1028 1.394 . S
C1027 C1033 1.465 . S
C1028 C1023 1.399 . S
C1028 C1027 1.394 . S
C1028 C1029 1.516 . S
C1029 C1028 1.516 . S
C1029 C1030 1.502 . S
C1029 C1031 1.561 . S
C1029 C1032 1.526 . S
C1030 H1014 0.959 . S
C1030 H1015 0.959 . S
C1030 H1016 0.961 . S
C1030 C1029 1.502 . S
C1031 H1017 0.960 . S
C1031 H1018 0.961 . S
C1031 H1019 0.959 . S
C1031 C1029 1.561 . S
C1032 C1029 1.526 . S
C1032 C1033 1.396 . S
C1032 C1037 1.390 . S
C1033 C1027 1.465 . S
C1033 C1032 1.396 . S
C1033 C1034 1.399 . S
C1034 H1020 0.929 . S
C1034 C1033 1.399 . S
C1034 C1035 1.385 . S
C1035 H1021 0.931 . S
C1035 C1034 1.385 . S
C1035 C1036 1.389 . S
C1036 C1035 1.389 . S
C1036 C1037 1.387 . S
C1037 H1022 0.930 . S
C1037 C1032 1.390 . S
C1037 C1036 1.387 . S
H1038 C1050 0.930 . S
H1039 C1052 0.930 . S
H1040 C1053 0.930 . S
H1041 C1057 0.959 . S
H1042 C1057 0.959 . S
H1043 C1057 0.961 . S
H1044 C1058 0.960 . S
H1045 C1058 0.961 . S
H1046 C1058 0.959 . S
H1047 C1061 0.929 . S
H1048 C1062 0.931 . S
H1049 C1064 0.930 . S
C1050 H1038 0.930 . S
C1050 C1051 1.399 . S
C1050 C1055 1.399 . S
C1051 C1050 1.399 . S
C1051 C1052 1.376 . S
C1052 H1039 0.930 . S
C1052 C1051 1.376 . S
C1052 C1053 1.388 . S
C1053 H1040 0.930 . S
C1053 C1052 1.388 . S
C1053 C1054 1.390 . S
C1054 C1053 1.390 . S
C1054 C1055 1.394 . S
C1054 C1060 1.465 . S
C1055 C1050 1.399 . S
C1055 C1054 1.394 . S
C1055 C1056 1.516 . S
C1056 C1055 1.516 . S
C1056 C1057 1.502 . S
C1056 C1058 1.561 . S
C1056 C1059 1.526 . S
C1057 H1041 0.959 . S
C1057 H1042 0.959 . S
C1057 H1043 0.961 . S
C1057 C1056 1.502 . S
C1058 H1044 0.960 . S
C1058 H1045 0.961 . S
C1058 H1046 0.959 . S
C1058 C1056 1.561 . S
C1059 C1056 1.526 . S
C1059 C1060 1.396 . S
C1059 C1064 1.390 . S
C1060 C1054 1.465 . S
C1060 C1059 1.396 . S
C1060 C1061 1.399 . S
C1061 H1047 0.929 . S
C1061 C1060 1.399 . S
C1061 C1062 1.385 . S
C1062 H1048 0.931 . S
C1062 C1061 1.385 . S
C1062 C1063 1.389 . S
C1063 C1062 1.389 . S
C1063 C1064 1.387 . S
C1064 H1049 0.930 . S
C1064 C1059 1.390 . S
C1064 C1063 1.387 . S
H1065 C1077 0.930 . S
H1066 C1079 0.930 . S
H1067 C1080 0.930 . S
H1068 C1084 0.959 . S
H1069 C1084 0.959 . S
H1070 C1084 0.961 . S
H1071 C1085 0.960 . S
H1072 C1085 0.961 . S
H1073 C1085 0.959 . S
H1074 C1088 0.929 . S
H1075 C1089 0.931 . S
H1076 C1091 0.930 . S
C1077 H1065 0.930 . S
C1077 C1078 1.399 . S
C1077 C1082 1.399 . S
C1078 C1077 1.399 . S
C1078 C1079 1.376 . S
C1079 H1066 0.930 . S
C1079 C1078 1.376 . S
C1079 C1080 1.388 . S
C1080 H1067 0.930 . S
C1080 C1079 1.388 . S
C1080 C1081 1.390 . S
C1081 C1080 1.390 . S
C1081 C1082 1.394 . S
C1081 C1087 1.465 . S
C1082 C1077 1.399 . S
C1082 C1081 1.394 . S
C1082 C1083 1.516 . S
C1083 C1082 1.516 . S
C1083 C1084 1.502 . S
C1083 C1085 1.561 . S
C1083 C1086 1.526 . S
C1084 H1068 0.959 . S
C1084 H1069 0.959 . S
C1084 H1070 0.961 . S
C1084 C1083 1.502 . S
C1085 H1071 0.960 . S
C1085 H1072 0.961 . S
C1085 H1073 0.959 . S
C1085 C1083 1.561 . S
C1086 C1083 1.526 . S
C1086 C1087 1.396 . S
C1086 C1091 1.390 . S
C1087 C1081 1.465 . S
C1087 C1086 1.396 . S
C1087 C1088 1.399 . S
C1088 H1074 0.929 . S
C1088 C1087 1.399 . S
C1088 C1089 1.385 . S
C1089 H1075 0.931 . S
C1089 C1088 1.385 . S
C1089 C1090 1.389 . S
C1090 C1089 1.389 . S
C1090 C1091 1.387 . S
C1091 H1076 0.930 . S
C1091 C1086 1.390 . S
C1091 C1090 1.387 . S
H1092 C1104 0.930 . S
H1093 C1106 0.930 . S
H1094 C1107 0.930 . S
H1095 C1111 0.959 . S
H1096 C1111 0.959 . S
H1097 C1111 0.961 . S
H1098 C1112 0.960 . S
H1099 C1112 0.961 . S
H1100 C1112 0.959 . S
H1101 C1115 0.929 . S
H1102 C1116 0.931 . S
H1103 C1118 0.930 . S
C1104 H1092 0.930 . S
C1104 C1105 1.399 . S
C1104 C1109 1.399 . S
C1105 C1104 1.399 . S
C1105 C1106 1.376 . S
C1106 H1093 0.930 . S
C1106 C1105 1.376 . S
C1106 C1107 1.388 . S
C1107 H1094 0.930 . S
C1107 C1106 1.388 . S
C1107 C1108 1.390 . S
C1108 C1107 1.390 . S
C1108 C1109 1.394 . S
C1108 C1114 1.465 . S
C1109 C1104 1.399 . S
C1109 C1108 1.394 . S
C1109 C1110 1.516 . S
C1110 C1109 1.516 . S
C1110 C1111 1.502 . S
C1110 C1112 1.561 . S
C1110 C1113 1.526 . S
C1111 H1095 0.959 . S
C1111 H1096 0.959 . S
C1111 H1097 0.961 . S
C1111 C1110 1.502 . S
C1112 H1098 0.960 . S
C1112 H1099 0.961 . S
C1112 H1100 0.959 . S
C1112 C1110 1.561 . S
C1113 C1110 1.526 . S
C1113 C1114 1.396 . S
C1113 C1118 1.390 . S
C1114 C1108 1.465 . S
C1114 C1113 1.396 . S
C1114 C1115 1.399 . S
C1115 H1101 0.929 . S
C1115 C1114 1.399 . S
C1115 C1116 1.385 . S
C1116 H1102 0.931 . S
C1116 C1115 1.385 . S
C1116 C1117 1.389 . S
C1117 C1116 1.389 . S
C1117 C1118 1.387 . S
C1118 H1103 0.930 . S
C1118 C1113 1.390 . S
C1118 C1117 1.387 . S
H1119 C1131 0.930 . S
H1120 C1133 0.930 . S
H1121 C1134 0.930 . S
H1122 C1138 0.959 . S
H1123 C1138 0.959 . S
H1124 C1138 0.961 . S
H1125 C1139 0.960 . S
H1126 C1139 0.961 . S
H1127 C1139 0.959 . S
H1128 C1142 0.929 . S
H1129 C1143 0.931 . S
H1130 C1145 0.930 . S
C1131 H1119 0.930 . S
C1131 C1132 1.399 . S
C1131 C1136 1.399 . S
C1132 C1131 1.399 . S
C1132 C1133 1.376 . S
C1133 H1120 0.930 . S
C1133 C1132 1.376 . S
C1133 C1134 1.388 . S
C1134 H1121 0.930 . S
C1134 C1133 1.388 . S
C1134 C1135 1.390 . S
C1135 C1134 1.390 . S
C1135 C1136 1.394 . S
C1135 C1141 1.465 . S
C1136 C1131 1.399 . S
C1136 C1135 1.394 . S
C1136 C1137 1.516 . S
C1137 C1136 1.516 . S
C1137 C1138 1.502 . S
C1137 C1139 1.561 . S
C1137 C1140 1.526 . S
C1138 H1122 0.959 . S
C1138 H1123 0.959 . S
C1138 H1124 0.961 . S
C1138 C1137 1.502 . S
C1139 H1125 0.960 . S
C1139 H1126 0.961 . S
C1139 H1127 0.959 . S
C1139 C1137 1.561 . S
C1140 C1137 1.526 . S
C1140 C1141 1.396 . S
C1140 C1145 1.390 . S
C1141 C1135 1.465 . S
C1141 C1140 1.396 . S
C1141 C1142 1.399 . S
C1142 H1128 0.929 . S
C1142 C1141 1.399 . S
C1142 C1143 1.385 . S
C1143 H1129 0.931 . S
C1143 C1142 1.385 . S
C1143 C1144 1.389 . S
C1144 C1143 1.389 . S
C1144 C1145 1.387 . S
C1145 H1130 0.930 . S
C1145 C1140 1.390 . S
C1145 C1144 1.387 . S
H1146 C1158 0.930 . S
H1147 C1160 0.930 . S
H1148 C1161 0.930 . S
H1149 C1165 0.959 . S
H1150 C1165 0.959 . S
H1151 C1165 0.961 . S
H1152 C1166 0.960 . S
H1153 C1166 0.961 . S
H1154 C1166 0.959 . S
H1155 C1169 0.929 . S
H1156 C1170 0.931 1_545 S
H1157 C1172 0.930 . S
C1158 H1146 0.930 . S
C1158 C1159 1.399 . S
C1158 C1163 1.399 . S
C1159 C1158 1.399 . S
C1159 C1160 1.376 . S
C1160 H1147 0.930 . S
C1160 C1159 1.376 . S
C1160 C1161 1.388 . S
C1161 H1148 0.930 . S
C1161 C1160 1.388 . S
C1161 C1162 1.390 . S
C1162 C1161 1.390 . S
C1162 C1163 1.394 . S
C1162 C1168 1.465 . S
C1163 C1158 1.399 . S
C1163 C1162 1.394 . S
C1163 C1164 1.516 . S
C1164 C1163 1.516 . S
C1164 C1165 1.502 . S
C1164 C1166 1.561 . S
C1164 C1167 1.526 . S
C1165 H1149 0.959 . S
C1165 H1150 0.959 . S
C1165 H1151 0.961 . S
C1165 C1164 1.502 . S
C1166 H1152 0.960 . S
C1166 H1153 0.961 . S
C1166 H1154 0.959 . S
C1166 C1164 1.561 . S
C1167 C1164 1.526 . S
C1167 C1168 1.396 . S
C1167 C1172 1.390 . S
C1168 C1162 1.465 . S
C1168 C1167 1.396 . S
C1168 C1169 1.399 . S
C1169 H1155 0.929 . S
C1169 C1168 1.399 . S
C1169 C1170 1.385 . S
C1170 H1156 0.931 1_565 S
C1170 C1169 1.385 . S
C1170 C1171 1.389 . S
C1171 C1170 1.389 . S
C1171 C1172 1.387 . S
C1172 H1157 0.930 . S
C1172 C1167 1.390 . S
C1172 C1171 1.387 . S
H1173 C1185 0.930 . S
H1174 C1187 0.930 . S
H1175 C1188 0.930 . S
H1176 C1192 0.959 . S
H1177 C1192 0.959 . S
H1178 C1192 0.961 . S
H1179 C1193 0.960 . S
H1180 C1193 0.961 . S
H1181 C1193 0.959 . S
H1182 C1196 0.929 . S
H1183 C1197 0.931 . S
H1184 C1199 0.930 . S
C1185 H1173 0.930 . S
C1185 C1186 1.399 . S
C1185 C1190 1.399 . S
C1186 C1185 1.399 . S
C1186 C1187 1.376 . S
C1187 H1174 0.930 . S
C1187 C1186 1.376 . S
C1187 C1188 1.388 . S
C1188 H1175 0.930 . S
C1188 C1187 1.388 . S
C1188 C1189 1.390 . S
C1189 C1188 1.390 . S
C1189 C1190 1.394 . S
C1189 C1195 1.465 . S
C1190 C1185 1.399 . S
C1190 C1189 1.394 . S
C1190 C1191 1.516 . S
C1191 C1190 1.516 . S
C1191 C1192 1.502 . S
C1191 C1193 1.561 . S
C1191 C1194 1.526 . S
C1192 H1176 0.959 . S
C1192 H1177 0.959 . S
C1192 H1178 0.961 . S
C1192 C1191 1.502 . S
C1193 H1179 0.960 . S
C1193 H1180 0.961 . S
C1193 H1181 0.959 . S
C1193 C1191 1.561 . S
C1194 C1191 1.526 . S
C1194 C1195 1.396 . S
C1194 C1199 1.390 . S
C1195 C1189 1.465 . S
C1195 C1194 1.396 . S
C1195 C1196 1.399 . S
C1196 H1182 0.929 . S
C1196 C1195 1.399 . S
C1196 C1197 1.385 . S
C1197 H1183 0.931 . S
C1197 C1196 1.385 . S
C1197 C1198 1.389 . S
C1198 C1197 1.389 . S
C1198 C1199 1.387 . S
C1199 H1184 0.930 . S
C1199 C1194 1.390 . S
C1199 C1198 1.387 . S
H1200 C1212 0.930 . S
H1201 C1214 0.930 . S
H1202 C1215 0.930 . S
H1203 C1219 0.959 . S
H1204 C1219 0.959 . S
H1205 C1219 0.961 . S
H1206 C1220 0.960 . S
H1207 C1220 0.961 . S
H1208 C1220 0.959 . S
H1209 C1223 0.929 . S
H1210 C1224 0.931 . S
H1211 C1226 0.930 . S
C1212 H1200 0.930 . S
C1212 C1213 1.399 . S
C1212 C1217 1.399 . S
C1213 C1212 1.399 . S
C1213 C1214 1.376 . S
C1214 H1201 0.930 . S
C1214 C1213 1.376 . S
C1214 C1215 1.388 . S
C1215 H1202 0.930 . S
C1215 C1214 1.388 . S
C1215 C1216 1.390 . S
C1216 C1215 1.390 . S
C1216 C1217 1.394 . S
C1216 C1222 1.465 . S
C1217 C1212 1.399 . S
C1217 C1216 1.394 . S
C1217 C1218 1.516 . S
C1218 C1217 1.516 . S
C1218 C1219 1.502 . S
C1218 C1220 1.561 . S
C1218 C1221 1.526 . S
C1219 H1203 0.959 . S
C1219 H1204 0.959 . S
C1219 H1205 0.961 . S
C1219 C1218 1.502 . S
C1220 H1206 0.960 . S
C1220 H1207 0.961 . S
C1220 H1208 0.959 . S
C1220 C1218 1.561 . S
C1221 C1218 1.526 . S
C1221 C1222 1.396 . S
C1221 C1226 1.390 . S
C1222 C1216 1.465 . S
C1222 C1221 1.396 . S
C1222 C1223 1.399 . S
C1223 H1209 0.929 . S
C1223 C1222 1.399 . S
C1223 C1224 1.385 . S
C1224 H1210 0.931 . S
C1224 C1223 1.385 . S
C1224 C1225 1.389 . S
C1225 C1224 1.389 . S
C1225 C1226 1.387 . S
C1226 H1211 0.930 . S
C1226 C1221 1.390 . S
C1226 C1225 1.387 . S
H1227 C1239 0.930 . S
H1228 C1241 0.930 1_556 S
H1229 C1242 0.930 . S
H1230 C1246 0.959 . S
H1231 C1246 0.959 . S
H1232 C1246 0.961 . S
H1233 C1247 0.960 . S
H1234 C1247 0.961 . S
H1235 C1247 0.959 . S
H1236 C1250 0.929 . S
H1237 C1251 0.931 . S
H1238 C1253 0.930 . S
C1239 H1227 0.930 . S
C1239 C1240 1.399 . S
C1239 C1244 1.399 . S
C1240 C1239 1.399 . S
C1240 C1241 1.376 . S
C1241 H1228 0.930 1_554 S
C1241 C1240 1.376 . S
C1241 C1242 1.388 . S
C1242 H1229 0.930 . S
C1242 C1241 1.388 . S
C1242 C1243 1.390 . S
C1243 C1242 1.390 . S
C1243 C1244 1.394 . S
C1243 C1249 1.465 . S
C1244 C1239 1.399 . S
C1244 C1243 1.394 . S
C1244 C1245 1.516 . S
C1245 C1244 1.516 . S
C1245 C1246 1.502 . S
C1245 C1247 1.561 . S
C1245 C1248 1.526 . S
C1246 H1230 0.959 . S
C1246 H1231 0.959 . S
C1246 H1232 0.961 . S
C1246 C1245 1.502 . S
C1247 H1233 0.960 . S
C1247 H1234 0.961 . S
C1247 H1235 0.959 . S
C1247 C1245 1.561 . S
C1248 C1245 1.526 . S
C1248 C1249 1.396 . S
C1248 C1253 1.390 . S
C1249 C1243 1.465 . S
C1249 C1248 1.396 . S
C1249 C1250 1.399 . S
C1250 H1236 0.929 . S
C1250 C1249 1.399 . S
C1250 C1251 1.385 . S
C1251 H1237 0.931 . S
C1251 C1250 1.385 . S
C1251 C1252 1.389 . S
C1252 C1251 1.389 . S
C1252 C1253 1.387 . S
C1253 H1238 0.930 . S
C1253 C1248 1.390 . S
C1253 C1252 1.387 . S
H1254 C1266 0.930 . S
H1255 C1268 0.930 . S
H1256 C1269 0.930 . S
H1257 C1273 0.959 . S
H1258 C1273 0.959 . S
H1259 C1273 0.961 . S
H1260 C1274 0.960 . S
H1261 C1274 0.961 . S
H1262 C1274 0.959 . S
H1263 C1277 0.929 . S
H1264 C1278 0.931 . S
H1265 C1280 0.930 . S
C1266 H1254 0.930 . S
C1266 C1267 1.399 . S
C1266 C1271 1.399 . S
C1267 C1266 1.399 . S
C1267 C1268 1.376 . S
C1268 H1255 0.930 . S
C1268 C1267 1.376 . S
C1268 C1269 1.388 . S
C1269 H1256 0.930 . S
C1269 C1268 1.388 . S
C1269 C1270 1.390 . S
C1270 C1269 1.390 . S
C1270 C1271 1.394 . S
C1270 C1276 1.465 . S
C1271 C1266 1.399 . S
C1271 C1270 1.394 . S
C1271 C1272 1.516 . S
C1272 C1271 1.516 . S
C1272 C1273 1.502 . S
C1272 C1274 1.561 . S
C1272 C1275 1.526 . S
C1273 H1257 0.959 . S
C1273 H1258 0.959 . S
C1273 H1259 0.961 . S
C1273 C1272 1.502 . S
C1274 H1260 0.960 . S
C1274 H1261 0.961 . S
C1274 H1262 0.959 . S
C1274 C1272 1.561 . S
C1275 C1272 1.526 . S
C1275 C1276 1.396 . S
C1275 C1280 1.390 . S
C1276 C1270 1.465 . S
C1276 C1275 1.396 . S
C1276 C1277 1.399 . S
C1277 H1263 0.929 . S
C1277 C1276 1.399 . S
C1277 C1278 1.385 . S
C1278 H1264 0.931 . S
C1278 C1277 1.385 . S
C1278 C1279 1.389 . S
C1279 C1278 1.389 . S
C1279 C1280 1.387 . S
C1280 H1265 0.930 . S
C1280 C1275 1.390 . S
C1280 C1279 1.387 . S
H1281 C1293 0.930 . S
H1282 C1295 0.930 . S
H1283 C1296 0.930 . S
H1284 C1300 0.959 . S
H1285 C1300 0.959 . S
H1286 C1300 0.961 . S
H1287 C1301 0.960 . S
H1288 C1301 0.961 . S
H1289 C1301 0.959 . S
H1290 C1304 0.929 . S
H1291 C1305 0.931 . S
H1292 C1307 0.930 . S
C1293 H1281 0.930 . S
C1293 C1294 1.399 . S
C1293 C1298 1.399 . S
C1294 C1293 1.399 . S
C1294 C1295 1.376 . S
C1295 H1282 0.930 . S
C1295 C1294 1.376 . S
C1295 C1296 1.388 . S
C1296 H1283 0.930 . S
C1296 C1295 1.388 . S
C1296 C1297 1.390 . S
C1297 C1296 1.390 . S
C1297 C1298 1.394 . S
C1297 C1303 1.465 . S
C1298 C1293 1.399 . S
C1298 C1297 1.394 . S
C1298 C1299 1.516 . S
C1299 C1298 1.516 . S
C1299 C1300 1.502 . S
C1299 C1301 1.561 . S
C1299 C1302 1.526 . S
C1300 H1284 0.959 . S
C1300 H1285 0.959 . S
C1300 H1286 0.961 . S
C1300 C1299 1.502 . S
C1301 H1287 0.960 . S
C1301 H1288 0.961 . S
C1301 H1289 0.959 . S
C1301 C1299 1.561 . S
C1302 C1299 1.526 . S
C1302 C1303 1.396 . S
C1302 C1307 1.390 . S
C1303 C1297 1.465 . S
C1303 C1302 1.396 . S
C1303 C1304 1.399 . S
C1304 H1290 0.929 . S
C1304 C1303 1.399 . S
C1304 C1305 1.385 . S
C1305 H1291 0.931 . S
C1305 C1304 1.385 . S
C1305 C1306 1.389 . S
C1306 C1305 1.389 . S
C1306 C1307 1.387 . S
C1307 H1292 0.930 . S
C1307 C1302 1.390 . S
C1307 C1306 1.387 . S
H1308 C1320 0.930 . S
H1309 C1322 0.930 . S
H1310 C1323 0.930 . S
H1311 C1327 0.959 . S
H1312 C1327 0.959 . S
H1313 C1327 0.961 . S
H1314 C1328 0.960 . S
H1315 C1328 0.961 . S
H1316 C1328 0.959 . S
H1317 C1331 0.929 . S
H1318 C1332 0.931 . S
H1319 C1334 0.930 . S
C1320 H1308 0.930 . S
C1320 C1321 1.399 . S
C1320 C1325 1.399 . S
C1321 C1320 1.399 . S
C1321 C1322 1.376 . S
C1322 H1309 0.930 . S
C1322 C1321 1.376 . S
C1322 C1323 1.388 . S
C1323 H1310 0.930 . S
C1323 C1322 1.388 . S
C1323 C1324 1.390 . S
C1324 C1323 1.390 . S
C1324 C1325 1.394 . S
C1324 C1330 1.465 . S
C1325 C1320 1.399 . S
C1325 C1324 1.394 . S
C1325 C1326 1.516 . S
C1326 C1325 1.516 . S
C1326 C1327 1.502 . S
C1326 C1328 1.561 . S
C1326 C1329 1.526 . S
C1327 H1311 0.959 . S
C1327 H1312 0.959 . S
C1327 H1313 0.961 . S
C1327 C1326 1.502 . S
C1328 H1314 0.960 . S
C1328 H1315 0.961 . S
C1328 H1316 0.959 . S
C1328 C1326 1.561 . S
C1329 C1326 1.526 . S
C1329 C1330 1.396 . S
C1329 C1334 1.390 . S
C1330 C1324 1.465 . S
C1330 C1329 1.396 . S
C1330 C1331 1.399 . S
C1331 H1317 0.929 . S
C1331 C1330 1.399 . S
C1331 C1332 1.385 . S
C1332 H1318 0.931 . S
C1332 C1331 1.385 . S
C1332 C1333 1.389 . S
C1333 C1332 1.389 . S
C1333 C1334 1.387 . S
C1334 H1319 0.930 . S
C1334 C1329 1.390 . S
C1334 C1333 1.387 . S
H1335 C1347 0.930 . S
H1336 C1349 0.930 1_655 S
H1337 C1350 0.930 . S
H1338 C1354 0.959 . S
H1339 C1354 0.959 . S
H1340 C1354 0.961 . S
H1341 C1355 0.960 . S
H1342 C1355 0.961 . S
H1343 C1355 0.959 . S
H1344 C1358 0.929 . S
H1345 C1359 0.931 . S
H1346 C1361 0.930 . S
C1347 H1335 0.930 . S
C1347 C1348 1.399 . S
C1347 C1352 1.399 . S
C1348 C1347 1.399 . S
C1348 C1349 1.376 . S
C1349 H1336 0.930 1_455 S
C1349 C1348 1.376 . S
C1349 C1350 1.388 . S
C1350 H1337 0.930 . S
C1350 C1349 1.388 . S
C1350 C1351 1.390 . S
C1351 C1350 1.390 . S
C1351 C1352 1.394 . S
C1351 C1357 1.465 . S
C1352 C1347 1.399 . S
C1352 C1351 1.394 . S
C1352 C1353 1.516 . S
C1353 C1352 1.516 . S
C1353 C1354 1.502 . S
C1353 C1355 1.561 . S
C1353 C1356 1.526 . S
C1354 H1338 0.959 . S
C1354 H1339 0.959 . S
C1354 H1340 0.961 . S
C1354 C1353 1.502 . S
C1355 H1341 0.960 . S
C1355 H1342 0.961 . S
C1355 H1343 0.959 . S
C1355 C1353 1.561 . S
C1356 C1353 1.526 . S
C1356 C1357 1.396 . S
C1356 C1361 1.390 . S
C1357 C1351 1.465 . S
C1357 C1356 1.396 . S
C1357 C1358 1.399 . S
C1358 H1344 0.929 . S
C1358 C1357 1.399 . S
C1358 C1359 1.385 . S
C1359 H1345 0.931 . S
C1359 C1358 1.385 . S
C1359 C1360 1.389 . S
C1360 C1359 1.389 . S
C1360 C1361 1.387 . S
C1361 H1346 0.930 . S
C1361 C1356 1.390 . S
C1361 C1360 1.387 . S
H1362 C1374 0.930 . S
H1363 C1376 0.930 . S
H1364 C1377 0.930 . S
H1365 C1381 0.959 . S
H1366 C1381 0.959 . S
H1367 C1381 0.961 . S
H1368 C1382 0.960 . S
H1369 C1382 0.961 . S
H1370 C1382 0.959 . S
H1371 C1385 0.929 . S
H1372 C1386 0.931 . S
H1373 C1388 0.930 . S
C1374 H1362 0.930 . S
C1374 C1375 1.399 . S
C1374 C1379 1.399 . S
C1375 C1374 1.399 . S
C1375 C1376 1.376 . S
C1376 H1363 0.930 . S
C1376 C1375 1.376 . S
C1376 C1377 1.388 . S
C1377 H1364 0.930 . S
C1377 C1376 1.388 . S
C1377 C1378 1.390 . S
C1378 C1377 1.390 . S
C1378 C1379 1.394 . S
C1378 C1384 1.465 . S
C1379 C1374 1.399 . S
C1379 C1378 1.394 . S
C1379 C1380 1.516 . S
C1380 C1379 1.516 . S
C1380 C1381 1.502 . S
C1380 C1382 1.561 . S
C1380 C1383 1.526 . S
C1381 H1365 0.959 . S
C1381 H1366 0.959 . S
C1381 H1367 0.961 . S
C1381 C1380 1.502 . S
C1382 H1368 0.960 . S
C1382 H1369 0.961 . S
C1382 H1370 0.959 . S
C1382 C1380 1.561 . S
C1383 C1380 1.526 . S
C1383 C1384 1.396 . S
C1383 C1388 1.390 . S
C1384 C1378 1.465 . S
C1384 C1383 1.396 . S
C1384 C1385 1.399 . S
C1385 H1371 0.929 . S
C1385 C1384 1.399 . S
C1385 C1386 1.385 . S
C1386 H1372 0.931 . S
C1386 C1385 1.385 . S
C1386 C1387 1.389 . S
C1387 C1386 1.389 . S
C1387 C1388 1.387 . S
C1388 H1373 0.930 . S
C1388 C1383 1.390 . S
C1388 C1387 1.387 . S
H1389 C1401 0.930 . S
H1390 C1403 0.930 . S
H1391 C1404 0.930 . S
H1392 C1408 0.959 . S
H1393 C1408 0.959 . S
H1394 C1408 0.961 . S
H1395 C1409 0.960 . S
H1396 C1409 0.961 . S
H1397 C1409 0.959 . S
H1398 C1412 0.929 . S
H1399 C1413 0.931 . S
H1400 C1415 0.930 . S
C1401 H1389 0.930 . S
C1401 C1402 1.399 . S
C1401 C1406 1.399 . S
C1402 C1401 1.399 . S
C1402 C1403 1.376 . S
C1403 H1390 0.930 . S
C1403 C1402 1.376 . S
C1403 C1404 1.388 . S
C1404 H1391 0.930 . S
C1404 C1403 1.388 . S
C1404 C1405 1.390 . S
C1405 C1404 1.390 . S
C1405 C1406 1.394 . S
C1405 C1411 1.465 . S
C1406 C1401 1.399 . S
C1406 C1405 1.394 . S
C1406 C1407 1.516 . S
C1407 C1406 1.516 . S
C1407 C1408 1.502 . S
C1407 C1409 1.561 . S
C1407 C1410 1.526 . S
C1408 H1392 0.959 . S
C1408 H1393 0.959 . S
C1408 H1394 0.961 . S
C1408 C1407 1.502 . S
C1409 H1395 0.960 . S
C1409 H1396 0.961 . S
C1409 H1397 0.959 . S
C1409 C1407 1.561 . S
C1410 C1407 1.526 . S
C1410 C1411 1.396 . S
C1410 C1415 1.390 . S
C1411 C1405 1.465 . S
C1411 C1410 1.396 . S
C1411 C1412 1.399 . S
C1412 H1398 0.929 . S
C1412 C1411 1.399 . S
C1412 C1413 1.385 . S
C1413 H1399 0.931 . S
C1413 C1412 1.385 . S
C1413 C1414 1.389 . S
C1414 C1413 1.389 . S
C1414 C1415 1.387 . S
C1415 H1400 0.930 . S
C1415 C1410 1.390 . S
C1415 C1414 1.387 . S
H1416 C1428 0.930 . S
H1417 C1430 0.930 . S
H1418 C1431 0.930 . S
H1419 C1435 0.959 . S
H1420 C1435 0.959 . S
H1421 C1435 0.961 . S
H1422 C1436 0.960 . S
H1423 C1436 0.961 . S
H1424 C1436 0.959 . S
H1425 C1439 0.929 . S
H1426 C1440 0.931 . S
H1427 C1442 0.930 . S
C1428 H1416 0.930 . S
C1428 C1429 1.399 . S
C1428 C1433 1.399 . S
C1429 C1428 1.399 . S
C1429 C1430 1.376 . S
C1430 H1417 0.930 . S
C1430 C1429 1.376 . S
C1430 C1431 1.388 . S
C1431 H1418 0.930 . S
C1431 C1430 1.388 . S
C1431 C1432 1.390 . S
C1432 C1431 1.390 . S
C1432 C1433 1.394 . S
C1432 C1438 1.465 . S
C1433 C1428 1.399 . S
C1433 C1432 1.394 . S
C1433 C1434 1.516 . S
C1434 C1433 1.516 . S
C1434 C1435 1.502 . S
C1434 C1436 1.561 . S
C1434 C1437 1.526 . S
C1435 H1419 0.959 . S
C1435 H1420 0.959 . S
C1435 H1421 0.961 . S
C1435 C1434 1.502 . S
C1436 H1422 0.960 . S
C1436 H1423 0.961 . S
C1436 H1424 0.959 . S
C1436 C1434 1.561 . S
C1437 C1434 1.526 . S
C1437 C1438 1.396 . S
C1437 C1442 1.390 . S
C1438 C1432 1.465 . S
C1438 C1437 1.396 . S
C1438 C1439 1.399 . S
C1439 H1425 0.929 . S
C1439 C1438 1.399 . S
C1439 C1440 1.385 . S
C1440 H1426 0.931 . S
C1440 C1439 1.385 . S
C1440 C1441 1.389 . S
C1441 C1440 1.389 . S
C1441 C1442 1.387 . S
C1442 H1427 0.930 . S
C1442 C1437 1.390 . S
C1442 C1441 1.387 . S
H1443 C1455 0.930 . S
H1444 C1457 0.930 . S
H1445 C1458 0.930 . S
H1446 C1462 0.959 . S
H1447 C1462 0.959 . S
H1448 C1462 0.961 . S
H1449 C1463 0.960 . S
H1450 C1463 0.961 . S
H1451 C1463 0.959 . S
H1452 C1466 0.929 . S
H1453 C1467 0.931 . S
H1454 C1469 0.930 . S
C1455 H1443 0.930 . S
C1455 C1456 1.399 . S
C1455 C1460 1.399 . S
C1456 C1455 1.399 . S
C1456 C1457 1.376 . S
C1457 H1444 0.930 . S
C1457 C1456 1.376 . S
C1457 C1458 1.388 . S
C1458 H1445 0.930 . S
C1458 C1457 1.388 . S
C1458 C1459 1.390 . S
C1459 C1458 1.390 . S
C1459 C1460 1.394 . S
C1459 C1465 1.465 . S
C1460 C1455 1.399 . S
C1460 C1459 1.394 . S
C1460 C1461 1.516 . S
C1461 C1460 1.516 . S
C1461 C1462 1.502 . S
C1461 C1463 1.561 . S
C1461 C1464 1.526 . S
C1462 H1446 0.959 . S
C1462 H1447 0.959 . S
C1462 H1448 0.961 . S
C1462 C1461 1.502 . S
C1463 H1449 0.960 . S
C1463 H1450 0.961 . S
C1463 H1451 0.959 . S
C1463 C1461 1.561 . S
C1464 C1461 1.526 . S
C1464 C1465 1.396 . S
C1464 C1469 1.390 . S
C1465 C1459 1.465 . S
C1465 C1464 1.396 . S
C1465 C1466 1.399 . S
C1466 H1452 0.929 . S
C1466 C1465 1.399 . S
C1466 C1467 1.385 . S
C1467 H1453 0.931 . S
C1467 C1466 1.385 . S
C1467 C1468 1.389 . S
C1468 C1467 1.389 . S
C1468 C1469 1.387 . S
C1469 H1454 0.930 . S
C1469 C1464 1.390 . S
C1469 C1468 1.387 . S
H1470 C1482 0.930 . S
H1471 C1484 0.930 . S
H1472 C1485 0.930 . S
H1473 C1489 0.959 . S
H1474 C1489 0.959 . S
H1475 C1489 0.961 . S
H1476 C1490 0.960 . S
H1477 C1490 0.961 . S
H1478 C1490 0.959 . S
H1479 C1493 0.929 . S
H1480 C1494 0.931 . S
H1481 C1496 0.930 . S
C1482 H1470 0.930 . S
C1482 C1483 1.399 . S
C1482 C1487 1.399 . S
C1483 C1482 1.399 . S
C1483 C1484 1.376 . S
C1484 H1471 0.930 . S
C1484 C1483 1.376 . S
C1484 C1485 1.388 . S
C1485 H1472 0.930 . S
C1485 C1484 1.388 . S
C1485 C1486 1.390 . S
C1486 C1485 1.390 . S
C1486 C1487 1.394 . S
C1486 C1492 1.465 . S
C1487 C1482 1.399 . S
C1487 C1486 1.394 . S
C1487 C1488 1.516 . S
C1488 C1487 1.516 . S
C1488 C1489 1.502 . S
C1488 C1490 1.561 . S
C1488 C1491 1.526 . S
C1489 H1473 0.959 . S
C1489 H1474 0.959 . S
C1489 H1475 0.961 . S
C1489 C1488 1.502 . S
C1490 H1476 0.960 . S
C1490 H1477 0.961 . S
C1490 H1478 0.959 . S
C1490 C1488 1.561 . S
C1491 C1488 1.526 . S
C1491 C1492 1.396 . S
C1491 C1496 1.390 . S
C1492 C1486 1.465 . S
C1492 C1491 1.396 . S
C1492 C1493 1.399 . S
C1493 H1479 0.929 . S
C1493 C1492 1.399 . S
C1493 C1494 1.385 . S
C1494 H1480 0.931 . S
C1494 C1493 1.385 . S
C1494 C1495 1.389 . S
C1495 C1494 1.389 . S
C1495 C1496 1.387 . S
C1496 H1481 0.930 . S
C1496 C1491 1.390 . S
C1496 C1495 1.387 . S
H1497 C1509 0.930 . S
H1498 C1511 0.930 . S
H1499 C1512 0.930 . S
H1500 C1516 0.959 . S
H1501 C1516 0.959 . S
H1502 C1516 0.961 . S
H1503 C1517 0.960 . S
H1504 C1517 0.961 . S
H1505 C1517 0.959 . S
H1506 C1520 0.929 . S
H1507 C1521 0.931 . S
H1508 C1523 0.930 . S
C1509 H1497 0.930 . S
C1509 C1510 1.399 . S
C1509 C1514 1.399 . S
C1510 C1509 1.399 . S
C1510 C1511 1.376 . S
C1511 H1498 0.930 . S
C1511 C1510 1.376 . S
C1511 C1512 1.388 . S
C1512 H1499 0.930 . S
C1512 C1511 1.388 . S
C1512 C1513 1.390 . S
C1513 C1512 1.390 . S
C1513 C1514 1.394 . S
C1513 C1519 1.465 . S
C1514 C1509 1.399 . S
C1514 C1513 1.394 . S
C1514 C1515 1.516 . S
C1515 C1514 1.516 . S
C1515 C1516 1.502 . S
C1515 C1517 1.561 . S
C1515 C1518 1.526 . S
C1516 H1500 0.959 . S
C1516 H1501 0.959 . S
C1516 H1502 0.961 . S
C1516 C1515 1.502 . S
C1517 H1503 0.960 . S
C1517 H1504 0.961 . S
C1517 H1505 0.959 . S
C1517 C1515 1.561 . S
C1518 C1515 1.526 . S
C1518 C1519 1.396 . S
C1518 C1523 1.390 . S
C1519 C1513 1.465 . S
C1519 C1518 1.396 . S
C1519 C1520 1.399 . S
C1520 H1506 0.929 . S
C1520 C1519 1.399 . S
C1520 C1521 1.385 . S
C1521 H1507 0.931 . S
C1521 C1520 1.385 . S
C1521 C1522 1.389 . S
C1522 C1521 1.389 . S
C1522 C1523 1.387 . S
C1523 H1508 0.930 . S
C1523 C1518 1.390 . S
C1523 C1522 1.387 . S
H1524 C1536 0.930 . S
H1525 C1538 0.930 . S
H1526 C1539 0.930 . S
H1527 C1543 0.959 . S
H1528 C1543 0.959 . S
H1529 C1543 0.961 . S
H1530 C1544 0.960 . S
H1531 C1544 0.961 . S
H1532 C1544 0.959 . S
H1533 C1547 0.929 . S
H1534 C1548 0.931 . S
H1535 C1550 0.930 . S
C1536 H1524 0.930 . S
C1536 C1537 1.399 . S
C1536 C1541 1.399 . S
C1537 C1536 1.399 . S
C1537 C1538 1.376 . S
C1538 H1525 0.930 . S
C1538 C1537 1.376 . S
C1538 C1539 1.388 . S
C1539 H1526 0.930 . S
C1539 C1538 1.388 . S
C1539 C1540 1.390 . S
C1540 C1539 1.390 . S
C1540 C1541 1.394 . S
C1540 C1546 1.465 . S
C1541 C1536 1.399 . S
C1541 C1540 1.394 . S
C1541 C1542 1.516 . S
C1542 C1541 1.516 . S
C1542 C1543 1.502 . S
C1542 C1544 1.561 . S
C1542 C1545 1.526 . S
C1543 H1527 0.959 . S
C1543 H1528 0.959 . S
C1543 H1529 0.961 . S
C1543 C1542 1.502 . S
C1544 H1530 0.960 . S
C1544 H1531 0.961 . S
C1544 H1532 0.959 . S
C1544 C1542 1.561 . S
C1545 C1542 1.526 . S
C1545 C1546 1.396 . S
C1545 C1550 1.390 . S
C1546 C1540 1.465 . S
C1546 C1545 1.396 . S
C1546 C1547 1.399 . S
C1547 H1533 0.929 . S
C1547 C1546 1.399 . S
C1547 C1548 1.385 . S
C1548 H1534 0.931 . S
C1548 C1547 1.385 . S
C1548 C1549 1.389 . S
C1549 C1548 1.389 . S
C1549 C1550 1.387 . S
C1550 H1535 0.930 . S
C1550 C1545 1.390 . S
C1550 C1549 1.387 . S
H1551 C1563 0.930 . S
H1552 C1565 0.930 . S
H1553 C1566 0.930 . S
H1554 C1570 0.959 . S
H1555 C1570 0.959 . S
H1556 C1570 0.961 . S
H1557 C1571 0.960 . S
H1558 C1571 0.961 . S
H1559 C1571 0.959 . S
H1560 C1574 0.929 . S
H1561 C1575 0.931 . S
H1562 C1577 0.930 . S
C1563 H1551 0.930 . S
C1563 C1564 1.399 . S
C1563 C1568 1.399 . S
C1564 C1563 1.399 . S
C1564 C1565 1.376 . S
C1565 H1552 0.930 . S
C1565 C1564 1.376 . S
C1565 C1566 1.388 . S
C1566 H1553 0.930 . S
C1566 C1565 1.388 . S
C1566 C1567 1.390 . S
C1567 C1566 1.390 . S
C1567 C1568 1.394 . S
C1567 C1573 1.465 . S
C1568 C1563 1.399 . S
C1568 C1567 1.394 . S
C1568 C1569 1.516 . S
C1569 C1568 1.516 . S
C1569 C1570 1.502 . S
C1569 C1571 1.561 . S
C1569 C1572 1.526 . S
C1570 H1554 0.959 . S
C1570 H1555 0.959 . S
C1570 H1556 0.961 . S
C1570 C1569 1.502 . S
C1571 H1557 0.960 . S
C1571 H1558 0.961 . S
C1571 H1559 0.959 . S
C1571 C1569 1.561 . S
C1572 C1569 1.526 . S
C1572 C1573 1.396 . S
C1572 C1577 1.390 . S
C1573 C1567 1.465 . S
C1573 C1572 1.396 . S
C1573 C1574 1.399 . S
C1574 H1560 0.929 . S
C1574 C1573 1.399 . S
C1574 C1575 1.385 . S
C1575 H1561 0.931 . S
C1575 C1574 1.385 . S
C1575 C1576 1.389 . S
C1576 C1575 1.389 . S
C1576 C1577 1.387 . S
C1577 H1562 0.930 . S
C1577 C1572 1.390 . S
C1577 C1576 1.387 . S
H1578 C1590 0.930 . S
H1579 C1592 0.930 . S
H1580 C1593 0.930 . S
H1581 C1597 0.959 . S
H1582 C1597 0.959 . S
H1583 C1597 0.961 . S
H1584 C1598 0.960 . S
H1585 C1598 0.961 . S
H1586 C1598 0.959 . S
H1587 C1601 0.929 . S
H1588 C1602 0.931 . S
H1589 C1604 0.930 . S
C1590 H1578 0.930 . S
C1590 C1591 1.399 . S
C1590 C1595 1.399 . S
C1591 C1590 1.399 . S
C1591 C1592 1.376 . S
C1592 H1579 0.930 . S
C1592 C1591 1.376 . S
C1592 C1593 1.388 . S
C1593 H1580 0.930 . S
C1593 C1592 1.388 . S
C1593 C1594 1.390 . S
C1594 C1593 1.390 . S
C1594 C1595 1.394 . S
C1594 C1600 1.465 . S
C1595 C1590 1.399 . S
C1595 C1594 1.394 . S
C1595 C1596 1.516 . S
C1596 C1595 1.516 . S
C1596 C1597 1.502 . S
C1596 C1598 1.561 . S
C1596 C1599 1.526 . S
C1597 H1581 0.959 . S
C1597 H1582 0.959 . S
C1597 H1583 0.961 . S
C1597 C1596 1.502 . S
C1598 H1584 0.960 . S
C1598 H1585 0.961 . S
C1598 H1586 0.959 . S
C1598 C1596 1.561 . S
C1599 C1596 1.526 . S
C1599 C1600 1.396 . S
C1599 C1604 1.390 . S
C1600 C1594 1.465 . S
C1600 C1599 1.396 . S
C1600 C1601 1.399 . S
C1601 H1587 0.929 . S
C1601 C1600 1.399 . S
C1601 C1602 1.385 . S
C1602 H1588 0.931 . S
C1602 C1601 1.385 . S
C1602 C1603 1.389 . S
C1603 C1602 1.389 . S
C1603 C1604 1.387 . S
C1604 H1589 0.930 . S
C1604 C1599 1.390 . S
C1604 C1603 1.387 . S
H1605 C1617 0.930 . S
H1606 C1619 0.930 . S
H1607 C1620 0.930 . S
H1608 C1624 0.959 . S
H1609 C1624 0.959 . S
H1610 C1624 0.961 . S
H1611 C1625 0.960 . S
H1612 C1625 0.961 . S
H1613 C1625 0.959 . S
H1614 C1628 0.929 . S
H1615 C1629 0.931 . S
H1616 C1631 0.930 . S
C1617 H1605 0.930 . S
C1617 C1618 1.399 . S
C1617 C1622 1.399 . S
C1618 C1617 1.399 . S
C1618 C1619 1.376 . S
C1619 H1606 0.930 . S
C1619 C1618 1.376 . S
C1619 C1620 1.388 . S
C1620 H1607 0.930 . S
C1620 C1619 1.388 . S
C1620 C1621 1.390 . S
C1621 C1620 1.390 . S
C1621 C1622 1.394 . S
C1621 C1627 1.465 . S
C1622 C1617 1.399 . S
C1622 C1621 1.394 . S
C1622 C1623 1.516 . S
C1623 C1622 1.516 . S
C1623 C1624 1.502 . S
C1623 C1625 1.561 . S
C1623 C1626 1.526 . S
C1624 H1608 0.959 . S
C1624 H1609 0.959 . S
C1624 H1610 0.961 . S
C1624 C1623 1.502 . S
C1625 H1611 0.960 . S
C1625 H1612 0.961 . S
C1625 H1613 0.959 . S
C1625 C1623 1.561 . S
C1626 C1623 1.526 . S
C1626 C1627 1.396 . S
C1626 C1631 1.390 . S
C1627 C1621 1.465 . S
C1627 C1626 1.396 . S
C1627 C1628 1.399 . S
C1628 H1614 0.929 . S
C1628 C1627 1.399 . S
C1628 C1629 1.385 . S
C1629 H1615 0.931 . S
C1629 C1628 1.385 . S
C1629 C1630 1.389 . S
C1630 C1629 1.389 . S
C1630 C1631 1.387 . S
C1631 H1616 0.930 . S
C1631 C1626 1.390 . S
C1631 C1630 1.387 . S
H1632 C1644 0.930 . S
H1633 C1646 0.930 . S
H1634 C1647 0.930 . S
H1635 C1651 0.959 . S
H1636 C1651 0.959 . S
H1637 C1651 0.961 . S
H1638 C1652 0.960 . S
H1639 C1652 0.961 . S
H1640 C1652 0.959 . S
H1641 C1655 0.929 . S
H1642 C1656 0.931 . S
H1643 C1658 0.930 . S
C1644 H1632 0.930 . S
C1644 C1645 1.399 . S
C1644 C1649 1.399 . S
C1645 C1644 1.399 . S
C1645 C1646 1.376 . S
C1646 H1633 0.930 . S
C1646 C1645 1.376 . S
C1646 C1647 1.388 . S
C1647 H1634 0.930 . S
C1647 C1646 1.388 . S
C1647 C1648 1.390 . S
C1648 C1647 1.390 . S
C1648 C1649 1.394 . S
C1648 C1654 1.465 . S
C1649 C1644 1.399 . S
C1649 C1648 1.394 . S
C1649 C1650 1.516 . S
C1650 C1649 1.516 . S
C1650 C1651 1.502 . S
C1650 C1652 1.561 . S
C1650 C1653 1.526 . S
C1651 H1635 0.959 . S
C1651 H1636 0.959 . S
C1651 H1637 0.961 . S
C1651 C1650 1.502 . S
C1652 H1638 0.960 . S
C1652 H1639 0.961 . S
C1652 H1640 0.959 . S
C1652 C1650 1.561 . S
C1653 C1650 1.526 . S
C1653 C1654 1.396 . S
C1653 C1658 1.390 . S
C1654 C1648 1.465 . S
C1654 C1653 1.396 . S
C1654 C1655 1.399 . S
C1655 H1641 0.929 . S
C1655 C1654 1.399 . S
C1655 C1656 1.385 . S
C1656 H1642 0.931 . S
C1656 C1655 1.385 . S
C1656 C1657 1.389 . S
C1657 C1656 1.389 . S
C1657 C1658 1.387 . S
C1658 H1643 0.930 . S
C1658 C1653 1.390 . S
C1658 C1657 1.387 . S
H1659 C1671 0.930 . S
H1660 C1673 0.930 . S
H1661 C1674 0.930 . S
H1662 C1678 0.959 . S
H1663 C1678 0.959 . S
H1664 C1678 0.961 . S
H1665 C1679 0.960 . S
H1666 C1679 0.961 . S
H1667 C1679 0.959 . S
H1668 C1682 0.929 . S
H1669 C1683 0.931 . S
H1670 C1685 0.930 . S
C1671 H1659 0.930 . S
C1671 C1672 1.399 . S
C1671 C1676 1.399 . S
C1672 C1671 1.399 . S
C1672 C1673 1.376 . S
C1673 H1660 0.930 . S
C1673 C1672 1.376 . S
C1673 C1674 1.388 . S
C1674 H1661 0.930 . S
C1674 C1673 1.388 . S
C1674 C1675 1.390 . S
C1675 C1674 1.390 . S
C1675 C1676 1.394 . S
C1675 C1681 1.465 . S
C1676 C1671 1.399 . S
C1676 C1675 1.394 . S
C1676 C1677 1.516 . S
C1677 C1676 1.516 . S
C1677 C1678 1.502 . S
C1677 C1679 1.561 . S
C1677 C1680 1.526 . S
C1678 H1662 0.959 . S
C1678 H1663 0.959 . S
C1678 H1664 0.961 . S
C1678 C1677 1.502 . S
C1679 H1665 0.960 . S
C1679 H1666 0.961 . S
C1679 H1667 0.959 . S
C1679 C1677 1.561 . S
C1680 C1677 1.526 . S
C1680 C1681 1.396 . S
C1680 C1685 1.390 . S
C1681 C1675 1.465 . S
C1681 C1680 1.396 . S
C1681 C1682 1.399 . S
C1682 H1668 0.929 . S
C1682 C1681 1.399 . S
C1682 C1683 1.385 . S
C1683 H1669 0.931 . S
C1683 C1682 1.385 . S
C1683 C1684 1.389 . S
C1684 C1683 1.389 . S
C1684 C1685 1.387 . S
C1685 H1670 0.930 . S
C1685 C1680 1.390 . S
C1685 C1684 1.387 . S
H1686 C1698 0.930 . S
H1687 C1700 0.930 . S
H1688 C1701 0.930 . S
H1689 C1705 0.959 . S
H1690 C1705 0.959 . S
H1691 C1705 0.961 . S
H1692 C1706 0.960 . S
H1693 C1706 0.961 . S
H1694 C1706 0.959 . S
H1695 C1709 0.929 . S
H1696 C1710 0.931 . S
H1697 C1712 0.930 . S
C1698 H1686 0.930 . S
C1698 C1699 1.399 . S
C1698 C1703 1.399 . S
C1699 C1698 1.399 . S
C1699 C1700 1.376 . S
C1700 H1687 0.930 . S
C1700 C1699 1.376 . S
C1700 C1701 1.388 . S
C1701 H1688 0.930 . S
C1701 C1700 1.388 . S
C1701 C1702 1.390 . S
C1702 C1701 1.390 . S
C1702 C1703 1.394 . S
C1702 C1708 1.465 . S
C1703 C1698 1.399 . S
C1703 C1702 1.394 . S
C1703 C1704 1.516 . S
C1704 C1703 1.516 . S
C1704 C1705 1.502 . S
C1704 C1706 1.561 . S
C1704 C1707 1.526 . S
C1705 H1689 0.959 . S
C1705 H1690 0.959 . S
C1705 H1691 0.961 . S
C1705 C1704 1.502 . S
C1706 H1692 0.960 . S
C1706 H1693 0.961 . S
C1706 H1694 0.959 . S
C1706 C1704 1.561 . S
C1707 C1704 1.526 . S
C1707 C1708 1.396 . S
C1707 C1712 1.390 . S
C1708 C1702 1.465 . S
C1708 C1707 1.396 . S
C1708 C1709 1.399 . S
C1709 H1695 0.929 . S
C1709 C1708 1.399 . S
C1709 C1710 1.385 . S
C1710 H1696 0.931 . S
C1710 C1709 1.385 . S
C1710 C1711 1.389 . S
C1711 C1710 1.389 . S
C1711 C1712 1.387 . S
C1712 H1697 0.930 . S
C1712 C1707 1.390 . S
C1712 C1711 1.387 . S
H1713 C1725 0.930 . S
H1714 C1727 0.930 . S
H1715 C1728 0.930 . S
H1716 C1732 0.959 . S
H1717 C1732 0.959 . S
H1718 C1732 0.961 . S
H1719 C1733 0.960 . S
H1720 C1733 0.961 . S
H1721 C1733 0.959 . S
H1722 C1736 0.929 . S
H1723 C1737 0.931 . S
H1724 C1739 0.930 . S
C1725 H1713 0.930 . S
C1725 C1726 1.399 . S
C1725 C1730 1.399 . S
C1726 C1725 1.399 . S
C1726 C1727 1.376 . S
C1727 H1714 0.930 . S
C1727 C1726 1.376 . S
C1727 C1728 1.388 . S
C1728 H1715 0.930 . S
C1728 C1727 1.388 . S
C1728 C1729 1.390 . S
C1729 C1728 1.390 . S
C1729 C1730 1.394 . S
C1729 C1735 1.465 . S
C1730 C1725 1.399 . S
C1730 C1729 1.394 . S
C1730 C1731 1.516 . S
C1731 C1730 1.516 . S
C1731 C1732 1.502 . S
C1731 C1733 1.561 . S
C1731 C1734 1.526 . S
C1732 H1716 0.959 . S
C1732 H1717 0.959 . S
C1732 H1718 0.961 . S
C1732 C1731 1.502 . S
C1733 H1719 0.960 . S
C1733 H1720 0.961 . S
C1733 H1721 0.959 . S
C1733 C1731 1.561 . S
C1734 C1731 1.526 . S
C1734 C1735 1.396 . S
C1734 C1739 1.390 . S
C1735 C1729 1.465 . S
C1735 C1734 1.396 . S
C1735 C1736 1.399 . S
C1736 H1722 0.929 . S
C1736 C1735 1.399 . S
C1736 C1737 1.385 . S
C1737 H1723 0.931 . S
C1737 C1736 1.385 . S
C1737 C1738 1.389 . S
C1738 C1737 1.389 . S
C1738 C1739 1.387 . S
C1739 H1724 0.930 . S
C1739 C1734 1.390 . S
C1739 C1738 1.387 . S
H1740 C1752 0.930 . S
H1741 C1754 0.930 . S
H1742 C1755 0.930 . S
H1743 C1759 0.959 . S
H1744 C1759 0.959 . S
H1745 C1759 0.961 . S
H1746 C1760 0.960 . S
H1747 C1760 0.961 . S
H1748 C1760 0.959 . S
H1749 C1763 0.929 . S
H1750 C1764 0.931 . S
H1751 C1766 0.930 . S
C1752 H1740 0.930 . S
C1752 C1753 1.399 . S
C1752 C1757 1.399 . S
C1753 C1752 1.399 . S
C1753 C1754 1.376 . S
C1754 H1741 0.930 . S
C1754 C1753 1.376 . S
C1754 C1755 1.388 . S
C1755 H1742 0.930 . S
C1755 C1754 1.388 . S
C1755 C1756 1.390 . S
C1756 C1755 1.390 . S
C1756 C1757 1.394 . S
C1756 C1762 1.465 . S
C1757 C1752 1.399 . S
C1757 C1756 1.394 . S
C1757 C1758 1.516 . S
C1758 C1757 1.516 . S
C1758 C1759 1.502 . S
C1758 C1760 1.561 . S
C1758 C1761 1.526 . S
C1759 H1743 0.959 . S
C1759 H1744 0.959 . S
C1759 H1745 0.961 . S
C1759 C1758 1.502 . S
C1760 H1746 0.960 . S
C1760 H1747 0.961 . S
C1760 H1748 0.959 . S
C1760 C1758 1.561 . S
C1761 C1758 1.526 . S
C1761 C1762 1.396 . S
C1761 C1766 1.390 . S
C1762 C1756 1.465 . S
C1762 C1761 1.396 . S
C1762 C1763 1.399 . S
C1763 H1749 0.929 . S
C1763 C1762 1.399 . S
C1763 C1764 1.385 . S
C1764 H1750 0.931 . S
C1764 C1763 1.385 . S
C1764 C1765 1.389 . S
C1765 C1764 1.389 . S
C1765 C1766 1.387 . S
C1766 H1751 0.930 . S
C1766 C1761 1.390 . S
C1766 C1765 1.387 . S
H1767 C1779 0.930 . S
H1768 C1781 0.930 . S
H1769 C1782 0.930 . S
H1770 C1786 0.959 . S
H1771 C1786 0.959 . S
H1772 C1786 0.961 . S
H1773 C1787 0.960 . S
H1774 C1787 0.961 . S
H1775 C1787 0.959 . S
H1776 C1790 0.929 . S
H1777 C1791 0.931 . S
H1778 C1793 0.930 . S
C1779 H1767 0.930 . S
C1779 C1780 1.399 . S
C1779 C1784 1.399 . S
C1780 C1779 1.399 . S
C1780 C1781 1.376 . S
C1781 H1768 0.930 . S
C1781 C1780 1.376 . S
C1781 C1782 1.388 . S
C1782 H1769 0.930 . S
C1782 C1781 1.388 . S
C1782 C1783 1.390 . S
C1783 C1782 1.390 . S
C1783 C1784 1.394 . S
C1783 C1789 1.465 . S
C1784 C1779 1.399 . S
C1784 C1783 1.394 . S
C1784 C1785 1.516 . S
C1785 C1784 1.516 . S
C1785 C1786 1.502 . S
C1785 C1787 1.561 . S
C1785 C1788 1.526 . S
C1786 H1770 0.959 . S
C1786 H1771 0.959 . S
C1786 H1772 0.961 . S
C1786 C1785 1.502 . S
C1787 H1773 0.960 . S
C1787 H1774 0.961 . S
C1787 H1775 0.959 . S
C1787 C1785 1.561 . S
C1788 C1785 1.526 . S
C1788 C1789 1.396 . S
C1788 C1793 1.390 . S
C1789 C1783 1.465 . S
C1789 C1788 1.396 . S
C1789 C1790 1.399 . S
C1790 H1776 0.929 . S
C1790 C1789 1.399 . S
C1790 C1791 1.385 . S
C1791 H1777 0.931 . S
C1791 C1790 1.385 . S
C1791 C1792 1.389 . S
C1792 C1791 1.389 . S
C1792 C1793 1.387 . S
C1793 H1778 0.930 . S
C1793 C1788 1.390 . S
C1793 C1792 1.387 . S
H1794 C1806 0.930 . S
H1795 C1808 0.930 . S
H1796 C1809 0.930 . S
H1797 C1813 0.959 . S
H1798 C1813 0.959 . S
H1799 C1813 0.961 . S
H1800 C1814 0.960 . S
H1801 C1814 0.961 . S
H1802 C1814 0.959 . S
H1803 C1817 0.929 . S
H1804 C1818 0.931 . S
H1805 C1820 0.930 . S
C1806 H1794 0.930 . S
C1806 C1807 1.399 . S
C1806 C1811 1.399 . S
C1807 C1806 1.399 . S
C1807 C1808 1.376 . S
C1808 H1795 0.930 . S
C1808 C1807 1.376 . S
C1808 C1809 1.388 . S
C1809 H1796 0.930 . S
C1809 C1808 1.388 . S
C1809 C1810 1.390 . S
C1810 C1809 1.390 . S
C1810 C1811 1.394 . S
C1810 C1816 1.465 . S
C1811 C1806 1.399 . S
C1811 C1810 1.394 . S
C1811 C1812 1.516 . S
C1812 C1811 1.516 . S
C1812 C1813 1.502 . S
C1812 C1814 1.561 . S
C1812 C1815 1.526 . S
C1813 H1797 0.959 . S
C1813 H1798 0.959 . S
C1813 H1799 0.961 . S
C1813 C1812 1.502 . S
C1814 H1800 0.960 . S
C1814 H1801 0.961 . S
C1814 H1802 0.959 . S
C1814 C1812 1.561 . S
C1815 C1812 1.526 . S
C1815 C1816 1.396 . S
C1815 C1820 1.390 . S
C1816 C1810 1.465 . S
C1816 C1815 1.396 . S
C1816 C1817 1.399 . S
C1817 H1803 0.929 . S
C1817 C1816 1.399 . S
C1817 C1818 1.385 . S
C1818 H1804 0.931 . S
C1818 C1817 1.385 . S
C1818 C1819 1.389 . S
C1819 C1818 1.389 . S
C1819 C1820 1.387 . S
C1820 H1805 0.930 . S
C1820 C1815 1.390 . S
C1820 C1819 1.387 . S
H1821 C1833 0.930 . S
H1822 C1835 0.930 . S
H1823 C1836 0.930 . S
H1824 C1840 0.959 . S
H1825 C1840 0.959 . S
H1826 C1840 0.961 . S
H1827 C1841 0.960 . S
H1828 C1841 0.961 . S
H1829 C1841 0.959 . S
H1830 C1844 0.929 . S
H1831 C1845 0.931 . S
H1832 C1847 0.930 . S
C1833 H1821 0.930 . S
C1833 C1834 1.399 . S
C1833 C1838 1.399 . S
C1834 C1833 1.399 . S
C1834 C1835 1.376 . S
C1835 H1822 0.930 . S
C1835 C1834 1.376 . S
C1835 C1836 1.388 . S
C1836 H1823 0.930 . S
C1836 C1835 1.388 . S
C1836 C1837 1.390 . S
C1837 C1836 1.390 . S
C1837 C1838 1.394 . S
C1837 C1843 1.465 . S
C1838 C1833 1.399 . S
C1838 C1837 1.394 . S
C1838 C1839 1.516 . S
C1839 C1838 1.516 . S
C1839 C1840 1.502 . S
C1839 C1841 1.561 . S
C1839 C1842 1.526 . S
C1840 H1824 0.959 . S
C1840 H1825 0.959 . S
C1840 H1826 0.961 . S
C1840 C1839 1.502 . S
C1841 H1827 0.960 . S
C1841 H1828 0.961 . S
C1841 H1829 0.959 . S
C1841 C1839 1.561 . S
C1842 C1839 1.526 . S
C1842 C1843 1.396 . S
C1842 C1847 1.390 . S
C1843 C1837 1.465 . S
C1843 C1842 1.396 . S
C1843 C1844 1.399 . S
C1844 H1830 0.929 . S
C1844 C1843 1.399 . S
C1844 C1845 1.385 . S
C1845 H1831 0.931 . S
C1845 C1844 1.385 . S
C1845 C1846 1.389 . S
C1846 C1845 1.389 . S
C1846 C1847 1.387 . S
C1847 H1832 0.930 . S
C1847 C1842 1.390 . S
C1847 C1846 1.387 . S
H1848 C1860 0.930 . S
H1849 C1862 0.930 . S
H1850 C1863 0.930 . S
H1851 C1867 0.959 . S
H1852 C1867 0.959 . S
H1853 C1867 0.961 . S
H1854 C1868 0.960 . S
H1855 C1868 0.961 . S
H1856 C1868 0.959 . S
H1857 C1871 0.929 . S
H1858 C1872 0.931 . S
H1859 C1874 0.930 . S
C1860 H1848 0.930 . S
C1860 C1861 1.399 . S
C1860 C1865 1.399 . S
C1861 C1860 1.399 . S
C1861 C1862 1.376 . S
C1862 H1849 0.930 . S
C1862 C1861 1.376 . S
C1862 C1863 1.388 . S
C1863 H1850 0.930 . S
C1863 C1862 1.388 . S
C1863 C1864 1.390 . S
C1864 C1863 1.390 . S
C1864 C1865 1.394 . S
C1864 C1870 1.465 . S
C1865 C1860 1.399 . S
C1865 C1864 1.394 . S
C1865 C1866 1.516 . S
C1866 C1865 1.516 . S
C1866 C1867 1.502 . S
C1866 C1868 1.561 . S
C1866 C1869 1.526 . S
C1867 H1851 0.959 . S
C1867 H1852 0.959 . S
C1867 H1853 0.961 . S
C1867 C1866 1.502 . S
C1868 H1854 0.960 . S
C1868 H1855 0.961 . S
C1868 H1856 0.959 . S
C1868 C1866 1.561 . S
C1869 C1866 1.526 . S
C1869 C1870 1.396 . S
C1869 C1874 1.390 . S
C1870 C1864 1.465 . S
C1870 C1869 1.396 . S
C1870 C1871 1.399 . S
C1871 H1857 0.929 . S
C1871 C1870 1.399 . S
C1871 C1872 1.385 . S
C1872 H1858 0.931 . S
C1872 C1871 1.385 . S
C1872 C1873 1.389 . S
C1873 C1872 1.389 . S
C1873 C1874 1.387 . S
C1874 H1859 0.930 . S
C1874 C1869 1.390 . S
C1874 C1873 1.387 . S
H1875 C1887 0.930 . S
H1876 C1889 0.930 . S
H1877 C1890 0.930 . S
H1878 C1894 0.959 . S
H1879 C1894 0.959 . S
H1880 C1894 0.961 . S
H1881 C1895 0.960 . S
H1882 C1895 0.961 . S
H1883 C1895 0.959 . S
H1884 C1898 0.929 . S
H1885 C1899 0.931 . S
H1886 C1901 0.930 . S
C1887 H1875 0.930 . S
C1887 C1888 1.399 . S
C1887 C1892 1.399 . S
C1888 C1887 1.399 . S
C1888 C1889 1.376 . S
C1889 H1876 0.930 . S
C1889 C1888 1.376 . S
C1889 C1890 1.388 . S
C1890 H1877 0.930 . S
C1890 C1889 1.388 . S
C1890 C1891 1.390 . S
C1891 C1890 1.390 . S
C1891 C1892 1.394 . S
C1891 C1897 1.465 . S
C1892 C1887 1.399 . S
C1892 C1891 1.394 . S
C1892 C1893 1.516 . S
C1893 C1892 1.516 . S
C1893 C1894 1.502 . S
C1893 C1895 1.561 . S
C1893 C1896 1.526 . S
C1894 H1878 0.959 . S
C1894 H1879 0.959 . S
C1894 H1880 0.961 . S
C1894 C1893 1.502 . S
C1895 H1881 0.960 . S
C1895 H1882 0.961 . S
C1895 H1883 0.959 . S
C1895 C1893 1.561 . S
C1896 C1893 1.526 . S
C1896 C1897 1.396 . S
C1896 C1901 1.390 . S
C1897 C1891 1.465 . S
C1897 C1896 1.396 . S
C1897 C1898 1.399 . S
C1898 H1884 0.929 . S
C1898 C1897 1.399 . S
C1898 C1899 1.385 . S
C1899 H1885 0.931 . S
C1899 C1898 1.385 . S
C1899 C1900 1.389 . S
C1900 C1899 1.389 . S
C1900 C1901 1.387 . S
C1901 H1886 0.930 . S
C1901 C1896 1.390 . S
C1901 C1900 1.387 . S
H1902 C1914 0.930 . S
H1903 C1916 0.930 . S
H1904 C1917 0.930 . S
H1905 C1921 0.959 . S
H1906 C1921 0.959 . S
H1907 C1921 0.961 . S
H1908 C1922 0.960 . S
H1909 C1922 0.961 . S
H1910 C1922 0.959 . S
H1911 C1925 0.929 . S
H1912 C1926 0.931 . S
H1913 C1928 0.930 . S
C1914 H1902 0.930 . S
C1914 C1915 1.399 . S
C1914 C1919 1.399 . S
C1915 C1914 1.399 . S
C1915 C1916 1.376 . S
C1916 H1903 0.930 . S
C1916 C1915 1.376 . S
C1916 C1917 1.388 . S
C1917 H1904 0.930 . S
C1917 C1916 1.388 . S
C1917 C1918 1.390 . S
C1918 C1917 1.390 . S
C1918 C1919 1.394 . S
C1918 C1924 1.465 . S
C1919 C1914 1.399 . S
C1919 C1918 1.394 . S
C1919 C1920 1.516 . S
C1920 C1919 1.516 . S
C1920 C1921 1.502 . S
C1920 C1922 1.561 . S
C1920 C1923 1.526 . S
C1921 H1905 0.959 . S
C1921 H1906 0.959 . S
C1921 H1907 0.961 . S
C1921 C1920 1.502 . S
C1922 H1908 0.960 . S
C1922 H1909 0.961 . S
C1922 H1910 0.959 . S
C1922 C1920 1.561 . S
C1923 C1920 1.526 . S
C1923 C1924 1.396 . S
C1923 C1928 1.390 . S
C1924 C1918 1.465 . S
C1924 C1923 1.396 . S
C1924 C1925 1.399 . S
C1925 H1911 0.929 . S
C1925 C1924 1.399 . S
C1925 C1926 1.385 . S
C1926 H1912 0.931 . S
C1926 C1925 1.385 . S
C1926 C1927 1.389 . S
C1927 C1926 1.389 . S
C1927 C1928 1.387 . S
C1928 H1913 0.930 . S
C1928 C1923 1.390 . S
C1928 C1927 1.387 . S
H1929 C1941 0.930 . S
H1930 C1943 0.930 . S
H1931 C1944 0.930 . S
H1932 C1948 0.959 . S
H1933 C1948 0.959 . S
H1934 C1948 0.961 . S
H1935 C1949 0.960 . S
H1936 C1949 0.961 . S
H1937 C1949 0.959 . S
H1938 C1952 0.929 . S
H1939 C1953 0.931 . S
H1940 C1955 0.930 . S
C1941 H1929 0.930 . S
C1941 C1942 1.399 . S
C1941 C1946 1.399 . S
C1942 C1941 1.399 . S
C1942 C1943 1.376 . S
C1943 H1930 0.930 . S
C1943 C1942 1.376 . S
C1943 C1944 1.388 . S
C1944 H1931 0.930 . S
C1944 C1943 1.388 . S
C1944 C1945 1.390 . S
C1945 C1944 1.390 . S
C1945 C1946 1.394 . S
C1945 C1951 1.465 . S
C1946 C1941 1.399 . S
C1946 C1945 1.394 . S
C1946 C1947 1.516 . S
C1947 C1946 1.516 . S
C1947 C1948 1.502 . S
C1947 C1949 1.561 . S
C1947 C1950 1.526 . S
C1948 H1932 0.959 . S
C1948 H1933 0.959 . S
C1948 H1934 0.961 . S
C1948 C1947 1.502 . S
C1949 H1935 0.960 . S
C1949 H1936 0.961 . S
C1949 H1937 0.959 . S
C1949 C1947 1.561 . S
C1950 C1947 1.526 . S
C1950 C1951 1.396 . S
C1950 C1955 1.390 . S
C1951 C1945 1.465 . S
C1951 C1950 1.396 . S
C1951 C1952 1.399 . S
C1952 H1938 0.929 . S
C1952 C1951 1.399 . S
C1952 C1953 1.385 . S
C1953 H1939 0.931 . S
C1953 C1952 1.385 . S
C1953 C1954 1.389 . S
C1954 C1953 1.389 . S
C1954 C1955 1.387 . S
C1955 H1940 0.930 . S
C1955 C1950 1.390 . S
C1955 C1954 1.387 . S
H1956 C1968 0.930 . S
H1957 C1970 0.930 . S
H1958 C1971 0.930 . S
H1959 C1975 0.959 . S
H1960 C1975 0.959 . S
H1961 C1975 0.961 . S
H1962 C1976 0.960 . S
H1963 C1976 0.961 . S
H1964 C1976 0.959 . S
H1965 C1979 0.929 . S
H1966 C1980 0.931 . S
H1967 C1982 0.930 . S
C1968 H1956 0.930 . S
C1968 C1969 1.399 . S
C1968 C1973 1.399 . S
C1969 C1968 1.399 . S
C1969 C1970 1.376 . S
C1970 H1957 0.930 . S
C1970 C1969 1.376 . S
C1970 C1971 1.388 . S
C1971 H1958 0.930 . S
C1971 C1970 1.388 . S
C1971 C1972 1.390 . S
C1972 C1971 1.390 . S
C1972 C1973 1.394 . S
C1972 C1978 1.465 . S
C1973 C1968 1.399 . S
C1973 C1972 1.394 . S
C1973 C1974 1.516 . S
C1974 C1973 1.516 . S
C1974 C1975 1.502 . S
C1974 C1976 1.561 . S
C1974 C1977 1.526 . S
C1975 H1959 0.959 . S
C1975 H1960 0.959 . S
C1975 H1961 0.961 . S
C1975 C1974 1.502 . S
C1976 H1962 0.960 . S
C1976 H1963 0.961 . S
C1976 H1964 0.959 . S
C1976 C1974 1.561 . S
C1977 C1974 1.526 . S
C1977 C1978 1.396 . S
C1977 C1982 1.390 . S
C1978 C1972 1.465 . S
C1978 C1977 1.396 . S
C1978 C1979 1.399 . S
C1979 H1965 0.929 . S
C1979 C1978 1.399 . S
C1979 C1980 1.385 . S
C1980 H1966 0.931 . S
C1980 C1979 1.385 . S
C1980 C1981 1.389 . S
C1981 C1980 1.389 . S
C1981 C1982 1.387 . S
C1982 H1967 0.930 . S
C1982 C1977 1.390 . S
C1982 C1981 1.387 . S
H1983 C1995 0.930 . S
H1984 C1997 0.930 . S
H1985 C1998 0.930 . S
H1986 C2002 0.959 . S
H1987 C2002 0.959 . S
H1988 C2002 0.961 . S
H1989 C2003 0.960 . S
H1990 C2003 0.961 . S
H1991 C2003 0.959 . S
H1992 C2006 0.929 . S
H1993 C2007 0.931 . S
H1994 C2009 0.930 . S
C1995 H1983 0.930 . S
C1995 C1996 1.399 . S
C1995 C2000 1.399 . S
C1996 C1995 1.399 . S
C1996 C1997 1.376 . S
C1997 H1984 0.930 . S
C1997 C1996 1.376 . S
C1997 C1998 1.388 . S
C1998 H1985 0.930 . S
C1998 C1997 1.388 . S
C1998 C1999 1.390 . S
C1999 C1998 1.390 . S
C1999 C2000 1.394 . S
C1999 C2005 1.465 . S
C2000 C1995 1.399 . S
C2000 C1999 1.394 . S
C2000 C2001 1.516 . S
C2001 C2000 1.516 . S
C2001 C2002 1.502 . S
C2001 C2003 1.561 . S
C2001 C2004 1.526 . S
C2002 H1986 0.959 . S
C2002 H1987 0.959 . S
C2002 H1988 0.961 . S
C2002 C2001 1.502 . S
C2003 H1989 0.960 . S
C2003 H1990 0.961 . S
C2003 H1991 0.959 . S
C2003 C2001 1.561 . S
C2004 C2001 1.526 . S
C2004 C2005 1.396 . S
C2004 C2009 1.390 . S
C2005 C1999 1.465 . S
C2005 C2004 1.396 . S
C2005 C2006 1.399 . S
C2006 H1992 0.929 . S
C2006 C2005 1.399 . S
C2006 C2007 1.385 . S
C2007 H1993 0.931 . S
C2007 C2006 1.385 . S
C2007 C2008 1.389 . S
C2008 C2007 1.389 . S
C2008 C2009 1.387 . S
C2009 H1994 0.930 . S
C2009 C2004 1.390 . S
C2009 C2008 1.387 . S
H2010 C2022 0.930 . S
H2011 C2024 0.930 . S
H2012 C2025 0.930 . S
H2013 C2029 0.959 . S
H2014 C2029 0.959 . S
H2015 C2029 0.961 . S
H2016 C2030 0.960 . S
H2017 C2030 0.961 . S
H2018 C2030 0.959 . S
H2019 C2033 0.929 . S
H2020 C2034 0.931 . S
H2021 C2036 0.930 . S
C2022 H2010 0.930 . S
C2022 C2023 1.399 . S
C2022 C2027 1.399 . S
C2023 C2022 1.399 . S
C2023 C2024 1.376 . S
C2024 H2011 0.930 . S
C2024 C2023 1.376 . S
C2024 C2025 1.388 . S
C2025 H2012 0.930 . S
C2025 C2024 1.388 . S
C2025 C2026 1.390 . S
C2026 C2025 1.390 . S
C2026 C2027 1.394 . S
C2026 C2032 1.465 . S
C2027 C2022 1.399 . S
C2027 C2026 1.394 . S
C2027 C2028 1.516 . S
C2028 C2027 1.516 . S
C2028 C2029 1.502 . S
C2028 C2030 1.561 . S
C2028 C2031 1.526 . S
C2029 H2013 0.959 . S
C2029 H2014 0.959 . S
C2029 H2015 0.961 . S
C2029 C2028 1.502 . S
C2030 H2016 0.960 . S
C2030 H2017 0.961 . S
C2030 H2018 0.959 . S
C2030 C2028 1.561 . S
C2031 C2028 1.526 . S
C2031 C2032 1.396 . S
C2031 C2036 1.390 . S
C2032 C2026 1.465 . S
C2032 C2031 1.396 . S
C2032 C2033 1.399 . S
C2033 H2019 0.929 . S
C2033 C2032 1.399 . S
C2033 C2034 1.385 . S
C2034 H2020 0.931 . S
C2034 C2033 1.385 . S
C2034 C2035 1.389 . S
C2035 C2034 1.389 . S
C2035 C2036 1.387 . S
C2036 H2021 0.930 . S
C2036 C2031 1.390 . S
C2036 C2035 1.387 . S
H2037 C2049 0.930 . S
H2038 C2051 0.930 . S
H2039 C2052 0.930 . S
H2040 C2056 0.959 . S
H2041 C2056 0.959 . S
H2042 C2056 0.961 . S
H2043 C2057 0.960 . S
H2044 C2057 0.961 . S
H2045 C2057 0.959 . S
H2046 C2060 0.929 . S
H2047 C2061 0.931 . S
H2048 C2063 0.930 . S
C2049 H2037 0.930 . S
C2049 C2050 1.399 . S
C2049 C2054 1.399 . S
C2050 C2049 1.399 . S
C2050 C2051 1.376 . S
C2051 H2038 0.930 . S
C2051 C2050 1.376 . S
C2051 C2052 1.388 . S
C2052 H2039 0.930 . S
C2052 C2051 1.388 . S
C2052 C2053 1.390 . S
C2053 C2052 1.390 . S
C2053 C2054 1.394 . S
C2053 C2059 1.465 . S
C2054 C2049 1.399 . S
C2054 C2053 1.394 . S
C2054 C2055 1.516 . S
C2055 C2054 1.516 . S
C2055 C2056 1.502 . S
C2055 C2057 1.561 . S
C2055 C2058 1.526 . S
C2056 H2040 0.959 . S
C2056 H2041 0.959 . S
C2056 H2042 0.961 . S
C2056 C2055 1.502 . S
C2057 H2043 0.960 . S
C2057 H2044 0.961 . S
C2057 H2045 0.959 . S
C2057 C2055 1.561 . S
C2058 C2055 1.526 . S
C2058 C2059 1.396 . S
C2058 C2063 1.390 . S
C2059 C2053 1.465 . S
C2059 C2058 1.396 . S
C2059 C2060 1.399 . S
C2060 H2046 0.929 . S
C2060 C2059 1.399 . S
C2060 C2061 1.385 . S
C2061 H2047 0.931 . S
C2061 C2060 1.385 . S
C2061 C2062 1.389 . S
C2062 C2061 1.389 . S
C2062 C2063 1.387 . S
C2063 H2048 0.930 . S
C2063 C2058 1.390 . S
C2063 C2062 1.387 . S
H2064 C2076 0.930 . S
H2065 C2078 0.930 . S
H2066 C2079 0.930 . S
H2067 C2083 0.959 . S
H2068 C2083 0.959 . S
H2069 C2083 0.961 . S
H2070 C2084 0.960 . S
H2071 C2084 0.961 . S
H2072 C2084 0.959 . S
H2073 C2087 0.929 . S
H2074 C2088 0.931 . S
H2075 C2090 0.930 . S
C2076 H2064 0.930 . S
C2076 C2077 1.399 . S
C2076 C2081 1.399 . S
C2077 C2076 1.399 . S
C2077 C2078 1.376 . S
C2078 H2065 0.930 . S
C2078 C2077 1.376 . S
C2078 C2079 1.388 . S
C2079 H2066 0.930 . S
C2079 C2078 1.388 . S
C2079 C2080 1.390 . S
C2080 C2079 1.390 . S
C2080 C2081 1.394 . S
C2080 C2086 1.465 . S
C2081 C2076 1.399 . S
C2081 C2080 1.394 . S
C2081 C2082 1.516 . S
C2082 C2081 1.516 . S
C2082 C2083 1.502 . S
C2082 C2084 1.561 . S
C2082 C2085 1.526 . S
C2083 H2067 0.959 . S
C2083 H2068 0.959 . S
C2083 H2069 0.961 . S
C2083 C2082 1.502 . S
C2084 H2070 0.960 . S
C2084 H2071 0.961 . S
C2084 H2072 0.959 . S
C2084 C2082 1.561 . S
C2085 C2082 1.526 . S
C2085 C2086 1.396 . S
C2085 C2090 1.390 . S
C2086 C2080 1.465 . S
C2086 C2085 1.396 . S
C2086 C2087 1.399 . S
C2087 H2073 0.929 . S
C2087 C2086 1.399 . S
C2087 C2088 1.385 . S
C2088 H2074 0.931 . S
C2088 C2087 1.385 . S
C2088 C2089 1.389 . S
C2089 C2088 1.389 . S
C2089 C2090 1.387 . S
C2090 H2075 0.930 . S
C2090 C2085 1.390 . S
C2090 C2089 1.387 . S
H2091 C2103 0.930 . S
H2092 C2105 0.930 . S
H2093 C2106 0.930 . S
H2094 C2110 0.959 . S
H2095 C2110 0.959 . S
H2096 C2110 0.961 . S
H2097 C2111 0.960 . S
H2098 C2111 0.961 . S
H2099 C2111 0.959 . S
H2100 C2114 0.929 . S
H2101 C2115 0.931 . S
H2102 C2117 0.930 . S
C2103 H2091 0.930 . S
C2103 C2104 1.399 . S
C2103 C2108 1.399 . S
C2104 C2103 1.399 . S
C2104 C2105 1.376 . S
C2105 H2092 0.930 . S
C2105 C2104 1.376 . S
C2105 C2106 1.388 . S
C2106 H2093 0.930 . S
C2106 C2105 1.388 . S
C2106 C2107 1.390 . S
C2107 C2106 1.390 . S
C2107 C2108 1.394 . S
C2107 C2113 1.465 . S
C2108 C2103 1.399 . S
C2108 C2107 1.394 . S
C2108 C2109 1.516 . S
C2109 C2108 1.516 . S
C2109 C2110 1.502 . S
C2109 C2111 1.561 . S
C2109 C2112 1.526 . S
C2110 H2094 0.959 . S
C2110 H2095 0.959 . S
C2110 H2096 0.961 . S
C2110 C2109 1.502 . S
C2111 H2097 0.960 . S
C2111 H2098 0.961 . S
C2111 H2099 0.959 . S
C2111 C2109 1.561 . S
C2112 C2109 1.526 . S
C2112 C2113 1.396 . S
C2112 C2117 1.390 . S
C2113 C2107 1.465 . S
C2113 C2112 1.396 . S
C2113 C2114 1.399 . S
C2114 H2100 0.929 . S
C2114 C2113 1.399 . S
C2114 C2115 1.385 . S
C2115 H2101 0.931 . S
C2115 C2114 1.385 . S
C2115 C2116 1.389 . S
C2116 C2115 1.389 . S
C2116 C2117 1.387 . S
C2117 H2102 0.930 . S
C2117 C2112 1.390 . S
C2117 C2116 1.387 . S
H2118 C2130 0.930 . S
H2119 C2132 0.930 . S
H2120 C2133 0.930 . S
H2121 C2137 0.959 . S
H2122 C2137 0.959 . S
H2123 C2137 0.961 . S
H2124 C2138 0.960 . S
H2125 C2138 0.961 . S
H2126 C2138 0.959 . S
H2127 C2141 0.929 . S
H2128 C2142 0.931 . S
H2129 C2144 0.930 . S
C2130 H2118 0.930 . S
C2130 C2131 1.399 . S
C2130 C2135 1.399 . S
C2131 C2130 1.399 . S
C2131 C2132 1.376 . S
C2132 H2119 0.930 . S
C2132 C2131 1.376 . S
C2132 C2133 1.388 . S
C2133 H2120 0.930 . S
C2133 C2132 1.388 . S
C2133 C2134 1.390 . S
C2134 C2133 1.390 . S
C2134 C2135 1.394 . S
C2134 C2140 1.465 . S
C2135 C2130 1.399 . S
C2135 C2134 1.394 . S
C2135 C2136 1.516 . S
C2136 C2135 1.516 . S
C2136 C2137 1.502 . S
C2136 C2138 1.561 . S
C2136 C2139 1.526 . S
C2137 H2121 0.959 . S
C2137 H2122 0.959 . S
C2137 H2123 0.961 . S
C2137 C2136 1.502 . S
C2138 H2124 0.960 . S
C2138 H2125 0.961 . S
C2138 H2126 0.959 . S
C2138 C2136 1.561 . S
C2139 C2136 1.526 . S
C2139 C2140 1.396 . S
C2139 C2144 1.390 . S
C2140 C2134 1.465 . S
C2140 C2139 1.396 . S
C2140 C2141 1.399 . S
C2141 H2127 0.929 . S
C2141 C2140 1.399 . S
C2141 C2142 1.385 . S
C2142 H2128 0.931 . S
C2142 C2141 1.385 . S
C2142 C2143 1.389 . S
C2143 C2142 1.389 . S
C2143 C2144 1.387 . S
C2144 H2129 0.930 . S
C2144 C2139 1.390 . S
C2144 C2143 1.387 . S
H2145 C2157 0.930 . S
H2146 C2159 0.930 . S
H2147 C2160 0.930 . S
H2148 C2164 0.959 . S
H2149 C2164 0.959 . S
H2150 C2164 0.961 . S
H2151 C2165 0.960 . S
H2152 C2165 0.961 . S
H2153 C2165 0.959 . S
H2154 C2168 0.929 . S
H2155 C2169 0.931 . S
H2156 C2171 0.930 . S
C2157 H2145 0.930 . S
C2157 C2158 1.399 . S
C2157 C2162 1.399 . S
C2158 C2157 1.399 . S
C2158 C2159 1.376 . S
C2159 H2146 0.930 . S
C2159 C2158 1.376 . S
C2159 C2160 1.388 . S
C2160 H2147 0.930 . S
C2160 C2159 1.388 . S
C2160 C2161 1.390 . S
C2161 C2160 1.390 . S
C2161 C2162 1.394 . S
C2161 C2167 1.465 . S
C2162 C2157 1.399 . S
C2162 C2161 1.394 . S
C2162 C2163 1.516 . S
C2163 C2162 1.516 . S
C2163 C2164 1.502 . S
C2163 C2165 1.561 . S
C2163 C2166 1.526 . S
C2164 H2148 0.959 . S
C2164 H2149 0.959 . S
C2164 H2150 0.961 . S
C2164 C2163 1.502 . S
C2165 H2151 0.960 . S
C2165 H2152 0.961 . S
C2165 H2153 0.959 . S
C2165 C2163 1.561 . S
C2166 C2163 1.526 . S
C2166 C2167 1.396 . S
C2166 C2171 1.390 . S
C2167 C2161 1.465 . S
C2167 C2166 1.396 . S
C2167 C2168 1.399 . S
C2168 H2154 0.929 . S
C2168 C2167 1.399 . S
C2168 C2169 1.385 . S
C2169 H2155 0.931 . S
C2169 C2168 1.385 . S
C2169 C2170 1.389 . S
C2170 C2169 1.389 . S
C2170 C2171 1.387 . S
C2171 H2156 0.930 . S
C2171 C2166 1.390 . S
C2171 C2170 1.387 . S
H2172 C2184 0.930 . S
H2173 C2186 0.930 . S
H2174 C2187 0.930 . S
H2175 C2191 0.959 . S
H2176 C2191 0.959 . S
H2177 C2191 0.961 . S
H2178 C2192 0.960 . S
H2179 C2192 0.961 . S
H2180 C2192 0.959 . S
H2181 C2195 0.929 . S
H2182 C2196 0.931 1_655 S
H2183 C2198 0.930 . S
C2184 H2172 0.930 . S
C2184 C2185 1.399 . S
C2184 C2189 1.399 . S
C2185 C2184 1.399 . S
C2185 C2186 1.376 . S
C2186 H2173 0.930 . S
C2186 C2185 1.376 . S
C2186 C2187 1.388 . S
C2187 H2174 0.930 . S
C2187 C2186 1.388 . S
C2187 C2188 1.390 . S
C2188 C2187 1.390 . S
C2188 C2189 1.394 . S
C2188 C2194 1.465 . S
C2189 C2184 1.399 . S
C2189 C2188 1.394 . S
C2189 C2190 1.516 . S
C2190 C2189 1.516 . S
C2190 C2191 1.502 . S
C2190 C2192 1.561 . S
C2190 C2193 1.526 . S
C2191 H2175 0.959 . S
C2191 H2176 0.959 . S
C2191 H2177 0.961 . S
C2191 C2190 1.502 . S
C2192 H2178 0.960 . S
C2192 H2179 0.961 . S
C2192 H2180 0.959 . S
C2192 C2190 1.561 . S
C2193 C2190 1.526 . S
C2193 C2194 1.396 . S
C2193 C2198 1.390 . S
C2194 C2188 1.465 . S
C2194 C2193 1.396 . S
C2194 C2195 1.399 . S
C2195 H2181 0.929 . S
C2195 C2194 1.399 . S
C2195 C2196 1.385 . S
C2196 H2182 0.931 1_455 S
C2196 C2195 1.385 . S
C2196 C2197 1.389 . S
C2197 C2196 1.389 . S
C2197 C2198 1.387 . S
C2198 H2183 0.930 . S
C2198 C2193 1.390 . S
C2198 C2197 1.387 . S
H2199 C2211 0.930 . S
H2200 C2213 0.930 . S
H2201 C2214 0.930 . S
H2202 C2218 0.959 . S
H2203 C2218 0.959 . S
H2204 C2218 0.961 . S
H2205 C2219 0.960 . S
H2206 C2219 0.961 . S
H2207 C2219 0.959 . S
H2208 C2222 0.929 . S
H2209 C2223 0.931 . S
H2210 C2225 0.930 . S
C2211 H2199 0.930 . S
C2211 C2212 1.399 . S
C2211 C2216 1.399 . S
C2212 C2211 1.399 . S
C2212 C2213 1.376 . S
C2213 H2200 0.930 . S
C2213 C2212 1.376 . S
C2213 C2214 1.388 . S
C2214 H2201 0.930 . S
C2214 C2213 1.388 . S
C2214 C2215 1.390 . S
C2215 C2214 1.390 . S
C2215 C2216 1.394 . S
C2215 C2221 1.465 . S
C2216 C2211 1.399 . S
C2216 C2215 1.394 . S
C2216 C2217 1.516 . S
C2217 C2216 1.516 . S
C2217 C2218 1.502 . S
C2217 C2219 1.561 . S
C2217 C2220 1.526 . S
C2218 H2202 0.959 . S
C2218 H2203 0.959 . S
C2218 H2204 0.961 . S
C2218 C2217 1.502 . S
C2219 H2205 0.960 . S
C2219 H2206 0.961 . S
C2219 H2207 0.959 . S
C2219 C2217 1.561 . S
C2220 C2217 1.526 . S
C2220 C2221 1.396 . S
C2220 C2225 1.390 . S
C2221 C2215 1.465 . S
C2221 C2220 1.396 . S
C2221 C2222 1.399 . S
C2222 H2208 0.929 . S
C2222 C2221 1.399 . S
C2222 C2223 1.385 . S
C2223 H2209 0.931 . S
C2223 C2222 1.385 . S
C2223 C2224 1.389 . S
C2224 C2223 1.389 . S
C2224 C2225 1.387 . S
C2225 H2210 0.930 . S
C2225 C2220 1.390 . S
C2225 C2224 1.387 . S
H2226 C2238 0.930 . S
H2227 C2240 0.930 . S
H2228 C2241 0.930 . S
H2229 C2245 0.959 . S
H2230 C2245 0.959 . S
H2231 C2245 0.961 . S
H2232 C2246 0.960 . S
H2233 C2246 0.961 . S
H2234 C2246 0.959 . S
H2235 C2249 0.929 . S
H2236 C2250 0.931 . S
H2237 C2252 0.930 . S
C2238 H2226 0.930 . S
C2238 C2239 1.399 . S
C2238 C2243 1.399 . S
C2239 C2238 1.399 . S
C2239 C2240 1.376 . S
C2240 H2227 0.930 . S
C2240 C2239 1.376 . S
C2240 C2241 1.388 . S
C2241 H2228 0.930 . S
C2241 C2240 1.388 . S
C2241 C2242 1.390 . S
C2242 C2241 1.390 . S
C2242 C2243 1.394 . S
C2242 C2248 1.465 . S
C2243 C2238 1.399 . S
C2243 C2242 1.394 . S
C2243 C2244 1.516 . S
C2244 C2243 1.516 . S
C2244 C2245 1.502 . S
C2244 C2246 1.561 . S
C2244 C2247 1.526 . S
C2245 H2229 0.959 . S
C2245 H2230 0.959 . S
C2245 H2231 0.961 . S
C2245 C2244 1.502 . S
C2246 H2232 0.960 . S
C2246 H2233 0.961 . S
C2246 H2234 0.959 . S
C2246 C2244 1.561 . S
C2247 C2244 1.526 . S
C2247 C2248 1.396 . S
C2247 C2252 1.390 . S
C2248 C2242 1.465 . S
C2248 C2247 1.396 . S
C2248 C2249 1.399 . S
C2249 H2235 0.929 . S
C2249 C2248 1.399 . S
C2249 C2250 1.385 . S
C2250 H2236 0.931 . S
C2250 C2249 1.385 . S
C2250 C2251 1.389 . S
C2251 C2250 1.389 . S
C2251 C2252 1.387 . S
C2252 H2237 0.930 . S
C2252 C2247 1.390 . S
C2252 C2251 1.387 . S
H2253 C2265 0.930 . S
H2254 C2267 0.930 1_455 S
H2255 C2268 0.930 . S
H2256 C2272 0.959 . S
H2257 C2272 0.959 . S
H2258 C2272 0.961 . S
H2259 C2273 0.960 . S
H2260 C2273 0.961 . S
H2261 C2273 0.959 . S
H2262 C2276 0.929 . S
H2263 C2277 0.931 . S
H2264 C2279 0.930 . S
C2265 H2253 0.930 . S
C2265 C2266 1.399 . S
C2265 C2270 1.399 . S
C2266 C2265 1.399 . S
C2266 C2267 1.376 . S
C2267 H2254 0.930 1_655 S
C2267 C2266 1.376 . S
C2267 C2268 1.388 . S
C2268 H2255 0.930 . S
C2268 C2267 1.388 . S
C2268 C2269 1.390 . S
C2269 C2268 1.390 . S
C2269 C2270 1.394 . S
C2269 C2275 1.465 . S
C2270 C2265 1.399 . S
C2270 C2269 1.394 . S
C2270 C2271 1.516 . S
C2271 C2270 1.516 . S
C2271 C2272 1.502 . S
C2271 C2273 1.561 . S
C2271 C2274 1.526 . S
C2272 H2256 0.959 . S
C2272 H2257 0.959 . S
C2272 H2258 0.961 . S
C2272 C2271 1.502 . S
C2273 H2259 0.960 . S
C2273 H2260 0.961 . S
C2273 H2261 0.959 . S
C2273 C2271 1.561 . S
C2274 C2271 1.526 . S
C2274 C2275 1.396 . S
C2274 C2279 1.390 . S
C2275 C2269 1.465 . S
C2275 C2274 1.396 . S
C2275 C2276 1.399 . S
C2276 H2262 0.929 . S
C2276 C2275 1.399 . S
C2276 C2277 1.385 . S
C2277 H2263 0.931 . S
C2277 C2276 1.385 . S
C2277 C2278 1.389 . S
C2278 C2277 1.389 . S
C2278 C2279 1.387 . S
C2279 H2264 0.930 . S
C2279 C2274 1.390 . S
C2279 C2278 1.387 . S
H2280 C2292 0.930 . S
H2281 C2294 0.930 . S
H2282 C2295 0.930 . S
H2283 C2299 0.959 . S
H2284 C2299 0.959 . S
H2285 C2299 0.961 . S
H2286 C2300 0.960 . S
H2287 C2300 0.961 . S
H2288 C2300 0.959 . S
H2289 C2303 0.929 . S
H2290 C2304 0.931 . S
H2291 C2306 0.930 . S
C2292 H2280 0.930 . S
C2292 C2293 1.399 . S
C2292 C2297 1.399 . S
C2293 C2292 1.399 . S
C2293 C2294 1.376 . S
C2294 H2281 0.930 . S
C2294 C2293 1.376 . S
C2294 C2295 1.388 . S
C2295 H2282 0.930 . S
C2295 C2294 1.388 . S
C2295 C2296 1.390 . S
C2296 C2295 1.390 . S
C2296 C2297 1.394 . S
C2296 C2302 1.465 . S
C2297 C2292 1.399 . S
C2297 C2296 1.394 . S
C2297 C2298 1.516 . S
C2298 C2297 1.516 . S
C2298 C2299 1.502 . S
C2298 C2300 1.561 . S
C2298 C2301 1.526 . S
C2299 H2283 0.959 . S
C2299 H2284 0.959 . S
C2299 H2285 0.961 . S
C2299 C2298 1.502 . S
C2300 H2286 0.960 . S
C2300 H2287 0.961 . S
C2300 H2288 0.959 . S
C2300 C2298 1.561 . S
C2301 C2298 1.526 . S
C2301 C2302 1.396 . S
C2301 C2306 1.390 . S
C2302 C2296 1.465 . S
C2302 C2301 1.396 . S
C2302 C2303 1.399 . S
C2303 H2289 0.929 . S
C2303 C2302 1.399 . S
C2303 C2304 1.385 . S
C2304 H2290 0.931 . S
C2304 C2303 1.385 . S
C2304 C2305 1.389 . S
C2305 C2304 1.389 . S
C2305 C2306 1.387 . S
C2306 H2291 0.930 . S
C2306 C2301 1.390 . S
C2306 C2305 1.387 . S
H2307 C2319 0.930 . S
H2308 C2321 0.930 . S
H2309 C2322 0.930 . S
H2310 C2326 0.959 . S
H2311 C2326 0.959 . S
H2312 C2326 0.961 . S
H2313 C2327 0.960 . S
H2314 C2327 0.961 . S
H2315 C2327 0.959 . S
H2316 C2330 0.929 . S
H2317 C2331 0.931 . S
H2318 C2333 0.930 . S
C2319 H2307 0.930 . S
C2319 C2320 1.399 . S
C2319 C2324 1.399 . S
C2320 C2319 1.399 . S
C2320 C2321 1.376 . S
C2321 H2308 0.930 . S
C2321 C2320 1.376 . S
C2321 C2322 1.388 . S
C2322 H2309 0.930 . S
C2322 C2321 1.388 . S
C2322 C2323 1.390 . S
C2323 C2322 1.390 . S
C2323 C2324 1.394 . S
C2323 C2329 1.465 . S
C2324 C2319 1.399 . S
C2324 C2323 1.394 . S
C2324 C2325 1.516 . S
C2325 C2324 1.516 . S
C2325 C2326 1.502 . S
C2325 C2327 1.561 . S
C2325 C2328 1.526 . S
C2326 H2310 0.959 . S
C2326 H2311 0.959 . S
C2326 H2312 0.961 . S
C2326 C2325 1.502 . S
C2327 H2313 0.960 . S
C2327 H2314 0.961 . S
C2327 H2315 0.959 . S
C2327 C2325 1.561 . S
C2328 C2325 1.526 . S
C2328 C2329 1.396 . S
C2328 C2333 1.390 . S
C2329 C2323 1.465 . S
C2329 C2328 1.396 . S
C2329 C2330 1.399 . S
C2330 H2316 0.929 . S
C2330 C2329 1.399 . S
C2330 C2331 1.385 . S
C2331 H2317 0.931 . S
C2331 C2330 1.385 . S
C2331 C2332 1.389 . S
C2332 C2331 1.389 . S
C2332 C2333 1.387 . S
C2333 H2318 0.930 . S
C2333 C2328 1.390 . S
C2333 C2332 1.387 . S
H2334 C2346 0.930 . S
H2335 C2348 0.930 . S
H2336 C2349 0.930 . S
H2337 C2353 0.959 . S
H2338 C2353 0.959 . S
H2339 C2353 0.961 . S
H2340 C2354 0.960 . S
H2341 C2354 0.961 . S
H2342 C2354 0.959 . S
H2343 C2357 0.929 . S
H2344 C2358 0.931 . S
H2345 C2360 0.930 . S
C2346 H2334 0.930 . S
C2346 C2347 1.399 . S
C2346 C2351 1.399 . S
C2347 C2346 1.399 . S
C2347 C2348 1.376 . S
C2348 H2335 0.930 . S
C2348 C2347 1.376 . S
C2348 C2349 1.388 . S
C2349 H2336 0.930 . S
C2349 C2348 1.388 . S
C2349 C2350 1.390 . S
C2350 C2349 1.390 . S
C2350 C2351 1.394 . S
C2350 C2356 1.465 . S
C2351 C2346 1.399 . S
C2351 C2350 1.394 . S
C2351 C2352 1.516 . S
C2352 C2351 1.516 . S
C2352 C2353 1.502 . S
C2352 C2354 1.561 . S
C2352 C2355 1.526 . S
C2353 H2337 0.959 . S
C2353 H2338 0.959 . S
C2353 H2339 0.961 . S
C2353 C2352 1.502 . S
C2354 H2340 0.960 . S
C2354 H2341 0.961 . S
C2354 H2342 0.959 . S
C2354 C2352 1.561 . S
C2355 C2352 1.526 . S
C2355 C2356 1.396 . S
C2355 C2360 1.390 . S
C2356 C2350 1.465 . S
C2356 C2355 1.396 . S
C2356 C2357 1.399 . S
C2357 H2343 0.929 . S
C2357 C2356 1.399 . S
C2357 C2358 1.385 . S
C2358 H2344 0.931 . S
C2358 C2357 1.385 . S
C2358 C2359 1.389 . S
C2359 C2358 1.389 . S
C2359 C2360 1.387 . S
C2360 H2345 0.930 . S
C2360 C2355 1.390 . S
C2360 C2359 1.387 . S
H2361 C2373 0.930 . S
H2362 C2375 0.930 . S
H2363 C2376 0.930 . S
H2364 C2380 0.959 . S
H2365 C2380 0.959 . S
H2366 C2380 0.961 . S
H2367 C2381 0.960 . S
H2368 C2381 0.961 . S
H2369 C2381 0.959 . S
H2370 C2384 0.929 . S
H2371 C2385 0.931 1_545 S
H2372 C2387 0.930 . S
C2373 H2361 0.930 . S
C2373 C2374 1.399 . S
C2373 C2378 1.399 . S
C2374 C2373 1.399 . S
C2374 C2375 1.376 . S
C2375 H2362 0.930 . S
C2375 C2374 1.376 . S
C2375 C2376 1.388 . S
C2376 H2363 0.930 . S
C2376 C2375 1.388 . S
C2376 C2377 1.390 . S
C2377 C2376 1.390 . S
C2377 C2378 1.394 . S
C2377 C2383 1.465 . S
C2378 C2373 1.399 . S
C2378 C2377 1.394 . S
C2378 C2379 1.516 . S
C2379 C2378 1.516 . S
C2379 C2380 1.502 . S
C2379 C2381 1.561 . S
C2379 C2382 1.526 . S
C2380 H2364 0.959 . S
C2380 H2365 0.959 . S
C2380 H2366 0.961 . S
C2380 C2379 1.502 . S
C2381 H2367 0.960 . S
C2381 H2368 0.961 . S
C2381 H2369 0.959 . S
C2381 C2379 1.561 . S
C2382 C2379 1.526 . S
C2382 C2383 1.396 . S
C2382 C2387 1.390 . S
C2383 C2377 1.465 . S
C2383 C2382 1.396 . S
C2383 C2384 1.399 . S
C2384 H2370 0.929 . S
C2384 C2383 1.399 . S
C2384 C2385 1.385 . S
C2385 H2371 0.931 1_565 S
C2385 C2384 1.385 . S
C2385 C2386 1.389 . S
C2386 C2385 1.389 . S
C2386 C2387 1.387 . S
C2387 H2372 0.930 . S
C2387 C2382 1.390 . S
C2387 C2386 1.387 . S
H2388 C2400 0.930 . S
H2389 C2402 0.930 . S
H2390 C2403 0.930 . S
H2391 C2407 0.959 . S
H2392 C2407 0.959 . S
H2393 C2407 0.961 . S
H2394 C2408 0.960 . S
H2395 C2408 0.961 . S
H2396 C2408 0.959 . S
H2397 C2411 0.929 . S
H2398 C2412 0.931 . S
H2399 C2414 0.930 . S
C2400 H2388 0.930 . S
C2400 C2401 1.399 . S
C2400 C2405 1.399 . S
C2401 C2400 1.399 . S
C2401 C2402 1.376 . S
C2402 H2389 0.930 . S
C2402 C2401 1.376 . S
C2402 C2403 1.388 . S
C2403 H2390 0.930 . S
C2403 C2402 1.388 . S
C2403 C2404 1.390 . S
C2404 C2403 1.390 . S
C2404 C2405 1.394 . S
C2404 C2410 1.465 . S
C2405 C2400 1.399 . S
C2405 C2404 1.394 . S
C2405 C2406 1.516 . S
C2406 C2405 1.516 . S
C2406 C2407 1.502 . S
C2406 C2408 1.561 . S
C2406 C2409 1.526 . S
C2407 H2391 0.959 . S
C2407 H2392 0.959 . S
C2407 H2393 0.961 . S
C2407 C2406 1.502 . S
C2408 H2394 0.960 . S
C2408 H2395 0.961 . S
C2408 H2396 0.959 . S
C2408 C2406 1.561 . S
C2409 C2406 1.526 . S
C2409 C2410 1.396 . S
C2409 C2414 1.390 . S
C2410 C2404 1.465 . S
C2410 C2409 1.396 . S
C2410 C2411 1.399 . S
C2411 H2397 0.929 . S
C2411 C2410 1.399 . S
C2411 C2412 1.385 . S
C2412 H2398 0.931 . S
C2412 C2411 1.385 . S
C2412 C2413 1.389 . S
C2413 C2412 1.389 . S
C2413 C2414 1.387 . S
C2414 H2399 0.930 . S
C2414 C2409 1.390 . S
C2414 C2413 1.387 . S
H2415 C2427 0.930 . S
H2416 C2429 0.930 . S
H2417 C2430 0.930 . S
H2418 C2434 0.959 . S
H2419 C2434 0.959 . S
H2420 C2434 0.961 . S
H2421 C2435 0.960 . S
H2422 C2435 0.961 . S
H2423 C2435 0.959 . S
H2424 C2438 0.929 . S
H2425 C2439 0.931 . S
H2426 C2441 0.930 . S
C2427 H2415 0.930 . S
C2427 C2428 1.399 . S
C2427 C2432 1.399 . S
C2428 C2427 1.399 . S
C2428 C2429 1.376 . S
C2429 H2416 0.930 . S
C2429 C2428 1.376 . S
C2429 C2430 1.388 . S
C2430 H2417 0.930 . S
C2430 C2429 1.388 . S
C2430 C2431 1.390 . S
C2431 C2430 1.390 . S
C2431 C2432 1.394 . S
C2431 C2437 1.465 . S
C2432 C2427 1.399 . S
C2432 C2431 1.394 . S
C2432 C2433 1.516 . S
C2433 C2432 1.516 . S
C2433 C2434 1.502 . S
C2433 C2435 1.561 . S
C2433 C2436 1.526 . S
C2434 H2418 0.959 . S
C2434 H2419 0.959 . S
C2434 H2420 0.961 . S
C2434 C2433 1.502 . S
C2435 H2421 0.960 . S
C2435 H2422 0.961 . S
C2435 H2423 0.959 . S
C2435 C2433 1.561 . S
C2436 C2433 1.526 . S
C2436 C2437 1.396 . S
C2436 C2441 1.390 . S
C2437 C2431 1.465 . S
C2437 C2436 1.396 . S
C2437 C2438 1.399 . S
C2438 H2424 0.929 . S
C2438 C2437 1.399 . S
C2438 C2439 1.385 . S
C2439 H2425 0.931 . S
C2439 C2438 1.385 . S
C2439 C2440 1.389 . S
C2440 C2439 1.389 . S
C2440 C2441 1.387 . S
C2441 H2426 0.930 . S
C2441 C2436 1.390 . S
C2441 C2440 1.387 . S
H2442 C2454 0.930 . S
H2443 C2456 0.941 . S
H2444 C2457 0.930 . S
H2445 C2461 0.959 . S
H2446 C2461 0.959 . S
H2447 C2461 0.961 . S
H2448 C2462 0.960 . S
H2449 C2462 0.961 . S
H2450 C2462 0.959 . S
H2451 C2465 0.929 . S
H2452 C2466 0.931 . S
H2453 C2468 0.930 . S
C2454 H2442 0.930 . S
C2454 C2455 1.399 . S
C2454 C2459 1.399 . S
C2455 C2454 1.399 . S
C2455 C2456 1.373 1_554 S
C2456 H2443 0.941 . S
C2456 C2455 1.373 1_556 S
C2456 C2457 1.381 1_556 S
C2457 H2444 0.930 . S
C2457 C2456 1.381 1_554 S
C2457 C2458 1.390 . S
C2458 C2457 1.390 . S
C2458 C2459 1.394 . S
C2458 C2464 1.465 . S
C2459 C2454 1.399 . S
C2459 C2458 1.394 . S
C2459 C2460 1.516 . S
C2460 C2459 1.516 . S
C2460 C2461 1.502 . S
C2460 C2462 1.561 . S
C2460 C2463 1.526 . S
C2461 H2445 0.959 . S
C2461 H2446 0.959 . S
C2461 H2447 0.961 . S
C2461 C2460 1.502 . S
C2462 H2448 0.960 . S
C2462 H2449 0.961 . S
C2462 H2450 0.959 . S
C2462 C2460 1.561 . S
C2463 C2460 1.526 . S
C2463 C2464 1.396 . S
C2463 C2468 1.390 . S
C2464 C2458 1.465 . S
C2464 C2463 1.396 . S
C2464 C2465 1.399 . S
C2465 H2451 0.929 . S
C2465 C2464 1.399 . S
C2465 C2466 1.385 . S
C2466 H2452 0.931 . S
C2466 C2465 1.385 . S
C2466 C2467 1.389 . S
C2467 C2466 1.389 . S
C2467 C2468 1.387 . S
C2468 H2453 0.930 . S
C2468 C2463 1.390 . S
C2468 C2467 1.387 . S
H2469 C2481 0.930 . S
H2470 C2483 0.930 . S
H2471 C2484 0.930 . S
H2472 C2488 0.959 . S
H2473 C2488 0.959 . S
H2474 C2488 0.961 . S
H2475 C2489 0.960 . S
H2476 C2489 0.961 . S
H2477 C2489 0.959 . S
H2478 C2492 0.929 . S
H2479 C2493 0.931 . S
H2480 C2495 0.930 . S
C2481 H2469 0.930 . S
C2481 C2482 1.399 . S
C2481 C2486 1.399 . S
C2482 C2481 1.399 . S
C2482 C2483 1.376 . S
C2483 H2470 0.930 . S
C2483 C2482 1.376 . S
C2483 C2484 1.388 . S
C2484 H2471 0.930 . S
C2484 C2483 1.388 . S
C2484 C2485 1.390 . S
C2485 C2484 1.390 . S
C2485 C2486 1.394 . S
C2485 C2491 1.465 . S
C2486 C2481 1.399 . S
C2486 C2485 1.394 . S
C2486 C2487 1.516 . S
C2487 C2486 1.516 . S
C2487 C2488 1.502 . S
C2487 C2489 1.561 . S
C2487 C2490 1.526 . S
C2488 H2472 0.959 . S
C2488 H2473 0.959 . S
C2488 H2474 0.961 . S
C2488 C2487 1.502 . S
C2489 H2475 0.960 . S
C2489 H2476 0.961 . S
C2489 H2477 0.959 . S
C2489 C2487 1.561 . S
C2490 C2487 1.526 . S
C2490 C2491 1.396 . S
C2490 C2495 1.390 . S
C2491 C2485 1.465 . S
C2491 C2490 1.396 . S
C2491 C2492 1.399 . S
C2492 H2478 0.929 . S
C2492 C2491 1.399 . S
C2492 C2493 1.385 . S
C2493 H2479 0.931 . S
C2493 C2492 1.385 . S
C2493 C2494 1.389 . S
C2494 C2493 1.389 . S
C2494 C2495 1.387 . S
C2495 H2480 0.930 . S
C2495 C2490 1.390 . S
C2495 C2494 1.387 . S
H2496 C2508 0.930 . S
H2497 C2510 0.930 . S
H2498 C2511 0.930 . S
H2499 C2515 0.959 . S
H2500 C2515 0.959 . S
H2501 C2515 0.961 . S
H2502 C2516 0.960 . S
H2503 C2516 0.961 . S
H2504 C2516 0.959 . S
H2505 C2519 0.929 . S
H2506 C2520 0.918 1_455 S
H2507 C2522 0.930 . S
C2508 H2496 0.930 . S
C2508 C2509 1.399 . S
C2508 C2513 1.399 . S
C2509 C2508 1.399 . S
C2509 C2510 1.376 . S
C2510 H2497 0.930 . S
C2510 C2509 1.376 . S
C2510 C2511 1.388 . S
C2511 H2498 0.930 . S
C2511 C2510 1.388 . S
C2511 C2512 1.390 . S
C2512 C2511 1.390 . S
C2512 C2513 1.394 . S
C2512 C2518 1.465 . S
C2513 C2508 1.399 . S
C2513 C2512 1.394 . S
C2513 C2514 1.516 . S
C2514 C2513 1.516 . S
C2514 C2515 1.502 . S
C2514 C2516 1.561 . S
C2514 C2517 1.526 . S
C2515 H2499 0.959 . S
C2515 H2500 0.959 . S
C2515 H2501 0.961 . S
C2515 C2514 1.502 . S
C2516 H2502 0.960 . S
C2516 H2503 0.961 . S
C2516 H2504 0.959 . S
C2516 C2514 1.561 . S
C2517 C2514 1.526 . S
C2517 C2518 1.396 . S
C2517 C2522 1.390 . S
C2518 C2512 1.465 . S
C2518 C2517 1.396 . S
C2518 C2519 1.399 . S
C2519 H2505 0.929 . S
C2519 C2518 1.399 . S
C2519 C2520 1.394 . S
C2520 H2506 0.918 1_655 S
C2520 C2519 1.394 . S
C2520 C2521 1.394 . S
C2521 C2520 1.394 . S
C2521 C2522 1.387 . S
C2522 H2507 0.930 . S
C2522 C2517 1.390 . S
C2522 C2521 1.387 . S
H2523 C2535 0.930 . S
H2524 C2537 0.930 . S
H2525 C2538 0.930 . S
H2526 C2542 0.959 . S
H2527 C2542 0.959 . S
H2528 C2542 0.961 . S
H2529 C2543 0.960 . S
H2530 C2543 0.961 . S
H2531 C2543 0.959 . S
H2532 C2546 0.929 . S
H2533 C2547 0.931 . S
H2534 C2549 0.930 . S
C2535 H2523 0.930 . S
C2535 C2536 1.399 . S
C2535 C2540 1.399 . S
C2536 C2535 1.399 . S
C2536 C2537 1.376 . S
C2537 H2524 0.930 . S
C2537 C2536 1.376 . S
C2537 C2538 1.388 . S
C2538 H2525 0.930 . S
C2538 C2537 1.388 . S
C2538 C2539 1.390 . S
C2539 C2538 1.390 . S
C2539 C2540 1.394 . S
C2539 C2545 1.465 . S
C2540 C2535 1.399 . S
C2540 C2539 1.394 . S
C2540 C2541 1.516 . S
C2541 C2540 1.516 . S
C2541 C2542 1.502 . S
C2541 C2543 1.561 . S
C2541 C2544 1.526 . S
C2542 H2526 0.959 . S
C2542 H2527 0.959 . S
C2542 H2528 0.961 . S
C2542 C2541 1.502 . S
C2543 H2529 0.960 . S
C2543 H2530 0.961 . S
C2543 H2531 0.959 . S
C2543 C2541 1.561 . S
C2544 C2541 1.526 . S
C2544 C2545 1.396 . S
C2544 C2549 1.390 . S
C2545 C2539 1.465 . S
C2545 C2544 1.396 . S
C2545 C2546 1.399 . S
C2546 H2532 0.929 . S
C2546 C2545 1.399 . S
C2546 C2547 1.385 . S
C2547 H2533 0.931 . S
C2547 C2546 1.385 . S
C2547 C2548 1.389 . S
C2548 C2547 1.389 . S
C2548 C2549 1.387 . S
C2549 H2534 0.930 . S
C2549 C2544 1.390 . S
C2549 C2548 1.387 . S
H2550 C2562 0.930 . S
H2551 C2564 0.930 . S
H2552 C2565 0.930 . S
H2553 C2569 0.959 . S
H2554 C2569 0.959 . S
H2555 C2569 0.961 . S
H2556 C2570 0.960 . S
H2557 C2570 0.961 . S
H2558 C2570 0.959 . S
H2559 C2573 0.929 . S
H2560 C2574 0.931 . S
H2561 C2576 0.930 . S
C2562 H2550 0.930 . S
C2562 C2563 1.399 . S
C2562 C2567 1.399 . S
C2563 C2562 1.399 . S
C2563 C2564 1.376 . S
C2564 H2551 0.930 . S
C2564 C2563 1.376 . S
C2564 C2565 1.388 . S
C2565 H2552 0.930 . S
C2565 C2564 1.388 . S
C2565 C2566 1.390 . S
C2566 C2565 1.390 . S
C2566 C2567 1.394 . S
C2566 C2572 1.465 . S
C2567 C2562 1.399 . S
C2567 C2566 1.394 . S
C2567 C2568 1.516 . S
C2568 C2567 1.516 . S
C2568 C2569 1.502 . S
C2568 C2570 1.561 . S
C2568 C2571 1.526 . S
C2569 H2553 0.959 . S
C2569 H2554 0.959 . S
C2569 H2555 0.961 . S
C2569 C2568 1.502 . S
C2570 H2556 0.960 . S
C2570 H2557 0.961 . S
C2570 H2558 0.959 . S
C2570 C2568 1.561 . S
C2571 C2568 1.526 . S
C2571 C2572 1.396 . S
C2571 C2576 1.390 . S
C2572 C2566 1.465 . S
C2572 C2571 1.396 . S
C2572 C2573 1.399 . S
C2573 H2559 0.929 . S
C2573 C2572 1.399 . S
C2573 C2574 1.385 . S
C2574 H2560 0.931 . S
C2574 C2573 1.385 . S
C2574 C2575 1.389 . S
C2575 C2574 1.389 . S
C2575 C2576 1.387 . S
C2576 H2561 0.930 . S
C2576 C2571 1.390 . S
C2576 C2575 1.387 . S
H2577 C2589 0.930 . S
H2578 C2591 0.930 . S
H2579 C2592 0.930 . S
H2580 C2596 0.959 . S
H2581 C2596 0.959 . S
H2582 C2596 0.961 . S
H2583 C2597 0.960 . S
H2584 C2597 0.961 . S
H2585 C2597 0.959 . S
H2586 C2600 0.929 . S
H2587 C2601 0.931 1_655 S
H2588 C2603 0.930 . S
C2589 H2577 0.930 . S
C2589 C2590 1.399 . S
C2589 C2594 1.399 . S
C2590 C2589 1.399 . S
C2590 C2591 1.376 . S
C2591 H2578 0.930 . S
C2591 C2590 1.376 . S
C2591 C2592 1.388 . S
C2592 H2579 0.930 . S
C2592 C2591 1.388 . S
C2592 C2593 1.390 . S
C2593 C2592 1.390 . S
C2593 C2594 1.394 . S
C2593 C2599 1.465 . S
C2594 C2589 1.399 . S
C2594 C2593 1.394 . S
C2594 C2595 1.516 . S
C2595 C2594 1.516 . S
C2595 C2596 1.502 . S
C2595 C2597 1.561 . S
C2595 C2598 1.526 . S
C2596 H2580 0.959 . S
C2596 H2581 0.959 . S
C2596 H2582 0.961 . S
C2596 C2595 1.502 . S
C2597 H2583 0.960 . S
C2597 H2584 0.961 . S
C2597 H2585 0.959 . S
C2597 C2595 1.561 . S
C2598 C2595 1.526 . S
C2598 C2599 1.396 . S
C2598 C2603 1.390 . S
C2599 C2593 1.465 . S
C2599 C2598 1.396 . S
C2599 C2600 1.399 . S
C2600 H2586 0.929 . S
C2600 C2599 1.399 . S
C2600 C2601 1.385 . S
C2601 H2587 0.931 1_455 S
C2601 C2600 1.385 . S
C2601 C2602 1.389 . S
C2602 C2601 1.389 . S
C2602 C2603 1.387 . S
C2603 H2588 0.930 . S
C2603 C2598 1.390 . S
C2603 C2602 1.387 . S
H2604 C2616 0.930 . S
H2605 C2618 0.930 . S
H2606 C2619 0.930 . S
H2607 C2623 0.959 . S
H2608 C2623 0.959 . S
H2609 C2623 0.961 . S
H2610 C2624 0.960 . S
H2611 C2624 0.961 . S
H2612 C2624 0.959 . S
H2613 C2627 0.929 . S
H2614 C2628 0.922 1_545 S
H2615 C2630 0.930 . S
C2616 H2604 0.930 . S
C2616 C2617 1.399 . S
C2616 C2621 1.399 . S
C2617 C2616 1.399 . S
C2617 C2618 1.376 . S
C2618 H2605 0.930 . S
C2618 C2617 1.376 . S
C2618 C2619 1.388 . S
C2619 H2606 0.930 . S
C2619 C2618 1.388 . S
C2619 C2620 1.390 . S
C2620 C2619 1.390 . S
C2620 C2621 1.394 . S
C2620 C2626 1.465 . S
C2621 C2616 1.399 . S
C2621 C2620 1.394 . S
C2621 C2622 1.516 . S
C2622 C2621 1.516 . S
C2622 C2623 1.502 . S
C2622 C2624 1.561 . S
C2622 C2625 1.526 . S
C2623 H2607 0.959 . S
C2623 H2608 0.959 . S
C2623 H2609 0.961 . S
C2623 C2622 1.502 . S
C2624 H2610 0.960 . S
C2624 H2611 0.961 . S
C2624 H2612 0.959 . S
C2624 C2622 1.561 . S
C2625 C2622 1.526 . S
C2625 C2626 1.396 . S
C2625 C2630 1.390 . S
C2626 C2620 1.465 . S
C2626 C2625 1.396 . S
C2626 C2627 1.399 . S
C2627 H2613 0.929 . S
C2627 C2626 1.399 . S
C2627 C2628 1.391 . S
C2628 H2614 0.922 1_565 S
C2628 C2627 1.391 . S
C2628 C2629 1.392 . S
C2629 C2628 1.392 . S
C2629 C2630 1.387 . S
C2630 H2615 0.930 . S
C2630 C2625 1.390 . S
C2630 C2629 1.387 . S
H2631 C2643 0.930 . S
H2632 C2645 0.930 . S
H2633 C2646 0.930 . S
H2634 C2650 0.959 . S
H2635 C2650 0.959 . S
H2636 C2650 0.961 . S
H2637 C2651 0.960 . S
H2638 C2651 0.961 . S
H2639 C2651 0.959 . S
H2640 C2654 0.929 . S
H2641 C2655 0.931 . S
H2642 C2657 0.930 . S
C2643 H2631 0.930 . S
C2643 C2644 1.399 . S
C2643 C2648 1.399 . S
C2644 C2643 1.399 . S
C2644 C2645 1.376 . S
C2645 H2632 0.930 . S
C2645 C2644 1.376 . S
C2645 C2646 1.388 . S
C2646 H2633 0.930 . S
C2646 C2645 1.388 . S
C2646 C2647 1.390 . S
C2647 C2646 1.390 . S
C2647 C2648 1.394 . S
C2647 C2653 1.465 . S
C2648 C2643 1.399 . S
C2648 C2647 1.394 . S
C2648 C2649 1.516 . S
C2649 C2648 1.516 . S
C2649 C2650 1.502 . S
C2649 C2651 1.561 . S
C2649 C2652 1.526 . S
C2650 H2634 0.959 . S
C2650 H2635 0.959 . S
C2650 H2636 0.961 . S
C2650 C2649 1.502 . S
C2651 H2637 0.960 . S
C2651 H2638 0.961 . S
C2651 H2639 0.959 . S
C2651 C2649 1.561 . S
C2652 C2649 1.526 . S
C2652 C2653 1.396 . S
C2652 C2657 1.390 . S
C2653 C2647 1.465 . S
C2653 C2652 1.396 . S
C2653 C2654 1.399 . S
C2654 H2640 0.929 . S
C2654 C2653 1.399 . S
C2654 C2655 1.385 . S
C2655 H2641 0.931 . S
C2655 C2654 1.385 . S
C2655 C2656 1.389 . S
C2656 C2655 1.389 . S
C2656 C2657 1.387 . S
C2657 H2642 0.930 . S
C2657 C2652 1.390 . S
C2657 C2656 1.387 . S
H2658 C2670 0.930 . S
H2659 C2672 0.930 . S
H2660 C2673 0.930 . S
H2661 C2677 0.959 . S
H2662 C2677 0.959 . S
H2663 C2677 0.961 . S
H2664 C2678 0.960 . S
H2665 C2678 0.961 . S
H2666 C2678 0.959 . S
H2667 C2681 0.929 . S
H2668 C2682 0.931 . S
H2669 C2684 0.930 . S
C2670 H2658 0.930 . S
C2670 C2671 1.399 . S
C2670 C2675 1.399 . S
C2671 C2670 1.399 . S
C2671 C2672 1.376 . S
C2672 H2659 0.930 . S
C2672 C2671 1.376 . S
C2672 C2673 1.388 . S
C2673 H2660 0.930 . S
C2673 C2672 1.388 . S
C2673 C2674 1.390 . S
C2674 C2673 1.390 . S
C2674 C2675 1.394 . S
C2674 C2680 1.465 . S
C2675 C2670 1.399 . S
C2675 C2674 1.394 . S
C2675 C2676 1.516 . S
C2676 C2675 1.516 . S
C2676 C2677 1.502 . S
C2676 C2678 1.561 . S
C2676 C2679 1.526 . S
C2677 H2661 0.959 . S
C2677 H2662 0.959 . S
C2677 H2663 0.961 . S
C2677 C2676 1.502 . S
C2678 H2664 0.960 . S
C2678 H2665 0.961 . S
C2678 H2666 0.959 . S
C2678 C2676 1.561 . S
C2679 C2676 1.526 . S
C2679 C2680 1.396 . S
C2679 C2684 1.390 . S
C2680 C2674 1.465 . S
C2680 C2679 1.396 . S
C2680 C2681 1.399 . S
C2681 H2667 0.929 . S
C2681 C2680 1.399 . S
C2681 C2682 1.385 . S
C2682 H2668 0.931 . S
C2682 C2681 1.385 . S
C2682 C2683 1.389 . S
C2683 C2682 1.389 . S
C2683 C2684 1.387 . S
C2684 H2669 0.930 . S
C2684 C2679 1.390 . S
C2684 C2683 1.387 . S
H2685 C2697 0.930 . S
H2686 C2699 0.930 . S
H2687 C2700 0.930 . S
H2688 C2704 0.959 . S
H2689 C2704 0.959 . S
H2690 C2704 0.961 . S
H2691 C2705 0.960 . S
H2692 C2705 0.961 . S
H2693 C2705 0.959 . S
H2694 C2708 0.929 . S
H2695 C2709 0.931 . S
H2696 C2711 0.930 . S
C2697 H2685 0.930 . S
C2697 C2698 1.399 . S
C2697 C2702 1.399 . S
C2698 C2697 1.399 . S
C2698 C2699 1.376 . S
C2699 H2686 0.930 . S
C2699 C2698 1.376 . S
C2699 C2700 1.388 . S
C2700 H2687 0.930 . S
C2700 C2699 1.388 . S
C2700 C2701 1.390 . S
C2701 C2700 1.390 . S
C2701 C2702 1.394 . S
C2701 C2707 1.465 . S
C2702 C2697 1.399 . S
C2702 C2701 1.394 . S
C2702 C2703 1.516 . S
C2703 C2702 1.516 . S
C2703 C2704 1.502 . S
C2703 C2705 1.561 . S
C2703 C2706 1.526 . S
C2704 H2688 0.959 . S
C2704 H2689 0.959 . S
C2704 H2690 0.961 . S
C2704 C2703 1.502 . S
C2705 H2691 0.960 . S
C2705 H2692 0.961 . S
C2705 H2693 0.959 . S
C2705 C2703 1.561 . S
C2706 C2703 1.526 . S
C2706 C2707 1.396 . S
C2706 C2711 1.390 . S
C2707 C2701 1.465 . S
C2707 C2706 1.396 . S
C2707 C2708 1.399 . S
C2708 H2694 0.929 . S
C2708 C2707 1.399 . S
C2708 C2709 1.385 . S
C2709 H2695 0.931 . S
C2709 C2708 1.385 . S
C2709 C2710 1.389 . S
C2710 C2709 1.389 . S
C2710 C2711 1.387 . S
C2711 H2696 0.930 . S
C2711 C2706 1.390 . S
C2711 C2710 1.387 . S
C781 N13 1.165 . S
C793 C580 1.196 . S
C808 C637 1.203 . S
C820 N45 1.111 . S
C835 N82 1.112 . S
C847 C541 1.217 1_545 S
C862 N114 1.177 . S
C874 C548 1.195 1_565 S
C889 C708 1.204 . S
C901 N146 1.182 . S
C916 N173 1.196 . S
C928 C676 1.199 1_556 S
C943 C765 1.195 . S
C955 N205 1.174 . S
C970 N242 1.076 . S
C982 C644 1.211 1_554 S
C997 N269 1.104 . S
C1009 C420 1.218 . S
C1024 N301 1.171 . S
C1036 C509 1.195 1_655 S
C1051 C477 1.207 . S
C1063 N333 1.091 . S
C1078 N370 1.098 . S
C1090 C413 1.218 1_455 S
C1105 N402 1.186 . S
C1117 C196 1.211 . S
C1132 N429 1.190 . S
C1144 C253 1.209 . S
C1159 N466 1.066 . S
C1171 C157 1.209 1_565 S
C1186 C164 1.195 1_545 S
C1198 N498 1.138 . S
C1213 N530 1.143 . S
C1225 C324 1.195 . S
C1240 C292 1.206 1_554 S
C1252 N557 1.071 . S
C1267 C381 1.206 . S
C1279 N589 1.071 . S
C1294 C260 1.207 1_556 S
C1306 N626 1.193 . S
C1321 C36 1.219 . S
C1333 N653 1.123 . S
C1348 C125 1.219 1_455 S
C1360 N685 1.113 . S
C1375 C93 1.219 . S
C1387 N717 1.123 . S
C1402 N754 1.105 . S
C1414 C4 1.198 1_655 S
C1429 C130 1.767 . S
C1441 C29 1.746 . S
C1456 C166 1.766 . S
C1468 C61 1.746 . S
C1483 C198 1.767 . S
C1495 C68 1.746 . S
C1510 C226 1.712 . S
C1522 C100 1.783 . S
C1537 C132 1.747 . S
C1549 C262 1.765 . S
C1564 C189 1.781 . S
C1576 C354 1.716 . S
C1591 C221 1.760 . S
C1603 C294 1.748 . S
C1618 C228 1.782 . S
C1630 C326 1.714 . S
C1645 C285 1.775 . S
C1657 C6 1.722 . S
C1672 C317 1.747 . S
C1684 C66 1.765 . S
C1699 C349 1.777 . S
C1711 C98 1.720 . S
C1726 C38 1.748 . S
C1738 C356 1.760 . S
C1753 C514 1.745 . S
C1765 C388 1.752 . S
C1780 C550 1.756 . S
C1792 C445 1.763 . S
C1807 C452 1.783 . S
C1819 C582 1.716 . S
C1834 C484 1.783 . S
C1846 C610 1.717 . S
C1861 C646 1.711 . S
C1873 C516 1.781 . S
C1888 C573 1.783 . S
C1900 C738 1.717 . S
C1915 C678 1.711 . S
C1927 C605 1.780 . S
C1942 C612 1.772 . S
C1954 C710 1.743 . S
C1969 C386 1.713 . S
C1981 C669 1.782 . S
C1996 C701 1.757 . S
C2008 C450 1.735 . S
C2023 C733 1.780 . S
C2035 C482 1.712 . S
C2050 C422 1.719 . S
C2062 C740 1.783 . S
C2077 N18 1.493 . S
C2089 C290 1.581 1_554 S
C2104 C322 1.562 . S
C2116 N50 1.483 . S
C2131 C258 1.567 1_556 S
C2143 N77 1.522 . S
C2158 C358 1.508 . S
C2170 N109 1.552 . S
C2185 N141 1.522 . S
C2197 C102 1.524 1_455 S
C2212 C70 1.581 . S
C2224 N178 1.478 . S
C2239 N210 1.545 . S
C2251 C34 1.547 . S
C2266 C2 1.580 1_655 S
C2278 N237 1.477 . S
C2293 N274 1.525 . S
C2305 C162 1.564 1_545 S
C2320 N306 1.538 . S
C2332 C230 1.554 . S
C2347 N338 1.557 . S
C2359 C194 1.533 . S
C2374 N365 1.476 . S
C2386 C134 1.580 1_565 S
C2401 N397 1.553 . S
C2413 C674 1.518 1_556 S
C2428 N434 1.559 . S
C2440 C706 1.514 . S
C2455 C642 1.565 1_554 S
C2467 N461 1.500 . S
C2482 C742 1.570 . S
C2494 N493 1.492 . S
C2509 N525 1.525 . S
C2521 C486 1.543 1_655 S
C2536 N562 1.475 . S
C2548 C454 1.583 . S
C2563 C418 1.575 . S
C2575 N594 1.487 . S
C2590 N621 1.552 . S
C2602 C390 1.520 1_455 S
C2617 N658 1.524 . S
C2629 C546 1.544 1_565 S
C2644 C614 1.582 . S
C2656 N690 1.479 . S
C2671 N722 1.523 . S
C2683 C578 1.543 . S
C2698 N749 1.480 . S
C2710 C518 1.579 1_545 S
