# Generated by pormake.
# Topology svo, (7)-cn, num edge types: 1
# Building blocks:
#     Node 0, Type 0, BuildingBlock: HICVOG_clean_sbu_0, # of connection points: 7
#     Node 1, Type 0, BuildingBlock: HICVOG_clean_sbu_0, # of connection points: 7
#     Node 2, Type 0, BuildingBlock: HICVOG_clean_sbu_0, # of connection points: 7
#     Node 3, Type 0, BuildingBlock: HICVOG_clean_sbu_0, # of connection points: 7
#     Node 4, Type 0, BuildingBlock: HICVOG_clean_sbu_0, # of connection points: 7
#     Node 5, Type 0, BuildingBlock: HICVOG_clean_sbu_0, # of connection points: 7
#     Node 6, Type 0, BuildingBlock: HICVOG_clean_sbu_0, # of connection points: 7
#     Node 7, Type 0, BuildingBlock: HICVOG_clean_sbu_0, # of connection points: 7
#     Node 8, Type 0, BuildingBlock: HICVOG_clean_sbu_0, # of connection points: 7
#     Node 9, Type 0, BuildingBlock: HICVOG_clean_sbu_0, # of connection points: 7
#     Node 10, Type 0, BuildingBlock: HICVOG_clean_sbu_0, # of connection points: 7
#     Node 11, Type 0, BuildingBlock: HICVOG_clean_sbu_0, # of connection points: 7
#     Node 12, Type 0, BuildingBlock: HICVOG_clean_sbu_0, # of connection points: 7
#     Node 13, Type 0, BuildingBlock: HICVOG_clean_sbu_0, # of connection points: 7
#     Node 14, Type 0, BuildingBlock: HICVOG_clean_sbu_0, # of connection points: 7
#     Node 15, Type 0, BuildingBlock: HICVOG_clean_sbu_0, # of connection points: 7
#     Edge 16, Type (0, 0), None
#     Edge 17, Type (0, 0), None
#     Edge 18, Type (0, 0), None
#     Edge 19, Type (0, 0), None
#     Edge 20, Type (0, 0), None
#     Edge 21, Type (0, 0), None
#     Edge 22, Type (0, 0), None
#     Edge 23, Type (0, 0), None
#     Edge 24, Type (0, 0), None
#     Edge 25, Type (0, 0), None
#     Edge 26, Type (0, 0), None
#     Edge 27, Type (0, 0), None
#     Edge 28, Type (0, 0), None
#     Edge 29, Type (0, 0), None
#     Edge 30, Type (0, 0), None
#     Edge 31, Type (0, 0), None
#     Edge 32, Type (0, 0), None
#     Edge 33, Type (0, 0), None
#     Edge 34, Type (0, 0), None
#     Edge 35, Type (0, 0), None
#     Edge 36, Type (0, 0), None
#     Edge 37, Type (0, 0), None
#     Edge 38, Type (0, 0), None
#     Edge 39, Type (0, 0), None
#     Edge 40, Type (0, 0), None
#     Edge 41, Type (0, 0), None
#     Edge 42, Type (0, 0), None
#     Edge 43, Type (0, 0), None
#     Edge 44, Type (0, 0), None
#     Edge 45, Type (0, 0), None
#     Edge 46, Type (0, 0), None
#     Edge 47, Type (0, 0), None
#     Edge 48, Type (0, 0), None
#     Edge 49, Type (0, 0), None
#     Edge 50, Type (0, 0), None
#     Edge 51, Type (0, 0), None
#     Edge 52, Type (0, 0), None
#     Edge 53, Type (0, 0), None
#     Edge 54, Type (0, 0), None
#     Edge 55, Type (0, 0), None
#     Edge 56, Type (0, 0), None
#     Edge 57, Type (0, 0), None
#     Edge 58, Type (0, 0), None
#     Edge 59, Type (0, 0), None
#     Edge 60, Type (0, 0), None
#     Edge 61, Type (0, 0), None
#     Edge 62, Type (0, 0), None
#     Edge 63, Type (0, 0), None
#     Edge 64, Type (0, 0), None
#     Edge 65, Type (0, 0), None
#     Edge 66, Type (0, 0), None
#     Edge 67, Type (0, 0), None
#     Edge 68, Type (0, 0), None
#     Edge 69, Type (0, 0), None
#     Edge 70, Type (0, 0), None
#     Edge 71, Type (0, 0), None
# Relax obj value: 0.224
# Max RMSD: 0.240
# Mean RMSD: 0.240
data_MOF--net-svo--node1-HICVOG_clean_sbu_0--edge1-none
_symmetry_space_group_name_H-M    P1
_symmetry_Int_Tables_number       1
_symmetry_cell_setting            triclinic
loop_
_symmetry_equiv_pos_as_xyz
'x, y, z'
_cell_length_a     14.134439
_cell_length_b     14.135482
_cell_length_c     48.840111
_cell_angle_alpha  89.943139
_cell_angle_beta   89.959669
_cell_angle_gamma 89.995216
loop_
_atom_site_label
_atom_site_type_symbol
_atom_site_fract_x
_atom_site_fract_y
_atom_site_fract_z
_atom_type_partial_charge
Zn0 Zn 0.20288 0.29114 0.15157 0.0
C1 C 0.03673 0.48158 0.12411 0.0
N2 N 0.96585 0.42421 0.13209 0.0
C3 C 1.00947 0.33975 0.13527 0.0
N4 N 0.10257 0.34633 0.12987 0.0
N5 N 0.11874 0.43381 0.12177 0.0
C6 C 0.30064 0.60528 0.11148 0.0
O7 O 0.30379 0.54775 0.13259 0.0
O8 O 0.21544 0.14911 0.15277 0.0
Zn9 Zn 0.20317 0.44841 0.09105 0.0
N10 N 0.19578 0.33013 0.18929 0.0
C11 C 0.16229 0.44145 0.22433 0.0
C12 C 0.15893 0.41479 0.19686 0.0
C13 C 0.2365 0.27141 0.20796 0.0
N14 N 0.20165 0.38216 0.24311 0.0
C15 C 0.23924 0.29721 0.23568 0.0
O16 O 0.31596 0.35828 0.09331 0.0
C17 C 0.36409 0.33462 0.11432 0.0
O18 O 0.32989 0.33598 0.13838 0.0
H19 H 0.12873 0.46165 0.18169 0.0
H20 H 0.26716 0.20542 0.20113 0.0
C21 C 0.16962 0.44712 0.03283 0.0
C22 C 0.11796 0.42989 0.00865 0.0
C23 C 0.98974 0.37375 0.03538 0.0
C24 C 0.0418 0.38935 0.05916 0.0
N25 N 0.13077 0.42579 0.05755 0.0
N26 N 1.02906 0.3937 0.01072 0.0
H27 H 0.24066 0.47556 0.03213 0.0
C28 C 0.25086 0.11062 0.13179 0.0
O29 O 0.23956 0.15358 0.10818 0.0
O30 O 0.25728 0.57966 0.09002 0.0
H31 H 1.0111 0.37185 0.07864 0.0
H32 H 0.13425 0.50905 0.23061 0.0
H33 H 0.91887 0.3451 0.0365 0.0
Zn34 Zn 0.77496 0.20378 0.15145 0.0
C35 C 0.58477 0.03768 0.12415 0.0
N36 N 0.64206 0.96687 0.13222 0.0
C37 C 0.72655 1.01043 0.13531 0.0
N38 N 0.72009 0.10342 0.12977 0.0
N39 N 0.63265 0.11959 0.12167 0.0
C40 C 0.46134 0.30139 0.11127 0.0
O41 O 0.51871 0.30448 0.13239 0.0
O42 O 0.917 0.21661 0.15262 0.0
Zn43 Zn 0.61837 0.20394 0.0909 0.0
N44 N 0.73566 0.19662 0.18916 0.0
C45 C 0.6238 0.16396 0.22418 0.0
C46 C 0.6507 0.16032 0.19672 0.0
C47 C 0.79445 0.23704 0.20782 0.0
N48 N 0.68316 0.20305 0.24296 0.0
C49 C 0.7684 0.24008 0.23553 0.0
O50 O 0.70854 0.31678 0.09317 0.0
C51 C 0.73183 0.36486 0.11421 0.0
O52 O 0.72984 0.33064 0.13827 0.0
H53 H 0.60377 0.13041 0.18155 0.0
H54 H 0.86067 0.2673 0.201 0.0
C55 C 0.62108 0.17031 0.03266 0.0
C56 C 0.63851 0.11841 0.00854 0.0
C57 C 0.69278 0.98979 0.03541 0.0
C58 C 0.67697 0.04206 0.05914 0.0
N59 N 0.64136 0.13134 0.05744 0.0
N60 N 0.67385 1.0292 0.0107 0.0
H61 H 0.59327 0.24159 0.03189 0.0
C62 C 0.95582 0.25184 0.13164 0.0
O63 O 0.91325 0.24057 0.10799 0.0
O64 O 0.48712 0.25807 0.08981 0.0
H65 H 0.69365 1.01123 0.07866 0.0
H66 H 0.55595 0.13637 0.23047 0.0
H67 H 0.72076 0.91867 0.03661 0.0
Zn68 Zn 0.86281 0.61945 0.09108 0.0
C69 C 0.05609 0.72738 0.13547 0.0
N70 N 0.09969 0.64293 0.13226 0.0
C71 C 1.02887 0.58575 0.12421 0.0
N72 N 0.94699 0.63368 0.12184 0.0
N73 N 0.96304 0.72106 0.13 0.0
C74 C 0.81441 0.95662 0.13173 0.0
O75 O 0.82579 0.91395 0.1081 0.0
O76 O 0.80888 0.48808 0.08985 0.0
Zn77 Zn 0.86248 0.77585 0.15167 0.0
N78 N 0.93568 0.64295 0.05767 0.0
C79 C 0.07674 0.6968 0.0358 0.0
C80 C 1.02407 0.68064 0.05946 0.0
C81 C 0.89799 0.62091 0.03288 0.0
N82 N 0.03857 0.67612 0.01107 0.0
C83 C 0.95026 0.63868 0.00882 0.0
O84 O 0.73578 0.73036 0.13853 0.0
C85 C 0.70169 0.73257 0.11448 0.0
O86 O 0.74989 0.70946 0.09341 0.0
H87 H 0.05385 0.69864 0.07899 0.0
H88 H 0.82739 0.59144 0.03204 0.0
C89 C 0.82829 0.7957 0.20798 0.0
C90 C 0.82499 0.77 0.23572 0.0
C91 C 0.90236 0.6258 0.22461 0.0
C92 C 0.90624 0.65237 0.19712 0.0
N93 N 0.86944 0.73697 0.18942 0.0
N94 N 0.86254 0.68513 0.24328 0.0
H95 H 0.79764 0.8616 0.20105 0.0
C96 C 0.76508 0.46215 0.11124 0.0
O97 O 0.76148 0.5194 0.13237 0.0
O98 O 0.84944 0.91786 0.15273 0.0
H99 H 0.93673 0.60546 0.18201 0.0
H100 H 0.14716 0.72646 0.03706 0.0
H101 H 0.93028 0.55821 0.23099 0.0
Zn102 Zn 0.4474 0.86361 0.09122 0.0
C103 C 0.33882 0.05698 0.1354 0.0
N104 N 0.42326 0.10066 0.1322 0.0
C105 C 0.4806 1.0298 0.12424 0.0
N106 N 0.43278 0.94786 0.12194 0.0
N107 N 0.34529 0.96386 0.13005 0.0
C108 C 0.10988 0.8153 0.13192 0.0
O109 O 0.15281 0.82673 0.10831 0.0
O110 O 0.57869 0.80961 0.09009 0.0
Zn111 Zn 0.2904 0.86332 0.15177 0.0
N112 N 0.4246 0.93627 0.05776 0.0
C113 C 0.37218 0.07738 0.03565 0.0
C114 C 0.38765 1.02501 0.0594 0.0
C115 C 0.44651 0.89792 0.03304 0.0
N116 N 0.39276 0.03857 0.01098 0.0
C117 C 0.42943 0.94989 0.00889 0.0
O118 O 0.33561 0.73649 0.13859 0.0
C119 C 0.33393 0.70249 0.11452 0.0
O120 O 0.35733 0.75079 0.09349 0.0
H121 H 0.3697 0.0553 0.07887 0.0
H122 H 0.47538 0.82705 0.03232 0.0
C123 C 0.27062 0.82892 0.2081 0.0
C124 C 0.29621 0.82591 0.23584 0.0
C125 C 0.44008 0.90388 0.22466 0.0
C126 C 0.41362 0.9075 0.19717 0.0
N127 N 0.32924 0.87026 0.1895 0.0
N128 N 0.38086 0.8639 0.24336 0.0
H129 H 0.20488 0.79797 0.20119 0.0
C130 C 0.60446 0.76591 0.11151 0.0
O131 O 0.54707 0.76243 0.13264 0.0
O132 O 0.14838 0.8504 0.15292 0.0
H133 H 0.46043 0.93818 0.18205 0.0
H134 H 0.34315 0.14809 0.03678 0.0
H135 H 0.50748 0.93218 0.23101 0.0
Zn136 Zn 0.19781 0.7839 0.34093 0.0
C137 C 0.03538 0.58578 0.3725 0.0
N138 N 0.96244 0.64467 0.36783 0.0
C139 C 1.00526 0.72771 0.36189 0.0
N140 N 0.1002 0.71916 0.36224 0.0
N141 N 0.11866 0.63213 0.37045 0.0
C142 C 0.29776 0.46709 0.37806 0.0
O143 O 0.29403 0.52343 0.35669 0.0
O144 O 0.20825 0.92642 0.3429 0.0
Zn145 Zn 0.2082 0.62412 0.39987 0.0
N146 N 0.18408 0.75468 0.30267 0.0
C147 C 0.10816 0.6736 0.26632 0.0
C148 C 0.11729 0.69243 0.29414 0.0
C149 C 0.24307 0.79825 0.28455 0.0
N150 N 0.16604 0.71774 0.24813 0.0
C151 C 0.23391 0.77989 0.25641 0.0
O152 O 0.32023 0.70973 0.3961 0.0
C153 C 0.36661 0.73527 0.37512 0.0
O154 O 0.32946 0.74048 0.35145 0.0
H155 H 0.07161 0.65765 0.30877 0.0
H156 H 0.29564 0.84743 0.29209 0.0
C157 C 0.15956 0.61893 0.45786 0.0
C158 C 0.1183 0.65664 0.48178 0.0
C159 C 0.04521 0.77626 0.45512 0.0
C160 C 0.08884 0.74079 0.43173 0.0
N161 N 0.14423 0.66228 0.43339 0.0
N162 N 0.06159 0.73407 0.47958 0.0
H163 H 0.20635 0.55839 0.45872 0.0
C164 C 0.24575 0.95654 0.36472 0.0
O165 O 0.23409 0.9057 0.38698 0.0
O166 O 0.26238 0.49392 0.40072 0.0
H167 H 0.08053 0.77738 0.41255 0.0
H168 H 0.05581 0.62379 0.25932 0.0
H169 H 1.00069 0.83841 0.45397 0.0
Zn170 Zn 0.43985 0.21149 0.39964 0.0
C171 C 0.33576 1.0079 0.36244 0.0
N172 N 0.41875 0.96504 0.3684 0.0
C173 C 0.47781 0.03803 0.37276 0.0
N174 N 0.43156 0.12126 0.37045 0.0
N175 N 0.34438 0.10284 0.36242 0.0
C176 C 0.10768 0.24846 0.36501 0.0
O177 O 0.15919 0.23688 0.38712 0.0
O178 O 0.5699 0.26551 0.40029 0.0
Zn179 Zn 0.27968 0.20001 0.34091 0.0
N180 N 0.40148 0.1486 0.4333 0.0
C181 C 0.2849 0.05358 0.45539 0.0
C182 C 0.32084 0.09632 0.43191 0.0
C183 C 0.44685 0.16143 0.45757 0.0
N184 N 0.32913 0.06747 0.47966 0.0
C185 C 0.40896 0.12087 0.48159 0.0
O186 O 0.32328 0.33197 0.35107 0.0
C187 C 0.329 0.36959 0.37466 0.0
O188 O 0.3546 0.32352 0.39568 0.0
H189 H 0.28313 0.08971 0.41285 0.0
H190 H 0.5093 0.20566 0.45821 0.0
C191 C 0.2657 0.24423 0.28445 0.0
C192 C 0.28464 0.23488 0.25634 0.0
C193 C 0.39072 0.10917 0.26645 0.0
C194 C 0.37131 0.11848 0.29424 0.0
N195 N 0.30889 0.18536 0.30266 0.0
N196 N 0.34697 0.16695 0.24817 0.0
H197 H 0.21649 0.29696 0.29191 0.0
C198 C 0.5968 0.30037 0.37756 0.0
O199 O 0.54064 0.29608 0.35619 0.0
O200 O 0.13715 0.21087 0.34311 0.0
H201 H 0.40587 0.07297 0.30895 0.0
H202 H 0.22098 1.0116 0.45447 0.0
H203 H 0.44078 0.05687 0.25955 0.0
Zn204 Zn 0.86472 0.28141 0.34075 0.0
C205 C 1.02538 0.48064 0.37276 0.0
N206 N 0.09869 0.42144 0.36901 0.0
C207 C 0.05622 0.33845 0.3629 0.0
N208 N 0.96133 0.34728 0.36217 0.0
N209 N 0.94226 0.43447 0.37007 0.0
C210 C 0.76355 0.59918 0.3778 0.0
O211 O 0.76724 0.5429 0.35644 0.0
O212 O 0.85382 0.13887 0.34321 0.0
Zn213 Zn 0.85228 0.44196 0.39938 0.0
N214 N 0.88 0.30981 0.30247 0.0
C215 C 0.95709 0.39067 0.2662 0.0
C216 C 0.9474 0.37165 0.29401 0.0
C217 C 0.82103 0.26678 0.28429 0.0
N218 N 0.89921 0.34709 0.24796 0.0
C219 C 0.8308 0.28531 0.25616 0.0
O220 O 0.73981 0.35786 0.39516 0.0
C221 C 0.69427 0.33159 0.37415 0.0
O222 O 0.73243 0.32494 0.35064 0.0
H223 H 0.993 0.40606 0.3087 0.0
H224 H 0.76789 0.21803 0.29179 0.0
C225 C 0.90505 0.44701 0.4572 0.0
C226 C 0.94505 0.40729 0.48104 0.0
C227 C 1.00552 0.28044 0.45454 0.0
C228 C 0.96337 0.31835 0.43125 0.0
N229 N 0.91474 0.4012 0.43287 0.0
N230 N 0.99475 0.32517 0.47887 0.0
H231 H 0.8637 0.51139 0.45803 0.0
C232 C 0.8151 0.11007 0.36504 0.0
O233 O 0.82591 0.16203 0.38708 0.0
O234 O 0.79891 0.57229 0.40045 0.0
H235 H 0.96754 0.28052 0.41214 0.0
H236 H 1.00976 0.44031 0.25926 0.0
H237 H 0.04458 0.21473 0.45344 0.0
Zn238 Zn 0.78213 0.86714 0.34077 0.0
C239 C 0.58295 1.02794 0.37284 0.0
N240 N 0.64211 0.10119 0.36892 0.0
C241 C 0.72508 0.0587 0.36276 0.0
N242 N 0.71625 0.9638 0.36217 0.0
N243 N 0.62913 0.94478 0.3702 0.0
C244 C 0.46419 0.76623 0.37855 0.0
O245 O 0.5208 0.76878 0.35724 0.0
O246 O 0.92467 0.85708 0.34291 0.0
Zn247 Zn 0.62185 0.85503 0.39964 0.0
N248 N 0.75358 0.88183 0.30251 0.0
C249 C 0.67357 0.9588 0.2661 0.0
C250 C 0.69197 0.94923 0.29394 0.0
C251 C 0.79699 0.82276 0.28442 0.0
N252 N 0.71754 0.90081 0.24794 0.0
C253 C 0.77911 0.8324 0.25626 0.0
O254 O 0.70531 0.74204 0.39533 0.0
C255 C 0.7324 0.69665 0.37437 0.0
O256 O 0.73951 0.73479 0.35086 0.0
H257 H 0.65738 0.99501 0.30856 0.0
H258 H 0.84567 0.76974 0.292 0.0
C259 C 0.61945 0.90683 0.45748 0.0
C260 C 0.66012 0.9464 0.48123 0.0
C261 C 0.78522 1.00843 0.45428 0.0
C262 C 0.74647 0.96658 0.43108 0.0
N263 N 0.66396 0.91747 0.43296 0.0
N264 N 0.74178 0.99672 0.47879 0.0
H265 H 0.55544 0.86497 0.45852 0.0
C266 C 0.95396 0.81767 0.36457 0.0
O267 O 0.90251 0.82763 0.38677 0.0
O268 O 0.49104 0.80234 0.4011 0.0
H269 H 0.7835 0.97126 0.41184 0.0
H270 H 0.62419 1.01155 0.25907 0.0
H271 H 0.85064 0.04791 0.45296 0.0
Zn272 Zn 0.94457 0.71189 0.89967 0.0
C273 C 0.84131 0.50869 0.86224 0.0
N274 N 0.92434 0.46601 0.86825 0.0
C275 C 0.98331 0.53907 0.87262 0.0
N276 N 0.93693 0.62222 0.8703 0.0
N277 N 0.84982 0.60365 0.86223 0.0
C278 C 0.6128 0.74947 0.86495 0.0
O279 O 0.66425 0.73797 0.88707 0.0
O280 O 0.07489 0.76557 0.9007 0.0
Zn281 Zn 0.78481 0.70086 0.84082 0.0
N282 N 0.90456 0.64864 0.93314 0.0
C283 C 0.78663 0.5539 0.95474 0.0
C284 C 0.82374 0.59674 0.93143 0.0
C285 C 0.94885 0.66113 0.95759 0.0
N286 N 0.8298 0.56744 0.97918 0.0
C287 C 0.9097 0.62057 0.98144 0.0
O288 O 0.82845 0.83274 0.85101 0.0
C289 C 0.83415 0.8703 0.87461 0.0
O290 O 0.85987 0.82426 0.89562 0.0
H291 H 0.78673 0.59058 0.91225 0.0
H292 H 1.01141 0.70515 0.9585 0.0
C293 C 0.77029 0.74539 0.78439 0.0
C294 C 0.78872 0.73601 0.75625 0.0
C295 C 0.89451 0.60991 0.76621 0.0
C296 C 0.87562 0.61927 0.79403 0.0
N297 N 0.8136 0.68636 0.80254 0.0
N298 N 0.85066 0.66787 0.748 0.0
H299 H 0.72135 0.79825 0.79192 0.0
C300 C 0.10188 0.80109 0.87805 0.0
O301 O 0.04569 0.79751 0.85668 0.0
O302 O 0.64228 0.71172 0.84307 0.0
H303 H 0.91023 0.57359 0.80868 0.0
H304 H 0.72258 0.51218 0.95355 0.0
H305 H 0.94422 0.5574 0.75923 0.0
Zn306 Zn 0.36967 0.78293 0.84106 0.0
C307 C 0.53092 0.98155 0.87297 0.0
N308 N 0.60405 0.92243 0.86883 0.0
C309 C 0.56139 0.8395 0.86279 0.0
N310 N 0.46648 0.84828 0.86247 0.0
N311 N 0.44768 0.93539 0.87049 0.0
C312 C 0.26881 0.10033 0.87805 0.0
O313 O 0.2726 0.04404 0.85671 0.0
O314 O 0.35928 0.64038 0.84326 0.0
Zn315 Zn 0.35744 0.94305 0.89976 0.0
N316 N 0.38454 0.81201 0.80283 0.0
C317 C 0.46091 0.89354 0.76656 0.0
C318 C 0.45149 0.87432 0.79437 0.0
C319 C 0.32573 0.76872 0.78466 0.0
N320 N 0.40318 0.8497 0.74832 0.0
C321 C 0.33519 0.78746 0.75654 0.0
O322 O 0.24502 0.85856 0.89566 0.0
C323 C 0.1994 0.83229 0.87467 0.0
O324 O 0.23741 0.82599 0.85113 0.0
H325 H 0.49698 0.90892 0.80905 0.0
H326 H 0.27296 0.71958 0.79216 0.0
C327 C 0.40759 0.9478 0.95766 0.0
C328 C 0.44744 0.90863 0.98159 0.0
C329 C 0.51315 0.78441 0.9551 0.0
C330 C 0.47105 0.82162 0.93171 0.0
N331 N 0.41993 0.90298 0.93329 0.0
N332 N 0.49974 0.82812 0.97948 0.0
H333 H 0.3642 1.01083 0.95845 0.0
C334 C 0.32069 0.61101 0.86505 0.0
O335 O 0.33148 0.66249 0.88719 0.0
O336 O 0.30394 0.07339 0.90074 0.0
H337 H 0.47716 0.7843 0.91257 0.0
H338 H 0.51326 0.94353 0.75962 0.0
H339 H 0.5542 0.7199 0.95404 0.0
Zn340 Zn 0.28757 0.36786 0.84092 0.0
C341 C 0.08847 0.52908 0.87269 0.0
N342 N 0.14762 0.60228 0.86866 0.0
C343 C 0.2307 0.55967 0.86266 0.0
N344 N 0.22197 0.46475 0.86229 0.0
N345 N 0.13474 0.4459 0.87024 0.0
C346 C 0.96987 0.2671 0.87778 0.0
O347 O 1.02634 0.27095 0.85644 0.0
O348 O 0.43014 0.35731 0.84315 0.0
Zn349 Zn 0.12679 0.35594 0.89958 0.0
N350 N 0.25878 0.38253 0.80266 0.0
C351 C 0.1775 0.45899 0.76639 0.0
C352 C 0.19661 0.44958 0.79419 0.0
C353 C 0.30203 0.32361 0.7845 0.0
N354 N 0.22134 0.40118 0.74815 0.0
C355 C 0.28343 0.33309 0.75637 0.0
O356 O 0.21147 0.24364 0.89558 0.0
C357 C 0.23778 0.19786 0.87461 0.0
O358 O 0.2443 0.23572 0.85105 0.0
H359 H 0.16203 0.49516 0.80887 0.0
H360 H 0.35108 0.27077 0.79199 0.0
C361 C 0.12092 0.40704 0.95745 0.0
C362 C 0.15978 0.4472 0.98136 0.0
C363 C 0.28478 0.5119 0.9549 0.0
C364 C 0.24788 0.46949 0.93154 0.0
N365 N 0.16629 0.41873 0.9331 0.0
N366 N 0.24053 0.49914 0.97925 0.0
H367 H 0.0577 0.36394 0.95824 0.0
C368 C 0.4593 0.31889 0.86498 0.0
O369 O 0.40767 0.32998 0.88709 0.0
O370 O 0.99654 0.30228 0.90046 0.0
H371 H 0.2856 0.47507 0.91243 0.0
H372 H 0.12764 0.51143 0.75944 0.0
H373 H 0.34946 0.55269 0.95384 0.0
Zn374 Zn 0.7024 0.28556 0.84068 0.0
C375 C 0.54107 0.08669 0.87285 0.0
N376 N 0.4679 0.1459 0.86889 0.0
C377 C 0.51053 0.22878 0.86268 0.0
N378 N 0.60544 0.21984 0.8621 0.0
N379 N 0.6243 0.13274 0.87017 0.0
C380 C 0.80312 0.96784 0.87801 0.0
O381 O 0.7998 1.02424 0.85665 0.0
O382 O 0.71272 0.42806 0.84293 0.0
Zn383 Zn 0.71419 0.12515 0.89949 0.0
N384 N 0.6879 0.25715 0.80238 0.0
C385 C 0.61121 0.17676 0.76603 0.0
C386 C 0.62062 0.1954 0.79386 0.0
C387 C 0.74701 0.30047 0.78425 0.0
N388 N 0.66923 0.22064 0.74783 0.0
C389 C 0.73753 0.28235 0.75609 0.0
O390 O 0.82668 0.20936 0.8953 0.0
C391 C 0.87244 0.23588 0.87433 0.0
O392 O 0.83461 0.24249 0.85078 0.0
H393 H 0.57484 0.16084 0.80851 0.0
H394 H 0.79999 0.34923 0.79178 0.0
C395 C 0.66227 0.12058 0.95735 0.0
C396 C 0.62226 0.16023 0.98119 0.0
C397 C 0.5596 0.28578 0.95456 0.0
C398 C 0.60183 0.24802 0.93126 0.0
N399 N 0.65151 0.1658 0.93295 0.0
N400 N 0.57144 0.24165 0.97896 0.0
H401 H 0.70452 0.05679 0.95823 0.0
C402 C 0.75135 0.45728 0.8647 0.0
O403 O 0.74075 0.4057 0.88686 0.0
O404 O 0.76755 0.99471 0.90065 0.0
H405 H 0.59696 0.28553 0.9121 0.0
H406 H 0.55859 0.12724 0.75904 0.0
H407 H 0.51969 0.35098 0.9534 0.0
Zn408 Zn 0.95118 0.36541 0.59082 0.0
C409 C 0.84289 0.55878 0.6352 0.0
N410 N 0.92747 0.60226 0.63213 0.0
C411 C 0.98469 0.53146 0.62405 0.0
N412 N 0.93662 0.44972 0.62154 0.0
N413 N 0.84914 0.4658 0.62965 0.0
C414 C 0.61348 0.31774 0.63163 0.0
O415 O 0.65633 0.32912 0.60801 0.0
O416 O 0.08239 0.31125 0.58983 0.0
Zn417 Zn 0.79418 0.36538 0.65141 0.0
N418 N 0.92843 0.43792 0.55728 0.0
C419 C 0.87795 0.57959 0.53508 0.0
C420 C 0.89387 0.52763 0.55889 0.0
C421 C 0.94759 0.39825 0.53254 0.0
N422 N 0.89573 0.53949 0.51041 0.0
C423 C 0.93003 0.44986 0.50834 0.0
O424 O 0.83889 0.23845 0.6382 0.0
C425 C 0.83742 0.20437 0.61414 0.0
O426 O 0.86103 0.25257 0.59311 0.0
H427 H 0.87805 0.55903 0.57838 0.0
H428 H 0.97452 0.32663 0.53185 0.0
C429 C 0.77434 0.33121 0.70777 0.0
C430 C 0.80003 0.32801 0.7355 0.0
C431 C 0.94438 0.40501 0.72427 0.0
C432 C 0.91783 0.40881 0.69679 0.0
N433 N 0.83317 0.37215 0.68915 0.0
N434 N 0.88498 0.36542 0.74299 0.0
H435 H 0.70837 0.30069 0.70088 0.0
C436 C 0.10793 0.26793 0.61134 0.0
O437 O 0.05035 0.26486 0.63243 0.0
O438 O 0.65213 0.35298 0.6526 0.0
H439 H 0.96479 0.43916 0.68165 0.0
H440 H 0.85078 0.65104 0.53619 0.0
H441 H 1.012 0.43288 0.7306 0.0
Zn442 Zn 0.70684 0.79341 0.65154 0.0
C443 C 0.54057 0.9838 0.62424 0.0
N444 N 0.46978 0.92655 0.63236 0.0
C445 C 0.51333 0.84204 0.6355 0.0
N446 N 0.60631 0.84848 0.62993 0.0
N447 N 0.62247 0.93591 0.62177 0.0
C448 C 0.8042 0.10711 0.61113 0.0
O449 O 0.80744 0.04972 0.63226 0.0
O450 O 0.72 0.65141 0.65257 0.0
Zn451 Zn 0.70654 0.95007 0.59092 0.0
N452 N 0.69961 0.8319 0.6893 0.0
C453 C 0.66576 0.94266 0.72447 0.0
C454 C 0.66249 0.91636 0.69697 0.0
C455 C 0.74048 0.77305 0.70791 0.0
N456 N 0.7053 0.88324 0.74318 0.0
C457 C 0.74315 0.7985 0.73566 0.0
O458 O 0.81947 0.85989 0.59322 0.0
C459 C 0.86763 0.8368 0.61429 0.0
O460 O 0.83351 0.83918 0.63835 0.0
H461 H 0.63218 0.96334 0.68185 0.0
H462 H 0.77132 0.70725 0.701 0.0
C463 C 0.67166 0.94748 0.53268 0.0
C464 C 0.61911 0.93008 0.50868 0.0
C465 C 0.49134 0.87544 0.53583 0.0
C466 C 0.54426 0.89117 0.55944 0.0
N467 N 0.63341 0.92699 0.55755 0.0
N468 N 0.53002 0.89459 0.51104 0.0
H469 H 0.74286 0.97546 0.53175 0.0
C470 C 0.75517 0.61277 0.63158 0.0
O471 O 0.74399 0.65557 0.60794 0.0
O472 O 0.76069 0.08137 0.5897 0.0
H473 H 0.51399 0.87429 0.57901 0.0
H474 H 0.63755 1.01011 0.73083 0.0
H475 H 0.4203 0.84732 0.53719 0.0
Zn476 Zn 0.27896 0.70569 0.65187 0.0
C477 C 0.08888 0.53931 0.62405 0.0
N478 N 0.14621 0.46834 0.63197 0.0
C479 C 0.23046 0.51207 0.63544 0.0
N480 N 0.22377 0.60532 0.63024 0.0
N481 N 0.13647 0.62151 0.62202 0.0
C482 C 0.96494 0.80352 0.61135 0.0
O483 O 1.02215 0.80707 0.6325 0.0
O484 O 0.421 0.71883 0.65291 0.0
Zn485 Zn 0.12247 0.70604 0.59129 0.0
N486 N 0.2401 0.6983 0.68959 0.0
C487 C 0.1288 0.66473 0.72469 0.0
C488 C 0.15548 0.66134 0.69721 0.0
C489 C 0.29876 0.73913 0.70821 0.0
N490 N 0.18804 0.70422 0.74343 0.0
C491 C 0.27294 0.74191 0.73594 0.0
O492 O 0.21232 0.81889 0.59369 0.0
C493 C 0.23546 0.86691 0.61475 0.0
O494 O 0.23345 0.83261 0.6388 0.0
H495 H 0.10866 0.6311 0.68206 0.0
H496 H 0.36469 0.76989 0.70134 0.0
C497 C 0.1213 0.66966 0.53317 0.0
C498 C 0.13958 0.61748 0.50915 0.0
C499 C 0.20448 0.49417 0.53612 0.0
C500 C 0.18782 0.54683 0.55972 0.0
N501 N 0.14648 0.63355 0.55792 0.0
N502 N 0.18066 0.5308 0.51141 0.0
H503 H 0.08898 0.73901 0.53231 0.0
C504 C 0.4595 0.7542 0.6319 0.0
O505 O 0.41663 0.74302 0.6083 0.0
O506 O 0.99099 0.75985 0.58997 0.0
H507 H 0.20832 0.51845 0.57922 0.0
H508 H 0.06121 0.63668 0.73101 0.0
H509 H 0.23705 0.42504 0.5374 0.0
Zn510 Zn 0.36621 0.12112 0.59124 0.0
C511 C 0.55987 0.22977 0.63525 0.0
N512 N 0.60358 0.14535 0.63208 0.0
C513 C 0.53268 0.08798 0.62419 0.0
N514 N 0.45072 0.1358 0.62188 0.0
N515 N 0.46671 0.2233 0.62993 0.0
C516 C 0.3187 0.4587 0.63197 0.0
O517 O 0.33049 0.41587 0.60838 0.0
O518 O 0.31219 0.98993 0.59028 0.0
Zn519 Zn 0.3663 0.27806 0.65172 0.0
N520 N 0.43835 0.14383 0.55769 0.0
C521 C 0.57875 0.19677 0.53529 0.0
C522 C 0.52701 0.18103 0.55915 0.0
C523 C 0.39949 0.12183 0.53305 0.0
N524 N 0.53941 0.17614 0.5107 0.0
C525 C 0.45081 0.13914 0.5088 0.0
O526 O 0.23924 0.23364 0.63851 0.0
C527 C 0.20517 0.23478 0.61444 0.0
O528 O 0.25345 0.21114 0.59345 0.0
H529 H 0.55769 0.19901 0.57858 0.0
H530 H 0.32869 0.09277 0.53248 0.0
C531 C 0.33231 0.29699 0.70805 0.0
C532 C 0.32901 0.27084 0.73575 0.0
C533 C 0.40567 0.12648 0.72441 0.0
C534 C 0.40958 0.1535 0.69696 0.0
N535 N 0.37314 0.23839 0.68939 0.0
N536 N 0.3662 0.18568 0.74318 0.0
H537 H 0.30194 0.36314 0.70123 0.0
C538 C 0.26883 0.96412 0.61175 0.0
O539 O 0.26561 1.02145 0.63288 0.0
O540 O 0.3537 0.42013 0.653 0.0
H541 H 0.43983 0.10672 0.68178 0.0
H542 H 0.64938 0.22606 0.53628 0.0
H543 H 0.43337 0.05869 0.73069 0.0
loop_
_geom_bond_atom_site_label_1
_geom_bond_atom_site_label_2
_geom_bond_distance
_geom_bond_site_symmetry_2
_ccdc_geom_bond_type
Zn0 N4 2.020 . S
Zn0 O8 2.019 . S
Zn0 N10 2.119 . S
Zn0 O18 1.975 . S
C1 N2 1.334 . S
C1 N5 1.336 1_655 S
N2 C1 1.334 . S
N2 C3 1.334 . S
C3 N2 1.334 . S
C3 N4 1.336 1_655 S
N4 Zn0 2.020 . S
N4 C3 1.336 1_455 S
N4 N5 1.354 . S
N5 C1 1.336 1_455 S
N5 N4 1.354 . S
N5 Zn9 2.020 . S
C6 O7 1.244 . S
C6 O30 1.257 . S
O7 C6 1.244 . S
O8 Zn0 2.019 . S
O8 C28 1.257 . S
Zn9 N5 2.020 . S
Zn9 O16 1.975 . S
Zn9 N25 2.119 . S
Zn9 O30 2.019 . S
N10 Zn0 2.119 . S
N10 C12 1.334 . S
N10 C13 1.328 . S
C11 C12 1.391 . S
C11 N14 1.329 . S
C11 H32 0.930 . S
C12 N10 1.334 . S
C12 C11 1.391 . S
C12 H19 0.930 . S
C13 N10 1.328 . S
C13 C15 1.392 . S
C13 H20 0.930 . S
N14 C11 1.329 . S
N14 C15 1.331 . S
C15 C13 1.392 . S
C15 N14 1.331 . S
O16 Zn9 1.975 . S
O16 C17 1.252 . S
C17 O16 1.252 . S
C17 O18 1.252 . S
O18 Zn0 1.975 . S
O18 C17 1.252 . S
H19 C12 0.930 . S
H20 C13 0.930 . S
C21 C22 1.392 . S
C21 N25 1.328 . S
C21 H27 0.930 . S
C22 C21 1.392 . S
C22 N26 1.331 . S
C23 C24 1.391 . S
C23 N26 1.329 . S
C23 H33 0.930 . S
C24 C23 1.391 . S
C24 N25 1.334 . S
C24 H31 0.930 . S
N25 Zn9 2.119 . S
N25 C21 1.328 . S
N25 C24 1.334 . S
N26 C22 1.331 . S
N26 C23 1.329 . S
H27 C21 0.930 . S
C28 O8 1.257 . S
C28 O29 1.244 . S
O29 C28 1.244 . S
O30 C6 1.257 . S
O30 Zn9 2.019 . S
H31 C24 0.930 . S
H32 C11 0.930 . S
H33 C23 0.930 . S
Zn34 N38 2.020 . S
Zn34 O42 2.019 . S
Zn34 N44 2.119 . S
Zn34 O52 1.975 . S
C35 N36 1.334 . S
C35 N39 1.336 1_565 S
N36 C35 1.334 . S
N36 C37 1.334 . S
C37 N36 1.334 . S
C37 N38 1.336 1_565 S
N38 Zn34 2.020 . S
N38 C37 1.336 1_545 S
N38 N39 1.354 . S
N39 C35 1.336 1_545 S
N39 N38 1.354 . S
N39 Zn43 2.020 . S
C40 O41 1.244 . S
C40 O64 1.257 . S
O41 C40 1.244 . S
O42 Zn34 2.019 . S
O42 C62 1.257 . S
Zn43 N39 2.020 . S
Zn43 O50 1.975 . S
Zn43 N59 2.119 . S
Zn43 O64 2.019 . S
N44 Zn34 2.119 . S
N44 C46 1.334 . S
N44 C47 1.328 . S
C45 C46 1.391 . S
C45 N48 1.329 . S
C45 H66 0.930 . S
C46 N44 1.334 . S
C46 C45 1.391 . S
C46 H53 0.930 . S
C47 N44 1.328 . S
C47 C49 1.392 . S
C47 H54 0.930 . S
N48 C45 1.329 . S
N48 C49 1.331 . S
C49 C47 1.392 . S
C49 N48 1.331 . S
O50 Zn43 1.975 . S
O50 C51 1.252 . S
C51 O50 1.252 . S
C51 O52 1.252 . S
O52 Zn34 1.975 . S
O52 C51 1.252 . S
H53 C46 0.930 . S
H54 C47 0.930 . S
C55 C56 1.392 . S
C55 N59 1.328 . S
C55 H61 0.930 . S
C56 C55 1.392 . S
C56 N60 1.331 . S
C57 C58 1.391 . S
C57 N60 1.329 . S
C57 H67 0.930 . S
C58 C57 1.391 . S
C58 N59 1.334 . S
C58 H65 0.930 . S
N59 Zn43 2.119 . S
N59 C55 1.328 . S
N59 C58 1.334 . S
N60 C56 1.331 . S
N60 C57 1.329 . S
H61 C55 0.930 . S
C62 O42 1.257 . S
C62 O63 1.244 . S
O63 C62 1.244 . S
O64 C40 1.257 . S
O64 Zn43 2.019 . S
H65 C58 0.930 . S
H66 C45 0.930 . S
H67 C57 0.930 . S
Zn68 N72 2.020 . S
Zn68 O76 2.019 . S
Zn68 N78 2.119 . S
Zn68 O86 1.975 . S
C69 N70 1.334 . S
C69 N73 1.336 1_455 S
N70 C69 1.334 . S
N70 C71 1.334 . S
C71 N70 1.334 . S
C71 N72 1.336 1_455 S
N72 Zn68 2.020 . S
N72 C71 1.336 1_655 S
N72 N73 1.354 . S
N73 C69 1.336 1_655 S
N73 N72 1.354 . S
N73 Zn77 2.020 . S
C74 O75 1.244 . S
C74 O98 1.257 . S
O75 C74 1.244 . S
O76 Zn68 2.019 . S
O76 C96 1.257 . S
Zn77 N73 2.020 . S
Zn77 O84 1.975 . S
Zn77 N93 2.119 . S
Zn77 O98 2.019 . S
N78 Zn68 2.119 . S
N78 C80 1.334 . S
N78 C81 1.328 . S
C79 C80 1.391 . S
C79 N82 1.329 . S
C79 H100 0.930 . S
C80 N78 1.334 . S
C80 C79 1.391 . S
C80 H87 0.930 . S
C81 N78 1.328 . S
C81 C83 1.392 . S
C81 H88 0.930 . S
N82 C79 1.329 . S
N82 C83 1.331 . S
C83 C81 1.392 . S
C83 N82 1.331 . S
O84 Zn77 1.975 . S
O84 C85 1.252 . S
C85 O84 1.252 . S
C85 O86 1.252 . S
O86 Zn68 1.975 . S
O86 C85 1.252 . S
H87 C80 0.930 . S
H88 C81 0.930 . S
C89 C90 1.392 . S
C89 N93 1.328 . S
C89 H95 0.930 . S
C90 C89 1.392 . S
C90 N94 1.331 . S
C91 C92 1.391 . S
C91 N94 1.329 . S
C91 H101 0.930 . S
C92 C91 1.391 . S
C92 N93 1.334 . S
C92 H99 0.930 . S
N93 Zn77 2.119 . S
N93 C89 1.328 . S
N93 C92 1.334 . S
N94 C90 1.331 . S
N94 C91 1.329 . S
H95 C89 0.930 . S
C96 O76 1.257 . S
C96 O97 1.244 . S
O97 C96 1.244 . S
O98 C74 1.257 . S
O98 Zn77 2.019 . S
H99 C92 0.930 . S
H100 C79 0.930 . S
H101 C91 0.930 . S
Zn102 N106 2.020 . S
Zn102 O110 2.019 . S
Zn102 N112 2.119 . S
Zn102 O120 1.975 . S
C103 N104 1.334 . S
C103 N107 1.336 1_545 S
N104 C103 1.334 . S
N104 C105 1.334 . S
C105 N104 1.334 . S
C105 N106 1.336 1_545 S
N106 Zn102 2.020 . S
N106 C105 1.336 1_565 S
N106 N107 1.354 . S
N107 C103 1.336 1_565 S
N107 N106 1.354 . S
N107 Zn111 2.020 . S
C108 O109 1.244 . S
C108 O132 1.257 . S
O109 C108 1.244 . S
O110 Zn102 2.019 . S
O110 C130 1.257 . S
Zn111 N107 2.020 . S
Zn111 O118 1.975 . S
Zn111 N127 2.119 . S
Zn111 O132 2.019 . S
N112 Zn102 2.119 . S
N112 C114 1.334 . S
N112 C115 1.328 . S
C113 C114 1.391 . S
C113 N116 1.329 . S
C113 H134 0.930 . S
C114 N112 1.334 . S
C114 C113 1.391 . S
C114 H121 0.930 . S
C115 N112 1.328 . S
C115 C117 1.392 . S
C115 H122 0.930 . S
N116 C113 1.329 . S
N116 C117 1.331 . S
C117 C115 1.392 . S
C117 N116 1.331 . S
O118 Zn111 1.975 . S
O118 C119 1.252 . S
C119 O118 1.252 . S
C119 O120 1.252 . S
O120 Zn102 1.975 . S
O120 C119 1.252 . S
H121 C114 0.930 . S
H122 C115 0.930 . S
C123 C124 1.392 . S
C123 N127 1.328 . S
C123 H129 0.930 . S
C124 C123 1.392 . S
C124 N128 1.331 . S
C125 C126 1.391 . S
C125 N128 1.329 . S
C125 H135 0.930 . S
C126 C125 1.391 . S
C126 N127 1.334 . S
C126 H133 0.930 . S
N127 Zn111 2.119 . S
N127 C123 1.328 . S
N127 C126 1.334 . S
N128 C124 1.331 . S
N128 C125 1.329 . S
H129 C123 0.930 . S
C130 O110 1.257 . S
C130 O131 1.244 . S
O131 C130 1.244 . S
O132 C108 1.257 . S
O132 Zn111 2.019 . S
H133 C126 0.930 . S
H134 C113 0.930 . S
H135 C125 0.930 . S
Zn136 N140 2.020 . S
Zn136 O144 2.019 . S
Zn136 N146 2.119 . S
Zn136 O154 1.975 . S
C137 N138 1.334 . S
C137 N141 1.336 1_655 S
N138 C137 1.334 . S
N138 C139 1.334 . S
C139 N138 1.334 . S
C139 N140 1.336 1_655 S
N140 Zn136 2.020 . S
N140 C139 1.336 1_455 S
N140 N141 1.354 . S
N141 C137 1.336 1_455 S
N141 N140 1.354 . S
N141 Zn145 2.020 . S
C142 O143 1.244 . S
C142 O166 1.257 . S
O143 C142 1.244 . S
O144 Zn136 2.019 . S
O144 C164 1.257 . S
Zn145 N141 2.020 . S
Zn145 O152 1.975 . S
Zn145 N161 2.119 . S
Zn145 O166 2.019 . S
N146 Zn136 2.119 . S
N146 C148 1.334 . S
N146 C149 1.328 . S
C147 C148 1.391 . S
C147 N150 1.329 . S
C147 H168 0.930 . S
C148 N146 1.334 . S
C148 C147 1.391 . S
C148 H155 0.930 . S
C149 N146 1.328 . S
C149 C151 1.392 . S
C149 H156 0.930 . S
N150 C147 1.329 . S
N150 C151 1.331 . S
C151 C149 1.392 . S
C151 N150 1.331 . S
O152 Zn145 1.975 . S
O152 C153 1.252 . S
C153 O152 1.252 . S
C153 O154 1.252 . S
O154 Zn136 1.975 . S
O154 C153 1.252 . S
H155 C148 0.930 . S
H156 C149 0.930 . S
C157 C158 1.392 . S
C157 N161 1.328 . S
C157 H163 0.930 . S
C158 C157 1.392 . S
C158 N162 1.331 . S
C159 C160 1.391 . S
C159 N162 1.329 . S
C159 H169 0.930 . S
C160 C159 1.391 . S
C160 N161 1.334 . S
C160 H167 0.930 . S
N161 Zn145 2.119 . S
N161 C157 1.328 . S
N161 C160 1.334 . S
N162 C158 1.331 . S
N162 C159 1.329 . S
H163 C157 0.930 . S
C164 O144 1.257 . S
C164 O165 1.244 . S
O165 C164 1.244 . S
O166 C142 1.257 . S
O166 Zn145 2.019 . S
H167 C160 0.930 . S
H168 C147 0.930 . S
H169 C159 0.930 . S
Zn170 N174 2.020 . S
Zn170 O178 2.019 . S
Zn170 N180 2.119 . S
Zn170 O188 1.975 . S
C171 N172 1.334 . S
C171 N175 1.336 1_565 S
N172 C171 1.334 . S
N172 C173 1.334 . S
C173 N172 1.334 . S
C173 N174 1.336 1_565 S
N174 Zn170 2.020 . S
N174 C173 1.336 1_545 S
N174 N175 1.354 . S
N175 C171 1.336 1_545 S
N175 N174 1.354 . S
N175 Zn179 2.020 . S
C176 O177 1.244 . S
C176 O200 1.257 . S
O177 C176 1.244 . S
O178 Zn170 2.019 . S
O178 C198 1.257 . S
Zn179 N175 2.020 . S
Zn179 O186 1.975 . S
Zn179 N195 2.119 . S
Zn179 O200 2.019 . S
N180 Zn170 2.119 . S
N180 C182 1.334 . S
N180 C183 1.328 . S
C181 C182 1.391 . S
C181 N184 1.329 . S
C181 H202 0.930 . S
C182 N180 1.334 . S
C182 C181 1.391 . S
C182 H189 0.930 . S
C183 N180 1.328 . S
C183 C185 1.392 . S
C183 H190 0.930 . S
N184 C181 1.329 . S
N184 C185 1.331 . S
C185 C183 1.392 . S
C185 N184 1.331 . S
O186 Zn179 1.975 . S
O186 C187 1.252 . S
C187 O186 1.252 . S
C187 O188 1.252 . S
O188 Zn170 1.975 . S
O188 C187 1.252 . S
H189 C182 0.930 . S
H190 C183 0.930 . S
C191 C192 1.392 . S
C191 N195 1.328 . S
C191 H197 0.930 . S
C192 C191 1.392 . S
C192 N196 1.331 . S
C193 C194 1.391 . S
C193 N196 1.329 . S
C193 H203 0.930 . S
C194 C193 1.391 . S
C194 N195 1.334 . S
C194 H201 0.930 . S
N195 Zn179 2.119 . S
N195 C191 1.328 . S
N195 C194 1.334 . S
N196 C192 1.331 . S
N196 C193 1.329 . S
H197 C191 0.930 . S
C198 O178 1.257 . S
C198 O199 1.244 . S
O199 C198 1.244 . S
O200 C176 1.257 . S
O200 Zn179 2.019 . S
H201 C194 0.930 . S
H202 C181 0.930 . S
H203 C193 0.930 . S
Zn204 N208 2.020 . S
Zn204 O212 2.019 . S
Zn204 N214 2.119 . S
Zn204 O222 1.975 . S
C205 N206 1.334 . S
C205 N209 1.336 1_455 S
N206 C205 1.334 . S
N206 C207 1.334 . S
C207 N206 1.334 . S
C207 N208 1.336 1_455 S
N208 Zn204 2.020 . S
N208 C207 1.336 1_655 S
N208 N209 1.354 . S
N209 C205 1.336 1_655 S
N209 N208 1.354 . S
N209 Zn213 2.020 . S
C210 O211 1.244 . S
C210 O234 1.257 . S
O211 C210 1.244 . S
O212 Zn204 2.019 . S
O212 C232 1.257 . S
Zn213 N209 2.020 . S
Zn213 O220 1.975 . S
Zn213 N229 2.119 . S
Zn213 O234 2.019 . S
N214 Zn204 2.119 . S
N214 C216 1.334 . S
N214 C217 1.328 . S
C215 C216 1.391 . S
C215 N218 1.329 . S
C215 H236 0.930 . S
C216 N214 1.334 . S
C216 C215 1.391 . S
C216 H223 0.930 . S
C217 N214 1.328 . S
C217 C219 1.392 . S
C217 H224 0.930 . S
N218 C215 1.329 . S
N218 C219 1.331 . S
C219 C217 1.392 . S
C219 N218 1.331 . S
O220 Zn213 1.975 . S
O220 C221 1.252 . S
C221 O220 1.252 . S
C221 O222 1.252 . S
O222 Zn204 1.975 . S
O222 C221 1.252 . S
H223 C216 0.930 . S
H224 C217 0.930 . S
C225 C226 1.392 . S
C225 N229 1.328 . S
C225 H231 0.930 . S
C226 C225 1.392 . S
C226 N230 1.331 . S
C227 C228 1.391 . S
C227 N230 1.329 . S
C227 H237 0.930 . S
C228 C227 1.391 . S
C228 N229 1.334 . S
C228 H235 0.930 . S
N229 Zn213 2.119 . S
N229 C225 1.328 . S
N229 C228 1.334 . S
N230 C226 1.331 . S
N230 C227 1.329 . S
H231 C225 0.930 . S
C232 O212 1.257 . S
C232 O233 1.244 . S
O233 C232 1.244 . S
O234 C210 1.257 . S
O234 Zn213 2.019 . S
H235 C228 0.930 . S
H236 C215 0.930 . S
H237 C227 0.930 . S
Zn238 N242 2.020 . S
Zn238 O246 2.019 . S
Zn238 N248 2.119 . S
Zn238 O256 1.975 . S
C239 N240 1.334 . S
C239 N243 1.336 1_545 S
N240 C239 1.334 . S
N240 C241 1.334 . S
C241 N240 1.334 . S
C241 N242 1.336 1_545 S
N242 Zn238 2.020 . S
N242 C241 1.336 1_565 S
N242 N243 1.354 . S
N243 C239 1.336 1_565 S
N243 N242 1.354 . S
N243 Zn247 2.020 . S
C244 O245 1.244 . S
C244 O268 1.257 . S
O245 C244 1.244 . S
O246 Zn238 2.019 . S
O246 C266 1.257 . S
Zn247 N243 2.020 . S
Zn247 O254 1.975 . S
Zn247 N263 2.119 . S
Zn247 O268 2.019 . S
N248 Zn238 2.119 . S
N248 C250 1.334 . S
N248 C251 1.328 . S
C249 C250 1.391 . S
C249 N252 1.329 . S
C249 H270 0.930 . S
C250 N248 1.334 . S
C250 C249 1.391 . S
C250 H257 0.930 . S
C251 N248 1.328 . S
C251 C253 1.392 . S
C251 H258 0.930 . S
N252 C249 1.329 . S
N252 C253 1.331 . S
C253 C251 1.392 . S
C253 N252 1.331 . S
O254 Zn247 1.975 . S
O254 C255 1.252 . S
C255 O254 1.252 . S
C255 O256 1.252 . S
O256 Zn238 1.975 . S
O256 C255 1.252 . S
H257 C250 0.930 . S
H258 C251 0.930 . S
C259 C260 1.392 . S
C259 N263 1.328 . S
C259 H265 0.930 . S
C260 C259 1.392 . S
C260 N264 1.331 . S
C261 C262 1.391 . S
C261 N264 1.329 . S
C261 H271 0.930 . S
C262 C261 1.391 . S
C262 N263 1.334 . S
C262 H269 0.930 . S
N263 Zn247 2.119 . S
N263 C259 1.328 . S
N263 C262 1.334 . S
N264 C260 1.331 . S
N264 C261 1.329 . S
H265 C259 0.930 . S
C266 O246 1.257 . S
C266 O267 1.244 . S
O267 C266 1.244 . S
O268 C244 1.257 . S
O268 Zn247 2.019 . S
H269 C262 0.930 . S
H270 C249 0.930 . S
H271 C261 0.930 . S
Zn272 N276 2.020 . S
Zn272 O280 2.019 1_655 S
Zn272 N282 2.119 . S
Zn272 O290 1.975 . S
C273 N274 1.334 . S
C273 N277 1.336 . S
N274 C273 1.334 . S
N274 C275 1.334 . S
C275 N274 1.334 . S
C275 N276 1.336 . S
N276 Zn272 2.020 . S
N276 C275 1.336 . S
N276 N277 1.354 . S
N277 C273 1.336 . S
N277 N276 1.354 . S
N277 Zn281 2.020 . S
C278 O279 1.244 . S
C278 O302 1.257 . S
O279 C278 1.244 . S
O280 Zn272 2.019 1_455 S
O280 C300 1.257 . S
Zn281 N277 2.020 . S
Zn281 O288 1.975 . S
Zn281 N297 2.119 . S
Zn281 O302 2.019 . S
N282 Zn272 2.119 . S
N282 C284 1.334 . S
N282 C285 1.328 . S
C283 C284 1.391 . S
C283 N286 1.329 . S
C283 H304 0.930 . S
C284 N282 1.334 . S
C284 C283 1.391 . S
C284 H291 0.930 . S
C285 N282 1.328 . S
C285 C287 1.392 . S
C285 H292 0.930 . S
N286 C283 1.329 . S
N286 C287 1.331 . S
C287 C285 1.392 . S
C287 N286 1.331 . S
O288 Zn281 1.975 . S
O288 C289 1.252 . S
C289 O288 1.252 . S
C289 O290 1.252 . S
O290 Zn272 1.975 . S
O290 C289 1.252 . S
H291 C284 0.930 . S
H292 C285 0.930 . S
C293 C294 1.392 . S
C293 N297 1.328 . S
C293 H299 0.930 . S
C294 C293 1.392 . S
C294 N298 1.331 . S
C295 C296 1.391 . S
C295 N298 1.329 . S
C295 H305 0.930 . S
C296 C295 1.391 . S
C296 N297 1.334 . S
C296 H303 0.930 . S
N297 Zn281 2.119 . S
N297 C293 1.328 . S
N297 C296 1.334 . S
N298 C294 1.331 . S
N298 C295 1.329 . S
H299 C293 0.930 . S
C300 O280 1.257 . S
C300 O301 1.244 . S
O301 C300 1.244 . S
O302 C278 1.257 . S
O302 Zn281 2.019 . S
H303 C296 0.930 . S
H304 C283 0.930 . S
H305 C295 0.930 . S
Zn306 N310 2.020 . S
Zn306 O314 2.019 . S
Zn306 N316 2.119 . S
Zn306 O324 1.975 . S
C307 N308 1.334 . S
C307 N311 1.336 . S
N308 C307 1.334 . S
N308 C309 1.334 . S
C309 N308 1.334 . S
C309 N310 1.336 . S
N310 Zn306 2.020 . S
N310 C309 1.336 . S
N310 N311 1.354 . S
N311 C307 1.336 . S
N311 N310 1.354 . S
N311 Zn315 2.020 . S
C312 O313 1.244 . S
C312 O336 1.257 . S
O313 C312 1.244 . S
O314 Zn306 2.019 . S
O314 C334 1.257 . S
Zn315 N311 2.020 . S
Zn315 O322 1.975 . S
Zn315 N331 2.119 . S
Zn315 O336 2.019 1_565 S
N316 Zn306 2.119 . S
N316 C318 1.334 . S
N316 C319 1.328 . S
C317 C318 1.391 . S
C317 N320 1.329 . S
C317 H338 0.930 . S
C318 N316 1.334 . S
C318 C317 1.391 . S
C318 H325 0.930 . S
C319 N316 1.328 . S
C319 C321 1.392 . S
C319 H326 0.930 . S
N320 C317 1.329 . S
N320 C321 1.331 . S
C321 C319 1.392 . S
C321 N320 1.331 . S
O322 Zn315 1.975 . S
O322 C323 1.252 . S
C323 O322 1.252 . S
C323 O324 1.252 . S
O324 Zn306 1.975 . S
O324 C323 1.252 . S
H325 C318 0.930 . S
H326 C319 0.930 . S
C327 C328 1.392 . S
C327 N331 1.328 . S
C327 H333 0.930 . S
C328 C327 1.392 . S
C328 N332 1.331 . S
C329 C330 1.391 . S
C329 N332 1.329 . S
C329 H339 0.930 . S
C330 C329 1.391 . S
C330 N331 1.334 . S
C330 H337 0.930 . S
N331 Zn315 2.119 . S
N331 C327 1.328 . S
N331 C330 1.334 . S
N332 C328 1.331 . S
N332 C329 1.329 . S
H333 C327 0.930 . S
C334 O314 1.257 . S
C334 O335 1.244 . S
O335 C334 1.244 . S
O336 C312 1.257 . S
O336 Zn315 2.019 1_545 S
H337 C330 0.930 . S
H338 C317 0.930 . S
H339 C329 0.930 . S
Zn340 N344 2.020 . S
Zn340 O348 2.019 . S
Zn340 N350 2.119 . S
Zn340 O358 1.975 . S
C341 N342 1.334 . S
C341 N345 1.336 . S
N342 C341 1.334 . S
N342 C343 1.334 . S
C343 N342 1.334 . S
C343 N344 1.336 . S
N344 Zn340 2.020 . S
N344 C343 1.336 . S
N344 N345 1.354 . S
N345 C341 1.336 . S
N345 N344 1.354 . S
N345 Zn349 2.020 . S
C346 O347 1.244 . S
C346 O370 1.257 . S
O347 C346 1.244 . S
O348 Zn340 2.019 . S
O348 C368 1.257 . S
Zn349 N345 2.020 . S
Zn349 O356 1.975 . S
Zn349 N365 2.119 . S
Zn349 O370 2.019 1_455 S
N350 Zn340 2.119 . S
N350 C352 1.334 . S
N350 C353 1.328 . S
C351 C352 1.391 . S
C351 N354 1.329 . S
C351 H372 0.930 . S
C352 N350 1.334 . S
C352 C351 1.391 . S
C352 H359 0.930 . S
C353 N350 1.328 . S
C353 C355 1.392 . S
C353 H360 0.930 . S
N354 C351 1.329 . S
N354 C355 1.331 . S
C355 C353 1.392 . S
C355 N354 1.331 . S
O356 Zn349 1.975 . S
O356 C357 1.252 . S
C357 O356 1.252 . S
C357 O358 1.252 . S
O358 Zn340 1.975 . S
O358 C357 1.252 . S
H359 C352 0.930 . S
H360 C353 0.930 . S
C361 C362 1.392 . S
C361 N365 1.328 . S
C361 H367 0.930 . S
C362 C361 1.392 . S
C362 N366 1.331 . S
C363 C364 1.391 . S
C363 N366 1.329 . S
C363 H373 0.930 . S
C364 C363 1.391 . S
C364 N365 1.334 . S
C364 H371 0.930 . S
N365 Zn349 2.119 . S
N365 C361 1.328 . S
N365 C364 1.334 . S
N366 C362 1.331 . S
N366 C363 1.329 . S
H367 C361 0.930 . S
C368 O348 1.257 . S
C368 O369 1.244 . S
O369 C368 1.244 . S
O370 C346 1.257 . S
O370 Zn349 2.019 1_655 S
H371 C364 0.930 . S
H372 C351 0.930 . S
H373 C363 0.930 . S
Zn374 N378 2.020 . S
Zn374 O382 2.019 . S
Zn374 N384 2.119 . S
Zn374 O392 1.975 . S
C375 N376 1.334 . S
C375 N379 1.336 . S
N376 C375 1.334 . S
N376 C377 1.334 . S
C377 N376 1.334 . S
C377 N378 1.336 . S
N378 Zn374 2.020 . S
N378 C377 1.336 . S
N378 N379 1.354 . S
N379 C375 1.336 . S
N379 N378 1.354 . S
N379 Zn383 2.020 . S
C380 O381 1.244 . S
C380 O404 1.257 . S
O381 C380 1.244 . S
O382 Zn374 2.019 . S
O382 C402 1.257 . S
Zn383 N379 2.020 . S
Zn383 O390 1.975 . S
Zn383 N399 2.119 . S
Zn383 O404 2.019 1_545 S
N384 Zn374 2.119 . S
N384 C386 1.334 . S
N384 C387 1.328 . S
C385 C386 1.391 . S
C385 N388 1.329 . S
C385 H406 0.930 . S
C386 N384 1.334 . S
C386 C385 1.391 . S
C386 H393 0.930 . S
C387 N384 1.328 . S
C387 C389 1.392 . S
C387 H394 0.930 . S
N388 C385 1.329 . S
N388 C389 1.331 . S
C389 C387 1.392 . S
C389 N388 1.331 . S
O390 Zn383 1.975 . S
O390 C391 1.252 . S
C391 O390 1.252 . S
C391 O392 1.252 . S
O392 Zn374 1.975 . S
O392 C391 1.252 . S
H393 C386 0.930 . S
H394 C387 0.930 . S
C395 C396 1.392 . S
C395 N399 1.328 . S
C395 H401 0.930 . S
C396 C395 1.392 . S
C396 N400 1.331 . S
C397 C398 1.391 . S
C397 N400 1.329 . S
C397 H407 0.930 . S
C398 C397 1.391 . S
C398 N399 1.334 . S
C398 H405 0.930 . S
N399 Zn383 2.119 . S
N399 C395 1.328 . S
N399 C398 1.334 . S
N400 C396 1.331 . S
N400 C397 1.329 . S
H401 C395 0.930 . S
C402 O382 1.257 . S
C402 O403 1.244 . S
O403 C402 1.244 . S
O404 C380 1.257 . S
O404 Zn383 2.019 1_565 S
H405 C398 0.930 . S
H406 C385 0.930 . S
H407 C397 0.930 . S
Zn408 N412 2.020 . S
Zn408 O416 2.019 1_655 S
Zn408 N418 2.119 . S
Zn408 O426 1.975 . S
C409 N410 1.334 . S
C409 N413 1.336 . S
N410 C409 1.334 . S
N410 C411 1.334 . S
C411 N410 1.334 . S
C411 N412 1.336 . S
N412 Zn408 2.020 . S
N412 C411 1.336 . S
N412 N413 1.354 . S
N413 C409 1.336 . S
N413 N412 1.354 . S
N413 Zn417 2.020 . S
C414 O415 1.244 . S
C414 O438 1.257 . S
O415 C414 1.244 . S
O416 Zn408 2.019 1_455 S
O416 C436 1.257 . S
Zn417 N413 2.020 . S
Zn417 O424 1.975 . S
Zn417 N433 2.119 . S
Zn417 O438 2.019 . S
N418 Zn408 2.119 . S
N418 C420 1.334 . S
N418 C421 1.328 . S
C419 C420 1.391 . S
C419 N422 1.329 . S
C419 H440 0.930 . S
C420 N418 1.334 . S
C420 C419 1.391 . S
C420 H427 0.930 . S
C421 N418 1.328 . S
C421 C423 1.392 . S
C421 H428 0.930 . S
N422 C419 1.329 . S
N422 C423 1.331 . S
C423 C421 1.392 . S
C423 N422 1.331 . S
O424 Zn417 1.975 . S
O424 C425 1.252 . S
C425 O424 1.252 . S
C425 O426 1.252 . S
O426 Zn408 1.975 . S
O426 C425 1.252 . S
H427 C420 0.930 . S
H428 C421 0.930 . S
C429 C430 1.392 . S
C429 N433 1.328 . S
C429 H435 0.930 . S
C430 C429 1.392 . S
C430 N434 1.331 . S
C431 C432 1.391 . S
C431 N434 1.329 . S
C431 H441 0.930 . S
C432 C431 1.391 . S
C432 N433 1.334 . S
C432 H439 0.930 . S
N433 Zn417 2.119 . S
N433 C429 1.328 . S
N433 C432 1.334 . S
N434 C430 1.331 . S
N434 C431 1.329 . S
H435 C429 0.930 . S
C436 O416 1.257 . S
C436 O437 1.244 . S
O437 C436 1.244 . S
O438 C414 1.257 . S
O438 Zn417 2.019 . S
H439 C432 0.930 . S
H440 C419 0.930 . S
H441 C431 0.930 . S
Zn442 N446 2.020 . S
Zn442 O450 2.019 . S
Zn442 N452 2.119 . S
Zn442 O460 1.975 . S
C443 N444 1.334 . S
C443 N447 1.336 . S
N444 C443 1.334 . S
N444 C445 1.334 . S
C445 N444 1.334 . S
C445 N446 1.336 . S
N446 Zn442 2.020 . S
N446 C445 1.336 . S
N446 N447 1.354 . S
N447 C443 1.336 . S
N447 N446 1.354 . S
N447 Zn451 2.020 . S
C448 O449 1.244 . S
C448 O472 1.257 . S
O449 C448 1.244 . S
O450 Zn442 2.019 . S
O450 C470 1.257 . S
Zn451 N447 2.020 . S
Zn451 O458 1.975 . S
Zn451 N467 2.119 . S
Zn451 O472 2.019 1_565 S
N452 Zn442 2.119 . S
N452 C454 1.334 . S
N452 C455 1.328 . S
C453 C454 1.391 . S
C453 N456 1.329 . S
C453 H474 0.930 . S
C454 N452 1.334 . S
C454 C453 1.391 . S
C454 H461 0.930 . S
C455 N452 1.328 . S
C455 C457 1.392 . S
C455 H462 0.930 . S
N456 C453 1.329 . S
N456 C457 1.331 . S
C457 C455 1.392 . S
C457 N456 1.331 . S
O458 Zn451 1.975 . S
O458 C459 1.252 . S
C459 O458 1.252 . S
C459 O460 1.252 . S
O460 Zn442 1.975 . S
O460 C459 1.252 . S
H461 C454 0.930 . S
H462 C455 0.930 . S
C463 C464 1.392 . S
C463 N467 1.328 . S
C463 H469 0.930 . S
C464 C463 1.392 . S
C464 N468 1.331 . S
C465 C466 1.391 . S
C465 N468 1.329 . S
C465 H475 0.930 . S
C466 C465 1.391 . S
C466 N467 1.334 . S
C466 H473 0.930 . S
N467 Zn451 2.119 . S
N467 C463 1.328 . S
N467 C466 1.334 . S
N468 C464 1.331 . S
N468 C465 1.329 . S
H469 C463 0.930 . S
C470 O450 1.257 . S
C470 O471 1.244 . S
O471 C470 1.244 . S
O472 C448 1.257 . S
O472 Zn451 2.019 1_545 S
H473 C466 0.930 . S
H474 C453 0.930 . S
H475 C465 0.930 . S
Zn476 N480 2.020 . S
Zn476 O484 2.019 . S
Zn476 N486 2.119 . S
Zn476 O494 1.975 . S
C477 N478 1.334 . S
C477 N481 1.336 . S
N478 C477 1.334 . S
N478 C479 1.334 . S
C479 N478 1.334 . S
C479 N480 1.336 . S
N480 Zn476 2.020 . S
N480 C479 1.336 . S
N480 N481 1.354 . S
N481 C477 1.336 . S
N481 N480 1.354 . S
N481 Zn485 2.020 . S
C482 O483 1.244 . S
C482 O506 1.257 . S
O483 C482 1.244 . S
O484 Zn476 2.019 . S
O484 C504 1.257 . S
Zn485 N481 2.020 . S
Zn485 O492 1.975 . S
Zn485 N501 2.119 . S
Zn485 O506 2.019 1_455 S
N486 Zn476 2.119 . S
N486 C488 1.334 . S
N486 C489 1.328 . S
C487 C488 1.391 . S
C487 N490 1.329 . S
C487 H508 0.930 . S
C488 N486 1.334 . S
C488 C487 1.391 . S
C488 H495 0.930 . S
C489 N486 1.328 . S
C489 C491 1.392 . S
C489 H496 0.930 . S
N490 C487 1.329 . S
N490 C491 1.331 . S
C491 C489 1.392 . S
C491 N490 1.331 . S
O492 Zn485 1.975 . S
O492 C493 1.252 . S
C493 O492 1.252 . S
C493 O494 1.252 . S
O494 Zn476 1.975 . S
O494 C493 1.252 . S
H495 C488 0.930 . S
H496 C489 0.930 . S
C497 C498 1.392 . S
C497 N501 1.328 . S
C497 H503 0.930 . S
C498 C497 1.392 . S
C498 N502 1.331 . S
C499 C500 1.391 . S
C499 N502 1.329 . S
C499 H509 0.930 . S
C500 C499 1.391 . S
C500 N501 1.334 . S
C500 H507 0.930 . S
N501 Zn485 2.119 . S
N501 C497 1.328 . S
N501 C500 1.334 . S
N502 C498 1.331 . S
N502 C499 1.329 . S
H503 C497 0.930 . S
C504 O484 1.257 . S
C504 O505 1.244 . S
O505 C504 1.244 . S
O506 C482 1.257 . S
O506 Zn485 2.019 1_655 S
H507 C500 0.930 . S
H508 C487 0.930 . S
H509 C499 0.930 . S
Zn510 N514 2.020 . S
Zn510 O518 2.019 1_545 S
Zn510 N520 2.119 . S
Zn510 O528 1.975 . S
C511 N512 1.334 . S
C511 N515 1.336 . S
N512 C511 1.334 . S
N512 C513 1.334 . S
C513 N512 1.334 . S
C513 N514 1.336 . S
N514 Zn510 2.020 . S
N514 C513 1.336 . S
N514 N515 1.354 . S
N515 C511 1.336 . S
N515 N514 1.354 . S
N515 Zn519 2.020 . S
C516 O517 1.244 . S
C516 O540 1.257 . S
O517 C516 1.244 . S
O518 Zn510 2.019 1_565 S
O518 C538 1.257 . S
Zn519 N515 2.020 . S
Zn519 O526 1.975 . S
Zn519 N535 2.119 . S
Zn519 O540 2.019 . S
N520 Zn510 2.119 . S
N520 C522 1.334 . S
N520 C523 1.328 . S
C521 C522 1.391 . S
C521 N524 1.329 . S
C521 H542 0.930 . S
C522 N520 1.334 . S
C522 C521 1.391 . S
C522 H529 0.930 . S
C523 N520 1.328 . S
C523 C525 1.392 . S
C523 H530 0.930 . S
N524 C521 1.329 . S
N524 C525 1.331 . S
C525 C523 1.392 . S
C525 N524 1.331 . S
O526 Zn519 1.975 . S
O526 C527 1.252 . S
C527 O526 1.252 . S
C527 O528 1.252 . S
O528 Zn510 1.975 . S
O528 C527 1.252 . S
H529 C522 0.930 . S
H530 C523 0.930 . S
C531 C532 1.392 . S
C531 N535 1.328 . S
C531 H537 0.930 . S
C532 C531 1.392 . S
C532 N536 1.331 . S
C533 C534 1.391 . S
C533 N536 1.329 . S
C533 H543 0.930 . S
C534 C533 1.391 . S
C534 N535 1.334 . S
C534 H541 0.930 . S
N535 Zn519 2.119 . S
N535 C531 1.328 . S
N535 C534 1.334 . S
N536 C532 1.331 . S
N536 C533 1.329 . S
H537 C531 0.930 . S
C538 O518 1.257 . S
C538 O539 1.244 . S
O539 C538 1.244 . S
O540 C516 1.257 . S
O540 Zn519 2.019 . S
H541 C534 0.930 . S
H542 C521 0.930 . S
H543 C533 0.930 . S
C22 C362 2.719 1_554 S
C56 C396 2.719 1_554 S
C287 C83 2.719 1_556 S
C328 C117 2.719 1_556 S
C158 C498 2.719 . S
C525 C185 2.719 . S
C423 C226 2.719 . S
C260 C464 2.719 . S
C103 C28 2.163 . S
C3 C62 2.163 . S
C74 C37 2.163 . S
C108 C69 2.163 . S
C171 C164 2.163 . S
C176 C207 2.163 . S
C241 C232 2.163 . S
C139 C266 2.163 . S
C289 C380 2.068 . S
C300 C323 2.068 . S
C357 C312 2.068 . S
C346 C391 2.068 . S
C425 C448 2.068 . S
C482 C459 2.068 . S
C538 C493 2.068 . S
C436 C527 2.068 . S
C470 C409 2.163 . S
C504 C445 2.163 . S
C479 C516 2.163 . S
C511 C414 2.163 . S
C402 C273 2.163 . S
C309 C278 2.163 . S
C343 C334 2.163 . S
C377 C368 2.163 . S
C187 C142 2.068 . S
C198 C221 2.068 . S
C255 C210 2.068 . S
C244 C153 2.068 . S
C119 C6 2.068 . S
C40 C17 2.068 . S
C96 C51 2.068 . S
C130 C85 2.068 . S
C192 C15 1.473 . S
C219 C49 1.473 . S
C253 C90 1.473 . S
C151 C124 1.473 . S
C457 C294 1.473 . S
C321 C491 1.473 . S
C355 C532 1.473 . S
C389 C430 1.473 . S
C1 C71 3.148 1_655 S
C105 C35 3.147 1_545 S
C137 C205 3.147 1_655 S
C239 C173 3.148 1_545 S
C341 C275 3.148 1_455 S
C375 C307 3.147 1_545 S
C477 C411 3.147 1_455 S
C443 C513 3.148 1_565 S
