# Generated by pormake.
# Topology umn, (4)-cn, num edge types: 1
# Building blocks:
#     Node 0, Type 0, BuildingBlock: TATPOV_clean_sbu_0, # of connection points: 4
#     Node 1, Type 0, BuildingBlock: TATPOV_clean_sbu_0, # of connection points: 4
#     Node 2, Type 0, BuildingBlock: TATPOV_clean_sbu_0, # of connection points: 4
#     Node 3, Type 0, BuildingBlock: TATPOV_clean_sbu_0, # of connection points: 4
#     Node 4, Type 0, BuildingBlock: TATPOV_clean_sbu_0, # of connection points: 4
#     Node 5, Type 0, BuildingBlock: TATPOV_clean_sbu_0, # of connection points: 4
#     Node 6, Type 0, BuildingBlock: TATPOV_clean_sbu_0, # of connection points: 4
#     Node 7, Type 0, BuildingBlock: TATPOV_clean_sbu_0, # of connection points: 4
#     Node 8, Type 0, BuildingBlock: TATPOV_clean_sbu_0, # of connection points: 4
#     Node 9, Type 0, BuildingBlock: TATPOV_clean_sbu_0, # of connection points: 4
#     Node 10, Type 0, BuildingBlock: TATPOV_clean_sbu_0, # of connection points: 4
#     Node 11, Type 0, BuildingBlock: TATPOV_clean_sbu_0, # of connection points: 4
#     Node 12, Type 0, BuildingBlock: TATPOV_clean_sbu_0, # of connection points: 4
#     Node 13, Type 0, BuildingBlock: TATPOV_clean_sbu_0, # of connection points: 4
#     Node 14, Type 0, BuildingBlock: TATPOV_clean_sbu_0, # of connection points: 4
#     Node 15, Type 0, BuildingBlock: TATPOV_clean_sbu_0, # of connection points: 4
#     Node 16, Type 0, BuildingBlock: TATPOV_clean_sbu_0, # of connection points: 4
#     Node 17, Type 0, BuildingBlock: TATPOV_clean_sbu_0, # of connection points: 4
#     Node 18, Type 0, BuildingBlock: TATPOV_clean_sbu_0, # of connection points: 4
#     Node 19, Type 0, BuildingBlock: TATPOV_clean_sbu_0, # of connection points: 4
#     Node 20, Type 0, BuildingBlock: TATPOV_clean_sbu_0, # of connection points: 4
#     Node 21, Type 0, BuildingBlock: TATPOV_clean_sbu_0, # of connection points: 4
#     Node 22, Type 0, BuildingBlock: TATPOV_clean_sbu_0, # of connection points: 4
#     Node 23, Type 0, BuildingBlock: TATPOV_clean_sbu_0, # of connection points: 4
#     Node 24, Type 0, BuildingBlock: TATPOV_clean_sbu_0, # of connection points: 4
#     Node 25, Type 0, BuildingBlock: TATPOV_clean_sbu_0, # of connection points: 4
#     Node 26, Type 0, BuildingBlock: TATPOV_clean_sbu_0, # of connection points: 4
#     Node 27, Type 0, BuildingBlock: TATPOV_clean_sbu_0, # of connection points: 4
#     Node 28, Type 0, BuildingBlock: TATPOV_clean_sbu_0, # of connection points: 4
#     Node 29, Type 0, BuildingBlock: TATPOV_clean_sbu_0, # of connection points: 4
#     Node 30, Type 0, BuildingBlock: TATPOV_clean_sbu_0, # of connection points: 4
#     Node 31, Type 0, BuildingBlock: TATPOV_clean_sbu_0, # of connection points: 4
#     Node 32, Type 0, BuildingBlock: TATPOV_clean_sbu_0, # of connection points: 4
#     Node 33, Type 0, BuildingBlock: TATPOV_clean_sbu_0, # of connection points: 4
#     Node 34, Type 0, BuildingBlock: TATPOV_clean_sbu_0, # of connection points: 4
#     Node 35, Type 0, BuildingBlock: TATPOV_clean_sbu_0, # of connection points: 4
#     Edge 36, Type (0, 0), BuildingBlock: EZIPEK_clean_linker_0, # of connection points: 2
#     Edge 37, Type (0, 0), BuildingBlock: EZIPEK_clean_linker_0, # of connection points: 2
#     Edge 38, Type (0, 0), BuildingBlock: EZIPEK_clean_linker_0, # of connection points: 2
#     Edge 39, Type (0, 0), BuildingBlock: EZIPEK_clean_linker_0, # of connection points: 2
#     Edge 40, Type (0, 0), BuildingBlock: EZIPEK_clean_linker_0, # of connection points: 2
#     Edge 41, Type (0, 0), BuildingBlock: EZIPEK_clean_linker_0, # of connection points: 2
#     Edge 42, Type (0, 0), BuildingBlock: EZIPEK_clean_linker_0, # of connection points: 2
#     Edge 43, Type (0, 0), BuildingBlock: EZIPEK_clean_linker_0, # of connection points: 2
#     Edge 44, Type (0, 0), BuildingBlock: EZIPEK_clean_linker_0, # of connection points: 2
#     Edge 45, Type (0, 0), BuildingBlock: EZIPEK_clean_linker_0, # of connection points: 2
#     Edge 46, Type (0, 0), BuildingBlock: EZIPEK_clean_linker_0, # of connection points: 2
#     Edge 47, Type (0, 0), BuildingBlock: EZIPEK_clean_linker_0, # of connection points: 2
#     Edge 48, Type (0, 0), BuildingBlock: EZIPEK_clean_linker_0, # of connection points: 2
#     Edge 49, Type (0, 0), BuildingBlock: EZIPEK_clean_linker_0, # of connection points: 2
#     Edge 50, Type (0, 0), BuildingBlock: EZIPEK_clean_linker_0, # of connection points: 2
#     Edge 51, Type (0, 0), BuildingBlock: EZIPEK_clean_linker_0, # of connection points: 2
#     Edge 52, Type (0, 0), BuildingBlock: EZIPEK_clean_linker_0, # of connection points: 2
#     Edge 53, Type (0, 0), BuildingBlock: EZIPEK_clean_linker_0, # of connection points: 2
#     Edge 54, Type (0, 0), BuildingBlock: EZIPEK_clean_linker_0, # of connection points: 2
#     Edge 55, Type (0, 0), BuildingBlock: EZIPEK_clean_linker_0, # of connection points: 2
#     Edge 56, Type (0, 0), BuildingBlock: EZIPEK_clean_linker_0, # of connection points: 2
#     Edge 57, Type (0, 0), BuildingBlock: EZIPEK_clean_linker_0, # of connection points: 2
#     Edge 58, Type (0, 0), BuildingBlock: EZIPEK_clean_linker_0, # of connection points: 2
#     Edge 59, Type (0, 0), BuildingBlock: EZIPEK_clean_linker_0, # of connection points: 2
#     Edge 60, Type (0, 0), BuildingBlock: EZIPEK_clean_linker_0, # of connection points: 2
#     Edge 61, Type (0, 0), BuildingBlock: EZIPEK_clean_linker_0, # of connection points: 2
#     Edge 62, Type (0, 0), BuildingBlock: EZIPEK_clean_linker_0, # of connection points: 2
#     Edge 63, Type (0, 0), BuildingBlock: EZIPEK_clean_linker_0, # of connection points: 2
#     Edge 64, Type (0, 0), BuildingBlock: EZIPEK_clean_linker_0, # of connection points: 2
#     Edge 65, Type (0, 0), BuildingBlock: EZIPEK_clean_linker_0, # of connection points: 2
#     Edge 66, Type (0, 0), BuildingBlock: EZIPEK_clean_linker_0, # of connection points: 2
#     Edge 67, Type (0, 0), BuildingBlock: EZIPEK_clean_linker_0, # of connection points: 2
#     Edge 68, Type (0, 0), BuildingBlock: EZIPEK_clean_linker_0, # of connection points: 2
#     Edge 69, Type (0, 0), BuildingBlock: EZIPEK_clean_linker_0, # of connection points: 2
#     Edge 70, Type (0, 0), BuildingBlock: EZIPEK_clean_linker_0, # of connection points: 2
#     Edge 71, Type (0, 0), BuildingBlock: EZIPEK_clean_linker_0, # of connection points: 2
#     Edge 72, Type (0, 0), BuildingBlock: EZIPEK_clean_linker_0, # of connection points: 2
#     Edge 73, Type (0, 0), BuildingBlock: EZIPEK_clean_linker_0, # of connection points: 2
#     Edge 74, Type (0, 0), BuildingBlock: EZIPEK_clean_linker_0, # of connection points: 2
#     Edge 75, Type (0, 0), BuildingBlock: EZIPEK_clean_linker_0, # of connection points: 2
#     Edge 76, Type (0, 0), BuildingBlock: EZIPEK_clean_linker_0, # of connection points: 2
#     Edge 77, Type (0, 0), BuildingBlock: EZIPEK_clean_linker_0, # of connection points: 2
#     Edge 78, Type (0, 0), BuildingBlock: EZIPEK_clean_linker_0, # of connection points: 2
#     Edge 79, Type (0, 0), BuildingBlock: EZIPEK_clean_linker_0, # of connection points: 2
#     Edge 80, Type (0, 0), BuildingBlock: EZIPEK_clean_linker_0, # of connection points: 2
#     Edge 81, Type (0, 0), BuildingBlock: EZIPEK_clean_linker_0, # of connection points: 2
#     Edge 82, Type (0, 0), BuildingBlock: EZIPEK_clean_linker_0, # of connection points: 2
#     Edge 83, Type (0, 0), BuildingBlock: EZIPEK_clean_linker_0, # of connection points: 2
#     Edge 84, Type (0, 0), BuildingBlock: EZIPEK_clean_linker_0, # of connection points: 2
#     Edge 85, Type (0, 0), BuildingBlock: EZIPEK_clean_linker_0, # of connection points: 2
#     Edge 86, Type (0, 0), BuildingBlock: EZIPEK_clean_linker_0, # of connection points: 2
#     Edge 87, Type (0, 0), BuildingBlock: EZIPEK_clean_linker_0, # of connection points: 2
#     Edge 88, Type (0, 0), BuildingBlock: EZIPEK_clean_linker_0, # of connection points: 2
#     Edge 89, Type (0, 0), BuildingBlock: EZIPEK_clean_linker_0, # of connection points: 2
#     Edge 90, Type (0, 0), BuildingBlock: EZIPEK_clean_linker_0, # of connection points: 2
#     Edge 91, Type (0, 0), BuildingBlock: EZIPEK_clean_linker_0, # of connection points: 2
#     Edge 92, Type (0, 0), BuildingBlock: EZIPEK_clean_linker_0, # of connection points: 2
#     Edge 93, Type (0, 0), BuildingBlock: EZIPEK_clean_linker_0, # of connection points: 2
#     Edge 94, Type (0, 0), BuildingBlock: EZIPEK_clean_linker_0, # of connection points: 2
#     Edge 95, Type (0, 0), BuildingBlock: EZIPEK_clean_linker_0, # of connection points: 2
#     Edge 96, Type (0, 0), BuildingBlock: EZIPEK_clean_linker_0, # of connection points: 2
#     Edge 97, Type (0, 0), BuildingBlock: EZIPEK_clean_linker_0, # of connection points: 2
#     Edge 98, Type (0, 0), BuildingBlock: EZIPEK_clean_linker_0, # of connection points: 2
#     Edge 99, Type (0, 0), BuildingBlock: EZIPEK_clean_linker_0, # of connection points: 2
#     Edge 100, Type (0, 0), BuildingBlock: EZIPEK_clean_linker_0, # of connection points: 2
#     Edge 101, Type (0, 0), BuildingBlock: EZIPEK_clean_linker_0, # of connection points: 2
#     Edge 102, Type (0, 0), BuildingBlock: EZIPEK_clean_linker_0, # of connection points: 2
#     Edge 103, Type (0, 0), BuildingBlock: EZIPEK_clean_linker_0, # of connection points: 2
#     Edge 104, Type (0, 0), BuildingBlock: EZIPEK_clean_linker_0, # of connection points: 2
#     Edge 105, Type (0, 0), BuildingBlock: EZIPEK_clean_linker_0, # of connection points: 2
#     Edge 106, Type (0, 0), BuildingBlock: EZIPEK_clean_linker_0, # of connection points: 2
#     Edge 107, Type (0, 0), BuildingBlock: EZIPEK_clean_linker_0, # of connection points: 2
# Relax obj value: 0.236
# Max RMSD: 0.293
# Mean RMSD: 0.286
data_MOF--net-umn--node1-TATPOV_clean_sbu_0--edge1-EZIPEK_clean_linker_0
_symmetry_space_group_name_H-M    P1
_symmetry_Int_Tables_number       1
_symmetry_cell_setting            triclinic
loop_
_symmetry_equiv_pos_as_xyz
'x, y, z'
_cell_length_a     60.807268
_cell_length_b     60.808845
_cell_length_c     27.114892
_cell_angle_alpha  89.848833
_cell_angle_beta   90.108664
_cell_angle_gamma 118.92798
loop_
_atom_site_label
_atom_site_type_symbol
_atom_site_fract_x
_atom_site_fract_y
_atom_site_fract_z
_atom_type_partial_charge
Zn0 Zn 0.322 0.05673 0.27884 0.0
Zn1 Zn 0.31755 0.09081 0.23982 0.0
O2 O 0.33169 0.07624 0.18492 0.0
O3 O 0.3331 0.04473 0.22208 0.0
O4 O 0.3221 0.12343 0.21236 0.0
O5 O 0.34575 0.07498 0.33224 0.0
O6 O 0.33242 0.10117 0.31066 0.0
C7 C 0.33634 0.05784 0.18393 0.0
C8 C 0.2708 0.04991 0.27736 0.0
O9 O 0.27961 0.06906 0.24928 0.0
O10 O 0.28509 0.04199 0.29452 0.0
C11 C 0.34331 0.14004 0.19633 0.0
O12 O 0.3624 0.1356 0.1959 0.0
C13 C 0.34326 0.09394 0.34196 0.0
Zn14 Zn 0.96632 0.29616 0.24388 0.0
Zn15 Zn 0.93691 0.25491 0.2008 0.0
O16 O 0.94502 0.28363 0.14891 0.0
O17 O 0.9687 0.31907 0.18773 0.0
O18 O 0.9052 0.22605 0.17597 0.0
O19 O 0.94653 0.29238 0.30553 0.0
O20 O 0.92753 0.2549 0.2736 0.0
C21 C 0.95736 0.30762 0.14901 0.0
C22 C 0.98276 0.2566 0.2314 0.0
O23 O 0.96338 0.24367 0.20513 0.0
O24 O 0.98709 0.27782 0.24828 0.0
C25 C 0.88529 0.22778 0.18051 0.0
O26 O 0.88665 0.24868 0.19713 0.0
C27 C 0.93125 0.26918 0.3104 0.0
Zn28 Zn 0.70285 0.63278 0.23315 0.0
Zn29 Zn 0.74252 0.65588 0.19063 0.0
O30 O 0.71727 0.62402 0.14962 0.0
O31 O 0.68261 0.60173 0.19155 0.0
O32 O 0.77699 0.66288 0.16974 0.0
O33 O 0.71233 0.63671 0.30617 0.0
O34 O 0.74624 0.66354 0.26654 0.0
C35 C 0.69478 0.60569 0.15161 0.0
C36 C 0.71508 0.68107 0.17952 0.0
O37 O 0.73591 0.68322 0.16527 0.0
O38 O 0.7003 0.66257 0.20608 0.0
C39 C 0.79587 0.68479 0.16855 0.0
O40 O 0.79304 0.70441 0.17848 0.0
C41 C 0.73422 0.65553 0.30697 0.0
Zn42 Zn 0.05083 0.34196 0.25706 0.0
Zn43 Zn 0.09467 0.3491 0.26387 0.0
O44 O 0.08831 0.37021 0.31809 0.0
O45 O 0.05082 0.36626 0.30592 0.0
O46 O 0.13221 0.36439 0.26264 0.0
O47 O 0.04884 0.34537 0.18381 0.0
O48 O 0.08456 0.34478 0.19004 0.0
C49 C 0.07093 0.3752 0.33055 0.0
C50 C 0.05738 0.29848 0.2891 0.0
O51 O 0.08095 0.31287 0.28583 0.0
O52 O 0.04233 0.30697 0.28059 0.0
C53 C 0.14284 0.36328 0.30213 0.0
O54 O 0.1291 0.35292 0.34152 0.0
C55 C 0.0664 0.34308 0.16382 0.0
Zn56 Zn 0.60544 0.71901 0.23952 0.0
Zn57 Zn 0.63935 0.74799 0.28799 0.0
O58 O 0.61348 0.71884 0.33329 0.0
O59 O 0.58002 0.6948 0.28964 0.0
O60 O 0.65243 0.78015 0.32592 0.0
O61 O 0.60035 0.73923 0.18441 0.0
O62 O 0.63839 0.75917 0.21478 0.0
C63 C 0.59161 0.69971 0.33043 0.0
C64 C 0.65809 0.72235 0.23975 0.0
O65 O 0.6648 0.73708 0.27668 0.0
O66 O 0.63618 0.71426 0.22186 0.0
C67 C 0.67525 0.7972 0.32725 0.0
O68 O 0.69259 0.79344 0.30631 0.0
C69 C 0.62336 0.75536 0.17899 0.0
Zn70 Zn 0.27515 0.96948 0.28689 0.0
Zn71 Zn 0.23844 0.92768 0.31682 0.0
O72 O 0.26919 0.93627 0.36409 0.0
O73 O 0.30125 0.96918 0.33051 0.0
O74 O 0.21194 0.89285 0.33676 0.0
O75 O 0.27186 0.95974 0.21623 0.0
O76 O 0.24084 0.92355 0.24147 0.0
C77 C 0.29254 0.95264 0.36394 0.0
C78 C 0.23218 0.97329 0.32273 0.0
O79 O 0.22155 0.94954 0.32703 0.0
O80 O 0.25496 0.9856 0.30951 0.0
C81 C 0.19653 0.88872 0.37172 0.0
O82 O 0.19829 0.90753 0.39833 0.0
C83 C 0.2543 0.93793 0.20677 0.0
Zn84 Zn 0.64069 0.95889 0.73955 0.0
Zn85 Zn 0.63655 0.91364 0.72855 0.0
O86 O 0.60933 0.90987 0.77857 0.0
O87 O 0.61198 0.94698 0.78779 0.0
O88 O 0.62872 0.87777 0.7221 0.0
O89 O 0.63849 0.96308 0.66583 0.0
O90 O 0.63936 0.92742 0.6584 0.0
C91 C 0.60226 0.92406 0.79978 0.0
C92 C 0.68443 0.95376 0.77033 0.0
O93 O 0.67165 0.93086 0.7581 0.0
O94 O 0.67532 0.96854 0.76619 0.0
C95 C 0.64652 0.87258 0.71876 0.0
O96 O 0.66939 0.89057 0.70947 0.0
C97 C 0.64056 0.94713 0.63912 0.0
Zn98 Zn 0.00214 0.7166 0.8082 0.0
Zn99 Zn 0.04809 0.7464 0.80625 0.0
O100 O 0.04255 0.71985 0.86089 0.0
O101 O 0.00276 0.69142 0.85442 0.0
O102 O 0.08357 0.7737 0.81344 0.0
O103 O 0.00643 0.71433 0.734 0.0
O104 O 0.04764 0.73342 0.73754 0.0
C105 C 0.02404 0.69885 0.87384 0.0
C106 C 0.00642 0.76231 0.81241 0.0
O107 O 0.02828 0.7661 0.80073 0.0
O108 O 0.99116 0.74125 0.83079 0.0
C109 C 0.09984 0.77253 0.84105 0.0
O110 O 0.09375 0.75243 0.86801 0.0
C111 C 0.02742 0.72206 0.71294 0.0
Zn112 Zn 0.28976 0.37938 0.70656 0.0
Zn113 Zn 0.2569 0.35162 0.77003 0.0
O114 O 0.27365 0.38523 0.80618 0.0
O115 O 0.30922 0.40067 0.76691 0.0
O116 O 0.22717 0.33206 0.81282 0.0
O117 O 0.26421 0.37892 0.65703 0.0
O118 O 0.23953 0.3469 0.70349 0.0
C119 C 0.29736 0.39869 0.80646 0.0
C120 C 0.29327 0.33619 0.733 0.0
O121 O 0.27963 0.3353 0.76947 0.0
O122 O 0.29657 0.35075 0.69702 0.0
C123 C 0.21455 0.30852 0.81913 0.0
O124 O 0.222 0.29355 0.79935 0.0
C125 C 0.24399 0.35833 0.6624 0.0
Zn126 Zn 0.96181 0.68667 0.69478 0.0
Zn127 Zn 0.91492 0.67185 0.70507 0.0
O128 O 0.91633 0.65019 0.64753 0.0
O129 O 0.95636 0.66057 0.64497 0.0
O130 O 0.87931 0.66428 0.7064 0.0
O131 O 0.9614 0.67929 0.76815 0.0
O132 O 0.92022 0.66152 0.773 0.0
C133 C 0.93418 0.64745 0.6295 0.0
C134 C 0.95487 0.72813 0.69004 0.0
O135 O 0.93347 0.71062 0.70349 0.0
O136 O 0.97108 0.7223 0.67506 0.0
C137 C 0.87348 0.67615 0.67523 0.0
O138 O 0.89002 0.69059 0.64231 0.0
C139 C 0.9414 0.6682 0.79305 0.0
Zn140 Zn 0.41252 0.30312 0.73955 0.0
Zn141 Zn 0.38114 0.26169 0.7206 0.0
O142 O 0.40752 0.2746 0.66347 0.0
O143 O 0.4176 0.31419 0.66901 0.0
O144 O 0.36291 0.22478 0.70918 0.0
O145 O 0.39235 0.30197 0.80017 0.0
O146 O 0.38713 0.26375 0.79714 0.0
C147 C 0.41589 0.29614 0.64327 0.0
C148 C 0.36047 0.29488 0.72815 0.0
O149 O 0.35659 0.27464 0.70734 0.0
O150 O 0.38119 0.30829 0.75065 0.0
C151 C 0.33945 0.21101 0.70307 0.0
O152 O 0.3243 0.22071 0.70362 0.0
C153 C 0.38633 0.28122 0.8217 0.0
Zn154 Zn 0.70602 0.05869 0.76587 0.0
Zn155 Zn 0.74189 0.07876 0.70645 0.0
O156 O 0.70968 0.06725 0.66319 0.0
O157 O 0.67883 0.04668 0.71435 0.0
O158 O 0.7703 0.10288 0.66454 0.0
O159 O 0.71468 0.08896 0.80771 0.0
O160 O 0.74994 0.10071 0.76883 0.0
C161 C 0.68606 0.05449 0.67103 0.0
C162 C 0.73938 0.03614 0.76107 0.0
O163 O 0.74862 0.04995 0.72318 0.0
O164 O 0.72212 0.03734 0.78521 0.0
C165 C 0.78605 0.09876 0.64143 0.0
O166 O 0.78329 0.07598 0.63985 0.0
C167 C 0.73803 0.10382 0.80418 0.0
Zn168 Zn 0.04121 0.41451 0.61152 0.0
Zn169 Zn 0.00693 0.41653 0.55816 0.0
O170 O 0.03129 0.41351 0.50876 0.0
O171 O 0.06093 0.41227 0.55335 0.0
O172 O 0.98784 0.42899 0.51738 0.0
O173 O 0.0512 0.44619 0.65046 0.0
O174 O 0.01633 0.44059 0.61668 0.0
C175 C 0.05119 0.41153 0.51167 0.0
C176 C 0.98801 0.37323 0.62365 0.0
O177 O 0.98281 0.38286 0.58676 0.0
O178 O 0.01063 0.38289 0.63858 0.0
C179 C 0.97036 0.43142 0.53783 0.0
O180 O 0.96337 0.42201 0.58227 0.0
C181 C 0.03325 0.45117 0.64925 0.0
Zn182 Zn 0.5732 0.61729 0.58949 0.0
Zn183 Zn 0.56035 0.57887 0.53686 0.0
O184 O 0.5609 0.60724 0.49115 0.0
O185 O 0.56845 0.63939 0.53858 0.0
O186 O 0.5384 0.54592 0.50416 0.0
O187 O 0.55244 0.6014 0.65112 0.0
O188 O 0.54956 0.56954 0.60971 0.0
C189 C 0.56454 0.62969 0.496 0.0
C190 C 0.61138 0.6008 0.56544 0.0
O191 O 0.59506 0.58365 0.53856 0.0
O192 O 0.60623 0.61597 0.58827 0.0
C193 C 0.54597 0.53059 0.49164 0.0
O194 O 0.57 0.53737 0.49341 0.0
C195 C 0.54668 0.57838 0.65014 0.0
Zn196 Zn 0.36944 0.97923 0.62834 0.0
Zn197 Zn 0.40743 0.98317 0.58863 0.0
O198 O 0.37932 0.97092 0.53316 0.0
O199 O 0.34743 0.97151 0.57026 0.0
O200 O 0.43445 0.97593 0.56358 0.0
O201 O 0.36293 0.95332 0.67892 0.0
O202 O 0.40245 0.96845 0.65934 0.0
C203 C 0.35703 0.96805 0.53185 0.0
C204 C 0.41435 0.02941 0.6319 0.0
O205 O 0.4238 0.021 0.60023 0.0
O206 O 0.39254 0.01518 0.64891 0.0
C207 C 0.45532 0.99261 0.5463 0.0
O208 O 0.45939 0.01573 0.54039 0.0
C209 C 0.38461 0.95689 0.68985 0.0
Zn210 Zn 0.72744 0.71506 0.56246 0.0
Zn211 Zn 0.7571 0.70169 0.60202 0.0
O212 O 0.755 0.72696 0.65141 0.0
O213 O 0.73001 0.7393 0.61726 0.0
O214 O 0.78603 0.6979 0.62473 0.0
O215 O 0.74262 0.72245 0.49327 0.0
O216 O 0.76189 0.70384 0.52633 0.0
C217 C 0.74304 0.73935 0.65383 0.0
C218 C 0.70659 0.66169 0.59347 0.0
O219 O 0.72781 0.66752 0.61209 0.0
O220 O 0.70266 0.67802 0.57194 0.0
C221 C 0.78502 0.68592 0.66375 0.0
O222 O 0.76488 0.67659 0.69168 0.0
C223 C 0.75603 0.71186 0.48782 0.0
Zn224 Zn 0.32952 0.03435 0.60069 0.0
Zn225 Zn 0.32559 0.06886 0.64981 0.0
O226 O 0.29984 0.03476 0.68174 0.0
O227 O 0.30274 0.00571 0.63955 0.0
O228 O 0.31739 0.09434 0.67825 0.0
O229 O 0.32401 0.04473 0.53365 0.0
O230 O 0.32616 0.07659 0.57551 0.0
C231 C 0.29252 0.01152 0.67402 0.0
C232 C 0.37516 0.07181 0.65293 0.0
O233 O 0.36182 0.08072 0.67075 0.0
O234 O 0.36552 0.05285 0.62465 0.0
C235 C 0.33153 0.11648 0.66256 0.0
O236 O 0.34974 0.12062 0.63164 0.0
C237 C 0.32548 0.06619 0.53451 0.0
Zn238 Zn 0.97729 0.25294 0.57945 0.0
Zn239 Zn 0.93145 0.22294 0.60702 0.0
O240 O 0.95534 0.21433 0.64635 0.0
O241 O 0.99342 0.23586 0.61746 0.0
O242 O 0.89786 0.1931 0.61958 0.0
O243 O 0.9702 0.25019 0.50629 0.0
O244 O 0.93125 0.22815 0.53221 0.0
C245 C 0.97835 0.21975 0.64772 0.0
C246 C 0.95053 0.27491 0.63583 0.0
O247 O 0.93158 0.25305 0.63798 0.0
O248 O 0.97074 0.2786 0.61512 0.0
C249 C 0.8783 0.18859 0.59508 0.0
O250 O 0.8793 0.20454 0.56124 0.0
C251 C 0.94685 0.23899 0.4975 0.0
Zn252 Zn 0.35506 0.31915 0.08968 0.0
Zn253 Zn 0.36642 0.28653 0.12803 0.0
O254 O 0.33976 0.28854 0.17422 0.0
O255 O 0.33095 0.31673 0.14267 0.0
O256 O 0.36772 0.25603 0.15327 0.0
O257 O 0.34438 0.30153 0.0234 0.0
O258 O 0.36114 0.27952 0.0537 0.0
C259 C 0.32813 0.30129 0.1766 0.0
C260 C 0.4088 0.33785 0.11585 0.0
O261 O 0.40225 0.31604 0.13303 0.0
O262 O 0.39253 0.34299 0.0979 0.0
C263 C 0.35095 0.23476 0.13768 0.0
O264 O 0.33377 0.23353 0.1067 0.0
C265 C 0.3524 0.28601 0.01722 0.0
Zn266 Zn 0.76051 0.06411 0.04737 0.0
Zn267 Zn 0.75781 0.09356 0.10286 0.0
O268 O 0.76507 0.06835 0.14082 0.0
O269 O 0.7731 0.04525 0.09043 0.0
O270 O 0.77629 0.12592 0.13922 0.0
O271 O 0.77489 0.08297 0.9842 0.0
O272 O 0.76453 0.10596 0.03058 0.0
C273 C 0.77043 0.05075 0.13422 0.0
C274 C 0.70977 0.05799 0.07862 0.0
O275 O 0.72041 0.0768 0.1074 0.0
O276 O 0.72287 0.05144 0.05223 0.0
C277 C 0.79952 0.13445 0.13013 0.0
O278 O 0.80659 0.12093 0.10352 0.0
C279 C 0.77024 0.10107 0.98847 0.0
Zn280 Zn 0.96315 0.66271 0.09889 0.0
Zn281 Zn 0.92776 0.67614 0.10085 0.0
O282 O 0.95493 0.69937 0.15161 0.0
O283 O 0.98396 0.68772 0.1496 0.0
O284 O 0.90177 0.68754 0.1027 0.0
O285 O 0.96888 0.66984 0.02622 0.0
O286 O 0.93746 0.67832 0.02824 0.0
C287 C 0.97572 0.70156 0.16719 0.0
C288 C 0.91332 0.62209 0.12134 0.0
O289 O 0.9065 0.63868 0.11653 0.0
O290 O 0.93633 0.62806 0.11804 0.0
C291 C 0.88846 0.68221 0.14149 0.0
O292 O 0.89352 0.67157 0.17881 0.0
C293 C 0.95343 0.67477 0.00408 0.0
Zn294 Zn 0.56383 0.93496 0.07469 0.0
Zn295 Zn 0.55561 0.96537 0.04192 0.0
O296 O 0.5573 0.94191 0.98789 0.0
O297 O 0.55397 0.90796 0.02306 0.0
O298 O 0.52767 0.97218 0.02579 0.0
O299 O 0.55302 0.92911 0.14574 0.0
O300 O 0.55768 0.9652 0.11891 0.0
C301 C 0.55632 0.92057 0.98436 0.0
C302 C 0.60475 0.99004 0.04892 0.0
O303 O 0.58836 0.99491 0.0305 0.0
O304 O 0.59819 0.96817 0.06608 0.0
C305 C 0.52626 0.99019 0.04618 0.0
O306 O 0.54441 0.00582 0.07517 0.0
C307 C 0.55623 0.95091 0.15461 0.0
Zn308 Zn 0.99125 0.60575 0.10834 0.0
Zn309 Zn 0.98374 0.57081 0.05074 0.0
O310 O 0.0053 0.6045 0.0121 0.0
O311 O 0.00914 0.63426 0.06204 0.0
O312 O 0.98911 0.54475 0.01554 0.0
O313 O 0.00929 0.59888 0.16238 0.0
O314 O 0.9915 0.5637 0.12103 0.0
C315 C 0.01376 0.62789 0.02069 0.0
C316 C 0.93805 0.56937 0.08394 0.0
O317 O 0.94635 0.56048 0.05082 0.0
O318 O 0.95325 0.58719 0.11129 0.0
C319 C 0.00996 0.54562 0.02582 0.0
O320 O 0.02655 0.56412 0.05286 0.0
C321 C 0.00216 0.57566 0.15995 0.0
Zn322 Zn 0.38068 0.38733 0.03384 0.0
Zn323 Zn 0.40217 0.43479 0.05391 0.0
O324 O 0.37781 0.43154 0.99645 0.0
O325 O 0.3566 0.39061 0.98688 0.0
O326 O 0.42544 0.47174 0.06089 0.0
O327 O 0.3767 0.38408 0.10953 0.0
O328 O 0.38581 0.42344 0.12104 0.0
C329 C 0.36038 0.41234 0.97504 0.0
C330 C 0.43054 0.40437 0.03016 0.0
O331 O 0.42823 0.42209 0.05006 0.0
O332 O 0.4118 0.38725 0.00781 0.0
C333 C 0.44282 0.48025 0.02889 0.0
O334 O 0.44195 0.46578 0.99224 0.0
C335 C 0.37965 0.40174 0.13829 0.0
Zn336 Zn 0.70071 0.76641 0.92775 0.0
Zn337 Zn 0.67044 0.7722 0.87985 0.0
O338 O 0.69846 0.77243 0.83476 0.0
O339 O 0.72949 0.77464 0.87939 0.0
O340 O 0.65905 0.79333 0.84351 0.0
O341 O 0.70159 0.78324 0.99345 0.0
O342 O 0.6674 0.77748 0.95556 0.0
C343 C 0.71994 0.77362 0.83731 0.0
C344 C 0.64998 0.72214 0.89832 0.0
O345 O 0.64449 0.73686 0.87468 0.0
O346 O 0.67074 0.73036 0.92121 0.0
C347 C 0.64919 0.78731 0.80093 0.0
O348 O 0.64444 0.7657 0.78144 0.0
C349 C 0.68006 0.78172 0.99531 0.0
Zn350 Zn 0.28539 0.93102 0.91577 0.0
Zn351 Zn 0.23951 0.89725 0.90298 0.0
O352 O 0.24779 0.92213 0.84377 0.0
O353 O 0.28548 0.95323 0.86075 0.0
O354 O 0.20494 0.87014 0.88901 0.0
O355 O 0.27544 0.93444 0.98612 0.0
O356 O 0.23532 0.91011 0.96935 0.0
C357 C 0.26625 0.94367 0.83337 0.0
C358 C 0.28118 0.88289 0.91309 0.0
O359 O 0.25809 0.87694 0.91546 0.0
O360 O 0.29718 0.90553 0.90427 0.0
C361 C 0.20009 0.85663 0.85076 0.0
O362 O 0.21785 0.86136 0.81829 0.0
C363 C 0.2526 0.92389 0.99927 0.0
Zn364 Zn 0.02929 0.29221 0.87098 0.0
Zn365 Zn 0.07086 0.29054 0.87342 0.0
O366 O 0.0453 0.26061 0.83147 0.0
O367 O 0.00848 0.25808 0.83997 0.0
O368 O 0.10053 0.28484 0.86936 0.0
O369 O 0.03231 0.29941 0.94438 0.0
O370 O 0.06565 0.29401 0.9472 0.0
C371 C 0.02181 0.24916 0.82262 0.0
C372 C 0.07049 0.33518 0.82597 0.0
O373 O 0.08319 0.32539 0.84336 0.0
O374 O 0.04668 0.32314 0.82792 0.0
C375 C 0.12233 0.30102 0.88332 0.0
O376 O 0.12564 0.32164 0.90521 0.0
C377 C 0.0503 0.29961 0.96833 0.0
Zn378 Zn 0.34034 0.96682 0.95925 0.0
Zn379 Zn 0.38181 0.97449 0.99918 0.0
O380 O 0.37088 0.99812 0.03478 0.0
O381 O 0.3381 0.99463 0.99372 0.0
O382 O 0.41607 0.98522 0.0262 0.0
O383 O 0.35322 0.97036 0.8899 0.0
O384 O 0.38821 0.97586 0.92451 0.0
C385 C 0.35396 0.00454 0.02802 0.0
C386 C 0.33847 0.92277 0.00769 0.0
O387 O 0.36173 0.93709 0.01569 0.0
O388 O 0.32534 0.93168 0.98873 0.0
C389 C 0.42799 0.9752 0.0066 0.0
O390 O 0.41736 0.95842 0.97161 0.0
C391 C 0.37509 0.97297 0.88607 0.0
Zn392 Zn 0.9905 0.38097 0.87488 0.0
Zn393 Zn 0.01842 0.42008 0.92773 0.0
O394 O 0.997 0.39121 0.97597 0.0
O395 O 0.96724 0.36117 0.93201 0.0
O396 O 0.03223 0.45177 0.968 0.0
O397 O 0.98745 0.40203 0.81979 0.0
O398 O 0.00391 0.43253 0.87346 0.0
C399 C 0.97741 0.36969 0.97351 0.0
C400 C 0.04413 0.39662 0.87394 0.0
O401 O 0.04725 0.41581 0.89833 0.0
O402 O 0.02222 0.37896 0.86462 0.0
C403 C 0.0144 0.45604 0.97986 0.0
O404 O 0.99109 0.43866 0.97175 0.0
C405 C 0.99699 0.42515 0.82979 0.0
Zn406 Zn 0.6188 0.57554 0.89065 0.0
Zn407 Zn 0.58209 0.56575 0.94445 0.0
O408 O 0.61106 0.56573 0.98646 0.0
O409 O 0.63667 0.56175 0.9351 0.0
O410 O 0.55067 0.54895 0.98484 0.0
O411 O 0.60011 0.5624 0.82593 0.0
O412 O 0.56784 0.55228 0.87457 0.0
C413 C 0.6308 0.56384 0.97902 0.0
C414 C 0.61138 0.61806 0.91942 0.0
O415 O 0.59102 0.60172 0.93888 0.0
O416 O 0.62675 0.61185 0.90092 0.0
C417 C 0.54078 0.56008 0.00806 0.0
O418 O 0.55265 0.58466 0.01193 0.0
C419 C 0.57683 0.55469 0.83124 0.0
Zn420 Zn 0.99352 0.61178 0.41371 0.0
Zn421 Zn 0.99082 0.57449 0.46599 0.0
O422 O 0.96474 0.58388 0.49436 0.0
O423 O 0.96499 0.61316 0.44703 0.0
O424 O 0.98068 0.54131 0.49813 0.0
O425 O 0.98929 0.59424 0.34958 0.0
O426 O 0.98914 0.5638 0.39387 0.0
C427 C 0.95575 0.59836 0.48324 0.0
C428 C 0.03951 0.62176 0.46805 0.0
O429 O 0.02767 0.59917 0.48361 0.0
O430 O 0.02873 0.63062 0.44072 0.0
C431 C 0.99229 0.52944 0.48677 0.0
O432 O 0.0126 0.54057 0.45939 0.0
C433 C 0.98881 0.57328 0.35229 0.0
Zn434 Zn 0.37567 0.3475 0.42797 0.0
Zn435 Zn 0.41918 0.38906 0.43769 0.0
O436 O 0.42509 0.36033 0.46444 0.0
O437 O 0.38962 0.32568 0.4535 0.0
O438 O 0.45336 0.41902 0.43583 0.0
O439 O 0.37324 0.3531 0.35483 0.0
O440 O 0.40625 0.38962 0.36816 0.0
C441 C 0.41224 0.33646 0.46794 0.0
C442 C 0.37701 0.38679 0.49467 0.0
O443 O 0.40018 0.39931 0.48442 0.0
O444 O 0.36361 0.36513 0.47618 0.0
C445 C 0.46289 0.43063 0.47566 0.0
O446 O 0.45123 0.42146 0.51762 0.0
C447 C 0.38874 0.37481 0.33957 0.0
Zn448 Zn 0.61461 0.96941 0.42514 0.0
Zn449 Zn 0.57387 0.96906 0.44743 0.0
O450 O 0.60058 0.99039 0.50123 0.0
O451 O 0.63644 0.99375 0.47626 0.0
O452 O 0.54258 0.96977 0.46846 0.0
O453 O 0.61045 0.97988 0.35607 0.0
O454 O 0.57887 0.98491 0.37987 0.0
C455 C 0.62421 -0.00096 0.50713 0.0
C456 C 0.57609 0.92037 0.42809 0.0
O457 O 0.5635 0.93202 0.43182 0.0
O458 O 0.59954 0.93227 0.43574 0.0
C459 C 0.53612 0.96981 0.51291 0.0
O460 O 0.54939 0.96754 0.5489 0.0
C461 C 0.59364 0.98583 0.3459 0.0
Zn462 Zn 0.25867 0.31484 0.43626 0.0
Zn463 Zn 0.25775 0.34898 0.38838 0.0
O464 O 0.27069 0.33026 0.34154 0.0
O465 O 0.26705 0.29736 0.38193 0.0
O466 O 0.23893 0.36113 0.34631 0.0
O467 O 0.22569 0.29933 0.47302 0.0
O468 O 0.23375 0.33644 0.44807 0.0
C469 C 0.27338 0.3107 0.34329 0.0
C470 C 0.29529 0.37052 0.4589 0.0
O471 O 0.2876 0.37693 0.42066 0.0
O472 O 0.28639 0.34727 0.46916 0.0
C473 C 0.2422 0.3833 0.34235 0.0
O474 O 0.26253 0.40232 0.36048 0.0
C475 C 0.2219 0.31797 0.47711 0.0
Zn476 Zn 0.66351 0.96975 0.3302 0.0
Zn477 Zn 0.68132 0.938 0.34661 0.0
O478 O 0.70684 0.96437 0.29817 0.0
O479 O 0.694 0.99228 0.28817 0.0
O480 O 0.6919 0.91139 0.34743 0.0
O481 O 0.66297 0.97181 0.40563 0.0
O482 O 0.68208 0.94922 0.41765 0.0
C483 C 0.70968 0.98475 0.27909 0.0
C484 C 0.6263 0.92012 0.3118 0.0
O485 O 0.64398 0.91686 0.32911 0.0
O486 O 0.63084 0.94224 0.3011 0.0
C487 C 0.68 0.89167 0.37335 0.0
O488 O 0.6628 0.89012 0.40448 0.0
C489 C 0.6717 0.9615 0.43461 0.0
Zn490 Zn 0.03729 0.69813 0.40994 0.0
Zn491 Zn 0.07102 0.7432 0.4211 0.0
O492 O 0.05201 0.74285 0.35617 0.0
O493 O 0.02026 0.70435 0.35377 0.0
O494 O 0.09933 0.77887 0.424 0.0
O495 O 0.02536 0.69807 0.47927 0.0
O496 O 0.05064 0.73855 0.48381 0.0
C497 C 0.03181 0.72623 0.33592 0.0
C498 C 0.08315 0.69953 0.41784 0.0
O499 O 0.08908 0.72195 0.42994 0.0
O500 O 0.06183 0.68565 0.39887 0.0
C501 C 0.11473 0.78704 0.38824 0.0
O502 O 0.112 0.77212 0.35107 0.0
C503 C 0.03318 0.71844 0.50271 0.0
C504 C 0.22598 0.00606 0.3587 0.0
C505 C 0.2178 0.98697 0.32303 0.0
C506 C 0.22777 0.01747 0.25738 0.0
C507 C 0.24404 0.03582 0.29107 0.0
N508 N 0.25061 0.05113 0.37393 0.0
N509 N 0.19711 0.97323 0.24551 0.0
C510 C 0.23944 0.03139 0.34223 0.0
C511 C 0.21298 0.99249 0.27502 0.0
N512 N 0.22379 -0.00051 0.40719 0.0
N513 N 0.22885 0.02347 0.20869 0.0
H514 H 0.18769 0.95485 0.25911 0.0
H515 H 0.19243 0.97565 0.20971 0.0
H516 H 0.23984 0.04196 0.19654 0.0
H517 H 0.21914 0.01046 0.18112 0.0
H518 H 0.23038 0.01229 0.43613 0.0
H519 H 0.2147 0.98056 0.41758 0.0
H520 H 0.24879 0.04949 0.41209 0.0
H521 H 0.26115 0.06948 0.36063 0.0
C522 C 0.02617 0.25869 0.32191 0.0
C523 C 0.04641 0.27094 0.28906 0.0
C524 C 0.01902 0.24909 0.22003 0.0
C525 C -0.00109 0.2464 0.24986 0.0
N526 N 0.98056 0.23775 0.33048 0.0
N527 N 0.06457 0.26655 0.21433 0.0
C528 C 0.00151 0.24654 0.30179 0.0
C529 C 0.04358 0.26114 0.24092 0.0
N530 N 0.03081 0.26201 0.3712 0.0
N531 N 0.01453 0.24169 0.17206 0.0
H532 H 0.08236 0.27627 0.23049 0.0
H533 H 0.06433 0.26098 0.178 0.0
H534 H 0.99625 0.2329 0.15801 0.0
H535 H 0.02841 0.24372 0.14723 0.0
H536 H 0.017 0.25413 0.39822 0.0
H537 H 0.04923 0.27231 0.38423 0.0
H538 H 0.98084 0.23842 0.36883 0.0
H539 H 0.96265 0.2293 0.31461 0.0
C540 C 0.68206 0.68952 0.15451 0.0
C541 C 0.70722 0.69996 0.16925 0.0
C542 C 0.70213 0.7318 0.2145 0.0
C543 C 0.67557 0.71549 0.21442 0.0
N544 N 0.64132 0.67451 0.19 0.0
N545 N 0.74272 0.73338 0.21007 0.0
C546 C 0.66558 0.69328 0.18514 0.0
C547 C 0.71794 0.72222 0.19749 0.0
N548 N 0.6736 0.67351 0.11551 0.0
N549 N 0.71225 0.75636 0.22831 0.0
H550 H 0.75476 0.72725 0.19592 0.0
H551 H 0.75077 0.7479 0.23572 0.0
H552 H 0.70139 0.76498 0.23541 0.0
H553 H 0.73143 0.76895 0.22596 0.0
H554 H 0.65522 0.66581 0.10238 0.0
H555 H 0.6861 0.67066 0.0937 0.0
H556 H 0.63428 0.65769 0.17047 0.0
H557 H 0.62953 0.67385 0.21844 0.0
C558 C 0.71981 0.9789 0.82416 0.0
C559 C 0.71151 0.96513 0.78002 0.0
C560 C 0.74433 -0.0001 0.7343 0.0
C561 C 0.7448 0.01544 0.77323 0.0
N562 N 0.74558 0.02022 0.8608 0.0
N563 N 0.7224 0.95775 0.69932 0.0
C564 C 0.73755 0.00482 0.82076 0.0
C565 C 0.72685 0.97385 0.73758 0.0
N566 N 0.70826 0.96774 0.86722 0.0
N567 N 0.75937 0.01037 0.6943 0.0
H568 H 0.70943 0.93868 0.70271 0.0
H569 H 0.7315 0.96301 0.66543 0.0
H570 H 0.77268 0.02943 0.69374 0.0
H571 H 0.75995 0.00019 0.66404 0.0
H572 H 0.71203 0.97695 0.901 0.0
H573 H 0.69477 0.94873 0.86811 0.0
H574 H 0.74103 0.01399 0.89704 0.0
H575 H 0.75804 0.03942 0.85669 0.0
C576 C 0.96987 0.76814 0.79347 0.0
C577 C 0.99569 0.77652 0.78592 0.0
C578 C 0.98882 0.77239 0.69749 0.0
C579 C 0.96375 0.75426 0.70814 0.0
N580 N 0.92794 0.74727 0.75661 0.0
N581 N 0.02969 0.80223 0.73199 0.0
C582 C 0.95328 0.75693 0.75287 0.0
C583 C 0.00511 0.78475 0.73788 0.0
N584 N 0.96168 0.76858 0.83992 0.0
N585 N 0.99693 0.77572 0.64992 0.0
H586 H 0.04115 0.81056 0.76267 0.0
H587 H 0.03804 0.80915 0.69788 0.0
H588 H 0.9845 0.76599 0.62126 0.0
H589 H 0.01525 0.78809 0.63916 0.0
H590 H 0.94292 0.7619 0.84919 0.0
H591 H 0.97449 0.77625 0.86899 0.0
H592 H 0.91885 0.74801 0.78851 0.0
H593 H 0.91635 0.73966 0.72581 0.0
C594 C 0.31677 0.28849 0.74341 0.0
C595 C 0.34183 0.30374 0.72664 0.0
C596 C 0.33559 0.34029 0.72576 0.0
C597 C 0.30966 0.32464 0.73545 0.0
N598 N 0.27453 0.28302 0.74626 0.0
N599 N 0.3726 0.34256 0.68888 0.0
C600 C 0.29985 0.29843 0.74232 0.0
C601 C 0.35047 0.32916 0.71377 0.0
N602 N 0.30943 0.26514 0.76244 0.0
N603 N 0.34631 0.36583 0.72991 0.0
H604 H 0.38353 0.33464 0.67701 0.0
H605 H 0.37852 0.36059 0.67517 0.0
H606 H 0.33641 0.37481 0.74205 0.0
H607 H 0.36562 0.37777 0.72711 0.0
H608 H 0.29215 0.25438 0.77966 0.0
H609 H 0.32141 0.25744 0.76509 0.0
H610 H 0.26627 0.26349 0.74631 0.0
H611 H 0.26165 0.28971 0.74539 0.0
C612 C 0.94638 0.33331 0.61967 0.0
C613 C 0.96883 0.34889 0.64544 0.0
C614 C 0.96621 0.31253 0.68858 0.0
C615 C 0.94907 0.2972 0.65198 0.0
N616 N 0.91897 0.29148 0.58839 0.0
N617 N 0.98986 0.35449 0.72325 0.0
C618 C 0.93725 0.30698 0.62039 0.0
C619 C 0.97536 0.33884 0.68655 0.0
N620 N 0.93364 0.34361 0.59628 0.0
N621 N 0.97492 0.30197 0.72252 0.0
H622 H 0.99496 0.37355 0.72331 0.0
H623 H 0.99455 0.34837 0.75548 0.0
H624 H 0.96752 0.28252 0.72512 0.0
H625 H 0.98954 0.31226 0.74698 0.0
H626 H 0.91633 0.33303 0.57905 0.0
H627 H 0.93886 0.36259 0.60001 0.0
H628 H 0.91209 0.29796 0.55988 0.0
H629 H 0.91124 0.272 0.58951 0.0
C630 C 0.65346 0.61035 0.53272 0.0
C631 C 0.63648 0.60339 0.57276 0.0
C632 C 0.67078 0.62453 0.63128 0.0
C633 C 0.68683 0.63548 0.59058 0.0
N634 N 0.69725 0.63186 0.50691 0.0
N635 N 0.62901 0.59394 0.65911 0.0
C636 C 0.67941 0.62549 0.54271 0.0
C637 C 0.64538 0.60677 0.62194 0.0
N638 N 0.64472 0.60451 0.48552 0.0
N639 N 0.67934 0.63276 0.67781 0.0
H640 H 0.61024 0.58094 0.65188 0.0
H641 H 0.63436 0.59455 0.6958 0.0
H642 H 0.6982 0.64541 0.68485 0.0
H643 H 0.66786 0.62755 0.70886 0.0
H644 H 0.656 0.61177 0.45444 0.0
H645 H 0.62591 0.59246 0.47734 0.0
H646 H 0.69352 0.6243 0.47153 0.0
H647 H 0.71633 0.6433 0.51457 0.0
C648 C 0.40827 0.07291 0.70489 0.0
C649 C 0.40218 0.08291 0.66355 0.0
C650 C 0.42916 0.0738 0.61146 0.0
C651 C 0.42679 0.056 0.64739 0.0
N652 N 0.42764 0.0482 0.73361 0.0
N653 N 0.41764 0.10576 0.58845 0.0
C654 C 0.42198 0.05986 0.69672 0.0
C655 C 0.41732 0.08856 0.62105 0.0
N656 N 0.39825 0.07332 0.74952 0.0
N657 N 0.44017 0.07444 0.56741 0.0
H658 H 0.40766 0.11536 0.59584 0.0
H659 H 0.42848 0.11124 0.55652 0.0
H660 H 0.44912 0.06371 0.56159 0.0
H661 H 0.44072 0.08557 0.53772 0.0
H662 H 0.40032 0.06476 0.78115 0.0
H663 H 0.38783 0.08271 0.75396 0.0
H664 H 0.4246 0.04991 0.77083 0.0
H665 H 0.43672 0.03776 0.72583 0.0
C666 C 0.4509 0.37777 0.02765 0.0
C667 C 0.45001 0.39835 0.04933 0.0
C668 C 0.44514 0.37931 0.12997 0.0
C669 C 0.43535 0.35602 0.10577 0.0
N670 N 0.44088 0.33395 0.0383 0.0
N671 N 0.46494 0.42494 0.12017 0.0
C672 C 0.44327 0.35577 0.05691 0.0
C673 C 0.45424 0.40143 0.10063 0.0
N674 N 0.45688 0.37903 0.97906 0.0
N675 N 0.44382 0.37963 0.17991 0.0
H676 H 0.47104 0.44067 0.09728 0.0
H677 H 0.46923 0.42875 0.15741 0.0
H678 H 0.43644 0.36298 0.20037 0.0
H679 H 0.45058 0.39607 0.20012 0.0
H680 H 0.45846 0.36495 0.96041 0.0
H681 H 0.4614 0.39527 0.9586 0.0
H682 H 0.44577 0.33203 0.00247 0.0
H683 H 0.43453 0.31795 0.06047 0.0
C684 C 0.64952 0.00098 0.04959 0.0
C685 C 0.63149 0.00926 0.05307 0.0
C686 C 0.66532 0.05153 0.07255 0.0
C687 C 0.68226 0.04178 0.07662 0.0
N688 N 0.687 0.00469 0.08685 0.0
N689 N 0.62203 0.0417 0.08143 0.0
C690 C 0.67324 0.01566 0.07094 0.0
C691 C 0.63919 0.03438 0.0683 0.0
N692 N 0.64438 0.97948 0.02481 0.0
N693 N 0.67386 0.07682 0.07098 0.0
H694 H 0.60275 0.02961 0.08232 0.0
H695 H 0.62726 0.05923 0.09687 0.0
H696 H 0.69282 0.09012 0.07291 0.0
H697 H 0.66212 0.08442 0.06312 0.0
H698 H 0.65786 0.97381 0.01922 0.0
H699 H 0.62786 0.96928 0.00465 0.0
H700 H 0.68007 0.98529 0.08594 0.0
H701 H 0.70379 0.01456 0.10642 0.0
C702 C 0.89182 0.58691 0.06659 0.0
C703 C 0.8951 0.59522 0.11605 0.0
C704 C 0.90347 0.56135 0.1388 0.0
C705 C 0.91113 0.5617 0.08946 0.0
N706 N 0.90209 0.565 0.00443 0.0
N707 N 0.89348 0.58421 0.20089 0.0
C708 C 0.90079 0.57032 0.05266 0.0
C709 C 0.89619 0.57942 0.15292 0.0
N710 N 0.88381 0.59741 0.03159 0.0
N711 N 0.90665 0.54629 0.17201 0.0
H712 H 0.88886 0.59818 0.20991 0.0
H713 H 0.89568 0.57462 0.23071 0.0
H714 H 0.91327 0.53414 0.16059 0.0
H715 H 0.90177 0.54502 0.20907 0.0
H716 H 0.87789 0.6105 0.04017 0.0
H717 H 0.87789 0.6105 0.04017 0.0
H718 H 0.8957 0.57211 0.97604 0.0
H719 H 0.90899 0.55293 0.99406 0.0
C720 C 0.62082 0.6541 0.86398 0.0
C721 C 0.61598 0.64386 0.91243 0.0
C722 C 0.62269 0.68387 0.94521 0.0
C723 C 0.6329 0.6951 0.89925 0.0
N724 N 0.64216 0.69165 0.8141 0.0
N725 N 0.61326 0.64912 1.00023 0.0
C726 C 0.63167 0.6804 0.85801 0.0
C727 C 0.61662 0.65858 0.95339 0.0
N728 N 0.61474 0.63866 0.82384 0.0
N729 N 0.61903 0.69757 0.98087 0.0
H730 H 0.60939 0.63081 0.00808 0.0
H731 H 0.61634 0.66008 0.03163 0.0
H732 H 0.62335 0.71623 0.97522 0.0
H733 H 0.60931 0.68969 0.01344 0.0
H734 H 0.61566 0.64495 0.78773 0.0
H735 H 0.6064 0.61916 0.82673 0.0
H736 H 0.64476 0.68213 0.78474 0.0
H737 H 0.64962 0.71088 0.80795 0.0
C738 C 0.3036 0.88039 0.02294 0.0
C739 C 0.3281 0.89526 0.00422 0.0
C740 C 0.31487 0.87256 0.92671 0.0
C741 C 0.29029 0.86722 0.93884 0.0
N742 N 0.26057 0.84823 0.00405 0.0
N743 N 0.35867 0.89507 0.94746 0.0
C744 C 0.28444 0.86435 0.98955 0.0
C745 C 0.33439 0.88702 0.96023 0.0
N746 N 0.29868 0.88369 0.07042 0.0
N747 N 0.31966 0.86625 0.88156 0.0
H748 H 0.37366 0.90611 0.97078 0.0
H749 H 0.37366 0.90611 0.97078 0.0
H750 H 0.30511 0.85645 0.85643 0.0
H751 H 0.33779 0.87066 0.87051 0.0
H752 H 0.28087 0.87428 0.08605 0.0
H753 H 0.31307 0.89609 0.09364 0.0
H754 H 0.25527 0.84436 0.0409 0.0
H755 H 0.24681 0.83753 0.97809 0.0
C756 C 0.07025 0.3709 0.78417 0.0
C757 C 0.08224 0.36265 0.81824 0.0
C758 C 0.08274 0.39162 0.8803 0.0
C759 C 0.06525 0.39488 0.85097 0.0
N760 N 0.05147 0.39772 0.76921 0.0
N761 N 0.11309 0.37638 0.88252 0.0
C762 C 0.06266 0.3884 0.80026 0.0
C763 C 0.09346 0.37738 0.86048 0.0
N764 N 0.06368 0.35958 0.73919 0.0
N765 N 0.08738 0.40014 0.92766 0.0
H766 H 0.12081 0.36589 0.86726 0.0
H767 H 0.12295 0.3877 0.91226 0.0
H768 H 0.08012 0.41113 0.94236 0.0
H769 H 0.09781 0.39572 0.95236 0.0
H770 H 0.05255 0.36258 0.71376 0.0
H771 H 0.06936 0.34661 0.7284 0.0
H772 H 0.04963 0.39445 0.73138 0.0
H773 H 0.04572 0.41041 0.78155 0.0
C774 C 0.09538 0.66677 0.41449 0.0
C775 C 0.09538 0.68641 0.44197 0.0
C776 C 0.07378 0.6578 0.50948 0.0
C777 C 0.0667 0.63789 0.47574 0.0
N778 N 0.07962 0.62155 0.4084 0.0
N779 N 0.09932 0.70283 0.52358 0.0
C780 C 0.08144 0.64184 0.43304 0.0
C781 C 0.0904 0.68261 0.49301 0.0
N782 N 0.10576 0.67193 0.36862 0.0
N783 N 0.06235 0.65307 0.55435 0.0
H784 H 0.11107 0.72094 0.51022 0.0
H785 H 0.09676 0.70135 0.56166 0.0
H786 H 0.05004 0.63468 0.56555 0.0
H787 H 0.06462 0.66707 0.57915 0.0
H788 H 0.10484 0.65834 0.34418 0.0
H789 H 0.11525 0.69043 0.35563 0.0
H790 H 0.08989 0.62279 0.37686 0.0
H791 H 0.0686 0.60341 0.42235 0.0
C792 C 0.33661 0.41031 0.46855 0.0
C793 C 0.31618 0.38902 0.49004 0.0
C794 C 0.3441 0.38481 0.54876 0.0
C795 C 0.36383 0.39935 0.51609 0.0
N796 N 0.38228 0.43639 0.46598 0.0
N797 N 0.29939 0.36692 0.56602 0.0
C798 C 0.36124 0.41625 0.4839 0.0
C799 C 0.31967 0.38047 0.5365 0.0
N800 N 0.33241 0.42379 0.43315 0.0
N801 N 0.34857 0.373 0.58713 0.0
H802 H 0.28154 0.36398 0.55616 0.0
H803 H 0.30056 0.36033 0.60082 0.0
H804 H 0.36678 0.37628 0.59457 0.0
H805 H 0.33467 0.3602 0.61047 0.0
H806 H 0.34657 0.43823 0.4129 0.0
H807 H 0.3144 0.42103 0.42585 0.0
H808 H 0.38206 0.44972 0.44216 0.0
H809 H 0.40012 0.4404 0.47827 0.0
C810 C 0.5804 0.90614 0.3081 0.0
C811 C 0.59966 0.90054 0.3212 0.0
C812 C 0.57881 0.88353 0.3996 0.0
C813 C 0.5673 0.89868 0.39393 0.0
N814 N 0.54407 0.90958 0.33669 0.0
N815 N 0.60706 0.86997 0.3635 0.0
C816 C 0.56296 0.90408 0.34523 0.0
C817 C 0.59502 0.88388 0.36138 0.0
N818 N 0.58019 0.91476 0.26183 0.0
N819 N 0.57602 0.87133 0.44319 0.0
H820 H 0.61822 0.87001 0.3342 0.0
H821 H 0.60474 0.85751 0.39194 0.0
H822 H 0.56449 0.87216 0.47083 0.0
H823 H 0.58472 0.86066 0.45156 0.0
H824 H 0.56701 0.91976 0.24956 0.0
H825 H 0.59327 0.91602 0.23545 0.0
H826 H 0.54009 0.91446 0.30233 0.0
H827 H 0.53162 0.90788 0.36482 0.0
C828 C 0.31788 0.08935 0.4651 0.0
C829 C 0.33379 0.08183 0.48947 0.0
C830 C 0.36436 0.09909 0.42218 0.0
C831 C 0.34626 0.10193 0.39436 0.0
N832 N 0.31328 0.11292 0.39698 0.0
N833 N 0.3752 0.08618 0.49929 0.0
C834 C 0.32545 0.10154 0.41852 0.0
C835 C 0.35825 0.08916 0.47076 0.0
N836 N 0.2952 0.08379 0.48526 0.0
N837 N 0.38671 0.10476 0.4003 0.0
H838 H 0.37137 0.07953 0.53546 0.0
H839 H 0.39344 0.09129 0.48854 0.0
H840 H 0.39122 0.11292 0.36524 0.0
H841 H 0.40064 0.10178 0.4161 0.0
H842 H 0.28163 0.08648 0.46692 0.0
H843 H 0.28947 0.0753 0.51977 0.0
H844 H 0.29867 0.11443 0.41372 0.0
H845 H 0.32002 0.12363 0.36493 0.0
C846 C 0.93808 0.26831 0.44693 0.0
C847 C 0.93751 0.24469 0.45144 0.0
C848 C 0.91849 0.23278 0.36956 0.0
C849 C 0.92434 0.25812 0.3612 0.0
N850 N 0.92718 0.2952 0.39767 0.0
N851 N 0.92609 0.20375 0.41893 0.0
C852 C 0.93023 0.27446 0.40195 0.0
C853 C 0.92698 0.22652 0.41361 0.0
N854 N 0.9469 0.28511 0.48503 0.0
N855 N 0.90364 0.21461 0.33681 0.0
H856 H 0.93167 0.19846 0.45124 0.0
H857 H 0.92142 0.19083 0.39037 0.0
H858 H 0.89483 0.21835 0.30753 0.0
H859 H 0.89727 0.19552 0.34229 0.0
H860 H 0.95048 0.30362 0.48233 0.0
H861 H 0.95171 0.28091 0.51935 0.0
H862 H 0.92941 0.30733 0.42658 0.0
H863 H 0.91963 0.29864 0.36581 0.0
C864 C 0.75077 0.71061 0.39491 0.0
C865 C 0.75882 0.70283 0.43732 0.0
C866 C 0.75504 0.66615 0.39121 0.0
C867 C 0.74341 0.67195 0.35168 0.0
N868 N 0.72889 0.69924 0.31664 0.0
N869 N 0.78096 0.68109 0.46466 0.0
C870 C 0.74129 0.69429 0.35342 0.0
C871 C 0.76459 0.68282 0.4324 0.0
N872 N 0.75381 0.73437 0.39324 0.0
N873 N 0.75641 0.64438 0.38996 0.0
H874 H 0.79131 0.69521 0.49006 0.0
H875 H 0.78721 0.66796 0.46152 0.0
H876 H 0.75034 0.63227 0.35975 0.0
H877 H 0.76186 0.63747 0.42004 0.0
H878 H 0.75042 0.74224 0.36193 0.0
H879 H 0.76299 0.74737 0.42129 0.0
H880 H 0.72402 0.71345 0.31854 0.0
H881 H 0.72155 0.68784 0.28577 0.0
C882 C 0.04215 0.30753 0.10511 0.0
C883 C 0.06272 0.33203 0.11364 0.0
C884 C 0.07632 0.33424 0.02774 0.0
C885 C 0.05537 0.31003 0.01904 0.0
N886 N 0.01997 0.27236 0.04906 0.0
N887 N 0.09777 0.36988 0.08316 0.0
C888 C 0.03854 0.29646 0.05753 0.0
C889 C 0.07957 0.34559 0.07508 0.0
N890 N 0.0258 0.29495 0.14254 0.0
N891 N 0.09316 0.34632 0.99066 0.0
H892 H 0.10054 0.37867 0.11734 0.0
H893 H 0.10913 0.38203 0.05574 0.0
H894 H 0.09062 0.33962 0.95464 0.0
H895 H 0.11039 0.36239 0.99569 0.0
H896 H 0.00792 0.27988 0.13697 0.0
H897 H 0.0294 0.30033 0.17938 0.0
H898 H 0.0082 0.26027 0.0761 0.0
H899 H 0.01712 0.26361 0.01482 0.0
C900 C 0.63885 0.74396 0.10294 0.0
C901 C 0.63479 0.76207 0.12856 0.0
C902 C 0.66005 0.79365 0.06555 0.0
C903 C 0.66622 0.77618 0.04335 0.0
N904 N 0.66497 0.73582 0.04702 0.0
N905 N 0.64377 0.80495 0.13761 0.0
C906 C 0.65671 0.75172 0.064 0.0
C907 C 0.64606 0.78719 0.11078 0.0
N908 N 0.62532 0.71906 0.11515 0.0
N909 N 0.66745 0.81632 0.04329 0.0
H910 H 0.63279 0.80051 0.16943 0.0
H911 H 0.65371 0.8241 0.12989 0.0
H912 H 0.6785 0.82187 0.0115 0.0
H913 H 0.66148 0.82893 0.05457 0.0
H914 H 0.62587 0.70474 0.09516 0.0
H915 H 0.61157 0.71213 0.14236 0.0
H916 H 0.66148 0.71931 0.0651 0.0
H917 H 0.6771 0.73989 0.01724 0.0
C918 C 0.24289 0.94655 0.12335 0.0
C919 C 0.24788 0.93068 0.15456 0.0
C920 C 0.24546 0.90515 0.08332 0.0
C921 C 0.24667 0.92435 0.05184 0.0
N922 N 0.24584 0.96321 0.04076 0.0
N923 N 0.25385 0.89449 0.16477 0.0
C924 C 0.24486 0.94492 0.07146 0.0
C925 C 0.24864 0.90952 0.1349 0.0
N926 N 0.23588 0.96282 0.14344 0.0
N927 N 0.24116 0.88272 0.06394 0.0
H928 H 0.25649 0.89717 0.20272 0.0
H929 H 0.25717 0.88031 0.15151 0.0
H930 H 0.23917 0.87905 0.02618 0.0
H931 H 0.23696 0.86701 0.08563 0.0
H932 H 0.22998 0.97338 0.12247 0.0
H933 H 0.23375 0.96399 0.18138 0.0
H934 H 0.24746 0.9801 0.05335 0.0
H935 H 0.24633 0.96197 0.00243 0.0
C936 C 0.63406 0.93312 0.55128 0.0
C937 C 0.64725 0.9524 0.58608 0.0
C938 C 0.67524 0.97916 0.52007 0.0
C939 C 0.66412 0.95857 0.48716 0.0
N940 N 0.63462 0.91472 0.47294 0.0
N941 N 0.68357 0.99255 0.60515 0.0
C942 C 0.64413 0.93517 0.50331 0.0
C943 C 0.66858 0.97527 0.57094 0.0
N944 N 0.61119 0.91332 0.56333 0.0
N945 N 0.69218 0.0024 0.50284 0.0
H946 H 0.68047 0.99022 0.643 0.0
H947 H 0.70063 0.00824 0.59641 0.0
H948 H 0.69832 0.00564 0.4663 0.0
H949 H 0.69861 0.0187 0.52379 0.0
H950 H 0.59949 0.89998 0.53783 0.0
H951 H 0.6027 0.91172 0.59753 0.0
H952 H 0.62314 0.89652 0.48574 0.0
H953 H 0.63935 0.9156 0.43582 0.0
C954 C 0.03252 0.74166 0.57881 0.0
C955 C 0.02511 0.71843 0.55492 0.0
C956 C 0.01747 0.69722 0.63506 0.0
C957 C 0.02794 0.7209 0.65867 0.0
N958 N 0.04611 0.76607 0.65394 0.0
N959 N -0.00198 0.6735 0.56118 0.0
C960 C 0.03558 0.74326 0.63083 0.0
C961 C 0.01388 0.69587 0.58315 0.0
N962 N 0.03438 0.76156 0.55199 0.0
N963 N 0.01173 0.67611 0.66213 0.0
H964 H 0.99102 0.67246 0.52567 0.0
H965 H 0.98858 0.65653 0.58012 0.0
H966 H 0.0141 0.67645 0.7003 0.0
H967 H 0.00668 0.6587 0.64641 0.0
H968 H 0.03776 0.77857 0.56735 0.0
H969 H 0.02919 0.75982 0.5149 0.0
H970 H 0.05515 0.78313 0.6352 0.0
H971 H 0.04723 0.76814 0.69214 0.0
C972 C 0.21458 0.34653 0.53425 0.0
C973 C 0.21229 0.32256 0.52479 0.0
C974 C 0.22297 0.31907 0.60948 0.0
C975 C 0.22894 0.3446 0.61819 0.0
N976 N 0.22285 0.37947 0.59435 0.0
N977 N 0.1984 0.28187 0.56014 0.0
C978 C 0.22211 0.35732 0.58229 0.0
C979 C 0.21062 0.30734 0.56517 0.0
N980 N 0.21002 0.35887 0.4969 0.0
N981 N 0.23134 0.3067 0.63989 0.0
H982 H 0.18892 0.27333 0.52758 0.0
H983 H 0.19527 0.26968 0.58968 0.0
H984 H 0.24323 0.31479 0.66982 0.0
H985 H 0.22899 0.28896 0.63161 0.0
H986 H 0.21364 0.3774 0.49884 0.0
H987 H 0.20221 0.34995 0.46349 0.0
H988 H 0.21713 0.38933 0.57096 0.0
H989 H 0.22759 0.38712 0.62969 0.0
C990 C 0.94884 0.65153 0.92474 0.0
C991 C 0.95169 0.67337 0.9497 0.0
C992 C 0.94342 0.68906 0.87278 0.0
C993 C 0.94344 0.66877 0.8471 0.0
N994 N 0.9505 0.63306 0.84666 0.0
N995 N 0.95711 0.71533 0.94538 0.0
C996 C 0.94759 0.65076 0.87244 0.0
C997 C 0.95044 0.69281 0.92314 0.0
N998 N 0.94562 0.63086 0.95073 0.0
N999 N 0.93655 0.70472 0.84926 0.0
H1000 H 0.96334 0.71913 0.98182 0.0
H1001 H 0.95901 0.73104 0.92627 0.0
H1002 H 0.93241 0.70356 0.81172 0.0
H1003 H 0.933 0.71759 0.86805 0.0
H1004 H 0.94107 0.61375 0.93413 0.0
H1005 H 0.94474 0.62973 0.98908 0.0
H1006 H 0.95654 0.62137 0.86293 0.0
H1007 H 0.94874 0.63142 0.80837 0.0
C1008 C 0.34677 0.26079 0.93957 0.0
C1009 C 0.36047 0.28309 0.96731 0.0
C1010 C 0.394 0.2987 0.90574 0.0
C1011 C 0.37874 0.27858 0.87424 0.0
N1012 N 0.33899 0.24136 0.85876 0.0
N1013 N 0.39543 0.32535 0.9724 0.0
C1014 C 0.35474 0.25959 0.89058 0.0
C1015 C 0.3836 0.30263 0.94915 0.0
N1016 N 0.32619 0.24093 0.95986 0.0
N1017 N 0.41878 0.31384 0.89451 0.0
H1018 H 0.3893 0.32915 0.00548 0.0
H1019 H 0.41012 0.34116 0.95619 0.0
H1020 H 0.42733 0.31077 0.86391 0.0
H1021 H 0.43138 0.3276 0.91823 0.0
H1022 H 0.31689 0.22328 0.94343 0.0
H1023 H 0.31955 0.24171 0.99493 0.0
H1024 H 0.3203 0.22881 0.86695 0.0
H1025 H 0.34401 0.23979 0.82276 0.0
C1026 C 0.77704 0.12469 0.85672 0.0
C1027 C 0.75182 0.11881 0.8484 0.0
C1028 C 0.74277 0.11265 0.93595 0.0
C1029 C 0.76621 0.11283 0.94354 0.0
N1030 N 0.80787 0.12468 0.91433 0.0
N1031 N 0.71795 0.12358 0.88085 0.0
C1032 C 0.7843 0.12113 0.90493 0.0
C1033 C 0.73739 0.11878 0.8887 0.0
N1034 N 0.79382 0.13431 0.81888 0.0
N1035 N 0.72438 0.10397 0.97117 0.0
H1036 H 0.71422 0.12806 0.84569 0.0
H1037 H 0.70773 0.12585 0.90931 0.0
H1038 H 0.726 0.09788 0.00603 0.0
H1039 H 0.70619 0.10071 0.96425 0.0
H1040 H 0.81287 0.14 0.8221 0.0
H1041 H 0.78879 0.13888 0.78509 0.0
H1042 H 0.82139 0.12845 0.88739 0.0
H1043 H 0.8139 0.12376 0.94998 0.0
C1044 C 0.00187 0.45422 0.70431 0.0
C1045 C 0.0272 0.46101 0.69471 0.0
C1046 C 0.0343 0.45767 0.782 0.0
C1047 C 0.00756 0.4437 0.78879 0.0
N1048 N 0.96615 0.43257 0.75921 0.0
N1049 N 0.06886 0.48319 0.72629 0.0
C1050 C 0.99142 0.44373 0.75105 0.0
C1051 C 0.0439 0.46768 0.73462 0.0
N1052 N 0.98832 0.45826 0.6689 0.0
N1053 N 0.0505 0.45931 0.81864 0.0
H1054 H 0.07545 0.49047 0.69113 0.0
H1055 H 0.08229 0.49073 0.75413 0.0
H1056 H 0.04527 0.45384 0.85487 0.0
H1057 H 0.06954 0.46563 0.81281 0.0
H1058 H 0.97019 0.45538 0.67454 0.0
H1059 H 0.99663 0.4672 0.63575 0.0
H1060 H 0.95304 0.42941 0.73158 0.0
H1061 H 0.95837 0.42582 0.79393 0.0
C1062 C 0.55957 0.54032 0.74508 0.0
C1063 C 0.56161 0.5548 0.78764 0.0
C1064 C 0.5405 0.57461 0.74217 0.0
C1065 C 0.54345 0.56424 0.69787 0.0
N1066 N 0.54222 0.52733 0.66272 0.0
N1067 N 0.55446 0.58708 0.8256 0.0
C1068 C 0.54891 0.54401 0.7008 0.0
C1069 C 0.55152 0.57178 0.78641 0.0
N1070 N 0.56845 0.52355 0.74667 0.0
N1071 N 0.52637 0.58652 0.74195 0.0
H1072 H 0.56285 0.58675 0.85874 0.0
H1073 H 0.55057 0.60197 0.82381 0.0
H1074 H 0.51705 0.58738 0.71022 0.0
H1075 H 0.52129 0.59249 0.77381 0.0
H1076 H 0.57065 0.51479 0.71558 0.0
H1077 H 0.57468 0.51918 0.77924 0.0
H1078 H 0.54427 0.51131 0.66334 0.0
H1079 H 0.53123 0.52756 0.63336 0.0
C1080 C 0.40483 0.98225 0.81428 0.0
C1081 C 0.38232 0.96569 0.83918 0.0
C1082 C 0.36989 0.93591 0.77034 0.0
C1083 C 0.38974 0.95447 0.74257 0.0
N1084 N 0.4325 0.98795 0.7452 0.0
N1085 N 0.34644 0.9243 0.8468 0.0
C1086 C 0.40944 0.97533 0.76689 0.0
C1087 C 0.36599 0.9415 0.81926 0.0
N1088 N 0.42096 0.00501 0.8345 0.0
N1089 N 0.35509 0.91303 0.74914 0.0
H1090 H 0.34503 0.92646 0.88459 0.0
H1091 H 0.33159 0.90809 0.83243 0.0
H1092 H 0.35871 0.90904 0.71355 0.0
H1093 H 0.34064 0.89773 0.767 0.0
H1094 H 0.43645 0.0189 0.81595 0.0
H1095 H 0.41805 0.01064 0.86904 0.0
H1096 H 0.44813 0.00245 0.76223 0.0
H1097 H 0.4368 0.98157 0.71288 0.0
C1098 C 0.59222 0.97127 0.21338 0.0
C1099 C 0.5664 0.96289 0.20285 0.0
C1100 C 0.5629 0.98253 0.27923 0.0
C1101 C 0.58727 0.98697 0.29291 0.0
N1102 N 0.62849 -0.00146 0.26296 0.0
N1103 N 0.52722 0.96135 0.2237 0.0
C1104 C 0.60305 0.98548 0.25657 0.0
C1105 C 0.55182 0.96912 0.23486 0.0
N1106 N 0.60615 0.96465 0.18354 0.0
N1107 N 0.55129 0.99264 0.30689 0.0
H1108 H 0.51877 0.95169 0.19132 0.0
H1109 H 0.51474 0.96301 0.24761 0.0
H1110 H 0.56059 0.00522 0.33547 0.0
H1111 H 0.53409 0.99141 0.2979 0.0
H1112 H 0.59902 0.95372 0.15206 0.0
H1113 H 0.62415 0.96794 0.19249 0.0
H1114 H 0.64136 8e-05 0.23605 0.0
H1115 H 0.63658 0.01043 0.29312 0.0
C1116 C 0.01765 0.57213 0.2896 0.0
C1117 C 0.9927 0.56257 0.30684 0.0
C1118 C 0.97671 0.54577 0.22537 0.0
C1119 C 0.00087 0.5622 0.20616 0.0
N1120 N 0.04533 0.58577 0.21815 0.0
N1121 N 0.94824 0.53719 0.29429 0.0
C1122 C 0.02182 0.5731 0.238 0.0
C1123 C 0.97209 0.54784 0.2759 0.0
N1124 N 0.03707 0.58112 0.32252 0.0
N1125 N 0.95837 0.52883 0.19527 0.0
H1126 H 0.94471 0.53777 0.33181 0.0
H1127 H 0.93219 0.52871 0.27235 0.0
H1128 H 0.96194 0.52607 0.15889 0.0
H1129 H 0.94069 0.51555 0.20786 0.0
H1130 H 0.0557 0.58736 0.31277 0.0
H1131 H 0.03407 0.58041 0.3605 0.0
H1132 H 0.06157 0.59647 0.23852 0.0
H1133 H 0.04822 0.58561 0.1802 0.0
C1134 C 0.35955 0.38059 0.21834 0.0
C1135 C 0.3811 0.39809 0.19215 0.0
C1136 C 0.40786 0.40028 0.26204 0.0
C1137 C 0.38613 0.38339 0.28913 0.0
N1138 N 0.34113 0.366 0.29871 0.0
N1139 N 0.42518 0.42928 0.19347 0.0
C1140 C 0.36185 0.37587 0.26895 0.0
C1141 C 0.40498 0.4098 0.21584 0.0
N1142 N 0.3368 0.3686 0.19511 0.0
N1143 N 0.4313 0.40603 0.27871 0.0
H1144 H 0.42483 0.43553 0.15789 0.0
H1145 H 0.44198 0.44073 0.21163 0.0
H1146 H 0.4344 0.39589 0.30625 0.0
H1147 H 0.448 0.41901 0.26216 0.0
H1148 H 0.32104 0.35364 0.21093 0.0
H1149 H 0.33408 0.37269 0.15894 0.0
H1150 H 0.32341 0.3623 0.2865 0.0
H1151 H 0.34207 0.36455 0.33687 0.0
C1152 C 0.35489 0.19665 0.11801 0.0
C1153 C 0.35079 0.21141 0.1535 0.0
C1154 C 0.34554 0.181 0.2181 0.0
C1155 C 0.34685 0.16497 0.18166 0.0
N1156 N 0.35008 0.15587 0.09633 0.0
N1157 N 0.33912 0.21652 0.23594 0.0
C1158 C 0.35094 0.17239 0.13143 0.0
C1159 C 0.34543 0.20338 0.2033 0.0
N1160 N 0.3633 0.20619 0.07192 0.0
N1161 N 0.34512 0.17516 0.26697 0.0
H1162 H 0.33888 0.23306 0.22661 0.0
H1163 H 0.33218 0.21005 0.27117 0.0
H1164 H 0.34523 0.15894 0.27926 0.0
H1165 H 0.3469 0.18739 0.29542 0.0
H1166 H 0.36915 0.19751 0.04601 0.0
H1167 H 0.36654 0.22396 0.06089 0.0
H1168 H 0.35002 0.15904 0.05859 0.0
H1169 H 0.34749 0.13804 0.10484 0.0
C1170 C 0.82377 0.16743 0.1936 0.0
C1171 C 0.81837 0.16032 0.14346 0.0
C1172 C 0.85532 0.19915 0.11721 0.0
C1173 C 0.86079 0.20624 0.16733 0.0
N1174 N 0.84708 0.2008 0.25214 0.0
N1175 N 0.82443 0.172 0.05751 0.0
C1176 C 0.84388 0.19163 0.20519 0.0
C1177 C 0.83277 0.17703 0.10519 0.0
N1178 N 0.81078 0.15057 0.23012 0.0
N1179 N 0.87187 0.21337 0.08121 0.0
H1180 H 0.80755 0.15629 0.0477 0.0
H1181 H 0.83283 0.18451 0.02842 0.0
H1182 H 0.88776 0.2306 0.08833 0.0
H1183 H 0.87056 0.20756 0.04473 0.0
H1184 H 0.81588 0.15358 0.26718 0.0
H1185 H 0.79588 0.13268 0.22315 0.0
H1186 H 0.83401 0.19207 0.2802 0.0
H1187 H 0.86167 0.21837 0.26207 0.0
C1188 C 0.8247 0.67722 0.11422 0.0
C1189 C 0.82105 0.6877 0.15806 0.0
C1190 C 0.86423 0.70025 0.18349 0.0
C1191 C 0.86628 0.68614 0.14397 0.0
N1192 N 0.84697 0.65814 0.07494 0.0
N1193 N 0.83633 0.70653 0.23801 0.0
C1194 C 0.84625 0.67401 0.10977 0.0
C1195 C 0.84063 0.6988 0.1935 0.0
N1196 N 0.80776 0.6707 0.07649 0.0
N1197 N 0.88496 0.71536 0.211 0.0
H1198 H 0.81919 0.70532 0.24762 0.0
H1199 H 0.84905 0.7121 0.26719 0.0
H1200 H 0.90262 0.7171 0.20418 0.0
H1201 H 0.8852 0.72799 0.23715 0.0
H1202 H 0.81071 0.66529 0.04179 0.0
H1203 H 0.79197 0.67321 0.07823 0.0
H1204 H 0.83163 0.64666 0.0529 0.0
H1205 H 0.86203 0.65463 0.07089 0.0
C1206 C 0.18331 0.36587 0.27199 0.0
C1207 C 0.17048 0.37395 0.30482 0.0
C1208 C 0.20782 0.39435 0.35725 0.0
C1209 C 0.22059 0.38602 0.32473 0.0
N1210 N 0.22355 0.37128 0.24417 0.0
N1211 N 0.17318 0.40297 0.36795 0.0
C1212 C 0.20933 0.37444 0.27949 0.0
C1213 C 0.18369 0.39061 0.34386 0.0
N1214 N 0.17047 0.34861 0.2361 0.0
N1215 N 0.21762 0.404 0.40251 0.0
H1216 H 0.15571 0.40101 0.35821 0.0
H1217 H 0.18291 0.41711 0.3937 0.0
H1218 H 0.23517 0.40719 0.41456 0.0
H1219 H 0.20745 0.40719 0.42978 0.0
H1220 H 0.17847 0.34002 0.21499 0.0
H1221 H 0.15128 0.34118 0.22991 0.0
H1222 H 0.21702 0.36491 0.20868 0.0
H1223 H 0.24272 0.37759 0.24902 0.0
C1224 C 0.67477 0.85854 0.31266 0.0
C1225 C 0.68149 0.86875 0.36089 0.0
C1226 C 0.68584 0.83237 0.38716 0.0
C1227 C 0.68043 0.82302 0.33831 0.0
N1228 N 0.6752 0.82954 0.25223 0.0
N1229 N 0.69742 0.86789 0.4419 0.0
C1230 C 0.67682 0.83698 0.30028 0.0
C1231 C 0.68823 0.85639 0.3976 0.0
N1232 N 0.66466 0.86825 0.27965 0.0
N1233 N 0.68802 0.818 0.42365 0.0
H1234 H 0.69946 0.8855 0.4505 0.0
H1235 H 0.7049 0.86103 0.46854 0.0
H1236 H 0.68737 0.80082 0.41664 0.0
H1237 H 0.6891 0.82236 0.46099 0.0
H1238 H 0.65674 0.8597 0.24618 0.0
H1239 H 0.66175 0.88342 0.2874 0.0
H1240 H 0.67541 0.84054 0.22252 0.0
H1241 H 0.67595 0.81344 0.24163 0.0
C1242 C 0.16067 0.81811 0.39372 0.0
C1243 C 0.13552 0.81328 0.38787 0.0
C1244 C 0.15037 0.85795 0.37125 0.0
C1245 C 0.17545 0.86298 0.37954 0.0
N1246 N 0.2044 0.84904 0.40695 0.0
N1247 N 0.10583 0.82865 0.37856 0.0
C1248 C 0.1806 0.84336 0.39303 0.0
C1249 C 0.13019 0.83327 0.37933 0.0
N1250 N 0.16551 0.79851 0.39955 0.0
N1251 N 0.14591 0.87637 0.35268 0.0
H1252 H 0.09045 0.81066 0.38143 0.0
H1253 H 0.10082 0.84277 0.37853 0.0
H1254 H 0.16012 0.8946 0.34541 0.0
H1255 H 0.12837 0.87316 0.34041 0.0
H1256 H 0.18346 0.80042 0.39786 0.0
H1257 H 0.15139 0.7799 0.40342 0.0
H1258 H 0.20897 0.83602 0.42208 0.0
H1259 H 0.21937 0.86735 0.40733 0.0
C1260 C 0.63235 0.83837 0.78264 0.0
C1261 C 0.64276 0.84781 0.7353 0.0
C1262 C 0.65518 0.81522 0.72761 0.0
C1263 C 0.64372 0.80523 0.77388 0.0
N1264 N 0.61465 0.80232 0.83707 0.0
N1265 N 0.65796 0.84135 0.65763 0.0
C1266 C 0.62994 0.81512 0.79843 0.0
C1267 C 0.65211 0.83489 0.70603 0.0
N1268 N 0.62674 0.85237 0.81447 0.0
N1269 N 0.67034 0.80728 0.70579 0.0
H1270 H 0.65561 0.85551 0.64068 0.0
H1271 H 0.66267 0.83106 0.6333 0.0
H1272 H 0.67358 0.79327 0.72052 0.0
H1273 H 0.6814 0.81606 0.67502 0.0
H1274 H 0.62162 0.84719 0.85108 0.0
H1275 H 0.62979 0.87039 0.80665 0.0
H1276 H 0.60243 0.80761 0.85347 0.0
H1277 H 0.61222 0.78495 0.84901 0.0
C1278 C 0.12926 0.81845 0.85235 0.0
C1279 C 0.12559 0.79398 0.84257 0.0
C1280 C 0.17109 0.81044 0.83957 0.0
C1281 C 0.17461 0.83517 0.84441 0.0
N1282 N 0.15692 0.86316 0.84388 0.0
N1283 N 0.14277 0.76758 0.81546 0.0
C1284 C 0.15364 0.83932 0.84732 0.0
C1285 C 0.14643 0.79019 0.83286 0.0
N1286 N 0.10977 0.82171 0.86869 0.0
N1287 N 0.19102 0.80601 0.84384 0.0
H1288 H 0.12501 0.75243 0.80867 0.0
H1289 H 0.15739 0.76472 0.80304 0.0
H1290 H 0.20938 0.82016 0.85013 0.0
H1291 H 0.18897 0.788 0.84592 0.0
H1292 H 0.11209 0.83891 0.88107 0.0
H1293 H 0.09176 0.80682 0.87483 0.0
H1294 H 0.14202 0.86699 0.84091 0.0
H1295 H 0.17449 0.87892 0.83876 0.0
C1296 C 0.16158 0.29907 0.9041 0.0
C1297 C 0.14429 0.29839 0.86812 0.0
C1298 C 0.1695 0.29366 0.8029 0.0
C1299 C 0.18874 0.29879 0.83775 0.0
N1300 N 0.20391 0.30668 0.92127 0.0
N1301 N 0.13351 0.29862 0.78214 0.0
C1302 C 0.18489 0.3013 0.88847 0.0
C1303 C 0.14842 0.29618 0.8172 0.0
N1304 N 0.15551 0.29717 0.95301 0.0
N1305 N 0.17177 0.28717 0.7557 0.0
H1306 H 0.11859 0.30186 0.79036 0.0
H1307 H 0.13743 0.30001 0.74454 0.0
H1308 H 0.18729 0.28575 0.74357 0.0
H1309 H 0.15722 0.28079 0.73 0.0
H1310 H 0.16631 0.29527 0.98081 0.0
H1311 H 0.13846 0.2953 0.9655 0.0
H1312 H 0.20358 0.3118 0.95776 0.0
H1313 H 0.22064 0.30705 0.91108 0.0
C1314 C 0.83104 0.66252 0.63974 0.0
C1315 C 0.84884 0.6751 0.67754 0.0
C1316 C 0.82267 0.69186 0.71151 0.0
C1317 C 0.80516 0.67965 0.67311 0.0
N1318 N 0.78899 0.64875 0.60838 0.0
N1319 N 0.86014 0.69776 0.75464 0.0
C1320 C 0.80821 0.66349 0.63959 0.0
C1321 C 0.84406 0.68832 0.71543 0.0
N1322 N 0.83627 0.65014 0.60346 0.0
N1323 N 0.81953 0.70788 0.74237 0.0
H1324 H 0.87665 0.69662 0.75768 0.0
H1325 H 0.85642 0.70529 0.78591 0.0
H1326 H 0.80373 0.71037 0.74122 0.0
H1327 H 0.83305 0.71975 0.76736 0.0
H1328 H 0.82558 0.64323 0.57156 0.0
H1329 H 0.85216 0.64778 0.60405 0.0
H1330 H 0.78901 0.63487 0.58605 0.0
H1331 H 0.77187 0.64885 0.60793 0.0
C1332 C 0.32532 0.17462 0.64585 0.0
C1333 C 0.32982 0.18402 0.69465 0.0
C1334 C 0.33031 0.14634 0.72478 0.0
C1335 C 0.32685 0.13737 0.6756 0.0
N1336 N 0.3137 0.13876 0.5923 0.0
N1337 N 0.32955 0.17669 0.78184 0.0
C1338 C 0.32188 0.15017 0.63706 0.0
C1339 C 0.32983 0.16902 0.73462 0.0
N1340 N 0.32577 0.18959 0.60774 0.0
N1341 N 0.33574 0.13417 0.76134 0.0
H1342 H 0.32915 0.1933 0.78969 0.0
H1343 H 0.32735 0.16566 0.81281 0.0
H1344 H 0.33613 0.11742 0.75569 0.0
H1345 H 0.34138 0.14143 0.79665 0.0
H1346 H 0.32579 0.18506 0.57075 0.0
H1347 H 0.32743 0.20732 0.61314 0.0
H1348 H 0.30768 0.14615 0.56394 0.0
H1349 H 0.31066 0.12064 0.58515 0.0
C1350 C 0.8412 0.14803 0.56763 0.0
C1351 C 0.85444 0.16554 0.60577 0.0
C1352 C 0.82541 0.13653 0.66694 0.0
C1353 C 0.81036 0.12061 0.62847 0.0
N1354 N 0.80207 0.11213 0.54176 0.0
N1355 N 0.85598 0.17869 0.69032 0.0
C1356 C 0.81772 0.12657 0.57858 0.0
C1357 C 0.84571 0.1604 0.65509 0.0
N1358 N 0.85152 0.15125 0.52166 0.0
N1359 N 0.82085 0.12853 0.71485 0.0
H1360 H 0.87022 0.19688 0.68285 0.0
H1361 H 0.84852 0.1766 0.72568 0.0
H1362 H 0.80637 0.11091 0.72519 0.0
H1363 H 0.83309 0.13829 0.74357 0.0
H1364 H 0.84391 0.13779 0.49394 0.0
H1365 H 0.86895 0.16634 0.51242 0.0
H1366 H 0.80511 0.11713 0.50463 0.0
H1367 H 0.78503 0.09597 0.54867 0.0
C1368 C 0.97124 0.46005 0.46972 0.0
C1369 C 0.96495 0.45143 0.51897 0.0
C1370 C 0.97189 0.49257 0.54514 0.0
C1371 C 0.98073 0.50214 0.49717 0.0
N1372 N 0.97909 0.49289 0.41012 0.0
N1373 N 0.94453 0.45538 0.59185 0.0
C1374 C 0.97741 0.48522 0.45807 0.0
C1375 C 0.96041 0.46631 0.55309 0.0
N1376 N 0.97134 0.44412 0.43444 0.0
N1377 N 0.97556 0.50836 0.58375 0.0
H1378 H 0.93377 0.43591 0.59523 0.0
H1379 H 0.93948 0.46547 0.61605 0.0
H1380 H 0.98484 0.52786 0.58032 0.0
H1381 H 0.97145 0.50202 0.62008 0.0
H1382 H 0.97892 0.44991 0.39937 0.0
H1383 H 0.96393 0.42491 0.4411 0.0
H1384 H 0.97501 0.48093 0.38006 0.0
H1385 H 0.98201 0.5107 0.40031 0.0
C1386 C 0.50858 0.49894 0.44551 0.0
C1387 C 0.52707 0.50419 0.48216 0.0
C1388 C 0.5063 0.45974 0.50544 0.0
C1389 C 0.48577 0.45543 0.47464 0.0
N1390 N 0.46551 0.47212 0.42088 0.0
N1391 N 0.54137 0.49022 0.55303 0.0
C1392 C 0.48644 0.47525 0.44564 0.0
C1393 C 0.52557 0.48474 0.51351 0.0
N1394 N 0.51226 0.51656 0.41039 0.0
N1395 N 0.50758 0.43992 0.5264 0.0
H1396 H 0.55531 0.50834 0.56171 0.0
H1397 H 0.53908 0.47706 0.58004 0.0
H1398 H 0.49395 0.42127 0.52056 0.0
H1399 H 0.52335 0.44185 0.54531 0.0
H1400 H 0.50053 0.51287 0.37993 0.0
H1401 H 0.52847 0.53405 0.40904 0.0
H1402 H 0.46432 0.48685 0.40366 0.0
H1403 H 0.44842 0.45549 0.42149 0.0
C1404 C 0.49106 0.95927 0.50272 0.0
C1405 C 0.51511 0.97488 0.52353 0.0
C1406 C 0.49895 0.00017 0.56382 0.0
C1407 C 0.47586 0.98651 0.53818 0.0
N1408 N 0.45118 0.9555 0.47705 0.0
N1409 N 0.54336 0.01339 0.56554 0.0
C1410 C 0.4722 0.96665 0.50598 0.0
C1411 C 0.51947 0.9962 0.55191 0.0
N1412 N 0.48598 0.937 0.48121 0.0
N1413 N 0.50104 0.01619 0.60108 0.0
H1414 H 0.55914 0.01172 0.55651 0.0
H1415 H 0.5478 0.03061 0.58155 0.0
H1416 H 0.48624 0.01908 0.61227 0.0
H1417 H 0.51662 0.02457 0.6243 0.0
H1418 H 0.46806 0.92364 0.46992 0.0
H1419 H 0.49919 0.93076 0.47892 0.0
H1420 H 0.44876 0.94278 0.44916 0.0
H1421 H 0.43714 0.96067 0.47775 0.0
C1422 C 0.45994 0.97747 0.06762 0.0
C1423 C 0.45426 0.98343 0.02035 0.0
C1424 C 0.49749 -0.00169 0.99302 0.0
C1425 C 0.50307 0.99188 0.0399 0.0
N1426 N 0.4919 0.98053 0.12515 0.0
N1427 N 0.46824 0.00499 0.94255 0.0
C1428 C 0.48507 0.98338 0.07848 0.0
C1429 C 0.47328 0.9956 0.98439 0.0
N1430 N 0.44106 0.96471 0.10087 0.0
N1431 N 0.51518 0.00636 0.95648 0.0
H1432 H 0.45071 0.00355 0.93551 0.0
H1433 H 0.48183 0.01607 0.91686 0.0
H1434 H 0.53362 0.0101 0.96257 0.0
H1435 H 0.51141 0.00833 0.91976 0.0
H1436 H 0.44338 0.95709 0.1336 0.0
H1437 H 0.42243 0.96019 0.09439 0.0
H1438 H 0.48042 0.97691 0.15589 0.0
H1439 H 0.50987 0.98369 0.13411 0.0
C1440 C 0.0208 0.52095 0.96639 0.0
C1441 C 0.01394 0.52405 0.01469 0.0
C1442 C 0.01549 0.48637 0.04244 0.0
C1443 C 0.01912 0.48152 0.99303 0.0
N1444 N 0.02533 0.49357 0.90727 0.0
N1445 N 0.00342 0.50957 0.09877 0.0
C1446 C 0.02213 0.49882 0.95485 0.0
C1447 C 0.01122 0.50689 0.05297 0.0
N1448 N 0.02651 0.53942 0.93197 0.0
N1449 N 0.01637 0.47137 0.07918 0.0
H1450 H 0.00026 0.52443 0.10809 0.0
H1451 H -0.0016 0.49627 0.12676 0.0
H1452 H 0.01958 0.45629 0.07211 0.0
H1453 H 0.01621 0.47507 0.11659 0.0
H1454 H 0.03411 0.53963 0.89751 0.0
H1455 H 0.0253 0.55566 0.93913 0.0
H1456 H 0.02413 0.50336 0.87675 0.0
H1457 H 0.02844 0.47869 0.89808 0.0
C1458 C 0.47042 0.52365 0.99791 0.0
C1459 C 0.46532 0.50512 0.03448 0.0
C1460 C 0.50883 0.52783 0.06372 0.0
C1461 C 0.51444 0.54503 0.02425 0.0
N1462 N 0.50044 0.56349 0.96123 0.0
N1463 N 0.47719 0.49228 0.1097 0.0
C1464 C 0.49506 0.54446 0.99412 0.0
C1465 C 0.48369 0.50829 0.07029 0.0
N1466 N 0.45185 0.52059 0.9656 0.0
N1467 N 0.52789 0.52965 0.09328 0.0
H1468 H 0.45912 0.4774 0.11499 0.0
H1469 H 0.48907 0.49459 0.13919 0.0
H1470 H 0.54615 0.54465 0.09083 0.0
H1471 H 0.52601 0.51619 0.11914 0.0
H1472 H 0.45467 0.53158 0.93433 0.0
H1473 H 0.4333 0.50631 0.96959 0.0
H1474 H 0.48698 0.56536 0.94071 0.0
H1475 H 0.51843 0.57865 0.9567 0.0
C1476 C 0.32643 0.00917 0.09032 0.0
C1477 C 0.34977 0.01998 0.06518 0.0
C1478 C 0.3643 0.05845 0.11448 0.0
C1479 C 0.34031 0.04789 0.13706 0.0
N1480 N 0.29667 0.01649 0.13638 0.0
N1481 N 0.38965 0.0563 0.04724 0.0
C1482 C 0.32078 0.02437 0.12141 0.0
C1483 C 0.3684 0.04512 0.07539 0.0
N1484 N 0.31031 0.98391 0.08764 0.0
N1485 N 0.38326 0.08069 0.13154 0.0
H1486 H 0.39311 0.04696 0.01859 0.0
H1487 H 0.40287 0.07526 0.04979 0.0
H1488 H 0.38039 0.09113 0.15878 0.0
H1489 H 0.40191 0.0881 0.12054 0.0
H1490 H 0.29489 0.97484 0.11093 0.0
H1491 H 0.31385 0.97154 0.06692 0.0
H1492 H 0.2814 0.00068 0.12169 0.0
H1493 H 0.29175 0.02725 0.15913 0.0
C1494 C 0.94161 0.32503 0.08058 0.0
C1495 C 0.96139 0.32219 0.10239 0.0
C1496 C 0.98948 0.34671 0.03489 0.0
C1497 C 0.97091 0.35241 0.01666 0.0
N1498 N 0.92971 0.34847 0.02339 0.0
N1499 N 0.00528 0.33337 0.1037 0.0
C1500 C 0.94695 0.34178 0.03958 0.0
C1501 C 0.98563 0.33397 0.08057 0.0
N1502 N 0.91784 0.31185 0.09919 0.0
N1503 N 0.01035 0.35225 0.00723 0.0
H1504 H 0.00328 0.32297 0.13553 0.0
H1505 H 0.0239 0.34485 0.0932 0.0
H1506 H 0.01361 0.3607 0.97254 0.0
H1507 H 0.02308 0.34598 0.01611 0.0
H1508 H 0.90209 0.31103 0.08221 0.0
H1509 H 0.91357 0.3003 0.13019 0.0
H1510 H 0.91285 0.34353 0.0414 0.0
H1511 H 0.93308 0.36051 0.99347 0.0
C1512 C 0.64598 0.55727 0.06262 0.0
C1513 C 0.6501 0.57197 0.01933 0.0
C1514 C 0.68381 0.6083 0.06189 0.0
C1515 C 0.68103 0.59333 0.10457 0.0
N1516 N 0.66287 0.55192 0.14044 0.0
N1517 N 0.67771 0.60988 0.97429 0.0
C1518 C 0.66311 0.56726 0.10334 0.0
C1519 C 0.67082 0.59672 0.01765 0.0
N1520 N 0.62551 0.53389 0.06512 0.0
N1521 N 0.69669 0.63397 0.0643 0.0
H1522 H 0.668 0.60345 0.94125 0.0
H1523 H 0.69462 0.62651 0.97015 0.0
H1524 H 0.70428 0.64411 0.09641 0.0
H1525 H 0.69693 0.64555 0.03566 0.0
H1526 H 0.61974 0.52331 0.09744 0.0
H1527 H 0.61349 0.52567 0.03517 0.0
H1528 H 0.6518 0.53245 0.13974 0.0
H1529 H 0.67564 0.55847 0.16963 0.0
C1530 C 0.07241 0.41101 0.37957 0.0
C1531 C 0.07182 0.38739 0.37847 0.0
C1532 C 0.05926 0.38039 0.46548 0.0
C1533 C 0.06044 0.40431 0.46711 0.0
N1534 N 0.07282 0.44446 0.42925 0.0
N1535 N 0.07026 0.35215 0.42287 0.0
C1536 C 0.06849 0.42029 0.42514 0.0
C1537 C 0.06737 0.3731 0.42241 0.0
N1538 N 0.07616 0.42424 0.33674 0.0
N1539 N 0.04845 0.36369 0.50345 0.0
H1540 H 0.07491 0.34525 0.39178 0.0
H1541 H 0.07019 0.34277 0.45513 0.0
H1542 H 0.04141 0.36765 0.53522 0.0
H1543 H 0.04417 0.34493 0.50162 0.0
H1544 H 0.07387 0.44008 0.33356 0.0
H1545 H 0.08055 0.41863 0.30352 0.0
H1546 H 0.0809 0.45786 0.40148 0.0
H1547 H 0.07026 0.45174 0.46221 0.0
C1548 C 0.55499 0.65798 0.44084 0.0
C1549 C 0.56979 0.64623 0.45153 0.0
C1550 C 0.59586 0.66664 0.37852 0.0
C1551 C 0.58286 0.68048 0.37087 0.0
N1552 N 0.55119 0.69092 0.39644 0.0
N1553 N 0.60754 0.64349 0.4358 0.0
C1554 C 0.56261 0.67649 0.40238 0.0
C1555 C 0.59101 0.65155 0.42161 0.0
N1556 N 0.53335 0.65099 0.46674 0.0
N1557 N 0.61252 0.66739 0.34383 0.0
H1558 H 0.60533 0.63294 0.46758 0.0
H1559 H 0.62481 0.64932 0.4187 0.0
H1560 H 0.61666 0.67812 0.31167 0.0
H1561 H 0.6204 0.65552 0.34451 0.0
H1562 H 0.52036 0.65691 0.45803 0.0
H1563 H 0.52739 0.6376 0.49488 0.0
H1564 H 0.53813 0.691 0.42108 0.0
H1565 H 0.55603 0.70412 0.36814 0.0
C1566 C 0.33818 0.98376 0.46919 0.0
C1567 C 0.3432 0.96437 0.48481 0.0
C1568 C 0.31605 0.93713 0.41861 0.0
C1569 C 0.30893 0.9556 0.40691 0.0
N1570 N 0.30933 0.99441 0.42789 0.0
N1571 N 0.3355 0.92175 0.47799 0.0
C1572 C 0.31898 0.97838 0.43402 0.0
C1573 C 0.33186 0.94081 0.46033 0.0
N1574 N 0.35216 0.00755 0.48745 0.0
N1575 N 0.30829 0.9165 0.38915 0.0
H1576 H 0.34747 0.92411 0.5075 0.0
H1577 H 0.3256 0.90332 0.46538 0.0
H1578 H 0.29647 0.91315 0.35889 0.0
H1579 H 0.3149 0.90365 0.39255 0.0
H1580 H 0.35111 0.02304 0.47376 0.0
H1581 H 0.3667 0.01231 0.51279 0.0
H1582 H 0.31415 0.00998 0.45028 0.0
H1583 H 0.29456 0.9908 0.40385 0.0
C1584 C 0.59632 0.91073 0.88835 0.0
C1585 C 0.58626 0.91536 0.84465 0.0
C1586 C 0.55135 0.91381 0.89291 0.0
C1587 C 0.56407 0.9141 0.93703 0.0
N1588 N 0.60113 0.91663 0.97631 0.0
N1589 N 0.55382 0.92055 0.8042 0.0
C1590 C 0.5869 0.91297 0.93481 0.0
C1591 C 0.56347 0.91641 0.84658 0.0
N1592 N 0.61552 0.90511 0.88606 0.0
N1593 N 0.52768 0.91096 0.8956 0.0
H1594 H 0.56143 0.92093 0.76953 0.0
H1595 H 0.53898 0.92452 0.80348 0.0
H1596 H 0.51844 0.90875 0.92915 0.0
H1597 H 0.51643 0.90856 0.86492 0.0
H1598 H 0.62121 0.89851 0.91634 0.0
H1599 H 0.62439 0.90472 0.85361 0.0
H1600 H 0.61948 0.91955 0.97539 0.0
H1601 H 0.59603 0.91937 0.0114 0.0
C1602 C 0.03535 0.67323 0.99383 0.0
C1603 C 0.02548 0.64755 0.98107 0.0
C1604 C 0.02257 0.65791 0.89474 0.0
C1605 C 0.02742 0.68228 0.90972 0.0
N1606 N 0.03765 0.7131 0.9741 0.0
N1607 N 0.02358 0.61964 0.91638 0.0
C1608 C 0.03414 0.69016 0.95921 0.0
C1609 C 0.0231 0.64095 0.93048 0.0
N1610 N 0.04718 0.68162 0.03812 0.0
N1611 N 0.01701 0.65086 0.8465 0.0
H1612 H 0.02798 0.60911 0.9409 0.0
H1613 H 0.02343 0.6144 0.87983 0.0
H1614 H 0.01861 0.66335 0.81851 0.0
H1615 H 0.0098 0.63241 0.8344 0.0
H1616 H 0.05655 0.7005 0.04814 0.0
H1617 H 0.05053 0.67001 0.06187 0.0
H1618 H 0.03944 0.71846 0.01099 0.0
H1619 H 0.0368 0.72609 0.9501 0.0
C1620 C 0.33552 0.42794 0.85679 0.0
C1621 C 0.31153 0.40604 0.85443 0.0
C1622 C 0.31755 0.39678 0.94 0.0
C1623 C 0.34343 0.41438 0.93737 0.0
N1624 N 0.37774 0.44645 0.89005 0.0
N1625 N 0.28302 0.36586 0.89344 0.0
C1626 C 0.35265 0.43026 0.89523 0.0
C1627 C 0.30309 0.38956 0.89618 0.0
N1628 N 0.34193 0.44654 0.82253 0.0
N1629 N 0.30687 0.38635 0.98427 0.0
H1630 H 0.27365 0.35738 0.86108 0.0
H1631 H 0.27795 0.35303 0.92245 0.0
H1632 H 0.31694 0.39173 0.01731 0.0
H1633 H 0.28756 0.37476 0.98849 0.0
H1634 H 0.35834 0.46377 0.82478 0.0
H1635 H 0.32949 0.44576 0.79515 0.0
H1636 H 0.38557 0.45627 0.8575 0.0
H1637 H 0.39103 0.44868 0.91662 0.0
C1638 C 0.93211 0.6071 0.60441 0.0
C1639 C 0.92943 0.62833 0.59156 0.0
C1640 C 0.92936 0.61859 0.50421 0.0
C1641 C 0.93817 0.60163 0.51728 0.0
N1642 N 0.93288 0.56966 0.57579 0.0
N1643 N 0.92277 0.65314 0.52995 0.0
C1644 C 0.93481 0.59258 0.56632 0.0
C1645 C 0.92648 0.63331 0.54162 0.0
N1646 N 0.93323 0.60163 0.65295 0.0
N1647 N 0.92302 0.6198 0.45635 0.0
H1648 H 0.91989 0.66381 0.55665 0.0
H1649 H 0.92361 0.65969 0.49412 0.0
H1650 H 0.92324 0.60759 0.42959 0.0
H1651 H 0.91487 0.63052 0.44456 0.0
H1652 H 0.93834 0.58843 0.66487 0.0
H1653 H 0.92992 0.61111 0.68154 0.0
H1654 H 0.92897 0.56126 0.61049 0.0
H1655 H 0.93178 0.55758 0.54748 0.0
C1656 C 0.4039 0.28549 0.55341 0.0
C1657 C 0.42192 0.30051 0.58963 0.0
C1658 C 0.44302 0.33416 0.52834 0.0
C1659 C 0.42143 0.3218 0.49816 0.0
N1660 N 0.39162 0.2813 0.46712 0.0
N1661 N 0.46265 0.33533 0.60749 0.0
C1662 C 0.40523 0.29587 0.50581 0.0
C1663 C 0.44311 0.32352 0.57525 0.0
N1664 N 0.38449 0.26233 0.56497 0.0
N1665 N 0.46337 0.35536 0.51125 0.0
H1666 H 0.46355 0.32682 0.64038 0.0
H1667 H 0.47787 0.35313 0.602 0.0
H1668 H 0.46436 0.36134 0.47481 0.0
H1669 H 0.47999 0.36557 0.53079 0.0
H1670 H 0.36892 0.25259 0.5422 0.0
H1671 H 0.38343 0.25285 0.59755 0.0
H1672 H 0.38082 0.26182 0.46904 0.0
H1673 H 0.39379 0.28867 0.43151 0.0
C1674 C 0.6595 0.03961 0.53946 0.0
C1675 C 0.63784 0.01607 0.54895 0.0
C1676 C 0.6424 0.02606 0.63692 0.0
C1677 C 0.66737 0.0457 0.62892 0.0
N1678 N 0.69669 0.07584 0.57112 0.0
N1679 N 0.60965 0.98593 0.60834 0.0
C1680 C 0.67506 0.05391 0.5796 0.0
C1681 C 0.62939 0.0091 0.59809 0.0
N1682 N 0.66439 0.04885 0.49234 0.0
N1683 N 0.63041 0.02452 0.68034 0.0
H1684 H 0.60021 0.97233 0.58148 0.0
H1685 H 0.6043 0.97935 0.64424 0.0
H1686 H 0.63778 0.03881 0.70656 0.0
H1687 H 0.61163 0.01142 0.68653 0.0
H1688 H 0.67863 0.06669 0.48299 0.0
H1689 H 0.65269 0.03952 0.4626 0.0
H1690 H 0.70577 0.08076 0.53716 0.0
H1691 H 0.70519 0.08955 0.59821 0.0
C1692 C 0.7474 0.77502 0.70917 0.0
C1693 C 0.73988 0.7491 0.70265 0.0
C1694 C 0.72147 0.74005 0.78623 0.0
C1695 C 0.72928 0.76599 0.793 0.0
N1696 N 0.7519 0.80862 0.76445 0.0
N1697 N 0.72128 0.70697 0.73631 0.0
C1698 C 0.74293 0.78362 0.75539 0.0
C1699 C 0.72761 0.73172 0.7418 0.0
N1700 N 0.75855 0.7913 0.67082 0.0
N1701 N 0.70673 0.72305 0.82128 0.0
H1702 H 0.72189 0.69893 0.70285 0.0
H1703 H 0.71621 0.69429 0.76547 0.0
H1704 H 0.70265 0.7282 0.85522 0.0
H1705 H 0.6972 0.70369 0.8161 0.0
H1706 H 0.76233 0.8099 0.67057 0.0
H1707 H 0.76333 0.78587 0.63784 0.0
H1708 H 0.76367 0.82297 0.74076 0.0
H1709 H 0.74877 0.81521 0.79779 0.0
C1710 C 0.27007 0.99801 0.75674 0.0
C1711 C 0.27566 0.99153 0.71001 0.0
C1712 C 0.26563 0.94985 0.74153 0.0
C1713 C 0.2653 0.95828 0.79016 0.0
N1714 N 0.26449 0.98919 0.8446 0.0
N1715 N 0.26406 0.95711 0.65387 0.0
C1716 C 0.26637 0.98192 0.79784 0.0
C1717 C 0.26883 0.96604 0.70102 0.0
N1718 N 0.26639 0.01837 0.76085 0.0
N1719 N 0.26466 0.92717 0.73413 0.0
H1720 H 0.26385 0.96811 0.62443 0.0
H1721 H 0.25711 0.93825 0.64495 0.0
H1722 H 0.26213 0.91464 0.76265 0.0
H1723 H 0.26802 0.92148 0.70008 0.0
H1724 H 0.26077 0.02338 0.79321 0.0
H1725 H 0.26544 0.02817 0.73003 0.0
H1726 H 0.26843 0.00735 0.85371 0.0
H1727 H 0.25987 0.97717 0.87494 0.0
C1728 C 0.97317 0.20379 0.73495 0.0
C1729 C 0.98841 0.21282 0.69228 0.0
C1730 C 0.02562 0.22808 0.74508 0.0
C1731 C 0.01071 0.22864 0.78482 0.0
N1732 N 0.96997 0.20861 0.82319 0.0
N1733 N 0.02854 0.22384 0.65639 0.0
C1734 C 0.98425 0.21338 0.78172 0.0
C1735 C 0.01456 0.22159 0.69726 0.0
N1736 N 0.94859 0.18588 0.73044 0.0
N1737 N 0.04964 0.23281 0.75346 0.0
H1738 H 0.02011 0.2163 0.6225 0.0
H1739 H 0.0481 0.2329 0.65609 0.0
H1740 H 0.05678 0.23438 0.78904 0.0
H1741 H 0.06125 0.23189 0.72633 0.0
H1742 H 0.93664 0.17759 0.76031 0.0
H1743 H 0.94114 0.1773 0.69662 0.0
H1744 H 0.95044 0.20016 0.82282 0.0
H1745 H 0.97809 0.21341 0.85821 0.0
C1746 C 0.32315 0.30376 0.26881 0.0
C1747 C 0.31263 0.29971 0.2206 0.0
C1748 C 0.27549 0.30092 0.25344 0.0
C1749 C 0.28588 0.30489 0.30168 0.0
N1750 N 0.31792 0.30645 0.35691 0.0
N1751 N 0.27633 0.28793 0.16916 0.0
C1752 C 0.30893 0.30464 0.30993 0.0
C1753 C 0.28807 0.29644 0.21358 0.0
N1754 N 0.34749 0.30872 0.27495 0.0
N1755 N 0.25356 0.30152 0.2456 0.0
H1756 H 0.28462 0.28355 0.13987 0.0
H1757 H 0.25757 0.28277 0.16273 0.0
H1758 H 0.24259 0.30247 0.27415 0.0
H1759 H 0.24679 0.30226 0.21069 0.0
H1760 H 0.35675 0.31245 0.30859 0.0
H1761 H 0.35952 0.31079 0.24595 0.0
H1762 H 0.33225 0.30254 0.36638 0.0
H1763 H 0.31041 0.31077 0.38748 0.0
C1764 C 0.75351 0.00692 0.16761 0.0
C1765 C 0.76601 0.03311 0.17652 0.0
C1766 C 0.74935 0.02492 0.26108 0.0
C1767 C 0.73157 0.00013 0.24662 0.0
N1768 N 0.71707 0.96694 0.18601 0.0
N1769 N 0.78229 0.06643 0.23587 0.0
C1770 C 0.73407 0.99073 0.20026 0.0
C1771 C 0.76626 0.04181 0.22514 0.0
N1772 N 0.76057 0.99754 0.12878 0.0
N1773 N 0.74996 0.03208 0.30904 0.0
H1774 H 0.79607 0.07817 0.21088 0.0
H1775 H 0.7821 0.0752 0.26861 0.0
H1776 H 0.73808 0.01983 0.33599 0.0
H1777 H 0.76313 0.04939 0.32314 0.0
H1778 H 0.75316 0.97837 0.12228 0.0
H1779 H 0.77635 0.00886 0.10753 0.0
H1780 H 0.71634 0.96027 0.15035 0.0
H1781 H 0.70252 0.95442 0.20864 0.0
C1782 C 0.99526 0.72661 0.29641 0.0
C1783 C 0.02054 0.73182 0.29247 0.0
C1784 C 0.01708 0.73166 0.20279 0.0
C1785 C 0.99053 0.7192 0.20743 0.0
N1786 N 0.95408 0.70831 0.25865 0.0
N1787 N 0.05688 0.74234 0.24202 0.0
C1788 C 0.97951 0.71842 0.25404 0.0
C1789 C 0.03212 0.73604 0.24564 0.0
N1790 N 0.98645 0.7292 0.34112 0.0
N1791 N 0.0276 0.73865 0.15707 0.0
H1792 H 0.06853 0.74638 0.27272 0.0
H1793 H 0.06559 0.74262 0.20883 0.0
H1794 H 0.01662 0.73573 0.12555 0.0
H1795 H 0.04686 0.74936 0.15107 0.0
H1796 H 0.96882 0.72773 0.34623 0.0
H1797 H -0.00201 0.73535 0.37228 0.0
H1798 H 0.94481 0.70383 0.29244 0.0
H1799 H 0.94198 0.70394 0.22874 0.0
loop_
_geom_bond_atom_site_label_1
_geom_bond_atom_site_label_2
_geom_bond_distance
_geom_bond_site_symmetry_2
_ccdc_geom_bond_type
Zn0 O3 2.031 . S
Zn0 O5 2.049 . S
Zn0 O10 2.067 . S
Zn1 O2 1.962 . S
Zn1 O4 1.986 . S
Zn1 O6 1.996 . S
Zn1 O9 1.943 . S
O2 Zn1 1.962 . S
O2 C7 1.254 . S
O3 Zn0 2.031 . S
O3 C7 1.269 . S
O4 Zn1 1.986 . S
O4 C11 1.262 . S
O5 Zn0 2.049 . S
O5 C13 1.260 . S
O6 Zn1 1.996 . S
O6 C13 1.257 . S
C7 O2 1.254 . S
C7 O3 1.269 . S
C8 O9 1.249 . S
C8 O10 1.270 . S
O9 Zn1 1.943 . S
O9 C8 1.249 . S
O10 Zn0 2.067 . S
O10 C8 1.270 . S
C11 O4 1.262 . S
C11 O12 1.232 . S
O12 C11 1.232 . S
C13 O5 1.260 . S
C13 O6 1.257 . S
Zn14 O17 2.031 . S
Zn14 O19 2.049 . S
Zn14 O24 2.067 . S
Zn15 O16 1.962 . S
Zn15 O18 1.986 . S
Zn15 O20 1.996 . S
Zn15 O23 1.943 . S
O16 Zn15 1.962 . S
O16 C21 1.254 . S
O17 Zn14 2.031 . S
O17 C21 1.269 . S
O18 Zn15 1.986 . S
O18 C25 1.262 . S
O19 Zn14 2.049 . S
O19 C27 1.260 . S
O20 Zn15 1.996 . S
O20 C27 1.257 . S
C21 O16 1.254 . S
C21 O17 1.269 . S
C22 O23 1.249 . S
C22 O24 1.270 . S
O23 Zn15 1.943 . S
O23 C22 1.249 . S
O24 Zn14 2.067 . S
O24 C22 1.270 . S
C25 O18 1.262 . S
C25 O26 1.232 . S
O26 C25 1.232 . S
C27 O19 1.260 . S
C27 O20 1.257 . S
Zn28 O31 2.031 . S
Zn28 O33 2.049 . S
Zn28 O38 2.067 . S
Zn29 O30 1.962 . S
Zn29 O32 1.986 . S
Zn29 O34 1.996 . S
Zn29 O37 1.943 . S
O30 Zn29 1.962 . S
O30 C35 1.254 . S
O31 Zn28 2.031 . S
O31 C35 1.269 . S
O32 Zn29 1.986 . S
O32 C39 1.262 . S
O33 Zn28 2.049 . S
O33 C41 1.260 . S
O34 Zn29 1.996 . S
O34 C41 1.257 . S
C35 O30 1.254 . S
C35 O31 1.269 . S
C36 O37 1.249 . S
C36 O38 1.270 . S
O37 Zn29 1.943 . S
O37 C36 1.249 . S
O38 Zn28 2.067 . S
O38 C36 1.270 . S
C39 O32 1.262 . S
C39 O40 1.232 . S
O40 C39 1.232 . S
C41 O33 1.260 . S
C41 O34 1.257 . S
Zn42 O45 2.031 . S
Zn42 O47 2.049 . S
Zn42 O52 2.067 . S
Zn43 O44 1.962 . S
Zn43 O46 1.986 . S
Zn43 O48 1.996 . S
Zn43 O51 1.943 . S
O44 Zn43 1.962 . S
O44 C49 1.254 . S
O45 Zn42 2.031 . S
O45 C49 1.269 . S
O46 Zn43 1.986 . S
O46 C53 1.262 . S
O47 Zn42 2.049 . S
O47 C55 1.260 . S
O48 Zn43 1.996 . S
O48 C55 1.257 . S
C49 O44 1.254 . S
C49 O45 1.269 . S
C50 O51 1.249 . S
C50 O52 1.270 . S
O51 Zn43 1.943 . S
O51 C50 1.249 . S
O52 Zn42 2.067 . S
O52 C50 1.270 . S
C53 O46 1.262 . S
C53 O54 1.232 . S
O54 C53 1.232 . S
C55 O47 1.260 . S
C55 O48 1.257 . S
Zn56 O59 2.031 . S
Zn56 O61 2.049 . S
Zn56 O66 2.067 . S
Zn57 O58 1.962 . S
Zn57 O60 1.986 . S
Zn57 O62 1.996 . S
Zn57 O65 1.943 . S
O58 Zn57 1.962 . S
O58 C63 1.254 . S
O59 Zn56 2.031 . S
O59 C63 1.269 . S
O60 Zn57 1.986 . S
O60 C67 1.262 . S
O61 Zn56 2.049 . S
O61 C69 1.260 . S
O62 Zn57 1.996 . S
O62 C69 1.257 . S
C63 O58 1.254 . S
C63 O59 1.269 . S
C64 O65 1.249 . S
C64 O66 1.270 . S
O65 Zn57 1.943 . S
O65 C64 1.249 . S
O66 Zn56 2.067 . S
O66 C64 1.270 . S
C67 O60 1.262 . S
C67 O68 1.232 . S
O68 C67 1.232 . S
C69 O61 1.260 . S
C69 O62 1.257 . S
Zn70 O73 2.031 . S
Zn70 O75 2.049 . S
Zn70 O80 2.067 . S
Zn71 O72 1.962 . S
Zn71 O74 1.986 . S
Zn71 O76 1.996 . S
Zn71 O79 1.943 . S
O72 Zn71 1.962 . S
O72 C77 1.254 . S
O73 Zn70 2.031 . S
O73 C77 1.269 . S
O74 Zn71 1.986 . S
O74 C81 1.262 . S
O75 Zn70 2.049 . S
O75 C83 1.260 . S
O76 Zn71 1.996 . S
O76 C83 1.257 . S
C77 O72 1.254 . S
C77 O73 1.269 . S
C78 O79 1.249 . S
C78 O80 1.270 . S
O79 Zn71 1.943 . S
O79 C78 1.249 . S
O80 Zn70 2.067 . S
O80 C78 1.270 . S
C81 O74 1.262 . S
C81 O82 1.232 . S
O82 C81 1.232 . S
C83 O75 1.260 . S
C83 O76 1.257 . S
Zn84 O87 2.031 . S
Zn84 O89 2.049 . S
Zn84 O94 2.067 . S
Zn85 O86 1.962 . S
Zn85 O88 1.986 . S
Zn85 O90 1.996 . S
Zn85 O93 1.943 . S
O86 Zn85 1.962 . S
O86 C91 1.254 . S
O87 Zn84 2.031 . S
O87 C91 1.269 . S
O88 Zn85 1.986 . S
O88 C95 1.262 . S
O89 Zn84 2.049 . S
O89 C97 1.260 . S
O90 Zn85 1.996 . S
O90 C97 1.257 . S
C91 O86 1.254 . S
C91 O87 1.269 . S
C92 O93 1.249 . S
C92 O94 1.270 . S
O93 Zn85 1.943 . S
O93 C92 1.249 . S
O94 Zn84 2.067 . S
O94 C92 1.270 . S
C95 O88 1.262 . S
C95 O96 1.232 . S
O96 C95 1.232 . S
C97 O89 1.260 . S
C97 O90 1.257 . S
Zn98 O101 2.031 . S
Zn98 O103 2.049 . S
Zn98 O108 2.067 . S
Zn99 O100 1.962 . S
Zn99 O102 1.986 . S
Zn99 O104 1.996 . S
Zn99 O107 1.943 . S
O100 Zn99 1.962 . S
O100 C105 1.254 . S
O101 Zn98 2.031 . S
O101 C105 1.269 . S
O102 Zn99 1.986 . S
O102 C109 1.262 . S
O103 Zn98 2.049 . S
O103 C111 1.260 . S
O104 Zn99 1.996 . S
O104 C111 1.257 . S
C105 O100 1.254 . S
C105 O101 1.269 . S
C106 O107 1.249 . S
C106 O108 1.270 . S
O107 Zn99 1.943 . S
O107 C106 1.249 . S
O108 Zn98 2.067 . S
O108 C106 1.270 . S
C109 O102 1.262 . S
C109 O110 1.232 . S
O110 C109 1.232 . S
C111 O103 1.260 . S
C111 O104 1.257 . S
Zn112 O115 2.031 . S
Zn112 O117 2.049 . S
Zn112 O122 2.067 . S
Zn113 O114 1.962 . S
Zn113 O116 1.986 . S
Zn113 O118 1.996 . S
Zn113 O121 1.943 . S
O114 Zn113 1.962 . S
O114 C119 1.254 . S
O115 Zn112 2.031 . S
O115 C119 1.269 . S
O116 Zn113 1.986 . S
O116 C123 1.262 . S
O117 Zn112 2.049 . S
O117 C125 1.260 . S
O118 Zn113 1.996 . S
O118 C125 1.257 . S
C119 O114 1.254 . S
C119 O115 1.269 . S
C120 O121 1.249 . S
C120 O122 1.270 . S
O121 Zn113 1.943 . S
O121 C120 1.249 . S
O122 Zn112 2.067 . S
O122 C120 1.270 . S
C123 O116 1.262 . S
C123 O124 1.232 . S
O124 C123 1.232 . S
C125 O117 1.260 . S
C125 O118 1.257 . S
Zn126 O129 2.031 . S
Zn126 O131 2.049 . S
Zn126 O136 2.067 . S
Zn127 O128 1.962 . S
Zn127 O130 1.986 . S
Zn127 O132 1.996 . S
Zn127 O135 1.943 . S
O128 Zn127 1.962 . S
O128 C133 1.254 . S
O129 Zn126 2.031 . S
O129 C133 1.269 . S
O130 Zn127 1.986 . S
O130 C137 1.262 . S
O131 Zn126 2.049 . S
O131 C139 1.260 . S
O132 Zn127 1.996 . S
O132 C139 1.257 . S
C133 O128 1.254 . S
C133 O129 1.269 . S
C134 O135 1.249 . S
C134 O136 1.270 . S
O135 Zn127 1.943 . S
O135 C134 1.249 . S
O136 Zn126 2.067 . S
O136 C134 1.270 . S
C137 O130 1.262 . S
C137 O138 1.232 . S
O138 C137 1.232 . S
C139 O131 1.260 . S
C139 O132 1.257 . S
Zn140 O143 2.031 . S
Zn140 O145 2.049 . S
Zn140 O150 2.067 . S
Zn141 O142 1.962 . S
Zn141 O144 1.986 . S
Zn141 O146 1.996 . S
Zn141 O149 1.943 . S
O142 Zn141 1.962 . S
O142 C147 1.254 . S
O143 Zn140 2.031 . S
O143 C147 1.269 . S
O144 Zn141 1.986 . S
O144 C151 1.262 . S
O145 Zn140 2.049 . S
O145 C153 1.260 . S
O146 Zn141 1.996 . S
O146 C153 1.257 . S
C147 O142 1.254 . S
C147 O143 1.269 . S
C148 O149 1.249 . S
C148 O150 1.270 . S
O149 Zn141 1.943 . S
O149 C148 1.249 . S
O150 Zn140 2.067 . S
O150 C148 1.270 . S
C151 O144 1.262 . S
C151 O152 1.232 . S
O152 C151 1.232 . S
C153 O145 1.260 . S
C153 O146 1.257 . S
Zn154 O157 2.031 . S
Zn154 O159 2.049 . S
Zn154 O164 2.067 . S
Zn155 O156 1.962 . S
Zn155 O158 1.986 . S
Zn155 O160 1.996 . S
Zn155 O163 1.943 . S
O156 Zn155 1.962 . S
O156 C161 1.254 . S
O157 Zn154 2.031 . S
O157 C161 1.269 . S
O158 Zn155 1.986 . S
O158 C165 1.262 . S
O159 Zn154 2.049 . S
O159 C167 1.260 . S
O160 Zn155 1.996 . S
O160 C167 1.257 . S
C161 O156 1.254 . S
C161 O157 1.269 . S
C162 O163 1.249 . S
C162 O164 1.270 . S
O163 Zn155 1.943 . S
O163 C162 1.249 . S
O164 Zn154 2.067 . S
O164 C162 1.270 . S
C165 O158 1.262 . S
C165 O166 1.232 . S
O166 C165 1.232 . S
C167 O159 1.260 . S
C167 O160 1.257 . S
Zn168 O171 2.031 . S
Zn168 O173 2.049 . S
Zn168 O178 2.067 1_455 S
Zn169 O170 1.962 . S
Zn169 O172 1.954 1_455 S
Zn169 O174 1.996 . S
Zn169 O177 1.943 1_455 S
O170 Zn169 1.962 . S
O170 C175 1.254 . S
O171 Zn168 2.031 . S
O171 C175 1.269 . S
O172 Zn169 1.954 1_655 S
O172 C179 1.284 . S
O173 Zn168 2.049 . S
O173 C181 1.260 . S
O174 Zn169 1.996 . S
O174 C181 1.257 . S
C175 O170 1.254 . S
C175 O171 1.269 . S
C176 O177 1.249 . S
C176 O178 1.270 . S
O177 Zn169 1.943 1_655 S
O177 C176 1.249 . S
O178 Zn168 2.067 1_655 S
O178 C176 1.270 . S
C179 O172 1.284 . S
C179 O180 1.232 . S
O180 C179 1.232 . S
C181 O173 1.260 . S
C181 O174 1.257 . S
Zn182 O185 2.031 . S
Zn182 O187 2.049 . S
Zn182 O192 2.067 . S
Zn183 O184 1.962 . S
Zn183 O186 1.986 . S
Zn183 O188 1.996 . S
Zn183 O191 1.943 . S
O184 Zn183 1.962 . S
O184 C189 1.254 . S
O185 Zn182 2.031 . S
O185 C189 1.269 . S
O186 Zn183 1.986 . S
O186 C193 1.262 . S
O187 Zn182 2.049 . S
O187 C195 1.260 . S
O188 Zn183 1.996 . S
O188 C195 1.257 . S
C189 O184 1.254 . S
C189 O185 1.269 . S
C190 O191 1.249 . S
C190 O192 1.270 . S
O191 Zn183 1.943 . S
O191 C190 1.249 . S
O192 Zn182 2.067 . S
O192 C190 1.270 . S
C193 O186 1.262 . S
C193 O194 1.232 . S
O194 C193 1.232 . S
C195 O187 1.260 . S
C195 O188 1.257 . S
Zn196 O199 2.031 . S
Zn196 O201 2.049 . S
Zn196 O206 2.067 1_565 S
Zn197 O198 1.962 . S
Zn197 O200 1.986 . S
Zn197 O202 1.996 . S
Zn197 O205 1.943 1_565 S
O198 Zn197 1.962 . S
O198 C203 1.254 . S
O199 Zn196 2.031 . S
O199 C203 1.269 . S
O200 Zn197 1.986 . S
O200 C207 1.262 1_565 S
O201 Zn196 2.049 . S
O201 C209 1.260 . S
O202 Zn197 1.996 . S
O202 C209 1.257 . S
C203 O198 1.254 . S
C203 O199 1.269 . S
C204 O205 1.249 . S
C204 O206 1.270 . S
O205 Zn197 1.943 1_545 S
O205 C204 1.249 . S
O206 Zn196 2.067 1_545 S
O206 C204 1.270 . S
C207 O200 1.262 1_545 S
C207 O208 1.232 . S
O208 C207 1.232 . S
C209 O201 1.260 . S
C209 O202 1.257 . S
Zn210 O213 2.031 . S
Zn210 O215 2.049 . S
Zn210 O220 2.067 . S
Zn211 O212 1.962 . S
Zn211 O214 1.986 . S
Zn211 O216 1.996 . S
Zn211 O219 1.943 . S
O212 Zn211 1.962 . S
O212 C217 1.254 . S
O213 Zn210 2.031 . S
O213 C217 1.269 . S
O214 Zn211 1.986 . S
O214 C221 1.262 . S
O215 Zn210 2.049 . S
O215 C223 1.260 . S
O216 Zn211 1.996 . S
O216 C223 1.257 . S
C217 O212 1.254 . S
C217 O213 1.269 . S
C218 O219 1.249 . S
C218 O220 1.270 . S
O219 Zn211 1.943 . S
O219 C218 1.249 . S
O220 Zn210 2.067 . S
O220 C218 1.270 . S
C221 O214 1.262 . S
C221 O222 1.232 . S
O222 C221 1.232 . S
C223 O215 1.260 . S
C223 O216 1.257 . S
Zn224 O227 2.031 . S
Zn224 O229 2.049 . S
Zn224 O234 2.067 . S
Zn225 O226 1.962 . S
Zn225 O228 1.986 . S
Zn225 O230 1.996 . S
Zn225 O233 1.943 . S
O226 Zn225 1.962 . S
O226 C231 1.254 . S
O227 Zn224 2.031 . S
O227 C231 1.269 . S
O228 Zn225 1.986 . S
O228 C235 1.262 . S
O229 Zn224 2.049 . S
O229 C237 1.260 . S
O230 Zn225 1.996 . S
O230 C237 1.257 . S
C231 O226 1.254 . S
C231 O227 1.269 . S
C232 O233 1.249 . S
C232 O234 1.270 . S
O233 Zn225 1.943 . S
O233 C232 1.249 . S
O234 Zn224 2.067 . S
O234 C232 1.270 . S
C235 O228 1.262 . S
C235 O236 1.232 . S
O236 C235 1.232 . S
C237 O229 1.260 . S
C237 O230 1.257 . S
Zn238 O241 2.031 . S
Zn238 O243 2.049 . S
Zn238 O248 2.067 . S
Zn239 O240 1.962 . S
Zn239 O242 1.986 . S
Zn239 O244 1.996 . S
Zn239 O247 1.943 . S
O240 Zn239 1.962 . S
O240 C245 1.254 . S
O241 Zn238 2.031 . S
O241 C245 1.269 . S
O242 Zn239 1.986 . S
O242 C249 1.262 . S
O243 Zn238 2.049 . S
O243 C251 1.260 . S
O244 Zn239 1.996 . S
O244 C251 1.257 . S
C245 O240 1.254 . S
C245 O241 1.269 . S
C246 O247 1.249 . S
C246 O248 1.270 . S
O247 Zn239 1.943 . S
O247 C246 1.249 . S
O248 Zn238 2.067 . S
O248 C246 1.270 . S
C249 O242 1.262 . S
C249 O250 1.232 . S
O250 C249 1.232 . S
C251 O243 1.260 . S
C251 O244 1.257 . S
Zn252 O255 2.031 . S
Zn252 O257 2.049 1_554 S
Zn252 O262 2.067 . S
Zn253 O254 1.962 . S
Zn253 O256 1.986 . S
Zn253 O258 1.996 . S
Zn253 O261 1.943 . S
O254 Zn253 1.962 . S
O254 C259 1.254 . S
O255 Zn252 2.031 . S
O255 C259 1.269 . S
O256 Zn253 1.986 . S
O256 C263 1.262 . S
O257 Zn252 2.049 1_556 S
O257 C265 1.260 1_556 S
O258 Zn253 1.996 . S
O258 C265 1.257 . S
C259 O254 1.254 . S
C259 O255 1.269 . S
C260 O261 1.249 . S
C260 O262 1.270 . S
O261 Zn253 1.943 . S
O261 C260 1.249 . S
O262 Zn252 2.067 . S
O262 C260 1.270 . S
C263 O256 1.262 . S
C263 O264 1.232 . S
O264 C263 1.232 . S
C265 O257 1.260 1_554 S
C265 O258 1.257 . S
Zn266 O269 2.031 . S
Zn266 O271 2.049 1_554 S
Zn266 O276 2.067 . S
Zn267 O268 1.962 . S
Zn267 O270 1.986 . S
Zn267 O272 1.996 . S
Zn267 O275 1.943 . S
O268 Zn267 1.962 . S
O268 C273 1.254 . S
O269 Zn266 2.031 . S
O269 C273 1.269 . S
O270 Zn267 1.986 . S
O270 C277 1.262 . S
O271 Zn266 2.049 1_556 S
O271 C279 1.260 1_556 S
O272 Zn267 1.996 . S
O272 C279 1.257 . S
C273 O268 1.254 . S
C273 O269 1.269 . S
C274 O275 1.249 . S
C274 O276 1.270 . S
O275 Zn267 1.943 . S
O275 C274 1.249 . S
O276 Zn266 2.067 . S
O276 C274 1.270 . S
C277 O270 1.262 . S
C277 O278 1.232 . S
O278 C277 1.232 . S
C279 O271 1.260 1_554 S
C279 O272 1.257 . S
Zn280 O283 2.031 . S
Zn280 O285 2.049 1_554 S
Zn280 O290 2.067 . S
Zn281 O282 1.962 . S
Zn281 O284 1.986 . S
Zn281 O286 1.996 . S
Zn281 O289 1.943 . S
O282 Zn281 1.962 . S
O282 C287 1.254 . S
O283 Zn280 2.031 . S
O283 C287 1.269 . S
O284 Zn281 1.986 . S
O284 C291 1.262 . S
O285 Zn280 2.049 1_556 S
O285 C293 1.260 1_556 S
O286 Zn281 1.996 . S
O286 C293 1.257 . S
C287 O282 1.254 . S
C287 O283 1.269 . S
C288 O289 1.249 . S
C288 O290 1.270 . S
O289 Zn281 1.943 . S
O289 C288 1.249 . S
O290 Zn280 2.067 . S
O290 C288 1.270 . S
C291 O284 1.262 . S
C291 O292 1.232 . S
O292 C291 1.232 . S
C293 O285 1.260 1_554 S
C293 O286 1.257 . S
Zn294 O297 2.031 . S
Zn294 O299 2.049 . S
Zn294 O304 2.067 1_565 S
Zn295 O296 1.962 . S
Zn295 O298 1.954 1_565 S
Zn295 O300 1.996 . S
Zn295 O303 1.943 1_565 S
O296 Zn295 1.962 . S
O296 C301 1.254 . S
O297 Zn294 2.031 . S
O297 C301 1.269 . S
O298 Zn295 1.954 1_545 S
O298 C305 1.284 . S
O299 Zn294 2.049 . S
O299 C307 1.260 . S
O300 Zn295 1.996 . S
O300 C307 1.257 . S
C301 O296 1.254 . S
C301 O297 1.269 . S
C302 O303 1.249 . S
C302 O304 1.270 . S
O303 Zn295 1.943 1_545 S
O303 C302 1.249 . S
O304 Zn294 2.067 1_545 S
O304 C302 1.270 . S
C305 O298 1.284 . S
C305 O306 1.232 1_554 S
O306 C305 1.232 1_556 S
C307 O299 1.260 . S
C307 O300 1.257 . S
Zn308 O311 2.031 . S
Zn308 O313 2.049 . S
Zn308 O318 2.067 1_455 S
Zn309 O310 1.962 . S
Zn309 O312 1.986 . S
Zn309 O314 1.996 . S
Zn309 O317 1.943 1_455 S
O310 Zn309 1.962 . S
O310 C315 1.254 . S
O311 Zn308 2.031 . S
O311 C315 1.269 . S
O312 Zn309 1.986 . S
O312 C319 1.262 1_455 S
O313 Zn308 2.049 . S
O313 C321 1.260 . S
O314 Zn309 1.996 . S
O314 C321 1.257 . S
C315 O310 1.254 . S
C315 O311 1.269 . S
C316 O317 1.249 . S
C316 O318 1.270 . S
O317 Zn309 1.943 1_655 S
O317 C316 1.249 . S
O318 Zn308 2.067 1_655 S
O318 C316 1.270 . S
C319 O312 1.262 1_655 S
C319 O320 1.232 1_554 S
O320 C319 1.232 1_556 S
C321 O313 1.260 . S
C321 O314 1.257 . S
Zn322 O325 2.031 . S
Zn322 O327 2.049 . S
Zn322 O332 2.067 . S
Zn323 O324 1.962 . S
Zn323 O326 1.986 . S
Zn323 O328 1.996 . S
Zn323 O331 1.943 . S
O324 Zn323 1.962 . S
O324 C329 1.254 . S
O325 Zn322 2.031 . S
O325 C329 1.269 . S
O326 Zn323 1.986 . S
O326 C333 1.262 . S
O327 Zn322 2.049 . S
O327 C335 1.260 . S
O328 Zn323 1.996 . S
O328 C335 1.257 . S
C329 O324 1.254 . S
C329 O325 1.269 . S
C330 O331 1.249 . S
C330 O332 1.270 . S
O331 Zn323 1.943 . S
O331 C330 1.249 . S
O332 Zn322 2.067 . S
O332 C330 1.270 . S
C333 O326 1.262 . S
C333 O334 1.232 1_554 S
O334 C333 1.232 1_556 S
C335 O327 1.260 . S
C335 O328 1.257 . S
Zn336 O339 2.031 . S
Zn336 O341 2.049 1_556 S
Zn336 O346 2.067 . S
Zn337 O338 1.962 . S
Zn337 O340 1.986 . S
Zn337 O342 1.996 . S
Zn337 O345 1.943 . S
O338 Zn337 1.962 . S
O338 C343 1.254 . S
O339 Zn336 2.031 . S
O339 C343 1.269 . S
O340 Zn337 1.986 . S
O340 C347 1.262 . S
O341 Zn336 2.049 1_554 S
O341 C349 1.260 1_554 S
O342 Zn337 1.996 . S
O342 C349 1.257 . S
C343 O338 1.254 . S
C343 O339 1.269 . S
C344 O345 1.249 . S
C344 O346 1.270 . S
O345 Zn337 1.943 . S
O345 C344 1.249 . S
O346 Zn336 2.067 . S
O346 C344 1.270 . S
C347 O340 1.262 . S
C347 O348 1.232 . S
O348 C347 1.232 . S
C349 O341 1.260 1_556 S
C349 O342 1.257 . S
Zn350 O353 2.031 . S
Zn350 O355 2.049 1_556 S
Zn350 O360 2.067 . S
Zn351 O352 1.962 . S
Zn351 O354 1.986 . S
Zn351 O356 1.996 . S
Zn351 O359 1.943 . S
O352 Zn351 1.962 . S
O352 C357 1.254 . S
O353 Zn350 2.031 . S
O353 C357 1.269 . S
O354 Zn351 1.986 . S
O354 C361 1.262 . S
O355 Zn350 2.049 1_554 S
O355 C363 1.260 1_554 S
O356 Zn351 1.996 . S
O356 C363 1.257 . S
C357 O352 1.254 . S
C357 O353 1.269 . S
C358 O359 1.249 . S
C358 O360 1.270 . S
O359 Zn351 1.943 . S
O359 C358 1.249 . S
O360 Zn350 2.067 . S
O360 C358 1.270 . S
C361 O354 1.262 . S
C361 O362 1.232 . S
O362 C361 1.232 . S
C363 O355 1.260 1_556 S
C363 O356 1.257 . S
Zn364 O367 2.031 . S
Zn364 O369 2.049 1_556 S
Zn364 O374 2.067 . S
Zn365 O366 1.962 . S
Zn365 O368 1.986 . S
Zn365 O370 1.996 . S
Zn365 O373 1.943 . S
O366 Zn365 1.962 . S
O366 C371 1.254 . S
O367 Zn364 2.031 . S
O367 C371 1.269 . S
O368 Zn365 1.986 . S
O368 C375 1.262 . S
O369 Zn364 2.049 1_554 S
O369 C377 1.260 1_554 S
O370 Zn365 1.996 . S
O370 C377 1.257 . S
C371 O366 1.254 . S
C371 O367 1.269 . S
C372 O373 1.249 . S
C372 O374 1.270 . S
O373 Zn365 1.943 . S
O373 C372 1.249 . S
O374 Zn364 2.067 . S
O374 C372 1.270 . S
C375 O368 1.262 . S
C375 O376 1.232 . S
O376 C375 1.232 . S
C377 O369 1.260 1_556 S
C377 O370 1.257 . S
Zn378 O381 2.031 . S
Zn378 O383 2.049 . S
Zn378 O388 2.067 1_545 S
Zn379 O380 1.962 . S
Zn379 O382 1.954 1_545 S
Zn379 O384 1.996 . S
Zn379 O387 1.943 1_545 S
O380 Zn379 1.962 . S
O380 C385 1.254 . S
O381 Zn378 2.031 . S
O381 C385 1.269 . S
O382 Zn379 1.954 1_565 S
O382 C389 1.284 . S
O383 Zn378 2.049 . S
O383 C391 1.260 . S
O384 Zn379 1.996 . S
O384 C391 1.257 . S
C385 O380 1.254 . S
C385 O381 1.269 . S
C386 O387 1.249 . S
C386 O388 1.270 . S
O387 Zn379 1.943 1_565 S
O387 C386 1.249 . S
O388 Zn378 2.067 1_565 S
O388 C386 1.270 . S
C389 O382 1.284 . S
C389 O390 1.232 1_556 S
O390 C389 1.232 1_554 S
C391 O383 1.260 . S
C391 O384 1.257 . S
Zn392 O395 2.031 . S
Zn392 O397 2.049 . S
Zn392 O402 2.067 1_655 S
Zn393 O394 1.962 . S
Zn393 O396 1.986 . S
Zn393 O398 1.996 . S
Zn393 O401 1.943 1_655 S
O394 Zn393 1.962 . S
O394 C399 1.254 . S
O395 Zn392 2.031 . S
O395 C399 1.269 . S
O396 Zn393 1.986 . S
O396 C403 1.262 1_655 S
O397 Zn392 2.049 . S
O397 C405 1.260 . S
O398 Zn393 1.996 . S
O398 C405 1.257 . S
C399 O394 1.254 . S
C399 O395 1.269 . S
C400 O401 1.249 . S
C400 O402 1.270 . S
O401 Zn393 1.943 1_455 S
O401 C400 1.249 . S
O402 Zn392 2.067 1_455 S
O402 C400 1.270 . S
C403 O396 1.262 1_455 S
C403 O404 1.232 1_556 S
O404 C403 1.232 1_554 S
C405 O397 1.260 . S
C405 O398 1.257 . S
Zn406 O409 2.031 . S
Zn406 O411 2.049 . S
Zn406 O416 2.067 . S
Zn407 O408 1.962 . S
Zn407 O410 1.986 . S
Zn407 O412 1.996 . S
Zn407 O415 1.943 . S
O408 Zn407 1.962 . S
O408 C413 1.254 . S
O409 Zn406 2.031 . S
O409 C413 1.269 . S
O410 Zn407 1.986 . S
O410 C417 1.262 . S
O411 Zn406 2.049 . S
O411 C419 1.260 . S
O412 Zn407 1.996 . S
O412 C419 1.257 . S
C413 O408 1.254 . S
C413 O409 1.269 . S
C414 O415 1.249 . S
C414 O416 1.270 . S
O415 Zn407 1.943 . S
O415 C414 1.249 . S
O416 Zn406 2.067 . S
O416 C414 1.270 . S
C417 O410 1.262 . S
C417 O418 1.232 1_556 S
O418 C417 1.232 1_554 S
C419 O411 1.260 . S
C419 O412 1.257 . S
Zn420 O423 2.031 . S
Zn420 O425 2.049 . S
Zn420 O430 2.067 1_655 S
Zn421 O422 1.962 . S
Zn421 O424 1.954 1_655 S
Zn421 O426 1.996 . S
Zn421 O429 1.943 1_655 S
O422 Zn421 1.962 . S
O422 C427 1.254 . S
O423 Zn420 2.031 . S
O423 C427 1.269 . S
O424 Zn421 1.954 1_455 S
O424 C431 1.284 . S
O425 Zn420 2.049 . S
O425 C433 1.260 . S
O426 Zn421 1.996 . S
O426 C433 1.257 . S
C427 O422 1.254 . S
C427 O423 1.269 . S
C428 O429 1.249 . S
C428 O430 1.270 . S
O429 Zn421 1.943 1_455 S
O429 C428 1.249 . S
O430 Zn420 2.067 1_455 S
O430 C428 1.270 . S
C431 O424 1.284 . S
C431 O432 1.232 . S
O432 C431 1.232 . S
C433 O425 1.260 . S
C433 O426 1.257 . S
Zn434 O437 2.031 . S
Zn434 O439 2.049 . S
Zn434 O444 2.067 . S
Zn435 O436 1.962 . S
Zn435 O438 1.986 . S
Zn435 O440 1.996 . S
Zn435 O443 1.943 . S
O436 Zn435 1.962 . S
O436 C441 1.254 . S
O437 Zn434 2.031 . S
O437 C441 1.269 . S
O438 Zn435 1.986 . S
O438 C445 1.262 . S
O439 Zn434 2.049 . S
O439 C447 1.260 . S
O440 Zn435 1.996 . S
O440 C447 1.257 . S
C441 O436 1.254 . S
C441 O437 1.269 . S
C442 O443 1.249 . S
C442 O444 1.270 . S
O443 Zn435 1.943 . S
O443 C442 1.249 . S
O444 Zn434 2.067 . S
O444 C442 1.270 . S
C445 O438 1.262 . S
C445 O446 1.232 . S
O446 C445 1.232 . S
C447 O439 1.260 . S
C447 O440 1.257 . S
Zn448 O451 2.031 . S
Zn448 O453 2.049 . S
Zn448 O458 2.067 1_545 S
Zn449 O450 1.962 . S
Zn449 O452 1.986 . S
Zn449 O454 1.996 . S
Zn449 O457 1.943 1_545 S
O450 Zn449 1.962 . S
O450 C455 1.254 . S
O451 Zn448 2.031 . S
O451 C455 1.269 . S
O452 Zn449 1.986 . S
O452 C459 1.262 1_545 S
O453 Zn448 2.049 . S
O453 C461 1.260 . S
O454 Zn449 1.996 . S
O454 C461 1.257 . S
C455 O450 1.254 . S
C455 O451 1.269 . S
C456 O457 1.249 . S
C456 O458 1.270 . S
O457 Zn449 1.943 1_565 S
O457 C456 1.249 . S
O458 Zn448 2.067 1_565 S
O458 C456 1.270 . S
C459 O452 1.262 1_565 S
C459 O460 1.232 . S
O460 C459 1.232 . S
C461 O453 1.260 . S
C461 O454 1.257 . S
Zn462 O465 2.031 . S
Zn462 O467 2.049 . S
Zn462 O472 2.067 . S
Zn463 O464 1.962 . S
Zn463 O466 1.986 . S
Zn463 O468 1.996 . S
Zn463 O471 1.943 . S
O464 Zn463 1.962 . S
O464 C469 1.254 . S
O465 Zn462 2.031 . S
O465 C469 1.269 . S
O466 Zn463 1.986 . S
O466 C473 1.262 . S
O467 Zn462 2.049 . S
O467 C475 1.260 . S
O468 Zn463 1.996 . S
O468 C475 1.257 . S
C469 O464 1.254 . S
C469 O465 1.269 . S
C470 O471 1.249 . S
C470 O472 1.270 . S
O471 Zn463 1.943 . S
O471 C470 1.249 . S
O472 Zn462 2.067 . S
O472 C470 1.270 . S
C473 O466 1.262 . S
C473 O474 1.232 . S
O474 C473 1.232 . S
C475 O467 1.260 . S
C475 O468 1.257 . S
Zn476 O479 2.031 . S
Zn476 O481 2.049 . S
Zn476 O486 2.067 . S
Zn477 O478 1.962 . S
Zn477 O480 1.986 . S
Zn477 O482 1.996 . S
Zn477 O485 1.943 . S
O478 Zn477 1.962 . S
O478 C483 1.254 . S
O479 Zn476 2.031 . S
O479 C483 1.269 . S
O480 Zn477 1.986 . S
O480 C487 1.262 . S
O481 Zn476 2.049 . S
O481 C489 1.260 . S
O482 Zn477 1.996 . S
O482 C489 1.257 . S
C483 O478 1.254 . S
C483 O479 1.269 . S
C484 O485 1.249 . S
C484 O486 1.270 . S
O485 Zn477 1.943 . S
O485 C484 1.249 . S
O486 Zn476 2.067 . S
O486 C484 1.270 . S
C487 O480 1.262 . S
C487 O488 1.232 . S
O488 C487 1.232 . S
C489 O481 1.260 . S
C489 O482 1.257 . S
Zn490 O493 2.031 . S
Zn490 O495 2.049 . S
Zn490 O500 2.067 . S
Zn491 O492 1.962 . S
Zn491 O494 1.986 . S
Zn491 O496 1.996 . S
Zn491 O499 1.943 . S
O492 Zn491 1.962 . S
O492 C497 1.254 . S
O493 Zn490 2.031 . S
O493 C497 1.269 . S
O494 Zn491 1.986 . S
O494 C501 1.262 . S
O495 Zn490 2.049 . S
O495 C503 1.260 . S
O496 Zn491 1.996 . S
O496 C503 1.257 . S
C497 O492 1.254 . S
C497 O493 1.269 . S
C498 O499 1.249 . S
C498 O500 1.270 . S
O499 Zn491 1.943 . S
O499 C498 1.249 . S
O500 Zn490 2.067 . S
O500 C498 1.270 . S
C501 O494 1.262 . S
C501 O502 1.232 . S
O502 C501 1.232 . S
C503 O495 1.260 . S
C503 O496 1.257 . S
C504 C505 1.363 . S
C504 C510 1.379 1_565 S
C504 N512 1.356 . S
C505 C504 1.363 . S
C505 C511 1.363 . S
C506 C507 1.405 . S
C506 C511 1.345 1_545 S
C506 N513 1.363 . S
C507 C506 1.405 . S
C507 C510 1.363 . S
N508 C510 1.356 . S
N508 H520 0.984 . S
N508 H521 0.985 . S
N509 C511 1.356 . S
N509 H514 0.984 . S
N509 H515 0.985 . S
C510 C504 1.379 1_545 S
C510 C507 1.363 . S
C510 N508 1.356 . S
C511 C505 1.363 . S
C511 C506 1.345 1_565 S
C511 N509 1.356 . S
N512 C504 1.356 . S
N512 H518 0.984 . S
N512 H519 0.984 . S
N513 C506 1.363 . S
N513 H516 0.984 . S
N513 H517 0.985 1_545 S
H514 N509 0.984 . S
H515 N509 0.985 . S
H516 N513 0.984 . S
H517 N513 0.985 1_565 S
H518 N512 0.984 . S
H519 N512 0.984 . S
H520 N508 0.984 . S
H521 N508 0.985 . S
C522 C523 1.363 . S
C522 C528 1.379 1_455 S
C522 N530 1.356 . S
C523 C522 1.363 . S
C523 C529 1.363 . S
C524 C525 1.363 . S
C524 C529 1.379 1_655 S
C524 N531 1.356 . S
C525 C524 1.363 . S
C525 C528 1.363 . S
N526 C528 1.356 . S
N526 H538 0.984 . S
N526 H539 0.985 . S
N527 C529 1.356 . S
N527 H532 0.984 . S
N527 H533 0.985 . S
C528 C522 1.379 1_655 S
C528 C525 1.363 . S
C528 N526 1.356 . S
C529 C523 1.363 . S
C529 C524 1.379 1_455 S
C529 N527 1.356 . S
N530 C522 1.356 . S
N530 H536 0.984 . S
N530 H537 0.984 . S
N531 C524 1.356 . S
N531 H534 0.984 . S
N531 H535 0.985 . S
H532 N527 0.984 . S
H533 N527 0.985 . S
H534 N531 0.984 . S
H535 N531 0.985 . S
H536 N530 0.984 . S
H537 N530 0.984 . S
H538 N526 0.984 . S
H539 N526 0.985 . S
C540 C541 1.363 . S
C540 C546 1.379 . S
C540 N548 1.356 . S
C541 C540 1.363 . S
C541 C547 1.363 . S
C542 C543 1.363 . S
C542 C547 1.379 . S
C542 N549 1.356 . S
C543 C542 1.363 . S
C543 C546 1.363 . S
N544 C546 1.356 . S
N544 H556 0.984 . S
N544 H557 0.985 . S
N545 C547 1.356 . S
N545 H550 0.984 . S
N545 H551 0.985 . S
C546 C540 1.379 . S
C546 C543 1.363 . S
C546 N544 1.356 . S
C547 C541 1.363 . S
C547 C542 1.379 . S
C547 N545 1.356 . S
N548 C540 1.356 . S
N548 H554 0.984 . S
N548 H555 0.984 . S
N549 C542 1.356 . S
N549 H552 0.984 . S
N549 H553 0.985 . S
H550 N545 0.984 . S
H551 N545 0.985 . S
H552 N549 0.984 . S
H553 N549 0.985 . S
H554 N548 0.984 . S
H555 N548 0.984 . S
H556 N544 0.984 . S
H557 N544 0.985 . S
C558 C559 1.363 . S
C558 C564 1.379 1_565 S
C558 N566 1.356 . S
C559 C558 1.363 . S
C559 C565 1.363 . S
C560 C561 1.363 . S
C560 C565 1.379 1_545 S
C560 N567 1.356 . S
C561 C560 1.363 . S
C561 C564 1.363 . S
N562 C564 1.356 . S
N562 H574 0.984 . S
N562 H575 0.985 . S
N563 C565 1.356 . S
N563 H568 0.984 . S
N563 H569 0.985 . S
C564 C558 1.379 1_545 S
C564 C561 1.363 . S
C564 N562 1.356 . S
C565 C559 1.363 . S
C565 C560 1.379 1_565 S
C565 N563 1.356 . S
N566 C558 1.356 . S
N566 H572 0.984 . S
N566 H573 0.984 . S
N567 C560 1.356 . S
N567 H570 0.984 . S
N567 H571 0.985 . S
H568 N563 0.984 . S
H569 N563 0.985 . S
H570 N567 0.984 . S
H571 N567 0.985 . S
H572 N566 0.984 . S
H573 N566 0.984 . S
H574 N562 0.984 . S
H575 N562 0.985 . S
C576 C577 1.363 . S
C576 C582 1.379 1_455 S
C576 N584 1.356 . S
C577 C576 1.363 . S
C577 C583 1.363 . S
C578 C579 1.353 1_455 S
C578 C583 1.388 . S
C578 N585 1.354 1_455 S
C579 C578 1.353 1_655 S
C579 C582 1.363 . S
N580 C582 1.356 . S
N580 H592 0.984 . S
N580 H593 0.985 . S
N581 C583 1.356 . S
N581 H586 0.984 . S
N581 H587 0.985 . S
C582 C576 1.379 1_655 S
C582 C579 1.363 . S
C582 N580 1.356 . S
C583 C577 1.363 . S
C583 C578 1.388 . S
C583 N581 1.356 . S
N584 C576 1.356 . S
N584 H590 0.984 1_455 S
N584 H591 0.984 . S
N585 C578 1.354 1_655 S
N585 H588 0.984 . S
N585 H589 0.985 1_655 S
H586 N581 0.984 . S
H587 N581 0.985 . S
H588 N585 0.984 . S
H589 N585 0.985 1_455 S
H590 N584 0.984 1_655 S
H591 N584 0.984 . S
H592 N580 0.984 . S
H593 N580 0.985 . S
C594 C595 1.363 . S
C594 C600 1.379 . S
C594 N602 1.356 . S
C595 C594 1.363 . S
C595 C601 1.363 . S
C596 C597 1.363 . S
C596 C601 1.379 . S
C596 N603 1.356 . S
C597 C596 1.363 . S
C597 C600 1.363 . S
N598 C600 1.356 . S
N598 H610 0.984 . S
N598 H611 0.985 . S
N599 C601 1.356 . S
N599 H604 0.984 . S
N599 H605 0.985 . S
C600 C594 1.379 . S
C600 C597 1.363 . S
C600 N598 1.356 . S
C601 C595 1.363 . S
C601 C596 1.379 . S
C601 N599 1.356 . S
N602 C594 1.356 . S
N602 H608 0.984 . S
N602 H609 0.984 . S
N603 C596 1.356 . S
N603 H606 0.984 . S
N603 H607 0.985 . S
H604 N599 0.984 . S
H605 N599 0.985 . S
H606 N603 0.984 . S
H607 N603 0.985 . S
H608 N602 0.984 . S
H609 N602 0.984 . S
H610 N598 0.984 . S
H611 N598 0.985 . S
C612 C613 1.363 . S
C612 C618 1.379 . S
C612 N620 1.356 . S
C613 C612 1.363 . S
C613 C619 1.363 . S
C614 C615 1.363 . S
C614 C619 1.379 . S
C614 N621 1.356 . S
C615 C614 1.363 . S
C615 C618 1.363 . S
N616 C618 1.356 . S
N616 H628 0.984 . S
N616 H629 0.985 . S
N617 C619 1.356 . S
N617 H622 0.984 . S
N617 H623 0.985 . S
C618 C612 1.379 . S
C618 C615 1.363 . S
C618 N616 1.356 . S
C619 C613 1.363 . S
C619 C614 1.379 . S
C619 N617 1.356 . S
N620 C612 1.356 . S
N620 H626 0.984 . S
N620 H627 0.984 . S
N621 C614 1.356 . S
N621 H624 0.984 . S
N621 H625 0.985 . S
H622 N617 0.984 . S
H623 N617 0.985 . S
H624 N621 0.984 . S
H625 N621 0.985 . S
H626 N620 0.984 . S
H627 N620 0.984 . S
H628 N616 0.984 . S
H629 N616 0.985 . S
C630 C631 1.363 . S
C630 C636 1.379 . S
C630 N638 1.356 . S
C631 C630 1.363 . S
C631 C637 1.363 . S
C632 C633 1.363 . S
C632 C637 1.379 . S
C632 N639 1.356 . S
C633 C632 1.363 . S
C633 C636 1.363 . S
N634 C636 1.356 . S
N634 H646 0.984 . S
N634 H647 0.985 . S
N635 C637 1.356 . S
N635 H640 0.984 . S
N635 H641 0.985 . S
C636 C630 1.379 . S
C636 C633 1.363 . S
C636 N634 1.356 . S
C637 C631 1.363 . S
C637 C632 1.379 . S
C637 N635 1.356 . S
N638 C630 1.356 . S
N638 H644 0.984 . S
N638 H645 0.984 . S
N639 C632 1.356 . S
N639 H642 0.984 . S
N639 H643 0.985 . S
H640 N635 0.984 . S
H641 N635 0.985 . S
H642 N639 0.984 . S
H643 N639 0.985 . S
H644 N638 0.984 . S
H645 N638 0.984 . S
H646 N634 0.984 . S
H647 N634 0.985 . S
C648 C649 1.363 . S
C648 C654 1.379 . S
C648 N656 1.356 . S
C649 C648 1.363 . S
C649 C655 1.363 . S
C650 C651 1.363 . S
C650 C655 1.379 . S
C650 N657 1.356 . S
C651 C650 1.363 . S
C651 C654 1.363 . S
N652 C654 1.356 . S
N652 H664 0.984 . S
N652 H665 0.985 . S
N653 C655 1.356 . S
N653 H658 0.984 . S
N653 H659 0.985 . S
C654 C648 1.379 . S
C654 C651 1.363 . S
C654 N652 1.356 . S
C655 C649 1.363 . S
C655 C650 1.379 . S
C655 N653 1.356 . S
N656 C648 1.356 . S
N656 H662 0.984 . S
N656 H663 0.984 . S
N657 C650 1.356 . S
N657 H660 0.984 . S
N657 H661 0.985 . S
H658 N653 0.984 . S
H659 N653 0.985 . S
H660 N657 0.984 . S
H661 N657 0.985 . S
H662 N656 0.984 . S
H663 N656 0.984 . S
H664 N652 0.984 . S
H665 N652 0.985 . S
C666 C667 1.363 . S
C666 C672 1.379 . S
C666 N674 1.356 1_554 S
C667 C666 1.363 . S
C667 C673 1.363 . S
C668 C669 1.363 . S
C668 C673 1.379 . S
C668 N675 1.356 . S
C669 C668 1.363 . S
C669 C672 1.363 . S
N670 C672 1.356 . S
N670 H682 0.984 . S
N670 H683 0.985 . S
N671 C673 1.356 . S
N671 H676 0.984 . S
N671 H677 0.985 . S
C672 C666 1.379 . S
C672 C669 1.363 . S
C672 N670 1.356 . S
C673 C667 1.363 . S
C673 C668 1.379 . S
C673 N671 1.356 . S
N674 C666 1.356 1_556 S
N674 H680 0.984 . S
N674 H681 0.984 . S
N675 C668 1.356 . S
N675 H678 0.984 . S
N675 H679 0.985 . S
H676 N671 0.984 . S
H677 N671 0.985 . S
H678 N675 0.984 . S
H679 N675 0.985 . S
H680 N674 0.984 . S
H681 N674 0.984 . S
H682 N670 0.984 . S
H683 N670 0.985 . S
C684 C685 1.363 . S
C684 C690 1.379 . S
C684 N692 1.356 . S
C685 C684 1.363 . S
C685 C691 1.363 . S
C686 C687 1.363 . S
C686 C691 1.379 . S
C686 N693 1.356 . S
C687 C686 1.363 . S
C687 C690 1.363 . S
N688 C690 1.356 . S
N688 H700 0.984 . S
N688 H701 0.985 . S
N689 C691 1.356 . S
N689 H694 0.984 . S
N689 H695 0.985 . S
C690 C684 1.379 . S
C690 C687 1.363 . S
C690 N688 1.356 . S
C691 C685 1.363 . S
C691 C686 1.379 . S
C691 N689 1.356 . S
N692 C684 1.356 . S
N692 H698 0.984 . S
N692 H699 0.984 . S
N693 C686 1.356 . S
N693 H696 0.984 . S
N693 H697 0.985 . S
H694 N689 0.984 . S
H695 N689 0.985 . S
H696 N693 0.984 . S
H697 N693 0.985 . S
H698 N692 0.984 . S
H699 N692 0.984 . S
H700 N688 0.984 . S
H701 N688 0.985 . S
C702 C703 1.363 . S
C702 C708 1.379 . S
C702 N710 1.356 . S
C703 C702 1.363 . S
C703 C709 1.363 . S
C704 C705 1.363 . S
C704 C709 1.379 . S
C704 N711 1.356 . S
C705 C704 1.363 . S
C705 C708 1.363 . S
N706 C708 1.356 1_556 S
N706 H718 0.984 . S
N706 H719 0.985 . S
N707 C709 1.356 . S
N707 H712 0.984 . S
N707 H713 0.985 . S
C708 C702 1.379 . S
C708 C705 1.363 . S
C708 N706 1.356 1_554 S
C709 C703 1.363 . S
C709 C704 1.379 . S
C709 N707 1.356 . S
N710 C702 1.356 . S
N710 H716 0.984 . S
N710 H717 0.984 . S
N711 C704 1.356 . S
N711 H714 0.984 . S
N711 H715 0.985 . S
H712 N707 0.984 . S
H713 N707 0.985 . S
H714 N711 0.984 . S
H715 N711 0.985 . S
H716 N710 0.984 . S
H717 N710 0.984 . S
H718 N706 0.984 . S
H719 N706 0.985 . S
C720 C721 1.363 . S
C720 C726 1.379 . S
C720 N728 1.356 . S
C721 C720 1.363 . S
C721 C727 1.363 . S
C722 C723 1.363 . S
C722 C727 1.379 . S
C722 N729 1.356 . S
C723 C722 1.363 . S
C723 C726 1.363 . S
N724 C726 1.356 . S
N724 H736 0.984 . S
N724 H737 0.985 . S
N725 C727 1.356 1_554 S
N725 H730 0.984 . S
N725 H731 0.985 . S
C726 C720 1.379 . S
C726 C723 1.363 . S
C726 N724 1.356 . S
C727 C721 1.363 . S
C727 C722 1.379 . S
C727 N725 1.356 1_556 S
N728 C720 1.356 . S
N728 H734 0.984 . S
N728 H735 0.984 . S
N729 C722 1.356 . S
N729 H732 0.984 . S
N729 H733 0.985 . S
H730 N725 0.984 . S
H731 N725 0.985 . S
H732 N729 0.984 . S
H733 N729 0.985 . S
H734 N728 0.984 . S
H735 N728 0.984 . S
H736 N724 0.984 . S
H737 N724 0.985 . S
C738 C739 1.363 . S
C738 C744 1.379 . S
C738 N746 1.356 1_556 S
C739 C738 1.363 . S
C739 C745 1.363 . S
C740 C741 1.363 . S
C740 C745 1.379 . S
C740 N747 1.356 . S
C741 C740 1.363 . S
C741 C744 1.363 . S
N742 C744 1.356 . S
N742 H754 0.984 . S
N742 H755 0.985 . S
N743 C745 1.356 . S
N743 H748 0.984 . S
N743 H749 0.985 . S
C744 C738 1.379 . S
C744 C741 1.363 . S
C744 N742 1.356 . S
C745 C739 1.363 . S
C745 C740 1.379 . S
C745 N743 1.356 . S
N746 C738 1.356 1_554 S
N746 H752 0.984 . S
N746 H753 0.984 . S
N747 C740 1.356 . S
N747 H750 0.984 . S
N747 H751 0.985 . S
H748 N743 0.984 . S
H749 N743 0.985 . S
H750 N747 0.984 . S
H751 N747 0.985 . S
H752 N746 0.984 . S
H753 N746 0.984 . S
H754 N742 0.984 . S
H755 N742 0.985 . S
C756 C757 1.363 . S
C756 C762 1.379 . S
C756 N764 1.356 . S
C757 C756 1.363 . S
C757 C763 1.363 . S
C758 C759 1.363 . S
C758 C763 1.379 . S
C758 N765 1.356 . S
C759 C758 1.363 . S
C759 C762 1.363 . S
N760 C762 1.356 . S
N760 H772 0.984 . S
N760 H773 0.985 . S
N761 C763 1.356 . S
N761 H766 0.984 . S
N761 H767 0.985 . S
C762 C756 1.379 . S
C762 C759 1.363 . S
C762 N760 1.356 . S
C763 C757 1.363 . S
C763 C758 1.379 . S
C763 N761 1.356 . S
N764 C756 1.356 . S
N764 H770 0.984 . S
N764 H771 0.984 . S
N765 C758 1.356 . S
N765 H768 0.984 . S
N765 H769 0.985 . S
H766 N761 0.984 . S
H767 N761 0.985 . S
H768 N765 0.984 . S
H769 N765 0.985 . S
H770 N764 0.984 . S
H771 N764 0.984 . S
H772 N760 0.984 . S
H773 N760 0.985 . S
C774 C775 1.363 . S
C774 C780 1.379 . S
C774 N782 1.356 . S
C775 C774 1.363 . S
C775 C781 1.363 . S
C776 C777 1.363 . S
C776 C781 1.379 . S
C776 N783 1.356 . S
C777 C776 1.363 . S
C777 C780 1.363 . S
N778 C780 1.356 . S
N778 H790 0.984 1_455 S
N778 H791 0.985 . S
N779 C781 1.356 . S
N779 H784 0.984 . S
N779 H785 0.985 . S
C780 C774 1.379 . S
C780 C777 1.363 . S
C780 N778 1.356 . S
C781 C775 1.363 . S
C781 C776 1.379 . S
C781 N779 1.356 . S
N782 C774 1.356 . S
N782 H788 0.984 . S
N782 H789 0.984 . S
N783 C776 1.356 . S
N783 H786 0.984 . S
N783 H787 0.985 . S
H784 N779 0.984 . S
H785 N779 0.985 . S
H786 N783 0.984 . S
H787 N783 0.985 . S
H788 N782 0.984 . S
H789 N782 0.984 . S
H790 N778 0.984 1_655 S
H791 N778 0.985 . S
C792 C793 1.363 . S
C792 C798 1.379 . S
C792 N800 1.356 . S
C793 C792 1.363 . S
C793 C799 1.363 . S
C794 C795 1.363 . S
C794 C799 1.379 . S
C794 N801 1.356 . S
C795 C794 1.363 . S
C795 C798 1.363 . S
N796 C798 1.356 . S
N796 H808 0.984 . S
N796 H809 0.985 . S
N797 C799 1.356 . S
N797 H802 0.984 . S
N797 H803 0.985 . S
C798 C792 1.379 . S
C798 C795 1.363 . S
C798 N796 1.356 . S
C799 C793 1.363 . S
C799 C794 1.379 . S
C799 N797 1.356 . S
N800 C792 1.356 . S
N800 H806 0.984 . S
N800 H807 0.984 . S
N801 C794 1.356 . S
N801 H804 0.984 . S
N801 H805 0.985 . S
H802 N797 0.984 . S
H803 N797 0.985 . S
H804 N801 0.984 . S
H805 N801 0.985 . S
H806 N800 0.984 . S
H807 N800 0.984 . S
H808 N796 0.984 . S
H809 N796 0.985 . S
C810 C811 1.363 . S
C810 C816 1.379 . S
C810 N818 1.356 . S
C811 C810 1.363 . S
C811 C817 1.363 . S
C812 C813 1.363 . S
C812 C817 1.379 . S
C812 N819 1.356 . S
C813 C812 1.363 . S
C813 C816 1.363 . S
N814 C816 1.356 . S
N814 H826 0.984 . S
N814 H827 0.985 . S
N815 C817 1.356 . S
N815 H820 0.984 . S
N815 H821 0.985 . S
C816 C810 1.379 . S
C816 C813 1.363 . S
C816 N814 1.356 . S
C817 C811 1.363 . S
C817 C812 1.379 . S
C817 N815 1.356 . S
N818 C810 1.356 . S
N818 H824 0.984 . S
N818 H825 0.984 . S
N819 C812 1.356 . S
N819 H822 0.984 . S
N819 H823 0.985 . S
H820 N815 0.984 . S
H821 N815 0.985 . S
H822 N819 0.984 . S
H823 N819 0.985 . S
H824 N818 0.984 . S
H825 N818 0.984 . S
H826 N814 0.984 . S
H827 N814 0.985 . S
C828 C829 1.363 . S
C828 C834 1.379 . S
C828 N836 1.356 . S
C829 C828 1.363 . S
C829 C835 1.363 . S
C830 C831 1.363 . S
C830 C835 1.379 . S
C830 N837 1.356 . S
C831 C830 1.363 . S
C831 C834 1.363 . S
N832 C834 1.356 . S
N832 H844 0.984 . S
N832 H845 0.985 . S
N833 C835 1.356 . S
N833 H838 0.984 . S
N833 H839 0.985 . S
C834 C828 1.379 . S
C834 C831 1.363 . S
C834 N832 1.356 . S
C835 C829 1.363 . S
C835 C830 1.379 . S
C835 N833 1.356 . S
N836 C828 1.356 . S
N836 H842 0.984 . S
N836 H843 0.984 . S
N837 C830 1.356 . S
N837 H840 0.984 . S
N837 H841 0.985 . S
H838 N833 0.984 . S
H839 N833 0.985 . S
H840 N837 0.984 . S
H841 N837 0.985 . S
H842 N836 0.984 . S
H843 N836 0.984 . S
H844 N832 0.984 . S
H845 N832 0.985 . S
C846 C847 1.363 . S
C846 C852 1.379 . S
C846 N854 1.356 . S
C847 C846 1.363 . S
C847 C853 1.363 . S
C848 C849 1.363 . S
C848 C853 1.379 . S
C848 N855 1.356 . S
C849 C848 1.363 . S
C849 C852 1.363 . S
N850 C852 1.356 . S
N850 H862 0.984 . S
N850 H863 0.985 . S
N851 C853 1.356 . S
N851 H856 0.984 . S
N851 H857 0.985 . S
C852 C846 1.379 . S
C852 C849 1.363 . S
C852 N850 1.356 . S
C853 C847 1.363 . S
C853 C848 1.379 . S
C853 N851 1.356 . S
N854 C846 1.356 . S
N854 H860 0.984 . S
N854 H861 0.984 . S
N855 C848 1.356 . S
N855 H858 0.984 . S
N855 H859 0.985 . S
H856 N851 0.984 . S
H857 N851 0.985 . S
H858 N855 0.984 . S
H859 N855 0.985 . S
H860 N854 0.984 . S
H861 N854 0.984 . S
H862 N850 0.984 . S
H863 N850 0.985 . S
C864 C865 1.363 . S
C864 C870 1.379 . S
C864 N872 1.356 . S
C865 C864 1.363 . S
C865 C871 1.363 . S
C866 C867 1.363 . S
C866 C871 1.379 . S
C866 N873 1.356 . S
C867 C866 1.363 . S
C867 C870 1.363 . S
N868 C870 1.356 . S
N868 H880 0.984 . S
N868 H881 0.985 . S
N869 C871 1.356 . S
N869 H874 0.984 . S
N869 H875 0.985 . S
C870 C864 1.379 . S
C870 C867 1.363 . S
C870 N868 1.356 . S
C871 C865 1.363 . S
C871 C866 1.379 . S
C871 N869 1.356 . S
N872 C864 1.356 . S
N872 H878 0.984 . S
N872 H879 0.984 . S
N873 C866 1.356 . S
N873 H876 0.984 . S
N873 H877 0.985 . S
H874 N869 0.984 . S
H875 N869 0.985 . S
H876 N873 0.984 . S
H877 N873 0.985 . S
H878 N872 0.984 . S
H879 N872 0.984 . S
H880 N868 0.984 . S
H881 N868 0.985 . S
C882 C883 1.363 . S
C882 C888 1.379 . S
C882 N890 1.356 . S
C883 C882 1.363 . S
C883 C889 1.363 . S
C884 C885 1.363 . S
C884 C889 1.379 . S
C884 N891 1.356 . S
C885 C884 1.363 . S
C885 C888 1.363 . S
N886 C888 1.356 . S
N886 H898 0.984 . S
N886 H899 0.985 1_554 S
N887 C889 1.356 . S
N887 H892 0.984 . S
N887 H893 0.985 . S
C888 C882 1.379 . S
C888 C885 1.363 . S
C888 N886 1.356 . S
C889 C883 1.363 . S
C889 C884 1.379 . S
C889 N887 1.356 . S
N890 C882 1.356 . S
N890 H896 0.984 . S
N890 H897 0.984 . S
N891 C884 1.356 . S
N891 H894 0.984 . S
N891 H895 0.985 . S
H892 N887 0.984 . S
H893 N887 0.985 . S
H894 N891 0.984 . S
H895 N891 0.985 . S
H896 N890 0.984 . S
H897 N890 0.984 . S
H898 N886 0.984 . S
H899 N886 0.985 1_556 S
C900 C901 1.363 . S
C900 C906 1.379 . S
C900 N908 1.356 . S
C901 C900 1.363 . S
C901 C907 1.363 . S
C902 C903 1.363 . S
C902 C907 1.379 . S
C902 N909 1.356 . S
C903 C902 1.363 . S
C903 C906 1.363 . S
N904 C906 1.356 . S
N904 H916 0.984 . S
N904 H917 0.985 1_554 S
N905 C907 1.356 . S
N905 H910 0.984 . S
N905 H911 0.985 . S
C906 C900 1.379 . S
C906 C903 1.363 . S
C906 N904 1.356 . S
C907 C901 1.363 . S
C907 C902 1.379 . S
C907 N905 1.356 . S
N908 C900 1.356 . S
N908 H914 0.984 . S
N908 H915 0.984 . S
N909 C902 1.356 . S
N909 H912 0.984 . S
N909 H913 0.985 . S
H910 N905 0.984 . S
H911 N905 0.985 . S
H912 N909 0.984 . S
H913 N909 0.985 . S
H914 N908 0.984 . S
H915 N908 0.984 . S
H916 N904 0.984 . S
H917 N904 0.985 1_556 S
C918 C919 1.363 . S
C918 C924 1.379 . S
C918 N926 1.356 . S
C919 C918 1.363 . S
C919 C925 1.363 . S
C920 C921 1.363 . S
C920 C925 1.379 . S
C920 N927 1.356 . S
C921 C920 1.363 . S
C921 C924 1.363 . S
N922 C924 1.356 . S
N922 H934 0.984 . S
N922 H935 0.985 . S
N923 C925 1.356 . S
N923 H928 0.984 . S
N923 H929 0.985 . S
C924 C918 1.379 . S
C924 C921 1.363 . S
C924 N922 1.356 . S
C925 C919 1.363 . S
C925 C920 1.379 . S
C925 N923 1.356 . S
N926 C918 1.356 . S
N926 H932 0.984 . S
N926 H933 0.984 . S
N927 C920 1.356 . S
N927 H930 0.984 1_554 S
N927 H931 0.985 . S
H928 N923 0.984 . S
H929 N923 0.985 . S
H930 N927 0.984 1_556 S
H931 N927 0.985 . S
H932 N926 0.984 . S
H933 N926 0.984 . S
H934 N922 0.984 . S
H935 N922 0.985 . S
C936 C937 1.363 . S
C936 C942 1.379 . S
C936 N944 1.356 . S
C937 C936 1.363 . S
C937 C943 1.363 . S
C938 C939 1.363 . S
C938 C943 1.379 . S
C938 N945 1.356 . S
C939 C938 1.363 . S
C939 C942 1.363 . S
N940 C942 1.356 . S
N940 H952 0.984 . S
N940 H953 0.985 . S
N941 C943 1.356 . S
N941 H946 0.984 . S
N941 H947 0.985 . S
C942 C936 1.379 . S
C942 C939 1.363 . S
C942 N940 1.356 . S
C943 C937 1.363 . S
C943 C938 1.379 . S
C943 N941 1.356 . S
N944 C936 1.356 . S
N944 H950 0.984 . S
N944 H951 0.984 . S
N945 C938 1.356 . S
N945 H948 0.984 . S
N945 H949 0.985 . S
H946 N941 0.984 . S
H947 N941 0.985 . S
H948 N945 0.984 . S
H949 N945 0.985 . S
H950 N944 0.984 . S
H951 N944 0.984 . S
H952 N940 0.984 . S
H953 N940 0.985 . S
C954 C955 1.363 . S
C954 C960 1.379 . S
C954 N962 1.356 . S
C955 C954 1.363 . S
C955 C961 1.363 . S
C956 C957 1.363 . S
C956 C961 1.379 . S
C956 N963 1.356 . S
C957 C956 1.363 . S
C957 C960 1.363 . S
N958 C960 1.356 . S
N958 H970 0.984 . S
N958 H971 0.985 . S
N959 C961 1.356 . S
N959 H964 0.984 . S
N959 H965 0.985 . S
C960 C954 1.379 . S
C960 C957 1.363 . S
C960 N958 1.356 . S
C961 C955 1.363 . S
C961 C956 1.379 . S
C961 N959 1.356 . S
N962 C954 1.356 . S
N962 H968 0.984 . S
N962 H969 0.984 . S
N963 C956 1.356 . S
N963 H966 0.984 . S
N963 H967 0.985 . S
H964 N959 0.984 . S
H965 N959 0.985 . S
H966 N963 0.984 . S
H967 N963 0.985 . S
H968 N962 0.984 . S
H969 N962 0.984 . S
H970 N958 0.984 . S
H971 N958 0.985 . S
C972 C973 1.363 . S
C972 C978 1.379 . S
C972 N980 1.356 . S
C973 C972 1.363 . S
C973 C979 1.363 . S
C974 C975 1.363 . S
C974 C979 1.379 . S
C974 N981 1.356 . S
C975 C974 1.363 . S
C975 C978 1.363 . S
N976 C978 1.356 . S
N976 H988 0.984 . S
N976 H989 0.985 . S
N977 C979 1.356 . S
N977 H982 0.984 . S
N977 H983 0.985 . S
C978 C972 1.379 . S
C978 C975 1.363 . S
C978 N976 1.356 . S
C979 C973 1.363 . S
C979 C974 1.379 . S
C979 N977 1.356 . S
N980 C972 1.356 . S
N980 H986 0.984 . S
N980 H987 0.984 . S
N981 C974 1.356 . S
N981 H984 0.984 . S
N981 H985 0.985 . S
H982 N977 0.984 . S
H983 N977 0.985 . S
H984 N981 0.984 . S
H985 N981 0.985 . S
H986 N980 0.984 . S
H987 N980 0.984 . S
H988 N976 0.984 . S
H989 N976 0.985 . S
C990 C991 1.363 . S
C990 C996 1.379 . S
C990 N998 1.356 . S
C991 C990 1.363 . S
C991 C997 1.363 . S
C992 C993 1.363 . S
C992 C997 1.379 . S
C992 N999 1.356 . S
C993 C992 1.363 . S
C993 C996 1.363 . S
N994 C996 1.356 . S
N994 H1006 0.984 . S
N994 H1007 0.985 . S
N995 C997 1.356 . S
N995 H1000 0.984 . S
N995 H1001 0.985 . S
C996 C990 1.379 . S
C996 C993 1.363 . S
C996 N994 1.356 . S
C997 C991 1.363 . S
C997 C992 1.379 . S
C997 N995 1.356 . S
N998 C990 1.356 . S
N998 H1004 0.984 1_556 S
N998 H1005 0.984 1_556 S
N999 C992 1.356 . S
N999 H1002 0.984 . S
N999 H1003 0.985 . S
H1000 N995 0.984 . S
H1001 N995 0.985 . S
H1002 N999 0.984 . S
H1003 N999 0.985 . S
H1004 N998 0.984 1_554 S
H1005 N998 0.984 1_554 S
H1006 N994 0.984 . S
H1007 N994 0.985 . S
C1008 C1009 1.363 . S
C1008 C1014 1.379 . S
C1008 N1016 1.356 . S
C1009 C1008 1.363 . S
C1009 C1015 1.363 . S
C1010 C1011 1.363 . S
C1010 C1015 1.379 . S
C1010 N1017 1.356 . S
C1011 C1010 1.363 . S
C1011 C1014 1.363 . S
N1012 C1014 1.356 . S
N1012 H1024 0.984 . S
N1012 H1025 0.985 . S
N1013 C1015 1.356 . S
N1013 H1018 0.984 1_556 S
N1013 H1019 0.985 . S
C1014 C1008 1.379 . S
C1014 C1011 1.363 . S
C1014 N1012 1.356 . S
C1015 C1009 1.363 . S
C1015 C1010 1.379 . S
C1015 N1013 1.356 . S
N1016 C1008 1.356 . S
N1016 H1022 0.984 . S
N1016 H1023 0.984 . S
N1017 C1010 1.356 . S
N1017 H1020 0.984 . S
N1017 H1021 0.985 . S
H1018 N1013 0.984 1_554 S
H1019 N1013 0.985 . S
H1020 N1017 0.984 . S
H1021 N1017 0.985 . S
H1022 N1016 0.984 . S
H1023 N1016 0.984 . S
H1024 N1012 0.984 . S
H1025 N1012 0.985 . S
C1026 C1027 1.363 . S
C1026 C1032 1.379 . S
C1026 N1034 1.356 . S
C1027 C1026 1.363 . S
C1027 C1033 1.363 . S
C1028 C1029 1.363 . S
C1028 C1033 1.379 . S
C1028 N1035 1.356 . S
C1029 C1028 1.363 . S
C1029 C1032 1.363 . S
N1030 C1032 1.356 . S
N1030 H1042 0.984 . S
N1030 H1043 0.985 . S
N1031 C1033 1.356 . S
N1031 H1036 0.984 . S
N1031 H1037 0.985 . S
C1032 C1026 1.379 . S
C1032 C1029 1.363 . S
C1032 N1030 1.356 . S
C1033 C1027 1.363 . S
C1033 C1028 1.379 . S
C1033 N1031 1.356 . S
N1034 C1026 1.356 . S
N1034 H1040 0.984 . S
N1034 H1041 0.984 . S
N1035 C1028 1.356 . S
N1035 H1038 0.984 1_556 S
N1035 H1039 0.985 . S
H1036 N1031 0.984 . S
H1037 N1031 0.985 . S
H1038 N1035 0.984 1_554 S
H1039 N1035 0.985 . S
H1040 N1034 0.984 . S
H1041 N1034 0.984 . S
H1042 N1030 0.984 . S
H1043 N1030 0.985 . S
C1044 C1045 1.363 1_655 S
C1044 C1050 1.379 . S
C1044 N1052 1.356 . S
C1045 C1044 1.363 1_455 S
C1045 C1051 1.363 . S
C1046 C1047 1.363 1_455 S
C1046 C1051 1.379 . S
C1046 N1053 1.356 . S
C1047 C1046 1.363 1_655 S
C1047 C1050 1.363 . S
N1048 C1050 1.356 . S
N1048 H1060 0.984 . S
N1048 H1061 0.985 . S
N1049 C1051 1.356 . S
N1049 H1054 0.984 . S
N1049 H1055 0.985 . S
C1050 C1044 1.379 . S
C1050 C1047 1.363 . S
C1050 N1048 1.356 . S
C1051 C1045 1.363 . S
C1051 C1046 1.379 . S
C1051 N1049 1.356 . S
N1052 C1044 1.356 . S
N1052 H1058 0.984 . S
N1052 H1059 0.984 . S
N1053 C1046 1.356 . S
N1053 H1056 0.984 1_455 S
N1053 H1057 0.985 . S
H1054 N1049 0.984 . S
H1055 N1049 0.985 . S
H1056 N1053 0.984 1_655 S
H1057 N1053 0.985 . S
H1058 N1052 0.984 . S
H1059 N1052 0.984 . S
H1060 N1048 0.984 . S
H1061 N1048 0.985 . S
C1062 C1063 1.363 . S
C1062 C1068 1.379 . S
C1062 N1070 1.356 . S
C1063 C1062 1.363 . S
C1063 C1069 1.363 . S
C1064 C1065 1.363 . S
C1064 C1069 1.379 . S
C1064 N1071 1.356 . S
C1065 C1064 1.363 . S
C1065 C1068 1.363 . S
N1066 C1068 1.356 . S
N1066 H1078 0.984 . S
N1066 H1079 0.985 . S
N1067 C1069 1.356 . S
N1067 H1072 0.984 . S
N1067 H1073 0.985 . S
C1068 C1062 1.379 . S
C1068 C1065 1.363 . S
C1068 N1066 1.356 . S
C1069 C1063 1.363 . S
C1069 C1064 1.379 . S
C1069 N1067 1.356 . S
N1070 C1062 1.356 . S
N1070 H1076 0.984 . S
N1070 H1077 0.984 . S
N1071 C1064 1.356 . S
N1071 H1074 0.984 . S
N1071 H1075 0.985 . S
H1072 N1067 0.984 . S
H1073 N1067 0.985 . S
H1074 N1071 0.984 . S
H1075 N1071 0.985 . S
H1076 N1070 0.984 . S
H1077 N1070 0.984 . S
H1078 N1066 0.984 . S
H1079 N1066 0.985 . S
C1080 C1081 1.363 . S
C1080 C1086 1.368 1_545 S
C1080 N1088 1.356 . S
C1081 C1080 1.363 . S
C1081 C1087 1.363 1_545 S
C1082 C1083 1.363 . S
C1082 C1087 1.379 . S
C1082 N1089 1.356 . S
C1083 C1082 1.363 . S
C1083 C1086 1.369 . S
N1084 C1086 1.364 . S
N1084 H1096 0.984 1_565 S
N1084 H1097 0.985 . S
N1085 C1087 1.356 . S
N1085 H1090 0.984 1_565 S
N1085 H1091 0.985 . S
C1086 C1080 1.368 1_565 S
C1086 C1083 1.369 . S
C1086 N1084 1.364 . S
C1087 C1081 1.363 1_565 S
C1087 C1082 1.379 . S
C1087 N1085 1.356 . S
N1088 C1080 1.356 . S
N1088 H1094 0.984 . S
N1088 H1095 0.984 . S
N1089 C1082 1.356 . S
N1089 H1092 0.984 . S
N1089 H1093 0.985 . S
H1090 N1085 0.984 1_545 S
H1091 N1085 0.985 . S
H1092 N1089 0.984 . S
H1093 N1089 0.985 . S
H1094 N1088 0.984 . S
H1095 N1088 0.984 . S
H1096 N1084 0.984 1_545 S
H1097 N1084 0.985 . S
C1098 C1099 1.363 1_545 S
C1098 C1104 1.379 . S
C1098 N1106 1.356 . S
C1099 C1098 1.363 1_565 S
C1099 C1105 1.363 . S
C1100 C1101 1.356 1_565 S
C1100 C1105 1.392 . S
C1100 N1107 1.340 1_565 S
C1101 C1100 1.356 1_545 S
C1101 C1104 1.363 . S
N1102 C1104 1.356 . S
N1102 H1114 0.984 . S
N1102 H1115 0.985 . S
N1103 C1105 1.356 . S
N1103 H1108 0.984 . S
N1103 H1109 0.985 . S
C1104 C1098 1.379 . S
C1104 C1101 1.363 . S
C1104 N1102 1.356 . S
C1105 C1099 1.363 . S
C1105 C1100 1.392 . S
C1105 N1103 1.356 . S
N1106 C1098 1.356 . S
N1106 H1112 0.984 . S
N1106 H1113 0.984 1_545 S
N1107 C1100 1.340 1_545 S
N1107 H1110 0.999 . S
N1107 H1111 0.980 1_545 S
H1108 N1103 0.984 . S
H1109 N1103 0.985 . S
H1110 N1107 0.999 . S
H1111 N1107 0.980 1_565 S
H1112 N1106 0.984 . S
H1113 N1106 0.984 1_565 S
H1114 N1102 0.984 . S
H1115 N1102 0.985 . S
C1116 C1117 1.363 1_455 S
C1116 C1122 1.379 . S
C1116 N1124 1.356 . S
C1117 C1116 1.363 1_655 S
C1117 C1123 1.363 . S
C1118 C1119 1.363 1_655 S
C1118 C1123 1.379 . S
C1118 N1125 1.356 . S
C1119 C1118 1.363 1_455 S
C1119 C1122 1.363 . S
N1120 C1122 1.356 . S
N1120 H1132 0.984 . S
N1120 H1133 0.985 . S
N1121 C1123 1.356 . S
N1121 H1126 0.984 . S
N1121 H1127 0.985 . S
C1122 C1116 1.379 . S
C1122 C1119 1.363 . S
C1122 N1120 1.356 . S
C1123 C1117 1.363 . S
C1123 C1118 1.379 . S
C1123 N1121 1.356 . S
N1124 C1116 1.356 . S
N1124 H1130 0.984 . S
N1124 H1131 0.984 . S
N1125 C1118 1.356 . S
N1125 H1128 0.984 1_655 S
N1125 H1129 0.985 . S
H1126 N1121 0.984 . S
H1127 N1121 0.985 . S
H1128 N1125 0.984 1_455 S
H1129 N1125 0.985 . S
H1130 N1124 0.984 . S
H1131 N1124 0.984 . S
H1132 N1120 0.984 . S
H1133 N1120 0.985 . S
C1134 C1135 1.363 . S
C1134 C1140 1.379 . S
C1134 N1142 1.356 . S
C1135 C1134 1.363 . S
C1135 C1141 1.363 . S
C1136 C1137 1.363 . S
C1136 C1141 1.379 . S
C1136 N1143 1.356 . S
C1137 C1136 1.363 . S
C1137 C1140 1.363 . S
N1138 C1140 1.356 . S
N1138 H1150 0.984 . S
N1138 H1151 0.985 . S
N1139 C1141 1.356 . S
N1139 H1144 0.984 . S
N1139 H1145 0.985 . S
C1140 C1134 1.379 . S
C1140 C1137 1.363 . S
C1140 N1138 1.356 . S
C1141 C1135 1.363 . S
C1141 C1136 1.379 . S
C1141 N1139 1.356 . S
N1142 C1134 1.356 . S
N1142 H1148 0.984 . S
N1142 H1149 0.984 . S
N1143 C1136 1.356 . S
N1143 H1146 0.984 . S
N1143 H1147 0.985 . S
H1144 N1139 0.984 . S
H1145 N1139 0.985 . S
H1146 N1143 0.984 . S
H1147 N1143 0.985 . S
H1148 N1142 0.984 . S
H1149 N1142 0.984 . S
H1150 N1138 0.984 . S
H1151 N1138 0.985 . S
C1152 C1153 1.363 . S
C1152 C1158 1.379 . S
C1152 N1160 1.356 . S
C1153 C1152 1.363 . S
C1153 C1159 1.363 . S
C1154 C1155 1.363 . S
C1154 C1159 1.379 . S
C1154 N1161 1.356 . S
C1155 C1154 1.363 . S
C1155 C1158 1.363 . S
N1156 C1158 1.356 . S
N1156 H1168 0.984 . S
N1156 H1169 0.985 . S
N1157 C1159 1.356 . S
N1157 H1162 0.984 . S
N1157 H1163 0.985 . S
C1158 C1152 1.379 . S
C1158 C1155 1.363 . S
C1158 N1156 1.356 . S
C1159 C1153 1.363 . S
C1159 C1154 1.379 . S
C1159 N1157 1.356 . S
N1160 C1152 1.356 . S
N1160 H1166 0.984 . S
N1160 H1167 0.984 . S
N1161 C1154 1.356 . S
N1161 H1164 0.984 . S
N1161 H1165 0.985 . S
H1162 N1157 0.984 . S
H1163 N1157 0.985 . S
H1164 N1161 0.984 . S
H1165 N1161 0.985 . S
H1166 N1160 0.984 . S
H1167 N1160 0.984 . S
H1168 N1156 0.984 . S
H1169 N1156 0.985 . S
C1170 C1171 1.363 . S
C1170 C1176 1.379 . S
C1170 N1178 1.356 . S
C1171 C1170 1.363 . S
C1171 C1177 1.363 . S
C1172 C1173 1.363 . S
C1172 C1177 1.379 . S
C1172 N1179 1.356 . S
C1173 C1172 1.363 . S
C1173 C1176 1.363 . S
N1174 C1176 1.356 . S
N1174 H1186 0.984 . S
N1174 H1187 0.985 . S
N1175 C1177 1.356 . S
N1175 H1180 0.984 . S
N1175 H1181 0.985 . S
C1176 C1170 1.379 . S
C1176 C1173 1.363 . S
C1176 N1174 1.356 . S
C1177 C1171 1.363 . S
C1177 C1172 1.379 . S
C1177 N1175 1.356 . S
N1178 C1170 1.356 . S
N1178 H1184 0.984 . S
N1178 H1185 0.984 . S
N1179 C1172 1.356 . S
N1179 H1182 0.984 . S
N1179 H1183 0.985 . S
H1180 N1175 0.984 . S
H1181 N1175 0.985 . S
H1182 N1179 0.984 . S
H1183 N1179 0.985 . S
H1184 N1178 0.984 . S
H1185 N1178 0.984 . S
H1186 N1174 0.984 . S
H1187 N1174 0.985 . S
C1188 C1189 1.363 . S
C1188 C1194 1.379 . S
C1188 N1196 1.356 . S
C1189 C1188 1.363 . S
C1189 C1195 1.363 . S
C1190 C1191 1.363 . S
C1190 C1195 1.379 . S
C1190 N1197 1.356 . S
C1191 C1190 1.363 . S
C1191 C1194 1.363 . S
N1192 C1194 1.356 . S
N1192 H1204 0.984 . S
N1192 H1205 0.985 . S
N1193 C1195 1.356 . S
N1193 H1198 0.984 . S
N1193 H1199 0.985 . S
C1194 C1188 1.379 . S
C1194 C1191 1.363 . S
C1194 N1192 1.356 . S
C1195 C1189 1.363 . S
C1195 C1190 1.379 . S
C1195 N1193 1.356 . S
N1196 C1188 1.356 . S
N1196 H1202 0.984 . S
N1196 H1203 0.984 . S
N1197 C1190 1.356 . S
N1197 H1200 0.984 . S
N1197 H1201 0.985 . S
H1198 N1193 0.984 . S
H1199 N1193 0.985 . S
H1200 N1197 0.984 . S
H1201 N1197 0.985 . S
H1202 N1196 0.984 . S
H1203 N1196 0.984 . S
H1204 N1192 0.984 . S
H1205 N1192 0.985 . S
C1206 C1207 1.363 . S
C1206 C1212 1.379 . S
C1206 N1214 1.356 . S
C1207 C1206 1.363 . S
C1207 C1213 1.363 . S
C1208 C1209 1.363 . S
C1208 C1213 1.379 . S
C1208 N1215 1.356 . S
C1209 C1208 1.363 . S
C1209 C1212 1.363 . S
N1210 C1212 1.356 . S
N1210 H1222 0.984 . S
N1210 H1223 0.985 . S
N1211 C1213 1.356 . S
N1211 H1216 0.984 . S
N1211 H1217 0.985 . S
C1212 C1206 1.379 . S
C1212 C1209 1.363 . S
C1212 N1210 1.356 . S
C1213 C1207 1.363 . S
C1213 C1208 1.379 . S
C1213 N1211 1.356 . S
N1214 C1206 1.356 . S
N1214 H1220 0.984 . S
N1214 H1221 0.984 . S
N1215 C1208 1.356 . S
N1215 H1218 0.984 . S
N1215 H1219 0.985 . S
H1216 N1211 0.984 . S
H1217 N1211 0.985 . S
H1218 N1215 0.984 . S
H1219 N1215 0.985 . S
H1220 N1214 0.984 . S
H1221 N1214 0.984 . S
H1222 N1210 0.984 . S
H1223 N1210 0.985 . S
C1224 C1225 1.363 . S
C1224 C1230 1.379 . S
C1224 N1232 1.356 . S
C1225 C1224 1.363 . S
C1225 C1231 1.363 . S
C1226 C1227 1.363 . S
C1226 C1231 1.379 . S
C1226 N1233 1.356 . S
C1227 C1226 1.363 . S
C1227 C1230 1.363 . S
N1228 C1230 1.356 . S
N1228 H1240 0.984 . S
N1228 H1241 0.985 . S
N1229 C1231 1.356 . S
N1229 H1234 0.984 . S
N1229 H1235 0.985 . S
C1230 C1224 1.379 . S
C1230 C1227 1.363 . S
C1230 N1228 1.356 . S
C1231 C1225 1.363 . S
C1231 C1226 1.379 . S
C1231 N1229 1.356 . S
N1232 C1224 1.356 . S
N1232 H1238 0.984 . S
N1232 H1239 0.984 . S
N1233 C1226 1.356 . S
N1233 H1236 0.984 . S
N1233 H1237 0.985 . S
H1234 N1229 0.984 . S
H1235 N1229 0.985 . S
H1236 N1233 0.984 . S
H1237 N1233 0.985 . S
H1238 N1232 0.984 . S
H1239 N1232 0.984 . S
H1240 N1228 0.984 . S
H1241 N1228 0.985 . S
C1242 C1243 1.363 . S
C1242 C1248 1.379 . S
C1242 N1250 1.356 . S
C1243 C1242 1.363 . S
C1243 C1249 1.363 . S
C1244 C1245 1.363 . S
C1244 C1249 1.379 . S
C1244 N1251 1.356 . S
C1245 C1244 1.363 . S
C1245 C1248 1.363 . S
N1246 C1248 1.356 . S
N1246 H1258 0.984 . S
N1246 H1259 0.985 . S
N1247 C1249 1.356 . S
N1247 H1252 0.984 . S
N1247 H1253 0.985 . S
C1248 C1242 1.379 . S
C1248 C1245 1.363 . S
C1248 N1246 1.356 . S
C1249 C1243 1.363 . S
C1249 C1244 1.379 . S
C1249 N1247 1.356 . S
N1250 C1242 1.356 . S
N1250 H1256 0.984 . S
N1250 H1257 0.984 . S
N1251 C1244 1.356 . S
N1251 H1254 0.984 . S
N1251 H1255 0.985 . S
H1252 N1247 0.984 . S
H1253 N1247 0.985 . S
H1254 N1251 0.984 . S
H1255 N1251 0.985 . S
H1256 N1250 0.984 . S
H1257 N1250 0.984 . S
H1258 N1246 0.984 . S
H1259 N1246 0.985 . S
C1260 C1261 1.363 . S
C1260 C1266 1.379 . S
C1260 N1268 1.356 . S
C1261 C1260 1.363 . S
C1261 C1267 1.363 . S
C1262 C1263 1.363 . S
C1262 C1267 1.379 . S
C1262 N1269 1.356 . S
C1263 C1262 1.363 . S
C1263 C1266 1.363 . S
N1264 C1266 1.356 . S
N1264 H1276 0.984 . S
N1264 H1277 0.985 . S
N1265 C1267 1.356 . S
N1265 H1270 0.984 . S
N1265 H1271 0.985 . S
C1266 C1260 1.379 . S
C1266 C1263 1.363 . S
C1266 N1264 1.356 . S
C1267 C1261 1.363 . S
C1267 C1262 1.379 . S
C1267 N1265 1.356 . S
N1268 C1260 1.356 . S
N1268 H1274 0.984 . S
N1268 H1275 0.984 . S
N1269 C1262 1.356 . S
N1269 H1272 0.984 . S
N1269 H1273 0.985 . S
H1270 N1265 0.984 . S
H1271 N1265 0.985 . S
H1272 N1269 0.984 . S
H1273 N1269 0.985 . S
H1274 N1268 0.984 . S
H1275 N1268 0.984 . S
H1276 N1264 0.984 . S
H1277 N1264 0.985 . S
C1278 C1279 1.363 . S
C1278 C1284 1.379 . S
C1278 N1286 1.356 . S
C1279 C1278 1.363 . S
C1279 C1285 1.363 . S
C1280 C1281 1.363 . S
C1280 C1285 1.379 . S
C1280 N1287 1.356 . S
C1281 C1280 1.363 . S
C1281 C1284 1.363 . S
N1282 C1284 1.356 . S
N1282 H1294 0.984 . S
N1282 H1295 0.985 . S
N1283 C1285 1.356 . S
N1283 H1288 0.984 . S
N1283 H1289 0.985 . S
C1284 C1278 1.379 . S
C1284 C1281 1.363 . S
C1284 N1282 1.356 . S
C1285 C1279 1.363 . S
C1285 C1280 1.379 . S
C1285 N1283 1.356 . S
N1286 C1278 1.356 . S
N1286 H1292 0.984 . S
N1286 H1293 0.984 . S
N1287 C1280 1.356 . S
N1287 H1290 0.984 . S
N1287 H1291 0.985 . S
H1288 N1283 0.984 . S
H1289 N1283 0.985 . S
H1290 N1287 0.984 . S
H1291 N1287 0.985 . S
H1292 N1286 0.984 . S
H1293 N1286 0.984 . S
H1294 N1282 0.984 . S
H1295 N1282 0.985 . S
C1296 C1297 1.363 . S
C1296 C1302 1.379 . S
C1296 N1304 1.356 . S
C1297 C1296 1.363 . S
C1297 C1303 1.363 . S
C1298 C1299 1.363 . S
C1298 C1303 1.379 . S
C1298 N1305 1.356 . S
C1299 C1298 1.363 . S
C1299 C1302 1.363 . S
N1300 C1302 1.356 . S
N1300 H1312 0.984 . S
N1300 H1313 0.985 . S
N1301 C1303 1.356 . S
N1301 H1306 0.984 . S
N1301 H1307 0.985 . S
C1302 C1296 1.379 . S
C1302 C1299 1.363 . S
C1302 N1300 1.356 . S
C1303 C1297 1.363 . S
C1303 C1298 1.379 . S
C1303 N1301 1.356 . S
N1304 C1296 1.356 . S
N1304 H1310 0.984 . S
N1304 H1311 0.984 . S
N1305 C1298 1.356 . S
N1305 H1308 0.984 . S
N1305 H1309 0.985 . S
H1306 N1301 0.984 . S
H1307 N1301 0.985 . S
H1308 N1305 0.984 . S
H1309 N1305 0.985 . S
H1310 N1304 0.984 . S
H1311 N1304 0.984 . S
H1312 N1300 0.984 . S
H1313 N1300 0.985 . S
C1314 C1315 1.363 . S
C1314 C1320 1.379 . S
C1314 N1322 1.356 . S
C1315 C1314 1.363 . S
C1315 C1321 1.363 . S
C1316 C1317 1.363 . S
C1316 C1321 1.379 . S
C1316 N1323 1.356 . S
C1317 C1316 1.363 . S
C1317 C1320 1.363 . S
N1318 C1320 1.356 . S
N1318 H1330 0.984 . S
N1318 H1331 0.985 . S
N1319 C1321 1.356 . S
N1319 H1324 0.984 . S
N1319 H1325 0.985 . S
C1320 C1314 1.379 . S
C1320 C1317 1.363 . S
C1320 N1318 1.356 . S
C1321 C1315 1.363 . S
C1321 C1316 1.379 . S
C1321 N1319 1.356 . S
N1322 C1314 1.356 . S
N1322 H1328 0.984 . S
N1322 H1329 0.984 . S
N1323 C1316 1.356 . S
N1323 H1326 0.984 . S
N1323 H1327 0.985 . S
H1324 N1319 0.984 . S
H1325 N1319 0.985 . S
H1326 N1323 0.984 . S
H1327 N1323 0.985 . S
H1328 N1322 0.984 . S
H1329 N1322 0.984 . S
H1330 N1318 0.984 . S
H1331 N1318 0.985 . S
C1332 C1333 1.363 . S
C1332 C1338 1.379 . S
C1332 N1340 1.356 . S
C1333 C1332 1.363 . S
C1333 C1339 1.363 . S
C1334 C1335 1.363 . S
C1334 C1339 1.379 . S
C1334 N1341 1.356 . S
C1335 C1334 1.363 . S
C1335 C1338 1.363 . S
N1336 C1338 1.356 . S
N1336 H1348 0.984 . S
N1336 H1349 0.985 . S
N1337 C1339 1.356 . S
N1337 H1342 0.984 . S
N1337 H1343 0.985 . S
C1338 C1332 1.379 . S
C1338 C1335 1.363 . S
C1338 N1336 1.356 . S
C1339 C1333 1.363 . S
C1339 C1334 1.379 . S
C1339 N1337 1.356 . S
N1340 C1332 1.356 . S
N1340 H1346 0.984 . S
N1340 H1347 0.984 . S
N1341 C1334 1.356 . S
N1341 H1344 0.984 . S
N1341 H1345 0.985 . S
H1342 N1337 0.984 . S
H1343 N1337 0.985 . S
H1344 N1341 0.984 . S
H1345 N1341 0.985 . S
H1346 N1340 0.984 . S
H1347 N1340 0.984 . S
H1348 N1336 0.984 . S
H1349 N1336 0.985 . S
C1350 C1351 1.363 . S
C1350 C1356 1.379 . S
C1350 N1358 1.356 . S
C1351 C1350 1.363 . S
C1351 C1357 1.363 . S
C1352 C1353 1.363 . S
C1352 C1357 1.379 . S
C1352 N1359 1.356 . S
C1353 C1352 1.363 . S
C1353 C1356 1.363 . S
N1354 C1356 1.356 . S
N1354 H1366 0.984 . S
N1354 H1367 0.985 . S
N1355 C1357 1.356 . S
N1355 H1360 0.984 . S
N1355 H1361 0.985 . S
C1356 C1350 1.379 . S
C1356 C1353 1.363 . S
C1356 N1354 1.356 . S
C1357 C1351 1.363 . S
C1357 C1352 1.379 . S
C1357 N1355 1.356 . S
N1358 C1350 1.356 . S
N1358 H1364 0.984 . S
N1358 H1365 0.984 . S
N1359 C1352 1.356 . S
N1359 H1362 0.984 . S
N1359 H1363 0.985 . S
H1360 N1355 0.984 . S
H1361 N1355 0.985 . S
H1362 N1359 0.984 . S
H1363 N1359 0.985 . S
H1364 N1358 0.984 . S
H1365 N1358 0.984 . S
H1366 N1354 0.984 . S
H1367 N1354 0.985 . S
C1368 C1369 1.363 1_455 S
C1368 C1374 1.379 . S
C1368 N1376 1.356 . S
C1369 C1368 1.363 1_655 S
C1369 C1375 1.363 . S
C1370 C1371 1.363 1_655 S
C1370 C1375 1.379 . S
C1370 N1377 1.356 . S
C1371 C1370 1.363 1_455 S
C1371 C1374 1.363 . S
N1372 C1374 1.356 . S
N1372 H1384 0.984 . S
N1372 H1385 0.985 . S
N1373 C1375 1.356 . S
N1373 H1378 0.984 . S
N1373 H1379 0.985 . S
C1374 C1368 1.379 . S
C1374 C1371 1.363 . S
C1374 N1372 1.356 . S
C1375 C1369 1.363 . S
C1375 C1370 1.379 . S
C1375 N1373 1.356 . S
N1376 C1368 1.356 . S
N1376 H1382 0.984 . S
N1376 H1383 0.985 1_455 S
N1377 C1370 1.356 . S
N1377 H1380 0.985 1_655 S
N1377 H1381 0.985 . S
H1378 N1373 0.984 . S
H1379 N1373 0.985 . S
H1380 N1377 0.985 1_455 S
H1381 N1377 0.985 . S
H1382 N1376 0.984 . S
H1383 N1376 0.985 1_655 S
H1384 N1372 0.984 . S
H1385 N1372 0.985 . S
C1386 C1387 1.363 . S
C1386 C1392 1.379 . S
C1386 N1394 1.356 . S
C1387 C1386 1.363 . S
C1387 C1393 1.363 . S
C1388 C1389 1.363 . S
C1388 C1393 1.379 . S
C1388 N1395 1.356 . S
C1389 C1388 1.363 . S
C1389 C1392 1.363 . S
N1390 C1392 1.356 . S
N1390 H1402 0.984 . S
N1390 H1403 0.985 . S
N1391 C1393 1.356 . S
N1391 H1396 0.984 . S
N1391 H1397 0.985 . S
C1392 C1386 1.379 . S
C1392 C1389 1.363 . S
C1392 N1390 1.356 . S
C1393 C1387 1.363 . S
C1393 C1388 1.379 . S
C1393 N1391 1.356 . S
N1394 C1386 1.356 . S
N1394 H1400 0.984 . S
N1394 H1401 0.984 . S
N1395 C1388 1.356 . S
N1395 H1398 0.984 . S
N1395 H1399 0.985 . S
H1396 N1391 0.984 . S
H1397 N1391 0.985 . S
H1398 N1395 0.984 . S
H1399 N1395 0.985 . S
H1400 N1394 0.984 . S
H1401 N1394 0.984 . S
H1402 N1390 0.984 . S
H1403 N1390 0.985 . S
C1404 C1405 1.363 . S
C1404 C1410 1.379 . S
C1404 N1412 1.356 . S
C1405 C1404 1.363 . S
C1405 C1411 1.363 1_565 S
C1406 C1407 1.363 . S
C1406 C1411 1.379 . S
C1406 N1413 1.356 . S
C1407 C1406 1.363 . S
C1407 C1410 1.363 1_545 S
N1408 C1410 1.356 . S
N1408 H1420 0.984 . S
N1408 H1421 0.985 . S
N1409 C1411 1.356 . S
N1409 H1414 0.984 . S
N1409 H1415 0.985 . S
C1410 C1404 1.379 . S
C1410 C1407 1.363 1_565 S
C1410 N1408 1.356 . S
C1411 C1405 1.363 1_545 S
C1411 C1406 1.379 . S
C1411 N1409 1.356 . S
N1412 C1404 1.356 . S
N1412 H1418 0.984 . S
N1412 H1419 0.984 . S
N1413 C1406 1.356 . S
N1413 H1416 0.984 . S
N1413 H1417 0.985 . S
H1414 N1409 0.984 . S
H1415 N1409 0.985 . S
H1416 N1413 0.984 . S
H1417 N1413 0.985 . S
H1418 N1412 0.984 . S
H1419 N1412 0.984 . S
H1420 N1408 0.984 . S
H1421 N1408 0.985 . S
C1422 C1423 1.363 1_544 S
C1422 C1428 1.379 . S
C1422 N1430 1.356 . S
C1423 C1422 1.363 1_566 S
C1423 C1429 1.363 . S
C1424 C1425 1.363 1_566 S
C1424 C1429 1.379 . S
C1424 N1431 1.356 . S
C1425 C1424 1.363 1_544 S
C1425 C1428 1.363 . S
N1426 C1428 1.356 . S
N1426 H1438 0.984 . S
N1426 H1439 0.985 . S
N1427 C1429 1.356 . S
N1427 H1432 0.984 . S
N1427 H1433 0.985 . S
C1428 C1422 1.379 . S
C1428 C1425 1.363 . S
C1428 N1426 1.356 . S
C1429 C1423 1.363 . S
C1429 C1424 1.379 . S
C1429 N1427 1.356 . S
N1430 C1422 1.356 . S
N1430 H1436 0.984 . S
N1430 H1437 0.984 . S
N1431 C1424 1.356 . S
N1431 H1434 0.984 . S
N1431 H1435 0.985 . S
H1432 N1427 0.984 . S
H1433 N1427 0.985 . S
H1434 N1431 0.984 . S
H1435 N1431 0.985 . S
H1436 N1430 0.984 . S
H1437 N1430 0.984 . S
H1438 N1426 0.984 . S
H1439 N1426 0.985 . S
C1440 C1441 1.363 1_556 S
C1440 C1446 1.379 . S
C1440 N1448 1.356 . S
C1441 C1440 1.363 1_554 S
C1441 C1447 1.363 1_655 S
C1442 C1443 1.363 1_554 S
C1442 C1447 1.379 . S
C1442 N1449 1.356 . S
C1443 C1442 1.363 1_556 S
C1443 C1446 1.363 1_455 S
N1444 C1446 1.356 . S
N1444 H1456 0.984 . S
N1444 H1457 0.985 . S
N1445 C1447 1.356 . S
N1445 H1450 0.984 . S
N1445 H1451 0.985 . S
C1446 C1440 1.379 . S
C1446 C1443 1.363 1_655 S
C1446 N1444 1.356 . S
C1447 C1441 1.363 1_455 S
C1447 C1442 1.379 . S
C1447 N1445 1.356 . S
N1448 C1440 1.356 . S
N1448 H1454 0.984 . S
N1448 H1455 0.984 . S
N1449 C1442 1.356 . S
N1449 H1452 0.984 . S
N1449 H1453 0.985 . S
H1450 N1445 0.984 . S
H1451 N1445 0.985 . S
H1452 N1449 0.984 . S
H1453 N1449 0.985 . S
H1454 N1448 0.984 . S
H1455 N1448 0.984 . S
H1456 N1444 0.984 . S
H1457 N1444 0.985 . S
C1458 C1459 1.363 . S
C1458 C1464 1.379 . S
C1458 N1466 1.356 . S
C1459 C1458 1.363 . S
C1459 C1465 1.363 1_554 S
C1460 C1461 1.363 . S
C1460 C1465 1.379 . S
C1460 N1467 1.356 . S
C1461 C1460 1.363 . S
C1461 C1464 1.363 1_556 S
N1462 C1464 1.356 . S
N1462 H1474 0.984 . S
N1462 H1475 0.985 . S
N1463 C1465 1.356 . S
N1463 H1468 0.984 . S
N1463 H1469 0.985 . S
C1464 C1458 1.379 . S
C1464 C1461 1.363 1_554 S
C1464 N1462 1.356 . S
C1465 C1459 1.363 1_556 S
C1465 C1460 1.379 . S
C1465 N1463 1.356 . S
N1466 C1458 1.356 . S
N1466 H1472 0.984 . S
N1466 H1473 0.984 . S
N1467 C1460 1.356 . S
N1467 H1470 0.984 . S
N1467 H1471 0.985 . S
H1468 N1463 0.984 . S
H1469 N1463 0.985 . S
H1470 N1467 0.984 . S
H1471 N1467 0.985 . S
H1472 N1466 0.984 . S
H1473 N1466 0.984 . S
H1474 N1462 0.984 . S
H1475 N1462 0.985 . S
C1476 C1477 1.363 . S
C1476 C1482 1.379 . S
C1476 N1484 1.356 . S
C1477 C1476 1.363 . S
C1477 C1483 1.363 . S
C1478 C1479 1.363 . S
C1478 C1483 1.379 . S
C1478 N1485 1.356 . S
C1479 C1478 1.363 . S
C1479 C1482 1.363 . S
N1480 C1482 1.356 . S
N1480 H1492 0.984 . S
N1480 H1493 0.985 . S
N1481 C1483 1.356 . S
N1481 H1486 0.984 . S
N1481 H1487 0.985 . S
C1482 C1476 1.379 . S
C1482 C1479 1.363 . S
C1482 N1480 1.356 . S
C1483 C1477 1.363 . S
C1483 C1478 1.379 . S
C1483 N1481 1.356 . S
N1484 C1476 1.356 . S
N1484 H1490 0.984 1_545 S
N1484 H1491 0.984 . S
N1485 C1478 1.356 . S
N1485 H1488 0.984 . S
N1485 H1489 0.985 . S
H1486 N1481 0.984 . S
H1487 N1481 0.985 . S
H1488 N1485 0.984 . S
H1489 N1485 0.985 . S
H1490 N1484 0.984 1_565 S
H1491 N1484 0.984 . S
H1492 N1480 0.984 . S
H1493 N1480 0.985 . S
C1494 C1495 1.363 . S
C1494 C1500 1.379 . S
C1494 N1502 1.356 . S
C1495 C1494 1.363 . S
C1495 C1501 1.363 . S
C1496 C1497 1.363 . S
C1496 C1501 1.379 . S
C1496 N1503 1.356 . S
C1497 C1496 1.363 . S
C1497 C1500 1.363 . S
N1498 C1500 1.356 . S
N1498 H1510 0.984 . S
N1498 H1511 0.985 . S
N1499 C1501 1.356 . S
N1499 H1504 0.984 . S
N1499 H1505 0.985 . S
C1500 C1494 1.379 . S
C1500 C1497 1.363 . S
C1500 N1498 1.356 . S
C1501 C1495 1.363 . S
C1501 C1496 1.379 . S
C1501 N1499 1.356 . S
N1502 C1494 1.356 . S
N1502 H1508 0.984 . S
N1502 H1509 0.984 . S
N1503 C1496 1.356 . S
N1503 H1506 0.984 . S
N1503 H1507 0.985 . S
H1504 N1499 0.984 . S
H1505 N1499 0.985 . S
H1506 N1503 0.984 . S
H1507 N1503 0.985 . S
H1508 N1502 0.984 . S
H1509 N1502 0.984 . S
H1510 N1498 0.984 . S
H1511 N1498 0.985 . S
C1512 C1513 1.363 . S
C1512 C1518 1.379 . S
C1512 N1520 1.356 . S
C1513 C1512 1.363 . S
C1513 C1519 1.363 . S
C1514 C1515 1.363 . S
C1514 C1519 1.379 . S
C1514 N1521 1.356 . S
C1515 C1514 1.363 . S
C1515 C1518 1.363 . S
N1516 C1518 1.356 . S
N1516 H1528 0.984 . S
N1516 H1529 0.985 . S
N1517 C1519 1.356 1_556 S
N1517 H1522 0.984 . S
N1517 H1523 0.985 . S
C1518 C1512 1.379 . S
C1518 C1515 1.363 . S
C1518 N1516 1.356 . S
C1519 C1513 1.363 . S
C1519 C1514 1.379 . S
C1519 N1517 1.356 1_554 S
N1520 C1512 1.356 . S
N1520 H1526 0.984 . S
N1520 H1527 0.984 . S
N1521 C1514 1.356 . S
N1521 H1524 0.984 . S
N1521 H1525 0.985 . S
H1522 N1517 0.984 . S
H1523 N1517 0.985 . S
H1524 N1521 0.984 . S
H1525 N1521 0.985 . S
H1526 N1520 0.984 . S
H1527 N1520 0.984 . S
H1528 N1516 0.984 . S
H1529 N1516 0.985 . S
C1530 C1531 1.363 . S
C1530 C1536 1.379 . S
C1530 N1538 1.356 . S
C1531 C1530 1.363 . S
C1531 C1537 1.363 . S
C1532 C1533 1.363 . S
C1532 C1537 1.379 . S
C1532 N1539 1.356 . S
C1533 C1532 1.363 . S
C1533 C1536 1.363 . S
N1534 C1536 1.356 . S
N1534 H1546 0.984 . S
N1534 H1547 0.985 . S
N1535 C1537 1.356 . S
N1535 H1540 0.984 . S
N1535 H1541 0.985 . S
C1536 C1530 1.379 . S
C1536 C1533 1.363 . S
C1536 N1534 1.356 . S
C1537 C1531 1.363 . S
C1537 C1532 1.379 . S
C1537 N1535 1.356 . S
N1538 C1530 1.356 . S
N1538 H1544 0.984 . S
N1538 H1545 0.984 . S
N1539 C1532 1.356 . S
N1539 H1542 0.984 . S
N1539 H1543 0.985 1_455 S
H1540 N1535 0.984 . S
H1541 N1535 0.985 . S
H1542 N1539 0.984 . S
H1543 N1539 0.985 1_655 S
H1544 N1538 0.984 . S
H1545 N1538 0.984 . S
H1546 N1534 0.984 . S
H1547 N1534 0.985 . S
C1548 C1549 1.363 . S
C1548 C1554 1.379 . S
C1548 N1556 1.356 . S
C1549 C1548 1.363 . S
C1549 C1555 1.363 . S
C1550 C1551 1.363 . S
C1550 C1555 1.379 . S
C1550 N1557 1.356 . S
C1551 C1550 1.363 . S
C1551 C1554 1.363 . S
N1552 C1554 1.356 . S
N1552 H1564 0.984 . S
N1552 H1565 0.985 . S
N1553 C1555 1.356 . S
N1553 H1558 0.984 . S
N1553 H1559 0.985 . S
C1554 C1548 1.379 . S
C1554 C1551 1.363 . S
C1554 N1552 1.356 . S
C1555 C1549 1.363 . S
C1555 C1550 1.379 . S
C1555 N1553 1.356 . S
N1556 C1548 1.356 . S
N1556 H1562 0.984 . S
N1556 H1563 0.984 . S
N1557 C1550 1.356 . S
N1557 H1560 0.984 . S
N1557 H1561 0.985 . S
H1558 N1553 0.984 . S
H1559 N1553 0.985 . S
H1560 N1557 0.984 . S
H1561 N1557 0.985 . S
H1562 N1556 0.984 . S
H1563 N1556 0.984 . S
H1564 N1552 0.984 . S
H1565 N1552 0.985 . S
C1566 C1567 1.363 . S
C1566 C1572 1.379 . S
C1566 N1574 1.356 . S
C1567 C1566 1.363 . S
C1567 C1573 1.363 . S
C1568 C1569 1.363 . S
C1568 C1573 1.379 . S
C1568 N1575 1.356 . S
C1569 C1568 1.363 . S
C1569 C1572 1.363 . S
N1570 C1572 1.356 . S
N1570 H1582 0.984 . S
N1570 H1583 0.985 . S
N1571 C1573 1.356 . S
N1571 H1576 0.984 . S
N1571 H1577 0.985 . S
C1572 C1566 1.379 . S
C1572 C1569 1.363 . S
C1572 N1570 1.356 . S
C1573 C1567 1.363 . S
C1573 C1568 1.379 . S
C1573 N1571 1.356 . S
N1574 C1566 1.356 . S
N1574 H1580 0.984 . S
N1574 H1581 0.984 . S
N1575 C1568 1.356 . S
N1575 H1578 0.984 . S
N1575 H1579 0.985 . S
H1576 N1571 0.984 . S
H1577 N1571 0.985 . S
H1578 N1575 0.984 . S
H1579 N1575 0.985 . S
H1580 N1574 0.984 . S
H1581 N1574 0.984 . S
H1582 N1570 0.984 . S
H1583 N1570 0.985 . S
C1584 C1585 1.363 . S
C1584 C1590 1.379 . S
C1584 N1592 1.356 . S
C1585 C1584 1.363 . S
C1585 C1591 1.363 . S
C1586 C1587 1.363 . S
C1586 C1591 1.379 . S
C1586 N1593 1.356 . S
C1587 C1586 1.363 . S
C1587 C1590 1.363 . S
N1588 C1590 1.356 . S
N1588 H1600 0.984 1_565 S
N1588 H1601 0.985 . S
N1589 C1591 1.356 . S
N1589 H1594 0.984 . S
N1589 H1595 0.985 . S
C1590 C1584 1.379 . S
C1590 C1587 1.363 . S
C1590 N1588 1.356 . S
C1591 C1585 1.363 . S
C1591 C1586 1.379 . S
C1591 N1589 1.356 . S
N1592 C1584 1.356 . S
N1592 H1598 0.984 . S
N1592 H1599 0.984 . S
N1593 C1586 1.356 . S
N1593 H1596 0.984 . S
N1593 H1597 0.985 . S
H1594 N1589 0.984 . S
H1595 N1589 0.985 . S
H1596 N1593 0.984 . S
H1597 N1593 0.985 . S
H1598 N1592 0.984 . S
H1599 N1592 0.984 . S
H1600 N1588 0.984 1_545 S
H1601 N1588 0.985 . S
C1602 C1603 1.363 . S
C1602 C1608 1.379 . S
C1602 N1610 1.356 1_556 S
C1603 C1602 1.363 . S
C1603 C1609 1.363 . S
C1604 C1605 1.363 . S
C1604 C1609 1.379 . S
C1604 N1611 1.356 . S
C1605 C1604 1.363 . S
C1605 C1608 1.363 . S
N1606 C1608 1.356 . S
N1606 H1618 0.984 . S
N1606 H1619 0.985 . S
N1607 C1609 1.356 . S
N1607 H1612 0.984 . S
N1607 H1613 0.985 . S
C1608 C1602 1.379 . S
C1608 C1605 1.363 . S
C1608 N1606 1.356 . S
C1609 C1603 1.363 . S
C1609 C1604 1.379 . S
C1609 N1607 1.356 . S
N1610 C1602 1.356 1_554 S
N1610 H1616 0.984 . S
N1610 H1617 0.984 . S
N1611 C1604 1.356 . S
N1611 H1614 0.984 . S
N1611 H1615 0.985 . S
H1612 N1607 0.984 . S
H1613 N1607 0.985 . S
H1614 N1611 0.984 . S
H1615 N1611 0.985 . S
H1616 N1610 0.984 . S
H1617 N1610 0.984 . S
H1618 N1606 0.984 . S
H1619 N1606 0.985 . S
C1620 C1621 1.363 . S
C1620 C1626 1.379 . S
C1620 N1628 1.356 . S
C1621 C1620 1.363 . S
C1621 C1627 1.363 . S
C1622 C1623 1.363 . S
C1622 C1627 1.379 . S
C1622 N1629 1.356 1_556 S
C1623 C1622 1.363 . S
C1623 C1626 1.363 . S
N1624 C1626 1.356 . S
N1624 H1636 0.984 . S
N1624 H1637 0.985 . S
N1625 C1627 1.356 . S
N1625 H1630 0.984 . S
N1625 H1631 0.985 . S
C1626 C1620 1.379 . S
C1626 C1623 1.363 . S
C1626 N1624 1.356 . S
C1627 C1621 1.363 . S
C1627 C1622 1.379 . S
C1627 N1625 1.356 . S
N1628 C1620 1.356 . S
N1628 H1634 0.984 . S
N1628 H1635 0.984 . S
N1629 C1622 1.356 1_554 S
N1629 H1632 0.984 . S
N1629 H1633 0.985 . S
H1630 N1625 0.984 . S
H1631 N1625 0.985 . S
H1632 N1629 0.984 . S
H1633 N1629 0.985 . S
H1634 N1628 0.984 . S
H1635 N1628 0.984 . S
H1636 N1624 0.984 . S
H1637 N1624 0.985 . S
C1638 C1639 1.363 . S
C1638 C1644 1.379 . S
C1638 N1646 1.356 . S
C1639 C1638 1.363 . S
C1639 C1645 1.363 . S
C1640 C1641 1.363 . S
C1640 C1645 1.379 . S
C1640 N1647 1.356 . S
C1641 C1640 1.363 . S
C1641 C1644 1.363 . S
N1642 C1644 1.356 . S
N1642 H1654 0.984 . S
N1642 H1655 0.985 . S
N1643 C1645 1.356 . S
N1643 H1648 0.984 . S
N1643 H1649 0.985 . S
C1644 C1638 1.379 . S
C1644 C1641 1.363 . S
C1644 N1642 1.356 . S
C1645 C1639 1.363 . S
C1645 C1640 1.379 . S
C1645 N1643 1.356 . S
N1646 C1638 1.356 . S
N1646 H1652 0.984 . S
N1646 H1653 0.984 . S
N1647 C1640 1.356 . S
N1647 H1650 0.984 . S
N1647 H1651 0.985 . S
H1648 N1643 0.984 . S
H1649 N1643 0.985 . S
H1650 N1647 0.984 . S
H1651 N1647 0.985 . S
H1652 N1646 0.984 . S
H1653 N1646 0.984 . S
H1654 N1642 0.984 . S
H1655 N1642 0.985 . S
C1656 C1657 1.363 . S
C1656 C1662 1.379 . S
C1656 N1664 1.356 . S
C1657 C1656 1.363 . S
C1657 C1663 1.363 . S
C1658 C1659 1.363 . S
C1658 C1663 1.379 . S
C1658 N1665 1.356 . S
C1659 C1658 1.363 . S
C1659 C1662 1.363 . S
N1660 C1662 1.356 . S
N1660 H1672 0.984 . S
N1660 H1673 0.985 . S
N1661 C1663 1.356 . S
N1661 H1666 0.984 . S
N1661 H1667 0.985 . S
C1662 C1656 1.379 . S
C1662 C1659 1.363 . S
C1662 N1660 1.356 . S
C1663 C1657 1.363 . S
C1663 C1658 1.379 . S
C1663 N1661 1.356 . S
N1664 C1656 1.356 . S
N1664 H1670 0.984 . S
N1664 H1671 0.984 . S
N1665 C1658 1.356 . S
N1665 H1668 0.984 . S
N1665 H1669 0.985 . S
H1666 N1661 0.984 . S
H1667 N1661 0.985 . S
H1668 N1665 0.984 . S
H1669 N1665 0.985 . S
H1670 N1664 0.984 . S
H1671 N1664 0.984 . S
H1672 N1660 0.984 . S
H1673 N1660 0.985 . S
C1674 C1675 1.363 . S
C1674 C1680 1.379 . S
C1674 N1682 1.356 . S
C1675 C1674 1.363 . S
C1675 C1681 1.363 . S
C1676 C1677 1.363 . S
C1676 C1681 1.379 . S
C1676 N1683 1.356 . S
C1677 C1676 1.363 . S
C1677 C1680 1.363 . S
N1678 C1680 1.356 . S
N1678 H1690 0.984 . S
N1678 H1691 0.985 . S
N1679 C1681 1.356 . S
N1679 H1684 0.984 . S
N1679 H1685 0.985 . S
C1680 C1674 1.379 . S
C1680 C1677 1.363 . S
C1680 N1678 1.356 . S
C1681 C1675 1.363 . S
C1681 C1676 1.379 . S
C1681 N1679 1.356 . S
N1682 C1674 1.356 . S
N1682 H1688 0.984 . S
N1682 H1689 0.984 . S
N1683 C1676 1.356 . S
N1683 H1686 0.984 . S
N1683 H1687 0.985 . S
H1684 N1679 0.984 . S
H1685 N1679 0.985 . S
H1686 N1683 0.984 . S
H1687 N1683 0.985 . S
H1688 N1682 0.984 . S
H1689 N1682 0.984 . S
H1690 N1678 0.984 . S
H1691 N1678 0.985 . S
C1692 C1693 1.363 . S
C1692 C1698 1.379 . S
C1692 N1700 1.356 . S
C1693 C1692 1.363 . S
C1693 C1699 1.363 . S
C1694 C1695 1.363 . S
C1694 C1699 1.379 . S
C1694 N1701 1.356 . S
C1695 C1694 1.363 . S
C1695 C1698 1.363 . S
N1696 C1698 1.356 . S
N1696 H1708 0.984 . S
N1696 H1709 0.985 . S
N1697 C1699 1.356 . S
N1697 H1702 0.984 . S
N1697 H1703 0.985 . S
C1698 C1692 1.379 . S
C1698 C1695 1.363 . S
C1698 N1696 1.356 . S
C1699 C1693 1.363 . S
C1699 C1694 1.379 . S
C1699 N1697 1.356 . S
N1700 C1692 1.356 . S
N1700 H1706 0.984 . S
N1700 H1707 0.984 . S
N1701 C1694 1.356 . S
N1701 H1704 0.984 . S
N1701 H1705 0.985 . S
H1702 N1697 0.984 . S
H1703 N1697 0.985 . S
H1704 N1701 0.984 . S
H1705 N1701 0.985 . S
H1706 N1700 0.984 . S
H1707 N1700 0.984 . S
H1708 N1696 0.984 . S
H1709 N1696 0.985 . S
C1710 C1711 1.363 . S
C1710 C1716 1.379 . S
C1710 N1718 1.356 . S
C1711 C1710 1.363 . S
C1711 C1717 1.363 1_545 S
C1712 C1713 1.363 . S
C1712 C1717 1.379 . S
C1712 N1719 1.356 . S
C1713 C1712 1.363 . S
C1713 C1716 1.363 1_565 S
N1714 C1716 1.356 . S
N1714 H1726 0.984 . S
N1714 H1727 0.985 1_545 S
N1715 C1717 1.356 . S
N1715 H1720 0.984 1_565 S
N1715 H1721 0.985 . S
C1716 C1710 1.379 . S
C1716 C1713 1.363 1_545 S
C1716 N1714 1.356 . S
C1717 C1711 1.363 1_565 S
C1717 C1712 1.379 . S
C1717 N1715 1.356 . S
N1718 C1710 1.356 . S
N1718 H1724 0.984 . S
N1718 H1725 0.984 . S
N1719 C1712 1.356 . S
N1719 H1722 0.984 . S
N1719 H1723 0.985 . S
H1720 N1715 0.984 1_545 S
H1721 N1715 0.985 . S
H1722 N1719 0.984 . S
H1723 N1719 0.985 . S
H1724 N1718 0.984 . S
H1725 N1718 0.984 . S
H1726 N1714 0.984 . S
H1727 N1714 0.985 1_565 S
C1728 C1729 1.363 . S
C1728 C1734 1.379 . S
C1728 N1736 1.356 . S
C1729 C1728 1.363 . S
C1729 C1735 1.363 1_655 S
C1730 C1731 1.363 . S
C1730 C1735 1.379 . S
C1730 N1737 1.356 . S
C1731 C1730 1.363 . S
C1731 C1734 1.363 1_455 S
N1732 C1734 1.356 . S
N1732 H1744 0.984 . S
N1732 H1745 0.985 1_655 S
N1733 C1735 1.356 . S
N1733 H1738 0.984 1_455 S
N1733 H1739 0.985 . S
C1734 C1728 1.379 . S
C1734 C1731 1.363 1_655 S
C1734 N1732 1.356 . S
C1735 C1729 1.363 1_455 S
C1735 C1730 1.379 . S
C1735 N1733 1.356 . S
N1736 C1728 1.356 . S
N1736 H1742 0.984 . S
N1736 H1743 0.984 . S
N1737 C1730 1.356 . S
N1737 H1740 0.984 . S
N1737 H1741 0.985 . S
H1738 N1733 0.984 1_655 S
H1739 N1733 0.985 . S
H1740 N1737 0.984 . S
H1741 N1737 0.985 . S
H1742 N1736 0.984 . S
H1743 N1736 0.984 . S
H1744 N1732 0.984 . S
H1745 N1732 0.985 1_455 S
C1746 C1747 1.363 . S
C1746 C1752 1.379 . S
C1746 N1754 1.356 . S
C1747 C1746 1.363 . S
C1747 C1753 1.363 . S
C1748 C1749 1.363 . S
C1748 C1753 1.379 . S
C1748 N1755 1.356 . S
C1749 C1748 1.363 . S
C1749 C1752 1.363 . S
N1750 C1752 1.356 . S
N1750 H1762 0.984 . S
N1750 H1763 0.985 . S
N1751 C1753 1.356 . S
N1751 H1756 0.984 . S
N1751 H1757 0.985 . S
C1752 C1746 1.379 . S
C1752 C1749 1.363 . S
C1752 N1750 1.356 . S
C1753 C1747 1.363 . S
C1753 C1748 1.379 . S
C1753 N1751 1.356 . S
N1754 C1746 1.356 . S
N1754 H1760 0.984 . S
N1754 H1761 0.984 . S
N1755 C1748 1.356 . S
N1755 H1758 0.984 . S
N1755 H1759 0.985 . S
H1756 N1751 0.984 . S
H1757 N1751 0.985 . S
H1758 N1755 0.984 . S
H1759 N1755 0.985 . S
H1760 N1754 0.984 . S
H1761 N1754 0.984 . S
H1762 N1750 0.984 . S
H1763 N1750 0.985 . S
C1764 C1765 1.363 1_565 S
C1764 C1770 1.379 . S
C1764 N1772 1.356 . S
C1765 C1764 1.363 1_545 S
C1765 C1771 1.363 . S
C1766 C1767 1.363 1_545 S
C1766 C1771 1.379 . S
C1766 N1773 1.356 . S
C1767 C1766 1.363 1_565 S
C1767 C1770 1.363 . S
N1768 C1770 1.356 . S
N1768 H1780 0.984 . S
N1768 H1781 0.985 . S
N1769 C1771 1.356 . S
N1769 H1774 0.984 . S
N1769 H1775 0.985 . S
C1770 C1764 1.379 . S
C1770 C1767 1.363 . S
C1770 N1768 1.356 . S
C1771 C1765 1.363 . S
C1771 C1766 1.379 . S
C1771 N1769 1.356 . S
N1772 C1764 1.356 . S
N1772 H1778 0.984 . S
N1772 H1779 0.984 1_565 S
N1773 C1766 1.356 . S
N1773 H1776 0.984 1_545 S
N1773 H1777 0.985 . S
H1774 N1769 0.984 . S
H1775 N1769 0.985 . S
H1776 N1773 0.984 1_565 S
H1777 N1773 0.985 . S
H1778 N1772 0.984 . S
H1779 N1772 0.984 1_545 S
H1780 N1768 0.984 . S
H1781 N1768 0.985 . S
C1782 C1783 1.372 . S
C1782 C1788 1.357 1_455 S
C1782 N1790 1.376 . S
C1783 C1782 1.372 . S
C1783 C1789 1.363 . S
C1784 C1785 1.353 1_455 S
C1784 C1789 1.408 . S
C1784 N1791 1.333 1_455 S
C1785 C1784 1.353 1_655 S
C1785 C1788 1.363 . S
N1786 C1788 1.356 . S
N1786 H1798 0.984 . S
N1786 H1799 0.985 . S
N1787 C1789 1.356 . S
N1787 H1792 0.984 . S
N1787 H1793 0.985 . S
C1788 C1782 1.357 1_655 S
C1788 C1785 1.363 . S
C1788 N1786 1.356 . S
C1789 C1783 1.363 . S
C1789 C1784 1.408 . S
C1789 N1787 1.356 . S
N1790 C1782 1.376 . S
N1790 H1796 0.984 1_455 S
N1790 H1797 0.984 . S
N1791 C1784 1.333 1_655 S
N1791 H1794 0.984 . S
N1791 H1795 0.985 1_655 S
H1792 N1787 0.984 . S
H1793 N1787 0.985 . S
H1794 N1791 0.984 . S
H1795 N1791 0.985 1_455 S
H1796 N1790 0.984 1_655 S
H1797 N1790 0.984 . S
H1798 N1786 0.984 . S
H1799 N1786 0.985 . S
C505 C78 0.810 . S
C507 C8 0.805 . S
C523 C50 0.805 . S
C525 C22 0.810 . S
C541 C36 0.801 . S
C543 C64 0.801 . S
C559 C92 0.805 . S
C561 C162 0.810 . S
C577 C106 0.810 . S
C579 C134 0.805 . S
C595 C148 0.801 . S
C597 C120 0.801 . S
C613 C176 0.805 . S
C615 C246 0.810 . S
C631 C190 0.810 . S
C633 C218 0.805 . S
C649 C232 0.801 . S
C651 C204 0.801 . S
C667 C330 0.810 . S
C669 C260 0.805 . S
C685 C302 0.805 . S
C687 C274 0.810 . S
C703 C288 0.801 . S
C705 C316 0.801 . S
C721 C414 0.810 . S
C723 C344 0.805 . S
C739 C386 0.805 . S
C741 C358 0.810 . S
C757 C372 0.801 . S
C759 C400 0.801 . S
C775 C498 0.810 . S
C777 C428 0.805 . S
C793 C470 0.805 . S
C795 C442 0.810 . S
C811 C484 0.801 . S
C813 C456 0.801 . S
C829 C237 1.396 . S
C831 C13 1.403 . S
C847 C251 1.401 . S
C849 C27 1.401 . S
C865 C223 1.403 . S
C867 C41 1.396 . S
C883 C55 1.403 . S
C885 C377 1.396 1_554 S
C901 C69 1.396 . S
C903 C349 1.403 1_554 S
C919 C83 1.401 . S
C921 C363 1.401 1_554 S
C937 C97 1.403 . S
C939 C489 1.396 . S
C955 C503 1.401 . S
C957 C111 1.401 . S
C973 C475 1.403 . S
C975 C125 1.396 . S
C991 C293 1.396 1_556 S
C993 C139 1.403 . S
C1009 C265 1.403 1_556 S
C1011 C153 1.396 . S
C1027 C167 1.401 . S
C1029 C279 1.401 1_556 S
C1045 C181 1.403 . S
C1047 C405 1.396 . S
C1063 C419 1.401 . S
C1065 C195 1.401 . S
C1081 C391 1.403 . S
C1083 C209 1.396 . S
C1099 C307 1.403 . S
C1101 C461 1.396 . S
C1117 C433 1.403 . S
C1119 C321 1.396 . S
C1135 C335 1.401 . S
C1137 C447 1.401 . S
C1153 C263 1.409 . S
C1155 C11 1.409 . S
C1171 C277 1.396 . S
C1173 C25 1.396 . S
C1189 C39 1.379 . S
C1191 C291 1.379 . S
C1207 C53 1.409 . S
C1209 C473 1.409 . S
C1225 C487 1.379 . S
C1227 C67 1.379 . S
C1243 C501 1.396 . S
C1245 C81 1.396 . S
C1261 C95 1.409 . S
C1263 C347 1.409 . S
C1279 C109 1.396 . S
C1281 C361 1.396 . S
C1297 C375 1.379 . S
C1299 C123 1.379 . S
C1315 C137 1.409 . S
C1317 C221 1.409 . S
C1333 C151 1.379 . S
C1335 C235 1.379 . S
C1351 C249 1.396 . S
C1353 C165 1.396 . S
C1369 C179 1.408 . S
C1371 C431 1.408 . S
C1387 C193 1.396 . S
C1389 C445 1.396 . S
C1405 C459 1.378 . S
C1407 C207 1.378 . S
C1423 C389 1.409 . S
C1425 C305 1.409 . S
C1441 C319 1.378 . S
C1443 C403 1.378 . S
C1459 C333 1.396 . S
C1461 C417 1.396 . S
C1477 C385 1.644 1_554 S
C1479 C7 1.644 . S
C1495 C21 1.646 . S
C1497 C399 1.643 1_554 S
C1513 C413 1.646 1_554 S
C1515 C35 1.643 . S
C1531 C49 1.644 . S
C1533 C175 1.644 . S
C1549 C189 1.646 . S
C1551 C63 1.643 . S
C1567 C203 1.643 . S
C1569 C77 1.646 . S
C1585 C91 1.644 . S
C1587 C301 1.644 1_556 S
C1603 C315 1.643 1_556 S
C1605 C105 1.646 . S
C1621 C119 1.643 . S
C1623 C329 1.646 1_556 S
C1639 C133 1.644 . S
C1641 C427 1.644 . S
C1657 C147 1.643 . S
C1659 C441 1.646 . S
C1675 C455 1.643 . S
C1677 C161 1.646 . S
C1693 C217 1.644 . S
C1695 C343 1.644 . S
C1711 C231 1.643 . S
C1713 C357 1.646 . S
C1729 C245 1.646 . S
C1731 C371 1.643 . S
C1747 C259 1.644 . S
C1749 C469 1.644 . S
C1765 C273 1.646 . S
C1767 C483 1.643 . S
C1783 C497 1.646 . S
C1785 C287 1.643 . S
