# Generated by pormake.
# Topology svo, (7)-cn, num edge types: 1
# Building blocks:
#     Node 0, Type 0, BuildingBlock: NUHQUE_clean_sbu_2, # of connection points: 7
#     Node 1, Type 0, BuildingBlock: NUHQUE_clean_sbu_2, # of connection points: 7
#     Node 2, Type 0, BuildingBlock: NUHQUE_clean_sbu_2, # of connection points: 7
#     Node 3, Type 0, BuildingBlock: NUHQUE_clean_sbu_2, # of connection points: 7
#     Node 4, Type 0, BuildingBlock: NUHQUE_clean_sbu_2, # of connection points: 7
#     Node 5, Type 0, BuildingBlock: NUHQUE_clean_sbu_2, # of connection points: 7
#     Node 6, Type 0, BuildingBlock: NUHQUE_clean_sbu_2, # of connection points: 7
#     Node 7, Type 0, BuildingBlock: NUHQUE_clean_sbu_2, # of connection points: 7
#     Node 8, Type 0, BuildingBlock: NUHQUE_clean_sbu_2, # of connection points: 7
#     Node 9, Type 0, BuildingBlock: NUHQUE_clean_sbu_2, # of connection points: 7
#     Node 10, Type 0, BuildingBlock: NUHQUE_clean_sbu_2, # of connection points: 7
#     Node 11, Type 0, BuildingBlock: NUHQUE_clean_sbu_2, # of connection points: 7
#     Node 12, Type 0, BuildingBlock: NUHQUE_clean_sbu_2, # of connection points: 7
#     Node 13, Type 0, BuildingBlock: NUHQUE_clean_sbu_2, # of connection points: 7
#     Node 14, Type 0, BuildingBlock: NUHQUE_clean_sbu_2, # of connection points: 7
#     Node 15, Type 0, BuildingBlock: NUHQUE_clean_sbu_2, # of connection points: 7
#     Edge 16, Type (0, 0), BuildingBlock: XUDNAN_clean_linker_2, # of connection points: 2
#     Edge 17, Type (0, 0), BuildingBlock: XUDNAN_clean_linker_2, # of connection points: 2
#     Edge 18, Type (0, 0), BuildingBlock: XUDNAN_clean_linker_2, # of connection points: 2
#     Edge 19, Type (0, 0), BuildingBlock: XUDNAN_clean_linker_2, # of connection points: 2
#     Edge 20, Type (0, 0), BuildingBlock: XUDNAN_clean_linker_2, # of connection points: 2
#     Edge 21, Type (0, 0), BuildingBlock: XUDNAN_clean_linker_2, # of connection points: 2
#     Edge 22, Type (0, 0), BuildingBlock: XUDNAN_clean_linker_2, # of connection points: 2
#     Edge 23, Type (0, 0), BuildingBlock: XUDNAN_clean_linker_2, # of connection points: 2
#     Edge 24, Type (0, 0), BuildingBlock: XUDNAN_clean_linker_2, # of connection points: 2
#     Edge 25, Type (0, 0), BuildingBlock: XUDNAN_clean_linker_2, # of connection points: 2
#     Edge 26, Type (0, 0), BuildingBlock: XUDNAN_clean_linker_2, # of connection points: 2
#     Edge 27, Type (0, 0), BuildingBlock: XUDNAN_clean_linker_2, # of connection points: 2
#     Edge 28, Type (0, 0), BuildingBlock: XUDNAN_clean_linker_2, # of connection points: 2
#     Edge 29, Type (0, 0), BuildingBlock: XUDNAN_clean_linker_2, # of connection points: 2
#     Edge 30, Type (0, 0), BuildingBlock: XUDNAN_clean_linker_2, # of connection points: 2
#     Edge 31, Type (0, 0), BuildingBlock: XUDNAN_clean_linker_2, # of connection points: 2
#     Edge 32, Type (0, 0), BuildingBlock: XUDNAN_clean_linker_2, # of connection points: 2
#     Edge 33, Type (0, 0), BuildingBlock: XUDNAN_clean_linker_2, # of connection points: 2
#     Edge 34, Type (0, 0), BuildingBlock: XUDNAN_clean_linker_2, # of connection points: 2
#     Edge 35, Type (0, 0), BuildingBlock: XUDNAN_clean_linker_2, # of connection points: 2
#     Edge 36, Type (0, 0), BuildingBlock: XUDNAN_clean_linker_2, # of connection points: 2
#     Edge 37, Type (0, 0), BuildingBlock: XUDNAN_clean_linker_2, # of connection points: 2
#     Edge 38, Type (0, 0), BuildingBlock: XUDNAN_clean_linker_2, # of connection points: 2
#     Edge 39, Type (0, 0), BuildingBlock: XUDNAN_clean_linker_2, # of connection points: 2
#     Edge 40, Type (0, 0), BuildingBlock: XUDNAN_clean_linker_2, # of connection points: 2
#     Edge 41, Type (0, 0), BuildingBlock: XUDNAN_clean_linker_2, # of connection points: 2
#     Edge 42, Type (0, 0), BuildingBlock: XUDNAN_clean_linker_2, # of connection points: 2
#     Edge 43, Type (0, 0), BuildingBlock: XUDNAN_clean_linker_2, # of connection points: 2
#     Edge 44, Type (0, 0), BuildingBlock: XUDNAN_clean_linker_2, # of connection points: 2
#     Edge 45, Type (0, 0), BuildingBlock: XUDNAN_clean_linker_2, # of connection points: 2
#     Edge 46, Type (0, 0), BuildingBlock: XUDNAN_clean_linker_2, # of connection points: 2
#     Edge 47, Type (0, 0), BuildingBlock: XUDNAN_clean_linker_2, # of connection points: 2
#     Edge 48, Type (0, 0), BuildingBlock: XUDNAN_clean_linker_2, # of connection points: 2
#     Edge 49, Type (0, 0), BuildingBlock: XUDNAN_clean_linker_2, # of connection points: 2
#     Edge 50, Type (0, 0), BuildingBlock: XUDNAN_clean_linker_2, # of connection points: 2
#     Edge 51, Type (0, 0), BuildingBlock: XUDNAN_clean_linker_2, # of connection points: 2
#     Edge 52, Type (0, 0), BuildingBlock: XUDNAN_clean_linker_2, # of connection points: 2
#     Edge 53, Type (0, 0), BuildingBlock: XUDNAN_clean_linker_2, # of connection points: 2
#     Edge 54, Type (0, 0), BuildingBlock: XUDNAN_clean_linker_2, # of connection points: 2
#     Edge 55, Type (0, 0), BuildingBlock: XUDNAN_clean_linker_2, # of connection points: 2
#     Edge 56, Type (0, 0), BuildingBlock: XUDNAN_clean_linker_2, # of connection points: 2
#     Edge 57, Type (0, 0), BuildingBlock: XUDNAN_clean_linker_2, # of connection points: 2
#     Edge 58, Type (0, 0), BuildingBlock: XUDNAN_clean_linker_2, # of connection points: 2
#     Edge 59, Type (0, 0), BuildingBlock: XUDNAN_clean_linker_2, # of connection points: 2
#     Edge 60, Type (0, 0), BuildingBlock: XUDNAN_clean_linker_2, # of connection points: 2
#     Edge 61, Type (0, 0), BuildingBlock: XUDNAN_clean_linker_2, # of connection points: 2
#     Edge 62, Type (0, 0), BuildingBlock: XUDNAN_clean_linker_2, # of connection points: 2
#     Edge 63, Type (0, 0), BuildingBlock: XUDNAN_clean_linker_2, # of connection points: 2
#     Edge 64, Type (0, 0), BuildingBlock: XUDNAN_clean_linker_2, # of connection points: 2
#     Edge 65, Type (0, 0), BuildingBlock: XUDNAN_clean_linker_2, # of connection points: 2
#     Edge 66, Type (0, 0), BuildingBlock: XUDNAN_clean_linker_2, # of connection points: 2
#     Edge 67, Type (0, 0), BuildingBlock: XUDNAN_clean_linker_2, # of connection points: 2
#     Edge 68, Type (0, 0), BuildingBlock: XUDNAN_clean_linker_2, # of connection points: 2
#     Edge 69, Type (0, 0), BuildingBlock: XUDNAN_clean_linker_2, # of connection points: 2
#     Edge 70, Type (0, 0), BuildingBlock: XUDNAN_clean_linker_2, # of connection points: 2
#     Edge 71, Type (0, 0), BuildingBlock: XUDNAN_clean_linker_2, # of connection points: 2
# Relax obj value: 0.166
# Max RMSD: 0.275
# Mean RMSD: 0.275
data_MOF--net-svo--node1-NUHQUE_clean_sbu_2--edge1-XUDNAN_clean_linker_2
_symmetry_space_group_name_H-M    P1
_symmetry_Int_Tables_number       1
_symmetry_cell_setting            triclinic
loop_
_symmetry_equiv_pos_as_xyz
'x, y, z'
_cell_length_a     38.297287
_cell_length_b     38.350791
_cell_length_c     54.707295
_cell_angle_alpha  90.057504
_cell_angle_beta   89.9619
_cell_angle_gamma 89.883605
loop_
_atom_site_label
_atom_site_type_symbol
_atom_site_fract_x
_atom_site_fract_y
_atom_site_fract_z
_atom_type_partial_charge
O0 O 0.2732 0.19024 0.12861 0.0
Tb1 Tb 0.28143 0.24631 0.13009 0.0
Eu2 Eu 0.2258 0.35767 0.1321 0.0
C3 C 0.24796 0.17251 0.13912 0.0
O4 O 0.22391 0.18868 0.15199 0.0
C5 C 0.25019 0.2993 0.16805 0.0
O6 O 0.24307 0.41414 0.13197 0.0
C7 C 0.16092 0.34415 0.12294 0.0
C8 C 0.22569 0.43946 0.12114 0.0
O9 O 0.19583 0.4325 0.11041 0.0
C10 C 0.25421 0.30023 0.0945 0.0
C11 C 0.12415 0.35411 0.11991 0.0
C12 C 0.1007 0.32775 0.11298 0.0
C13 C 0.06466 0.33375 0.11362 0.0
C14 C 0.05224 0.36672 0.12034 0.0
C15 C 0.07521 0.39345 0.12701 0.0
C16 C 0.11143 0.38723 0.12672 0.0
O17 O 0.24448 0.28153 0.14789 0.0
O18 O 0.24144 0.33263 0.16811 0.0
O19 O 0.32633 0.25708 0.15368 0.0
O20 O 0.3335 0.25438 0.11509 0.0
C21 C 0.34907 0.25886 0.13599 0.0
O22 O 0.2626 0.32051 0.11297 0.0
O23 O 0.26348 0.2672 0.09547 0.0
O24 O 0.1739 0.34551 0.14516 0.0
O25 O 0.1835 0.35157 0.10558 0.0
H26 H 0.11043 0.30196 0.10842 0.0
H27 H 0.02431 0.37156 0.12067 0.0
H28 H 0.12933 0.40736 0.13269 0.0
O29 O 0.82332 0.23393 0.11105 0.0
Tb30 Tb 0.76907 0.24807 0.10592 0.0
Eu31 Eu 0.6667 0.18789 0.10545 0.0
C32 C 0.84258 0.2236 0.09251 0.0
O33 O 0.8276 0.21785 0.0713 0.0
C34 C 0.71762 0.2112 0.14308 0.0
O35 O 0.61043 0.20198 0.1127 0.0
C36 C 0.67641 0.12426 0.0907 0.0
C37 C 0.60251 0.22416 0.13024 0.0
O38 O 0.62769 0.23787 0.14336 0.0
C39 C 0.71886 0.22078 0.06598 0.0
C40 C 0.66993 0.08787 0.09809 0.0
C41 C 0.6979 0.06404 0.09703 0.0
C42 C 0.69286 0.02911 0.1035 0.0
C43 C 0.66001 0.01824 0.11159 0.0
C44 C 0.63199 0.04162 0.11322 0.0
C45 C 0.63681 0.0765 0.10611 0.0
O46 O 0.73122 0.21286 0.12115 0.0
O47 O 0.68689 0.19648 0.14382 0.0
O48 O 0.75673 0.29088 0.13082 0.0
O49 O 0.76716 0.30196 0.09331 0.0
C50 C 0.75972 0.31549 0.11454 0.0
O51 O 0.69447 0.22839 0.08224 0.0
O52 O 0.7513 0.23113 0.06999 0.0
O53 O 0.69925 0.14146 0.10391 0.0
O54 O 0.64954 0.14335 0.08388 0.0
H55 H 0.72341 0.07254 0.09085 0.0
H56 H 0.65625 0.99118 0.11672 0.0
H57 H 0.61516 0.09468 0.10723 0.0
O58 O 0.76523 0.78175 0.11602 0.0
Tb59 Tb 0.75834 0.72744 0.12559 0.0
Eu60 Eu 0.80322 0.6474 0.13791 0.0
C61 C 0.78873 0.80215 0.12606 0.0
O62 O 0.81026 0.78948 0.1425 0.0
C63 C 0.76806 0.69642 0.1761 0.0
O64 O 0.79821 0.58913 0.14128 0.0
C65 C 0.867 0.66703 0.14726 0.0
C66 C 0.80083 0.56759 0.12266 0.0
O67 O 0.80869 0.5798 0.10093 0.0
C68 C 0.79228 0.67936 0.08524 0.0
C69 C 0.90374 0.65887 0.14071 0.0
C70 C 0.92837 0.68607 0.13873 0.0
C71 C 0.96407 0.67834 0.13589 0.0
C72 C 0.97486 0.64351 0.13442 0.0
C73 C 0.95094 0.61612 0.13634 0.0
C74 C 0.91528 0.62395 0.1393 0.0
O75 O 0.77546 0.72436 0.16335 0.0
O76 O 0.76386 0.6665 0.16499 0.0
O77 O 0.70462 0.74669 0.12416 0.0
O78 O 0.71326 0.69214 0.12154 0.0
C79 C 0.68942 0.71661 0.12195 0.0
O80 O 0.78907 0.65079 0.09822 0.0
O81 O 0.79049 0.71085 0.09477 0.0
O82 O 0.85018 0.6431 0.15972 0.0
O83 O 0.84729 0.68262 0.13089 0.0
H84 H 0.92004 0.71298 0.14056 0.0
H85 H 1.00252 0.63774 0.13289 0.0
H86 H 0.8967 0.60284 0.14117 0.0
O87 O 0.22024 0.77106 0.11674 0.0
Tb88 Tb 0.2758 0.75899 0.11529 0.0
Eu89 Eu 0.36312 0.77907 0.12776 0.0
C90 C 0.20137 0.75817 0.1347 0.0
O91 O 0.21727 0.74038 0.15196 0.0
C92 C 0.3078 0.75459 0.16539 0.0
O93 O 0.42095 0.76553 0.12584 0.0
C94 C 0.35452 0.84374 0.14111 0.0
C95 C 0.43152 0.733 0.12322 0.0
O96 O 0.40785 0.70834 0.12165 0.0
C97 C 0.32678 0.7885 0.07601 0.0
C98 C 0.36256 0.88036 0.13454 0.0
C99 C 0.33516 0.90481 0.13251 0.0
C100 C 0.34234 0.94036 0.12858 0.0
C101 C 0.37725 0.95117 0.12683 0.0
C102 C 0.40482 0.92741 0.1292 0.0
C103 C 0.39735 0.89195 0.13282 0.0
O104 O 0.28618 0.77382 0.15264 0.0
O105 O 0.33736 0.74402 0.15558 0.0
O106 O 0.30572 0.71 0.11654 0.0
O107 O 0.25325 0.70893 0.10432 0.0
C108 C 0.28049 0.68987 0.10909 0.0
O109 O 0.35355 0.77374 0.0871 0.0
O110 O 0.29603 0.79202 0.08648 0.0
O111 O 0.38052 0.82399 0.14852 0.0
O112 O 0.33178 0.8269 0.12758 0.0
H113 H 0.30834 0.89627 0.13449 0.0
H114 H 0.38316 0.97871 0.1252 0.0
H115 H 0.41872 0.87363 0.1349 0.0
O116 O 0.2243 0.81393 0.38794 0.0
Tb117 Tb 0.23927 0.76242 0.37527 0.0
Eu118 Eu 0.18301 0.6619 0.36459 0.0
C119 C 0.2235 0.83881 0.37145 0.0
O120 O 0.22639 0.82988 0.34833 0.0
C121 C 0.21617 0.72045 0.32978 0.0
O122 O 0.21396 0.61235 0.3619 0.0
C123 C 0.12284 0.65581 0.34318 0.0
C124 C 0.20807 0.58534 0.37598 0.0
O125 O 0.1846 0.58765 0.39344 0.0
C126 C 0.19681 0.70626 0.40716 0.0
C127 C 0.08569 0.64822 0.34856 0.0
C128 C 0.05988 0.67267 0.34198 0.0
C129 C 0.0244 0.66428 0.3443 0.0
C130 C 0.01479 0.63177 0.35376 0.0
C131 C 0.0399 0.60686 0.36016 0.0
C132 C 0.07543 0.61538 0.35781 0.0
O133 O 0.21788 0.75237 0.33898 0.0
O134 O 0.22351 0.69366 0.34393 0.0
O135 O 0.28595 0.76819 0.35309 0.0
O136 O 0.29144 0.75114 0.38996 0.0
C137 C 0.30809 0.75897 0.36988 0.0
O138 O 0.17904 0.6775 0.4043 0.0
O139 O 0.21275 0.71618 0.38722 0.0
O140 O 0.14505 0.62995 0.34585 0.0
O141 O 0.1355 0.68613 0.35015 0.0
H142 H 0.06731 0.6976 0.33425 0.0
H143 H 0.9873 0.62576 0.35599 0.0
H144 H 0.09495 0.5959 0.36223 0.0
O145 O 0.22466 0.25154 0.35149 0.0
Tb146 Tb 0.27645 0.27232 0.35861 0.0
Eu147 Eu 0.37843 0.21162 0.37396 0.0
C148 C 0.20846 0.25594 0.33055 0.0
O149 O 0.2257 0.26874 0.31187 0.0
C150 C 0.33678 0.22949 0.32941 0.0
O151 O 0.43493 0.2296 0.37399 0.0
C152 C 0.36555 0.15146 0.39396 0.0
C153 C 0.46125 0.20875 0.36857 0.0
O154 O 0.45481 0.17615 0.36278 0.0
C155 C 0.31795 0.24762 0.40421 0.0
C156 C 0.36939 0.11399 0.38842 0.0
C157 C 0.3408 0.09151 0.39198 0.0
C158 C 0.3436 0.05601 0.38602 0.0
C159 C 0.37532 0.04291 0.37712 0.0
C160 C 0.40419 0.06483 0.37395 0.0
C161 C 0.40097 0.10047 0.37932 0.0
O162 O 0.32371 0.24459 0.34882 0.0
O163 O 0.36498 0.21098 0.33363 0.0
O164 O 0.28305 0.32116 0.33851 0.0
O165 O 0.27105 0.32257 0.37659 0.0
C166 C 0.27695 0.34132 0.35725 0.0
O167 O 0.34569 0.25469 0.39084 0.0
O168 O 0.28645 0.25575 0.39606 0.0
O169 O 0.34286 0.16845 0.38054 0.0
O170 O 0.39412 0.16942 0.39826 0.0
H171 H 0.3163 0.10171 0.39893 0.0
H172 H 0.37755 0.01541 0.37269 0.0
H173 H 0.42326 0.11742 0.37686 0.0
O174 O 0.80018 0.19042 0.35755 0.0
Tb175 Tb 0.78512 0.24479 0.35797 0.0
Eu176 Eu 0.803 0.32772 0.3523 0.0
C177 C 0.79743 0.17158 0.37748 0.0
O178 O 0.78765 0.1868 0.39791 0.0
C179 C 0.78419 0.28053 0.30846 0.0
O180 O 0.78758 0.38368 0.35853 0.0
C181 C 0.86954 0.32333 0.34299 0.0
C182 C 0.79909 0.39972 0.37818 0.0
O183 O 0.81994 0.38287 0.39316 0.0
C184 C 0.80619 0.2881 0.40272 0.0
C185 C 0.90489 0.33065 0.35265 0.0
C186 C 0.93197 0.30652 0.34816 0.0
C187 C 0.96653 0.31411 0.35501 0.0
C188 C 0.97372 0.34603 0.36643 0.0
C189 C 0.9474 0.37088 0.37034 0.0
C190 C 0.91285 0.3629 0.36368 0.0
O191 O 0.80111 0.25664 0.32086 0.0
O192 O 0.77218 0.30827 0.3198 0.0
O193 O 0.73382 0.22023 0.36168 0.0
O194 O 0.73676 0.27544 0.36213 0.0
C195 C 0.71568 0.24881 0.36331 0.0
O196 O 0.79126 0.31475 0.39185 0.0
O197 O 0.81445 0.26003 0.39025 0.0
O198 O 0.85006 0.35027 0.33703 0.0
O199 O 0.85173 0.29769 0.35291 0.0
H200 H 0.92633 0.28232 0.3387 0.0
H201 H 1.00061 0.35276 0.37045 0.0
H202 H 0.89252 0.38225 0.36629 0.0
O203 O 0.7704 0.73249 0.3586 0.0
Tb204 Tb 0.72238 0.7126 0.37434 0.0
Eu205 Eu 0.64215 0.79845 0.37369 0.0
C206 C 0.78677 0.71518 0.34131 0.0
O207 O 0.77252 0.68668 0.33255 0.0
C208 C 0.67475 0.74947 0.33738 0.0
O209 O 0.5848 0.79606 0.36552 0.0
C210 C 0.66394 0.86114 0.38207 0.0
C211 C 0.56233 0.78519 0.38197 0.0
O212 O 0.57357 0.77654 0.40383 0.0
C213 C 0.68976 0.76175 0.4137 0.0
C214 C 0.66233 0.89657 0.37191 0.0
C215 C 0.69284 0.91673 0.37156 0.0
C216 C 0.69154 0.95144 0.36388 0.0
C217 C 0.65974 0.96614 0.35659 0.0
C218 C 0.62892 0.94642 0.35688 0.0
C219 C 0.63052 0.91132 0.36424 0.0
O220 O 0.67527 0.73346 0.35851 0.0
O221 O 0.65865 0.77951 0.33665 0.0
O222 O 0.71908 0.65813 0.3625 0.0
O223 O 0.73057 0.66951 0.39969 0.0
C224 C 0.72634 0.64469 0.38375 0.0
O225 O 0.66038 0.75854 0.40141 0.0
O226 O 0.71733 0.74274 0.40784 0.0
O227 O 0.68235 0.8381 0.36976 0.0
O228 O 0.63498 0.84845 0.39149 0.0
H229 H 0.71731 0.9058 0.37799 0.0
H230 H 0.6589 0.9936 0.3519 0.0
H231 H 0.60693 0.89577 0.36458 0.0
O232 O 0.69342 0.74567 0.87083 0.0
Tb233 Tb 0.74787 0.75901 0.87488 0.0
Eu234 Eu 0.8543 0.69998 0.87885 0.0
C235 C 0.67819 0.7466 0.84936 0.0
O236 O 0.69711 0.75292 0.82986 0.0
C237 C 0.80837 0.73533 0.8407 0.0
O238 O 0.91195 0.7091 0.8824 0.0
C239 C 0.83373 0.63583 0.88157 0.0
C240 C 0.92246 0.73711 0.89407 0.0
O241 O 0.89905 0.75746 0.90437 0.0
C242 C 0.79363 0.72722 0.91407 0.0
C243 C 0.84413 0.59899 0.88109 0.0
C244 C 0.8186 0.5743 0.87501 0.0
C245 C 0.82666 0.53873 0.87496 0.0
C246 C 0.86071 0.528 0.88059 0.0
C247 C 0.88694 0.55233 0.88609 0.0
C248 C 0.87835 0.58808 0.88658 0.0
O249 O 0.78642 0.72565 0.85768 0.0
O250 O 0.84078 0.72466 0.8427 0.0
O251 O 0.75124 0.80956 0.85612 0.0
O252 O 0.75842 0.80694 0.89468 0.0
C253 C 0.75703 0.82769 0.87593 0.0
O254 O 0.81758 0.73697 0.89825 0.0
O255 O 0.76115 0.73708 0.91018 0.0
O256 O 0.83588 0.653 0.86084 0.0
O257 O 0.84243 0.65438 0.90089 0.0
H258 H 0.79224 0.58275 0.87078 0.0
H259 H 0.86681 0.50038 0.88061 0.0
H260 H 0.89815 0.60731 0.89082 0.0
O261 O 0.25684 0.70725 0.86333 0.0
Tb262 Tb 0.24202 0.7617 0.86822 0.0
Eu263 Eu 0.2895 0.87394 0.87513 0.0
C264 C 0.24026 0.6872 0.84763 0.0
O265 O 0.21678 0.70131 0.83319 0.0
C266 C 0.25615 0.82627 0.8359 0.0
O267 O 0.27948 0.93094 0.88414 0.0
C268 C 0.35425 0.85476 0.8736 0.0
C269 C 0.24732 0.94171 0.8883 0.0
O270 O 0.2221 0.91853 0.88805 0.0
C271 C 0.27196 0.80778 0.90803 0.0
C272 C 0.39147 0.86292 0.87546 0.0
C273 C 0.41537 0.83714 0.86822 0.0
C274 C 0.45116 0.84227 0.87148 0.0
C275 C 0.46304 0.87357 0.8816 0.0
C276 C 0.43956 0.89998 0.88848 0.0
C277 C 0.40349 0.89453 0.88536 0.0
O278 O 0.27064 0.8036 0.85069 0.0
O279 O 0.26201 0.85962 0.83993 0.0
O280 O 0.18929 0.76482 0.85262 0.0
O281 O 0.19677 0.77263 0.89088 0.0
C282 C 0.1739 0.77145 0.8734 0.0
O283 O 0.258 0.83186 0.89384 0.0
O284 O 0.26626 0.77474 0.90276 0.0
O285 O 0.33716 0.86547 0.85414 0.0
O286 O 0.33586 0.85569 0.89389 0.0
H287 H 0.40609 0.81273 0.8606 0.0
H288 H 0.49094 0.87778 0.88332 0.0
H289 H 0.38496 0.91446 0.89082 0.0
O290 O 0.29276 0.27764 0.88998 0.0
Tb291 Tb 0.23744 0.26711 0.88621 0.0
Eu292 Eu 0.1532 0.28919 0.87798 0.0
C293 C 0.31023 0.29577 0.87369 0.0
O294 O 0.29337 0.31049 0.85551 0.0
C295 C 0.20295 0.26231 0.837 0.0
O296 O 0.10043 0.26476 0.87276 0.0
C297 C 0.15378 0.35408 0.86403 0.0
C298 C 0.07423 0.26849 0.88804 0.0
O299 O 0.07844 0.28689 0.90809 0.0
C300 C 0.19205 0.29919 0.92771 0.0
C301 C 0.15113 0.39073 0.87278 0.0
C302 C 0.17824 0.41457 0.8676 0.0
C303 C 0.17402 0.45023 0.87292 0.0
C304 C 0.14316 0.46183 0.88395 0.0
C305 C 0.11576 0.43886 0.88885 0.0
C306 C 0.11984 0.4033 0.88333 0.0
O307 O 0.22813 0.27899 0.84811 0.0
O308 O 0.17493 0.25354 0.84921 0.0
O309 O 0.20432 0.2215 0.89402 0.0
O310 O 0.259 0.21454 0.89035 0.0
C311 C 0.22961 0.19861 0.89418 0.0
O312 O 0.16405 0.28481 0.91822 0.0
O313 O 0.22112 0.30257 0.91511 0.0
O314 O 0.12541 0.3349 0.86529 0.0
O315 O 0.18255 0.33646 0.86874 0.0
H316 H 0.20174 0.40574 0.85841 0.0
H317 H 0.13964 0.48952 0.88731 0.0
H318 H 0.09816 0.38578 0.88656 0.0
O319 O 0.75367 0.29496 0.85627 0.0
Tb320 Tb 0.75991 0.23892 0.85716 0.0
Eu321 Eu 0.6881 0.14733 0.84507 0.0
C322 C 0.73014 0.3128 0.84406 0.0
O323 O 0.70808 0.297 0.82942 0.0
C324 C 0.72752 0.19547 0.81292 0.0
O325 O 0.69703 0.08971 0.85074 0.0
C326 C 0.62367 0.16683 0.85052 0.0
C327 C 0.7018 0.07774 0.873 0.0
O328 O 0.69883 0.0994 0.89151 0.0
C329 C 0.71649 0.19067 0.8917 0.0
C330 C 0.59168 0.16373 0.86526 0.0
C331 C 0.56959 0.19289 0.86706 0.0
C332 C 0.5362 0.18997 0.87753 0.0
C333 C 0.52554 0.1574 0.88657 0.0
C334 C 0.54748 0.12818 0.8852 0.0
C335 C 0.58084 0.13153 0.87481 0.0
O336 O 0.72746 0.20503 0.83589 0.0
O337 O 0.70959 0.16713 0.8091 0.0
O338 O 0.80949 0.22388 0.84025 0.0
O339 O 0.80656 0.2294 0.87898 0.0
C340 C 0.82705 0.22236 0.86063 0.0
O341 O 0.72406 0.16541 0.87606 0.0
O342 O 0.73075 0.22181 0.88901 0.0
O343 O 0.63314 0.13959 0.83745 0.0
O344 O 0.65001 0.18414 0.85991 0.0
H345 H 0.57801 0.21759 0.85947 0.0
H346 H 0.49938 0.15419 0.89379 0.0
H347 H 0.59744 0.10875 0.8729 0.0
O348 O 0.72168 0.25556 0.62531 0.0
Tb349 Tb 0.77731 0.24437 0.6237 0.0
Eu350 Eu 0.86991 0.31762 0.61878 0.0
C351 C 0.70526 0.26645 0.64502 0.0
O352 O 0.72322 0.27456 0.66465 0.0
C353 C 0.82864 0.28877 0.66073 0.0
O354 O 0.92784 0.3053 0.61956 0.0
C355 C 0.85465 0.3809 0.60521 0.0
C356 C 0.93784 0.27242 0.61989 0.0
O357 O 0.91366 0.24816 0.62036 0.0
C358 C 0.81783 0.2793 0.58126 0.0
C359 C 0.8565 0.41722 0.61452 0.0
C360 C 0.82599 0.43796 0.61471 0.0
C361 C 0.82751 0.47293 0.62225 0.0
C362 C 0.85929 0.48689 0.63 0.0
C363 C 0.88978 0.46672 0.63045 0.0
C364 C 0.88837 0.43183 0.62248 0.0
O365 O 0.8176 0.27653 0.63972 0.0
O366 O 0.85534 0.30984 0.65849 0.0
O367 O 0.7745 0.19333 0.64161 0.0
O368 O 0.79585 0.19691 0.6058 0.0
C369 C 0.78795 0.17576 0.62353 0.0
O370 O 0.84462 0.27455 0.5961 0.0
O371 O 0.787 0.26644 0.58751 0.0
O372 O 0.83217 0.36013 0.61595 0.0
O373 O 0.88415 0.36521 0.59955 0.0
H374 H 0.80137 0.42719 0.60853 0.0
H375 H 0.86025 0.51411 0.63539 0.0
H376 H 0.91195 0.41618 0.62257 0.0
O377 O 0.73318 0.71767 0.6265 0.0
Tb378 Tb 0.74285 0.77313 0.63129 0.0
Eu379 Eu 0.70535 0.85872 0.63816 0.0
C380 C 0.72283 0.69668 0.64406 0.0
O381 O 0.71445 0.70961 0.66552 0.0
C382 C 0.73711 0.8121 0.67958 0.0
O383 O 0.72146 0.91497 0.63459 0.0
C384 C 0.64006 0.85355 0.65111 0.0
C385 C 0.75036 0.92273 0.62283 0.0
O386 O 0.76887 0.89738 0.6131 0.0
C387 C 0.71049 0.81642 0.58759 0.0
C388 C 0.6027 0.8581 0.64404 0.0
C389 C 0.58132 0.8284 0.64087 0.0
C390 C 0.54505 0.83212 0.63794 0.0
C391 C 0.53019 0.8654 0.63794 0.0
C392 C 0.55048 0.8952 0.64169 0.0
C393 C 0.58689 0.89158 0.64429 0.0
O394 O 0.72553 0.78425 0.66823 0.0
O395 O 0.74218 0.84125 0.66762 0.0
O396 O 0.79427 0.74883 0.62878 0.0
O397 O 0.79107 0.804 0.6268 0.0
C398 C 0.81231 0.77724 0.6265 0.0
O399 O 0.71402 0.84684 0.59842 0.0
O400 O 0.71198 0.78652 0.59937 0.0
O401 O 0.65897 0.88175 0.65433 0.0
O402 O 0.65795 0.82724 0.64189 0.0
H403 H 0.59255 0.80247 0.64182 0.0
H404 H 0.5021 0.86797 0.63592 0.0
H405 H 0.60243 0.91459 0.64788 0.0
O406 O 0.29334 0.74389 0.62758 0.0
Tb407 Tb 0.24058 0.76499 0.63044 0.0
Eu408 Eu 0.14988 0.73309 0.62338 0.0
C409 C 0.31437 0.74371 0.64662 0.0
O410 O 0.30159 0.75201 0.66817 0.0
C411 C 0.18915 0.75281 0.67307 0.0
O412 O 0.09203 0.74626 0.62732 0.0
C413 C 0.16554 0.66691 0.61986 0.0
C414 C 0.06531 0.72767 0.61946 0.0
O415 O 0.0708 0.69729 0.60907 0.0
C416 C 0.20032 0.75857 0.58095 0.0
C417 C 0.15779 0.63114 0.62865 0.0
C418 C 0.18467 0.60573 0.62918 0.0
C419 C 0.17706 0.57068 0.63495 0.0
C420 C 0.14232 0.56135 0.63947 0.0
C421 C 0.11537 0.58594 0.63854 0.0
C422 C 0.1232 0.621 0.63374 0.0
O423 O 0.21839 0.74148 0.6632 0.0
O424 O 0.16098 0.75802 0.65983 0.0
O425 O 0.22162 0.8193 0.62663 0.0
O426 O 0.27254 0.80972 0.64023 0.0
C427 C 0.25029 0.83389 0.63452 0.0
O428 O 0.16986 0.7639 0.59139 0.0
O429 O 0.22812 0.74887 0.59335 0.0
O430 O 0.18222 0.68842 0.63447 0.0
O431 O 0.14132 0.68242 0.60676 0.0
H432 H 0.21123 0.6131 0.62472 0.0
H433 H 0.13587 0.53427 0.64297 0.0
H434 H 0.10219 0.63992 0.63272 0.0
O435 O 0.27334 0.31258 0.61913 0.0
Tb436 Tb 0.26343 0.25645 0.6194 0.0
Eu437 Eu 0.30272 0.16805 0.6279 0.0
C438 C 0.26118 0.3324 0.63694 0.0
O439 O 0.24584 0.31728 0.65562 0.0
C440 C 0.26537 0.21552 0.66662 0.0
O441 O 0.30445 0.10907 0.62791 0.0
C442 C 0.36537 0.19044 0.63821 0.0
C443 C 0.2767 0.08963 0.62383 0.0
O444 O 0.2469 0.10478 0.61843 0.0
C445 C 0.29298 0.20865 0.57775 0.0
C446 C 0.40173 0.17741 0.63681 0.0
C447 C 0.42962 0.20126 0.63728 0.0
C448 C 0.46435 0.1893 0.63665 0.0
C449 C 0.47093 0.15334 0.63596 0.0
C450 C 0.44361 0.12902 0.63587 0.0
C451 C 0.40888 0.14133 0.63606 0.0
O452 O 0.27878 0.2434 0.65637 0.0
O453 O 0.26145 0.18661 0.65406 0.0
O454 O 0.21089 0.27755 0.61363 0.0
O455 O 0.21698 0.22287 0.61689 0.0
C456 C 0.1944 0.24803 0.61402 0.0
O457 O 0.28518 0.17974 0.58948 0.0
O458 O 0.29487 0.23939 0.58846 0.0
O459 O 0.34494 0.17488 0.65405 0.0
O460 O 0.34959 0.19709 0.61746 0.0
H461 H 0.42433 0.22901 0.6382 0.0
H462 H 0.49774 0.14428 0.63676 0.0
H463 H 0.38742 0.12295 0.63592 0.0
H464 H 0.20791 0.26379 0.06719 0.0
H465 H 0.25792 0.36457 0.07354 0.0
H466 H 0.23624 0.38047 0.03244 0.0
H467 H 0.2298 0.24605 0.01052 0.0
H468 H 0.18982 0.22579 0.00056 0.0
H469 H 0.20098 0.22583 0.03239 0.0
H470 H 0.14226 0.25583 0.04307 0.0
H471 H 0.13051 0.25546 0.01115 0.0
H472 H 0.13025 0.29587 0.02801 0.0
H473 H 0.22415 0.37825 0.98788 0.0
H474 H 0.21618 0.3611 0.94467 0.0
H475 H 0.16943 0.26382 0.96761 0.0
C476 C 0.21301 0.28973 0.06026 0.0
C477 C 0.23449 0.31303 0.0733 0.0
C478 C 0.24117 0.34658 0.06379 0.0
C479 C 0.22893 0.35578 0.0405 0.0
C480 C 0.20929 0.33144 0.02744 0.0
C481 C 0.20044 0.29945 0.03729 0.0
C482 C 0.18251 0.27644 0.01864 0.0
C483 C 0.20196 0.24151 0.01534 0.0
C484 C 0.1441 0.27057 0.02563 0.0
C485 C 0.18549 0.29917 0.99616 0.0
C486 C 0.20051 0.33105 0.0017 0.0
C487 C 0.21109 0.35406 0.98344 0.0
C488 C 0.20672 0.34405 0.95899 0.0
C489 C 0.19157 0.31154 0.9531 0.0
C490 C 0.1799 0.28933 0.97185 0.0
H491 H 0.76408 0.19996 0.0304 0.0
H492 H 0.65348 0.20927 0.04628 0.0
H493 H 0.63993 0.19248 0.00357 0.0
H494 H 0.76202 0.23897 0.97454 0.0
H495 H 0.79464 0.21152 0.9605 0.0
H496 H 0.79493 0.21804 0.993 0.0
H497 H 0.79208 0.15119 -0.00029 0.0
H498 H 0.79173 0.14445 0.96709 0.0
H499 H 0.75745 0.12639 0.98576 0.0
H500 H 0.63931 0.18377 0.95724 0.0
H501 H 0.65194 0.18451 0.9127 0.0
H502 H 0.76266 0.18032 0.92804 0.0
C503 C 0.73693 0.19769 0.02514 0.0
C504 C 0.70984 0.206 0.0417 0.0
C505 C 0.6747 0.2029 0.03395 0.0
C506 C 0.66677 0.1933 0.00972 0.0
C507 C 0.69426 0.18639 0.9936 0.0
C508 C 0.72866 0.18814 0.00117 0.0
C509 C 0.75367 0.18289 0.98006 0.0
C510 C 0.77769 0.21475 0.97684 0.0
C511 C 0.77498 0.14922 0.98336 0.0
C512 C 0.72812 0.17952 0.95913 0.0
C513 C 0.6939 0.18096 0.96724 0.0
C514 C 0.66596 0.18172 0.9508 0.0
C515 C 0.67329 0.18199 0.92556 0.0
C516 C 0.70819 0.18157 0.91716 0.0
C517 C 0.73575 0.17949 0.93414 0.0
H518 H 0.74867 0.69695 0.94605 0.0
H519 H 0.85866 0.71717 0.93389 0.0
H520 H 0.87171 0.69708 0.97578 0.0
H521 H 0.74404 0.73087 0.00227 0.0
H522 H 0.7139 0.69983 0.01512 0.0
H523 H 0.71407 0.70765 0.98277 0.0
H524 H 0.72423 0.64188 0.97446 0.0
H525 H 0.72363 0.63366 0.0069 0.0
H526 H 0.76045 0.61983 0.98876 0.0
H527 H 0.87096 0.68696 0.02095 0.0
H528 H 0.8567 0.6843 0.06513 0.0
H529 H 0.7475 0.66988 0.04768 0.0
C530 C 0.77566 0.69601 0.95189 0.0
C531 C 0.80269 0.70856 0.93676 0.0
C532 C 0.83761 0.70742 0.94514 0.0
C533 C 0.84524 0.69599 0.96891 0.0
C534 C 0.8177 0.68535 0.98382 0.0
C535 C 0.78364 0.68467 0.97547 0.0
C536 C 0.75825 0.67612 0.99579 0.0
C537 C 0.731 0.70537 -0.00082 0.0
C538 C 0.7406 0.64076 0.9912 0.0
C539 C 0.78305 0.67421 0.01722 0.0
C540 C 0.81734 0.67897 0.0099 0.0
C541 C 0.84441 0.68214 0.0268 0.0
C542 C 0.83614 0.68075 0.05176 0.0
C543 C 0.80122 0.67625 0.05938 0.0
C544 C 0.77449 0.67237 0.04201 0.0
H545 H 0.31318 0.76469 0.935 0.0
H546 H 0.27286 0.87035 0.93227 0.0
H547 H 0.2947 0.88068 0.97413 0.0
H548 H 0.28628 0.74573 0.99101 0.0
H549 H 0.3233 0.72006 0.00057 0.0
H550 H 0.3131 0.72371 0.96868 0.0
H551 H 0.3753 0.7469 0.9598 0.0
H552 H 0.38593 0.74299 0.9918 0.0
H553 H 0.39145 0.78415 0.9764 0.0
H554 H 0.30695 0.87465 0.01844 0.0
H555 H 0.31208 0.85397 0.06105 0.0
H556 H 0.34697 0.75305 0.03524 0.0
C557 C 0.31011 0.79043 0.94288 0.0
C558 C 0.29138 0.81675 0.93046 0.0
C559 C 0.28742 0.84993 0.94142 0.0
C560 C 0.2998 0.85602 0.96517 0.0
C561 C 0.31663 0.82887 0.97745 0.0
C562 C 0.32244 0.7969 0.96647 0.0
C563 C 0.33702 0.77064 0.98448 0.0
C564 C 0.31351 0.73816 0.98629 0.0
C565 C 0.37467 0.76059 0.97772 0.0
C566 C 0.33603 0.79198 0.00775 0.0
C567 C 0.32484 0.82574 0.0032 0.0
C568 C 0.31694 0.84878 0.02214 0.0
C569 C 0.31978 0.83681 0.04624 0.0
C570 C 0.33067 0.8023 0.05116 0.0
C571 C 0.33989 0.77995 0.03177 0.0
H572 H 0.15399 0.69793 0.44651 0.0
H573 H 0.24427 0.75559 0.42139 0.0
H574 H 0.25273 0.77933 0.46291 0.0
H575 H 0.12287 0.76652 0.48996 0.0
H576 H 0.10792 0.73445 0.51162 0.0
H577 H 0.10733 0.72483 0.47936 0.0
H578 H 0.14444 0.66937 0.48719 0.0
H579 H 0.14544 0.67896 0.51936 0.0
H580 H 0.18573 0.67328 0.50276 0.0
H581 H 0.25685 0.78838 0.50847 0.0
H582 H 0.25147 0.78876 0.55364 0.0
H583 H 0.15513 0.73024 0.54828 0.0
C584 C 0.17511 0.71614 0.44964 0.0
C585 C 0.19879 0.7247 0.43081 0.0
C586 C 0.22601 0.7486 0.43555 0.0
C587 C 0.23096 0.76222 0.4591 0.0
C588 C 0.20782 0.75235 0.4775 0.0
C589 C 0.17988 0.73055 0.47288 0.0
C590 C 0.15933 0.72318 0.49594 0.0
C591 C 0.12216 0.73815 0.49411 0.0
C592 C 0.15873 0.68387 0.50164 0.0
C593 C 0.18091 0.74303 0.51444 0.0
C594 C 0.20887 0.7596 0.50347 0.0
C595 C 0.23451 0.77641 0.51719 0.0
C596 C 0.23139 0.77636 0.54275 0.0
C597 C 0.20256 0.76016 0.55417 0.0
C598 C 0.17685 0.74369 0.53983 0.0
H599 H 0.25083 0.20788 0.53799 0.0
H600 H 0.3591 0.20541 0.56057 0.0
H601 H 0.37783 0.2068 0.51718 0.0
H602 H 0.2615 0.15636 0.48027 0.0
H603 H 0.23039 0.18319 0.46421 0.0
H604 H 0.22573 0.17622 0.49663 0.0
H605 H 0.22549 0.24308 0.50376 0.0
H606 H 0.23015 0.2502 0.47147 0.0
H607 H 0.2613 0.26887 0.49239 0.0
H608 H 0.38445 0.21525 0.47199 0.0
H609 H 0.37868 0.23256 0.42869 0.0
H610 H 0.26579 0.23008 0.43585 0.0
C611 C 0.2784 0.20668 0.5336 0.0
C612 C 0.3037 0.20605 0.5522 0.0
C613 C 0.33957 0.20549 0.54625 0.0
C614 C 0.35034 0.20613 0.52176 0.0
C615 C 0.32478 0.20729 0.50364 0.0
C616 C 0.28952 0.20749 0.50927 0.0
C617 C 0.26743 0.21252 0.48665 0.0
C618 C 0.24494 0.18013 0.48165 0.0
C619 C 0.24478 0.24564 0.4887 0.0
C620 C 0.29574 0.2165 0.46758 0.0
C621 C 0.32862 0.21274 0.47762 0.0
C622 C 0.35883 0.21774 0.46383 0.0
C623 C 0.3553 0.22761 0.43927 0.0
C624 C 0.3218 0.23267 0.42891 0.0
C625 C 0.29177 0.22618 0.44317 0.0
H626 H 0.76989 0.29773 0.54617 0.0
H627 H 0.88035 0.27737 0.55692 0.0
H628 H 0.88986 0.28102 0.51241 0.0
H629 H 0.75875 0.24866 0.4934 0.0
H630 H 0.72948 0.27851 0.47828 0.0
H631 H 0.73157 0.27765 0.51113 0.0
H632 H 0.74562 0.34368 0.51193 0.0
H633 H 0.74319 0.34486 0.47903 0.0
H634 H 0.78194 0.35999 0.49439 0.0
H635 H 0.88579 0.27773 0.46664 0.0
H636 H 0.86973 0.27598 0.4228 0.0
H637 H 0.76326 0.30385 0.44129 0.0
C638 C 0.7962 0.29478 0.53919 0.0
C639 C 0.82433 0.28709 0.55507 0.0
C640 C 0.85837 0.28338 0.54521 0.0
C641 C 0.86403 0.2853 0.51989 0.0
C642 C 0.83557 0.29177 0.50468 0.0
C643 C 0.80245 0.29731 0.51397 0.0
C644 C 0.77624 0.30311 0.49355 0.0
C645 C 0.74732 0.27532 0.49413 0.0
C646 C 0.76085 0.34011 0.4948 0.0
C647 C 0.79957 0.29871 0.47134 0.0
C648 C 0.83368 0.29198 0.47819 0.0
C649 C 0.85938 0.28383 0.46103 0.0
C650 C 0.85004 0.2827 0.43624 0.0
C651 C 0.8155 0.2903 0.42882 0.0
C652 C 0.79005 0.29874 0.44656 0.0
H653 H 0.70619 0.72877 0.45594 0.0
H654 H 0.6712 0.82773 0.42695 0.0
H655 H 0.67143 0.85303 0.46857 0.0
H656 H 0.65439 0.73302 0.51166 0.0
H657 H 0.68751 0.71205 0.52987 0.0
H658 H 0.68391 0.70213 0.49778 0.0
H659 H 0.74886 0.719 0.49157 0.0
H660 H 0.75261 0.72905 0.5236 0.0
H661 H 0.76364 0.76151 0.50109 0.0
H662 H 0.67906 0.86788 0.51329 0.0
H663 H 0.68953 0.87027 0.55788 0.0
H664 H 0.71701 0.76033 0.55726 0.0
C665 C 0.69849 0.75574 0.45845 0.0
C666 C 0.68859 0.77654 0.43841 0.0
C667 C 0.67838 0.81151 0.44219 0.0
C668 C 0.67866 0.82604 0.46573 0.0
C669 C 0.68871 0.80486 0.48518 0.0
C670 C 0.69803 0.77034 0.48181 0.0
C671 C 0.70738 0.75298 0.50569 0.0
C672 C 0.68177 0.7233 0.51159 0.0
C673 C 0.74538 0.73988 0.50546 0.0
C674 C 0.70268 0.78335 0.52299 0.0
C675 C 0.69197 0.81308 0.51087 0.0
C676 C 0.68709 0.84467 0.52304 0.0
C677 C 0.69321 0.8458 0.54831 0.0
C678 C 0.70383 0.81543 0.56105 0.0
C679 C 0.70849 0.7839 0.54812 0.0
H680 H 0.33653 0.99639 0.09817 0.0
H681 H 0.28657 0.94667 0.16006 0.0
H682 H 0.24908 0.9987 0.1657 0.0
H683 H 0.34607 0.07497 0.12513 0.0
H684 H 0.33896 0.10105 0.09819 0.0
H685 H 0.35527 0.05732 0.09525 0.0
H686 H 0.30387 0.04155 0.06652 0.0
H687 H 0.28751 0.08551 0.06913 0.0
H688 H 0.25961 0.04918 0.07644 0.0
H689 H 0.22436 0.06038 0.16877 0.0
H690 H 0.21529 0.12442 0.1688 0.0
H691 H 0.28399 0.13345 0.10609 0.0
C692 C 0.31694 0.99601 0.11246 0.0
C693 C 0.31439 0.96742 0.12861 0.0
C694 C 0.2886 0.968 0.14719 0.0
C695 C 0.26731 0.99757 0.1506 0.0
C696 C 0.27194 0.02616 0.13515 0.0
C697 C 0.29594 0.02534 0.11625 0.0
C698 C 0.2994 0.06059 0.10413 0.0
C699 C 0.33714 0.07427 0.1058 0.0
C700 C 0.28683 0.0591 0.07747 0.0
C701 C 0.27477 0.08187 0.11979 0.0
C702 C 0.25852 0.06158 0.13728 0.0
C703 C 0.23649 0.07634 0.15486 0.0
C704 C 0.23147 0.11274 0.15475 0.0
C705 C 0.24892 0.13393 0.13746 0.0
C706 C 0.27017 0.118 0.11952 0.0
H707 H 0.01076 0.31441 0.14265 0.0
H708 H 0.06098 0.29055 0.07365 0.0
H709 H 0.01268 0.25006 0.06341 0.0
H710 H 0.97096 0.22595 0.1533 0.0
H711 H 0.93215 0.24534 0.16615 0.0
H712 H 0.97379 0.26654 0.16984 0.0
H713 H 0.94837 0.32296 0.15068 0.0
H714 H 0.90686 0.302 0.14692 0.0
H715 H 0.92848 0.32094 0.12086 0.0
H716 H 0.95393 0.22117 0.05785 0.0
H717 H 0.89121 0.20611 0.0576 0.0
H718 H 0.88066 0.24821 0.13088 0.0
C719 C 0.01199 0.29991 0.12567 0.0
C720 C 0.03936 0.30547 0.10888 0.0
C721 C 0.04025 0.2863 0.08679 0.0
C722 C 0.01298 0.26329 0.08088 0.0
C723 C 0.98556 0.2594 0.09751 0.0
C724 C 0.98522 0.27688 0.11963 0.0
C725 C 0.9513 0.27141 0.13322 0.0
C726 C 0.95743 0.25109 0.15704 0.0
C727 C 0.93267 0.30639 0.13818 0.0
C728 C 0.93172 0.24962 0.11477 0.0
C729 C 0.95201 0.2424 0.09444 0.0
C730 C 0.93811 0.22592 0.07391 0.0
C731 C 0.90242 0.21751 0.07392 0.0
C732 C 0.88106 0.22581 0.09427 0.0
C733 C 0.89635 0.24095 0.1152 0.0
H734 H 0.74797 0.83465 0.09234 0.0
H735 H 0.82679 0.85499 0.14743 0.0
H736 H 0.81862 0.91843 0.14133 0.0
H737 H 0.76598 0.91241 0.05258 0.0
H738 H 0.72006 0.91814 0.04657 0.0
H739 H 0.73753 0.87504 0.05155 0.0
H740 H 0.69271 0.86517 0.08643 0.0
H741 H 0.67516 0.90799 0.08153 0.0
H742 H 0.69075 0.89583 0.11141 0.0
H743 H 0.79446 0.97911 0.13416 0.0
H744 H 0.75512 0.02982 0.128 0.0
H745 H 0.69261 0.96888 0.07791 0.0
C746 C 0.7643 0.85235 0.10267 0.0
C747 C 0.78807 0.83986 0.12033 0.0
C748 C 0.80855 0.86397 0.13368 0.0
C749 C 0.80418 0.90006 0.13025 0.0
C750 C 0.77958 0.9115 0.11322 0.0
C751 C 0.76018 0.88821 0.09953 0.0
C752 C 0.73231 0.9065 0.08476 0.0
C753 C 0.73942 0.9028 0.05723 0.0
C754 C 0.6956 0.89309 0.09146 0.0
C755 C 0.73774 0.9436 0.0932 0.0
C756 C 0.76563 0.94628 0.10915 0.0
C757 C 0.77315 0.97748 0.12124 0.0
C758 C 0.75084 0.00618 0.11759 0.0
C759 C 0.72127 1.0031 0.10229 0.0
C760 C 0.71552 0.9719 0.08932 0.0
H761 H 0.15614 0.72939 0.16753 0.0
H762 H 0.15893 0.78818 0.09987 0.0
H763 H 0.0947 0.78295 0.09648 0.0
H764 H 0.09727 0.6684 0.14819 0.0
H765 H 0.07535 0.66365 0.17716 0.0
H766 H 0.12007 0.67756 0.17629 0.0
H767 H 0.10377 0.73293 0.2011 0.0
H768 H 0.0588 0.71917 0.20194 0.0
H769 H 0.06989 0.76153 0.19003 0.0
H770 H 0.03106 0.76355 0.09755 0.0
H771 H 0.97603 0.73004 0.10227 0.0
H772 H 0.01569 0.6848 0.16916 0.0
C773 C 0.14324 0.74203 0.15231 0.0
C774 C 0.16262 0.75937 0.13403 0.0
C775 C 0.14465 0.77497 0.11421 0.0
C776 C 0.10812 0.77221 0.11217 0.0
C777 C 0.08988 0.75405 0.13022 0.0
C778 C 0.10697 0.7394 0.14998 0.0
C779 C 0.08238 0.71796 0.16551 0.0
C780 C 0.09449 0.67965 0.16684 0.0
C781 C 0.07848 0.73386 0.19117 0.0
C782 C 0.04901 0.72167 0.15096 0.0
C783 C 0.05351 0.74306 0.13087 0.0
C784 C 0.02704 0.74744 0.11353 0.0
C785 C 0.99578 0.72855 0.11639 0.0
C786 C 0.99157 0.70544 0.13628 0.0
C787 C 0.01805 0.70301 0.15412 0.0
H788 H 0.31109 0.02052 0.34992 0.0
H789 H 0.31165 0.0354 0.42831 0.0
H790 H 0.27129 0.9853 0.43311 0.0
H791 H 0.21747 0.98874 0.34497 0.0
H792 H 0.22951 0.95831 0.32126 0.0
H793 H 0.25227 0.99923 0.32404 0.0
H794 H 0.31112 0.96596 0.32684 0.0
H795 H 0.28866 0.9251 0.32428 0.0
H796 H 0.31677 0.93313 0.35008 0.0
H797 H 0.24096 0.92673 0.42945 0.0
H798 H 0.22155 0.86752 0.41765 0.0
H799 H 0.2387 0.89321 0.3414 0.0
C800 C 0.30148 0.01399 0.36797 0.0
C801 C 0.31388 0.03183 0.38874 0.0
C802 C 0.30176 0.02229 0.4122 0.0
C803 C 0.27895 0.99387 0.41504 0.0
C804 C 0.26812 0.97586 0.39418 0.0
C805 C 0.27852 0.98607 0.37103 0.0
C806 C 0.26642 0.96056 0.35174 0.0
C807 C 0.23983 0.97774 0.33449 0.0
C808 C 0.29759 0.94529 0.33742 0.0
C809 C 0.24923 0.93335 0.36767 0.0
C810 C 0.25001 0.94269 0.39208 0.0
C811 C 0.23932 0.91962 0.41034 0.0
C812 C 0.22836 0.886 0.40348 0.0
C813 C 0.22825 0.8758 0.37859 0.0
C814 C 0.23776 0.90033 0.36054 0.0
H815 H 0.16298 0.25761 0.36893 0.0
H816 H 0.16677 0.24965 0.28992 0.0
H817 H 0.10222 0.25295 0.28841 0.0
H818 H 0.07808 0.21147 0.37902 0.0
H819 H 0.0656 0.24165 0.40276 0.0
H820 H 0.11104 0.23134 0.39794 0.0
H821 H 0.12486 0.29709 0.39289 0.0
H822 H 0.07964 0.30754 0.39769 0.0
H823 H 0.10139 0.32212 0.37034 0.0
H824 H 0.03787 0.26465 0.2953 0.0
H825 H 0.98134 0.28877 0.30941 0.0
H826 H 0.02036 0.29149 0.38368 0.0
C827 C 0.15022 0.25527 0.35135 0.0
C828 C 0.16989 0.25272 0.32956 0.0
C829 C 0.1522 0.25115 0.30687 0.0
C830 C 0.11552 0.25288 0.30586 0.0
C831 C 0.09692 0.25634 0.3277 0.0
C832 C 0.11378 0.25761 0.35003 0.0
C833 C 0.08859 0.26634 0.37052 0.0
C834 C 0.08566 0.23587 0.38863 0.0
C835 C 0.09926 0.30028 0.38361 0.0
C836 C 0.05511 0.27099 0.35619 0.0
C837 C 0.06016 0.26426 0.3316 0.0
C838 C 0.03351 0.26938 0.31457 0.0
C839 C 1.00138 0.28286 0.32275 0.0
C840 C 0.99641 0.29163 0.34766 0.0
C841 C 0.02332 0.28452 0.3646 0.0
H842 H 0.70754 0.99324 0.40171 0.0
H843 H 0.74143 0.96273 0.32938 0.0
H844 H 0.78406 0.01126 0.32906 0.0
H845 H 0.70324 0.07784 0.39085 0.0
H846 H 0.71812 0.09335 0.42016 0.0
H847 H 0.69825 0.0512 0.41776 0.0
H848 H 0.75296 0.02257 0.43716 0.0
H849 H 0.77304 0.0649 0.43983 0.0
H850 H 0.7954 0.03021 0.42396 0.0
H851 H 0.81187 0.06945 0.33267 0.0
H852 H 0.82269 0.13203 0.33973 0.0
H853 H 0.7712 0.12486 0.41017 0.0
C854 C 0.72533 0.9959 0.38642 0.0
C855 C 0.72221 0.97414 0.36583 0.0
C856 C 0.74439 0.97886 0.34551 0.0
C857 C 0.76859 0.00628 0.34524 0.0
C858 C 0.77021 0.02837 0.36551 0.0
C859 C 0.74944 0.02317 0.38591 0.0
C860 C 0.75191 0.05346 0.40356 0.0
C861 C 0.71576 0.06992 0.40832 0.0
C862 C 0.76938 0.0421 0.42755 0.0
C863 C 0.77533 0.07763 0.38919 0.0
C864 C 0.78634 0.06238 0.36757 0.0
C865 C 0.80431 0.08131 0.34984 0.0
C866 C 0.81021 0.1169 0.35396 0.0
C867 C 0.79797 0.13319 0.37557 0.0
C868 C 0.78156 0.11293 0.39374 0.0
H869 H 0.97359 0.65024 0.31171 0.0
H870 H 0.01078 0.73026 0.36091 0.0
H871 H 0.95436 0.76141 0.35694 0.0
H872 H 0.91054 0.70815 0.27389 0.0
H873 H 0.8797 0.67275 0.27252 0.0
H874 H 0.92595 0.66375 0.2725 0.0
H875 H 0.91775 0.62309 0.30986 0.0
H876 H 0.87188 0.63224 0.31028 0.0
H877 H 0.89775 0.64014 0.33723 0.0
H878 H 0.89053 0.77447 0.35652 0.0
H879 H 0.82652 0.7688 0.35939 0.0
H880 H 0.83037 0.67952 0.31075 0.0
C881 C 0.97033 0.67531 0.32057 0.0
C882 C 0.99634 0.6882 0.33639 0.0
C883 C 0.99127 0.72045 0.34835 0.0
C884 C 0.95928 0.7382 0.3462 0.0
C885 C 0.93305 0.72349 0.33175 0.0
C886 C 0.93856 0.69299 0.31873 0.0
C887 C 0.90487 0.67899 0.30814 0.0
C888 C 0.9053 0.68105 0.2801 0.0
C889 C 0.89767 0.64144 0.31693 0.0
C890 C 0.87908 0.70469 0.31884 0.0
C891 C 0.89583 0.73081 0.33177 0.0
C892 C 0.87719 0.75477 0.34588 0.0
C893 C 0.84079 0.75125 0.34749 0.0
C894 C 0.82346 0.72366 0.33531 0.0
C895 C 0.84281 0.70113 0.32002 0.0
H896 H 0.73748 0.87626 0.84127 0.0
H897 H 0.7741 0.86542 0.91593 0.0
H898 H 0.76574 0.92842 0.92257 0.0
H899 H 0.77591 0.96379 0.8303 0.0
H900 H 0.73907 0.97828 0.81249 0.0
H901 H 0.75097 0.93278 0.81276 0.0
H902 H 0.6883 0.91695 0.82659 0.0
H903 H 0.67632 0.96237 0.82667 0.0
H904 H 0.67062 0.93657 0.8539 0.0
H905 H 0.74832 0.99061 0.92271 0.0
H906 H 0.72721 0.05034 0.91535 0.0
H907 H 0.70245 0.02271 0.84032 0.0
C908 C 0.74451 0.88741 0.85878 0.0
C909 C 0.7566 0.86607 0.87808 0.0
C910 C 0.76493 0.88135 0.90089 0.0
C911 C 0.76022 0.9171 0.90486 0.0
C912 C 0.74728 0.93731 0.88578 0.0
C913 C 0.73992 0.92326 0.86308 0.0
C914 C 0.72495 0.95083 0.84613 0.0
C915 C 0.74918 0.95677 0.82412 0.0
C916 C 0.68785 0.94109 0.83784 0.0
C917 C 0.72451 0.98228 0.86302 0.0
C918 C 0.73751 0.97375 0.8858 0.0
C919 C 0.73847 0.99778 0.90487 0.0
C920 C 0.72621 0.03163 0.90053 0.0
C921 C 0.71326 0.04131 0.87724 0.0
C922 C 0.71242 0.01619 0.85826 0.0
H923 H 0.97451 0.71442 0.86334 0.0
H924 H 0.9542 0.78275 0.92507 0.0
H925 H 0.01586 0.8013 0.92482 0.0
H926 H 0.06034 0.68713 0.88121 0.0
H927 H 0.07756 0.68713 0.85054 0.0
H928 H 0.03181 0.67917 0.85562 0.0
H929 H 0.01634 0.73002 0.82637 0.0
H930 H 0.06209 0.73834 0.82139 0.0
H931 H 0.03393 0.77282 0.83214 0.0
H932 H 0.07971 0.81012 0.9194 0.0
H933 H 0.14233 0.80953 0.90858 0.0
H934 H 0.12107 0.73884 0.84854 0.0
C935 C 0.98311 0.73315 0.87687 0.0
C936 C 0.95967 0.74704 0.89433 0.0
C937 C 0.97175 0.77179 0.91155 0.0
C938 C 0.00668 0.78253 0.91153 0.0
C939 C 0.02905 0.76861 0.89395 0.0
C940 C 0.01781 0.74458 0.87686 0.0
C941 C 0.04731 0.73383 0.85992 0.0
C942 C 0.05469 0.69448 0.86196 0.0
C943 C 0.03943 0.74439 0.83338 0.0
C944 C 0.07698 0.75519 0.87042 0.0
C945 C 0.0658 0.77497 0.89009 0.0
C946 C 0.08872 0.79517 0.90383 0.0
C947 C 0.12414 0.7947 0.89756 0.0
C948 C 0.13615 0.77462 0.87755 0.0
C949 C 0.11224 0.75508 0.86354 0.0
H950 H 0.28063 0.14872 0.88925 0.0
H951 H 0.16992 0.16168 0.90336 0.0
H952 H 0.16312 0.09751 0.90503 0.0
H953 H 0.27266 0.07494 0.84986 0.0
H954 H 0.31169 0.05364 0.86069 0.0
H955 H 0.30821 0.10043 0.86194 0.0
H956 H 0.32094 0.09905 0.9084 0.0
H957 H 0.32453 0.05223 0.90723 0.0
H958 H 0.29423 0.07251 0.92812 0.0
H959 H 0.16805 0.03202 0.90379 0.0
H960 H 0.18371 0.97002 0.89932 0.0
H961 H 0.29151 0.99889 0.88554 0.0
C962 C 0.25502 0.13803 0.89296 0.0
C963 C 0.22576 0.1602 0.89635 0.0
C964 C 0.19265 0.14522 0.90085 0.0
C965 C 0.18859 0.1088 0.90182 0.0
C966 C 0.21789 0.08766 0.89823 0.0
C967 C 0.2505 0.1017 0.89389 0.0
C968 C 0.2775 0.07314 0.88979 0.0
C969 C 0.29344 0.0757 0.86404 0.0
C970 C 0.30598 0.07431 0.90957 0.0
C971 C 0.25495 0.04081 0.89235 0.0
C972 C 0.22069 0.04985 0.89732 0.0
C973 C 0.19481 0.02468 0.9 0.0
C974 C 0.20403 0.98942 0.8974 0.0
C975 C 0.23889 0.97934 0.89211 0.0
C976 C 0.26468 0.00557 0.88972 0.0
H977 H 0.01295 0.27128 0.91449 0.0
H978 H 0.05744 0.23238 0.84666 0.0
H979 H 0.99962 0.21108 0.83406 0.0
H980 H 0.949 0.19988 0.92269 0.0
H981 H 0.91602 0.22885 0.93464 0.0
H982 H 0.96158 0.23833 0.93947 0.0
H983 H 0.95315 0.29924 0.91982 0.0
H984 H 0.90765 0.28996 0.91496 0.0
H985 H 0.93487 0.30239 0.88954 0.0
H986 H 0.93632 0.1999 0.8266 0.0
H987 H 0.87173 0.19821 0.82565 0.0
H988 H 0.86836 0.2416 0.89884 0.0
C989 C 0.01064 0.25779 0.89717 0.0
C990 C 0.0398 0.25354 0.8816 0.0
C991 C 0.03557 0.23596 0.85897 0.0
C992 C 1.00281 0.22365 0.85164 0.0
C993 C 0.97452 0.22871 0.86722 0.0
C994 C 0.9781 0.24508 0.88961 0.0
C995 C 0.94311 0.24877 0.90231 0.0
C996 C 0.9424 0.2277 0.92619 0.0
C997 C 0.93418 0.28738 0.90691 0.0
C998 C 0.91927 0.23285 0.88324 0.0
C999 C 0.93794 0.22128 0.86318 0.0
C1000 C 0.92143 0.20819 0.8424 0.0
C1001 C 0.88482 0.20734 0.84199 0.0
C1002 C 0.86529 0.21925 0.86229 0.0
C1003 C 0.88277 0.23155 0.8833 0.0
H1004 H 0.75199 0.12776 0.65061 0.0
H1005 H 0.82807 0.13773 0.59232 0.0
H1006 H 0.82868 0.07366 0.58715 0.0
H1007 H 0.78401 0.04529 0.67617 0.0
H1008 H 0.7407 0.02898 0.682 0.0
H1009 H 0.74886 0.07523 0.6827 0.0
H1010 H 0.7002 0.08476 0.65049 0.0
H1011 H 0.69207 0.03856 0.64955 0.0
H1012 H 0.70234 0.06169 0.6218 0.0
H1013 H 0.81963 0.00904 0.58738 0.0
H1014 H 0.80013 0.94811 0.59188 0.0
H1015 H 0.72717 0.98013 0.64843 0.0
C1016 C 0.76924 0.11631 0.6371 0.0
C1017 C 0.79034 0.13747 0.62203 0.0
C1018 C 0.81195 0.12181 0.60413 0.0
C1019 C 0.81246 0.08551 0.60108 0.0
C1020 C 0.7909 0.06533 0.61592 0.0
C1021 C 0.76958 0.08012 0.63352 0.0
C1022 C 0.74723 0.05271 0.6459 0.0
C1023 C 0.75572 0.05042 0.67332 0.0
C1024 C 0.70815 0.05987 0.64167 0.0
C1025 C 0.75916 0.02026 0.63239 0.0
C1026 C 0.78465 0.02811 0.61538 0.0
C1027 C 0.79972 1.00255 0.60065 0.0
C1028 C 0.78846 0.968 0.60335 0.0
C1029 C 0.76205 0.95935 0.62044 0.0
C1030 C 0.74727 0.98594 0.63512 0.0
H1031 H 1.00277 0.69314 0.61281 0.0
H1032 H 0.04574 0.79457 0.63087 0.0
H1033 H 0.9861 0.81895 0.63332 0.0
H1034 H 0.93099 0.72392 0.57585 0.0
H1035 H 0.90088 0.6914 0.58679 0.0
H1036 H 0.94699 0.68208 0.58589 0.0
H1037 H 0.94599 0.66699 0.63203 0.0
H1038 H 0.89987 0.67609 0.633 0.0
H1039 H 0.92908 0.69843 0.65353 0.0
H1040 H 0.92092 0.83279 0.63292 0.0
H1041 H 0.85609 0.83329 0.63286 0.0
H1042 H 0.85592 0.72253 0.61694 0.0
C1043 C 0.99968 0.7205 0.61725 0.0
C1044 C 0.02914 0.74192 0.62156 0.0
C1045 C 0.02374 0.77753 0.62751 0.0
C1046 C 0.98989 0.7917 0.62886 0.0
C1047 C 0.96147 0.76994 0.6244 0.0
C1048 C 0.96602 0.735 0.61894 0.0
C1049 C 0.9311 0.71698 0.61564 0.0
C1050 C 0.92728 0.70276 0.58949 0.0
C1051 C 0.92623 0.68791 0.63469 0.0
C1052 C 0.90622 0.74716 0.6202 0.0
C1053 C 0.92418 0.77762 0.62493 0.0
C1054 C 0.90663 0.80902 0.62933 0.0
C1055 C 0.86983 0.80914 0.62918 0.0
C1056 C 0.85101 0.77801 0.62498 0.0
C1057 C 0.8696 0.74676 0.62031 0.0
H1058 H 0.22629 0.04027 0.61317 0.0
H1059 H 0.33189 0.0516 0.64099 0.0
H1060 H 0.33532 0.98811 0.64731 0.0
H1061 H 0.19918 0.97201 0.65407 0.0
H1062 H 0.17426 0.94871 0.6314 0.0
H1063 H 0.17965 0.99523 0.62889 0.0
H1064 H 0.20519 0.98769 0.58536 0.0
H1065 H 0.1997 0.94116 0.58768 0.0
H1066 H 0.24202 0.95908 0.58072 0.0
H1067 H 0.32746 0.92413 0.65147 0.0
H1068 H 0.31012 0.86242 0.65118 0.0
H1069 H 0.20979 0.89056 0.61993 0.0
C1070 C 0.25015 0.02939 0.62056 0.0
C1071 C 0.27881 0.0511 0.62664 0.0
C1072 C 0.30959 0.0357 0.63615 0.0
C1073 C 0.31178 0.99959 0.63988 0.0
C1074 C 0.28306 0.97904 0.63389 0.0
C1075 C 0.25291 0.99321 0.62425 0.0
C1076 C 0.22612 0.96491 0.61903 0.0
C1077 C 0.19283 0.97056 0.63426 0.0
C1078 C 0.21778 0.96311 0.59156 0.0
C1079 C 0.2459 0.93267 0.6274 0.0
C1080 C 0.27865 0.94165 0.63597 0.0
C1081 C 0.30194 0.91677 0.64475 0.0
C1082 C 0.29177 0.88174 0.64453 0.0
C1083 C 0.2586 0.87162 0.63555 0.0
C1084 C 0.23525 0.89753 0.62699 0.0
H1085 H 0.99598 0.31513 0.61665 0.0
H1086 H 0.96491 0.20652 0.6214 0.0
H1087 H 0.02663 0.18857 0.61956 0.0
H1088 H 0.06723 0.30194 0.5743 0.0
H1089 H 0.0951 0.33405 0.58834 0.0
H1090 H 0.04835 0.33871 0.5901 0.0
H1091 H 0.05197 0.34184 0.63731 0.0
H1092 H 0.09873 0.33733 0.6357 0.0
H1093 H 0.07351 0.3073 0.65383 0.0
H1094 H 0.09199 0.18197 0.61743 0.0
H1095 H 0.15634 0.18777 0.61577 0.0
H1096 H 0.14549 0.30024 0.61208 0.0
C1097 C 1.00216 0.28759 0.61734 0.0
C1098 C 0.9754 0.26228 0.61917 0.0
C1099 C 0.98476 0.22649 0.61999 0.0
C1100 C 0.01984 0.21596 0.61893 0.0
C1101 C 0.04552 0.24146 0.61702 0.0
C1102 C 0.03719 0.27655 0.61627 0.0
C1103 C 0.06996 0.2986 0.61428 0.0
C1104 C 0.07016 0.31956 0.59033 0.0
C1105 C 0.07376 0.32268 0.63661 0.0
C1106 C 0.0979 0.27043 0.61409 0.0
C1107 C 0.08322 0.23764 0.61566 0.0
C1108 C 0.10377 0.20753 0.61612 0.0
C1109 C 0.14028 0.21103 0.61512 0.0
C1110 C 0.15587 0.24437 0.61366 0.0
C1111 C 0.13429 0.27437 0.61301 0.0
H1112 H 0.75763 0.66247 0.60771 0.0
H1113 H 0.69567 0.6445 0.67284 0.0
H1114 H 0.7066 0.58108 0.66905 0.0
H1115 H 0.73623 0.57984 0.57464 0.0
H1116 H 0.7804 0.57559 0.56361 0.0
H1117 H 0.76187 0.61826 0.56862 0.0
H1118 H 0.8134 0.63392 0.59735 0.0
H1119 H 0.83209 0.59157 0.59226 0.0
H1120 H 0.82298 0.60599 0.62298 0.0
H1121 H 0.73136 0.52077 0.66144 0.0
H1122 H 0.77132 0.47125 0.65291 0.0
H1123 H 0.81771 0.52933 0.59351 0.0
C1124 C 0.74535 0.64516 0.62074 0.0
C1125 C 0.72538 0.65843 0.64039 0.0
C1126 C 0.71079 0.6349 0.65751 0.0
C1127 C 0.71673 0.5988 0.65541 0.0
C1128 C 0.73729 0.58665 0.6361 0.0
C1129 C 0.75141 0.60926 0.61909 0.0
C1130 C 0.77649 0.59065 0.6021 0.0
C1131 C 0.76292 0.59111 0.57568 0.0
C1132 C 0.8134 0.60646 0.6038 0.0
C1133 C 0.77533 0.55423 0.61269 0.0
C1134 C 0.75197 0.55212 0.63194 0.0
C1135 C 0.74908 0.5219 0.64604 0.0
C1136 C 0.77161 0.49378 0.64099 0.0
C1137 C 0.79681 0.49634 0.62219 0.0
C1138 C 0.79777 0.52643 0.60741 0.0
H1139 H 0.36536 0.76028 0.6796 0.0
H1140 H 0.35017 0.7254 0.60494 0.0
H1141 H 0.41325 0.73292 0.59699 0.0
H1142 H 0.41877 0.82743 0.66566 0.0
H1143 H 0.44641 0.82403 0.69221 0.0
H1144 H 0.40234 0.80833 0.69348 0.0
H1145 H 0.42487 0.74744 0.70681 0.0
H1146 H 0.46921 0.76304 0.70548 0.0
H1147 H 0.45668 0.725 0.68824 0.0
H1148 H 0.47542 0.75457 0.59505 0.0
H1149 H 0.52907 0.79022 0.59911 0.0
H1150 H 0.50359 0.8108 0.67476 0.0
C1151 C 0.37545 0.75292 0.66183 0.0
C1152 C 0.35279 0.74189 0.64298 0.0
C1153 C 0.36701 0.73359 0.61976 0.0
C1154 C 0.40289 0.73768 0.6151 0.0
C1155 C 0.42433 0.74989 0.63386 0.0
C1156 C 0.41107 0.75718 0.65684 0.0
C1157 C 0.43821 0.77451 0.67287 0.0
C1158 C 0.42568 0.8107 0.68154 0.0
C1159 C 0.44781 0.75109 0.69464 0.0
C1160 C 0.46832 0.77735 0.65504 0.0
C1161 C 0.4602 0.76233 0.63276 0.0
C1162 C 0.48247 0.76545 0.61262 0.0
C1163 C 0.51303 0.78549 0.61508 0.0
C1164 C 0.52083 0.80216 0.63745 0.0
C1165 C 0.49879 0.79702 0.6578 0.0
H1166 H 0.18704 0.51995 0.66913 0.0
H1167 H 0.22508 0.55571 0.59895 0.0
H1168 H 0.2579 0.50035 0.59391 0.0
H1169 H 0.2656 0.46699 0.68715 0.0
H1170 H 0.23842 0.43394 0.70073 0.0
H1171 H 0.22439 0.47884 0.7008 0.0
H1172 H 0.16671 0.46074 0.6796 0.0
H1173 H 0.18067 0.41599 0.67914 0.0
H1174 H 0.1685 0.43729 0.65104 0.0
H1175 H 0.27831 0.43669 0.59376 0.0
H1176 H 0.28602 0.37304 0.59918 0.0
H1177 H 0.23322 0.37943 0.66922 0.0
C1178 C 0.20329 0.51663 0.65308 0.0
C1179 C 0.20375 0.54229 0.63452 0.0
C1180 C 0.22487 0.53676 0.61361 0.0
C1181 C 0.24338 0.50523 0.61054 0.0
C1182 C 0.24079 0.47967 0.62867 0.0
C1183 C 0.22161 0.48538 0.64972 0.0
C1184 C 0.21975 0.45281 0.66532 0.0
C1185 C 0.23815 0.45849 0.68996 0.0
C1186 C 0.18166 0.44103 0.66897 0.0
C1187 C 0.23981 0.42738 0.64943 0.0
C1188 C 0.25217 0.44333 0.62849 0.0
C1189 C 0.26929 0.4242 0.61032 0.0
C1190 C 0.27351 0.38799 0.61354 0.0
C1191 C 0.26045 0.37111 0.6347 0.0
C1192 C 0.24394 0.39143 0.65297 0.0
H1193 H 0.52088 0.19123 0.60655 0.0
H1194 H 0.47677 0.23977 0.6711 0.0
H1195 H 0.53272 0.27056 0.67835 0.0
H1196 H 0.60116 0.1732 0.63066 0.0
H1197 H 0.62596 0.18173 0.60331 0.0
H1198 H 0.58111 0.16842 0.60105 0.0
H1199 H 0.56662 0.22362 0.57566 0.0
H1200 H 0.61164 0.23696 0.57759 0.0
H1201 H 0.57749 0.26606 0.58763 0.0
H1202 H 0.59681 0.288 0.68199 0.0
H1203 H 0.66113 0.29422 0.67981 0.0
H1204 H 0.66185 0.23534 0.61205 0.0
C1205 C 0.5227 0.20924 0.62176 0.0
C1206 C 0.49454 0.21342 0.63818 0.0
C1207 C 0.49791 0.23672 0.65811 0.0
C1208 C 0.52964 0.25412 0.66241 0.0
C1209 C 0.55746 0.2483 0.64638 0.0
C1210 C 0.55398 0.22689 0.62618 0.0
C1211 C 0.58825 0.22275 0.6127 0.0
C1212 C 0.59978 0.18426 0.6119 0.0
C1213 C 0.58585 0.23829 0.58686 0.0
C1214 C 0.61196 0.2442 0.62888 0.0
C1215 C 0.59384 0.25889 0.64819 0.0
C1216 C 0.61105 0.27728 0.66663 0.0
C1217 C 0.64761 0.2806 0.66528 0.0
C1218 C 0.66653 0.2657 0.6456 0.0
C1219 C 0.64819 0.24771 0.62708 0.0
H1220 H 0.75417 0.34865 0.88289 0.0
H1221 H 0.7086 0.36295 0.81109 0.0
H1222 H 0.72002 0.42656 0.81403 0.0
H1223 H 0.72625 0.43411 0.90998 0.0
H1224 H 0.76687 0.43777 0.92639 0.0
H1225 H 0.74839 0.3954 0.92048 0.0
H1226 H 0.80622 0.37618 0.89971 0.0
H1227 H 0.82472 0.41838 0.90534 0.0
H1228 H 0.82322 0.40145 0.87462 0.0
H1229 H 0.74593 0.48672 0.82239 0.0
H1230 H 0.78322 0.53636 0.8351 0.0
H1231 H 0.81124 0.48086 0.90117 0.0
C1232 C 0.74569 0.36526 0.86801 0.0
C1233 C 0.73055 0.35105 0.84675 0.0
C1234 C 0.71994 0.3735 0.82764 0.0
C1235 C 0.72635 0.40958 0.82919 0.0
C1236 C 0.74277 0.42256 0.85012 0.0
C1237 C 0.75183 0.40094 0.86931 0.0
C1238 C 0.77265 0.41991 0.88859 0.0
C1239 C 0.75231 0.42192 0.91279 0.0
C1240 C 0.80882 0.40298 0.89225 0.0
C1241 C 0.77553 0.45528 0.87679 0.0
C1242 C 0.75763 0.45674 0.85484 0.0
C1243 C 0.75936 0.48605 0.83978 0.0
C1244 C 0.78052 0.51411 0.84712 0.0
C1245 C 0.79994 0.51224 0.86909 0.0
C1246 C 0.79651 0.4829 0.88433 0.0
H1247 H 0.49918 0.81123 0.90045 0.0
H1248 H 0.46184 0.81532 0.82587 0.0
H1249 H 0.51279 0.78024 0.81238 0.0
H1250 H 0.58324 0.82578 0.88849 0.0
H1251 H 0.60152 0.79702 0.91119 0.0
H1252 H 0.55867 0.81495 0.91555 0.0
H1253 H 0.53306 0.75276 0.92005 0.0
H1254 H 0.57609 0.73451 0.91587 0.0
H1255 H 0.54069 0.72086 0.89641 0.0
H1256 H 0.57356 0.75685 0.80626 0.0
H1257 H 0.63688 0.74442 0.80832 0.0
H1258 H 0.63284 0.75306 0.88734 0.0
C1259 C 0.50117 0.80348 0.88145 0.0
C1260 C 0.4768 0.81553 0.86415 0.0
C1261 C 0.48019 0.80573 0.83935 0.0
C1262 C 0.50899 0.78588 0.83159 0.0
C1263 C 0.53353 0.77553 0.84901 0.0
C1264 C 0.52944 0.78342 0.87354 0.0
C1265 C 0.56116 0.77295 0.88824 0.0
C1266 C 0.57707 0.80455 0.90162 0.0
C1267 C 0.55221 0.74351 0.9062 0.0
C1268 C 0.58469 0.76 0.86798 0.0
C1269 C 0.56823 0.76114 0.8455 0.0
C1270 C 0.58639 0.7548 0.82382 0.0
C1271 C 0.62237 0.74788 0.82515 0.0
C1272 C 0.63969 0.74745 0.848 0.0
C1273 C 0.62024 0.75243 0.86963 0.0
H1274 H 0.16457 0.49707 0.83686 0.0
H1275 H 0.23741 0.46601 0.89316 0.0
H1276 H 0.26954 0.52161 0.88776 0.0
H1277 H 0.22793 0.55067 0.79829 0.0
H1278 H 0.19424 0.58229 0.79198 0.0
H1279 H 0.18304 0.53701 0.79597 0.0
H1280 H 0.13906 0.55439 0.82986 0.0
H1281 H 0.15044 0.59949 0.82636 0.0
H1282 H 0.15418 0.57899 0.85588 0.0
H1283 H 0.28571 0.58508 0.88205 0.0
H1284 H 0.28587 0.64888 0.8757 0.0
H1285 H 0.20182 0.63827 0.82312 0.0
C1286 C 0.18842 0.50131 0.84707 0.0
C1287 C 0.19923 0.47708 0.86494 0.0
C1288 C 0.2295 0.48389 0.87888 0.0
C1289 C 0.24769 0.51549 0.876 0.0
C1290 C 0.23531 0.53973 0.85898 0.0
C1291 C 0.20663 0.53266 0.84444 0.0
C1292 C 0.19553 0.56444 0.82995 0.0
C1293 C 0.20049 0.55823 0.80241 0.0
C1294 C 0.15758 0.57493 0.83589 0.0
C1295 C 0.22125 0.59109 0.83946 0.0
C1296 C 0.24439 0.57632 0.85588 0.0
C1297 C 0.26827 0.59668 0.86879 0.0
C1298 C 0.26809 0.63298 0.86511 0.0
C1299 C 0.24401 0.64866 0.84879 0.0
C1300 C 0.22096 0.62715 0.83542 0.0
H1301 H 0.48701 0.20772 0.91191 0.0
H1302 H 0.52619 0.23732 0.84043 0.0
H1303 H 0.47687 0.27796 0.83559 0.0
H1304 H 0.40345 0.19903 0.89369 0.0
H1305 H 0.38327 0.21452 0.92144 0.0
H1306 H 0.4261 0.19548 0.92246 0.0
H1307 H 0.45032 0.25135 0.94302 0.0
H1308 H 0.40734 0.2706 0.94217 0.0
H1309 H 0.44378 0.29309 0.92858 0.0
H1310 H 0.41814 0.3065 0.83493 0.0
H1311 H 0.35503 0.3189 0.83808 0.0
H1312 H 0.35249 0.26794 0.90885 0.0
C1313 C 0.48575 0.22337 0.89547 0.0
C1314 C 0.5107 0.21931 0.87663 0.0
C1315 C 0.50798 0.24037 0.85542 0.0
C1316 C 0.47988 0.26351 0.85245 0.0
C1317 C 0.45475 0.26543 0.87085 0.0
C1318 C 0.45757 0.24603 0.89205 0.0
C1319 C 0.4247 0.24852 0.90732 0.0
C1320 C 0.40843 0.21225 0.91144 0.0
C1321 C 0.43198 0.267 0.93172 0.0
C1322 C 0.40224 0.27084 0.89082 0.0
C1323 C 0.4203 0.28114 0.87018 0.0
C1324 C 0.40395 0.29922 0.85126 0.0
C1325 C 0.36805 0.30612 0.8532 0.0
C1326 C 0.34883 0.29443 0.87373 0.0
C1327 C 0.3665 0.27754 0.89304 0.0
H1328 H 0.24883 0.38304 0.3922 0.0
H1329 H 0.29688 0.38524 0.32042 0.0
H1330 H 0.28852 0.44933 0.31886 0.0
H1331 H 0.18253 0.4437 0.37872 0.0
H1332 H 0.18228 0.46348 0.40863 0.0
H1333 H 0.19544 0.41869 0.40511 0.0
H1334 H 0.25437 0.43225 0.42634 0.0
H1335 H 0.24138 0.47715 0.42995 0.0
H1336 H 0.28167 0.4666 0.41455 0.0
H1337 H 0.27286 0.51254 0.32472 0.0
H1338 H 0.24778 0.56958 0.33594 0.0
H1339 H 0.20719 0.52512 0.40316 0.0
C1340 C 0.25813 0.39712 0.37633 0.0
C1341 C 0.27389 0.37951 0.35653 0.0
C1342 C 0.28501 0.39851 0.33582 0.0
C1343 C 0.28044 0.43481 0.33484 0.0
C1344 C 0.26448 0.45142 0.35463 0.0
C1345 C 0.2533 0.43314 0.37492 0.0
C1346 C 0.23452 0.45662 0.39291 0.0
C1347 C 0.19644 0.44492 0.39654 0.0
C1348 C 0.25417 0.45825 0.41738 0.0
C1349 C 0.23649 0.49099 0.37947 0.0
C1350 C 0.25431 0.48754 0.35761 0.0
C1351 C 0.25897 0.51558 0.34183 0.0
C1352 C 0.24463 0.5479 0.34841 0.0
C1353 C 0.22547 0.55181 0.37044 0.0
C1354 C 0.22172 0.52298 0.38623 0.0
H1355 H 0.5221 0.17075 0.36455 0.0
H1356 H 0.48341 0.27647 0.37336 0.0
H1357 H 0.54409 0.29837 0.37336 0.0
H1358 H 0.59746 0.1805 0.40379 0.0
H1359 H 0.62504 0.15317 0.38511 0.0
H1360 H 0.57859 0.14593 0.38581 0.0
H1361 H 0.57607 0.15195 0.33869 0.0
H1362 H 0.6225 0.15922 0.33785 0.0
H1363 H 0.59321 0.19067 0.32442 0.0
H1364 H 0.60965 0.3089 0.37143 0.0
H1365 H 0.67425 0.30672 0.36873 0.0
H1366 H 0.66987 0.19414 0.36219 0.0
C1367 C 0.52632 0.19853 0.36647 0.0
C1368 C 0.49783 0.22189 0.36889 0.0
C1369 C 0.50468 0.25802 0.37151 0.0
C1370 C 0.53912 0.27073 0.3715 0.0
C1371 C 0.56656 0.247 0.36904 0.0
C1372 C 0.56052 0.21163 0.3667 0.0
C1373 C 0.59457 0.19156 0.3645 0.0
C1374 C 0.59918 0.1663 0.38609 0.0
C1375 C 0.5967 0.17222 0.3399 0.0
C1376 C 0.62072 0.22117 0.36572 0.0
C1377 C 0.60409 0.25298 0.36833 0.0
C1378 C 0.6229 0.2841 0.36949 0.0
C1379 C 0.65957 0.28265 0.36795 0.0
C1380 C 0.67706 0.25031 0.36534 0.0
C1381 C 0.65724 0.21926 0.36429 0.0
H1382 H 0.72527 0.59084 0.35082 0.0
H1383 H 0.74543 0.6153 0.42694 0.0
H1384 H 0.76436 0.55456 0.43407 0.0
H1385 H 0.69319 0.50161 0.36101 0.0
H1386 H 0.71362 0.485 0.33367 0.0
H1387 H 0.69938 0.52978 0.33501 0.0
H1388 H 0.76181 0.55006 0.32361 0.0
H1389 H 0.77631 0.5054 0.32244 0.0
H1390 H 0.79826 0.53614 0.34205 0.0
H1391 H 0.78565 0.49302 0.43215 0.0
H1392 H 0.80429 0.43311 0.42206 0.0
H1393 H 0.769 0.44771 0.34736 0.0
C1394 C 0.73305 0.58316 0.36907 0.0
C1395 C 0.73378 0.60759 0.38839 0.0
C1396 C 0.74453 0.59686 0.41195 0.0
C1397 C 0.75538 0.56247 0.41615 0.0
C1398 C 0.75508 0.53915 0.39662 0.0
C1399 C 0.74386 0.54887 0.3736 0.0
C1400 C 0.74719 0.51894 0.35562 0.0
C1401 C 0.7112 0.5082 0.34575 0.0
C1402 C 0.77239 0.5282 0.3347 0.0
C1403 C 0.76244 0.49105 0.37207 0.0
C1404 C 0.76686 0.50332 0.39562 0.0
C1405 C 0.78194 0.48295 0.41385 0.0
C1406 C 0.7926 0.44902 0.4079 0.0
C1407 C 0.78792 0.4357 0.38397 0.0
C1408 C 0.77255 0.45705 0.36588 0.0
H1409 H 0.50766 0.76681 0.41202 0.0
H1410 H 0.53253 0.79579 0.33727 0.0
H1411 H 0.47064 0.78935 0.32597 0.0
H1412 H 0.44179 0.70244 0.39735 0.0
H1413 H 0.41392 0.71407 0.42265 0.0
H1414 H 0.46046 0.72003 0.42497 0.0
H1415 H 0.45116 0.78531 0.43542 0.0
H1416 H 0.40462 0.77952 0.43326 0.0
H1417 H 0.42594 0.8123 0.41501 0.0
H1418 H 0.40655 0.78074 0.32268 0.0
H1419 H 0.34312 0.77287 0.32799 0.0
H1420 H 0.3589 0.74972 0.40484 0.0
C1421 C 0.5001 0.7717 0.39326 0.0
C1422 C 0.525 0.78172 0.37551 0.0
C1423 C 0.51399 0.78808 0.3512 0.0
C1424 C 0.47889 0.78439 0.34456 0.0
C1425 C 0.45509 0.77436 0.36244 0.0
C1426 C 0.46509 0.76824 0.38631 0.0
C1427 C 0.43394 0.75871 0.40207 0.0
C1428 C 0.43777 0.7216 0.41236 0.0
C1429 C 0.42861 0.78557 0.42265 0.0
C1430 C 0.40488 0.76067 0.38333 0.0
C1431 C 0.41779 0.76954 0.36057 0.0
C1432 C 0.3961 0.77368 0.34038 0.0
C1433 C 0.36015 0.76912 0.34358 0.0
C1434 C 0.34625 0.7606 0.36679 0.0
C1435 C 0.36894 0.75595 0.38686 0.0
H1436 H 0.22705 0.64577 0.09683 0.0
H1437 H 0.33337 0.64693 0.12405 0.0
H1438 H 0.33123 0.58288 0.12946 0.0
H1439 H 0.19453 0.58174 0.13758 0.0
H1440 H 0.16647 0.56104 0.11548 0.0
H1441 H 0.17698 0.60656 0.11244 0.0
H1442 H 0.20034 0.59549 0.06866 0.0
H1443 H 0.18965 0.54995 0.07152 0.0
H1444 H 0.23353 0.5628 0.0638 0.0
H1445 H 0.31618 0.51919 0.13417 0.0
H1446 H 0.29078 0.46018 0.1358 0.0
H1447 H 0.19423 0.50009 0.10495 0.0
C1448 C 0.25007 0.63244 0.10356 0.0
C1449 C 0.28052 0.65125 0.10988 0.0
C1450 C 0.30993 0.63298 0.11891 0.0
C1451 C 0.30888 0.59663 0.12212 0.0
C1452 C 0.27825 0.57891 0.11612 0.0
C1453 C 0.24947 0.59616 0.10682 0.0
C1454 C 0.21953 0.57106 0.10225 0.0
C1455 C 0.1875 0.58068 0.11788 0.0
C1456 C 0.21023 0.56975 0.07493 0.0
C1457 C 0.23584 0.53705 0.11067 0.0
C1458 C 0.2697 0.54219 0.11863 0.0
C1459 C 0.28979 0.51485 0.12781 0.0
C1460 C 0.27504 0.48138 0.12874 0.0
C1461 C 0.2405 0.47531 0.12045 0.0
C1462 C 0.22075 0.50371 0.11131 0.0
H1463 H 0.54575 0.21559 0.10028 0.0
H1464 H 0.57633 0.25414 0.17173 0.0
H1465 H 0.51492 0.26943 0.18062 0.0
H1466 H 0.4809 0.28247 0.08852 0.0
H1467 H 0.45162 0.25309 0.07303 0.0
H1468 H 0.498 0.2452 0.07231 0.0
H1469 H 0.48832 0.18322 0.0899 0.0
H1470 H 0.44194 0.19087 0.09058 0.0
H1471 H 0.46446 0.17814 0.11809 0.0
H1472 H 0.44943 0.27725 0.18261 0.0
H1473 H 0.3853 0.27948 0.17655 0.0
H1474 H 0.39849 0.23964 0.10292 0.0
C1475 C 0.53952 0.22725 0.1178 0.0
C1476 C 0.56576 0.23355 0.13536 0.0
C1477 C 0.55662 0.24913 0.15798 0.0
C1478 C 0.52183 0.25789 0.16322 0.0
C1479 C 0.49656 0.25135 0.1455 0.0
C1480 C 0.50502 0.23666 0.12317 0.0
C1481 C 0.47301 0.23253 0.10722 0.0
C1482 C 0.47608 0.25465 0.08389 0.0
C1483 C 0.46656 0.1939 0.1011 0.0
C1484 C 0.44517 0.24677 0.12418 0.0
C1485 C 0.4592 0.25732 0.14624 0.0
C1486 C 0.43821 0.26954 0.16529 0.0
C1487 C 0.40191 0.27075 0.16171 0.0
C1488 C 0.38721 0.26025 0.13918 0.0
C1489 C 0.40919 0.2485 0.12016 0.0
H1490 H 0.80088 0.51544 0.08806 0.0
H1491 H 0.78234 0.53506 0.1652 0.0
H1492 H 0.76682 0.47329 0.17103 0.0
H1493 H 0.73056 0.45413 0.07948 0.0
H1494 H 0.75501 0.42667 0.05887 0.0
H1495 H 0.76431 0.47264 0.06055 0.0
H1496 H 0.8292 0.45909 0.07016 0.0
H1497 H 0.82016 0.41312 0.0683 0.0
H1498 H 0.83977 0.43098 0.0955 0.0
H1499 H 0.75396 0.40921 0.16871 0.0
H1500 H 0.74737 0.34668 0.15855 0.0
H1501 H 0.77388 0.36884 0.08305 0.0
C1502 C 0.7936 0.50677 0.10618 0.0
C1503 C 0.79281 0.53017 0.12615 0.0
C1504 C 0.78316 0.51769 0.14959 0.0
C1505 C 0.77417 0.48264 0.1531 0.0
C1506 C 0.77492 0.46035 0.133 0.0
C1507 C 0.78454 0.47184 0.11003 0.0
C1508 C 0.78388 0.44234 0.09161 0.0
C1509 C 0.75682 0.44938 0.07144 0.0
C1510 C 0.82042 0.43601 0.08076 0.0
C1511 C 0.77266 0.41244 0.10787 0.0
C1512 C 0.76743 0.42342 0.13166 0.0
C1513 C 0.75782 0.40032 0.15013 0.0
C1514 C 0.75404 0.36493 0.14419 0.0
C1515 C 0.75992 0.35311 0.12003 0.0
C1516 C 0.76889 0.37728 0.10162 0.0
H1517 H 0.48873 0.77707 0.12589 0.0
H1518 H 0.46047 0.66805 0.11814 0.0
H1519 H 0.52281 0.65203 0.11655 0.0
H1520 H 0.56324 0.77466 0.08517 0.0
H1521 H 0.58899 0.80409 0.10342 0.0
H1522 H 0.54206 0.80717 0.10386 0.0
H1523 H 0.54231 0.80033 0.15095 0.0
H1524 H 0.58924 0.79725 0.15065 0.0
H1525 H 0.56368 0.76313 0.16448 0.0
H1526 H 0.5889 0.64747 0.11618 0.0
H1527 H 0.65314 0.6553 0.11707 0.0
H1528 H 0.63868 0.76694 0.1248 0.0
C1529 C 0.49562 0.74983 0.12382 0.0
C1530 C 0.46944 0.72387 0.12214 0.0
C1531 C 0.47981 0.68852 0.11947 0.0
C1532 C 0.51527 0.6791 0.11853 0.0
C1533 C 0.54037 0.70525 0.12026 0.0
C1534 C 0.53102 0.73992 0.12283 0.0
C1535 C 0.56321 0.76288 0.12439 0.0
C1536 C 0.56444 0.78872 0.10293 0.0
C1537 C 0.56468 0.78202 0.14909 0.0
C1538 C 0.59203 0.73574 0.12234 0.0
C1539 C 0.57832 0.70263 0.11997 0.0
C1540 C 0.59989 0.67332 0.11799 0.0
C1541 C 0.63635 0.67797 0.11849 0.0
C1542 C 0.65094 0.71165 0.12094 0.0
C1543 C 0.62833 0.74083 0.12283 0.0
H1544 H 0.31531 0.28877 0.30655 0.0
H1545 H 0.32773 0.17757 0.29628 0.0
H1546 H 0.30702 0.18328 0.25357 0.0
H1547 H 0.23632 0.30055 0.26844 0.0
H1548 H 0.2515 0.34197 0.2573 0.0
H1549 H 0.26415 0.32735 0.28729 0.0
H1550 H 0.32905 0.33606 0.27446 0.0
H1551 H 0.31589 0.34891 0.24418 0.0
H1552 H 0.34576 0.31299 0.24818 0.0
H1553 H 0.28561 0.2013 0.21215 0.0
H1554 H 0.26515 0.23028 0.17463 0.0
H1555 H 0.26796 0.33032 0.21158 0.0
C1556 C 0.31223 0.26557 0.29559 0.0
C1557 C 0.32176 0.2326 0.3048 0.0
C1558 C 0.3199 0.20294 0.28951 0.0
C1559 C 0.30822 0.20596 0.26531 0.0
C1560 C 0.29902 0.23893 0.25671 0.0
C1561 C 0.30087 0.26825 0.27136 0.0
C1562 C 0.29131 0.30089 0.25724 0.0
C1563 C 0.2589 0.31871 0.26825 0.0
C1564 C 0.32236 0.32619 0.25594 0.0
C1565 C 0.28339 0.28527 0.23243 0.0
C1566 C 0.28802 0.24952 0.23254 0.0
C1567 C 0.28194 0.22929 0.21185 0.0
C1568 C 0.27034 0.24598 0.19059 0.0
C1569 C 0.26517 0.28253 0.19004 0.0
C1570 C 0.27199 0.30236 0.21128 0.0
H1571 H 0.72436 0.27961 0.28107 0.0
H1572 H 0.83688 0.2704 0.27629 0.0
H1573 H 0.83224 0.25741 0.23209 0.0
H1574 H 0.70709 0.20748 0.24384 0.0
H1575 H 0.66876 0.22541 0.22941 0.0
H1576 H 0.68095 0.23959 0.25957 0.0
H1577 H 0.68199 0.30377 0.24481 0.0
H1578 H 0.66957 0.28975 0.21458 0.0
H1579 H 0.70845 0.31546 0.21882 0.0
H1580 H 0.81532 0.24171 0.18921 0.0
H1581 H 0.78712 0.22024 0.15144 0.0
H1582 H 0.68534 0.23541 0.1845 0.0
C1583 C 0.74795 0.27586 0.27045 0.0
C1584 C 0.78105 0.27674 0.28176 0.0
C1585 C 0.81139 0.2703 0.26771 0.0
C1586 C 0.80898 0.26299 0.24265 0.0
C1587 C 0.77595 0.26165 0.23201 0.0
C1588 C 0.74591 0.26767 0.24547 0.0
C1589 C 0.71356 0.26087 0.2302 0.0
C1590 C 0.69129 0.2316 0.24143 0.0
C1591 C 0.69213 0.29447 0.22691 0.0
C1592 C 0.7301 0.24946 0.20628 0.0
C1593 C 0.76611 0.25082 0.20756 0.0
C1594 C 0.78713 0.24083 0.18793 0.0
C1595 C 0.77095 0.2288 0.16652 0.0
C1596 C 0.73417 0.22648 0.165 0.0
C1597 C 0.71355 0.23708 0.18514 0.0
H1598 H 0.70351 0.78641 0.29946 0.0
H1599 H 0.68591 0.68179 0.32651 0.0
H1600 H 0.7154 0.6574 0.29027 0.0
H1601 H 0.68319 0.76744 0.2388 0.0
H1602 H 0.71528 0.7959 0.22534 0.0
H1603 H 0.69789 0.80552 0.25515 0.0
H1604 H 0.76054 0.80654 0.27301 0.0
H1605 H 0.77821 0.79684 0.24321 0.0
H1606 H 0.78868 0.76927 0.26886 0.0
H1607 H 0.74178 0.64419 0.2504 0.0
H1608 H 0.76007 0.64211 0.20739 0.0
H1609 H 0.75865 0.75532 0.20437 0.0
C1610 C 0.70667 0.75842 0.29792 0.0
C1611 C 0.69393 0.73582 0.3162 0.0
C1612 C 0.69726 0.69938 0.3133 0.0
C1613 C 0.71363 0.68536 0.29267 0.0
C1614 C 0.72633 0.70824 0.27508 0.0
C1615 C 0.72289 0.74398 0.27733 0.0
C1616 C 0.73565 0.76245 0.25453 0.0
C1617 C 0.70624 0.78409 0.24277 0.0
C1618 C 0.76768 0.78511 0.26025 0.0
C1619 C 0.74552 0.73139 0.23882 0.0
C1620 C 0.74055 0.70048 0.25131 0.0
C1621 C 0.74608 0.66817 0.24045 0.0
C1622 C 0.75631 0.66732 0.21596 0.0
C1623 C 0.76061 0.69857 0.2025 0.0
C1624 C 0.75582 0.73104 0.21426 0.0
H1625 H 0.21192 0.77028 0.29369 0.0
H1626 H 0.2392 0.66171 0.30622 0.0
H1627 H 0.26458 0.65822 0.26503 0.0
H1628 H 0.19058 0.75851 0.22726 0.0
H1629 H 0.20788 0.80082 0.21971 0.0
H1630 H 0.18835 0.7935 0.24924 0.0
H1631 H 0.24519 0.8153 0.26991 0.0
H1632 H 0.26519 0.82186 0.24052 0.0
H1633 H 0.28608 0.79422 0.26279 0.0
H1634 H 0.29554 0.6691 0.22532 0.0
H1635 H 0.32008 0.69099 0.18628 0.0
H1636 H 0.26917 0.79062 0.19841 0.0
C1637 C 0.22239 0.74551 0.28756 0.0
C1638 C 0.22399 0.7165 0.3034 0.0
C1639 C 0.23784 0.6845 0.29459 0.0
C1640 C 0.25246 0.68219 0.27119 0.0
C1641 C 0.25222 0.71181 0.25656 0.0
C1642 C 0.23657 0.74255 0.26406 0.0
C1643 C 0.2405 0.77075 0.24494 0.0
C1644 C 0.2047 0.78152 0.23468 0.0
C1645 C 0.26043 0.80238 0.25516 0.0
C1646 C 0.26192 0.75142 0.22602 0.0
C1647 C 0.26859 0.71751 0.23309 0.0
C1648 C 0.28991 0.69539 0.21932 0.0
C1649 C 0.30404 0.70809 0.19739 0.0
C1650 C 0.29633 0.74232 0.18949 0.0
C1651 C 0.27514 0.76419 0.20403 0.0
H1652 H 0.71893 0.76179 0.71251 0.0
H1653 H 0.77897 0.85706 0.70489 0.0
H1654 H 0.79957 0.85102 0.74742 0.0
H1655 H 0.69367 0.77503 0.77738 0.0
H1656 H 0.69716 0.72887 0.78328 0.0
H1657 H 0.68515 0.74403 0.75333 0.0
H1658 H 0.7367 0.70755 0.73552 0.0
H1659 H 0.74913 0.69396 0.76574 0.0
H1660 H 0.78039 0.71559 0.74638 0.0
H1661 H 0.82002 0.83011 0.78838 0.0
H1662 H 0.83526 0.79768 0.82616 0.0
H1663 H 0.75831 0.71918 0.80824 0.0
C1664 C 0.73603 0.78164 0.7199 0.0
C1665 C 0.74743 0.80982 0.70545 0.0
C1666 C 0.76981 0.83528 0.71572 0.0
C1667 C 0.78162 0.83212 0.73985 0.0
C1668 C 0.77026 0.80373 0.75352 0.0
C1669 C 0.7476 0.77918 0.74402 0.0
C1670 C 0.74057 0.75027 0.7621 0.0
C1671 C 0.70184 0.74956 0.76948 0.0
C1672 C 0.75242 0.71476 0.75182 0.0
C1673 C 0.76352 0.76193 0.78305 0.0
C1674 C 0.78056 0.79277 0.77773 0.0
C1675 C 0.80614 0.8065 0.7931 0.0
C1676 C 0.81471 0.78801 0.81438 0.0
C1677 C 0.79718 0.75673 0.82009 0.0
C1678 C 0.77104 0.74381 0.8045 0.0
H1679 H 0.26847 0.77044 0.80676 0.0
H1680 H 0.19792 0.85763 0.81721 0.0
H1681 H 0.16743 0.84233 0.77877 0.0
H1682 H 0.2814 0.78557 0.74547 0.0
H1683 H 0.28489 0.7405 0.7364 0.0
H1684 H 0.29615 0.7532 0.76703 0.0
H1685 H 0.25196 0.70862 0.78439 0.0
H1686 H 0.24048 0.69558 0.75378 0.0
H1687 H 0.20704 0.71017 0.77464 0.0
H1688 H 0.1484 0.82101 0.73764 0.0
H1689 H 0.14537 0.79918 0.69527 0.0
H1690 H 0.23238 0.72953 0.70969 0.0
C1691 C 0.24581 0.7855 0.80131 0.0
C1692 C 0.23492 0.81473 0.81503 0.0
C1693 C 0.20621 0.83487 0.80699 0.0
C1694 C 0.18873 0.82626 0.78528 0.0
C1695 C 0.20074 0.79783 0.77171 0.0
C1696 C 0.22882 0.77789 0.77933 0.0
C1697 C 0.2398 0.75201 0.75981 0.0
C1698 C 0.27779 0.75822 0.75171 0.0
C1699 C 0.23449 0.71436 0.76869 0.0
C1700 C 0.21423 0.76123 0.73972 0.0
C1701 C 0.19129 0.787 0.74723 0.0
C1702 C 0.16601 0.80063 0.73162 0.0
C1703 C 0.1645 0.78804 0.70759 0.0
C1704 C 0.18867 0.7627 0.6992 0.0
C1705 C 0.21354 0.74888 0.71562 0.0
H1706 H 0.24809 0.2881 0.80267 0.0
H1707 H 0.16696 0.21078 0.81389 0.0
H1708 H 0.17421 0.19059 0.7714 0.0
H1709 H 0.22313 0.30985 0.74073 0.0
H1710 H 0.26744 0.31577 0.73046 0.0
H1711 H 0.25623 0.32402 0.76193 0.0
H1712 H 0.30396 0.28037 0.77593 0.0
H1713 H 0.31532 0.27198 0.74452 0.0
H1714 H 0.30345 0.23637 0.76431 0.0
H1715 H 0.19165 0.17721 0.72865 0.0
H1716 H 0.21574 0.17382 0.6869 0.0
H1717 H 0.28336 0.26181 0.70255 0.0
C1718 C 0.23191 0.26691 0.79615 0.0
C1719 C 0.20709 0.25087 0.81151 0.0
C1720 C 0.1861 0.22346 0.80236 0.0
C1721 C 0.19006 0.21175 0.7783 0.0
C1722 C 0.2148 0.22805 0.76362 0.0
C1723 C 0.23514 0.25524 0.77206 0.0
C1724 C 0.25931 0.26863 0.75229 0.0
C1725 C 0.25102 0.30683 0.74598 0.0
C1726 C 0.29779 0.26405 0.75971 0.0
C1727 C 0.24958 0.24443 0.73154 0.0
C1728 C 0.22402 0.2211 0.73855 0.0
C1729 C 0.21149 0.19547 0.72284 0.0
C1730 C 0.22541 0.19369 0.69923 0.0
C1731 C 0.25126 0.21765 0.69156 0.0
C1732 C 0.26337 0.24339 0.70791 0.0
H1733 H 0.73181 0.17691 0.76445 0.0
H1734 H 0.76284 0.25743 0.81561 0.0
H1735 H 0.79061 0.29009 0.7822 0.0
H1736 H 0.80878 0.17944 0.72641 0.0
H1737 H 0.78518 0.17317 0.69825 0.0
H1738 H 0.76821 0.15568 0.72638 0.0
H1739 H 0.71009 0.18905 0.71938 0.0
H1740 H 0.72714 0.20654 0.69126 0.0
H1741 H 0.71103 0.23556 0.71464 0.0
H1742 H 0.81552 0.3138 0.7435 0.0
H1743 H 0.83628 0.32717 0.70193 0.0
H1744 H 0.78793 0.23277 0.67492 0.0
C1745 C 0.74469 0.20129 0.76866 0.0
C1746 C 0.74568 0.21432 0.79291 0.0
C1747 C 0.76231 0.24655 0.79747 0.0
C1748 C 0.77798 0.26543 0.77849 0.0
C1749 C 0.7765 0.25192 0.75487 0.0
C1750 C 0.76024 0.22063 0.74981 0.0
C1751 C 0.76212 0.21225 0.72267 0.0
C1752 C 0.78228 0.17811 0.71817 0.0
C1753 C 0.72541 0.21077 0.71133 0.0
C1754 C 0.78232 0.24358 0.71338 0.0
C1755 C 0.79022 0.2661 0.73231 0.0
C1756 C 0.80935 0.29643 0.72852 0.0
C1757 C 0.82104 0.30377 0.70481 0.0
C1758 C 0.81348 0.28104 0.68507 0.0
C1759 C 0.79362 0.25073 0.68948 0.0
H1760 H 0.08018 0.45777 0.10547 0.0
H1761 H 0.03344 0.4027 0.16632 0.0
H1762 H 0.99638 0.4539 0.17543 0.0
H1763 H 0.07807 0.54638 0.13422 0.0
H1764 H 0.0678 0.56722 0.1056 0.0
H1765 H 0.09358 0.52787 0.10592 0.0
H1766 H 0.04948 0.4992 0.07618 0.0
H1767 H 0.02311 0.5381 0.07623 0.0
H1768 H 0.00401 0.49688 0.08459 0.0
H1769 H 0.96012 0.50814 0.17521 0.0
H1770 H 0.932 0.56547 0.16895 0.0
H1771 H 1.00138 0.58526 0.10776 0.0
C1772 C 0.06307 0.45716 0.12124 0.0
C1773 C 0.05989 0.42669 0.13548 0.0
C1774 C 0.03645 0.42614 0.15549 0.0
C1775 C 0.01519 0.45495 0.16068 0.0
C1776 C 0.01777 0.48413 0.14569 0.0
C1777 C 0.04154 0.48579 0.12666 0.0
C1778 C 0.03779 0.51972 0.11271 0.0
C1779 C 0.07129 0.54159 0.11474 0.0
C1780 C 0.02801 0.51305 0.08584 0.0
C1781 C 0.00781 0.53643 0.12658 0.0
C1782 C 0.99664 0.51545 0.14551 0.0
C1783 C 0.96881 0.52497 0.16056 0.0
C1784 C 0.95267 0.55737 0.15667 0.0
C1785 C 0.96442 0.57982 0.13786 0.0
C1786 C 0.99197 0.56877 0.1224 0.0
H1787 H 0.43659 0.97399 0.0983 0.0
H1788 H 0.45439 0.91171 0.1633 0.0
H1789 H 0.51258 0.93853 0.16811 0.0
H1790 H 0.52462 0.96879 0.07526 0.0
H1791 H 0.52457 0.01275 0.06364 0.0
H1792 H 0.48428 0.98883 0.06566 0.0
H1793 H 0.45757 0.03868 0.09172 0.0
H1794 H 0.49804 0.06247 0.09014 0.0
H1795 H 0.47917 0.05211 0.11943 0.0
H1796 H 0.56784 0.97254 0.1664 0.0
H1797 H 0.62055 0.00578 0.15519 0.0
H1798 H 0.56781 0.04571 0.0909 0.0
C1799 C 0.45285 0.96596 0.11348 0.0
C1800 C 0.44109 0.94072 0.13042 0.0
C1801 C 0.46311 0.93063 0.14995 0.0
C1802 C 0.49598 0.94603 0.15299 0.0
C1803 C 0.50644 0.97137 0.13629 0.0
C1804 C 0.48583 0.98091 0.1167 0.0
C1805 C 0.50395 0.00779 0.10085 0.0
C1806 C 0.50971 0.99369 0.07481 0.0
C1807 C 0.48345 0.04231 0.10052 0.0
C1808 C 0.53815 0.01166 0.11449 0.0
C1809 C 0.53873 0.99075 0.13508 0.0
C1810 C 0.56772 0.989 0.15034 0.0
C1811 C 0.59744 0.00802 0.14388 0.0
C1812 C 0.5981 0.02828 0.12224 0.0
C1813 C 0.56773 0.03089 0.10774 0.0
H1814 H 0.98784 0.56768 0.33991 0.0
H1815 H 0.06612 0.56571 0.3972 0.0
H1816 H 0.04575 0.50701 0.40957 0.0
H1817 H 0.91906 0.52242 0.37391 0.0
H1818 H 0.9041 0.49926 0.34723 0.0
H1819 H 0.92339 0.54186 0.34408 0.0
H1820 H 0.96896 0.51703 0.31357 0.0
H1821 H 0.94959 0.47457 0.31641 0.0
H1822 H 0.99548 0.48029 0.32249 0.0
H1823 H 0.01861 0.44718 0.41401 0.0
H1824 H 0.99067 0.38972 0.40796 0.0
H1825 H 0.92963 0.43213 0.34824 0.0
C1826 C 1.00032 0.55527 0.35539 0.0
C1827 C 0.02835 0.57148 0.36778 0.0
C1828 C 0.04467 0.55377 0.38741 0.0
C1829 C 0.03302 0.52061 0.39471 0.0
C1830 C 0.00499 0.50565 0.38224 0.0
C1831 C 0.98898 0.52242 0.36292 0.0
C1832 C 0.96094 0.5 0.35143 0.0
C1833 C 0.92473 0.5169 0.35434 0.0
C1834 C 0.96926 0.49252 0.32439 0.0
C1835 C 0.96416 0.46748 0.3669 0.0
C1836 C 0.98937 0.47139 0.3848 0.0
C1837 C 0.99857 0.44401 0.40025 0.0
C1838 C 0.98254 0.41151 0.39672 0.0
C1839 C 0.95774 0.40662 0.37781 0.0
C1840 C 0.94775 0.43533 0.36327 0.0
H1841 H 0.56747 0.93772 0.38176 0.0
H1842 H 0.61381 0.99539 0.32173 0.0
H1843 H 0.56002 0.03065 0.31818 0.0
H1844 H 0.47724 0.93718 0.35703 0.0
H1845 H 0.45846 0.94173 0.38709 0.0
H1846 H 0.49938 0.91912 0.38321 0.0
H1847 H 0.52807 0.9606 0.41474 0.0
H1848 H 0.48747 0.98366 0.41846 0.0
H1849 H 0.52632 0.00705 0.40978 0.0
H1850 H 0.50382 0.06392 0.32444 0.0
H1851 H 0.44718 0.08903 0.33766 0.0
H1852 H 0.43736 0.00773 0.39225 0.0
C1853 C 0.56598 0.95693 0.3673 0.0
C1854 C 0.59492 0.96378 0.35204 0.0
C1855 C 0.5921 0.98991 0.33381 0.0
C1856 C 0.56162 0.00997 0.33157 0.0
C1857 C 0.53402 0.00323 0.34746 0.0
C1858 C 0.53571 0.97694 0.36469 0.0
C1859 C 0.50312 0.97595 0.38029 0.0
C1860 C 0.48338 0.94145 0.37668 0.0
C1861 C 0.51178 0.9822 0.40741 0.0
C1862 C 0.48318 0.00632 0.36953 0.0
C1863 C 0.50137 0.02177 0.35062 0.0
C1864 C 0.48904 0.05166 0.33893 0.0
C1865 C 0.45707 0.06588 0.34665 0.0
C1866 C 0.43789 0.05003 0.36575 0.0
C1867 C 0.4512 0.0199 0.37725 0.0
H1868 H 0.05292 0.42979 0.86649 0.0
H1869 H 0.10265 0.48345 0.92684 0.0
H1870 H 0.04865 0.51767 0.93381 0.0
H1871 H 0.01155 0.50225 0.8425 0.0
H1872 H 0.97217 0.48019 0.8333 0.0
H1873 H 0.01259 0.45639 0.83524 0.0
H1874 H 0.98447 0.41221 0.86515 0.0
H1875 H 0.94367 0.43547 0.86293 0.0
H1876 H 0.96317 0.42793 0.89243 0.0
H1877 H 0.99086 0.54999 0.93144 0.0
H1878 H 0.93261 0.57457 0.92175 0.0
H1879 H 0.92269 0.50107 0.86179 0.0
C1880 C 0.05194 0.44777 0.88175 0.0
C1881 C 0.08165 0.45365 0.89639 0.0
C1882 C 0.07991 0.47837 0.91563 0.0
C1883 C 0.04945 0.49796 0.91965 0.0
C1884 C 0.02101 0.49253 0.90424 0.0
C1885 C 0.02188 0.46773 0.88586 0.0
C1886 C 0.98883 0.4686 0.87074 0.0
C1887 C 0.99679 0.47739 0.84386 0.0
C1888 C 0.96885 0.434 0.87296 0.0
C1889 C 0.96947 0.49806 0.88324 0.0
C1890 C 0.98827 0.51149 0.90259 0.0
C1891 C 0.97578 0.53946 0.91644 0.0
C1892 C 0.94286 0.55351 0.91065 0.0
C1893 C 0.92293 0.53961 0.89115 0.0
C1894 C 0.93689 0.51187 0.87714 0.0
H1895 H 0.48654 0.09855 0.87049 0.0
H1896 H 0.57811 0.07971 0.91514 0.0
H1897 H 0.55504 0.02139 0.92607 0.0
H1898 H 0.42261 0.05091 0.90868 0.0
H1899 H 0.39987 0.03406 0.88237 0.0
H1900 H 0.42128 0.07581 0.88077 0.0
H1901 H 0.45697 0.05488 0.84319 0.0
H1902 H 0.43547 0.01332 0.84457 0.0
H1903 H 0.48247 0.01544 0.84541 0.0
H1904 H 0.524 0.9642 0.92974 0.0
H1905 H 0.49132 0.90988 0.92215 0.0
H1906 H 0.42101 0.96565 0.87384 0.0
C1907 C 0.50131 0.08242 0.88303 0.0
C1908 C 0.5338 0.09363 0.89233 0.0
C1909 C 0.55307 0.07149 0.90798 0.0
C1910 C 0.54001 0.03858 0.91443 0.0
C1911 C 0.50777 0.02833 0.90497 0.0
C1912 C 0.48882 0.04951 0.88944 0.0
C1913 C 0.45684 0.03103 0.87963 0.0
C1914 C 0.42316 0.04903 0.88839 0.0
C1915 C 0.45804 0.02851 0.85155 0.0
C1916 C 0.46128 0.99568 0.89147 0.0
C1917 C 0.49036 0.99493 0.90647 0.0
C1918 C 0.50105 0.96456 0.91821 0.0
C1919 C 0.48238 0.93385 0.91374 0.0
C1920 C 0.45371 0.93362 0.89737 0.0
C1921 C 0.44237 0.96521 0.8868 0.0
H1922 H 0.08407 0.53538 0.61163 0.0
H1923 H 0.06527 0.60829 0.6708 0.0
H1924 H 0.00653 0.58249 0.67716 0.0
H1925 H 0.99659 0.53713 0.58726 0.0
H1926 H 0.99714 0.49159 0.57907 0.0
H1927 H 0.03725 0.51596 0.57964 0.0
H1928 H 0.0636 0.47067 0.60961 0.0
H1929 H 0.02331 0.44651 0.60948 0.0
H1930 H 0.04145 0.46159 0.63798 0.0
H1931 H 0.95127 0.54682 0.67794 0.0
H1932 H 0.89983 0.51016 0.6695 0.0
H1933 H 0.95427 0.46221 0.60848 0.0
C1934 C 0.06745 0.54597 0.62586 0.0
C1935 C 0.07899 0.57361 0.64088 0.0
C1936 C 0.05663 0.58718 0.65912 0.0
C1937 C 0.0235 0.57249 0.66296 0.0
C1938 C 0.01328 0.54455 0.64822 0.0
C1939 C 0.03437 0.53186 0.62976 0.0
C1940 C 0.01686 0.50254 0.61587 0.0
C1941 C 0.01164 0.51241 0.58886 0.0
C1942 C 0.03755 0.46831 0.6184 0.0
C1943 C 0.98243 0.50066 0.62936 0.0
C1944 C 0.98111 0.52478 0.64817 0.0
C1945 C 0.95192 0.52808 0.66314 0.0
C1946 C 0.92285 0.50714 0.65818 0.0
C1947 C 0.92291 0.48356 0.63817 0.0
C1948 C 0.95352 0.47969 0.62403 0.0
H1949 H 0.56305 0.95843 0.61888 0.0
H1950 H 0.49602 0.90814 0.67215 0.0
H1951 H 0.45999 0.9613 0.67494 0.0
H1952 H 0.55972 0.04534 0.64679 0.0
H1953 H 0.55931 0.06765 0.61781 0.0
H1954 H 0.58058 0.0259 0.62054 0.0
H1955 H 0.54249 1.00211 0.58515 0.0
H1956 H 0.52076 0.04365 0.58257 0.0
H1957 H 0.49558 0.0046 0.58744 0.0
H1958 H 0.42974 0.0188 0.67106 0.0
H1959 H 0.41085 0.07946 0.6638 0.0
H1960 H 0.49648 0.09289 0.61259 0.0
C1961 C 0.54113 0.95893 0.63139 0.0
C1962 C 0.53218 0.9291 0.64518 0.0
C1963 C 0.50312 0.9306 0.66123 0.0
C1964 C 0.48245 0.96065 0.66294 0.0
C1965 C 0.49119 0.98921 0.64857 0.0
C1966 C 0.52005 0.98889 0.63333 0.0
C1967 C 0.52343 0.02332 0.6199 0.0
C1968 C 0.5578 0.04163 0.62667 0.0
C1969 C 0.52037 0.01809 0.59212 0.0
C1970 C 0.49203 0.04284 0.63001 0.0
C1971 C 0.4737 0.0226 0.6464 0.0
C1972 C 0.4439 0.03498 0.65826 0.0
C1973 C 0.43311 0.0694 0.65381 0.0
C1974 C 0.45211 0.09112 0.63765 0.0
C1975 C 0.48153 0.07717 0.62524 0.0
loop_
_geom_bond_atom_site_label_1
_geom_bond_atom_site_label_2
_geom_bond_distance
_geom_bond_site_symmetry_2
_ccdc_geom_bond_type
O0 Tb1 2.292 . S
O0 C3 1.255 . S
Tb1 O0 2.292 . S
Tb1 O17 2.326 . S
Tb1 O19 2.500 . S
Tb1 O20 2.473 . S
Tb1 O23 2.324 . S
Eu2 O6 2.292 . S
Eu2 C7 2.852 . S
Eu2 O18 2.324 . S
Eu2 O22 2.326 . S
Eu2 O24 2.500 . S
Eu2 O25 2.473 . S
C3 O0 1.255 . S
C3 O4 1.247 . S
O4 C3 1.247 . S
C5 O17 1.242 . S
C5 O18 1.258 . S
O6 Eu2 2.292 . S
O6 C8 1.255 . S
C7 Eu2 2.852 . S
C7 C11 1.503 . S
C7 O24 1.273 . S
C7 O25 1.257 . S
C8 O6 1.255 . S
C8 O9 1.247 . S
O9 C8 1.247 . S
C10 O22 1.242 . S
C10 O23 1.258 . S
C11 C7 1.503 . S
C11 C12 1.379 . S
C11 C16 1.392 . S
C12 C11 1.379 . S
C12 C13 1.404 . S
C12 H26 0.929 . S
C13 C12 1.404 . S
C13 C14 1.389 . S
C14 C13 1.389 . S
C14 C15 1.399 . S
C14 H27 0.931 . S
C15 C14 1.399 . S
C15 C16 1.390 . S
C16 C11 1.392 . S
C16 C15 1.390 . S
C16 H28 0.929 . S
O17 Tb1 2.326 . S
O17 C5 1.242 . S
O18 Eu2 2.324 . S
O18 C5 1.258 . S
O19 Tb1 2.500 . S
O19 C21 1.273 . S
O20 Tb1 2.473 . S
O20 C21 1.257 . S
C21 O19 1.273 . S
C21 O20 1.257 . S
O22 Eu2 2.326 . S
O22 C10 1.242 . S
O23 Tb1 2.324 . S
O23 C10 1.258 . S
O24 Eu2 2.500 . S
O24 C7 1.273 . S
O25 Eu2 2.473 . S
O25 C7 1.257 . S
H26 C12 0.929 . S
H27 C14 0.931 . S
H28 C16 0.929 . S
O29 Tb30 2.292 . S
O29 C32 1.255 . S
Tb30 O29 2.292 . S
Tb30 O46 2.326 . S
Tb30 O48 2.500 . S
Tb30 O49 2.473 . S
Tb30 O52 2.324 . S
Eu31 O35 2.292 . S
Eu31 C36 2.852 . S
Eu31 O47 2.324 . S
Eu31 O51 2.326 . S
Eu31 O53 2.500 . S
Eu31 O54 2.473 . S
C32 O29 1.255 . S
C32 O33 1.247 . S
O33 C32 1.247 . S
C34 O46 1.242 . S
C34 O47 1.258 . S
O35 Eu31 2.292 . S
O35 C37 1.255 . S
C36 Eu31 2.852 . S
C36 C40 1.503 . S
C36 O53 1.273 . S
C36 O54 1.257 . S
C37 O35 1.255 . S
C37 O38 1.247 . S
O38 C37 1.247 . S
C39 O51 1.242 . S
C39 O52 1.258 . S
C40 C36 1.503 . S
C40 C41 1.379 . S
C40 C45 1.392 . S
C41 C40 1.379 . S
C41 C42 1.404 . S
C41 H55 0.929 . S
C42 C41 1.404 . S
C42 C43 1.389 . S
C43 C42 1.389 . S
C43 C44 1.399 . S
C43 H56 0.931 . S
C44 C43 1.399 . S
C44 C45 1.390 . S
C45 C40 1.392 . S
C45 C44 1.390 . S
C45 H57 0.929 . S
O46 Tb30 2.326 . S
O46 C34 1.242 . S
O47 Eu31 2.324 . S
O47 C34 1.258 . S
O48 Tb30 2.500 . S
O48 C50 1.273 . S
O49 Tb30 2.473 . S
O49 C50 1.257 . S
C50 O48 1.273 . S
C50 O49 1.257 . S
O51 Eu31 2.326 . S
O51 C39 1.242 . S
O52 Tb30 2.324 . S
O52 C39 1.258 . S
O53 Eu31 2.500 . S
O53 C36 1.273 . S
O54 Eu31 2.473 . S
O54 C36 1.257 . S
H55 C41 0.929 . S
H56 C43 0.931 . S
H57 C45 0.929 . S
O58 Tb59 2.292 . S
O58 C61 1.255 . S
Tb59 O58 2.292 . S
Tb59 O75 2.326 . S
Tb59 O77 2.500 . S
Tb59 O78 2.473 . S
Tb59 O81 2.324 . S
Eu60 O64 2.292 . S
Eu60 C65 2.852 . S
Eu60 O76 2.324 . S
Eu60 O80 2.326 . S
Eu60 O82 2.500 . S
Eu60 O83 2.473 . S
C61 O58 1.255 . S
C61 O62 1.247 . S
O62 C61 1.247 . S
C63 O75 1.242 . S
C63 O76 1.258 . S
O64 Eu60 2.292 . S
O64 C66 1.255 . S
C65 Eu60 2.852 . S
C65 C69 1.503 . S
C65 O82 1.273 . S
C65 O83 1.257 . S
C66 O64 1.255 . S
C66 O67 1.247 . S
O67 C66 1.247 . S
C68 O80 1.242 . S
C68 O81 1.258 . S
C69 C65 1.503 . S
C69 C70 1.379 . S
C69 C74 1.392 . S
C70 C69 1.379 . S
C70 C71 1.404 . S
C70 H84 0.929 . S
C71 C70 1.404 . S
C71 C72 1.389 . S
C72 C71 1.389 . S
C72 C73 1.399 . S
C72 H85 0.931 . S
C73 C72 1.399 . S
C73 C74 1.390 . S
C74 C69 1.392 . S
C74 C73 1.390 . S
C74 H86 0.929 . S
O75 Tb59 2.326 . S
O75 C63 1.242 . S
O76 Eu60 2.324 . S
O76 C63 1.258 . S
O77 Tb59 2.500 . S
O77 C79 1.273 . S
O78 Tb59 2.473 . S
O78 C79 1.257 . S
C79 O77 1.273 . S
C79 O78 1.257 . S
O80 Eu60 2.326 . S
O80 C68 1.242 . S
O81 Tb59 2.324 . S
O81 C68 1.258 . S
O82 Eu60 2.500 . S
O82 C65 1.273 . S
O83 Eu60 2.473 . S
O83 C65 1.257 . S
H84 C70 0.929 . S
H85 C72 0.931 . S
H86 C74 0.929 . S
O87 Tb88 2.292 . S
O87 C90 1.255 . S
Tb88 O87 2.292 . S
Tb88 O104 2.326 . S
Tb88 O106 2.500 . S
Tb88 O107 2.473 . S
Tb88 O110 2.324 . S
Eu89 O93 2.292 . S
Eu89 C94 2.852 . S
Eu89 O105 2.324 . S
Eu89 O109 2.326 . S
Eu89 O111 2.500 . S
Eu89 O112 2.473 . S
C90 O87 1.255 . S
C90 O91 1.247 . S
O91 C90 1.247 . S
C92 O104 1.242 . S
C92 O105 1.258 . S
O93 Eu89 2.292 . S
O93 C95 1.255 . S
C94 Eu89 2.852 . S
C94 C98 1.503 . S
C94 O111 1.273 . S
C94 O112 1.257 . S
C95 O93 1.255 . S
C95 O96 1.247 . S
O96 C95 1.247 . S
C97 O109 1.242 . S
C97 O110 1.258 . S
C98 C94 1.503 . S
C98 C99 1.379 . S
C98 C103 1.392 . S
C99 C98 1.379 . S
C99 C100 1.404 . S
C99 H113 0.929 . S
C100 C99 1.404 . S
C100 C101 1.389 . S
C101 C100 1.389 . S
C101 C102 1.399 . S
C101 H114 0.931 . S
C102 C101 1.399 . S
C102 C103 1.390 . S
C103 C98 1.392 . S
C103 C102 1.390 . S
C103 H115 0.929 . S
O104 Tb88 2.326 . S
O104 C92 1.242 . S
O105 Eu89 2.324 . S
O105 C92 1.258 . S
O106 Tb88 2.500 . S
O106 C108 1.273 . S
O107 Tb88 2.473 . S
O107 C108 1.257 . S
C108 O106 1.273 . S
C108 O107 1.257 . S
O109 Eu89 2.326 . S
O109 C97 1.242 . S
O110 Tb88 2.324 . S
O110 C97 1.258 . S
O111 Eu89 2.500 . S
O111 C94 1.273 . S
O112 Eu89 2.473 . S
O112 C94 1.257 . S
H113 C99 0.929 . S
H114 C101 0.931 . S
H115 C103 0.929 . S
O116 Tb117 2.292 . S
O116 C119 1.255 . S
Tb117 O116 2.292 . S
Tb117 O133 2.326 . S
Tb117 O135 2.500 . S
Tb117 O136 2.473 . S
Tb117 O139 2.324 . S
Eu118 O122 2.292 . S
Eu118 C123 2.852 . S
Eu118 O134 2.324 . S
Eu118 O138 2.326 . S
Eu118 O140 2.500 . S
Eu118 O141 2.473 . S
C119 O116 1.255 . S
C119 O120 1.247 . S
O120 C119 1.247 . S
C121 O133 1.242 . S
C121 O134 1.258 . S
O122 Eu118 2.292 . S
O122 C124 1.255 . S
C123 Eu118 2.852 . S
C123 C127 1.503 . S
C123 O140 1.273 . S
C123 O141 1.257 . S
C124 O122 1.255 . S
C124 O125 1.247 . S
O125 C124 1.247 . S
C126 O138 1.242 . S
C126 O139 1.258 . S
C127 C123 1.503 . S
C127 C128 1.379 . S
C127 C132 1.392 . S
C128 C127 1.379 . S
C128 C129 1.404 . S
C128 H142 0.929 . S
C129 C128 1.404 . S
C129 C130 1.389 . S
C130 C129 1.389 . S
C130 C131 1.399 . S
C130 H143 0.931 . S
C131 C130 1.399 . S
C131 C132 1.390 . S
C132 C127 1.392 . S
C132 C131 1.390 . S
C132 H144 0.929 . S
O133 Tb117 2.326 . S
O133 C121 1.242 . S
O134 Eu118 2.324 . S
O134 C121 1.258 . S
O135 Tb117 2.500 . S
O135 C137 1.273 . S
O136 Tb117 2.473 . S
O136 C137 1.257 . S
C137 O135 1.273 . S
C137 O136 1.257 . S
O138 Eu118 2.326 . S
O138 C126 1.242 . S
O139 Tb117 2.324 . S
O139 C126 1.258 . S
O140 Eu118 2.500 . S
O140 C123 1.273 . S
O141 Eu118 2.473 . S
O141 C123 1.257 . S
H142 C128 0.929 . S
H143 C130 0.931 . S
H144 C132 0.929 . S
O145 Tb146 2.292 . S
O145 C148 1.255 . S
Tb146 O145 2.292 . S
Tb146 O162 2.326 . S
Tb146 O164 2.500 . S
Tb146 O165 2.473 . S
Tb146 O168 2.324 . S
Eu147 O151 2.292 . S
Eu147 C152 2.852 . S
Eu147 O163 2.324 . S
Eu147 O167 2.326 . S
Eu147 O169 2.500 . S
Eu147 O170 2.473 . S
C148 O145 1.255 . S
C148 O149 1.247 . S
O149 C148 1.247 . S
C150 O162 1.242 . S
C150 O163 1.258 . S
O151 Eu147 2.292 . S
O151 C153 1.255 . S
C152 Eu147 2.852 . S
C152 C156 1.503 . S
C152 O169 1.273 . S
C152 O170 1.257 . S
C153 O151 1.255 . S
C153 O154 1.247 . S
O154 C153 1.247 . S
C155 O167 1.242 . S
C155 O168 1.258 . S
C156 C152 1.503 . S
C156 C157 1.379 . S
C156 C161 1.392 . S
C157 C156 1.379 . S
C157 C158 1.404 . S
C157 H171 0.929 . S
C158 C157 1.404 . S
C158 C159 1.389 . S
C159 C158 1.389 . S
C159 C160 1.399 . S
C159 H172 0.931 . S
C160 C159 1.399 . S
C160 C161 1.390 . S
C161 C156 1.392 . S
C161 C160 1.390 . S
C161 H173 0.929 . S
O162 Tb146 2.326 . S
O162 C150 1.242 . S
O163 Eu147 2.324 . S
O163 C150 1.258 . S
O164 Tb146 2.500 . S
O164 C166 1.273 . S
O165 Tb146 2.473 . S
O165 C166 1.257 . S
C166 O164 1.273 . S
C166 O165 1.257 . S
O167 Eu147 2.326 . S
O167 C155 1.242 . S
O168 Tb146 2.324 . S
O168 C155 1.258 . S
O169 Eu147 2.500 . S
O169 C152 1.273 . S
O170 Eu147 2.473 . S
O170 C152 1.257 . S
H171 C157 0.929 . S
H172 C159 0.931 . S
H173 C161 0.929 . S
O174 Tb175 2.292 . S
O174 C177 1.255 . S
Tb175 O174 2.292 . S
Tb175 O191 2.326 . S
Tb175 O193 2.500 . S
Tb175 O194 2.473 . S
Tb175 O197 2.324 . S
Eu176 O180 2.292 . S
Eu176 C181 2.852 . S
Eu176 O192 2.324 . S
Eu176 O196 2.326 . S
Eu176 O198 2.500 . S
Eu176 O199 2.473 . S
C177 O174 1.255 . S
C177 O178 1.247 . S
O178 C177 1.247 . S
C179 O191 1.242 . S
C179 O192 1.258 . S
O180 Eu176 2.292 . S
O180 C182 1.255 . S
C181 Eu176 2.852 . S
C181 C185 1.503 . S
C181 O198 1.273 . S
C181 O199 1.257 . S
C182 O180 1.255 . S
C182 O183 1.247 . S
O183 C182 1.247 . S
C184 O196 1.242 . S
C184 O197 1.258 . S
C185 C181 1.503 . S
C185 C186 1.379 . S
C185 C190 1.392 . S
C186 C185 1.379 . S
C186 C187 1.404 . S
C186 H200 0.929 . S
C187 C186 1.404 . S
C187 C188 1.389 . S
C188 C187 1.389 . S
C188 C189 1.399 . S
C188 H201 0.931 . S
C189 C188 1.399 . S
C189 C190 1.390 . S
C190 C185 1.392 . S
C190 C189 1.390 . S
C190 H202 0.929 . S
O191 Tb175 2.326 . S
O191 C179 1.242 . S
O192 Eu176 2.324 . S
O192 C179 1.258 . S
O193 Tb175 2.500 . S
O193 C195 1.273 . S
O194 Tb175 2.473 . S
O194 C195 1.257 . S
C195 O193 1.273 . S
C195 O194 1.257 . S
O196 Eu176 2.326 . S
O196 C184 1.242 . S
O197 Tb175 2.324 . S
O197 C184 1.258 . S
O198 Eu176 2.500 . S
O198 C181 1.273 . S
O199 Eu176 2.473 . S
O199 C181 1.257 . S
H200 C186 0.929 . S
H201 C188 0.931 . S
H202 C190 0.929 . S
O203 Tb204 2.292 . S
O203 C206 1.255 . S
Tb204 O203 2.292 . S
Tb204 O220 2.326 . S
Tb204 O222 2.500 . S
Tb204 O223 2.473 . S
Tb204 O226 2.324 . S
Eu205 O209 2.292 . S
Eu205 C210 2.852 . S
Eu205 O221 2.324 . S
Eu205 O225 2.326 . S
Eu205 O227 2.500 . S
Eu205 O228 2.473 . S
C206 O203 1.255 . S
C206 O207 1.247 . S
O207 C206 1.247 . S
C208 O220 1.242 . S
C208 O221 1.258 . S
O209 Eu205 2.292 . S
O209 C211 1.255 . S
C210 Eu205 2.852 . S
C210 C214 1.503 . S
C210 O227 1.273 . S
C210 O228 1.257 . S
C211 O209 1.255 . S
C211 O212 1.247 . S
O212 C211 1.247 . S
C213 O225 1.242 . S
C213 O226 1.258 . S
C214 C210 1.503 . S
C214 C215 1.379 . S
C214 C219 1.392 . S
C215 C214 1.379 . S
C215 C216 1.404 . S
C215 H229 0.929 . S
C216 C215 1.404 . S
C216 C217 1.389 . S
C217 C216 1.389 . S
C217 C218 1.399 . S
C217 H230 0.931 . S
C218 C217 1.399 . S
C218 C219 1.390 . S
C219 C214 1.392 . S
C219 C218 1.390 . S
C219 H231 0.929 . S
O220 Tb204 2.326 . S
O220 C208 1.242 . S
O221 Eu205 2.324 . S
O221 C208 1.258 . S
O222 Tb204 2.500 . S
O222 C224 1.273 . S
O223 Tb204 2.473 . S
O223 C224 1.257 . S
C224 O222 1.273 . S
C224 O223 1.257 . S
O225 Eu205 2.326 . S
O225 C213 1.242 . S
O226 Tb204 2.324 . S
O226 C213 1.258 . S
O227 Eu205 2.500 . S
O227 C210 1.273 . S
O228 Eu205 2.473 . S
O228 C210 1.257 . S
H229 C215 0.929 . S
H230 C217 0.931 . S
H231 C219 0.929 . S
O232 Tb233 2.292 . S
O232 C235 1.255 . S
Tb233 O232 2.292 . S
Tb233 O249 2.326 . S
Tb233 O251 2.500 . S
Tb233 O252 2.473 . S
Tb233 O255 2.324 . S
Eu234 O238 2.292 . S
Eu234 C239 2.852 . S
Eu234 O250 2.324 . S
Eu234 O254 2.326 . S
Eu234 O256 2.500 . S
Eu234 O257 2.473 . S
C235 O232 1.255 . S
C235 O236 1.247 . S
O236 C235 1.247 . S
C237 O249 1.242 . S
C237 O250 1.258 . S
O238 Eu234 2.292 . S
O238 C240 1.255 . S
C239 Eu234 2.852 . S
C239 C243 1.503 . S
C239 O256 1.273 . S
C239 O257 1.257 . S
C240 O238 1.255 . S
C240 O241 1.247 . S
O241 C240 1.247 . S
C242 O254 1.242 . S
C242 O255 1.258 . S
C243 C239 1.503 . S
C243 C244 1.379 . S
C243 C248 1.392 . S
C244 C243 1.379 . S
C244 C245 1.404 . S
C244 H258 0.929 . S
C245 C244 1.404 . S
C245 C246 1.389 . S
C246 C245 1.389 . S
C246 C247 1.399 . S
C246 H259 0.931 . S
C247 C246 1.399 . S
C247 C248 1.390 . S
C248 C243 1.392 . S
C248 C247 1.390 . S
C248 H260 0.929 . S
O249 Tb233 2.326 . S
O249 C237 1.242 . S
O250 Eu234 2.324 . S
O250 C237 1.258 . S
O251 Tb233 2.500 . S
O251 C253 1.273 . S
O252 Tb233 2.473 . S
O252 C253 1.257 . S
C253 O251 1.273 . S
C253 O252 1.257 . S
O254 Eu234 2.326 . S
O254 C242 1.242 . S
O255 Tb233 2.324 . S
O255 C242 1.258 . S
O256 Eu234 2.500 . S
O256 C239 1.273 . S
O257 Eu234 2.473 . S
O257 C239 1.257 . S
H258 C244 0.929 . S
H259 C246 0.931 . S
H260 C248 0.929 . S
O261 Tb262 2.292 . S
O261 C264 1.255 . S
Tb262 O261 2.292 . S
Tb262 O278 2.326 . S
Tb262 O280 2.500 . S
Tb262 O281 2.473 . S
Tb262 O284 2.324 . S
Eu263 O267 2.292 . S
Eu263 C268 2.852 . S
Eu263 O279 2.324 . S
Eu263 O283 2.326 . S
Eu263 O285 2.500 . S
Eu263 O286 2.473 . S
C264 O261 1.255 . S
C264 O265 1.247 . S
O265 C264 1.247 . S
C266 O278 1.242 . S
C266 O279 1.258 . S
O267 Eu263 2.292 . S
O267 C269 1.255 . S
C268 Eu263 2.852 . S
C268 C272 1.503 . S
C268 O285 1.273 . S
C268 O286 1.257 . S
C269 O267 1.255 . S
C269 O270 1.247 . S
O270 C269 1.247 . S
C271 O283 1.242 . S
C271 O284 1.258 . S
C272 C268 1.503 . S
C272 C273 1.379 . S
C272 C277 1.392 . S
C273 C272 1.379 . S
C273 C274 1.404 . S
C273 H287 0.929 . S
C274 C273 1.404 . S
C274 C275 1.389 . S
C275 C274 1.389 . S
C275 C276 1.399 . S
C275 H288 0.931 . S
C276 C275 1.399 . S
C276 C277 1.390 . S
C277 C272 1.392 . S
C277 C276 1.390 . S
C277 H289 0.929 . S
O278 Tb262 2.326 . S
O278 C266 1.242 . S
O279 Eu263 2.324 . S
O279 C266 1.258 . S
O280 Tb262 2.500 . S
O280 C282 1.273 . S
O281 Tb262 2.473 . S
O281 C282 1.257 . S
C282 O280 1.273 . S
C282 O281 1.257 . S
O283 Eu263 2.326 . S
O283 C271 1.242 . S
O284 Tb262 2.324 . S
O284 C271 1.258 . S
O285 Eu263 2.500 . S
O285 C268 1.273 . S
O286 Eu263 2.473 . S
O286 C268 1.257 . S
H287 C273 0.929 . S
H288 C275 0.931 . S
H289 C277 0.929 . S
O290 Tb291 2.292 . S
O290 C293 1.255 . S
Tb291 O290 2.292 . S
Tb291 O307 2.326 . S
Tb291 O309 2.500 . S
Tb291 O310 2.473 . S
Tb291 O313 2.324 . S
Eu292 O296 2.292 . S
Eu292 C297 2.852 . S
Eu292 O308 2.324 . S
Eu292 O312 2.326 . S
Eu292 O314 2.500 . S
Eu292 O315 2.473 . S
C293 O290 1.255 . S
C293 O294 1.247 . S
O294 C293 1.247 . S
C295 O307 1.242 . S
C295 O308 1.258 . S
O296 Eu292 2.292 . S
O296 C298 1.255 . S
C297 Eu292 2.852 . S
C297 C301 1.503 . S
C297 O314 1.273 . S
C297 O315 1.257 . S
C298 O296 1.255 . S
C298 O299 1.247 . S
O299 C298 1.247 . S
C300 O312 1.242 . S
C300 O313 1.258 . S
C301 C297 1.503 . S
C301 C302 1.379 . S
C301 C306 1.392 . S
C302 C301 1.379 . S
C302 C303 1.404 . S
C302 H316 0.929 . S
C303 C302 1.404 . S
C303 C304 1.389 . S
C304 C303 1.389 . S
C304 C305 1.399 . S
C304 H317 0.931 . S
C305 C304 1.399 . S
C305 C306 1.390 . S
C306 C301 1.392 . S
C306 C305 1.390 . S
C306 H318 0.929 . S
O307 Tb291 2.326 . S
O307 C295 1.242 . S
O308 Eu292 2.324 . S
O308 C295 1.258 . S
O309 Tb291 2.500 . S
O309 C311 1.273 . S
O310 Tb291 2.473 . S
O310 C311 1.257 . S
C311 O309 1.273 . S
C311 O310 1.257 . S
O312 Eu292 2.326 . S
O312 C300 1.242 . S
O313 Tb291 2.324 . S
O313 C300 1.258 . S
O314 Eu292 2.500 . S
O314 C297 1.273 . S
O315 Eu292 2.473 . S
O315 C297 1.257 . S
H316 C302 0.929 . S
H317 C304 0.931 . S
H318 C306 0.929 . S
O319 Tb320 2.292 . S
O319 C322 1.255 . S
Tb320 O319 2.292 . S
Tb320 O336 2.326 . S
Tb320 O338 2.500 . S
Tb320 O339 2.473 . S
Tb320 O342 2.324 . S
Eu321 O325 2.292 . S
Eu321 C326 2.852 . S
Eu321 O337 2.324 . S
Eu321 O341 2.326 . S
Eu321 O343 2.500 . S
Eu321 O344 2.473 . S
C322 O319 1.255 . S
C322 O323 1.247 . S
O323 C322 1.247 . S
C324 O336 1.242 . S
C324 O337 1.258 . S
O325 Eu321 2.292 . S
O325 C327 1.255 . S
C326 Eu321 2.852 . S
C326 C330 1.503 . S
C326 O343 1.273 . S
C326 O344 1.257 . S
C327 O325 1.255 . S
C327 O328 1.247 . S
O328 C327 1.247 . S
C329 O341 1.242 . S
C329 O342 1.258 . S
C330 C326 1.503 . S
C330 C331 1.379 . S
C330 C335 1.392 . S
C331 C330 1.379 . S
C331 C332 1.404 . S
C331 H345 0.929 . S
C332 C331 1.404 . S
C332 C333 1.389 . S
C333 C332 1.389 . S
C333 C334 1.399 . S
C333 H346 0.931 . S
C334 C333 1.399 . S
C334 C335 1.390 . S
C335 C330 1.392 . S
C335 C334 1.390 . S
C335 H347 0.929 . S
O336 Tb320 2.326 . S
O336 C324 1.242 . S
O337 Eu321 2.324 . S
O337 C324 1.258 . S
O338 Tb320 2.500 . S
O338 C340 1.273 . S
O339 Tb320 2.473 . S
O339 C340 1.257 . S
C340 O338 1.273 . S
C340 O339 1.257 . S
O341 Eu321 2.326 . S
O341 C329 1.242 . S
O342 Tb320 2.324 . S
O342 C329 1.258 . S
O343 Eu321 2.500 . S
O343 C326 1.273 . S
O344 Eu321 2.473 . S
O344 C326 1.257 . S
H345 C331 0.929 . S
H346 C333 0.931 . S
H347 C335 0.929 . S
O348 Tb349 2.292 . S
O348 C351 1.255 . S
Tb349 O348 2.292 . S
Tb349 O365 2.326 . S
Tb349 O367 2.500 . S
Tb349 O368 2.473 . S
Tb349 O371 2.324 . S
Eu350 O354 2.292 . S
Eu350 C355 2.852 . S
Eu350 O366 2.324 . S
Eu350 O370 2.326 . S
Eu350 O372 2.500 . S
Eu350 O373 2.473 . S
C351 O348 1.255 . S
C351 O352 1.247 . S
O352 C351 1.247 . S
C353 O365 1.242 . S
C353 O366 1.258 . S
O354 Eu350 2.292 . S
O354 C356 1.255 . S
C355 Eu350 2.852 . S
C355 C359 1.503 . S
C355 O372 1.273 . S
C355 O373 1.257 . S
C356 O354 1.255 . S
C356 O357 1.247 . S
O357 C356 1.247 . S
C358 O370 1.242 . S
C358 O371 1.258 . S
C359 C355 1.503 . S
C359 C360 1.379 . S
C359 C364 1.392 . S
C360 C359 1.379 . S
C360 C361 1.404 . S
C360 H374 0.929 . S
C361 C360 1.404 . S
C361 C362 1.389 . S
C362 C361 1.389 . S
C362 C363 1.399 . S
C362 H375 0.931 . S
C363 C362 1.399 . S
C363 C364 1.390 . S
C364 C359 1.392 . S
C364 C363 1.390 . S
C364 H376 0.929 . S
O365 Tb349 2.326 . S
O365 C353 1.242 . S
O366 Eu350 2.324 . S
O366 C353 1.258 . S
O367 Tb349 2.500 . S
O367 C369 1.273 . S
O368 Tb349 2.473 . S
O368 C369 1.257 . S
C369 O367 1.273 . S
C369 O368 1.257 . S
O370 Eu350 2.326 . S
O370 C358 1.242 . S
O371 Tb349 2.324 . S
O371 C358 1.258 . S
O372 Eu350 2.500 . S
O372 C355 1.273 . S
O373 Eu350 2.473 . S
O373 C355 1.257 . S
H374 C360 0.929 . S
H375 C362 0.931 . S
H376 C364 0.929 . S
O377 Tb378 2.292 . S
O377 C380 1.255 . S
Tb378 O377 2.292 . S
Tb378 O394 2.326 . S
Tb378 O396 2.500 . S
Tb378 O397 2.473 . S
Tb378 O400 2.324 . S
Eu379 O383 2.292 . S
Eu379 C384 2.852 . S
Eu379 O395 2.324 . S
Eu379 O399 2.326 . S
Eu379 O401 2.500 . S
Eu379 O402 2.473 . S
C380 O377 1.255 . S
C380 O381 1.247 . S
O381 C380 1.247 . S
C382 O394 1.242 . S
C382 O395 1.258 . S
O383 Eu379 2.292 . S
O383 C385 1.255 . S
C384 Eu379 2.852 . S
C384 C388 1.503 . S
C384 O401 1.273 . S
C384 O402 1.257 . S
C385 O383 1.255 . S
C385 O386 1.247 . S
O386 C385 1.247 . S
C387 O399 1.242 . S
C387 O400 1.258 . S
C388 C384 1.503 . S
C388 C389 1.379 . S
C388 C393 1.392 . S
C389 C388 1.379 . S
C389 C390 1.404 . S
C389 H403 0.929 . S
C390 C389 1.404 . S
C390 C391 1.389 . S
C391 C390 1.389 . S
C391 C392 1.399 . S
C391 H404 0.931 . S
C392 C391 1.399 . S
C392 C393 1.390 . S
C393 C388 1.392 . S
C393 C392 1.390 . S
C393 H405 0.929 . S
O394 Tb378 2.326 . S
O394 C382 1.242 . S
O395 Eu379 2.324 . S
O395 C382 1.258 . S
O396 Tb378 2.500 . S
O396 C398 1.273 . S
O397 Tb378 2.473 . S
O397 C398 1.257 . S
C398 O396 1.273 . S
C398 O397 1.257 . S
O399 Eu379 2.326 . S
O399 C387 1.242 . S
O400 Tb378 2.324 . S
O400 C387 1.258 . S
O401 Eu379 2.500 . S
O401 C384 1.273 . S
O402 Eu379 2.473 . S
O402 C384 1.257 . S
H403 C389 0.929 . S
H404 C391 0.931 . S
H405 C393 0.929 . S
O406 Tb407 2.292 . S
O406 C409 1.255 . S
Tb407 O406 2.292 . S
Tb407 O423 2.326 . S
Tb407 O425 2.500 . S
Tb407 O426 2.473 . S
Tb407 O429 2.324 . S
Eu408 O412 2.292 . S
Eu408 C413 2.852 . S
Eu408 O424 2.324 . S
Eu408 O428 2.326 . S
Eu408 O430 2.500 . S
Eu408 O431 2.473 . S
C409 O406 1.255 . S
C409 O410 1.247 . S
O410 C409 1.247 . S
C411 O423 1.242 . S
C411 O424 1.258 . S
O412 Eu408 2.292 . S
O412 C414 1.255 . S
C413 Eu408 2.852 . S
C413 C417 1.503 . S
C413 O430 1.273 . S
C413 O431 1.257 . S
C414 O412 1.255 . S
C414 O415 1.247 . S
O415 C414 1.247 . S
C416 O428 1.242 . S
C416 O429 1.258 . S
C417 C413 1.503 . S
C417 C418 1.379 . S
C417 C422 1.392 . S
C418 C417 1.379 . S
C418 C419 1.404 . S
C418 H432 0.929 . S
C419 C418 1.404 . S
C419 C420 1.389 . S
C420 C419 1.389 . S
C420 C421 1.399 . S
C420 H433 0.931 . S
C421 C420 1.399 . S
C421 C422 1.390 . S
C422 C417 1.392 . S
C422 C421 1.390 . S
C422 H434 0.929 . S
O423 Tb407 2.326 . S
O423 C411 1.242 . S
O424 Eu408 2.324 . S
O424 C411 1.258 . S
O425 Tb407 2.500 . S
O425 C427 1.273 . S
O426 Tb407 2.473 . S
O426 C427 1.257 . S
C427 O425 1.273 . S
C427 O426 1.257 . S
O428 Eu408 2.326 . S
O428 C416 1.242 . S
O429 Tb407 2.324 . S
O429 C416 1.258 . S
O430 Eu408 2.500 . S
O430 C413 1.273 . S
O431 Eu408 2.473 . S
O431 C413 1.257 . S
H432 C418 0.929 . S
H433 C420 0.931 . S
H434 C422 0.929 . S
O435 Tb436 2.292 . S
O435 C438 1.255 . S
Tb436 O435 2.292 . S
Tb436 O452 2.326 . S
Tb436 O454 2.500 . S
Tb436 O455 2.473 . S
Tb436 O458 2.324 . S
Eu437 O441 2.292 . S
Eu437 C442 2.852 . S
Eu437 O453 2.324 . S
Eu437 O457 2.326 . S
Eu437 O459 2.500 . S
Eu437 O460 2.473 . S
C438 O435 1.255 . S
C438 O439 1.247 . S
O439 C438 1.247 . S
C440 O452 1.242 . S
C440 O453 1.258 . S
O441 Eu437 2.292 . S
O441 C443 1.255 . S
C442 Eu437 2.852 . S
C442 C446 1.503 . S
C442 O459 1.273 . S
C442 O460 1.257 . S
C443 O441 1.255 . S
C443 O444 1.247 . S
O444 C443 1.247 . S
C445 O457 1.242 . S
C445 O458 1.258 . S
C446 C442 1.503 . S
C446 C447 1.379 . S
C446 C451 1.392 . S
C447 C446 1.379 . S
C447 C448 1.404 . S
C447 H461 0.929 . S
C448 C447 1.404 . S
C448 C449 1.389 . S
C449 C448 1.389 . S
C449 C450 1.399 . S
C449 H462 0.931 . S
C450 C449 1.399 . S
C450 C451 1.390 . S
C451 C446 1.392 . S
C451 C450 1.390 . S
C451 H463 0.929 . S
O452 Tb436 2.326 . S
O452 C440 1.242 . S
O453 Eu437 2.324 . S
O453 C440 1.258 . S
O454 Tb436 2.500 . S
O454 C456 1.273 . S
O455 Tb436 2.473 . S
O455 C456 1.257 . S
C456 O454 1.273 . S
C456 O455 1.257 . S
O457 Eu437 2.326 . S
O457 C445 1.242 . S
O458 Tb436 2.324 . S
O458 C445 1.258 . S
O459 Eu437 2.500 . S
O459 C442 1.273 . S
O460 Eu437 2.473 . S
O460 C442 1.257 . S
H461 C447 0.929 . S
H462 C449 0.931 . S
H463 C451 0.929 . S
H464 C476 0.930 . S
H465 C478 0.930 . S
H466 C479 0.930 . S
H467 C483 0.959 1_556 S
H468 C483 0.959 1_556 S
H469 C483 0.961 . S
H470 C484 0.960 . S
H471 C484 0.961 . S
H472 C484 0.959 . S
H473 C487 0.929 . S
H474 C488 0.931 . S
H475 C490 0.930 . S
C476 H464 0.930 . S
C476 C477 1.399 . S
C476 C481 1.399 . S
C477 C476 1.399 . S
C477 C478 1.376 . S
C478 H465 0.930 . S
C478 C477 1.376 . S
C478 C479 1.388 . S
C479 H466 0.930 . S
C479 C478 1.388 . S
C479 C480 1.390 . S
C480 C479 1.390 . S
C480 C481 1.394 . S
C480 C486 1.465 1_554 S
C481 C476 1.399 . S
C481 C480 1.394 . S
C481 C482 1.516 . S
C482 C481 1.516 . S
C482 C483 1.502 . S
C482 C484 1.561 . S
C482 C485 1.526 1_554 S
C483 H467 0.959 1_554 S
C483 H468 0.959 1_554 S
C483 H469 0.961 . S
C483 C482 1.502 . S
C484 H470 0.960 . S
C484 H471 0.961 . S
C484 H472 0.959 . S
C484 C482 1.561 . S
C485 C482 1.526 1_556 S
C485 C486 1.396 . S
C485 C490 1.390 . S
C486 C480 1.465 1_556 S
C486 C485 1.396 . S
C486 C487 1.399 . S
C487 H473 0.929 . S
C487 C486 1.399 . S
C487 C488 1.385 . S
C488 H474 0.931 . S
C488 C487 1.385 . S
C488 C489 1.389 . S
C489 C488 1.389 . S
C489 C490 1.387 . S
C490 H475 0.930 . S
C490 C485 1.390 . S
C490 C489 1.387 . S
H491 C503 0.930 . S
H492 C505 0.930 . S
H493 C506 0.930 . S
H494 C510 0.959 . S
H495 C510 0.959 . S
H496 C510 0.961 . S
H497 C511 0.960 . S
H498 C511 0.961 1_556 S
H499 C511 0.959 . S
H500 C514 0.929 . S
H501 C515 0.931 . S
H502 C517 0.930 . S
C503 H491 0.930 . S
C503 C504 1.399 . S
C503 C508 1.399 . S
C504 C503 1.399 . S
C504 C505 1.376 . S
C505 H492 0.930 . S
C505 C504 1.376 . S
C505 C506 1.388 . S
C506 H493 0.930 . S
C506 C505 1.388 . S
C506 C507 1.390 . S
C507 C506 1.390 . S
C507 C508 1.394 . S
C507 C513 1.465 1_554 S
C508 C503 1.399 . S
C508 C507 1.394 . S
C508 C509 1.516 . S
C509 C508 1.516 . S
C509 C510 1.502 . S
C509 C511 1.561 . S
C509 C512 1.526 1_554 S
C510 H494 0.959 . S
C510 H495 0.959 . S
C510 H496 0.961 . S
C510 C509 1.502 . S
C511 H497 0.960 . S
C511 H498 0.961 1_554 S
C511 H499 0.959 . S
C511 C509 1.561 . S
C512 C509 1.526 1_556 S
C512 C513 1.396 . S
C512 C517 1.390 . S
C513 C507 1.465 1_556 S
C513 C512 1.396 . S
C513 C514 1.399 . S
C514 H500 0.929 . S
C514 C513 1.399 . S
C514 C515 1.385 . S
C515 H501 0.931 . S
C515 C514 1.385 . S
C515 C516 1.389 . S
C516 C515 1.389 . S
C516 C517 1.387 . S
C517 H502 0.930 . S
C517 C512 1.390 . S
C517 C516 1.387 . S
H518 C530 0.930 . S
H519 C532 0.930 . S
H520 C533 0.930 . S
H521 C537 0.959 . S
H522 C537 0.959 . S
H523 C537 0.961 . S
H524 C538 0.960 . S
H525 C538 0.961 1_554 S
H526 C538 0.959 1_554 S
H527 C541 0.929 . S
H528 C542 0.931 . S
H529 C544 0.930 . S
C530 H518 0.930 . S
C530 C531 1.399 . S
C530 C535 1.399 . S
C531 C530 1.399 . S
C531 C532 1.376 . S
C532 H519 0.930 . S
C532 C531 1.376 . S
C532 C533 1.388 . S
C533 H520 0.930 . S
C533 C532 1.388 . S
C533 C534 1.390 . S
C534 C533 1.390 . S
C534 C535 1.394 . S
C534 C540 1.465 1_556 S
C535 C530 1.399 . S
C535 C534 1.394 . S
C535 C536 1.516 . S
C536 C535 1.516 . S
C536 C537 1.502 . S
C536 C538 1.561 . S
C536 C539 1.526 1_556 S
C537 H521 0.959 . S
C537 H522 0.959 . S
C537 H523 0.961 . S
C537 C536 1.502 . S
C538 H524 0.960 . S
C538 H525 0.961 1_556 S
C538 H526 0.959 1_556 S
C538 C536 1.561 . S
C539 C536 1.526 1_554 S
C539 C540 1.396 . S
C539 C544 1.390 . S
C540 C534 1.465 1_554 S
C540 C539 1.396 . S
C540 C541 1.399 . S
C541 H527 0.929 . S
C541 C540 1.399 . S
C541 C542 1.385 . S
C542 H528 0.931 . S
C542 C541 1.385 . S
C542 C543 1.389 . S
C543 C542 1.389 . S
C543 C544 1.387 . S
C544 H529 0.930 . S
C544 C539 1.390 . S
C544 C543 1.387 . S
H545 C557 0.930 . S
H546 C559 0.930 . S
H547 C560 0.930 . S
H548 C564 0.959 1_554 S
H549 C564 0.959 1_554 S
H550 C564 0.961 . S
H551 C565 0.960 . S
H552 C565 0.961 . S
H553 C565 0.959 . S
H554 C568 0.929 . S
H555 C569 0.931 . S
H556 C571 0.930 . S
C557 H545 0.930 . S
C557 C558 1.399 . S
C557 C562 1.399 . S
C558 C557 1.399 . S
C558 C559 1.376 . S
C559 H546 0.930 . S
C559 C558 1.376 . S
C559 C560 1.388 . S
C560 H547 0.930 . S
C560 C559 1.388 . S
C560 C561 1.390 . S
C561 C560 1.390 . S
C561 C562 1.394 . S
C561 C567 1.465 1_556 S
C562 C557 1.399 . S
C562 C561 1.394 . S
C562 C563 1.516 . S
C563 C562 1.516 . S
C563 C564 1.502 . S
C563 C565 1.561 . S
C563 C566 1.526 1_556 S
C564 H548 0.959 1_556 S
C564 H549 0.959 1_556 S
C564 H550 0.961 . S
C564 C563 1.502 . S
C565 H551 0.960 . S
C565 H552 0.961 . S
C565 H553 0.959 . S
C565 C563 1.561 . S
C566 C563 1.526 1_554 S
C566 C567 1.396 . S
C566 C571 1.390 . S
C567 C561 1.465 1_554 S
C567 C566 1.396 . S
C567 C568 1.399 . S
C568 H554 0.929 . S
C568 C567 1.399 . S
C568 C569 1.385 . S
C569 H555 0.931 . S
C569 C568 1.385 . S
C569 C570 1.389 . S
C570 C569 1.389 . S
C570 C571 1.387 . S
C571 H556 0.930 . S
C571 C566 1.390 . S
C571 C570 1.387 . S
H572 C584 0.930 . S
H573 C586 0.930 . S
H574 C587 0.930 . S
H575 C591 0.959 . S
H576 C591 0.959 . S
H577 C591 0.961 . S
H578 C592 0.960 . S
H579 C592 0.961 . S
H580 C592 0.959 . S
H581 C595 0.929 . S
H582 C596 0.931 . S
H583 C598 0.930 . S
C584 H572 0.930 . S
C584 C585 1.399 . S
C584 C589 1.399 . S
C585 C584 1.399 . S
C585 C586 1.376 . S
C586 H573 0.930 . S
C586 C585 1.376 . S
C586 C587 1.388 . S
C587 H574 0.930 . S
C587 C586 1.388 . S
C587 C588 1.390 . S
C588 C587 1.390 . S
C588 C589 1.394 . S
C588 C594 1.465 . S
C589 C584 1.399 . S
C589 C588 1.394 . S
C589 C590 1.516 . S
C590 C589 1.516 . S
C590 C591 1.502 . S
C590 C592 1.561 . S
C590 C593 1.526 . S
C591 H575 0.959 . S
C591 H576 0.959 . S
C591 H577 0.961 . S
C591 C590 1.502 . S
C592 H578 0.960 . S
C592 H579 0.961 . S
C592 H580 0.959 . S
C592 C590 1.561 . S
C593 C590 1.526 . S
C593 C594 1.396 . S
C593 C598 1.390 . S
C594 C588 1.465 . S
C594 C593 1.396 . S
C594 C595 1.399 . S
C595 H581 0.929 . S
C595 C594 1.399 . S
C595 C596 1.385 . S
C596 H582 0.931 . S
C596 C595 1.385 . S
C596 C597 1.389 . S
C597 C596 1.389 . S
C597 C598 1.387 . S
C598 H583 0.930 . S
C598 C593 1.390 . S
C598 C597 1.387 . S
H599 C611 0.930 . S
H600 C613 0.930 . S
H601 C614 0.930 . S
H602 C618 0.959 . S
H603 C618 0.959 . S
H604 C618 0.961 . S
H605 C619 0.960 . S
H606 C619 0.961 . S
H607 C619 0.959 . S
H608 C622 0.929 . S
H609 C623 0.931 . S
H610 C625 0.930 . S
C611 H599 0.930 . S
C611 C612 1.399 . S
C611 C616 1.399 . S
C612 C611 1.399 . S
C612 C613 1.376 . S
C613 H600 0.930 . S
C613 C612 1.376 . S
C613 C614 1.388 . S
C614 H601 0.930 . S
C614 C613 1.388 . S
C614 C615 1.390 . S
C615 C614 1.390 . S
C615 C616 1.394 . S
C615 C621 1.465 . S
C616 C611 1.399 . S
C616 C615 1.394 . S
C616 C617 1.516 . S
C617 C616 1.516 . S
C617 C618 1.502 . S
C617 C619 1.561 . S
C617 C620 1.526 . S
C618 H602 0.959 . S
C618 H603 0.959 . S
C618 H604 0.961 . S
C618 C617 1.502 . S
C619 H605 0.960 . S
C619 H606 0.961 . S
C619 H607 0.959 . S
C619 C617 1.561 . S
C620 C617 1.526 . S
C620 C621 1.396 . S
C620 C625 1.390 . S
C621 C615 1.465 . S
C621 C620 1.396 . S
C621 C622 1.399 . S
C622 H608 0.929 . S
C622 C621 1.399 . S
C622 C623 1.385 . S
C623 H609 0.931 . S
C623 C622 1.385 . S
C623 C624 1.389 . S
C624 C623 1.389 . S
C624 C625 1.387 . S
C625 H610 0.930 . S
C625 C620 1.390 . S
C625 C624 1.387 . S
H626 C638 0.930 . S
H627 C640 0.930 . S
H628 C641 0.930 . S
H629 C645 0.959 . S
H630 C645 0.959 . S
H631 C645 0.961 . S
H632 C646 0.960 . S
H633 C646 0.961 . S
H634 C646 0.959 . S
H635 C649 0.929 . S
H636 C650 0.931 . S
H637 C652 0.930 . S
C638 H626 0.930 . S
C638 C639 1.399 . S
C638 C643 1.399 . S
C639 C638 1.399 . S
C639 C640 1.376 . S
C640 H627 0.930 . S
C640 C639 1.376 . S
C640 C641 1.388 . S
C641 H628 0.930 . S
C641 C640 1.388 . S
C641 C642 1.390 . S
C642 C641 1.390 . S
C642 C643 1.394 . S
C642 C648 1.465 . S
C643 C638 1.399 . S
C643 C642 1.394 . S
C643 C644 1.516 . S
C644 C643 1.516 . S
C644 C645 1.502 . S
C644 C646 1.561 . S
C644 C647 1.526 . S
C645 H629 0.959 . S
C645 H630 0.959 . S
C645 H631 0.961 . S
C645 C644 1.502 . S
C646 H632 0.960 . S
C646 H633 0.961 . S
C646 H634 0.959 . S
C646 C644 1.561 . S
C647 C644 1.526 . S
C647 C648 1.396 . S
C647 C652 1.390 . S
C648 C642 1.465 . S
C648 C647 1.396 . S
C648 C649 1.399 . S
C649 H635 0.929 . S
C649 C648 1.399 . S
C649 C650 1.385 . S
C650 H636 0.931 . S
C650 C649 1.385 . S
C650 C651 1.389 . S
C651 C650 1.389 . S
C651 C652 1.387 . S
C652 H637 0.930 . S
C652 C647 1.390 . S
C652 C651 1.387 . S
H653 C665 0.930 . S
H654 C667 0.930 . S
H655 C668 0.930 . S
H656 C672 0.959 . S
H657 C672 0.959 . S
H658 C672 0.961 . S
H659 C673 0.960 . S
H660 C673 0.961 . S
H661 C673 0.959 . S
H662 C676 0.929 . S
H663 C677 0.931 . S
H664 C679 0.930 . S
C665 H653 0.930 . S
C665 C666 1.399 . S
C665 C670 1.399 . S
C666 C665 1.399 . S
C666 C667 1.376 . S
C667 H654 0.930 . S
C667 C666 1.376 . S
C667 C668 1.388 . S
C668 H655 0.930 . S
C668 C667 1.388 . S
C668 C669 1.390 . S
C669 C668 1.390 . S
C669 C670 1.394 . S
C669 C675 1.465 . S
C670 C665 1.399 . S
C670 C669 1.394 . S
C670 C671 1.516 . S
C671 C670 1.516 . S
C671 C672 1.502 . S
C671 C673 1.561 . S
C671 C674 1.526 . S
C672 H656 0.959 . S
C672 H657 0.959 . S
C672 H658 0.961 . S
C672 C671 1.502 . S
C673 H659 0.960 . S
C673 H660 0.961 . S
C673 H661 0.959 . S
C673 C671 1.561 . S
C674 C671 1.526 . S
C674 C675 1.396 . S
C674 C679 1.390 . S
C675 C669 1.465 . S
C675 C674 1.396 . S
C675 C676 1.399 . S
C676 H662 0.929 . S
C676 C675 1.399 . S
C676 C677 1.385 . S
C677 H663 0.931 . S
C677 C676 1.385 . S
C677 C678 1.389 . S
C678 C677 1.389 . S
C678 C679 1.387 . S
C679 H664 0.930 . S
C679 C674 1.390 . S
C679 C678 1.387 . S
H680 C692 0.930 . S
H681 C694 0.930 . S
H682 C695 0.930 . S
H683 C699 0.959 . S
H684 C699 0.959 . S
H685 C699 0.961 . S
H686 C700 0.960 . S
H687 C700 0.961 . S
H688 C700 0.959 . S
H689 C703 0.929 . S
H690 C704 0.931 . S
H691 C706 0.930 . S
C692 H680 0.930 . S
C692 C693 1.399 1_545 S
C692 C697 1.399 . S
C693 C692 1.399 1_565 S
C693 C694 1.376 . S
C694 H681 0.930 . S
C694 C693 1.376 . S
C694 C695 1.388 1_565 S
C695 H682 0.930 . S
C695 C694 1.388 1_545 S
C695 C696 1.390 . S
C696 C695 1.390 . S
C696 C697 1.394 . S
C696 C702 1.465 . S
C697 C692 1.399 . S
C697 C696 1.394 . S
C697 C698 1.516 . S
C698 C697 1.516 . S
C698 C699 1.502 . S
C698 C700 1.561 . S
C698 C701 1.526 . S
C699 H683 0.959 . S
C699 H684 0.959 . S
C699 H685 0.961 . S
C699 C698 1.502 . S
C700 H686 0.960 . S
C700 H687 0.961 . S
C700 H688 0.959 . S
C700 C698 1.561 . S
C701 C698 1.526 . S
C701 C702 1.396 . S
C701 C706 1.390 . S
C702 C696 1.465 . S
C702 C701 1.396 . S
C702 C703 1.399 . S
C703 H689 0.929 . S
C703 C702 1.399 . S
C703 C704 1.385 . S
C704 H690 0.931 . S
C704 C703 1.385 . S
C704 C705 1.389 . S
C705 C704 1.389 . S
C705 C706 1.387 . S
C706 H691 0.930 . S
C706 C701 1.390 . S
C706 C705 1.387 . S
H707 C719 0.930 1_455 S
H708 C721 0.921 1_455 S
H709 C722 0.930 . S
H710 C726 0.959 . S
H711 C726 0.959 . S
H712 C726 0.961 . S
H713 C727 0.960 . S
H714 C727 0.961 . S
H715 C727 0.959 . S
H716 C730 0.929 . S
H717 C731 0.931 . S
H718 C733 0.930 . S
C719 H707 0.930 1_655 S
C719 C720 1.399 1_655 S
C719 C724 1.399 . S
C720 C719 1.399 1_455 S
C720 C721 1.376 1_455 S
C721 H708 0.921 1_655 S
C721 C720 1.376 1_655 S
C721 C722 1.388 . S
C722 H709 0.930 . S
C722 C721 1.388 . S
C722 C723 1.390 . S
C723 C722 1.390 . S
C723 C724 1.394 . S
C723 C729 1.465 . S
C724 C719 1.399 . S
C724 C723 1.394 . S
C724 C725 1.516 . S
C725 C724 1.516 . S
C725 C726 1.502 . S
C725 C727 1.561 . S
C725 C728 1.526 . S
C726 H710 0.959 . S
C726 H711 0.959 . S
C726 H712 0.961 . S
C726 C725 1.502 . S
C727 H713 0.960 . S
C727 H714 0.961 . S
C727 H715 0.959 . S
C727 C725 1.561 . S
C728 C725 1.526 . S
C728 C729 1.396 . S
C728 C733 1.390 . S
C729 C723 1.465 . S
C729 C728 1.396 . S
C729 C730 1.399 . S
C730 H716 0.929 . S
C730 C729 1.399 . S
C730 C731 1.385 . S
C731 H717 0.931 . S
C731 C730 1.385 . S
C731 C732 1.389 . S
C732 C731 1.389 . S
C732 C733 1.387 . S
C733 H718 0.930 . S
C733 C728 1.390 . S
C733 C732 1.387 . S
H734 C746 0.930 . S
H735 C748 0.930 . S
H736 C749 0.930 . S
H737 C753 0.959 . S
H738 C753 0.959 . S
H739 C753 0.961 . S
H740 C754 0.960 . S
H741 C754 0.961 . S
H742 C754 0.959 . S
H743 C757 0.929 . S
H744 C758 0.931 1_545 S
H745 C760 0.930 1_545 S
C746 H734 0.930 . S
C746 C747 1.399 . S
C746 C751 1.399 . S
C747 C746 1.399 . S
C747 C748 1.376 . S
C748 H735 0.930 . S
C748 C747 1.376 . S
C748 C749 1.388 . S
C749 H736 0.930 . S
C749 C748 1.388 . S
C749 C750 1.390 . S
C750 C749 1.390 . S
C750 C751 1.394 . S
C750 C756 1.465 . S
C751 C746 1.399 . S
C751 C750 1.394 . S
C751 C752 1.516 . S
C752 C751 1.516 . S
C752 C753 1.502 . S
C752 C754 1.561 . S
C752 C755 1.526 . S
C753 H737 0.959 . S
C753 H738 0.959 . S
C753 H739 0.961 . S
C753 C752 1.502 . S
C754 H740 0.960 . S
C754 H741 0.961 . S
C754 H742 0.959 . S
C754 C752 1.561 . S
C755 C752 1.526 . S
C755 C756 1.396 . S
C755 C760 1.390 . S
C756 C750 1.465 . S
C756 C755 1.396 . S
C756 C757 1.399 . S
C757 H743 0.929 . S
C757 C756 1.399 . S
C757 C758 1.385 . S
C758 H744 0.931 1_565 S
C758 C757 1.385 . S
C758 C759 1.389 1_565 S
C759 C758 1.389 1_545 S
C759 C760 1.387 1_545 S
C760 H745 0.930 1_565 S
C760 C755 1.390 . S
C760 C759 1.387 1_565 S
H761 C773 0.930 . S
H762 C775 0.930 . S
H763 C776 0.930 . S
H764 C780 0.959 . S
H765 C780 0.959 . S
H766 C780 0.961 . S
H767 C781 0.960 . S
H768 C781 0.961 . S
H769 C781 0.959 . S
H770 C784 0.929 . S
H771 C785 0.931 . S
H772 C787 0.930 . S
C773 H761 0.930 . S
C773 C774 1.399 . S
C773 C778 1.399 . S
C774 C773 1.399 . S
C774 C775 1.376 . S
C775 H762 0.930 . S
C775 C774 1.376 . S
C775 C776 1.388 . S
C776 H763 0.930 . S
C776 C775 1.388 . S
C776 C777 1.390 . S
C777 C776 1.390 . S
C777 C778 1.394 . S
C777 C783 1.465 . S
C778 C773 1.399 . S
C778 C777 1.394 . S
C778 C779 1.516 . S
C779 C778 1.516 . S
C779 C780 1.502 . S
C779 C781 1.561 . S
C779 C782 1.526 . S
C780 H764 0.959 . S
C780 H765 0.959 . S
C780 H766 0.961 . S
C780 C779 1.502 . S
C781 H767 0.960 . S
C781 H768 0.961 . S
C781 H769 0.959 . S
C781 C779 1.561 . S
C782 C779 1.526 . S
C782 C783 1.396 . S
C782 C787 1.390 . S
C783 C777 1.465 . S
C783 C782 1.396 . S
C783 C784 1.399 . S
C784 H770 0.929 . S
C784 C783 1.399 . S
C784 C785 1.385 1_455 S
C785 H771 0.931 . S
C785 C784 1.385 1_655 S
C785 C786 1.389 . S
C786 C785 1.389 . S
C786 C787 1.387 1_655 S
C787 H772 0.930 . S
C787 C782 1.390 . S
C787 C786 1.387 1_455 S
H788 C800 0.930 1_545 S
H789 C802 0.930 1_545 S
H790 C803 0.930 . S
H791 C807 0.959 . S
H792 C807 0.959 . S
H793 C807 0.961 . S
H794 C808 0.960 . S
H795 C808 0.961 . S
H796 C808 0.959 . S
H797 C811 0.929 . S
H798 C812 0.931 . S
H799 C814 0.930 . S
C800 H788 0.930 1_565 S
C800 C801 1.399 1_565 S
C800 C805 1.399 . S
C801 C800 1.399 1_545 S
C801 C802 1.376 1_545 S
C802 H789 0.930 1_565 S
C802 C801 1.376 1_565 S
C802 C803 1.388 . S
C803 H790 0.930 . S
C803 C802 1.388 . S
C803 C804 1.390 . S
C804 C803 1.390 . S
C804 C805 1.394 . S
C804 C810 1.465 . S
C805 C800 1.399 . S
C805 C804 1.394 . S
C805 C806 1.516 . S
C806 C805 1.516 . S
C806 C807 1.502 . S
C806 C808 1.561 . S
C806 C809 1.526 . S
C807 H791 0.959 . S
C807 H792 0.959 . S
C807 H793 0.961 . S
C807 C806 1.502 . S
C808 H794 0.960 . S
C808 H795 0.961 . S
C808 H796 0.959 . S
C808 C806 1.561 . S
C809 C806 1.526 . S
C809 C810 1.396 . S
C809 C814 1.390 . S
C810 C804 1.465 . S
C810 C809 1.396 . S
C810 C811 1.399 . S
C811 H797 0.929 . S
C811 C810 1.399 . S
C811 C812 1.385 . S
C812 H798 0.931 . S
C812 C811 1.385 . S
C812 C813 1.389 . S
C813 C812 1.389 . S
C813 C814 1.387 . S
C814 H799 0.930 . S
C814 C809 1.390 . S
C814 C813 1.387 . S
H815 C827 0.930 . S
H816 C829 0.930 . S
H817 C830 0.930 . S
H818 C834 0.959 . S
H819 C834 0.959 . S
H820 C834 0.961 . S
H821 C835 0.960 . S
H822 C835 0.961 . S
H823 C835 0.959 . S
H824 C838 0.929 . S
H825 C839 0.931 1_655 S
H826 C841 0.930 1_655 S
C827 H815 0.930 . S
C827 C828 1.399 . S
C827 C832 1.399 . S
C828 C827 1.399 . S
C828 C829 1.376 . S
C829 H816 0.930 . S
C829 C828 1.376 . S
C829 C830 1.388 . S
C830 H817 0.930 . S
C830 C829 1.388 . S
C830 C831 1.390 . S
C831 C830 1.390 . S
C831 C832 1.394 . S
C831 C837 1.465 . S
C832 C827 1.399 . S
C832 C831 1.394 . S
C832 C833 1.516 . S
C833 C832 1.516 . S
C833 C834 1.502 . S
C833 C835 1.561 . S
C833 C836 1.526 . S
C834 H818 0.959 . S
C834 H819 0.959 . S
C834 H820 0.961 . S
C834 C833 1.502 . S
C835 H821 0.960 . S
C835 H822 0.961 . S
C835 H823 0.959 . S
C835 C833 1.561 . S
C836 C833 1.526 . S
C836 C837 1.396 . S
C836 C841 1.390 . S
C837 C831 1.465 . S
C837 C836 1.396 . S
C837 C838 1.399 . S
C838 H824 0.929 . S
C838 C837 1.399 . S
C838 C839 1.385 . S
C839 H825 0.931 1_455 S
C839 C838 1.385 . S
C839 C840 1.389 1_455 S
C840 C839 1.389 1_655 S
C840 C841 1.387 1_655 S
C841 H826 0.930 1_455 S
C841 C836 1.390 . S
C841 C840 1.387 1_455 S
H842 C854 0.924 1_565 S
H843 C856 0.930 . S
H844 C857 0.930 . S
H845 C861 0.959 . S
H846 C861 0.959 . S
H847 C861 0.961 . S
H848 C862 0.960 . S
H849 C862 0.961 . S
H850 C862 0.959 . S
H851 C865 0.929 . S
H852 C866 0.931 . S
H853 C868 0.930 . S
C854 H842 0.924 1_545 S
C854 C855 1.396 1_545 S
C854 C859 1.409 . S
C855 C854 1.396 1_565 S
C855 C856 1.376 1_565 S
C856 H843 0.930 . S
C856 C855 1.376 1_545 S
C856 C857 1.388 . S
C857 H844 0.930 . S
C857 C856 1.388 . S
C857 C858 1.390 . S
C858 C857 1.390 . S
C858 C859 1.394 . S
C858 C864 1.465 . S
C859 C854 1.409 . S
C859 C858 1.394 . S
C859 C860 1.516 . S
C860 C859 1.516 . S
C860 C861 1.502 . S
C860 C862 1.561 . S
C860 C863 1.526 . S
C861 H845 0.959 . S
C861 H846 0.959 . S
C861 H847 0.961 . S
C861 C860 1.502 . S
C862 H848 0.960 . S
C862 H849 0.961 . S
C862 H850 0.959 . S
C862 C860 1.561 . S
C863 C860 1.526 . S
C863 C864 1.396 . S
C863 C868 1.390 . S
C864 C858 1.465 . S
C864 C863 1.396 . S
C864 C865 1.399 . S
C865 H851 0.929 . S
C865 C864 1.399 . S
C865 C866 1.385 . S
C866 H852 0.931 . S
C866 C865 1.385 . S
C866 C867 1.389 . S
C867 C866 1.389 . S
C867 C868 1.387 . S
C868 H853 0.930 . S
C868 C863 1.390 . S
C868 C867 1.387 . S
H869 C881 0.930 1_455 S
H870 C883 0.930 1_455 S
H871 C884 0.930 . S
H872 C888 0.959 . S
H873 C888 0.959 . S
H874 C888 0.961 . S
H875 C889 0.960 . S
H876 C889 0.961 . S
H877 C889 0.959 . S
H878 C892 0.929 . S
H879 C893 0.931 . S
H880 C895 0.930 . S
C881 H869 0.930 1_655 S
C881 C882 1.399 1_655 S
C881 C886 1.399 . S
C882 C881 1.399 1_455 S
C882 C883 1.376 1_455 S
C883 H870 0.930 1_655 S
C883 C882 1.376 1_655 S
C883 C884 1.388 . S
C884 H871 0.930 . S
C884 C883 1.388 . S
C884 C885 1.390 . S
C885 C884 1.390 . S
C885 C886 1.394 . S
C885 C891 1.465 . S
C886 C881 1.399 . S
C886 C885 1.394 . S
C886 C887 1.516 . S
C887 C886 1.516 . S
C887 C888 1.502 . S
C887 C889 1.561 . S
C887 C890 1.526 . S
C888 H872 0.959 . S
C888 H873 0.959 . S
C888 H874 0.961 . S
C888 C887 1.502 . S
C889 H875 0.960 . S
C889 H876 0.961 . S
C889 H877 0.959 . S
C889 C887 1.561 . S
C890 C887 1.526 . S
C890 C891 1.396 . S
C890 C895 1.390 . S
C891 C885 1.465 . S
C891 C890 1.396 . S
C891 C892 1.399 . S
C892 H878 0.929 . S
C892 C891 1.399 . S
C892 C893 1.385 . S
C893 H879 0.931 . S
C893 C892 1.385 . S
C893 C894 1.389 . S
C894 C893 1.389 . S
C894 C895 1.387 . S
C895 H880 0.930 . S
C895 C890 1.390 . S
C895 C894 1.387 . S
H896 C908 0.930 . S
H897 C910 0.930 . S
H898 C911 0.930 . S
H899 C915 0.959 . S
H900 C915 0.959 . S
H901 C915 0.961 . S
H902 C916 0.960 . S
H903 C916 0.961 . S
H904 C916 0.959 . S
H905 C919 0.929 . S
H906 C920 0.931 . S
H907 C922 0.939 . S
C908 H896 0.930 . S
C908 C909 1.399 . S
C908 C913 1.399 . S
C909 C908 1.399 . S
C909 C910 1.376 . S
C910 H897 0.930 . S
C910 C909 1.376 . S
C910 C911 1.388 . S
C911 H898 0.930 . S
C911 C910 1.388 . S
C911 C912 1.390 . S
C912 C911 1.390 . S
C912 C913 1.394 . S
C912 C918 1.465 . S
C913 C908 1.399 . S
C913 C912 1.394 . S
C913 C914 1.516 . S
C914 C913 1.516 . S
C914 C915 1.502 . S
C914 C916 1.561 . S
C914 C917 1.526 . S
C915 H899 0.959 . S
C915 H900 0.959 . S
C915 H901 0.961 . S
C915 C914 1.502 . S
C916 H902 0.960 . S
C916 H903 0.961 . S
C916 H904 0.959 . S
C916 C914 1.561 . S
C917 C914 1.526 . S
C917 C918 1.396 . S
C917 C922 1.370 1_565 S
C918 C912 1.465 . S
C918 C917 1.396 . S
C918 C919 1.399 . S
C919 H905 0.929 . S
C919 C918 1.399 . S
C919 C920 1.385 1_565 S
C920 H906 0.931 . S
C920 C919 1.385 1_545 S
C920 C921 1.389 . S
C921 C920 1.389 . S
C921 C922 1.397 . S
C922 H907 0.939 . S
C922 C917 1.370 1_545 S
C922 C921 1.397 . S
H923 C935 0.930 . S
H924 C937 0.930 . S
H925 C938 0.930 . S
H926 C942 0.959 . S
H927 C942 0.959 . S
H928 C942 0.961 . S
H929 C943 0.960 . S
H930 C943 0.961 . S
H931 C943 0.959 . S
H932 C946 0.929 . S
H933 C947 0.931 . S
H934 C949 0.930 . S
C935 H923 0.930 . S
C935 C936 1.399 1_455 S
C935 C940 1.399 . S
C936 C935 1.399 1_655 S
C936 C937 1.376 . S
C937 H924 0.930 . S
C937 C936 1.376 . S
C937 C938 1.388 1_655 S
C938 H925 0.930 . S
C938 C937 1.388 1_455 S
C938 C939 1.390 . S
C939 C938 1.390 . S
C939 C940 1.394 . S
C939 C945 1.465 . S
C940 C935 1.399 . S
C940 C939 1.394 . S
C940 C941 1.516 . S
C941 C940 1.516 . S
C941 C942 1.502 . S
C941 C943 1.561 . S
C941 C944 1.526 . S
C942 H926 0.959 . S
C942 H927 0.959 . S
C942 H928 0.961 . S
C942 C941 1.502 . S
C943 H929 0.960 . S
C943 H930 0.961 . S
C943 H931 0.959 . S
C943 C941 1.561 . S
C944 C941 1.526 . S
C944 C945 1.396 . S
C944 C949 1.390 . S
C945 C939 1.465 . S
C945 C944 1.396 . S
C945 C946 1.399 . S
C946 H932 0.929 . S
C946 C945 1.399 . S
C946 C947 1.385 . S
C947 H933 0.931 . S
C947 C946 1.385 . S
C947 C948 1.389 . S
C948 C947 1.389 . S
C948 C949 1.387 . S
C949 H934 0.930 . S
C949 C944 1.390 . S
C949 C948 1.387 . S
H950 C962 0.930 . S
H951 C964 0.930 . S
H952 C965 0.930 . S
H953 C969 0.959 . S
H954 C969 0.959 . S
H955 C969 0.961 . S
H956 C970 0.960 . S
H957 C970 0.961 . S
H958 C970 0.959 . S
H959 C973 0.929 . S
H960 C974 0.931 . S
H961 C976 0.924 1_565 S
C962 H950 0.930 . S
C962 C963 1.399 . S
C962 C967 1.399 . S
C963 C962 1.399 . S
C963 C964 1.376 . S
C964 H951 0.930 . S
C964 C963 1.376 . S
C964 C965 1.388 . S
C965 H952 0.930 . S
C965 C964 1.388 . S
C965 C966 1.390 . S
C966 C965 1.390 . S
C966 C967 1.394 . S
C966 C972 1.465 . S
C967 C962 1.399 . S
C967 C966 1.394 . S
C967 C968 1.516 . S
C968 C967 1.516 . S
C968 C969 1.502 . S
C968 C970 1.561 . S
C968 C971 1.526 . S
C969 H953 0.959 . S
C969 H954 0.959 . S
C969 H955 0.961 . S
C969 C968 1.502 . S
C970 H956 0.960 . S
C970 H957 0.961 . S
C970 H958 0.959 . S
C970 C968 1.561 . S
C971 C968 1.526 . S
C971 C972 1.396 . S
C971 C976 1.404 . S
C972 C966 1.465 . S
C972 C971 1.396 . S
C972 C973 1.399 . S
C973 H959 0.929 . S
C973 C972 1.399 . S
C973 C974 1.385 1_545 S
C974 H960 0.931 . S
C974 C973 1.385 1_565 S
C974 C975 1.389 . S
C975 C974 1.389 . S
C975 C976 1.378 1_565 S
C976 H961 0.924 1_545 S
C976 C971 1.404 . S
C976 C975 1.378 1_545 S
H977 C989 0.930 1_455 S
H978 C991 0.930 . S
H979 C992 0.930 . S
H980 C996 0.959 . S
H981 C996 0.959 . S
H982 C996 0.961 . S
H983 C997 0.960 . S
H984 C997 0.961 . S
H985 C997 0.959 . S
H986 C1000 0.929 . S
H987 C1001 0.931 . S
H988 C1003 0.930 . S
C989 H977 0.930 1_655 S
C989 C990 1.399 1_655 S
C989 C994 1.399 . S
C990 C989 1.399 1_455 S
C990 C991 1.376 . S
C991 H978 0.930 . S
C991 C990 1.376 . S
C991 C992 1.388 1_455 S
C992 H979 0.930 . S
C992 C991 1.388 1_655 S
C992 C993 1.390 . S
C993 C992 1.390 . S
C993 C994 1.394 . S
C993 C999 1.465 . S
C994 C989 1.399 . S
C994 C993 1.394 . S
C994 C995 1.516 . S
C995 C994 1.516 . S
C995 C996 1.502 . S
C995 C997 1.561 . S
C995 C998 1.526 . S
C996 H980 0.959 . S
C996 H981 0.959 . S
C996 H982 0.961 . S
C996 C995 1.502 . S
C997 H983 0.960 . S
C997 H984 0.961 . S
C997 H985 0.959 . S
C997 C995 1.561 . S
C998 C995 1.526 . S
C998 C999 1.396 . S
C998 C1003 1.390 . S
C999 C993 1.465 . S
C999 C998 1.396 . S
C999 C1000 1.399 . S
C1000 H986 0.929 . S
C1000 C999 1.399 . S
C1000 C1001 1.385 . S
C1001 H987 0.931 . S
C1001 C1000 1.385 . S
C1001 C1002 1.389 . S
C1002 C1001 1.389 . S
C1002 C1003 1.387 . S
C1003 H988 0.930 . S
C1003 C998 1.390 . S
C1003 C1002 1.387 . S
H1004 C1016 0.930 . S
H1005 C1018 0.930 . S
H1006 C1019 0.930 . S
H1007 C1023 0.959 . S
H1008 C1023 0.959 . S
H1009 C1023 0.961 . S
H1010 C1024 0.960 . S
H1011 C1024 0.961 . S
H1012 C1024 0.959 . S
H1013 C1027 0.929 . S
H1014 C1028 0.931 . S
H1015 C1030 0.934 . S
C1016 H1004 0.930 . S
C1016 C1017 1.399 . S
C1016 C1021 1.399 . S
C1017 C1016 1.399 . S
C1017 C1018 1.376 . S
C1018 H1005 0.930 . S
C1018 C1017 1.376 . S
C1018 C1019 1.388 . S
C1019 H1006 0.930 . S
C1019 C1018 1.388 . S
C1019 C1020 1.390 . S
C1020 C1019 1.390 . S
C1020 C1021 1.394 . S
C1020 C1026 1.465 . S
C1021 C1016 1.399 . S
C1021 C1020 1.394 . S
C1021 C1022 1.516 . S
C1022 C1021 1.516 . S
C1022 C1023 1.502 . S
C1022 C1024 1.561 . S
C1022 C1025 1.526 . S
C1023 H1007 0.959 . S
C1023 H1008 0.959 . S
C1023 H1009 0.961 . S
C1023 C1022 1.502 . S
C1024 H1010 0.960 . S
C1024 H1011 0.961 . S
C1024 H1012 0.959 . S
C1024 C1022 1.561 . S
C1025 C1022 1.526 . S
C1025 C1026 1.396 . S
C1025 C1030 1.380 1_545 S
C1026 C1020 1.465 . S
C1026 C1025 1.396 . S
C1026 C1027 1.399 . S
C1027 H1013 0.929 . S
C1027 C1026 1.399 . S
C1027 C1028 1.385 1_545 S
C1028 H1014 0.931 . S
C1028 C1027 1.385 1_565 S
C1028 C1029 1.389 . S
C1029 C1028 1.389 . S
C1029 C1030 1.392 . S
C1030 H1015 0.934 . S
C1030 C1025 1.380 1_565 S
C1030 C1029 1.392 . S
H1031 C1043 0.930 1_455 S
H1032 C1045 0.930 . S
H1033 C1046 0.930 . S
H1034 C1050 0.959 . S
H1035 C1050 0.959 . S
H1036 C1050 0.961 . S
H1037 C1051 0.960 . S
H1038 C1051 0.961 . S
H1039 C1051 0.959 . S
H1040 C1054 0.929 . S
H1041 C1055 0.931 . S
H1042 C1057 0.930 . S
C1043 H1031 0.930 1_655 S
C1043 C1044 1.399 1_655 S
C1043 C1048 1.399 . S
C1044 C1043 1.399 1_455 S
C1044 C1045 1.376 . S
C1045 H1032 0.930 . S
C1045 C1044 1.376 . S
C1045 C1046 1.388 1_455 S
C1046 H1033 0.930 . S
C1046 C1045 1.388 1_655 S
C1046 C1047 1.390 . S
C1047 C1046 1.390 . S
C1047 C1048 1.394 . S
C1047 C1053 1.465 . S
C1048 C1043 1.399 . S
C1048 C1047 1.394 . S
C1048 C1049 1.516 . S
C1049 C1048 1.516 . S
C1049 C1050 1.502 . S
C1049 C1051 1.561 . S
C1049 C1052 1.526 . S
C1050 H1034 0.959 . S
C1050 H1035 0.959 . S
C1050 H1036 0.961 . S
C1050 C1049 1.502 . S
C1051 H1037 0.960 . S
C1051 H1038 0.961 . S
C1051 H1039 0.959 . S
C1051 C1049 1.561 . S
C1052 C1049 1.526 . S
C1052 C1053 1.396 . S
C1052 C1057 1.390 . S
C1053 C1047 1.465 . S
C1053 C1052 1.396 . S
C1053 C1054 1.399 . S
C1054 H1040 0.929 . S
C1054 C1053 1.399 . S
C1054 C1055 1.385 . S
C1055 H1041 0.931 . S
C1055 C1054 1.385 . S
C1055 C1056 1.389 . S
C1056 C1055 1.389 . S
C1056 C1057 1.387 . S
C1057 H1042 0.930 . S
C1057 C1052 1.390 . S
C1057 C1056 1.387 . S
H1058 C1070 0.930 1_545 S
H1059 C1072 0.930 . S
H1060 C1073 0.930 . S
H1061 C1077 0.959 . S
H1062 C1077 0.959 . S
H1063 C1077 0.961 . S
H1064 C1078 0.960 . S
H1065 C1078 0.961 . S
H1066 C1078 0.959 . S
H1067 C1081 0.929 . S
H1068 C1082 0.931 . S
H1069 C1084 0.930 . S
C1070 H1058 0.930 1_565 S
C1070 C1071 1.399 1_565 S
C1070 C1075 1.399 . S
C1071 C1070 1.399 1_545 S
C1071 C1072 1.376 . S
C1072 H1059 0.930 . S
C1072 C1071 1.376 . S
C1072 C1073 1.388 1_545 S
C1073 H1060 0.930 . S
C1073 C1072 1.388 1_565 S
C1073 C1074 1.390 . S
C1074 C1073 1.390 . S
C1074 C1075 1.394 . S
C1074 C1080 1.465 . S
C1075 C1070 1.399 . S
C1075 C1074 1.394 . S
C1075 C1076 1.516 . S
C1076 C1075 1.516 . S
C1076 C1077 1.502 . S
C1076 C1078 1.561 . S
C1076 C1079 1.526 . S
C1077 H1061 0.959 . S
C1077 H1062 0.959 . S
C1077 H1063 0.961 . S
C1077 C1076 1.502 . S
C1078 H1064 0.960 . S
C1078 H1065 0.961 . S
C1078 H1066 0.959 . S
C1078 C1076 1.561 . S
C1079 C1076 1.526 . S
C1079 C1080 1.396 . S
C1079 C1084 1.390 . S
C1080 C1074 1.465 . S
C1080 C1079 1.396 . S
C1080 C1081 1.399 . S
C1081 H1067 0.929 . S
C1081 C1080 1.399 . S
C1081 C1082 1.385 . S
C1082 H1068 0.931 . S
C1082 C1081 1.385 . S
C1082 C1083 1.389 . S
C1083 C1082 1.389 . S
C1083 C1084 1.387 . S
C1084 H1069 0.930 . S
C1084 C1079 1.390 . S
C1084 C1083 1.387 . S
H1085 C1097 0.930 . S
H1086 C1099 0.930 . S
H1087 C1100 0.930 . S
H1088 C1104 0.959 . S
H1089 C1104 0.959 . S
H1090 C1104 0.961 . S
H1091 C1105 0.960 . S
H1092 C1105 0.961 . S
H1093 C1105 0.959 . S
H1094 C1108 0.929 . S
H1095 C1109 0.931 . S
H1096 C1111 0.930 . S
C1097 H1085 0.930 . S
C1097 C1098 1.399 1_455 S
C1097 C1102 1.399 . S
C1098 C1097 1.399 1_655 S
C1098 C1099 1.376 . S
C1099 H1086 0.930 . S
C1099 C1098 1.376 . S
C1099 C1100 1.388 1_655 S
C1100 H1087 0.930 . S
C1100 C1099 1.388 1_455 S
C1100 C1101 1.390 . S
C1101 C1100 1.390 . S
C1101 C1102 1.394 . S
C1101 C1107 1.465 . S
C1102 C1097 1.399 . S
C1102 C1101 1.394 . S
C1102 C1103 1.516 . S
C1103 C1102 1.516 . S
C1103 C1104 1.502 . S
C1103 C1105 1.561 . S
C1103 C1106 1.526 . S
C1104 H1088 0.959 . S
C1104 H1089 0.959 . S
C1104 H1090 0.961 . S
C1104 C1103 1.502 . S
C1105 H1091 0.960 . S
C1105 H1092 0.961 . S
C1105 H1093 0.959 . S
C1105 C1103 1.561 . S
C1106 C1103 1.526 . S
C1106 C1107 1.396 . S
C1106 C1111 1.390 . S
C1107 C1101 1.465 . S
C1107 C1106 1.396 . S
C1107 C1108 1.399 . S
C1108 H1094 0.929 . S
C1108 C1107 1.399 . S
C1108 C1109 1.385 . S
C1109 H1095 0.931 . S
C1109 C1108 1.385 . S
C1109 C1110 1.389 . S
C1110 C1109 1.389 . S
C1110 C1111 1.387 . S
C1111 H1096 0.930 . S
C1111 C1106 1.390 . S
C1111 C1110 1.387 . S
H1112 C1124 0.930 . S
H1113 C1126 0.930 . S
H1114 C1127 0.930 . S
H1115 C1131 0.959 . S
H1116 C1131 0.959 . S
H1117 C1131 0.961 . S
H1118 C1132 0.960 . S
H1119 C1132 0.961 . S
H1120 C1132 0.959 . S
H1121 C1135 0.929 . S
H1122 C1136 0.931 . S
H1123 C1138 0.930 . S
C1124 H1112 0.930 . S
C1124 C1125 1.399 . S
C1124 C1129 1.399 . S
C1125 C1124 1.399 . S
C1125 C1126 1.376 . S
C1126 H1113 0.930 . S
C1126 C1125 1.376 . S
C1126 C1127 1.388 . S
C1127 H1114 0.930 . S
C1127 C1126 1.388 . S
C1127 C1128 1.390 . S
C1128 C1127 1.390 . S
C1128 C1129 1.394 . S
C1128 C1134 1.465 . S
C1129 C1124 1.399 . S
C1129 C1128 1.394 . S
C1129 C1130 1.516 . S
C1130 C1129 1.516 . S
C1130 C1131 1.502 . S
C1130 C1132 1.561 . S
C1130 C1133 1.526 . S
C1131 H1115 0.959 . S
C1131 H1116 0.959 . S
C1131 H1117 0.961 . S
C1131 C1130 1.502 . S
C1132 H1118 0.960 . S
C1132 H1119 0.961 . S
C1132 H1120 0.959 . S
C1132 C1130 1.561 . S
C1133 C1130 1.526 . S
C1133 C1134 1.396 . S
C1133 C1138 1.390 . S
C1134 C1128 1.465 . S
C1134 C1133 1.396 . S
C1134 C1135 1.399 . S
C1135 H1121 0.929 . S
C1135 C1134 1.399 . S
C1135 C1136 1.385 . S
C1136 H1122 0.931 . S
C1136 C1135 1.385 . S
C1136 C1137 1.389 . S
C1137 C1136 1.389 . S
C1137 C1138 1.387 . S
C1138 H1123 0.930 . S
C1138 C1133 1.390 . S
C1138 C1137 1.387 . S
H1139 C1151 0.930 . S
H1140 C1153 0.930 . S
H1141 C1154 0.930 . S
H1142 C1158 0.959 . S
H1143 C1158 0.959 . S
H1144 C1158 0.961 . S
H1145 C1159 0.960 . S
H1146 C1159 0.961 . S
H1147 C1159 0.959 . S
H1148 C1162 0.929 . S
H1149 C1163 0.931 . S
H1150 C1165 0.930 . S
C1151 H1139 0.930 . S
C1151 C1152 1.399 . S
C1151 C1156 1.399 . S
C1152 C1151 1.399 . S
C1152 C1153 1.376 . S
C1153 H1140 0.930 . S
C1153 C1152 1.376 . S
C1153 C1154 1.388 . S
C1154 H1141 0.930 . S
C1154 C1153 1.388 . S
C1154 C1155 1.390 . S
C1155 C1154 1.390 . S
C1155 C1156 1.394 . S
C1155 C1161 1.465 . S
C1156 C1151 1.399 . S
C1156 C1155 1.394 . S
C1156 C1157 1.516 . S
C1157 C1156 1.516 . S
C1157 C1158 1.502 . S
C1157 C1159 1.561 . S
C1157 C1160 1.526 . S
C1158 H1142 0.959 . S
C1158 H1143 0.959 . S
C1158 H1144 0.961 . S
C1158 C1157 1.502 . S
C1159 H1145 0.960 . S
C1159 H1146 0.961 . S
C1159 H1147 0.959 . S
C1159 C1157 1.561 . S
C1160 C1157 1.526 . S
C1160 C1161 1.396 . S
C1160 C1165 1.390 . S
C1161 C1155 1.465 . S
C1161 C1160 1.396 . S
C1161 C1162 1.399 . S
C1162 H1148 0.929 . S
C1162 C1161 1.399 . S
C1162 C1163 1.385 . S
C1163 H1149 0.931 . S
C1163 C1162 1.385 . S
C1163 C1164 1.389 . S
C1164 C1163 1.389 . S
C1164 C1165 1.387 . S
C1165 H1150 0.930 . S
C1165 C1160 1.390 . S
C1165 C1164 1.387 . S
H1166 C1178 0.930 . S
H1167 C1180 0.930 . S
H1168 C1181 0.930 . S
H1169 C1185 0.959 . S
H1170 C1185 0.959 . S
H1171 C1185 0.961 . S
H1172 C1186 0.960 . S
H1173 C1186 0.961 . S
H1174 C1186 0.959 . S
H1175 C1189 0.929 . S
H1176 C1190 0.931 . S
H1177 C1192 0.930 . S
C1178 H1166 0.930 . S
C1178 C1179 1.399 . S
C1178 C1183 1.399 . S
C1179 C1178 1.399 . S
C1179 C1180 1.376 . S
C1180 H1167 0.930 . S
C1180 C1179 1.376 . S
C1180 C1181 1.388 . S
C1181 H1168 0.930 . S
C1181 C1180 1.388 . S
C1181 C1182 1.390 . S
C1182 C1181 1.390 . S
C1182 C1183 1.394 . S
C1182 C1188 1.465 . S
C1183 C1178 1.399 . S
C1183 C1182 1.394 . S
C1183 C1184 1.516 . S
C1184 C1183 1.516 . S
C1184 C1185 1.502 . S
C1184 C1186 1.561 . S
C1184 C1187 1.526 . S
C1185 H1169 0.959 . S
C1185 H1170 0.959 . S
C1185 H1171 0.961 . S
C1185 C1184 1.502 . S
C1186 H1172 0.960 . S
C1186 H1173 0.961 . S
C1186 H1174 0.959 . S
C1186 C1184 1.561 . S
C1187 C1184 1.526 . S
C1187 C1188 1.396 . S
C1187 C1192 1.390 . S
C1188 C1182 1.465 . S
C1188 C1187 1.396 . S
C1188 C1189 1.399 . S
C1189 H1175 0.929 . S
C1189 C1188 1.399 . S
C1189 C1190 1.385 . S
C1190 H1176 0.931 . S
C1190 C1189 1.385 . S
C1190 C1191 1.389 . S
C1191 C1190 1.389 . S
C1191 C1192 1.387 . S
C1192 H1177 0.930 . S
C1192 C1187 1.390 . S
C1192 C1191 1.387 . S
H1193 C1205 0.930 . S
H1194 C1207 0.930 . S
H1195 C1208 0.930 . S
H1196 C1212 0.959 . S
H1197 C1212 0.959 . S
H1198 C1212 0.961 . S
H1199 C1213 0.960 . S
H1200 C1213 0.961 . S
H1201 C1213 0.959 . S
H1202 C1216 0.929 . S
H1203 C1217 0.931 . S
H1204 C1219 0.930 . S
C1205 H1193 0.930 . S
C1205 C1206 1.399 . S
C1205 C1210 1.399 . S
C1206 C1205 1.399 . S
C1206 C1207 1.376 . S
C1207 H1194 0.930 . S
C1207 C1206 1.376 . S
C1207 C1208 1.388 . S
C1208 H1195 0.930 . S
C1208 C1207 1.388 . S
C1208 C1209 1.390 . S
C1209 C1208 1.390 . S
C1209 C1210 1.394 . S
C1209 C1215 1.465 . S
C1210 C1205 1.399 . S
C1210 C1209 1.394 . S
C1210 C1211 1.516 . S
C1211 C1210 1.516 . S
C1211 C1212 1.502 . S
C1211 C1213 1.561 . S
C1211 C1214 1.526 . S
C1212 H1196 0.959 . S
C1212 H1197 0.959 . S
C1212 H1198 0.961 . S
C1212 C1211 1.502 . S
C1213 H1199 0.960 . S
C1213 H1200 0.961 . S
C1213 H1201 0.959 . S
C1213 C1211 1.561 . S
C1214 C1211 1.526 . S
C1214 C1215 1.396 . S
C1214 C1219 1.390 . S
C1215 C1209 1.465 . S
C1215 C1214 1.396 . S
C1215 C1216 1.399 . S
C1216 H1202 0.929 . S
C1216 C1215 1.399 . S
C1216 C1217 1.385 . S
C1217 H1203 0.931 . S
C1217 C1216 1.385 . S
C1217 C1218 1.389 . S
C1218 C1217 1.389 . S
C1218 C1219 1.387 . S
C1219 H1204 0.930 . S
C1219 C1214 1.390 . S
C1219 C1218 1.387 . S
H1220 C1232 0.930 . S
H1221 C1234 0.930 . S
H1222 C1235 0.930 . S
H1223 C1239 0.959 . S
H1224 C1239 0.959 . S
H1225 C1239 0.961 . S
H1226 C1240 0.960 . S
H1227 C1240 0.961 . S
H1228 C1240 0.959 . S
H1229 C1243 0.929 . S
H1230 C1244 0.931 . S
H1231 C1246 0.930 . S
C1232 H1220 0.930 . S
C1232 C1233 1.399 . S
C1232 C1237 1.399 . S
C1233 C1232 1.399 . S
C1233 C1234 1.376 . S
C1234 H1221 0.930 . S
C1234 C1233 1.376 . S
C1234 C1235 1.388 . S
C1235 H1222 0.930 . S
C1235 C1234 1.388 . S
C1235 C1236 1.390 . S
C1236 C1235 1.390 . S
C1236 C1237 1.394 . S
C1236 C1242 1.465 . S
C1237 C1232 1.399 . S
C1237 C1236 1.394 . S
C1237 C1238 1.516 . S
C1238 C1237 1.516 . S
C1238 C1239 1.502 . S
C1238 C1240 1.561 . S
C1238 C1241 1.526 . S
C1239 H1223 0.959 . S
C1239 H1224 0.959 . S
C1239 H1225 0.961 . S
C1239 C1238 1.502 . S
C1240 H1226 0.960 . S
C1240 H1227 0.961 . S
C1240 H1228 0.959 . S
C1240 C1238 1.561 . S
C1241 C1238 1.526 . S
C1241 C1242 1.396 . S
C1241 C1246 1.390 . S
C1242 C1236 1.465 . S
C1242 C1241 1.396 . S
C1242 C1243 1.399 . S
C1243 H1229 0.929 . S
C1243 C1242 1.399 . S
C1243 C1244 1.385 . S
C1244 H1230 0.931 . S
C1244 C1243 1.385 . S
C1244 C1245 1.389 . S
C1245 C1244 1.389 . S
C1245 C1246 1.387 . S
C1246 H1231 0.930 . S
C1246 C1241 1.390 . S
C1246 C1245 1.387 . S
H1247 C1259 0.930 . S
H1248 C1261 0.930 . S
H1249 C1262 0.930 . S
H1250 C1266 0.959 . S
H1251 C1266 0.959 . S
H1252 C1266 0.961 . S
H1253 C1267 0.960 . S
H1254 C1267 0.961 . S
H1255 C1267 0.959 . S
H1256 C1270 0.929 . S
H1257 C1271 0.931 . S
H1258 C1273 0.930 . S
C1259 H1247 0.930 . S
C1259 C1260 1.399 . S
C1259 C1264 1.399 . S
C1260 C1259 1.399 . S
C1260 C1261 1.376 . S
C1261 H1248 0.930 . S
C1261 C1260 1.376 . S
C1261 C1262 1.388 . S
C1262 H1249 0.930 . S
C1262 C1261 1.388 . S
C1262 C1263 1.390 . S
C1263 C1262 1.390 . S
C1263 C1264 1.394 . S
C1263 C1269 1.465 . S
C1264 C1259 1.399 . S
C1264 C1263 1.394 . S
C1264 C1265 1.516 . S
C1265 C1264 1.516 . S
C1265 C1266 1.502 . S
C1265 C1267 1.561 . S
C1265 C1268 1.526 . S
C1266 H1250 0.959 . S
C1266 H1251 0.959 . S
C1266 H1252 0.961 . S
C1266 C1265 1.502 . S
C1267 H1253 0.960 . S
C1267 H1254 0.961 . S
C1267 H1255 0.959 . S
C1267 C1265 1.561 . S
C1268 C1265 1.526 . S
C1268 C1269 1.396 . S
C1268 C1273 1.390 . S
C1269 C1263 1.465 . S
C1269 C1268 1.396 . S
C1269 C1270 1.399 . S
C1270 H1256 0.929 . S
C1270 C1269 1.399 . S
C1270 C1271 1.385 . S
C1271 H1257 0.931 . S
C1271 C1270 1.385 . S
C1271 C1272 1.389 . S
C1272 C1271 1.389 . S
C1272 C1273 1.387 . S
C1273 H1258 0.930 . S
C1273 C1268 1.390 . S
C1273 C1272 1.387 . S
H1274 C1286 0.930 . S
H1275 C1288 0.930 . S
H1276 C1289 0.930 . S
H1277 C1293 0.959 . S
H1278 C1293 0.959 . S
H1279 C1293 0.961 . S
H1280 C1294 0.960 . S
H1281 C1294 0.961 . S
H1282 C1294 0.959 . S
H1283 C1297 0.929 . S
H1284 C1298 0.931 . S
H1285 C1300 0.930 . S
C1286 H1274 0.930 . S
C1286 C1287 1.399 . S
C1286 C1291 1.399 . S
C1287 C1286 1.399 . S
C1287 C1288 1.376 . S
C1288 H1275 0.930 . S
C1288 C1287 1.376 . S
C1288 C1289 1.388 . S
C1289 H1276 0.930 . S
C1289 C1288 1.388 . S
C1289 C1290 1.390 . S
C1290 C1289 1.390 . S
C1290 C1291 1.394 . S
C1290 C1296 1.465 . S
C1291 C1286 1.399 . S
C1291 C1290 1.394 . S
C1291 C1292 1.516 . S
C1292 C1291 1.516 . S
C1292 C1293 1.502 . S
C1292 C1294 1.561 . S
C1292 C1295 1.526 . S
C1293 H1277 0.959 . S
C1293 H1278 0.959 . S
C1293 H1279 0.961 . S
C1293 C1292 1.502 . S
C1294 H1280 0.960 . S
C1294 H1281 0.961 . S
C1294 H1282 0.959 . S
C1294 C1292 1.561 . S
C1295 C1292 1.526 . S
C1295 C1296 1.396 . S
C1295 C1300 1.390 . S
C1296 C1290 1.465 . S
C1296 C1295 1.396 . S
C1296 C1297 1.399 . S
C1297 H1283 0.929 . S
C1297 C1296 1.399 . S
C1297 C1298 1.385 . S
C1298 H1284 0.931 . S
C1298 C1297 1.385 . S
C1298 C1299 1.389 . S
C1299 C1298 1.389 . S
C1299 C1300 1.387 . S
C1300 H1285 0.930 . S
C1300 C1295 1.390 . S
C1300 C1299 1.387 . S
H1301 C1313 0.930 . S
H1302 C1315 0.930 . S
H1303 C1316 0.930 . S
H1304 C1320 0.959 . S
H1305 C1320 0.959 . S
H1306 C1320 0.961 . S
H1307 C1321 0.960 . S
H1308 C1321 0.961 . S
H1309 C1321 0.959 . S
H1310 C1324 0.929 . S
H1311 C1325 0.931 . S
H1312 C1327 0.930 . S
C1313 H1301 0.930 . S
C1313 C1314 1.399 . S
C1313 C1318 1.399 . S
C1314 C1313 1.399 . S
C1314 C1315 1.376 . S
C1315 H1302 0.930 . S
C1315 C1314 1.376 . S
C1315 C1316 1.388 . S
C1316 H1303 0.930 . S
C1316 C1315 1.388 . S
C1316 C1317 1.390 . S
C1317 C1316 1.390 . S
C1317 C1318 1.394 . S
C1317 C1323 1.465 . S
C1318 C1313 1.399 . S
C1318 C1317 1.394 . S
C1318 C1319 1.516 . S
C1319 C1318 1.516 . S
C1319 C1320 1.502 . S
C1319 C1321 1.561 . S
C1319 C1322 1.526 . S
C1320 H1304 0.959 . S
C1320 H1305 0.959 . S
C1320 H1306 0.961 . S
C1320 C1319 1.502 . S
C1321 H1307 0.960 . S
C1321 H1308 0.961 . S
C1321 H1309 0.959 . S
C1321 C1319 1.561 . S
C1322 C1319 1.526 . S
C1322 C1323 1.396 . S
C1322 C1327 1.390 . S
C1323 C1317 1.465 . S
C1323 C1322 1.396 . S
C1323 C1324 1.399 . S
C1324 H1310 0.929 . S
C1324 C1323 1.399 . S
C1324 C1325 1.385 . S
C1325 H1311 0.931 . S
C1325 C1324 1.385 . S
C1325 C1326 1.389 . S
C1326 C1325 1.389 . S
C1326 C1327 1.387 . S
C1327 H1312 0.930 . S
C1327 C1322 1.390 . S
C1327 C1326 1.387 . S
H1328 C1340 0.930 . S
H1329 C1342 0.930 . S
H1330 C1343 0.930 . S
H1331 C1347 0.959 . S
H1332 C1347 0.959 . S
H1333 C1347 0.961 . S
H1334 C1348 0.960 . S
H1335 C1348 0.961 . S
H1336 C1348 0.959 . S
H1337 C1351 0.929 . S
H1338 C1352 0.931 . S
H1339 C1354 0.930 . S
C1340 H1328 0.930 . S
C1340 C1341 1.399 . S
C1340 C1345 1.399 . S
C1341 C1340 1.399 . S
C1341 C1342 1.376 . S
C1342 H1329 0.930 . S
C1342 C1341 1.376 . S
C1342 C1343 1.388 . S
C1343 H1330 0.930 . S
C1343 C1342 1.388 . S
C1343 C1344 1.390 . S
C1344 C1343 1.390 . S
C1344 C1345 1.394 . S
C1344 C1350 1.465 . S
C1345 C1340 1.399 . S
C1345 C1344 1.394 . S
C1345 C1346 1.516 . S
C1346 C1345 1.516 . S
C1346 C1347 1.502 . S
C1346 C1348 1.561 . S
C1346 C1349 1.526 . S
C1347 H1331 0.959 . S
C1347 H1332 0.959 . S
C1347 H1333 0.961 . S
C1347 C1346 1.502 . S
C1348 H1334 0.960 . S
C1348 H1335 0.961 . S
C1348 H1336 0.959 . S
C1348 C1346 1.561 . S
C1349 C1346 1.526 . S
C1349 C1350 1.396 . S
C1349 C1354 1.390 . S
C1350 C1344 1.465 . S
C1350 C1349 1.396 . S
C1350 C1351 1.399 . S
C1351 H1337 0.929 . S
C1351 C1350 1.399 . S
C1351 C1352 1.385 . S
C1352 H1338 0.931 . S
C1352 C1351 1.385 . S
C1352 C1353 1.389 . S
C1353 C1352 1.389 . S
C1353 C1354 1.387 . S
C1354 H1339 0.930 . S
C1354 C1349 1.390 . S
C1354 C1353 1.387 . S
H1355 C1367 0.930 . S
H1356 C1369 0.930 . S
H1357 C1370 0.930 . S
H1358 C1374 0.959 . S
H1359 C1374 0.959 . S
H1360 C1374 0.961 . S
H1361 C1375 0.960 . S
H1362 C1375 0.961 . S
H1363 C1375 0.959 . S
H1364 C1378 0.929 . S
H1365 C1379 0.931 . S
H1366 C1381 0.930 . S
C1367 H1355 0.930 . S
C1367 C1368 1.399 . S
C1367 C1372 1.399 . S
C1368 C1367 1.399 . S
C1368 C1369 1.376 . S
C1369 H1356 0.930 . S
C1369 C1368 1.376 . S
C1369 C1370 1.388 . S
C1370 H1357 0.930 . S
C1370 C1369 1.388 . S
C1370 C1371 1.390 . S
C1371 C1370 1.390 . S
C1371 C1372 1.394 . S
C1371 C1377 1.465 . S
C1372 C1367 1.399 . S
C1372 C1371 1.394 . S
C1372 C1373 1.516 . S
C1373 C1372 1.516 . S
C1373 C1374 1.502 . S
C1373 C1375 1.561 . S
C1373 C1376 1.526 . S
C1374 H1358 0.959 . S
C1374 H1359 0.959 . S
C1374 H1360 0.961 . S
C1374 C1373 1.502 . S
C1375 H1361 0.960 . S
C1375 H1362 0.961 . S
C1375 H1363 0.959 . S
C1375 C1373 1.561 . S
C1376 C1373 1.526 . S
C1376 C1377 1.396 . S
C1376 C1381 1.390 . S
C1377 C1371 1.465 . S
C1377 C1376 1.396 . S
C1377 C1378 1.399 . S
C1378 H1364 0.929 . S
C1378 C1377 1.399 . S
C1378 C1379 1.385 . S
C1379 H1365 0.931 . S
C1379 C1378 1.385 . S
C1379 C1380 1.389 . S
C1380 C1379 1.389 . S
C1380 C1381 1.387 . S
C1381 H1366 0.930 . S
C1381 C1376 1.390 . S
C1381 C1380 1.387 . S
H1382 C1394 0.930 . S
H1383 C1396 0.930 . S
H1384 C1397 0.930 . S
H1385 C1401 0.959 . S
H1386 C1401 0.959 . S
H1387 C1401 0.961 . S
H1388 C1402 0.960 . S
H1389 C1402 0.961 . S
H1390 C1402 0.959 . S
H1391 C1405 0.929 . S
H1392 C1406 0.931 . S
H1393 C1408 0.930 . S
C1394 H1382 0.930 . S
C1394 C1395 1.399 . S
C1394 C1399 1.399 . S
C1395 C1394 1.399 . S
C1395 C1396 1.376 . S
C1396 H1383 0.930 . S
C1396 C1395 1.376 . S
C1396 C1397 1.388 . S
C1397 H1384 0.930 . S
C1397 C1396 1.388 . S
C1397 C1398 1.390 . S
C1398 C1397 1.390 . S
C1398 C1399 1.394 . S
C1398 C1404 1.465 . S
C1399 C1394 1.399 . S
C1399 C1398 1.394 . S
C1399 C1400 1.516 . S
C1400 C1399 1.516 . S
C1400 C1401 1.502 . S
C1400 C1402 1.561 . S
C1400 C1403 1.526 . S
C1401 H1385 0.959 . S
C1401 H1386 0.959 . S
C1401 H1387 0.961 . S
C1401 C1400 1.502 . S
C1402 H1388 0.960 . S
C1402 H1389 0.961 . S
C1402 H1390 0.959 . S
C1402 C1400 1.561 . S
C1403 C1400 1.526 . S
C1403 C1404 1.396 . S
C1403 C1408 1.390 . S
C1404 C1398 1.465 . S
C1404 C1403 1.396 . S
C1404 C1405 1.399 . S
C1405 H1391 0.929 . S
C1405 C1404 1.399 . S
C1405 C1406 1.385 . S
C1406 H1392 0.931 . S
C1406 C1405 1.385 . S
C1406 C1407 1.389 . S
C1407 C1406 1.389 . S
C1407 C1408 1.387 . S
C1408 H1393 0.930 . S
C1408 C1403 1.390 . S
C1408 C1407 1.387 . S
H1409 C1421 0.930 . S
H1410 C1423 0.930 . S
H1411 C1424 0.930 . S
H1412 C1428 0.959 . S
H1413 C1428 0.959 . S
H1414 C1428 0.961 . S
H1415 C1429 0.960 . S
H1416 C1429 0.961 . S
H1417 C1429 0.959 . S
H1418 C1432 0.929 . S
H1419 C1433 0.931 . S
H1420 C1435 0.930 . S
C1421 H1409 0.930 . S
C1421 C1422 1.399 . S
C1421 C1426 1.399 . S
C1422 C1421 1.399 . S
C1422 C1423 1.376 . S
C1423 H1410 0.930 . S
C1423 C1422 1.376 . S
C1423 C1424 1.388 . S
C1424 H1411 0.930 . S
C1424 C1423 1.388 . S
C1424 C1425 1.390 . S
C1425 C1424 1.390 . S
C1425 C1426 1.394 . S
C1425 C1431 1.465 . S
C1426 C1421 1.399 . S
C1426 C1425 1.394 . S
C1426 C1427 1.516 . S
C1427 C1426 1.516 . S
C1427 C1428 1.502 . S
C1427 C1429 1.561 . S
C1427 C1430 1.526 . S
C1428 H1412 0.959 . S
C1428 H1413 0.959 . S
C1428 H1414 0.961 . S
C1428 C1427 1.502 . S
C1429 H1415 0.960 . S
C1429 H1416 0.961 . S
C1429 H1417 0.959 . S
C1429 C1427 1.561 . S
C1430 C1427 1.526 . S
C1430 C1431 1.396 . S
C1430 C1435 1.390 . S
C1431 C1425 1.465 . S
C1431 C1430 1.396 . S
C1431 C1432 1.399 . S
C1432 H1418 0.929 . S
C1432 C1431 1.399 . S
C1432 C1433 1.385 . S
C1433 H1419 0.931 . S
C1433 C1432 1.385 . S
C1433 C1434 1.389 . S
C1434 C1433 1.389 . S
C1434 C1435 1.387 . S
C1435 H1420 0.930 . S
C1435 C1430 1.390 . S
C1435 C1434 1.387 . S
H1436 C1448 0.930 . S
H1437 C1450 0.930 . S
H1438 C1451 0.930 . S
H1439 C1455 0.959 . S
H1440 C1455 0.959 . S
H1441 C1455 0.961 . S
H1442 C1456 0.960 . S
H1443 C1456 0.961 . S
H1444 C1456 0.959 . S
H1445 C1459 0.929 . S
H1446 C1460 0.931 . S
H1447 C1462 0.930 . S
C1448 H1436 0.930 . S
C1448 C1449 1.399 . S
C1448 C1453 1.399 . S
C1449 C1448 1.399 . S
C1449 C1450 1.376 . S
C1450 H1437 0.930 . S
C1450 C1449 1.376 . S
C1450 C1451 1.388 . S
C1451 H1438 0.930 . S
C1451 C1450 1.388 . S
C1451 C1452 1.390 . S
C1452 C1451 1.390 . S
C1452 C1453 1.394 . S
C1452 C1458 1.465 . S
C1453 C1448 1.399 . S
C1453 C1452 1.394 . S
C1453 C1454 1.516 . S
C1454 C1453 1.516 . S
C1454 C1455 1.502 . S
C1454 C1456 1.561 . S
C1454 C1457 1.526 . S
C1455 H1439 0.959 . S
C1455 H1440 0.959 . S
C1455 H1441 0.961 . S
C1455 C1454 1.502 . S
C1456 H1442 0.960 . S
C1456 H1443 0.961 . S
C1456 H1444 0.959 . S
C1456 C1454 1.561 . S
C1457 C1454 1.526 . S
C1457 C1458 1.396 . S
C1457 C1462 1.390 . S
C1458 C1452 1.465 . S
C1458 C1457 1.396 . S
C1458 C1459 1.399 . S
C1459 H1445 0.929 . S
C1459 C1458 1.399 . S
C1459 C1460 1.385 . S
C1460 H1446 0.931 . S
C1460 C1459 1.385 . S
C1460 C1461 1.389 . S
C1461 C1460 1.389 . S
C1461 C1462 1.387 . S
C1462 H1447 0.930 . S
C1462 C1457 1.390 . S
C1462 C1461 1.387 . S
H1463 C1475 0.930 . S
H1464 C1477 0.930 . S
H1465 C1478 0.930 . S
H1466 C1482 0.959 . S
H1467 C1482 0.959 . S
H1468 C1482 0.961 . S
H1469 C1483 0.960 . S
H1470 C1483 0.961 . S
H1471 C1483 0.959 . S
H1472 C1486 0.929 . S
H1473 C1487 0.931 . S
H1474 C1489 0.930 . S
C1475 H1463 0.930 . S
C1475 C1476 1.399 . S
C1475 C1480 1.399 . S
C1476 C1475 1.399 . S
C1476 C1477 1.376 . S
C1477 H1464 0.930 . S
C1477 C1476 1.376 . S
C1477 C1478 1.388 . S
C1478 H1465 0.930 . S
C1478 C1477 1.388 . S
C1478 C1479 1.390 . S
C1479 C1478 1.390 . S
C1479 C1480 1.394 . S
C1479 C1485 1.465 . S
C1480 C1475 1.399 . S
C1480 C1479 1.394 . S
C1480 C1481 1.516 . S
C1481 C1480 1.516 . S
C1481 C1482 1.502 . S
C1481 C1483 1.561 . S
C1481 C1484 1.526 . S
C1482 H1466 0.959 . S
C1482 H1467 0.959 . S
C1482 H1468 0.961 . S
C1482 C1481 1.502 . S
C1483 H1469 0.960 . S
C1483 H1470 0.961 . S
C1483 H1471 0.959 . S
C1483 C1481 1.561 . S
C1484 C1481 1.526 . S
C1484 C1485 1.396 . S
C1484 C1489 1.390 . S
C1485 C1479 1.465 . S
C1485 C1484 1.396 . S
C1485 C1486 1.399 . S
C1486 H1472 0.929 . S
C1486 C1485 1.399 . S
C1486 C1487 1.385 . S
C1487 H1473 0.931 . S
C1487 C1486 1.385 . S
C1487 C1488 1.389 . S
C1488 C1487 1.389 . S
C1488 C1489 1.387 . S
C1489 H1474 0.930 . S
C1489 C1484 1.390 . S
C1489 C1488 1.387 . S
H1490 C1502 0.930 . S
H1491 C1504 0.930 . S
H1492 C1505 0.930 . S
H1493 C1509 0.959 . S
H1494 C1509 0.959 . S
H1495 C1509 0.961 . S
H1496 C1510 0.960 . S
H1497 C1510 0.961 . S
H1498 C1510 0.959 . S
H1499 C1513 0.929 . S
H1500 C1514 0.931 . S
H1501 C1516 0.930 . S
C1502 H1490 0.930 . S
C1502 C1503 1.399 . S
C1502 C1507 1.399 . S
C1503 C1502 1.399 . S
C1503 C1504 1.376 . S
C1504 H1491 0.930 . S
C1504 C1503 1.376 . S
C1504 C1505 1.388 . S
C1505 H1492 0.930 . S
C1505 C1504 1.388 . S
C1505 C1506 1.390 . S
C1506 C1505 1.390 . S
C1506 C1507 1.394 . S
C1506 C1512 1.465 . S
C1507 C1502 1.399 . S
C1507 C1506 1.394 . S
C1507 C1508 1.516 . S
C1508 C1507 1.516 . S
C1508 C1509 1.502 . S
C1508 C1510 1.561 . S
C1508 C1511 1.526 . S
C1509 H1493 0.959 . S
C1509 H1494 0.959 . S
C1509 H1495 0.961 . S
C1509 C1508 1.502 . S
C1510 H1496 0.960 . S
C1510 H1497 0.961 . S
C1510 H1498 0.959 . S
C1510 C1508 1.561 . S
C1511 C1508 1.526 . S
C1511 C1512 1.396 . S
C1511 C1516 1.390 . S
C1512 C1506 1.465 . S
C1512 C1511 1.396 . S
C1512 C1513 1.399 . S
C1513 H1499 0.929 . S
C1513 C1512 1.399 . S
C1513 C1514 1.385 . S
C1514 H1500 0.931 . S
C1514 C1513 1.385 . S
C1514 C1515 1.389 . S
C1515 C1514 1.389 . S
C1515 C1516 1.387 . S
C1516 H1501 0.930 . S
C1516 C1511 1.390 . S
C1516 C1515 1.387 . S
H1517 C1529 0.930 . S
H1518 C1531 0.930 . S
H1519 C1532 0.930 . S
H1520 C1536 0.959 . S
H1521 C1536 0.959 . S
H1522 C1536 0.961 . S
H1523 C1537 0.960 . S
H1524 C1537 0.961 . S
H1525 C1537 0.959 . S
H1526 C1540 0.929 . S
H1527 C1541 0.931 . S
H1528 C1543 0.930 . S
C1529 H1517 0.930 . S
C1529 C1530 1.399 . S
C1529 C1534 1.399 . S
C1530 C1529 1.399 . S
C1530 C1531 1.376 . S
C1531 H1518 0.930 . S
C1531 C1530 1.376 . S
C1531 C1532 1.388 . S
C1532 H1519 0.930 . S
C1532 C1531 1.388 . S
C1532 C1533 1.390 . S
C1533 C1532 1.390 . S
C1533 C1534 1.394 . S
C1533 C1539 1.465 . S
C1534 C1529 1.399 . S
C1534 C1533 1.394 . S
C1534 C1535 1.516 . S
C1535 C1534 1.516 . S
C1535 C1536 1.502 . S
C1535 C1537 1.561 . S
C1535 C1538 1.526 . S
C1536 H1520 0.959 . S
C1536 H1521 0.959 . S
C1536 H1522 0.961 . S
C1536 C1535 1.502 . S
C1537 H1523 0.960 . S
C1537 H1524 0.961 . S
C1537 H1525 0.959 . S
C1537 C1535 1.561 . S
C1538 C1535 1.526 . S
C1538 C1539 1.396 . S
C1538 C1543 1.390 . S
C1539 C1533 1.465 . S
C1539 C1538 1.396 . S
C1539 C1540 1.399 . S
C1540 H1526 0.929 . S
C1540 C1539 1.399 . S
C1540 C1541 1.385 . S
C1541 H1527 0.931 . S
C1541 C1540 1.385 . S
C1541 C1542 1.389 . S
C1542 C1541 1.389 . S
C1542 C1543 1.387 . S
C1543 H1528 0.930 . S
C1543 C1538 1.390 . S
C1543 C1542 1.387 . S
H1544 C1556 0.930 . S
H1545 C1558 0.930 . S
H1546 C1559 0.930 . S
H1547 C1563 0.959 . S
H1548 C1563 0.959 . S
H1549 C1563 0.961 . S
H1550 C1564 0.960 . S
H1551 C1564 0.961 . S
H1552 C1564 0.959 . S
H1553 C1567 0.929 . S
H1554 C1568 0.931 . S
H1555 C1570 0.930 . S
C1556 H1544 0.930 . S
C1556 C1557 1.399 . S
C1556 C1561 1.399 . S
C1557 C1556 1.399 . S
C1557 C1558 1.376 . S
C1558 H1545 0.930 . S
C1558 C1557 1.376 . S
C1558 C1559 1.388 . S
C1559 H1546 0.930 . S
C1559 C1558 1.388 . S
C1559 C1560 1.390 . S
C1560 C1559 1.390 . S
C1560 C1561 1.394 . S
C1560 C1566 1.465 . S
C1561 C1556 1.399 . S
C1561 C1560 1.394 . S
C1561 C1562 1.516 . S
C1562 C1561 1.516 . S
C1562 C1563 1.502 . S
C1562 C1564 1.561 . S
C1562 C1565 1.526 . S
C1563 H1547 0.959 . S
C1563 H1548 0.959 . S
C1563 H1549 0.961 . S
C1563 C1562 1.502 . S
C1564 H1550 0.960 . S
C1564 H1551 0.961 . S
C1564 H1552 0.959 . S
C1564 C1562 1.561 . S
C1565 C1562 1.526 . S
C1565 C1566 1.396 . S
C1565 C1570 1.390 . S
C1566 C1560 1.465 . S
C1566 C1565 1.396 . S
C1566 C1567 1.399 . S
C1567 H1553 0.929 . S
C1567 C1566 1.399 . S
C1567 C1568 1.385 . S
C1568 H1554 0.931 . S
C1568 C1567 1.385 . S
C1568 C1569 1.389 . S
C1569 C1568 1.389 . S
C1569 C1570 1.387 . S
C1570 H1555 0.930 . S
C1570 C1565 1.390 . S
C1570 C1569 1.387 . S
H1571 C1583 0.930 . S
H1572 C1585 0.930 . S
H1573 C1586 0.930 . S
H1574 C1590 0.959 . S
H1575 C1590 0.959 . S
H1576 C1590 0.961 . S
H1577 C1591 0.960 . S
H1578 C1591 0.961 . S
H1579 C1591 0.959 . S
H1580 C1594 0.929 . S
H1581 C1595 0.931 . S
H1582 C1597 0.930 . S
C1583 H1571 0.930 . S
C1583 C1584 1.399 . S
C1583 C1588 1.399 . S
C1584 C1583 1.399 . S
C1584 C1585 1.376 . S
C1585 H1572 0.930 . S
C1585 C1584 1.376 . S
C1585 C1586 1.388 . S
C1586 H1573 0.930 . S
C1586 C1585 1.388 . S
C1586 C1587 1.390 . S
C1587 C1586 1.390 . S
C1587 C1588 1.394 . S
C1587 C1593 1.465 . S
C1588 C1583 1.399 . S
C1588 C1587 1.394 . S
C1588 C1589 1.516 . S
C1589 C1588 1.516 . S
C1589 C1590 1.502 . S
C1589 C1591 1.561 . S
C1589 C1592 1.526 . S
C1590 H1574 0.959 . S
C1590 H1575 0.959 . S
C1590 H1576 0.961 . S
C1590 C1589 1.502 . S
C1591 H1577 0.960 . S
C1591 H1578 0.961 . S
C1591 H1579 0.959 . S
C1591 C1589 1.561 . S
C1592 C1589 1.526 . S
C1592 C1593 1.396 . S
C1592 C1597 1.390 . S
C1593 C1587 1.465 . S
C1593 C1592 1.396 . S
C1593 C1594 1.399 . S
C1594 H1580 0.929 . S
C1594 C1593 1.399 . S
C1594 C1595 1.385 . S
C1595 H1581 0.931 . S
C1595 C1594 1.385 . S
C1595 C1596 1.389 . S
C1596 C1595 1.389 . S
C1596 C1597 1.387 . S
C1597 H1582 0.930 . S
C1597 C1592 1.390 . S
C1597 C1596 1.387 . S
H1598 C1610 0.930 . S
H1599 C1612 0.930 . S
H1600 C1613 0.930 . S
H1601 C1617 0.959 . S
H1602 C1617 0.959 . S
H1603 C1617 0.961 . S
H1604 C1618 0.960 . S
H1605 C1618 0.961 . S
H1606 C1618 0.959 . S
H1607 C1621 0.929 . S
H1608 C1622 0.931 . S
H1609 C1624 0.930 . S
C1610 H1598 0.930 . S
C1610 C1611 1.399 . S
C1610 C1615 1.399 . S
C1611 C1610 1.399 . S
C1611 C1612 1.376 . S
C1612 H1599 0.930 . S
C1612 C1611 1.376 . S
C1612 C1613 1.388 . S
C1613 H1600 0.930 . S
C1613 C1612 1.388 . S
C1613 C1614 1.390 . S
C1614 C1613 1.390 . S
C1614 C1615 1.394 . S
C1614 C1620 1.465 . S
C1615 C1610 1.399 . S
C1615 C1614 1.394 . S
C1615 C1616 1.516 . S
C1616 C1615 1.516 . S
C1616 C1617 1.502 . S
C1616 C1618 1.561 . S
C1616 C1619 1.526 . S
C1617 H1601 0.959 . S
C1617 H1602 0.959 . S
C1617 H1603 0.961 . S
C1617 C1616 1.502 . S
C1618 H1604 0.960 . S
C1618 H1605 0.961 . S
C1618 H1606 0.959 . S
C1618 C1616 1.561 . S
C1619 C1616 1.526 . S
C1619 C1620 1.396 . S
C1619 C1624 1.390 . S
C1620 C1614 1.465 . S
C1620 C1619 1.396 . S
C1620 C1621 1.399 . S
C1621 H1607 0.929 . S
C1621 C1620 1.399 . S
C1621 C1622 1.385 . S
C1622 H1608 0.931 . S
C1622 C1621 1.385 . S
C1622 C1623 1.389 . S
C1623 C1622 1.389 . S
C1623 C1624 1.387 . S
C1624 H1609 0.930 . S
C1624 C1619 1.390 . S
C1624 C1623 1.387 . S
H1625 C1637 0.930 . S
H1626 C1639 0.930 . S
H1627 C1640 0.930 . S
H1628 C1644 0.959 . S
H1629 C1644 0.959 . S
H1630 C1644 0.961 . S
H1631 C1645 0.960 . S
H1632 C1645 0.961 . S
H1633 C1645 0.959 . S
H1634 C1648 0.929 . S
H1635 C1649 0.931 . S
H1636 C1651 0.930 . S
C1637 H1625 0.930 . S
C1637 C1638 1.399 . S
C1637 C1642 1.399 . S
C1638 C1637 1.399 . S
C1638 C1639 1.376 . S
C1639 H1626 0.930 . S
C1639 C1638 1.376 . S
C1639 C1640 1.388 . S
C1640 H1627 0.930 . S
C1640 C1639 1.388 . S
C1640 C1641 1.390 . S
C1641 C1640 1.390 . S
C1641 C1642 1.394 . S
C1641 C1647 1.465 . S
C1642 C1637 1.399 . S
C1642 C1641 1.394 . S
C1642 C1643 1.516 . S
C1643 C1642 1.516 . S
C1643 C1644 1.502 . S
C1643 C1645 1.561 . S
C1643 C1646 1.526 . S
C1644 H1628 0.959 . S
C1644 H1629 0.959 . S
C1644 H1630 0.961 . S
C1644 C1643 1.502 . S
C1645 H1631 0.960 . S
C1645 H1632 0.961 . S
C1645 H1633 0.959 . S
C1645 C1643 1.561 . S
C1646 C1643 1.526 . S
C1646 C1647 1.396 . S
C1646 C1651 1.390 . S
C1647 C1641 1.465 . S
C1647 C1646 1.396 . S
C1647 C1648 1.399 . S
C1648 H1634 0.929 . S
C1648 C1647 1.399 . S
C1648 C1649 1.385 . S
C1649 H1635 0.931 . S
C1649 C1648 1.385 . S
C1649 C1650 1.389 . S
C1650 C1649 1.389 . S
C1650 C1651 1.387 . S
C1651 H1636 0.930 . S
C1651 C1646 1.390 . S
C1651 C1650 1.387 . S
H1652 C1664 0.930 . S
H1653 C1666 0.930 . S
H1654 C1667 0.930 . S
H1655 C1671 0.959 . S
H1656 C1671 0.959 . S
H1657 C1671 0.961 . S
H1658 C1672 0.960 . S
H1659 C1672 0.961 . S
H1660 C1672 0.959 . S
H1661 C1675 0.929 . S
H1662 C1676 0.931 . S
H1663 C1678 0.930 . S
C1664 H1652 0.930 . S
C1664 C1665 1.399 . S
C1664 C1669 1.399 . S
C1665 C1664 1.399 . S
C1665 C1666 1.376 . S
C1666 H1653 0.930 . S
C1666 C1665 1.376 . S
C1666 C1667 1.388 . S
C1667 H1654 0.930 . S
C1667 C1666 1.388 . S
C1667 C1668 1.390 . S
C1668 C1667 1.390 . S
C1668 C1669 1.394 . S
C1668 C1674 1.465 . S
C1669 C1664 1.399 . S
C1669 C1668 1.394 . S
C1669 C1670 1.516 . S
C1670 C1669 1.516 . S
C1670 C1671 1.502 . S
C1670 C1672 1.561 . S
C1670 C1673 1.526 . S
C1671 H1655 0.959 . S
C1671 H1656 0.959 . S
C1671 H1657 0.961 . S
C1671 C1670 1.502 . S
C1672 H1658 0.960 . S
C1672 H1659 0.961 . S
C1672 H1660 0.959 . S
C1672 C1670 1.561 . S
C1673 C1670 1.526 . S
C1673 C1674 1.396 . S
C1673 C1678 1.390 . S
C1674 C1668 1.465 . S
C1674 C1673 1.396 . S
C1674 C1675 1.399 . S
C1675 H1661 0.929 . S
C1675 C1674 1.399 . S
C1675 C1676 1.385 . S
C1676 H1662 0.931 . S
C1676 C1675 1.385 . S
C1676 C1677 1.389 . S
C1677 C1676 1.389 . S
C1677 C1678 1.387 . S
C1678 H1663 0.930 . S
C1678 C1673 1.390 . S
C1678 C1677 1.387 . S
H1679 C1691 0.930 . S
H1680 C1693 0.930 . S
H1681 C1694 0.930 . S
H1682 C1698 0.959 . S
H1683 C1698 0.959 . S
H1684 C1698 0.961 . S
H1685 C1699 0.960 . S
H1686 C1699 0.961 . S
H1687 C1699 0.959 . S
H1688 C1702 0.929 . S
H1689 C1703 0.931 . S
H1690 C1705 0.930 . S
C1691 H1679 0.930 . S
C1691 C1692 1.399 . S
C1691 C1696 1.399 . S
C1692 C1691 1.399 . S
C1692 C1693 1.376 . S
C1693 H1680 0.930 . S
C1693 C1692 1.376 . S
C1693 C1694 1.388 . S
C1694 H1681 0.930 . S
C1694 C1693 1.388 . S
C1694 C1695 1.390 . S
C1695 C1694 1.390 . S
C1695 C1696 1.394 . S
C1695 C1701 1.465 . S
C1696 C1691 1.399 . S
C1696 C1695 1.394 . S
C1696 C1697 1.516 . S
C1697 C1696 1.516 . S
C1697 C1698 1.502 . S
C1697 C1699 1.561 . S
C1697 C1700 1.526 . S
C1698 H1682 0.959 . S
C1698 H1683 0.959 . S
C1698 H1684 0.961 . S
C1698 C1697 1.502 . S
C1699 H1685 0.960 . S
C1699 H1686 0.961 . S
C1699 H1687 0.959 . S
C1699 C1697 1.561 . S
C1700 C1697 1.526 . S
C1700 C1701 1.396 . S
C1700 C1705 1.390 . S
C1701 C1695 1.465 . S
C1701 C1700 1.396 . S
C1701 C1702 1.399 . S
C1702 H1688 0.929 . S
C1702 C1701 1.399 . S
C1702 C1703 1.385 . S
C1703 H1689 0.931 . S
C1703 C1702 1.385 . S
C1703 C1704 1.389 . S
C1704 C1703 1.389 . S
C1704 C1705 1.387 . S
C1705 H1690 0.930 . S
C1705 C1700 1.390 . S
C1705 C1704 1.387 . S
H1706 C1718 0.930 . S
H1707 C1720 0.930 . S
H1708 C1721 0.930 . S
H1709 C1725 0.959 . S
H1710 C1725 0.959 . S
H1711 C1725 0.961 . S
H1712 C1726 0.960 . S
H1713 C1726 0.961 . S
H1714 C1726 0.959 . S
H1715 C1729 0.929 . S
H1716 C1730 0.931 . S
H1717 C1732 0.930 . S
C1718 H1706 0.930 . S
C1718 C1719 1.399 . S
C1718 C1723 1.399 . S
C1719 C1718 1.399 . S
C1719 C1720 1.376 . S
C1720 H1707 0.930 . S
C1720 C1719 1.376 . S
C1720 C1721 1.388 . S
C1721 H1708 0.930 . S
C1721 C1720 1.388 . S
C1721 C1722 1.390 . S
C1722 C1721 1.390 . S
C1722 C1723 1.394 . S
C1722 C1728 1.465 . S
C1723 C1718 1.399 . S
C1723 C1722 1.394 . S
C1723 C1724 1.516 . S
C1724 C1723 1.516 . S
C1724 C1725 1.502 . S
C1724 C1726 1.561 . S
C1724 C1727 1.526 . S
C1725 H1709 0.959 . S
C1725 H1710 0.959 . S
C1725 H1711 0.961 . S
C1725 C1724 1.502 . S
C1726 H1712 0.960 . S
C1726 H1713 0.961 . S
C1726 H1714 0.959 . S
C1726 C1724 1.561 . S
C1727 C1724 1.526 . S
C1727 C1728 1.396 . S
C1727 C1732 1.390 . S
C1728 C1722 1.465 . S
C1728 C1727 1.396 . S
C1728 C1729 1.399 . S
C1729 H1715 0.929 . S
C1729 C1728 1.399 . S
C1729 C1730 1.385 . S
C1730 H1716 0.931 . S
C1730 C1729 1.385 . S
C1730 C1731 1.389 . S
C1731 C1730 1.389 . S
C1731 C1732 1.387 . S
C1732 H1717 0.930 . S
C1732 C1727 1.390 . S
C1732 C1731 1.387 . S
H1733 C1745 0.930 . S
H1734 C1747 0.930 . S
H1735 C1748 0.930 . S
H1736 C1752 0.959 . S
H1737 C1752 0.959 . S
H1738 C1752 0.961 . S
H1739 C1753 0.960 . S
H1740 C1753 0.961 . S
H1741 C1753 0.959 . S
H1742 C1756 0.929 . S
H1743 C1757 0.931 . S
H1744 C1759 0.930 . S
C1745 H1733 0.930 . S
C1745 C1746 1.399 . S
C1745 C1750 1.399 . S
C1746 C1745 1.399 . S
C1746 C1747 1.376 . S
C1747 H1734 0.930 . S
C1747 C1746 1.376 . S
C1747 C1748 1.388 . S
C1748 H1735 0.930 . S
C1748 C1747 1.388 . S
C1748 C1749 1.390 . S
C1749 C1748 1.390 . S
C1749 C1750 1.394 . S
C1749 C1755 1.465 . S
C1750 C1745 1.399 . S
C1750 C1749 1.394 . S
C1750 C1751 1.516 . S
C1751 C1750 1.516 . S
C1751 C1752 1.502 . S
C1751 C1753 1.561 . S
C1751 C1754 1.526 . S
C1752 H1736 0.959 . S
C1752 H1737 0.959 . S
C1752 H1738 0.961 . S
C1752 C1751 1.502 . S
C1753 H1739 0.960 . S
C1753 H1740 0.961 . S
C1753 H1741 0.959 . S
C1753 C1751 1.561 . S
C1754 C1751 1.526 . S
C1754 C1755 1.396 . S
C1754 C1759 1.390 . S
C1755 C1749 1.465 . S
C1755 C1754 1.396 . S
C1755 C1756 1.399 . S
C1756 H1742 0.929 . S
C1756 C1755 1.399 . S
C1756 C1757 1.385 . S
C1757 H1743 0.931 . S
C1757 C1756 1.385 . S
C1757 C1758 1.389 . S
C1758 C1757 1.389 . S
C1758 C1759 1.387 . S
C1759 H1744 0.930 . S
C1759 C1754 1.390 . S
C1759 C1758 1.387 . S
H1760 C1772 0.930 . S
H1761 C1774 0.930 . S
H1762 C1775 0.926 1_655 S
H1763 C1779 0.959 . S
H1764 C1779 0.959 . S
H1765 C1779 0.961 . S
H1766 C1780 0.960 . S
H1767 C1780 0.961 . S
H1768 C1780 0.959 . S
H1769 C1783 0.929 . S
H1770 C1784 0.931 . S
H1771 C1786 0.930 . S
C1772 H1760 0.930 . S
C1772 C1773 1.399 . S
C1772 C1777 1.399 . S
C1773 C1772 1.399 . S
C1773 C1774 1.376 . S
C1774 H1761 0.930 . S
C1774 C1773 1.376 . S
C1774 C1775 1.393 . S
C1775 H1762 0.926 1_455 S
C1775 C1774 1.393 . S
C1775 C1776 1.389 1_455 S
C1776 C1775 1.389 1_655 S
C1776 C1777 1.394 1_655 S
C1776 C1782 1.465 . S
C1777 C1772 1.399 . S
C1777 C1776 1.394 1_455 S
C1777 C1778 1.516 . S
C1778 C1777 1.516 . S
C1778 C1779 1.502 . S
C1778 C1780 1.561 1_455 S
C1778 C1781 1.526 1_455 S
C1779 H1763 0.959 . S
C1779 H1764 0.959 . S
C1779 H1765 0.961 . S
C1779 C1778 1.502 . S
C1780 H1766 0.960 . S
C1780 H1767 0.961 . S
C1780 H1768 0.959 . S
C1780 C1778 1.561 1_655 S
C1781 C1778 1.526 1_655 S
C1781 C1782 1.396 . S
C1781 C1786 1.390 . S
C1782 C1776 1.465 . S
C1782 C1781 1.396 . S
C1782 C1783 1.399 . S
C1783 H1769 0.929 . S
C1783 C1782 1.399 . S
C1783 C1784 1.385 . S
C1784 H1770 0.931 . S
C1784 C1783 1.385 . S
C1784 C1785 1.389 . S
C1785 C1784 1.389 . S
C1785 C1786 1.387 . S
C1786 H1771 0.930 . S
C1786 C1781 1.390 . S
C1786 C1785 1.387 . S
H1787 C1799 0.930 . S
H1788 C1801 0.930 . S
H1789 C1802 0.930 . S
H1790 C1806 0.959 . S
H1791 C1806 0.959 . S
H1792 C1806 0.961 . S
H1793 C1807 0.960 . S
H1794 C1807 0.961 . S
H1795 C1807 0.959 . S
H1796 C1810 0.929 . S
H1797 C1811 0.931 . S
H1798 C1813 0.930 . S
C1799 H1787 0.930 . S
C1799 C1800 1.399 1_545 S
C1799 C1804 1.399 . S
C1800 C1799 1.399 1_565 S
C1800 C1801 1.376 . S
C1801 H1788 0.930 . S
C1801 C1800 1.376 . S
C1801 C1802 1.388 . S
C1802 H1789 0.930 . S
C1802 C1801 1.388 . S
C1802 C1803 1.390 . S
C1803 C1802 1.390 . S
C1803 C1804 1.394 1_565 S
C1803 C1809 1.465 . S
C1804 C1799 1.399 . S
C1804 C1803 1.394 1_545 S
C1804 C1805 1.516 . S
C1805 C1804 1.516 . S
C1805 C1806 1.502 . S
C1805 C1807 1.561 . S
C1805 C1808 1.526 . S
C1806 H1790 0.959 . S
C1806 H1791 0.959 . S
C1806 H1792 0.961 . S
C1806 C1805 1.502 . S
C1807 H1793 0.960 . S
C1807 H1794 0.961 . S
C1807 H1795 0.959 . S
C1807 C1805 1.561 . S
C1808 C1805 1.526 . S
C1808 C1809 1.396 1_545 S
C1808 C1813 1.390 . S
C1809 C1803 1.465 . S
C1809 C1808 1.396 1_565 S
C1809 C1810 1.399 . S
C1810 H1796 0.929 . S
C1810 C1809 1.399 . S
C1810 C1811 1.385 . S
C1811 H1797 0.931 . S
C1811 C1810 1.385 . S
C1811 C1812 1.389 1_565 S
C1812 C1811 1.389 1_545 S
C1812 C1813 1.387 . S
C1813 H1798 0.930 . S
C1813 C1808 1.390 . S
C1813 C1812 1.387 . S
H1814 C1826 0.930 . S
H1815 C1828 0.930 . S
H1816 C1829 0.930 . S
H1817 C1833 0.959 . S
H1818 C1833 0.959 . S
H1819 C1833 0.961 . S
H1820 C1834 0.960 . S
H1821 C1834 0.961 . S
H1822 C1834 0.959 . S
H1823 C1837 0.929 . S
H1824 C1838 0.931 . S
H1825 C1840 0.930 . S
C1826 H1814 0.930 . S
C1826 C1827 1.399 . S
C1826 C1831 1.399 . S
C1827 C1826 1.399 . S
C1827 C1828 1.376 . S
C1828 H1815 0.930 . S
C1828 C1827 1.376 . S
C1828 C1829 1.388 . S
C1829 H1816 0.930 . S
C1829 C1828 1.388 . S
C1829 C1830 1.390 . S
C1830 C1829 1.390 . S
C1830 C1831 1.394 . S
C1830 C1836 1.465 . S
C1831 C1826 1.399 . S
C1831 C1830 1.394 . S
C1831 C1832 1.516 1_455 S
C1832 C1831 1.516 1_655 S
C1832 C1833 1.502 . S
C1832 C1834 1.561 1_655 S
C1832 C1835 1.526 . S
C1833 H1817 0.959 . S
C1833 H1818 0.959 . S
C1833 H1819 0.961 . S
C1833 C1832 1.502 . S
C1834 H1820 0.960 . S
C1834 H1821 0.961 . S
C1834 H1822 0.959 . S
C1834 C1832 1.561 1_455 S
C1835 C1832 1.526 . S
C1835 C1836 1.396 1_655 S
C1835 C1840 1.390 . S
C1836 C1830 1.465 . S
C1836 C1835 1.396 1_455 S
C1836 C1837 1.399 . S
C1837 H1823 0.929 . S
C1837 C1836 1.399 . S
C1837 C1838 1.385 1_455 S
C1838 H1824 0.931 . S
C1838 C1837 1.385 1_655 S
C1838 C1839 1.389 . S
C1839 C1838 1.389 . S
C1839 C1840 1.387 . S
C1840 H1825 0.930 . S
C1840 C1835 1.390 . S
C1840 C1839 1.387 . S
H1841 C1853 0.930 . S
H1842 C1855 0.930 . S
H1843 C1856 0.930 . S
H1844 C1860 0.959 . S
H1845 C1860 0.959 . S
H1846 C1860 0.961 . S
H1847 C1861 0.960 . S
H1848 C1861 0.961 . S
H1849 C1861 0.959 . S
H1850 C1864 0.929 . S
H1851 C1865 0.931 . S
H1852 C1867 0.930 . S
C1853 H1841 0.930 . S
C1853 C1854 1.399 . S
C1853 C1858 1.399 . S
C1854 C1853 1.399 . S
C1854 C1855 1.376 . S
C1855 H1842 0.930 . S
C1855 C1854 1.376 . S
C1855 C1856 1.388 1_565 S
C1856 H1843 0.930 . S
C1856 C1855 1.388 1_545 S
C1856 C1857 1.390 . S
C1857 C1856 1.390 . S
C1857 C1858 1.394 1_545 S
C1857 C1863 1.465 . S
C1858 C1853 1.399 . S
C1858 C1857 1.394 1_565 S
C1858 C1859 1.516 . S
C1859 C1858 1.516 . S
C1859 C1860 1.502 . S
C1859 C1861 1.561 1_565 S
C1859 C1862 1.526 1_565 S
C1860 H1844 0.959 . S
C1860 H1845 0.959 . S
C1860 H1846 0.961 . S
C1860 C1859 1.502 . S
C1861 H1847 0.960 . S
C1861 H1848 0.961 . S
C1861 H1849 0.959 . S
C1861 C1859 1.561 1_545 S
C1862 C1859 1.526 1_545 S
C1862 C1863 1.396 . S
C1862 C1867 1.390 . S
C1863 C1857 1.465 . S
C1863 C1862 1.396 . S
C1863 C1864 1.399 . S
C1864 H1850 0.929 . S
C1864 C1863 1.399 . S
C1864 C1865 1.385 . S
C1865 H1851 0.931 . S
C1865 C1864 1.385 . S
C1865 C1866 1.389 . S
C1866 C1865 1.389 . S
C1866 C1867 1.387 . S
C1867 H1852 0.930 . S
C1867 C1862 1.390 . S
C1867 C1866 1.387 . S
H1868 C1880 0.930 . S
H1869 C1882 0.930 . S
H1870 C1883 0.930 . S
H1871 C1887 0.959 . S
H1872 C1887 0.959 . S
H1873 C1887 0.982 . S
H1874 C1888 0.960 . S
H1875 C1888 0.961 . S
H1876 C1888 0.959 . S
H1877 C1891 0.929 . S
H1878 C1892 0.931 . S
H1879 C1894 0.930 . S
C1880 H1868 0.930 . S
C1880 C1881 1.399 . S
C1880 C1885 1.399 . S
C1881 C1880 1.399 . S
C1881 C1882 1.376 . S
C1882 H1869 0.930 . S
C1882 C1881 1.376 . S
C1882 C1883 1.388 . S
C1883 H1870 0.930 . S
C1883 C1882 1.388 . S
C1883 C1884 1.390 . S
C1884 C1883 1.390 . S
C1884 C1885 1.394 . S
C1884 C1890 1.465 1_455 S
C1885 C1880 1.399 . S
C1885 C1884 1.394 . S
C1885 C1886 1.516 1_455 S
C1886 C1885 1.516 1_655 S
C1886 C1887 1.502 . S
C1886 C1888 1.561 . S
C1886 C1889 1.526 . S
C1887 H1871 0.959 . S
C1887 H1872 0.959 . S
C1887 H1873 0.982 . S
C1887 C1886 1.502 . S
C1888 H1874 0.960 . S
C1888 H1875 0.961 . S
C1888 H1876 0.959 . S
C1888 C1886 1.561 . S
C1889 C1886 1.526 . S
C1889 C1890 1.396 . S
C1889 C1894 1.390 . S
C1890 C1884 1.465 1_655 S
C1890 C1889 1.396 . S
C1890 C1891 1.399 . S
C1891 H1877 0.929 . S
C1891 C1890 1.399 . S
C1891 C1892 1.385 . S
C1892 H1878 0.931 . S
C1892 C1891 1.385 . S
C1892 C1893 1.389 . S
C1893 C1892 1.389 . S
C1893 C1894 1.387 . S
C1894 H1879 0.930 . S
C1894 C1889 1.390 . S
C1894 C1893 1.387 . S
H1895 C1907 0.930 . S
H1896 C1909 0.930 . S
H1897 C1910 0.930 . S
H1898 C1914 0.959 . S
H1899 C1914 0.959 1_565 S
H1900 C1914 0.961 . S
H1901 C1915 0.960 1_545 S
H1902 C1915 0.961 . S
H1903 C1915 0.959 . S
H1904 C1918 0.929 . S
H1905 C1919 0.931 . S
H1906 C1921 0.930 . S
C1907 H1895 0.930 . S
C1907 C1908 1.399 . S
C1907 C1912 1.399 . S
C1908 C1907 1.399 . S
C1908 C1909 1.376 . S
C1909 H1896 0.930 . S
C1909 C1908 1.376 . S
C1909 C1910 1.388 . S
C1910 H1897 0.930 . S
C1910 C1909 1.388 . S
C1910 C1911 1.390 . S
C1911 C1910 1.390 . S
C1911 C1912 1.394 . S
C1911 C1917 1.465 1_545 S
C1912 C1907 1.399 . S
C1912 C1911 1.394 . S
C1912 C1913 1.516 . S
C1913 C1912 1.516 . S
C1913 C1914 1.502 . S
C1913 C1915 1.561 1_545 S
C1913 C1916 1.526 1_545 S
C1914 H1898 0.959 . S
C1914 H1899 0.959 1_545 S
C1914 H1900 0.961 . S
C1914 C1913 1.502 . S
C1915 H1901 0.960 1_565 S
C1915 H1902 0.961 . S
C1915 H1903 0.959 . S
C1915 C1913 1.561 1_565 S
C1916 C1913 1.526 1_565 S
C1916 C1917 1.396 . S
C1916 C1921 1.390 . S
C1917 C1911 1.465 1_565 S
C1917 C1916 1.396 . S
C1917 C1918 1.399 . S
C1918 H1904 0.929 . S
C1918 C1917 1.399 . S
C1918 C1919 1.385 . S
C1919 H1905 0.931 . S
C1919 C1918 1.385 . S
C1919 C1920 1.389 . S
C1920 C1919 1.389 . S
C1920 C1921 1.387 . S
C1921 H1906 0.930 . S
C1921 C1916 1.390 . S
C1921 C1920 1.387 . S
H1922 C1934 0.930 . S
H1923 C1936 0.930 . S
H1924 C1937 0.930 . S
H1925 C1941 0.959 . S
H1926 C1941 0.959 . S
H1927 C1941 0.961 . S
H1928 C1942 0.960 . S
H1929 C1942 0.961 . S
H1930 C1942 0.959 . S
H1931 C1945 0.929 . S
H1932 C1946 0.931 . S
H1933 C1948 0.930 . S
C1934 H1922 0.930 . S
C1934 C1935 1.399 . S
C1934 C1939 1.399 . S
C1935 C1934 1.399 . S
C1935 C1936 1.376 . S
C1936 H1923 0.930 . S
C1936 C1935 1.376 . S
C1936 C1937 1.388 . S
C1937 H1924 0.930 . S
C1937 C1936 1.388 . S
C1937 C1938 1.390 . S
C1938 C1937 1.390 . S
C1938 C1939 1.394 . S
C1938 C1944 1.465 1_455 S
C1939 C1934 1.399 . S
C1939 C1938 1.394 . S
C1939 C1940 1.516 . S
C1940 C1939 1.516 . S
C1940 C1941 1.502 . S
C1940 C1942 1.561 . S
C1940 C1943 1.526 1_455 S
C1941 H1925 0.959 . S
C1941 H1926 0.959 . S
C1941 H1927 0.961 . S
C1941 C1940 1.502 . S
C1942 H1928 0.960 . S
C1942 H1929 0.961 . S
C1942 H1930 0.959 . S
C1942 C1940 1.561 . S
C1943 C1940 1.526 1_655 S
C1943 C1944 1.396 . S
C1943 C1948 1.390 . S
C1944 C1938 1.465 1_655 S
C1944 C1943 1.396 . S
C1944 C1945 1.399 . S
C1945 H1931 0.929 . S
C1945 C1944 1.399 . S
C1945 C1946 1.385 . S
C1946 H1932 0.931 . S
C1946 C1945 1.385 . S
C1946 C1947 1.389 . S
C1947 C1946 1.389 . S
C1947 C1948 1.387 . S
C1948 H1933 0.930 . S
C1948 C1943 1.390 . S
C1948 C1947 1.387 . S
H1949 C1961 0.930 . S
H1950 C1963 0.930 . S
H1951 C1964 0.930 . S
H1952 C1968 0.959 . S
H1953 C1968 0.959 . S
H1954 C1968 0.961 1_565 S
H1955 C1969 0.960 . S
H1956 C1969 0.961 1_545 S
H1957 C1969 0.959 . S
H1958 C1972 0.929 . S
H1959 C1973 0.931 . S
H1960 C1975 0.930 . S
C1961 H1949 0.930 . S
C1961 C1962 1.399 . S
C1961 C1966 1.399 . S
C1962 C1961 1.399 . S
C1962 C1963 1.376 . S
C1963 H1950 0.930 . S
C1963 C1962 1.376 . S
C1963 C1964 1.388 . S
C1964 H1951 0.930 . S
C1964 C1963 1.388 . S
C1964 C1965 1.390 . S
C1965 C1964 1.390 . S
C1965 C1966 1.394 . S
C1965 C1971 1.465 1_565 S
C1966 C1961 1.399 . S
C1966 C1965 1.394 . S
C1966 C1967 1.516 1_565 S
C1967 C1966 1.516 1_545 S
C1967 C1968 1.502 . S
C1967 C1969 1.561 1_545 S
C1967 C1970 1.526 . S
C1968 H1952 0.959 . S
C1968 H1953 0.959 . S
C1968 H1954 0.961 1_545 S
C1968 C1967 1.502 . S
C1969 H1955 0.960 . S
C1969 H1956 0.961 1_565 S
C1969 H1957 0.959 . S
C1969 C1967 1.561 1_565 S
C1970 C1967 1.526 . S
C1970 C1971 1.396 . S
C1970 C1975 1.390 . S
C1971 C1965 1.465 1_545 S
C1971 C1970 1.396 . S
C1971 C1972 1.399 . S
C1972 H1958 0.929 . S
C1972 C1971 1.399 . S
C1972 C1973 1.385 . S
C1973 H1959 0.931 . S
C1973 C1972 1.385 . S
C1973 C1974 1.389 . S
C1974 C1973 1.389 . S
C1974 C1975 1.387 . S
C1975 H1960 0.930 . S
C1975 C1970 1.390 . S
C1975 C1974 1.387 . S
C477 C10 1.634 . S
C489 C300 1.621 . S
C504 C39 1.627 . S
C516 C329 1.550 . S
C531 C242 1.617 . S
C543 C68 1.544 . S
C558 C271 1.639 . S
C570 C97 1.613 . S
C585 C126 1.551 . S
C597 C416 1.569 . S
C612 C445 1.548 . S
C624 C155 1.574 . S
C639 C358 1.639 . S
C651 C184 1.562 . S
C666 C213 1.576 . S
C678 C387 1.644 . S
C693 C100 1.945 . S
C705 C3 2.036 . S
C720 C13 1.888 . S
C732 C32 1.989 . S
C747 C61 2.018 . S
C759 C42 1.895 . S
C774 C90 2.011 . S
C786 C71 1.949 . S
C801 C158 1.893 . S
C813 C119 1.988 . S
C828 C148 2.014 . S
C840 C187 1.889 . S
C855 C216 1.887 . S
C867 C177 2.013 . S
C882 C129 1.901 . S
C894 C206 1.989 . S
C909 C253 1.536 . S
C921 C327 1.588 . S
C936 C240 1.515 . S
C948 C282 1.599 . S
C963 C311 1.538 . S
C975 C269 1.584 . S
C990 C298 1.552 . S
C1002 C340 1.577 . S
C1017 C369 1.536 . S
C1029 C385 1.587 . S
C1044 C414 1.552 . S
C1056 C398 1.577 . S
C1071 C443 1.558 . S
C1083 C427 1.572 . S
C1098 C356 1.515 . S
C1110 C456 1.598 . S
C1125 C380 2.023 . S
C1137 C361 1.902 . S
C1152 C409 2.005 . S
C1164 C390 1.941 . S
C1179 C419 1.893 . S
C1191 C438 1.988 . S
C1206 C448 1.946 . S
C1218 C351 2.036 . S
C1233 C322 2.026 . S
C1245 C245 1.906 . S
C1260 C274 1.942 . S
C1272 C235 2.036 . S
C1287 C303 1.895 . S
C1299 C264 1.988 . S
C1314 C332 1.942 . S
C1326 C293 2.036 . S
C1341 C166 1.600 . S
C1353 C124 1.519 . S
C1368 C153 1.536 . S
C1380 C195 1.589 . S
C1395 C224 1.536 . S
C1407 C182 1.588 . S
C1422 C211 1.547 . S
C1434 C137 1.581 . S
C1449 C108 1.600 . S
C1461 C8 1.520 . S
C1476 C37 1.515 . S
C1488 C21 1.598 . S
C1503 C66 1.547 . S
C1515 C50 1.581 . S
C1530 C95 1.542 . S
C1542 C79 1.571 . S
C1557 C150 1.369 . S
C1569 C5 1.422 . S
C1584 C179 1.363 . S
C1596 C34 1.417 . S
C1611 C208 1.417 . S
C1623 C63 1.364 . S
C1638 C121 1.365 . S
C1650 C92 1.419 . S
C1665 C382 1.373 . S
C1677 C237 1.378 . S
C1692 C266 1.423 . S
C1704 C411 1.375 . S
C1719 C295 1.363 . S
C1731 C440 1.417 . S
C1746 C324 1.416 . S
C1758 C353 1.398 . S
C1773 C15 1.519 . S
C1785 C73 1.495 . S
C1800 C102 1.492 . S
C1812 C44 1.536 . S
C1827 C131 1.535 . S
C1839 C189 1.565 . S
C1854 C218 1.527 . S
C1866 C160 1.494 . S
C1881 C305 1.566 . S
C1893 C247 1.523 . S
C1908 C334 1.529 . S
C1920 C276 1.566 . S
C1935 C421 1.492 . S
C1947 C363 1.536 . S
C1962 C392 1.524 . S
C1974 C450 1.494 . S
