# Generated by pormake.
# Topology wla, (5)-cn, num edge types: 1
# Building blocks:
#     Node 0, Type 0, BuildingBlock: XOMCOT_clean_sbu_0, # of connection points: 5
#     Node 1, Type 0, BuildingBlock: XOMCOT_clean_sbu_0, # of connection points: 5
#     Node 2, Type 0, BuildingBlock: XOMCOT_clean_sbu_0, # of connection points: 5
#     Node 3, Type 0, BuildingBlock: XOMCOT_clean_sbu_0, # of connection points: 5
#     Node 4, Type 0, BuildingBlock: XOMCOT_clean_sbu_0, # of connection points: 5
#     Node 5, Type 0, BuildingBlock: XOMCOT_clean_sbu_0, # of connection points: 5
#     Node 6, Type 0, BuildingBlock: XOMCOT_clean_sbu_0, # of connection points: 5
#     Node 7, Type 0, BuildingBlock: XOMCOT_clean_sbu_0, # of connection points: 5
#     Node 8, Type 0, BuildingBlock: XOMCOT_clean_sbu_0, # of connection points: 5
#     Node 9, Type 0, BuildingBlock: XOMCOT_clean_sbu_0, # of connection points: 5
#     Node 10, Type 0, BuildingBlock: XOMCOT_clean_sbu_0, # of connection points: 5
#     Node 11, Type 0, BuildingBlock: XOMCOT_clean_sbu_0, # of connection points: 5
#     Node 12, Type 0, BuildingBlock: XOMCOT_clean_sbu_0, # of connection points: 5
#     Node 13, Type 0, BuildingBlock: XOMCOT_clean_sbu_0, # of connection points: 5
#     Node 14, Type 0, BuildingBlock: XOMCOT_clean_sbu_0, # of connection points: 5
#     Node 15, Type 0, BuildingBlock: XOMCOT_clean_sbu_0, # of connection points: 5
#     Node 16, Type 0, BuildingBlock: XOMCOT_clean_sbu_0, # of connection points: 5
#     Node 17, Type 0, BuildingBlock: XOMCOT_clean_sbu_0, # of connection points: 5
#     Edge 18, Type (0, 0), BuildingBlock: XIVTED_clean_linker_0, # of connection points: 2
#     Edge 19, Type (0, 0), BuildingBlock: XIVTED_clean_linker_0, # of connection points: 2
#     Edge 20, Type (0, 0), BuildingBlock: XIVTED_clean_linker_0, # of connection points: 2
#     Edge 21, Type (0, 0), BuildingBlock: XIVTED_clean_linker_0, # of connection points: 2
#     Edge 22, Type (0, 0), BuildingBlock: XIVTED_clean_linker_0, # of connection points: 2
#     Edge 23, Type (0, 0), BuildingBlock: XIVTED_clean_linker_0, # of connection points: 2
#     Edge 24, Type (0, 0), BuildingBlock: XIVTED_clean_linker_0, # of connection points: 2
#     Edge 25, Type (0, 0), BuildingBlock: XIVTED_clean_linker_0, # of connection points: 2
#     Edge 26, Type (0, 0), BuildingBlock: XIVTED_clean_linker_0, # of connection points: 2
#     Edge 27, Type (0, 0), BuildingBlock: XIVTED_clean_linker_0, # of connection points: 2
#     Edge 28, Type (0, 0), BuildingBlock: XIVTED_clean_linker_0, # of connection points: 2
#     Edge 29, Type (0, 0), BuildingBlock: XIVTED_clean_linker_0, # of connection points: 2
#     Edge 30, Type (0, 0), BuildingBlock: XIVTED_clean_linker_0, # of connection points: 2
#     Edge 31, Type (0, 0), BuildingBlock: XIVTED_clean_linker_0, # of connection points: 2
#     Edge 32, Type (0, 0), BuildingBlock: XIVTED_clean_linker_0, # of connection points: 2
#     Edge 33, Type (0, 0), BuildingBlock: XIVTED_clean_linker_0, # of connection points: 2
#     Edge 34, Type (0, 0), BuildingBlock: XIVTED_clean_linker_0, # of connection points: 2
#     Edge 35, Type (0, 0), BuildingBlock: XIVTED_clean_linker_0, # of connection points: 2
#     Edge 36, Type (0, 0), BuildingBlock: XIVTED_clean_linker_0, # of connection points: 2
#     Edge 37, Type (0, 0), BuildingBlock: XIVTED_clean_linker_0, # of connection points: 2
#     Edge 38, Type (0, 0), BuildingBlock: XIVTED_clean_linker_0, # of connection points: 2
#     Edge 39, Type (0, 0), BuildingBlock: XIVTED_clean_linker_0, # of connection points: 2
#     Edge 40, Type (0, 0), BuildingBlock: XIVTED_clean_linker_0, # of connection points: 2
#     Edge 41, Type (0, 0), BuildingBlock: XIVTED_clean_linker_0, # of connection points: 2
#     Edge 42, Type (0, 0), BuildingBlock: XIVTED_clean_linker_0, # of connection points: 2
#     Edge 43, Type (0, 0), BuildingBlock: XIVTED_clean_linker_0, # of connection points: 2
#     Edge 44, Type (0, 0), BuildingBlock: XIVTED_clean_linker_0, # of connection points: 2
#     Edge 45, Type (0, 0), BuildingBlock: XIVTED_clean_linker_0, # of connection points: 2
#     Edge 46, Type (0, 0), BuildingBlock: XIVTED_clean_linker_0, # of connection points: 2
#     Edge 47, Type (0, 0), BuildingBlock: XIVTED_clean_linker_0, # of connection points: 2
#     Edge 48, Type (0, 0), BuildingBlock: XIVTED_clean_linker_0, # of connection points: 2
#     Edge 49, Type (0, 0), BuildingBlock: XIVTED_clean_linker_0, # of connection points: 2
#     Edge 50, Type (0, 0), BuildingBlock: XIVTED_clean_linker_0, # of connection points: 2
#     Edge 51, Type (0, 0), BuildingBlock: XIVTED_clean_linker_0, # of connection points: 2
#     Edge 52, Type (0, 0), BuildingBlock: XIVTED_clean_linker_0, # of connection points: 2
#     Edge 53, Type (0, 0), BuildingBlock: XIVTED_clean_linker_0, # of connection points: 2
#     Edge 54, Type (0, 0), BuildingBlock: XIVTED_clean_linker_0, # of connection points: 2
#     Edge 55, Type (0, 0), BuildingBlock: XIVTED_clean_linker_0, # of connection points: 2
#     Edge 56, Type (0, 0), BuildingBlock: XIVTED_clean_linker_0, # of connection points: 2
#     Edge 57, Type (0, 0), BuildingBlock: XIVTED_clean_linker_0, # of connection points: 2
#     Edge 58, Type (0, 0), BuildingBlock: XIVTED_clean_linker_0, # of connection points: 2
#     Edge 59, Type (0, 0), BuildingBlock: XIVTED_clean_linker_0, # of connection points: 2
#     Edge 60, Type (0, 0), BuildingBlock: XIVTED_clean_linker_0, # of connection points: 2
#     Edge 61, Type (0, 0), BuildingBlock: XIVTED_clean_linker_0, # of connection points: 2
#     Edge 62, Type (0, 0), BuildingBlock: XIVTED_clean_linker_0, # of connection points: 2
# Relax obj value: 0.271
# Max RMSD: 0.259
# Mean RMSD: 0.259
data_MOF--net-wla--node1-XOMCOT_clean_sbu_0--edge1-XIVTED_clean_linker_0
_symmetry_space_group_name_H-M    P1
_symmetry_Int_Tables_number       1
_symmetry_cell_setting            triclinic
loop_
_symmetry_equiv_pos_as_xyz
'x, y, z'
_cell_length_a     59.10849
_cell_length_b     59.165591
_cell_length_c     31.567458
_cell_angle_alpha  90.039352
_cell_angle_beta   89.918108
_cell_angle_gamma 120.0373
loop_
_atom_site_label
_atom_site_type_symbol
_atom_site_fract_x
_atom_site_fract_y
_atom_site_fract_z
_atom_type_partial_charge
Co0 Co 0.16995 0.03269 0.22779 0.0
C1 C 0.2229 0.07518 0.20375 0.0
C2 C 0.1929 0.08302 0.1836 0.0
C3 C 0.2165 0.1026 0.1686 0.0
N4 N 0.19699 0.06614 0.20652 0.0
N5 N 0.23525 0.09748 0.1811 0.0
H6 H 0.23253 0.06527 0.2164 0.0
H7 H 0.17392 0.08068 0.17681 0.0
C8 C 0.15761 0.07224 0.2635 0.0
O9 O 0.18234 0.08724 0.27364 0.0
N10 N 0.14296 0.9992 0.2479 0.0
C11 C 0.14596 0.97868 0.25768 0.0
C12 C 0.12189 0.95777 0.26777 0.0
C13 C 0.11727 0.99072 0.25258 0.0
N14 N 0.10402 0.96549 0.26477 0.0
C15 C 0.20841 0.03277 0.2839 0.0
C16 C 0.18662 0.03857 0.35768 0.0
C17 C 0.20773 0.03425 0.36046 0.0
C18 C 0.21868 0.03122 0.32307 0.0
C19 C 0.17649 0.03916 0.31823 0.0
N20 N 0.18781 0.03717 0.28168 0.0
H21 H 0.21605 0.02885 0.25555 0.0
H22 H 0.15843 0.03942 0.31778 0.0
H23 H 0.16429 0.97875 0.25651 0.0
H24 H 0.10826 0.00231 0.24547 0.0
O25 O 0.18502 0.01572 0.19441 0.0
O26 O 0.15458 0.02459 0.17264 0.0
O27 O 0.14953 0.04935 0.24873 0.0
C28 C 0.16951 0.01489 0.16438 0.0
H29 H 0.21946 0.11855 0.14817 0.0
H30 H 0.1177 0.93829 0.276 0.0
H31 H 0.17684 0.03972 0.386 0.0
H32 H 0.23447 0.02693 0.32417 0.0
Co33 Co 0.97527 0.14542 0.19601 0.0
C34 C 0.93012 0.15365 0.2073 0.0
C35 C 0.91787 0.11359 0.19513 0.0
C36 C 0.89608 0.11625 0.19644 0.0
N37 N 0.93924 0.13694 0.20308 0.0
N38 N 0.90383 0.14154 0.20393 0.0
H39 H 0.94247 0.17453 0.20875 0.0
H40 H 0.91812 0.09606 0.18633 0.0
C41 C 0.95071 0.09496 0.24591 0.0
O42 O 0.94077 0.10398 0.27397 0.0
N43 N 0.01107 0.15372 0.18836 0.0
C44 C 0.03212 0.17786 0.18582 0.0
C45 C 0.05435 0.17602 0.18981 0.0
C46 C 0.02076 0.13755 0.19358 0.0
N47 N 0.04713 0.15065 0.19508 0.0
C48 C 0.98592 0.18415 0.26009 0.0
C49 C 0.0029 0.16249 0.32087 0.0
C50 C 0.00271 0.18552 0.33045 0.0
C51 C 0.99421 0.19646 0.29941 0.0
C52 C 0.99436 0.15082 0.28139 0.0
N53 N 0.98492 0.16098 0.2521 0.0
H54 H 0.98131 0.19386 0.23564 0.0
H55 H 0.99606 0.13392 0.27422 0.0
H56 H 0.03138 0.19573 0.18389 0.0
H57 H 0.00881 0.11685 0.19938 0.0
O58 O 0.98225 0.17583 0.16234 0.0
O59 O 0.96789 0.13571 0.13787 0.0
O60 O 0.96568 0.10964 0.21656 0.0
C61 C 0.97447 0.15978 0.13027 0.0
H62 H 0.87625 0.1009 0.19044 0.0
H63 H 0.07419 0.19224 0.19049 0.0
H64 H 0.00958 0.15347 0.3437 0.0
H65 H 0.99466 0.21475 0.30499 0.0
Co66 Co 0.86435 0.83297 0.2022 0.0
C67 C 0.8501 0.7774 0.20367 0.0
C68 C 0.8914 0.80262 0.20903 0.0
C69 C 0.8864 0.77741 0.20478 0.0
N70 N 0.86857 0.80266 0.20936 0.0
N71 N 0.86039 0.7616 0.20124 0.0
H72 H 0.82985 0.7709 0.19696 0.0
H73 H 0.9106 0.81975 0.20823 0.0
C74 C 0.91064 0.85444 0.26204 0.0
O75 O 0.89761 0.83599 0.29005 0.0
N76 N 0.86034 0.86319 0.19387 0.0
C77 C 0.83818 0.86306 0.1831 0.0
C78 C 0.84273 0.88827 0.18444 0.0
C79 C 0.878 0.88842 0.20179 0.0
N80 N 0.86764 0.90396 0.19667 0.0
C81 C 0.82399 0.80429 0.26531 0.0
C82 C 0.84268 0.84465 0.32333 0.0
C83 C 0.82032 0.82102 0.33358 0.0
C84 C 0.81093 0.80059 0.30407 0.0
C85 C 0.85525 0.84737 0.28481 0.0
N86 N 0.84643 0.82716 0.25662 0.0
H87 H 0.8156 0.78898 0.24208 0.0
H88 H 0.87226 0.86595 0.27785 0.0
H89 H 0.81967 0.84578 0.17629 0.0
H90 H 0.89778 0.89535 0.21242 0.0
O91 O 0.83494 0.81301 0.16396 0.0
O92 O 0.87664 0.83596 0.14527 0.0
O93 O 0.89977 0.85578 0.22799 0.0
C94 C 0.85251 0.82104 0.13394 0.0
H95 H 0.90091 0.77141 0.20221 0.0
H96 H 0.82858 0.89447 0.17887 0.0
H97 H 0.85062 0.86098 0.34516 0.0
H98 H 0.79331 0.78221 0.31042 0.0
Co99 Co 0.02526 0.17366 0.77393 0.0
C100 C 0.07071 0.22676 0.7908 0.0
C101 C 0.07104 0.19714 0.82936 0.0
C102 C 0.09165 0.22095 0.84132 0.0
N103 N 0.05797 0.20076 0.7975 0.0
N104 N 0.09138 0.23946 0.81688 0.0
H105 H 0.06456 0.23662 0.76906 0.0
H106 H 0.06554 0.17846 0.84359 0.0
C107 C 0.06539 0.15951 0.751 0.0
O108 O 0.08082 0.18409 0.74054 0.0
N109 N 0.99257 0.14647 0.75189 0.0
C110 C 0.9747 0.14947 0.73005 0.0
C111 C 0.95377 0.12512 0.72145 0.0
C112 C 0.9824 0.12057 0.75656 0.0
N113 N 0.95865 0.10699 0.73816 0.0
C114 C 0.03116 0.21062 0.70948 0.0
C115 C 0.03863 0.18467 0.64305 0.0
C116 C 0.03717 0.2071 0.63447 0.0
C117 C 0.03329 0.22013 0.66826 0.0
C118 C 0.03603 0.17567 0.68446 0.0
N119 N 0.03341 0.18913 0.7175 0.0
H120 H 0.02657 0.21998 0.73472 0.0
H121 H 0.03453 0.15694 0.68921 0.0
H122 H 0.97668 0.16803 0.72125 0.0
H123 H 0.99194 0.11196 0.774 0.0
O124 O 0.00776 0.1912 0.79746 0.0
O125 O 0.01342 0.1611 0.83016 0.0
O126 O 0.04186 0.15161 0.76255 0.0
C127 C 0.00448 0.17716 0.83108 0.0
H128 H 0.10551 0.22443 0.86638 0.0
H129 H 0.93639 0.12114 0.70406 0.0
H130 H 0.04017 0.17319 0.61763 0.0
H131 H 0.03121 0.23707 0.66277 0.0
Co132 Co 0.83153 0.86127 0.7725 0.0
C133 C 0.77705 0.84794 0.79612 0.0
C134 C 0.80675 0.87991 0.83174 0.0
C135 C 0.78282 0.8742 0.84759 0.0
N136 N 0.80322 0.8635 0.79945 0.0
N137 N 0.76426 0.85417 0.82511 0.0
H138 H 0.76741 0.83166 0.77465 0.0
H139 H 0.82558 0.89461 0.84372 0.0
C140 C 0.83953 0.91381 0.7495 0.0
O141 O 0.81422 0.90315 0.74357 0.0
N142 N 0.86032 0.85964 0.74709 0.0
C143 C 0.85966 0.84171 0.71997 0.0
C144 C 0.88494 0.84929 0.70797 0.0
C145 C 0.88574 0.87757 0.7517 0.0
N146 N 0.90121 0.87179 0.72811 0.0
C147 C 0.79406 0.82617 0.71136 0.0
C148 C 0.81435 0.85979 0.64317 0.0
C149 C 0.79429 0.83422 0.6361 0.0
C150 C 0.78409 0.81718 0.67064 0.0
C151 C 0.82424 0.86768 0.68382 0.0
N152 N 0.81367 0.85132 0.7178 0.0
H153 H 0.78689 0.81249 0.73736 0.0
H154 H 0.84167 0.88643 0.68687 0.0
H155 H 0.8421 0.82448 0.70941 0.0
H156 H 0.89273 0.89473 0.7715 0.0
O157 O 0.81865 0.82703 0.7982 0.0
O158 O 0.84721 0.86497 0.82711 0.0
O159 O 0.84946 0.89965 0.75907 0.0
C160 C 0.8335 0.83976 0.83024 0.0
H161 H 0.77929 0.88375 0.87394 0.0
H162 H 0.89093 0.83889 0.68672 0.0
H163 H 0.82353 0.87313 0.61693 0.0
H164 H 0.76908 0.797 0.66606 0.0
Co165 Co 0.14021 0.97198 0.78696 0.0
C166 C 0.15239 0.93009 0.79458 0.0
C167 C 0.1113 0.91532 0.80305 0.0
C168 C 0.11628 0.8951 0.80878 0.0
N169 N 0.13401 0.9371 0.79409 0.0
N170 N 0.14217 0.90452 0.80362 0.0
H171 H 0.17288 0.94363 0.78886 0.0
H172 H 0.09262 0.91436 0.80636 0.0
C173 C 0.09593 0.96375 0.72778 0.0
O174 O 0.11129 0.98306 0.70253 0.0
N175 N 0.14657 0.00737 0.7805 0.0
C176 C 0.16999 0.02943 0.77808 0.0
C177 C 0.16626 0.05045 0.77556 0.0
C178 C 0.12892 0.01555 0.78138 0.0
N179 N 0.1404 0.0418 0.77754 0.0
C180 C 0.185 0.99046 0.73214 0.0
C181 C 0.15798 0.96318 0.66103 0.0
C182 C 0.18439 0.98232 0.65694 0.0
C183 C 0.19822 0.99523 0.69355 0.0
C184 C 0.14556 0.95921 0.70023 0.0
N185 N 0.15856 0.97448 0.73425 0.0
H186 H 0.19607 -0.00015 0.76024 0.0
H187 H 0.12537 0.94409 0.70283 0.0
H188 H 0.18877 0.0307 0.7796 0.0
H189 H 0.10817 0.00262 0.78576 0.0
O190 O 0.16882 0.98442 0.82771 0.0
O191 O 0.12731 0.97084 0.84278 0.0
O192 O 0.10519 0.95724 0.75889 0.0
C193 C 0.15093 0.97942 0.8563 0.0
H194 H 0.10208 0.87528 0.81756 0.0
H195 H 0.18161 0.07058 0.77246 0.0
H196 H 0.14663 0.95213 0.63389 0.0
H197 H 0.21897 0.00917 0.69226 0.0
Co198 Co 0.83166 0.35664 0.54797 0.0
C199 C 0.88709 0.39907 0.54605 0.0
C200 C 0.86106 0.41423 0.55027 0.0
C201 C 0.88605 0.4348 0.5449 0.0
N202 N 0.8617 0.39175 0.55239 0.0
N203 N 0.90238 0.42519 0.54197 0.0
H204 H 0.89408 0.38556 0.54124 0.0
H205 H 0.84353 0.41561 0.54922 0.0
C206 C 0.81211 0.38236 0.60875 0.0
O207 O 0.83355 0.39119 0.63136 0.0
N208 N 0.80187 0.32201 0.54213 0.0
C209 C 0.80199 0.2994 0.54647 0.0
C210 C 0.77651 0.27921 0.5485 0.0
C211 C 0.7765 0.31533 0.5405 0.0
N212 N 0.76063 0.28934 0.5448 0.0
C213 C 0.86233 0.34645 0.60903 0.0
C214 C 0.82317 0.32496 0.66936 0.0
C215 C 0.84707 0.32646 0.67788 0.0
C216 C 0.86691 0.33742 0.64731 0.0
C217 C 0.81963 0.33463 0.63135 0.0
N218 N 0.83925 0.34587 0.60201 0.0
H219 H 0.87704 0.35303 0.58477 0.0
H220 H 0.80067 0.33241 0.62512 0.0
H221 H 0.81936 0.29791 0.55055 0.0
H222 H 0.76975 0.32925 0.53899 0.0
O223 O 0.85103 0.34712 0.50883 0.0
O224 O 0.82678 0.3647 0.49143 0.0
O225 O 0.80866 0.36834 0.57602 0.0
C226 C 0.84199 0.35596 0.47937 0.0
H227 H 0.89147 0.45502 0.54022 0.0
H228 H 0.77013 0.2588 0.55375 0.0
H229 H 0.80729 0.31649 0.69208 0.0
H230 H 0.88546 0.33833 0.65249 0.0
Co231 Co 0.6398 0.47225 0.56282 0.0
C232 C 0.59959 0.48557 0.5419 0.0
C233 C 0.58863 0.44698 0.52039 0.0
C234 C 0.56907 0.45218 0.50973 0.0
N235 N 0.60757 0.46791 0.54072 0.0
N236 N 0.57607 0.47647 0.52326 0.0
H237 H 0.61071 0.50455 0.55667 0.0
H238 H 0.58908 0.4293 0.51357 0.0
C239 C 0.61917 0.42145 0.61194 0.0
O240 O 0.63142 0.4336 0.64672 0.0
N241 N 0.6727 0.47655 0.58411 0.0
C242 C 0.69519 0.49917 0.591 0.0
C243 C 0.71447 0.49377 0.60198 0.0
C244 C 0.67922 0.45782 0.58881 0.0
N245 N 0.70438 0.46772 0.60074 0.0
C246 C 0.64945 0.50632 0.6338 0.0
C247 C 0.60507 0.47287 0.67888 0.0
C248 C 0.62456 0.49543 0.699 0.0
C249 C 0.64645 0.51282 0.67504 0.0
C250 C 0.6091 0.46702 0.63761 0.0
N251 N 0.63208 0.48267 0.617 0.0
H252 H 0.66603 0.5202 0.61573 0.0
H253 H 0.59408 0.4494 0.62279 0.0
H254 H 0.69817 0.5185 0.58585 0.0
H255 H 0.66617 0.43742 0.58215 0.0
O256 O 0.65839 0.50598 0.53478 0.0
O257 O 0.64984 0.4679 0.50716 0.0
O258 O 0.62082 0.4342 0.57838 0.0
C259 C 0.66012 0.49297 0.50279 0.0
H260 H 0.55134 0.43927 0.49268 0.0
H261 H 0.73471 0.50805 0.60813 0.0
H262 H 0.58717 0.45945 0.69516 0.0
H263 H 0.66187 0.53082 0.6884 0.0
Co264 Co 0.51577 0.15945 0.53642 0.0
C265 C 0.50585 0.10685 0.51432 0.0
C266 C 0.53857 0.13688 0.48013 0.0
C267 C 0.53434 0.11298 0.46639 0.0
N268 N 0.52066 0.13292 0.51003 0.0
N269 N 0.51389 0.09426 0.4881 0.0
H270 H 0.48909 0.09729 0.53516 0.0
H271 H 0.55327 0.15583 0.46854 0.0
C272 C 0.56725 0.19215 0.58132 0.0
O273 O 0.55526 0.1922 0.61637 0.0
N274 N 0.5115 0.18709 0.56181 0.0
C275 C 0.49106 0.18592 0.58303 0.0
C276 C 0.49723 0.21078 0.59479 0.0
C277 C 0.52912 0.21282 0.55908 0.0
N278 N 0.52119 0.22759 0.57974 0.0
C279 C 0.48317 0.13041 0.6066 0.0
C280 C 0.52103 0.12648 0.65147 0.0
C281 C 0.49784 0.12107 0.67249 0.0
C282 C 0.47813 0.1216 0.64841 0.0
C283 C 0.52536 0.13578 0.60983 0.0
N284 N 0.50754 0.14026 0.58972 0.0
H285 H 0.4677 0.13019 0.5883 0.0
H286 H 0.54348 0.14032 0.59443 0.0
H287 H 0.47248 0.16867 0.58864 0.0
H288 H 0.54758 0.22061 0.54255 0.0
O289 O 0.48108 0.14365 0.5116 0.0
O290 O 0.51771 0.17461 0.48197 0.0
O291 O 0.55432 0.17962 0.54869 0.0
C292 C 0.49266 0.15886 0.47933 0.0
H293 H 0.54539 0.10958 0.44236 0.0
H294 H 0.48477 0.21615 0.61202 0.0
H295 H 0.53617 0.12455 0.6674 0.0
H296 H 0.45942 0.11671 0.66199 0.0
Co297 Co 0.6967 0.50034 0.1329 0.0
C298 C 0.736 0.5562 0.12712 0.0
C299 C 0.75363 0.53219 0.12266 0.0
C300 C 0.77315 0.55792 0.12365 0.0
N301 N 0.73039 0.5312 0.12475 0.0
N302 N 0.76203 0.57297 0.12683 0.0
H303 H 0.7213 0.56187 0.13064 0.0
H304 H 0.75634 0.51542 0.12281 0.0
C305 C 0.70988 0.46786 0.07074 0.0
O306 O 0.69716 0.46937 0.03784 0.0
N307 N 0.66305 0.46877 0.14212 0.0
C308 C 0.64731 0.4624 0.17648 0.0
C309 C 0.62663 0.43748 0.17163 0.0
C310 C 0.65118 0.44766 0.11654 0.0
N311 N 0.62915 0.42832 0.13396 0.0
C312 C 0.65914 0.50266 0.07841 0.0
C313 C 0.69059 0.52055 0.00728 0.0
C314 C 0.66427 0.51369 0.00397 0.0
C315 C 0.64863 0.50525 0.04037 0.0
C316 C 0.70019 0.51727 0.04576 0.0
N317 N 0.68413 0.50712 0.08015 0.0
H318 H 0.64692 0.49644 0.10635 0.0
H319 H 0.72022 0.52157 0.04711 0.0
H320 H 0.65056 0.47454 0.20391 0.0
H321 H 0.65871 0.44595 0.08638 0.0
O322 O 0.68717 0.51972 0.1719 0.0
O323 O 0.7074 0.49791 0.18902 0.0
O324 O 0.71029 0.47866 0.10596 0.0
C325 C 0.69838 0.51294 0.2009 0.0
H326 H 0.79391 0.56485 0.12478 0.0
H327 H 0.61123 0.42667 0.19444 0.0
H328 H 0.70335 0.52717 0.97987 0.0
H329 H 0.62837 0.5004 0.03931 0.0
Co330 Co 0.49386 0.19064 0.11205 0.0
C331 C 0.43949 0.17995 0.10492 0.0
C332 C 0.46652 0.22081 0.11098 0.0
C333 C 0.44161 0.21697 0.11264 0.0
N334 N 0.46529 0.19765 0.10495 0.0
N335 N 0.42452 0.19116 0.10918 0.0
H336 H 0.43187 0.15918 0.10623 0.0
H337 H 0.48417 0.2391 0.11715 0.0
C338 C 0.51951 0.24124 0.06161 0.0
O339 O 0.50012 0.23233 0.03441 0.0
N340 N 0.5221 0.18358 0.11995 0.0
C341 C 0.52073 0.16045 0.11294 0.0
C342 C 0.54575 0.16447 0.11033 0.0
C343 C 0.54778 0.20121 0.12265 0.0
N344 N 0.56261 0.1901 0.11633 0.0
C345 C 0.46695 0.1528 0.04526 0.0
C346 C 0.5083 0.17484 0.9889 0.0
C347 C 0.48573 0.15168 0.9774 0.0
C348 C 0.46473 0.14069 0.00605 0.0
C349 C 0.50968 0.18618 0.02808 0.0
N350 N 0.48899 0.17565 0.05548 0.0
H351 H 0.45142 0.14311 0.06799 0.0
H352 H 0.52805 0.20292 0.03694 0.0
H353 H 0.50288 0.14233 0.10663 0.0
H354 H 0.55557 0.22199 0.12557 0.0
O355 O 0.47122 0.15979 0.14596 0.0
O356 O 0.49568 0.2002 0.17015 0.0
O357 O 0.51958 0.22674 0.09146 0.0
C358 C 0.47895 0.17593 0.178 0.0
H359 H 0.43668 0.23201 0.11837 0.0
H360 H 0.55116 0.15 0.10241 0.0
H361 H 0.52505 0.18412 0.96797 0.0
H362 H 0.44717 0.12244 -0.00109 0.0
Co363 Co 0.80542 0.30048 0.11415 0.0
C364 C 0.81814 0.26098 0.14297 0.0
C365 C 0.77797 0.24915 0.15537 0.0
C366 C 0.7826 0.22983 0.16954 0.0
N367 N 0.80022 0.26848 0.13849 0.0
N368 N 0.80786 0.23741 0.16182 0.0
H369 H 0.83818 0.27242 0.1323 0.0
H370 H 0.75971 0.24915 0.1576 0.0
C371 C 0.75479 0.28435 0.06712 0.0
O372 O 0.76674 0.29925 0.0343 0.0
N373 N 0.81006 0.33272 0.09024 0.0
C374 C 0.8283 0.34976 0.06307 0.0
C375 C 0.82258 0.36908 0.05354 0.0
C376 C 0.79408 0.3424 0.09777 0.0
N377 N 0.80104 0.36432 0.07536 0.0
C378 C 0.84327 0.3047 0.0532 0.0
C379 C 0.80837 0.27175 0.99329 0.0
C380 C 0.83471 0.28768 0.98169 0.0
C381 C 0.85247 0.303 0.01328 0.0
C382 C 0.80015 0.27371 0.03398 0.0
N383 N 0.81713 0.29201 0.06178 0.0
H384 H 0.85717 0.31772 0.07624 0.0
H385 H 0.77996 0.26101 0.04228 0.0
H386 H 0.84473 0.34869 0.05079 0.0
H387 H 0.77709 0.33298 0.11816 0.0
O388 O 0.83859 0.31956 0.1439 0.0
O389 O 0.80001 0.31128 0.16864 0.0
O390 O 0.76761 0.28196 0.09752 0.0
C391 C 0.82496 0.3216 0.17455 0.0
H392 H 0.76864 0.21184 0.18499 0.0
H393 H 0.83355 0.38546 0.03251 0.0
H394 H 0.79385 0.25889 0.97072 0.0
H395 H 0.8732 0.31456 0.0068 0.0
Co396 Co 0.50347 0.69642 0.87794 0.0
C397 C 0.55816 0.74033 0.88375 0.0
C398 C 0.53105 0.75333 0.87007 0.0
C399 C 0.55597 0.7742 0.86564 0.0
N400 N 0.53234 0.73206 0.88196 0.0
N401 N 0.57289 0.7659 0.87437 0.0
H402 H 0.56625 0.72769 0.88706 0.0
H403 H 0.51324 0.75322 0.86186 0.0
C404 C 0.48333 0.72372 0.93294 0.0
O405 O 0.50516 0.73381 0.95477 0.0
N406 N 0.4749 0.66109 0.87265 0.0
C407 C 0.47716 0.63957 0.87324 0.0
C408 C 0.45258 0.618 0.87499 0.0
C409 C 0.44903 0.65242 0.87376 0.0
N410 N 0.43483 0.62604 0.87555 0.0
C411 C 0.53275 0.68518 0.93984 0.0
C412 C 0.49448 0.66768 0.00162 0.0
C413 C 0.5175 0.66731 0.00987 0.0
C414 C 0.53689 0.67623 0.97854 0.0
C415 C 0.49138 0.67718 0.96309 0.0
N416 N 0.51074 0.68675 0.93318 0.0
H417 H 0.54665 0.68956 0.91472 0.0
H418 H 0.47279 0.67579 0.95687 0.0
H419 H 0.49547 0.63963 0.87453 0.0
H420 H 0.4409 0.6652 0.87449 0.0
O421 O 0.52454 0.68773 0.84115 0.0
O422 O 0.49905 0.70325 0.82036 0.0
O423 O 0.47925 0.70762 0.90296 0.0
C424 C 0.51537 0.6955 0.81031 0.0
H425 H 0.56126 0.79355 0.85459 0.0
H426 H 0.44832 0.59804 0.87788 0.0
H427 H 0.47884 0.66056 0.02476 0.0
H428 H 0.55459 0.67537 0.98332 0.0
Co429 Co 0.30787 0.81077 0.88686 0.0
C430 C 0.26722 0.8232 0.86385 0.0
C431 C 0.25707 0.78458 0.84372 0.0
C432 C 0.23748 0.78935 0.83148 0.0
N433 N 0.27552 0.80579 0.86414 0.0
N434 N 0.24394 0.81366 0.84415 0.0
H435 H 0.278 0.84235 0.87814 0.0
H436 H 0.25796 0.76704 0.8377 0.0
C437 C 0.28808 0.76168 0.93965 0.0
O438 O 0.30095 0.77514 0.97317 0.0
N439 N 0.34084 0.81544 0.90844 0.0
C440 C 0.36347 0.83807 0.91452 0.0
C441 C 0.38288 0.83264 0.92454 0.0
C442 C 0.3474 0.7967 0.91256 0.0
N443 N 0.37272 0.80657 0.92336 0.0
C444 C 0.31782 0.84592 0.95673 0.0
C445 C 0.2727 0.81355 0.00099 0.0
C446 C 0.29237 0.83593 0.02128 0.0
C447 C 0.31465 0.85284 0.99764 0.0
C448 C 0.27698 0.80717 0.96031 0.0
N449 N 0.30026 0.82228 0.94011 0.0
H450 H 0.33468 0.85945 0.93885 0.0
H451 H 0.26193 0.78949 0.94566 0.0
H452 H 0.36648 0.85738 0.90902 0.0
H453 H 0.33424 0.7763 0.90601 0.0
O454 O 0.32626 0.84388 0.85701 0.0
O455 O 0.31767 0.80523 0.83179 0.0
O456 O 0.28903 0.77316 0.90494 0.0
C457 C 0.3278 0.83017 0.82594 0.0
H458 H 0.22014 0.77613 0.81384 0.0
H459 H 0.40325 0.84689 0.92969 0.0
H460 H 0.25447 0.80053 0.01681 0.0
H461 H 0.33022 0.87072 0.01103 0.0
Co462 Co 0.18933 0.4988 0.89036 0.0
C463 C 0.1793 0.44511 0.87094 0.0
C464 C 0.20944 0.47452 0.83214 0.0
C465 C 0.20554 0.45056 0.8196 0.0
N466 N 0.19307 0.47112 0.86447 0.0
N467 N 0.18665 0.43217 0.84416 0.0
H468 H 0.16362 0.43551 0.89347 0.0
H469 H 0.22315 0.4932 0.81836 0.0
C470 C 0.24258 0.5089 0.91325 0.0
O471 O 0.23256 0.48379 0.92032 0.0
N472 N 0.18595 0.52674 0.91493 0.0
C473 C 0.16663 0.52494 0.93997 0.0
C474 C 0.17265 0.54978 0.95176 0.0
C475 C 0.20319 0.55241 0.91129 0.0
N476 N 0.19559 0.56694 0.93357 0.0
C477 C 0.15438 0.46108 0.95101 0.0
C478 C 0.18762 0.48093 0.01963 0.0
C479 C 0.16219 0.4603 0.02598 0.0
C480 C 0.14534 0.45039 0.99126 0.0
C481 C 0.19559 0.49149 0.9793 0.0
N482 N 0.17945 0.48104 0.9451 0.0
H483 H 0.14087 0.45385 0.9248 0.0
H484 H 0.21425 0.50908 0.97659 0.0
H485 H 0.14944 0.5069 0.94912 0.0
H486 H 0.22111 0.56025 0.89315 0.0
O487 O 0.1551 0.48447 0.86408 0.0
O488 O 0.19279 0.51402 0.83547 0.0
O489 O 0.22776 0.51816 0.90419 0.0
C490 C 0.16765 0.49937 0.83202 0.0
H491 H 0.21572 0.44693 0.79435 0.0
H492 H 0.16088 0.55486 0.97155 0.0
H493 H 0.20077 0.48986 0.04615 0.0
H494 H 0.12528 0.43493 0.99534 0.0
Co495 Co 0.36246 0.83179 0.45238 0.0
C496 C 0.40564 0.88688 0.44457 0.0
C497 C 0.41878 0.8612 0.46683 0.0
C498 C 0.43925 0.88641 0.46951 0.0
N499 N 0.39769 0.86143 0.45095 0.0
N500 N 0.43088 0.90242 0.45542 0.0
H501 H 0.39299 0.89431 0.43581 0.0
H502 H 0.41879 0.84394 0.4781 0.0
C503 C 0.39353 0.81525 0.39898 0.0
O504 O 0.40438 0.83796 0.37966 0.0
N505 N 0.32743 0.80226 0.45473 0.0
C506 C 0.30528 0.80345 0.45681 0.0
C507 C 0.28432 0.77884 0.45013 0.0
C508 C 0.3197 0.77702 0.44697 0.0
N509 N 0.29345 0.76229 0.44365 0.0
C510 C 0.34865 0.86049 0.39374 0.0
C511 C 0.33625 0.82557 0.32773 0.0
C512 C 0.33191 0.84656 0.32283 0.0
C513 C 0.33852 0.86444 0.3561 0.0
C514 C 0.34662 0.82257 0.36533 0.0
N515 N 0.35342 0.84023 0.39757 0.0
H516 H 0.35128 0.87293 0.42048 0.0
H517 H 0.34754 0.80496 0.36904 0.0
H518 H 0.30448 0.82119 0.46079 0.0
H519 H 0.33301 0.76981 0.4414 0.0
O520 O 0.35221 0.85111 0.49042 0.0
O521 O 0.36831 0.82592 0.50977 0.0
O522 O 0.37559 0.8094 0.42649 0.0
C523 C 0.35987 0.84153 0.52077 0.0
H524 H 0.45841 0.89261 0.48259 0.0
H525 H 0.26401 0.77372 0.44912 0.0
H526 H 0.33101 0.8111 0.30297 0.0
H527 H 0.33468 0.88048 0.35381 0.0
Co528 Co 0.16247 0.52532 0.45808 0.0
C529 C 0.10697 0.51214 0.45992 0.0
C530 C 0.1331 0.55337 0.46236 0.0
C531 C 0.10804 0.54868 0.46801 0.0
N532 N 0.13247 0.53049 0.45605 0.0
N533 N 0.09161 0.52268 0.46663 0.0
H534 H 0.09995 0.49151 0.46227 0.0
H535 H 0.15067 0.57215 0.46558 0.0
C536 C 0.1809 0.572 0.40069 0.0
O537 O 0.15885 0.56028 0.37943 0.0
N538 N 0.19229 0.52029 0.46126 0.0
C539 C 0.19176 0.49746 0.45546 0.0
C540 C 0.217 0.5025 0.45011 0.0
C541 C 0.21778 0.53884 0.4604 0.0
N542 N 0.23322 0.52849 0.45314 0.0
C543 C 0.13171 0.48427 0.3972 0.0
C544 C 0.16932 0.50423 0.33432 0.0
C545 C 0.14617 0.48079 0.32691 0.0
C546 C 0.12704 0.4708 0.35867 0.0
C547 C 0.17299 0.51715 0.37264 0.0
N548 N 0.15412 0.50761 0.40334 0.0
H549 H 0.11786 0.47523 0.42251 0.0
H550 H 0.19169 0.53438 0.37814 0.0
H551 H 0.17415 0.47869 0.45234 0.0
H552 H 0.22479 0.55956 0.46202 0.0
O553 O 0.14347 0.49603 0.49682 0.0
O554 O 0.16818 0.53766 0.51504 0.0
O555 O 0.18509 0.56038 0.4311 0.0
C556 C 0.15285 0.51368 0.52669 0.0
H557 H 0.10256 0.56326 0.47453 0.0
H558 H 0.22292 0.48831 0.44289 0.0
H559 H 0.18473 0.51242 0.31075 0.0
H560 H 0.10919 0.45231 0.3544 0.0
Co561 Co 0.47717 0.6378 0.44852 0.0
C562 C 0.48986 0.59762 0.47155 0.0
C563 C 0.45076 0.58643 0.49067 0.0
C564 C 0.45588 0.56696 0.50236 0.0
N565 N 0.47209 0.60547 0.47124 0.0
N566 N 0.48051 0.57415 0.49039 0.0
H567 H 0.50918 0.60885 0.45793 0.0
H568 H 0.43287 0.58677 0.4963 0.0
C569 C 0.42565 0.62222 0.40432 0.0
O570 O 0.43719 0.63658 0.3708 0.0
N571 N 0.48238 0.67058 0.42605 0.0
C572 C 0.5031 0.68908 0.40449 0.0
C573 C 0.49864 0.70915 0.39482 0.0
C574 C 0.4661 0.68022 0.43061 0.0
N575 N 0.47527 0.70352 0.41103 0.0
C576 C 0.51333 0.64183 0.3844 0.0
C577 C 0.47691 0.6091 0.32608 0.0
C578 C 0.50299 0.62483 0.31299 0.0
C579 C 0.52153 0.64004 0.34373 0.0
C580 C 0.46971 0.61111 0.36752 0.0
N581 N 0.48742 0.62936 0.39462 0.0
H582 H 0.52789 0.65434 0.40706 0.0
H583 H 0.44974 0.59844 0.37706 0.0
H584 H 0.52058 0.68859 0.39662 0.0
H585 H 0.44794 0.67033 0.44812 0.0
O586 O 0.51103 0.65616 0.47644 0.0
O587 O 0.47326 0.64858 0.50397 0.0
O588 O 0.43888 0.61993 0.4342 0.0
C589 C 0.49828 0.65847 0.50823 0.0
H590 H 0.44269 0.54918 0.51908 0.0
H591 H 0.51159 0.72639 0.37673 0.0
H592 H 0.46184 0.59626 0.30421 0.0
H593 H 0.54214 0.6513 0.33615 0.0
H594 H 0.10534 0.04633 0.24605 0.0
H595 H 0.09524 0.17596 0.23207 0.0
H596 H 0.16957 0.12298 0.27614 0.0
H597 H 0.03646 0.10068 0.18485 0.0
H598 H 0.12148 0.15672 0.25414 0.0
H599 H 0.07804 0.06552 0.23182 0.0
C600 C 0.11364 0.06718 0.25021 0.0
C601 C 0.1399 0.0831 0.26194 0.0
C602 C 0.10283 0.14444 0.23896 0.0
C603 C 0.10872 0.10527 0.24513 0.0
C604 C 0.0879 0.15547 0.22595 0.0
C605 C 0.06352 0.13996 0.20645 0.0
C606 C 0.09332 0.11769 0.23255 0.0
C607 C 0.05491 0.11336 0.20019 0.0
C608 C 0.09805 0.07815 0.24183 0.0
C609 C 0.14947 0.10996 0.26705 0.0
N610 N 0.06977 0.10311 0.21321 0.0
N611 N 0.13394 0.12025 0.25826 0.0
H612 H 0.89485 0.92807 0.26721 0.0
H613 H 0.95133 0.06901 0.17544 0.0
H614 H 0.86785 0.94146 0.14832 0.0
H615 H 0.92657 0.05629 0.30635 0.0
H616 H 0.93086 0.02205 0.16553 0.0
H617 H 0.91583 0.97518 0.28294 0.0
C618 C 0.89351 0.94104 0.24447 0.0
C619 C 0.87984 0.93122 0.20637 0.0
C620 C 0.93009 0.0296 0.19647 0.0
C621 C 0.90381 0.98442 0.22367 0.0
C622 C 0.94193 0.05639 0.20238 0.0
C623 C 0.94061 0.06662 0.24189 0.0
C624 C 0.91734 0.01282 0.23043 0.0
C625 C 0.92793 0.04917 0.2754 0.0
C626 C 0.90522 0.96767 0.25356 0.0
C627 C 0.87825 0.94849 0.17796 0.0
N628 N 0.91683 0.02295 0.269 0.0
N629 N 0.89044 0.9744 0.1869 0.0
H630 H 0.9455 0.8699 0.19781 0.0
H631 H 0.0709 0.97657 0.30703 0.0
H632 H 0.94068 0.87662 0.33324 0.0
H633 H 0.07419 0.91778 0.23107 0.0
H634 H 0.02285 0.94861 0.31098 0.0
H635 H 0.99305 0.89657 0.20209 0.0
C636 C 0.95447 0.87718 0.22845 0.0
C637 C 0.93923 0.87108 0.26531 0.0
C638 C 0.03425 0.94187 0.29388 0.0
C639 C 0.99342 0.90191 0.27005 0.0
C640 C 0.06142 0.95775 0.29139 0.0
C641 C 0.07624 0.94926 0.26876 0.0
C642 C 0.02206 0.91792 0.27238 0.0
C643 C 0.06333 0.9248 0.24901 0.0
C644 C 0.98152 0.89222 0.2308 0.0
C645 C 0.95186 0.88086 0.30421 0.0
N646 N 0.03688 0.91012 0.25065 0.0
N647 N 0.97839 0.89617 0.3056 0.0
H648 H 0.08948 0.02589 0.75832 0.0
H649 H 0.11625 0.17175 0.74423 0.0
H650 H 0.16297 0.09412 0.79094 0.0
H651 H 0.03827 0.10609 0.75982 0.0
H652 H 0.13369 0.14231 0.75061 0.0
H653 H 0.07012 0.05386 0.75048 0.0
C654 C 0.10155 0.04661 0.76414 0.0
C655 C 0.12807 0.05756 0.775 0.0
C656 C 0.11275 0.13431 0.75256 0.0
C657 C 0.10611 0.08964 0.76509 0.0
C658 C 0.10275 0.1511 0.74865 0.0
C659 C 0.07577 0.14139 0.75167 0.0
C660 C 0.09567 0.10754 0.75914 0.0
C661 C 0.05924 0.11441 0.75753 0.0
C662 C 0.09048 0.06256 0.75942 0.0
C663 C 0.14269 0.08468 0.78163 0.0
N664 N 0.06946 0.09836 0.76105 0.0
N665 N 0.13157 0.09972 0.7763 0.0
H666 H 0.97292 0.07004 0.74488 0.0
H667 H 0.82575 0.95085 0.73305 0.0
H668 H 0.90577 0.07988 0.7298 0.0
H669 H 0.89285 0.9417 0.75489 0.0
H670 H 0.85488 0.99807 0.728 0.0
H671 H 0.94395 0.02283 0.74549 0.0
C672 C 0.95209 0.06232 0.74187 0.0
C673 C 0.94181 0.07904 0.73748 0.0
C674 C 0.86322 0.9857 0.73378 0.0
C675 C 0.90847 0.02487 0.73767 0.0
C676 C 0.8466 0.95873 0.73659 0.0
C677 C 0.85685 0.94229 0.74455 0.0
C678 C 0.89027 0.99629 0.73893 0.0
C679 C 0.88404 0.95361 0.74888 0.0
C680 C 0.93555 0.03532 0.74196 0.0
C681 C 0.91464 0.06781 0.73284 0.0
N682 N 0.89977 0.97989 0.74611 0.0
N683 N 0.89892 0.04145 0.73319 0.0
H684 H 0.06569 0.95888 0.65771 0.0
H685 H 0.93412 0.89806 0.79215 0.0
H686 H 0.06072 0.93952 0.79053 0.0
H687 H 0.93223 0.87845 0.66015 0.0
H688 H 0.98182 0.92187 0.7896 0.0
H689 H 0.01748 0.93694 0.65545 0.0
C690 C 0.05452 0.95008 0.68624 0.0
C691 C 0.06719 0.95085 0.72425 0.0
C692 C 0.97097 0.91241 0.76113 0.0
C693 C 0.01266 0.92647 0.72208 0.0
C694 C 0.9438 0.89898 0.76253 0.0
C695 C 0.92929 0.88623 0.72636 0.0
C696 C 0.98383 0.91345 0.72313 0.0
C697 C 0.94281 0.88781 0.68881 0.0
C698 C 0.02715 0.93756 0.6849 0.0
C699 C 0.05184 0.93919 0.76039 0.0
N700 N 0.96943 0.90129 0.68805 0.0
N701 N 0.02549 0.92769 0.75845 0.0
H702 H 0.74779 0.48314 0.64881 0.0
H703 H 0.76228 0.36121 0.57932 0.0
H704 H 0.69255 0.42007 0.56967 0.0
H705 H 0.81944 0.42466 0.65564 0.0
H706 H 0.73402 0.38011 0.58301 0.0
H707 H 0.77216 0.46017 0.65789 0.0
C708 C 0.74077 0.4645 0.63329 0.0
C709 C 0.71817 0.45371 0.60805 0.0
C710 C 0.75262 0.38983 0.59931 0.0
C711 C 0.74584 0.42711 0.61882 0.0
C712 C 0.76879 0.37901 0.59727 0.0
C713 C 0.79342 0.39156 0.61677 0.0
C714 C 0.76118 0.41352 0.62076 0.0
C715 C 0.80064 0.41439 0.64003 0.0
C716 C 0.7546 0.4513 0.63877 0.0
C717 C 0.70971 0.42916 0.58957 0.0
N718 N 0.78472 0.42484 0.64095 0.0
N719 N 0.72364 0.41682 0.5951 0.0
H720 H 0.60013 0.3857 0.6772 0.0
H721 H 0.55438 0.26327 0.52348 0.0
H722 H 0.60583 0.39162 0.54084 0.0
H723 H 0.52086 0.25543 0.64774 0.0
H724 H 0.57899 0.31064 0.53287 0.0
H725 H 0.57613 0.3378 0.67052 0.0
C726 C 0.59641 0.37696 0.64598 0.0
C727 C 0.60489 0.39264 0.60955 0.0
C728 C 0.56622 0.29856 0.55809 0.0
C729 C 0.57789 0.33826 0.60177 0.0
C730 C 0.55231 0.27156 0.5528 0.0
C731 C 0.53552 0.25549 0.58481 0.0
C732 C 0.56364 0.30959 0.59591 0.0
C733 C 0.53336 0.26724 0.62212 0.0
C734 C 0.58266 0.34971 0.64219 0.0
C735 C 0.59951 0.38033 0.56982 0.0
N736 N 0.54738 0.29363 0.62679 0.0
N737 N 0.5865 0.35393 0.56703 0.0
H738 H 0.60347 0.20433 0.64442 0.0
H739 H 0.726 0.29727 0.50119 0.0
H740 H 0.59615 0.21492 0.51093 0.0
H741 H 0.73211 0.25126 0.60147 0.0
H742 H 0.67839 0.27436 0.51157 0.0
H743 H 0.65137 0.22884 0.6365 0.0
C744 C 0.61196 0.21196 0.61361 0.0
C745 C 0.59596 0.20752 0.57822 0.0
C746 C 0.69021 0.26931 0.53123 0.0
C747 C 0.65022 0.23569 0.56919 0.0
C748 C 0.71723 0.28236 0.52538 0.0
C749 C 0.73277 0.27586 0.5502 0.0
C750 C 0.67882 0.25013 0.56284 0.0
C751 C 0.72064 0.25646 0.58128 0.0
C752 C 0.63916 0.22577 0.6091 0.0
C753 C 0.60784 0.21772 0.53893 0.0
N754 N 0.69433 0.24435 0.58698 0.0
N755 N 0.63427 0.23149 0.5355 0.0
H756 H 0.77424 0.37071 0.13916 0.0
H757 H 0.72377 0.44969 0.00056 0.0
H758 H 0.79703 0.39107 0.00869 0.0
H759 H 0.72517 0.44963 0.13734 0.0
H760 H 0.74589 0.42381 0.00037 0.0
H761 H 0.75098 0.39507 0.13654 0.0
C762 C 0.77425 0.38025 0.10991 0.0
C763 C 0.78762 0.37896 0.07415 0.0
C764 C 0.74131 0.42955 0.03031 0.0
C765 C 0.76108 0.40691 0.07082 0.0
C766 C 0.72863 0.44419 0.03044 0.0
C767 C 0.72271 0.45192 0.06898 0.0
C768 C 0.74766 0.42234 0.06899 0.0
C769 C 0.72949 0.44431 0.10682 0.0
C770 C 0.7611 0.39427 0.10845 0.0
C771 C 0.78722 0.3919 0.03711 0.0
N772 N 0.74149 0.4299 0.10584 0.0
N773 N 0.77406 0.40529 0.0363 0.0
H774 H 0.61354 0.41236 0.0532 0.0
H775 H 0.56269 0.26444 0.11169 0.0
H776 H 0.61079 0.3845 0.18025 0.0
H777 H 0.52176 0.28232 0.01612 0.0
H778 H 0.59079 0.31073 0.12473 0.0
H779 H 0.58844 0.3666 0.02851 0.0
C780 C 0.60762 0.39659 0.07574 0.0
C781 C 0.61395 0.402 0.11881 0.0
C782 C 0.57583 0.30452 0.10059 0.0
C783 C 0.58625 0.35035 0.09095 0.0
C784 C 0.55978 0.27805 0.0929 0.0
C785 C 0.53943 0.26934 0.06323 0.0
C786 C 0.57181 0.32264 0.07829 0.0
C787 C 0.53704 0.28816 0.03955 0.0
C788 C 0.59335 0.37068 0.06173 0.0
C789 C 0.60596 0.38108 0.14694 0.0
N790 N 0.55295 0.31408 0.04785 0.0
N791 N 0.59273 0.3562 0.13247 0.0
H792 H 0.71713 0.26356 0.00486 0.0
H793 H 0.59916 0.23041 0.16169 0.0
H794 H 0.72759 0.27567 0.13986 0.0
H795 H 0.58879 0.18135 0.05403 0.0
H796 H 0.64639 0.25467 0.14769 0.0
H797 H 0.66934 0.24034 0.01581 0.0
C798 C 0.70936 0.26148 0.03661 0.0
C799 C 0.72617 0.27129 0.07154 0.0
C800 C 0.63373 0.23854 0.12722 0.0
C801 C 0.67219 0.24549 0.08408 0.0
C802 C 0.60694 0.22479 0.1352 0.0
C803 C 0.59033 0.20374 0.10933 0.0
C804 C 0.64382 0.23157 0.09249 0.0
C805 C 0.60115 0.1972 0.07512 0.0
C806 C 0.68225 0.24819 0.04285 0.0
C807 C 0.71525 0.26811 0.11213 0.0
N808 N 0.62729 0.2112 0.06744 0.0
N809 N 0.68897 0.25564 0.11726 0.0
H810 H 0.3606 0.75925 0.89041 0.0
H811 H 0.48926 0.76453 0.98235 0.0
H812 H 0.41666 0.82162 0.96972 0.0
H813 H 0.43506 0.70485 0.8972 0.0
H814 H 0.4605 0.78316 0.9847 0.0
H815 H 0.3853 0.73671 0.89883 0.0
C816 C 0.37795 0.76814 0.90994 0.0
C817 C 0.38661 0.79253 0.92917 0.0
C818 C 0.45481 0.76585 0.96579 0.0
C819 C 0.41524 0.76682 0.93859 0.0
C820 C 0.47117 0.75513 0.96459 0.0
C821 C 0.4647 0.73324 0.93922 0.0
C822 C 0.43182 0.75457 0.94148 0.0
C823 C 0.44099 0.72189 0.91688 0.0
C824 C 0.39216 0.75528 0.91457 0.0
C825 C 0.40949 0.80312 0.95369 0.0
N826 N 0.42553 0.7328 0.9183 0.0
N827 N 0.42305 0.79026 0.95757 0.0
H828 H 0.27161 0.72924 0.8715 0.0
H829 H 0.19711 0.59629 0.00081 0.0
H830 H 0.27271 0.72838 0.00827 0.0
H831 H 0.22445 0.60142 0.87255 0.0
H832 H 0.2199 0.64423 0.00412 0.0
H833 H 0.24917 0.68183 0.87121 0.0
C834 C 0.26705 0.71908 0.90158 0.0
C835 C 0.27408 0.73284 0.94004 0.0
C836 C 0.22095 0.63478 0.97538 0.0
C837 C 0.24823 0.67831 0.93977 0.0
C838 C 0.20785 0.60752 0.97337 0.0
C839 C 0.20895 0.59495 0.93634 0.0
C840 C 0.23479 0.64944 0.93982 0.0
C841 C 0.22333 0.61034 0.9018 0.0
C842 C 0.25434 0.69196 0.90132 0.0
C843 C 0.26772 0.71852 0.97794 0.0
N844 N 0.23553 0.63676 0.90428 0.0
N845 N 0.25499 0.69194 0.97689 0.0
H846 H 0.28029 0.49504 0.91297 0.0
H847 H 0.40015 0.64109 0.90144 0.0
H848 H 0.27008 0.56237 0.91129 0.0
H849 H 0.40515 0.57357 0.8631 0.0
H850 H 0.35341 0.61283 0.91333 0.0
H851 H 0.32737 0.52394 0.90489 0.0
C852 C 0.28796 0.51591 0.91138 0.0
C853 C 0.27122 0.5263 0.91265 0.0
C854 C 0.36483 0.60428 0.90229 0.0
C855 C 0.32505 0.55945 0.90317 0.0
C856 C 0.39158 0.62044 0.89518 0.0
C857 C 0.40693 0.60984 0.88126 0.0
C858 C 0.35332 0.57728 0.89585 0.0
C859 C 0.39443 0.58273 0.87446 0.0
C860 C 0.31482 0.53238 0.90646 0.0
C861 C 0.28227 0.55352 0.91024 0.0
N862 N 0.36844 0.56743 0.88198 0.0
N863 N 0.30852 0.56917 0.90558 0.0
H864 H 0.42337 0.68681 0.42013 0.0
H865 H 0.43996 0.826 0.36251 0.0
H866 H 0.49765 0.75517 0.39149 0.0
H867 H 0.3712 0.76407 0.42276 0.0
H868 H 0.45934 0.79787 0.36198 0.0
H869 H 0.40224 0.71294 0.41212 0.0
C870 C 0.43533 0.7073 0.41245 0.0
C871 C 0.46246 0.71874 0.40676 0.0
C872 C 0.43993 0.79041 0.37501 0.0
C873 C 0.43817 0.74865 0.39658 0.0
C874 C 0.42878 0.80637 0.37503 0.0
C875 C 0.40401 0.79744 0.39299 0.0
C876 C 0.42611 0.76529 0.39276 0.0
C877 C 0.39044 0.77185 0.40893 0.0
C878 C 0.42317 0.72217 0.40755 0.0
C879 C 0.47671 0.74533 0.39581 0.0
N880 N 0.40172 0.75672 0.4086 0.0
N881 N 0.46441 0.75935 0.39111 0.0
H882 H 0.30721 0.72527 0.45478 0.0
H883 H 0.17157 0.60937 0.36715 0.0
H884 H 0.24588 0.73708 0.40515 0.0
H885 H 0.23229 0.59867 0.42238 0.0
H886 H 0.20064 0.65678 0.37146 0.0
H887 H 0.28191 0.6794 0.435 0.0
C888 C 0.2885 0.7183 0.43949 0.0
C889 C 0.27863 0.73511 0.43197 0.0
C890 C 0.20769 0.64402 0.38212 0.0
C891 C 0.24932 0.68236 0.40945 0.0
C892 C 0.19119 0.61698 0.37933 0.0
C893 C 0.19944 0.60011 0.39497 0.0
C894 C 0.23255 0.6541 0.40056 0.0
C895 C 0.22499 0.61099 0.41061 0.0
C896 C 0.27399 0.69203 0.42827 0.0
C897 C 0.25408 0.72479 0.41237 0.0
N898 N 0.24053 0.63726 0.41338 0.0
N899 N 0.24022 0.69906 0.40195 0.0
H900 H 0.39944 0.61517 0.47795 0.0
H901 H 0.25862 0.51856 0.39104 0.0
H902 H 0.3871 0.60086 0.34365 0.0
H903 H 0.27034 0.57065 0.49477 0.0
H904 H 0.30584 0.54305 0.37646 0.0
H905 H 0.35216 0.59348 0.48848 0.0
C906 C 0.38671 0.60739 0.45066 0.0
C907 C 0.3971 0.60968 0.40985 0.0
C908 C 0.298 0.54912 0.40228 0.0
C909 C 0.34307 0.58458 0.42186 0.0
C910 C 0.27123 0.53507 0.41084 0.0
C911 C 0.26078 0.54257 0.44436 0.0
C912 C 0.31443 0.57037 0.42812 0.0
C913 C 0.27776 0.56433 0.46871 0.0
C914 C 0.3598 0.59518 0.4567 0.0
C915 C 0.37979 0.5995 0.37556 0.0
N916 N 0.30384 0.5773 0.46048 0.0
N917 N 0.35349 0.58701 0.38238 0.0
H918 H 0.38895 0.14042 0.0909 0.0
H919 H 0.26568 0.14963 0.17061 0.0
H920 H 0.39535 0.21127 0.14173 0.0
H921 H 0.26641 0.07723 0.16376 0.0
H922 H 0.31188 0.17321 0.14978 0.0
H923 H 0.34243 0.11758 0.10716 0.0
C924 C 0.38078 0.15126 0.10556 0.0
C925 C 0.39653 0.17788 0.1155 0.0
C926 C 0.30191 0.15216 0.1529 0.0
C927 C 0.34289 0.15174 0.13333 0.0
C928 C 0.2756 0.13875 0.16459 0.0
C929 C 0.26236 0.11152 0.16917 0.0
C930 C 0.3149 0.13817 0.1451 0.0
C931 C 0.27605 0.09826 0.16123 0.0
C932 C 0.35411 0.13815 0.11468 0.0
C933 C 0.38431 0.19086 0.13333 0.0
N934 N 0.30157 0.11171 0.1494 0.0
N935 N 0.35826 0.17765 0.14172 0.0
H936 H 0.85841 0.25773 0.1848 0.0
H937 H 0.85509 0.12222 0.17006 0.0
H938 H 0.78748 0.18503 0.16109 0.0
H939 H 0.91633 0.18935 0.23487 0.0
H940 H 0.83054 0.14501 0.16365 0.0
H941 H 0.88102 0.23342 0.19924 0.0
C942 C 0.84765 0.23664 0.18259 0.0
C943 C 0.82112 0.22332 0.17159 0.0
C944 C 0.8493 0.15465 0.17949 0.0
C945 C 0.84671 0.19543 0.18805 0.0
C946 C 0.86336 0.14159 0.18335 0.0
C947 C 0.88811 0.15392 0.2026 0.0
C948 C 0.86013 0.1803 0.19456 0.0
C949 C 0.89771 0.17923 0.21883 0.0
C950 C 0.86046 0.22278 0.19114 0.0
C951 C 0.80791 0.19596 0.16975 0.0
N952 N 0.88382 0.19166 0.21407 0.0
N953 N 0.82091 0.18289 0.17753 0.0
H954 H 0.74317 0.60023 0.1689 0.0
H955 H 0.87922 0.73448 0.15871 0.0
H956 H 0.81146 0.60902 0.10398 0.0
H957 H 0.80993 0.72629 0.21899 0.0
H958 H 0.85487 0.68848 0.13888 0.0
H959 H 0.76707 0.64652 0.18639 0.0
C960 C 0.76308 0.61191 0.15781 0.0
C961 C 0.77532 0.60064 0.1349 0.0
C962 C 0.84498 0.69674 0.15647 0.0
C963 C 0.80302 0.6537 0.15563 0.0
C964 C 0.85895 0.72297 0.16813 0.0
C965 C 0.8466 0.73427 0.19062 0.0
C966 C 0.81847 0.68163 0.16745 0.0
C967 C 0.82013 0.71845 0.20127 0.0
C968 C 0.77681 0.63836 0.16816 0.0
C969 C 0.80136 0.61679 0.12215 0.0
N970 N 0.80695 0.69294 0.18962 0.0
N971 N 0.81436 0.64248 0.13279 0.0
H972 H 0.10724 0.27455 0.75306 0.0
H973 H 0.16719 0.39703 0.90805 0.0
H974 H 0.11328 0.26768 0.888 0.0
H975 H 0.18048 0.40395 0.77313 0.0
H976 H 0.14611 0.34952 0.90158 0.0
H977 H 0.13298 0.32208 0.75965 0.0
C978 C 0.11408 0.28311 0.78405 0.0
C979 C 0.10807 0.26726 0.82007 0.0
C980 C 0.15382 0.36144 0.87344 0.0
C981 C 0.13739 0.32148 0.82794 0.0
C982 C 0.16567 0.3885 0.87709 0.0
C983 C 0.17545 0.40436 0.84104 0.0
C984 C 0.15144 0.35018 0.83335 0.0
C985 C 0.17335 0.39241 0.80172 0.0
C986 C 0.12887 0.31018 0.78778 0.0
C987 C 0.11766 0.27923 0.85944 0.0
N988 N 0.16135 0.36599 0.79885 0.0
N989 N 0.13165 0.30568 0.86241 0.0
H990 H 0.59924 0.79824 0.8093 0.0
H991 H 0.73999 0.8418 0.90099 0.0
H992 H 0.60943 0.76469 0.92372 0.0
H993 H 0.72584 0.83706 0.76656 0.0
H994 H 0.69272 0.82034 0.91365 0.0
H995 H 0.64659 0.81992 0.79664 0.0
C996 C 0.61156 0.79574 0.83195 0.0
C997 C 0.60064 0.77983 0.86768 0.0
C998 C 0.69999 0.82398 0.8814 0.0
C999 C 0.6544 0.80444 0.85359 0.0
C1000 C 0.72684 0.83628 0.87422 0.0
C1001 C 0.73662 0.84113 0.83271 0.0
C1002 C 0.6829 0.81706 0.84684 0.0
C1003 C 0.7189 0.83345 0.79896 0.0
C1004 C 0.63841 0.80786 0.82454 0.0
C1005 C 0.61725 0.7768 0.89582 0.0
N1006 N 0.69281 0.82199 0.80675 0.0
N1007 N 0.6434 0.78918 0.88837 0.0
H1008 H 0.26275 0.86597 0.84218 0.0
H1009 H 0.12338 0.85227 0.79627 0.0
H1010 H 0.19163 0.79161 0.83087 0.0
H1011 H 0.19344 0.92521 0.82385 0.0
H1012 H 0.148 0.82953 0.80594 0.0
H1013 H 0.23766 0.88793 0.83233 0.0
C1014 C 0.24183 0.85421 0.83791 0.0
C1015 C 0.22931 0.82685 0.83761 0.0
C1016 C 0.15794 0.85052 0.80981 0.0
C1017 C 0.20039 0.85198 0.82568 0.0
C1018 C 0.14387 0.86351 0.80447 0.0
C1019 C 0.15633 0.89074 0.80904 0.0
C1020 C 0.18467 0.86489 0.81974 0.0
C1021 C 0.18304 0.9043 0.81921 0.0
C1022 C 0.2275 0.8668 0.83204 0.0
C1023 C 0.20217 0.81272 0.83095 0.0
N1024 N 0.19627 0.89124 0.82418 0.0
N1025 N 0.18861 0.82545 0.82529 0.0
H1026 H 0.93701 0.4757 0.56063 0.0
H1027 H 0.05586 0.4735 0.44227 0.0
H1028 H 0.93038 0.40769 0.4984 0.0
H1029 H 0.06395 0.53988 0.51216 0.0
H1030 H 0.00951 0.44954 0.46059 0.0
H1031 H 0.98323 0.5001 0.54103 0.0
C1032 C 0.94526 0.46591 0.54279 0.0
C1033 C 0.92977 0.43957 0.53133 0.0
C1034 C 0.02143 0.46937 0.47187 0.0
C1035 C 0.98271 0.46733 0.50886 0.0
C1036 C 0.04795 0.48304 0.46155 0.0
C1037 C 0.06397 0.50876 0.4758 0.0
C1038 C 0.01073 0.48146 0.49662 0.0
C1039 C 0.05243 0.52024 0.50006 0.0
C1040 C 0.97167 0.47981 0.53175 0.0
C1041 C 0.94159 0.4278 0.50857 0.0
N1042 N 0.02656 0.5065 0.50976 0.0
N1043 N 0.96731 0.44177 0.49804 0.0
H1044 H 0.53282 0.59453 0.49809 0.0
H1045 H 0.52348 0.45518 0.51577 0.0
H1046 H 0.45972 0.52162 0.4969 0.0
H1047 H 0.59575 0.52884 0.52 0.0
H1048 H 0.49958 0.4788 0.50832 0.0
H1049 H 0.55603 0.57047 0.50604 0.0
C1050 C 0.52164 0.57343 0.49928 0.0
C1051 C 0.49427 0.56007 0.49652 0.0
C1052 C 0.52067 0.48978 0.51095 0.0
C1053 C 0.52077 0.5323 0.50607 0.0
C1054 C 0.53434 0.4763 0.51494 0.0
C1055 C 0.56168 0.49004 0.51862 0.0
C1056 C 0.53445 0.51719 0.51047 0.0
C1057 C 0.57469 0.51742 0.51791 0.0
C1058 C 0.53491 0.55968 0.50408 0.0
C1059 C 0.4808 0.53271 0.4992 0.0
N1060 N 0.56097 0.53007 0.51387 0.0
N1061 N 0.49419 0.5197 0.50367 0.0
H1062 H 0.43065 0.93598 0.39791 0.0
H1063 H 0.49606 0.05829 0.55049 0.0
H1064 H 0.46118 0.93215 0.51988 0.0
H1065 H 0.50586 0.06742 0.41514 0.0
H1066 H 0.47667 0.01088 0.54187 0.0
H1067 H 0.45204 0.98372 0.40512 0.0
C1068 C 0.44197 0.9453 0.42605 0.0
C1069 C 0.44439 0.93036 0.45823 0.0
C1070 C 0.48316 0.02332 0.51412 0.0
C1071 C 0.46824 0.98437 0.4671 0.0
C1072 C 0.494 0.0502 0.51901 0.0
C1073 C 0.50253 0.06656 0.48345 0.0
C1074 C 0.4803 0.01279 0.47332 0.0
C1075 C 0.49968 0.05534 0.44327 0.0
C1076 C 0.45417 0.97238 0.4301 0.0
C1077 C 0.45919 0.94314 0.4942 0.0
N1078 N 0.48854 0.02904 0.43918 0.0
N1079 N 0.47035 0.96945 0.49793 0.0
H1080 H 0.22442 0.06727 0.42794 0.0
H1081 H 0.1799 0.95109 0.58904 0.0
H1082 H 0.20711 0.99046 0.38889 0.0
H1083 H 0.21635 0.03177 0.62768 0.0
H1084 H 0.19408 0.96536 0.5162 0.0
H1085 H 0.22673 0.05567 0.5015 0.0
C1086 C 0.2218 0.04817 0.43492 0.0
C1087 C 0.21554 0.02976 0.4026 0.0
C1088 C 0.19941 0.97995 0.54076 0.0
C1089 C 0.21725 0.01597 0.48659 0.0
C1090 C 0.1912 0.9718 0.5823 0.0
C1091 C 0.19665 0.99026 0.6144 0.0
C1092 C 0.21281 0.00674 0.53117 0.0
C1093 C 0.21172 0.01684 0.60401 0.0
C1094 C 0.22302 0.04149 0.47686 0.0
C1095 C 0.21212 0.00521 0.41307 0.0
N1096 N 0.21888 0.02427 0.56321 0.0
N1097 N 0.21249 0.99881 0.45434 0.0
H1098 H 0.00291 0.21944 0.59746 0.0
H1099 H 0.98047 0.2069 0.38097 0.0
H1100 H 0.06985 0.21111 0.5701 0.0
H1101 H 0.04502 0.19237 0.37591 0.0
H1102 H 0.99186 0.22167 0.4538 0.0
H1103 H 0.99683 0.22263 0.5221 0.0
C1104 C 0.01677 0.219 0.57546 0.0
C1105 C 0.03667 0.21463 0.58993 0.0
C1106 C 0.00365 0.21531 0.43715 0.0
C1107 C 0.02975 0.21786 0.50299 0.0
C1108 C 0.99724 0.20709 0.39516 0.0
C1109 C 0.01142 0.19778 0.3727 0.0
C1110 C 0.02435 0.21402 0.45684 0.0
C1111 C 0.03305 0.19862 0.39248 0.0
C1112 C 0.01322 0.22065 0.53207 0.0
C1113 C 0.05394 0.21399 0.56015 0.0
N1114 N 0.03862 0.20626 0.43346 0.0
N1115 N 0.04986 0.21521 0.51816 0.0
H1116 H 0.77389 0.85294 0.57792 0.0
H1117 H 0.80741 0.85484 0.36973 0.0
H1118 H 0.79863 0.79628 0.59389 0.0
H1119 H 0.80417 0.7814 0.3919 0.0
H1120 H 0.79305 0.85431 0.44181 0.0
H1121 H 0.77106 0.84543 0.50165 0.0
C1122 C 0.77839 0.83864 0.56516 0.0
C1123 C 0.78669 0.82535 0.59194 0.0
C1124 C 0.79455 0.83777 0.43104 0.0
C1125 C 0.78538 0.81788 0.50431 0.0
C1126 C 0.80312 0.83828 0.38974 0.0
C1127 C 0.80723 0.81827 0.37497 0.0
C1128 C 0.79004 0.81705 0.45815 0.0
C1129 C 0.80119 0.7972 0.40207 0.0
C1130 C 0.77726 0.83465 0.52147 0.0
C1131 C 0.79215 0.80689 0.57412 0.0
N1132 N 0.79333 0.79736 0.44262 0.0
N1133 N 0.79184 0.80402 0.53129 0.0
H1134 H 0.87223 0.33167 0.94125 0.0
H1135 H 0.81573 0.2791 0.71466 0.0
H1136 H 0.81587 0.25052 0.9179 0.0
H1137 H 0.88666 0.35235 0.73479 0.0
H1138 H 0.8178 0.26666 0.7878 0.0
H1139 H 0.88071 0.33814 0.86578 0.0
C1140 C 0.86202 0.31496 0.92056 0.0
C1141 C 0.84299 0.2905 0.93641 0.0
C1142 C 0.83321 0.28525 0.77609 0.0
C1143 C 0.85216 0.29821 0.84906 0.0
C1144 C 0.83199 0.29236 0.73441 0.0
C1145 C 0.8509 0.31689 0.71901 0.0
C1146 C 0.85322 0.30303 0.80278 0.0
C1147 C 0.87169 0.33329 0.74559 0.0
C1148 C 0.8668 0.3188 0.87717 0.0
C1149 C 0.83017 0.2699 0.90733 0.0
N1150 N 0.87205 0.32627 0.78649 0.0
N1151 N 0.83467 0.27433 0.86506 0.0
H1152 H 0.61922 0.47464 0.96991 0.0
H1153 H 0.64323 0.54204 0.74246 0.0
H1154 H 0.68368 0.55155 0.94251 0.0
H1155 H 0.60367 0.45855 0.762 0.0
H1156 H 0.64865 0.54827 0.8191 0.0
H1157 H 0.60381 0.47152 0.89702 0.0
C1158 C 0.62981 0.49109 0.94878 0.0
C1159 C 0.65287 0.51331 0.96205 0.0
C1160 C 0.63846 0.52862 0.80643 0.0
C1161 C 0.63542 0.50982 0.87885 0.0
C1162 C 0.63545 0.52499 0.76266 0.0
C1163 C 0.62345 0.49969 0.74533 0.0
C1164 C 0.62906 0.50684 0.83317 0.0
C1165 C 0.61298 0.47842 0.77351 0.0
C1166 C 0.6211 0.48922 0.90719 0.0
C1167 C 0.66599 0.53396 0.93329 0.0
N1168 N 0.61625 0.48249 0.81595 0.0
N1169 N 0.65716 0.53166 0.89289 0.0
H1170 H 0.5369 0.1422 0.73214 0.0
H1171 H 0.44474 0.12834 0.92109 0.0
H1172 H 0.45305 0.09303 0.72145 0.0
H1173 H 0.52454 0.14668 0.93906 0.0
H1174 H 0.44626 0.11405 0.84867 0.0
H1175 H 0.53231 0.14278 0.80824 0.0
C1176 C 0.51751 0.13098 0.74552 0.0
C1177 C 0.49532 0.11777 0.71955 0.0
C1178 C 0.46328 0.12086 0.86877 0.0
C1179 C 0.48994 0.11935 0.80763 0.0
C1180 C 0.46241 0.12896 0.91011 0.0
C1181 C 0.48475 0.13932 0.93588 0.0
C1182 C 0.48671 0.12338 0.85311 0.0
C1183 C 0.50712 0.13966 0.91992 0.0
C1184 C 0.51491 0.13155 0.7893 0.0
C1185 C 0.47074 0.10418 0.73963 0.0
N1186 N 0.50765 0.13223 0.87944 0.0
N1187 N 0.46867 0.10573 0.78236 0.0
H1188 H 0.48239 0.58747 0.24961 0.0
H1189 H 0.55828 0.6912 0.06531 0.0
H1190 H 0.54023 0.66838 0.27128 0.0
H1191 H 0.48373 0.62122 0.04824 0.0
H1192 H 0.55944 0.67779 0.13851 0.0
H1193 H 0.49009 0.59487 0.17343 0.0
C1194 C 0.49686 0.60669 0.23862 0.0
C1195 C 0.51035 0.62739 0.26728 0.0
C1196 C 0.54304 0.66519 0.11847 0.0
C1197 C 0.5196 0.63575 0.18006 0.0
C1198 C 0.54247 0.67275 0.07675 0.0
C1199 C 0.52073 0.65743 0.05112 0.0
C1200 C 0.52183 0.64206 0.13433 0.0
C1201 C 0.50065 0.63374 0.06736 0.0
C1202 C 0.50134 0.61083 0.19509 0.0
C1203 C 0.52943 0.65167 0.25084 0.0
N1204 N 0.50157 0.62686 0.10808 0.0
N1205 N 0.53329 0.65521 0.20841 0.0
H1206 H 0.31284 0.88255 0.0659 0.0
H1207 H 0.28685 0.80888 0.28763 0.0
H1208 H 0.26924 0.79884 0.08341 0.0
H1209 H 0.34866 0.88826 0.26869 0.0
H1210 H 0.27094 0.80858 0.21625 0.0
H1211 H 0.31742 0.88789 0.14286 0.0
C1212 C 0.30398 0.86529 0.08566 0.0
C1213 C 0.29103 0.84014 0.06763 0.0
C1214 C 0.28776 0.82623 0.22781 0.0
C1215 C 0.2957 0.8463 0.1558 0.0
C1216 C 0.29681 0.82641 0.26852 0.0
C1217 C 0.31937 0.84846 0.28355 0.0
C1218 C 0.30148 0.84819 0.20172 0.0
C1219 C 0.3313 0.87083 0.25797 0.0
C1220 C 0.30649 0.86843 0.12963 0.0
C1221 C 0.27926 0.81865 0.09527 0.0
N1222 N 0.32247 0.87 0.21784 0.0
N1223 N 0.28211 0.82224 0.13777 0.0
H1224 H 0.17948 0.46696 0.29227 0.0
H1225 H 0.18147 0.43958 0.08256 0.0
H1226 H 0.10631 0.46416 0.26921 0.0
H1227 H 0.12287 0.46196 0.06848 0.0
H1228 H 0.17258 0.43391 0.15839 0.0
H1229 H 0.17936 0.45286 0.22024 0.0
C1230 C 0.163 0.46267 0.27206 0.0
C1231 C 0.14302 0.46694 0.28642 0.0
C1232 C 0.16168 0.44024 0.13913 0.0
C1233 C 0.14236 0.45035 0.20323 0.0
C1234 C 0.16651 0.44303 0.09566 0.0
C1235 C 0.15308 0.45152 0.06963 0.0
C1236 C 0.14395 0.44694 0.15687 0.0
C1237 C 0.13367 0.45546 0.08774 0.0
C1238 C 0.16275 0.45434 0.23073 0.0
C1239 C 0.12207 0.46106 0.25919 0.0
N1240 N 0.13002 0.45362 0.13043 0.0
N1241 N 0.12254 0.45353 0.21856 0.0
H1242 H 0.12605 0.98283 0.12126 0.0
H1243 H 0.19838 0.00338 0.89874 0.0
H1244 H 0.21003 0.02272 0.11194 0.0
H1245 H 0.11492 0.96054 0.91872 0.0
H1246 H 0.20455 0.00793 0.97627 0.0
H1247 H 0.12281 0.97064 0.04714 0.0
C1248 C 0.14385 0.98863 0.1035 0.0
C1249 C 0.16829 0.00372 0.12239 0.0
C1250 C 0.18495 0.99738 0.96345 0.0
C1251 C 0.16494 0.99068 0.03683 0.0
C1252 C 0.18144 0.99485 0.91935 0.0
C1253 C 0.15611 0.98192 0.9023 0.0
C1254 C 0.16294 0.98674 0.99023 0.0
C1255 C 0.13482 0.97105 0.93027 0.0
C1256 C 0.14206 0.9818 0.06107 0.0
C1257 C 0.19082 0.01084 0.09824 0.0
N1258 N 0.13874 0.97381 0.97259 0.0
N1259 N 0.18864 0.00461 0.05625 0.0
H1260 H 0.00453 0.20757 0.09196 0.0
H1261 H 0.96032 0.13991 0.8676 0.0
H1262 H 0.94052 0.12966 0.06998 0.0
H1263 H 0.02236 0.2194 0.88294 0.0
H1264 H 0.94653 0.13998 0.94041 0.0
H1265 H 0.00581 0.21645 0.01553 0.0
C1266 C 0.99041 0.1926 0.07116 0.0
C1267 C 0.9728 0.1677 0.08682 0.0
C1268 C 0.96283 0.15769 0.92784 0.0
C1269 C 0.97406 0.17754 0.00018 0.0
C1270 C 0.97053 0.15763 0.88621 0.0
C1271 C 0.99232 0.17967 0.86974 0.0
C1272 C 0.9777 0.17967 0.95358 0.0
C1273 C 0.00525 0.20213 0.89485 0.0
C1274 C 0.99115 0.19761 0.02765 0.0
C1275 C 0.95482 0.14894 0.05887 0.0
N1276 N 0.9981 0.2014 0.93605 0.0
N1277 N 0.95611 0.15414 0.01692 0.0
H1278 H 0.87617 0.84546 0.87046 0.0
H1279 H 0.80522 0.80346 0.09316 0.0
H1280 H 0.79239 0.80744 0.88117 0.0
H1281 H 0.88558 0.82484 0.07143 0.0
H1282 H 0.79821 0.80036 0.01594 0.0
H1283 H 0.87859 0.83353 0.9435 0.0
C1284 C 0.85822 0.83395 0.88809 0.0
C1285 C 0.83407 0.82715 0.86996 0.0
C1286 C 0.81723 0.80528 0.02823 0.0
C1287 C 0.83659 0.81436 0.95431 0.0
C1288 C 0.82121 0.80701 0.07223 0.0
C1289 C 0.84612 0.81486 0.08862 0.0
C1290 C 0.83836 0.81148 0.0008 0.0
C1291 C 0.86616 0.81922 0.06018 0.0
C1292 C 0.85955 0.82724 0.92989 0.0
C1293 C 0.81134 0.81263 0.89412 0.0
N1294 N 0.86192 0.81775 0.01784 0.0
N1295 N 0.81316 0.80711 0.9355 0.0
H1296 H 0.81587 0.35554 0.21743 0.0
H1297 H 0.8608 0.32773 0.43733 0.0
H1298 H 0.85859 0.31428 0.22452 0.0
H1299 H 0.8369 0.38495 0.41814 0.0
H1300 H 0.86411 0.32474 0.35991 0.0
H1301 H 0.82731 0.36927 0.29073 0.0
C1302 C 0.82816 0.34985 0.23443 0.0
C1303 C 0.83639 0.3339 0.21527 0.0
C1304 C 0.85859 0.33826 0.37284 0.0
C1305 C 0.84886 0.34865 0.29971 0.0
C1306 C 0.85669 0.33994 0.4169 0.0
C1307 C 0.84803 0.35618 0.43398 0.0
C1308 C 0.85173 0.35292 0.34615 0.0
C1309 C 0.84308 0.37171 0.40629 0.0
C1310 C 0.83467 0.3576 0.27631 0.0
C1311 C 0.85213 0.32683 0.23843 0.0
N1312 N 0.84472 0.36947 0.36388 0.0
N1313 N 0.85747 0.33383 0.27994 0.0
H1314 H 0.7303 0.51168 0.26095 0.0
H1315 H 0.65373 0.52844 0.45614 0.0
H1316 H 0.6685 0.52949 0.24349 0.0
H1317 H 0.69384 0.48447 0.45786 0.0
H1318 H 0.66838 0.54144 0.38233 0.0
H1319 H 0.72703 0.51522 0.33723 0.0
C1320 C 0.71621 0.51666 0.27322 0.0
C1321 C 0.69924 0.51975 0.24601 0.0
C1322 C 0.67438 0.52941 0.39931 0.0
C1323 C 0.69525 0.52359 0.33347 0.0
C1324 C 0.66623 0.5222 0.4413 0.0
C1325 C 0.67262 0.50537 0.46261 0.0
C1326 C 0.68932 0.52002 0.37934 0.0
C1327 C 0.68846 0.49739 0.44221 0.0
C1328 C 0.71437 0.51868 0.31678 0.0
C1329 C 0.68175 0.52671 0.26355 0.0
N1330 N 0.69619 0.50471 0.40169 0.0
N1331 N 0.67985 0.52797 0.30643 0.0
H1332 H 0.47164 0.20499 0.23597 0.0
H1333 H 0.46199 0.11544 0.432 0.0
H1334 H 0.46532 0.1297 0.21951 0.0
H1335 H 0.49453 0.19883 0.43545 0.0
H1336 H 0.44945 0.11529 0.35743 0.0
H1337 H 0.4652 0.1971 0.31184 0.0
C1338 C 0.46849 0.18656 0.2484 0.0
C1339 C 0.46952 0.16816 0.22172 0.0
C1340 C 0.45871 0.13346 0.37495 0.0
C1341 C 0.46258 0.15917 0.30878 0.0
C1342 C 0.46559 0.13352 0.41744 0.0
C1343 C 0.47915 0.1572 0.43953 0.0
C1344 C 0.46516 0.15721 0.35513 0.0
C1345 C 0.48402 0.18021 0.41932 0.0
C1346 C 0.46483 0.18208 0.29171 0.0
C1347 C 0.46483 0.14442 0.23924 0.0
N1348 N 0.47714 0.17966 0.37823 0.0
N1349 N 0.46207 0.14076 0.28203 0.0
H1350 H 0.53313 0.66566 0.77083 0.0
H1351 H 0.49475 0.69683 0.54762 0.0
H1352 H 0.5137 0.72583 0.74809 0.0
H1353 H 0.52885 0.64766 0.55974 0.0
H1354 H 0.50736 0.71161 0.62024 0.0
H1355 H 0.53737 0.6621 0.69379 0.0
C1356 C 0.53028 0.67843 0.74969 0.0
C1357 C 0.5225 0.69564 0.76556 0.0
C1358 C 0.51261 0.69795 0.60708 0.0
C1359 C 0.52726 0.69175 0.67818 0.0
C1360 C 0.50546 0.68962 0.56557 0.0
C1361 C 0.51088 0.67116 0.54808 0.0
C1362 C 0.52451 0.68704 0.63181 0.0
C1363 C 0.52459 0.66215 0.57238 0.0
C1364 C 0.53267 0.6764 0.70583 0.0
C1365 C 0.51913 0.71185 0.73706 0.0
N1366 N 0.53051 0.66978 0.61355 0.0
N1367 N 0.52124 0.7093 0.69485 0.0
H1368 H 0.36485 0.82479 0.78559 0.0
H1369 H 0.33147 0.86082 0.56102 0.0
H1370 H 0.31648 0.85979 0.77308 0.0
H1371 H 0.38861 0.83709 0.58301 0.0
H1372 H 0.32891 0.86588 0.63812 0.0
H1373 H 0.37782 0.83495 0.71171 0.0
C1374 C 0.35745 0.83519 0.76724 0.0
C1375 C 0.33974 0.84158 0.78504 0.0
C1376 C 0.34227 0.85995 0.62587 0.0
C1377 C 0.3535 0.85237 0.69993 0.0
C1378 C 0.3437 0.85705 0.582 0.0
C1379 C 0.35984 0.84799 0.56585 0.0
C1380 C 0.35718 0.85381 0.6533 0.0
C1381 C 0.37543 0.84354 0.59417 0.0
C1382 C 0.36472 0.84091 0.725 0.0
C1383 C 0.33043 0.85483 0.7602 0.0
N1384 N 0.37353 0.84626 0.63637 0.0
N1385 N 0.33703 0.85937 0.71843 0.0
H1386 H 0.13497 0.46686 0.56927 0.0
H1387 H 0.17121 0.5406 0.79009 0.0
H1388 H 0.15598 0.54734 0.58712 0.0
H1389 H 0.13745 0.45719 0.78191 0.0
H1390 H 0.15993 0.54158 0.71621 0.0
H1391 H 0.13041 0.46066 0.64671 0.0
C1392 C 0.13822 0.48305 0.58939 0.0
C1393 C 0.14642 0.50777 0.57198 0.0
C1394 C 0.15442 0.52289 0.73051 0.0
C1395 C 0.14119 0.50092 0.65984 0.0
C1396 C 0.16074 0.52239 0.77278 0.0
C1397 C 0.15501 0.4988 0.79182 0.0
C1398 C 0.14308 0.49971 0.70661 0.0
C1399 C 0.14181 0.47571 0.76816 0.0
C1400 C 0.13561 0.47953 0.63347 0.0
C1401 C 0.15022 0.52808 0.59927 0.0
N1402 N 0.13672 0.47676 0.72633 0.0
N1403 N 0.14783 0.52426 0.64168 0.0
loop_
_geom_bond_atom_site_label_1
_geom_bond_atom_site_label_2
_geom_bond_distance
_geom_bond_site_symmetry_2
_ccdc_geom_bond_type
Co0 N4 2.148 . S
Co0 N10 2.128 1_545 S
Co0 N20 2.194 1_545 S
Co0 O25 2.351 1_545 S
Co0 O26 2.155 1_545 S
Co0 O27 2.096 . S
C1 N4 1.301 . S
C1 N5 1.328 . S
C1 H6 0.930 . S
C2 C3 1.333 . S
C2 N4 1.317 . S
C2 H7 0.930 . S
C3 C2 1.333 . S
C3 N5 1.350 . S
C3 H29 0.931 . S
N4 Co0 2.148 . S
N4 C1 1.301 . S
N4 C2 1.317 . S
N5 C1 1.328 . S
N5 C3 1.350 . S
H6 C1 0.930 . S
H7 C2 0.930 . S
C8 O9 1.224 . S
C8 O27 1.247 . S
O9 C8 1.224 . S
N10 Co0 2.128 1_565 S
N10 C11 1.355 . S
N10 C13 1.311 . S
C11 N10 1.355 . S
C11 C12 1.363 . S
C11 H23 0.929 . S
C12 C11 1.363 . S
C12 N14 1.375 . S
C12 H30 0.931 . S
C13 N10 1.311 . S
C13 N14 1.347 . S
C13 H24 0.929 . S
N14 C12 1.375 . S
N14 C13 1.347 . S
C15 C18 1.365 . S
C15 N20 1.328 . S
C15 H21 0.929 . S
C16 C17 1.362 . S
C16 C19 1.378 1_565 S
C16 H31 0.928 1_565 S
C17 C16 1.362 . S
C17 C18 1.366 . S
C18 C15 1.365 . S
C18 C17 1.366 . S
C18 H32 0.930 . S
C19 C16 1.378 1_545 S
C19 N20 1.315 1_545 S
C19 H22 0.930 . S
N20 Co0 2.194 1_565 S
N20 C15 1.328 . S
N20 C19 1.315 1_565 S
H21 C15 0.929 . S
H22 C19 0.930 . S
H23 C11 0.929 . S
H24 C13 0.929 . S
O25 Co0 2.351 1_565 S
O25 C28 1.244 . S
O26 Co0 2.155 1_565 S
O26 C28 1.240 . S
O27 Co0 2.096 . S
O27 C8 1.247 . S
C28 O25 1.244 . S
C28 O26 1.240 . S
H29 C3 0.931 . S
H30 C12 0.931 . S
H31 C16 0.928 1_545 S
H32 C18 0.930 . S
Co33 N37 2.148 . S
Co33 N43 2.128 1_655 S
Co33 N53 2.194 1_655 S
Co33 O58 2.351 1_655 S
Co33 O59 2.155 1_655 S
Co33 O60 2.096 . S
C34 N37 1.301 . S
C34 N38 1.328 . S
C34 H39 0.930 . S
C35 C36 1.333 . S
C35 N37 1.317 . S
C35 H40 0.930 . S
C36 C35 1.333 . S
C36 N38 1.350 . S
C36 H62 0.931 . S
N37 Co33 2.148 . S
N37 C34 1.301 . S
N37 C35 1.317 . S
N38 C34 1.328 . S
N38 C36 1.350 . S
H39 C34 0.930 . S
H40 C35 0.930 . S
C41 O42 1.224 . S
C41 O60 1.247 . S
O42 C41 1.224 . S
N43 Co33 2.128 1_455 S
N43 C44 1.355 . S
N43 C46 1.311 . S
C44 N43 1.355 . S
C44 C45 1.363 . S
C44 H56 0.929 . S
C45 C44 1.363 . S
C45 N47 1.375 . S
C45 H63 0.931 . S
C46 N43 1.311 . S
C46 N47 1.347 . S
C46 H57 0.929 . S
N47 C45 1.375 . S
N47 C46 1.347 . S
C48 C51 1.365 . S
C48 N53 1.328 . S
C48 H54 0.929 . S
C49 C50 1.362 . S
C49 C52 1.375 1_455 S
C49 H64 0.931 . S
C50 C49 1.362 . S
C50 C51 1.366 . S
C51 C48 1.365 . S
C51 C50 1.366 . S
C51 H65 0.930 . S
C52 C49 1.375 1_655 S
C52 N53 1.314 1_655 S
C52 H55 0.935 . S
N53 Co33 2.194 1_455 S
N53 C48 1.328 . S
N53 C52 1.314 1_455 S
H54 C48 0.929 . S
H55 C52 0.935 . S
H56 C44 0.929 . S
H57 C46 0.929 . S
O58 Co33 2.351 1_455 S
O58 C61 1.244 . S
O59 Co33 2.155 1_455 S
O59 C61 1.240 . S
O60 Co33 2.096 . S
O60 C41 1.247 . S
C61 O58 1.244 . S
C61 O59 1.240 . S
H62 C36 0.931 . S
H63 C45 0.931 . S
H64 C49 0.931 . S
H65 C51 0.930 . S
Co66 N70 2.148 . S
Co66 N76 2.128 . S
Co66 N86 2.194 . S
Co66 O91 2.351 . S
Co66 O92 2.155 . S
Co66 O93 2.096 . S
C67 N70 1.301 . S
C67 N71 1.328 . S
C67 H72 0.930 . S
C68 C69 1.333 . S
C68 N70 1.317 . S
C68 H73 0.930 . S
C69 C68 1.333 . S
C69 N71 1.350 . S
C69 H95 0.931 . S
N70 Co66 2.148 . S
N70 C67 1.301 . S
N70 C68 1.317 . S
N71 C67 1.328 . S
N71 C69 1.350 . S
H72 C67 0.930 . S
H73 C68 0.930 . S
C74 O75 1.224 . S
C74 O93 1.247 . S
O75 C74 1.224 . S
N76 Co66 2.128 . S
N76 C77 1.355 . S
N76 C79 1.311 . S
C77 N76 1.355 . S
C77 C78 1.363 . S
C77 H89 0.929 . S
C78 C77 1.363 . S
C78 N80 1.375 . S
C78 H96 0.931 . S
C79 N76 1.311 . S
C79 N80 1.347 . S
C79 H90 0.929 . S
N80 C78 1.375 . S
N80 C79 1.347 . S
C81 C84 1.365 . S
C81 N86 1.328 . S
C81 H87 0.929 . S
C82 C83 1.362 . S
C82 C85 1.378 . S
C82 H97 0.929 . S
C83 C82 1.362 . S
C83 C84 1.366 . S
C84 C81 1.365 . S
C84 C83 1.366 . S
C84 H98 0.930 . S
C85 C82 1.378 . S
C85 N86 1.315 . S
C85 H88 0.930 . S
N86 Co66 2.194 . S
N86 C81 1.328 . S
N86 C85 1.315 . S
H87 C81 0.929 . S
H88 C85 0.930 . S
H89 C77 0.929 . S
H90 C79 0.929 . S
O91 Co66 2.351 . S
O91 C94 1.244 . S
O92 Co66 2.155 . S
O92 C94 1.240 . S
O93 Co66 2.096 . S
O93 C74 1.247 . S
C94 O91 1.244 . S
C94 O92 1.240 . S
H95 C69 0.931 . S
H96 C78 0.931 . S
H97 C82 0.929 . S
H98 C84 0.930 . S
Co99 N103 2.148 . S
Co99 N109 2.128 1_455 S
Co99 N119 2.194 1_455 S
Co99 O124 2.351 1_455 S
Co99 O125 2.155 1_455 S
Co99 O126 2.096 . S
C100 N103 1.301 . S
C100 N104 1.328 . S
C100 H105 0.930 . S
C101 C102 1.333 . S
C101 N103 1.317 . S
C101 H106 0.930 . S
C102 C101 1.333 . S
C102 N104 1.350 . S
C102 H128 0.931 . S
N103 Co99 2.148 . S
N103 C100 1.301 . S
N103 C101 1.317 . S
N104 C100 1.328 . S
N104 C102 1.350 . S
H105 C100 0.930 . S
H106 C101 0.930 . S
C107 O108 1.224 . S
C107 O126 1.247 . S
O108 C107 1.224 . S
N109 Co99 2.128 1_655 S
N109 C110 1.355 . S
N109 C112 1.311 . S
C110 N109 1.355 . S
C110 C111 1.363 . S
C110 H122 0.929 . S
C111 C110 1.363 . S
C111 N113 1.375 . S
C111 H129 0.931 . S
C112 N109 1.311 . S
C112 N113 1.347 . S
C112 H123 0.929 . S
N113 C111 1.375 . S
N113 C112 1.347 . S
C114 C117 1.365 . S
C114 N119 1.328 . S
C114 H120 0.929 . S
C115 C116 1.362 . S
C115 C118 1.378 1_655 S
C115 H130 0.928 1_655 S
C116 C115 1.362 . S
C116 C117 1.366 . S
C117 C114 1.365 . S
C117 C116 1.366 . S
C117 H131 0.930 . S
C118 C115 1.378 1_455 S
C118 N119 1.315 1_455 S
C118 H121 0.930 . S
N119 Co99 2.194 1_655 S
N119 C114 1.328 . S
N119 C118 1.315 1_655 S
H120 C114 0.929 . S
H121 C118 0.930 . S
H122 C110 0.929 . S
H123 C112 0.929 . S
O124 Co99 2.351 1_655 S
O124 C127 1.244 . S
O125 Co99 2.155 1_655 S
O125 C127 1.240 . S
O126 Co99 2.096 . S
O126 C107 1.247 . S
C127 O124 1.244 . S
C127 O125 1.240 . S
H128 C102 0.931 . S
H129 C111 0.931 . S
H130 C115 0.928 1_455 S
H131 C117 0.930 . S
Co132 N136 2.148 . S
Co132 N142 2.128 . S
Co132 N152 2.194 . S
Co132 O157 2.351 . S
Co132 O158 2.155 . S
Co132 O159 2.096 . S
C133 N136 1.301 . S
C133 N137 1.328 . S
C133 H138 0.930 . S
C134 C135 1.333 . S
C134 N136 1.317 . S
C134 H139 0.930 . S
C135 C134 1.333 . S
C135 N137 1.350 . S
C135 H161 0.931 . S
N136 Co132 2.148 . S
N136 C133 1.301 . S
N136 C134 1.317 . S
N137 C133 1.328 . S
N137 C135 1.350 . S
H138 C133 0.930 . S
H139 C134 0.930 . S
C140 O141 1.224 . S
C140 O159 1.247 . S
O141 C140 1.224 . S
N142 Co132 2.128 . S
N142 C143 1.355 . S
N142 C145 1.311 . S
C143 N142 1.355 . S
C143 C144 1.363 . S
C143 H155 0.929 . S
C144 C143 1.363 . S
C144 N146 1.375 . S
C144 H162 0.931 . S
C145 N142 1.311 . S
C145 N146 1.347 . S
C145 H156 0.929 . S
N146 C144 1.375 . S
N146 C145 1.347 . S
C147 C150 1.365 . S
C147 N152 1.328 . S
C147 H153 0.929 . S
C148 C149 1.362 . S
C148 C151 1.378 . S
C148 H163 0.929 . S
C149 C148 1.362 . S
C149 C150 1.366 . S
C150 C147 1.365 . S
C150 C149 1.366 . S
C150 H164 0.930 . S
C151 C148 1.378 . S
C151 N152 1.315 . S
C151 H154 0.930 . S
N152 Co132 2.194 . S
N152 C147 1.328 . S
N152 C151 1.315 . S
H153 C147 0.929 . S
H154 C151 0.930 . S
H155 C143 0.929 . S
H156 C145 0.929 . S
O157 Co132 2.351 . S
O157 C160 1.244 . S
O158 Co132 2.155 . S
O158 C160 1.240 . S
O159 Co132 2.096 . S
O159 C140 1.247 . S
C160 O157 1.244 . S
C160 O158 1.240 . S
H161 C135 0.931 . S
H162 C144 0.931 . S
H163 C148 0.929 . S
H164 C150 0.930 . S
Co165 N169 2.148 . S
Co165 N175 2.128 1_565 S
Co165 N185 2.194 1_565 S
Co165 O190 2.351 1_565 S
Co165 O191 2.155 1_565 S
Co165 O192 2.096 . S
C166 N169 1.301 . S
C166 N170 1.328 . S
C166 H171 0.930 . S
C167 C168 1.333 . S
C167 N169 1.317 . S
C167 H172 0.930 . S
C168 C167 1.333 . S
C168 N170 1.350 . S
C168 H194 0.931 . S
N169 Co165 2.148 . S
N169 C166 1.301 . S
N169 C167 1.317 . S
N170 C166 1.328 . S
N170 C168 1.350 . S
H171 C166 0.930 . S
H172 C167 0.930 . S
C173 O174 1.224 . S
C173 O192 1.247 . S
O174 C173 1.224 . S
N175 Co165 2.128 1_545 S
N175 C176 1.355 . S
N175 C178 1.311 . S
C176 N175 1.355 . S
C176 C177 1.363 . S
C176 H188 0.929 . S
C177 C176 1.363 . S
C177 N179 1.375 . S
C177 H195 0.931 . S
C178 N175 1.311 . S
C178 N179 1.347 . S
C178 H189 0.929 . S
N179 C177 1.375 . S
N179 C178 1.347 . S
C180 C183 1.365 . S
C180 N185 1.328 . S
C180 H186 0.929 . S
C181 C182 1.362 . S
C181 C184 1.375 1_545 S
C181 H196 0.931 . S
C182 C181 1.362 . S
C182 C183 1.366 . S
C183 C180 1.365 . S
C183 C182 1.366 . S
C183 H197 0.930 . S
C184 C181 1.375 1_565 S
C184 N185 1.314 1_565 S
C184 H187 0.935 . S
N185 Co165 2.194 1_545 S
N185 C180 1.328 . S
N185 C184 1.314 1_545 S
H186 C180 0.929 . S
H187 C184 0.935 . S
H188 C176 0.929 . S
H189 C178 0.929 . S
O190 Co165 2.351 1_545 S
O190 C193 1.244 . S
O191 Co165 2.155 1_545 S
O191 C193 1.240 . S
O192 Co165 2.096 . S
O192 C173 1.247 . S
C193 O190 1.244 . S
C193 O191 1.240 . S
H194 C168 0.931 . S
H195 C177 0.931 . S
H196 C181 0.931 . S
H197 C183 0.930 . S
Co198 N202 2.148 . S
Co198 N208 2.128 . S
Co198 N218 2.194 . S
Co198 O223 2.351 . S
Co198 O224 2.155 . S
Co198 O225 2.096 . S
C199 N202 1.301 . S
C199 N203 1.328 . S
C199 H204 0.930 . S
C200 C201 1.333 . S
C200 N202 1.317 . S
C200 H205 0.930 . S
C201 C200 1.333 . S
C201 N203 1.350 . S
C201 H227 0.931 . S
N202 Co198 2.148 . S
N202 C199 1.301 . S
N202 C200 1.317 . S
N203 C199 1.328 . S
N203 C201 1.350 . S
H204 C199 0.930 . S
H205 C200 0.930 . S
C206 O207 1.224 . S
C206 O225 1.247 . S
O207 C206 1.224 . S
N208 Co198 2.128 . S
N208 C209 1.355 . S
N208 C211 1.311 . S
C209 N208 1.355 . S
C209 C210 1.363 . S
C209 H221 0.929 . S
C210 C209 1.363 . S
C210 N212 1.375 . S
C210 H228 0.931 . S
C211 N208 1.311 . S
C211 N212 1.347 . S
C211 H222 0.929 . S
N212 C210 1.375 . S
N212 C211 1.347 . S
C213 C216 1.365 . S
C213 N218 1.328 . S
C213 H219 0.929 . S
C214 C215 1.362 . S
C214 C217 1.378 . S
C214 H229 0.929 . S
C215 C214 1.362 . S
C215 C216 1.366 . S
C216 C213 1.365 . S
C216 C215 1.366 . S
C216 H230 0.930 . S
C217 C214 1.378 . S
C217 N218 1.315 . S
C217 H220 0.930 . S
N218 Co198 2.194 . S
N218 C213 1.328 . S
N218 C217 1.315 . S
H219 C213 0.929 . S
H220 C217 0.930 . S
H221 C209 0.929 . S
H222 C211 0.929 . S
O223 Co198 2.351 . S
O223 C226 1.244 . S
O224 Co198 2.155 . S
O224 C226 1.240 . S
O225 Co198 2.096 . S
O225 C206 1.247 . S
C226 O223 1.244 . S
C226 O224 1.240 . S
H227 C201 0.931 . S
H228 C210 0.931 . S
H229 C214 0.929 . S
H230 C216 0.930 . S
Co231 N235 2.148 . S
Co231 N241 2.128 . S
Co231 N251 2.194 . S
Co231 O256 2.351 . S
Co231 O257 2.155 . S
Co231 O258 2.096 . S
C232 N235 1.301 . S
C232 N236 1.328 . S
C232 H237 0.930 . S
C233 C234 1.333 . S
C233 N235 1.317 . S
C233 H238 0.930 . S
C234 C233 1.333 . S
C234 N236 1.350 . S
C234 H260 0.931 . S
N235 Co231 2.148 . S
N235 C232 1.301 . S
N235 C233 1.317 . S
N236 C232 1.328 . S
N236 C234 1.350 . S
H237 C232 0.930 . S
H238 C233 0.930 . S
C239 O240 1.224 . S
C239 O258 1.247 . S
O240 C239 1.224 . S
N241 Co231 2.128 . S
N241 C242 1.355 . S
N241 C244 1.311 . S
C242 N241 1.355 . S
C242 C243 1.363 . S
C242 H254 0.929 . S
C243 C242 1.363 . S
C243 N245 1.375 . S
C243 H261 0.931 . S
C244 N241 1.311 . S
C244 N245 1.347 . S
C244 H255 0.929 . S
N245 C243 1.375 . S
N245 C244 1.347 . S
C246 C249 1.365 . S
C246 N251 1.328 . S
C246 H252 0.929 . S
C247 C248 1.362 . S
C247 C250 1.378 . S
C247 H262 0.929 . S
C248 C247 1.362 . S
C248 C249 1.366 . S
C249 C246 1.365 . S
C249 C248 1.366 . S
C249 H263 0.930 . S
C250 C247 1.378 . S
C250 N251 1.315 . S
C250 H253 0.930 . S
N251 Co231 2.194 . S
N251 C246 1.328 . S
N251 C250 1.315 . S
H252 C246 0.929 . S
H253 C250 0.930 . S
H254 C242 0.929 . S
H255 C244 0.929 . S
O256 Co231 2.351 . S
O256 C259 1.244 . S
O257 Co231 2.155 . S
O257 C259 1.240 . S
O258 Co231 2.096 . S
O258 C239 1.247 . S
C259 O256 1.244 . S
C259 O257 1.240 . S
H260 C234 0.931 . S
H261 C243 0.931 . S
H262 C247 0.929 . S
H263 C249 0.930 . S
Co264 N268 2.148 . S
Co264 N274 2.128 . S
Co264 N284 2.194 . S
Co264 O289 2.351 . S
Co264 O290 2.155 . S
Co264 O291 2.096 . S
C265 N268 1.301 . S
C265 N269 1.328 . S
C265 H270 0.930 . S
C266 C267 1.333 . S
C266 N268 1.317 . S
C266 H271 0.930 . S
C267 C266 1.333 . S
C267 N269 1.350 . S
C267 H293 0.931 . S
N268 Co264 2.148 . S
N268 C265 1.301 . S
N268 C266 1.317 . S
N269 C265 1.328 . S
N269 C267 1.350 . S
H270 C265 0.930 . S
H271 C266 0.930 . S
C272 O273 1.224 . S
C272 O291 1.247 . S
O273 C272 1.224 . S
N274 Co264 2.128 . S
N274 C275 1.355 . S
N274 C277 1.311 . S
C275 N274 1.355 . S
C275 C276 1.363 . S
C275 H287 0.929 . S
C276 C275 1.363 . S
C276 N278 1.375 . S
C276 H294 0.931 . S
C277 N274 1.311 . S
C277 N278 1.347 . S
C277 H288 0.929 . S
N278 C276 1.375 . S
N278 C277 1.347 . S
C279 C282 1.365 . S
C279 N284 1.328 . S
C279 H285 0.929 . S
C280 C281 1.362 . S
C280 C283 1.378 . S
C280 H295 0.929 . S
C281 C280 1.362 . S
C281 C282 1.366 . S
C282 C279 1.365 . S
C282 C281 1.366 . S
C282 H296 0.930 . S
C283 C280 1.378 . S
C283 N284 1.315 . S
C283 H286 0.930 . S
N284 Co264 2.194 . S
N284 C279 1.328 . S
N284 C283 1.315 . S
H285 C279 0.929 . S
H286 C283 0.930 . S
H287 C275 0.929 . S
H288 C277 0.929 . S
O289 Co264 2.351 . S
O289 C292 1.244 . S
O290 Co264 2.155 . S
O290 C292 1.240 . S
O291 Co264 2.096 . S
O291 C272 1.247 . S
C292 O289 1.244 . S
C292 O290 1.240 . S
H293 C267 0.931 . S
H294 C276 0.931 . S
H295 C280 0.929 . S
H296 C282 0.930 . S
Co297 N301 2.148 . S
Co297 N307 2.128 . S
Co297 N317 2.194 . S
Co297 O322 2.351 . S
Co297 O323 2.155 . S
Co297 O324 2.096 . S
C298 N301 1.301 . S
C298 N302 1.328 . S
C298 H303 0.930 . S
C299 C300 1.333 . S
C299 N301 1.317 . S
C299 H304 0.930 . S
C300 C299 1.333 . S
C300 N302 1.350 . S
C300 H326 0.931 . S
N301 Co297 2.148 . S
N301 C298 1.301 . S
N301 C299 1.317 . S
N302 C298 1.328 . S
N302 C300 1.350 . S
H303 C298 0.930 . S
H304 C299 0.930 . S
C305 O306 1.224 . S
C305 O324 1.247 . S
O306 C305 1.224 . S
N307 Co297 2.128 . S
N307 C308 1.355 . S
N307 C310 1.311 . S
C308 N307 1.355 . S
C308 C309 1.363 . S
C308 H320 0.929 . S
C309 C308 1.363 . S
C309 N311 1.375 . S
C309 H327 0.931 . S
C310 N307 1.311 . S
C310 N311 1.347 . S
C310 H321 0.929 . S
N311 C309 1.375 . S
N311 C310 1.347 . S
C312 C315 1.365 . S
C312 N317 1.328 . S
C312 H318 0.929 . S
C313 C314 1.362 . S
C313 C316 1.378 1_556 S
C313 H328 0.929 . S
C314 C313 1.362 . S
C314 C315 1.366 1_556 S
C315 C312 1.365 . S
C315 C314 1.366 1_554 S
C315 H329 0.930 . S
C316 C313 1.378 1_554 S
C316 N317 1.315 . S
C316 H319 0.930 . S
N317 Co297 2.194 . S
N317 C312 1.328 . S
N317 C316 1.315 . S
H318 C312 0.929 . S
H319 C316 0.930 . S
H320 C308 0.929 . S
H321 C310 0.929 . S
O322 Co297 2.351 . S
O322 C325 1.244 . S
O323 Co297 2.155 . S
O323 C325 1.240 . S
O324 Co297 2.096 . S
O324 C305 1.247 . S
C325 O322 1.244 . S
C325 O323 1.240 . S
H326 C300 0.931 . S
H327 C309 0.931 . S
H328 C313 0.929 . S
H329 C315 0.930 . S
Co330 N334 2.148 . S
Co330 N340 2.128 . S
Co330 N350 2.194 . S
Co330 O355 2.351 . S
Co330 O356 2.155 . S
Co330 O357 2.096 . S
C331 N334 1.301 . S
C331 N335 1.328 . S
C331 H336 0.930 . S
C332 C333 1.333 . S
C332 N334 1.317 . S
C332 H337 0.930 . S
C333 C332 1.333 . S
C333 N335 1.350 . S
C333 H359 0.931 . S
N334 Co330 2.148 . S
N334 C331 1.301 . S
N334 C332 1.317 . S
N335 C331 1.328 . S
N335 C333 1.350 . S
H336 C331 0.930 . S
H337 C332 0.930 . S
C338 O339 1.224 . S
C338 O357 1.247 . S
O339 C338 1.224 . S
N340 Co330 2.128 . S
N340 C341 1.355 . S
N340 C343 1.311 . S
C341 N340 1.355 . S
C341 C342 1.363 . S
C341 H353 0.929 . S
C342 C341 1.363 . S
C342 N344 1.375 . S
C342 H360 0.931 . S
C343 N340 1.311 . S
C343 N344 1.347 . S
C343 H354 0.929 . S
N344 C342 1.375 . S
N344 C343 1.347 . S
C345 C348 1.365 . S
C345 N350 1.328 . S
C345 H351 0.929 . S
C346 C347 1.362 . S
C346 C349 1.378 1_556 S
C346 H361 0.929 . S
C347 C346 1.362 . S
C347 C348 1.366 1_556 S
C348 C345 1.365 . S
C348 C347 1.366 1_554 S
C348 H362 0.930 . S
C349 C346 1.378 1_554 S
C349 N350 1.315 . S
C349 H352 0.930 . S
N350 Co330 2.194 . S
N350 C345 1.328 . S
N350 C349 1.315 . S
H351 C345 0.929 . S
H352 C349 0.930 . S
H353 C341 0.929 . S
H354 C343 0.929 . S
O355 Co330 2.351 . S
O355 C358 1.244 . S
O356 Co330 2.155 . S
O356 C358 1.240 . S
O357 Co330 2.096 . S
O357 C338 1.247 . S
C358 O355 1.244 . S
C358 O356 1.240 . S
H359 C333 0.931 . S
H360 C342 0.931 . S
H361 C346 0.929 . S
H362 C348 0.930 . S
Co363 N367 2.148 . S
Co363 N373 2.128 . S
Co363 N383 2.194 . S
Co363 O388 2.351 . S
Co363 O389 2.155 . S
Co363 O390 2.096 . S
C364 N367 1.301 . S
C364 N368 1.328 . S
C364 H369 0.930 . S
C365 C366 1.333 . S
C365 N367 1.317 . S
C365 H370 0.930 . S
C366 C365 1.333 . S
C366 N368 1.350 . S
C366 H392 0.931 . S
N367 Co363 2.148 . S
N367 C364 1.301 . S
N367 C365 1.317 . S
N368 C364 1.328 . S
N368 C366 1.350 . S
H369 C364 0.930 . S
H370 C365 0.930 . S
C371 O372 1.224 . S
C371 O390 1.247 . S
O372 C371 1.224 . S
N373 Co363 2.128 . S
N373 C374 1.355 . S
N373 C376 1.311 . S
C374 N373 1.355 . S
C374 C375 1.363 . S
C374 H386 0.929 . S
C375 C374 1.363 . S
C375 N377 1.375 . S
C375 H393 0.931 . S
C376 N373 1.311 . S
C376 N377 1.347 . S
C376 H387 0.929 . S
N377 C375 1.375 . S
N377 C376 1.347 . S
C378 C381 1.365 . S
C378 N383 1.328 . S
C378 H384 0.929 . S
C379 C380 1.362 . S
C379 C382 1.378 1_556 S
C379 H394 0.929 . S
C380 C379 1.362 . S
C380 C381 1.366 1_556 S
C381 C378 1.365 . S
C381 C380 1.366 1_554 S
C381 H395 0.930 . S
C382 C379 1.378 1_554 S
C382 N383 1.315 . S
C382 H385 0.930 . S
N383 Co363 2.194 . S
N383 C378 1.328 . S
N383 C382 1.315 . S
H384 C378 0.929 . S
H385 C382 0.930 . S
H386 C374 0.929 . S
H387 C376 0.929 . S
O388 Co363 2.351 . S
O388 C391 1.244 . S
O389 Co363 2.155 . S
O389 C391 1.240 . S
O390 Co363 2.096 . S
O390 C371 1.247 . S
C391 O388 1.244 . S
C391 O389 1.240 . S
H392 C366 0.931 . S
H393 C375 0.931 . S
H394 C379 0.929 . S
H395 C381 0.930 . S
Co396 N400 2.148 . S
Co396 N406 2.128 . S
Co396 N416 2.194 . S
Co396 O421 2.351 . S
Co396 O422 2.155 . S
Co396 O423 2.096 . S
C397 N400 1.301 . S
C397 N401 1.328 . S
C397 H402 0.930 . S
C398 C399 1.333 . S
C398 N400 1.317 . S
C398 H403 0.930 . S
C399 C398 1.333 . S
C399 N401 1.350 . S
C399 H425 0.931 . S
N400 Co396 2.148 . S
N400 C397 1.301 . S
N400 C398 1.317 . S
N401 C397 1.328 . S
N401 C399 1.350 . S
H402 C397 0.930 . S
H403 C398 0.930 . S
C404 O405 1.224 . S
C404 O423 1.247 . S
O405 C404 1.224 . S
N406 Co396 2.128 . S
N406 C407 1.355 . S
N406 C409 1.311 . S
C407 N406 1.355 . S
C407 C408 1.363 . S
C407 H419 0.929 . S
C408 C407 1.363 . S
C408 N410 1.375 . S
C408 H426 0.931 . S
C409 N406 1.311 . S
C409 N410 1.347 . S
C409 H420 0.929 . S
N410 C408 1.375 . S
N410 C409 1.347 . S
C411 C414 1.365 . S
C411 N416 1.328 . S
C411 H417 0.929 . S
C412 C413 1.362 . S
C412 C415 1.378 1_554 S
C412 H427 0.929 . S
C413 C412 1.362 . S
C413 C414 1.366 1_554 S
C414 C411 1.365 . S
C414 C413 1.366 1_556 S
C414 H428 0.930 . S
C415 C412 1.378 1_556 S
C415 N416 1.315 . S
C415 H418 0.930 . S
N416 Co396 2.194 . S
N416 C411 1.328 . S
N416 C415 1.315 . S
H417 C411 0.929 . S
H418 C415 0.930 . S
H419 C407 0.929 . S
H420 C409 0.929 . S
O421 Co396 2.351 . S
O421 C424 1.244 . S
O422 Co396 2.155 . S
O422 C424 1.240 . S
O423 Co396 2.096 . S
O423 C404 1.247 . S
C424 O421 1.244 . S
C424 O422 1.240 . S
H425 C399 0.931 . S
H426 C408 0.931 . S
H427 C412 0.929 . S
H428 C414 0.930 . S
Co429 N433 2.148 . S
Co429 N439 2.128 . S
Co429 N449 2.194 . S
Co429 O454 2.351 . S
Co429 O455 2.155 . S
Co429 O456 2.096 . S
C430 N433 1.301 . S
C430 N434 1.328 . S
C430 H435 0.930 . S
C431 C432 1.333 . S
C431 N433 1.317 . S
C431 H436 0.930 . S
C432 C431 1.333 . S
C432 N434 1.350 . S
C432 H458 0.931 . S
N433 Co429 2.148 . S
N433 C430 1.301 . S
N433 C431 1.317 . S
N434 C430 1.328 . S
N434 C432 1.350 . S
H435 C430 0.930 . S
H436 C431 0.930 . S
C437 O438 1.224 . S
C437 O456 1.247 . S
O438 C437 1.224 . S
N439 Co429 2.128 . S
N439 C440 1.355 . S
N439 C442 1.311 . S
C440 N439 1.355 . S
C440 C441 1.363 . S
C440 H452 0.929 . S
C441 C440 1.363 . S
C441 N443 1.375 . S
C441 H459 0.931 . S
C442 N439 1.311 . S
C442 N443 1.347 . S
C442 H453 0.929 . S
N443 C441 1.375 . S
N443 C442 1.347 . S
C444 C447 1.365 . S
C444 N449 1.328 . S
C444 H450 0.929 . S
C445 C446 1.362 . S
C445 C448 1.378 1_554 S
C445 H460 0.929 . S
C446 C445 1.362 . S
C446 C447 1.366 1_554 S
C447 C444 1.365 . S
C447 C446 1.366 1_556 S
C447 H461 0.930 . S
C448 C445 1.378 1_556 S
C448 N449 1.315 . S
C448 H451 0.930 . S
N449 Co429 2.194 . S
N449 C444 1.328 . S
N449 C448 1.315 . S
H450 C444 0.929 . S
H451 C448 0.930 . S
H452 C440 0.929 . S
H453 C442 0.929 . S
O454 Co429 2.351 . S
O454 C457 1.244 . S
O455 Co429 2.155 . S
O455 C457 1.240 . S
O456 Co429 2.096 . S
O456 C437 1.247 . S
C457 O454 1.244 . S
C457 O455 1.240 . S
H458 C432 0.931 . S
H459 C441 0.931 . S
H460 C445 0.929 . S
H461 C447 0.930 . S
Co462 N466 2.148 . S
Co462 N472 2.128 . S
Co462 N482 2.194 . S
Co462 O487 2.351 . S
Co462 O488 2.155 . S
Co462 O489 2.096 . S
C463 N466 1.301 . S
C463 N467 1.328 . S
C463 H468 0.930 . S
C464 C465 1.333 . S
C464 N466 1.317 . S
C464 H469 0.930 . S
C465 C464 1.333 . S
C465 N467 1.350 . S
C465 H491 0.931 . S
N466 Co462 2.148 . S
N466 C463 1.301 . S
N466 C464 1.317 . S
N467 C463 1.328 . S
N467 C465 1.350 . S
H468 C463 0.930 . S
H469 C464 0.930 . S
C470 O471 1.224 . S
C470 O489 1.247 . S
O471 C470 1.224 . S
N472 Co462 2.128 . S
N472 C473 1.355 . S
N472 C475 1.311 . S
C473 N472 1.355 . S
C473 C474 1.363 . S
C473 H485 0.929 . S
C474 C473 1.363 . S
C474 N476 1.375 . S
C474 H492 0.931 . S
C475 N472 1.311 . S
C475 N476 1.347 . S
C475 H486 0.929 . S
N476 C474 1.375 . S
N476 C475 1.347 . S
C477 C480 1.365 . S
C477 N482 1.328 . S
C477 H483 0.929 . S
C478 C479 1.362 . S
C478 C481 1.378 1_554 S
C478 H493 0.929 . S
C479 C478 1.362 . S
C479 C480 1.366 1_554 S
C480 C477 1.365 . S
C480 C479 1.366 1_556 S
C480 H494 0.930 . S
C481 C478 1.378 1_556 S
C481 N482 1.315 . S
C481 H484 0.930 . S
N482 Co462 2.194 . S
N482 C477 1.328 . S
N482 C481 1.315 . S
H483 C477 0.929 . S
H484 C481 0.930 . S
H485 C473 0.929 . S
H486 C475 0.929 . S
O487 Co462 2.351 . S
O487 C490 1.244 . S
O488 Co462 2.155 . S
O488 C490 1.240 . S
O489 Co462 2.096 . S
O489 C470 1.247 . S
C490 O487 1.244 . S
C490 O488 1.240 . S
H491 C465 0.931 . S
H492 C474 0.931 . S
H493 C478 0.929 . S
H494 C480 0.930 . S
Co495 N499 2.148 . S
Co495 N505 2.128 . S
Co495 N515 2.194 . S
Co495 O520 2.351 . S
Co495 O521 2.155 . S
Co495 O522 2.096 . S
C496 N499 1.301 . S
C496 N500 1.328 . S
C496 H501 0.930 . S
C497 C498 1.333 . S
C497 N499 1.317 . S
C497 H502 0.930 . S
C498 C497 1.333 . S
C498 N500 1.350 . S
C498 H524 0.931 . S
N499 Co495 2.148 . S
N499 C496 1.301 . S
N499 C497 1.317 . S
N500 C496 1.328 . S
N500 C498 1.350 . S
H501 C496 0.930 . S
H502 C497 0.930 . S
C503 O504 1.224 . S
C503 O522 1.247 . S
O504 C503 1.224 . S
N505 Co495 2.128 . S
N505 C506 1.355 . S
N505 C508 1.311 . S
C506 N505 1.355 . S
C506 C507 1.363 . S
C506 H518 0.929 . S
C507 C506 1.363 . S
C507 N509 1.375 . S
C507 H525 0.931 . S
C508 N505 1.311 . S
C508 N509 1.347 . S
C508 H519 0.929 . S
N509 C507 1.375 . S
N509 C508 1.347 . S
C510 C513 1.365 . S
C510 N515 1.328 . S
C510 H516 0.929 . S
C511 C512 1.362 . S
C511 C514 1.378 . S
C511 H526 0.929 . S
C512 C511 1.362 . S
C512 C513 1.366 . S
C513 C510 1.365 . S
C513 C512 1.366 . S
C513 H527 0.930 . S
C514 C511 1.378 . S
C514 N515 1.315 . S
C514 H517 0.930 . S
N515 Co495 2.194 . S
N515 C510 1.328 . S
N515 C514 1.315 . S
H516 C510 0.929 . S
H517 C514 0.930 . S
H518 C506 0.929 . S
H519 C508 0.929 . S
O520 Co495 2.351 . S
O520 C523 1.244 . S
O521 Co495 2.155 . S
O521 C523 1.240 . S
O522 Co495 2.096 . S
O522 C503 1.247 . S
C523 O520 1.244 . S
C523 O521 1.240 . S
H524 C498 0.931 . S
H525 C507 0.931 . S
H526 C511 0.929 . S
H527 C513 0.930 . S
Co528 N532 2.148 . S
Co528 N538 2.128 . S
Co528 N548 2.194 . S
Co528 O553 2.351 . S
Co528 O554 2.155 . S
Co528 O555 2.096 . S
C529 N532 1.301 . S
C529 N533 1.328 . S
C529 H534 0.930 . S
C530 C531 1.333 . S
C530 N532 1.317 . S
C530 H535 0.930 . S
C531 C530 1.333 . S
C531 N533 1.350 . S
C531 H557 0.931 . S
N532 Co528 2.148 . S
N532 C529 1.301 . S
N532 C530 1.317 . S
N533 C529 1.328 . S
N533 C531 1.350 . S
H534 C529 0.930 . S
H535 C530 0.930 . S
C536 O537 1.224 . S
C536 O555 1.247 . S
O537 C536 1.224 . S
N538 Co528 2.128 . S
N538 C539 1.355 . S
N538 C541 1.311 . S
C539 N538 1.355 . S
C539 C540 1.363 . S
C539 H551 0.929 . S
C540 C539 1.363 . S
C540 N542 1.375 . S
C540 H558 0.931 . S
C541 N538 1.311 . S
C541 N542 1.347 . S
C541 H552 0.929 . S
N542 C540 1.375 . S
N542 C541 1.347 . S
C543 C546 1.365 . S
C543 N548 1.328 . S
C543 H549 0.929 . S
C544 C545 1.362 . S
C544 C547 1.378 . S
C544 H559 0.929 . S
C545 C544 1.362 . S
C545 C546 1.366 . S
C546 C543 1.365 . S
C546 C545 1.366 . S
C546 H560 0.930 . S
C547 C544 1.378 . S
C547 N548 1.315 . S
C547 H550 0.930 . S
N548 Co528 2.194 . S
N548 C543 1.328 . S
N548 C547 1.315 . S
H549 C543 0.929 . S
H550 C547 0.930 . S
H551 C539 0.929 . S
H552 C541 0.929 . S
O553 Co528 2.351 . S
O553 C556 1.244 . S
O554 Co528 2.155 . S
O554 C556 1.240 . S
O555 Co528 2.096 . S
O555 C536 1.247 . S
C556 O553 1.244 . S
C556 O554 1.240 . S
H557 C531 0.931 . S
H558 C540 0.931 . S
H559 C544 0.929 . S
H560 C546 0.930 . S
Co561 N565 2.148 . S
Co561 N571 2.128 . S
Co561 N581 2.194 . S
Co561 O586 2.351 . S
Co561 O587 2.155 . S
Co561 O588 2.096 . S
C562 N565 1.301 . S
C562 N566 1.328 . S
C562 H567 0.930 . S
C563 C564 1.333 . S
C563 N565 1.317 . S
C563 H568 0.930 . S
C564 C563 1.333 . S
C564 N566 1.350 . S
C564 H590 0.931 . S
N565 Co561 2.148 . S
N565 C562 1.301 . S
N565 C563 1.317 . S
N566 C562 1.328 . S
N566 C564 1.350 . S
H567 C562 0.930 . S
H568 C563 0.930 . S
C569 O570 1.224 . S
C569 O588 1.247 . S
O570 C569 1.224 . S
N571 Co561 2.128 . S
N571 C572 1.355 . S
N571 C574 1.311 . S
C572 N571 1.355 . S
C572 C573 1.363 . S
C572 H584 0.929 . S
C573 C572 1.363 . S
C573 N575 1.375 . S
C573 H591 0.931 . S
C574 N571 1.311 . S
C574 N575 1.347 . S
C574 H585 0.929 . S
N575 C573 1.375 . S
N575 C574 1.347 . S
C576 C579 1.365 . S
C576 N581 1.328 . S
C576 H582 0.929 . S
C577 C578 1.362 . S
C577 C580 1.378 . S
C577 H592 0.929 . S
C578 C577 1.362 . S
C578 C579 1.366 . S
C579 C576 1.365 . S
C579 C578 1.366 . S
C579 H593 0.930 . S
C580 C577 1.378 . S
C580 N581 1.315 . S
C580 H583 0.930 . S
N581 Co561 2.194 . S
N581 C576 1.328 . S
N581 C580 1.315 . S
H582 C576 0.929 . S
H583 C580 0.930 . S
H584 C572 0.929 . S
H585 C574 0.929 . S
O586 Co561 2.351 . S
O586 C589 1.244 . S
O587 Co561 2.155 . S
O587 C589 1.240 . S
O588 Co561 2.096 . S
O588 C569 1.247 . S
C589 O586 1.244 . S
C589 O587 1.240 . S
H590 C564 0.931 . S
H591 C573 0.931 . S
H592 C577 0.929 . S
H593 C579 0.930 . S
H594 C600 0.930 . S
H595 C604 0.930 . S
H596 C609 0.929 . S
H597 C607 0.929 . S
H598 C602 0.929 . S
H599 C608 0.929 . S
C600 H594 0.930 . S
C600 C601 1.367 . S
C600 C608 1.378 . S
C601 C600 1.367 . S
C601 C609 1.433 . S
C602 H598 0.929 . S
C602 C604 1.378 . S
C602 C606 1.350 . S
C603 C606 1.463 . S
C603 C608 1.350 . S
C603 N611 1.427 . S
C604 H595 0.930 . S
C604 C602 1.378 . S
C604 C605 1.367 . S
C605 C604 1.367 . S
C605 C607 1.433 . S
C606 C602 1.350 . S
C606 C603 1.463 . S
C606 N610 1.427 . S
C607 H597 0.929 . S
C607 C605 1.433 . S
C607 N610 1.384 . S
C608 H599 0.929 . S
C608 C600 1.378 . S
C608 C603 1.350 . S
C609 H596 0.929 . S
C609 C601 1.433 . S
C609 N611 1.384 . S
N610 C606 1.427 . S
N610 C607 1.384 . S
N611 C603 1.427 . S
N611 C609 1.384 . S
H612 C618 0.930 . S
H613 C622 0.930 . S
H614 C627 0.929 . S
H615 C625 0.929 . S
H616 C620 0.929 . S
H617 C626 0.929 . S
C618 H612 0.930 . S
C618 C619 1.367 . S
C618 C626 1.378 . S
C619 C618 1.367 . S
C619 C627 1.433 . S
C620 H616 0.929 . S
C620 C622 1.378 . S
C620 C624 1.350 . S
C621 C624 1.463 1_565 S
C621 C626 1.350 . S
C621 N629 1.427 . S
C622 H613 0.930 . S
C622 C620 1.378 . S
C622 C623 1.367 . S
C623 C622 1.367 . S
C623 C625 1.433 . S
C624 C620 1.350 . S
C624 C621 1.463 1_545 S
C624 N628 1.427 . S
C625 H615 0.929 . S
C625 C623 1.433 . S
C625 N628 1.384 . S
C626 H617 0.929 . S
C626 C618 1.378 . S
C626 C621 1.350 . S
C627 H614 0.929 . S
C627 C619 1.433 . S
C627 N629 1.384 . S
N628 C624 1.427 . S
N628 C625 1.384 . S
N629 C621 1.427 . S
N629 C627 1.384 . S
H630 C636 0.930 . S
H631 C640 0.930 . S
H632 C645 0.929 . S
H633 C643 0.929 . S
H634 C638 0.929 . S
H635 C644 0.929 . S
C636 H630 0.930 . S
C636 C637 1.367 . S
C636 C644 1.378 . S
C637 C636 1.367 . S
C637 C645 1.433 . S
C638 H634 0.929 . S
C638 C640 1.378 . S
C638 C642 1.350 . S
C639 C642 1.463 1_655 S
C639 C644 1.350 . S
C639 N647 1.427 . S
C640 H631 0.930 . S
C640 C638 1.378 . S
C640 C641 1.367 . S
C641 C640 1.367 . S
C641 C643 1.433 . S
C642 C638 1.350 . S
C642 C639 1.463 1_455 S
C642 N646 1.427 . S
C643 H633 0.929 . S
C643 C641 1.433 . S
C643 N646 1.384 . S
C644 H635 0.929 . S
C644 C636 1.378 . S
C644 C639 1.350 . S
C645 H632 0.929 . S
C645 C637 1.433 . S
C645 N647 1.384 . S
N646 C642 1.427 . S
N646 C643 1.384 . S
N647 C639 1.427 . S
N647 C645 1.384 . S
H648 C654 0.930 . S
H649 C658 0.930 . S
H650 C663 0.929 . S
H651 C661 0.929 . S
H652 C656 0.929 . S
H653 C662 0.929 . S
C654 H648 0.930 . S
C654 C655 1.367 . S
C654 C662 1.378 . S
C655 C654 1.367 . S
C655 C663 1.433 . S
C656 H652 0.929 . S
C656 C658 1.378 . S
C656 C660 1.350 . S
C657 C660 1.463 . S
C657 C662 1.350 . S
C657 N665 1.427 . S
C658 H649 0.930 . S
C658 C656 1.378 . S
C658 C659 1.367 . S
C659 C658 1.367 . S
C659 C661 1.433 . S
C660 C656 1.350 . S
C660 C657 1.463 . S
C660 N664 1.427 . S
C661 H651 0.929 . S
C661 C659 1.433 . S
C661 N664 1.384 . S
C662 H653 0.929 . S
C662 C654 1.378 . S
C662 C657 1.350 . S
C663 H650 0.929 . S
C663 C655 1.433 . S
C663 N665 1.384 . S
N664 C660 1.427 . S
N664 C661 1.384 . S
N665 C657 1.427 . S
N665 C663 1.384 . S
H666 C672 0.930 . S
H667 C676 0.930 . S
H668 C681 0.929 . S
H669 C679 0.929 . S
H670 C674 0.929 . S
H671 C680 0.929 . S
C672 H666 0.930 . S
C672 C673 1.367 . S
C672 C680 1.378 . S
C673 C672 1.367 . S
C673 C681 1.433 . S
C674 H670 0.929 . S
C674 C676 1.378 . S
C674 C678 1.350 . S
C675 C678 1.463 1_545 S
C675 C680 1.350 . S
C675 N683 1.427 . S
C676 H667 0.930 . S
C676 C674 1.378 . S
C676 C677 1.367 . S
C677 C676 1.367 . S
C677 C679 1.433 . S
C678 C674 1.350 . S
C678 C675 1.463 1_565 S
C678 N682 1.427 . S
C679 H669 0.929 . S
C679 C677 1.433 . S
C679 N682 1.384 . S
C680 H671 0.929 . S
C680 C672 1.378 . S
C680 C675 1.350 . S
C681 H668 0.929 . S
C681 C673 1.433 . S
C681 N683 1.384 . S
N682 C678 1.427 . S
N682 C679 1.384 . S
N683 C675 1.427 . S
N683 C681 1.384 . S
H684 C690 0.930 . S
H685 C694 0.930 . S
H686 C699 0.929 . S
H687 C697 0.929 . S
H688 C692 0.929 . S
H689 C698 0.929 . S
C690 H684 0.930 . S
C690 C691 1.367 . S
C690 C698 1.378 . S
C691 C690 1.367 . S
C691 C699 1.433 . S
C692 H688 0.929 . S
C692 C694 1.378 . S
C692 C696 1.350 . S
C693 C696 1.463 1_455 S
C693 C698 1.350 . S
C693 N701 1.427 . S
C694 H685 0.930 . S
C694 C692 1.378 . S
C694 C695 1.367 . S
C695 C694 1.367 . S
C695 C697 1.433 . S
C696 C692 1.350 . S
C696 C693 1.463 1_655 S
C696 N700 1.427 . S
C697 H687 0.929 . S
C697 C695 1.433 . S
C697 N700 1.384 . S
C698 H689 0.929 . S
C698 C690 1.378 . S
C698 C693 1.350 . S
C699 H686 0.929 . S
C699 C691 1.433 . S
C699 N701 1.384 . S
N700 C696 1.427 . S
N700 C697 1.384 . S
N701 C693 1.427 . S
N701 C699 1.384 . S
H702 C708 0.930 . S
H703 C712 0.930 . S
H704 C717 0.929 . S
H705 C715 0.929 . S
H706 C710 0.929 . S
H707 C716 0.929 . S
C708 H702 0.930 . S
C708 C709 1.367 . S
C708 C716 1.378 . S
C709 C708 1.367 . S
C709 C717 1.433 . S
C710 H706 0.929 . S
C710 C712 1.378 . S
C710 C714 1.350 . S
C711 C714 1.463 . S
C711 C716 1.350 . S
C711 N719 1.427 . S
C712 H703 0.930 . S
C712 C710 1.378 . S
C712 C713 1.367 . S
C713 C712 1.367 . S
C713 C715 1.433 . S
C714 C710 1.350 . S
C714 C711 1.463 . S
C714 N718 1.427 . S
C715 H705 0.929 . S
C715 C713 1.433 . S
C715 N718 1.384 . S
C716 H707 0.929 . S
C716 C708 1.378 . S
C716 C711 1.350 . S
C717 H704 0.929 . S
C717 C709 1.433 . S
C717 N719 1.384 . S
N718 C714 1.427 . S
N718 C715 1.384 . S
N719 C711 1.427 . S
N719 C717 1.384 . S
H720 C726 0.930 . S
H721 C730 0.930 . S
H722 C735 0.929 . S
H723 C733 0.929 . S
H724 C728 0.929 . S
H725 C734 0.929 . S
C726 H720 0.930 . S
C726 C727 1.367 . S
C726 C734 1.378 . S
C727 C726 1.367 . S
C727 C735 1.433 . S
C728 H724 0.929 . S
C728 C730 1.378 . S
C728 C732 1.350 . S
C729 C732 1.463 . S
C729 C734 1.350 . S
C729 N737 1.427 . S
C730 H721 0.930 . S
C730 C728 1.378 . S
C730 C731 1.367 . S
C731 C730 1.367 . S
C731 C733 1.433 . S
C732 C728 1.350 . S
C732 C729 1.463 . S
C732 N736 1.427 . S
C733 H723 0.929 . S
C733 C731 1.433 . S
C733 N736 1.384 . S
C734 H725 0.929 . S
C734 C726 1.378 . S
C734 C729 1.350 . S
C735 H722 0.929 . S
C735 C727 1.433 . S
C735 N737 1.384 . S
N736 C732 1.427 . S
N736 C733 1.384 . S
N737 C729 1.427 . S
N737 C735 1.384 . S
H738 C744 0.930 . S
H739 C748 0.930 . S
H740 C753 0.929 . S
H741 C751 0.929 . S
H742 C746 0.929 . S
H743 C752 0.929 . S
C744 H738 0.930 . S
C744 C745 1.367 . S
C744 C752 1.378 . S
C745 C744 1.367 . S
C745 C753 1.433 . S
C746 H742 0.929 . S
C746 C748 1.378 . S
C746 C750 1.350 . S
C747 C750 1.463 . S
C747 C752 1.350 . S
C747 N755 1.427 . S
C748 H739 0.930 . S
C748 C746 1.378 . S
C748 C749 1.367 . S
C749 C748 1.367 . S
C749 C751 1.433 . S
C750 C746 1.350 . S
C750 C747 1.463 . S
C750 N754 1.427 . S
C751 H741 0.929 . S
C751 C749 1.433 . S
C751 N754 1.384 . S
C752 H743 0.929 . S
C752 C744 1.378 . S
C752 C747 1.350 . S
C753 H740 0.929 . S
C753 C745 1.433 . S
C753 N755 1.384 . S
N754 C750 1.427 . S
N754 C751 1.384 . S
N755 C747 1.427 . S
N755 C753 1.384 . S
H756 C762 0.930 . S
H757 C766 0.930 . S
H758 C771 0.929 . S
H759 C769 0.929 . S
H760 C764 0.929 . S
H761 C770 0.929 . S
C762 H756 0.930 . S
C762 C763 1.367 . S
C762 C770 1.378 . S
C763 C762 1.367 . S
C763 C771 1.433 . S
C764 H760 0.929 . S
C764 C766 1.378 . S
C764 C768 1.350 . S
C765 C768 1.463 . S
C765 C770 1.350 . S
C765 N773 1.427 . S
C766 H757 0.930 . S
C766 C764 1.378 . S
C766 C767 1.367 . S
C767 C766 1.367 . S
C767 C769 1.433 . S
C768 C764 1.350 . S
C768 C765 1.463 . S
C768 N772 1.427 . S
C769 H759 0.929 . S
C769 C767 1.433 . S
C769 N772 1.384 . S
C770 H761 0.929 . S
C770 C762 1.378 . S
C770 C765 1.350 . S
C771 H758 0.929 . S
C771 C763 1.433 . S
C771 N773 1.384 . S
N772 C768 1.427 . S
N772 C769 1.384 . S
N773 C765 1.427 . S
N773 C771 1.384 . S
H774 C780 0.930 . S
H775 C784 0.930 . S
H776 C789 0.929 . S
H777 C787 0.929 . S
H778 C782 0.929 . S
H779 C788 0.929 . S
C780 H774 0.930 . S
C780 C781 1.367 . S
C780 C788 1.378 . S
C781 C780 1.367 . S
C781 C789 1.433 . S
C782 H778 0.929 . S
C782 C784 1.378 . S
C782 C786 1.350 . S
C783 C786 1.463 . S
C783 C788 1.350 . S
C783 N791 1.427 . S
C784 H775 0.930 . S
C784 C782 1.378 . S
C784 C785 1.367 . S
C785 C784 1.367 . S
C785 C787 1.433 . S
C786 C782 1.350 . S
C786 C783 1.463 . S
C786 N790 1.427 . S
C787 H777 0.929 . S
C787 C785 1.433 . S
C787 N790 1.384 . S
C788 H779 0.929 . S
C788 C780 1.378 . S
C788 C783 1.350 . S
C789 H776 0.929 . S
C789 C781 1.433 . S
C789 N791 1.384 . S
N790 C786 1.427 . S
N790 C787 1.384 . S
N791 C783 1.427 . S
N791 C789 1.384 . S
H792 C798 0.930 . S
H793 C802 0.930 . S
H794 C807 0.929 . S
H795 C805 0.929 . S
H796 C800 0.929 . S
H797 C806 0.929 . S
C798 H792 0.930 . S
C798 C799 1.367 . S
C798 C806 1.378 . S
C799 C798 1.367 . S
C799 C807 1.433 . S
C800 H796 0.929 . S
C800 C802 1.378 . S
C800 C804 1.350 . S
C801 C804 1.463 . S
C801 C806 1.350 . S
C801 N809 1.427 . S
C802 H793 0.930 . S
C802 C800 1.378 . S
C802 C803 1.367 . S
C803 C802 1.367 . S
C803 C805 1.433 . S
C804 C800 1.350 . S
C804 C801 1.463 . S
C804 N808 1.427 . S
C805 H795 0.929 . S
C805 C803 1.433 . S
C805 N808 1.384 . S
C806 H797 0.929 . S
C806 C798 1.378 . S
C806 C801 1.350 . S
C807 H794 0.929 . S
C807 C799 1.433 . S
C807 N809 1.384 . S
N808 C804 1.427 . S
N808 C805 1.384 . S
N809 C801 1.427 . S
N809 C807 1.384 . S
H810 C816 0.930 . S
H811 C820 0.930 . S
H812 C825 0.929 . S
H813 C823 0.929 . S
H814 C818 0.929 . S
H815 C824 0.929 . S
C816 H810 0.930 . S
C816 C817 1.367 . S
C816 C824 1.378 . S
C817 C816 1.367 . S
C817 C825 1.433 . S
C818 H814 0.929 . S
C818 C820 1.378 . S
C818 C822 1.350 . S
C819 C822 1.463 . S
C819 C824 1.350 . S
C819 N827 1.427 . S
C820 H811 0.930 . S
C820 C818 1.378 . S
C820 C821 1.367 . S
C821 C820 1.367 . S
C821 C823 1.433 . S
C822 C818 1.350 . S
C822 C819 1.463 . S
C822 N826 1.427 . S
C823 H813 0.929 . S
C823 C821 1.433 . S
C823 N826 1.384 . S
C824 H815 0.929 . S
C824 C816 1.378 . S
C824 C819 1.350 . S
C825 H812 0.929 . S
C825 C817 1.433 . S
C825 N827 1.384 . S
N826 C822 1.427 . S
N826 C823 1.384 . S
N827 C819 1.427 . S
N827 C825 1.384 . S
H828 C834 0.930 . S
H829 C838 0.930 . S
H830 C843 0.929 . S
H831 C841 0.929 . S
H832 C836 0.929 . S
H833 C842 0.929 . S
C834 H828 0.930 . S
C834 C835 1.367 . S
C834 C842 1.378 . S
C835 C834 1.367 . S
C835 C843 1.433 . S
C836 H832 0.929 . S
C836 C838 1.378 . S
C836 C840 1.350 . S
C837 C840 1.463 . S
C837 C842 1.350 . S
C837 N845 1.427 . S
C838 H829 0.930 . S
C838 C836 1.378 . S
C838 C839 1.367 . S
C839 C838 1.367 . S
C839 C841 1.433 . S
C840 C836 1.350 . S
C840 C837 1.463 . S
C840 N844 1.427 . S
C841 H831 0.929 . S
C841 C839 1.433 . S
C841 N844 1.384 . S
C842 H833 0.929 . S
C842 C834 1.378 . S
C842 C837 1.350 . S
C843 H830 0.929 . S
C843 C835 1.433 . S
C843 N845 1.384 . S
N844 C840 1.427 . S
N844 C841 1.384 . S
N845 C837 1.427 . S
N845 C843 1.384 . S
H846 C852 0.930 . S
H847 C856 0.930 . S
H848 C861 0.929 . S
H849 C859 0.929 . S
H850 C854 0.929 . S
H851 C860 0.929 . S
C852 H846 0.930 . S
C852 C853 1.367 . S
C852 C860 1.378 . S
C853 C852 1.367 . S
C853 C861 1.433 . S
C854 H850 0.929 . S
C854 C856 1.378 . S
C854 C858 1.350 . S
C855 C858 1.463 . S
C855 C860 1.350 . S
C855 N863 1.427 . S
C856 H847 0.930 . S
C856 C854 1.378 . S
C856 C857 1.367 . S
C857 C856 1.367 . S
C857 C859 1.433 . S
C858 C854 1.350 . S
C858 C855 1.463 . S
C858 N862 1.427 . S
C859 H849 0.929 . S
C859 C857 1.433 . S
C859 N862 1.384 . S
C860 H851 0.929 . S
C860 C852 1.378 . S
C860 C855 1.350 . S
C861 H848 0.929 . S
C861 C853 1.433 . S
C861 N863 1.384 . S
N862 C858 1.427 . S
N862 C859 1.384 . S
N863 C855 1.427 . S
N863 C861 1.384 . S
H864 C870 0.930 . S
H865 C874 0.930 . S
H866 C879 0.929 . S
H867 C877 0.929 . S
H868 C872 0.929 . S
H869 C878 0.929 . S
C870 H864 0.930 . S
C870 C871 1.367 . S
C870 C878 1.378 . S
C871 C870 1.367 . S
C871 C879 1.433 . S
C872 H868 0.929 . S
C872 C874 1.378 . S
C872 C876 1.350 . S
C873 C876 1.463 . S
C873 C878 1.350 . S
C873 N881 1.427 . S
C874 H865 0.930 . S
C874 C872 1.378 . S
C874 C875 1.367 . S
C875 C874 1.367 . S
C875 C877 1.433 . S
C876 C872 1.350 . S
C876 C873 1.463 . S
C876 N880 1.427 . S
C877 H867 0.929 . S
C877 C875 1.433 . S
C877 N880 1.384 . S
C878 H869 0.929 . S
C878 C870 1.378 . S
C878 C873 1.350 . S
C879 H866 0.929 . S
C879 C871 1.433 . S
C879 N881 1.384 . S
N880 C876 1.427 . S
N880 C877 1.384 . S
N881 C873 1.427 . S
N881 C879 1.384 . S
H882 C888 0.930 . S
H883 C892 0.930 . S
H884 C897 0.929 . S
H885 C895 0.929 . S
H886 C890 0.929 . S
H887 C896 0.929 . S
C888 H882 0.930 . S
C888 C889 1.367 . S
C888 C896 1.378 . S
C889 C888 1.367 . S
C889 C897 1.433 . S
C890 H886 0.929 . S
C890 C892 1.378 . S
C890 C894 1.350 . S
C891 C894 1.463 . S
C891 C896 1.350 . S
C891 N899 1.427 . S
C892 H883 0.930 . S
C892 C890 1.378 . S
C892 C893 1.367 . S
C893 C892 1.367 . S
C893 C895 1.433 . S
C894 C890 1.350 . S
C894 C891 1.463 . S
C894 N898 1.427 . S
C895 H885 0.929 . S
C895 C893 1.433 . S
C895 N898 1.384 . S
C896 H887 0.929 . S
C896 C888 1.378 . S
C896 C891 1.350 . S
C897 H884 0.929 . S
C897 C889 1.433 . S
C897 N899 1.384 . S
N898 C894 1.427 . S
N898 C895 1.384 . S
N899 C891 1.427 . S
N899 C897 1.384 . S
H900 C906 0.930 . S
H901 C910 0.930 . S
H902 C915 0.929 . S
H903 C913 0.929 . S
H904 C908 0.929 . S
H905 C914 0.929 . S
C906 H900 0.930 . S
C906 C907 1.367 . S
C906 C914 1.378 . S
C907 C906 1.367 . S
C907 C915 1.433 . S
C908 H904 0.929 . S
C908 C910 1.378 . S
C908 C912 1.350 . S
C909 C912 1.463 . S
C909 C914 1.350 . S
C909 N917 1.427 . S
C910 H901 0.930 . S
C910 C908 1.378 . S
C910 C911 1.367 . S
C911 C910 1.367 . S
C911 C913 1.433 . S
C912 C908 1.350 . S
C912 C909 1.463 . S
C912 N916 1.427 . S
C913 H903 0.929 . S
C913 C911 1.433 . S
C913 N916 1.384 . S
C914 H905 0.929 . S
C914 C906 1.378 . S
C914 C909 1.350 . S
C915 H902 0.929 . S
C915 C907 1.433 . S
C915 N917 1.384 . S
N916 C912 1.427 . S
N916 C913 1.384 . S
N917 C909 1.427 . S
N917 C915 1.384 . S
H918 C924 0.930 . S
H919 C928 0.930 . S
H920 C933 0.929 . S
H921 C931 0.929 . S
H922 C926 0.929 . S
H923 C932 0.929 . S
C924 H918 0.930 . S
C924 C925 1.367 . S
C924 C932 1.378 . S
C925 C924 1.367 . S
C925 C933 1.433 . S
C926 H922 0.929 . S
C926 C928 1.378 . S
C926 C930 1.350 . S
C927 C930 1.463 . S
C927 C932 1.350 . S
C927 N935 1.427 . S
C928 H919 0.930 . S
C928 C926 1.378 . S
C928 C929 1.367 . S
C929 C928 1.367 . S
C929 C931 1.433 . S
C930 C926 1.350 . S
C930 C927 1.463 . S
C930 N934 1.427 . S
C931 H921 0.929 . S
C931 C929 1.433 . S
C931 N934 1.384 . S
C932 H923 0.929 . S
C932 C924 1.378 . S
C932 C927 1.350 . S
C933 H920 0.929 . S
C933 C925 1.433 . S
C933 N935 1.384 . S
N934 C930 1.427 . S
N934 C931 1.384 . S
N935 C927 1.427 . S
N935 C933 1.384 . S
H936 C942 0.930 . S
H937 C946 0.930 . S
H938 C951 0.929 . S
H939 C949 0.929 . S
H940 C944 0.929 . S
H941 C950 0.929 . S
C942 H936 0.930 . S
C942 C943 1.367 . S
C942 C950 1.378 . S
C943 C942 1.367 . S
C943 C951 1.433 . S
C944 H940 0.929 . S
C944 C946 1.378 . S
C944 C948 1.350 . S
C945 C948 1.463 . S
C945 C950 1.350 . S
C945 N953 1.427 . S
C946 H937 0.930 . S
C946 C944 1.378 . S
C946 C947 1.367 . S
C947 C946 1.367 . S
C947 C949 1.433 . S
C948 C944 1.350 . S
C948 C945 1.463 . S
C948 N952 1.427 . S
C949 H939 0.929 . S
C949 C947 1.433 . S
C949 N952 1.384 . S
C950 H941 0.929 . S
C950 C942 1.378 . S
C950 C945 1.350 . S
C951 H938 0.929 . S
C951 C943 1.433 . S
C951 N953 1.384 . S
N952 C948 1.427 . S
N952 C949 1.384 . S
N953 C945 1.427 . S
N953 C951 1.384 . S
H954 C960 0.930 . S
H955 C964 0.930 . S
H956 C969 0.929 . S
H957 C967 0.929 . S
H958 C962 0.929 . S
H959 C968 0.929 . S
C960 H954 0.930 . S
C960 C961 1.367 . S
C960 C968 1.378 . S
C961 C960 1.367 . S
C961 C969 1.433 . S
C962 H958 0.929 . S
C962 C964 1.378 . S
C962 C966 1.350 . S
C963 C966 1.463 . S
C963 C968 1.350 . S
C963 N971 1.427 . S
C964 H955 0.930 . S
C964 C962 1.378 . S
C964 C965 1.367 . S
C965 C964 1.367 . S
C965 C967 1.433 . S
C966 C962 1.350 . S
C966 C963 1.463 . S
C966 N970 1.427 . S
C967 H957 0.929 . S
C967 C965 1.433 . S
C967 N970 1.384 . S
C968 H959 0.929 . S
C968 C960 1.378 . S
C968 C963 1.350 . S
C969 H956 0.929 . S
C969 C961 1.433 . S
C969 N971 1.384 . S
N970 C966 1.427 . S
N970 C967 1.384 . S
N971 C963 1.427 . S
N971 C969 1.384 . S
H972 C978 0.930 . S
H973 C982 0.930 . S
H974 C987 0.929 . S
H975 C985 0.929 . S
H976 C980 0.929 . S
H977 C986 0.929 . S
C978 H972 0.930 . S
C978 C979 1.367 . S
C978 C986 1.378 . S
C979 C978 1.367 . S
C979 C987 1.433 . S
C980 H976 0.929 . S
C980 C982 1.378 . S
C980 C984 1.350 . S
C981 C984 1.463 . S
C981 C986 1.350 . S
C981 N989 1.427 . S
C982 H973 0.930 . S
C982 C980 1.378 . S
C982 C983 1.367 . S
C983 C982 1.367 . S
C983 C985 1.433 . S
C984 C980 1.350 . S
C984 C981 1.463 . S
C984 N988 1.427 . S
C985 H975 0.929 . S
C985 C983 1.433 . S
C985 N988 1.384 . S
C986 H977 0.929 . S
C986 C978 1.378 . S
C986 C981 1.350 . S
C987 H974 0.929 . S
C987 C979 1.433 . S
C987 N989 1.384 . S
N988 C984 1.427 . S
N988 C985 1.384 . S
N989 C981 1.427 . S
N989 C987 1.384 . S
H990 C996 0.930 . S
H991 C1000 0.930 . S
H992 C1005 0.929 . S
H993 C1003 0.929 . S
H994 C998 0.929 . S
H995 C1004 0.929 . S
C996 H990 0.930 . S
C996 C997 1.367 . S
C996 C1004 1.378 . S
C997 C996 1.367 . S
C997 C1005 1.433 . S
C998 H994 0.929 . S
C998 C1000 1.378 . S
C998 C1002 1.350 . S
C999 C1002 1.463 . S
C999 C1004 1.350 . S
C999 N1007 1.427 . S
C1000 H991 0.930 . S
C1000 C998 1.378 . S
C1000 C1001 1.367 . S
C1001 C1000 1.367 . S
C1001 C1003 1.433 . S
C1002 C998 1.350 . S
C1002 C999 1.463 . S
C1002 N1006 1.427 . S
C1003 H993 0.929 . S
C1003 C1001 1.433 . S
C1003 N1006 1.384 . S
C1004 H995 0.929 . S
C1004 C996 1.378 . S
C1004 C999 1.350 . S
C1005 H992 0.929 . S
C1005 C997 1.433 . S
C1005 N1007 1.384 . S
N1006 C1002 1.427 . S
N1006 C1003 1.384 . S
N1007 C999 1.427 . S
N1007 C1005 1.384 . S
H1008 C1014 0.930 . S
H1009 C1018 0.930 . S
H1010 C1023 0.929 . S
H1011 C1021 0.929 . S
H1012 C1016 0.929 . S
H1013 C1022 0.929 . S
C1014 H1008 0.930 . S
C1014 C1015 1.367 . S
C1014 C1022 1.378 . S
C1015 C1014 1.367 . S
C1015 C1023 1.433 . S
C1016 H1012 0.929 . S
C1016 C1018 1.378 . S
C1016 C1020 1.350 . S
C1017 C1020 1.463 . S
C1017 C1022 1.350 . S
C1017 N1025 1.427 . S
C1018 H1009 0.930 . S
C1018 C1016 1.378 . S
C1018 C1019 1.367 . S
C1019 C1018 1.367 . S
C1019 C1021 1.433 . S
C1020 C1016 1.350 . S
C1020 C1017 1.463 . S
C1020 N1024 1.427 . S
C1021 H1011 0.929 . S
C1021 C1019 1.433 . S
C1021 N1024 1.384 . S
C1022 H1013 0.929 . S
C1022 C1014 1.378 . S
C1022 C1017 1.350 . S
C1023 H1010 0.929 . S
C1023 C1015 1.433 . S
C1023 N1025 1.384 . S
N1024 C1020 1.427 . S
N1024 C1021 1.384 . S
N1025 C1017 1.427 . S
N1025 C1023 1.384 . S
H1026 C1032 0.930 . S
H1027 C1036 0.930 . S
H1028 C1041 0.929 . S
H1029 C1039 0.929 . S
H1030 C1034 0.929 . S
H1031 C1040 0.929 . S
C1032 H1026 0.930 . S
C1032 C1033 1.367 . S
C1032 C1040 1.378 . S
C1033 C1032 1.367 . S
C1033 C1041 1.433 . S
C1034 H1030 0.929 . S
C1034 C1036 1.378 . S
C1034 C1038 1.350 . S
C1035 C1038 1.463 1_655 S
C1035 C1040 1.350 . S
C1035 N1043 1.427 . S
C1036 H1027 0.930 . S
C1036 C1034 1.378 . S
C1036 C1037 1.367 . S
C1037 C1036 1.367 . S
C1037 C1039 1.433 . S
C1038 C1034 1.350 . S
C1038 C1035 1.463 1_455 S
C1038 N1042 1.427 . S
C1039 H1029 0.929 . S
C1039 C1037 1.433 . S
C1039 N1042 1.384 . S
C1040 H1031 0.929 . S
C1040 C1032 1.378 . S
C1040 C1035 1.350 . S
C1041 H1028 0.929 . S
C1041 C1033 1.433 . S
C1041 N1043 1.384 . S
N1042 C1038 1.427 . S
N1042 C1039 1.384 . S
N1043 C1035 1.427 . S
N1043 C1041 1.384 . S
H1044 C1050 0.930 . S
H1045 C1054 0.930 . S
H1046 C1059 0.929 . S
H1047 C1057 0.929 . S
H1048 C1052 0.929 . S
H1049 C1058 0.929 . S
C1050 H1044 0.930 . S
C1050 C1051 1.367 . S
C1050 C1058 1.378 . S
C1051 C1050 1.367 . S
C1051 C1059 1.433 . S
C1052 H1048 0.929 . S
C1052 C1054 1.378 . S
C1052 C1056 1.350 . S
C1053 C1056 1.463 . S
C1053 C1058 1.350 . S
C1053 N1061 1.427 . S
C1054 H1045 0.930 . S
C1054 C1052 1.378 . S
C1054 C1055 1.367 . S
C1055 C1054 1.367 . S
C1055 C1057 1.433 . S
C1056 C1052 1.350 . S
C1056 C1053 1.463 . S
C1056 N1060 1.427 . S
C1057 H1047 0.929 . S
C1057 C1055 1.433 . S
C1057 N1060 1.384 . S
C1058 H1049 0.929 . S
C1058 C1050 1.378 . S
C1058 C1053 1.350 . S
C1059 H1046 0.929 . S
C1059 C1051 1.433 . S
C1059 N1061 1.384 . S
N1060 C1056 1.427 . S
N1060 C1057 1.384 . S
N1061 C1053 1.427 . S
N1061 C1059 1.384 . S
H1062 C1068 0.930 . S
H1063 C1072 0.930 . S
H1064 C1077 0.929 . S
H1065 C1075 0.929 . S
H1066 C1070 0.929 . S
H1067 C1076 0.929 . S
C1068 H1062 0.930 . S
C1068 C1069 1.367 . S
C1068 C1076 1.378 . S
C1069 C1068 1.367 . S
C1069 C1077 1.433 . S
C1070 H1066 0.929 . S
C1070 C1072 1.378 . S
C1070 C1074 1.350 . S
C1071 C1074 1.463 1_565 S
C1071 C1076 1.350 . S
C1071 N1079 1.427 . S
C1072 H1063 0.930 . S
C1072 C1070 1.378 . S
C1072 C1073 1.367 . S
C1073 C1072 1.367 . S
C1073 C1075 1.433 . S
C1074 C1070 1.350 . S
C1074 C1071 1.463 1_545 S
C1074 N1078 1.427 . S
C1075 H1065 0.929 . S
C1075 C1073 1.433 . S
C1075 N1078 1.384 . S
C1076 H1067 0.929 . S
C1076 C1068 1.378 . S
C1076 C1071 1.350 . S
C1077 H1064 0.929 . S
C1077 C1069 1.433 . S
C1077 N1079 1.384 . S
N1078 C1074 1.427 . S
N1078 C1075 1.384 . S
N1079 C1071 1.427 . S
N1079 C1077 1.384 . S
H1080 C1086 0.926 . S
H1081 C1090 0.910 1_565 S
H1082 C1095 0.929 . S
H1083 C1093 0.929 . S
H1084 C1088 0.929 . S
H1085 C1094 0.929 . S
C1086 H1080 0.926 . S
C1086 C1087 1.372 1_545 S
C1086 C1094 1.376 . S
C1087 C1086 1.372 1_565 S
C1087 C1095 1.433 . S
C1088 H1084 0.929 . S
C1088 C1090 1.369 1_565 S
C1088 C1092 1.350 1_565 S
C1089 C1092 1.463 1_565 S
C1089 C1094 1.350 1_565 S
C1089 N1097 1.427 . S
C1090 H1081 0.910 1_545 S
C1090 C1088 1.369 1_545 S
C1090 C1091 1.397 . S
C1091 C1090 1.397 . S
C1091 C1093 1.433 . S
C1092 C1088 1.350 1_545 S
C1092 C1089 1.463 1_545 S
C1092 N1096 1.427 . S
C1093 H1083 0.929 . S
C1093 C1091 1.433 . S
C1093 N1096 1.384 . S
C1094 H1085 0.929 . S
C1094 C1086 1.376 . S
C1094 C1089 1.350 1_545 S
C1095 H1082 0.929 . S
C1095 C1087 1.433 . S
C1095 N1097 1.384 . S
N1096 C1092 1.427 . S
N1096 C1093 1.384 . S
N1097 C1089 1.427 . S
N1097 C1095 1.384 . S
H1098 C1104 0.930 . S
H1099 C1108 0.930 . S
H1100 C1113 0.929 . S
H1101 C1111 0.929 . S
H1102 C1106 0.929 . S
H1103 C1112 0.929 . S
C1104 H1098 0.930 . S
C1104 C1105 1.367 . S
C1104 C1112 1.378 . S
C1105 C1104 1.367 . S
C1105 C1113 1.433 . S
C1106 H1102 0.929 . S
C1106 C1108 1.378 . S
C1106 C1110 1.350 . S
C1107 C1110 1.463 1_655 S
C1107 C1112 1.350 . S
C1107 N1115 1.427 1_655 S
C1108 H1099 0.930 . S
C1108 C1106 1.378 . S
C1108 C1109 1.367 . S
C1109 C1108 1.367 . S
C1109 C1111 1.433 . S
C1110 C1106 1.350 . S
C1110 C1107 1.463 1_455 S
C1110 N1114 1.433 1_455 S
C1111 H1101 0.929 . S
C1111 C1109 1.433 . S
C1111 N1114 1.377 1_455 S
C1112 H1103 0.929 . S
C1112 C1104 1.378 . S
C1112 C1107 1.350 . S
C1113 H1100 0.929 . S
C1113 C1105 1.433 . S
C1113 N1115 1.384 1_655 S
N1114 C1110 1.433 1_655 S
N1114 C1111 1.377 1_655 S
N1115 C1107 1.427 1_455 S
N1115 C1113 1.384 1_455 S
H1116 C1122 0.930 . S
H1117 C1126 0.930 . S
H1118 C1131 0.929 . S
H1119 C1129 0.929 . S
H1120 C1124 0.929 . S
H1121 C1130 0.929 . S
C1122 H1116 0.930 . S
C1122 C1123 1.367 . S
C1122 C1130 1.378 . S
C1123 C1122 1.367 . S
C1123 C1131 1.433 . S
C1124 H1120 0.929 . S
C1124 C1126 1.378 . S
C1124 C1128 1.350 . S
C1125 C1128 1.463 . S
C1125 C1130 1.350 . S
C1125 N1133 1.427 . S
C1126 H1117 0.930 . S
C1126 C1124 1.378 . S
C1126 C1127 1.367 . S
C1127 C1126 1.367 . S
C1127 C1129 1.433 . S
C1128 C1124 1.350 . S
C1128 C1125 1.463 . S
C1128 N1132 1.427 . S
C1129 H1119 0.929 . S
C1129 C1127 1.433 . S
C1129 N1132 1.384 . S
C1130 H1121 0.929 . S
C1130 C1122 1.378 . S
C1130 C1125 1.350 . S
C1131 H1118 0.929 . S
C1131 C1123 1.433 . S
C1131 N1133 1.384 . S
N1132 C1128 1.427 . S
N1132 C1129 1.384 . S
N1133 C1125 1.427 . S
N1133 C1131 1.384 . S
H1134 C1140 0.930 . S
H1135 C1144 0.930 . S
H1136 C1149 0.929 . S
H1137 C1147 0.929 . S
H1138 C1142 0.929 . S
H1139 C1148 0.929 . S
C1140 H1134 0.930 . S
C1140 C1141 1.367 . S
C1140 C1148 1.378 . S
C1141 C1140 1.367 . S
C1141 C1149 1.433 . S
C1142 H1138 0.929 . S
C1142 C1144 1.378 . S
C1142 C1146 1.350 . S
C1143 C1146 1.463 . S
C1143 C1148 1.350 . S
C1143 N1151 1.427 . S
C1144 H1135 0.930 . S
C1144 C1142 1.378 . S
C1144 C1145 1.367 . S
C1145 C1144 1.367 . S
C1145 C1147 1.433 . S
C1146 C1142 1.350 . S
C1146 C1143 1.463 . S
C1146 N1150 1.427 . S
C1147 H1137 0.929 . S
C1147 C1145 1.433 . S
C1147 N1150 1.384 . S
C1148 H1139 0.929 . S
C1148 C1140 1.378 . S
C1148 C1143 1.350 . S
C1149 H1136 0.929 . S
C1149 C1141 1.433 . S
C1149 N1151 1.384 . S
N1150 C1146 1.427 . S
N1150 C1147 1.384 . S
N1151 C1143 1.427 . S
N1151 C1149 1.384 . S
H1152 C1158 0.930 . S
H1153 C1162 0.930 . S
H1154 C1167 0.929 . S
H1155 C1165 0.929 . S
H1156 C1160 0.929 . S
H1157 C1166 0.929 . S
C1158 H1152 0.930 . S
C1158 C1159 1.367 . S
C1158 C1166 1.378 . S
C1159 C1158 1.367 . S
C1159 C1167 1.433 . S
C1160 H1156 0.929 . S
C1160 C1162 1.378 . S
C1160 C1164 1.350 . S
C1161 C1164 1.463 . S
C1161 C1166 1.350 . S
C1161 N1169 1.427 . S
C1162 H1153 0.930 . S
C1162 C1160 1.378 . S
C1162 C1163 1.367 . S
C1163 C1162 1.367 . S
C1163 C1165 1.433 . S
C1164 C1160 1.350 . S
C1164 C1161 1.463 . S
C1164 N1168 1.427 . S
C1165 H1155 0.929 . S
C1165 C1163 1.433 . S
C1165 N1168 1.384 . S
C1166 H1157 0.929 . S
C1166 C1158 1.378 . S
C1166 C1161 1.350 . S
C1167 H1154 0.929 . S
C1167 C1159 1.433 . S
C1167 N1169 1.384 . S
N1168 C1164 1.427 . S
N1168 C1165 1.384 . S
N1169 C1161 1.427 . S
N1169 C1167 1.384 . S
H1170 C1176 0.930 . S
H1171 C1180 0.930 . S
H1172 C1185 0.929 . S
H1173 C1183 0.929 . S
H1174 C1178 0.929 . S
H1175 C1184 0.929 . S
C1176 H1170 0.930 . S
C1176 C1177 1.367 . S
C1176 C1184 1.378 . S
C1177 C1176 1.367 . S
C1177 C1185 1.433 . S
C1178 H1174 0.929 . S
C1178 C1180 1.378 . S
C1178 C1182 1.350 . S
C1179 C1182 1.463 . S
C1179 C1184 1.350 . S
C1179 N1187 1.427 . S
C1180 H1171 0.930 . S
C1180 C1178 1.378 . S
C1180 C1181 1.367 . S
C1181 C1180 1.367 . S
C1181 C1183 1.433 . S
C1182 C1178 1.350 . S
C1182 C1179 1.463 . S
C1182 N1186 1.427 . S
C1183 H1173 0.929 . S
C1183 C1181 1.433 . S
C1183 N1186 1.384 . S
C1184 H1175 0.929 . S
C1184 C1176 1.378 . S
C1184 C1179 1.350 . S
C1185 H1172 0.929 . S
C1185 C1177 1.433 . S
C1185 N1187 1.384 . S
N1186 C1182 1.427 . S
N1186 C1183 1.384 . S
N1187 C1179 1.427 . S
N1187 C1185 1.384 . S
H1188 C1194 0.930 . S
H1189 C1198 0.930 . S
H1190 C1203 0.929 . S
H1191 C1201 0.929 . S
H1192 C1196 0.929 . S
H1193 C1202 0.929 . S
C1194 H1188 0.930 . S
C1194 C1195 1.367 . S
C1194 C1202 1.378 . S
C1195 C1194 1.367 . S
C1195 C1203 1.433 . S
C1196 H1192 0.929 . S
C1196 C1198 1.378 . S
C1196 C1200 1.350 . S
C1197 C1200 1.463 . S
C1197 C1202 1.350 . S
C1197 N1205 1.427 . S
C1198 H1189 0.930 . S
C1198 C1196 1.378 . S
C1198 C1199 1.367 . S
C1199 C1198 1.367 . S
C1199 C1201 1.433 . S
C1200 C1196 1.350 . S
C1200 C1197 1.463 . S
C1200 N1204 1.427 . S
C1201 H1191 0.929 . S
C1201 C1199 1.433 . S
C1201 N1204 1.384 . S
C1202 H1193 0.929 . S
C1202 C1194 1.378 . S
C1202 C1197 1.350 . S
C1203 H1190 0.929 . S
C1203 C1195 1.433 . S
C1203 N1205 1.384 . S
N1204 C1200 1.427 . S
N1204 C1201 1.384 . S
N1205 C1197 1.427 . S
N1205 C1203 1.384 . S
H1206 C1212 0.930 . S
H1207 C1216 0.930 . S
H1208 C1221 0.929 . S
H1209 C1219 0.929 . S
H1210 C1214 0.929 . S
H1211 C1220 0.929 . S
C1212 H1206 0.930 . S
C1212 C1213 1.367 . S
C1212 C1220 1.378 . S
C1213 C1212 1.367 . S
C1213 C1221 1.433 . S
C1214 H1210 0.929 . S
C1214 C1216 1.378 . S
C1214 C1218 1.350 . S
C1215 C1218 1.463 . S
C1215 C1220 1.350 . S
C1215 N1223 1.427 . S
C1216 H1207 0.930 . S
C1216 C1214 1.378 . S
C1216 C1217 1.367 . S
C1217 C1216 1.367 . S
C1217 C1219 1.433 . S
C1218 C1214 1.350 . S
C1218 C1215 1.463 . S
C1218 N1222 1.427 . S
C1219 H1209 0.929 . S
C1219 C1217 1.433 . S
C1219 N1222 1.384 . S
C1220 H1211 0.929 . S
C1220 C1212 1.378 . S
C1220 C1215 1.350 . S
C1221 H1208 0.929 . S
C1221 C1213 1.433 . S
C1221 N1223 1.384 . S
N1222 C1218 1.427 . S
N1222 C1219 1.384 . S
N1223 C1215 1.427 . S
N1223 C1221 1.384 . S
H1224 C1230 0.930 . S
H1225 C1234 0.930 . S
H1226 C1239 0.929 . S
H1227 C1237 0.929 . S
H1228 C1232 0.929 . S
H1229 C1238 0.929 . S
C1230 H1224 0.930 . S
C1230 C1231 1.367 . S
C1230 C1238 1.378 . S
C1231 C1230 1.367 . S
C1231 C1239 1.433 . S
C1232 H1228 0.929 . S
C1232 C1234 1.378 . S
C1232 C1236 1.350 . S
C1233 C1236 1.463 . S
C1233 C1238 1.350 . S
C1233 N1241 1.427 . S
C1234 H1225 0.930 . S
C1234 C1232 1.378 . S
C1234 C1235 1.367 . S
C1235 C1234 1.367 . S
C1235 C1237 1.433 . S
C1236 C1232 1.350 . S
C1236 C1233 1.463 . S
C1236 N1240 1.427 . S
C1237 H1227 0.929 . S
C1237 C1235 1.433 . S
C1237 N1240 1.384 . S
C1238 H1229 0.929 . S
C1238 C1230 1.378 . S
C1238 C1233 1.350 . S
C1239 H1226 0.929 . S
C1239 C1231 1.433 . S
C1239 N1241 1.384 . S
N1240 C1236 1.427 . S
N1240 C1237 1.384 . S
N1241 C1233 1.427 . S
N1241 C1239 1.384 . S
H1242 C1248 0.930 . S
H1243 C1252 0.930 . S
H1244 C1257 0.929 . S
H1245 C1255 0.929 . S
H1246 C1250 0.929 . S
H1247 C1256 0.929 . S
C1248 H1242 0.930 . S
C1248 C1249 1.367 . S
C1248 C1256 1.378 . S
C1249 C1248 1.367 . S
C1249 C1257 1.433 . S
C1250 H1246 0.929 . S
C1250 C1252 1.378 . S
C1250 C1254 1.350 . S
C1251 C1254 1.463 1_564 S
C1251 C1256 1.350 . S
C1251 N1259 1.427 1_565 S
C1252 H1243 0.930 . S
C1252 C1250 1.378 . S
C1252 C1253 1.367 . S
C1253 C1252 1.367 . S
C1253 C1255 1.433 . S
C1254 C1250 1.350 . S
C1254 C1251 1.463 1_546 S
C1254 N1258 1.427 1_545 S
C1255 H1245 0.929 . S
C1255 C1253 1.433 . S
C1255 N1258 1.384 1_545 S
C1256 H1247 0.929 . S
C1256 C1248 1.378 . S
C1256 C1251 1.350 . S
C1257 H1244 0.929 . S
C1257 C1249 1.433 . S
C1257 N1259 1.384 1_565 S
N1258 C1254 1.427 1_565 S
N1258 C1255 1.384 1_565 S
N1259 C1251 1.427 1_545 S
N1259 C1257 1.384 1_545 S
H1260 C1266 0.930 . S
H1261 C1270 0.930 . S
H1262 C1275 0.929 . S
H1263 C1273 0.929 . S
H1264 C1268 0.929 . S
H1265 C1274 0.929 . S
C1266 H1260 0.930 . S
C1266 C1267 1.367 . S
C1266 C1274 1.378 . S
C1267 C1266 1.367 . S
C1267 C1275 1.433 1_455 S
C1268 H1264 0.929 . S
C1268 C1270 1.378 . S
C1268 C1272 1.350 . S
C1269 C1272 1.463 1_454 S
C1269 C1274 1.350 . S
C1269 N1277 1.427 1_455 S
C1270 H1261 0.930 . S
C1270 C1268 1.378 . S
C1270 C1271 1.367 . S
C1271 C1270 1.367 . S
C1271 C1273 1.433 1_655 S
C1272 C1268 1.350 . S
C1272 C1269 1.463 1_656 S
C1272 N1276 1.427 1_655 S
C1273 H1263 0.929 . S
C1273 C1271 1.433 1_455 S
C1273 N1276 1.384 . S
C1274 H1265 0.929 . S
C1274 C1266 1.378 . S
C1274 C1269 1.350 . S
C1275 H1262 0.929 . S
C1275 C1267 1.433 1_655 S
C1275 N1277 1.384 . S
N1276 C1272 1.427 1_455 S
N1276 C1273 1.384 . S
N1277 C1269 1.427 1_655 S
N1277 C1275 1.384 . S
H1278 C1284 0.930 . S
H1279 C1288 0.930 . S
H1280 C1293 0.929 . S
H1281 C1291 0.929 . S
H1282 C1286 0.929 . S
H1283 C1292 0.929 . S
C1284 H1278 0.930 . S
C1284 C1285 1.367 . S
C1284 C1292 1.378 . S
C1285 C1284 1.367 . S
C1285 C1293 1.433 . S
C1286 H1282 0.929 . S
C1286 C1288 1.378 . S
C1286 C1290 1.350 . S
C1287 C1290 1.463 1_556 S
C1287 C1292 1.350 . S
C1287 N1295 1.427 . S
C1288 H1279 0.930 . S
C1288 C1286 1.378 . S
C1288 C1289 1.367 . S
C1289 C1288 1.367 . S
C1289 C1291 1.433 . S
C1290 C1286 1.350 . S
C1290 C1287 1.463 1_554 S
C1290 N1294 1.427 . S
C1291 H1281 0.929 . S
C1291 C1289 1.433 . S
C1291 N1294 1.384 . S
C1292 H1283 0.929 . S
C1292 C1284 1.378 . S
C1292 C1287 1.350 . S
C1293 H1280 0.929 . S
C1293 C1285 1.433 . S
C1293 N1295 1.384 . S
N1294 C1290 1.427 . S
N1294 C1291 1.384 . S
N1295 C1287 1.427 . S
N1295 C1293 1.384 . S
H1296 C1302 0.930 . S
H1297 C1306 0.930 . S
H1298 C1311 0.929 . S
H1299 C1309 0.929 . S
H1300 C1304 0.929 . S
H1301 C1310 0.929 . S
C1302 H1296 0.930 . S
C1302 C1303 1.367 . S
C1302 C1310 1.378 . S
C1303 C1302 1.367 . S
C1303 C1311 1.433 . S
C1304 H1300 0.929 . S
C1304 C1306 1.378 . S
C1304 C1308 1.350 . S
C1305 C1308 1.463 . S
C1305 C1310 1.350 . S
C1305 N1313 1.427 . S
C1306 H1297 0.930 . S
C1306 C1304 1.378 . S
C1306 C1307 1.367 . S
C1307 C1306 1.367 . S
C1307 C1309 1.433 . S
C1308 C1304 1.350 . S
C1308 C1305 1.463 . S
C1308 N1312 1.427 . S
C1309 H1299 0.929 . S
C1309 C1307 1.433 . S
C1309 N1312 1.384 . S
C1310 H1301 0.929 . S
C1310 C1302 1.378 . S
C1310 C1305 1.350 . S
C1311 H1298 0.929 . S
C1311 C1303 1.433 . S
C1311 N1313 1.384 . S
N1312 C1308 1.427 . S
N1312 C1309 1.384 . S
N1313 C1305 1.427 . S
N1313 C1311 1.384 . S
H1314 C1320 0.930 . S
H1315 C1324 0.930 . S
H1316 C1329 0.929 . S
H1317 C1327 0.929 . S
H1318 C1322 0.929 . S
H1319 C1328 0.929 . S
C1320 H1314 0.930 . S
C1320 C1321 1.367 . S
C1320 C1328 1.378 . S
C1321 C1320 1.367 . S
C1321 C1329 1.433 . S
C1322 H1318 0.929 . S
C1322 C1324 1.378 . S
C1322 C1326 1.350 . S
C1323 C1326 1.463 . S
C1323 C1328 1.350 . S
C1323 N1331 1.427 . S
C1324 H1315 0.930 . S
C1324 C1322 1.378 . S
C1324 C1325 1.367 . S
C1325 C1324 1.367 . S
C1325 C1327 1.433 . S
C1326 C1322 1.350 . S
C1326 C1323 1.463 . S
C1326 N1330 1.427 . S
C1327 H1317 0.929 . S
C1327 C1325 1.433 . S
C1327 N1330 1.384 . S
C1328 H1319 0.929 . S
C1328 C1320 1.378 . S
C1328 C1323 1.350 . S
C1329 H1316 0.929 . S
C1329 C1321 1.433 . S
C1329 N1331 1.384 . S
N1330 C1326 1.427 . S
N1330 C1327 1.384 . S
N1331 C1323 1.427 . S
N1331 C1329 1.384 . S
H1332 C1338 0.930 . S
H1333 C1342 0.930 . S
H1334 C1347 0.929 . S
H1335 C1345 0.929 . S
H1336 C1340 0.929 . S
H1337 C1346 0.929 . S
C1338 H1332 0.930 . S
C1338 C1339 1.367 . S
C1338 C1346 1.378 . S
C1339 C1338 1.367 . S
C1339 C1347 1.433 . S
C1340 H1336 0.929 . S
C1340 C1342 1.378 . S
C1340 C1344 1.350 . S
C1341 C1344 1.463 . S
C1341 C1346 1.350 . S
C1341 N1349 1.427 . S
C1342 H1333 0.930 . S
C1342 C1340 1.378 . S
C1342 C1343 1.367 . S
C1343 C1342 1.367 . S
C1343 C1345 1.433 . S
C1344 C1340 1.350 . S
C1344 C1341 1.463 . S
C1344 N1348 1.427 . S
C1345 H1335 0.929 . S
C1345 C1343 1.433 . S
C1345 N1348 1.384 . S
C1346 H1337 0.929 . S
C1346 C1338 1.378 . S
C1346 C1341 1.350 . S
C1347 H1334 0.929 . S
C1347 C1339 1.433 . S
C1347 N1349 1.384 . S
N1348 C1344 1.427 . S
N1348 C1345 1.384 . S
N1349 C1341 1.427 . S
N1349 C1347 1.384 . S
H1350 C1356 0.930 . S
H1351 C1360 0.930 . S
H1352 C1365 0.929 . S
H1353 C1363 0.929 . S
H1354 C1358 0.929 . S
H1355 C1364 0.929 . S
C1356 H1350 0.930 . S
C1356 C1357 1.367 . S
C1356 C1364 1.378 . S
C1357 C1356 1.367 . S
C1357 C1365 1.433 . S
C1358 H1354 0.929 . S
C1358 C1360 1.378 . S
C1358 C1362 1.350 . S
C1359 C1362 1.463 . S
C1359 C1364 1.350 . S
C1359 N1367 1.427 . S
C1360 H1351 0.930 . S
C1360 C1358 1.378 . S
C1360 C1361 1.367 . S
C1361 C1360 1.367 . S
C1361 C1363 1.433 . S
C1362 C1358 1.350 . S
C1362 C1359 1.463 . S
C1362 N1366 1.427 . S
C1363 H1353 0.929 . S
C1363 C1361 1.433 . S
C1363 N1366 1.384 . S
C1364 H1355 0.929 . S
C1364 C1356 1.378 . S
C1364 C1359 1.350 . S
C1365 H1352 0.929 . S
C1365 C1357 1.433 . S
C1365 N1367 1.384 . S
N1366 C1362 1.427 . S
N1366 C1363 1.384 . S
N1367 C1359 1.427 . S
N1367 C1365 1.384 . S
H1368 C1374 0.930 . S
H1369 C1378 0.930 . S
H1370 C1383 0.929 . S
H1371 C1381 0.929 . S
H1372 C1376 0.929 . S
H1373 C1382 0.929 . S
C1374 H1368 0.930 . S
C1374 C1375 1.367 . S
C1374 C1382 1.378 . S
C1375 C1374 1.367 . S
C1375 C1383 1.433 . S
C1376 H1372 0.929 . S
C1376 C1378 1.378 . S
C1376 C1380 1.350 . S
C1377 C1380 1.463 . S
C1377 C1382 1.350 . S
C1377 N1385 1.427 . S
C1378 H1369 0.930 . S
C1378 C1376 1.378 . S
C1378 C1379 1.367 . S
C1379 C1378 1.367 . S
C1379 C1381 1.433 . S
C1380 C1376 1.350 . S
C1380 C1377 1.463 . S
C1380 N1384 1.427 . S
C1381 H1371 0.929 . S
C1381 C1379 1.433 . S
C1381 N1384 1.384 . S
C1382 H1373 0.929 . S
C1382 C1374 1.378 . S
C1382 C1377 1.350 . S
C1383 H1370 0.929 . S
C1383 C1375 1.433 . S
C1383 N1385 1.384 . S
N1384 C1380 1.427 . S
N1384 C1381 1.384 . S
N1385 C1377 1.427 . S
N1385 C1383 1.384 . S
H1386 C1392 0.930 . S
H1387 C1396 0.930 . S
H1388 C1401 0.929 . S
H1389 C1399 0.929 . S
H1390 C1394 0.929 . S
H1391 C1400 0.929 . S
C1392 H1386 0.930 . S
C1392 C1393 1.367 . S
C1392 C1400 1.378 . S
C1393 C1392 1.367 . S
C1393 C1401 1.433 . S
C1394 H1390 0.929 . S
C1394 C1396 1.378 . S
C1394 C1398 1.350 . S
C1395 C1398 1.463 . S
C1395 C1400 1.350 . S
C1395 N1403 1.427 . S
C1396 H1387 0.930 . S
C1396 C1394 1.378 . S
C1396 C1397 1.367 . S
C1397 C1396 1.367 . S
C1397 C1399 1.433 . S
C1398 C1394 1.350 . S
C1398 C1395 1.463 . S
C1398 N1402 1.427 . S
C1399 H1389 0.929 . S
C1399 C1397 1.433 . S
C1399 N1402 1.384 . S
C1400 H1391 0.929 . S
C1400 C1392 1.378 . S
C1400 C1395 1.350 . S
C1401 H1388 0.929 . S
C1401 C1393 1.433 . S
C1401 N1403 1.384 . S
N1402 C1398 1.427 . S
N1402 C1399 1.384 . S
N1403 C1395 1.427 . S
N1403 C1401 1.384 . S
C601 C8 1.199 . S
C605 N47 1.191 . S
C619 N80 1.199 . S
C623 C41 1.205 . S
C637 C74 1.205 . S
C641 N14 1.199 . S
C655 N179 1.200 . S
C659 C107 1.206 . S
C673 N113 1.192 . S
C677 C140 1.199 . S
C691 C173 1.203 . S
C695 N146 1.198 . S
C709 N245 1.197 . S
C713 C206 1.203 . S
C727 C239 1.200 . S
C731 N278 1.194 . S
C745 C272 1.203 . S
C749 N212 1.198 . S
C763 N377 1.197 . S
C767 C305 1.202 . S
C781 N311 1.199 . S
C785 C338 1.205 . S
C799 C371 1.202 . S
C803 N344 1.197 . S
C817 N443 1.192 . S
C821 C404 1.199 . S
C835 C437 1.200 . S
C839 N476 1.192 . S
C853 C470 1.206 . S
C857 N410 1.201 . S
C871 N575 1.201 . S
C875 C503 1.206 . S
C889 N509 1.192 . S
C893 C536 1.199 . S
C907 C569 1.202 . S
C911 N542 1.194 . S
C925 N335 1.371 . S
C929 N5 1.366 . S
C943 N368 1.368 . S
C947 N38 1.363 . S
C961 N302 1.368 . S
C965 N71 1.364 . S
C979 N104 1.370 . S
C983 N467 1.368 . S
C997 N401 1.365 . S
C1001 N137 1.366 . S
C1015 N434 1.371 . S
C1019 N170 1.363 . S
C1033 N203 1.366 . S
C1037 N533 1.371 . S
C1051 N566 1.366 . S
C1055 N236 1.365 . S
C1069 N500 1.368 . S
C1073 N269 1.369 . S
C1087 C17 1.685 . S
C1091 C182 1.690 . S
C1105 C116 1.694 . S
C1109 C50 1.700 . S
C1123 C149 1.699 . S
C1127 C83 1.693 . S
C1141 C380 1.702 . S
C1145 C215 1.699 . S
C1159 C314 1.695 . S
C1163 C248 1.701 . S
C1177 C281 1.689 . S
C1181 C347 1.696 . S
C1195 C578 1.686 . S
C1199 C413 1.691 . S
C1213 C446 1.699 . S
C1217 C512 1.693 . S
C1231 C545 1.687 . S
C1235 C479 1.693 . S
C1249 C28 1.137 . S
C1253 C193 1.152 . S
C1267 C61 1.153 . S
C1271 C127 1.143 . S
C1285 C160 1.143 . S
C1289 C94 1.153 . S
C1303 C391 1.140 . S
C1307 C226 1.153 . S
C1321 C325 1.131 . S
C1325 C259 1.148 . S
C1339 C358 1.126 . S
C1343 C292 1.133 . S
C1357 C424 1.142 . S
C1361 C589 1.153 . S
C1375 C457 1.135 . S
C1379 C523 1.151 . S
C1393 C556 1.152 . S
C1397 C490 1.148 . S
