# Generated by pormake.
# Topology qtz-e, (6)-cn, num edge types: 1
# Building blocks:
#     Node 0, Type 0, BuildingBlock: MIFKUJ_clean_sbu_0, # of connection points: 6
#     Node 1, Type 0, BuildingBlock: MIFKUJ_clean_sbu_0, # of connection points: 6
#     Node 2, Type 0, BuildingBlock: MIFKUJ_clean_sbu_0, # of connection points: 6
#     Node 3, Type 0, BuildingBlock: MIFKUJ_clean_sbu_0, # of connection points: 6
#     Node 4, Type 0, BuildingBlock: MIFKUJ_clean_sbu_0, # of connection points: 6
#     Node 5, Type 0, BuildingBlock: MIFKUJ_clean_sbu_0, # of connection points: 6
#     Edge 6, Type (0, 0), BuildingBlock: XIVTED_clean_linker_0, # of connection points: 2
#     Edge 7, Type (0, 0), BuildingBlock: XIVTED_clean_linker_0, # of connection points: 2
#     Edge 8, Type (0, 0), BuildingBlock: XIVTED_clean_linker_0, # of connection points: 2
#     Edge 9, Type (0, 0), BuildingBlock: XIVTED_clean_linker_0, # of connection points: 2
#     Edge 10, Type (0, 0), BuildingBlock: XIVTED_clean_linker_0, # of connection points: 2
#     Edge 11, Type (0, 0), BuildingBlock: XIVTED_clean_linker_0, # of connection points: 2
#     Edge 12, Type (0, 0), BuildingBlock: XIVTED_clean_linker_0, # of connection points: 2
#     Edge 13, Type (0, 0), BuildingBlock: XIVTED_clean_linker_0, # of connection points: 2
#     Edge 14, Type (0, 0), BuildingBlock: XIVTED_clean_linker_0, # of connection points: 2
#     Edge 15, Type (0, 0), BuildingBlock: XIVTED_clean_linker_0, # of connection points: 2
#     Edge 16, Type (0, 0), BuildingBlock: XIVTED_clean_linker_0, # of connection points: 2
#     Edge 17, Type (0, 0), BuildingBlock: XIVTED_clean_linker_0, # of connection points: 2
#     Edge 18, Type (0, 0), BuildingBlock: XIVTED_clean_linker_0, # of connection points: 2
#     Edge 19, Type (0, 0), BuildingBlock: XIVTED_clean_linker_0, # of connection points: 2
#     Edge 20, Type (0, 0), BuildingBlock: XIVTED_clean_linker_0, # of connection points: 2
#     Edge 21, Type (0, 0), BuildingBlock: XIVTED_clean_linker_0, # of connection points: 2
#     Edge 22, Type (0, 0), BuildingBlock: XIVTED_clean_linker_0, # of connection points: 2
#     Edge 23, Type (0, 0), BuildingBlock: XIVTED_clean_linker_0, # of connection points: 2
# Relax obj value: 0.216
# Max RMSD: 0.226
# Mean RMSD: 0.226
data_MOF--net-qtz-e--node1-MIFKUJ_clean_sbu_0--edge1-XIVTED_clean_linker_0
_symmetry_space_group_name_H-M    P1
_symmetry_Int_Tables_number       1
_symmetry_cell_setting            triclinic
loop_
_symmetry_equiv_pos_as_xyz
'x, y, z'
_cell_length_a     25.007983
_cell_length_b     25.232575
_cell_length_c     42.57445
_cell_angle_alpha  90.736441
_cell_angle_beta   89.923195
_cell_angle_gamma 121.32459
loop_
_atom_site_label
_atom_site_type_symbol
_atom_site_fract_x
_atom_site_fract_y
_atom_site_fract_z
_atom_type_partial_charge
Zn0 Zn 0.18477 0.32012 0.97993 0.0
Zn1 Zn 0.15046 0.33162 0.07576 0.0
C2 C 0.27458 0.44318 0.95707 0.0
O3 O 0.24065 0.45981 0.97314 0.0
C4 C 0.12035 0.22781 0.11307 0.0
O5 O 0.18127 0.26093 0.11738 0.0
O6 O 0.15174 0.24207 0.9539 0.0
O7 O 0.20193 0.31244 0.02459 0.0
O8 O 0.23929 0.35373 0.07018 0.0
C9 C 0.17059 0.2044 0.95706 0.0
O10 O 0.20763 0.21214 0.98079 0.0
O11 O 0.2601 0.3869 0.9573 0.0
C12 C 0.10698 0.37908 0.12564 0.0
O13 O 0.05381 0.32625 0.12164 0.0
O14 O 0.15345 0.39104 0.10847 0.0
O15 O 0.12021 0.34901 0.03444 0.0
O16 O 0.12124 0.34578 0.98242 0.0
O17 O 0.09578 0.24579 0.09295 0.0
C18 C 0.24931 0.34715 0.0417 0.0
C19 C 0.10301 0.3584 0.00792 0.0
Zn20 Zn 0.792 0.18576 0.31321 0.0
Zn21 Zn 0.76834 0.19255 0.40919 0.0
C22 C 0.75566 0.23322 0.26382 0.0
O23 O 0.71266 0.17394 0.26171 0.0
C24 C 0.8537 0.17631 0.44588 0.0
O25 O 0.87946 0.23661 0.44926 0.0
O26 O 0.82711 0.14126 0.28971 0.0
O27 O 0.82922 0.21822 0.35447 0.0
O28 O 0.83454 0.27581 0.39353 0.0
C29 C 0.87854 0.14464 0.29571 0.0
O30 O 0.91114 0.17626 0.32057 0.0
O31 O 0.79718 0.2516 0.28522 0.0
C32 C 0.70961 0.1832 0.47 0.0
O33 O 0.72534 0.14223 0.47628 0.0
O34 O 0.72329 0.20946 0.44346 0.0
O35 O 0.70152 0.14111 0.37521 0.0
O36 O 0.702 0.12735 0.32332 0.0
O37 O 0.80671 0.14687 0.42761 0.0
C38 C 0.84875 0.27205 0.36549 0.0
C39 C 0.67294 0.11582 0.34937 0.0
Zn40 Zn 0.60938 0.84208 0.64824 0.0
Zn41 Zn 0.61564 0.81331 0.74491 0.0
C42 C 0.51543 0.80813 0.6025 0.0
O43 O 0.53414 0.76938 0.59573 0.0
C44 C 0.7296 0.89151 0.77743 0.0
O45 O 0.6984 0.91822 0.78569 0.0
O46 O 0.68646 0.88345 0.62157 0.0
O47 O 0.6241 0.87429 0.69214 0.0
O48 O 0.59475 0.87943 0.73922 0.0
C49 C 0.73658 0.93427 0.62813 0.0
O50 O 0.74168 0.96185 0.6553 0.0
O51 O 0.54103 0.84603 0.6254 0.0
C52 C 0.57366 0.72247 0.79407 0.0
O53 O 0.61972 0.71606 0.78402 0.0
O54 O 0.5631 0.76091 0.7807 0.0
O55 O 0.58851 0.75879 0.70505 0.0
O56 O 0.58013 0.75218 0.65328 0.0
O57 O 0.70542 0.84771 0.75713 0.0
C58 C 0.59438 0.89007 0.71028 0.0
C59 C 0.57228 0.7263 0.67978 0.0
Zn60 Zn 0.81112 0.63577 0.97762 0.0
Zn61 Zn 0.76657 0.55224 0.03341 0.0
C62 C 0.78197 0.54641 0.92588 0.0
O63 O 0.83658 0.58814 0.91447 0.0
C64 C 0.7773 0.6439 0.07552 0.0
O65 O 0.71706 0.60262 0.07681 0.0
O66 O 0.84634 0.70362 0.94585 0.0
O67 O 0.73971 0.63829 0.99993 0.0
O68 O 0.69306 0.53837 0.00961 0.0
C69 C 0.8624 0.75955 0.95153 0.0
O70 O 0.85839 0.77639 0.98035 0.0
O71 O 0.76463 0.55675 0.95212 0.0
C72 C 0.7857 0.5056 0.08786 0.0
O73 O 0.84125 0.55407 0.08209 0.0
O74 O 0.74082 0.4923 0.06902 0.0
O75 O 0.82388 0.5374 0.00847 0.0
O76 O 0.88487 0.63665 0.99886 0.0
O77 O 0.81013 0.63603 0.05529 0.0
C78 C 0.68995 0.58515 1.00221 0.0
C79 C 0.87744 0.58335 1.00262 0.0
Zn80 Zn 0.0915 0.77245 0.30636 0.0
Zn81 Zn 0.13133 0.78573 0.39914 0.0
C82 C 0.14083 0.70424 0.27519 0.0
O83 O 0.19401 0.75768 0.27694 0.0
C84 C 0.06776 0.83596 0.43071 0.0
O85 O 0.02864 0.77652 0.43529 0.0
O86 O 0.04704 0.79722 0.2761 0.0
O87 O 0.05557 0.75128 0.34925 0.0
O88 O 0.05151 0.7036 0.39185 0.0
C89 C -0.01157 0.77535 0.27597 0.0
O90 O 0.95427 0.73872 0.29877 0.0
O91 O 0.09187 0.69978 0.28677 0.0
C92 C 0.21548 0.82247 0.45222 0.0
O93 O 0.21691 0.8749 0.44903 0.0
O94 O 0.18169 0.77729 0.43359 0.0
O95 O 0.17947 0.80125 0.35815 0.0
O96 O 0.17942 0.84468 0.31414 0.0
O97 O 0.11396 0.85217 0.4125 0.0
C98 C 0.03385 0.70046 0.36363 0.0
C99 C 0.20568 0.84807 0.34036 0.0
Zn100 Zn 0.31452 0.15409 0.657 0.0
Zn101 Zn 0.39135 0.1871 0.7217 0.0
C102 C 0.41377 0.22028 0.61203 0.0
O103 O 0.37517 0.23559 0.60025 0.0
C104 C 0.30108 0.10343 0.76527 0.0
O105 O 0.34147 0.08507 0.76686 0.0
O106 O 0.25502 0.12475 0.62036 0.0
O107 O 0.30109 0.0775 0.67958 0.0
O108 O 0.40039 0.12902 0.69392 0.0
C109 C 0.19778 0.08174 0.62081 0.0
O110 O 0.17265 0.05409 0.64741 0.0
O111 O 0.39891 0.18902 0.63706 0.0
C112 C 0.45254 0.24822 0.77793 0.0
O113 O 0.40078 0.24946 0.78005 0.0
O114 O 0.46003 0.22138 0.75434 0.0
O115 O 0.40271 0.26242 0.70215 0.0
O116 O 0.31153 0.22479 0.67813 0.0
O117 O 0.30986 0.14403 0.7452 0.0
C118 C 0.35245 0.07958 0.684 0.0
C119 C 0.3602 0.26971 0.6909 0.0
H120 H 0.03788 0.58765 0.2661 0.0
H121 H 0.21188 0.48939 0.1417 0.0
H122 H 0.23382 0.70118 0.24298 0.0
H123 H 0.0165 0.37207 0.16502 0.0
H124 H 0.2214 0.56481 0.18101 0.0
H125 H 0.03 0.50511 0.23201 0.0
C126 C 0.07937 0.59508 0.25405 0.0
C127 C 0.13652 0.6517 0.25716 0.0
C128 C 0.17643 0.52252 0.17765 0.0
C129 C 0.12767 0.5576 0.21798 0.0
C130 C 0.17091 0.47941 0.15511 0.0
C131 C 0.11318 0.42444 0.1499 0.0
C132 C 0.12381 0.51088 0.19511 0.0
C133 C 0.06185 0.41395 0.16816 0.0
C134 C 0.07478 0.54794 0.23455 0.0
C135 C 0.18874 0.65854 0.24115 0.0
N136 N 0.0683 0.45694 0.18988 0.0
N137 N 0.18293 0.61225 0.22209 0.0
H138 H 0.45215 0.27254 0.55405 0.0
H139 H 0.67943 0.14215 0.53038 0.0
H140 H 0.49848 0.18728 0.62794 0.0
H141 H 0.65862 0.25548 0.46218 0.0
H142 H 0.61593 0.1612 0.56712 0.0
H143 H 0.53152 0.27158 0.52094 0.0
C144 C 0.47952 0.25433 0.56348 0.0
C145 C 0.46794 0.22907 0.59365 0.0
C146 C 0.62567 0.18232 0.54421 0.0
C147 C 0.55829 0.22708 0.55573 0.0
C148 C 0.66177 0.17128 0.52317 0.0
C149 C 0.67401 0.1969 0.49307 0.0
C150 C 0.60119 0.21884 0.535 0.0
C151 C 0.65017 0.23457 0.48509 0.0
C152 C 0.52475 0.25364 0.54452 0.0
C153 C 0.5051 0.20637 0.60465 0.0
N154 N 0.6145 0.24399 0.50584 0.0
N155 N 0.54804 0.20521 0.58557 0.0
H156 H 0.36161 0.42814 0.92565 0.0
H157 H 0.48517 0.7348 0.82544 0.0
H158 H 0.30313 0.55988 0.9415 0.0
H159 H 0.57114 0.62428 0.82251 0.0
H160 H 0.41769 0.67055 0.8678 0.0
H161 H 0.43924 0.49917 0.88818 0.0
C162 C 0.3654 0.47221 0.92144 0.0
C163 C 0.32552 0.48794 0.93659 0.0
C164 C 0.45154 0.66052 0.85804 0.0
C165 C 0.41371 0.56905 0.89342 0.0
C166 C 0.48996 0.69706 0.83374 0.0
C167 C 0.53373 0.68476 0.82031 0.0
C168 C 0.4564 0.61084 0.86885 0.0
C169 C 0.53802 0.63541 0.83216 0.0
C170 C 0.40975 0.51274 0.90003 0.0
C171 C 0.33274 0.54575 0.93031 0.0
N172 N 0.49953 0.59998 0.85562 0.0
N173 N 0.37551 0.58392 0.90897 0.0
H174 H 0.84501 0.35622 0.25684 0.0
H175 H 0.6817 0.39483 0.10418 0.0
H176 H 0.67002 0.20946 0.21768 0.0
H177 H 0.86984 0.52942 0.13468 0.0
H178 H 0.67118 0.33078 0.14923 0.0
H179 H 0.84942 0.42516 0.21572 0.0
C180 C 0.80736 0.3386 0.23971 0.0
C181 C 0.75734 0.27684 0.2405 0.0
C182 C 0.71467 0.37445 0.14607 0.0
C183 C 0.76202 0.35539 0.19349 0.0
C184 C 0.72064 0.41102 0.1204 0.0
C185 C 0.77688 0.46727 0.11554 0.0
C186 C 0.76519 0.39448 0.16705 0.0
C187 C 0.82578 0.48613 0.13736 0.0
C188 C 0.80994 0.37792 0.21622 0.0
C189 C 0.70971 0.25659 0.21781 0.0
N190 N 0.81885 0.44976 0.1621 0.0
N191 N 0.71333 0.29569 0.19517 0.0
H192 H 0.47857 0.89344 0.60287 0.0
H193 H 0.23306 0.72537 0.46165 0.0
H194 H 0.44234 0.72413 0.55714 0.0
H195 H 0.28834 0.90781 0.49752 0.0
H196 H 0.30223 0.71976 0.50012 0.0
H197 H 0.4016 0.89511 0.56809 0.0
C198 C 0.45414 0.85642 0.5857 0.0
C199 C 0.46706 0.80871 0.58285 0.0
C200 C 0.29912 0.76097 0.49964 0.0
C201 C 0.37916 0.81036 0.54294 0.0
C202 C 0.25952 0.76415 0.4777 0.0
C203 C 0.25511 0.81726 0.47625 0.0
C204 C 0.33448 0.81116 0.52037 0.0
C205 C 0.2905 0.86607 0.49769 0.0
C206 C 0.41038 0.8575 0.56577 0.0
C207 C 0.43417 0.76204 0.56006 0.0
N208 N 0.32879 0.8619 0.51883 0.0
N209 N 0.39187 0.7641 0.54098 0.0
H210 H 0.66287 0.4565 0.94134 0.0
H211 H 0.57753 0.28904 0.77253 0.0
H212 H 0.79765 0.51261 0.86648 0.0
H213 H 0.44184 0.28505 0.83675 0.0
H214 H 0.66088 0.35422 0.81045 0.0
H215 H 0.58388 0.37594 0.90691 0.0
C216 C 0.67609 0.45159 0.91774 0.0
C217 C 0.73678 0.49216 0.90661 0.0
C218 C 0.61274 0.33852 0.81626 0.0
C219 C 0.64642 0.39949 0.86713 0.0
C220 C 0.56521 0.30116 0.79475 0.0
C221 C 0.50279 0.28201 0.80147 0.0
C222 C 0.59744 0.35592 0.84477 0.0
C223 C 0.4894 0.29922 0.83052 0.0
C224 C 0.63087 0.40556 0.89809 0.0
C225 C 0.7513 0.48278 0.87594 0.0
N226 N 0.53632 0.33525 0.85106 0.0
N227 N 0.70626 0.43761 0.85715 0.0
H228 H 0.31104 0.32767 0.99419 0.0
H229 H 0.63085 0.63382 0.03475 0.0
H230 H 0.32643 0.46767 0.05902 0.0
H231 H 0.60708 0.50954 0.95847 0.0
H232 H 0.51677 0.58519 0.03735 0.0
H233 H 0.41636 0.40151 0.9751 0.0
C234 C 0.33649 0.37416 1.00413 0.0
C235 C 0.31057 0.39161 0.02827 0.0
C236 C 0.53651 0.56978 0.01936 0.0
C237 C 0.4308 0.47613 1.00697 0.0
C238 C 0.60158 0.59812 0.01769 0.0
C239 C 0.62765 0.57507 0.99653 0.0
C240 C 0.49812 0.51773 1.00006 0.0
C241 C 0.58816 0.52802 0.97525 0.0
C242 C 0.39642 0.41644 0.99321 0.0
C243 C 0.34528 0.45229 0.04056 0.0
N244 N 0.52521 0.49997 0.97794 0.0
N245 N 0.40387 0.49222 0.02998 0.0
H246 H 0.921 0.63049 0.33403 0.0
H247 H 0.96142 0.33796 0.33656 0.0
H248 H 0.09213 0.63617 0.35563 0.0
H249 H 0.78746 0.33096 0.35121 0.0
H250 H 0.00942 0.44614 0.31974 0.0
H251 H 0.87361 0.52135 0.31725 0.0
C252 C 0.94906 0.6092 0.33425 0.0
C253 C 0.00992 0.64139 0.34656 0.0
C254 C 0.96016 0.42019 0.32562 0.0
C255 C 0.95667 0.51775 0.32769 0.0
C256 C 0.93279 0.35854 0.33496 0.0
C257 C 0.87093 0.32643 0.34554 0.0
C258 C 0.9251 0.44929 0.32704 0.0
C259 C 0.83563 0.35486 0.34343 0.0
C260 C 0.92212 0.54712 0.3248 0.0
C261 C 0.04458 0.61213 0.34665 0.0
N262 N 0.86349 0.41514 0.33489 0.0
N263 N 0.01723 0.55163 0.33775 0.0
H264 H 0.30506 0.97 0.71423 0.0
H265 H 0.60304 0.96063 0.65999 0.0
H266 H 0.42249 0.07526 0.63717 0.0
H267 H 0.47885 0.84892 0.7339 0.0
H268 H 0.52615 -0.01201 0.64409 0.0
H269 H 0.35293 0.90644 0.71333 0.0
C270 C 0.33894 0.97774 0.69621 0.0
C271 C 0.36026 0.02761 0.6758 0.0
C272 C 0.51528 0.95669 0.66348 0.0
C273 C 0.41729 0.95785 0.67549 0.0
C274 C 0.55922 0.94135 0.67255 0.0
C275 C 0.54736 0.90326 0.69843 0.0
C276 C 0.45941 0.93377 0.68056 0.0
C277 C 0.49007 0.87931 0.71406 0.0
C278 C 0.367 0.94219 0.69594 0.0
C279 C 0.40525 0.03708 0.65333 0.0
N280 N 0.44846 0.89535 0.70504 0.0
N281 N 0.43331 0.00336 0.65416 0.0
H282 H 0.52295 0.64258 0.6309 0.0
H283 H 0.39816 0.34897 0.74024 0.0
H284 H 0.53934 0.65423 0.73207 0.0
H285 H 0.35275 0.33394 0.64166 0.0
H286 H 0.44358 0.46088 0.73814 0.0
H287 H 0.45818 0.52978 0.63422 0.0
C288 C 0.51328 0.62146 0.65382 0.0
C289 C 0.53706 0.65795 0.68128 0.0
C290 C 0.42273 0.43325 0.71703 0.0
C291 C 0.46224 0.52898 0.6852 0.0
C292 C 0.39642 0.36942 0.71831 0.0
C293 C 0.3717 0.33277 0.69111 0.0
C294 C 0.42567 0.46071 0.68812 0.0
C295 C 0.37087 0.36097 0.66317 0.0
C296 C 0.47579 0.55708 0.65568 0.0
C297 C 0.52253 0.62803 0.7103 0.0
N298 N 0.39863 0.42374 0.66223 0.0
N299 N 0.4862 0.5653 0.71147 0.0
H300 H 0.05407 0.3811 0.95605 0.0
H301 H 0.95777 0.59657 0.0489 0.0
H302 H 0.07925 0.41642 0.0561 0.0
H303 H 0.90719 0.53768 0.95256 0.0
H304 H 0.01769 0.54451 0.04996 0.0
H305 H 0.01073 0.44794 0.95291 0.0
C306 C 0.05001 0.40248 0.97743 0.0
C307 C 0.07012 0.39289 1.00641 0.0
C308 C -0.00526 0.54419 0.02835 0.0
C309 C 0.02152 0.47048 1.00285 0.0
C310 C 0.96157 0.57475 0.02763 0.0
C311 C 0.92906 0.57228 1.00039 0.0
C312 C -0.00549 0.51056 1.00171 0.0
C313 C 0.93308 0.54161 0.97372 0.0
C314 C 0.02561 0.44099 0.97557 0.0
C315 C 0.06394 0.4221 0.03328 0.0
N316 N 0.96481 0.51145 0.97509 0.0
N317 N 0.04034 0.45975 0.03083 0.0
H318 H 0.27995 0.86629 0.39162 0.0
H319 H 0.59532 0.07651 0.29824 0.0
H320 H 0.28603 0.93344 0.29813 0.0
H321 H 0.59281 0.06584 0.39947 0.0
H322 H 0.48147 0.01609 0.29761 0.0
H323 H 0.39397 0.9336 0.39526 0.0
C324 C 0.3051 0.89562 0.37201 0.0
C325 C 0.27334 0.89379 0.34444 0.0
C326 C 0.50575 0.02701 0.31998 0.0
C327 C 0.40365 0.96995 0.34827 0.0
C328 C 0.57089 0.06114 0.32038 0.0
C329 C 0.60383 0.07623 0.34898 0.0
C330 C 0.47294 0.00702 0.34834 0.0
C331 C 0.56934 0.05527 0.37689 0.0
C332 C 0.37015 0.93392 0.37411 0.0
C333 C 0.3084 0.93294 0.31978 0.0
N334 N 0.50565 0.0214 0.37587 0.0
N335 N 0.37167 0.96883 0.32216 0.0
H336 H 0.28919 0.04132 0.81963 0.0
H337 H 0.10704 0.18606 0.90169 0.0
H338 H 0.21297 0.13654 0.77074 0.0
H339 H 0.21835 0.12839 0.95135 0.0
H340 H 0.11711 0.13777 0.85382 0.0
H341 H 0.2352 0.04283 0.86719 0.0
C342 C 0.25993 0.06125 0.81864 0.0
C343 C 0.25682 0.0902 0.79134 0.0
C344 C 0.13835 0.13468 0.87533 0.0
C345 C 0.19528 0.09234 0.84577 0.0
C346 C 0.13252 0.16213 0.90274 0.0
C347 C 0.16333 0.16273 0.93044 0.0
C348 C 0.17529 0.10772 0.87558 0.0
C349 C 0.1948 0.13011 0.93042 0.0
C350 C 0.22931 0.06228 0.84587 0.0
C351 C 0.21765 0.1147 0.79142 0.0
N352 N 0.20093 0.10488 0.90326 0.0
N353 N 0.18925 0.11613 0.81837 0.0
H354 H 0.82422 0.07976 0.24131 0.0
H355 H 0.15749 0.19756 0.167 0.0
H356 H -0.00244 0.16486 0.2939 0.0
H357 H -0.00788 0.15641 0.1147 0.0
H358 H 0.0925 0.14893 0.21298 0.0
H359 H 0.87852 0.07113 0.19571 0.0
C360 C 0.87345 0.09548 0.24352 0.0
C361 C 0.90688 0.12494 0.27119 0.0
C362 C 0.07029 0.14925 0.19122 0.0
C363 C 0.96922 0.11538 0.21896 0.0
C364 C 0.10731 0.17684 0.16486 0.0
C365 C 0.08042 0.18287 0.13722 0.0
C366 C 0.00604 0.12749 0.18983 0.0
C367 C 0.01505 0.15416 0.13575 0.0
C368 C 0.90438 0.09051 0.21743 0.0
C369 C 0.97023 0.14309 0.27284 0.0
N370 N -0.01978 0.12882 0.16191 0.0
N371 N -0.0003 0.13922 0.24684 0.0
H372 H 0.83491 0.05514 0.62801 0.0
H373 H 0.81589 0.0532 0.44416 0.0
H374 H 0.74144 0.8892 0.57017 0.0
H375 H 0.9209 0.21971 0.50068 0.0
H376 H 0.81315 -0.00795 0.48869 0.0
H377 H 0.89063 0.11451 0.5817 0.0
C378 C 0.82715 0.03089 0.60574 0.0
C379 C 0.78192 0.96748 0.60275 0.0
C380 C 0.83799 0.04208 0.49123 0.0
C381 C 0.84491 0.03519 0.54963 0.0
C382 C 0.83962 0.07704 0.46574 0.0
C383 C 0.86701 0.14143 0.46902 0.0
C384 C 0.86283 0.07166 0.52035 0.0
C385 C 0.8981 0.16999 0.4973 0.0
C386 C 0.85895 0.06486 0.57925 0.0
C387 C 0.7746 0.93837 0.5734 0.0
N388 N 0.89376 0.13476 0.52217 0.0
N389 N 0.80469 0.97266 0.54788 0.0
H390 H 0.80063 0.83846 0.76973 0.0
H391 H 0.86907 0.87173 0.95204 0.0
H392 H 0.77602 0.96111 0.83146 0.0
H393 H 0.88297 0.74251 0.89023 0.0
H394 H 0.8656 0.92713 0.90612 0.0
H395 H 0.86219 0.82715 0.81053 0.0
C396 C 0.8094 0.86422 0.79159 0.0
C397 C 0.78135 0.89912 0.79758 0.0
C398 C 0.8707 0.88739 0.90263 0.0
C399 C 0.85075 0.88541 0.84462 0.0
C400 C 0.87275 0.85577 0.92886 0.0
C401 C 0.87444 0.80135 0.92492 0.0
C402 C 0.87008 0.86419 0.87234 0.0
C403 C 0.88001 0.78334 0.89435 0.0
C404 C 0.84444 0.85759 0.81496 0.0
C405 C 0.79543 0.93245 0.8261 0.0
N406 N 0.87647 0.81399 0.86924 0.0
N407 N 0.82785 0.92355 0.84888 0.0
H408 H 0.04481 0.83441 0.22138 0.0
H409 H 0.72197 0.6607 0.12704 0.0
H410 H 0.86331 0.72711 0.26459 0.0
H411 H 0.90282 0.72643 0.08515 0.0
H412 H 0.77392 0.71332 0.17612 0.0
H413 H -0.00646 0.82317 0.17091 0.0
C414 C -0.00585 0.8095 0.22044 0.0
C415 C 0.95827 0.78038 0.24718 0.0
C416 C 0.80222 0.71718 0.156 0.0
C417 C 0.89945 0.76735 0.18936 0.0
C418 C 0.77265 0.68734 0.12789 0.0
C419 C 0.80808 0.68792 0.10212 0.0
C420 C 0.86767 0.74794 0.15834 0.0
C421 C 0.87359 0.72388 0.10455 0.0
C422 C 0.96496 0.80303 0.19154 0.0
C423 C 0.89285 0.74943 0.24451 0.0
N424 N 0.90128 0.75163 0.13236 0.0
N425 N 0.86551 0.74292 0.216 0.0
H426 H 0.23442 0.13172 0.56249 0.0
H427 H -0.01424 0.81508 0.4784 0.0
H428 H 0.08345 0.97574 0.6104 0.0
H429 H 0.15185 0.96137 0.43417 0.0
H430 H 0.00364 0.88485 0.52272 0.0
H431 H 0.18773 0.08142 0.51227 0.0
C432 C 0.19089 0.08726 0.56247 0.0
C433 C 0.16359 0.05717 0.59073 0.0
C434 C 0.03548 0.90206 0.50303 0.0
C435 C 0.11013 -0.00085 0.53319 0.0
C436 C 0.0252 0.86232 0.47762 0.0
C437 C 0.06834 0.88189 0.45289 0.0
C438 C 0.08931 0.9617 0.50372 0.0
C439 C 0.11801 0.94389 0.45299 0.0
C440 C 0.16424 0.05858 0.53374 0.0
C441 C 0.10664 0.00017 0.5892 0.0
N442 N 0.1278 0.98122 0.47832 0.0
N443 N 0.08235 0.97247 0.56089 0.0
loop_
_geom_bond_atom_site_label_1
_geom_bond_atom_site_label_2
_geom_bond_distance
_geom_bond_site_symmetry_2
_ccdc_geom_bond_type
Zn0 O6 1.969 . S
Zn0 O7 1.965 1_556 S
Zn0 O11 2.024 . S
Zn0 O16 1.969 . S
Zn1 O8 1.969 . S
Zn1 O14 1.969 . S
Zn1 O15 1.965 . S
Zn1 O17 2.024 . S
C2 O3 1.229 . S
C2 O11 1.058 . S
O3 C2 1.229 . S
C4 O5 1.229 . S
C4 O17 1.058 . S
O5 C4 1.229 . S
O6 Zn0 1.969 . S
O6 C9 1.267 . S
O7 Zn0 1.965 1_554 S
O7 C18 1.260 . S
O8 Zn1 1.969 . S
O8 C18 1.258 . S
C9 O6 1.267 . S
C9 O10 1.228 . S
O10 C9 1.228 . S
O11 Zn0 2.024 . S
O11 C2 1.058 . S
C12 O13 1.228 . S
C12 O14 1.267 . S
O13 C12 1.228 . S
O14 Zn1 1.969 . S
O14 C12 1.267 . S
O15 Zn1 1.965 . S
O15 C19 1.260 . S
O16 Zn0 1.969 . S
O16 C19 1.258 1_556 S
O17 Zn1 2.024 . S
O17 C4 1.058 . S
C18 O7 1.260 . S
C18 O8 1.258 . S
C19 O15 1.260 . S
C19 O16 1.258 1_554 S
Zn20 O26 1.969 . S
Zn20 O27 1.965 . S
Zn20 O31 2.024 . S
Zn20 O36 1.969 . S
Zn21 O28 1.969 . S
Zn21 O34 1.969 . S
Zn21 O35 1.965 . S
Zn21 O37 2.024 . S
C22 O23 1.229 . S
C22 O31 1.058 . S
O23 C22 1.229 . S
C24 O25 1.229 . S
C24 O37 1.058 . S
O25 C24 1.229 . S
O26 Zn20 1.969 . S
O26 C29 1.267 . S
O27 Zn20 1.965 . S
O27 C38 1.260 . S
O28 Zn21 1.969 . S
O28 C38 1.258 . S
C29 O26 1.267 . S
C29 O30 1.228 . S
O30 C29 1.228 . S
O31 Zn20 2.024 . S
O31 C22 1.058 . S
C32 O33 1.228 . S
C32 O34 1.267 . S
O33 C32 1.228 . S
O34 Zn21 1.969 . S
O34 C32 1.267 . S
O35 Zn21 1.965 . S
O35 C39 1.260 . S
O36 Zn20 1.969 . S
O36 C39 1.258 . S
O37 Zn21 2.024 . S
O37 C24 1.058 . S
C38 O27 1.260 . S
C38 O28 1.258 . S
C39 O35 1.260 . S
C39 O36 1.258 . S
Zn40 O46 1.969 . S
Zn40 O47 1.965 . S
Zn40 O51 2.024 . S
Zn40 O56 1.969 . S
Zn41 O48 1.969 . S
Zn41 O54 1.969 . S
Zn41 O55 1.965 . S
Zn41 O57 2.024 . S
C42 O43 1.229 . S
C42 O51 1.058 . S
O43 C42 1.229 . S
C44 O45 1.229 . S
C44 O57 1.058 . S
O45 C44 1.229 . S
O46 Zn40 1.969 . S
O46 C49 1.267 . S
O47 Zn40 1.965 . S
O47 C58 1.260 . S
O48 Zn41 1.969 . S
O48 C58 1.258 . S
C49 O46 1.267 . S
C49 O50 1.228 . S
O50 C49 1.228 . S
O51 Zn40 2.024 . S
O51 C42 1.058 . S
C52 O53 1.228 . S
C52 O54 1.267 . S
O53 C52 1.228 . S
O54 Zn41 1.969 . S
O54 C52 1.267 . S
O55 Zn41 1.965 . S
O55 C59 1.260 . S
O56 Zn40 1.969 . S
O56 C59 1.258 . S
O57 Zn41 2.024 . S
O57 C44 1.058 . S
C58 O47 1.260 . S
C58 O48 1.258 . S
C59 O55 1.260 . S
C59 O56 1.258 . S
Zn60 O66 1.969 . S
Zn60 O67 1.965 1_556 S
Zn60 O71 2.024 . S
Zn60 O76 1.969 . S
Zn61 O68 1.969 . S
Zn61 O74 1.969 . S
Zn61 O75 1.965 . S
Zn61 O77 2.024 . S
C62 O63 1.229 . S
C62 O71 1.058 . S
O63 C62 1.229 . S
C64 O65 1.229 . S
C64 O77 1.058 . S
O65 C64 1.229 . S
O66 Zn60 1.969 . S
O66 C69 1.267 . S
O67 Zn60 1.965 1_554 S
O67 C78 1.260 . S
O68 Zn61 1.969 . S
O68 C78 1.258 . S
C69 O66 1.267 . S
C69 O70 1.228 . S
O70 C69 1.228 . S
O71 Zn60 2.024 . S
O71 C62 1.058 . S
C72 O73 1.228 . S
C72 O74 1.267 . S
O73 C72 1.228 . S
O74 Zn61 1.969 . S
O74 C72 1.267 . S
O75 Zn61 1.965 . S
O75 C79 1.260 . S
O76 Zn60 1.969 . S
O76 C79 1.258 1_556 S
O77 Zn61 2.024 . S
O77 C64 1.058 . S
C78 O67 1.260 . S
C78 O68 1.258 . S
C79 O75 1.260 . S
C79 O76 1.258 1_554 S
Zn80 O86 1.969 . S
Zn80 O87 1.965 . S
Zn80 O91 2.024 . S
Zn80 O96 1.969 . S
Zn81 O88 1.969 . S
Zn81 O94 1.969 . S
Zn81 O95 1.965 . S
Zn81 O97 2.024 . S
C82 O83 1.229 . S
C82 O91 1.058 . S
O83 C82 1.229 . S
C84 O85 1.229 . S
C84 O97 1.058 . S
O85 C84 1.229 . S
O86 Zn80 1.969 . S
O86 C89 1.267 . S
O87 Zn80 1.965 . S
O87 C98 1.260 . S
O88 Zn81 1.969 . S
O88 C98 1.258 . S
C89 O86 1.267 . S
C89 O90 1.228 . S
O90 C89 1.228 . S
O91 Zn80 2.024 . S
O91 C82 1.058 . S
C92 O93 1.228 . S
C92 O94 1.267 . S
O93 C92 1.228 . S
O94 Zn81 1.969 . S
O94 C92 1.267 . S
O95 Zn81 1.965 . S
O95 C99 1.260 . S
O96 Zn80 1.969 . S
O96 C99 1.258 . S
O97 Zn81 2.024 . S
O97 C84 1.058 . S
C98 O87 1.260 . S
C98 O88 1.258 . S
C99 O95 1.260 . S
C99 O96 1.258 . S
Zn100 O106 1.969 . S
Zn100 O107 1.965 . S
Zn100 O111 2.024 . S
Zn100 O116 1.969 . S
Zn101 O108 1.969 . S
Zn101 O114 1.969 . S
Zn101 O115 1.965 . S
Zn101 O117 2.024 . S
C102 O103 1.229 . S
C102 O111 1.058 . S
O103 C102 1.229 . S
C104 O105 1.229 . S
C104 O117 1.058 . S
O105 C104 1.229 . S
O106 Zn100 1.969 . S
O106 C109 1.267 . S
O107 Zn100 1.965 . S
O107 C118 1.260 . S
O108 Zn101 1.969 . S
O108 C118 1.258 . S
C109 O106 1.267 . S
C109 O110 1.228 . S
O110 C109 1.228 . S
O111 Zn100 2.024 . S
O111 C102 1.058 . S
C112 O113 1.228 . S
C112 O114 1.267 . S
O113 C112 1.228 . S
O114 Zn101 1.969 . S
O114 C112 1.267 . S
O115 Zn101 1.965 . S
O115 C119 1.260 . S
O116 Zn100 1.969 . S
O116 C119 1.258 . S
O117 Zn101 2.024 . S
O117 C104 1.058 . S
C118 O107 1.260 . S
C118 O108 1.258 . S
C119 O115 1.260 . S
C119 O116 1.258 . S
H120 C126 0.930 . S
H121 C130 0.930 . S
H122 C135 0.929 . S
H123 C133 0.929 . S
H124 C128 0.929 . S
H125 C134 0.929 . S
C126 H120 0.930 . S
C126 C127 1.367 . S
C126 C134 1.378 . S
C127 C126 1.367 . S
C127 C135 1.433 . S
C128 H124 0.929 . S
C128 C130 1.378 . S
C128 C132 1.350 . S
C129 C132 1.463 . S
C129 C134 1.350 . S
C129 N137 1.427 . S
C130 H121 0.930 . S
C130 C128 1.378 . S
C130 C131 1.367 . S
C131 C130 1.367 . S
C131 C133 1.433 . S
C132 C128 1.350 . S
C132 C129 1.463 . S
C132 N136 1.427 . S
C133 H123 0.929 . S
C133 C131 1.433 . S
C133 N136 1.384 . S
C134 H125 0.929 . S
C134 C126 1.378 . S
C134 C129 1.350 . S
C135 H122 0.929 . S
C135 C127 1.433 . S
C135 N137 1.384 . S
N136 C132 1.427 . S
N136 C133 1.384 . S
N137 C129 1.427 . S
N137 C135 1.384 . S
H138 C144 0.930 . S
H139 C148 0.930 . S
H140 C153 0.929 . S
H141 C151 0.929 . S
H142 C146 0.929 . S
H143 C152 0.929 . S
C144 H138 0.930 . S
C144 C145 1.367 . S
C144 C152 1.378 . S
C145 C144 1.367 . S
C145 C153 1.433 . S
C146 H142 0.929 . S
C146 C148 1.378 . S
C146 C150 1.350 . S
C147 C150 1.463 . S
C147 C152 1.350 . S
C147 N155 1.427 . S
C148 H139 0.930 . S
C148 C146 1.378 . S
C148 C149 1.367 . S
C149 C148 1.367 . S
C149 C151 1.433 . S
C150 C146 1.350 . S
C150 C147 1.463 . S
C150 N154 1.427 . S
C151 H141 0.929 . S
C151 C149 1.433 . S
C151 N154 1.384 . S
C152 H143 0.929 . S
C152 C144 1.378 . S
C152 C147 1.350 . S
C153 H140 0.929 . S
C153 C145 1.433 . S
C153 N155 1.384 . S
N154 C150 1.427 . S
N154 C151 1.384 . S
N155 C147 1.427 . S
N155 C153 1.384 . S
H156 C162 0.930 . S
H157 C166 0.930 . S
H158 C171 0.929 . S
H159 C169 0.929 . S
H160 C164 0.929 . S
H161 C170 0.929 . S
C162 H156 0.930 . S
C162 C163 1.367 . S
C162 C170 1.378 . S
C163 C162 1.367 . S
C163 C171 1.433 . S
C164 H160 0.929 . S
C164 C166 1.378 . S
C164 C168 1.350 . S
C165 C168 1.463 . S
C165 C170 1.350 . S
C165 N173 1.427 . S
C166 H157 0.930 . S
C166 C164 1.378 . S
C166 C167 1.367 . S
C167 C166 1.367 . S
C167 C169 1.433 . S
C168 C164 1.350 . S
C168 C165 1.463 . S
C168 N172 1.427 . S
C169 H159 0.929 . S
C169 C167 1.433 . S
C169 N172 1.384 . S
C170 H161 0.929 . S
C170 C162 1.378 . S
C170 C165 1.350 . S
C171 H158 0.929 . S
C171 C163 1.433 . S
C171 N173 1.384 . S
N172 C168 1.427 . S
N172 C169 1.384 . S
N173 C165 1.427 . S
N173 C171 1.384 . S
H174 C180 0.930 . S
H175 C184 0.930 . S
H176 C189 0.929 . S
H177 C187 0.929 . S
H178 C182 0.929 . S
H179 C188 0.929 . S
C180 H174 0.930 . S
C180 C181 1.367 . S
C180 C188 1.378 . S
C181 C180 1.367 . S
C181 C189 1.433 . S
C182 H178 0.929 . S
C182 C184 1.378 . S
C182 C186 1.350 . S
C183 C186 1.463 . S
C183 C188 1.350 . S
C183 N191 1.427 . S
C184 H175 0.930 . S
C184 C182 1.378 . S
C184 C185 1.367 . S
C185 C184 1.367 . S
C185 C187 1.433 . S
C186 C182 1.350 . S
C186 C183 1.463 . S
C186 N190 1.427 . S
C187 H177 0.929 . S
C187 C185 1.433 . S
C187 N190 1.384 . S
C188 H179 0.929 . S
C188 C180 1.378 . S
C188 C183 1.350 . S
C189 H176 0.929 . S
C189 C181 1.433 . S
C189 N191 1.384 . S
N190 C186 1.427 . S
N190 C187 1.384 . S
N191 C183 1.427 . S
N191 C189 1.384 . S
H192 C198 0.930 . S
H193 C202 0.930 . S
H194 C207 0.929 . S
H195 C205 0.929 . S
H196 C200 0.929 . S
H197 C206 0.929 . S
C198 H192 0.930 . S
C198 C199 1.367 . S
C198 C206 1.378 . S
C199 C198 1.367 . S
C199 C207 1.433 . S
C200 H196 0.929 . S
C200 C202 1.378 . S
C200 C204 1.350 . S
C201 C204 1.463 . S
C201 C206 1.350 . S
C201 N209 1.427 . S
C202 H193 0.930 . S
C202 C200 1.378 . S
C202 C203 1.367 . S
C203 C202 1.367 . S
C203 C205 1.433 . S
C204 C200 1.350 . S
C204 C201 1.463 . S
C204 N208 1.427 . S
C205 H195 0.929 . S
C205 C203 1.433 . S
C205 N208 1.384 . S
C206 H197 0.929 . S
C206 C198 1.378 . S
C206 C201 1.350 . S
C207 H194 0.929 . S
C207 C199 1.433 . S
C207 N209 1.384 . S
N208 C204 1.427 . S
N208 C205 1.384 . S
N209 C201 1.427 . S
N209 C207 1.384 . S
H210 C216 0.930 . S
H211 C220 0.930 . S
H212 C225 0.929 . S
H213 C223 0.929 . S
H214 C218 0.929 . S
H215 C224 0.929 . S
C216 H210 0.930 . S
C216 C217 1.367 . S
C216 C224 1.378 . S
C217 C216 1.367 . S
C217 C225 1.433 . S
C218 H214 0.929 . S
C218 C220 1.378 . S
C218 C222 1.350 . S
C219 C222 1.463 . S
C219 C224 1.350 . S
C219 N227 1.427 . S
C220 H211 0.930 . S
C220 C218 1.378 . S
C220 C221 1.367 . S
C221 C220 1.367 . S
C221 C223 1.433 . S
C222 C218 1.350 . S
C222 C219 1.463 . S
C222 N226 1.427 . S
C223 H213 0.929 . S
C223 C221 1.433 . S
C223 N226 1.384 . S
C224 H215 0.929 . S
C224 C216 1.378 . S
C224 C219 1.350 . S
C225 H212 0.929 . S
C225 C217 1.433 . S
C225 N227 1.384 . S
N226 C222 1.427 . S
N226 C223 1.384 . S
N227 C219 1.427 . S
N227 C225 1.384 . S
H228 C234 0.930 1_556 S
H229 C238 0.930 . S
H230 C243 0.929 . S
H231 C241 0.929 1_556 S
H232 C236 0.929 . S
H233 C242 0.929 1_556 S
C234 H228 0.930 1_554 S
C234 C235 1.367 . S
C234 C242 1.378 . S
C235 C234 1.367 . S
C235 C243 1.433 . S
C236 H232 0.929 . S
C236 C238 1.378 . S
C236 C240 1.350 . S
C237 C240 1.463 . S
C237 C242 1.350 . S
C237 N245 1.427 . S
C238 H229 0.930 . S
C238 C236 1.378 . S
C238 C239 1.367 . S
C239 C238 1.367 . S
C239 C241 1.433 . S
C240 C236 1.350 . S
C240 C237 1.463 . S
C240 N244 1.427 . S
C241 H231 0.929 1_554 S
C241 C239 1.433 . S
C241 N244 1.384 . S
C242 H233 0.929 1_554 S
C242 C234 1.378 . S
C242 C237 1.350 . S
C243 H230 0.929 . S
C243 C235 1.433 . S
C243 N245 1.384 . S
N244 C240 1.427 . S
N244 C241 1.384 . S
N245 C237 1.427 . S
N245 C243 1.384 . S
H246 C252 0.930 1_655 S
H247 C256 0.930 1_455 S
H248 C261 0.929 . S
H249 C259 0.929 . S
H250 C254 0.929 . S
H251 C260 0.929 . S
C252 H246 0.930 1_455 S
C252 C253 1.367 . S
C252 C260 1.378 1_455 S
C253 C252 1.367 . S
C253 C261 1.433 . S
C254 H250 0.929 . S
C254 C256 1.378 1_455 S
C254 C258 1.350 1_455 S
C255 C258 1.463 1_455 S
C255 C260 1.350 1_455 S
C255 N263 1.427 . S
C256 H247 0.930 1_655 S
C256 C254 1.378 1_655 S
C256 C257 1.367 . S
C257 C256 1.367 . S
C257 C259 1.433 . S
C258 C254 1.350 1_655 S
C258 C255 1.463 1_655 S
C258 N262 1.427 . S
C259 H249 0.929 . S
C259 C257 1.433 . S
C259 N262 1.384 . S
C260 H251 0.929 . S
C260 C252 1.378 1_655 S
C260 C255 1.350 1_655 S
C261 H248 0.929 . S
C261 C253 1.433 . S
C261 N263 1.384 . S
N262 C258 1.427 . S
N262 C259 1.384 . S
N263 C255 1.427 . S
N263 C261 1.384 . S
H264 C270 0.930 . S
H265 C274 0.930 . S
H266 C279 0.929 . S
H267 C277 0.929 . S
H268 C272 0.929 1_545 S
H269 C278 0.929 1_565 S
C270 H264 0.930 . S
C270 C271 1.367 . S
C270 C278 1.378 . S
C271 C270 1.367 . S
C271 C279 1.433 . S
C272 H268 0.929 1_565 S
C272 C274 1.378 . S
C272 C276 1.350 . S
C273 C276 1.463 1_545 S
C273 C278 1.350 . S
C273 N281 1.427 . S
C274 H265 0.930 . S
C274 C272 1.378 . S
C274 C275 1.367 . S
C275 C274 1.367 . S
C275 C277 1.433 . S
C276 C272 1.350 . S
C276 C273 1.463 1_565 S
C276 N280 1.427 . S
C277 H267 0.929 . S
C277 C275 1.433 . S
C277 N280 1.384 . S
C278 H269 0.929 1_545 S
C278 C270 1.378 . S
C278 C273 1.350 . S
C279 H266 0.929 . S
C279 C271 1.433 . S
C279 N281 1.384 . S
N280 C276 1.427 . S
N280 C277 1.384 . S
N281 C273 1.427 . S
N281 C279 1.384 . S
H282 C288 0.930 . S
H283 C292 0.930 . S
H284 C297 0.929 . S
H285 C295 0.929 . S
H286 C290 0.929 . S
H287 C296 0.929 . S
C288 H282 0.930 . S
C288 C289 1.367 . S
C288 C296 1.378 . S
C289 C288 1.367 . S
C289 C297 1.433 . S
C290 H286 0.929 . S
C290 C292 1.378 . S
C290 C294 1.350 . S
C291 C294 1.463 . S
C291 C296 1.350 . S
C291 N299 1.427 . S
C292 H283 0.930 . S
C292 C290 1.378 . S
C292 C293 1.367 . S
C293 C292 1.367 . S
C293 C295 1.433 . S
C294 C290 1.350 . S
C294 C291 1.463 . S
C294 N298 1.427 . S
C295 H285 0.929 . S
C295 C293 1.433 . S
C295 N298 1.384 . S
C296 H287 0.929 . S
C296 C288 1.378 . S
C296 C291 1.350 . S
C297 H284 0.929 . S
C297 C289 1.433 . S
C297 N299 1.384 . S
N298 C294 1.427 . S
N298 C295 1.384 . S
N299 C291 1.427 . S
N299 C297 1.384 . S
H300 C306 0.930 . S
H301 C310 0.930 . S
H302 C315 0.929 . S
H303 C313 0.929 . S
H304 C308 0.929 1_455 S
H305 C314 0.929 1_655 S
C306 H300 0.930 . S
C306 C307 1.367 1_556 S
C306 C314 1.378 . S
C307 C306 1.367 1_554 S
C307 C315 1.433 . S
C308 H304 0.929 1_655 S
C308 C310 1.378 . S
C308 C312 1.350 . S
C309 C312 1.463 1_455 S
C309 C314 1.350 1_554 S
C309 N317 1.427 . S
C310 H301 0.930 . S
C310 C308 1.378 . S
C310 C311 1.367 . S
C311 C310 1.367 . S
C311 C313 1.433 1_554 S
C312 C308 1.350 . S
C312 C309 1.463 1_655 S
C312 N316 1.427 1_554 S
C313 H303 0.929 . S
C313 C311 1.433 1_556 S
C313 N316 1.384 . S
C314 H305 0.929 1_455 S
C314 C306 1.378 . S
C314 C309 1.350 1_556 S
C315 H302 0.929 . S
C315 C307 1.433 . S
C315 N317 1.384 . S
N316 C312 1.427 1_556 S
N316 C313 1.384 . S
N317 C309 1.427 . S
N317 C315 1.384 . S
H318 C324 0.930 . S
H319 C328 0.930 . S
H320 C333 0.929 . S
H321 C331 0.929 . S
H322 C326 0.929 . S
H323 C332 0.929 . S
C324 H318 0.930 . S
C324 C325 1.367 . S
C324 C332 1.378 . S
C325 C324 1.367 . S
C325 C333 1.433 . S
C326 H322 0.929 . S
C326 C328 1.378 . S
C326 C330 1.350 . S
C327 C330 1.463 1_565 S
C327 C332 1.350 . S
C327 N335 1.427 . S
C328 H319 0.930 . S
C328 C326 1.378 . S
C328 C329 1.367 . S
C329 C328 1.367 . S
C329 C331 1.433 . S
C330 C326 1.350 . S
C330 C327 1.463 1_545 S
C330 N334 1.427 . S
C331 H321 0.929 . S
C331 C329 1.433 . S
C331 N334 1.384 . S
C332 H323 0.929 . S
C332 C324 1.378 . S
C332 C327 1.350 . S
C333 H320 0.929 . S
C333 C325 1.433 . S
C333 N335 1.384 . S
N334 C330 1.427 . S
N334 C331 1.384 . S
N335 C327 1.427 . S
N335 C333 1.384 . S
H336 C342 0.930 . S
H337 C346 0.930 . S
H338 C351 0.929 . S
H339 C349 0.929 . S
H340 C344 0.929 . S
H341 C350 0.929 . S
C342 H336 0.930 . S
C342 C343 1.367 . S
C342 C350 1.378 . S
C343 C342 1.367 . S
C343 C351 1.433 . S
C344 H340 0.929 . S
C344 C346 1.378 . S
C344 C348 1.350 . S
C345 C348 1.463 . S
C345 C350 1.350 . S
C345 N353 1.427 . S
C346 H337 0.930 . S
C346 C344 1.378 . S
C346 C347 1.367 . S
C347 C346 1.367 . S
C347 C349 1.433 . S
C348 C344 1.350 . S
C348 C345 1.463 . S
C348 N352 1.427 . S
C349 H339 0.929 . S
C349 C347 1.433 . S
C349 N352 1.384 . S
C350 H341 0.929 . S
C350 C342 1.378 . S
C350 C345 1.350 . S
C351 H338 0.929 . S
C351 C343 1.433 . S
C351 N353 1.384 . S
N352 C348 1.427 . S
N352 C349 1.384 . S
N353 C345 1.427 . S
N353 C351 1.384 . S
H354 C360 0.930 . S
H355 C364 0.930 . S
H356 C369 0.929 . S
H357 C367 0.929 . S
H358 C362 0.929 . S
H359 C368 0.929 . S
C360 H354 0.930 . S
C360 C361 1.367 . S
C360 C368 1.378 . S
C361 C360 1.367 . S
C361 C369 1.433 1_655 S
C362 H358 0.929 . S
C362 C364 1.378 . S
C362 C366 1.350 . S
C363 C366 1.463 . S
C363 C368 1.350 1_455 S
C363 N371 1.427 . S
C364 H355 0.930 . S
C364 C362 1.378 . S
C364 C365 1.367 . S
C365 C364 1.367 . S
C365 C367 1.433 . S
C366 C362 1.350 . S
C366 C363 1.463 . S
C366 N370 1.427 . S
C367 H357 0.929 . S
C367 C365 1.433 . S
C367 N370 1.384 . S
C368 H359 0.929 . S
C368 C360 1.378 . S
C368 C363 1.350 1_655 S
C369 H356 0.929 . S
C369 C361 1.433 1_455 S
C369 N371 1.384 . S
N370 C366 1.427 . S
N370 C367 1.384 . S
N371 C363 1.427 . S
N371 C369 1.384 . S
H372 C378 0.930 1_545 S
H373 C382 0.930 . S
H374 C387 0.929 . S
H375 C385 0.929 . S
H376 C380 0.929 1_565 S
H377 C386 0.929 . S
C378 H372 0.930 1_565 S
C378 C379 1.367 . S
C378 C386 1.378 1_565 S
C379 C378 1.367 . S
C379 C387 1.433 . S
C380 H376 0.929 1_545 S
C380 C382 1.378 . S
C380 C384 1.350 . S
C381 C384 1.463 . S
C381 C386 1.350 . S
C381 N389 1.427 1_545 S
C382 H373 0.930 . S
C382 C380 1.378 . S
C382 C383 1.367 . S
C383 C382 1.367 . S
C383 C385 1.433 . S
C384 C380 1.350 . S
C384 C381 1.463 . S
C384 N388 1.427 . S
C385 H375 0.929 . S
C385 C383 1.433 . S
C385 N388 1.384 . S
C386 H377 0.929 . S
C386 C378 1.378 1_545 S
C386 C381 1.350 . S
C387 H374 0.929 . S
C387 C379 1.433 . S
C387 N389 1.384 . S
N388 C384 1.427 . S
N388 C385 1.384 . S
N389 C381 1.427 1_565 S
N389 C387 1.384 . S
H390 C396 0.930 . S
H391 C400 0.930 . S
H392 C405 0.929 . S
H393 C403 0.929 . S
H394 C398 0.929 . S
H395 C404 0.929 . S
C396 H390 0.930 . S
C396 C397 1.367 . S
C396 C404 1.378 . S
C397 C396 1.367 . S
C397 C405 1.433 . S
C398 H394 0.929 . S
C398 C400 1.378 . S
C398 C402 1.350 . S
C399 C402 1.463 . S
C399 C404 1.350 . S
C399 N407 1.427 . S
C400 H391 0.930 . S
C400 C398 1.378 . S
C400 C401 1.367 . S
C401 C400 1.367 . S
C401 C403 1.433 . S
C402 C398 1.350 . S
C402 C399 1.463 . S
C402 N406 1.427 . S
C403 H393 0.929 . S
C403 C401 1.433 . S
C403 N406 1.384 . S
C404 H395 0.929 . S
C404 C396 1.378 . S
C404 C399 1.350 . S
C405 H392 0.929 . S
C405 C397 1.433 . S
C405 N407 1.384 . S
N406 C402 1.427 . S
N406 C403 1.384 . S
N407 C399 1.427 . S
N407 C405 1.384 . S
H408 C414 0.930 . S
H409 C418 0.930 . S
H410 C423 0.929 . S
H411 C421 0.929 . S
H412 C416 0.929 . S
H413 C422 0.929 . S
C414 H408 0.930 . S
C414 C415 1.367 . S
C414 C422 1.378 . S
C415 C414 1.367 . S
C415 C423 1.433 1_455 S
C416 H412 0.929 . S
C416 C418 1.378 . S
C416 C420 1.350 . S
C417 C420 1.463 . S
C417 C422 1.350 1_655 S
C417 N425 1.427 . S
C418 H409 0.930 . S
C418 C416 1.378 . S
C418 C419 1.367 . S
C419 C418 1.367 . S
C419 C421 1.433 . S
C420 C416 1.350 . S
C420 C417 1.463 . S
C420 N424 1.427 . S
C421 H411 0.929 . S
C421 C419 1.433 . S
C421 N424 1.384 . S
C422 H413 0.929 . S
C422 C414 1.378 . S
C422 C417 1.350 1_455 S
C423 H410 0.929 . S
C423 C415 1.433 1_655 S
C423 N425 1.384 . S
N424 C420 1.427 . S
N424 C421 1.384 . S
N425 C417 1.427 . S
N425 C423 1.384 . S
H426 C432 0.930 . S
H427 C436 0.930 . S
H428 C441 0.929 . S
H429 C439 0.929 . S
H430 C434 0.929 . S
H431 C440 0.929 . S
C432 H426 0.930 . S
C432 C433 1.367 . S
C432 C440 1.378 . S
C433 C432 1.367 . S
C433 C441 1.433 1_545 S
C434 H430 0.929 . S
C434 C436 1.378 . S
C434 C438 1.350 . S
C435 C438 1.463 . S
C435 C440 1.350 1_565 S
C435 N443 1.427 . S
C436 H427 0.930 . S
C436 C434 1.378 . S
C436 C437 1.367 . S
C437 C436 1.367 . S
C437 C439 1.433 . S
C438 C434 1.350 . S
C438 C435 1.463 . S
C438 N442 1.427 . S
C439 H429 0.929 . S
C439 C437 1.433 . S
C439 N442 1.384 . S
C440 H431 0.929 . S
C440 C432 1.378 . S
C440 C435 1.350 1_545 S
C441 H428 0.929 . S
C441 C433 1.433 1_565 S
C441 N443 1.384 . S
N442 C438 1.427 . S
N442 C439 1.384 . S
N443 C435 1.427 . S
N443 C441 1.384 . S
C127 C82 1.005 . S
C131 C12 1.062 . S
C145 C102 1.029 . S
C149 C32 1.056 . S
C163 C2 1.003 . S
C167 C52 1.059 . S
C181 C22 1.019 . S
C185 C72 1.069 . S
C199 C42 1.018 . S
C203 C92 1.069 . S
C217 C62 1.015 . S
C221 C112 1.068 . S
C235 C18 1.106 . S
C239 C78 1.103 . S
C253 C98 1.108 . S
C257 C38 1.109 . S
C271 C118 1.104 . S
C275 C58 1.107 . S
C289 C59 1.133 . S
C293 C119 1.137 . S
C307 C19 1.134 . S
C311 C79 1.137 . S
C325 C99 1.131 . S
C329 C39 1.127 . S
C343 C104 0.956 . S
C347 C9 1.032 . S
C361 C29 1.026 . S
C365 C4 0.961 . S
C379 C49 1.019 . S
C383 C24 0.990 . S
C397 C44 0.967 . S
C401 C69 1.036 . S
C415 C89 1.027 . S
C419 C64 0.959 . S
C433 C109 1.017 . S
C437 C84 0.972 . S
