# Generated by pormake.
# Topology tzs, (4)-cn, num edge types: 1
# Building blocks:
#     Node 0, Type 0, BuildingBlock: CEKHIL_clean_sbu_0, # of connection points: 4
#     Node 1, Type 0, BuildingBlock: CEKHIL_clean_sbu_0, # of connection points: 4
#     Node 2, Type 0, BuildingBlock: CEKHIL_clean_sbu_0, # of connection points: 4
#     Node 3, Type 0, BuildingBlock: CEKHIL_clean_sbu_0, # of connection points: 4
#     Node 4, Type 0, BuildingBlock: CEKHIL_clean_sbu_0, # of connection points: 4
#     Node 5, Type 0, BuildingBlock: CEKHIL_clean_sbu_0, # of connection points: 4
#     Node 6, Type 0, BuildingBlock: CEKHIL_clean_sbu_0, # of connection points: 4
#     Node 7, Type 0, BuildingBlock: CEKHIL_clean_sbu_0, # of connection points: 4
#     Node 8, Type 0, BuildingBlock: CEKHIL_clean_sbu_0, # of connection points: 4
#     Node 9, Type 0, BuildingBlock: CEKHIL_clean_sbu_0, # of connection points: 4
#     Node 10, Type 0, BuildingBlock: CEKHIL_clean_sbu_0, # of connection points: 4
#     Node 11, Type 0, BuildingBlock: CEKHIL_clean_sbu_0, # of connection points: 4
#     Node 12, Type 0, BuildingBlock: CEKHIL_clean_sbu_0, # of connection points: 4
#     Node 13, Type 0, BuildingBlock: CEKHIL_clean_sbu_0, # of connection points: 4
#     Node 14, Type 0, BuildingBlock: CEKHIL_clean_sbu_0, # of connection points: 4
#     Node 15, Type 0, BuildingBlock: CEKHIL_clean_sbu_0, # of connection points: 4
#     Edge 16, Type (0, 0), BuildingBlock: UVAHIK_clean_linker_0, # of connection points: 2
#     Edge 17, Type (0, 0), BuildingBlock: UVAHIK_clean_linker_0, # of connection points: 2
#     Edge 18, Type (0, 0), BuildingBlock: UVAHIK_clean_linker_0, # of connection points: 2
#     Edge 19, Type (0, 0), BuildingBlock: UVAHIK_clean_linker_0, # of connection points: 2
#     Edge 20, Type (0, 0), BuildingBlock: UVAHIK_clean_linker_0, # of connection points: 2
#     Edge 21, Type (0, 0), BuildingBlock: UVAHIK_clean_linker_0, # of connection points: 2
#     Edge 22, Type (0, 0), BuildingBlock: UVAHIK_clean_linker_0, # of connection points: 2
#     Edge 23, Type (0, 0), BuildingBlock: UVAHIK_clean_linker_0, # of connection points: 2
#     Edge 24, Type (0, 0), BuildingBlock: UVAHIK_clean_linker_0, # of connection points: 2
#     Edge 25, Type (0, 0), BuildingBlock: UVAHIK_clean_linker_0, # of connection points: 2
#     Edge 26, Type (0, 0), BuildingBlock: UVAHIK_clean_linker_0, # of connection points: 2
#     Edge 27, Type (0, 0), BuildingBlock: UVAHIK_clean_linker_0, # of connection points: 2
#     Edge 28, Type (0, 0), BuildingBlock: UVAHIK_clean_linker_0, # of connection points: 2
#     Edge 29, Type (0, 0), BuildingBlock: UVAHIK_clean_linker_0, # of connection points: 2
#     Edge 30, Type (0, 0), BuildingBlock: UVAHIK_clean_linker_0, # of connection points: 2
#     Edge 31, Type (0, 0), BuildingBlock: UVAHIK_clean_linker_0, # of connection points: 2
#     Edge 32, Type (0, 0), BuildingBlock: UVAHIK_clean_linker_0, # of connection points: 2
#     Edge 33, Type (0, 0), BuildingBlock: UVAHIK_clean_linker_0, # of connection points: 2
#     Edge 34, Type (0, 0), BuildingBlock: UVAHIK_clean_linker_0, # of connection points: 2
#     Edge 35, Type (0, 0), BuildingBlock: UVAHIK_clean_linker_0, # of connection points: 2
#     Edge 36, Type (0, 0), BuildingBlock: UVAHIK_clean_linker_0, # of connection points: 2
#     Edge 37, Type (0, 0), BuildingBlock: UVAHIK_clean_linker_0, # of connection points: 2
#     Edge 38, Type (0, 0), BuildingBlock: UVAHIK_clean_linker_0, # of connection points: 2
#     Edge 39, Type (0, 0), BuildingBlock: UVAHIK_clean_linker_0, # of connection points: 2
#     Edge 40, Type (0, 0), BuildingBlock: UVAHIK_clean_linker_0, # of connection points: 2
#     Edge 41, Type (0, 0), BuildingBlock: UVAHIK_clean_linker_0, # of connection points: 2
#     Edge 42, Type (0, 0), BuildingBlock: UVAHIK_clean_linker_0, # of connection points: 2
#     Edge 43, Type (0, 0), BuildingBlock: UVAHIK_clean_linker_0, # of connection points: 2
#     Edge 44, Type (0, 0), BuildingBlock: UVAHIK_clean_linker_0, # of connection points: 2
#     Edge 45, Type (0, 0), BuildingBlock: UVAHIK_clean_linker_0, # of connection points: 2
#     Edge 46, Type (0, 0), BuildingBlock: UVAHIK_clean_linker_0, # of connection points: 2
#     Edge 47, Type (0, 0), BuildingBlock: UVAHIK_clean_linker_0, # of connection points: 2
# Relax obj value: 0.126
# Max RMSD: 0.120
# Mean RMSD: 0.120
data_MOF--net-tzs--node1-CEKHIL_clean_sbu_0--edge1-UVAHIK_clean_linker_0
_symmetry_space_group_name_H-M    P1
_symmetry_Int_Tables_number       1
_symmetry_cell_setting            triclinic
loop_
_symmetry_equiv_pos_as_xyz
'x, y, z'
_cell_length_a     62.193001
_cell_length_b     62.206236
_cell_length_c     50.736033
_cell_angle_alpha  90.011098
_cell_angle_beta   89.964664
_cell_angle_gamma 89.986107
loop_
_atom_site_label
_atom_site_type_symbol
_atom_site_fract_x
_atom_site_fract_y
_atom_site_fract_z
_atom_type_partial_charge
Co0 Co 0.14723 0.34715 0.19061 0.0
O1 O 0.15544 0.31748 0.1947 0.0
O2 O 0.17606 0.34529 0.20476 0.0
C3 C 0.11404 0.3437 0.20809 0.0
O4 O 0.14402 0.3799 0.19087 0.0
Co5 Co 0.10838 0.3608 0.15569 0.0
O6 O 0.1116 0.38862 0.17445 0.0
C7 C 0.14789 0.34329 0.13171 0.0
C8 C 0.17361 0.32454 0.20387 0.0
C9 C 0.12881 0.39358 0.18668 0.0
O10 O 0.15849 0.34678 0.15311 0.0
O11 O 0.12751 0.34572 0.12984 0.0
O12 O 0.13058 0.34588 0.22356 0.0
O13 O 0.11839 0.34202 0.18339 0.0
Co14 Co 0.65473 0.1448 0.19195 0.0
O15 O 0.6846 0.15247 0.1954 0.0
O16 O 0.6573 0.17373 0.20561 0.0
C17 C 0.65772 0.11179 0.20988 0.0
O18 O 0.6219 0.14216 0.19285 0.0
Co19 Co 0.64007 0.10598 0.15761 0.0
O20 O 0.61283 0.10946 0.17758 0.0
C21 C 0.65822 0.14485 0.13303 0.0
C22 C 0.67799 0.17087 0.20436 0.0
C23 C 0.60817 0.12685 0.18962 0.0
O24 O 0.65497 0.15567 0.15432 0.0
O25 O 0.65538 0.12453 0.13132 0.0
O26 O 0.65606 0.12854 0.22511 0.0
O27 O 0.65923 0.1158 0.18507 0.0
Co28 Co 0.85537 0.65338 0.19111 0.0
O29 O 0.84706 0.68329 0.19259 0.0
O30 O 0.82725 0.65606 0.20681 0.0
C31 C 0.88914 0.65777 0.20632 0.0
O32 O 0.85844 0.62081 0.19463 0.0
Co33 Co 0.89264 0.63665 0.15575 0.0
O34 O 0.88871 0.60919 0.17506 0.0
C35 C 0.8527 0.65347 0.1323 0.0
C36 C 0.82938 0.67668 0.20361 0.0
C37 C 0.87224 0.60593 0.18948 0.0
O38 O 0.84275 0.65131 0.15442 0.0
O39 O 0.87297 0.6507 0.12965 0.0
O40 O 0.87311 0.65681 0.22278 0.0
O41 O 0.88403 0.65777 0.18173 0.0
Co42 Co 0.34926 0.8538 0.19373 0.0
O43 O 0.31939 0.8458 0.19673 0.0
O44 O 0.34678 0.82542 0.209 0.0
C45 C 0.34539 0.88747 0.20962 0.0
O46 O 0.38201 0.85684 0.19558 0.0
Co47 Co 0.3646 0.89155 0.15805 0.0
O48 O 0.39137 0.88906 0.17913 0.0
C49 C 0.34798 0.85143 0.13468 0.0
C50 C 0.32608 0.8279 0.20704 0.0
C51 C 0.39579 0.87206 0.19208 0.0
O52 O 0.35012 0.84147 0.15679 0.0
O53 O 0.35087 0.87167 0.13195 0.0
O54 O 0.34692 0.87133 0.22583 0.0
O55 O 0.34459 0.8825 0.18501 0.0
Co56 Co 0.14263 0.6508 0.30847 0.0
O57 O 0.15108 0.68068 0.3084 0.0
O58 O 0.17197 0.65359 0.29638 0.0
C59 C 0.11023 0.6561 0.2895 0.0
O60 O 0.13971 0.61817 0.30388 0.0
Co61 Co 0.1022 0.63343 0.33768 0.0
O62 O 0.10594 0.60842 0.314 0.0
C63 C 0.14112 0.64595 0.36784 0.0
C64 C 0.16955 0.6742 0.29943 0.0
C65 C 0.12415 0.60446 0.30359 0.0
O66 O 0.15225 0.64811 0.34653 0.0
O67 O 0.121 0.64158 0.36796 0.0
O68 O 0.12739 0.65492 0.27489 0.0
O69 O 0.11345 0.65537 0.31453 0.0
Co70 Co 0.35143 0.14254 0.30736 0.0
O71 O 0.32159 0.15033 0.30344 0.0
O72 O 0.34911 0.17152 0.29391 0.0
C73 C 0.34852 0.10953 0.28929 0.0
O74 O 0.38423 0.14002 0.30695 0.0
Co75 Co 0.36611 0.10369 0.34153 0.0
O76 O 0.39378 0.10758 0.32256 0.0
C77 C 0.3469 0.14213 0.366 0.0
C78 C 0.3284 0.16878 0.29485 0.0
C79 C 0.39826 0.12504 0.31061 0.0
O80 O 0.35071 0.1532 0.34506 0.0
O81 O 0.34983 0.1218 0.36743 0.0
O82 O 0.3504 0.1263 0.2741 0.0
O83 O 0.3469 0.11353 0.31409 0.0
Co84 Co 0.85938 0.34963 0.30767 0.0
O85 O 0.85226 0.31954 0.30415 0.0
O86 O 0.83064 0.34655 0.29385 0.0
C87 C 0.89261 0.34746 0.2901 0.0
O88 O 0.86102 0.38242 0.30656 0.0
Co89 Co 0.89733 0.36604 0.34204 0.0
O90 O 0.8918 0.39412 0.32478 0.0
C91 C 0.8591 0.34647 0.36659 0.0
C92 C 0.83377 0.32592 0.2951 0.0
C93 C 0.87461 0.39747 0.31174 0.0
O94 O 0.84829 0.34926 0.3452 0.0
O95 O 0.87932 0.35005 0.36825 0.0
O96 O 0.87591 0.34857 0.2747 0.0
O97 O 0.8885 0.34602 0.31491 0.0
Co98 Co 0.65246 0.85757 0.31035 0.0
O99 O 0.68227 0.84929 0.30738 0.0
O100 O 0.65461 0.82897 0.29573 0.0
C101 C 0.6563 0.89084 0.2934 0.0
O102 O 0.61972 0.86067 0.30891 0.0
Co103 Co 0.63758 0.89603 0.34513 0.0
O104 O 0.61028 0.89291 0.32524 0.0
C105 C 0.65523 0.85663 0.36915 0.0
C106 C 0.67533 0.83127 0.29761 0.0
C107 C 0.60581 0.87573 0.31269 0.0
O108 O 0.65204 0.84607 0.34766 0.0
O109 O 0.65256 0.87696 0.37116 0.0
O110 O 0.65456 0.87439 0.2777 0.0
O111 O 0.65732 0.88639 0.31814 0.0
Co112 Co 0.8502 0.64515 0.8055 0.0
O113 O 0.82038 0.65382 0.80587 0.0
O114 O 0.84732 0.67409 0.79199 0.0
C115 C 0.8443 0.61219 0.78827 0.0
O116 O 0.88276 0.64173 0.80017 0.0
Co117 Co 0.86772 0.6055 0.83619 0.0
O118 O 0.89198 0.608 0.81115 0.0
C119 C 0.85728 0.64584 0.86467 0.0
C120 C 0.82676 0.6719 0.79572 0.0
C121 C 0.89612 0.62585 0.79996 0.0
O122 O 0.85375 0.65604 0.84296 0.0
O123 O 0.86188 0.62581 0.8658 0.0
O124 O 0.84534 0.62886 0.77283 0.0
O125 O 0.84548 0.61621 0.8131 0.0
Co126 Co 0.35607 0.85188 0.80902 0.0
O127 O 0.3476 0.82202 0.80942 0.0
O128 O 0.32736 0.84877 0.7949 0.0
C129 C 0.38931 0.84603 0.79264 0.0
O130 O 0.35931 0.8844 0.80348 0.0
Co131 Co 0.3951 0.86995 0.84034 0.0
O132 O 0.39288 0.8939 0.81483 0.0
C133 C 0.35452 0.85908 0.86808 0.0
C134 C 0.32963 0.82824 0.79885 0.0
C135 C 0.37513 0.89781 0.80328 0.0
O136 O 0.3446 0.8555 0.84618 0.0
O137 O 0.3745 0.86386 0.86957 0.0
O138 O 0.3729 0.84693 0.77678 0.0
O139 O 0.3849 0.84739 0.81736 0.0
Co140 Co 0.15051 0.35678 0.80667 0.0
O141 O 0.18044 0.34849 0.80733 0.0
O142 O 0.15381 0.32779 0.79353 0.0
C143 C 0.15605 0.38969 0.78914 0.0
O144 O 0.11795 0.35972 0.80102 0.0
Co145 Co 0.13223 0.39637 0.8368 0.0
O146 O 0.10836 0.3935 0.81129 0.0
C147 C 0.14371 0.35662 0.86586 0.0
C148 C 0.17432 0.33024 0.79739 0.0
C149 C 0.10452 0.37552 0.80026 0.0
O150 O 0.14697 0.34617 0.84424 0.0
O151 O 0.13895 0.37663 0.86667 0.0
O152 O 0.15537 0.3729 0.77385 0.0
O153 O 0.15477 0.38582 0.814 0.0
Co154 Co 0.64402 0.15329 0.80946 0.0
O155 O 0.65179 0.18318 0.80609 0.0
O156 O 0.67303 0.15582 0.79606 0.0
C157 C 0.61107 0.15644 0.79128 0.0
O158 O 0.6415 0.12047 0.80837 0.0
Co159 Co 0.60491 0.13813 0.84295 0.0
O160 O 0.60887 0.11084 0.82331 0.0
C161 C 0.64349 0.15629 0.86848 0.0
C162 C 0.67022 0.17651 0.79722 0.0
C163 C 0.62644 0.10646 0.81151 0.0
O164 O 0.65457 0.15345 0.84726 0.0
O165 O 0.62318 0.15313 0.86973 0.0
O166 O 0.6279 0.15474 0.77615 0.0
O167 O 0.61497 0.15775 0.81612 0.0
Co168 Co 0.84699 0.35762 0.6879 0.0
O169 O 0.8172 0.35008 0.69293 0.0
O170 O 0.84478 0.32887 0.70214 0.0
C171 C 0.84472 0.39091 0.70533 0.0
O172 O 0.8798 0.35999 0.68717 0.0
Co173 Co 0.8609 0.39586 0.65218 0.0
O174 O 0.8892 0.39179 0.66957 0.0
C175 C 0.84169 0.35688 0.62924 0.0
C176 C 0.82407 0.33173 0.70181 0.0
C177 C 0.89389 0.37462 0.68201 0.0
O178 O 0.8456 0.34629 0.65053 0.0
O179 O 0.8445 0.37717 0.62708 0.0
O180 O 0.84674 0.37433 0.72079 0.0
O181 O 0.84246 0.38659 0.68068 0.0
Co182 Co 0.64378 0.84963 0.69292 0.0
O183 O 0.65167 0.81975 0.69612 0.0
O184 O 0.6729 0.84713 0.70598 0.0
C185 C 0.61093 0.84631 0.71141 0.0
O186 O 0.64112 0.88248 0.69413 0.0
Co187 Co 0.6043 0.86476 0.66001 0.0
O188 O 0.60808 0.89177 0.68025 0.0
C189 C 0.64277 0.84681 0.63388 0.0
C190 C 0.67015 0.82643 0.70479 0.0
C191 C 0.62578 0.89629 0.69164 0.0
O192 O 0.65404 0.84956 0.65496 0.0
O193 O 0.62246 0.85001 0.63293 0.0
O194 O 0.62783 0.84803 0.7264 0.0
O195 O 0.61472 0.8451 0.68654 0.0
Co196 Co 0.15513 0.64457 0.69044 0.0
O197 O 0.18483 0.65259 0.6952 0.0
O198 O 0.15698 0.67334 0.70476 0.0
C199 C 0.15821 0.61128 0.70771 0.0
O200 O 0.12234 0.64167 0.69011 0.0
Co201 Co 0.1414 0.60598 0.65518 0.0
O202 O 0.11334 0.60947 0.67331 0.0
C203 C 0.15982 0.64528 0.63167 0.0
C204 C 0.17773 0.67078 0.70426 0.0
C205 C 0.10848 0.62671 0.68555 0.0
O206 O 0.15611 0.65591 0.65302 0.0
O207 O 0.1571 0.62494 0.62974 0.0
O208 O 0.1559 0.62775 0.72329 0.0
O209 O 0.16013 0.61573 0.68308 0.0
Co210 Co 0.35725 0.15489 0.68861 0.0
O211 O 0.34937 0.18467 0.69328 0.0
O212 O 0.32836 0.15696 0.70252 0.0
C213 C 0.39036 0.15755 0.70647 0.0
O214 O 0.35991 0.12209 0.68835 0.0
Co215 Co 0.39608 0.14084 0.65387 0.0
O216 O 0.39224 0.11287 0.67205 0.0
C217 C 0.35701 0.15904 0.62961 0.0
C218 C 0.33107 0.17769 0.70217 0.0
C219 C 0.37485 0.10814 0.68405 0.0
O220 O 0.34628 0.15585 0.65102 0.0
O221 O 0.37734 0.15613 0.62785 0.0
O222 O 0.37364 0.15553 0.72172 0.0
O223 O 0.38627 0.15959 0.68175 0.0
C224 C 0.29125 0.18105 0.2835 0.0
C225 C 0.3132 0.18575 0.28639 0.0
C226 C 0.27681 0.1969 0.27527 0.0
C227 C 0.27421 0.25023 0.24225 0.0
H228 H 0.21622 0.25004 0.27036 0.0
C229 C 0.21098 0.31696 0.22027 0.0
C230 C 0.1904 0.30954 0.21334 0.0
C231 C 0.2266 0.30264 0.22962 0.0
C232 C 0.23233 0.25023 0.26223 0.0
H233 H 0.33722 0.21085 0.28319 0.0
H234 H 0.31194 0.23873 0.26952 0.0
H235 H 0.24228 0.22394 0.28642 0.0
H236 H 0.17008 0.28127 0.21074 0.0
H237 H 0.19721 0.25641 0.22725 0.0
H238 H 0.26413 0.27682 0.21832 0.0
C239 C 0.30591 0.22265 0.27302 0.0
C240 C 0.24728 0.2352 0.27135 0.0
C241 C 0.3204 0.20671 0.28102 0.0
C242 C 0.18578 0.28752 0.21592 0.0
C243 C 0.20127 0.27328 0.22552 0.0
C244 C 0.25928 0.26543 0.23333 0.0
C245 C 0.2839 0.21795 0.27001 0.0
C246 C 0.26835 0.23477 0.26122 0.0
C247 C 0.22183 0.28067 0.23255 0.0
C248 C 0.2381 0.26539 0.24297 0.0
H249 H 0.2852 0.16502 0.28729 0.0
H250 H 0.2601 0.19249 0.27267 0.0
H251 H 0.29018 0.25027 0.23373 0.0
H252 H 0.21503 0.33384 0.21849 0.0
H253 H 0.24229 0.30879 0.23501 0.0
C254 C 0.79629 0.3174 0.28018 0.0
C255 C 0.81722 0.31042 0.28623 0.0
C256 C 0.78078 0.30279 0.27133 0.0
C257 C 0.77519 0.25068 0.23819 0.0
H258 H 0.71776 0.25025 0.26797 0.0
C259 C 0.71539 0.18254 0.21534 0.0
C260 C 0.69344 0.18753 0.21307 0.0
C261 C 0.73009 0.19799 0.22393 0.0
C262 C 0.7336 0.25034 0.25911 0.0
H263 H 0.83827 0.28266 0.28781 0.0
H264 H 0.81126 0.25722 0.27208 0.0
H265 H 0.74407 0.27641 0.28362 0.0
H266 H 0.66971 0.21275 0.21778 0.0
H267 H 0.69545 0.23998 0.23211 0.0
H268 H 0.7648 0.22496 0.21336 0.0
C269 C 0.80687 0.27399 0.27417 0.0
C270 C 0.7487 0.2653 0.26818 0.0
C271 C 0.8223 0.28854 0.28331 0.0
C272 C 0.68651 0.20839 0.21943 0.0
C273 C 0.70128 0.22396 0.22781 0.0
C274 C 0.76006 0.23589 0.22893 0.0
C275 C 0.78596 0.28096 0.26803 0.0
C276 C 0.76971 0.26549 0.25799 0.0
C277 C 0.72328 0.21895 0.23023 0.0
C278 C 0.73911 0.23535 0.23943 0.0
H279 H 0.79188 0.33416 0.28225 0.0
H280 H 0.76484 0.30864 0.26659 0.0
H281 H 0.79116 0.25067 0.22965 0.0
H282 H 0.72123 0.16656 0.21078 0.0
H283 H 0.74678 0.19335 0.22603 0.0
C284 C 0.81225 0.71313 0.20311 0.0
C285 C 0.81265 0.69191 0.21259 0.0
C286 C 0.79662 0.72761 0.21197 0.0
C287 C 0.76259 0.73983 0.26818 0.0
H288 H 0.72799 0.77275 0.21899 0.0
C289 C 0.71187 0.81444 0.29719 0.0
C290 C 0.69039 0.81439 0.28863 0.0
C291 C 0.72627 0.79877 0.28828 0.0
C292 C 0.73751 0.7636 0.23291 0.0
H293 H 0.7971 0.66924 0.23886 0.0
H294 H 0.77013 0.69476 0.25486 0.0
H295 H 0.75433 0.74675 0.20228 0.0
H296 H 0.66714 0.79799 0.26396 0.0
H297 H 0.69255 0.7709 0.24783 0.0
H298 H 0.74614 0.75705 0.29879 0.0
C299 C 0.78179 0.70007 0.24039 0.0
C300 C 0.75262 0.74886 0.22338 0.0
C301 C 0.79715 0.68547 0.23114 0.0
C302 C 0.68359 0.79838 0.27096 0.0
C303 C 0.69811 0.78296 0.26164 0.0
C304 C 0.74778 0.75488 0.2777 0.0
C305 C 0.78137 0.72127 0.23087 0.0
C306 C 0.76526 0.73681 0.24093 0.0
C307 C 0.71958 0.78301 0.27023 0.0
C308 C 0.73507 0.76686 0.26016 0.0
H309 H 0.82398 0.71853 0.18877 0.0
H310 H 0.7967 0.74391 0.20444 0.0
H311 H 0.77223 0.73082 0.2821 0.0
H312 H 0.71755 0.82656 0.31084 0.0
H313 H 0.74277 0.79922 0.29509 0.0
C314 C 0.31788 0.79082 0.2239 0.0
C315 C 0.31076 0.81145 0.21668 0.0
C316 C 0.30332 0.77551 0.23346 0.0
C317 C 0.25111 0.77058 0.26658 0.0
H318 H 0.25026 0.7127 0.23826 0.0
C319 C 0.18209 0.71169 0.29017 0.0
C320 C 0.18666 0.68963 0.29204 0.0
C321 C 0.19787 0.72621 0.28192 0.0
C322 C 0.25047 0.72866 0.24678 0.0
H323 H 0.28281 0.83217 0.21383 0.0
H324 H 0.25752 0.80556 0.23083 0.0
H325 H 0.27676 0.73846 0.22215 0.0
H326 H 0.21156 0.66556 0.28732 0.0
H327 H 0.23934 0.69094 0.27379 0.0
H328 H 0.2252 0.76087 0.29155 0.0
C329 C 0.27434 0.80123 0.22908 0.0
C330 C 0.26563 0.74345 0.23741 0.0
C331 C 0.28881 0.81642 0.2192 0.0
C332 C 0.2075 0.68245 0.28594 0.0
C333 C 0.22339 0.69702 0.27798 0.0
C334 C 0.23614 0.75575 0.27618 0.0
C335 C 0.28143 0.78062 0.23636 0.0
C336 C 0.26595 0.76462 0.24701 0.0
C337 C 0.21876 0.71911 0.27562 0.0
C338 C 0.23542 0.73463 0.26622 0.0
H339 H 0.3347 0.78651 0.22217 0.0
H340 H 0.30925 0.75978 0.23904 0.0
H341 H 0.25119 0.78671 0.27463 0.0
H342 H 0.16614 0.71772 0.29453 0.0
H343 H 0.19349 0.74298 0.27992 0.0
C344 C 0.68195 0.78927 0.71694 0.0
C345 C 0.68697 0.8111 0.71344 0.0
C346 C 0.69755 0.77477 0.72573 0.0
C347 C 0.75105 0.7722 0.75882 0.0
H348 H 0.74975 0.7134 0.73347 0.0
C349 C 0.81826 0.7092 0.77978 0.0
C350 C 0.81119 0.68872 0.78767 0.0
C351 C 0.80352 0.72469 0.77107 0.0
C352 C 0.75023 0.72973 0.74086 0.0
H353 H 0.7124 0.83479 0.71608 0.0
H354 H 0.73988 0.80938 0.73058 0.0
H355 H 0.72377 0.73928 0.71673 0.0
H356 H 0.78309 0.6685 0.79281 0.0
H357 H 0.75747 0.6954 0.77732 0.0
H358 H 0.77795 0.76253 0.78252 0.0
C359 C 0.72373 0.8035 0.72721 0.0
C360 C 0.73526 0.7446 0.73135 0.0
C361 C 0.70802 0.81808 0.7187 0.0
C362 C 0.78907 0.68413 0.78689 0.0
C363 C 0.7744 0.69948 0.77787 0.0
C364 C 0.76622 0.75735 0.76808 0.0
C365 C 0.7187 0.78163 0.73094 0.0
C366 C 0.73528 0.76601 0.74038 0.0
C367 C 0.78145 0.71989 0.76971 0.0
C368 C 0.76582 0.7359 0.75939 0.0
H369 H 0.66583 0.7834 0.71328 0.0
H370 H 0.69285 0.75821 0.72886 0.0
H371 H 0.75145 0.7884 0.76658 0.0
H372 H 0.8352 0.71323 0.78016 0.0
H373 H 0.80943 0.74024 0.76479 0.0
C374 C 0.21448 0.68276 0.71779 0.0
C375 C 0.19266 0.6876 0.71384 0.0
C376 C 0.22867 0.69842 0.72713 0.0
C377 C 0.23034 0.75173 0.76071 0.0
H378 H 0.2893 0.75126 0.73581 0.0
C379 C 0.29252 0.81949 0.7825 0.0
C380 C 0.313 0.81257 0.79062 0.0
C381 C 0.27722 0.80465 0.77361 0.0
C382 C 0.27292 0.7515 0.74308 0.0
H383 H 0.16863 0.71274 0.71637 0.0
H384 H 0.19351 0.74033 0.73185 0.0
H385 H 0.26383 0.72508 0.71862 0.0
H386 H 0.3334 0.78463 0.79598 0.0
H387 H 0.30682 0.75882 0.78014 0.0
H388 H 0.23955 0.7786 0.78473 0.0
C389 C 0.19962 0.72428 0.72838 0.0
C390 C 0.25829 0.73643 0.73332 0.0
C391 C 0.18535 0.7085 0.71932 0.0
C392 C 0.31778 0.79049 0.78989 0.0
C393 C 0.30261 0.77571 0.78068 0.0
C394 C 0.24495 0.767 0.77023 0.0
C395 C 0.2215 0.71945 0.73244 0.0
C396 C 0.23684 0.73614 0.74219 0.0
C397 C 0.28222 0.78263 0.77229 0.0
C398 C 0.26645 0.7669 0.76171 0.0
H399 H 0.22059 0.66675 0.71399 0.0
H400 H 0.24525 0.69388 0.73052 0.0
H401 H 0.21408 0.75188 0.76833 0.0
H402 H 0.28836 0.8364 0.78285 0.0
H403 H 0.26167 0.81044 0.76716 0.0
C404 C 0.21215 0.31822 0.78903 0.0
C405 C 0.19008 0.31347 0.78978 0.0
C406 C 0.227 0.30282 0.78051 0.0
C407 C 0.2307 0.25165 0.74253 0.0
H408 H 0.28804 0.25007 0.77244 0.0
C409 C 0.29354 0.18535 0.71792 0.0
C410 C 0.31439 0.19267 0.71207 0.0
C411 C 0.27798 0.19953 0.72777 0.0
C412 C 0.27211 0.25041 0.7638 0.0
H413 H 0.16632 0.28864 0.78284 0.0
H414 H 0.19225 0.26151 0.76881 0.0
H415 H 0.26163 0.27531 0.78985 0.0
H416 H 0.33526 0.22059 0.712 0.0
H417 H 0.30821 0.24523 0.72945 0.0
H418 H 0.24125 0.2264 0.7168 0.0
C419 C 0.19811 0.27732 0.77409 0.0
C420 C 0.25696 0.26494 0.7737 0.0
C421 C 0.18322 0.29283 0.78234 0.0
C422 C 0.31934 0.21445 0.71627 0.0
C423 C 0.3039 0.22854 0.72642 0.0
C424 C 0.2458 0.23693 0.73286 0.0
C425 C 0.22021 0.28216 0.77281 0.0
C426 C 0.23609 0.26595 0.76303 0.0
C427 C 0.28305 0.22125 0.73231 0.0
C428 C 0.26674 0.2363 0.7432 0.0
H429 H 0.21795 0.33402 0.79445 0.0
H430 H 0.24378 0.30736 0.77939 0.0
H431 H 0.21495 0.25213 0.73346 0.0
H432 H 0.28923 0.16866 0.7149 0.0
H433 H 0.26209 0.19343 0.73226 0.0
C434 C 0.70767 0.18472 0.78156 0.0
C435 C 0.68689 0.19184 0.78816 0.0
C436 C 0.72313 0.19925 0.7723 0.0
C437 C 0.72816 0.25137 0.73893 0.0
H438 H 0.78618 0.25196 0.7668 0.0
C439 C 0.78702 0.31994 0.71443 0.0
C440 C 0.80892 0.31506 0.71126 0.0
C441 C 0.77262 0.30439 0.72356 0.0
C442 C 0.77016 0.25183 0.75848 0.0
H443 H 0.6661 0.21978 0.79037 0.0
H444 H 0.69297 0.24501 0.77399 0.0
H445 H 0.76031 0.22561 0.78317 0.0
H446 H 0.83288 0.28995 0.71501 0.0
H447 H 0.80766 0.26257 0.73028 0.0
H448 H 0.7379 0.27724 0.71394 0.0
C449 C 0.6973 0.22822 0.77592 0.0
C450 C 0.75532 0.23675 0.76795 0.0
C451 C 0.68195 0.21377 0.78545 0.0
C452 C 0.81611 0.29423 0.71734 0.0
C453 C 0.80165 0.27857 0.72626 0.0
C454 C 0.74301 0.26628 0.72928 0.0
C455 C 0.71803 0.22112 0.76913 0.0
C456 C 0.7341 0.23653 0.75848 0.0
C457 C 0.77969 0.28344 0.7295 0.0
C458 C 0.76416 0.2669 0.73911 0.0
H459 H 0.71197 0.16792 0.78346 0.0
H460 H 0.73894 0.1933 0.76708 0.0
H461 H 0.71202 0.25135 0.73092 0.0
H462 H 0.78098 0.33589 0.71011 0.0
H463 H 0.75596 0.30893 0.72629 0.0
C464 C 0.13474 0.35342 0.91321 0.0
C465 C 0.14684 0.34608 0.89164 0.0
C466 C 0.14087 0.34842 0.93884 0.0
C467 C 0.16982 0.31391 0.983 0.0
H468 H 0.1743 0.36631 0.02421 0.0
C469 C 0.14983 0.32039 0.09197 0.0
C470 C 0.1591 0.33658 0.10751 0.0
C471 C 0.15645 0.31729 0.066 0.0
C472 C 0.17374 0.3515 0.013 0.0
H473 H 0.17385 0.32627 0.87984 0.0
H474 H 0.18448 0.31711 0.92529 0.0
H475 H 0.16844 0.36846 0.97694 0.0
H476 H 0.18375 0.36107 0.10908 0.0
H477 H 0.19532 0.35587 0.06321 0.0
H478 H 0.17396 0.29694 0.01947 0.0
C479 C 0.17034 0.32693 0.92205 0.0
C480 C 0.17012 0.35275 0.98594 0.0
C481 C 0.16417 0.33201 0.89614 0.0
C482 C 0.17644 0.34842 0.09744 0.0
C483 C 0.18293 0.34552 0.0712 0.0
C484 C 0.17331 0.31263 0.01026 0.0
C485 C 0.15924 0.33593 0.94354 0.0
C486 C 0.16726 0.33402 0.9709 0.0
C487 C 0.1723 0.33056 0.05487 0.0
C488 C 0.17445 0.33144 0.0257 0.0
H489 H 0.12117 0.3641 0.91032 0.0
H490 H 0.13177 0.35514 0.95509 0.0
H491 H 0.16777 0.29926 0.97174 0.0
H492 H 0.13645 0.31101 0.0994 0.0
H493 H 0.14778 0.30577 0.05404 0.0
C494 C 0.64231 0.17594 0.91101 0.0
C495 C 0.65408 0.1634 0.89304 0.0
C496 C 0.65032 0.18016 0.93609 0.0
C497 C 0.68303 0.1536 0.98498 0.0
H498 H 0.66901 0.20405 0.02657 0.0
C499 C 0.6845 0.14786 0.0967 0.0
C500 C 0.66594 0.1557 0.10911 0.0
C501 C 0.6896 0.15416 0.07107 0.0
C502 C 0.67307 0.18986 0.01525 0.0
H503 H 0.68414 0.14669 0.88651 0.0
H504 H 0.69821 0.15381 0.93093 0.0
H505 H 0.66694 0.2057 0.9785 0.0
H506 H 0.63873 0.1771 0.10541 0.0
H507 H 0.64711 0.18769 0.06008 0.0
H508 H 0.68789 0.13729 0.02141 0.0
C509 C 0.6827 0.16034 0.92545 0.0
C510 C 0.67198 0.19083 0.98772 0.0
C511 C 0.67473 0.15633 0.90004 0.0
C512 C 0.65326 0.17106 0.09623 0.0
C513 C 0.65814 0.17711 0.07029 0.0
C514 C 0.68404 0.15261 0.01243 0.0
C515 C 0.67025 0.17178 0.94398 0.0
C516 C 0.67621 0.17247 0.97233 0.0
C517 C 0.6759 0.16801 0.05703 0.0
C518 C 0.6784 0.1705 0.02797 0.0
H519 H 0.62643 0.18184 0.90601 0.0
H520 H 0.64019 0.18881 0.94986 0.0
H521 H 0.68608 0.13908 0.97381 0.0
H522 H 0.69454 0.13603 0.10641 0.0
H523 H 0.70369 0.14728 0.06178 0.0
C524 C 0.86917 0.65141 0.91058 0.0
C525 C 0.85483 0.65674 0.89028 0.0
C526 C 0.86393 0.65563 0.93674 0.0
C527 C 0.83054 0.68402 0.98388 0.0
H528 H 0.83619 0.63073 0.02308 0.0
C529 C 0.84766 0.67777 0.0944 0.0
C530 C 0.84093 0.6595 0.10834 0.0
C531 C 0.84182 0.68063 0.0681 0.0
C532 C 0.83399 0.64567 0.01244 0.0
H533 H 0.8246 0.67228 0.88106 0.0
H534 H 0.81541 0.67993 0.92736 0.0
H535 H 0.84276 0.63099 0.97591 0.0
H536 H 0.8216 0.63066 0.10669 0.0
H537 H 0.81131 0.63552 0.06038 0.0
H538 H 0.82265 0.69885 0.02089 0.0
C539 C 0.8307 0.67245 0.92281 0.0
C540 C 0.83807 0.64585 0.98544 0.0
C541 C 0.83601 0.66824 0.89639 0.0
C542 C 0.82675 0.645 0.09634 0.0
C543 C 0.82105 0.64771 0.06983 0.0
C544 C 0.82664 0.68389 0.01113 0.0
C545 C 0.84417 0.66517 0.94319 0.0
C546 C 0.83705 0.66511 0.97105 0.0
C547 C 0.82941 0.66502 0.05509 0.0
C548 C 0.82889 0.66478 0.0258 0.0
H549 H 0.88382 0.64261 0.90634 0.0
H550 H 0.8748 0.65028 0.95209 0.0
H551 H 0.82952 0.69903 0.97314 0.0
H552 H 0.85877 0.68906 0.10331 0.0
H553 H 0.84869 0.69402 0.05736 0.0
C554 C 0.3563 0.8256 0.09853 0.0
C555 C 0.34179 0.83966 0.11078 0.0
C556 C 0.35342 0.81997 0.07202 0.0
C557 C 0.31688 0.82581 0.01369 0.0
H558 H 0.36949 0.84271 0.97833 0.0
C559 C 0.33223 0.83708 0.89908 0.0
C560 C 0.34342 0.85618 0.89348 0.0
C561 C 0.32807 0.83126 0.92534 0.0
C562 C 0.35471 0.83778 0.98791 0.0
H563 H 0.31207 0.85732 0.10621 0.0
H564 H 0.30684 0.84737 0.06026 0.0
H565 H 0.37006 0.83549 0.02535 0.0
H566 H 0.35698 0.88515 0.91031 0.0
H567 H 0.3494 0.87524 0.9558 0.0
H568 H 0.3015 0.82914 0.97591 0.0
C569 C 0.32035 0.84053 0.0708 0.0
C570 C 0.35508 0.83334 0.01481 0.0
C571 C 0.32335 0.8463 0.09711 0.0
C572 C 0.34841 0.8703 0.91415 0.0
C573 C 0.34425 0.86456 0.94016 0.0
C574 C 0.31657 0.83008 0.98654 0.0
C575 C 0.33596 0.82829 0.05754 0.0
C576 C 0.33606 0.82799 0.02824 0.0
C577 C 0.33508 0.84452 0.94607 0.0
C578 C 0.33536 0.83689 0.9737 0.0
H579 H 0.37075 0.82052 0.10868 0.0
H580 H 0.36562 0.81035 0.06236 0.0
H581 H 0.30199 0.82162 0.0235 0.0
H582 H 0.32846 0.82583 0.88345 0.0
H583 H 0.32088 0.81576 0.92948 0.0
C584 C 0.18127 0.64571 0.59055 0.0
C585 C 0.16705 0.65642 0.60759 0.0
C586 C 0.18473 0.65321 0.56505 0.0
C587 C 0.15269 0.67915 0.51516 0.0
H588 H 0.20171 0.66436 0.47134 0.0
C589 C 0.14138 0.64052 0.41626 0.0
C590 C 0.15108 0.64969 0.39392 0.0
C591 C 0.14735 0.64692 0.44144 0.0
C592 C 0.18804 0.669 0.48328 0.0
H593 H 0.14686 0.68449 0.61232 0.0
H594 H 0.15277 0.69771 0.56729 0.0
H595 H 0.20645 0.66885 0.519 0.0
H596 H 0.1758 0.67172 0.38054 0.0
H597 H 0.18669 0.68271 0.42531 0.0
H598 H 0.13409 0.67814 0.47976 0.0
C599 C 0.16116 0.68339 0.57371 0.0
C600 C 0.19068 0.67147 0.51055 0.0
C601 C 0.15784 0.67592 0.5995 0.0
C602 C 0.16808 0.66435 0.39741 0.0
C603 C 0.17419 0.67075 0.42292 0.0
C604 C 0.15008 0.67665 0.48805 0.0
C605 C 0.1739 0.67155 0.55585 0.0
C606 C 0.1728 0.67547 0.52694 0.0
C607 C 0.16325 0.66262 0.44505 0.0
C608 C 0.16748 0.67048 0.47209 0.0
H609 H 0.18877 0.63074 0.59645 0.0
H610 H 0.19449 0.64353 0.55193 0.0
H611 H 0.13853 0.68209 0.52705 0.0
H612 H 0.12849 0.62891 0.41429 0.0
H613 H 0.1391 0.63995 0.45821 0.0
C614 C 0.32582 0.15741 0.59819 0.0
C615 C 0.34594 0.16583 0.60528 0.0
C616 C 0.31783 0.16062 0.57264 0.0
C617 C 0.32745 0.19033 0.50954 0.0
H618 H 0.3162 0.1349 0.47767 0.0
C619 C 0.34955 0.16927 0.40226 0.0
C620 C 0.33832 0.15264 0.38974 0.0
C621 C 0.34383 0.17554 0.42788 0.0
C622 C 0.31873 0.15069 0.4861 0.0
H623 H 0.37243 0.18589 0.59241 0.0
H624 H 0.35859 0.19154 0.54828 0.0
H625 H 0.31685 0.13809 0.52517 0.0
H626 H 0.31124 0.13093 0.39261 0.0
H627 H 0.30059 0.1425 0.43658 0.0
H628 H 0.33028 0.20269 0.47025 0.0
C629 C 0.34891 0.18243 0.56208 0.0
C630 C 0.31907 0.15249 0.5135 0.0
C631 C 0.35697 0.17901 0.58733 0.0
C632 C 0.32024 0.14369 0.40209 0.0
C633 C 0.31427 0.1502 0.42735 0.0
C634 C 0.32702 0.18855 0.48204 0.0
C635 C 0.3297 0.17257 0.55405 0.0
C636 C 0.32423 0.17214 0.52555 0.0
C637 C 0.32662 0.16543 0.44111 0.0
C638 C 0.32339 0.16852 0.46998 0.0
H639 H 0.31701 0.14721 0.61171 0.0
H640 H 0.30287 0.15296 0.56705 0.0
H641 H 0.33123 0.20576 0.51828 0.0
H642 H 0.36365 0.17627 0.3931 0.0
H643 H 0.35382 0.18722 0.43788 0.0
C644 C 0.82721 0.34545 0.39713 0.0
C645 C 0.84825 0.33906 0.39083 0.0
C646 C 0.81874 0.34109 0.4222 0.0
C647 C 0.82859 0.31053 0.48447 0.0
H648 H 0.81142 0.36368 0.51821 0.0
C649 C 0.84633 0.33023 0.59293 0.0
C650 C 0.83371 0.34571 0.6057 0.0
C651 C 0.84141 0.32402 0.56708 0.0
C652 C 0.81558 0.34845 0.50921 0.0
H653 H 0.87614 0.32146 0.4047 0.0
H654 H 0.86147 0.31384 0.44798 0.0
H655 H 0.81401 0.36215 0.47066 0.0
H656 H 0.80509 0.36534 0.60298 0.0
H657 H 0.79579 0.35374 0.55853 0.0
H658 H 0.83109 0.29713 0.52325 0.0
C659 C 0.85145 0.32224 0.43389 0.0
C660 C 0.81706 0.34761 0.48179 0.0
C661 C 0.85996 0.32684 0.40915 0.0
C662 C 0.81508 0.35341 0.59335 0.0
C663 C 0.80991 0.34692 0.56782 0.0
C664 C 0.827 0.31133 0.51197 0.0
C665 C 0.83106 0.32994 0.44108 0.0
C666 C 0.82441 0.32893 0.46917 0.0
C667 C 0.82363 0.33304 0.55381 0.0
C668 C 0.82127 0.33056 0.52474 0.0
H669 H 0.81783 0.35484 0.38332 0.0
H670 H 0.80291 0.34712 0.42718 0.0
H671 H 0.83405 0.29581 0.47524 0.0
H672 H 0.86091 0.32429 0.60206 0.0
H673 H 0.85246 0.31342 0.55692 0.0
C674 C 0.67369 0.84648 0.60174 0.0
C675 C 0.65306 0.83959 0.60917 0.0
C676 C 0.68136 0.84226 0.57623 0.0
C677 C 0.66963 0.8113 0.51454 0.0
H678 H 0.68637 0.86412 0.47976 0.0
C679 C 0.6499 0.83084 0.40629 0.0
C680 C 0.66298 0.84554 0.39286 0.0
C681 C 0.65495 0.82484 0.43218 0.0
C682 C 0.68226 0.84901 0.48906 0.0
H683 H 0.62514 0.82131 0.59679 0.0
H684 H 0.63836 0.81403 0.5528 0.0
H685 H 0.68494 0.86287 0.52744 0.0
H686 H 0.69235 0.8641 0.39457 0.0
H687 H 0.70172 0.85297 0.43919 0.0
H688 H 0.66593 0.79779 0.47593 0.0
C689 C 0.64871 0.82267 0.5663 0.0
C690 C 0.68148 0.84831 0.51654 0.0
C691 C 0.64101 0.82707 0.59149 0.0
C692 C 0.68204 0.85274 0.40469 0.0
C693 C 0.68726 0.84652 0.4303 0.0
C694 C 0.67043 0.81199 0.48698 0.0
C695 C 0.66865 0.8308 0.55801 0.0
C696 C 0.67437 0.82972 0.52958 0.0
C697 C 0.67325 0.83337 0.44486 0.0
C698 C 0.67605 0.83109 0.47389 0.0
H699 H 0.68331 0.85611 0.61504 0.0
H700 H 0.69687 0.8486 0.57044 0.0
H701 H 0.66438 0.79662 0.52405 0.0
H702 H 0.63499 0.82533 0.39757 0.0
H703 H 0.64369 0.8148 0.44283 0.0
C704 C 0.14785 0.57504 0.2853 0.0
C705 C 0.12721 0.58325 0.29066 0.0
C706 C 0.15031 0.55496 0.27302 0.0
C707 C 0.12218 0.51745 0.22929 0.0
H708 H 0.15767 0.47272 0.25991 0.0
C709 C 0.11286 0.42946 0.19765 0.0
C710 C 0.13094 0.41589 0.19689 0.0
C711 C 0.11433 0.45022 0.20792 0.0
C712 C 0.14799 0.48512 0.25077 0.0
H713 H 0.09303 0.57684 0.287 0.0
H714 H 0.09737 0.54223 0.26534 0.0
H715 H 0.15715 0.50857 0.27977 0.0
H716 H 0.16488 0.41374 0.20632 0.0
H717 H 0.16761 0.45032 0.22365 0.0
H718 H 0.11308 0.49439 0.20019 0.0
C719 C 0.11163 0.55121 0.27072 0.0
C720 C 0.14767 0.50564 0.26223 0.0
C721 C 0.10917 0.57101 0.28331 0.0
C722 C 0.15062 0.42374 0.2066 0.0
C723 C 0.15215 0.44469 0.21669 0.0
C724 C 0.12269 0.49711 0.21766 0.0
C725 C 0.13219 0.54295 0.26542 0.0
C726 C 0.13438 0.52186 0.25192 0.0
C727 C 0.13399 0.45823 0.21749 0.0
C728 C 0.13519 0.48047 0.22858 0.0
H729 H 0.16208 0.58404 0.29074 0.0
H730 H 0.16635 0.54897 0.26909 0.0
H731 H 0.11206 0.52976 0.22066 0.0
H732 H 0.09735 0.42393 0.19072 0.0
H733 H 0.09985 0.45986 0.20878 0.0
C734 C 0.57352 0.1105 0.20463 0.0
C735 C 0.58621 0.12895 0.20094 0.0
C736 C 0.55314 0.11192 0.21601 0.0
C737 C 0.51793 0.14774 0.2562 0.0
H738 H 0.47434 0.10714 0.23363 0.0
C739 C 0.4278 0.14776 0.29083 0.0
C740 C 0.42024 0.12763 0.29951 0.0
C741 C 0.4481 0.14964 0.27895 0.0
C742 C 0.48637 0.11855 0.24017 0.0
H743 H 0.58724 0.1635 0.20634 0.0
H744 H 0.5512 0.16615 0.22543 0.0
H745 H 0.50904 0.10771 0.21153 0.0
H746 H 0.42831 0.09376 0.30264 0.0
H747 H 0.46333 0.09705 0.28158 0.0
H748 H 0.49469 0.15879 0.28453 0.0
C749 C 0.55726 0.15044 0.22001 0.0
C750 C 0.50636 0.11882 0.22762 0.0
C751 C 0.57789 0.14896 0.20889 0.0
C752 C 0.43357 0.10953 0.29631 0.0
C753 C 0.45361 0.11136 0.28409 0.0
C754 C 0.49771 0.14768 0.2685 0.0
C755 C 0.54458 0.1319 0.22373 0.0
C756 C 0.52264 0.13307 0.2358 0.0
C757 C 0.46102 0.13137 0.27507 0.0
C758 C 0.48191 0.13278 0.26094 0.0
H759 H 0.57949 0.09475 0.19919 0.0
H760 H 0.54426 0.09718 0.21916 0.0
H761 H 0.53004 0.15882 0.26326 0.0
H762 H 0.41797 0.16203 0.29302 0.0
H763 H 0.45343 0.16525 0.27212 0.0
C764 C 0.88162 0.56672 0.19264 0.0
C765 C 0.86923 0.58428 0.20132 0.0
C766 C 0.8796 0.54657 0.2046 0.0
C767 C 0.86412 0.521 0.26687 0.0
H768 H 0.86356 0.4687 0.22524 0.0
C769 C 0.88312 0.43693 0.30981 0.0
C770 C 0.87065 0.41942 0.3012 0.0
C771 C 0.88057 0.45728 0.2985 0.0
C772 C 0.86349 0.48315 0.23715 0.0
H773 H 0.84482 0.59423 0.22938 0.0
H774 H 0.84145 0.55904 0.25038 0.0
H775 H 0.86329 0.50359 0.20316 0.0
H776 H 0.84536 0.40979 0.27422 0.0
H777 H 0.84104 0.44531 0.25438 0.0
H778 H 0.86464 0.50053 0.30086 0.0
C779 C 0.85274 0.56095 0.23428 0.0
C780 C 0.86354 0.50313 0.2245 0.0
C781 C 0.85458 0.58108 0.22212 0.0
C782 C 0.85522 0.42289 0.28138 0.0
C783 C 0.85283 0.44321 0.26987 0.0
C784 C 0.86429 0.501 0.27953 0.0
C785 C 0.8653 0.5435 0.22573 0.0
C786 C 0.86403 0.52228 0.2392 0.0
C787 C 0.86563 0.46058 0.27812 0.0
C788 C 0.86414 0.48185 0.26481 0.0
H789 H 0.89305 0.56856 0.17669 0.0
H790 H 0.88967 0.53351 0.19773 0.0
H791 H 0.86465 0.53546 0.27875 0.0
H792 H 0.89513 0.43489 0.32506 0.0
H793 H 0.8908 0.47028 0.30515 0.0
C794 C 0.57583 0.85326 0.29362 0.0
C795 C 0.58381 0.87338 0.30162 0.0
C796 C 0.55513 0.85142 0.28286 0.0
C797 C 0.50344 0.88189 0.27616 0.0
H798 H 0.49237 0.84159 0.21944 0.0
C799 C 0.43001 0.88888 0.2079 0.0
C800 C 0.41746 0.8703 0.20422 0.0
C801 C 0.44994 0.88774 0.22049 0.0
C802 C 0.49521 0.85277 0.23544 0.0
H803 H 0.5764 0.90741 0.30395 0.0
H804 H 0.54096 0.90438 0.28453 0.0
H805 H 0.52787 0.84256 0.24009 0.0
H806 H 0.41636 0.83583 0.21049 0.0
H807 H 0.45165 0.83382 0.23202 0.0
H808 H 0.47102 0.89263 0.27068 0.0
C809 C 0.55021 0.88982 0.28735 0.0
C810 C 0.51553 0.8533 0.24739 0.0
C811 C 0.57069 0.8916 0.2984 0.0
C812 C 0.4256 0.85044 0.21303 0.0
C813 C 0.4458 0.84926 0.22526 0.0
C814 C 0.48331 0.88157 0.26395 0.0
C815 C 0.54202 0.86971 0.27953 0.0
C816 C 0.52003 0.86808 0.26772 0.0
C817 C 0.45802 0.86797 0.2294 0.0
C818 C 0.47904 0.86718 0.24329 0.0
H819 H 0.58549 0.8389 0.29587 0.0
H820 H 0.54936 0.83562 0.27742 0.0
H821 H 0.50596 0.89307 0.29221 0.0
H822 H 0.42425 0.90447 0.20153 0.0
H823 H 0.4591 0.90239 0.2232 0.0
C824 C 0.84461 0.58475 0.75176 0.0
C825 C 0.8441 0.58975 0.77873 0.0
C826 C 0.8448 0.56323 0.74349 0.0
C827 C 0.83231 0.5081 0.76707 0.0
H828 H 0.86964 0.49025 0.70992 0.0
C829 C 0.84691 0.41851 0.74147 0.0
C830 C 0.84589 0.41341 0.71454 0.0
C831 C 0.84729 0.44004 0.74961 0.0
C832 C 0.85903 0.49503 0.72582 0.0
H833 H 0.84334 0.57618 0.81817 0.0
H834 H 0.84403 0.53906 0.80387 0.0
H835 H 0.86831 0.52807 0.72263 0.0
H836 H 0.8447 0.42681 0.67505 0.0
H837 H 0.84538 0.46406 0.6892 0.0
H838 H 0.82312 0.47504 0.77034 0.0
C839 C 0.84392 0.55156 0.789 0.0
C840 C 0.8582 0.5167 0.733 0.0
C841 C 0.8437 0.57291 0.7972 0.0
C842 C 0.84555 0.43017 0.69596 0.0
C843 C 0.84606 0.45156 0.70404 0.0
C844 C 0.83321 0.48643 0.75996 0.0
C845 C 0.84445 0.5464 0.76208 0.0
C846 C 0.84484 0.5235 0.75374 0.0
C847 C 0.84682 0.45678 0.73093 0.0
C848 C 0.84656 0.47966 0.73923 0.0
H849 H 0.84491 0.5974 0.7371 0.0
H850 H 0.84501 0.55978 0.72257 0.0
H851 H 0.82159 0.51283 0.78287 0.0
H852 H 0.84721 0.40592 0.75621 0.0
H853 H 0.84804 0.4436 0.77048 0.0
C854 C 0.57162 0.8474 0.70288 0.0
C855 C 0.58858 0.84729 0.7212 0.0
C856 C 0.55033 0.84805 0.71128 0.0
C857 C 0.5155 0.83475 0.76682 0.0
H858 H 0.47449 0.87119 0.7304 0.0
C859 C 0.42841 0.84483 0.80259 0.0
C860 C 0.41191 0.84575 0.78369 0.0
C861 C 0.44991 0.8451 0.79498 0.0
C862 C 0.48568 0.86072 0.74053 0.0
H863 H 0.59651 0.84777 0.76276 0.0
H864 H 0.55891 0.84877 0.77763 0.0
H865 H 0.51243 0.87253 0.71828 0.0
H866 H 0.40502 0.84749 0.74191 0.0
H867 H 0.4429 0.8477 0.7284 0.0
H868 H 0.48876 0.82274 0.78886 0.0
C869 C 0.56229 0.84835 0.75669 0.0
C870 C 0.50742 0.86157 0.7337 0.0
C871 C 0.58376 0.84786 0.74823 0.0
C872 C 0.4174 0.84677 0.75688 0.0
C873 C 0.43906 0.84703 0.74921 0.0
C874 C 0.49375 0.83384 0.7736 0.0
C875 C 0.54538 0.84848 0.73823 0.0
C876 C 0.52255 0.84852 0.74669 0.0
C877 C 0.45554 0.84622 0.76823 0.0
C878 C 0.47857 0.8468 0.76051 0.0
H879 H 0.57472 0.84685 0.68189 0.0
H880 H 0.5377 0.84777 0.69659 0.0
H881 H 0.52673 0.82426 0.77688 0.0
H882 H 0.42475 0.84405 0.82344 0.0
H883 H 0.46214 0.8448 0.81016 0.0
C884 C 0.15672 0.41694 0.75241 0.0
C885 C 0.15592 0.41207 0.77942 0.0
C886 C 0.15645 0.43841 0.74399 0.0
C887 C 0.14098 0.49291 0.76603 0.0
H888 H 0.18163 0.51244 0.71333 0.0
C889 C 0.15483 0.58325 0.74329 0.0
C890 C 0.15739 0.58868 0.71662 0.0
C891 C 0.15432 0.5616 0.751 0.0
C892 C 0.17 0.50721 0.72787 0.0
H893 H 0.15435 0.42586 0.81873 0.0
H894 H 0.15384 0.46291 0.80409 0.0
H895 H 0.18066 0.47451 0.72545 0.0
H896 H 0.16122 0.57574 0.67712 0.0
H897 H 0.15997 0.53839 0.69044 0.0
H898 H 0.13028 0.52557 0.76845 0.0
C899 C 0.15443 0.4503 0.78937 0.0
C900 C 0.16943 0.48547 0.73474 0.0
C901 C 0.15485 0.429 0.79775 0.0
C902 C 0.1593 0.57214 0.69788 0.0
C903 C 0.15875 0.55066 0.70552 0.0
C904 C 0.14149 0.51464 0.7591 0.0
C905 C 0.15519 0.45528 0.76244 0.0
C906 C 0.155 0.47811 0.754 0.0
C907 C 0.15638 0.54508 0.73216 0.0
C908 C 0.15604 0.52206 0.73997 0.0
H909 H 0.15756 0.40422 0.73787 0.0
H910 H 0.15698 0.44181 0.72306 0.0
H911 H 0.1295 0.48766 0.78074 0.0
H912 H 0.15335 0.59566 0.75815 0.0
H913 H 0.15264 0.55782 0.77173 0.0
C914 C 0.42967 0.15593 0.69747 0.0
C915 C 0.41278 0.15608 0.71591 0.0
C916 C 0.451 0.15491 0.70573 0.0
C917 C 0.4858 0.1674 0.76163 0.0
H918 H 0.5268 0.13069 0.72553 0.0
C919 C 0.57174 0.15624 0.7999 0.0
C920 C 0.58869 0.15558 0.78159 0.0
C921 C 0.55044 0.15577 0.79153 0.0
C922 C 0.51561 0.14123 0.73557 0.0
H923 H 0.40499 0.15517 0.75751 0.0
H924 H 0.44257 0.15354 0.77212 0.0
H925 H 0.48902 0.13016 0.71246 0.0
H926 H 0.59662 0.15376 0.74007 0.0
H927 H 0.55908 0.15323 0.72523 0.0
H928 H 0.51232 0.17872 0.78449 0.0
C929 C 0.43915 0.15424 0.7512 0.0
C930 C 0.49396 0.14086 0.72818 0.0
C931 C 0.41768 0.15509 0.74288 0.0
C932 C 0.58387 0.15428 0.75461 0.0
C933 C 0.5624 0.15387 0.74617 0.0
C934 C 0.50743 0.16785 0.76893 0.0
C935 C 0.45601 0.15416 0.73266 0.0
C936 C 0.47883 0.15393 0.74116 0.0
C937 C 0.54545 0.15476 0.76459 0.0
C938 C 0.52259 0.15471 0.75607 0.0
H939 H 0.42647 0.15674 0.67651 0.0
H940 H 0.46361 0.15518 0.691 0.0
H941 H 0.4746 0.17795 0.77165 0.0
H942 H 0.57486 0.15715 0.82087 0.0
H943 H 0.53784 0.15603 0.80628 0.0
C944 C 0.61099 0.07109 0.7974 0.0
C945 C 0.62902 0.08457 0.80009 0.0
C946 C 0.61275 0.05111 0.78507 0.0
C947 C 0.64911 0.00732 0.76828 0.0
H948 H 0.60747 0.9954 0.71335 0.0
C949 C 0.64855 0.92659 0.70964 0.0
C950 C 0.62828 0.91822 0.70289 0.0
C951 C 0.65042 0.9473 0.72044 0.0
C952 C 0.61906 0.99825 0.72887 0.0
H953 H 0.66327 0.08715 0.79252 0.0
H954 H 0.66638 0.05178 0.77137 0.0
H955 H 0.60744 0.03026 0.73501 0.0
H956 H 0.59403 0.9249 0.70303 0.0
H957 H 0.59715 0.96028 0.72245 0.0
H958 H 0.66021 0.97498 0.7629 0.0
C959 C 0.65086 0.05696 0.77872 0.0
C960 C 0.6191 0.01834 0.74116 0.0
C961 C 0.64905 0.07721 0.79074 0.0
C962 C 0.60995 0.93092 0.70752 0.0
C963 C 0.61178 0.95137 0.71858 0.0
C964 C 0.64888 0.98701 0.75621 0.0
C965 C 0.63263 0.04389 0.77538 0.0
C966 C 0.6339 0.023 0.76124 0.0
C967 C 0.63202 0.96001 0.72501 0.0
C968 C 0.63358 0.98207 0.73662 0.0
H969 H 0.59529 0.07617 0.80426 0.0
H970 H 0.59848 0.04126 0.78303 0.0
H971 H 0.66066 0.01049 0.78377 0.0
H972 H 0.663 0.91723 0.70633 0.0
H973 H 0.6663 0.95341 0.7249 0.0
C974 C 0.92893 0.60967 0.77963 0.0
C975 C 0.91737 0.62817 0.78691 0.0
C976 C 0.94931 0.6113 0.76833 0.0
C977 C 0.98737 0.64904 0.73561 0.0
H978 H 0.02846 0.60482 0.75477 0.0
C979 C 0.07857 0.64874 0.70577 0.0
C980 C 0.08615 0.62905 0.6957 0.0
C981 C 0.05784 0.65031 0.71657 0.0
C982 C 0.01714 0.61724 0.74914 0.0
H983 H 0.9181 0.66299 0.78744 0.0
H984 H 0.95415 0.66588 0.76828 0.0
H985 H 0.99291 0.60473 0.77465 0.0
H986 H 0.0776 0.59565 0.68886 0.0
H987 H 0.04182 0.5984 0.70789 0.0
H988 H 0.01213 0.66166 0.71038 0.0
C989 C 0.94723 0.65007 0.77098 0.0
C990 C 0.99667 0.61715 0.76042 0.0
C991 C 0.92658 0.64843 0.78206 0.0
C992 C 0.07239 0.6111 0.69637 0.0
C993 C 0.05188 0.61261 0.70743 0.0
C994 C 0.00805 0.64926 0.72452 0.0
C995 C 0.95898 0.63147 0.76428 0.0
C996 C 0.9813 0.63276 0.75344 0.0
C997 C 0.04444 0.63215 0.71789 0.0
C998 C 0.023 0.6331 0.73082 0.0
H999 H 0.92219 0.5938 0.7826 0.0
H1000 H 0.95747 0.59662 0.76271 0.0
H1001 H 0.97597 0.66124 0.72961 0.0
H1002 H 0.0887 0.6629 0.70555 0.0
H1003 H 0.05252 0.66556 0.72456 0.0
C1004 C 0.39017 0.07198 0.695 0.0
C1005 C 0.37233 0.08589 0.69434 0.0
C1006 C 0.38856 0.05162 0.7064 0.0
C1007 C 0.35187 0.00827 0.7248 0.0
H1008 H 0.39638 0.99405 0.77534 0.0
C1009 C 0.3526 0.92795 0.78455 0.0
C1010 C 0.37286 0.91884 0.78973 0.0
C1011 C 0.35099 0.94837 0.77289 0.0
C1012 C 0.38397 0.99755 0.76101 0.0
H1013 H 0.33855 0.08884 0.70445 0.0
H1014 H 0.33572 0.0529 0.72405 0.0
H1015 H 0.39634 0.02919 0.75447 0.0
H1016 H 0.40725 0.92354 0.78543 0.0
H1017 H 0.40448 0.95842 0.76452 0.0
H1018 H 0.33986 0.97632 0.73077 0.0
C1019 C 0.35095 0.058 0.71581 0.0
C1020 C 0.38391 0.01779 0.74915 0.0
C1021 C 0.35262 0.07858 0.70467 0.0
C1022 C 0.39138 0.93024 0.78221 0.0
C1023 C 0.38978 0.95038 0.77032 0.0
C1024 C 0.35208 0.98781 0.73646 0.0
C1025 C 0.36904 0.04448 0.7172 0.0
C1026 C 0.36805 0.0233 0.73068 0.0
C1027 C 0.36961 0.95997 0.76592 0.0
C1028 C 0.36835 0.98207 0.75445 0.0
H1029 H 0.40562 0.07697 0.68729 0.0
H1030 H 0.4027 0.04145 0.70692 0.0
H1031 H 0.33948 0.01211 0.71056 0.0
H1032 H 0.33803 0.91957 0.79009 0.0
H1033 H 0.33518 0.95524 0.76994 0.0
C1034 C 0.07413 0.35274 0.78258 0.0
C1035 C 0.08359 0.37302 0.78656 0.0
C1036 C 0.05373 0.35103 0.77087 0.0
C1037 C 0.00525 0.38449 0.75685 0.0
H1038 H 0.98963 0.33822 0.70936 0.0
C1039 C 0.93057 0.38951 0.69121 0.0
C1040 C 0.91626 0.372 0.69189 0.0
C1041 C 0.95103 0.38791 0.70234 0.0
C1042 C 0.99377 0.35113 0.72276 0.0
H1043 H 0.0796 0.40724 0.77999 0.0
H1044 H 0.04478 0.40426 0.75898 0.0
H1045 H 0.02547 0.33868 0.72946 0.0
H1046 H 0.91274 0.33874 0.70406 0.0
H1047 H 0.94882 0.33591 0.72322 0.0
H1048 H 0.97386 0.39725 0.7496 0.0
C1049 C 0.0525 0.38968 0.76579 0.0
C1050 C 0.01426 0.35138 0.73435 0.0
C1051 C 0.07261 0.39139 0.77774 0.0
C1052 C 0.92329 0.35257 0.70323 0.0
C1053 C 0.94397 0.3509 0.71413 0.0
C1054 C 0.98499 0.38437 0.74505 0.0
C1055 C 0.04251 0.36955 0.76265 0.0
C1056 C 0.02038 0.36827 0.75127 0.0
C1057 C 0.95787 0.36871 0.71423 0.0
C1058 C 0.9791 0.36786 0.72763 0.0
H1059 H 0.08221 0.33828 0.78914 0.0
H1060 H 0.04655 0.33526 0.76889 0.0
H1061 H 0.00903 0.39741 0.77037 0.0
H1062 H 0.92581 0.40474 0.68266 0.0
H1063 H 0.96149 0.40183 0.70185 0.0
C1064 C 0.34851 0.07024 0.29808 0.0
C1065 C 0.34907 0.08711 0.27968 0.0
C1066 C 0.34835 0.04891 0.28979 0.0
C1067 C 0.36088 0.01347 0.23372 0.0
H1068 H 0.32406 0.9736 0.27148 0.0
C1069 C 0.34612 0.92651 0.19883 0.0
C1070 C 0.34618 0.91019 0.21801 0.0
C1071 C 0.34679 0.94809 0.20615 0.0
C1072 C 0.33461 0.98448 0.26096 0.0
H1073 H 0.35016 0.09486 0.23809 0.0
H1074 H 0.34962 0.05727 0.2234 0.0
H1075 H 0.32412 0.01149 0.28359 0.0
H1076 H 0.34699 0.9037 0.25994 0.0
H1077 H 0.34811 0.94166 0.27287 0.0
H1078 H 0.37121 0.98638 0.21096 0.0
C1079 C 0.34951 0.06068 0.24433 0.0
C1080 C 0.33463 0.0062 0.26785 0.0
C1081 C 0.34974 0.08217 0.25269 0.0
C1082 C 0.3469 0.91593 0.24475 0.0
C1083 C 0.34746 0.93763 0.25211 0.0
C1084 C 0.36079 0.99172 0.22676 0.0
C1085 C 0.34862 0.04382 0.26285 0.0
C1086 C 0.3479 0.02094 0.25447 0.0
C1087 C 0.34743 0.95393 0.23285 0.0
C1088 C 0.34773 0.97697 0.24041 0.0
H1089 H 0.34811 0.07344 0.31906 0.0
H1090 H 0.34814 0.03637 0.3046 0.0
H1091 H 0.37147 0.02434 0.22325 0.0
H1092 H 0.34547 0.92265 0.17803 0.0
H1093 H 0.34644 0.96024 0.19086 0.0
C1094 C 0.93187 0.3498 0.29905 0.0
C1095 C 0.91503 0.34874 0.28062 0.0
C1096 C 0.95321 0.35035 0.29077 0.0
C1097 C 0.98811 0.33496 0.23597 0.0
H1098 H 0.02927 0.37272 0.27001 0.0
C1099 C 0.07483 0.34325 0.19859 0.0
C1100 C 0.0915 0.34471 0.2172 0.0
C1101 C 0.0534 0.3442 0.20644 0.0
C1102 C 0.01803 0.36189 0.26056 0.0
H1103 H 0.90734 0.34762 0.239 0.0
H1104 H 0.94495 0.3485 0.22438 0.0
H1105 H 0.9914 0.37436 0.28251 0.0
H1106 H 0.09877 0.34832 0.25871 0.0
H1107 H 0.06103 0.34969 0.27265 0.0
H1108 H 0.0147 0.32226 0.21426 0.0
C1109 C 0.94148 0.34884 0.2453 0.0
C1110 C 0.99633 0.3629 0.26762 0.0
C1111 C 0.92 0.34843 0.25363 0.0
C1112 C 0.08625 0.34717 0.24395 0.0
C1113 C 0.06467 0.34807 0.25186 0.0
C1114 C 0.00981 0.33388 0.22898 0.0
C1115 C 0.9583 0.34975 0.26384 0.0
C1116 C 0.98115 0.34942 0.25542 0.0
C1117 C 0.04801 0.34653 0.23315 0.0
C1118 C 0.02503 0.34735 0.24117 0.0
H1119 H 0.92862 0.35 0.32002 0.0
H1120 H 0.96578 0.35074 0.30553 0.0
H1121 H 0.97686 0.3241 0.22656 0.0
H1122 H 0.07829 0.3414 0.17779 0.0
H1123 H 0.04103 0.34336 0.19145 0.0
C1124 C 0.65471 0.9186 0.25744 0.0
C1125 C 0.65567 0.91338 0.28433 0.0
C1126 C 0.65437 0.94016 0.24945 0.0
C1127 C 0.66771 0.99491 0.27332 0.0
H1128 H 0.63078 0.0134 0.21614 0.0
C1129 C 0.65534 0.08466 0.24651 0.0
C1130 C 0.65648 0.08942 0.2195 0.0
C1131 C 0.65451 0.06325 0.25501 0.0
C1132 C 0.64126 0.00844 0.23206 0.0
H1133 H 0.65678 0.92659 0.32393 0.0
H1134 H 0.65577 0.96386 0.3101 0.0
H1135 H 0.63116 0.97564 0.22912 0.0
H1136 H 0.65757 0.07554 0.18023 0.0
H1137 H 0.65611 0.0385 0.19501 0.0
H1138 H 0.67776 0.02775 0.27626 0.0
C1139 C 0.65571 0.95148 0.2951 0.0
C1140 C 0.64155 0.9868 0.23941 0.0
C1141 C 0.65613 0.93005 0.30302 0.0
C1142 C 0.65661 0.07245 0.2012 0.0
C1143 C 0.65565 0.05117 0.20964 0.0
C1144 C 0.66735 0.01656 0.26603 0.0
C1145 C 0.65495 0.95683 0.26824 0.0
C1146 C 0.6548 0.97977 0.2601 0.0
C1147 C 0.65464 0.0463 0.2366 0.0
C1148 C 0.6542 0.02354 0.24525 0.0
H1149 H 0.65438 0.90608 0.24261 0.0
H1150 H 0.65398 0.94377 0.22858 0.0
H1151 H 0.67836 0.98999 0.28907 0.0
H1152 H 0.65521 0.09743 0.26103 0.0
H1153 H 0.65362 0.05994 0.27594 0.0
C1154 C 0.08382 0.65546 0.25181 0.0
C1155 C 0.08808 0.65612 0.27898 0.0
C1156 C 0.06253 0.65515 0.24269 0.0
C1157 C 0.0074 0.64191 0.26464 0.0
H1158 H 0.98911 0.67921 0.20774 0.0
C1159 C 0.91769 0.65667 0.2413 0.0
C1160 C 0.91191 0.65738 0.21459 0.0
C1161 C 0.93939 0.65621 0.24861 0.0
C1162 C 0.994 0.66851 0.22347 0.0
H1163 H 0.07341 0.65731 0.31784 0.0
H1164 H 0.03671 0.65682 0.30203 0.0
H1165 H 0.02696 0.67831 0.22047 0.0
H1166 H 0.92428 0.65817 0.17457 0.0
H1167 H 0.9619 0.65707 0.18727 0.0
H1168 H 0.97453 0.63212 0.26776 0.0
C1169 C 0.04964 0.65621 0.28772 0.0
C1170 C 0.01569 0.66798 0.2307 0.0
C1171 C 0.07074 0.65661 0.29676 0.0
C1172 C 0.92819 0.65766 0.19536 0.0
C1173 C 0.9498 0.65718 0.20263 0.0
C1174 C 0.98576 0.64241 0.2574 0.0
C1175 C 0.04524 0.65534 0.26064 0.0
C1176 C 0.02257 0.65484 0.25155 0.0
C1177 C 0.95569 0.65646 0.22931 0.0
C1178 C 0.97876 0.65583 0.23687 0.0
H1179 H 0.09688 0.65508 0.23768 0.0
H1180 H 0.05959 0.65442 0.22168 0.0
H1181 H 0.01228 0.63136 0.28054 0.0
H1182 H 0.90548 0.65649 0.25654 0.0
H1183 H 0.94341 0.6559 0.26937 0.0
loop_
_geom_bond_atom_site_label_1
_geom_bond_atom_site_label_2
_geom_bond_distance
_geom_bond_site_symmetry_2
_ccdc_geom_bond_type
Co0 O1 2.216 . S
Co0 O2 2.091 . S
Co0 O4 2.004 . S
Co0 O10 2.021 . S
Co0 O12 2.137 . S
Co0 O13 2.244 . S
O1 Co0 2.216 . S
O1 C8 1.247 . S
O2 Co0 2.091 . S
O2 C8 1.261 . S
C3 O12 1.247 . S
C3 O13 1.272 . S
O4 Co0 2.004 . S
O4 C9 1.259 . S
Co5 O6 2.061 . S
Co5 O11 2.052 . S
Co5 O13 2.135 . S
O6 Co5 2.061 . S
O6 C9 1.235 . S
C7 O10 1.238 . S
C7 O11 1.241 . S
C8 O1 1.247 . S
C8 O2 1.261 . S
C9 O4 1.259 . S
C9 O6 1.235 . S
O10 Co0 2.021 . S
O10 C7 1.238 . S
O11 Co5 2.052 . S
O11 C7 1.241 . S
O12 Co0 2.137 . S
O12 C3 1.247 . S
O13 Co0 2.244 . S
O13 C3 1.272 . S
O13 Co5 2.135 . S
Co14 O15 2.216 . S
Co14 O16 2.091 . S
Co14 O18 2.004 . S
Co14 O24 2.021 . S
Co14 O26 2.137 . S
Co14 O27 2.244 . S
O15 Co14 2.216 . S
O15 C22 1.247 . S
O16 Co14 2.091 . S
O16 C22 1.261 . S
C17 O26 1.247 . S
C17 O27 1.272 . S
O18 Co14 2.004 . S
O18 C23 1.259 . S
Co19 O20 2.061 . S
Co19 O25 2.052 . S
Co19 O27 2.135 . S
O20 Co19 2.061 . S
O20 C23 1.235 . S
C21 O24 1.238 . S
C21 O25 1.241 . S
C22 O15 1.247 . S
C22 O16 1.261 . S
C23 O18 1.259 . S
C23 O20 1.235 . S
O24 Co14 2.021 . S
O24 C21 1.238 . S
O25 Co19 2.052 . S
O25 C21 1.241 . S
O26 Co14 2.137 . S
O26 C17 1.247 . S
O27 Co14 2.244 . S
O27 C17 1.272 . S
O27 Co19 2.135 . S
Co28 O29 2.216 . S
Co28 O30 2.091 . S
Co28 O32 2.004 . S
Co28 O38 2.021 . S
Co28 O40 2.137 . S
Co28 O41 2.244 . S
O29 Co28 2.216 . S
O29 C36 1.247 . S
O30 Co28 2.091 . S
O30 C36 1.261 . S
C31 O40 1.247 . S
C31 O41 1.272 . S
O32 Co28 2.004 . S
O32 C37 1.259 . S
Co33 O34 2.061 . S
Co33 O39 2.052 . S
Co33 O41 2.135 . S
O34 Co33 2.061 . S
O34 C37 1.235 . S
C35 O38 1.238 . S
C35 O39 1.241 . S
C36 O29 1.247 . S
C36 O30 1.261 . S
C37 O32 1.259 . S
C37 O34 1.235 . S
O38 Co28 2.021 . S
O38 C35 1.238 . S
O39 Co33 2.052 . S
O39 C35 1.241 . S
O40 Co28 2.137 . S
O40 C31 1.247 . S
O41 Co28 2.244 . S
O41 C31 1.272 . S
O41 Co33 2.135 . S
Co42 O43 2.216 . S
Co42 O44 2.091 . S
Co42 O46 2.004 . S
Co42 O52 2.021 . S
Co42 O54 2.137 . S
Co42 O55 2.244 . S
O43 Co42 2.216 . S
O43 C50 1.247 . S
O44 Co42 2.091 . S
O44 C50 1.261 . S
C45 O54 1.247 . S
C45 O55 1.272 . S
O46 Co42 2.004 . S
O46 C51 1.259 . S
Co47 O48 2.061 . S
Co47 O53 2.052 . S
Co47 O55 2.135 . S
O48 Co47 2.061 . S
O48 C51 1.235 . S
C49 O52 1.238 . S
C49 O53 1.241 . S
C50 O43 1.247 . S
C50 O44 1.261 . S
C51 O46 1.259 . S
C51 O48 1.235 . S
O52 Co42 2.021 . S
O52 C49 1.238 . S
O53 Co47 2.052 . S
O53 C49 1.241 . S
O54 Co42 2.137 . S
O54 C45 1.247 . S
O55 Co42 2.244 . S
O55 C45 1.272 . S
O55 Co47 2.135 . S
Co56 O57 2.216 . S
Co56 O58 2.091 . S
Co56 O60 2.004 . S
Co56 O66 2.021 . S
Co56 O68 2.137 . S
Co56 O69 2.244 . S
O57 Co56 2.216 . S
O57 C64 1.247 . S
O58 Co56 2.091 . S
O58 C64 1.261 . S
C59 O68 1.247 . S
C59 O69 1.272 . S
O60 Co56 2.004 . S
O60 C65 1.259 . S
Co61 O62 2.061 . S
Co61 O67 2.052 . S
Co61 O69 2.135 . S
O62 Co61 2.061 . S
O62 C65 1.235 . S
C63 O66 1.238 . S
C63 O67 1.241 . S
C64 O57 1.247 . S
C64 O58 1.261 . S
C65 O60 1.259 . S
C65 O62 1.235 . S
O66 Co56 2.021 . S
O66 C63 1.238 . S
O67 Co61 2.052 . S
O67 C63 1.241 . S
O68 Co56 2.137 . S
O68 C59 1.247 . S
O69 Co56 2.244 . S
O69 C59 1.272 . S
O69 Co61 2.135 . S
Co70 O71 2.216 . S
Co70 O72 2.091 . S
Co70 O74 2.004 . S
Co70 O80 2.021 . S
Co70 O82 2.137 . S
Co70 O83 2.244 . S
O71 Co70 2.216 . S
O71 C78 1.247 . S
O72 Co70 2.091 . S
O72 C78 1.261 . S
C73 O82 1.247 . S
C73 O83 1.272 . S
O74 Co70 2.004 . S
O74 C79 1.259 . S
Co75 O76 2.061 . S
Co75 O81 2.052 . S
Co75 O83 2.135 . S
O76 Co75 2.061 . S
O76 C79 1.235 . S
C77 O80 1.238 . S
C77 O81 1.241 . S
C78 O71 1.247 . S
C78 O72 1.261 . S
C79 O74 1.259 . S
C79 O76 1.235 . S
O80 Co70 2.021 . S
O80 C77 1.238 . S
O81 Co75 2.052 . S
O81 C77 1.241 . S
O82 Co70 2.137 . S
O82 C73 1.247 . S
O83 Co70 2.244 . S
O83 C73 1.272 . S
O83 Co75 2.135 . S
Co84 O85 2.216 . S
Co84 O86 2.091 . S
Co84 O88 2.004 . S
Co84 O94 2.021 . S
Co84 O96 2.137 . S
Co84 O97 2.244 . S
O85 Co84 2.216 . S
O85 C92 1.247 . S
O86 Co84 2.091 . S
O86 C92 1.261 . S
C87 O96 1.247 . S
C87 O97 1.272 . S
O88 Co84 2.004 . S
O88 C93 1.259 . S
Co89 O90 2.061 . S
Co89 O95 2.052 . S
Co89 O97 2.135 . S
O90 Co89 2.061 . S
O90 C93 1.235 . S
C91 O94 1.238 . S
C91 O95 1.241 . S
C92 O85 1.247 . S
C92 O86 1.261 . S
C93 O88 1.259 . S
C93 O90 1.235 . S
O94 Co84 2.021 . S
O94 C91 1.238 . S
O95 Co89 2.052 . S
O95 C91 1.241 . S
O96 Co84 2.137 . S
O96 C87 1.247 . S
O97 Co84 2.244 . S
O97 C87 1.272 . S
O97 Co89 2.135 . S
Co98 O99 2.216 . S
Co98 O100 2.091 . S
Co98 O102 2.004 . S
Co98 O108 2.021 . S
Co98 O110 2.137 . S
Co98 O111 2.244 . S
O99 Co98 2.216 . S
O99 C106 1.247 . S
O100 Co98 2.091 . S
O100 C106 1.261 . S
C101 O110 1.247 . S
C101 O111 1.272 . S
O102 Co98 2.004 . S
O102 C107 1.259 . S
Co103 O104 2.061 . S
Co103 O109 2.052 . S
Co103 O111 2.135 . S
O104 Co103 2.061 . S
O104 C107 1.235 . S
C105 O108 1.238 . S
C105 O109 1.241 . S
C106 O99 1.247 . S
C106 O100 1.261 . S
C107 O102 1.259 . S
C107 O104 1.235 . S
O108 Co98 2.021 . S
O108 C105 1.238 . S
O109 Co103 2.052 . S
O109 C105 1.241 . S
O110 Co98 2.137 . S
O110 C101 1.247 . S
O111 Co98 2.244 . S
O111 C101 1.272 . S
O111 Co103 2.135 . S
Co112 O113 2.216 . S
Co112 O114 2.091 . S
Co112 O116 2.004 . S
Co112 O122 2.021 . S
Co112 O124 2.137 . S
Co112 O125 2.244 . S
O113 Co112 2.216 . S
O113 C120 1.247 . S
O114 Co112 2.091 . S
O114 C120 1.261 . S
C115 O124 1.247 . S
C115 O125 1.272 . S
O116 Co112 2.004 . S
O116 C121 1.259 . S
Co117 O118 2.061 . S
Co117 O123 2.052 . S
Co117 O125 2.135 . S
O118 Co117 2.061 . S
O118 C121 1.235 . S
C119 O122 1.238 . S
C119 O123 1.241 . S
C120 O113 1.247 . S
C120 O114 1.261 . S
C121 O116 1.259 . S
C121 O118 1.235 . S
O122 Co112 2.021 . S
O122 C119 1.238 . S
O123 Co117 2.052 . S
O123 C119 1.241 . S
O124 Co112 2.137 . S
O124 C115 1.247 . S
O125 Co112 2.244 . S
O125 C115 1.272 . S
O125 Co117 2.135 . S
Co126 O127 2.216 . S
Co126 O128 2.091 . S
Co126 O130 2.004 . S
Co126 O136 2.021 . S
Co126 O138 2.137 . S
Co126 O139 2.244 . S
O127 Co126 2.216 . S
O127 C134 1.247 . S
O128 Co126 2.091 . S
O128 C134 1.261 . S
C129 O138 1.247 . S
C129 O139 1.272 . S
O130 Co126 2.004 . S
O130 C135 1.259 . S
Co131 O132 2.061 . S
Co131 O137 2.052 . S
Co131 O139 2.135 . S
O132 Co131 2.061 . S
O132 C135 1.235 . S
C133 O136 1.238 . S
C133 O137 1.241 . S
C134 O127 1.247 . S
C134 O128 1.261 . S
C135 O130 1.259 . S
C135 O132 1.235 . S
O136 Co126 2.021 . S
O136 C133 1.238 . S
O137 Co131 2.052 . S
O137 C133 1.241 . S
O138 Co126 2.137 . S
O138 C129 1.247 . S
O139 Co126 2.244 . S
O139 C129 1.272 . S
O139 Co131 2.135 . S
Co140 O141 2.216 . S
Co140 O142 2.091 . S
Co140 O144 2.004 . S
Co140 O150 2.021 . S
Co140 O152 2.137 . S
Co140 O153 2.244 . S
O141 Co140 2.216 . S
O141 C148 1.247 . S
O142 Co140 2.091 . S
O142 C148 1.261 . S
C143 O152 1.247 . S
C143 O153 1.272 . S
O144 Co140 2.004 . S
O144 C149 1.259 . S
Co145 O146 2.061 . S
Co145 O151 2.052 . S
Co145 O153 2.135 . S
O146 Co145 2.061 . S
O146 C149 1.235 . S
C147 O150 1.238 . S
C147 O151 1.241 . S
C148 O141 1.247 . S
C148 O142 1.261 . S
C149 O144 1.259 . S
C149 O146 1.235 . S
O150 Co140 2.021 . S
O150 C147 1.238 . S
O151 Co145 2.052 . S
O151 C147 1.241 . S
O152 Co140 2.137 . S
O152 C143 1.247 . S
O153 Co140 2.244 . S
O153 C143 1.272 . S
O153 Co145 2.135 . S
Co154 O155 2.216 . S
Co154 O156 2.091 . S
Co154 O158 2.004 . S
Co154 O164 2.021 . S
Co154 O166 2.137 . S
Co154 O167 2.244 . S
O155 Co154 2.216 . S
O155 C162 1.247 . S
O156 Co154 2.091 . S
O156 C162 1.261 . S
C157 O166 1.247 . S
C157 O167 1.272 . S
O158 Co154 2.004 . S
O158 C163 1.259 . S
Co159 O160 2.061 . S
Co159 O165 2.052 . S
Co159 O167 2.135 . S
O160 Co159 2.061 . S
O160 C163 1.235 . S
C161 O164 1.238 . S
C161 O165 1.241 . S
C162 O155 1.247 . S
C162 O156 1.261 . S
C163 O158 1.259 . S
C163 O160 1.235 . S
O164 Co154 2.021 . S
O164 C161 1.238 . S
O165 Co159 2.052 . S
O165 C161 1.241 . S
O166 Co154 2.137 . S
O166 C157 1.247 . S
O167 Co154 2.244 . S
O167 C157 1.272 . S
O167 Co159 2.135 . S
Co168 O169 2.216 . S
Co168 O170 2.091 . S
Co168 O172 2.004 . S
Co168 O178 2.021 . S
Co168 O180 2.137 . S
Co168 O181 2.244 . S
O169 Co168 2.216 . S
O169 C176 1.247 . S
O170 Co168 2.091 . S
O170 C176 1.261 . S
C171 O180 1.247 . S
C171 O181 1.272 . S
O172 Co168 2.004 . S
O172 C177 1.259 . S
Co173 O174 2.061 . S
Co173 O179 2.052 . S
Co173 O181 2.135 . S
O174 Co173 2.061 . S
O174 C177 1.235 . S
C175 O178 1.238 . S
C175 O179 1.241 . S
C176 O169 1.247 . S
C176 O170 1.261 . S
C177 O172 1.259 . S
C177 O174 1.235 . S
O178 Co168 2.021 . S
O178 C175 1.238 . S
O179 Co173 2.052 . S
O179 C175 1.241 . S
O180 Co168 2.137 . S
O180 C171 1.247 . S
O181 Co168 2.244 . S
O181 C171 1.272 . S
O181 Co173 2.135 . S
Co182 O183 2.216 . S
Co182 O184 2.091 . S
Co182 O186 2.004 . S
Co182 O192 2.021 . S
Co182 O194 2.137 . S
Co182 O195 2.244 . S
O183 Co182 2.216 . S
O183 C190 1.247 . S
O184 Co182 2.091 . S
O184 C190 1.261 . S
C185 O194 1.247 . S
C185 O195 1.272 . S
O186 Co182 2.004 . S
O186 C191 1.259 . S
Co187 O188 2.061 . S
Co187 O193 2.052 . S
Co187 O195 2.135 . S
O188 Co187 2.061 . S
O188 C191 1.235 . S
C189 O192 1.238 . S
C189 O193 1.241 . S
C190 O183 1.247 . S
C190 O184 1.261 . S
C191 O186 1.259 . S
C191 O188 1.235 . S
O192 Co182 2.021 . S
O192 C189 1.238 . S
O193 Co187 2.052 . S
O193 C189 1.241 . S
O194 Co182 2.137 . S
O194 C185 1.247 . S
O195 Co182 2.244 . S
O195 C185 1.272 . S
O195 Co187 2.135 . S
Co196 O197 2.216 . S
Co196 O198 2.091 . S
Co196 O200 2.004 . S
Co196 O206 2.021 . S
Co196 O208 2.137 . S
Co196 O209 2.244 . S
O197 Co196 2.216 . S
O197 C204 1.247 . S
O198 Co196 2.091 . S
O198 C204 1.261 . S
C199 O208 1.247 . S
C199 O209 1.272 . S
O200 Co196 2.004 . S
O200 C205 1.259 . S
Co201 O202 2.061 . S
Co201 O207 2.052 . S
Co201 O209 2.135 . S
O202 Co201 2.061 . S
O202 C205 1.235 . S
C203 O206 1.238 . S
C203 O207 1.241 . S
C204 O197 1.247 . S
C204 O198 1.261 . S
C205 O200 1.259 . S
C205 O202 1.235 . S
O206 Co196 2.021 . S
O206 C203 1.238 . S
O207 Co201 2.052 . S
O207 C203 1.241 . S
O208 Co196 2.137 . S
O208 C199 1.247 . S
O209 Co196 2.244 . S
O209 C199 1.272 . S
O209 Co201 2.135 . S
Co210 O211 2.216 . S
Co210 O212 2.091 . S
Co210 O214 2.004 . S
Co210 O220 2.021 . S
Co210 O222 2.137 . S
Co210 O223 2.244 . S
O211 Co210 2.216 . S
O211 C218 1.247 . S
O212 Co210 2.091 . S
O212 C218 1.261 . S
C213 O222 1.247 . S
C213 O223 1.272 . S
O214 Co210 2.004 . S
O214 C219 1.259 . S
Co215 O216 2.061 . S
Co215 O221 2.052 . S
Co215 O223 2.135 . S
O216 Co215 2.061 . S
O216 C219 1.235 . S
C217 O220 1.238 . S
C217 O221 1.241 . S
C218 O211 1.247 . S
C218 O212 1.261 . S
C219 O214 1.259 . S
C219 O216 1.235 . S
O220 Co210 2.021 . S
O220 C217 1.238 . S
O221 Co215 2.052 . S
O221 C217 1.241 . S
O222 Co210 2.137 . S
O222 C213 1.247 . S
O223 Co210 2.244 . S
O223 C213 1.272 . S
O223 Co215 2.135 . S
C224 C225 1.349 . S
C224 C226 1.327 . S
C224 H249 0.950 . S
C225 C224 1.349 . S
C225 C241 1.349 . S
C226 C224 1.327 . S
C226 C245 1.429 . S
C226 H250 0.950 . S
C227 C244 1.574 . S
C227 C246 1.368 . S
C227 H251 0.949 . S
H228 C232 0.949 . S
C229 C230 1.349 . S
C229 C231 1.327 . S
C229 H252 0.950 . S
C230 C229 1.349 . S
C230 C242 1.349 . S
C231 C229 1.327 . S
C231 C247 1.429 . S
C231 H253 0.950 . S
C232 H228 0.949 . S
C232 C240 1.574 . S
C232 C248 1.368 . S
H233 C241 0.950 . S
H234 C239 0.950 . S
H235 C240 0.949 . S
H236 C242 0.950 . S
H237 C243 0.950 . S
H238 C244 0.949 . S
C239 H234 0.950 . S
C239 C241 1.327 . S
C239 C245 1.429 . S
C240 C232 1.574 . S
C240 H235 0.949 . S
C240 C246 1.368 . S
C241 C225 1.349 . S
C241 H233 0.950 . S
C241 C239 1.327 . S
C242 C230 1.349 . S
C242 H236 0.950 . S
C242 C243 1.327 . S
C243 H237 0.950 . S
C243 C242 1.327 . S
C243 C247 1.429 . S
C244 C227 1.574 . S
C244 H238 0.949 . S
C244 C248 1.368 . S
C245 C226 1.429 . S
C245 C239 1.429 . S
C245 C246 1.523 . S
C246 C227 1.368 . S
C246 C240 1.368 . S
C246 C245 1.523 . S
C247 C231 1.429 . S
C247 C243 1.429 . S
C247 C248 1.523 . S
C248 C232 1.368 . S
C248 C244 1.368 . S
C248 C247 1.523 . S
H249 C224 0.950 . S
H250 C226 0.950 . S
H251 C227 0.949 . S
H252 C229 0.950 . S
H253 C231 0.950 . S
C254 C255 1.349 . S
C254 C256 1.327 . S
C254 H279 0.950 . S
C255 C254 1.349 . S
C255 C271 1.349 . S
C256 C254 1.327 . S
C256 C275 1.429 . S
C256 H280 0.950 . S
C257 C274 1.574 . S
C257 C276 1.368 . S
C257 H281 0.949 . S
H258 C262 0.949 . S
C259 C260 1.349 . S
C259 C261 1.327 . S
C259 H282 0.950 . S
C260 C259 1.349 . S
C260 C272 1.349 . S
C261 C259 1.327 . S
C261 C277 1.429 . S
C261 H283 0.950 . S
C262 H258 0.949 . S
C262 C270 1.574 . S
C262 C278 1.368 . S
H263 C271 0.950 . S
H264 C269 0.950 . S
H265 C270 0.949 . S
H266 C272 0.950 . S
H267 C273 0.950 . S
H268 C274 0.949 . S
C269 H264 0.950 . S
C269 C271 1.327 . S
C269 C275 1.429 . S
C270 C262 1.574 . S
C270 H265 0.949 . S
C270 C276 1.368 . S
C271 C255 1.349 . S
C271 H263 0.950 . S
C271 C269 1.327 . S
C272 C260 1.349 . S
C272 H266 0.950 . S
C272 C273 1.327 . S
C273 H267 0.950 . S
C273 C272 1.327 . S
C273 C277 1.429 . S
C274 C257 1.574 . S
C274 H268 0.949 . S
C274 C278 1.368 . S
C275 C256 1.429 . S
C275 C269 1.429 . S
C275 C276 1.523 . S
C276 C257 1.368 . S
C276 C270 1.368 . S
C276 C275 1.523 . S
C277 C261 1.429 . S
C277 C273 1.429 . S
C277 C278 1.523 . S
C278 C262 1.368 . S
C278 C274 1.368 . S
C278 C277 1.523 . S
H279 C254 0.950 . S
H280 C256 0.950 . S
H281 C257 0.949 . S
H282 C259 0.950 . S
H283 C261 0.950 . S
C284 C285 1.349 . S
C284 C286 1.327 . S
C284 H309 0.950 . S
C285 C284 1.349 . S
C285 C301 1.349 . S
C286 C284 1.327 . S
C286 C305 1.429 . S
C286 H310 0.950 . S
C287 C304 1.574 . S
C287 C306 1.368 . S
C287 H311 0.949 . S
H288 C292 0.949 . S
C289 C290 1.349 . S
C289 C291 1.327 . S
C289 H312 0.950 . S
C290 C289 1.349 . S
C290 C302 1.349 . S
C291 C289 1.327 . S
C291 C307 1.429 . S
C291 H313 0.950 . S
C292 H288 0.949 . S
C292 C300 1.574 . S
C292 C308 1.368 . S
H293 C301 0.950 . S
H294 C299 0.950 . S
H295 C300 0.949 . S
H296 C302 0.950 . S
H297 C303 0.950 . S
H298 C304 0.949 . S
C299 H294 0.950 . S
C299 C301 1.327 . S
C299 C305 1.429 . S
C300 C292 1.574 . S
C300 H295 0.949 . S
C300 C306 1.368 . S
C301 C285 1.349 . S
C301 H293 0.950 . S
C301 C299 1.327 . S
C302 C290 1.349 . S
C302 H296 0.950 . S
C302 C303 1.327 . S
C303 H297 0.950 . S
C303 C302 1.327 . S
C303 C307 1.429 . S
C304 C287 1.574 . S
C304 H298 0.949 . S
C304 C308 1.368 . S
C305 C286 1.429 . S
C305 C299 1.429 . S
C305 C306 1.523 . S
C306 C287 1.368 . S
C306 C300 1.368 . S
C306 C305 1.523 . S
C307 C291 1.429 . S
C307 C303 1.429 . S
C307 C308 1.523 . S
C308 C292 1.368 . S
C308 C304 1.368 . S
C308 C307 1.523 . S
H309 C284 0.950 . S
H310 C286 0.950 . S
H311 C287 0.949 . S
H312 C289 0.950 . S
H313 C291 0.950 . S
C314 C315 1.349 . S
C314 C316 1.327 . S
C314 H339 0.950 . S
C315 C314 1.349 . S
C315 C331 1.349 . S
C316 C314 1.327 . S
C316 C335 1.429 . S
C316 H340 0.950 . S
C317 C334 1.574 . S
C317 C336 1.368 . S
C317 H341 0.949 . S
H318 C322 0.949 . S
C319 C320 1.349 . S
C319 C321 1.327 . S
C319 H342 0.950 . S
C320 C319 1.349 . S
C320 C332 1.349 . S
C321 C319 1.327 . S
C321 C337 1.429 . S
C321 H343 0.950 . S
C322 H318 0.949 . S
C322 C330 1.574 . S
C322 C338 1.368 . S
H323 C331 0.950 . S
H324 C329 0.950 . S
H325 C330 0.949 . S
H326 C332 0.950 . S
H327 C333 0.950 . S
H328 C334 0.949 . S
C329 H324 0.950 . S
C329 C331 1.327 . S
C329 C335 1.429 . S
C330 C322 1.574 . S
C330 H325 0.949 . S
C330 C336 1.368 . S
C331 C315 1.349 . S
C331 H323 0.950 . S
C331 C329 1.327 . S
C332 C320 1.349 . S
C332 H326 0.950 . S
C332 C333 1.327 . S
C333 H327 0.950 . S
C333 C332 1.327 . S
C333 C337 1.429 . S
C334 C317 1.574 . S
C334 H328 0.949 . S
C334 C338 1.368 . S
C335 C316 1.429 . S
C335 C329 1.429 . S
C335 C336 1.523 . S
C336 C317 1.368 . S
C336 C330 1.368 . S
C336 C335 1.523 . S
C337 C321 1.429 . S
C337 C333 1.429 . S
C337 C338 1.523 . S
C338 C322 1.368 . S
C338 C334 1.368 . S
C338 C337 1.523 . S
H339 C314 0.950 . S
H340 C316 0.950 . S
H341 C317 0.949 . S
H342 C319 0.950 . S
H343 C321 0.950 . S
C344 C345 1.349 . S
C344 C346 1.327 . S
C344 H369 0.950 . S
C345 C344 1.349 . S
C345 C361 1.349 . S
C346 C344 1.327 . S
C346 C365 1.429 . S
C346 H370 0.950 . S
C347 C364 1.574 . S
C347 C366 1.368 . S
C347 H371 0.949 . S
H348 C352 0.949 . S
C349 C350 1.349 . S
C349 C351 1.327 . S
C349 H372 0.950 . S
C350 C349 1.349 . S
C350 C362 1.349 . S
C351 C349 1.327 . S
C351 C367 1.429 . S
C351 H373 0.950 . S
C352 H348 0.949 . S
C352 C360 1.574 . S
C352 C368 1.368 . S
H353 C361 0.950 . S
H354 C359 0.950 . S
H355 C360 0.949 . S
H356 C362 0.950 . S
H357 C363 0.950 . S
H358 C364 0.949 . S
C359 H354 0.950 . S
C359 C361 1.327 . S
C359 C365 1.429 . S
C360 C352 1.574 . S
C360 H355 0.949 . S
C360 C366 1.368 . S
C361 C345 1.349 . S
C361 H353 0.950 . S
C361 C359 1.327 . S
C362 C350 1.349 . S
C362 H356 0.950 . S
C362 C363 1.327 . S
C363 H357 0.950 . S
C363 C362 1.327 . S
C363 C367 1.429 . S
C364 C347 1.574 . S
C364 H358 0.949 . S
C364 C368 1.368 . S
C365 C346 1.429 . S
C365 C359 1.429 . S
C365 C366 1.523 . S
C366 C347 1.368 . S
C366 C360 1.368 . S
C366 C365 1.523 . S
C367 C351 1.429 . S
C367 C363 1.429 . S
C367 C368 1.523 . S
C368 C352 1.368 . S
C368 C364 1.368 . S
C368 C367 1.523 . S
H369 C344 0.950 . S
H370 C346 0.950 . S
H371 C347 0.949 . S
H372 C349 0.950 . S
H373 C351 0.950 . S
C374 C375 1.349 . S
C374 C376 1.327 . S
C374 H399 0.950 . S
C375 C374 1.349 . S
C375 C391 1.349 . S
C376 C374 1.327 . S
C376 C395 1.429 . S
C376 H400 0.950 . S
C377 C394 1.574 . S
C377 C396 1.368 . S
C377 H401 0.949 . S
H378 C382 0.949 . S
C379 C380 1.349 . S
C379 C381 1.327 . S
C379 H402 0.950 . S
C380 C379 1.349 . S
C380 C392 1.349 . S
C381 C379 1.327 . S
C381 C397 1.429 . S
C381 H403 0.950 . S
C382 H378 0.949 . S
C382 C390 1.574 . S
C382 C398 1.368 . S
H383 C391 0.950 . S
H384 C389 0.950 . S
H385 C390 0.949 . S
H386 C392 0.950 . S
H387 C393 0.950 . S
H388 C394 0.949 . S
C389 H384 0.950 . S
C389 C391 1.327 . S
C389 C395 1.429 . S
C390 C382 1.574 . S
C390 H385 0.949 . S
C390 C396 1.368 . S
C391 C375 1.349 . S
C391 H383 0.950 . S
C391 C389 1.327 . S
C392 C380 1.349 . S
C392 H386 0.950 . S
C392 C393 1.327 . S
C393 H387 0.950 . S
C393 C392 1.327 . S
C393 C397 1.429 . S
C394 C377 1.574 . S
C394 H388 0.949 . S
C394 C398 1.368 . S
C395 C376 1.429 . S
C395 C389 1.429 . S
C395 C396 1.523 . S
C396 C377 1.368 . S
C396 C390 1.368 . S
C396 C395 1.523 . S
C397 C381 1.429 . S
C397 C393 1.429 . S
C397 C398 1.523 . S
C398 C382 1.368 . S
C398 C394 1.368 . S
C398 C397 1.523 . S
H399 C374 0.950 . S
H400 C376 0.950 . S
H401 C377 0.949 . S
H402 C379 0.950 . S
H403 C381 0.950 . S
C404 C405 1.349 . S
C404 C406 1.327 . S
C404 H429 0.950 . S
C405 C404 1.349 . S
C405 C421 1.349 . S
C406 C404 1.327 . S
C406 C425 1.429 . S
C406 H430 0.950 . S
C407 C424 1.574 . S
C407 C426 1.368 . S
C407 H431 0.949 . S
H408 C412 0.949 . S
C409 C410 1.349 . S
C409 C411 1.327 . S
C409 H432 0.950 . S
C410 C409 1.349 . S
C410 C422 1.349 . S
C411 C409 1.327 . S
C411 C427 1.429 . S
C411 H433 0.950 . S
C412 H408 0.949 . S
C412 C420 1.574 . S
C412 C428 1.368 . S
H413 C421 0.950 . S
H414 C419 0.950 . S
H415 C420 0.949 . S
H416 C422 0.950 . S
H417 C423 0.950 . S
H418 C424 0.949 . S
C419 H414 0.950 . S
C419 C421 1.327 . S
C419 C425 1.429 . S
C420 C412 1.574 . S
C420 H415 0.949 . S
C420 C426 1.368 . S
C421 C405 1.349 . S
C421 H413 0.950 . S
C421 C419 1.327 . S
C422 C410 1.349 . S
C422 H416 0.950 . S
C422 C423 1.327 . S
C423 H417 0.950 . S
C423 C422 1.327 . S
C423 C427 1.429 . S
C424 C407 1.574 . S
C424 H418 0.949 . S
C424 C428 1.368 . S
C425 C406 1.429 . S
C425 C419 1.429 . S
C425 C426 1.523 . S
C426 C407 1.368 . S
C426 C420 1.368 . S
C426 C425 1.523 . S
C427 C411 1.429 . S
C427 C423 1.429 . S
C427 C428 1.523 . S
C428 C412 1.368 . S
C428 C424 1.368 . S
C428 C427 1.523 . S
H429 C404 0.950 . S
H430 C406 0.950 . S
H431 C407 0.949 . S
H432 C409 0.950 . S
H433 C411 0.950 . S
C434 C435 1.349 . S
C434 C436 1.327 . S
C434 H459 0.950 . S
C435 C434 1.349 . S
C435 C451 1.349 . S
C436 C434 1.327 . S
C436 C455 1.429 . S
C436 H460 0.950 . S
C437 C454 1.574 . S
C437 C456 1.368 . S
C437 H461 0.949 . S
H438 C442 0.949 . S
C439 C440 1.349 . S
C439 C441 1.327 . S
C439 H462 0.950 . S
C440 C439 1.349 . S
C440 C452 1.349 . S
C441 C439 1.327 . S
C441 C457 1.429 . S
C441 H463 0.950 . S
C442 H438 0.949 . S
C442 C450 1.574 . S
C442 C458 1.368 . S
H443 C451 0.950 . S
H444 C449 0.950 . S
H445 C450 0.949 . S
H446 C452 0.950 . S
H447 C453 0.950 . S
H448 C454 0.949 . S
C449 H444 0.950 . S
C449 C451 1.327 . S
C449 C455 1.429 . S
C450 C442 1.574 . S
C450 H445 0.949 . S
C450 C456 1.368 . S
C451 C435 1.349 . S
C451 H443 0.950 . S
C451 C449 1.327 . S
C452 C440 1.349 . S
C452 H446 0.950 . S
C452 C453 1.327 . S
C453 H447 0.950 . S
C453 C452 1.327 . S
C453 C457 1.429 . S
C454 C437 1.574 . S
C454 H448 0.949 . S
C454 C458 1.368 . S
C455 C436 1.429 . S
C455 C449 1.429 . S
C455 C456 1.523 . S
C456 C437 1.368 . S
C456 C450 1.368 . S
C456 C455 1.523 . S
C457 C441 1.429 . S
C457 C453 1.429 . S
C457 C458 1.523 . S
C458 C442 1.368 . S
C458 C454 1.368 . S
C458 C457 1.523 . S
H459 C434 0.950 . S
H460 C436 0.950 . S
H461 C437 0.949 . S
H462 C439 0.950 . S
H463 C441 0.950 . S
C464 C465 1.349 . S
C464 C466 1.327 . S
C464 H489 0.950 . S
C465 C464 1.349 . S
C465 C481 1.349 . S
C466 C464 1.327 . S
C466 C485 1.429 . S
C466 H490 0.950 . S
C467 C484 1.574 1_556 S
C467 C486 1.368 . S
C467 H491 0.949 . S
H468 C472 0.949 . S
C469 C470 1.349 . S
C469 C471 1.327 . S
C469 H492 0.950 . S
C470 C469 1.349 . S
C470 C482 1.349 . S
C471 C469 1.327 . S
C471 C487 1.429 . S
C471 H493 0.950 . S
C472 H468 0.949 . S
C472 C480 1.574 1_554 S
C472 C488 1.368 . S
H473 C481 0.950 . S
H474 C479 0.950 . S
H475 C480 0.949 . S
H476 C482 0.950 . S
H477 C483 0.950 . S
H478 C484 0.949 . S
C479 H474 0.950 . S
C479 C481 1.327 . S
C479 C485 1.429 . S
C480 C472 1.574 1_556 S
C480 H475 0.949 . S
C480 C486 1.368 . S
C481 C465 1.349 . S
C481 H473 0.950 . S
C481 C479 1.327 . S
C482 C470 1.349 . S
C482 H476 0.950 . S
C482 C483 1.327 . S
C483 H477 0.950 . S
C483 C482 1.327 . S
C483 C487 1.429 . S
C484 C467 1.574 1_554 S
C484 H478 0.949 . S
C484 C488 1.368 . S
C485 C466 1.429 . S
C485 C479 1.429 . S
C485 C486 1.523 . S
C486 C467 1.368 . S
C486 C480 1.368 . S
C486 C485 1.523 . S
C487 C471 1.429 . S
C487 C483 1.429 . S
C487 C488 1.523 . S
C488 C472 1.368 . S
C488 C484 1.368 . S
C488 C487 1.523 . S
H489 C464 0.950 . S
H490 C466 0.950 . S
H491 C467 0.949 . S
H492 C469 0.950 . S
H493 C471 0.950 . S
C494 C495 1.349 . S
C494 C496 1.327 . S
C494 H519 0.950 . S
C495 C494 1.349 . S
C495 C511 1.349 . S
C496 C494 1.327 . S
C496 C515 1.429 . S
C496 H520 0.950 . S
C497 C514 1.574 1_556 S
C497 C516 1.368 . S
C497 H521 0.949 . S
H498 C502 0.949 . S
C499 C500 1.349 . S
C499 C501 1.327 . S
C499 H522 0.950 . S
C500 C499 1.349 . S
C500 C512 1.349 . S
C501 C499 1.327 . S
C501 C517 1.429 . S
C501 H523 0.950 . S
C502 H498 0.949 . S
C502 C510 1.574 1_554 S
C502 C518 1.368 . S
H503 C511 0.950 . S
H504 C509 0.950 . S
H505 C510 0.949 . S
H506 C512 0.950 . S
H507 C513 0.950 . S
H508 C514 0.949 . S
C509 H504 0.950 . S
C509 C511 1.327 . S
C509 C515 1.429 . S
C510 C502 1.574 1_556 S
C510 H505 0.949 . S
C510 C516 1.368 . S
C511 C495 1.349 . S
C511 H503 0.950 . S
C511 C509 1.327 . S
C512 C500 1.349 . S
C512 H506 0.950 . S
C512 C513 1.327 . S
C513 H507 0.950 . S
C513 C512 1.327 . S
C513 C517 1.429 . S
C514 C497 1.574 1_554 S
C514 H508 0.949 . S
C514 C518 1.368 . S
C515 C496 1.429 . S
C515 C509 1.429 . S
C515 C516 1.523 . S
C516 C497 1.368 . S
C516 C510 1.368 . S
C516 C515 1.523 . S
C517 C501 1.429 . S
C517 C513 1.429 . S
C517 C518 1.523 . S
C518 C502 1.368 . S
C518 C514 1.368 . S
C518 C517 1.523 . S
H519 C494 0.950 . S
H520 C496 0.950 . S
H521 C497 0.949 . S
H522 C499 0.950 . S
H523 C501 0.950 . S
C524 C525 1.349 . S
C524 C526 1.327 . S
C524 H549 0.950 . S
C525 C524 1.349 . S
C525 C541 1.349 . S
C526 C524 1.327 . S
C526 C545 1.429 . S
C526 H550 0.950 . S
C527 C544 1.574 1_556 S
C527 C546 1.368 . S
C527 H551 0.949 . S
H528 C532 0.949 . S
C529 C530 1.349 . S
C529 C531 1.327 . S
C529 H552 0.950 . S
C530 C529 1.349 . S
C530 C542 1.349 . S
C531 C529 1.327 . S
C531 C547 1.429 . S
C531 H553 0.950 . S
C532 H528 0.949 . S
C532 C540 1.574 1_554 S
C532 C548 1.368 . S
H533 C541 0.950 . S
H534 C539 0.950 . S
H535 C540 0.949 . S
H536 C542 0.950 . S
H537 C543 0.950 . S
H538 C544 0.949 . S
C539 H534 0.950 . S
C539 C541 1.327 . S
C539 C545 1.429 . S
C540 C532 1.574 1_556 S
C540 H535 0.949 . S
C540 C546 1.368 . S
C541 C525 1.349 . S
C541 H533 0.950 . S
C541 C539 1.327 . S
C542 C530 1.349 . S
C542 H536 0.950 . S
C542 C543 1.327 . S
C543 H537 0.950 . S
C543 C542 1.327 . S
C543 C547 1.429 . S
C544 C527 1.574 1_554 S
C544 H538 0.949 . S
C544 C548 1.368 . S
C545 C526 1.429 . S
C545 C539 1.429 . S
C545 C546 1.523 . S
C546 C527 1.368 . S
C546 C540 1.368 . S
C546 C545 1.523 . S
C547 C531 1.429 . S
C547 C543 1.429 . S
C547 C548 1.523 . S
C548 C532 1.368 . S
C548 C544 1.368 . S
C548 C547 1.523 . S
H549 C524 0.950 . S
H550 C526 0.950 . S
H551 C527 0.949 . S
H552 C529 0.950 . S
H553 C531 0.950 . S
C554 C555 1.349 . S
C554 C556 1.327 . S
C554 H579 0.950 . S
C555 C554 1.349 . S
C555 C571 1.349 . S
C556 C554 1.327 . S
C556 C575 1.429 . S
C556 H580 0.950 . S
C557 C574 1.574 1_554 S
C557 C576 1.368 . S
C557 H581 0.949 . S
H558 C562 0.949 . S
C559 C560 1.349 . S
C559 C561 1.327 . S
C559 H582 0.950 . S
C560 C559 1.349 . S
C560 C572 1.349 . S
C561 C559 1.327 . S
C561 C577 1.429 . S
C561 H583 0.950 . S
C562 H558 0.949 . S
C562 C570 1.574 1_556 S
C562 C578 1.368 . S
H563 C571 0.950 . S
H564 C569 0.950 . S
H565 C570 0.949 . S
H566 C572 0.950 . S
H567 C573 0.950 . S
H568 C574 0.949 . S
C569 H564 0.950 . S
C569 C571 1.327 . S
C569 C575 1.429 . S
C570 C562 1.574 1_554 S
C570 H565 0.949 . S
C570 C576 1.368 . S
C571 C555 1.349 . S
C571 H563 0.950 . S
C571 C569 1.327 . S
C572 C560 1.349 . S
C572 H566 0.950 . S
C572 C573 1.327 . S
C573 H567 0.950 . S
C573 C572 1.327 . S
C573 C577 1.429 . S
C574 C557 1.574 1_556 S
C574 H568 0.949 . S
C574 C578 1.368 . S
C575 C556 1.429 . S
C575 C569 1.429 . S
C575 C576 1.523 . S
C576 C557 1.368 . S
C576 C570 1.368 . S
C576 C575 1.523 . S
C577 C561 1.429 . S
C577 C573 1.429 . S
C577 C578 1.523 . S
C578 C562 1.368 . S
C578 C574 1.368 . S
C578 C577 1.523 . S
H579 C554 0.950 . S
H580 C556 0.950 . S
H581 C557 0.949 . S
H582 C559 0.950 . S
H583 C561 0.950 . S
C584 C585 1.349 . S
C584 C586 1.327 . S
C584 H609 0.950 . S
C585 C584 1.349 . S
C585 C601 1.349 . S
C586 C584 1.327 . S
C586 C605 1.429 . S
C586 H610 0.950 . S
C587 C604 1.574 . S
C587 C606 1.368 . S
C587 H611 0.949 . S
H588 C592 0.949 . S
C589 C590 1.349 . S
C589 C591 1.327 . S
C589 H612 0.950 . S
C590 C589 1.349 . S
C590 C602 1.349 . S
C591 C589 1.327 . S
C591 C607 1.429 . S
C591 H613 0.950 . S
C592 H588 0.949 . S
C592 C600 1.574 . S
C592 C608 1.368 . S
H593 C601 0.950 . S
H594 C599 0.950 . S
H595 C600 0.949 . S
H596 C602 0.950 . S
H597 C603 0.950 . S
H598 C604 0.949 . S
C599 H594 0.950 . S
C599 C601 1.327 . S
C599 C605 1.429 . S
C600 C592 1.574 . S
C600 H595 0.949 . S
C600 C606 1.368 . S
C601 C585 1.349 . S
C601 H593 0.950 . S
C601 C599 1.327 . S
C602 C590 1.349 . S
C602 H596 0.950 . S
C602 C603 1.327 . S
C603 H597 0.950 . S
C603 C602 1.327 . S
C603 C607 1.429 . S
C604 C587 1.574 . S
C604 H598 0.949 . S
C604 C608 1.368 . S
C605 C586 1.429 . S
C605 C599 1.429 . S
C605 C606 1.523 . S
C606 C587 1.368 . S
C606 C600 1.368 . S
C606 C605 1.523 . S
C607 C591 1.429 . S
C607 C603 1.429 . S
C607 C608 1.523 . S
C608 C592 1.368 . S
C608 C604 1.368 . S
C608 C607 1.523 . S
H609 C584 0.950 . S
H610 C586 0.950 . S
H611 C587 0.949 . S
H612 C589 0.950 . S
H613 C591 0.950 . S
C614 C615 1.349 . S
C614 C616 1.327 . S
C614 H639 0.950 . S
C615 C614 1.349 . S
C615 C631 1.349 . S
C616 C614 1.327 . S
C616 C635 1.429 . S
C616 H640 0.950 . S
C617 C634 1.574 . S
C617 C636 1.368 . S
C617 H641 0.949 . S
H618 C622 0.949 . S
C619 C620 1.349 . S
C619 C621 1.327 . S
C619 H642 0.950 . S
C620 C619 1.349 . S
C620 C632 1.349 . S
C621 C619 1.327 . S
C621 C637 1.429 . S
C621 H643 0.950 . S
C622 H618 0.949 . S
C622 C630 1.574 . S
C622 C638 1.368 . S
H623 C631 0.950 . S
H624 C629 0.950 . S
H625 C630 0.949 . S
H626 C632 0.950 . S
H627 C633 0.950 . S
H628 C634 0.949 . S
C629 H624 0.950 . S
C629 C631 1.327 . S
C629 C635 1.429 . S
C630 C622 1.574 . S
C630 H625 0.949 . S
C630 C636 1.368 . S
C631 C615 1.349 . S
C631 H623 0.950 . S
C631 C629 1.327 . S
C632 C620 1.349 . S
C632 H626 0.950 . S
C632 C633 1.327 . S
C633 H627 0.950 . S
C633 C632 1.327 . S
C633 C637 1.429 . S
C634 C617 1.574 . S
C634 H628 0.949 . S
C634 C638 1.368 . S
C635 C616 1.429 . S
C635 C629 1.429 . S
C635 C636 1.523 . S
C636 C617 1.368 . S
C636 C630 1.368 . S
C636 C635 1.523 . S
C637 C621 1.429 . S
C637 C633 1.429 . S
C637 C638 1.523 . S
C638 C622 1.368 . S
C638 C634 1.368 . S
C638 C637 1.523 . S
H639 C614 0.950 . S
H640 C616 0.950 . S
H641 C617 0.949 . S
H642 C619 0.950 . S
H643 C621 0.950 . S
C644 C645 1.349 . S
C644 C646 1.327 . S
C644 H669 0.950 . S
C645 C644 1.349 . S
C645 C661 1.349 . S
C646 C644 1.327 . S
C646 C665 1.429 . S
C646 H670 0.950 . S
C647 C664 1.574 . S
C647 C666 1.368 . S
C647 H671 0.949 . S
H648 C652 0.949 . S
C649 C650 1.349 . S
C649 C651 1.327 . S
C649 H672 0.950 . S
C650 C649 1.349 . S
C650 C662 1.349 . S
C651 C649 1.327 . S
C651 C667 1.429 . S
C651 H673 0.950 . S
C652 H648 0.949 . S
C652 C660 1.574 . S
C652 C668 1.368 . S
H653 C661 0.950 . S
H654 C659 0.950 . S
H655 C660 0.949 . S
H656 C662 0.950 . S
H657 C663 0.950 . S
H658 C664 0.949 . S
C659 H654 0.950 . S
C659 C661 1.327 . S
C659 C665 1.429 . S
C660 C652 1.574 . S
C660 H655 0.949 . S
C660 C666 1.368 . S
C661 C645 1.349 . S
C661 H653 0.950 . S
C661 C659 1.327 . S
C662 C650 1.349 . S
C662 H656 0.950 . S
C662 C663 1.327 . S
C663 H657 0.950 . S
C663 C662 1.327 . S
C663 C667 1.429 . S
C664 C647 1.574 . S
C664 H658 0.949 . S
C664 C668 1.368 . S
C665 C646 1.429 . S
C665 C659 1.429 . S
C665 C666 1.523 . S
C666 C647 1.368 . S
C666 C660 1.368 . S
C666 C665 1.523 . S
C667 C651 1.429 . S
C667 C663 1.429 . S
C667 C668 1.523 . S
C668 C652 1.368 . S
C668 C664 1.368 . S
C668 C667 1.523 . S
H669 C644 0.950 . S
H670 C646 0.950 . S
H671 C647 0.949 . S
H672 C649 0.950 . S
H673 C651 0.950 . S
C674 C675 1.349 . S
C674 C676 1.327 . S
C674 H699 0.950 . S
C675 C674 1.349 . S
C675 C691 1.349 . S
C676 C674 1.327 . S
C676 C695 1.429 . S
C676 H700 0.950 . S
C677 C694 1.574 . S
C677 C696 1.368 . S
C677 H701 0.949 . S
H678 C682 0.949 . S
C679 C680 1.349 . S
C679 C681 1.327 . S
C679 H702 0.950 . S
C680 C679 1.349 . S
C680 C692 1.349 . S
C681 C679 1.327 . S
C681 C697 1.429 . S
C681 H703 0.950 . S
C682 H678 0.949 . S
C682 C690 1.574 . S
C682 C698 1.368 . S
H683 C691 0.950 . S
H684 C689 0.950 . S
H685 C690 0.949 . S
H686 C692 0.950 . S
H687 C693 0.950 . S
H688 C694 0.949 . S
C689 H684 0.950 . S
C689 C691 1.327 . S
C689 C695 1.429 . S
C690 C682 1.574 . S
C690 H685 0.949 . S
C690 C696 1.368 . S
C691 C675 1.349 . S
C691 H683 0.950 . S
C691 C689 1.327 . S
C692 C680 1.349 . S
C692 H686 0.950 . S
C692 C693 1.327 . S
C693 H687 0.950 . S
C693 C692 1.327 . S
C693 C697 1.429 . S
C694 C677 1.574 . S
C694 H688 0.949 . S
C694 C698 1.368 . S
C695 C676 1.429 . S
C695 C689 1.429 . S
C695 C696 1.523 . S
C696 C677 1.368 . S
C696 C690 1.368 . S
C696 C695 1.523 . S
C697 C681 1.429 . S
C697 C693 1.429 . S
C697 C698 1.523 . S
C698 C682 1.368 . S
C698 C694 1.368 . S
C698 C697 1.523 . S
H699 C674 0.950 . S
H700 C676 0.950 . S
H701 C677 0.949 . S
H702 C679 0.950 . S
H703 C681 0.950 . S
C704 C705 1.349 . S
C704 C706 1.327 . S
C704 H729 0.950 . S
C705 C704 1.349 . S
C705 C721 1.349 . S
C706 C704 1.327 . S
C706 C725 1.429 . S
C706 H730 0.950 . S
C707 C724 1.574 . S
C707 C726 1.368 . S
C707 H731 0.949 . S
H708 C712 0.949 . S
C709 C710 1.349 . S
C709 C711 1.327 . S
C709 H732 0.950 . S
C710 C709 1.349 . S
C710 C722 1.349 . S
C711 C709 1.327 . S
C711 C727 1.429 . S
C711 H733 0.950 . S
C712 H708 0.949 . S
C712 C720 1.574 . S
C712 C728 1.368 . S
H713 C721 0.950 . S
H714 C719 0.950 . S
H715 C720 0.949 . S
H716 C722 0.950 . S
H717 C723 0.950 . S
H718 C724 0.949 . S
C719 H714 0.950 . S
C719 C721 1.327 . S
C719 C725 1.429 . S
C720 C712 1.574 . S
C720 H715 0.949 . S
C720 C726 1.368 . S
C721 C705 1.349 . S
C721 H713 0.950 . S
C721 C719 1.327 . S
C722 C710 1.349 . S
C722 H716 0.950 . S
C722 C723 1.327 . S
C723 H717 0.950 . S
C723 C722 1.327 . S
C723 C727 1.429 . S
C724 C707 1.574 . S
C724 H718 0.949 . S
C724 C728 1.368 . S
C725 C706 1.429 . S
C725 C719 1.429 . S
C725 C726 1.523 . S
C726 C707 1.368 . S
C726 C720 1.368 . S
C726 C725 1.523 . S
C727 C711 1.429 . S
C727 C723 1.429 . S
C727 C728 1.523 . S
C728 C712 1.368 . S
C728 C724 1.368 . S
C728 C727 1.523 . S
H729 C704 0.950 . S
H730 C706 0.950 . S
H731 C707 0.949 . S
H732 C709 0.950 . S
H733 C711 0.950 . S
C734 C735 1.349 . S
C734 C736 1.327 . S
C734 H759 0.950 . S
C735 C734 1.349 . S
C735 C751 1.349 . S
C736 C734 1.327 . S
C736 C755 1.429 . S
C736 H760 0.950 . S
C737 C754 1.574 . S
C737 C756 1.368 . S
C737 H761 0.949 . S
H738 C742 0.949 . S
C739 C740 1.349 . S
C739 C741 1.327 . S
C739 H762 0.950 . S
C740 C739 1.349 . S
C740 C752 1.349 . S
C741 C739 1.327 . S
C741 C757 1.429 . S
C741 H763 0.950 . S
C742 H738 0.949 . S
C742 C750 1.574 . S
C742 C758 1.368 . S
H743 C751 0.950 . S
H744 C749 0.950 . S
H745 C750 0.949 . S
H746 C752 0.950 . S
H747 C753 0.950 . S
H748 C754 0.949 . S
C749 H744 0.950 . S
C749 C751 1.327 . S
C749 C755 1.429 . S
C750 C742 1.574 . S
C750 H745 0.949 . S
C750 C756 1.368 . S
C751 C735 1.349 . S
C751 H743 0.950 . S
C751 C749 1.327 . S
C752 C740 1.349 . S
C752 H746 0.950 . S
C752 C753 1.327 . S
C753 H747 0.950 . S
C753 C752 1.327 . S
C753 C757 1.429 . S
C754 C737 1.574 . S
C754 H748 0.949 . S
C754 C758 1.368 . S
C755 C736 1.429 . S
C755 C749 1.429 . S
C755 C756 1.523 . S
C756 C737 1.368 . S
C756 C750 1.368 . S
C756 C755 1.523 . S
C757 C741 1.429 . S
C757 C753 1.429 . S
C757 C758 1.523 . S
C758 C742 1.368 . S
C758 C754 1.368 . S
C758 C757 1.523 . S
H759 C734 0.950 . S
H760 C736 0.950 . S
H761 C737 0.949 . S
H762 C739 0.950 . S
H763 C741 0.950 . S
C764 C765 1.349 . S
C764 C766 1.327 . S
C764 H789 0.950 . S
C765 C764 1.349 . S
C765 C781 1.349 . S
C766 C764 1.327 . S
C766 C785 1.429 . S
C766 H790 0.950 . S
C767 C784 1.574 . S
C767 C786 1.368 . S
C767 H791 0.949 . S
H768 C772 0.949 . S
C769 C770 1.349 . S
C769 C771 1.327 . S
C769 H792 0.950 . S
C770 C769 1.349 . S
C770 C782 1.349 . S
C771 C769 1.327 . S
C771 C787 1.429 . S
C771 H793 0.950 . S
C772 H768 0.949 . S
C772 C780 1.574 . S
C772 C788 1.368 . S
H773 C781 0.950 . S
H774 C779 0.950 . S
H775 C780 0.949 . S
H776 C782 0.950 . S
H777 C783 0.950 . S
H778 C784 0.949 . S
C779 H774 0.950 . S
C779 C781 1.327 . S
C779 C785 1.429 . S
C780 C772 1.574 . S
C780 H775 0.949 . S
C780 C786 1.368 . S
C781 C765 1.349 . S
C781 H773 0.950 . S
C781 C779 1.327 . S
C782 C770 1.349 . S
C782 H776 0.950 . S
C782 C783 1.327 . S
C783 H777 0.950 . S
C783 C782 1.327 . S
C783 C787 1.429 . S
C784 C767 1.574 . S
C784 H778 0.949 . S
C784 C788 1.368 . S
C785 C766 1.429 . S
C785 C779 1.429 . S
C785 C786 1.523 . S
C786 C767 1.368 . S
C786 C780 1.368 . S
C786 C785 1.523 . S
C787 C771 1.429 . S
C787 C783 1.429 . S
C787 C788 1.523 . S
C788 C772 1.368 . S
C788 C784 1.368 . S
C788 C787 1.523 . S
H789 C764 0.950 . S
H790 C766 0.950 . S
H791 C767 0.949 . S
H792 C769 0.950 . S
H793 C771 0.950 . S
C794 C795 1.349 . S
C794 C796 1.327 . S
C794 H819 0.950 . S
C795 C794 1.349 . S
C795 C811 1.349 . S
C796 C794 1.327 . S
C796 C815 1.429 . S
C796 H820 0.950 . S
C797 C814 1.574 . S
C797 C816 1.368 . S
C797 H821 0.949 . S
H798 C802 0.949 . S
C799 C800 1.349 . S
C799 C801 1.327 . S
C799 H822 0.950 . S
C800 C799 1.349 . S
C800 C812 1.349 . S
C801 C799 1.327 . S
C801 C817 1.429 . S
C801 H823 0.950 . S
C802 H798 0.949 . S
C802 C810 1.574 . S
C802 C818 1.368 . S
H803 C811 0.950 . S
H804 C809 0.950 . S
H805 C810 0.949 . S
H806 C812 0.950 . S
H807 C813 0.950 . S
H808 C814 0.949 . S
C809 H804 0.950 . S
C809 C811 1.327 . S
C809 C815 1.429 . S
C810 C802 1.574 . S
C810 H805 0.949 . S
C810 C816 1.368 . S
C811 C795 1.349 . S
C811 H803 0.950 . S
C811 C809 1.327 . S
C812 C800 1.349 . S
C812 H806 0.950 . S
C812 C813 1.327 . S
C813 H807 0.950 . S
C813 C812 1.327 . S
C813 C817 1.429 . S
C814 C797 1.574 . S
C814 H808 0.949 . S
C814 C818 1.368 . S
C815 C796 1.429 . S
C815 C809 1.429 . S
C815 C816 1.523 . S
C816 C797 1.368 . S
C816 C810 1.368 . S
C816 C815 1.523 . S
C817 C801 1.429 . S
C817 C813 1.429 . S
C817 C818 1.523 . S
C818 C802 1.368 . S
C818 C814 1.368 . S
C818 C817 1.523 . S
H819 C794 0.950 . S
H820 C796 0.950 . S
H821 C797 0.949 . S
H822 C799 0.950 . S
H823 C801 0.950 . S
C824 C825 1.349 . S
C824 C826 1.327 . S
C824 H849 0.950 . S
C825 C824 1.349 . S
C825 C841 1.349 . S
C826 C824 1.327 . S
C826 C845 1.429 . S
C826 H850 0.950 . S
C827 C844 1.574 . S
C827 C846 1.368 . S
C827 H851 0.949 . S
H828 C832 0.949 . S
C829 C830 1.349 . S
C829 C831 1.327 . S
C829 H852 0.950 . S
C830 C829 1.349 . S
C830 C842 1.349 . S
C831 C829 1.327 . S
C831 C847 1.429 . S
C831 H853 0.950 . S
C832 H828 0.949 . S
C832 C840 1.574 . S
C832 C848 1.368 . S
H833 C841 0.950 . S
H834 C839 0.950 . S
H835 C840 0.949 . S
H836 C842 0.950 . S
H837 C843 0.950 . S
H838 C844 0.949 . S
C839 H834 0.950 . S
C839 C841 1.327 . S
C839 C845 1.429 . S
C840 C832 1.574 . S
C840 H835 0.949 . S
C840 C846 1.368 . S
C841 C825 1.349 . S
C841 H833 0.950 . S
C841 C839 1.327 . S
C842 C830 1.349 . S
C842 H836 0.950 . S
C842 C843 1.327 . S
C843 H837 0.950 . S
C843 C842 1.327 . S
C843 C847 1.429 . S
C844 C827 1.574 . S
C844 H838 0.949 . S
C844 C848 1.368 . S
C845 C826 1.429 . S
C845 C839 1.429 . S
C845 C846 1.523 . S
C846 C827 1.368 . S
C846 C840 1.368 . S
C846 C845 1.523 . S
C847 C831 1.429 . S
C847 C843 1.429 . S
C847 C848 1.523 . S
C848 C832 1.368 . S
C848 C844 1.368 . S
C848 C847 1.523 . S
H849 C824 0.950 . S
H850 C826 0.950 . S
H851 C827 0.949 . S
H852 C829 0.950 . S
H853 C831 0.950 . S
C854 C855 1.349 . S
C854 C856 1.327 . S
C854 H879 0.950 . S
C855 C854 1.349 . S
C855 C871 1.349 . S
C856 C854 1.327 . S
C856 C875 1.429 . S
C856 H880 0.950 . S
C857 C874 1.574 . S
C857 C876 1.368 . S
C857 H881 0.949 . S
H858 C862 0.949 . S
C859 C860 1.349 . S
C859 C861 1.327 . S
C859 H882 0.950 . S
C860 C859 1.349 . S
C860 C872 1.349 . S
C861 C859 1.327 . S
C861 C877 1.429 . S
C861 H883 0.950 . S
C862 H858 0.949 . S
C862 C870 1.574 . S
C862 C878 1.368 . S
H863 C871 0.950 . S
H864 C869 0.950 . S
H865 C870 0.949 . S
H866 C872 0.950 . S
H867 C873 0.950 . S
H868 C874 0.949 . S
C869 H864 0.950 . S
C869 C871 1.327 . S
C869 C875 1.429 . S
C870 C862 1.574 . S
C870 H865 0.949 . S
C870 C876 1.368 . S
C871 C855 1.349 . S
C871 H863 0.950 . S
C871 C869 1.327 . S
C872 C860 1.349 . S
C872 H866 0.950 . S
C872 C873 1.327 . S
C873 H867 0.950 . S
C873 C872 1.327 . S
C873 C877 1.429 . S
C874 C857 1.574 . S
C874 H868 0.949 . S
C874 C878 1.368 . S
C875 C856 1.429 . S
C875 C869 1.429 . S
C875 C876 1.523 . S
C876 C857 1.368 . S
C876 C870 1.368 . S
C876 C875 1.523 . S
C877 C861 1.429 . S
C877 C873 1.429 . S
C877 C878 1.523 . S
C878 C862 1.368 . S
C878 C874 1.368 . S
C878 C877 1.523 . S
H879 C854 0.950 . S
H880 C856 0.950 . S
H881 C857 0.949 . S
H882 C859 0.950 . S
H883 C861 0.950 . S
C884 C885 1.349 . S
C884 C886 1.327 . S
C884 H909 0.950 . S
C885 C884 1.349 . S
C885 C901 1.349 . S
C886 C884 1.327 . S
C886 C905 1.429 . S
C886 H910 0.950 . S
C887 C904 1.574 . S
C887 C906 1.368 . S
C887 H911 0.949 . S
H888 C892 0.949 . S
C889 C890 1.349 . S
C889 C891 1.327 . S
C889 H912 0.950 . S
C890 C889 1.349 . S
C890 C902 1.349 . S
C891 C889 1.327 . S
C891 C907 1.429 . S
C891 H913 0.950 . S
C892 H888 0.949 . S
C892 C900 1.574 . S
C892 C908 1.368 . S
H893 C901 0.950 . S
H894 C899 0.950 . S
H895 C900 0.949 . S
H896 C902 0.950 . S
H897 C903 0.950 . S
H898 C904 0.949 . S
C899 H894 0.950 . S
C899 C901 1.327 . S
C899 C905 1.429 . S
C900 C892 1.574 . S
C900 H895 0.949 . S
C900 C906 1.368 . S
C901 C885 1.349 . S
C901 H893 0.950 . S
C901 C899 1.327 . S
C902 C890 1.349 . S
C902 H896 0.950 . S
C902 C903 1.327 . S
C903 H897 0.950 . S
C903 C902 1.327 . S
C903 C907 1.429 . S
C904 C887 1.574 . S
C904 H898 0.949 . S
C904 C908 1.368 . S
C905 C886 1.429 . S
C905 C899 1.429 . S
C905 C906 1.523 . S
C906 C887 1.368 . S
C906 C900 1.368 . S
C906 C905 1.523 . S
C907 C891 1.429 . S
C907 C903 1.429 . S
C907 C908 1.523 . S
C908 C892 1.368 . S
C908 C904 1.368 . S
C908 C907 1.523 . S
H909 C884 0.950 . S
H910 C886 0.950 . S
H911 C887 0.949 . S
H912 C889 0.950 . S
H913 C891 0.950 . S
C914 C915 1.349 . S
C914 C916 1.327 . S
C914 H939 0.950 . S
C915 C914 1.349 . S
C915 C931 1.349 . S
C916 C914 1.327 . S
C916 C935 1.429 . S
C916 H940 0.950 . S
C917 C934 1.574 . S
C917 C936 1.368 . S
C917 H941 0.949 . S
H918 C922 0.949 . S
C919 C920 1.349 . S
C919 C921 1.327 . S
C919 H942 0.950 . S
C920 C919 1.349 . S
C920 C932 1.349 . S
C921 C919 1.327 . S
C921 C937 1.429 . S
C921 H943 0.950 . S
C922 H918 0.949 . S
C922 C930 1.574 . S
C922 C938 1.368 . S
H923 C931 0.950 . S
H924 C929 0.950 . S
H925 C930 0.949 . S
H926 C932 0.950 . S
H927 C933 0.950 . S
H928 C934 0.949 . S
C929 H924 0.950 . S
C929 C931 1.327 . S
C929 C935 1.429 . S
C930 C922 1.574 . S
C930 H925 0.949 . S
C930 C936 1.368 . S
C931 C915 1.349 . S
C931 H923 0.950 . S
C931 C929 1.327 . S
C932 C920 1.349 . S
C932 H926 0.950 . S
C932 C933 1.327 . S
C933 H927 0.950 . S
C933 C932 1.327 . S
C933 C937 1.429 . S
C934 C917 1.574 . S
C934 H928 0.949 . S
C934 C938 1.368 . S
C935 C916 1.429 . S
C935 C929 1.429 . S
C935 C936 1.523 . S
C936 C917 1.368 . S
C936 C930 1.368 . S
C936 C935 1.523 . S
C937 C921 1.429 . S
C937 C933 1.429 . S
C937 C938 1.523 . S
C938 C922 1.368 . S
C938 C934 1.368 . S
C938 C937 1.523 . S
H939 C914 0.950 . S
H940 C916 0.950 . S
H941 C917 0.949 . S
H942 C919 0.950 . S
H943 C921 0.950 . S
C944 C945 1.349 . S
C944 C946 1.327 . S
C944 H969 0.950 . S
C945 C944 1.349 . S
C945 C961 1.349 . S
C946 C944 1.327 . S
C946 C965 1.429 . S
C946 H970 0.950 . S
C947 C964 1.574 1_545 S
C947 C966 1.368 . S
C947 H971 0.949 . S
H948 C952 0.949 . S
C949 C950 1.349 . S
C949 C951 1.327 . S
C949 H972 0.950 . S
C950 C949 1.349 . S
C950 C962 1.349 . S
C951 C949 1.327 . S
C951 C967 1.429 . S
C951 H973 0.950 . S
C952 H948 0.949 . S
C952 C960 1.574 1_565 S
C952 C968 1.368 . S
H953 C961 0.950 . S
H954 C959 0.950 . S
H955 C960 0.949 . S
H956 C962 0.950 . S
H957 C963 0.950 . S
H958 C964 0.949 . S
C959 H954 0.950 . S
C959 C961 1.327 . S
C959 C965 1.429 . S
C960 C952 1.574 1_545 S
C960 H955 0.949 . S
C960 C966 1.368 . S
C961 C945 1.349 . S
C961 H953 0.950 . S
C961 C959 1.327 . S
C962 C950 1.349 . S
C962 H956 0.950 . S
C962 C963 1.327 . S
C963 H957 0.950 . S
C963 C962 1.327 . S
C963 C967 1.429 . S
C964 C947 1.574 1_565 S
C964 H958 0.949 . S
C964 C968 1.368 . S
C965 C946 1.429 . S
C965 C959 1.429 . S
C965 C966 1.523 . S
C966 C947 1.368 . S
C966 C960 1.368 . S
C966 C965 1.523 . S
C967 C951 1.429 . S
C967 C963 1.429 . S
C967 C968 1.523 . S
C968 C952 1.368 . S
C968 C964 1.368 . S
C968 C967 1.523 . S
H969 C944 0.950 . S
H970 C946 0.950 . S
H971 C947 0.949 . S
H972 C949 0.950 . S
H973 C951 0.950 . S
C974 C975 1.349 . S
C974 C976 1.327 . S
C974 H999 0.950 . S
C975 C974 1.349 . S
C975 C991 1.349 . S
C976 C974 1.327 . S
C976 C995 1.429 . S
C976 H1000 0.950 . S
C977 C994 1.574 1_655 S
C977 C996 1.368 . S
C977 H1001 0.949 . S
H978 C982 0.949 . S
C979 C980 1.349 . S
C979 C981 1.327 . S
C979 H1002 0.950 . S
C980 C979 1.349 . S
C980 C992 1.349 . S
C981 C979 1.327 . S
C981 C997 1.429 . S
C981 H1003 0.950 . S
C982 H978 0.949 . S
C982 C990 1.574 1_455 S
C982 C998 1.368 . S
H983 C991 0.950 . S
H984 C989 0.950 . S
H985 C990 0.949 . S
H986 C992 0.950 . S
H987 C993 0.950 . S
H988 C994 0.949 . S
C989 H984 0.950 . S
C989 C991 1.327 . S
C989 C995 1.429 . S
C990 C982 1.574 1_655 S
C990 H985 0.949 . S
C990 C996 1.368 . S
C991 C975 1.349 . S
C991 H983 0.950 . S
C991 C989 1.327 . S
C992 C980 1.349 . S
C992 H986 0.950 . S
C992 C993 1.327 . S
C993 H987 0.950 . S
C993 C992 1.327 . S
C993 C997 1.429 . S
C994 C977 1.574 1_455 S
C994 H988 0.949 . S
C994 C998 1.368 . S
C995 C976 1.429 . S
C995 C989 1.429 . S
C995 C996 1.523 . S
C996 C977 1.368 . S
C996 C990 1.368 . S
C996 C995 1.523 . S
C997 C981 1.429 . S
C997 C993 1.429 . S
C997 C998 1.523 . S
C998 C982 1.368 . S
C998 C994 1.368 . S
C998 C997 1.523 . S
H999 C974 0.950 . S
H1000 C976 0.950 . S
H1001 C977 0.949 . S
H1002 C979 0.950 . S
H1003 C981 0.950 . S
C1004 C1005 1.349 . S
C1004 C1006 1.327 . S
C1004 H1029 0.950 . S
C1005 C1004 1.349 . S
C1005 C1021 1.349 . S
C1006 C1004 1.327 . S
C1006 C1025 1.429 . S
C1006 H1030 0.950 . S
C1007 C1024 1.574 1_545 S
C1007 C1026 1.368 . S
C1007 H1031 0.949 . S
H1008 C1012 0.949 . S
C1009 C1010 1.349 . S
C1009 C1011 1.327 . S
C1009 H1032 0.950 . S
C1010 C1009 1.349 . S
C1010 C1022 1.349 . S
C1011 C1009 1.327 . S
C1011 C1027 1.429 . S
C1011 H1033 0.950 . S
C1012 H1008 0.949 . S
C1012 C1020 1.574 1_565 S
C1012 C1028 1.368 . S
H1013 C1021 0.950 . S
H1014 C1019 0.950 . S
H1015 C1020 0.949 . S
H1016 C1022 0.950 . S
H1017 C1023 0.950 . S
H1018 C1024 0.949 . S
C1019 H1014 0.950 . S
C1019 C1021 1.327 . S
C1019 C1025 1.429 . S
C1020 C1012 1.574 1_545 S
C1020 H1015 0.949 . S
C1020 C1026 1.368 . S
C1021 C1005 1.349 . S
C1021 H1013 0.950 . S
C1021 C1019 1.327 . S
C1022 C1010 1.349 . S
C1022 H1016 0.950 . S
C1022 C1023 1.327 . S
C1023 H1017 0.950 . S
C1023 C1022 1.327 . S
C1023 C1027 1.429 . S
C1024 C1007 1.574 1_565 S
C1024 H1018 0.949 . S
C1024 C1028 1.368 . S
C1025 C1006 1.429 . S
C1025 C1019 1.429 . S
C1025 C1026 1.523 . S
C1026 C1007 1.368 . S
C1026 C1020 1.368 . S
C1026 C1025 1.523 . S
C1027 C1011 1.429 . S
C1027 C1023 1.429 . S
C1027 C1028 1.523 . S
C1028 C1012 1.368 . S
C1028 C1024 1.368 . S
C1028 C1027 1.523 . S
H1029 C1004 0.950 . S
H1030 C1006 0.950 . S
H1031 C1007 0.949 . S
H1032 C1009 0.950 . S
H1033 C1011 0.950 . S
C1034 C1035 1.349 . S
C1034 C1036 1.327 . S
C1034 H1059 0.950 . S
C1035 C1034 1.349 . S
C1035 C1051 1.349 . S
C1036 C1034 1.327 . S
C1036 C1055 1.429 . S
C1036 H1060 0.950 . S
C1037 C1054 1.574 1_455 S
C1037 C1056 1.368 . S
C1037 H1061 0.949 . S
H1038 C1042 0.949 . S
C1039 C1040 1.349 . S
C1039 C1041 1.327 . S
C1039 H1062 0.950 . S
C1040 C1039 1.349 . S
C1040 C1052 1.349 . S
C1041 C1039 1.327 . S
C1041 C1057 1.429 . S
C1041 H1063 0.950 . S
C1042 H1038 0.949 . S
C1042 C1050 1.574 1_655 S
C1042 C1058 1.368 . S
H1043 C1051 0.950 . S
H1044 C1049 0.950 . S
H1045 C1050 0.949 . S
H1046 C1052 0.950 . S
H1047 C1053 0.950 . S
H1048 C1054 0.949 . S
C1049 H1044 0.950 . S
C1049 C1051 1.327 . S
C1049 C1055 1.429 . S
C1050 C1042 1.574 1_455 S
C1050 H1045 0.949 . S
C1050 C1056 1.368 . S
C1051 C1035 1.349 . S
C1051 H1043 0.950 . S
C1051 C1049 1.327 . S
C1052 C1040 1.349 . S
C1052 H1046 0.950 . S
C1052 C1053 1.327 . S
C1053 H1047 0.950 . S
C1053 C1052 1.327 . S
C1053 C1057 1.429 . S
C1054 C1037 1.574 1_655 S
C1054 H1048 0.949 . S
C1054 C1058 1.368 . S
C1055 C1036 1.429 . S
C1055 C1049 1.429 . S
C1055 C1056 1.523 . S
C1056 C1037 1.368 . S
C1056 C1050 1.368 . S
C1056 C1055 1.523 . S
C1057 C1041 1.429 . S
C1057 C1053 1.429 . S
C1057 C1058 1.523 . S
C1058 C1042 1.368 . S
C1058 C1054 1.368 . S
C1058 C1057 1.523 . S
H1059 C1034 0.950 . S
H1060 C1036 0.950 . S
H1061 C1037 0.949 . S
H1062 C1039 0.950 . S
H1063 C1041 0.950 . S
C1064 C1065 1.349 . S
C1064 C1066 1.327 . S
C1064 H1089 0.950 . S
C1065 C1064 1.349 . S
C1065 C1081 1.349 . S
C1066 C1064 1.327 . S
C1066 C1085 1.429 . S
C1066 H1090 0.950 . S
C1067 C1084 1.574 1_545 S
C1067 C1086 1.368 . S
C1067 H1091 0.949 . S
H1068 C1072 0.949 . S
C1069 C1070 1.349 . S
C1069 C1071 1.327 . S
C1069 H1092 0.950 . S
C1070 C1069 1.349 . S
C1070 C1082 1.349 . S
C1071 C1069 1.327 . S
C1071 C1087 1.429 . S
C1071 H1093 0.950 . S
C1072 H1068 0.949 . S
C1072 C1080 1.574 1_565 S
C1072 C1088 1.368 . S
H1073 C1081 0.950 . S
H1074 C1079 0.950 . S
H1075 C1080 0.949 . S
H1076 C1082 0.950 . S
H1077 C1083 0.950 . S
H1078 C1084 0.949 . S
C1079 H1074 0.950 . S
C1079 C1081 1.327 . S
C1079 C1085 1.429 . S
C1080 C1072 1.574 1_545 S
C1080 H1075 0.949 . S
C1080 C1086 1.368 . S
C1081 C1065 1.349 . S
C1081 H1073 0.950 . S
C1081 C1079 1.327 . S
C1082 C1070 1.349 . S
C1082 H1076 0.950 . S
C1082 C1083 1.327 . S
C1083 H1077 0.950 . S
C1083 C1082 1.327 . S
C1083 C1087 1.429 . S
C1084 C1067 1.574 1_565 S
C1084 H1078 0.949 . S
C1084 C1088 1.368 . S
C1085 C1066 1.429 . S
C1085 C1079 1.429 . S
C1085 C1086 1.523 . S
C1086 C1067 1.368 . S
C1086 C1080 1.368 . S
C1086 C1085 1.523 . S
C1087 C1071 1.429 . S
C1087 C1083 1.429 . S
C1087 C1088 1.523 . S
C1088 C1072 1.368 . S
C1088 C1084 1.368 . S
C1088 C1087 1.523 . S
H1089 C1064 0.950 . S
H1090 C1066 0.950 . S
H1091 C1067 0.949 . S
H1092 C1069 0.950 . S
H1093 C1071 0.950 . S
C1094 C1095 1.349 . S
C1094 C1096 1.327 . S
C1094 H1119 0.950 . S
C1095 C1094 1.349 . S
C1095 C1111 1.349 . S
C1096 C1094 1.327 . S
C1096 C1115 1.429 . S
C1096 H1120 0.950 . S
C1097 C1114 1.574 1_655 S
C1097 C1116 1.368 . S
C1097 H1121 0.949 . S
H1098 C1102 0.949 . S
C1099 C1100 1.349 . S
C1099 C1101 1.327 . S
C1099 H1122 0.950 . S
C1100 C1099 1.349 . S
C1100 C1112 1.349 . S
C1101 C1099 1.327 . S
C1101 C1117 1.429 . S
C1101 H1123 0.950 . S
C1102 H1098 0.949 . S
C1102 C1110 1.574 1_455 S
C1102 C1118 1.368 . S
H1103 C1111 0.950 . S
H1104 C1109 0.950 . S
H1105 C1110 0.949 . S
H1106 C1112 0.950 . S
H1107 C1113 0.950 . S
H1108 C1114 0.949 . S
C1109 H1104 0.950 . S
C1109 C1111 1.327 . S
C1109 C1115 1.429 . S
C1110 C1102 1.574 1_655 S
C1110 H1105 0.949 . S
C1110 C1116 1.368 . S
C1111 C1095 1.349 . S
C1111 H1103 0.950 . S
C1111 C1109 1.327 . S
C1112 C1100 1.349 . S
C1112 H1106 0.950 . S
C1112 C1113 1.327 . S
C1113 H1107 0.950 . S
C1113 C1112 1.327 . S
C1113 C1117 1.429 . S
C1114 C1097 1.574 1_455 S
C1114 H1108 0.949 . S
C1114 C1118 1.368 . S
C1115 C1096 1.429 . S
C1115 C1109 1.429 . S
C1115 C1116 1.523 . S
C1116 C1097 1.368 . S
C1116 C1110 1.368 . S
C1116 C1115 1.523 . S
C1117 C1101 1.429 . S
C1117 C1113 1.429 . S
C1117 C1118 1.523 . S
C1118 C1102 1.368 . S
C1118 C1114 1.368 . S
C1118 C1117 1.523 . S
H1119 C1094 0.950 . S
H1120 C1096 0.950 . S
H1121 C1097 0.949 . S
H1122 C1099 0.950 . S
H1123 C1101 0.950 . S
C1124 C1125 1.349 . S
C1124 C1126 1.327 . S
C1124 H1149 0.950 . S
C1125 C1124 1.349 . S
C1125 C1141 1.349 . S
C1126 C1124 1.327 . S
C1126 C1145 1.429 . S
C1126 H1150 0.950 . S
C1127 C1144 1.574 1_565 S
C1127 C1146 1.368 . S
C1127 H1151 0.949 . S
H1128 C1132 0.949 . S
C1129 C1130 1.349 . S
C1129 C1131 1.327 . S
C1129 H1152 0.950 . S
C1130 C1129 1.349 . S
C1130 C1142 1.349 . S
C1131 C1129 1.327 . S
C1131 C1147 1.429 . S
C1131 H1153 0.950 . S
C1132 H1128 0.949 . S
C1132 C1140 1.574 1_545 S
C1132 C1148 1.368 . S
H1133 C1141 0.950 . S
H1134 C1139 0.950 . S
H1135 C1140 0.949 . S
H1136 C1142 0.950 . S
H1137 C1143 0.950 . S
H1138 C1144 0.949 . S
C1139 H1134 0.950 . S
C1139 C1141 1.327 . S
C1139 C1145 1.429 . S
C1140 C1132 1.574 1_565 S
C1140 H1135 0.949 . S
C1140 C1146 1.368 . S
C1141 C1125 1.349 . S
C1141 H1133 0.950 . S
C1141 C1139 1.327 . S
C1142 C1130 1.349 . S
C1142 H1136 0.950 . S
C1142 C1143 1.327 . S
C1143 H1137 0.950 . S
C1143 C1142 1.327 . S
C1143 C1147 1.429 . S
C1144 C1127 1.574 1_545 S
C1144 H1138 0.949 . S
C1144 C1148 1.368 . S
C1145 C1126 1.429 . S
C1145 C1139 1.429 . S
C1145 C1146 1.523 . S
C1146 C1127 1.368 . S
C1146 C1140 1.368 . S
C1146 C1145 1.523 . S
C1147 C1131 1.429 . S
C1147 C1143 1.429 . S
C1147 C1148 1.523 . S
C1148 C1132 1.368 . S
C1148 C1144 1.368 . S
C1148 C1147 1.523 . S
H1149 C1124 0.950 . S
H1150 C1126 0.950 . S
H1151 C1127 0.949 . S
H1152 C1129 0.950 . S
H1153 C1131 0.950 . S
C1154 C1155 1.349 . S
C1154 C1156 1.327 . S
C1154 H1179 0.950 . S
C1155 C1154 1.349 . S
C1155 C1171 1.349 . S
C1156 C1154 1.327 . S
C1156 C1175 1.429 . S
C1156 H1180 0.950 . S
C1157 C1174 1.574 1_455 S
C1157 C1176 1.368 . S
C1157 H1181 0.949 . S
H1158 C1162 0.949 . S
C1159 C1160 1.349 . S
C1159 C1161 1.327 . S
C1159 H1182 0.950 . S
C1160 C1159 1.349 . S
C1160 C1172 1.349 . S
C1161 C1159 1.327 . S
C1161 C1177 1.429 . S
C1161 H1183 0.950 . S
C1162 H1158 0.949 . S
C1162 C1170 1.574 1_655 S
C1162 C1178 1.368 . S
H1163 C1171 0.950 . S
H1164 C1169 0.950 . S
H1165 C1170 0.949 . S
H1166 C1172 0.950 . S
H1167 C1173 0.950 . S
H1168 C1174 0.949 . S
C1169 H1164 0.950 . S
C1169 C1171 1.327 . S
C1169 C1175 1.429 . S
C1170 C1162 1.574 1_455 S
C1170 H1165 0.949 . S
C1170 C1176 1.368 . S
C1171 C1155 1.349 . S
C1171 H1163 0.950 . S
C1171 C1169 1.327 . S
C1172 C1160 1.349 . S
C1172 H1166 0.950 . S
C1172 C1173 1.327 . S
C1173 H1167 0.950 . S
C1173 C1172 1.327 . S
C1173 C1177 1.429 . S
C1174 C1157 1.574 1_655 S
C1174 H1168 0.949 . S
C1174 C1178 1.368 . S
C1175 C1156 1.429 . S
C1175 C1169 1.429 . S
C1175 C1176 1.523 . S
C1176 C1157 1.368 . S
C1176 C1170 1.368 . S
C1176 C1175 1.523 . S
C1177 C1161 1.429 . S
C1177 C1173 1.429 . S
C1177 C1178 1.523 . S
C1178 C1162 1.368 . S
C1178 C1174 1.368 . S
C1178 C1177 1.523 . S
H1179 C1154 0.950 . S
H1180 C1156 0.950 . S
H1181 C1157 0.949 . S
H1182 C1159 0.950 . S
H1183 C1161 0.950 . S
C225 C78 1.393 . S
C230 C8 1.393 . S
C255 C92 1.393 . S
C260 C22 1.393 . S
C285 C36 1.393 . S
C290 C106 1.393 . S
C315 C50 1.393 . S
C320 C64 1.393 . S
C345 C190 1.393 . S
C350 C120 1.393 . S
C375 C204 1.393 . S
C380 C134 1.393 . S
C405 C148 1.393 . S
C410 C218 1.393 . S
C435 C162 1.393 . S
C440 C176 1.393 . S
C465 C147 1.495 . S
C470 C7 1.495 . S
C495 C161 1.495 . S
C500 C21 1.495 . S
C525 C119 1.495 . S
C530 C35 1.495 . S
C555 C49 1.495 . S
C560 C133 1.495 . S
C585 C203 1.495 . S
C590 C63 1.495 . S
C615 C217 1.495 . S
C620 C77 1.495 . S
C645 C91 1.495 . S
C650 C175 1.495 . S
C675 C189 1.495 . S
C680 C105 1.495 . S
C705 C65 1.994 . S
C710 C9 1.994 . S
C735 C23 1.994 . S
C740 C79 1.994 . S
C765 C37 1.994 . S
C770 C93 1.994 . S
C795 C107 1.994 . S
C800 C51 1.994 . S
C825 C115 0.773 . S
C830 C171 0.773 . S
C855 C185 0.773 . S
C860 C129 0.773 . S
C885 C143 0.773 . S
C890 C199 0.773 . S
C915 C213 0.773 . S
C920 C157 0.773 . S
C945 C163 1.994 . S
C950 C191 1.994 . S
C975 C121 1.994 . S
C980 C205 1.994 . S
C1005 C219 1.994 . S
C1010 C135 1.994 . S
C1035 C149 1.994 . S
C1040 C177 1.994 . S
C1065 C73 0.773 . S
C1070 C45 0.773 . S
C1095 C87 0.773 . S
C1100 C3 0.773 . S
C1125 C101 0.773 . S
C1130 C17 0.773 . S
C1155 C59 0.773 . S
C1160 C31 0.773 . S
