# Generated by pormake.
# Topology sod-g, (3)-cn, num edge types: 1
# Building blocks:
#     Node 0, Type 0, BuildingBlock: WUSLED_clean_sbu_0, # of connection points: 3
#     Node 1, Type 0, BuildingBlock: WUSLED_clean_sbu_0, # of connection points: 3
#     Node 2, Type 0, BuildingBlock: WUSLED_clean_sbu_0, # of connection points: 3
#     Node 3, Type 0, BuildingBlock: WUSLED_clean_sbu_0, # of connection points: 3
#     Node 4, Type 0, BuildingBlock: WUSLED_clean_sbu_0, # of connection points: 3
#     Node 5, Type 0, BuildingBlock: WUSLED_clean_sbu_0, # of connection points: 3
#     Node 6, Type 0, BuildingBlock: WUSLED_clean_sbu_0, # of connection points: 3
#     Node 7, Type 0, BuildingBlock: WUSLED_clean_sbu_0, # of connection points: 3
#     Node 8, Type 0, BuildingBlock: WUSLED_clean_sbu_0, # of connection points: 3
#     Node 9, Type 0, BuildingBlock: WUSLED_clean_sbu_0, # of connection points: 3
#     Node 10, Type 0, BuildingBlock: WUSLED_clean_sbu_0, # of connection points: 3
#     Node 11, Type 0, BuildingBlock: WUSLED_clean_sbu_0, # of connection points: 3
#     Node 12, Type 0, BuildingBlock: WUSLED_clean_sbu_0, # of connection points: 3
#     Node 13, Type 0, BuildingBlock: WUSLED_clean_sbu_0, # of connection points: 3
#     Node 14, Type 0, BuildingBlock: WUSLED_clean_sbu_0, # of connection points: 3
#     Node 15, Type 0, BuildingBlock: WUSLED_clean_sbu_0, # of connection points: 3
#     Node 16, Type 0, BuildingBlock: WUSLED_clean_sbu_0, # of connection points: 3
#     Node 17, Type 0, BuildingBlock: WUSLED_clean_sbu_0, # of connection points: 3
#     Node 18, Type 0, BuildingBlock: WUSLED_clean_sbu_0, # of connection points: 3
#     Node 19, Type 0, BuildingBlock: WUSLED_clean_sbu_0, # of connection points: 3
#     Node 20, Type 0, BuildingBlock: WUSLED_clean_sbu_0, # of connection points: 3
#     Node 21, Type 0, BuildingBlock: WUSLED_clean_sbu_0, # of connection points: 3
#     Node 22, Type 0, BuildingBlock: WUSLED_clean_sbu_0, # of connection points: 3
#     Node 23, Type 0, BuildingBlock: WUSLED_clean_sbu_0, # of connection points: 3
#     Node 24, Type 0, BuildingBlock: WUSLED_clean_sbu_0, # of connection points: 3
#     Node 25, Type 0, BuildingBlock: WUSLED_clean_sbu_0, # of connection points: 3
#     Node 26, Type 0, BuildingBlock: WUSLED_clean_sbu_0, # of connection points: 3
#     Node 27, Type 0, BuildingBlock: WUSLED_clean_sbu_0, # of connection points: 3
#     Node 28, Type 0, BuildingBlock: WUSLED_clean_sbu_0, # of connection points: 3
#     Node 29, Type 0, BuildingBlock: WUSLED_clean_sbu_0, # of connection points: 3
#     Node 30, Type 0, BuildingBlock: WUSLED_clean_sbu_0, # of connection points: 3
#     Node 31, Type 0, BuildingBlock: WUSLED_clean_sbu_0, # of connection points: 3
#     Node 32, Type 0, BuildingBlock: WUSLED_clean_sbu_0, # of connection points: 3
#     Node 33, Type 0, BuildingBlock: WUSLED_clean_sbu_0, # of connection points: 3
#     Node 34, Type 0, BuildingBlock: WUSLED_clean_sbu_0, # of connection points: 3
#     Node 35, Type 0, BuildingBlock: WUSLED_clean_sbu_0, # of connection points: 3
#     Node 36, Type 0, BuildingBlock: WUSLED_clean_sbu_0, # of connection points: 3
#     Node 37, Type 0, BuildingBlock: WUSLED_clean_sbu_0, # of connection points: 3
#     Node 38, Type 0, BuildingBlock: WUSLED_clean_sbu_0, # of connection points: 3
#     Node 39, Type 0, BuildingBlock: WUSLED_clean_sbu_0, # of connection points: 3
#     Node 40, Type 0, BuildingBlock: WUSLED_clean_sbu_0, # of connection points: 3
#     Node 41, Type 0, BuildingBlock: WUSLED_clean_sbu_0, # of connection points: 3
#     Node 42, Type 0, BuildingBlock: WUSLED_clean_sbu_0, # of connection points: 3
#     Node 43, Type 0, BuildingBlock: WUSLED_clean_sbu_0, # of connection points: 3
#     Node 44, Type 0, BuildingBlock: WUSLED_clean_sbu_0, # of connection points: 3
#     Node 45, Type 0, BuildingBlock: WUSLED_clean_sbu_0, # of connection points: 3
#     Node 46, Type 0, BuildingBlock: WUSLED_clean_sbu_0, # of connection points: 3
#     Node 47, Type 0, BuildingBlock: WUSLED_clean_sbu_0, # of connection points: 3
#     Edge 48, Type (0, 0), BuildingBlock: OJICUG_clean_linker_0, # of connection points: 2
#     Edge 49, Type (0, 0), BuildingBlock: OJICUG_clean_linker_0, # of connection points: 2
#     Edge 50, Type (0, 0), BuildingBlock: OJICUG_clean_linker_0, # of connection points: 2
#     Edge 51, Type (0, 0), BuildingBlock: OJICUG_clean_linker_0, # of connection points: 2
#     Edge 52, Type (0, 0), BuildingBlock: OJICUG_clean_linker_0, # of connection points: 2
#     Edge 53, Type (0, 0), BuildingBlock: OJICUG_clean_linker_0, # of connection points: 2
#     Edge 54, Type (0, 0), BuildingBlock: OJICUG_clean_linker_0, # of connection points: 2
#     Edge 55, Type (0, 0), BuildingBlock: OJICUG_clean_linker_0, # of connection points: 2
#     Edge 56, Type (0, 0), BuildingBlock: OJICUG_clean_linker_0, # of connection points: 2
#     Edge 57, Type (0, 0), BuildingBlock: OJICUG_clean_linker_0, # of connection points: 2
#     Edge 58, Type (0, 0), BuildingBlock: OJICUG_clean_linker_0, # of connection points: 2
#     Edge 59, Type (0, 0), BuildingBlock: OJICUG_clean_linker_0, # of connection points: 2
#     Edge 60, Type (0, 0), BuildingBlock: OJICUG_clean_linker_0, # of connection points: 2
#     Edge 61, Type (0, 0), BuildingBlock: OJICUG_clean_linker_0, # of connection points: 2
#     Edge 62, Type (0, 0), BuildingBlock: OJICUG_clean_linker_0, # of connection points: 2
#     Edge 63, Type (0, 0), BuildingBlock: OJICUG_clean_linker_0, # of connection points: 2
#     Edge 64, Type (0, 0), BuildingBlock: OJICUG_clean_linker_0, # of connection points: 2
#     Edge 65, Type (0, 0), BuildingBlock: OJICUG_clean_linker_0, # of connection points: 2
#     Edge 66, Type (0, 0), BuildingBlock: OJICUG_clean_linker_0, # of connection points: 2
#     Edge 67, Type (0, 0), BuildingBlock: OJICUG_clean_linker_0, # of connection points: 2
#     Edge 68, Type (0, 0), BuildingBlock: OJICUG_clean_linker_0, # of connection points: 2
#     Edge 69, Type (0, 0), BuildingBlock: OJICUG_clean_linker_0, # of connection points: 2
#     Edge 70, Type (0, 0), BuildingBlock: OJICUG_clean_linker_0, # of connection points: 2
#     Edge 71, Type (0, 0), BuildingBlock: OJICUG_clean_linker_0, # of connection points: 2
#     Edge 72, Type (0, 0), BuildingBlock: OJICUG_clean_linker_0, # of connection points: 2
#     Edge 73, Type (0, 0), BuildingBlock: OJICUG_clean_linker_0, # of connection points: 2
#     Edge 74, Type (0, 0), BuildingBlock: OJICUG_clean_linker_0, # of connection points: 2
#     Edge 75, Type (0, 0), BuildingBlock: OJICUG_clean_linker_0, # of connection points: 2
#     Edge 76, Type (0, 0), BuildingBlock: OJICUG_clean_linker_0, # of connection points: 2
#     Edge 77, Type (0, 0), BuildingBlock: OJICUG_clean_linker_0, # of connection points: 2
#     Edge 78, Type (0, 0), BuildingBlock: OJICUG_clean_linker_0, # of connection points: 2
#     Edge 79, Type (0, 0), BuildingBlock: OJICUG_clean_linker_0, # of connection points: 2
#     Edge 80, Type (0, 0), BuildingBlock: OJICUG_clean_linker_0, # of connection points: 2
#     Edge 81, Type (0, 0), BuildingBlock: OJICUG_clean_linker_0, # of connection points: 2
#     Edge 82, Type (0, 0), BuildingBlock: OJICUG_clean_linker_0, # of connection points: 2
#     Edge 83, Type (0, 0), BuildingBlock: OJICUG_clean_linker_0, # of connection points: 2
#     Edge 84, Type (0, 0), BuildingBlock: OJICUG_clean_linker_0, # of connection points: 2
#     Edge 85, Type (0, 0), BuildingBlock: OJICUG_clean_linker_0, # of connection points: 2
#     Edge 86, Type (0, 0), BuildingBlock: OJICUG_clean_linker_0, # of connection points: 2
#     Edge 87, Type (0, 0), BuildingBlock: OJICUG_clean_linker_0, # of connection points: 2
#     Edge 88, Type (0, 0), BuildingBlock: OJICUG_clean_linker_0, # of connection points: 2
#     Edge 89, Type (0, 0), BuildingBlock: OJICUG_clean_linker_0, # of connection points: 2
#     Edge 90, Type (0, 0), BuildingBlock: OJICUG_clean_linker_0, # of connection points: 2
#     Edge 91, Type (0, 0), BuildingBlock: OJICUG_clean_linker_0, # of connection points: 2
#     Edge 92, Type (0, 0), BuildingBlock: OJICUG_clean_linker_0, # of connection points: 2
#     Edge 93, Type (0, 0), BuildingBlock: OJICUG_clean_linker_0, # of connection points: 2
#     Edge 94, Type (0, 0), BuildingBlock: OJICUG_clean_linker_0, # of connection points: 2
#     Edge 95, Type (0, 0), BuildingBlock: OJICUG_clean_linker_0, # of connection points: 2
#     Edge 96, Type (0, 0), BuildingBlock: OJICUG_clean_linker_0, # of connection points: 2
#     Edge 97, Type (0, 0), BuildingBlock: OJICUG_clean_linker_0, # of connection points: 2
#     Edge 98, Type (0, 0), BuildingBlock: OJICUG_clean_linker_0, # of connection points: 2
#     Edge 99, Type (0, 0), BuildingBlock: OJICUG_clean_linker_0, # of connection points: 2
#     Edge 100, Type (0, 0), BuildingBlock: OJICUG_clean_linker_0, # of connection points: 2
#     Edge 101, Type (0, 0), BuildingBlock: OJICUG_clean_linker_0, # of connection points: 2
#     Edge 102, Type (0, 0), BuildingBlock: OJICUG_clean_linker_0, # of connection points: 2
#     Edge 103, Type (0, 0), BuildingBlock: OJICUG_clean_linker_0, # of connection points: 2
#     Edge 104, Type (0, 0), BuildingBlock: OJICUG_clean_linker_0, # of connection points: 2
#     Edge 105, Type (0, 0), BuildingBlock: OJICUG_clean_linker_0, # of connection points: 2
#     Edge 106, Type (0, 0), BuildingBlock: OJICUG_clean_linker_0, # of connection points: 2
#     Edge 107, Type (0, 0), BuildingBlock: OJICUG_clean_linker_0, # of connection points: 2
#     Edge 108, Type (0, 0), BuildingBlock: OJICUG_clean_linker_0, # of connection points: 2
#     Edge 109, Type (0, 0), BuildingBlock: OJICUG_clean_linker_0, # of connection points: 2
#     Edge 110, Type (0, 0), BuildingBlock: OJICUG_clean_linker_0, # of connection points: 2
#     Edge 111, Type (0, 0), BuildingBlock: OJICUG_clean_linker_0, # of connection points: 2
#     Edge 112, Type (0, 0), BuildingBlock: OJICUG_clean_linker_0, # of connection points: 2
#     Edge 113, Type (0, 0), BuildingBlock: OJICUG_clean_linker_0, # of connection points: 2
#     Edge 114, Type (0, 0), BuildingBlock: OJICUG_clean_linker_0, # of connection points: 2
#     Edge 115, Type (0, 0), BuildingBlock: OJICUG_clean_linker_0, # of connection points: 2
#     Edge 116, Type (0, 0), BuildingBlock: OJICUG_clean_linker_0, # of connection points: 2
#     Edge 117, Type (0, 0), BuildingBlock: OJICUG_clean_linker_0, # of connection points: 2
#     Edge 118, Type (0, 0), BuildingBlock: OJICUG_clean_linker_0, # of connection points: 2
#     Edge 119, Type (0, 0), BuildingBlock: OJICUG_clean_linker_0, # of connection points: 2
# Relax obj value: 0.190
# Max RMSD: 0.121
# Mean RMSD: 0.121
data_MOF--net-sod-g--node1-WUSLED_clean_sbu_0--edge1-OJICUG_clean_linker_0
_symmetry_space_group_name_H-M    P1
_symmetry_Int_Tables_number       1
_symmetry_cell_setting            triclinic
loop_
_symmetry_equiv_pos_as_xyz
'x, y, z'
_cell_length_a     117.35009
_cell_length_b     117.41509
_cell_length_c     117.39085
_cell_angle_alpha  89.997888
_cell_angle_beta   90.000695
_cell_angle_gamma 90.013358
loop_
_atom_site_label
_atom_site_type_symbol
_atom_site_fract_x
_atom_site_fract_y
_atom_site_fract_z
_atom_type_partial_charge
C0 C 0.07916 0.44841 0.20718 0.0
C1 C 0.06814 0.4495 0.2117 0.0
C2 C 0.07468 0.44132 0.22961 0.0
C3 C 0.0659 0.44589 0.22287 0.0
C4 C 0.08556 0.43992 0.22493 0.0
C5 C 0.08776 0.44338 0.21377 0.0
U6 U 0.07499 0.46536 0.17877 0.0
O7 O 0.08727 0.47825 0.17297 0.0
O8 O 0.08436 0.46269 0.16262 0.0
C9 C 0.09029 0.47208 0.16414 0.0
C10 C 0.08245 0.45349 0.19623 0.0
C11 C 0.0966 0.47738 0.15479 0.0
C12 C 0.1151 0.48211 0.14693 0.0
C13 C 0.10846 0.47617 0.15476 0.0
C14 C 0.09802 0.49034 0.13875 0.0
C15 C 0.11002 0.48952 0.13899 0.0
C16 C 0.09135 0.48433 0.14664 0.0
C17 C 0.04319 0.47627 0.17315 0.0
C18 C 0.03364 0.49152 0.16284 0.0
C19 C 0.02289 0.47921 0.17544 0.0
C20 C 0.03272 0.47306 0.17785 0.0
C21 C 0.02328 0.48873 0.16823 0.0
C22 C 0.04361 0.48536 0.16536 0.0
C23 C 0.05335 0.4707 0.17788 0.0
O24 O 0.07859 0.44874 0.18686 0.0
O25 O 0.08238 0.46465 0.1959 0.0
O26 O 0.06103 0.47708 0.18294 0.0
O27 O 0.05751 0.4616 0.17284 0.0
H28 H 0.06142 0.45346 0.20676 0.0
H29 H 0.05745 0.44706 0.22641 0.0
H30 H 0.09243 0.43641 0.23 0.0
H31 H 0.09632 0.44253 0.21042 0.0
H32 H 0.12426 0.481 0.14722 0.0
H33 H 0.11265 0.47084 0.16103 0.0
H34 H 0.09381 0.49598 0.13279 0.0
H35 H 0.08218 0.48536 0.1466 0.0
H36 H 0.03415 0.49885 0.15726 0.0
H37 H 0.01502 0.47682 0.17965 0.0
H38 H 0.03223 0.4661 0.1839 0.0
H39 H 0.05166 0.48796 0.16166 0.0
C40 C 0.55875 0.07861 0.20717 0.0
C41 C 0.55655 0.06792 0.21203 0.0
C42 C 0.56608 0.07383 0.22957 0.0
C43 C 0.56022 0.06553 0.22314 0.0
C44 C 0.56869 0.08431 0.22439 0.0
C45 C 0.56503 0.08666 0.21332 0.0
U46 U 0.5413 0.07472 0.17917 0.0
O47 O 0.52774 0.08672 0.17396 0.0
O48 O 0.54303 0.08413 0.16304 0.0
C49 C 0.53346 0.0897 0.16482 0.0
C50 C 0.55345 0.08223 0.19642 0.0
C51 C 0.52829 0.09657 0.15577 0.0
C52 C 0.51987 0.11457 0.15019 0.0
C53 C 0.52543 0.10786 0.15825 0.0
C54 C 0.52026 0.09883 0.13685 0.0
C55 C 0.51714 0.11016 0.13937 0.0
C56 C 0.52577 0.09207 0.14501 0.0
C57 C 0.53082 0.04288 0.17343 0.0
C58 C 0.51554 0.03342 0.16305 0.0
C59 C 0.52791 0.02256 0.17552 0.0
C60 C 0.53405 0.03237 0.17801 0.0
C61 C 0.51836 0.02302 0.16834 0.0
C62 C 0.52171 0.04337 0.16566 0.0
C63 C 0.53642 0.05298 0.17825 0.0
O64 O 0.55805 0.07868 0.18685 0.0
O65 O 0.54227 0.08202 0.1963 0.0
O66 O 0.53006 0.06046 0.18363 0.0
O67 O 0.54527 0.05739 0.17298 0.0
H68 H 0.55162 0.06161 0.20743 0.0
H69 H 0.55798 0.0574 0.22687 0.0
H70 H 0.57337 0.09081 0.22896 0.0
H71 H 0.56677 0.09498 0.20971 0.0
H72 H 0.51745 0.12312 0.15263 0.0
H73 H 0.52731 0.11146 0.16654 0.0
H74 H 0.51846 0.09516 0.12859 0.0
H75 H 0.52794 0.08334 0.14299 0.0
H76 H 0.50819 0.03397 0.1575 0.0
H77 H 0.53031 0.01467 0.17964 0.0
H78 H 0.54103 0.03183 0.18404 0.0
H79 H 0.51909 0.05144 0.16205 0.0
C80 C 0.92813 0.55847 0.20694 0.0
C81 C 0.93939 0.55788 0.21089 0.0
C82 C 0.9333 0.56503 0.22949 0.0
C83 C 0.94197 0.56124 0.22206 0.0
C84 C 0.92212 0.56593 0.22524 0.0
C85 C 0.91961 0.56274 0.21409 0.0
U86 U 0.93212 0.54169 0.17859 0.0
O87 O 0.91984 0.52868 0.17298 0.0
O88 O 0.92283 0.54408 0.16237 0.0
C89 C 0.91689 0.53471 0.16403 0.0
C90 C 0.92462 0.55357 0.196 0.0
C91 C 0.91054 0.52935 0.15475 0.0
C92 C 0.89223 0.52254 0.14808 0.0
C93 C 0.89869 0.52868 0.1559 0.0
C94 C 0.90938 0.5181 0.13744 0.0
C95 C 0.89752 0.51699 0.13892 0.0
C96 C 0.9159 0.5242 0.1454 0.0
C97 C 0.96389 0.53069 0.1732 0.0
C98 C 0.97335 0.51539 0.16289 0.0
C99 C 0.98416 0.52764 0.1755 0.0
C100 C 0.97437 0.53384 0.17791 0.0
C101 C 0.98372 0.51813 0.16829 0.0
C102 C 0.96341 0.52161 0.16542 0.0
C103 C 0.95376 0.53634 0.17789 0.0
O104 O 0.9285 0.55831 0.18663 0.0
O105 O 0.92458 0.54241 0.19563 0.0
O106 O 0.94605 0.53 0.18297 0.0
O107 O 0.94963 0.54539 0.17274 0.0
H108 H 0.94608 0.55456 0.20548 0.0
H109 H 0.95072 0.56066 0.22492 0.0
H110 H 0.91516 0.56863 0.23065 0.0
H111 H 0.91085 0.56314 0.21119 0.0
H112 H 0.8831 0.52196 0.14931 0.0
H113 H 0.89443 0.53264 0.16307 0.0
H114 H 0.91363 0.51387 0.13043 0.0
H115 H 0.92507 0.52463 0.14444 0.0
H116 H 0.9728 0.50806 0.15731 0.0
H117 H 0.99204 0.52999 0.17971 0.0
H118 H 0.97489 0.5408 0.18395 0.0
H119 H 0.95535 0.51905 0.16171 0.0
C120 C 0.44872 0.92753 0.2068 0.0
C121 C 0.44943 0.93878 0.21077 0.0
C122 C 0.44198 0.93284 0.22931 0.0
C123 C 0.446 0.94143 0.22191 0.0
C124 C 0.44091 0.92169 0.22503 0.0
C125 C 0.44419 0.9191 0.21391 0.0
U126 U 0.46589 0.93209 0.17893 0.0
O127 O 0.47964 0.92064 0.17309 0.0
O128 O 0.46429 0.92352 0.16226 0.0
C129 C 0.47414 0.91834 0.16361 0.0
C130 C 0.45384 0.92392 0.19594 0.0
C131 C 0.47878 0.91061 0.15497 0.0
C132 C 0.48702 0.89233 0.15001 0.0
C133 C 0.48155 0.89938 0.15787 0.0
C134 C 0.48667 0.90757 0.13611 0.0
C135 C 0.48985 0.89637 0.13904 0.0
C136 C 0.48121 0.91462 0.14401 0.0
C137 C 0.47606 0.96395 0.17374 0.0
C138 C 0.49141 0.97314 0.16321 0.0
C139 C 0.47924 0.98424 0.17564 0.0
C140 C 0.47298 0.97453 0.17824 0.0
C141 C 0.48876 0.9836 0.16844 0.0
C142 C 0.48512 0.96329 0.16591 0.0
C143 C 0.47039 0.95395 0.1787 0.0
O144 O 0.4492 0.92768 0.18646 0.0
O145 O 0.46502 0.92406 0.19574 0.0
O146 O 0.47681 0.94642 0.18393 0.0
O147 O 0.46158 0.94954 0.17337 0.0
H148 H 0.45294 0.94541 0.20539 0.0
H149 H 0.44671 0.95017 0.22477 0.0
H150 H 0.43802 0.91478 0.23041 0.0
H151 H 0.44367 0.91035 0.21101 0.0
H152 H 0.4894 0.88386 0.15275 0.0
H153 H 0.4797 0.89615 0.16631 0.0
H154 H 0.48844 0.91098 0.12773 0.0
H155 H 0.47915 0.9233 0.14166 0.0
H156 H 0.49874 0.97245 0.15763 0.0
H157 H 0.47696 0.99219 0.17973 0.0
H158 H 0.46604 0.97521 0.18429 0.0
H159 H 0.48762 0.95515 0.16234 0.0
C160 C 0.07929 0.5583 0.79964 0.0
C161 C 0.0681 0.5581 0.79543 0.0
C162 C 0.07481 0.56558 0.77723 0.0
C163 C 0.06586 0.56183 0.78429 0.0
C164 C 0.08589 0.56611 0.78167 0.0
C165 C 0.08809 0.56255 0.79278 0.0
U166 U 0.07505 0.54138 0.82812 0.0
O167 O 0.0874 0.5286 0.83395 0.0
O168 O 0.08447 0.54419 0.84423 0.0
C169 C 0.09045 0.53483 0.84273 0.0
C170 C 0.08247 0.55321 0.81062 0.0
C171 C 0.09661 0.52948 0.85217 0.0
C172 C 0.11499 0.52513 0.86051 0.0
C173 C 0.10841 0.53109 0.85264 0.0
C174 C 0.09794 0.51609 0.86785 0.0
C175 C 0.1099 0.51733 0.86805 0.0
C176 C 0.09133 0.52211 0.85991 0.0
C177 C 0.04326 0.53042 0.83385 0.0
C178 C 0.0337 0.51517 0.84416 0.0
C179 C 0.02295 0.52752 0.83159 0.0
C180 C 0.03279 0.53365 0.82917 0.0
C181 C 0.02334 0.51798 0.83879 0.0
C182 C 0.04368 0.52133 0.84162 0.0
C183 C 0.05343 0.53598 0.8291 0.0
O184 O 0.07857 0.55797 0.81997 0.0
O185 O 0.08239 0.54205 0.81096 0.0
O186 O 0.06111 0.52958 0.82405 0.0
O187 O 0.05758 0.54512 0.83408 0.0
H188 H 0.06121 0.55477 0.8006 0.0
H189 H 0.05724 0.56131 0.78103 0.0
H190 H 0.09291 0.56908 0.77646 0.0
H191 H 0.09678 0.56274 0.79591 0.0
H192 H 0.12411 0.52655 0.86057 0.0
H193 H 0.11262 0.53674 0.84667 0.0
H194 H 0.09373 0.51013 0.87349 0.0
H195 H 0.0822 0.52075 0.8596 0.0
H196 H 0.0342 0.50784 0.84973 0.0
H197 H 0.01508 0.52992 0.82739 0.0
H198 H 0.03231 0.54062 0.82313 0.0
H199 H 0.05173 0.5187 0.84531 0.0
C200 C 0.44878 0.07824 0.79973 0.0
C201 C 0.45225 0.06812 0.79444 0.0
C202 C 0.44152 0.07327 0.77736 0.0
C203 C 0.44865 0.06566 0.78334 0.0
C204 C 0.43767 0.08312 0.78299 0.0
C205 C 0.4413 0.08558 0.79404 0.0
U206 U 0.46601 0.07553 0.82806 0.0
O207 O 0.47856 0.08836 0.83334 0.0
O208 O 0.46321 0.08536 0.84388 0.0
C209 C 0.4724 0.09154 0.84212 0.0
C210 C 0.45386 0.08215 0.81046 0.0
C211 C 0.47806 0.09728 0.85162 0.0
C212 C 0.48335 0.11532 0.86014 0.0
C213 C 0.47739 0.10917 0.85195 0.0
C214 C 0.49056 0.09767 0.86807 0.0
C215 C 0.49008 0.10968 0.86829 0.0
C216 C 0.48461 0.09149 0.85974 0.0
C217 C 0.47711 0.04369 0.83404 0.0
C218 C 0.49213 0.0337 0.84429 0.0
C219 C 0.47978 0.02341 0.83133 0.0
C220 C 0.47381 0.03338 0.82907 0.0
C221 C 0.48923 0.0235 0.83866 0.0
C222 C 0.48613 0.04382 0.84191 0.0
C223 C 0.47166 0.05404 0.82958 0.0
O224 O 0.44925 0.07859 0.82002 0.0
O225 O 0.46504 0.08232 0.81072 0.0
O226 O 0.478 0.06165 0.82435 0.0
O227 O 0.46254 0.0582 0.83459 0.0
H228 H 0.45809 0.06238 0.79869 0.0
H229 H 0.45191 0.05805 0.77928 0.0
H230 H 0.43199 0.08907 0.77881 0.0
H231 H 0.43859 0.09346 0.798 0.0
H232 H 0.48294 0.12453 0.85984 0.0
H233 H 0.47245 0.11376 0.84563 0.0
H234 H 0.49556 0.09306 0.87429 0.0
H235 H 0.48523 0.08229 0.85954 0.0
H236 H 0.49939 0.03399 0.84997 0.0
H237 H 0.4773 0.01568 0.82696 0.0
H238 H 0.46689 0.03313 0.82295 0.0
H239 H 0.4888 0.05173 0.84583 0.0
C240 C 0.9286 0.448 0.80005 0.0
C241 C 0.93846 0.45189 0.79451 0.0
C242 C 0.93306 0.44143 0.77745 0.0
C243 C 0.94064 0.44865 0.78324 0.0
C244 C 0.92354 0.43707 0.78321 0.0
C245 C 0.9213 0.4404 0.79442 0.0
U246 U 0.93205 0.46503 0.8283 0.0
O247 O 0.91963 0.478 0.83366 0.0
O248 O 0.92266 0.46276 0.84446 0.0
C249 C 0.91665 0.47206 0.84266 0.0
C250 C 0.92481 0.45295 0.8109 0.0
C251 C 0.91035 0.47755 0.8519 0.0
C252 C 0.89224 0.48511 0.85828 0.0
C253 C 0.89861 0.47901 0.85037 0.0
C254 C 0.9092 0.48795 0.86973 0.0
C255 C 0.89749 0.48984 0.86791 0.0
C256 C 0.91565 0.48188 0.8617 0.0
C257 C 0.96382 0.47613 0.83382 0.0
C258 C 0.97334 0.4914 0.84415 0.0
C259 C 0.98411 0.47916 0.8315 0.0
C260 C 0.97429 0.47298 0.82909 0.0
C261 C 0.98369 0.48866 0.83873 0.0
C262 C 0.96338 0.4852 0.84162 0.0
C263 C 0.95367 0.47047 0.82917 0.0
O264 O 0.92855 0.4483 0.82037 0.0
O265 O 0.92467 0.46411 0.81122 0.0
O266 O 0.94599 0.47676 0.82398 0.0
O267 O 0.94953 0.46144 0.83435 0.0
H268 H 0.94418 0.4578 0.7987 0.0
H269 H 0.94808 0.45203 0.77893 0.0
H270 H 0.91756 0.43154 0.77886 0.0
H271 H 0.91358 0.43743 0.79852 0.0
H272 H 0.88321 0.4863 0.85677 0.0
H273 H 0.8944 0.47566 0.84287 0.0
H274 H 0.91342 0.49154 0.87712 0.0
H275 H 0.92472 0.48081 0.86297 0.0
H276 H 0.97281 0.49871 0.84975 0.0
H277 H 0.99197 0.4768 0.82728 0.0
H278 H 0.97479 0.46603 0.82303 0.0
H279 H 0.95533 0.48776 0.84535 0.0
C280 C 0.55871 0.92851 0.80007 0.0
C281 C 0.55498 0.93855 0.79477 0.0
C282 C 0.56513 0.93325 0.77746 0.0
C283 C 0.55815 0.94088 0.78351 0.0
C284 C 0.56936 0.92355 0.78302 0.0
C285 C 0.56612 0.92118 0.79423 0.0
U286 U 0.54181 0.93182 0.8284 0.0
O287 O 0.52907 0.91939 0.83416 0.0
O288 O 0.54456 0.92248 0.84456 0.0
C289 C 0.53525 0.91643 0.84301 0.0
C290 C 0.55386 0.92465 0.81093 0.0
C291 C 0.52983 0.91032 0.85243 0.0
C292 C 0.5256 0.89199 0.86092 0.0
C293 C 0.5316 0.89856 0.85308 0.0
C294 C 0.51618 0.90898 0.86791 0.0
C295 C 0.51759 0.89705 0.86826 0.0
C296 C 0.52224 0.91558 0.85999 0.0
C297 C 0.53062 0.96361 0.83376 0.0
C298 C 0.51544 0.97327 0.84408 0.0
C299 C 0.52759 0.98385 0.83118 0.0
C300 C 0.53374 0.974 0.82885 0.0
C301 C 0.51815 0.98355 0.83851 0.0
C302 C 0.52161 0.96327 0.84164 0.0
C303 C 0.53625 0.95339 0.82922 0.0
O304 O 0.55853 0.92847 0.82037 0.0
O305 O 0.54269 0.92438 0.81133 0.0
O306 O 0.52993 0.94564 0.82416 0.0
O307 O 0.54535 0.94934 0.83433 0.0
H308 H 0.54924 0.9443 0.79914 0.0
H309 H 0.5549 0.94849 0.77942 0.0
H310 H 0.5747 0.91751 0.77853 0.0
H311 H 0.56899 0.91335 0.79817 0.0
H312 H 0.52713 0.8829 0.8611 0.0
H313 H 0.53742 0.89436 0.84725 0.0
H314 H 0.51006 0.91315 0.8734 0.0
H315 H 0.52075 0.92467 0.85953 0.0
H316 H 0.50818 0.97282 0.84977 0.0
H317 H 0.52993 0.99166 0.82685 0.0
H318 H 0.54065 0.97442 0.82273 0.0
H319 H 0.51908 0.95529 0.8455 0.0
C320 C 0.20706 0.07868 0.44855 0.0
C321 C 0.21147 0.06772 0.45023 0.0
C322 C 0.22966 0.0737 0.44204 0.0
C323 C 0.22266 0.06521 0.44692 0.0
C324 C 0.22494 0.08452 0.43998 0.0
C325 C 0.21376 0.08694 0.44316 0.0
U326 U 0.17867 0.07494 0.46535 0.0
O327 O 0.17282 0.08721 0.47818 0.0
O328 O 0.16251 0.0843 0.46259 0.0
C329 C 0.16401 0.09024 0.47198 0.0
C330 C 0.19615 0.0823 0.45345 0.0
C331 C 0.15458 0.09635 0.47738 0.0
C332 C 0.14577 0.11463 0.48118 0.0
C333 C 0.15362 0.10803 0.47522 0.0
C334 C 0.13948 0.09785 0.49142 0.0
C335 C 0.13877 0.10972 0.48959 0.0
C336 C 0.14736 0.09122 0.48537 0.0
C337 C 0.17326 0.04311 0.47629 0.0
C338 C 0.16299 0.03347 0.49151 0.0
C339 C 0.17574 0.02285 0.47923 0.0
C340 C 0.17808 0.0327 0.47309 0.0
C341 C 0.16849 0.02317 0.48873 0.0
C342 C 0.16545 0.04347 0.48535 0.0
C343 C 0.17788 0.05332 0.47072 0.0
O344 O 0.18676 0.07845 0.44872 0.0
O345 O 0.19576 0.0824 0.46462 0.0
O346 O 0.18291 0.06102 0.47711 0.0
O347 O 0.17279 0.05744 0.46163 0.0
H348 H 0.20639 0.06123 0.4544 0.0
H349 H 0.22589 0.0567 0.44838 0.0
H350 H 0.23002 0.09133 0.4364 0.0
H351 H 0.21049 0.09548 0.44188 0.0
H352 H 0.14532 0.12364 0.47926 0.0
H353 H 0.15919 0.11213 0.4691 0.0
H354 H 0.13429 0.09375 0.49785 0.0
H355 H 0.14806 0.0822 0.48717 0.0
H356 H 0.15739 0.03393 0.49883 0.0
H357 H 0.18002 0.01503 0.47685 0.0
H358 H 0.18415 0.03228 0.46615 0.0
H359 H 0.16167 0.05147 0.48795 0.0
C360 C 0.92864 0.20666 0.44818 0.0
C361 C 0.93849 0.21211 0.4522 0.0
C362 C 0.93327 0.22929 0.44183 0.0
C363 C 0.94077 0.22337 0.44906 0.0
C364 C 0.92378 0.22359 0.43732 0.0
C365 C 0.92146 0.21237 0.44054 0.0
U366 U 0.93152 0.17831 0.4652 0.0
O367 O 0.91873 0.17302 0.47779 0.0
O368 O 0.92192 0.16232 0.46258 0.0
C369 C 0.91568 0.16413 0.47172 0.0
C370 C 0.92471 0.19583 0.45306 0.0
C371 C 0.90992 0.15468 0.47744 0.0
C372 C 0.89195 0.14699 0.48416 0.0
C373 C 0.898 0.15516 0.47805 0.0
C374 C 0.90968 0.13748 0.4889 0.0
C375 C 0.89775 0.13818 0.48971 0.0
C376 C 0.91578 0.14574 0.48278 0.0
C377 C 0.96332 0.17271 0.47653 0.0
C378 C 0.97315 0.16245 0.49165 0.0
C379 C 0.98359 0.17539 0.47941 0.0
C380 C 0.97368 0.17766 0.47333 0.0
C381 C 0.98339 0.16806 0.48885 0.0
C382 C 0.96309 0.16483 0.48555 0.0
C383 C 0.95304 0.17715 0.47095 0.0
O384 O 0.92844 0.18635 0.44843 0.0
O385 O 0.92439 0.19549 0.46422 0.0
O386 O 0.94532 0.18232 0.47721 0.0
O387 O 0.94897 0.17205 0.46184 0.0
H388 H 0.94412 0.20784 0.45815 0.0
H389 H 0.94822 0.22758 0.45253 0.0
H390 H 0.91785 0.22799 0.43178 0.0
H391 H 0.91375 0.20832 0.43746 0.0
H392 H 0.88276 0.14769 0.48476 0.0
H393 H 0.89337 0.16204 0.474 0.0
H394 H 0.91425 0.13073 0.49322 0.0
H395 H 0.92499 0.14531 0.48242 0.0
H396 H 0.97278 0.15677 0.49891 0.0
H397 H 0.99136 0.17975 0.47701 0.0
H398 H 0.97401 0.18377 0.46642 0.0
H399 H 0.95514 0.16093 0.48814 0.0
C400 C 0.80016 0.92786 0.44853 0.0
C401 C 0.7964 0.9392 0.44857 0.0
C402 C 0.77768 0.93307 0.44175 0.0
C403 C 0.78526 0.9418 0.4451 0.0
C404 C 0.78174 0.92181 0.4414 0.0
C405 C 0.79286 0.91927 0.4447 0.0
U406 U 0.82838 0.93177 0.46566 0.0
O407 O 0.83367 0.9195 0.47884 0.0
O408 O 0.84451 0.92232 0.46357 0.0
C409 C 0.84268 0.91645 0.47295 0.0
C410 C 0.81104 0.92438 0.45359 0.0
C411 C 0.85186 0.91001 0.47839 0.0
C412 C 0.85823 0.8918 0.48571 0.0
C413 C 0.85017 0.89832 0.47997 0.0
C414 C 0.87004 0.90856 0.48814 0.0
C415 C 0.86828 0.8968 0.48992 0.0
C416 C 0.86185 0.91514 0.48243 0.0
C417 C 0.83385 0.96358 0.47655 0.0
C418 C 0.84423 0.97319 0.49173 0.0
C419 C 0.83137 0.98383 0.47959 0.0
C420 C 0.82899 0.974 0.47344 0.0
C421 C 0.8387 0.98349 0.48902 0.0
C422 C 0.84174 0.96321 0.48555 0.0
C423 C 0.82923 0.95341 0.47093 0.0
O424 O 0.8205 0.92818 0.44895 0.0
O425 O 0.81128 0.92439 0.46476 0.0
O426 O 0.82399 0.94579 0.47724 0.0
O427 O 0.83449 0.94919 0.46197 0.0
H428 H 0.80194 0.94595 0.45156 0.0
H429 H 0.78255 0.95061 0.44525 0.0
H430 H 0.77621 0.9148 0.43908 0.0
H431 H 0.79561 0.91046 0.44472 0.0
H432 H 0.85637 0.88288 0.4871 0.0
H433 H 0.84246 0.89425 0.47693 0.0
H434 H 0.87772 0.91269 0.49112 0.0
H435 H 0.86325 0.92418 0.48128 0.0
H436 H 0.84991 0.97272 0.49898 0.0
H437 H 0.82706 0.99165 0.47725 0.0
H438 H 0.82287 0.97444 0.46653 0.0
H439 H 0.84557 0.9552 0.48808 0.0
C440 C 0.07887 0.7997 0.44828 0.0
C441 C 0.06829 0.79468 0.45076 0.0
C442 C 0.0744 0.77721 0.44142 0.0
C443 C 0.06608 0.78346 0.44732 0.0
C444 C 0.08476 0.7824 0.43857 0.0
C445 C 0.08697 0.79358 0.44199 0.0
U446 U 0.07508 0.82804 0.46531 0.0
O447 O 0.08753 0.83357 0.47817 0.0
O448 O 0.08451 0.84417 0.46281 0.0
C449 C 0.09054 0.84247 0.47211 0.0
C450 C 0.08238 0.81059 0.45333 0.0
C451 C 0.09681 0.85177 0.47753 0.0
C452 C 0.11515 0.8587 0.48402 0.0
C453 C 0.1087 0.85089 0.47786 0.0
C454 C 0.0979 0.86882 0.48918 0.0
C455 C 0.10981 0.8676 0.48994 0.0
C456 C 0.09139 0.86086 0.48306 0.0
C457 C 0.04331 0.83368 0.47637 0.0
C458 C 0.03375 0.844 0.49162 0.0
C459 C 0.02301 0.83135 0.47933 0.0
C460 C 0.03284 0.82895 0.47318 0.0
C461 C 0.0234 0.83858 0.48884 0.0
C462 C 0.04373 0.84148 0.48545 0.0
C463 C 0.05347 0.829 0.47076 0.0
O464 O 0.07859 0.82001 0.44863 0.0
O465 O 0.08238 0.8109 0.4645 0.0
O466 O 0.06116 0.82387 0.47709 0.0
O467 O 0.05762 0.83408 0.46167 0.0
H468 H 0.06198 0.79925 0.45569 0.0
H469 H 0.05803 0.77953 0.44958 0.0
H470 H 0.09129 0.77768 0.43407 0.0
H471 H 0.09522 0.79729 0.44012 0.0
H472 H 0.12432 0.85766 0.48433 0.0
H473 H 0.11301 0.84391 0.47361 0.0
H474 H 0.09361 0.87563 0.49368 0.0
H475 H 0.08219 0.86162 0.4829 0.0
H476 H 0.03425 0.8496 0.49894 0.0
H477 H 0.01515 0.82714 0.47695 0.0
H478 H 0.03236 0.8229 0.46623 0.0
H479 H 0.05176 0.8452 0.48804 0.0
C480 C 0.20699 0.92753 0.55831 0.0
C481 C 0.21069 0.93889 0.55831 0.0
C482 C 0.22946 0.9329 0.56515 0.0
C483 C 0.22182 0.94157 0.5618 0.0
C484 C 0.22545 0.9216 0.56548 0.0
C485 C 0.21434 0.91899 0.56215 0.0
U486 U 0.1791 0.93221 0.54113 0.0
O487 O 0.17319 0.92079 0.52744 0.0
O488 O 0.16237 0.92369 0.54279 0.0
C489 C 0.16369 0.91855 0.53292 0.0
C490 C 0.1961 0.924 0.55318 0.0
C491 C 0.15514 0.91071 0.52829 0.0
C492 C 0.15021 0.8924 0.52007 0.0
C493 C 0.15808 0.89949 0.52552 0.0
C494 C 0.13627 0.9076 0.52044 0.0
C495 C 0.13922 0.89641 0.51726 0.0
C496 C 0.14416 0.91467 0.52589 0.0
C497 C 0.17395 0.96407 0.53096 0.0
C498 C 0.16344 0.97327 0.51561 0.0
C499 C 0.17588 0.98435 0.52779 0.0
C500 C 0.17846 0.97464 0.53406 0.0
C501 C 0.16869 0.98373 0.51827 0.0
C502 C 0.16614 0.96341 0.5219 0.0
C503 C 0.17891 0.95406 0.53663 0.0
O504 O 0.18664 0.9278 0.55782 0.0
O505 O 0.19591 0.92413 0.54201 0.0
O506 O 0.18413 0.94652 0.53021 0.0
O507 O 0.17359 0.94966 0.54544 0.0
H508 H 0.20512 0.94562 0.55533 0.0
H509 H 0.22447 0.9504 0.56166 0.0
H510 H 0.23101 0.91463 0.56781 0.0
H511 H 0.21165 0.91016 0.56212 0.0
H512 H 0.15296 0.88393 0.51769 0.0
H513 H 0.16655 0.89628 0.52735 0.0
H514 H 0.12787 0.91099 0.5187 0.0
H515 H 0.14178 0.92334 0.52795 0.0
H516 H 0.15787 0.97258 0.50828 0.0
H517 H 0.17997 0.9923 0.53009 0.0
H518 H 0.18451 0.97531 0.541 0.0
H519 H 0.16256 0.95528 0.51939 0.0
C520 C 0.07916 0.20719 0.55837 0.0
C521 C 0.068 0.21146 0.55803 0.0
C522 C 0.0747 0.2296 0.56567 0.0
C523 C 0.06576 0.22259 0.56176 0.0
C524 C 0.08575 0.22509 0.56634 0.0
C525 C 0.08793 0.21398 0.56277 0.0
U526 U 0.07495 0.17874 0.5414 0.0
O527 O 0.08732 0.17291 0.52863 0.0
O528 O 0.08435 0.16262 0.5442 0.0
C529 C 0.09035 0.16413 0.53485 0.0
C530 C 0.08235 0.19622 0.55327 0.0
C531 C 0.09654 0.15471 0.52953 0.0
C532 C 0.11494 0.14644 0.52513 0.0
C533 C 0.10835 0.15432 0.53106 0.0
C534 C 0.09789 0.13893 0.51624 0.0
C535 C 0.10986 0.13882 0.51741 0.0
C536 C 0.09126 0.14687 0.52224 0.0
C537 C 0.04316 0.17307 0.53039 0.0
C538 C 0.03357 0.16274 0.51516 0.0
C539 C 0.02286 0.17539 0.52745 0.0
C540 C 0.0327 0.17779 0.53359 0.0
C541 C 0.02322 0.16815 0.51795 0.0
C542 C 0.04356 0.16526 0.52131 0.0
C543 C 0.05334 0.17777 0.53596 0.0
O544 O 0.07844 0.18686 0.55802 0.0
O545 O 0.08229 0.19589 0.5421 0.0
O546 O 0.06103 0.18282 0.52957 0.0
O547 O 0.05746 0.17278 0.5451 0.0
H548 H 0.06113 0.20634 0.55459 0.0
H549 H 0.05717 0.22589 0.56112 0.0
H550 H 0.09275 0.23025 0.56944 0.0
H551 H 0.0966 0.21081 0.56307 0.0
H552 H 0.12407 0.14646 0.5265 0.0
H553 H 0.11256 0.16036 0.53665 0.0
H554 H 0.09367 0.13322 0.51035 0.0
H555 H 0.08213 0.14711 0.52094 0.0
H556 H 0.03406 0.15713 0.50785 0.0
H557 H 0.015 0.17961 0.52985 0.0
H558 H 0.03223 0.18385 0.54054 0.0
H559 H 0.05159 0.16154 0.51871 0.0
C560 C 0.8 0.07826 0.55831 0.0
C561 C 0.79475 0.0681 0.55491 0.0
C562 C 0.77764 0.07328 0.56556 0.0
C563 C 0.78365 0.06563 0.5585 0.0
C564 C 0.78323 0.08317 0.56935 0.0
C565 C 0.79428 0.08564 0.56572 0.0
U566 U 0.82828 0.07549 0.54105 0.0
O567 O 0.83355 0.08829 0.52847 0.0
O568 O 0.84413 0.08529 0.5438 0.0
C569 C 0.84235 0.09146 0.53462 0.0
C570 C 0.81072 0.08217 0.55321 0.0
C571 C 0.85182 0.09725 0.52897 0.0
C572 C 0.86017 0.11533 0.52355 0.0
C573 C 0.85198 0.10915 0.52948 0.0
C574 C 0.86843 0.09769 0.51669 0.0
C575 C 0.86849 0.10971 0.51702 0.0
C576 C 0.8601 0.09149 0.52261 0.0
C577 C 0.8342 0.04365 0.52998 0.0
C578 C 0.84448 0.03364 0.515 0.0
C579 C 0.83149 0.02337 0.52732 0.0
C580 C 0.82921 0.03334 0.53328 0.0
C581 C 0.83883 0.02345 0.51789 0.0
C582 C 0.84209 0.04376 0.52098 0.0
C583 C 0.82975 0.054 0.53542 0.0
O584 O 0.82029 0.0786 0.55781 0.0
O585 O 0.81096 0.08232 0.54204 0.0
O586 O 0.82451 0.0616 0.52909 0.0
O587 O 0.83477 0.05816 0.54454 0.0
H588 H 0.79903 0.06233 0.54911 0.0
H589 H 0.77962 0.05798 0.55529 0.0
H590 H 0.77902 0.08915 0.57497 0.0
H591 H 0.79821 0.09356 0.56838 0.0
H592 H 0.85973 0.12453 0.52383 0.0
H593 H 0.84554 0.11372 0.53428 0.0
H594 H 0.87479 0.09309 0.51185 0.0
H595 H 0.86003 0.08227 0.52211 0.0
H596 H 0.85017 0.03392 0.50774 0.0
H597 H 0.8271 0.01563 0.52981 0.0
H598 H 0.82308 0.0331 0.54019 0.0
H599 H 0.84601 0.05168 0.51831 0.0
C600 C 0.92867 0.79994 0.55884 0.0
C601 C 0.93853 0.79441 0.55497 0.0
C602 C 0.9331 0.77734 0.5654 0.0
C603 C 0.9407 0.78314 0.5582 0.0
C604 C 0.92357 0.7831 0.56974 0.0
C605 C 0.92135 0.79431 0.56643 0.0
U606 U 0.93204 0.82822 0.54178 0.0
O607 O 0.91952 0.83351 0.52888 0.0
O608 O 0.9226 0.84434 0.54407 0.0
C609 C 0.91653 0.8425 0.53482 0.0
C610 C 0.92488 0.81079 0.55389 0.0
C611 C 0.91029 0.85176 0.52928 0.0
C612 C 0.8923 0.85808 0.52138 0.0
C613 C 0.89862 0.85011 0.52745 0.0
C614 C 0.90917 0.86984 0.5193 0.0
C615 C 0.89754 0.86791 0.51707 0.0
C616 C 0.91556 0.86174 0.52534 0.0
C617 C 0.96381 0.83375 0.53062 0.0
C618 C 0.97339 0.84405 0.51537 0.0
C619 C 0.98409 0.83136 0.52763 0.0
C620 C 0.97426 0.82899 0.53379 0.0
C621 C 0.98372 0.8386 0.51813 0.0
C622 C 0.96341 0.84156 0.52155 0.0
C623 C 0.95363 0.82915 0.53627 0.0
O624 O 0.92862 0.82027 0.55854 0.0
O625 O 0.92471 0.81111 0.54272 0.0
O626 O 0.94594 0.82396 0.53 0.0
O627 O 0.9495 0.83432 0.54532 0.0
H628 H 0.94425 0.79861 0.54907 0.0
H629 H 0.94814 0.77884 0.55483 0.0
H630 H 0.91758 0.77875 0.57526 0.0
H631 H 0.91362 0.79841 0.56938 0.0
H632 H 0.88333 0.85648 0.51988 0.0
H633 H 0.89441 0.84248 0.5305 0.0
H634 H 0.91336 0.87738 0.51603 0.0
H635 H 0.92459 0.86311 0.5267 0.0
H636 H 0.97289 0.84966 0.50806 0.0
H637 H 0.99194 0.82712 0.53001 0.0
H638 H 0.97472 0.82293 0.54075 0.0
H639 H 0.95538 0.84532 0.51898 0.0
C640 C 0.44869 0.20693 0.07836 0.0
C641 C 0.45218 0.21225 0.06825 0.0
C642 C 0.44152 0.22937 0.07345 0.0
C643 C 0.44864 0.22338 0.06583 0.0
C644 C 0.43766 0.22372 0.0833 0.0
C645 C 0.44125 0.21265 0.08573 0.0
U646 U 0.46577 0.17869 0.07499 0.0
O647 O 0.47868 0.1732 0.08741 0.0
O648 O 0.46334 0.16255 0.08437 0.0
C649 C 0.47264 0.16426 0.09038 0.0
C650 C 0.45371 0.19614 0.08219 0.0
C651 C 0.47805 0.15495 0.09668 0.0
C652 C 0.48486 0.1482 0.11496 0.0
C653 C 0.4788 0.1561 0.10853 0.0
C654 C 0.48908 0.1375 0.0978 0.0
C655 C 0.49026 0.13896 0.10965 0.0
C656 C 0.48305 0.14553 0.09131 0.0
C657 C 0.47675 0.17315 0.04318 0.0
C658 C 0.49198 0.16285 0.03357 0.0
C659 C 0.47965 0.17549 0.02289 0.0
C660 C 0.47352 0.17788 0.03274 0.0
C661 C 0.48916 0.16827 0.02324 0.0
C662 C 0.48584 0.16536 0.04357 0.0
C663 C 0.47116 0.17779 0.05337 0.0
O664 O 0.44905 0.18664 0.07852 0.0
O665 O 0.46489 0.19583 0.08228 0.0
O666 O 0.47751 0.18292 0.06104 0.0
O667 O 0.4621 0.17266 0.05753 0.0
H668 H 0.45799 0.20799 0.06249 0.0
H669 H 0.45192 0.22744 0.05822 0.0
H670 H 0.432 0.2279 0.08925 0.0
H671 H 0.43852 0.20867 0.0936 0.0
H672 H 0.4855 0.14943 0.12408 0.0
H673 H 0.47494 0.16332 0.1128 0.0
H674 H 0.49319 0.13042 0.09354 0.0
H675 H 0.48255 0.14456 0.08215 0.0
H676 H 0.49931 0.15726 0.03405 0.0
H677 H 0.47723 0.17971 0.01504 0.0
H678 H 0.46656 0.18392 0.03229 0.0
H679 H 0.48846 0.16164 0.05159 0.0
C680 C 0.4488 0.79941 0.92805 0.0
C681 C 0.45048 0.79473 0.93891 0.0
C682 C 0.4414 0.77704 0.93276 0.0
C683 C 0.44676 0.78362 0.94127 0.0
C684 C 0.43935 0.78201 0.92207 0.0
C685 C 0.44302 0.79307 0.91976 0.0
U686 U 0.4658 0.82785 0.93176 0.0
O687 O 0.47848 0.83369 0.91932 0.0
O688 O 0.46285 0.84388 0.92224 0.0
C689 C 0.4722 0.84242 0.91623 0.0
C690 C 0.45391 0.81028 0.92458 0.0
C691 C 0.47763 0.85196 0.91031 0.0
C692 C 0.48126 0.86117 0.89219 0.0
C693 C 0.4753 0.85324 0.89869 0.0
C694 C 0.49176 0.867 0.90898 0.0
C695 C 0.48978 0.86798 0.89716 0.0
C696 C 0.48575 0.85899 0.91551 0.0
C697 C 0.4767 0.83373 0.96357 0.0
C698 C 0.4919 0.84404 0.97322 0.0
C699 C 0.47952 0.83143 0.98388 0.0
C700 C 0.47342 0.82903 0.97401 0.0
C701 C 0.48904 0.83865 0.98355 0.0
C702 C 0.48579 0.84152 0.9632 0.0
C703 C 0.4712 0.82901 0.95336 0.0
O704 O 0.44918 0.81971 0.92832 0.0
O705 O 0.46509 0.81062 0.92461 0.0
O706 O 0.47763 0.82394 0.94571 0.0
O707 O 0.46205 0.83394 0.94918 0.0
H708 H 0.455 0.79949 0.9454 0.0
H709 H 0.44854 0.78003 0.94957 0.0
H710 H 0.43508 0.77728 0.9154 0.0
H711 H 0.44167 0.79657 0.91132 0.0
H712 H 0.47927 0.86184 0.88321 0.0
H713 H 0.46908 0.84782 0.89453 0.0
H714 H 0.49828 0.87206 0.91309 0.0
H715 H 0.48767 0.85805 0.92449 0.0
H716 H 0.49924 0.84963 0.97275 0.0
H717 H 0.47707 0.82723 0.99173 0.0
H718 H 0.46646 0.82297 0.97445 0.0
H719 H 0.48845 0.84522 0.95518 0.0
C720 C 0.20718 0.44845 0.92793 0.0
C721 C 0.21131 0.44952 0.93908 0.0
C722 C 0.22971 0.44182 0.93305 0.0
C723 C 0.22248 0.44613 0.94164 0.0
C724 C 0.22527 0.44042 0.92201 0.0
C725 C 0.21412 0.44366 0.91952 0.0
U726 U 0.17876 0.46521 0.93176 0.0
O727 O 0.17286 0.47802 0.9195 0.0
O728 O 0.16259 0.46241 0.92241 0.0
C729 C 0.16406 0.4718 0.91647 0.0
C730 C 0.19625 0.45336 0.92436 0.0
C731 C 0.1546 0.47721 0.91041 0.0
C732 C 0.1457 0.48099 0.89217 0.0
C733 C 0.15355 0.47501 0.89875 0.0
C734 C 0.13956 0.49132 0.90895 0.0
C735 C 0.13878 0.48944 0.8971 0.0
C736 C 0.14746 0.48525 0.91556 0.0
C737 C 0.1733 0.47614 0.96357 0.0
C738 C 0.163 0.49139 0.97313 0.0
C739 C 0.1757 0.47915 0.98384 0.0
C740 C 0.17807 0.47298 0.97401 0.0
C741 C 0.16845 0.48864 0.98346 0.0
C742 C 0.16549 0.48521 0.96316 0.0
C743 C 0.17797 0.47057 0.95339 0.0
O744 O 0.18687 0.4486 0.92823 0.0
O745 O 0.19585 0.46452 0.92428 0.0
O746 O 0.18299 0.47696 0.94568 0.0
O747 O 0.1729 0.46147 0.94926 0.0
H748 H 0.20605 0.45323 0.94569 0.0
H749 H 0.22549 0.4471 0.95031 0.0
H750 H 0.23053 0.4373 0.91511 0.0
H751 H 0.21106 0.44286 0.91084 0.0
H752 H 0.14519 0.47906 0.88316 0.0
H753 H 0.15907 0.46885 0.89463 0.0
H754 H 0.13443 0.49778 0.91305 0.0
H755 H 0.14824 0.48709 0.92457 0.0
H756 H 0.15739 0.4987 0.97263 0.0
H757 H 0.17995 0.47679 0.99169 0.0
H758 H 0.18415 0.46604 0.97448 0.0
H759 H 0.16174 0.48778 0.95513 0.0
C760 C 0.55842 0.20695 0.92781 0.0
C761 C 0.55951 0.21031 0.93922 0.0
C762 C 0.56547 0.22933 0.93309 0.0
C763 C 0.56311 0.2214 0.94184 0.0
C764 C 0.56462 0.22567 0.9217 0.0
C765 C 0.56121 0.21461 0.91913 0.0
U766 U 0.54162 0.17838 0.93148 0.0
O767 O 0.52901 0.17289 0.91879 0.0
O768 O 0.54438 0.16239 0.92191 0.0
C769 C 0.53518 0.16408 0.91572 0.0
C770 C 0.5535 0.19598 0.92442 0.0
C771 C 0.52958 0.15458 0.9099 0.0
C772 C 0.52329 0.14669 0.89187 0.0
C773 C 0.52935 0.15487 0.89797 0.0
C774 C 0.51784 0.13757 0.90959 0.0
C775 C 0.5174 0.13808 0.89763 0.0
C776 C 0.52391 0.14583 0.91574 0.0
C777 C 0.53044 0.17276 0.96329 0.0
C778 C 0.5153 0.16255 0.97313 0.0
C779 C 0.52766 0.17538 0.98357 0.0
C780 C 0.53372 0.17766 0.97365 0.0
C781 C 0.51816 0.16811 0.98337 0.0
C782 C 0.52138 0.16494 0.96307 0.0
C783 C 0.53597 0.17726 0.953 0.0
O784 O 0.55825 0.18661 0.9283 0.0
O785 O 0.54234 0.19558 0.92428 0.0
O786 O 0.52962 0.18233 0.94529 0.0
O787 O 0.54513 0.17225 0.94894 0.0
H788 H 0.55736 0.20448 0.94604 0.0
H789 H 0.56389 0.22379 0.95071 0.0
H790 H 0.56613 0.23146 0.91469 0.0
H791 H 0.56033 0.21216 0.91027 0.0
H792 H 0.52297 0.14725 0.88266 0.0
H793 H 0.53363 0.16162 0.89335 0.0
H794 H 0.51325 0.13098 0.91413 0.0
H795 H 0.52397 0.14555 0.92496 0.0
H796 H 0.508 0.15692 0.97277 0.0
H797 H 0.53011 0.17971 0.99135 0.0
H798 H 0.54067 0.18373 0.97398 0.0
H799 H 0.51873 0.1611 0.95511 0.0
C800 C 0.80023 0.5584 0.928 0.0
C801 C 0.79629 0.55777 0.93926 0.0
C802 C 0.77772 0.56503 0.93323 0.0
C803 C 0.78514 0.56116 0.94187 0.0
C804 C 0.78197 0.56599 0.92206 0.0
C805 C 0.7931 0.56276 0.91951 0.0
U806 U 0.82834 0.54125 0.93199 0.0
O807 O 0.8336 0.52778 0.91997 0.0
O808 O 0.84451 0.54306 0.92262 0.0
C809 C 0.84271 0.53355 0.91697 0.0
C810 C 0.81108 0.55331 0.92442 0.0
C811 C 0.85179 0.52828 0.91023 0.0
C812 C 0.85756 0.52024 0.89214 0.0
C813 C 0.84954 0.52589 0.89878 0.0
C814 C 0.87042 0.51956 0.90828 0.0
C815 C 0.86812 0.51693 0.89677 0.0
C816 C 0.86228 0.52518 0.91498 0.0
C817 C 0.83379 0.53061 0.96383 0.0
C818 C 0.84414 0.51535 0.97332 0.0
C819 C 0.8315 0.5276 0.9841 0.0
C820 C 0.82908 0.53377 0.9743 0.0
C821 C 0.83873 0.51809 0.98368 0.0
C822 C 0.84161 0.52155 0.96337 0.0
C823 C 0.82908 0.53625 0.95371 0.0
O824 O 0.82057 0.55796 0.92815 0.0
O825 O 0.81128 0.54215 0.92451 0.0
O826 O 0.82378 0.52991 0.94615 0.0
O827 O 0.83439 0.54512 0.94939 0.0
H828 H 0.8017 0.55436 0.94592 0.0
H829 H 0.78228 0.56054 0.95061 0.0
H830 H 0.77656 0.56874 0.91511 0.0
H831 H 0.79599 0.56319 0.91075 0.0
H832 H 0.85531 0.5182 0.88343 0.0
H833 H 0.84143 0.52821 0.89501 0.0
H834 H 0.8785 0.51729 0.91211 0.0
H835 H 0.86412 0.52697 0.92384 0.0
H836 H 0.84974 0.50803 0.97279 0.0
H837 H 0.82729 0.52995 0.99197 0.0
H838 H 0.82301 0.54071 0.97481 0.0
H839 H 0.84532 0.51899 0.95532 0.0
C840 C 0.55879 0.79957 0.07895 0.0
C841 C 0.55751 0.79501 0.06796 0.0
C842 C 0.56578 0.77713 0.07444 0.0
C843 C 0.56108 0.78383 0.06571 0.0
C844 C 0.56737 0.78185 0.08528 0.0
C845 C 0.56394 0.79301 0.08749 0.0
U846 U 0.54181 0.82797 0.07491 0.0
O847 O 0.52893 0.83354 0.08732 0.0
O848 O 0.54433 0.8441 0.08433 0.0
C849 C 0.53502 0.84243 0.09034 0.0
C850 C 0.55372 0.8105 0.08228 0.0
C851 C 0.52961 0.85175 0.09662 0.0
C852 C 0.52318 0.85869 0.11496 0.0
C853 C 0.52934 0.85088 0.10851 0.0
C854 C 0.51793 0.86877 0.09772 0.0
C855 C 0.51722 0.86757 0.10963 0.0
C856 C 0.52404 0.86082 0.09121 0.0
C857 C 0.53077 0.83364 0.04315 0.0
C858 C 0.51552 0.84399 0.03362 0.0
C859 C 0.52779 0.83137 0.02285 0.0
C860 C 0.53396 0.82894 0.03267 0.0
C861 C 0.51829 0.83859 0.02326 0.0
C862 C 0.5217 0.84145 0.04358 0.0
C863 C 0.53638 0.82893 0.0533 0.0
O864 O 0.55845 0.8199 0.07844 0.0
O865 O 0.54255 0.81082 0.08222 0.0
O866 O 0.53002 0.82382 0.06098 0.0
O867 O 0.54548 0.83399 0.05745 0.0
H868 H 0.55345 0.79993 0.06129 0.0
H869 H 0.55977 0.78027 0.0573 0.0
H870 H 0.57097 0.77679 0.09211 0.0
H871 H 0.56491 0.79638 0.09603 0.0
H872 H 0.52291 0.85767 0.12413 0.0
H873 H 0.53362 0.84392 0.11281 0.0
H874 H 0.51339 0.87556 0.09343 0.0
H875 H 0.52416 0.86155 0.08201 0.0
H876 H 0.5082 0.84959 0.03414 0.0
H877 H 0.53017 0.82716 0.01499 0.0
H878 H 0.54091 0.82288 0.03218 0.0
H879 H 0.51911 0.84515 0.05163 0.0
C880 C 0.2076 0.55816 0.07907 0.0
C881 C 0.2118 0.55799 0.06787 0.0
C882 C 0.22999 0.56551 0.07456 0.0
C883 C 0.22293 0.56175 0.06562 0.0
C884 C 0.22557 0.56601 0.08565 0.0
C885 C 0.21446 0.56242 0.08785 0.0
U886 U 0.17914 0.54117 0.07488 0.0
O887 O 0.17332 0.52834 0.08719 0.0
O888 O 0.16307 0.54397 0.08438 0.0
C889 C 0.16457 0.53457 0.0903 0.0
C890 C 0.19665 0.55302 0.08226 0.0
C891 C 0.15515 0.52923 0.0965 0.0
C892 C 0.14644 0.52547 0.11485 0.0
C893 C 0.15438 0.53129 0.10821 0.0
C894 C 0.13976 0.51551 0.09805 0.0
C895 C 0.1392 0.51725 0.10995 0.0
C896 C 0.14769 0.52147 0.09138 0.0
C897 C 0.17336 0.53033 0.04306 0.0
C898 C 0.16303 0.51512 0.03344 0.0
C899 C 0.17566 0.52746 0.02275 0.0
C900 C 0.17807 0.53358 0.03261 0.0
C901 C 0.16844 0.51794 0.02311 0.0
C902 C 0.16556 0.52125 0.04344 0.0
C903 C 0.1781 0.53585 0.05325 0.0
O904 O 0.18727 0.55777 0.07841 0.0
O905 O 0.19633 0.54186 0.08216 0.0
O906 O 0.18318 0.52943 0.06089 0.0
O907 O 0.1731 0.54496 0.05745 0.0
H908 H 0.20663 0.55466 0.06099 0.0
H909 H 0.22618 0.56126 0.05699 0.0
H910 H 0.23078 0.56899 0.09266 0.0
H911 H 0.21135 0.56259 0.09654 0.0
H912 H 0.14612 0.52739 0.12385 0.0
H913 H 0.16013 0.53725 0.11231 0.0
H914 H 0.13443 0.50924 0.09391 0.0
H915 H 0.14823 0.51977 0.08232 0.0
H916 H 0.15744 0.5078 0.03392 0.0
H917 H 0.17988 0.52988 0.0149 0.0
H918 H 0.18413 0.54053 0.03215 0.0
H919 H 0.16186 0.51861 0.05147 0.0
C920 C 0.8004 0.44824 0.07892 0.0
C921 C 0.79603 0.44988 0.06792 0.0
C922 C 0.77777 0.44176 0.07383 0.0
C923 C 0.78483 0.44658 0.06537 0.0
C924 C 0.78246 0.4397 0.08467 0.0
C925 C 0.79365 0.44287 0.08714 0.0
U926 U 0.82826 0.46553 0.07467 0.0
O927 O 0.83392 0.47925 0.08624 0.0
O928 O 0.84485 0.46397 0.08336 0.0
C929 C 0.84342 0.4738 0.08855 0.0
C930 C 0.81122 0.45336 0.08263 0.0
C931 C 0.85205 0.47845 0.09627 0.0
C932 C 0.85708 0.48695 0.11441 0.0
C933 C 0.84916 0.48142 0.10745 0.0
C934 C 0.87095 0.48633 0.09913 0.0
C935 C 0.86805 0.48964 0.11029 0.0
C936 C 0.86301 0.48078 0.0922 0.0
C937 C 0.83352 0.47588 0.04284 0.0
C938 C 0.844 0.4912 0.03355 0.0
C939 C 0.83141 0.47908 0.02257 0.0
C940 C 0.8289 0.47283 0.0323 0.0
C941 C 0.83865 0.48857 0.02314 0.0
C942 C 0.84137 0.48492 0.04343 0.0
C943 C 0.82864 0.47018 0.05286 0.0
O944 O 0.82074 0.44877 0.0789 0.0
O945 O 0.81139 0.46452 0.08258 0.0
O946 O 0.82332 0.47653 0.06039 0.0
O947 O 0.834 0.46138 0.05724 0.0
H948 H 0.80112 0.45405 0.06145 0.0
H949 H 0.78163 0.44804 0.05684 0.0
H950 H 0.77735 0.43615 0.09147 0.0
H951 H 0.79686 0.44161 0.09571 0.0
H952 H 0.85441 0.48947 0.12287 0.0
H953 H 0.8407 0.47968 0.11072 0.0
H954 H 0.87933 0.48806 0.09569 0.0
H955 H 0.86534 0.47859 0.08354 0.0
H956 H 0.84962 0.4985 0.03419 0.0
H957 H 0.82724 0.47681 0.01466 0.0
H958 H 0.82281 0.4659 0.03168 0.0
H959 H 0.84504 0.4874 0.05153 0.0
C960 C 0.57856 0.9486 0.70697 0.0
C961 C 0.56858 0.9524 0.71228 0.0
C962 C 0.5734 0.94155 0.7294 0.0
C963 C 0.56604 0.94896 0.72341 0.0
C964 C 0.58308 0.93732 0.7237 0.0
C965 C 0.58566 0.94089 0.71266 0.0
U966 U 0.57606 0.96564 0.67855 0.0
O967 O 0.58898 0.97798 0.67309 0.0
O968 O 0.58583 0.96256 0.66273 0.0
C969 C 0.59208 0.97172 0.66435 0.0
C970 C 0.58259 0.95355 0.69622 0.0
C971 C 0.59748 0.97742 0.65466 0.0
C972 C 0.61515 0.98156 0.64478 0.0
C973 C 0.60914 0.97549 0.65301 0.0
C974 C 0.59782 0.99155 0.63961 0.0
C975 C 0.60958 0.98975 0.6381 0.0
C976 C 0.59176 0.98538 0.64785 0.0
C977 C 0.5442 0.9769 0.6727 0.0
C978 C 0.53412 0.9919 0.66252 0.0
C979 C 0.52392 0.97954 0.67553 0.0
C980 C 0.53392 0.97358 0.67773 0.0
C981 C 0.52395 0.98899 0.6682 0.0
C982 C 0.54426 0.98592 0.66483 0.0
C983 C 0.5546 0.97146 0.67706 0.0
O984 O 0.57898 0.94891 0.68669 0.0
O985 O 0.5829 0.96471 0.69587 0.0
O986 O 0.56228 0.97778 0.6822 0.0
O987 O 0.55866 0.96226 0.67211 0.0
H988 H 0.56302 0.95842 0.70802 0.0
H989 H 0.55858 0.95257 0.72743 0.0
H990 H 0.58881 0.93138 0.72779 0.0
H991 H 0.59343 0.9379 0.70867 0.0
H992 H 0.62423 0.98015 0.64391 0.0
H993 H 0.61371 0.96948 0.65834 0.0
H994 H 0.59337 0.99782 0.6345 0.0
H995 H 0.58277 0.98701 0.6491 0.0
H996 H 0.53436 0.99916 0.65684 0.0
H997 H 0.51621 0.97704 0.67995 0.0
H998 H 0.53372 0.96666 0.68384 0.0
H999 H 0.55215 0.98861 0.66087 0.0
C1000 C 0.05855 0.57906 0.70733 0.0
C1001 C 0.05838 0.56786 0.71152 0.0
C1002 C 0.06583 0.57458 0.72971 0.0
C1003 C 0.06212 0.56562 0.72266 0.0
C1004 C 0.0663 0.58566 0.72533 0.0
C1005 C 0.06276 0.58786 0.71421 0.0
U1006 U 0.04159 0.57487 0.67885 0.0
O1007 O 0.02882 0.58721 0.67301 0.0
O1008 O 0.04445 0.58435 0.66278 0.0
C1009 C 0.03507 0.5903 0.66426 0.0
C1010 C 0.05344 0.58224 0.69636 0.0
C1011 C 0.02968 0.5964 0.6548 0.0
C1012 C 0.02599 0.61465 0.6459 0.0
C1013 C 0.0319 0.60806 0.65379 0.0
C1014 C 0.01566 0.5979 0.63968 0.0
C1015 C 0.01756 0.60975 0.63891 0.0
C1016 C 0.02167 0.59127 0.6476 0.0
C1017 C 0.03068 0.54306 0.6731 0.0
C1018 C 0.01548 0.53344 0.66275 0.0
C1019 C 0.02777 0.52276 0.67543 0.0
C1020 C 0.03389 0.53262 0.67784 0.0
C1021 C 0.01827 0.52311 0.66818 0.0
C1022 C 0.02162 0.54343 0.66527 0.0
C1023 C 0.03621 0.55325 0.67781 0.0
O1024 O 0.0582 0.57836 0.687 0.0
O1025 O 0.04227 0.58216 0.69602 0.0
O1026 O 0.0298 0.56091 0.68288 0.0
O1027 O 0.04534 0.55742 0.67283 0.0
H1028 H 0.05507 0.56098 0.70635 0.0
H1029 H 0.06166 0.557 0.72593 0.0
H1030 H 0.06919 0.59267 0.7306 0.0
H1031 H 0.06292 0.59655 0.7111 0.0
H1032 H 0.02797 0.62365 0.6454 0.0
H1033 H 0.03804 0.61216 0.65935 0.0
H1034 H 0.00922 0.5938 0.63451 0.0
H1035 H 0.01983 0.58226 0.64834 0.0
H1036 H 0.00817 0.53392 0.65713 0.0
H1037 H 0.03016 0.51492 0.67967 0.0
H1038 H 0.04083 0.53217 0.68392 0.0
H1039 H 0.01901 0.55146 0.66154 0.0
C1040 C 0.42895 0.05865 0.70678 0.0
C1041 C 0.43869 0.05456 0.71236 0.0
C1042 C 0.43337 0.06507 0.72942 0.0
C1043 C 0.44086 0.05772 0.72365 0.0
C1044 C 0.42399 0.06964 0.7236 0.0
C1045 C 0.42177 0.06639 0.71237 0.0
U1046 U 0.43213 0.04156 0.67852 0.0
O1047 O 0.41946 0.02879 0.67328 0.0
O1048 O 0.42268 0.04392 0.66241 0.0
C1049 C 0.41651 0.03474 0.66428 0.0
C1050 C 0.4251 0.05374 0.69593 0.0
C1051 C 0.41033 0.02917 0.65501 0.0
C1052 C 0.39236 0.02126 0.64862 0.0
C1053 C 0.39865 0.02732 0.65662 0.0
C1054 C 0.40927 0.01923 0.63691 0.0
C1055 C 0.39764 0.017 0.63879 0.0
C1056 C 0.41564 0.02525 0.64505 0.0
C1057 C 0.4639 0.0302 0.67313 0.0
C1058 C 0.47361 0.01505 0.66281 0.0
C1059 C 0.48415 0.02718 0.67576 0.0
C1060 C 0.47428 0.03331 0.67807 0.0
C1061 C 0.48388 0.01776 0.66841 0.0
C1062 C 0.4636 0.0212 0.66523 0.0
C1063 C 0.45367 0.03586 0.6776 0.0
O1064 O 0.42888 0.05835 0.68645 0.0
O1065 O 0.42482 0.04258 0.69562 0.0
O1066 O 0.44593 0.02964 0.68277 0.0
O1067 O 0.44962 0.04493 0.6724 0.0
H1068 H 0.44431 0.04854 0.70819 0.0
H1069 H 0.4482 0.05419 0.72798 0.0
H1070 H 0.41808 0.07527 0.72791 0.0
H1071 H 0.41414 0.06952 0.70821 0.0
H1072 H 0.38339 0.01972 0.65019 0.0
H1073 H 0.39442 0.03035 0.66425 0.0
H1074 H 0.41347 0.01597 0.62937 0.0
H1075 H 0.42466 0.02662 0.64371 0.0
H1076 H 0.47319 0.00781 0.65711 0.0
H1077 H 0.49195 0.02953 0.68011 0.0
H1078 H 0.47468 0.04021 0.68419 0.0
H1079 H 0.45562 0.01868 0.66134 0.0
C1080 C 0.94874 0.4281 0.70722 0.0
C1081 C 0.95165 0.4385 0.71232 0.0
C1082 C 0.94142 0.43297 0.7296 0.0
C1083 C 0.94802 0.44091 0.72343 0.0
C1084 C 0.93814 0.42281 0.72417 0.0
C1085 C 0.9418 0.4204 0.71312 0.0
U1086 U 0.96574 0.43168 0.6789 0.0
O1087 O 0.97858 0.41937 0.67308 0.0
O1088 O 0.96299 0.42228 0.66278 0.0
C1089 C 0.97237 0.41634 0.66428 0.0
C1090 C 0.9538 0.4244 0.69639 0.0
C1091 C 0.97772 0.41018 0.65485 0.0
C1092 C 0.98205 0.39181 0.64649 0.0
C1093 C 0.97613 0.39838 0.65439 0.0
C1094 C 0.99104 0.40886 0.63909 0.0
C1095 C 0.98981 0.3969 0.63891 0.0
C1096 C 0.98506 0.41546 0.64706 0.0
C1097 C 0.9766 0.46349 0.67319 0.0
C1098 C 0.99186 0.47305 0.66289 0.0
C1099 C 0.97947 0.4838 0.6754 0.0
C1100 C 0.97334 0.47396 0.67784 0.0
C1101 C 0.98902 0.48341 0.66822 0.0
C1102 C 0.98571 0.46307 0.66544 0.0
C1103 C 0.97105 0.45332 0.67794 0.0
O1104 O 0.94909 0.42809 0.68693 0.0
O1105 O 0.96498 0.42439 0.69606 0.0
O1106 O 0.97747 0.44567 0.68302 0.0
O1107 O 0.96195 0.44913 0.67292 0.0
H1108 H 0.95707 0.44452 0.7079 0.0
H1109 H 0.95082 0.44878 0.72733 0.0
H1110 H 0.93288 0.4166 0.72851 0.0
H1111 H 0.9395 0.41232 0.70929 0.0
H1112 H 0.98064 0.3827 0.64644 0.0
H1113 H 0.9705 0.39417 0.66038 0.0
H1114 H 0.99697 0.41307 0.63341 0.0
H1115 H 0.9864 0.42458 0.64736 0.0
H1116 H 0.99921 0.47254 0.65733 0.0
H1117 H 0.97704 0.49167 0.67957 0.0
H1118 H 0.96635 0.47445 0.68386 0.0
H1119 H 0.98836 0.45502 0.66178 0.0
C1120 C 0.5787 0.05864 0.29996 0.0
C1121 C 0.56851 0.05537 0.29462 0.0
C1122 C 0.5743 0.06535 0.2774 0.0
C1123 C 0.56635 0.05869 0.28336 0.0
C1124 C 0.58421 0.06906 0.28294 0.0
C1125 C 0.5864 0.06569 0.29414 0.0
U1126 U 0.57508 0.04156 0.32824 0.0
O1127 O 0.58751 0.02859 0.3336 0.0
O1128 O 0.5845 0.04384 0.34438 0.0
C1129 C 0.59051 0.03455 0.34259 0.0
C1130 C 0.58235 0.05362 0.31083 0.0
C1131 C 0.59684 0.02909 0.35183 0.0
C1132 C 0.61495 0.02145 0.35815 0.0
C1133 C 0.60855 0.0275 0.35022 0.0
C1134 C 0.59807 0.01891 0.36979 0.0
C1135 C 0.60974 0.0169 0.36789 0.0
C1136 C 0.5916 0.02494 0.36173 0.0
C1137 C 0.5433 0.03051 0.33381 0.0
C1138 C 0.53373 0.01525 0.34411 0.0
C1139 C 0.523 0.02755 0.33147 0.0
C1140 C 0.53284 0.0337 0.32908 0.0
C1141 C 0.52339 0.01803 0.33869 0.0
C1142 C 0.54371 0.02143 0.34161 0.0
C1143 C 0.55346 0.03614 0.32916 0.0
O1144 O 0.57861 0.05828 0.32029 0.0
O1145 O 0.5824 0.04245 0.31112 0.0
O1146 O 0.56113 0.02984 0.32398 0.0
O1147 O 0.55762 0.04517 0.33432 0.0
H1148 H 0.56249 0.04988 0.29896 0.0
H1149 H 0.55864 0.05579 0.27919 0.0
H1150 H 0.59046 0.07415 0.27844 0.0
H1151 H 0.59437 0.06817 0.29809 0.0
H1152 H 0.62395 0.02015 0.35657 0.0
H1153 H 0.61273 0.03071 0.34263 0.0
H1154 H 0.5939 0.01546 0.37727 0.0
H1155 H 0.58255 0.02611 0.36308 0.0
H1156 H 0.53423 0.00793 0.3497 0.0
H1157 H 0.51515 0.02993 0.32724 0.0
H1158 H 0.53236 0.04066 0.32303 0.0
H1159 H 0.55174 0.01884 0.34534 0.0
C1160 C 0.94887 0.57905 0.29993 0.0
C1161 C 0.94915 0.56773 0.29614 0.0
C1162 C 0.94209 0.57378 0.27749 0.0
C1163 C 0.94568 0.5651 0.28501 0.0
C1164 C 0.94151 0.58502 0.28159 0.0
C1165 C 0.94481 0.58759 0.29269 0.0
U1166 U 0.96569 0.57573 0.3285 0.0
O1167 O 0.97813 0.5885 0.33407 0.0
O1168 O 0.96265 0.58542 0.34438 0.0
C1169 C 0.97186 0.59161 0.3428 0.0
C1170 C 0.95378 0.5826 0.31085 0.0
C1171 C 0.97753 0.59708 0.35245 0.0
C1172 C 0.98166 0.61482 0.36221 0.0
C1173 C 0.97555 0.60874 0.35406 0.0
C1174 C 0.99176 0.59757 0.36743 0.0
C1175 C 0.98992 0.60934 0.36888 0.0
C1176 C 0.98557 0.59145 0.35924 0.0
C1177 C 0.9769 0.5439 0.33423 0.0
C1178 C 0.99195 0.53395 0.34446 0.0
C1179 C 0.97967 0.52364 0.33146 0.0
C1180 C 0.97365 0.53359 0.32922 0.0
C1181 C 0.98911 0.52376 0.3388 0.0
C1182 C 0.98591 0.54404 0.34211 0.0
C1183 C 0.97142 0.55424 0.3298 0.0
O1184 O 0.94905 0.57876 0.32025 0.0
O1185 O 0.96495 0.58278 0.31124 0.0
O1186 O 0.97778 0.56195 0.32472 0.0
O1187 O 0.96223 0.5583 0.33475 0.0
H1188 H 0.95229 0.56103 0.30164 0.0
H1189 H 0.94601 0.55631 0.28227 0.0
H1190 H 0.93899 0.59199 0.27611 0.0
H1191 H 0.94463 0.59638 0.29549 0.0
H1192 H 0.98021 0.6239 0.36301 0.0
H1193 H 0.9695 0.61324 0.34873 0.0
H1194 H 0.99805 0.59316 0.37253 0.0
H1195 H 0.98725 0.58247 0.35801 0.0
H1196 H 0.99921 0.53425 0.35015 0.0
H1197 H 0.97723 0.51591 0.32705 0.0
H1198 H 0.96674 0.53333 0.3231 0.0
H1199 H 0.98855 0.55196 0.34605 0.0
C1200 C 0.42811 0.94827 0.29997 0.0
C1201 C 0.43943 0.94842 0.29613 0.0
C1202 C 0.43325 0.94162 0.27741 0.0
C1203 C 0.44199 0.94503 0.28496 0.0
C1204 C 0.422 0.94116 0.28155 0.0
C1205 C 0.4195 0.9444 0.2927 0.0
U1206 U 0.43222 0.96508 0.32835 0.0
O1207 O 0.42 0.9782 0.3339 0.0
O1208 O 0.42296 0.96285 0.34458 0.0
C1209 C 0.41708 0.97225 0.3429 0.0
C1210 C 0.42467 0.9532 0.31094 0.0
C1211 C 0.41059 0.97755 0.35214 0.0
C1212 C 0.39246 0.98526 0.3583 0.0
C1213 C 0.39891 0.97924 0.35039 0.0
C1214 C 0.4092 0.98754 0.3702 0.0
C1215 C 0.39757 0.98966 0.36816 0.0
C1216 C 0.41572 0.98155 0.36216 0.0
C1217 C 0.464 0.97604 0.33373 0.0
C1218 C 0.47343 0.99138 0.34403 0.0
C1219 C 0.48428 0.97911 0.33146 0.0
C1220 C 0.47449 0.9729 0.32905 0.0
C1221 C 0.48381 0.98864 0.33866 0.0
C1222 C 0.4635 0.98514 0.3415 0.0
C1223 C 0.45388 0.97038 0.32902 0.0
O1224 O 0.42854 0.94846 0.32032 0.0
O1225 O 0.42467 0.96436 0.3113 0.0
O1226 O 0.44619 0.97671 0.32391 0.0
O1227 O 0.44973 0.96135 0.3342 0.0
H1228 H 0.4462 0.95142 0.30164 0.0
H1229 H 0.45078 0.94526 0.28219 0.0
H1230 H 0.41498 0.93879 0.27606 0.0
H1231 H 0.4107 0.94433 0.29551 0.0
H1232 H 0.38349 0.98666 0.35662 0.0
H1233 H 0.39482 0.97615 0.34271 0.0
H1234 H 0.4133 0.99089 0.37775 0.0
H1235 H 0.42475 0.98032 0.3636 0.0
H1236 H 0.47287 0.99871 0.3496 0.0
H1237 H 0.49216 0.97677 0.32727 0.0
H1238 H 0.47502 0.96593 0.32301 0.0
H1239 H 0.45543 0.9877 0.34518 0.0
C1240 C 0.05848 0.42803 0.29961 0.0
C1241 C 0.05767 0.4391 0.29519 0.0
C1242 C 0.06583 0.43256 0.2772 0.0
C1243 C 0.0614 0.44137 0.28406 0.0
C1244 C 0.06698 0.42162 0.28188 0.0
C1245 C 0.06336 0.4194 0.29298 0.0
U1246 U 0.04147 0.43207 0.32805 0.0
O1247 O 0.02874 0.41966 0.33389 0.0
O1248 O 0.04433 0.42266 0.34415 0.0
C1249 C 0.03499 0.41664 0.34267 0.0
C1250 C 0.05336 0.42476 0.31054 0.0
C1251 C 0.02966 0.41049 0.35212 0.0
C1252 C 0.02549 0.39213 0.36059 0.0
C1253 C 0.03141 0.39872 0.3527 0.0
C1254 C 0.01619 0.40911 0.36775 0.0
C1255 C 0.01758 0.39718 0.36804 0.0
C1256 C 0.02218 0.41573 0.35979 0.0
C1257 C 0.03045 0.46386 0.33372 0.0
C1258 C 0.01526 0.4735 0.34407 0.0
C1259 C 0.02753 0.48415 0.33134 0.0
C1260 C 0.03365 0.4743 0.32895 0.0
C1261 C 0.01805 0.48382 0.33861 0.0
C1262 C 0.02139 0.4635 0.34156 0.0
C1263 C 0.036 0.45366 0.32905 0.0
O1264 O 0.0581 0.42862 0.31993 0.0
O1265 O 0.04219 0.42479 0.31087 0.0
O1266 O 0.02961 0.44597 0.32401 0.0
O1267 O 0.04515 0.44955 0.33404 0.0
H1268 H 0.05385 0.44586 0.30017 0.0
H1269 H 0.06038 0.44988 0.28065 0.0
H1270 H 0.07049 0.41471 0.27688 0.0
H1271 H 0.06403 0.4108 0.29627 0.0
H1272 H 0.02702 0.38304 0.36071 0.0
H1273 H 0.03715 0.39454 0.34679 0.0
H1274 H 0.01015 0.41328 0.37333 0.0
H1275 H 0.02071 0.42483 0.3594 0.0
H1276 H 0.00797 0.47304 0.3497 0.0
H1277 H 0.02993 0.49199 0.32709 0.0
H1278 H 0.04058 0.47473 0.32286 0.0
H1279 H 0.01879 0.45549 0.34532 0.0
C1280 C 0.70721 0.5789 0.94879 0.0
C1281 C 0.71102 0.56759 0.94905 0.0
C1282 C 0.72967 0.57366 0.942 0.0
C1283 C 0.72215 0.56497 0.94558 0.0
C1284 C 0.72556 0.5849 0.94144 0.0
C1285 C 0.71445 0.58745 0.94474 0.0
U1286 U 0.67866 0.57559 0.96566 0.0
O1287 O 0.67316 0.58835 0.97814 0.0
O1288 O 0.66278 0.58531 0.96269 0.0
C1289 C 0.66442 0.59149 0.9719 0.0
C1290 C 0.6963 0.58245 0.95372 0.0
C1291 C 0.65483 0.59711 0.97755 0.0
C1292 C 0.64555 0.61501 0.98201 0.0
C1293 C 0.65369 0.60887 0.97594 0.0
C1294 C 0.63937 0.59761 0.99125 0.0
C1295 C 0.63836 0.60949 0.98981 0.0
C1296 C 0.64758 0.59144 0.98515 0.0
C1297 C 0.67294 0.54375 0.97682 0.0
C1298 C 0.66271 0.53373 0.99182 0.0
C1299 C 0.67577 0.5235 0.97954 0.0
C1300 C 0.67799 0.53347 0.97355 0.0
C1301 C 0.66841 0.52356 0.98896 0.0
C1302 C 0.66504 0.54384 0.98581 0.0
C1303 C 0.67734 0.55411 0.97136 0.0
O1304 O 0.68689 0.57863 0.94901 0.0
O1305 O 0.69593 0.58262 0.96488 0.0
O1306 O 0.68244 0.5618 0.97772 0.0
O1307 O 0.67236 0.55818 0.96219 0.0
H1308 H 0.70552 0.56087 0.95219 0.0
H1309 H 0.7249 0.55618 0.94589 0.0
H1310 H 0.73104 0.59188 0.93893 0.0
H1311 H 0.71165 0.59625 0.94457 0.0
H1312 H 0.64516 0.62416 0.98085 0.0
H1313 H 0.65935 0.61339 0.97022 0.0
H1314 H 0.63388 0.59313 0.99715 0.0
H1315 H 0.64844 0.58236 0.98653 0.0
H1316 H 0.65701 0.534 0.99907 0.0
H1317 H 0.6802 0.51578 0.97708 0.0
H1318 H 0.68413 0.53324 0.96665 0.0
H1319 H 0.66107 0.55174 0.98845 0.0
C1320 C 0.42832 0.70687 0.94832 0.0
C1321 C 0.43886 0.71194 0.95088 0.0
C1322 C 0.43277 0.72937 0.94145 0.0
C1323 C 0.44106 0.72316 0.94745 0.0
C1324 C 0.42247 0.72413 0.93851 0.0
C1325 C 0.42026 0.71295 0.94193 0.0
U1326 U 0.43221 0.67861 0.96543 0.0
O1327 O 0.41986 0.67312 0.97843 0.0
O1328 O 0.42286 0.66243 0.9631 0.0
C1329 C 0.41689 0.66415 0.97244 0.0
C1330 C 0.42481 0.69599 0.9534 0.0
C1331 C 0.41051 0.6549 0.97782 0.0
C1332 C 0.39223 0.64835 0.98483 0.0
C1333 C 0.39869 0.65622 0.97876 0.0
C1334 C 0.40927 0.63734 0.98866 0.0
C1335 C 0.39747 0.63896 0.99004 0.0
C1336 C 0.4158 0.64534 0.98263 0.0
C1337 C 0.464 0.6731 0.97645 0.0
C1338 C 0.47353 0.66273 0.9917 0.0
C1339 C 0.48428 0.67545 0.9795 0.0
C1340 C 0.47447 0.67786 0.97332 0.0
C1341 C 0.48388 0.66817 0.98897 0.0
C1342 C 0.46357 0.66526 0.9855 0.0
C1343 C 0.45385 0.67777 0.97081 0.0
O1344 O 0.42861 0.68655 0.94872 0.0
O1345 O 0.42482 0.69571 0.96456 0.0
O1346 O 0.44617 0.68293 0.97712 0.0
O1347 O 0.44969 0.67262 0.96177 0.0
H1348 H 0.44514 0.70741 0.95589 0.0
H1349 H 0.44907 0.72712 0.94978 0.0
H1350 H 0.41597 0.72882 0.93393 0.0
H1351 H 0.41205 0.7092 0.93999 0.0
H1352 H 0.38313 0.64972 0.98562 0.0
H1353 H 0.39448 0.66356 0.97505 0.0
H1354 H 0.41349 0.63015 0.99262 0.0
H1355 H 0.42494 0.64423 0.98198 0.0
H1356 H 0.47301 0.6571 0.99898 0.0
H1357 H 0.49215 0.67969 0.97715 0.0
H1358 H 0.47496 0.68394 0.96639 0.0
H1359 H 0.45553 0.66151 0.98804 0.0
C1360 C 0.30019 0.42764 0.94849 0.0
C1361 C 0.29656 0.43901 0.94825 0.0
C1362 C 0.27775 0.43292 0.94165 0.0
C1363 C 0.28544 0.44164 0.94475 0.0
C1364 C 0.28168 0.4216 0.94159 0.0
C1365 C 0.29278 0.41903 0.94491 0.0
U1366 U 0.3285 0.43147 0.96553 0.0
O1367 O 0.33382 0.4191 0.97857 0.0
O1368 O 0.34458 0.42194 0.96327 0.0
C1369 C 0.34276 0.416 0.9726 0.0
C1370 C 0.31109 0.42416 0.95352 0.0
C1371 C 0.35202 0.40977 0.97814 0.0
C1372 C 0.35891 0.39155 0.98493 0.0
C1373 C 0.35084 0.39795 0.97909 0.0
C1374 C 0.36975 0.4087 0.98872 0.0
C1375 C 0.36848 0.3968 0.98988 0.0
C1376 C 0.36153 0.41516 0.98292 0.0
C1377 C 0.33409 0.46328 0.97643 0.0
C1378 C 0.34443 0.47294 0.9916 0.0
C1379 C 0.33163 0.48355 0.97937 0.0
C1380 C 0.32926 0.47369 0.97325 0.0
C1381 C 0.33892 0.48323 0.98884 0.0
C1382 C 0.34195 0.46293 0.98546 0.0
C1383 C 0.32947 0.45309 0.97085 0.0
O1384 O 0.32053 0.42797 0.94884 0.0
O1385 O 0.31135 0.42416 0.96468 0.0
O1386 O 0.32425 0.44546 0.97719 0.0
O1387 O 0.33465 0.44888 0.96185 0.0
H1388 H 0.30219 0.44578 0.95102 0.0
H1389 H 0.28282 0.45048 0.94467 0.0
H1390 H 0.27607 0.4146 0.93947 0.0
H1391 H 0.29544 0.41019 0.94515 0.0
H1392 H 0.35741 0.38249 0.98582 0.0
H1393 H 0.34348 0.39367 0.97549 0.0
H1394 H 0.37706 0.41304 0.99229 0.0
H1395 H 0.36252 0.42431 0.98227 0.0
H1396 H 0.35008 0.47248 0.99889 0.0
H1397 H 0.32734 0.49137 0.97699 0.0
H1398 H 0.32316 0.47411 0.96633 0.0
H1399 H 0.34575 0.45493 0.98804 0.0
C1400 C 0.57884 0.30005 0.94827 0.0
C1401 C 0.56798 0.2955 0.95029 0.0
C1402 C 0.57394 0.27738 0.94197 0.0
C1403 C 0.56552 0.28428 0.94707 0.0
C1404 C 0.58465 0.28222 0.93959 0.0
C1405 C 0.58703 0.29345 0.94267 0.0
U1406 U 0.57504 0.32832 0.96517 0.0
O1407 O 0.58733 0.33379 0.97824 0.0
O1408 O 0.58433 0.34453 0.96294 0.0
C1409 C 0.59027 0.3428 0.97229 0.0
C1410 C 0.58248 0.31095 0.95318 0.0
C1411 C 0.59671 0.35202 0.97765 0.0
C1412 C 0.61488 0.35824 0.98522 0.0
C1413 C 0.60843 0.35036 0.97916 0.0
C1414 C 0.59806 0.36993 0.9879 0.0
C1415 C 0.60973 0.36798 0.98985 0.0
C1416 C 0.59153 0.36192 0.98187 0.0
C1417 C 0.54326 0.33363 0.97621 0.0
C1418 C 0.53378 0.34392 0.99152 0.0
C1419 C 0.523 0.33124 0.9793 0.0
C1420 C 0.5328 0.32886 0.97309 0.0
C1421 C 0.52343 0.33848 0.9888 0.0
C1422 C 0.54372 0.34143 0.98528 0.0
C1423 C 0.5534 0.32899 0.97053 0.0
O1424 O 0.57865 0.32036 0.94849 0.0
O1425 O 0.58256 0.31129 0.96435 0.0
O1426 O 0.56111 0.32386 0.97684 0.0
O1427 O 0.55753 0.33421 0.96152 0.0
H1428 H 0.56156 0.30049 0.95466 0.0
H1429 H 0.55709 0.28095 0.9488 0.0
H1430 H 0.59142 0.27723 0.93582 0.0
H1431 H 0.5955 0.29681 0.94115 0.0
H1432 H 0.62389 0.35663 0.98646 0.0
H1433 H 0.61255 0.34277 0.97591 0.0
H1434 H 0.59392 0.37739 0.99141 0.0
H1435 H 0.58247 0.36329 0.98077 0.0
H1436 H 0.53431 0.34952 0.99883 0.0
H1437 H 0.51514 0.327 0.97697 0.0
H1438 H 0.5323 0.3228 0.96614 0.0
H1439 H 0.55176 0.34518 0.98782 0.0
C1440 C 0.70715 0.42785 0.05843 0.0
C1441 C 0.71065 0.43924 0.05924 0.0
C1442 C 0.7296 0.43306 0.0654 0.0
C1443 C 0.72178 0.44183 0.0628 0.0
C1444 C 0.72579 0.4217 0.06489 0.0
C1445 C 0.7147 0.41916 0.0615 0.0
U1446 U 0.67895 0.432 0.04127 0.0
O1447 O 0.67368 0.41986 0.02791 0.0
O1448 O 0.66278 0.42261 0.04317 0.0
C1449 C 0.6646 0.41687 0.03371 0.0
C1450 C 0.69623 0.42447 0.05334 0.0
C1451 C 0.65549 0.4102 0.0284 0.0
C1452 C 0.64964 0.39209 0.02043 0.0
C1453 C 0.65767 0.39872 0.0261 0.0
C1454 C 0.63691 0.40832 0.01954 0.0
C1455 C 0.63914 0.39678 0.017 0.0
C1456 C 0.64506 0.415 0.02518 0.0
C1457 C 0.67355 0.46381 0.03045 0.0
C1458 C 0.66315 0.47334 0.01523 0.0
C1459 C 0.67595 0.48406 0.02737 0.0
C1460 C 0.67836 0.47425 0.03354 0.0
C1461 C 0.66864 0.48367 0.01792 0.0
C1462 C 0.66567 0.46338 0.02143 0.0
C1463 C 0.6782 0.45367 0.0361 0.0
O1464 O 0.68678 0.42829 0.05799 0.0
O1465 O 0.69602 0.42452 0.04218 0.0
O1466 O 0.68348 0.44607 0.02981 0.0
O1467 O 0.6729 0.44942 0.04501 0.0
H1468 H 0.70492 0.44607 0.05685 0.0
H1469 H 0.72428 0.45069 0.06332 0.0
H1470 H 0.7315 0.41467 0.06659 0.0
H1471 H 0.71215 0.41032 0.06083 0.0
H1472 H 0.65185 0.38336 0.01846 0.0
H1473 H 0.66572 0.3949 0.02852 0.0
H1474 H 0.62888 0.4122 0.01718 0.0
H1475 H 0.64327 0.42388 0.0269 0.0
H1476 H 0.65748 0.47283 0.00797 0.0
H1477 H 0.68023 0.49191 0.02969 0.0
H1478 H 0.68447 0.47474 0.04045 0.0
H1479 H 0.66188 0.45536 0.01892 0.0
C1480 C 0.57923 0.70721 0.05832 0.0
C1481 C 0.56816 0.71161 0.05736 0.0
C1482 C 0.57459 0.72958 0.06564 0.0
C1483 C 0.56584 0.72273 0.06108 0.0
C1484 C 0.58552 0.7249 0.06695 0.0
C1485 C 0.58779 0.71382 0.06335 0.0
U1486 U 0.57583 0.67866 0.04125 0.0
O1487 O 0.58871 0.67318 0.02886 0.0
O1488 O 0.58564 0.66286 0.04432 0.0
C1489 C 0.59186 0.66447 0.03514 0.0
C1490 C 0.58261 0.69632 0.0532 0.0
C1491 C 0.59733 0.65481 0.02948 0.0
C1492 C 0.61511 0.6453 0.0249 0.0
C1493 C 0.60912 0.65356 0.03096 0.0
C1494 C 0.59754 0.63931 0.01582 0.0
C1495 C 0.6094 0.63822 0.01718 0.0
C1496 C 0.5915 0.64757 0.02199 0.0
C1497 C 0.544 0.67263 0.03008 0.0
C1498 C 0.53402 0.66237 0.01505 0.0
C1499 C 0.5237 0.67528 0.02741 0.0
C1500 C 0.53367 0.67756 0.03339 0.0
C1501 C 0.52381 0.66798 0.01795 0.0
C1502 C 0.54414 0.66477 0.02105 0.0
C1503 C 0.55435 0.67712 0.03551 0.0
O1504 O 0.57885 0.68688 0.05791 0.0
O1505 O 0.58266 0.69602 0.04203 0.0
O1506 O 0.56201 0.68225 0.02915 0.0
O1507 O 0.55845 0.67223 0.04473 0.0
H1508 H 0.56147 0.70663 0.05342 0.0
H1509 H 0.55734 0.72614 0.05993 0.0
H1510 H 0.59238 0.7299 0.07058 0.0
H1511 H 0.59639 0.71054 0.06413 0.0
H1512 H 0.62427 0.6447 0.02596 0.0
H1513 H 0.61376 0.65921 0.0366 0.0
H1514 H 0.59303 0.63389 0.00987 0.0
H1515 H 0.58241 0.64849 0.02071 0.0
H1516 H 0.53432 0.65671 0.00777 0.0
H1517 H 0.51595 0.67964 0.0299 0.0
H1518 H 0.53341 0.68366 0.04032 0.0
H1519 H 0.55206 0.66088 0.01836 0.0
C1520 C 0.29997 0.57904 0.0585 0.0
C1521 C 0.29578 0.56783 0.0583 0.0
C1522 C 0.27756 0.57451 0.06571 0.0
C1523 C 0.28464 0.56557 0.06201 0.0
C1524 C 0.28194 0.5856 0.06622 0.0
C1525 C 0.29308 0.58782 0.06272 0.0
U1526 U 0.3281 0.57466 0.04113 0.0
O1527 O 0.33331 0.58671 0.02763 0.0
O1528 O 0.34423 0.5841 0.04291 0.0
C1529 C 0.34242 0.58972 0.03338 0.0
C1530 C 0.31085 0.58226 0.05321 0.0
C1531 C 0.35147 0.59657 0.02819 0.0
C1532 C 0.35704 0.6146 0.01982 0.0
C1533 C 0.34901 0.60789 0.02541 0.0
C1534 C 0.37033 0.5988 0.02001 0.0
C1535 C 0.36782 0.61016 0.01698 0.0
C1536 C 0.36218 0.59204 0.02555 0.0
C1537 C 0.33377 0.54282 0.03051 0.0
C1538 C 0.34423 0.53331 0.01531 0.0
C1539 C 0.33153 0.52254 0.02751 0.0
C1540 C 0.32906 0.53235 0.03365 0.0
C1541 C 0.33881 0.52295 0.01804 0.0
C1542 C 0.34164 0.54327 0.02148 0.0
C1543 C 0.32901 0.55294 0.03612 0.0
O1544 O 0.32034 0.57852 0.05785 0.0
O1545 O 0.31098 0.58201 0.04204 0.0
O1546 O 0.32365 0.56046 0.02979 0.0
O1547 O 0.33428 0.5573 0.045 0.0
H1548 H 0.30096 0.56096 0.05496 0.0
H1549 H 0.28137 0.55695 0.06152 0.0
H1550 H 0.27665 0.59259 0.06909 0.0
H1551 H 0.29617 0.59651 0.06287 0.0
H1552 H 0.35462 0.62317 0.01747 0.0
H1553 H 0.34074 0.61151 0.02738 0.0
H1554 H 0.37856 0.59512 0.01811 0.0
H1555 H 0.36419 0.58329 0.02765 0.0
H1556 H 0.34987 0.53383 0.00803 0.0
H1557 H 0.32731 0.51467 0.02987 0.0
H1558 H 0.32296 0.53184 0.04057 0.0
H1559 H 0.34537 0.55132 0.01893 0.0
C1560 C 0.4289 0.29997 0.05882 0.0
C1561 C 0.43865 0.2944 0.05472 0.0
C1562 C 0.43336 0.27732 0.06523 0.0
C1563 C 0.44083 0.28312 0.05788 0.0
C1564 C 0.42397 0.28313 0.06981 0.0
C1565 C 0.42174 0.29436 0.06657 0.0
U1566 U 0.43203 0.32828 0.0418 0.0
O1567 O 0.41937 0.33353 0.02904 0.0
O1568 O 0.42254 0.34436 0.04419 0.0
C1569 C 0.41638 0.34251 0.035 0.0
C1570 C 0.42503 0.31081 0.05393 0.0
C1571 C 0.41026 0.3518 0.02939 0.0
C1572 C 0.39233 0.35828 0.02147 0.0
C1573 C 0.39857 0.35026 0.02756 0.0
C1574 C 0.40931 0.36987 0.01939 0.0
C1575 C 0.39767 0.36805 0.01718 0.0
C1576 C 0.41563 0.36171 0.02543 0.0
C1577 C 0.4638 0.33381 0.03052 0.0
C1578 C 0.47348 0.34406 0.01531 0.0
C1579 C 0.48407 0.33128 0.02758 0.0
C1580 C 0.4742 0.32896 0.03371 0.0
C1581 C 0.48377 0.33854 0.01809 0.0
C1582 C 0.46347 0.34163 0.02146 0.0
C1583 C 0.45358 0.32929 0.03615 0.0
O1584 O 0.42878 0.32029 0.05857 0.0
O1585 O 0.42477 0.31115 0.04277 0.0
O1586 O 0.44586 0.32411 0.0299 0.0
O1587 O 0.4495 0.33444 0.04523 0.0
H1588 H 0.44426 0.29858 0.0487 0.0
H1589 H 0.44818 0.2788 0.05434 0.0
H1590 H 0.41807 0.27881 0.07544 0.0
H1591 H 0.4141 0.2985 0.0697 0.0
H1592 H 0.38335 0.35675 0.01994 0.0
H1593 H 0.39429 0.34267 0.03062 0.0
H1594 H 0.41356 0.37737 0.0161 0.0
H1595 H 0.42467 0.363 0.02678 0.0
H1596 H 0.47305 0.34969 0.00801 0.0
H1597 H 0.49189 0.32698 0.02997 0.0
H1598 H 0.47461 0.32289 0.04066 0.0
H1599 H 0.45548 0.34545 0.01888 0.0
C1600 C 0.94878 0.7071 0.57861 0.0
C1601 C 0.95162 0.71221 0.5682 0.0
C1602 C 0.94145 0.72949 0.57379 0.0
C1603 C 0.94799 0.72332 0.56581 0.0
C1604 C 0.93823 0.72406 0.58398 0.0
C1605 C 0.94189 0.713 0.58636 0.0
U1606 U 0.96582 0.67881 0.57498 0.0
O1607 O 0.97866 0.673 0.58731 0.0
O1608 O 0.9631 0.66266 0.58434 0.0
C1609 C 0.97247 0.66418 0.59031 0.0
C1610 C 0.95385 0.69626 0.58228 0.0
C1611 C 0.97778 0.65478 0.59654 0.0
C1612 C 0.98223 0.64661 0.61497 0.0
C1613 C 0.97633 0.6545 0.60836 0.0
C1614 C 0.99091 0.63887 0.59791 0.0
C1615 C 0.98983 0.63887 0.60989 0.0
C1616 C 0.98494 0.64682 0.59127 0.0
C1617 C 0.97677 0.6732 0.54318 0.0
C1618 C 0.992 0.66286 0.53362 0.0
C1619 C 0.9797 0.67549 0.52288 0.0
C1620 C 0.97356 0.67791 0.53272 0.0
C1621 C 0.98921 0.66825 0.52327 0.0
C1622 C 0.98584 0.6654 0.5436 0.0
C1623 C 0.97119 0.67791 0.55335 0.0
O1624 O 0.94916 0.68681 0.57855 0.0
O1625 O 0.96502 0.69595 0.58231 0.0
O1626 O 0.97758 0.68298 0.56103 0.0
O1627 O 0.96209 0.67286 0.55751 0.0
H1628 H 0.957 0.70779 0.56214 0.0
H1629 H 0.95074 0.72722 0.55792 0.0
H1630 H 0.93302 0.7284 0.59023 0.0
H1631 H 0.93964 0.70918 0.59445 0.0
H1632 H 0.98092 0.64671 0.6241 0.0
H1633 H 0.97083 0.66062 0.61256 0.0
H1634 H 0.9967 0.63306 0.59371 0.0
H1635 H 0.98616 0.64697 0.58213 0.0
H1636 H 0.99932 0.65726 0.53412 0.0
H1637 H 0.97731 0.67969 0.51502 0.0
H1638 H 0.96661 0.68397 0.53224 0.0
H1639 H 0.98845 0.66169 0.55163 0.0
C1640 C 0.94881 0.29965 0.4285 0.0
C1641 C 0.9527 0.29423 0.43841 0.0
C1642 C 0.94162 0.27726 0.4336 0.0
C1643 C 0.94916 0.28312 0.44092 0.0
C1644 C 0.93735 0.28303 0.424 0.0
C1645 C 0.94096 0.29407 0.42146 0.0
U1646 U 0.96575 0.32799 0.43157 0.0
O1647 O 0.97844 0.3338 0.41913 0.0
O1648 O 0.96285 0.34405 0.42209 0.0
C1649 C 0.9722 0.34257 0.41608 0.0
C1650 C 0.95377 0.31043 0.42454 0.0
C1651 C 0.97764 0.3521 0.41015 0.0
C1652 C 0.98133 0.36126 0.39203 0.0
C1653 C 0.97537 0.35333 0.39852 0.0
C1654 C 0.99176 0.36716 0.40884 0.0
C1655 C 0.98982 0.3681 0.39701 0.0
C1656 C 0.98572 0.35916 0.41537 0.0
C1657 C 0.9767 0.33371 0.46339 0.0
C1658 C 0.9919 0.34399 0.47305 0.0
C1659 C 0.97953 0.33135 0.48369 0.0
C1660 C 0.97343 0.32897 0.47382 0.0
C1661 C 0.98905 0.33857 0.48337 0.0
C1662 C 0.98579 0.3415 0.46304 0.0
C1663 C 0.97118 0.32905 0.45317 0.0
O1664 O 0.94908 0.31992 0.42818 0.0
O1665 O 0.96494 0.31082 0.42435 0.0
O1666 O 0.97758 0.32398 0.4455 0.0
O1667 O 0.96205 0.33406 0.44902 0.0
H1668 H 0.95881 0.29839 0.44393 0.0
H1669 H 0.95277 0.27899 0.44832 0.0
H1670 H 0.93134 0.27897 0.4183 0.0
H1671 H 0.9379 0.29814 0.41376 0.0
H1672 H 0.97936 0.3619 0.38304 0.0
H1673 H 0.96918 0.34788 0.39436 0.0
H1674 H 0.99825 0.37224 0.41297 0.0
H1675 H 0.9876 0.35826 0.42436 0.0
H1676 H 0.99924 0.34958 0.4726 0.0
H1677 H 0.9771 0.32712 0.49153 0.0
H1678 H 0.96647 0.32292 0.47424 0.0
H1679 H 0.98844 0.34522 0.45503 0.0
C1680 C 0.70702 0.94835 0.42806 0.0
C1681 C 0.71109 0.9492 0.43926 0.0
C1682 C 0.72957 0.94173 0.43319 0.0
C1683 C 0.72226 0.94581 0.44183 0.0
C1684 C 0.7252 0.94054 0.42209 0.0
C1685 C 0.71404 0.94377 0.4196 0.0
U1686 U 0.67892 0.96556 0.43199 0.0
O1687 O 0.67367 0.97891 0.41985 0.0
O1688 O 0.66274 0.96367 0.42261 0.0
C1689 C 0.66458 0.97312 0.41685 0.0
C1690 C 0.69617 0.95344 0.42449 0.0
C1691 C 0.65547 0.97845 0.41021 0.0
C1692 C 0.64953 0.98626 0.39206 0.0
C1693 C 0.65756 0.98059 0.39868 0.0
C1694 C 0.63697 0.98749 0.4084 0.0
C1695 C 0.63912 0.98985 0.39681 0.0
C1696 C 0.64512 0.98184 0.41507 0.0
C1697 C 0.67354 0.97638 0.46381 0.0
C1698 C 0.66315 0.99159 0.47334 0.0
C1699 C 0.67598 0.97949 0.48406 0.0
C1700 C 0.67837 0.9733 0.47425 0.0
C1701 C 0.66866 0.98893 0.48367 0.0
C1702 C 0.66565 0.98538 0.46339 0.0
C1703 C 0.67818 0.97071 0.45367 0.0
O1704 O 0.68669 0.94882 0.42826 0.0
O1705 O 0.69598 0.9646 0.42453 0.0
O1706 O 0.68347 0.977 0.44607 0.0
O1707 O 0.67285 0.96182 0.44942 0.0
H1708 H 0.70577 0.95277 0.44591 0.0
H1709 H 0.72521 0.94661 0.45053 0.0
H1710 H 0.73052 0.93762 0.41516 0.0
H1711 H 0.71106 0.94317 0.41088 0.0
H1712 H 0.65168 0.9881 0.38328 0.0
H1713 H 0.66555 0.97804 0.39481 0.0
H1714 H 0.629 0.98998 0.41232 0.0
H1715 H 0.6434 0.98025 0.42399 0.0
H1716 H 0.65747 0.99885 0.47283 0.0
H1717 H 0.68027 0.97718 0.4919 0.0
H1718 H 0.68449 0.9664 0.47474 0.0
H1719 H 0.66184 0.98787 0.45536 0.0
C1720 C 0.0585 0.7072 0.42807 0.0
C1721 C 0.05682 0.71185 0.43894 0.0
C1722 C 0.06585 0.72956 0.43278 0.0
C1723 C 0.06052 0.72296 0.4413 0.0
C1724 C 0.0679 0.72461 0.42208 0.0
C1725 C 0.06425 0.71354 0.41977 0.0
U1726 U 0.04138 0.67868 0.43123 0.0
O1727 O 0.02904 0.6732 0.41832 0.0
O1728 O 0.04452 0.66292 0.42139 0.0
C1729 C 0.03534 0.66451 0.41517 0.0
C1730 C 0.05337 0.69636 0.42456 0.0
C1731 C 0.02966 0.65481 0.40977 0.0
C1732 C 0.02562 0.64485 0.39213 0.0
C1733 C 0.03169 0.65308 0.39814 0.0
C1734 C 0.01546 0.63982 0.4094 0.0
C1735 C 0.01734 0.63824 0.39766 0.0
C1736 C 0.02162 0.64807 0.41545 0.0
C1737 C 0.0302 0.67262 0.46307 0.0
C1738 C 0.0152 0.66237 0.4731 0.0
C1739 C 0.02756 0.67535 0.48335 0.0
C1740 C 0.03352 0.6776 0.47337 0.0
C1741 C 0.01811 0.66802 0.48329 0.0
C1742 C 0.02118 0.66474 0.46297 0.0
C1743 C 0.03561 0.67707 0.45269 0.0
O1744 O 0.05806 0.68689 0.42826 0.0
O1745 O 0.0422 0.69606 0.42448 0.0
O1746 O 0.02925 0.68221 0.44504 0.0
O1747 O 0.04484 0.6722 0.4486 0.0
H1748 H 0.05232 0.70708 0.44543 0.0
H1749 H 0.05876 0.72655 0.44961 0.0
H1750 H 0.07214 0.72936 0.41541 0.0
H1751 H 0.06559 0.71007 0.41132 0.0
H1752 H 0.0271 0.64394 0.38306 0.0
H1753 H 0.03776 0.65836 0.3936 0.0
H1754 H 0.00913 0.63477 0.41383 0.0
H1755 H 0.01991 0.64938 0.42443 0.0
H1756 H 0.00793 0.65669 0.47284 0.0
H1757 H 0.03005 0.67974 0.49108 0.0
H1758 H 0.04043 0.68372 0.47359 0.0
H1759 H 0.01849 0.66082 0.45507 0.0
C1760 C 0.30018 0.05837 0.42792 0.0
C1761 C 0.29673 0.05925 0.43932 0.0
C1762 C 0.27776 0.06534 0.43317 0.0
C1763 C 0.28562 0.06281 0.44193 0.0
C1764 C 0.28151 0.06475 0.4218 0.0
C1765 C 0.29259 0.06137 0.41924 0.0
U1766 U 0.3284 0.04125 0.43201 0.0
O1767 O 0.33368 0.02799 0.4198 0.0
O1768 O 0.34456 0.04324 0.42258 0.0
C1769 C 0.34272 0.03383 0.41677 0.0
C1770 C 0.31109 0.0533 0.42453 0.0
C1771 C 0.35187 0.02843 0.41024 0.0
C1772 C 0.35798 0.02077 0.39208 0.0
C1773 C 0.34995 0.02651 0.39864 0.0
C1774 C 0.37022 0.01904 0.40862 0.0
C1775 C 0.36823 0.0169 0.39695 0.0
C1776 C 0.36206 0.02475 0.41524 0.0
C1777 C 0.33385 0.0304 0.46382 0.0
C1778 C 0.34421 0.01519 0.47338 0.0
C1779 C 0.33145 0.02739 0.48408 0.0
C1780 C 0.32906 0.03355 0.47426 0.0
C1781 C 0.33873 0.01793 0.48371 0.0
C1782 C 0.3417 0.02137 0.46341 0.0
C1783 C 0.3292 0.03604 0.45367 0.0
O1784 O 0.32054 0.05796 0.42836 0.0
O1785 O 0.31132 0.04214 0.42456 0.0
O1786 O 0.32395 0.02973 0.44605 0.0
O1787 O 0.33447 0.04497 0.44943 0.0
H1788 H 0.30249 0.05692 0.44614 0.0
H1789 H 0.28315 0.0634 0.45079 0.0
H1790 H 0.27577 0.0664 0.41477 0.0
H1791 H 0.29511 0.06064 0.41038 0.0
H1792 H 0.35595 0.01911 0.38324 0.0
H1793 H 0.34208 0.02928 0.39467 0.0
H1794 H 0.37806 0.01633 0.41265 0.0
H1795 H 0.36364 0.02617 0.42421 0.0
H1796 H 0.34984 0.0079 0.47289 0.0
H1797 H 0.32719 0.02975 0.49193 0.0
H1798 H 0.32296 0.04047 0.47473 0.0
H1799 H 0.34547 0.01882 0.45538 0.0
C1800 C 0.05852 0.29952 0.57905 0.0
C1801 C 0.05817 0.29526 0.56789 0.0
C1802 C 0.06578 0.27714 0.57459 0.0
C1803 C 0.06189 0.28412 0.56565 0.0
C1804 C 0.06642 0.28158 0.58564 0.0
C1805 C 0.0629 0.29271 0.58783 0.0
U1806 U 0.04157 0.32802 0.57495 0.0
O1807 O 0.02887 0.33385 0.58736 0.0
O1808 O 0.04448 0.34408 0.58444 0.0
C1809 C 0.03513 0.3426 0.59044 0.0
C1810 C 0.05343 0.31049 0.58225 0.0
C1811 C 0.02973 0.35209 0.59647 0.0
C1812 C 0.02608 0.3611 0.61469 0.0
C1813 C 0.03203 0.35322 0.60811 0.0
C1814 C 0.0156 0.3671 0.59795 0.0
C1815 C 0.01757 0.36797 0.60978 0.0
C1816 C 0.02163 0.35918 0.59134 0.0
C1817 C 0.03057 0.33376 0.54314 0.0
C1818 C 0.01541 0.3441 0.53346 0.0
C1819 C 0.02768 0.33133 0.52285 0.0
C1820 C 0.03378 0.32896 0.53272 0.0
C1821 C 0.0182 0.33861 0.52316 0.0
C1822 C 0.02153 0.3416 0.54347 0.0
C1823 C 0.0361 0.32909 0.55336 0.0
O1824 O 0.05818 0.31985 0.57836 0.0
O1825 O 0.04225 0.31083 0.58221 0.0
O1826 O 0.0297 0.32404 0.56104 0.0
O1827 O 0.04526 0.33406 0.55749 0.0
H1828 H 0.05474 0.30038 0.56102 0.0
H1829 H 0.0613 0.28079 0.55707 0.0
H1830 H 0.06943 0.27636 0.59263 0.0
H1831 H 0.06319 0.29588 0.5965 0.0
H1832 H 0.02808 0.36167 0.62367 0.0
H1833 H 0.03824 0.34775 0.61222 0.0
H1834 H 0.00909 0.37219 0.59386 0.0
H1835 H 0.01972 0.35834 0.58235 0.0
H1836 H 0.00811 0.34973 0.53391 0.0
H1837 H 0.03007 0.32706 0.51503 0.0
H1838 H 0.04071 0.32287 0.5323 0.0
H1839 H 0.01893 0.34538 0.55148 0.0
C1840 C 0.70718 0.05841 0.57825 0.0
C1841 C 0.71273 0.05431 0.5685 0.0
C1842 C 0.72974 0.06496 0.57369 0.0
C1843 C 0.72399 0.05754 0.56626 0.0
C1844 C 0.72394 0.06955 0.58307 0.0
C1845 C 0.71274 0.06624 0.58535 0.0
U1846 U 0.67875 0.04136 0.57566 0.0
O1847 O 0.67338 0.02904 0.58863 0.0
O1848 O 0.66294 0.0444 0.58547 0.0
C1849 C 0.66463 0.03527 0.59175 0.0
C1850 C 0.69638 0.0535 0.58218 0.0
C1851 C 0.655 0.02954 0.59718 0.0
C1852 C 0.64523 0.02533 0.61489 0.0
C1853 C 0.6534 0.03145 0.60885 0.0
C1854 C 0.63997 0.01537 0.59757 0.0
C1855 C 0.63851 0.01714 0.60935 0.0
C1856 C 0.64819 0.02155 0.59149 0.0
C1857 C 0.67294 0.02996 0.54384 0.0
C1858 C 0.66269 0.01501 0.53374 0.0
C1859 C 0.67586 0.02725 0.52359 0.0
C1860 C 0.67806 0.03321 0.53359 0.0
C1861 C 0.66846 0.01786 0.5236 0.0
C1862 C 0.665 0.021 0.54388 0.0
C1863 C 0.67725 0.03543 0.55424 0.0
O1864 O 0.68687 0.05812 0.57848 0.0
O1865 O 0.69604 0.04234 0.58254 0.0
O1866 O 0.68242 0.02916 0.56194 0.0
O1867 O 0.67227 0.04463 0.55827 0.0
H1868 H 0.70857 0.04823 0.56294 0.0
H1869 H 0.72832 0.054 0.55892 0.0
H1870 H 0.72824 0.07524 0.58893 0.0
H1871 H 0.7086 0.06938 0.59298 0.0
H1872 H 0.64443 0.02674 0.62397 0.0
H1873 H 0.65874 0.03746 0.61339 0.0
H1874 H 0.63484 0.00913 0.59311 0.0
H1875 H 0.64941 0.01994 0.58249 0.0
H1876 H 0.65695 0.00779 0.53397 0.0
H1877 H 0.68034 0.02971 0.5159 0.0
H1878 H 0.68422 0.04009 0.53341 0.0
H1879 H 0.66096 0.01837 0.55175 0.0
C1880 C 0.30012 0.9484 0.57885 0.0
C1881 C 0.29605 0.94929 0.56766 0.0
C1882 C 0.27756 0.94179 0.57373 0.0
C1883 C 0.28487 0.94591 0.5651 0.0
C1884 C 0.28195 0.94056 0.58481 0.0
C1885 C 0.29311 0.94379 0.58731 0.0
U1886 U 0.32844 0.96548 0.57525 0.0
O1887 O 0.33371 0.97848 0.58767 0.0
O1888 O 0.3445 0.96322 0.58482 0.0
C1889 C 0.34266 0.97254 0.59077 0.0
C1890 C 0.311 0.95343 0.58244 0.0
C1891 C 0.35191 0.97809 0.59702 0.0
C1892 C 0.3587 0.985 0.61523 0.0
C1893 C 0.35063 0.97917 0.60881 0.0
C1894 C 0.36974 0.9885 0.59813 0.0
C1895 C 0.36838 0.98979 0.61001 0.0
C1896 C 0.36151 0.98271 0.59165 0.0
C1897 C 0.33404 0.9764 0.54342 0.0
C1898 C 0.34438 0.99153 0.53371 0.0
C1899 C 0.33148 0.97933 0.52317 0.0
C1900 C 0.32914 0.97323 0.53304 0.0
C1901 C 0.33881 0.98877 0.52344 0.0
C1902 C 0.34193 0.9854 0.54373 0.0
C1903 C 0.32946 0.97084 0.55364 0.0
O1904 O 0.32047 0.94877 0.57869 0.0
O1905 O 0.31127 0.96459 0.58248 0.0
O1906 O 0.32423 0.97716 0.56126 0.0
O1907 O 0.33465 0.96184 0.55785 0.0
H1908 H 0.30136 0.95289 0.56103 0.0
H1909 H 0.28191 0.94674 0.55641 0.0
H1910 H 0.27665 0.9376 0.59175 0.0
H1911 H 0.29611 0.94314 0.59602 0.0
H1912 H 0.35714 0.986 0.62426 0.0
H1913 H 0.3432 0.97569 0.61306 0.0
H1914 H 0.37713 0.99194 0.59382 0.0
H1915 H 0.36259 0.98195 0.58252 0.0
H1916 H 0.35006 0.99879 0.53413 0.0
H1917 H 0.32714 0.97696 0.51537 0.0
H1918 H 0.32301 0.96633 0.53266 0.0
H1919 H 0.34579 0.98797 0.55171 0.0
C1920 C 0.99868 0.50685 0.17806 0.0
C1921 C 0.99373 0.51044 0.16779 0.0
H1922 H 0.01188 0.49737 0.18615 0.0
C1923 C 0.99859 0.50689 0.15743 0.0
H1924 H 0.99507 0.50937 0.18617 0.0
C1925 C 0.00838 0.49998 0.15741 0.0
C1926 C 0.01324 0.49638 0.16776 0.0
H1927 H 0.99493 0.50959 0.1494 0.0
H1928 H 0.01205 0.49733 0.14938 0.0
C1929 C 0.00828 0.49992 0.17805 0.0
C1930 C 0.50704 0.00816 0.15751 0.0
C1931 C 0.51068 0.01299 0.16785 0.0
H1932 H 0.49734 0.99475 0.14951 0.0
C1933 C 0.50718 0.00801 0.17814 0.0
H1934 H 0.50967 0.01184 0.14947 0.0
C1935 C 0.50024 0.99843 0.17816 0.0
C1936 C 0.49657 0.99352 0.1679 0.0
H1937 H 0.50977 0.0116 0.18624 0.0
H1938 H 0.49773 0.99481 0.18628 0.0
C1939 C 0.5001 0.99838 0.15753 0.0
C1940 C 0.9986 0.49986 0.8496 0.0
C1941 C 0.99373 0.49632 0.83924 0.0
H1942 H 0.0121 0.5094 0.85765 0.0
C1943 C 0.99869 0.49991 0.82897 0.0
H1944 H 0.99494 0.49716 0.85763 0.0
C1945 C 0.00831 0.50682 0.82898 0.0
C1946 C 0.01328 0.51035 0.83926 0.0
H1947 H 0.99507 0.4974 0.82085 0.0
H1948 H 0.01191 0.50937 0.82088 0.0
C1949 C 0.00842 0.50675 0.84961 0.0
C1950 C 0.50011 0.00827 0.8288 0.0
C1951 C 0.49669 0.01331 0.83909 0.0
H1952 H 0.50936 0.99494 0.82065 0.0
C1953 C 0.50029 0.00841 0.84943 0.0
H1954 H 0.49758 0.0119 0.8207 0.0
C1955 C 0.50709 0.99854 0.8494 0.0
C1956 C 0.51054 0.99362 0.83903 0.0
H1957 H 0.49773 0.01213 0.85748 0.0
H1958 H 0.5098 0.99488 0.85742 0.0
C1959 C 0.50693 0.99859 0.82877 0.0
C1960 C 0.17839 0.99861 0.50684 0.0
C1961 C 0.16814 0.99365 0.51048 0.0
H1962 H 0.18645 0.01182 0.49734 0.0
C1963 C 0.15775 0.99846 0.50692 0.0
H1964 H 0.18652 0.99504 0.50938 0.0
C1965 C 0.15771 0.00824 0.49999 0.0
C1966 C 0.16805 0.01312 0.49637 0.0
H1967 H 0.14974 0.9948 0.50965 0.0
H1968 H 0.14966 0.01188 0.49733 0.0
C1969 C 0.17835 0.00819 0.4999 0.0
C1970 C 0.00829 0.15728 0.50678 0.0
C1971 C 0.01315 0.16765 0.51033 0.0
H1972 H 0.99477 0.14922 0.49729 0.0
C1973 C 0.00815 0.17791 0.50679 0.0
H1974 H 0.01198 0.14926 0.50943 0.0
C1975 C 0.99849 0.17789 0.49994 0.0
C1976 C 0.99352 0.1676 0.49641 0.0
H1977 H 0.01175 0.18603 0.50931 0.0
H1978 H 0.99484 0.18599 0.49744 0.0
C1979 C 0.99844 0.15726 0.49994 0.0
C1980 C 0.82895 0.99851 0.50025 0.0
C1981 C 0.83922 0.99355 0.49664 0.0
H1982 H 0.82088 0.01183 0.50956 0.0
C1983 C 0.84959 0.99847 0.50009 0.0
H1984 H 0.82083 0.99486 0.49781 0.0
C1985 C 0.84962 0.00835 0.50687 0.0
C1986 C 0.83928 0.01325 0.51045 0.0
H1987 H 0.85761 0.99481 0.49738 0.0
H1988 H 0.85767 0.01207 0.50942 0.0
C1989 C 0.82898 0.0082 0.50703 0.0
C1990 C 0.00848 0.84943 0.50005 0.0
C1991 C 0.01334 0.83908 0.49648 0.0
H1992 H 0.995 0.85747 0.5096 0.0
C1993 C 0.00836 0.82881 0.50004 0.0
H1994 H 0.01216 0.85746 0.49738 0.0
C1995 C 0.99874 0.82881 0.50693 0.0
C1996 C 0.99378 0.83909 0.51049 0.0
H1997 H 0.01197 0.8207 0.49751 0.0
H1998 H 0.99511 0.8207 0.50946 0.0
C1999 C 0.99866 0.84944 0.50693 0.0
C2000 C 0.50708 0.15734 0.99843 0.0
C2001 C 0.51064 0.16768 0.99351 0.0
H2002 H 0.4976 0.14936 0.01199 0.0
C2003 C 0.50714 0.17797 0.99848 0.0
H2004 H 0.50971 0.1493 0.99476 0.0
C2005 C 0.5003 0.17801 0.00815 0.0
C2006 C 0.49675 0.16775 0.01316 0.0
H2007 H 0.50965 0.18607 0.99482 0.0
H2008 H 0.49781 0.18613 0.01176 0.0
C2009 C 0.50027 0.15738 0.00829 0.0
C2010 C 0.50016 0.82884 0.99863 0.0
C2011 C 0.49664 0.83912 0.99364 0.0
H2012 H 0.50955 0.82072 0.01188 0.0
C2013 C 0.50023 0.84947 0.99851 0.0
H2014 H 0.49761 0.82074 0.99501 0.0
C2015 C 0.5071 0.84946 0.00834 0.0
C2016 C 0.51063 0.8391 0.01322 0.0
H2017 H 0.4976 0.85751 0.99482 0.0
H2018 H 0.50979 0.85749 0.012 0.0
C2019 C 0.50704 0.82883 0.00826 0.0
C2020 C 0.17824 0.50681 0.00805 0.0
C2021 C 0.16796 0.51033 0.01304 0.0
H2022 H 0.18636 0.49739 0.99481 0.0
C2023 C 0.1576 0.50673 0.00819 0.0
H2024 H 0.18635 0.50936 0.01165 0.0
C2025 C 0.15761 0.49984 0.99838 0.0
C2026 C 0.16797 0.4963 0.9935 0.0
H2027 H 0.14957 0.50937 0.01187 0.0
H2028 H 0.14957 0.49714 0.99473 0.0
C2029 C 0.17825 0.4999 0.99844 0.0
C2030 C 0.82891 0.49996 0.00825 0.0
C2031 C 0.83918 0.49634 0.01319 0.0
H2032 H 0.82082 0.50944 0.99505 0.0
C2033 C 0.84955 0.49988 0.00833 0.0
H2034 H 0.82079 0.49743 0.01186 0.0
C2035 C 0.84957 0.50681 0.99854 0.0
C2036 C 0.83921 0.51042 0.9937 0.0
H2037 H 0.85758 0.49716 0.01197 0.0
H2038 H 0.85761 0.50946 0.99488 0.0
C2039 C 0.82893 0.50688 0.99866 0.0
C2040 C 0.50869 0.99981 0.67809 0.0
C2041 C 0.51372 0.99641 0.66779 0.0
H2042 H 0.49534 0.00902 0.68626 0.0
C2043 C 0.5088 0.99999 0.65746 0.0
H2044 H 0.51234 0.99729 0.68618 0.0
C2045 C 0.4989 0.00675 0.65751 0.0
C2046 C 0.49399 0.01019 0.66788 0.0
H2047 H 0.51251 0.99745 0.6494 0.0
H2048 H 0.49522 0.00945 0.64949 0.0
C2049 C 0.49898 0.00659 0.67813 0.0
C2050 C 0.00707 0.5081 0.67798 0.0
C2051 C 0.01064 0.51305 0.6677 0.0
H2052 H 0.99763 0.49487 0.68611 0.0
C2053 C 0.0071 0.50815 0.65735 0.0
H2054 H 0.00958 0.51173 0.68609 0.0
C2055 C 1.00022 0.49832 0.65736 0.0
C2056 C 0.99664 0.49348 0.66773 0.0
H2057 H 0.00978 0.5118 0.64932 0.0
H2058 H 0.99757 0.49463 0.64934 0.0
C2059 C 1.00017 0.49847 0.67799 0.0
C2060 C 0.49868 0.99989 0.34951 0.0
C2061 C 0.49381 0.99634 0.33915 0.0
H2062 H 0.51215 0.00946 0.35755 0.0
C2063 C 0.49876 0.99993 0.32888 0.0
H2064 H 0.49502 0.99719 0.35754 0.0
C2065 C 0.50837 0.00685 0.32889 0.0
C2066 C 0.51334 0.01039 0.33917 0.0
H2067 H 0.49515 0.9974 0.32077 0.0
H2068 H 0.51197 0.0094 0.32078 0.0
C2069 C 0.50848 0.0068 0.34952 0.0
C2070 C 0.00691 0.49893 0.32888 0.0
C2071 C 0.01046 0.49391 0.33913 0.0
H2072 H 0.99759 0.51228 0.32083 0.0
C2073 C 0.00695 0.49878 0.34951 0.0
H2074 H 0.0094 0.49533 0.32076 0.0
C2075 C 1.00015 0.50865 0.34955 0.0
C2076 C 0.99661 0.51359 0.33922 0.0
H2077 H 0.00962 0.49508 0.35753 0.0
H2078 H 0.99754 0.51232 0.3576 0.0
C2079 C 1.00009 0.50861 0.32892 0.0
C2080 C 0.6783 0.50838 0.99987 0.0
C2081 C 0.668 0.51337 0.99643 0.0
H2082 H 0.68648 0.49508 0.00913 0.0
C2083 C 0.65766 0.50845 1.00001 0.0
H2084 H 0.6864 0.51203 0.99734 0.0
C2085 C 0.65772 0.49859 0.00681 0.0
C2086 C 0.6681 0.49371 0.01028 0.0
H2087 H 0.64961 0.51214 0.99744 0.0
H2088 H 0.6497 0.4949 0.00952 0.0
C2089 C 0.67835 0.4987 0.00668 0.0
C2090 C 0.49883 0.65726 1.00008 0.0
C2091 C 0.49393 0.66764 0.99662 0.0
H2092 H 0.5124 0.64917 0.00945 0.0
C2093 C 0.49891 0.67789 1.00023 0.0
H2094 H 0.49515 0.64925 0.99736 0.0
C2095 C 0.50859 0.67784 0.00706 0.0
C2096 C 0.51361 0.66755 0.01049 0.0
H2097 H 0.49528 0.68601 0.99778 0.0
H2098 H 0.51223 0.68594 0.0096 0.0
C2099 C 0.5087 0.65722 0.00689 0.0
C2100 C 0.3291 0.49826 0.99998 0.0
C2101 C 0.33939 0.49331 0.99645 0.0
H2102 H 0.32095 0.51151 0.00934 0.0
C2103 C 0.34974 0.49821 1.00001 0.0
H2104 H 0.321 0.49463 0.99746 0.0
C2105 C 0.34972 0.50804 0.00686 0.0
C2106 C 0.33934 0.5129 0.01039 0.0
H2107 H 0.35778 0.49454 0.99736 0.0
H2108 H 0.35774 0.51173 0.00954 0.0
C2109 C 0.32908 0.50791 0.00683 0.0
C2110 C 0.49883 0.32872 0.00697 0.0
C2111 C 0.49386 0.339 0.01049 0.0
H2112 H 0.51207 0.3206 0.99756 0.0
C2113 C 0.49873 0.34935 0.0069 0.0
H2114 H 0.49522 0.32062 0.00952 0.0
C2115 C 0.50854 0.34934 1.00002 0.0
C2116 C 0.51341 0.33897 0.99648 0.0
H2117 H 0.49506 0.35739 0.00954 0.0
H2118 H 0.5122 0.35736 0.99731 0.0
C2119 C 0.50846 0.32871 1.00007 0.0
C2120 C 0.00722 0.6779 0.4985 0.0
C2121 C 0.01066 0.6676 0.4935 0.0
H2122 H 0.99795 0.68608 0.5118 0.0
C2123 C 0.00708 0.65728 0.49843 0.0
H2124 H 0.00974 0.68599 0.49484 0.0
C2125 C 1.00029 0.65733 0.50831 0.0
C2126 C 0.99682 0.66771 0.51319 0.0
H2127 H 0.00966 0.64922 0.49475 0.0
H2128 H 0.9976 0.64932 0.51201 0.0
C2129 C 1.00041 0.67796 0.50818 0.0
C2130 C 0.00703 0.3288 0.50812 0.0
C2131 C 0.01059 0.33908 0.51307 0.0
H2132 H 0.99763 0.32068 0.49486 0.0
C2133 C 0.00705 0.34943 0.50817 0.0
H2134 H 0.00953 0.3207 0.51176 0.0
C2135 C 1.00021 0.34942 0.49833 0.0
C2136 C 0.99664 0.33906 0.49347 0.0
H2137 H 0.00972 0.35746 0.51183 0.0
H2138 H 0.99756 0.35745 0.49464 0.0
C2139 C 1.00016 0.32879 0.49847 0.0
C2140 C 0.67834 0.007 0.50837 0.0
C2141 C 0.66804 0.01042 0.51338 0.0
H2142 H 0.68651 0.99775 0.49505 0.0
C2143 C 0.6577 0.00684 0.50847 0.0
H2144 H 0.68644 0.00952 0.51201 0.0
C2145 C 0.65774 1.00004 0.4986 0.0
C2146 C 0.66813 0.99658 0.4937 0.0
H2147 H 0.64964 0.0094 0.51217 0.0
H2148 H 0.64973 0.99732 0.49492 0.0
C2149 C 0.67838 1.00019 0.49868 0.0
C2150 C 0.34962 0.99991 0.50846 0.0
C2151 C 0.33927 0.99636 0.51336 0.0
H2152 H 0.35764 0.00942 0.49493 0.0
C2153 C 0.32898 0.99989 0.50839 0.0
H2154 H 0.35767 0.99725 0.51212 0.0
C2155 C 0.32897 0.00674 0.49874 0.0
C2156 C 0.33924 0.01029 0.49376 0.0
H2157 H 0.32088 0.99739 0.51204 0.0
H2158 H 0.32085 0.00925 0.49513 0.0
C2159 C 0.34961 0.00675 0.49862 0.0
C2160 C 0.06678 0.42904 0.24508 0.0
C2161 C 0.07277 0.43881 0.24176 0.0
H2162 H 0.05996 0.41936 0.25896 0.0
C2163 C 0.0769 0.4463 0.25011 0.0
H2164 H 0.06361 0.42312 0.23874 0.0
C2165 C 0.07475 0.44425 0.26165 0.0
C2166 C 0.06859 0.43456 0.26502 0.0
H2167 H 0.08163 0.45384 0.24767 0.0
H2168 H 0.07791 0.45022 0.26793 0.0
C2169 C 0.06477 0.42688 0.25662 0.0
C2170 C 0.5697 0.07864 0.26143 0.0
C2171 C 0.57268 0.06772 0.26518 0.0
H2172 H 0.56501 0.08909 0.24728 0.0
C2173 C 0.57408 0.05895 0.2572 0.0
H2174 H 0.56862 0.08552 0.26749 0.0
C2175 C 0.57226 0.06099 0.24561 0.0
C2176 C 0.56888 0.07183 0.2418 0.0
H2177 H 0.57657 0.0505 0.25996 0.0
H2178 H 0.57347 0.05406 0.23965 0.0
C2179 C 0.56774 0.08067 0.24985 0.0
C2180 C 0.92953 0.57585 0.24767 0.0
C2181 C 0.93569 0.56745 0.24174 0.0
H2182 H 0.92627 0.58408 0.26354 0.0
C2183 C 0.9438 0.56101 0.24776 0.0
H2184 H 0.9233 0.5811 0.24335 0.0
C2185 C 0.94578 0.56298 0.25933 0.0
C2186 C 0.93957 0.57132 0.26528 0.0
H2187 H 0.94857 0.5543 0.2436 0.0
H2188 H 0.95233 0.55804 0.26354 0.0
C2189 C 0.93135 0.57768 0.25928 0.0
C2190 C 0.44608 0.94327 0.24765 0.0
C2191 C 0.43954 0.93526 0.24158 0.0
H2192 H 0.44915 0.95168 0.26348 0.0
C2193 C 0.43101 0.92923 0.24748 0.0
H2194 H 0.45287 0.94794 0.24352 0.0
C2195 C 0.42917 0.93106 0.25911 0.0
C2196 C 0.43565 0.93915 0.26516 0.0
H2197 H 0.42568 0.92309 0.24314 0.0
H2198 H 0.42267 0.92607 0.26334 0.0
C2199 C 0.44411 0.94524 0.25923 0.0
C2200 C 0.0773 0.56522 0.74505 0.0
C2201 C 0.06844 0.57256 0.74185 0.0
H2202 H 0.08636 0.55742 0.75884 0.0
C2203 C 0.06193 0.57794 0.75033 0.0
H2204 H 0.08248 0.56107 0.73863 0.0
C2205 C 0.06399 0.57572 0.76185 0.0
C2206 C 0.07278 0.56829 0.76507 0.0
H2207 H 0.05508 0.58368 0.74802 0.0
H2208 H 0.05875 0.57983 0.76824 0.0
C2209 C 0.07953 0.5632 0.75657 0.0
C2210 C 0.43586 0.07847 0.74584 0.0
C2211 C 0.43492 0.0673 0.74171 0.0
H2212 H 0.43902 0.08913 0.76024 0.0
C2213 C 0.43547 0.05817 0.74938 0.0
H2214 H 0.43542 0.08564 0.74005 0.0
C2215 C 0.4372 0.06012 0.76098 0.0
C2216 C 0.43864 0.07126 0.76515 0.0
H2217 H 0.43451 0.04949 0.74639 0.0
H2218 H 0.43746 0.05287 0.76667 0.0
C2219 C 0.43782 0.08043 0.75742 0.0
C2220 C 0.93448 0.44811 0.75737 0.0
C2221 C 0.93466 0.4391 0.7652 0.0
H2222 H 0.93599 0.45323 0.73997 0.0
C2223 C 0.9364 0.42797 0.76127 0.0
H2224 H 0.93292 0.45675 0.76023 0.0
C2225 C 0.93842 0.42594 0.7497 0.0
C2226 C 0.93852 0.43501 0.7418 0.0
H2227 H 0.93652 0.42089 0.76719 0.0
H2228 H 0.94024 0.41731 0.74702 0.0
C2229 C 0.93629 0.44609 0.74579 0.0
C2230 C 0.5582 0.93694 0.7577 0.0
C2231 C 0.56733 0.935 0.76517 0.0
H2232 H 0.55281 0.93986 0.74063 0.0
C2233 C 0.57844 0.93458 0.76078 0.0
H2234 H 0.54953 0.93701 0.76085 0.0
C2235 C 0.58042 0.93657 0.7492 0.0
C2236 C 0.57128 0.93873 0.74166 0.0
H2237 H 0.58562 0.93304 0.76637 0.0
H2238 H 0.58916 0.93673 0.74628 0.0
C2239 C 0.56013 0.93863 0.74609 0.0
C2240 C 0.25916 0.07515 0.4286 0.0
C2241 C 0.26555 0.0679 0.43571 0.0
H2242 H 0.24289 0.08227 0.42465 0.0
C2243 C 0.25999 0.0626 0.44491 0.0
H2244 H 0.26311 0.07955 0.42153 0.0
C2245 C 0.24841 0.06447 0.44693 0.0
C2246 C 0.24197 0.07153 0.43969 0.0
H2247 H 0.26451 0.05682 0.45049 0.0
H2248 H 0.24454 0.06042 0.45425 0.0
C2249 C 0.24753 0.07684 0.43049 0.0
C2250 C 0.93507 0.24587 0.42847 0.0
C2251 C 0.93495 0.24158 0.43962 0.0
H2252 H 0.93763 0.26034 0.41777 0.0
C2253 C 0.93634 0.24913 0.44878 0.0
H2254 H 0.93397 0.2402 0.42127 0.0
C2255 C 0.93809 0.26073 0.44684 0.0
C2256 C 0.93873 0.26504 0.43567 0.0
H2257 H 0.93599 0.24605 0.45747 0.0
H2258 H 0.93897 0.26629 0.45414 0.0
C2259 C 0.93707 0.25745 0.4265 0.0
C2260 C 0.74798 0.946 0.44338 0.0
C2261 C 0.74185 0.93935 0.43551 0.0
H2262 H 0.76386 0.94915 0.45167 0.0
C2263 C 0.74771 0.93077 0.42952 0.0
H2264 H 0.74389 0.95284 0.44801 0.0
C2265 C 0.75934 0.92896 0.43128 0.0
C2266 C 0.76544 0.93551 0.43927 0.0
H2267 H 0.74331 0.92537 0.42348 0.0
H2268 H 0.76353 0.92241 0.42633 0.0
C2269 C 0.75957 0.94405 0.4453 0.0
C2270 C 0.07512 0.7569 0.44736 0.0
C2271 C 0.07264 0.76504 0.43899 0.0
H2272 H 0.07512 0.73923 0.45191 0.0
C2273 C 0.06845 0.76152 0.4284 0.0
H2274 H 0.07851 0.75951 0.45554 0.0
C2275 C 0.06645 0.74996 0.42631 0.0
C2276 C 0.06865 0.74175 0.43479 0.0
H2277 H 0.06656 0.76771 0.42183 0.0
H2278 H 0.06288 0.74751 0.41817 0.0
C2279 C 0.07315 0.74535 0.44529 0.0
C2280 C 0.24784 0.92888 0.57561 0.0
C2281 C 0.2417 0.93541 0.56764 0.0
H2282 H 0.26388 0.92534 0.5834 0.0
C2283 C 0.24753 0.944 0.56164 0.0
H2284 H 0.24368 0.92229 0.58054 0.0
C2285 C 0.25912 0.946 0.56356 0.0
C2286 C 0.26528 0.93937 0.57141 0.0
H2287 H 0.24321 0.9491 0.55529 0.0
H2288 H 0.26318 0.95288 0.55896 0.0
C2289 C 0.25947 0.93074 0.57738 0.0
C2290 C 0.0797 0.25024 0.5636 0.0
C2291 C 0.07268 0.24177 0.56838 0.0
H2292 H 0.08286 0.26817 0.5617 0.0
C2293 C 0.06364 0.24503 0.5755 0.0
H2294 H 0.08672 0.24795 0.55807 0.0
C2295 C 0.06158 0.25655 0.57769 0.0
C2296 C 0.06837 0.265 0.57261 0.0
H2297 H 0.05819 0.23867 0.57937 0.0
H2298 H 0.05454 0.2589 0.58318 0.0
C2299 C 0.07748 0.26177 0.56561 0.0
C2300 C 0.76132 0.0601 0.56999 0.0
C2301 C 0.76544 0.07125 0.56843 0.0
H2302 H 0.74676 0.04945 0.57276 0.0
C2303 C 0.75768 0.08039 0.56912 0.0
H2304 H 0.76704 0.05288 0.56983 0.0
C2305 C 0.74609 0.0784 0.57107 0.0
C2306 C 0.74201 0.06723 0.57212 0.0
H2307 H 0.76046 0.08909 0.56783 0.0
H2308 H 0.74027 0.08556 0.57142 0.0
C2309 C 0.74972 0.05812 0.57171 0.0
C2310 C 0.93652 0.76116 0.57884 0.0
C2311 C 0.93469 0.76509 0.56772 0.0
H2312 H 0.94043 0.74691 0.58947 0.0
C2313 C 0.93442 0.75726 0.55871 0.0
H2314 H 0.93671 0.76708 0.58592 0.0
C2315 C 0.93623 0.74568 0.56072 0.0
C2316 C 0.93855 0.7417 0.57178 0.0
H2317 H 0.93279 0.76013 0.55008 0.0
H2318 H 0.93586 0.73986 0.55357 0.0
C2319 C 0.93854 0.74959 0.58085 0.0
C2320 C 0.43729 0.24577 0.06028 0.0
C2321 C 0.43866 0.24159 0.07143 0.0
H2322 H 0.43465 0.26036 0.04965 0.0
C2323 C 0.43775 0.2493 0.0806 0.0
H2324 H 0.43759 0.2401 0.05302 0.0
C2325 C 0.43579 0.26089 0.07864 0.0
C2326 C 0.43493 0.26504 0.06747 0.0
H2327 H 0.4389 0.24649 0.08931 0.0
H2328 H 0.43529 0.26667 0.08582 0.0
C2329 C 0.43555 0.25737 0.05833 0.0
C2330 C 0.44061 0.75663 0.92627 0.0
C2331 C 0.43856 0.76485 0.93478 0.0
H2332 H 0.44038 0.73889 0.92176 0.0
C2333 C 0.43417 0.76124 0.94533 0.0
H2334 H 0.4441 0.75908 0.91808 0.0
C2335 C 0.43218 0.74969 0.94742 0.0
C2336 C 0.43452 0.74154 0.939 0.0
H2337 H 0.4323 0.76735 0.95198 0.0
H2338 H 0.42889 0.74708 0.95564 0.0
C2339 C 0.43858 0.74508 0.92836 0.0
C2340 C 0.2482 0.44619 0.94303 0.0
C2341 C 0.24198 0.4394 0.93536 0.0
H2342 H 0.26414 0.4494 0.95117 0.0
C2343 C 0.24772 0.43061 0.92957 0.0
H2344 H 0.24419 0.45319 0.94748 0.0
C2345 C 0.25934 0.42873 0.93134 0.0
C2346 C 0.26553 0.43542 0.93914 0.0
H2347 H 0.24324 0.42509 0.92369 0.0
H2348 H 0.26345 0.42201 0.92655 0.0
C2349 C 0.25978 0.44417 0.94495 0.0
C2350 C 0.56501 0.25855 0.94709 0.0
C2351 C 0.57183 0.26505 0.93968 0.0
H2352 H 0.55749 0.24243 0.95078 0.0
C2353 C 0.57691 0.25956 0.93031 0.0
H2354 H 0.56116 0.26237 0.95456 0.0
C2355 C 0.57519 0.24794 0.92841 0.0
C2356 C 0.56813 0.2415 0.93567 0.0
H2357 H 0.58215 0.26424 0.92434 0.0
H2358 H 0.5794 0.24405 0.92119 0.0
C2359 C 0.56311 0.24698 0.94507 0.0
C2360 C 0.75943 0.56094 0.9437 0.0
C2361 C 0.76546 0.56742 0.93562 0.0
H2362 H 0.74364 0.5579 0.95219 0.0
C2363 C 0.75951 0.57583 0.92948 0.0
H2364 H 0.7636 0.55422 0.94845 0.0
C2365 C 0.74789 0.57762 0.9313 0.0
C2366 C 0.74189 0.57123 0.93949 0.0
H2367 H 0.76383 0.58112 0.92328 0.0
H2368 H 0.74362 0.58403 0.92623 0.0
C2369 C 0.74785 0.56287 0.94567 0.0
C2370 C 0.58034 0.75014 0.06475 0.0
C2371 C 0.57256 0.74175 0.06838 0.0
H2372 H 0.58418 0.76801 0.06374 0.0
C2373 C 0.56274 0.74513 0.07433 0.0
H2374 H 0.58796 0.7478 0.0601 0.0
C2375 C 0.56067 0.75666 0.07646 0.0
C2376 C 0.56828 0.76499 0.07252 0.0
H2377 H 0.55668 0.73886 0.07735 0.0
H2378 H 0.55303 0.75911 0.08102 0.0
C2379 C 0.57818 0.76167 0.06675 0.0
C2380 C 0.26219 0.56508 0.07706 0.0
C2381 C 0.26541 0.57248 0.06827 0.0
H2382 H 0.24836 0.55723 0.08605 0.0
C2383 C 0.25694 0.57791 0.06177 0.0
H2384 H 0.26859 0.56089 0.08222 0.0
C2385 C 0.24541 0.57568 0.0638 0.0
C2386 C 0.24216 0.56819 0.07254 0.0
H2387 H 0.25927 0.58369 0.05497 0.0
H2388 H 0.23903 0.57983 0.05858 0.0
C2389 C 0.25065 0.56305 0.07926 0.0
C2390 C 0.74817 0.42848 0.07528 0.0
C2391 C 0.74182 0.43557 0.06797 0.0
H2392 H 0.7644 0.42449 0.08246 0.0
C2393 C 0.74744 0.44471 0.06263 0.0
H2394 H 0.74417 0.42146 0.07972 0.0
C2395 C 0.75904 0.44668 0.0645 0.0
C2396 C 0.76544 0.43946 0.07163 0.0
H2397 H 0.74296 0.45028 0.05681 0.0
H2398 H 0.76296 0.45395 0.06041 0.0
C2399 C 0.75981 0.43032 0.07698 0.0
C2400 C 0.13471 0.50763 0.1286 0.0
C2401 C 0.13152 0.51024 0.11734 0.0
H2402 H 0.13036 0.49958 0.14427 0.0
C2403 C 0.12107 0.50597 0.11326 0.0
H2404 H 0.14276 0.51045 0.13209 0.0
C2405 C 0.11409 0.49922 0.12021 0.0
C2406 C 0.11731 0.49669 0.13147 0.0
H2407 H 0.11818 0.50788 0.10472 0.0
H2408 H 0.10623 0.49591 0.11671 0.0
C2409 C 0.12766 0.50111 0.13558 0.0
C2410 C 0.49629 0.1195 0.11625 0.0
C2411 C 0.49762 0.13137 0.11652 0.0
H2412 H 0.50115 0.10348 0.12344 0.0
C2413 C 0.50583 0.13614 0.12377 0.0
H2414 H 0.48997 0.11564 0.11075 0.0
C2415 C 0.51244 0.12923 0.13081 0.0
C2416 C 0.51083 0.11735 0.13099 0.0
H2417 H 0.50715 0.14528 0.12401 0.0
H2418 H 0.51877 0.13328 0.13616 0.0
C2419 C 0.50276 0.11256 0.12349 0.0
C2420 C 0.88325 0.5015 0.13627 0.0
C2421 C 0.89063 0.50956 0.13142 0.0
H2422 H 0.87079 0.4886 0.1335 0.0
C2423 C 0.89104 0.51067 0.11954 0.0
H2424 H 0.88291 0.50036 0.14543 0.0
C2425 C 0.88384 0.50411 0.11264 0.0
C2426 C 0.87624 0.49617 0.11751 0.0
H2427 H 0.89663 0.51687 0.11561 0.0
H2428 H 0.88402 0.50555 0.10354 0.0
C2429 C 0.87623 0.49481 0.12941 0.0
C2430 C 0.49532 0.87711 0.13122 0.0
C2431 C 0.4964 0.88905 0.13091 0.0
H2432 H 0.50109 0.86106 0.12482 0.0
C2433 C 0.50413 0.89387 0.12306 0.0
H2434 H 0.48928 0.873 0.13684 0.0
C2435 C 0.51067 0.88694 0.11588 0.0
C2436 C 0.50982 0.87506 0.11657 0.0
H2437 H 0.50542 0.90298 0.12264 0.0
H2438 H 0.51667 0.89087 0.11007 0.0
C2439 C 0.50203 0.87022 0.12424 0.0
C2440 C 0.12774 0.50614 0.87169 0.0
C2441 C 0.11716 0.51018 0.87561 0.0
H2442 H 0.1429 0.4969 0.87538 0.0
C2443 C 0.11368 0.50727 0.8867 0.0
H2444 H 0.13066 0.50799 0.86313 0.0
C2445 C 0.12061 0.50052 0.89368 0.0
C2446 C 0.13123 0.49656 0.88975 0.0
H2447 H 0.10563 0.51031 0.89005 0.0
H2448 H 0.11758 0.49832 0.9021 0.0
C2449 C 0.13471 0.49955 0.87868 0.0
C2450 C 0.51459 0.12001 0.8868 0.0
C2451 C 0.51017 0.13024 0.89107 0.0
H2452 H 0.51172 0.10548 0.87616 0.0
C2453 C 0.49905 0.13349 0.88825 0.0
H2454 H 0.52325 0.1175 0.88876 0.0
C2455 C 0.4924 0.12664 0.88117 0.0
C2456 C 0.49682 0.11644 0.87664 0.0
H2457 H 0.49557 0.14145 0.89139 0.0
H2458 H 0.48383 0.12939 0.87917 0.0
C2459 C 0.50796 0.11315 0.87965 0.0
C2460 C 0.87718 0.51267 0.87785 0.0
C2461 C 0.87644 0.51053 0.88963 0.0
H2462 H 0.88435 0.50776 0.86185 0.0
C2463 C 0.8833 0.50186 0.89432 0.0
H2464 H 0.87232 0.51945 0.87393 0.0
C2465 C 0.89045 0.49533 0.88736 0.0
C2466 C 0.89075 0.49722 0.87557 0.0
H2467 H 0.88287 0.49985 0.90331 0.0
H2468 H 0.89544 0.48853 0.89112 0.0
C2469 C 0.88415 0.50603 0.87091 0.0
C2470 C 0.50738 0.89326 0.88683 0.0
C2471 C 0.51043 0.88975 0.87578 0.0
H2472 H 0.49837 0.88926 0.9022 0.0
C2473 C 0.50655 0.87912 0.87187 0.0
H2474 H 0.51028 0.90135 0.89016 0.0
C2475 C 0.49997 0.87211 0.87883 0.0
C2476 C 0.49687 0.87558 0.88987 0.0
H2477 H 0.50852 0.87619 0.86334 0.0
H2478 H 0.49742 0.86387 0.87554 0.0
C2479 C 0.50066 0.88626 0.89379 0.0
C2480 C 0.13466 0.12818 0.49961 0.0
C2481 C 0.13121 0.11708 0.49669 0.0
H2482 H 0.13058 0.14376 0.50797 0.0
C2483 C 0.12061 0.11315 0.50069 0.0
H2484 H 0.14284 0.1315 0.49694 0.0
C2485 C 0.11367 0.12013 0.50744 0.0
C2486 C 0.11713 0.13125 0.51028 0.0
H2487 H 0.11759 0.10471 0.49854 0.0
H2488 H 0.10565 0.11677 0.51051 0.0
C2489 C 0.12768 0.13518 0.50618 0.0
C2490 C 0.88815 0.13374 0.50797 0.0
C2491 C 0.89126 0.13032 0.49698 0.0
H2492 H 0.87888 0.12974 0.52309 0.0
C2493 C 0.88732 0.11991 0.4927 0.0
H2494 H 0.89104 0.14183 0.51134 0.0
C2495 C 0.88016 0.11303 0.49931 0.0
C2496 C 0.87685 0.11649 0.51031 0.0
H2497 H 0.88951 0.11726 0.48414 0.0
H2498 H 0.87691 0.10523 0.49563 0.0
C2499 C 0.88109 0.12686 0.51461 0.0
C2500 C 0.87813 0.87816 0.49363 0.0
C2501 C 0.87662 0.88973 0.49639 0.0
H2502 H 0.88585 0.86226 0.49807 0.0
C2503 C 0.88269 0.89423 0.50572 0.0
H2504 H 0.8739 0.8744 0.48635 0.0
C2505 C 0.88984 0.88727 0.51227 0.0
C2506 C 0.89089 0.87565 0.50971 0.0
H2507 H 0.88165 0.90304 0.50823 0.0
H2508 H 0.89421 0.89085 0.51956 0.0
C2509 C 0.88507 0.87119 0.50028 0.0
C2510 C 0.12325 0.89391 0.50298 0.0
C2511 C 0.13109 0.8891 0.51072 0.0
H2512 H 0.11027 0.89089 0.49043 0.0
C2513 C 0.13137 0.87717 0.51185 0.0
H2514 H 0.12284 0.90302 0.50167 0.0
C2515 C 0.12439 0.87027 0.50515 0.0
C2516 C 0.11674 0.8751 0.49734 0.0
H2517 H 0.13699 0.87307 0.5179 0.0
H2518 H 0.12495 0.86111 0.5061 0.0
C2519 C 0.11606 0.88698 0.49645 0.0
C2520 C 0.63049 0.99825 0.61508 0.0
C2521 C 0.63042 0.01016 0.61606 0.0
H2522 H 0.62393 0.98241 0.6214 0.0
C2523 C 0.62312 0.01533 0.62402 0.0
H2524 H 0.63617 0.99405 0.60914 0.0
C2525 C 0.61604 0.00869 0.6309 0.0
C2526 C 0.61628 0.99677 0.63008 0.0
H2527 H 0.62295 0.0245 0.62497 0.0
H2528 H 0.61064 0.01284 0.63713 0.0
C2529 C 0.62355 0.9916 0.62211 0.0
C2530 C 0.0077 0.62828 0.63467 0.0
C2531 C 0.01049 0.61712 0.63132 0.0
H2532 H 0.99947 0.6439 0.63048 0.0
C2533 C 0.00639 0.61313 0.62077 0.0
H2534 H 0.01043 0.63166 0.6428 0.0
C2535 C 0.99967 0.62012 0.61381 0.0
C2536 C 0.99695 0.63129 0.61718 0.0
H2537 H 0.00844 0.60465 0.61782 0.0
H2538 H 0.99651 0.61671 0.60584 0.0
C2539 C 1.00116 0.63529 0.62766 0.0
C2540 C 0.38943 0.01259 0.61957 0.0
C2541 C 0.39102 0.00965 0.63104 0.0
H2542 H 0.38079 0.00882 0.60397 0.0
C2543 C 0.38573 0.99987 0.63536 0.0
H2544 H 0.39338 0.02018 0.61612 0.0
C2545 C 0.3788 0.9932 0.62841 0.0
C2546 C 0.37674 0.99632 0.61701 0.0
H2547 H 0.38692 0.9974 0.64418 0.0
H2548 H 0.37498 0.98564 0.63206 0.0
C2549 C 0.38227 0.00603 0.61263 0.0
C2550 C 0.00757 0.3721 0.62825 0.0
C2551 C 0.01048 0.37553 0.61714 0.0
H2552 H 0.99922 0.37618 0.64383 0.0
C2553 C 0.00649 0.38613 0.6132 0.0
H2554 H 0.01025 0.36392 0.63156 0.0
C2555 C 0.99977 0.39308 0.6202 0.0
C2556 C 0.99694 0.38963 0.63132 0.0
H2557 H 0.00863 0.38913 0.60475 0.0
H2558 H 0.99671 0.40111 0.61685 0.0
C2559 C 1.00101 0.37908 0.63526 0.0
C2560 C 0.62286 1.00055 0.37099 0.0
C2561 C 0.61649 0.00955 0.37558 0.0
H2562 H 0.6345 0.98698 0.37408 0.0
C2563 C 0.61701 0.01167 0.38733 0.0
H2564 H 0.62248 0.99865 0.36196 0.0
C2565 C 0.62417 0.00515 0.3943 0.0
C2566 C 0.63079 0.99627 0.38967 0.0
H2567 H 0.6122 0.01862 0.39103 0.0
H2568 H 0.62477 0.00732 0.40324 0.0
C2569 C 0.62982 0.99392 0.37795 0.0
C2570 C 0.99175 0.62388 0.38438 0.0
C2571 C 0.99692 0.61609 0.3769 0.0
H2572 H 0.99422 0.63689 0.39696 0.0
C2573 C 0.00886 0.61533 0.37661 0.0
H2574 H 0.98256 0.62467 0.38472 0.0
C2575 C 0.01551 0.6224 0.38351 0.0
C2576 C 0.01033 0.6302 0.39096 0.0
H2577 H 0.01305 0.60953 0.37079 0.0
H2578 H 0.02471 0.62184 0.38295 0.0
C2579 C 0.9984 0.6308 0.39142 0.0
C2580 C 0.37774 0.01288 0.37819 0.0
C2581 C 0.37654 0.01041 0.38986 0.0
H2582 H 0.38524 0.0082 0.36226 0.0
C2583 C 0.38292 1.00134 0.39448 0.0
H2584 H 0.37327 0.01996 0.37433 0.0
C2585 C 0.39006 0.99477 0.38754 0.0
C2586 C 0.3908 0.99702 0.37583 0.0
H2587 H 0.38213 0.99906 0.40338 0.0
H2588 H 0.39468 0.98769 0.39123 0.0
C2589 C 0.38468 0.0062 0.37125 0.0
C2590 C 0.99997 0.37224 0.37865 0.0
C2591 C 0.99693 0.37569 0.38971 0.0
H2592 H 0.00844 0.37634 0.36313 0.0
C2593 C 1.00078 0.38634 0.39365 0.0
H2594 H 0.9974 0.36402 0.37535 0.0
C2595 C 0.00749 0.39334 0.38667 0.0
C2596 C 0.01046 0.38987 0.3756 0.0
H2597 H 0.99853 0.38934 0.40207 0.0
H2598 H 0.01043 0.40142 0.39001 0.0
C2599 C 0.00653 0.37925 0.37167 0.0
C2600 C 0.62393 0.62515 0.9917 0.0
C2601 C 0.63024 0.61628 0.99672 0.0
H2602 H 0.61224 0.63895 0.99431 0.0
C2603 C 0.62923 0.6144 0.00851 0.0
H2604 H 0.62453 0.62681 0.98264 0.0
C2605 C 0.62227 0.62141 0.01516 0.0
C2606 C 0.61604 0.63026 0.0101 0.0
H2607 H 0.63413 0.60776 0.01264 0.0
H2608 H 0.62185 0.62001 0.02427 0.0
C2609 C 0.61684 0.63203 0.99833 0.0
C2610 C 0.37646 0.62921 0.01235 0.0
C2611 C 0.37617 0.61735 0.01063 0.0
H2612 H 0.38335 0.64525 0.00715 0.0
C2613 C 0.38353 0.61257 1.00243 0.0
H2614 H 0.37122 0.63323 0.01878 0.0
C2615 C 0.39074 0.61952 0.99593 0.0
C2616 C 0.39059 0.63138 0.99739 0.0
H2617 H 0.38347 0.60351 1.00073 0.0
H2618 H 0.39613 0.61567 0.98951 0.0
C2619 C 0.38348 0.63613 0.00573 0.0
C2620 C 0.38221 0.39416 0.00626 0.0
C2621 C 0.37683 0.38982 0.99644 0.0
H2622 H 0.39318 0.39065 0.02051 0.0
C2623 C 0.37903 0.37847 0.99324 0.0
H2624 H 0.38061 0.40278 0.00911 0.0
C2625 C 0.38595 0.37152 0.99993 0.0
C2626 C 0.3911 0.37581 0.00981 0.0
H2627 H 0.37533 0.37486 0.98561 0.0
H2628 H 0.38725 0.36274 0.99741 0.0
C2629 C 0.38936 0.38723 0.01284 0.0
C2630 C 0.63 0.37789 0.01275 0.0
C2631 C 0.63082 0.38965 0.01056 0.0
H2632 H 0.62276 0.36191 0.00786 0.0
C2633 C 0.62406 0.39434 1.00182 0.0
H2634 H 0.63479 0.37396 0.01958 0.0
C2635 C 0.61691 0.38739 0.99527 0.0
C2636 C 0.61653 0.37561 0.99721 0.0
H2637 H 0.62455 0.40332 0.99977 0.0
H2638 H 0.61198 0.39116 0.98843 0.0
C2639 C 0.62304 0.37096 0.00608 0.0
loop_
_geom_bond_atom_site_label_1
_geom_bond_atom_site_label_2
_geom_bond_distance
_geom_bond_site_symmetry_2
_ccdc_geom_bond_type
C0 C1 1.264 . S
C0 C5 1.479 . S
C0 C10 1.465 . S
C1 C0 1.264 . S
C1 C3 1.339 . S
C1 H28 0.931 . S
C2 C3 1.395 . S
C2 C4 1.320 . S
C3 C1 1.339 . S
C3 C2 1.395 . S
C3 H29 0.929 . S
C4 C2 1.320 . S
C4 C5 1.405 . S
C4 H30 0.930 . S
C5 C0 1.479 . S
C5 C4 1.405 . S
C5 H31 0.931 . S
U6 O7 2.454 . S
U6 O8 2.458 . S
U6 C9 2.984 . S
U6 C10 2.847 . S
U6 C23 2.882 . S
U6 O24 2.441 . S
U6 O25 2.420 . S
U6 O26 2.455 . S
U6 O27 2.449 . S
O7 U6 2.454 . S
O7 C9 1.353 . S
O8 U6 2.458 . S
O8 C9 1.286 . S
C9 U6 2.984 . S
C9 O7 1.353 . S
C9 O8 1.286 . S
C9 C11 1.363 . S
C10 C0 1.465 . S
C10 U6 2.847 . S
C10 O24 1.249 . S
C10 O25 1.202 . S
C11 C9 1.363 . S
C11 C13 1.408 . S
C11 C16 1.342 . S
C12 C13 1.310 . S
C12 C15 1.461 . S
C12 H32 0.932 . S
C13 C11 1.408 . S
C13 C12 1.310 . S
C13 H33 0.930 . S
C14 C15 1.474 . S
C14 C16 1.285 . S
C14 H34 0.929 . S
C15 C12 1.461 . S
C15 C14 1.474 . S
C16 C11 1.342 . S
C16 C14 1.285 . S
C16 H35 0.930 . S
C17 C20 1.424 . S
C17 C22 1.245 . S
C17 C23 1.428 . S
C18 C21 1.260 . S
C18 C22 1.477 . S
C18 H36 0.932 . S
C19 C20 1.384 . S
C19 C21 1.479 . S
C19 H37 0.929 . S
C20 C17 1.424 . S
C20 C19 1.384 . S
C20 H38 0.928 . S
C21 C18 1.260 . S
C21 C19 1.479 . S
C22 C17 1.245 . S
C22 C18 1.477 . S
C22 H39 0.932 . S
C23 U6 2.882 . S
C23 C17 1.428 . S
C23 O26 1.301 . S
C23 O27 1.282 . S
O24 U6 2.441 . S
O24 C10 1.249 . S
O25 U6 2.420 . S
O25 C10 1.202 . S
O26 U6 2.455 . S
O26 C23 1.301 . S
O27 U6 2.449 . S
O27 C23 1.282 . S
H28 C1 0.931 . S
H29 C3 0.929 . S
H30 C4 0.930 . S
H31 C5 0.931 . S
H32 C12 0.932 . S
H33 C13 0.930 . S
H34 C14 0.929 . S
H35 C16 0.930 . S
H36 C18 0.932 . S
H37 C19 0.929 . S
H38 C20 0.928 . S
H39 C22 0.932 . S
C40 C41 1.264 . S
C40 C45 1.479 . S
C40 C50 1.465 . S
C41 C40 1.264 . S
C41 C43 1.339 . S
C41 H68 0.931 . S
C42 C43 1.395 . S
C42 C44 1.320 . S
C43 C41 1.339 . S
C43 C42 1.395 . S
C43 H69 0.929 . S
C44 C42 1.320 . S
C44 C45 1.405 . S
C44 H70 0.930 . S
C45 C40 1.479 . S
C45 C44 1.405 . S
C45 H71 0.931 . S
U46 O47 2.454 . S
U46 O48 2.458 . S
U46 C49 2.984 . S
U46 C50 2.847 . S
U46 C63 2.882 . S
U46 O64 2.441 . S
U46 O65 2.420 . S
U46 O66 2.455 . S
U46 O67 2.449 . S
O47 U46 2.454 . S
O47 C49 1.353 . S
O48 U46 2.458 . S
O48 C49 1.286 . S
C49 U46 2.984 . S
C49 O47 1.353 . S
C49 O48 1.286 . S
C49 C51 1.363 . S
C50 C40 1.465 . S
C50 U46 2.847 . S
C50 O64 1.249 . S
C50 O65 1.202 . S
C51 C49 1.363 . S
C51 C53 1.408 . S
C51 C56 1.342 . S
C52 C53 1.310 . S
C52 C55 1.461 . S
C52 H72 0.932 . S
C53 C51 1.408 . S
C53 C52 1.310 . S
C53 H73 0.930 . S
C54 C55 1.474 . S
C54 C56 1.285 . S
C54 H74 0.929 . S
C55 C52 1.461 . S
C55 C54 1.474 . S
C56 C51 1.342 . S
C56 C54 1.285 . S
C56 H75 0.930 . S
C57 C60 1.424 . S
C57 C62 1.245 . S
C57 C63 1.428 . S
C58 C61 1.260 . S
C58 C62 1.477 . S
C58 H76 0.932 . S
C59 C60 1.384 . S
C59 C61 1.479 . S
C59 H77 0.929 . S
C60 C57 1.424 . S
C60 C59 1.384 . S
C60 H78 0.928 . S
C61 C58 1.260 . S
C61 C59 1.479 . S
C62 C57 1.245 . S
C62 C58 1.477 . S
C62 H79 0.932 . S
C63 U46 2.882 . S
C63 C57 1.428 . S
C63 O66 1.301 . S
C63 O67 1.282 . S
O64 U46 2.441 . S
O64 C50 1.249 . S
O65 U46 2.420 . S
O65 C50 1.202 . S
O66 U46 2.455 . S
O66 C63 1.301 . S
O67 U46 2.449 . S
O67 C63 1.282 . S
H68 C41 0.931 . S
H69 C43 0.929 . S
H70 C44 0.930 . S
H71 C45 0.931 . S
H72 C52 0.932 . S
H73 C53 0.930 . S
H74 C54 0.929 . S
H75 C56 0.930 . S
H76 C58 0.932 . S
H77 C59 0.929 . S
H78 C60 0.928 . S
H79 C62 0.932 . S
C80 C81 1.264 . S
C80 C85 1.479 . S
C80 C90 1.465 . S
C81 C80 1.264 . S
C81 C83 1.339 . S
C81 H108 0.931 . S
C82 C83 1.395 . S
C82 C84 1.320 . S
C83 C81 1.339 . S
C83 C82 1.395 . S
C83 H109 0.929 . S
C84 C82 1.320 . S
C84 C85 1.405 . S
C84 H110 0.930 . S
C85 C80 1.479 . S
C85 C84 1.405 . S
C85 H111 0.931 . S
U86 O87 2.454 . S
U86 O88 2.458 . S
U86 C89 2.984 . S
U86 C90 2.847 . S
U86 C103 2.882 . S
U86 O104 2.441 . S
U86 O105 2.420 . S
U86 O106 2.455 . S
U86 O107 2.449 . S
O87 U86 2.454 . S
O87 C89 1.353 . S
O88 U86 2.458 . S
O88 C89 1.286 . S
C89 U86 2.984 . S
C89 O87 1.353 . S
C89 O88 1.286 . S
C89 C91 1.363 . S
C90 C80 1.465 . S
C90 U86 2.847 . S
C90 O104 1.249 . S
C90 O105 1.202 . S
C91 C89 1.363 . S
C91 C93 1.408 . S
C91 C96 1.342 . S
C92 C93 1.310 . S
C92 C95 1.461 . S
C92 H112 0.932 . S
C93 C91 1.408 . S
C93 C92 1.310 . S
C93 H113 0.930 . S
C94 C95 1.474 . S
C94 C96 1.285 . S
C94 H114 0.929 . S
C95 C92 1.461 . S
C95 C94 1.474 . S
C96 C91 1.342 . S
C96 C94 1.285 . S
C96 H115 0.930 . S
C97 C100 1.424 . S
C97 C102 1.245 . S
C97 C103 1.428 . S
C98 C101 1.260 . S
C98 C102 1.477 . S
C98 H116 0.932 . S
C99 C100 1.384 . S
C99 C101 1.479 . S
C99 H117 0.929 . S
C100 C97 1.424 . S
C100 C99 1.384 . S
C100 H118 0.928 . S
C101 C98 1.260 . S
C101 C99 1.479 . S
C102 C97 1.245 . S
C102 C98 1.477 . S
C102 H119 0.932 . S
C103 U86 2.882 . S
C103 C97 1.428 . S
C103 O106 1.301 . S
C103 O107 1.282 . S
O104 U86 2.441 . S
O104 C90 1.249 . S
O105 U86 2.420 . S
O105 C90 1.202 . S
O106 U86 2.455 . S
O106 C103 1.301 . S
O107 U86 2.449 . S
O107 C103 1.282 . S
H108 C81 0.931 . S
H109 C83 0.929 . S
H110 C84 0.930 . S
H111 C85 0.931 . S
H112 C92 0.932 . S
H113 C93 0.930 . S
H114 C94 0.929 . S
H115 C96 0.930 . S
H116 C98 0.932 . S
H117 C99 0.929 . S
H118 C100 0.928 . S
H119 C102 0.932 . S
C120 C121 1.264 . S
C120 C125 1.479 . S
C120 C130 1.465 . S
C121 C120 1.264 . S
C121 C123 1.339 . S
C121 H148 0.931 . S
C122 C123 1.395 . S
C122 C124 1.320 . S
C123 C121 1.339 . S
C123 C122 1.395 . S
C123 H149 0.929 . S
C124 C122 1.320 . S
C124 C125 1.405 . S
C124 H150 0.930 . S
C125 C120 1.479 . S
C125 C124 1.405 . S
C125 H151 0.931 . S
U126 O127 2.454 . S
U126 O128 2.458 . S
U126 C129 2.984 . S
U126 C130 2.847 . S
U126 C143 2.882 . S
U126 O144 2.441 . S
U126 O145 2.420 . S
U126 O146 2.455 . S
U126 O147 2.449 . S
O127 U126 2.454 . S
O127 C129 1.353 . S
O128 U126 2.458 . S
O128 C129 1.286 . S
C129 U126 2.984 . S
C129 O127 1.353 . S
C129 O128 1.286 . S
C129 C131 1.363 . S
C130 C120 1.465 . S
C130 U126 2.847 . S
C130 O144 1.249 . S
C130 O145 1.202 . S
C131 C129 1.363 . S
C131 C133 1.408 . S
C131 C136 1.342 . S
C132 C133 1.310 . S
C132 C135 1.461 . S
C132 H152 0.932 . S
C133 C131 1.408 . S
C133 C132 1.310 . S
C133 H153 0.930 . S
C134 C135 1.474 . S
C134 C136 1.285 . S
C134 H154 0.929 . S
C135 C132 1.461 . S
C135 C134 1.474 . S
C136 C131 1.342 . S
C136 C134 1.285 . S
C136 H155 0.930 . S
C137 C140 1.424 . S
C137 C142 1.245 . S
C137 C143 1.428 . S
C138 C141 1.260 . S
C138 C142 1.477 . S
C138 H156 0.932 . S
C139 C140 1.384 . S
C139 C141 1.479 . S
C139 H157 0.929 . S
C140 C137 1.424 . S
C140 C139 1.384 . S
C140 H158 0.928 . S
C141 C138 1.260 . S
C141 C139 1.479 . S
C142 C137 1.245 . S
C142 C138 1.477 . S
C142 H159 0.932 . S
C143 U126 2.882 . S
C143 C137 1.428 . S
C143 O146 1.301 . S
C143 O147 1.282 . S
O144 U126 2.441 . S
O144 C130 1.249 . S
O145 U126 2.420 . S
O145 C130 1.202 . S
O146 U126 2.455 . S
O146 C143 1.301 . S
O147 U126 2.449 . S
O147 C143 1.282 . S
H148 C121 0.931 . S
H149 C123 0.929 . S
H150 C124 0.930 . S
H151 C125 0.931 . S
H152 C132 0.932 . S
H153 C133 0.930 . S
H154 C134 0.929 . S
H155 C136 0.930 . S
H156 C138 0.932 . S
H157 C139 0.929 . S
H158 C140 0.928 . S
H159 C142 0.932 . S
C160 C161 1.264 . S
C160 C165 1.479 . S
C160 C170 1.465 . S
C161 C160 1.264 . S
C161 C163 1.339 . S
C161 H188 0.931 . S
C162 C163 1.395 . S
C162 C164 1.320 . S
C163 C161 1.339 . S
C163 C162 1.395 . S
C163 H189 0.929 . S
C164 C162 1.320 . S
C164 C165 1.405 . S
C164 H190 0.930 . S
C165 C160 1.479 . S
C165 C164 1.405 . S
C165 H191 0.931 . S
U166 O167 2.454 . S
U166 O168 2.458 . S
U166 C169 2.984 . S
U166 C170 2.847 . S
U166 C183 2.882 . S
U166 O184 2.441 . S
U166 O185 2.420 . S
U166 O186 2.455 . S
U166 O187 2.449 . S
O167 U166 2.454 . S
O167 C169 1.353 . S
O168 U166 2.458 . S
O168 C169 1.286 . S
C169 U166 2.984 . S
C169 O167 1.353 . S
C169 O168 1.286 . S
C169 C171 1.363 . S
C170 C160 1.465 . S
C170 U166 2.847 . S
C170 O184 1.249 . S
C170 O185 1.202 . S
C171 C169 1.363 . S
C171 C173 1.408 . S
C171 C176 1.342 . S
C172 C173 1.310 . S
C172 C175 1.461 . S
C172 H192 0.932 . S
C173 C171 1.408 . S
C173 C172 1.310 . S
C173 H193 0.930 . S
C174 C175 1.474 . S
C174 C176 1.285 . S
C174 H194 0.929 . S
C175 C172 1.461 . S
C175 C174 1.474 . S
C176 C171 1.342 . S
C176 C174 1.285 . S
C176 H195 0.930 . S
C177 C180 1.424 . S
C177 C182 1.245 . S
C177 C183 1.428 . S
C178 C181 1.260 . S
C178 C182 1.477 . S
C178 H196 0.932 . S
C179 C180 1.384 . S
C179 C181 1.479 . S
C179 H197 0.929 . S
C180 C177 1.424 . S
C180 C179 1.384 . S
C180 H198 0.928 . S
C181 C178 1.260 . S
C181 C179 1.479 . S
C182 C177 1.245 . S
C182 C178 1.477 . S
C182 H199 0.932 . S
C183 U166 2.882 . S
C183 C177 1.428 . S
C183 O186 1.301 . S
C183 O187 1.282 . S
O184 U166 2.441 . S
O184 C170 1.249 . S
O185 U166 2.420 . S
O185 C170 1.202 . S
O186 U166 2.455 . S
O186 C183 1.301 . S
O187 U166 2.449 . S
O187 C183 1.282 . S
H188 C161 0.931 . S
H189 C163 0.929 . S
H190 C164 0.930 . S
H191 C165 0.931 . S
H192 C172 0.932 . S
H193 C173 0.930 . S
H194 C174 0.929 . S
H195 C176 0.930 . S
H196 C178 0.932 . S
H197 C179 0.929 . S
H198 C180 0.928 . S
H199 C182 0.932 . S
C200 C201 1.264 . S
C200 C205 1.479 . S
C200 C210 1.465 . S
C201 C200 1.264 . S
C201 C203 1.339 . S
C201 H228 0.931 . S
C202 C203 1.395 . S
C202 C204 1.320 . S
C203 C201 1.339 . S
C203 C202 1.395 . S
C203 H229 0.929 . S
C204 C202 1.320 . S
C204 C205 1.405 . S
C204 H230 0.930 . S
C205 C200 1.479 . S
C205 C204 1.405 . S
C205 H231 0.931 . S
U206 O207 2.454 . S
U206 O208 2.458 . S
U206 C209 2.984 . S
U206 C210 2.847 . S
U206 C223 2.882 . S
U206 O224 2.441 . S
U206 O225 2.420 . S
U206 O226 2.455 . S
U206 O227 2.449 . S
O207 U206 2.454 . S
O207 C209 1.353 . S
O208 U206 2.458 . S
O208 C209 1.286 . S
C209 U206 2.984 . S
C209 O207 1.353 . S
C209 O208 1.286 . S
C209 C211 1.363 . S
C210 C200 1.465 . S
C210 U206 2.847 . S
C210 O224 1.249 . S
C210 O225 1.202 . S
C211 C209 1.363 . S
C211 C213 1.408 . S
C211 C216 1.342 . S
C212 C213 1.310 . S
C212 C215 1.461 . S
C212 H232 0.932 . S
C213 C211 1.408 . S
C213 C212 1.310 . S
C213 H233 0.930 . S
C214 C215 1.474 . S
C214 C216 1.285 . S
C214 H234 0.929 . S
C215 C212 1.461 . S
C215 C214 1.474 . S
C216 C211 1.342 . S
C216 C214 1.285 . S
C216 H235 0.930 . S
C217 C220 1.424 . S
C217 C222 1.245 . S
C217 C223 1.428 . S
C218 C221 1.260 . S
C218 C222 1.477 . S
C218 H236 0.932 . S
C219 C220 1.384 . S
C219 C221 1.479 . S
C219 H237 0.929 . S
C220 C217 1.424 . S
C220 C219 1.384 . S
C220 H238 0.928 . S
C221 C218 1.260 . S
C221 C219 1.479 . S
C222 C217 1.245 . S
C222 C218 1.477 . S
C222 H239 0.932 . S
C223 U206 2.882 . S
C223 C217 1.428 . S
C223 O226 1.301 . S
C223 O227 1.282 . S
O224 U206 2.441 . S
O224 C210 1.249 . S
O225 U206 2.420 . S
O225 C210 1.202 . S
O226 U206 2.455 . S
O226 C223 1.301 . S
O227 U206 2.449 . S
O227 C223 1.282 . S
H228 C201 0.931 . S
H229 C203 0.929 . S
H230 C204 0.930 . S
H231 C205 0.931 . S
H232 C212 0.932 . S
H233 C213 0.930 . S
H234 C214 0.929 . S
H235 C216 0.930 . S
H236 C218 0.932 . S
H237 C219 0.929 . S
H238 C220 0.928 . S
H239 C222 0.932 . S
C240 C241 1.264 . S
C240 C245 1.479 . S
C240 C250 1.465 . S
C241 C240 1.264 . S
C241 C243 1.339 . S
C241 H268 0.931 . S
C242 C243 1.395 . S
C242 C244 1.320 . S
C243 C241 1.339 . S
C243 C242 1.395 . S
C243 H269 0.929 . S
C244 C242 1.320 . S
C244 C245 1.405 . S
C244 H270 0.930 . S
C245 C240 1.479 . S
C245 C244 1.405 . S
C245 H271 0.931 . S
U246 O247 2.454 . S
U246 O248 2.458 . S
U246 C249 2.984 . S
U246 C250 2.847 . S
U246 C263 2.882 . S
U246 O264 2.441 . S
U246 O265 2.420 . S
U246 O266 2.455 . S
U246 O267 2.449 . S
O247 U246 2.454 . S
O247 C249 1.353 . S
O248 U246 2.458 . S
O248 C249 1.286 . S
C249 U246 2.984 . S
C249 O247 1.353 . S
C249 O248 1.286 . S
C249 C251 1.363 . S
C250 C240 1.465 . S
C250 U246 2.847 . S
C250 O264 1.249 . S
C250 O265 1.202 . S
C251 C249 1.363 . S
C251 C253 1.408 . S
C251 C256 1.342 . S
C252 C253 1.310 . S
C252 C255 1.461 . S
C252 H272 0.932 . S
C253 C251 1.408 . S
C253 C252 1.310 . S
C253 H273 0.930 . S
C254 C255 1.474 . S
C254 C256 1.285 . S
C254 H274 0.929 . S
C255 C252 1.461 . S
C255 C254 1.474 . S
C256 C251 1.342 . S
C256 C254 1.285 . S
C256 H275 0.930 . S
C257 C260 1.424 . S
C257 C262 1.245 . S
C257 C263 1.428 . S
C258 C261 1.260 . S
C258 C262 1.477 . S
C258 H276 0.932 . S
C259 C260 1.384 . S
C259 C261 1.479 . S
C259 H277 0.929 . S
C260 C257 1.424 . S
C260 C259 1.384 . S
C260 H278 0.928 . S
C261 C258 1.260 . S
C261 C259 1.479 . S
C262 C257 1.245 . S
C262 C258 1.477 . S
C262 H279 0.932 . S
C263 U246 2.882 . S
C263 C257 1.428 . S
C263 O266 1.301 . S
C263 O267 1.282 . S
O264 U246 2.441 . S
O264 C250 1.249 . S
O265 U246 2.420 . S
O265 C250 1.202 . S
O266 U246 2.455 . S
O266 C263 1.301 . S
O267 U246 2.449 . S
O267 C263 1.282 . S
H268 C241 0.931 . S
H269 C243 0.929 . S
H270 C244 0.930 . S
H271 C245 0.931 . S
H272 C252 0.932 . S
H273 C253 0.930 . S
H274 C254 0.929 . S
H275 C256 0.930 . S
H276 C258 0.932 . S
H277 C259 0.929 . S
H278 C260 0.928 . S
H279 C262 0.932 . S
C280 C281 1.264 . S
C280 C285 1.479 . S
C280 C290 1.465 . S
C281 C280 1.264 . S
C281 C283 1.339 . S
C281 H308 0.931 . S
C282 C283 1.395 . S
C282 C284 1.320 . S
C283 C281 1.339 . S
C283 C282 1.395 . S
C283 H309 0.929 . S
C284 C282 1.320 . S
C284 C285 1.405 . S
C284 H310 0.930 . S
C285 C280 1.479 . S
C285 C284 1.405 . S
C285 H311 0.931 . S
U286 O287 2.454 . S
U286 O288 2.458 . S
U286 C289 2.984 . S
U286 C290 2.847 . S
U286 C303 2.882 . S
U286 O304 2.441 . S
U286 O305 2.420 . S
U286 O306 2.455 . S
U286 O307 2.449 . S
O287 U286 2.454 . S
O287 C289 1.353 . S
O288 U286 2.458 . S
O288 C289 1.286 . S
C289 U286 2.984 . S
C289 O287 1.353 . S
C289 O288 1.286 . S
C289 C291 1.363 . S
C290 C280 1.465 . S
C290 U286 2.847 . S
C290 O304 1.249 . S
C290 O305 1.202 . S
C291 C289 1.363 . S
C291 C293 1.408 . S
C291 C296 1.342 . S
C292 C293 1.310 . S
C292 C295 1.461 . S
C292 H312 0.932 . S
C293 C291 1.408 . S
C293 C292 1.310 . S
C293 H313 0.930 . S
C294 C295 1.474 . S
C294 C296 1.285 . S
C294 H314 0.929 . S
C295 C292 1.461 . S
C295 C294 1.474 . S
C296 C291 1.342 . S
C296 C294 1.285 . S
C296 H315 0.930 . S
C297 C300 1.424 . S
C297 C302 1.245 . S
C297 C303 1.428 . S
C298 C301 1.260 . S
C298 C302 1.477 . S
C298 H316 0.932 . S
C299 C300 1.384 . S
C299 C301 1.479 . S
C299 H317 0.929 . S
C300 C297 1.424 . S
C300 C299 1.384 . S
C300 H318 0.928 . S
C301 C298 1.260 . S
C301 C299 1.479 . S
C302 C297 1.245 . S
C302 C298 1.477 . S
C302 H319 0.932 . S
C303 U286 2.882 . S
C303 C297 1.428 . S
C303 O306 1.301 . S
C303 O307 1.282 . S
O304 U286 2.441 . S
O304 C290 1.249 . S
O305 U286 2.420 . S
O305 C290 1.202 . S
O306 U286 2.455 . S
O306 C303 1.301 . S
O307 U286 2.449 . S
O307 C303 1.282 . S
H308 C281 0.931 . S
H309 C283 0.929 . S
H310 C284 0.930 . S
H311 C285 0.931 . S
H312 C292 0.932 . S
H313 C293 0.930 . S
H314 C294 0.929 . S
H315 C296 0.930 . S
H316 C298 0.932 . S
H317 C299 0.929 . S
H318 C300 0.928 . S
H319 C302 0.932 . S
C320 C321 1.264 . S
C320 C325 1.479 . S
C320 C330 1.465 . S
C321 C320 1.264 . S
C321 C323 1.339 . S
C321 H348 0.931 . S
C322 C323 1.395 . S
C322 C324 1.320 . S
C323 C321 1.339 . S
C323 C322 1.395 . S
C323 H349 0.929 . S
C324 C322 1.320 . S
C324 C325 1.405 . S
C324 H350 0.930 . S
C325 C320 1.479 . S
C325 C324 1.405 . S
C325 H351 0.931 . S
U326 O327 2.454 . S
U326 O328 2.458 . S
U326 C329 2.984 . S
U326 C330 2.847 . S
U326 C343 2.882 . S
U326 O344 2.441 . S
U326 O345 2.420 . S
U326 O346 2.455 . S
U326 O347 2.449 . S
O327 U326 2.454 . S
O327 C329 1.353 . S
O328 U326 2.458 . S
O328 C329 1.286 . S
C329 U326 2.984 . S
C329 O327 1.353 . S
C329 O328 1.286 . S
C329 C331 1.363 . S
C330 C320 1.465 . S
C330 U326 2.847 . S
C330 O344 1.249 . S
C330 O345 1.202 . S
C331 C329 1.363 . S
C331 C333 1.408 . S
C331 C336 1.342 . S
C332 C333 1.310 . S
C332 C335 1.461 . S
C332 H352 0.932 . S
C333 C331 1.408 . S
C333 C332 1.310 . S
C333 H353 0.930 . S
C334 C335 1.474 . S
C334 C336 1.285 . S
C334 H354 0.929 . S
C335 C332 1.461 . S
C335 C334 1.474 . S
C336 C331 1.342 . S
C336 C334 1.285 . S
C336 H355 0.930 . S
C337 C340 1.424 . S
C337 C342 1.245 . S
C337 C343 1.428 . S
C338 C341 1.260 . S
C338 C342 1.477 . S
C338 H356 0.932 . S
C339 C340 1.384 . S
C339 C341 1.479 . S
C339 H357 0.929 . S
C340 C337 1.424 . S
C340 C339 1.384 . S
C340 H358 0.928 . S
C341 C338 1.260 . S
C341 C339 1.479 . S
C342 C337 1.245 . S
C342 C338 1.477 . S
C342 H359 0.932 . S
C343 U326 2.882 . S
C343 C337 1.428 . S
C343 O346 1.301 . S
C343 O347 1.282 . S
O344 U326 2.441 . S
O344 C330 1.249 . S
O345 U326 2.420 . S
O345 C330 1.202 . S
O346 U326 2.455 . S
O346 C343 1.301 . S
O347 U326 2.449 . S
O347 C343 1.282 . S
H348 C321 0.931 . S
H349 C323 0.929 . S
H350 C324 0.930 . S
H351 C325 0.931 . S
H352 C332 0.932 . S
H353 C333 0.930 . S
H354 C334 0.929 . S
H355 C336 0.930 . S
H356 C338 0.932 . S
H357 C339 0.929 . S
H358 C340 0.928 . S
H359 C342 0.932 . S
C360 C361 1.264 . S
C360 C365 1.479 . S
C360 C370 1.465 . S
C361 C360 1.264 . S
C361 C363 1.339 . S
C361 H388 0.931 . S
C362 C363 1.395 . S
C362 C364 1.320 . S
C363 C361 1.339 . S
C363 C362 1.395 . S
C363 H389 0.929 . S
C364 C362 1.320 . S
C364 C365 1.405 . S
C364 H390 0.930 . S
C365 C360 1.479 . S
C365 C364 1.405 . S
C365 H391 0.931 . S
U366 O367 2.454 . S
U366 O368 2.458 . S
U366 C369 2.984 . S
U366 C370 2.847 . S
U366 C383 2.882 . S
U366 O384 2.441 . S
U366 O385 2.420 . S
U366 O386 2.455 . S
U366 O387 2.449 . S
O367 U366 2.454 . S
O367 C369 1.353 . S
O368 U366 2.458 . S
O368 C369 1.286 . S
C369 U366 2.984 . S
C369 O367 1.353 . S
C369 O368 1.286 . S
C369 C371 1.363 . S
C370 C360 1.465 . S
C370 U366 2.847 . S
C370 O384 1.249 . S
C370 O385 1.202 . S
C371 C369 1.363 . S
C371 C373 1.408 . S
C371 C376 1.342 . S
C372 C373 1.310 . S
C372 C375 1.461 . S
C372 H392 0.932 . S
C373 C371 1.408 . S
C373 C372 1.310 . S
C373 H393 0.930 . S
C374 C375 1.474 . S
C374 C376 1.285 . S
C374 H394 0.929 . S
C375 C372 1.461 . S
C375 C374 1.474 . S
C376 C371 1.342 . S
C376 C374 1.285 . S
C376 H395 0.930 . S
C377 C380 1.424 . S
C377 C382 1.245 . S
C377 C383 1.428 . S
C378 C381 1.260 . S
C378 C382 1.477 . S
C378 H396 0.932 . S
C379 C380 1.384 . S
C379 C381 1.479 . S
C379 H397 0.929 . S
C380 C377 1.424 . S
C380 C379 1.384 . S
C380 H398 0.928 . S
C381 C378 1.260 . S
C381 C379 1.479 . S
C382 C377 1.245 . S
C382 C378 1.477 . S
C382 H399 0.932 . S
C383 U366 2.882 . S
C383 C377 1.428 . S
C383 O386 1.301 . S
C383 O387 1.282 . S
O384 U366 2.441 . S
O384 C370 1.249 . S
O385 U366 2.420 . S
O385 C370 1.202 . S
O386 U366 2.455 . S
O386 C383 1.301 . S
O387 U366 2.449 . S
O387 C383 1.282 . S
H388 C361 0.931 . S
H389 C363 0.929 . S
H390 C364 0.930 . S
H391 C365 0.931 . S
H392 C372 0.932 . S
H393 C373 0.930 . S
H394 C374 0.929 . S
H395 C376 0.930 . S
H396 C378 0.932 . S
H397 C379 0.929 . S
H398 C380 0.928 . S
H399 C382 0.932 . S
C400 C401 1.264 . S
C400 C405 1.479 . S
C400 C410 1.465 . S
C401 C400 1.264 . S
C401 C403 1.339 . S
C401 H428 0.931 . S
C402 C403 1.395 . S
C402 C404 1.320 . S
C403 C401 1.339 . S
C403 C402 1.395 . S
C403 H429 0.929 . S
C404 C402 1.320 . S
C404 C405 1.405 . S
C404 H430 0.930 . S
C405 C400 1.479 . S
C405 C404 1.405 . S
C405 H431 0.931 . S
U406 O407 2.454 . S
U406 O408 2.458 . S
U406 C409 2.984 . S
U406 C410 2.847 . S
U406 C423 2.882 . S
U406 O424 2.441 . S
U406 O425 2.420 . S
U406 O426 2.455 . S
U406 O427 2.449 . S
O407 U406 2.454 . S
O407 C409 1.353 . S
O408 U406 2.458 . S
O408 C409 1.286 . S
C409 U406 2.984 . S
C409 O407 1.353 . S
C409 O408 1.286 . S
C409 C411 1.363 . S
C410 C400 1.465 . S
C410 U406 2.847 . S
C410 O424 1.249 . S
C410 O425 1.202 . S
C411 C409 1.363 . S
C411 C413 1.408 . S
C411 C416 1.342 . S
C412 C413 1.310 . S
C412 C415 1.461 . S
C412 H432 0.932 . S
C413 C411 1.408 . S
C413 C412 1.310 . S
C413 H433 0.930 . S
C414 C415 1.474 . S
C414 C416 1.285 . S
C414 H434 0.929 . S
C415 C412 1.461 . S
C415 C414 1.474 . S
C416 C411 1.342 . S
C416 C414 1.285 . S
C416 H435 0.930 . S
C417 C420 1.424 . S
C417 C422 1.245 . S
C417 C423 1.428 . S
C418 C421 1.260 . S
C418 C422 1.477 . S
C418 H436 0.932 . S
C419 C420 1.384 . S
C419 C421 1.479 . S
C419 H437 0.929 . S
C420 C417 1.424 . S
C420 C419 1.384 . S
C420 H438 0.928 . S
C421 C418 1.260 . S
C421 C419 1.479 . S
C422 C417 1.245 . S
C422 C418 1.477 . S
C422 H439 0.932 . S
C423 U406 2.882 . S
C423 C417 1.428 . S
C423 O426 1.301 . S
C423 O427 1.282 . S
O424 U406 2.441 . S
O424 C410 1.249 . S
O425 U406 2.420 . S
O425 C410 1.202 . S
O426 U406 2.455 . S
O426 C423 1.301 . S
O427 U406 2.449 . S
O427 C423 1.282 . S
H428 C401 0.931 . S
H429 C403 0.929 . S
H430 C404 0.930 . S
H431 C405 0.931 . S
H432 C412 0.932 . S
H433 C413 0.930 . S
H434 C414 0.929 . S
H435 C416 0.930 . S
H436 C418 0.932 . S
H437 C419 0.929 . S
H438 C420 0.928 . S
H439 C422 0.932 . S
C440 C441 1.264 . S
C440 C445 1.479 . S
C440 C450 1.465 . S
C441 C440 1.264 . S
C441 C443 1.339 . S
C441 H468 0.931 . S
C442 C443 1.395 . S
C442 C444 1.320 . S
C443 C441 1.339 . S
C443 C442 1.395 . S
C443 H469 0.929 . S
C444 C442 1.320 . S
C444 C445 1.405 . S
C444 H470 0.930 . S
C445 C440 1.479 . S
C445 C444 1.405 . S
C445 H471 0.931 . S
U446 O447 2.454 . S
U446 O448 2.458 . S
U446 C449 2.984 . S
U446 C450 2.847 . S
U446 C463 2.882 . S
U446 O464 2.441 . S
U446 O465 2.420 . S
U446 O466 2.455 . S
U446 O467 2.449 . S
O447 U446 2.454 . S
O447 C449 1.353 . S
O448 U446 2.458 . S
O448 C449 1.286 . S
C449 U446 2.984 . S
C449 O447 1.353 . S
C449 O448 1.286 . S
C449 C451 1.363 . S
C450 C440 1.465 . S
C450 U446 2.847 . S
C450 O464 1.249 . S
C450 O465 1.202 . S
C451 C449 1.363 . S
C451 C453 1.408 . S
C451 C456 1.342 . S
C452 C453 1.310 . S
C452 C455 1.461 . S
C452 H472 0.932 . S
C453 C451 1.408 . S
C453 C452 1.310 . S
C453 H473 0.930 . S
C454 C455 1.474 . S
C454 C456 1.285 . S
C454 H474 0.929 . S
C455 C452 1.461 . S
C455 C454 1.474 . S
C456 C451 1.342 . S
C456 C454 1.285 . S
C456 H475 0.930 . S
C457 C460 1.424 . S
C457 C462 1.245 . S
C457 C463 1.428 . S
C458 C461 1.260 . S
C458 C462 1.477 . S
C458 H476 0.932 . S
C459 C460 1.384 . S
C459 C461 1.479 . S
C459 H477 0.929 . S
C460 C457 1.424 . S
C460 C459 1.384 . S
C460 H478 0.928 . S
C461 C458 1.260 . S
C461 C459 1.479 . S
C462 C457 1.245 . S
C462 C458 1.477 . S
C462 H479 0.932 . S
C463 U446 2.882 . S
C463 C457 1.428 . S
C463 O466 1.301 . S
C463 O467 1.282 . S
O464 U446 2.441 . S
O464 C450 1.249 . S
O465 U446 2.420 . S
O465 C450 1.202 . S
O466 U446 2.455 . S
O466 C463 1.301 . S
O467 U446 2.449 . S
O467 C463 1.282 . S
H468 C441 0.931 . S
H469 C443 0.929 . S
H470 C444 0.930 . S
H471 C445 0.931 . S
H472 C452 0.932 . S
H473 C453 0.930 . S
H474 C454 0.929 . S
H475 C456 0.930 . S
H476 C458 0.932 . S
H477 C459 0.929 . S
H478 C460 0.928 . S
H479 C462 0.932 . S
C480 C481 1.264 . S
C480 C485 1.479 . S
C480 C490 1.465 . S
C481 C480 1.264 . S
C481 C483 1.339 . S
C481 H508 0.931 . S
C482 C483 1.395 . S
C482 C484 1.320 . S
C483 C481 1.339 . S
C483 C482 1.395 . S
C483 H509 0.929 . S
C484 C482 1.320 . S
C484 C485 1.405 . S
C484 H510 0.930 . S
C485 C480 1.479 . S
C485 C484 1.405 . S
C485 H511 0.931 . S
U486 O487 2.454 . S
U486 O488 2.458 . S
U486 C489 2.984 . S
U486 C490 2.847 . S
U486 C503 2.882 . S
U486 O504 2.441 . S
U486 O505 2.420 . S
U486 O506 2.455 . S
U486 O507 2.449 . S
O487 U486 2.454 . S
O487 C489 1.353 . S
O488 U486 2.458 . S
O488 C489 1.286 . S
C489 U486 2.984 . S
C489 O487 1.353 . S
C489 O488 1.286 . S
C489 C491 1.363 . S
C490 C480 1.465 . S
C490 U486 2.847 . S
C490 O504 1.249 . S
C490 O505 1.202 . S
C491 C489 1.363 . S
C491 C493 1.408 . S
C491 C496 1.342 . S
C492 C493 1.310 . S
C492 C495 1.461 . S
C492 H512 0.932 . S
C493 C491 1.408 . S
C493 C492 1.310 . S
C493 H513 0.930 . S
C494 C495 1.474 . S
C494 C496 1.285 . S
C494 H514 0.929 . S
C495 C492 1.461 . S
C495 C494 1.474 . S
C496 C491 1.342 . S
C496 C494 1.285 . S
C496 H515 0.930 . S
C497 C500 1.424 . S
C497 C502 1.245 . S
C497 C503 1.428 . S
C498 C501 1.260 . S
C498 C502 1.477 . S
C498 H516 0.932 . S
C499 C500 1.384 . S
C499 C501 1.479 . S
C499 H517 0.929 . S
C500 C497 1.424 . S
C500 C499 1.384 . S
C500 H518 0.928 . S
C501 C498 1.260 . S
C501 C499 1.479 . S
C502 C497 1.245 . S
C502 C498 1.477 . S
C502 H519 0.932 . S
C503 U486 2.882 . S
C503 C497 1.428 . S
C503 O506 1.301 . S
C503 O507 1.282 . S
O504 U486 2.441 . S
O504 C490 1.249 . S
O505 U486 2.420 . S
O505 C490 1.202 . S
O506 U486 2.455 . S
O506 C503 1.301 . S
O507 U486 2.449 . S
O507 C503 1.282 . S
H508 C481 0.931 . S
H509 C483 0.929 . S
H510 C484 0.930 . S
H511 C485 0.931 . S
H512 C492 0.932 . S
H513 C493 0.930 . S
H514 C494 0.929 . S
H515 C496 0.930 . S
H516 C498 0.932 . S
H517 C499 0.929 . S
H518 C500 0.928 . S
H519 C502 0.932 . S
C520 C521 1.264 . S
C520 C525 1.479 . S
C520 C530 1.465 . S
C521 C520 1.264 . S
C521 C523 1.339 . S
C521 H548 0.931 . S
C522 C523 1.395 . S
C522 C524 1.320 . S
C523 C521 1.339 . S
C523 C522 1.395 . S
C523 H549 0.929 . S
C524 C522 1.320 . S
C524 C525 1.405 . S
C524 H550 0.930 . S
C525 C520 1.479 . S
C525 C524 1.405 . S
C525 H551 0.931 . S
U526 O527 2.454 . S
U526 O528 2.458 . S
U526 C529 2.984 . S
U526 C530 2.847 . S
U526 C543 2.882 . S
U526 O544 2.441 . S
U526 O545 2.420 . S
U526 O546 2.455 . S
U526 O547 2.449 . S
O527 U526 2.454 . S
O527 C529 1.353 . S
O528 U526 2.458 . S
O528 C529 1.286 . S
C529 U526 2.984 . S
C529 O527 1.353 . S
C529 O528 1.286 . S
C529 C531 1.363 . S
C530 C520 1.465 . S
C530 U526 2.847 . S
C530 O544 1.249 . S
C530 O545 1.202 . S
C531 C529 1.363 . S
C531 C533 1.408 . S
C531 C536 1.342 . S
C532 C533 1.310 . S
C532 C535 1.461 . S
C532 H552 0.932 . S
C533 C531 1.408 . S
C533 C532 1.310 . S
C533 H553 0.930 . S
C534 C535 1.474 . S
C534 C536 1.285 . S
C534 H554 0.929 . S
C535 C532 1.461 . S
C535 C534 1.474 . S
C536 C531 1.342 . S
C536 C534 1.285 . S
C536 H555 0.930 . S
C537 C540 1.424 . S
C537 C542 1.245 . S
C537 C543 1.428 . S
C538 C541 1.260 . S
C538 C542 1.477 . S
C538 H556 0.932 . S
C539 C540 1.384 . S
C539 C541 1.479 . S
C539 H557 0.929 . S
C540 C537 1.424 . S
C540 C539 1.384 . S
C540 H558 0.928 . S
C541 C538 1.260 . S
C541 C539 1.479 . S
C542 C537 1.245 . S
C542 C538 1.477 . S
C542 H559 0.932 . S
C543 U526 2.882 . S
C543 C537 1.428 . S
C543 O546 1.301 . S
C543 O547 1.282 . S
O544 U526 2.441 . S
O544 C530 1.249 . S
O545 U526 2.420 . S
O545 C530 1.202 . S
O546 U526 2.455 . S
O546 C543 1.301 . S
O547 U526 2.449 . S
O547 C543 1.282 . S
H548 C521 0.931 . S
H549 C523 0.929 . S
H550 C524 0.930 . S
H551 C525 0.931 . S
H552 C532 0.932 . S
H553 C533 0.930 . S
H554 C534 0.929 . S
H555 C536 0.930 . S
H556 C538 0.932 . S
H557 C539 0.929 . S
H558 C540 0.928 . S
H559 C542 0.932 . S
C560 C561 1.264 . S
C560 C565 1.479 . S
C560 C570 1.465 . S
C561 C560 1.264 . S
C561 C563 1.339 . S
C561 H588 0.931 . S
C562 C563 1.395 . S
C562 C564 1.320 . S
C563 C561 1.339 . S
C563 C562 1.395 . S
C563 H589 0.929 . S
C564 C562 1.320 . S
C564 C565 1.405 . S
C564 H590 0.930 . S
C565 C560 1.479 . S
C565 C564 1.405 . S
C565 H591 0.931 . S
U566 O567 2.454 . S
U566 O568 2.458 . S
U566 C569 2.984 . S
U566 C570 2.847 . S
U566 C583 2.882 . S
U566 O584 2.441 . S
U566 O585 2.420 . S
U566 O586 2.455 . S
U566 O587 2.449 . S
O567 U566 2.454 . S
O567 C569 1.353 . S
O568 U566 2.458 . S
O568 C569 1.286 . S
C569 U566 2.984 . S
C569 O567 1.353 . S
C569 O568 1.286 . S
C569 C571 1.363 . S
C570 C560 1.465 . S
C570 U566 2.847 . S
C570 O584 1.249 . S
C570 O585 1.202 . S
C571 C569 1.363 . S
C571 C573 1.408 . S
C571 C576 1.342 . S
C572 C573 1.310 . S
C572 C575 1.461 . S
C572 H592 0.932 . S
C573 C571 1.408 . S
C573 C572 1.310 . S
C573 H593 0.930 . S
C574 C575 1.474 . S
C574 C576 1.285 . S
C574 H594 0.929 . S
C575 C572 1.461 . S
C575 C574 1.474 . S
C576 C571 1.342 . S
C576 C574 1.285 . S
C576 H595 0.930 . S
C577 C580 1.424 . S
C577 C582 1.245 . S
C577 C583 1.428 . S
C578 C581 1.260 . S
C578 C582 1.477 . S
C578 H596 0.932 . S
C579 C580 1.384 . S
C579 C581 1.479 . S
C579 H597 0.929 . S
C580 C577 1.424 . S
C580 C579 1.384 . S
C580 H598 0.928 . S
C581 C578 1.260 . S
C581 C579 1.479 . S
C582 C577 1.245 . S
C582 C578 1.477 . S
C582 H599 0.932 . S
C583 U566 2.882 . S
C583 C577 1.428 . S
C583 O586 1.301 . S
C583 O587 1.282 . S
O584 U566 2.441 . S
O584 C570 1.249 . S
O585 U566 2.420 . S
O585 C570 1.202 . S
O586 U566 2.455 . S
O586 C583 1.301 . S
O587 U566 2.449 . S
O587 C583 1.282 . S
H588 C561 0.931 . S
H589 C563 0.929 . S
H590 C564 0.930 . S
H591 C565 0.931 . S
H592 C572 0.932 . S
H593 C573 0.930 . S
H594 C574 0.929 . S
H595 C576 0.930 . S
H596 C578 0.932 . S
H597 C579 0.929 . S
H598 C580 0.928 . S
H599 C582 0.932 . S
C600 C601 1.264 . S
C600 C605 1.479 . S
C600 C610 1.465 . S
C601 C600 1.264 . S
C601 C603 1.339 . S
C601 H628 0.931 . S
C602 C603 1.395 . S
C602 C604 1.320 . S
C603 C601 1.339 . S
C603 C602 1.395 . S
C603 H629 0.929 . S
C604 C602 1.320 . S
C604 C605 1.405 . S
C604 H630 0.930 . S
C605 C600 1.479 . S
C605 C604 1.405 . S
C605 H631 0.931 . S
U606 O607 2.454 . S
U606 O608 2.458 . S
U606 C609 2.984 . S
U606 C610 2.847 . S
U606 C623 2.882 . S
U606 O624 2.441 . S
U606 O625 2.420 . S
U606 O626 2.455 . S
U606 O627 2.449 . S
O607 U606 2.454 . S
O607 C609 1.353 . S
O608 U606 2.458 . S
O608 C609 1.286 . S
C609 U606 2.984 . S
C609 O607 1.353 . S
C609 O608 1.286 . S
C609 C611 1.363 . S
C610 C600 1.465 . S
C610 U606 2.847 . S
C610 O624 1.249 . S
C610 O625 1.202 . S
C611 C609 1.363 . S
C611 C613 1.408 . S
C611 C616 1.342 . S
C612 C613 1.310 . S
C612 C615 1.461 . S
C612 H632 0.932 . S
C613 C611 1.408 . S
C613 C612 1.310 . S
C613 H633 0.930 . S
C614 C615 1.474 . S
C614 C616 1.285 . S
C614 H634 0.929 . S
C615 C612 1.461 . S
C615 C614 1.474 . S
C616 C611 1.342 . S
C616 C614 1.285 . S
C616 H635 0.930 . S
C617 C620 1.424 . S
C617 C622 1.245 . S
C617 C623 1.428 . S
C618 C621 1.260 . S
C618 C622 1.477 . S
C618 H636 0.932 . S
C619 C620 1.384 . S
C619 C621 1.479 . S
C619 H637 0.929 . S
C620 C617 1.424 . S
C620 C619 1.384 . S
C620 H638 0.928 . S
C621 C618 1.260 . S
C621 C619 1.479 . S
C622 C617 1.245 . S
C622 C618 1.477 . S
C622 H639 0.932 . S
C623 U606 2.882 . S
C623 C617 1.428 . S
C623 O626 1.301 . S
C623 O627 1.282 . S
O624 U606 2.441 . S
O624 C610 1.249 . S
O625 U606 2.420 . S
O625 C610 1.202 . S
O626 U606 2.455 . S
O626 C623 1.301 . S
O627 U606 2.449 . S
O627 C623 1.282 . S
H628 C601 0.931 . S
H629 C603 0.929 . S
H630 C604 0.930 . S
H631 C605 0.931 . S
H632 C612 0.932 . S
H633 C613 0.930 . S
H634 C614 0.929 . S
H635 C616 0.930 . S
H636 C618 0.932 . S
H637 C619 0.929 . S
H638 C620 0.928 . S
H639 C622 0.932 . S
C640 C641 1.264 . S
C640 C645 1.479 . S
C640 C650 1.465 . S
C641 C640 1.264 . S
C641 C643 1.339 . S
C641 H668 0.931 . S
C642 C643 1.395 . S
C642 C644 1.320 . S
C643 C641 1.339 . S
C643 C642 1.395 . S
C643 H669 0.929 . S
C644 C642 1.320 . S
C644 C645 1.405 . S
C644 H670 0.930 . S
C645 C640 1.479 . S
C645 C644 1.405 . S
C645 H671 0.931 . S
U646 O647 2.454 . S
U646 O648 2.458 . S
U646 C649 2.984 . S
U646 C650 2.847 . S
U646 C663 2.882 . S
U646 O664 2.441 . S
U646 O665 2.420 . S
U646 O666 2.455 . S
U646 O667 2.449 . S
O647 U646 2.454 . S
O647 C649 1.353 . S
O648 U646 2.458 . S
O648 C649 1.286 . S
C649 U646 2.984 . S
C649 O647 1.353 . S
C649 O648 1.286 . S
C649 C651 1.363 . S
C650 C640 1.465 . S
C650 U646 2.847 . S
C650 O664 1.249 . S
C650 O665 1.202 . S
C651 C649 1.363 . S
C651 C653 1.408 . S
C651 C656 1.342 . S
C652 C653 1.310 . S
C652 C655 1.461 . S
C652 H672 0.932 . S
C653 C651 1.408 . S
C653 C652 1.310 . S
C653 H673 0.930 . S
C654 C655 1.474 . S
C654 C656 1.285 . S
C654 H674 0.929 . S
C655 C652 1.461 . S
C655 C654 1.474 . S
C656 C651 1.342 . S
C656 C654 1.285 . S
C656 H675 0.930 . S
C657 C660 1.424 . S
C657 C662 1.245 . S
C657 C663 1.428 . S
C658 C661 1.260 . S
C658 C662 1.477 . S
C658 H676 0.932 . S
C659 C660 1.384 . S
C659 C661 1.479 . S
C659 H677 0.929 . S
C660 C657 1.424 . S
C660 C659 1.384 . S
C660 H678 0.928 . S
C661 C658 1.260 . S
C661 C659 1.479 . S
C662 C657 1.245 . S
C662 C658 1.477 . S
C662 H679 0.932 . S
C663 U646 2.882 . S
C663 C657 1.428 . S
C663 O666 1.301 . S
C663 O667 1.282 . S
O664 U646 2.441 . S
O664 C650 1.249 . S
O665 U646 2.420 . S
O665 C650 1.202 . S
O666 U646 2.455 . S
O666 C663 1.301 . S
O667 U646 2.449 . S
O667 C663 1.282 . S
H668 C641 0.931 . S
H669 C643 0.929 . S
H670 C644 0.930 . S
H671 C645 0.931 . S
H672 C652 0.932 . S
H673 C653 0.930 . S
H674 C654 0.929 . S
H675 C656 0.930 . S
H676 C658 0.932 . S
H677 C659 0.929 . S
H678 C660 0.928 . S
H679 C662 0.932 . S
C680 C681 1.264 . S
C680 C685 1.479 . S
C680 C690 1.465 . S
C681 C680 1.264 . S
C681 C683 1.339 . S
C681 H708 0.931 . S
C682 C683 1.395 . S
C682 C684 1.320 . S
C683 C681 1.339 . S
C683 C682 1.395 . S
C683 H709 0.929 . S
C684 C682 1.320 . S
C684 C685 1.405 . S
C684 H710 0.930 . S
C685 C680 1.479 . S
C685 C684 1.405 . S
C685 H711 0.931 . S
U686 O687 2.454 . S
U686 O688 2.458 . S
U686 C689 2.984 . S
U686 C690 2.847 . S
U686 C703 2.882 . S
U686 O704 2.441 . S
U686 O705 2.420 . S
U686 O706 2.455 . S
U686 O707 2.449 . S
O687 U686 2.454 . S
O687 C689 1.353 . S
O688 U686 2.458 . S
O688 C689 1.286 . S
C689 U686 2.984 . S
C689 O687 1.353 . S
C689 O688 1.286 . S
C689 C691 1.363 . S
C690 C680 1.465 . S
C690 U686 2.847 . S
C690 O704 1.249 . S
C690 O705 1.202 . S
C691 C689 1.363 . S
C691 C693 1.408 . S
C691 C696 1.342 . S
C692 C693 1.310 . S
C692 C695 1.461 . S
C692 H712 0.932 . S
C693 C691 1.408 . S
C693 C692 1.310 . S
C693 H713 0.930 . S
C694 C695 1.474 . S
C694 C696 1.285 . S
C694 H714 0.929 . S
C695 C692 1.461 . S
C695 C694 1.474 . S
C696 C691 1.342 . S
C696 C694 1.285 . S
C696 H715 0.930 . S
C697 C700 1.424 . S
C697 C702 1.245 . S
C697 C703 1.428 . S
C698 C701 1.260 . S
C698 C702 1.477 . S
C698 H716 0.932 . S
C699 C700 1.384 . S
C699 C701 1.479 . S
C699 H717 0.929 . S
C700 C697 1.424 . S
C700 C699 1.384 . S
C700 H718 0.928 . S
C701 C698 1.260 . S
C701 C699 1.479 . S
C702 C697 1.245 . S
C702 C698 1.477 . S
C702 H719 0.932 . S
C703 U686 2.882 . S
C703 C697 1.428 . S
C703 O706 1.301 . S
C703 O707 1.282 . S
O704 U686 2.441 . S
O704 C690 1.249 . S
O705 U686 2.420 . S
O705 C690 1.202 . S
O706 U686 2.455 . S
O706 C703 1.301 . S
O707 U686 2.449 . S
O707 C703 1.282 . S
H708 C681 0.931 . S
H709 C683 0.929 . S
H710 C684 0.930 . S
H711 C685 0.931 . S
H712 C692 0.932 . S
H713 C693 0.930 . S
H714 C694 0.929 . S
H715 C696 0.930 . S
H716 C698 0.932 . S
H717 C699 0.929 . S
H718 C700 0.928 . S
H719 C702 0.932 . S
C720 C721 1.264 . S
C720 C725 1.479 . S
C720 C730 1.465 . S
C721 C720 1.264 . S
C721 C723 1.339 . S
C721 H748 0.931 . S
C722 C723 1.395 . S
C722 C724 1.320 . S
C723 C721 1.339 . S
C723 C722 1.395 . S
C723 H749 0.929 . S
C724 C722 1.320 . S
C724 C725 1.405 . S
C724 H750 0.930 . S
C725 C720 1.479 . S
C725 C724 1.405 . S
C725 H751 0.931 . S
U726 O727 2.454 . S
U726 O728 2.458 . S
U726 C729 2.984 . S
U726 C730 2.847 . S
U726 C743 2.882 . S
U726 O744 2.441 . S
U726 O745 2.420 . S
U726 O746 2.455 . S
U726 O747 2.449 . S
O727 U726 2.454 . S
O727 C729 1.353 . S
O728 U726 2.458 . S
O728 C729 1.286 . S
C729 U726 2.984 . S
C729 O727 1.353 . S
C729 O728 1.286 . S
C729 C731 1.363 . S
C730 C720 1.465 . S
C730 U726 2.847 . S
C730 O744 1.249 . S
C730 O745 1.202 . S
C731 C729 1.363 . S
C731 C733 1.408 . S
C731 C736 1.342 . S
C732 C733 1.310 . S
C732 C735 1.461 . S
C732 H752 0.932 . S
C733 C731 1.408 . S
C733 C732 1.310 . S
C733 H753 0.930 . S
C734 C735 1.474 . S
C734 C736 1.285 . S
C734 H754 0.929 . S
C735 C732 1.461 . S
C735 C734 1.474 . S
C736 C731 1.342 . S
C736 C734 1.285 . S
C736 H755 0.930 . S
C737 C740 1.424 . S
C737 C742 1.245 . S
C737 C743 1.428 . S
C738 C741 1.260 . S
C738 C742 1.477 . S
C738 H756 0.932 . S
C739 C740 1.384 . S
C739 C741 1.479 . S
C739 H757 0.929 . S
C740 C737 1.424 . S
C740 C739 1.384 . S
C740 H758 0.928 . S
C741 C738 1.260 . S
C741 C739 1.479 . S
C742 C737 1.245 . S
C742 C738 1.477 . S
C742 H759 0.932 . S
C743 U726 2.882 . S
C743 C737 1.428 . S
C743 O746 1.301 . S
C743 O747 1.282 . S
O744 U726 2.441 . S
O744 C730 1.249 . S
O745 U726 2.420 . S
O745 C730 1.202 . S
O746 U726 2.455 . S
O746 C743 1.301 . S
O747 U726 2.449 . S
O747 C743 1.282 . S
H748 C721 0.931 . S
H749 C723 0.929 . S
H750 C724 0.930 . S
H751 C725 0.931 . S
H752 C732 0.932 . S
H753 C733 0.930 . S
H754 C734 0.929 . S
H755 C736 0.930 . S
H756 C738 0.932 . S
H757 C739 0.929 . S
H758 C740 0.928 . S
H759 C742 0.932 . S
C760 C761 1.264 . S
C760 C765 1.479 . S
C760 C770 1.465 . S
C761 C760 1.264 . S
C761 C763 1.339 . S
C761 H788 0.931 . S
C762 C763 1.395 . S
C762 C764 1.320 . S
C763 C761 1.339 . S
C763 C762 1.395 . S
C763 H789 0.929 . S
C764 C762 1.320 . S
C764 C765 1.405 . S
C764 H790 0.930 . S
C765 C760 1.479 . S
C765 C764 1.405 . S
C765 H791 0.931 . S
U766 O767 2.454 . S
U766 O768 2.458 . S
U766 C769 2.984 . S
U766 C770 2.847 . S
U766 C783 2.882 . S
U766 O784 2.441 . S
U766 O785 2.420 . S
U766 O786 2.455 . S
U766 O787 2.449 . S
O767 U766 2.454 . S
O767 C769 1.353 . S
O768 U766 2.458 . S
O768 C769 1.286 . S
C769 U766 2.984 . S
C769 O767 1.353 . S
C769 O768 1.286 . S
C769 C771 1.363 . S
C770 C760 1.465 . S
C770 U766 2.847 . S
C770 O784 1.249 . S
C770 O785 1.202 . S
C771 C769 1.363 . S
C771 C773 1.408 . S
C771 C776 1.342 . S
C772 C773 1.310 . S
C772 C775 1.461 . S
C772 H792 0.932 . S
C773 C771 1.408 . S
C773 C772 1.310 . S
C773 H793 0.930 . S
C774 C775 1.474 . S
C774 C776 1.285 . S
C774 H794 0.929 . S
C775 C772 1.461 . S
C775 C774 1.474 . S
C776 C771 1.342 . S
C776 C774 1.285 . S
C776 H795 0.930 . S
C777 C780 1.424 . S
C777 C782 1.245 . S
C777 C783 1.428 . S
C778 C781 1.260 . S
C778 C782 1.477 . S
C778 H796 0.932 . S
C779 C780 1.384 . S
C779 C781 1.479 . S
C779 H797 0.929 . S
C780 C777 1.424 . S
C780 C779 1.384 . S
C780 H798 0.928 . S
C781 C778 1.260 . S
C781 C779 1.479 . S
C782 C777 1.245 . S
C782 C778 1.477 . S
C782 H799 0.932 . S
C783 U766 2.882 . S
C783 C777 1.428 . S
C783 O786 1.301 . S
C783 O787 1.282 . S
O784 U766 2.441 . S
O784 C770 1.249 . S
O785 U766 2.420 . S
O785 C770 1.202 . S
O786 U766 2.455 . S
O786 C783 1.301 . S
O787 U766 2.449 . S
O787 C783 1.282 . S
H788 C761 0.931 . S
H789 C763 0.929 . S
H790 C764 0.930 . S
H791 C765 0.931 . S
H792 C772 0.932 . S
H793 C773 0.930 . S
H794 C774 0.929 . S
H795 C776 0.930 . S
H796 C778 0.932 . S
H797 C779 0.929 . S
H798 C780 0.928 . S
H799 C782 0.932 . S
C800 C801 1.264 . S
C800 C805 1.479 . S
C800 C810 1.465 . S
C801 C800 1.264 . S
C801 C803 1.339 . S
C801 H828 0.931 . S
C802 C803 1.395 . S
C802 C804 1.320 . S
C803 C801 1.339 . S
C803 C802 1.395 . S
C803 H829 0.929 . S
C804 C802 1.320 . S
C804 C805 1.405 . S
C804 H830 0.930 . S
C805 C800 1.479 . S
C805 C804 1.405 . S
C805 H831 0.931 . S
U806 O807 2.454 . S
U806 O808 2.458 . S
U806 C809 2.984 . S
U806 C810 2.847 . S
U806 C823 2.882 . S
U806 O824 2.441 . S
U806 O825 2.420 . S
U806 O826 2.455 . S
U806 O827 2.449 . S
O807 U806 2.454 . S
O807 C809 1.353 . S
O808 U806 2.458 . S
O808 C809 1.286 . S
C809 U806 2.984 . S
C809 O807 1.353 . S
C809 O808 1.286 . S
C809 C811 1.363 . S
C810 C800 1.465 . S
C810 U806 2.847 . S
C810 O824 1.249 . S
C810 O825 1.202 . S
C811 C809 1.363 . S
C811 C813 1.408 . S
C811 C816 1.342 . S
C812 C813 1.310 . S
C812 C815 1.461 . S
C812 H832 0.932 . S
C813 C811 1.408 . S
C813 C812 1.310 . S
C813 H833 0.930 . S
C814 C815 1.474 . S
C814 C816 1.285 . S
C814 H834 0.929 . S
C815 C812 1.461 . S
C815 C814 1.474 . S
C816 C811 1.342 . S
C816 C814 1.285 . S
C816 H835 0.930 . S
C817 C820 1.424 . S
C817 C822 1.245 . S
C817 C823 1.428 . S
C818 C821 1.260 . S
C818 C822 1.477 . S
C818 H836 0.932 . S
C819 C820 1.384 . S
C819 C821 1.479 . S
C819 H837 0.929 . S
C820 C817 1.424 . S
C820 C819 1.384 . S
C820 H838 0.928 . S
C821 C818 1.260 . S
C821 C819 1.479 . S
C822 C817 1.245 . S
C822 C818 1.477 . S
C822 H839 0.932 . S
C823 U806 2.882 . S
C823 C817 1.428 . S
C823 O826 1.301 . S
C823 O827 1.282 . S
O824 U806 2.441 . S
O824 C810 1.249 . S
O825 U806 2.420 . S
O825 C810 1.202 . S
O826 U806 2.455 . S
O826 C823 1.301 . S
O827 U806 2.449 . S
O827 C823 1.282 . S
H828 C801 0.931 . S
H829 C803 0.929 . S
H830 C804 0.930 . S
H831 C805 0.931 . S
H832 C812 0.932 . S
H833 C813 0.930 . S
H834 C814 0.929 . S
H835 C816 0.930 . S
H836 C818 0.932 . S
H837 C819 0.929 . S
H838 C820 0.928 . S
H839 C822 0.932 . S
C840 C841 1.264 . S
C840 C845 1.479 . S
C840 C850 1.465 . S
C841 C840 1.264 . S
C841 C843 1.339 . S
C841 H868 0.931 . S
C842 C843 1.395 . S
C842 C844 1.320 . S
C843 C841 1.339 . S
C843 C842 1.395 . S
C843 H869 0.929 . S
C844 C842 1.320 . S
C844 C845 1.405 . S
C844 H870 0.930 . S
C845 C840 1.479 . S
C845 C844 1.405 . S
C845 H871 0.931 . S
U846 O847 2.454 . S
U846 O848 2.458 . S
U846 C849 2.984 . S
U846 C850 2.847 . S
U846 C863 2.882 . S
U846 O864 2.441 . S
U846 O865 2.420 . S
U846 O866 2.455 . S
U846 O867 2.449 . S
O847 U846 2.454 . S
O847 C849 1.353 . S
O848 U846 2.458 . S
O848 C849 1.286 . S
C849 U846 2.984 . S
C849 O847 1.353 . S
C849 O848 1.286 . S
C849 C851 1.363 . S
C850 C840 1.465 . S
C850 U846 2.847 . S
C850 O864 1.249 . S
C850 O865 1.202 . S
C851 C849 1.363 . S
C851 C853 1.408 . S
C851 C856 1.342 . S
C852 C853 1.310 . S
C852 C855 1.461 . S
C852 H872 0.932 . S
C853 C851 1.408 . S
C853 C852 1.310 . S
C853 H873 0.930 . S
C854 C855 1.474 . S
C854 C856 1.285 . S
C854 H874 0.929 . S
C855 C852 1.461 . S
C855 C854 1.474 . S
C856 C851 1.342 . S
C856 C854 1.285 . S
C856 H875 0.930 . S
C857 C860 1.424 . S
C857 C862 1.245 . S
C857 C863 1.428 . S
C858 C861 1.260 . S
C858 C862 1.477 . S
C858 H876 0.932 . S
C859 C860 1.384 . S
C859 C861 1.479 . S
C859 H877 0.929 . S
C860 C857 1.424 . S
C860 C859 1.384 . S
C860 H878 0.928 . S
C861 C858 1.260 . S
C861 C859 1.479 . S
C862 C857 1.245 . S
C862 C858 1.477 . S
C862 H879 0.932 . S
C863 U846 2.882 . S
C863 C857 1.428 . S
C863 O866 1.301 . S
C863 O867 1.282 . S
O864 U846 2.441 . S
O864 C850 1.249 . S
O865 U846 2.420 . S
O865 C850 1.202 . S
O866 U846 2.455 . S
O866 C863 1.301 . S
O867 U846 2.449 . S
O867 C863 1.282 . S
H868 C841 0.931 . S
H869 C843 0.929 . S
H870 C844 0.930 . S
H871 C845 0.931 . S
H872 C852 0.932 . S
H873 C853 0.930 . S
H874 C854 0.929 . S
H875 C856 0.930 . S
H876 C858 0.932 . S
H877 C859 0.929 . S
H878 C860 0.928 . S
H879 C862 0.932 . S
C880 C881 1.264 . S
C880 C885 1.479 . S
C880 C890 1.465 . S
C881 C880 1.264 . S
C881 C883 1.339 . S
C881 H908 0.931 . S
C882 C883 1.395 . S
C882 C884 1.320 . S
C883 C881 1.339 . S
C883 C882 1.395 . S
C883 H909 0.929 . S
C884 C882 1.320 . S
C884 C885 1.405 . S
C884 H910 0.930 . S
C885 C880 1.479 . S
C885 C884 1.405 . S
C885 H911 0.931 . S
U886 O887 2.454 . S
U886 O888 2.458 . S
U886 C889 2.984 . S
U886 C890 2.847 . S
U886 C903 2.882 . S
U886 O904 2.441 . S
U886 O905 2.420 . S
U886 O906 2.455 . S
U886 O907 2.449 . S
O887 U886 2.454 . S
O887 C889 1.353 . S
O888 U886 2.458 . S
O888 C889 1.286 . S
C889 U886 2.984 . S
C889 O887 1.353 . S
C889 O888 1.286 . S
C889 C891 1.363 . S
C890 C880 1.465 . S
C890 U886 2.847 . S
C890 O904 1.249 . S
C890 O905 1.202 . S
C891 C889 1.363 . S
C891 C893 1.408 . S
C891 C896 1.342 . S
C892 C893 1.310 . S
C892 C895 1.461 . S
C892 H912 0.932 . S
C893 C891 1.408 . S
C893 C892 1.310 . S
C893 H913 0.930 . S
C894 C895 1.474 . S
C894 C896 1.285 . S
C894 H914 0.929 . S
C895 C892 1.461 . S
C895 C894 1.474 . S
C896 C891 1.342 . S
C896 C894 1.285 . S
C896 H915 0.930 . S
C897 C900 1.424 . S
C897 C902 1.245 . S
C897 C903 1.428 . S
C898 C901 1.260 . S
C898 C902 1.477 . S
C898 H916 0.932 . S
C899 C900 1.384 . S
C899 C901 1.479 . S
C899 H917 0.929 . S
C900 C897 1.424 . S
C900 C899 1.384 . S
C900 H918 0.928 . S
C901 C898 1.260 . S
C901 C899 1.479 . S
C902 C897 1.245 . S
C902 C898 1.477 . S
C902 H919 0.932 . S
C903 U886 2.882 . S
C903 C897 1.428 . S
C903 O906 1.301 . S
C903 O907 1.282 . S
O904 U886 2.441 . S
O904 C890 1.249 . S
O905 U886 2.420 . S
O905 C890 1.202 . S
O906 U886 2.455 . S
O906 C903 1.301 . S
O907 U886 2.449 . S
O907 C903 1.282 . S
H908 C881 0.931 . S
H909 C883 0.929 . S
H910 C884 0.930 . S
H911 C885 0.931 . S
H912 C892 0.932 . S
H913 C893 0.930 . S
H914 C894 0.929 . S
H915 C896 0.930 . S
H916 C898 0.932 . S
H917 C899 0.929 . S
H918 C900 0.928 . S
H919 C902 0.932 . S
C920 C921 1.264 . S
C920 C925 1.479 . S
C920 C930 1.465 . S
C921 C920 1.264 . S
C921 C923 1.339 . S
C921 H948 0.931 . S
C922 C923 1.395 . S
C922 C924 1.320 . S
C923 C921 1.339 . S
C923 C922 1.395 . S
C923 H949 0.929 . S
C924 C922 1.320 . S
C924 C925 1.405 . S
C924 H950 0.930 . S
C925 C920 1.479 . S
C925 C924 1.405 . S
C925 H951 0.931 . S
U926 O927 2.454 . S
U926 O928 2.458 . S
U926 C929 2.984 . S
U926 C930 2.847 . S
U926 C943 2.882 . S
U926 O944 2.441 . S
U926 O945 2.420 . S
U926 O946 2.455 . S
U926 O947 2.449 . S
O927 U926 2.454 . S
O927 C929 1.353 . S
O928 U926 2.458 . S
O928 C929 1.286 . S
C929 U926 2.984 . S
C929 O927 1.353 . S
C929 O928 1.286 . S
C929 C931 1.363 . S
C930 C920 1.465 . S
C930 U926 2.847 . S
C930 O944 1.249 . S
C930 O945 1.202 . S
C931 C929 1.363 . S
C931 C933 1.408 . S
C931 C936 1.342 . S
C932 C933 1.310 . S
C932 C935 1.461 . S
C932 H952 0.932 . S
C933 C931 1.408 . S
C933 C932 1.310 . S
C933 H953 0.930 . S
C934 C935 1.474 . S
C934 C936 1.285 . S
C934 H954 0.929 . S
C935 C932 1.461 . S
C935 C934 1.474 . S
C936 C931 1.342 . S
C936 C934 1.285 . S
C936 H955 0.930 . S
C937 C940 1.424 . S
C937 C942 1.245 . S
C937 C943 1.428 . S
C938 C941 1.260 . S
C938 C942 1.477 . S
C938 H956 0.932 . S
C939 C940 1.384 . S
C939 C941 1.479 . S
C939 H957 0.929 . S
C940 C937 1.424 . S
C940 C939 1.384 . S
C940 H958 0.928 . S
C941 C938 1.260 . S
C941 C939 1.479 . S
C942 C937 1.245 . S
C942 C938 1.477 . S
C942 H959 0.932 . S
C943 U926 2.882 . S
C943 C937 1.428 . S
C943 O946 1.301 . S
C943 O947 1.282 . S
O944 U926 2.441 . S
O944 C930 1.249 . S
O945 U926 2.420 . S
O945 C930 1.202 . S
O946 U926 2.455 . S
O946 C943 1.301 . S
O947 U926 2.449 . S
O947 C943 1.282 . S
H948 C921 0.931 . S
H949 C923 0.929 . S
H950 C924 0.930 . S
H951 C925 0.931 . S
H952 C932 0.932 . S
H953 C933 0.930 . S
H954 C934 0.929 . S
H955 C936 0.930 . S
H956 C938 0.932 . S
H957 C939 0.929 . S
H958 C940 0.928 . S
H959 C942 0.932 . S
C960 C961 1.264 . S
C960 C965 1.479 . S
C960 C970 1.465 . S
C961 C960 1.264 . S
C961 C963 1.339 . S
C961 H988 0.931 . S
C962 C963 1.395 . S
C962 C964 1.320 . S
C963 C961 1.339 . S
C963 C962 1.395 . S
C963 H989 0.929 . S
C964 C962 1.320 . S
C964 C965 1.405 . S
C964 H990 0.930 . S
C965 C960 1.479 . S
C965 C964 1.405 . S
C965 H991 0.931 . S
U966 O967 2.454 . S
U966 O968 2.458 . S
U966 C969 2.984 . S
U966 C970 2.847 . S
U966 C983 2.882 . S
U966 O984 2.441 . S
U966 O985 2.420 . S
U966 O986 2.455 . S
U966 O987 2.449 . S
O967 U966 2.454 . S
O967 C969 1.353 . S
O968 U966 2.458 . S
O968 C969 1.286 . S
C969 U966 2.984 . S
C969 O967 1.353 . S
C969 O968 1.286 . S
C969 C971 1.363 . S
C970 C960 1.465 . S
C970 U966 2.847 . S
C970 O984 1.249 . S
C970 O985 1.202 . S
C971 C969 1.363 . S
C971 C973 1.408 . S
C971 C976 1.342 . S
C972 C973 1.310 . S
C972 C975 1.461 . S
C972 H992 0.932 . S
C973 C971 1.408 . S
C973 C972 1.310 . S
C973 H993 0.930 . S
C974 C975 1.474 . S
C974 C976 1.285 . S
C974 H994 0.929 . S
C975 C972 1.461 . S
C975 C974 1.474 . S
C976 C971 1.342 . S
C976 C974 1.285 . S
C976 H995 0.930 . S
C977 C980 1.424 . S
C977 C982 1.245 . S
C977 C983 1.428 . S
C978 C981 1.260 . S
C978 C982 1.477 . S
C978 H996 0.932 . S
C979 C980 1.384 . S
C979 C981 1.479 . S
C979 H997 0.929 . S
C980 C977 1.424 . S
C980 C979 1.384 . S
C980 H998 0.928 . S
C981 C978 1.260 . S
C981 C979 1.479 . S
C982 C977 1.245 . S
C982 C978 1.477 . S
C982 H999 0.932 . S
C983 U966 2.882 . S
C983 C977 1.428 . S
C983 O986 1.301 . S
C983 O987 1.282 . S
O984 U966 2.441 . S
O984 C970 1.249 . S
O985 U966 2.420 . S
O985 C970 1.202 . S
O986 U966 2.455 . S
O986 C983 1.301 . S
O987 U966 2.449 . S
O987 C983 1.282 . S
H988 C961 0.931 . S
H989 C963 0.929 . S
H990 C964 0.930 . S
H991 C965 0.931 . S
H992 C972 0.932 . S
H993 C973 0.930 . S
H994 C974 0.929 . S
H995 C976 0.930 . S
H996 C978 0.932 . S
H997 C979 0.929 . S
H998 C980 0.928 . S
H999 C982 0.932 . S
C1000 C1001 1.264 . S
C1000 C1005 1.479 . S
C1000 C1010 1.465 . S
C1001 C1000 1.264 . S
C1001 C1003 1.339 . S
C1001 H1028 0.931 . S
C1002 C1003 1.395 . S
C1002 C1004 1.320 . S
C1003 C1001 1.339 . S
C1003 C1002 1.395 . S
C1003 H1029 0.929 . S
C1004 C1002 1.320 . S
C1004 C1005 1.405 . S
C1004 H1030 0.930 . S
C1005 C1000 1.479 . S
C1005 C1004 1.405 . S
C1005 H1031 0.931 . S
U1006 O1007 2.454 . S
U1006 O1008 2.458 . S
U1006 C1009 2.984 . S
U1006 C1010 2.847 . S
U1006 C1023 2.882 . S
U1006 O1024 2.441 . S
U1006 O1025 2.420 . S
U1006 O1026 2.455 . S
U1006 O1027 2.449 . S
O1007 U1006 2.454 . S
O1007 C1009 1.353 . S
O1008 U1006 2.458 . S
O1008 C1009 1.286 . S
C1009 U1006 2.984 . S
C1009 O1007 1.353 . S
C1009 O1008 1.286 . S
C1009 C1011 1.363 . S
C1010 C1000 1.465 . S
C1010 U1006 2.847 . S
C1010 O1024 1.249 . S
C1010 O1025 1.202 . S
C1011 C1009 1.363 . S
C1011 C1013 1.408 . S
C1011 C1016 1.342 . S
C1012 C1013 1.310 . S
C1012 C1015 1.461 . S
C1012 H1032 0.932 . S
C1013 C1011 1.408 . S
C1013 C1012 1.310 . S
C1013 H1033 0.930 . S
C1014 C1015 1.474 . S
C1014 C1016 1.285 . S
C1014 H1034 0.929 . S
C1015 C1012 1.461 . S
C1015 C1014 1.474 . S
C1016 C1011 1.342 . S
C1016 C1014 1.285 . S
C1016 H1035 0.930 . S
C1017 C1020 1.424 . S
C1017 C1022 1.245 . S
C1017 C1023 1.428 . S
C1018 C1021 1.260 . S
C1018 C1022 1.477 . S
C1018 H1036 0.932 . S
C1019 C1020 1.384 . S
C1019 C1021 1.479 . S
C1019 H1037 0.929 . S
C1020 C1017 1.424 . S
C1020 C1019 1.384 . S
C1020 H1038 0.928 . S
C1021 C1018 1.260 . S
C1021 C1019 1.479 . S
C1022 C1017 1.245 . S
C1022 C1018 1.477 . S
C1022 H1039 0.932 . S
C1023 U1006 2.882 . S
C1023 C1017 1.428 . S
C1023 O1026 1.301 . S
C1023 O1027 1.282 . S
O1024 U1006 2.441 . S
O1024 C1010 1.249 . S
O1025 U1006 2.420 . S
O1025 C1010 1.202 . S
O1026 U1006 2.455 . S
O1026 C1023 1.301 . S
O1027 U1006 2.449 . S
O1027 C1023 1.282 . S
H1028 C1001 0.931 . S
H1029 C1003 0.929 . S
H1030 C1004 0.930 . S
H1031 C1005 0.931 . S
H1032 C1012 0.932 . S
H1033 C1013 0.930 . S
H1034 C1014 0.929 . S
H1035 C1016 0.930 . S
H1036 C1018 0.932 . S
H1037 C1019 0.929 . S
H1038 C1020 0.928 . S
H1039 C1022 0.932 . S
C1040 C1041 1.264 . S
C1040 C1045 1.479 . S
C1040 C1050 1.465 . S
C1041 C1040 1.264 . S
C1041 C1043 1.339 . S
C1041 H1068 0.931 . S
C1042 C1043 1.395 . S
C1042 C1044 1.320 . S
C1043 C1041 1.339 . S
C1043 C1042 1.395 . S
C1043 H1069 0.929 . S
C1044 C1042 1.320 . S
C1044 C1045 1.405 . S
C1044 H1070 0.930 . S
C1045 C1040 1.479 . S
C1045 C1044 1.405 . S
C1045 H1071 0.931 . S
U1046 O1047 2.454 . S
U1046 O1048 2.458 . S
U1046 C1049 2.984 . S
U1046 C1050 2.847 . S
U1046 C1063 2.882 . S
U1046 O1064 2.441 . S
U1046 O1065 2.420 . S
U1046 O1066 2.455 . S
U1046 O1067 2.449 . S
O1047 U1046 2.454 . S
O1047 C1049 1.353 . S
O1048 U1046 2.458 . S
O1048 C1049 1.286 . S
C1049 U1046 2.984 . S
C1049 O1047 1.353 . S
C1049 O1048 1.286 . S
C1049 C1051 1.363 . S
C1050 C1040 1.465 . S
C1050 U1046 2.847 . S
C1050 O1064 1.249 . S
C1050 O1065 1.202 . S
C1051 C1049 1.363 . S
C1051 C1053 1.408 . S
C1051 C1056 1.342 . S
C1052 C1053 1.310 . S
C1052 C1055 1.461 . S
C1052 H1072 0.932 . S
C1053 C1051 1.408 . S
C1053 C1052 1.310 . S
C1053 H1073 0.930 . S
C1054 C1055 1.474 . S
C1054 C1056 1.285 . S
C1054 H1074 0.929 . S
C1055 C1052 1.461 . S
C1055 C1054 1.474 . S
C1056 C1051 1.342 . S
C1056 C1054 1.285 . S
C1056 H1075 0.930 . S
C1057 C1060 1.424 . S
C1057 C1062 1.245 . S
C1057 C1063 1.428 . S
C1058 C1061 1.260 . S
C1058 C1062 1.477 . S
C1058 H1076 0.932 . S
C1059 C1060 1.384 . S
C1059 C1061 1.479 . S
C1059 H1077 0.929 . S
C1060 C1057 1.424 . S
C1060 C1059 1.384 . S
C1060 H1078 0.928 . S
C1061 C1058 1.260 . S
C1061 C1059 1.479 . S
C1062 C1057 1.245 . S
C1062 C1058 1.477 . S
C1062 H1079 0.932 . S
C1063 U1046 2.882 . S
C1063 C1057 1.428 . S
C1063 O1066 1.301 . S
C1063 O1067 1.282 . S
O1064 U1046 2.441 . S
O1064 C1050 1.249 . S
O1065 U1046 2.420 . S
O1065 C1050 1.202 . S
O1066 U1046 2.455 . S
O1066 C1063 1.301 . S
O1067 U1046 2.449 . S
O1067 C1063 1.282 . S
H1068 C1041 0.931 . S
H1069 C1043 0.929 . S
H1070 C1044 0.930 . S
H1071 C1045 0.931 . S
H1072 C1052 0.932 . S
H1073 C1053 0.930 . S
H1074 C1054 0.929 . S
H1075 C1056 0.930 . S
H1076 C1058 0.932 . S
H1077 C1059 0.929 . S
H1078 C1060 0.928 . S
H1079 C1062 0.932 . S
C1080 C1081 1.264 . S
C1080 C1085 1.479 . S
C1080 C1090 1.465 . S
C1081 C1080 1.264 . S
C1081 C1083 1.339 . S
C1081 H1108 0.931 . S
C1082 C1083 1.395 . S
C1082 C1084 1.320 . S
C1083 C1081 1.339 . S
C1083 C1082 1.395 . S
C1083 H1109 0.929 . S
C1084 C1082 1.320 . S
C1084 C1085 1.405 . S
C1084 H1110 0.930 . S
C1085 C1080 1.479 . S
C1085 C1084 1.405 . S
C1085 H1111 0.931 . S
U1086 O1087 2.454 . S
U1086 O1088 2.458 . S
U1086 C1089 2.984 . S
U1086 C1090 2.847 . S
U1086 C1103 2.882 . S
U1086 O1104 2.441 . S
U1086 O1105 2.420 . S
U1086 O1106 2.455 . S
U1086 O1107 2.449 . S
O1087 U1086 2.454 . S
O1087 C1089 1.353 . S
O1088 U1086 2.458 . S
O1088 C1089 1.286 . S
C1089 U1086 2.984 . S
C1089 O1087 1.353 . S
C1089 O1088 1.286 . S
C1089 C1091 1.363 . S
C1090 C1080 1.465 . S
C1090 U1086 2.847 . S
C1090 O1104 1.249 . S
C1090 O1105 1.202 . S
C1091 C1089 1.363 . S
C1091 C1093 1.408 . S
C1091 C1096 1.342 . S
C1092 C1093 1.310 . S
C1092 C1095 1.461 . S
C1092 H1112 0.932 . S
C1093 C1091 1.408 . S
C1093 C1092 1.310 . S
C1093 H1113 0.930 . S
C1094 C1095 1.474 . S
C1094 C1096 1.285 . S
C1094 H1114 0.929 . S
C1095 C1092 1.461 . S
C1095 C1094 1.474 . S
C1096 C1091 1.342 . S
C1096 C1094 1.285 . S
C1096 H1115 0.930 . S
C1097 C1100 1.424 . S
C1097 C1102 1.245 . S
C1097 C1103 1.428 . S
C1098 C1101 1.260 . S
C1098 C1102 1.477 . S
C1098 H1116 0.932 . S
C1099 C1100 1.384 . S
C1099 C1101 1.479 . S
C1099 H1117 0.929 . S
C1100 C1097 1.424 . S
C1100 C1099 1.384 . S
C1100 H1118 0.928 . S
C1101 C1098 1.260 . S
C1101 C1099 1.479 . S
C1102 C1097 1.245 . S
C1102 C1098 1.477 . S
C1102 H1119 0.932 . S
C1103 U1086 2.882 . S
C1103 C1097 1.428 . S
C1103 O1106 1.301 . S
C1103 O1107 1.282 . S
O1104 U1086 2.441 . S
O1104 C1090 1.249 . S
O1105 U1086 2.420 . S
O1105 C1090 1.202 . S
O1106 U1086 2.455 . S
O1106 C1103 1.301 . S
O1107 U1086 2.449 . S
O1107 C1103 1.282 . S
H1108 C1081 0.931 . S
H1109 C1083 0.929 . S
H1110 C1084 0.930 . S
H1111 C1085 0.931 . S
H1112 C1092 0.932 . S
H1113 C1093 0.930 . S
H1114 C1094 0.929 . S
H1115 C1096 0.930 . S
H1116 C1098 0.932 . S
H1117 C1099 0.929 . S
H1118 C1100 0.928 . S
H1119 C1102 0.932 . S
C1120 C1121 1.264 . S
C1120 C1125 1.479 . S
C1120 C1130 1.465 . S
C1121 C1120 1.264 . S
C1121 C1123 1.339 . S
C1121 H1148 0.931 . S
C1122 C1123 1.395 . S
C1122 C1124 1.320 . S
C1123 C1121 1.339 . S
C1123 C1122 1.395 . S
C1123 H1149 0.929 . S
C1124 C1122 1.320 . S
C1124 C1125 1.405 . S
C1124 H1150 0.930 . S
C1125 C1120 1.479 . S
C1125 C1124 1.405 . S
C1125 H1151 0.931 . S
U1126 O1127 2.454 . S
U1126 O1128 2.458 . S
U1126 C1129 2.984 . S
U1126 C1130 2.847 . S
U1126 C1143 2.882 . S
U1126 O1144 2.441 . S
U1126 O1145 2.420 . S
U1126 O1146 2.455 . S
U1126 O1147 2.449 . S
O1127 U1126 2.454 . S
O1127 C1129 1.353 . S
O1128 U1126 2.458 . S
O1128 C1129 1.286 . S
C1129 U1126 2.984 . S
C1129 O1127 1.353 . S
C1129 O1128 1.286 . S
C1129 C1131 1.363 . S
C1130 C1120 1.465 . S
C1130 U1126 2.847 . S
C1130 O1144 1.249 . S
C1130 O1145 1.202 . S
C1131 C1129 1.363 . S
C1131 C1133 1.408 . S
C1131 C1136 1.342 . S
C1132 C1133 1.310 . S
C1132 C1135 1.461 . S
C1132 H1152 0.932 . S
C1133 C1131 1.408 . S
C1133 C1132 1.310 . S
C1133 H1153 0.930 . S
C1134 C1135 1.474 . S
C1134 C1136 1.285 . S
C1134 H1154 0.929 . S
C1135 C1132 1.461 . S
C1135 C1134 1.474 . S
C1136 C1131 1.342 . S
C1136 C1134 1.285 . S
C1136 H1155 0.930 . S
C1137 C1140 1.424 . S
C1137 C1142 1.245 . S
C1137 C1143 1.428 . S
C1138 C1141 1.260 . S
C1138 C1142 1.477 . S
C1138 H1156 0.932 . S
C1139 C1140 1.384 . S
C1139 C1141 1.479 . S
C1139 H1157 0.929 . S
C1140 C1137 1.424 . S
C1140 C1139 1.384 . S
C1140 H1158 0.928 . S
C1141 C1138 1.260 . S
C1141 C1139 1.479 . S
C1142 C1137 1.245 . S
C1142 C1138 1.477 . S
C1142 H1159 0.932 . S
C1143 U1126 2.882 . S
C1143 C1137 1.428 . S
C1143 O1146 1.301 . S
C1143 O1147 1.282 . S
O1144 U1126 2.441 . S
O1144 C1130 1.249 . S
O1145 U1126 2.420 . S
O1145 C1130 1.202 . S
O1146 U1126 2.455 . S
O1146 C1143 1.301 . S
O1147 U1126 2.449 . S
O1147 C1143 1.282 . S
H1148 C1121 0.931 . S
H1149 C1123 0.929 . S
H1150 C1124 0.930 . S
H1151 C1125 0.931 . S
H1152 C1132 0.932 . S
H1153 C1133 0.930 . S
H1154 C1134 0.929 . S
H1155 C1136 0.930 . S
H1156 C1138 0.932 . S
H1157 C1139 0.929 . S
H1158 C1140 0.928 . S
H1159 C1142 0.932 . S
C1160 C1161 1.264 . S
C1160 C1165 1.479 . S
C1160 C1170 1.465 . S
C1161 C1160 1.264 . S
C1161 C1163 1.339 . S
C1161 H1188 0.931 . S
C1162 C1163 1.395 . S
C1162 C1164 1.320 . S
C1163 C1161 1.339 . S
C1163 C1162 1.395 . S
C1163 H1189 0.929 . S
C1164 C1162 1.320 . S
C1164 C1165 1.405 . S
C1164 H1190 0.930 . S
C1165 C1160 1.479 . S
C1165 C1164 1.405 . S
C1165 H1191 0.931 . S
U1166 O1167 2.454 . S
U1166 O1168 2.458 . S
U1166 C1169 2.984 . S
U1166 C1170 2.847 . S
U1166 C1183 2.882 . S
U1166 O1184 2.441 . S
U1166 O1185 2.420 . S
U1166 O1186 2.455 . S
U1166 O1187 2.449 . S
O1167 U1166 2.454 . S
O1167 C1169 1.353 . S
O1168 U1166 2.458 . S
O1168 C1169 1.286 . S
C1169 U1166 2.984 . S
C1169 O1167 1.353 . S
C1169 O1168 1.286 . S
C1169 C1171 1.363 . S
C1170 C1160 1.465 . S
C1170 U1166 2.847 . S
C1170 O1184 1.249 . S
C1170 O1185 1.202 . S
C1171 C1169 1.363 . S
C1171 C1173 1.408 . S
C1171 C1176 1.342 . S
C1172 C1173 1.310 . S
C1172 C1175 1.461 . S
C1172 H1192 0.932 . S
C1173 C1171 1.408 . S
C1173 C1172 1.310 . S
C1173 H1193 0.930 . S
C1174 C1175 1.474 . S
C1174 C1176 1.285 . S
C1174 H1194 0.929 . S
C1175 C1172 1.461 . S
C1175 C1174 1.474 . S
C1176 C1171 1.342 . S
C1176 C1174 1.285 . S
C1176 H1195 0.930 . S
C1177 C1180 1.424 . S
C1177 C1182 1.245 . S
C1177 C1183 1.428 . S
C1178 C1181 1.260 . S
C1178 C1182 1.477 . S
C1178 H1196 0.932 . S
C1179 C1180 1.384 . S
C1179 C1181 1.479 . S
C1179 H1197 0.929 . S
C1180 C1177 1.424 . S
C1180 C1179 1.384 . S
C1180 H1198 0.928 . S
C1181 C1178 1.260 . S
C1181 C1179 1.479 . S
C1182 C1177 1.245 . S
C1182 C1178 1.477 . S
C1182 H1199 0.932 . S
C1183 U1166 2.882 . S
C1183 C1177 1.428 . S
C1183 O1186 1.301 . S
C1183 O1187 1.282 . S
O1184 U1166 2.441 . S
O1184 C1170 1.249 . S
O1185 U1166 2.420 . S
O1185 C1170 1.202 . S
O1186 U1166 2.455 . S
O1186 C1183 1.301 . S
O1187 U1166 2.449 . S
O1187 C1183 1.282 . S
H1188 C1161 0.931 . S
H1189 C1163 0.929 . S
H1190 C1164 0.930 . S
H1191 C1165 0.931 . S
H1192 C1172 0.932 . S
H1193 C1173 0.930 . S
H1194 C1174 0.929 . S
H1195 C1176 0.930 . S
H1196 C1178 0.932 . S
H1197 C1179 0.929 . S
H1198 C1180 0.928 . S
H1199 C1182 0.932 . S
C1200 C1201 1.264 . S
C1200 C1205 1.479 . S
C1200 C1210 1.465 . S
C1201 C1200 1.264 . S
C1201 C1203 1.339 . S
C1201 H1228 0.931 . S
C1202 C1203 1.395 . S
C1202 C1204 1.320 . S
C1203 C1201 1.339 . S
C1203 C1202 1.395 . S
C1203 H1229 0.929 . S
C1204 C1202 1.320 . S
C1204 C1205 1.405 . S
C1204 H1230 0.930 . S
C1205 C1200 1.479 . S
C1205 C1204 1.405 . S
C1205 H1231 0.931 . S
U1206 O1207 2.454 . S
U1206 O1208 2.458 . S
U1206 C1209 2.984 . S
U1206 C1210 2.847 . S
U1206 C1223 2.882 . S
U1206 O1224 2.441 . S
U1206 O1225 2.420 . S
U1206 O1226 2.455 . S
U1206 O1227 2.449 . S
O1207 U1206 2.454 . S
O1207 C1209 1.353 . S
O1208 U1206 2.458 . S
O1208 C1209 1.286 . S
C1209 U1206 2.984 . S
C1209 O1207 1.353 . S
C1209 O1208 1.286 . S
C1209 C1211 1.363 . S
C1210 C1200 1.465 . S
C1210 U1206 2.847 . S
C1210 O1224 1.249 . S
C1210 O1225 1.202 . S
C1211 C1209 1.363 . S
C1211 C1213 1.408 . S
C1211 C1216 1.342 . S
C1212 C1213 1.310 . S
C1212 C1215 1.461 . S
C1212 H1232 0.932 . S
C1213 C1211 1.408 . S
C1213 C1212 1.310 . S
C1213 H1233 0.930 . S
C1214 C1215 1.474 . S
C1214 C1216 1.285 . S
C1214 H1234 0.929 . S
C1215 C1212 1.461 . S
C1215 C1214 1.474 . S
C1216 C1211 1.342 . S
C1216 C1214 1.285 . S
C1216 H1235 0.930 . S
C1217 C1220 1.424 . S
C1217 C1222 1.245 . S
C1217 C1223 1.428 . S
C1218 C1221 1.260 . S
C1218 C1222 1.477 . S
C1218 H1236 0.932 . S
C1219 C1220 1.384 . S
C1219 C1221 1.479 . S
C1219 H1237 0.929 . S
C1220 C1217 1.424 . S
C1220 C1219 1.384 . S
C1220 H1238 0.928 . S
C1221 C1218 1.260 . S
C1221 C1219 1.479 . S
C1222 C1217 1.245 . S
C1222 C1218 1.477 . S
C1222 H1239 0.932 . S
C1223 U1206 2.882 . S
C1223 C1217 1.428 . S
C1223 O1226 1.301 . S
C1223 O1227 1.282 . S
O1224 U1206 2.441 . S
O1224 C1210 1.249 . S
O1225 U1206 2.420 . S
O1225 C1210 1.202 . S
O1226 U1206 2.455 . S
O1226 C1223 1.301 . S
O1227 U1206 2.449 . S
O1227 C1223 1.282 . S
H1228 C1201 0.931 . S
H1229 C1203 0.929 . S
H1230 C1204 0.930 . S
H1231 C1205 0.931 . S
H1232 C1212 0.932 . S
H1233 C1213 0.930 . S
H1234 C1214 0.929 . S
H1235 C1216 0.930 . S
H1236 C1218 0.932 . S
H1237 C1219 0.929 . S
H1238 C1220 0.928 . S
H1239 C1222 0.932 . S
C1240 C1241 1.264 . S
C1240 C1245 1.479 . S
C1240 C1250 1.465 . S
C1241 C1240 1.264 . S
C1241 C1243 1.339 . S
C1241 H1268 0.931 . S
C1242 C1243 1.395 . S
C1242 C1244 1.320 . S
C1243 C1241 1.339 . S
C1243 C1242 1.395 . S
C1243 H1269 0.929 . S
C1244 C1242 1.320 . S
C1244 C1245 1.405 . S
C1244 H1270 0.930 . S
C1245 C1240 1.479 . S
C1245 C1244 1.405 . S
C1245 H1271 0.931 . S
U1246 O1247 2.454 . S
U1246 O1248 2.458 . S
U1246 C1249 2.984 . S
U1246 C1250 2.847 . S
U1246 C1263 2.882 . S
U1246 O1264 2.441 . S
U1246 O1265 2.420 . S
U1246 O1266 2.455 . S
U1246 O1267 2.449 . S
O1247 U1246 2.454 . S
O1247 C1249 1.353 . S
O1248 U1246 2.458 . S
O1248 C1249 1.286 . S
C1249 U1246 2.984 . S
C1249 O1247 1.353 . S
C1249 O1248 1.286 . S
C1249 C1251 1.363 . S
C1250 C1240 1.465 . S
C1250 U1246 2.847 . S
C1250 O1264 1.249 . S
C1250 O1265 1.202 . S
C1251 C1249 1.363 . S
C1251 C1253 1.408 . S
C1251 C1256 1.342 . S
C1252 C1253 1.310 . S
C1252 C1255 1.461 . S
C1252 H1272 0.932 . S
C1253 C1251 1.408 . S
C1253 C1252 1.310 . S
C1253 H1273 0.930 . S
C1254 C1255 1.474 . S
C1254 C1256 1.285 . S
C1254 H1274 0.929 . S
C1255 C1252 1.461 . S
C1255 C1254 1.474 . S
C1256 C1251 1.342 . S
C1256 C1254 1.285 . S
C1256 H1275 0.930 . S
C1257 C1260 1.424 . S
C1257 C1262 1.245 . S
C1257 C1263 1.428 . S
C1258 C1261 1.260 . S
C1258 C1262 1.477 . S
C1258 H1276 0.932 . S
C1259 C1260 1.384 . S
C1259 C1261 1.479 . S
C1259 H1277 0.929 . S
C1260 C1257 1.424 . S
C1260 C1259 1.384 . S
C1260 H1278 0.928 . S
C1261 C1258 1.260 . S
C1261 C1259 1.479 . S
C1262 C1257 1.245 . S
C1262 C1258 1.477 . S
C1262 H1279 0.932 . S
C1263 U1246 2.882 . S
C1263 C1257 1.428 . S
C1263 O1266 1.301 . S
C1263 O1267 1.282 . S
O1264 U1246 2.441 . S
O1264 C1250 1.249 . S
O1265 U1246 2.420 . S
O1265 C1250 1.202 . S
O1266 U1246 2.455 . S
O1266 C1263 1.301 . S
O1267 U1246 2.449 . S
O1267 C1263 1.282 . S
H1268 C1241 0.931 . S
H1269 C1243 0.929 . S
H1270 C1244 0.930 . S
H1271 C1245 0.931 . S
H1272 C1252 0.932 . S
H1273 C1253 0.930 . S
H1274 C1254 0.929 . S
H1275 C1256 0.930 . S
H1276 C1258 0.932 . S
H1277 C1259 0.929 . S
H1278 C1260 0.928 . S
H1279 C1262 0.932 . S
C1280 C1281 1.264 . S
C1280 C1285 1.479 . S
C1280 C1290 1.465 . S
C1281 C1280 1.264 . S
C1281 C1283 1.339 . S
C1281 H1308 0.931 . S
C1282 C1283 1.395 . S
C1282 C1284 1.320 . S
C1283 C1281 1.339 . S
C1283 C1282 1.395 . S
C1283 H1309 0.929 . S
C1284 C1282 1.320 . S
C1284 C1285 1.405 . S
C1284 H1310 0.930 . S
C1285 C1280 1.479 . S
C1285 C1284 1.405 . S
C1285 H1311 0.931 . S
U1286 O1287 2.454 . S
U1286 O1288 2.458 . S
U1286 C1289 2.984 . S
U1286 C1290 2.847 . S
U1286 C1303 2.882 . S
U1286 O1304 2.441 . S
U1286 O1305 2.420 . S
U1286 O1306 2.455 . S
U1286 O1307 2.449 . S
O1287 U1286 2.454 . S
O1287 C1289 1.353 . S
O1288 U1286 2.458 . S
O1288 C1289 1.286 . S
C1289 U1286 2.984 . S
C1289 O1287 1.353 . S
C1289 O1288 1.286 . S
C1289 C1291 1.363 . S
C1290 C1280 1.465 . S
C1290 U1286 2.847 . S
C1290 O1304 1.249 . S
C1290 O1305 1.202 . S
C1291 C1289 1.363 . S
C1291 C1293 1.408 . S
C1291 C1296 1.342 . S
C1292 C1293 1.310 . S
C1292 C1295 1.461 . S
C1292 H1312 0.932 . S
C1293 C1291 1.408 . S
C1293 C1292 1.310 . S
C1293 H1313 0.930 . S
C1294 C1295 1.474 . S
C1294 C1296 1.285 . S
C1294 H1314 0.929 . S
C1295 C1292 1.461 . S
C1295 C1294 1.474 . S
C1296 C1291 1.342 . S
C1296 C1294 1.285 . S
C1296 H1315 0.930 . S
C1297 C1300 1.424 . S
C1297 C1302 1.245 . S
C1297 C1303 1.428 . S
C1298 C1301 1.260 . S
C1298 C1302 1.477 . S
C1298 H1316 0.932 . S
C1299 C1300 1.384 . S
C1299 C1301 1.479 . S
C1299 H1317 0.929 . S
C1300 C1297 1.424 . S
C1300 C1299 1.384 . S
C1300 H1318 0.928 . S
C1301 C1298 1.260 . S
C1301 C1299 1.479 . S
C1302 C1297 1.245 . S
C1302 C1298 1.477 . S
C1302 H1319 0.932 . S
C1303 U1286 2.882 . S
C1303 C1297 1.428 . S
C1303 O1306 1.301 . S
C1303 O1307 1.282 . S
O1304 U1286 2.441 . S
O1304 C1290 1.249 . S
O1305 U1286 2.420 . S
O1305 C1290 1.202 . S
O1306 U1286 2.455 . S
O1306 C1303 1.301 . S
O1307 U1286 2.449 . S
O1307 C1303 1.282 . S
H1308 C1281 0.931 . S
H1309 C1283 0.929 . S
H1310 C1284 0.930 . S
H1311 C1285 0.931 . S
H1312 C1292 0.932 . S
H1313 C1293 0.930 . S
H1314 C1294 0.929 . S
H1315 C1296 0.930 . S
H1316 C1298 0.932 . S
H1317 C1299 0.929 . S
H1318 C1300 0.928 . S
H1319 C1302 0.932 . S
C1320 C1321 1.264 . S
C1320 C1325 1.479 . S
C1320 C1330 1.465 . S
C1321 C1320 1.264 . S
C1321 C1323 1.339 . S
C1321 H1348 0.931 . S
C1322 C1323 1.395 . S
C1322 C1324 1.320 . S
C1323 C1321 1.339 . S
C1323 C1322 1.395 . S
C1323 H1349 0.929 . S
C1324 C1322 1.320 . S
C1324 C1325 1.405 . S
C1324 H1350 0.930 . S
C1325 C1320 1.479 . S
C1325 C1324 1.405 . S
C1325 H1351 0.931 . S
U1326 O1327 2.454 . S
U1326 O1328 2.458 . S
U1326 C1329 2.984 . S
U1326 C1330 2.847 . S
U1326 C1343 2.882 . S
U1326 O1344 2.441 . S
U1326 O1345 2.420 . S
U1326 O1346 2.455 . S
U1326 O1347 2.449 . S
O1327 U1326 2.454 . S
O1327 C1329 1.353 . S
O1328 U1326 2.458 . S
O1328 C1329 1.286 . S
C1329 U1326 2.984 . S
C1329 O1327 1.353 . S
C1329 O1328 1.286 . S
C1329 C1331 1.363 . S
C1330 C1320 1.465 . S
C1330 U1326 2.847 . S
C1330 O1344 1.249 . S
C1330 O1345 1.202 . S
C1331 C1329 1.363 . S
C1331 C1333 1.408 . S
C1331 C1336 1.342 . S
C1332 C1333 1.310 . S
C1332 C1335 1.461 . S
C1332 H1352 0.932 . S
C1333 C1331 1.408 . S
C1333 C1332 1.310 . S
C1333 H1353 0.930 . S
C1334 C1335 1.474 . S
C1334 C1336 1.285 . S
C1334 H1354 0.929 . S
C1335 C1332 1.461 . S
C1335 C1334 1.474 . S
C1336 C1331 1.342 . S
C1336 C1334 1.285 . S
C1336 H1355 0.930 . S
C1337 C1340 1.424 . S
C1337 C1342 1.245 . S
C1337 C1343 1.428 . S
C1338 C1341 1.260 . S
C1338 C1342 1.477 . S
C1338 H1356 0.932 . S
C1339 C1340 1.384 . S
C1339 C1341 1.479 . S
C1339 H1357 0.929 . S
C1340 C1337 1.424 . S
C1340 C1339 1.384 . S
C1340 H1358 0.928 . S
C1341 C1338 1.260 . S
C1341 C1339 1.479 . S
C1342 C1337 1.245 . S
C1342 C1338 1.477 . S
C1342 H1359 0.932 . S
C1343 U1326 2.882 . S
C1343 C1337 1.428 . S
C1343 O1346 1.301 . S
C1343 O1347 1.282 . S
O1344 U1326 2.441 . S
O1344 C1330 1.249 . S
O1345 U1326 2.420 . S
O1345 C1330 1.202 . S
O1346 U1326 2.455 . S
O1346 C1343 1.301 . S
O1347 U1326 2.449 . S
O1347 C1343 1.282 . S
H1348 C1321 0.931 . S
H1349 C1323 0.929 . S
H1350 C1324 0.930 . S
H1351 C1325 0.931 . S
H1352 C1332 0.932 . S
H1353 C1333 0.930 . S
H1354 C1334 0.929 . S
H1355 C1336 0.930 . S
H1356 C1338 0.932 . S
H1357 C1339 0.929 . S
H1358 C1340 0.928 . S
H1359 C1342 0.932 . S
C1360 C1361 1.264 . S
C1360 C1365 1.479 . S
C1360 C1370 1.465 . S
C1361 C1360 1.264 . S
C1361 C1363 1.339 . S
C1361 H1388 0.931 . S
C1362 C1363 1.395 . S
C1362 C1364 1.320 . S
C1363 C1361 1.339 . S
C1363 C1362 1.395 . S
C1363 H1389 0.929 . S
C1364 C1362 1.320 . S
C1364 C1365 1.405 . S
C1364 H1390 0.930 . S
C1365 C1360 1.479 . S
C1365 C1364 1.405 . S
C1365 H1391 0.931 . S
U1366 O1367 2.454 . S
U1366 O1368 2.458 . S
U1366 C1369 2.984 . S
U1366 C1370 2.847 . S
U1366 C1383 2.882 . S
U1366 O1384 2.441 . S
U1366 O1385 2.420 . S
U1366 O1386 2.455 . S
U1366 O1387 2.449 . S
O1367 U1366 2.454 . S
O1367 C1369 1.353 . S
O1368 U1366 2.458 . S
O1368 C1369 1.286 . S
C1369 U1366 2.984 . S
C1369 O1367 1.353 . S
C1369 O1368 1.286 . S
C1369 C1371 1.363 . S
C1370 C1360 1.465 . S
C1370 U1366 2.847 . S
C1370 O1384 1.249 . S
C1370 O1385 1.202 . S
C1371 C1369 1.363 . S
C1371 C1373 1.408 . S
C1371 C1376 1.342 . S
C1372 C1373 1.310 . S
C1372 C1375 1.461 . S
C1372 H1392 0.932 . S
C1373 C1371 1.408 . S
C1373 C1372 1.310 . S
C1373 H1393 0.930 . S
C1374 C1375 1.474 . S
C1374 C1376 1.285 . S
C1374 H1394 0.929 . S
C1375 C1372 1.461 . S
C1375 C1374 1.474 . S
C1376 C1371 1.342 . S
C1376 C1374 1.285 . S
C1376 H1395 0.930 . S
C1377 C1380 1.424 . S
C1377 C1382 1.245 . S
C1377 C1383 1.428 . S
C1378 C1381 1.260 . S
C1378 C1382 1.477 . S
C1378 H1396 0.932 . S
C1379 C1380 1.384 . S
C1379 C1381 1.479 . S
C1379 H1397 0.929 . S
C1380 C1377 1.424 . S
C1380 C1379 1.384 . S
C1380 H1398 0.928 . S
C1381 C1378 1.260 . S
C1381 C1379 1.479 . S
C1382 C1377 1.245 . S
C1382 C1378 1.477 . S
C1382 H1399 0.932 . S
C1383 U1366 2.882 . S
C1383 C1377 1.428 . S
C1383 O1386 1.301 . S
C1383 O1387 1.282 . S
O1384 U1366 2.441 . S
O1384 C1370 1.249 . S
O1385 U1366 2.420 . S
O1385 C1370 1.202 . S
O1386 U1366 2.455 . S
O1386 C1383 1.301 . S
O1387 U1366 2.449 . S
O1387 C1383 1.282 . S
H1388 C1361 0.931 . S
H1389 C1363 0.929 . S
H1390 C1364 0.930 . S
H1391 C1365 0.931 . S
H1392 C1372 0.932 . S
H1393 C1373 0.930 . S
H1394 C1374 0.929 . S
H1395 C1376 0.930 . S
H1396 C1378 0.932 . S
H1397 C1379 0.929 . S
H1398 C1380 0.928 . S
H1399 C1382 0.932 . S
C1400 C1401 1.264 . S
C1400 C1405 1.479 . S
C1400 C1410 1.465 . S
C1401 C1400 1.264 . S
C1401 C1403 1.339 . S
C1401 H1428 0.931 . S
C1402 C1403 1.395 . S
C1402 C1404 1.320 . S
C1403 C1401 1.339 . S
C1403 C1402 1.395 . S
C1403 H1429 0.929 . S
C1404 C1402 1.320 . S
C1404 C1405 1.405 . S
C1404 H1430 0.930 . S
C1405 C1400 1.479 . S
C1405 C1404 1.405 . S
C1405 H1431 0.931 . S
U1406 O1407 2.454 . S
U1406 O1408 2.458 . S
U1406 C1409 2.984 . S
U1406 C1410 2.847 . S
U1406 C1423 2.882 . S
U1406 O1424 2.441 . S
U1406 O1425 2.420 . S
U1406 O1426 2.455 . S
U1406 O1427 2.449 . S
O1407 U1406 2.454 . S
O1407 C1409 1.353 . S
O1408 U1406 2.458 . S
O1408 C1409 1.286 . S
C1409 U1406 2.984 . S
C1409 O1407 1.353 . S
C1409 O1408 1.286 . S
C1409 C1411 1.363 . S
C1410 C1400 1.465 . S
C1410 U1406 2.847 . S
C1410 O1424 1.249 . S
C1410 O1425 1.202 . S
C1411 C1409 1.363 . S
C1411 C1413 1.408 . S
C1411 C1416 1.342 . S
C1412 C1413 1.310 . S
C1412 C1415 1.461 . S
C1412 H1432 0.932 . S
C1413 C1411 1.408 . S
C1413 C1412 1.310 . S
C1413 H1433 0.930 . S
C1414 C1415 1.474 . S
C1414 C1416 1.285 . S
C1414 H1434 0.929 . S
C1415 C1412 1.461 . S
C1415 C1414 1.474 . S
C1416 C1411 1.342 . S
C1416 C1414 1.285 . S
C1416 H1435 0.930 . S
C1417 C1420 1.424 . S
C1417 C1422 1.245 . S
C1417 C1423 1.428 . S
C1418 C1421 1.260 . S
C1418 C1422 1.477 . S
C1418 H1436 0.932 . S
C1419 C1420 1.384 . S
C1419 C1421 1.479 . S
C1419 H1437 0.929 . S
C1420 C1417 1.424 . S
C1420 C1419 1.384 . S
C1420 H1438 0.928 . S
C1421 C1418 1.260 . S
C1421 C1419 1.479 . S
C1422 C1417 1.245 . S
C1422 C1418 1.477 . S
C1422 H1439 0.932 . S
C1423 U1406 2.882 . S
C1423 C1417 1.428 . S
C1423 O1426 1.301 . S
C1423 O1427 1.282 . S
O1424 U1406 2.441 . S
O1424 C1410 1.249 . S
O1425 U1406 2.420 . S
O1425 C1410 1.202 . S
O1426 U1406 2.455 . S
O1426 C1423 1.301 . S
O1427 U1406 2.449 . S
O1427 C1423 1.282 . S
H1428 C1401 0.931 . S
H1429 C1403 0.929 . S
H1430 C1404 0.930 . S
H1431 C1405 0.931 . S
H1432 C1412 0.932 . S
H1433 C1413 0.930 . S
H1434 C1414 0.929 . S
H1435 C1416 0.930 . S
H1436 C1418 0.932 . S
H1437 C1419 0.929 . S
H1438 C1420 0.928 . S
H1439 C1422 0.932 . S
C1440 C1441 1.264 . S
C1440 C1445 1.479 . S
C1440 C1450 1.465 . S
C1441 C1440 1.264 . S
C1441 C1443 1.339 . S
C1441 H1468 0.931 . S
C1442 C1443 1.395 . S
C1442 C1444 1.320 . S
C1443 C1441 1.339 . S
C1443 C1442 1.395 . S
C1443 H1469 0.929 . S
C1444 C1442 1.320 . S
C1444 C1445 1.405 . S
C1444 H1470 0.930 . S
C1445 C1440 1.479 . S
C1445 C1444 1.405 . S
C1445 H1471 0.931 . S
U1446 O1447 2.454 . S
U1446 O1448 2.458 . S
U1446 C1449 2.984 . S
U1446 C1450 2.847 . S
U1446 C1463 2.882 . S
U1446 O1464 2.441 . S
U1446 O1465 2.420 . S
U1446 O1466 2.455 . S
U1446 O1467 2.449 . S
O1447 U1446 2.454 . S
O1447 C1449 1.353 . S
O1448 U1446 2.458 . S
O1448 C1449 1.286 . S
C1449 U1446 2.984 . S
C1449 O1447 1.353 . S
C1449 O1448 1.286 . S
C1449 C1451 1.363 . S
C1450 C1440 1.465 . S
C1450 U1446 2.847 . S
C1450 O1464 1.249 . S
C1450 O1465 1.202 . S
C1451 C1449 1.363 . S
C1451 C1453 1.408 . S
C1451 C1456 1.342 . S
C1452 C1453 1.310 . S
C1452 C1455 1.461 . S
C1452 H1472 0.932 . S
C1453 C1451 1.408 . S
C1453 C1452 1.310 . S
C1453 H1473 0.930 . S
C1454 C1455 1.474 . S
C1454 C1456 1.285 . S
C1454 H1474 0.929 . S
C1455 C1452 1.461 . S
C1455 C1454 1.474 . S
C1456 C1451 1.342 . S
C1456 C1454 1.285 . S
C1456 H1475 0.930 . S
C1457 C1460 1.424 . S
C1457 C1462 1.245 . S
C1457 C1463 1.428 . S
C1458 C1461 1.260 . S
C1458 C1462 1.477 . S
C1458 H1476 0.932 . S
C1459 C1460 1.384 . S
C1459 C1461 1.479 . S
C1459 H1477 0.929 . S
C1460 C1457 1.424 . S
C1460 C1459 1.384 . S
C1460 H1478 0.928 . S
C1461 C1458 1.260 . S
C1461 C1459 1.479 . S
C1462 C1457 1.245 . S
C1462 C1458 1.477 . S
C1462 H1479 0.932 . S
C1463 U1446 2.882 . S
C1463 C1457 1.428 . S
C1463 O1466 1.301 . S
C1463 O1467 1.282 . S
O1464 U1446 2.441 . S
O1464 C1450 1.249 . S
O1465 U1446 2.420 . S
O1465 C1450 1.202 . S
O1466 U1446 2.455 . S
O1466 C1463 1.301 . S
O1467 U1446 2.449 . S
O1467 C1463 1.282 . S
H1468 C1441 0.931 . S
H1469 C1443 0.929 . S
H1470 C1444 0.930 . S
H1471 C1445 0.931 . S
H1472 C1452 0.932 . S
H1473 C1453 0.930 . S
H1474 C1454 0.929 . S
H1475 C1456 0.930 . S
H1476 C1458 0.932 . S
H1477 C1459 0.929 . S
H1478 C1460 0.928 . S
H1479 C1462 0.932 . S
C1480 C1481 1.264 . S
C1480 C1485 1.479 . S
C1480 C1490 1.465 . S
C1481 C1480 1.264 . S
C1481 C1483 1.339 . S
C1481 H1508 0.931 . S
C1482 C1483 1.395 . S
C1482 C1484 1.320 . S
C1483 C1481 1.339 . S
C1483 C1482 1.395 . S
C1483 H1509 0.929 . S
C1484 C1482 1.320 . S
C1484 C1485 1.405 . S
C1484 H1510 0.930 . S
C1485 C1480 1.479 . S
C1485 C1484 1.405 . S
C1485 H1511 0.931 . S
U1486 O1487 2.454 . S
U1486 O1488 2.458 . S
U1486 C1489 2.984 . S
U1486 C1490 2.847 . S
U1486 C1503 2.882 . S
U1486 O1504 2.441 . S
U1486 O1505 2.420 . S
U1486 O1506 2.455 . S
U1486 O1507 2.449 . S
O1487 U1486 2.454 . S
O1487 C1489 1.353 . S
O1488 U1486 2.458 . S
O1488 C1489 1.286 . S
C1489 U1486 2.984 . S
C1489 O1487 1.353 . S
C1489 O1488 1.286 . S
C1489 C1491 1.363 . S
C1490 C1480 1.465 . S
C1490 U1486 2.847 . S
C1490 O1504 1.249 . S
C1490 O1505 1.202 . S
C1491 C1489 1.363 . S
C1491 C1493 1.408 . S
C1491 C1496 1.342 . S
C1492 C1493 1.310 . S
C1492 C1495 1.461 . S
C1492 H1512 0.932 . S
C1493 C1491 1.408 . S
C1493 C1492 1.310 . S
C1493 H1513 0.930 . S
C1494 C1495 1.474 . S
C1494 C1496 1.285 . S
C1494 H1514 0.929 . S
C1495 C1492 1.461 . S
C1495 C1494 1.474 . S
C1496 C1491 1.342 . S
C1496 C1494 1.285 . S
C1496 H1515 0.930 . S
C1497 C1500 1.424 . S
C1497 C1502 1.245 . S
C1497 C1503 1.428 . S
C1498 C1501 1.260 . S
C1498 C1502 1.477 . S
C1498 H1516 0.932 . S
C1499 C1500 1.384 . S
C1499 C1501 1.479 . S
C1499 H1517 0.929 . S
C1500 C1497 1.424 . S
C1500 C1499 1.384 . S
C1500 H1518 0.928 . S
C1501 C1498 1.260 . S
C1501 C1499 1.479 . S
C1502 C1497 1.245 . S
C1502 C1498 1.477 . S
C1502 H1519 0.932 . S
C1503 U1486 2.882 . S
C1503 C1497 1.428 . S
C1503 O1506 1.301 . S
C1503 O1507 1.282 . S
O1504 U1486 2.441 . S
O1504 C1490 1.249 . S
O1505 U1486 2.420 . S
O1505 C1490 1.202 . S
O1506 U1486 2.455 . S
O1506 C1503 1.301 . S
O1507 U1486 2.449 . S
O1507 C1503 1.282 . S
H1508 C1481 0.931 . S
H1509 C1483 0.929 . S
H1510 C1484 0.930 . S
H1511 C1485 0.931 . S
H1512 C1492 0.932 . S
H1513 C1493 0.930 . S
H1514 C1494 0.929 . S
H1515 C1496 0.930 . S
H1516 C1498 0.932 . S
H1517 C1499 0.929 . S
H1518 C1500 0.928 . S
H1519 C1502 0.932 . S
C1520 C1521 1.264 . S
C1520 C1525 1.479 . S
C1520 C1530 1.465 . S
C1521 C1520 1.264 . S
C1521 C1523 1.339 . S
C1521 H1548 0.931 . S
C1522 C1523 1.395 . S
C1522 C1524 1.320 . S
C1523 C1521 1.339 . S
C1523 C1522 1.395 . S
C1523 H1549 0.929 . S
C1524 C1522 1.320 . S
C1524 C1525 1.405 . S
C1524 H1550 0.930 . S
C1525 C1520 1.479 . S
C1525 C1524 1.405 . S
C1525 H1551 0.931 . S
U1526 O1527 2.454 . S
U1526 O1528 2.458 . S
U1526 C1529 2.984 . S
U1526 C1530 2.847 . S
U1526 C1543 2.882 . S
U1526 O1544 2.441 . S
U1526 O1545 2.420 . S
U1526 O1546 2.455 . S
U1526 O1547 2.449 . S
O1527 U1526 2.454 . S
O1527 C1529 1.353 . S
O1528 U1526 2.458 . S
O1528 C1529 1.286 . S
C1529 U1526 2.984 . S
C1529 O1527 1.353 . S
C1529 O1528 1.286 . S
C1529 C1531 1.363 . S
C1530 C1520 1.465 . S
C1530 U1526 2.847 . S
C1530 O1544 1.249 . S
C1530 O1545 1.202 . S
C1531 C1529 1.363 . S
C1531 C1533 1.408 . S
C1531 C1536 1.342 . S
C1532 C1533 1.310 . S
C1532 C1535 1.461 . S
C1532 H1552 0.932 . S
C1533 C1531 1.408 . S
C1533 C1532 1.310 . S
C1533 H1553 0.930 . S
C1534 C1535 1.474 . S
C1534 C1536 1.285 . S
C1534 H1554 0.929 . S
C1535 C1532 1.461 . S
C1535 C1534 1.474 . S
C1536 C1531 1.342 . S
C1536 C1534 1.285 . S
C1536 H1555 0.930 . S
C1537 C1540 1.424 . S
C1537 C1542 1.245 . S
C1537 C1543 1.428 . S
C1538 C1541 1.260 . S
C1538 C1542 1.477 . S
C1538 H1556 0.932 . S
C1539 C1540 1.384 . S
C1539 C1541 1.479 . S
C1539 H1557 0.929 . S
C1540 C1537 1.424 . S
C1540 C1539 1.384 . S
C1540 H1558 0.928 . S
C1541 C1538 1.260 . S
C1541 C1539 1.479 . S
C1542 C1537 1.245 . S
C1542 C1538 1.477 . S
C1542 H1559 0.932 . S
C1543 U1526 2.882 . S
C1543 C1537 1.428 . S
C1543 O1546 1.301 . S
C1543 O1547 1.282 . S
O1544 U1526 2.441 . S
O1544 C1530 1.249 . S
O1545 U1526 2.420 . S
O1545 C1530 1.202 . S
O1546 U1526 2.455 . S
O1546 C1543 1.301 . S
O1547 U1526 2.449 . S
O1547 C1543 1.282 . S
H1548 C1521 0.931 . S
H1549 C1523 0.929 . S
H1550 C1524 0.930 . S
H1551 C1525 0.931 . S
H1552 C1532 0.932 . S
H1553 C1533 0.930 . S
H1554 C1534 0.929 . S
H1555 C1536 0.930 . S
H1556 C1538 0.932 . S
H1557 C1539 0.929 . S
H1558 C1540 0.928 . S
H1559 C1542 0.932 . S
C1560 C1561 1.264 . S
C1560 C1565 1.479 . S
C1560 C1570 1.465 . S
C1561 C1560 1.264 . S
C1561 C1563 1.339 . S
C1561 H1588 0.931 . S
C1562 C1563 1.395 . S
C1562 C1564 1.320 . S
C1563 C1561 1.339 . S
C1563 C1562 1.395 . S
C1563 H1589 0.929 . S
C1564 C1562 1.320 . S
C1564 C1565 1.405 . S
C1564 H1590 0.930 . S
C1565 C1560 1.479 . S
C1565 C1564 1.405 . S
C1565 H1591 0.931 . S
U1566 O1567 2.454 . S
U1566 O1568 2.458 . S
U1566 C1569 2.984 . S
U1566 C1570 2.847 . S
U1566 C1583 2.882 . S
U1566 O1584 2.441 . S
U1566 O1585 2.420 . S
U1566 O1586 2.455 . S
U1566 O1587 2.449 . S
O1567 U1566 2.454 . S
O1567 C1569 1.353 . S
O1568 U1566 2.458 . S
O1568 C1569 1.286 . S
C1569 U1566 2.984 . S
C1569 O1567 1.353 . S
C1569 O1568 1.286 . S
C1569 C1571 1.363 . S
C1570 C1560 1.465 . S
C1570 U1566 2.847 . S
C1570 O1584 1.249 . S
C1570 O1585 1.202 . S
C1571 C1569 1.363 . S
C1571 C1573 1.408 . S
C1571 C1576 1.342 . S
C1572 C1573 1.310 . S
C1572 C1575 1.461 . S
C1572 H1592 0.932 . S
C1573 C1571 1.408 . S
C1573 C1572 1.310 . S
C1573 H1593 0.930 . S
C1574 C1575 1.474 . S
C1574 C1576 1.285 . S
C1574 H1594 0.929 . S
C1575 C1572 1.461 . S
C1575 C1574 1.474 . S
C1576 C1571 1.342 . S
C1576 C1574 1.285 . S
C1576 H1595 0.930 . S
C1577 C1580 1.424 . S
C1577 C1582 1.245 . S
C1577 C1583 1.428 . S
C1578 C1581 1.260 . S
C1578 C1582 1.477 . S
C1578 H1596 0.932 . S
C1579 C1580 1.384 . S
C1579 C1581 1.479 . S
C1579 H1597 0.929 . S
C1580 C1577 1.424 . S
C1580 C1579 1.384 . S
C1580 H1598 0.928 . S
C1581 C1578 1.260 . S
C1581 C1579 1.479 . S
C1582 C1577 1.245 . S
C1582 C1578 1.477 . S
C1582 H1599 0.932 . S
C1583 U1566 2.882 . S
C1583 C1577 1.428 . S
C1583 O1586 1.301 . S
C1583 O1587 1.282 . S
O1584 U1566 2.441 . S
O1584 C1570 1.249 . S
O1585 U1566 2.420 . S
O1585 C1570 1.202 . S
O1586 U1566 2.455 . S
O1586 C1583 1.301 . S
O1587 U1566 2.449 . S
O1587 C1583 1.282 . S
H1588 C1561 0.931 . S
H1589 C1563 0.929 . S
H1590 C1564 0.930 . S
H1591 C1565 0.931 . S
H1592 C1572 0.932 . S
H1593 C1573 0.930 . S
H1594 C1574 0.929 . S
H1595 C1576 0.930 . S
H1596 C1578 0.932 . S
H1597 C1579 0.929 . S
H1598 C1580 0.928 . S
H1599 C1582 0.932 . S
C1600 C1601 1.264 . S
C1600 C1605 1.479 . S
C1600 C1610 1.465 . S
C1601 C1600 1.264 . S
C1601 C1603 1.339 . S
C1601 H1628 0.931 . S
C1602 C1603 1.395 . S
C1602 C1604 1.320 . S
C1603 C1601 1.339 . S
C1603 C1602 1.395 . S
C1603 H1629 0.929 . S
C1604 C1602 1.320 . S
C1604 C1605 1.405 . S
C1604 H1630 0.930 . S
C1605 C1600 1.479 . S
C1605 C1604 1.405 . S
C1605 H1631 0.931 . S
U1606 O1607 2.454 . S
U1606 O1608 2.458 . S
U1606 C1609 2.984 . S
U1606 C1610 2.847 . S
U1606 C1623 2.882 . S
U1606 O1624 2.441 . S
U1606 O1625 2.420 . S
U1606 O1626 2.455 . S
U1606 O1627 2.449 . S
O1607 U1606 2.454 . S
O1607 C1609 1.353 . S
O1608 U1606 2.458 . S
O1608 C1609 1.286 . S
C1609 U1606 2.984 . S
C1609 O1607 1.353 . S
C1609 O1608 1.286 . S
C1609 C1611 1.363 . S
C1610 C1600 1.465 . S
C1610 U1606 2.847 . S
C1610 O1624 1.249 . S
C1610 O1625 1.202 . S
C1611 C1609 1.363 . S
C1611 C1613 1.408 . S
C1611 C1616 1.342 . S
C1612 C1613 1.310 . S
C1612 C1615 1.461 . S
C1612 H1632 0.932 . S
C1613 C1611 1.408 . S
C1613 C1612 1.310 . S
C1613 H1633 0.930 . S
C1614 C1615 1.474 . S
C1614 C1616 1.285 . S
C1614 H1634 0.929 . S
C1615 C1612 1.461 . S
C1615 C1614 1.474 . S
C1616 C1611 1.342 . S
C1616 C1614 1.285 . S
C1616 H1635 0.930 . S
C1617 C1620 1.424 . S
C1617 C1622 1.245 . S
C1617 C1623 1.428 . S
C1618 C1621 1.260 . S
C1618 C1622 1.477 . S
C1618 H1636 0.932 . S
C1619 C1620 1.384 . S
C1619 C1621 1.479 . S
C1619 H1637 0.929 . S
C1620 C1617 1.424 . S
C1620 C1619 1.384 . S
C1620 H1638 0.928 . S
C1621 C1618 1.260 . S
C1621 C1619 1.479 . S
C1622 C1617 1.245 . S
C1622 C1618 1.477 . S
C1622 H1639 0.932 . S
C1623 U1606 2.882 . S
C1623 C1617 1.428 . S
C1623 O1626 1.301 . S
C1623 O1627 1.282 . S
O1624 U1606 2.441 . S
O1624 C1610 1.249 . S
O1625 U1606 2.420 . S
O1625 C1610 1.202 . S
O1626 U1606 2.455 . S
O1626 C1623 1.301 . S
O1627 U1606 2.449 . S
O1627 C1623 1.282 . S
H1628 C1601 0.931 . S
H1629 C1603 0.929 . S
H1630 C1604 0.930 . S
H1631 C1605 0.931 . S
H1632 C1612 0.932 . S
H1633 C1613 0.930 . S
H1634 C1614 0.929 . S
H1635 C1616 0.930 . S
H1636 C1618 0.932 . S
H1637 C1619 0.929 . S
H1638 C1620 0.928 . S
H1639 C1622 0.932 . S
C1640 C1641 1.264 . S
C1640 C1645 1.479 . S
C1640 C1650 1.465 . S
C1641 C1640 1.264 . S
C1641 C1643 1.339 . S
C1641 H1668 0.931 . S
C1642 C1643 1.395 . S
C1642 C1644 1.320 . S
C1643 C1641 1.339 . S
C1643 C1642 1.395 . S
C1643 H1669 0.929 . S
C1644 C1642 1.320 . S
C1644 C1645 1.405 . S
C1644 H1670 0.930 . S
C1645 C1640 1.479 . S
C1645 C1644 1.405 . S
C1645 H1671 0.931 . S
U1646 O1647 2.454 . S
U1646 O1648 2.458 . S
U1646 C1649 2.984 . S
U1646 C1650 2.847 . S
U1646 C1663 2.882 . S
U1646 O1664 2.441 . S
U1646 O1665 2.420 . S
U1646 O1666 2.455 . S
U1646 O1667 2.449 . S
O1647 U1646 2.454 . S
O1647 C1649 1.353 . S
O1648 U1646 2.458 . S
O1648 C1649 1.286 . S
C1649 U1646 2.984 . S
C1649 O1647 1.353 . S
C1649 O1648 1.286 . S
C1649 C1651 1.363 . S
C1650 C1640 1.465 . S
C1650 U1646 2.847 . S
C1650 O1664 1.249 . S
C1650 O1665 1.202 . S
C1651 C1649 1.363 . S
C1651 C1653 1.408 . S
C1651 C1656 1.342 . S
C1652 C1653 1.310 . S
C1652 C1655 1.461 . S
C1652 H1672 0.932 . S
C1653 C1651 1.408 . S
C1653 C1652 1.310 . S
C1653 H1673 0.930 . S
C1654 C1655 1.474 . S
C1654 C1656 1.285 . S
C1654 H1674 0.929 . S
C1655 C1652 1.461 . S
C1655 C1654 1.474 . S
C1656 C1651 1.342 . S
C1656 C1654 1.285 . S
C1656 H1675 0.930 . S
C1657 C1660 1.424 . S
C1657 C1662 1.245 . S
C1657 C1663 1.428 . S
C1658 C1661 1.260 . S
C1658 C1662 1.477 . S
C1658 H1676 0.932 . S
C1659 C1660 1.384 . S
C1659 C1661 1.479 . S
C1659 H1677 0.929 . S
C1660 C1657 1.424 . S
C1660 C1659 1.384 . S
C1660 H1678 0.928 . S
C1661 C1658 1.260 . S
C1661 C1659 1.479 . S
C1662 C1657 1.245 . S
C1662 C1658 1.477 . S
C1662 H1679 0.932 . S
C1663 U1646 2.882 . S
C1663 C1657 1.428 . S
C1663 O1666 1.301 . S
C1663 O1667 1.282 . S
O1664 U1646 2.441 . S
O1664 C1650 1.249 . S
O1665 U1646 2.420 . S
O1665 C1650 1.202 . S
O1666 U1646 2.455 . S
O1666 C1663 1.301 . S
O1667 U1646 2.449 . S
O1667 C1663 1.282 . S
H1668 C1641 0.931 . S
H1669 C1643 0.929 . S
H1670 C1644 0.930 . S
H1671 C1645 0.931 . S
H1672 C1652 0.932 . S
H1673 C1653 0.930 . S
H1674 C1654 0.929 . S
H1675 C1656 0.930 . S
H1676 C1658 0.932 . S
H1677 C1659 0.929 . S
H1678 C1660 0.928 . S
H1679 C1662 0.932 . S
C1680 C1681 1.264 . S
C1680 C1685 1.479 . S
C1680 C1690 1.465 . S
C1681 C1680 1.264 . S
C1681 C1683 1.339 . S
C1681 H1708 0.931 . S
C1682 C1683 1.395 . S
C1682 C1684 1.320 . S
C1683 C1681 1.339 . S
C1683 C1682 1.395 . S
C1683 H1709 0.929 . S
C1684 C1682 1.320 . S
C1684 C1685 1.405 . S
C1684 H1710 0.930 . S
C1685 C1680 1.479 . S
C1685 C1684 1.405 . S
C1685 H1711 0.931 . S
U1686 O1687 2.454 . S
U1686 O1688 2.458 . S
U1686 C1689 2.984 . S
U1686 C1690 2.847 . S
U1686 C1703 2.882 . S
U1686 O1704 2.441 . S
U1686 O1705 2.420 . S
U1686 O1706 2.455 . S
U1686 O1707 2.449 . S
O1687 U1686 2.454 . S
O1687 C1689 1.353 . S
O1688 U1686 2.458 . S
O1688 C1689 1.286 . S
C1689 U1686 2.984 . S
C1689 O1687 1.353 . S
C1689 O1688 1.286 . S
C1689 C1691 1.363 . S
C1690 C1680 1.465 . S
C1690 U1686 2.847 . S
C1690 O1704 1.249 . S
C1690 O1705 1.202 . S
C1691 C1689 1.363 . S
C1691 C1693 1.408 . S
C1691 C1696 1.342 . S
C1692 C1693 1.310 . S
C1692 C1695 1.461 . S
C1692 H1712 0.932 . S
C1693 C1691 1.408 . S
C1693 C1692 1.310 . S
C1693 H1713 0.930 . S
C1694 C1695 1.474 . S
C1694 C1696 1.285 . S
C1694 H1714 0.929 . S
C1695 C1692 1.461 . S
C1695 C1694 1.474 . S
C1696 C1691 1.342 . S
C1696 C1694 1.285 . S
C1696 H1715 0.930 . S
C1697 C1700 1.424 . S
C1697 C1702 1.245 . S
C1697 C1703 1.428 . S
C1698 C1701 1.260 . S
C1698 C1702 1.477 . S
C1698 H1716 0.932 . S
C1699 C1700 1.384 . S
C1699 C1701 1.479 . S
C1699 H1717 0.929 . S
C1700 C1697 1.424 . S
C1700 C1699 1.384 . S
C1700 H1718 0.928 . S
C1701 C1698 1.260 . S
C1701 C1699 1.479 . S
C1702 C1697 1.245 . S
C1702 C1698 1.477 . S
C1702 H1719 0.932 . S
C1703 U1686 2.882 . S
C1703 C1697 1.428 . S
C1703 O1706 1.301 . S
C1703 O1707 1.282 . S
O1704 U1686 2.441 . S
O1704 C1690 1.249 . S
O1705 U1686 2.420 . S
O1705 C1690 1.202 . S
O1706 U1686 2.455 . S
O1706 C1703 1.301 . S
O1707 U1686 2.449 . S
O1707 C1703 1.282 . S
H1708 C1681 0.931 . S
H1709 C1683 0.929 . S
H1710 C1684 0.930 . S
H1711 C1685 0.931 . S
H1712 C1692 0.932 . S
H1713 C1693 0.930 . S
H1714 C1694 0.929 . S
H1715 C1696 0.930 . S
H1716 C1698 0.932 . S
H1717 C1699 0.929 . S
H1718 C1700 0.928 . S
H1719 C1702 0.932 . S
C1720 C1721 1.264 . S
C1720 C1725 1.479 . S
C1720 C1730 1.465 . S
C1721 C1720 1.264 . S
C1721 C1723 1.339 . S
C1721 H1748 0.931 . S
C1722 C1723 1.395 . S
C1722 C1724 1.320 . S
C1723 C1721 1.339 . S
C1723 C1722 1.395 . S
C1723 H1749 0.929 . S
C1724 C1722 1.320 . S
C1724 C1725 1.405 . S
C1724 H1750 0.930 . S
C1725 C1720 1.479 . S
C1725 C1724 1.405 . S
C1725 H1751 0.931 . S
U1726 O1727 2.454 . S
U1726 O1728 2.458 . S
U1726 C1729 2.984 . S
U1726 C1730 2.847 . S
U1726 C1743 2.882 . S
U1726 O1744 2.441 . S
U1726 O1745 2.420 . S
U1726 O1746 2.455 . S
U1726 O1747 2.449 . S
O1727 U1726 2.454 . S
O1727 C1729 1.353 . S
O1728 U1726 2.458 . S
O1728 C1729 1.286 . S
C1729 U1726 2.984 . S
C1729 O1727 1.353 . S
C1729 O1728 1.286 . S
C1729 C1731 1.363 . S
C1730 C1720 1.465 . S
C1730 U1726 2.847 . S
C1730 O1744 1.249 . S
C1730 O1745 1.202 . S
C1731 C1729 1.363 . S
C1731 C1733 1.408 . S
C1731 C1736 1.342 . S
C1732 C1733 1.310 . S
C1732 C1735 1.461 . S
C1732 H1752 0.932 . S
C1733 C1731 1.408 . S
C1733 C1732 1.310 . S
C1733 H1753 0.930 . S
C1734 C1735 1.474 . S
C1734 C1736 1.285 . S
C1734 H1754 0.929 . S
C1735 C1732 1.461 . S
C1735 C1734 1.474 . S
C1736 C1731 1.342 . S
C1736 C1734 1.285 . S
C1736 H1755 0.930 . S
C1737 C1740 1.424 . S
C1737 C1742 1.245 . S
C1737 C1743 1.428 . S
C1738 C1741 1.260 . S
C1738 C1742 1.477 . S
C1738 H1756 0.932 . S
C1739 C1740 1.384 . S
C1739 C1741 1.479 . S
C1739 H1757 0.929 . S
C1740 C1737 1.424 . S
C1740 C1739 1.384 . S
C1740 H1758 0.928 . S
C1741 C1738 1.260 . S
C1741 C1739 1.479 . S
C1742 C1737 1.245 . S
C1742 C1738 1.477 . S
C1742 H1759 0.932 . S
C1743 U1726 2.882 . S
C1743 C1737 1.428 . S
C1743 O1746 1.301 . S
C1743 O1747 1.282 . S
O1744 U1726 2.441 . S
O1744 C1730 1.249 . S
O1745 U1726 2.420 . S
O1745 C1730 1.202 . S
O1746 U1726 2.455 . S
O1746 C1743 1.301 . S
O1747 U1726 2.449 . S
O1747 C1743 1.282 . S
H1748 C1721 0.931 . S
H1749 C1723 0.929 . S
H1750 C1724 0.930 . S
H1751 C1725 0.931 . S
H1752 C1732 0.932 . S
H1753 C1733 0.930 . S
H1754 C1734 0.929 . S
H1755 C1736 0.930 . S
H1756 C1738 0.932 . S
H1757 C1739 0.929 . S
H1758 C1740 0.928 . S
H1759 C1742 0.932 . S
C1760 C1761 1.264 . S
C1760 C1765 1.479 . S
C1760 C1770 1.465 . S
C1761 C1760 1.264 . S
C1761 C1763 1.339 . S
C1761 H1788 0.931 . S
C1762 C1763 1.395 . S
C1762 C1764 1.320 . S
C1763 C1761 1.339 . S
C1763 C1762 1.395 . S
C1763 H1789 0.929 . S
C1764 C1762 1.320 . S
C1764 C1765 1.405 . S
C1764 H1790 0.930 . S
C1765 C1760 1.479 . S
C1765 C1764 1.405 . S
C1765 H1791 0.931 . S
U1766 O1767 2.454 . S
U1766 O1768 2.458 . S
U1766 C1769 2.984 . S
U1766 C1770 2.847 . S
U1766 C1783 2.882 . S
U1766 O1784 2.441 . S
U1766 O1785 2.420 . S
U1766 O1786 2.455 . S
U1766 O1787 2.449 . S
O1767 U1766 2.454 . S
O1767 C1769 1.353 . S
O1768 U1766 2.458 . S
O1768 C1769 1.286 . S
C1769 U1766 2.984 . S
C1769 O1767 1.353 . S
C1769 O1768 1.286 . S
C1769 C1771 1.363 . S
C1770 C1760 1.465 . S
C1770 U1766 2.847 . S
C1770 O1784 1.249 . S
C1770 O1785 1.202 . S
C1771 C1769 1.363 . S
C1771 C1773 1.408 . S
C1771 C1776 1.342 . S
C1772 C1773 1.310 . S
C1772 C1775 1.461 . S
C1772 H1792 0.932 . S
C1773 C1771 1.408 . S
C1773 C1772 1.310 . S
C1773 H1793 0.930 . S
C1774 C1775 1.474 . S
C1774 C1776 1.285 . S
C1774 H1794 0.929 . S
C1775 C1772 1.461 . S
C1775 C1774 1.474 . S
C1776 C1771 1.342 . S
C1776 C1774 1.285 . S
C1776 H1795 0.930 . S
C1777 C1780 1.424 . S
C1777 C1782 1.245 . S
C1777 C1783 1.428 . S
C1778 C1781 1.260 . S
C1778 C1782 1.477 . S
C1778 H1796 0.932 . S
C1779 C1780 1.384 . S
C1779 C1781 1.479 . S
C1779 H1797 0.929 . S
C1780 C1777 1.424 . S
C1780 C1779 1.384 . S
C1780 H1798 0.928 . S
C1781 C1778 1.260 . S
C1781 C1779 1.479 . S
C1782 C1777 1.245 . S
C1782 C1778 1.477 . S
C1782 H1799 0.932 . S
C1783 U1766 2.882 . S
C1783 C1777 1.428 . S
C1783 O1786 1.301 . S
C1783 O1787 1.282 . S
O1784 U1766 2.441 . S
O1784 C1770 1.249 . S
O1785 U1766 2.420 . S
O1785 C1770 1.202 . S
O1786 U1766 2.455 . S
O1786 C1783 1.301 . S
O1787 U1766 2.449 . S
O1787 C1783 1.282 . S
H1788 C1761 0.931 . S
H1789 C1763 0.929 . S
H1790 C1764 0.930 . S
H1791 C1765 0.931 . S
H1792 C1772 0.932 . S
H1793 C1773 0.930 . S
H1794 C1774 0.929 . S
H1795 C1776 0.930 . S
H1796 C1778 0.932 . S
H1797 C1779 0.929 . S
H1798 C1780 0.928 . S
H1799 C1782 0.932 . S
C1800 C1801 1.264 . S
C1800 C1805 1.479 . S
C1800 C1810 1.465 . S
C1801 C1800 1.264 . S
C1801 C1803 1.339 . S
C1801 H1828 0.931 . S
C1802 C1803 1.395 . S
C1802 C1804 1.320 . S
C1803 C1801 1.339 . S
C1803 C1802 1.395 . S
C1803 H1829 0.929 . S
C1804 C1802 1.320 . S
C1804 C1805 1.405 . S
C1804 H1830 0.930 . S
C1805 C1800 1.479 . S
C1805 C1804 1.405 . S
C1805 H1831 0.931 . S
U1806 O1807 2.454 . S
U1806 O1808 2.458 . S
U1806 C1809 2.984 . S
U1806 C1810 2.847 . S
U1806 C1823 2.882 . S
U1806 O1824 2.441 . S
U1806 O1825 2.420 . S
U1806 O1826 2.455 . S
U1806 O1827 2.449 . S
O1807 U1806 2.454 . S
O1807 C1809 1.353 . S
O1808 U1806 2.458 . S
O1808 C1809 1.286 . S
C1809 U1806 2.984 . S
C1809 O1807 1.353 . S
C1809 O1808 1.286 . S
C1809 C1811 1.363 . S
C1810 C1800 1.465 . S
C1810 U1806 2.847 . S
C1810 O1824 1.249 . S
C1810 O1825 1.202 . S
C1811 C1809 1.363 . S
C1811 C1813 1.408 . S
C1811 C1816 1.342 . S
C1812 C1813 1.310 . S
C1812 C1815 1.461 . S
C1812 H1832 0.932 . S
C1813 C1811 1.408 . S
C1813 C1812 1.310 . S
C1813 H1833 0.930 . S
C1814 C1815 1.474 . S
C1814 C1816 1.285 . S
C1814 H1834 0.929 . S
C1815 C1812 1.461 . S
C1815 C1814 1.474 . S
C1816 C1811 1.342 . S
C1816 C1814 1.285 . S
C1816 H1835 0.930 . S
C1817 C1820 1.424 . S
C1817 C1822 1.245 . S
C1817 C1823 1.428 . S
C1818 C1821 1.260 . S
C1818 C1822 1.477 . S
C1818 H1836 0.932 . S
C1819 C1820 1.384 . S
C1819 C1821 1.479 . S
C1819 H1837 0.929 . S
C1820 C1817 1.424 . S
C1820 C1819 1.384 . S
C1820 H1838 0.928 . S
C1821 C1818 1.260 . S
C1821 C1819 1.479 . S
C1822 C1817 1.245 . S
C1822 C1818 1.477 . S
C1822 H1839 0.932 . S
C1823 U1806 2.882 . S
C1823 C1817 1.428 . S
C1823 O1826 1.301 . S
C1823 O1827 1.282 . S
O1824 U1806 2.441 . S
O1824 C1810 1.249 . S
O1825 U1806 2.420 . S
O1825 C1810 1.202 . S
O1826 U1806 2.455 . S
O1826 C1823 1.301 . S
O1827 U1806 2.449 . S
O1827 C1823 1.282 . S
H1828 C1801 0.931 . S
H1829 C1803 0.929 . S
H1830 C1804 0.930 . S
H1831 C1805 0.931 . S
H1832 C1812 0.932 . S
H1833 C1813 0.930 . S
H1834 C1814 0.929 . S
H1835 C1816 0.930 . S
H1836 C1818 0.932 . S
H1837 C1819 0.929 . S
H1838 C1820 0.928 . S
H1839 C1822 0.932 . S
C1840 C1841 1.264 . S
C1840 C1845 1.479 . S
C1840 C1850 1.465 . S
C1841 C1840 1.264 . S
C1841 C1843 1.339 . S
C1841 H1868 0.931 . S
C1842 C1843 1.395 . S
C1842 C1844 1.320 . S
C1843 C1841 1.339 . S
C1843 C1842 1.395 . S
C1843 H1869 0.929 . S
C1844 C1842 1.320 . S
C1844 C1845 1.405 . S
C1844 H1870 0.930 . S
C1845 C1840 1.479 . S
C1845 C1844 1.405 . S
C1845 H1871 0.931 . S
U1846 O1847 2.454 . S
U1846 O1848 2.458 . S
U1846 C1849 2.984 . S
U1846 C1850 2.847 . S
U1846 C1863 2.882 . S
U1846 O1864 2.441 . S
U1846 O1865 2.420 . S
U1846 O1866 2.455 . S
U1846 O1867 2.449 . S
O1847 U1846 2.454 . S
O1847 C1849 1.353 . S
O1848 U1846 2.458 . S
O1848 C1849 1.286 . S
C1849 U1846 2.984 . S
C1849 O1847 1.353 . S
C1849 O1848 1.286 . S
C1849 C1851 1.363 . S
C1850 C1840 1.465 . S
C1850 U1846 2.847 . S
C1850 O1864 1.249 . S
C1850 O1865 1.202 . S
C1851 C1849 1.363 . S
C1851 C1853 1.408 . S
C1851 C1856 1.342 . S
C1852 C1853 1.310 . S
C1852 C1855 1.461 . S
C1852 H1872 0.932 . S
C1853 C1851 1.408 . S
C1853 C1852 1.310 . S
C1853 H1873 0.930 . S
C1854 C1855 1.474 . S
C1854 C1856 1.285 . S
C1854 H1874 0.929 . S
C1855 C1852 1.461 . S
C1855 C1854 1.474 . S
C1856 C1851 1.342 . S
C1856 C1854 1.285 . S
C1856 H1875 0.930 . S
C1857 C1860 1.424 . S
C1857 C1862 1.245 . S
C1857 C1863 1.428 . S
C1858 C1861 1.260 . S
C1858 C1862 1.477 . S
C1858 H1876 0.932 . S
C1859 C1860 1.384 . S
C1859 C1861 1.479 . S
C1859 H1877 0.929 . S
C1860 C1857 1.424 . S
C1860 C1859 1.384 . S
C1860 H1878 0.928 . S
C1861 C1858 1.260 . S
C1861 C1859 1.479 . S
C1862 C1857 1.245 . S
C1862 C1858 1.477 . S
C1862 H1879 0.932 . S
C1863 U1846 2.882 . S
C1863 C1857 1.428 . S
C1863 O1866 1.301 . S
C1863 O1867 1.282 . S
O1864 U1846 2.441 . S
O1864 C1850 1.249 . S
O1865 U1846 2.420 . S
O1865 C1850 1.202 . S
O1866 U1846 2.455 . S
O1866 C1863 1.301 . S
O1867 U1846 2.449 . S
O1867 C1863 1.282 . S
H1868 C1841 0.931 . S
H1869 C1843 0.929 . S
H1870 C1844 0.930 . S
H1871 C1845 0.931 . S
H1872 C1852 0.932 . S
H1873 C1853 0.930 . S
H1874 C1854 0.929 . S
H1875 C1856 0.930 . S
H1876 C1858 0.932 . S
H1877 C1859 0.929 . S
H1878 C1860 0.928 . S
H1879 C1862 0.932 . S
C1880 C1881 1.264 . S
C1880 C1885 1.479 . S
C1880 C1890 1.465 . S
C1881 C1880 1.264 . S
C1881 C1883 1.339 . S
C1881 H1908 0.931 . S
C1882 C1883 1.395 . S
C1882 C1884 1.320 . S
C1883 C1881 1.339 . S
C1883 C1882 1.395 . S
C1883 H1909 0.929 . S
C1884 C1882 1.320 . S
C1884 C1885 1.405 . S
C1884 H1910 0.930 . S
C1885 C1880 1.479 . S
C1885 C1884 1.405 . S
C1885 H1911 0.931 . S
U1886 O1887 2.454 . S
U1886 O1888 2.458 . S
U1886 C1889 2.984 . S
U1886 C1890 2.847 . S
U1886 C1903 2.882 . S
U1886 O1904 2.441 . S
U1886 O1905 2.420 . S
U1886 O1906 2.455 . S
U1886 O1907 2.449 . S
O1887 U1886 2.454 . S
O1887 C1889 1.353 . S
O1888 U1886 2.458 . S
O1888 C1889 1.286 . S
C1889 U1886 2.984 . S
C1889 O1887 1.353 . S
C1889 O1888 1.286 . S
C1889 C1891 1.363 . S
C1890 C1880 1.465 . S
C1890 U1886 2.847 . S
C1890 O1904 1.249 . S
C1890 O1905 1.202 . S
C1891 C1889 1.363 . S
C1891 C1893 1.408 . S
C1891 C1896 1.342 . S
C1892 C1893 1.310 . S
C1892 C1895 1.461 . S
C1892 H1912 0.932 . S
C1893 C1891 1.408 . S
C1893 C1892 1.310 . S
C1893 H1913 0.930 . S
C1894 C1895 1.474 . S
C1894 C1896 1.285 . S
C1894 H1914 0.929 . S
C1895 C1892 1.461 . S
C1895 C1894 1.474 . S
C1896 C1891 1.342 . S
C1896 C1894 1.285 . S
C1896 H1915 0.930 . S
C1897 C1900 1.424 . S
C1897 C1902 1.245 . S
C1897 C1903 1.428 . S
C1898 C1901 1.260 . S
C1898 C1902 1.477 . S
C1898 H1916 0.932 . S
C1899 C1900 1.384 . S
C1899 C1901 1.479 . S
C1899 H1917 0.929 . S
C1900 C1897 1.424 . S
C1900 C1899 1.384 . S
C1900 H1918 0.928 . S
C1901 C1898 1.260 . S
C1901 C1899 1.479 . S
C1902 C1897 1.245 . S
C1902 C1898 1.477 . S
C1902 H1919 0.932 . S
C1903 U1886 2.882 . S
C1903 C1897 1.428 . S
C1903 O1906 1.301 . S
C1903 O1907 1.282 . S
O1904 U1886 2.441 . S
O1904 C1890 1.249 . S
O1905 U1886 2.420 . S
O1905 C1890 1.202 . S
O1906 U1886 2.455 . S
O1906 C1903 1.301 . S
O1907 U1886 2.449 . S
O1907 C1903 1.282 . S
H1908 C1881 0.931 . S
H1909 C1883 0.929 . S
H1910 C1884 0.930 . S
H1911 C1885 0.931 . S
H1912 C1892 0.932 . S
H1913 C1893 0.930 . S
H1914 C1894 0.929 . S
H1915 C1896 0.930 . S
H1916 C1898 0.932 . S
H1917 C1899 0.929 . S
H1918 C1900 0.928 . S
H1919 C1902 0.932 . S
C1920 C1921 1.387 . S
C1920 H1924 0.950 . S
C1920 C1929 1.390 1_655 S
C1921 C1920 1.387 . S
C1921 C1923 1.387 . S
H1922 C1929 0.950 . S
C1923 C1921 1.387 . S
C1923 C1925 1.390 1_655 S
C1923 H1927 0.950 . S
H1924 C1920 0.950 . S
C1925 C1923 1.390 1_455 S
C1925 C1926 1.387 . S
C1925 H1928 0.950 . S
C1926 C1925 1.387 . S
C1926 C1929 1.387 . S
H1927 C1923 0.950 . S
H1928 C1925 0.950 . S
C1929 C1920 1.390 1_455 S
C1929 H1922 0.950 . S
C1929 C1926 1.387 . S
C1930 C1931 1.387 . S
C1930 H1934 0.950 . S
C1930 C1939 1.390 1_545 S
C1931 C1930 1.387 . S
C1931 C1933 1.387 . S
H1932 C1939 0.950 . S
C1933 C1931 1.387 . S
C1933 C1935 1.390 1_545 S
C1933 H1937 0.950 . S
H1934 C1930 0.950 . S
C1935 C1933 1.390 1_565 S
C1935 C1936 1.387 . S
C1935 H1938 0.950 . S
C1936 C1935 1.387 . S
C1936 C1939 1.387 . S
H1937 C1933 0.950 . S
H1938 C1935 0.950 . S
C1939 C1930 1.390 1_565 S
C1939 H1932 0.950 . S
C1939 C1936 1.387 . S
C1940 C1941 1.387 . S
C1940 H1944 0.950 . S
C1940 C1949 1.390 1_655 S
C1941 C1940 1.387 . S
C1941 C1943 1.387 . S
H1942 C1949 0.950 . S
C1943 C1941 1.387 . S
C1943 C1945 1.390 1_655 S
C1943 H1947 0.950 . S
H1944 C1940 0.950 . S
C1945 C1943 1.390 1_455 S
C1945 C1946 1.387 . S
C1945 H1948 0.950 . S
C1946 C1945 1.387 . S
C1946 C1949 1.387 . S
H1947 C1943 0.950 . S
H1948 C1945 0.950 . S
C1949 C1940 1.390 1_455 S
C1949 H1942 0.950 . S
C1949 C1946 1.387 . S
C1950 C1951 1.387 . S
C1950 H1954 0.950 . S
C1950 C1959 1.390 1_545 S
C1951 C1950 1.387 . S
C1951 C1953 1.387 . S
H1952 C1959 0.950 . S
C1953 C1951 1.387 . S
C1953 C1955 1.390 1_545 S
C1953 H1957 0.950 . S
H1954 C1950 0.950 . S
C1955 C1953 1.390 1_565 S
C1955 C1956 1.387 . S
C1955 H1958 0.950 . S
C1956 C1955 1.387 . S
C1956 C1959 1.387 . S
H1957 C1953 0.950 . S
H1958 C1955 0.950 . S
C1959 C1950 1.390 1_565 S
C1959 H1952 0.950 . S
C1959 C1956 1.387 . S
C1960 C1961 1.387 . S
C1960 H1964 0.950 . S
C1960 C1969 1.390 1_565 S
C1961 C1960 1.387 . S
C1961 C1963 1.387 . S
H1962 C1969 0.950 . S
C1963 C1961 1.387 . S
C1963 C1965 1.390 1_565 S
C1963 H1967 0.950 . S
H1964 C1960 0.950 . S
C1965 C1963 1.390 1_545 S
C1965 C1966 1.387 . S
C1965 H1968 0.950 . S
C1966 C1965 1.387 . S
C1966 C1969 1.387 . S
H1967 C1963 0.950 . S
H1968 C1965 0.950 . S
C1969 C1960 1.390 1_545 S
C1969 H1962 0.950 . S
C1969 C1966 1.387 . S
C1970 C1971 1.387 . S
C1970 H1974 0.950 . S
C1970 C1979 1.390 1_455 S
C1971 C1970 1.387 . S
C1971 C1973 1.387 . S
H1972 C1979 0.950 . S
C1973 C1971 1.387 . S
C1973 C1975 1.390 1_455 S
C1973 H1977 0.950 . S
H1974 C1970 0.950 . S
C1975 C1973 1.390 1_655 S
C1975 C1976 1.387 . S
C1975 H1978 0.950 . S
C1976 C1975 1.387 . S
C1976 C1979 1.387 . S
H1977 C1973 0.950 . S
H1978 C1975 0.950 . S
C1979 C1970 1.390 1_655 S
C1979 H1972 0.950 . S
C1979 C1976 1.387 . S
C1980 C1981 1.387 . S
C1980 H1984 0.950 . S
C1980 C1989 1.390 1_565 S
C1981 C1980 1.387 . S
C1981 C1983 1.387 . S
H1982 C1989 0.950 . S
C1983 C1981 1.387 . S
C1983 C1985 1.390 1_565 S
C1983 H1987 0.950 . S
H1984 C1980 0.950 . S
C1985 C1983 1.390 1_545 S
C1985 C1986 1.387 . S
C1985 H1988 0.950 . S
C1986 C1985 1.387 . S
C1986 C1989 1.387 . S
H1987 C1983 0.950 . S
H1988 C1985 0.950 . S
C1989 C1980 1.390 1_545 S
C1989 H1982 0.950 . S
C1989 C1986 1.387 . S
C1990 C1991 1.387 . S
C1990 H1994 0.950 . S
C1990 C1999 1.390 1_455 S
C1991 C1990 1.387 . S
C1991 C1993 1.387 . S
H1992 C1999 0.950 . S
C1993 C1991 1.387 . S
C1993 C1995 1.390 1_455 S
C1993 H1997 0.950 . S
H1994 C1990 0.950 . S
C1995 C1993 1.390 1_655 S
C1995 C1996 1.387 . S
C1995 H1998 0.950 . S
C1996 C1995 1.387 . S
C1996 C1999 1.387 . S
H1997 C1993 0.950 . S
H1998 C1995 0.950 . S
C1999 C1990 1.390 1_655 S
C1999 H1992 0.950 . S
C1999 C1996 1.387 . S
C2000 C2001 1.387 . S
C2000 H2004 0.950 . S
C2000 C2009 1.390 1_556 S
C2001 C2000 1.387 . S
C2001 C2003 1.387 . S
H2002 C2009 0.950 . S
C2003 C2001 1.387 . S
C2003 C2005 1.390 1_556 S
C2003 H2007 0.950 . S
H2004 C2000 0.950 . S
C2005 C2003 1.390 1_554 S
C2005 C2006 1.387 . S
C2005 H2008 0.950 . S
C2006 C2005 1.387 . S
C2006 C2009 1.387 . S
H2007 C2003 0.950 . S
H2008 C2005 0.950 . S
C2009 C2000 1.390 1_554 S
C2009 H2002 0.950 . S
C2009 C2006 1.387 . S
C2010 C2011 1.387 . S
C2010 H2014 0.950 . S
C2010 C2019 1.390 1_556 S
C2011 C2010 1.387 . S
C2011 C2013 1.387 . S
H2012 C2019 0.950 . S
C2013 C2011 1.387 . S
C2013 C2015 1.390 1_556 S
C2013 H2017 0.950 . S
H2014 C2010 0.950 . S
C2015 C2013 1.390 1_554 S
C2015 C2016 1.387 . S
C2015 H2018 0.950 . S
C2016 C2015 1.387 . S
C2016 C2019 1.387 . S
H2017 C2013 0.950 . S
H2018 C2015 0.950 . S
C2019 C2010 1.390 1_554 S
C2019 H2012 0.950 . S
C2019 C2016 1.387 . S
C2020 C2021 1.387 . S
C2020 H2024 0.950 . S
C2020 C2029 1.390 1_554 S
C2021 C2020 1.387 . S
C2021 C2023 1.387 . S
H2022 C2029 0.950 . S
C2023 C2021 1.387 . S
C2023 C2025 1.390 1_554 S
C2023 H2027 0.950 . S
H2024 C2020 0.950 . S
C2025 C2023 1.390 1_556 S
C2025 C2026 1.387 . S
C2025 H2028 0.950 . S
C2026 C2025 1.387 . S
C2026 C2029 1.387 . S
H2027 C2023 0.950 . S
H2028 C2025 0.950 . S
C2029 C2020 1.390 1_556 S
C2029 H2022 0.950 . S
C2029 C2026 1.387 . S
C2030 C2031 1.387 . S
C2030 H2034 0.950 . S
C2030 C2039 1.390 1_554 S
C2031 C2030 1.387 . S
C2031 C2033 1.387 . S
H2032 C2039 0.950 . S
C2033 C2031 1.387 . S
C2033 C2035 1.390 1_554 S
C2033 H2037 0.950 . S
H2034 C2030 0.950 . S
C2035 C2033 1.390 1_556 S
C2035 C2036 1.387 . S
C2035 H2038 0.950 . S
C2036 C2035 1.387 . S
C2036 C2039 1.387 . S
H2037 C2033 0.950 . S
H2038 C2035 0.950 . S
C2039 C2030 1.390 1_556 S
C2039 H2032 0.950 . S
C2039 C2036 1.387 . S
C2040 C2041 1.387 . S
C2040 H2044 0.950 . S
C2040 C2049 1.390 1_565 S
C2041 C2040 1.387 . S
C2041 C2043 1.387 . S
H2042 C2049 0.950 . S
C2043 C2041 1.387 . S
C2043 C2045 1.390 1_565 S
C2043 H2047 0.950 . S
H2044 C2040 0.950 . S
C2045 C2043 1.390 1_545 S
C2045 C2046 1.387 . S
C2045 H2048 0.950 . S
C2046 C2045 1.387 . S
C2046 C2049 1.387 . S
H2047 C2043 0.950 . S
H2048 C2045 0.950 . S
C2049 C2040 1.390 1_545 S
C2049 H2042 0.950 . S
C2049 C2046 1.387 . S
C2050 C2051 1.387 . S
C2050 H2054 0.950 . S
C2050 C2059 1.390 1_455 S
C2051 C2050 1.387 . S
C2051 C2053 1.387 . S
H2052 C2059 0.950 . S
C2053 C2051 1.387 . S
C2053 C2055 1.390 1_455 S
C2053 H2057 0.950 . S
H2054 C2050 0.950 . S
C2055 C2053 1.390 1_655 S
C2055 C2056 1.387 . S
C2055 H2058 0.950 . S
C2056 C2055 1.387 . S
C2056 C2059 1.387 . S
H2057 C2053 0.950 . S
H2058 C2055 0.950 . S
C2059 C2050 1.390 1_655 S
C2059 H2052 0.950 . S
C2059 C2056 1.387 . S
C2060 C2061 1.387 . S
C2060 H2064 0.950 . S
C2060 C2069 1.390 1_565 S
C2061 C2060 1.387 . S
C2061 C2063 1.387 . S
H2062 C2069 0.950 . S
C2063 C2061 1.387 . S
C2063 C2065 1.390 1_565 S
C2063 H2067 0.950 . S
H2064 C2060 0.950 . S
C2065 C2063 1.390 1_545 S
C2065 C2066 1.387 . S
C2065 H2068 0.950 . S
C2066 C2065 1.387 . S
C2066 C2069 1.387 . S
H2067 C2063 0.950 . S
H2068 C2065 0.950 . S
C2069 C2060 1.390 1_545 S
C2069 H2062 0.950 . S
C2069 C2066 1.387 . S
C2070 C2071 1.387 . S
C2070 H2074 0.950 . S
C2070 C2079 1.390 1_455 S
C2071 C2070 1.387 . S
C2071 C2073 1.387 . S
H2072 C2079 0.950 . S
C2073 C2071 1.387 . S
C2073 C2075 1.390 1_455 S
C2073 H2077 0.950 . S
H2074 C2070 0.950 . S
C2075 C2073 1.390 1_655 S
C2075 C2076 1.387 . S
C2075 H2078 0.950 . S
C2076 C2075 1.387 . S
C2076 C2079 1.387 . S
H2077 C2073 0.950 . S
H2078 C2075 0.950 . S
C2079 C2070 1.390 1_655 S
C2079 H2072 0.950 . S
C2079 C2076 1.387 . S
C2080 C2081 1.387 . S
C2080 H2084 0.950 . S
C2080 C2089 1.390 1_556 S
C2081 C2080 1.387 . S
C2081 C2083 1.387 . S
H2082 C2089 0.950 . S
C2083 C2081 1.387 . S
C2083 C2085 1.390 1_556 S
C2083 H2087 0.950 . S
H2084 C2080 0.950 . S
C2085 C2083 1.390 1_554 S
C2085 C2086 1.387 . S
C2085 H2088 0.950 . S
C2086 C2085 1.387 . S
C2086 C2089 1.387 . S
H2087 C2083 0.950 . S
H2088 C2085 0.950 . S
C2089 C2080 1.390 1_554 S
C2089 H2082 0.950 . S
C2089 C2086 1.387 . S
C2090 C2091 1.387 . S
C2090 H2094 0.950 . S
C2090 C2099 1.390 1_556 S
C2091 C2090 1.387 . S
C2091 C2093 1.387 . S
H2092 C2099 0.950 . S
C2093 C2091 1.387 . S
C2093 C2095 1.390 1_556 S
C2093 H2097 0.950 . S
H2094 C2090 0.950 . S
C2095 C2093 1.390 1_554 S
C2095 C2096 1.387 . S
C2095 H2098 0.950 . S
C2096 C2095 1.387 . S
C2096 C2099 1.387 . S
H2097 C2093 0.950 . S
H2098 C2095 0.950 . S
C2099 C2090 1.390 1_554 S
C2099 H2092 0.950 . S
C2099 C2096 1.387 . S
C2100 C2101 1.387 . S
C2100 H2104 0.950 . S
C2100 C2109 1.390 1_556 S
C2101 C2100 1.387 . S
C2101 C2103 1.387 . S
H2102 C2109 0.950 . S
C2103 C2101 1.387 . S
C2103 C2105 1.390 1_556 S
C2103 H2107 0.950 . S
H2104 C2100 0.950 . S
C2105 C2103 1.390 1_554 S
C2105 C2106 1.387 . S
C2105 H2108 0.950 . S
C2106 C2105 1.387 . S
C2106 C2109 1.387 . S
H2107 C2103 0.950 . S
H2108 C2105 0.950 . S
C2109 C2100 1.390 1_554 S
C2109 H2102 0.950 . S
C2109 C2106 1.387 . S
C2110 C2111 1.387 . S
C2110 H2114 0.950 . S
C2110 C2119 1.390 1_554 S
C2111 C2110 1.387 . S
C2111 C2113 1.387 . S
H2112 C2119 0.950 . S
C2113 C2111 1.387 . S
C2113 C2115 1.390 1_554 S
C2113 H2117 0.950 . S
H2114 C2110 0.950 . S
C2115 C2113 1.390 1_556 S
C2115 C2116 1.387 . S
C2115 H2118 0.950 . S
C2116 C2115 1.387 . S
C2116 C2119 1.387 . S
H2117 C2113 0.950 . S
H2118 C2115 0.950 . S
C2119 C2110 1.390 1_556 S
C2119 H2112 0.950 . S
C2119 C2116 1.387 . S
C2120 C2121 1.387 . S
C2120 H2124 0.950 . S
C2120 C2129 1.390 1_455 S
C2121 C2120 1.387 . S
C2121 C2123 1.387 . S
H2122 C2129 0.950 . S
C2123 C2121 1.387 . S
C2123 C2125 1.390 1_455 S
C2123 H2127 0.950 . S
H2124 C2120 0.950 . S
C2125 C2123 1.390 1_655 S
C2125 C2126 1.387 . S
C2125 H2128 0.950 . S
C2126 C2125 1.387 . S
C2126 C2129 1.387 . S
H2127 C2123 0.950 . S
H2128 C2125 0.950 . S
C2129 C2120 1.390 1_655 S
C2129 H2122 0.950 . S
C2129 C2126 1.387 . S
C2130 C2131 1.387 . S
C2130 H2134 0.950 . S
C2130 C2139 1.390 1_455 S
C2131 C2130 1.387 . S
C2131 C2133 1.387 . S
H2132 C2139 0.950 . S
C2133 C2131 1.387 . S
C2133 C2135 1.390 1_455 S
C2133 H2137 0.950 . S
H2134 C2130 0.950 . S
C2135 C2133 1.390 1_655 S
C2135 C2136 1.387 . S
C2135 H2138 0.950 . S
C2136 C2135 1.387 . S
C2136 C2139 1.387 . S
H2137 C2133 0.950 . S
H2138 C2135 0.950 . S
C2139 C2130 1.390 1_655 S
C2139 H2132 0.950 . S
C2139 C2136 1.387 . S
C2140 C2141 1.387 . S
C2140 H2144 0.950 . S
C2140 C2149 1.390 1_545 S
C2141 C2140 1.387 . S
C2141 C2143 1.387 . S
H2142 C2149 0.950 . S
C2143 C2141 1.387 . S
C2143 C2145 1.390 1_545 S
C2143 H2147 0.950 . S
H2144 C2140 0.950 . S
C2145 C2143 1.390 1_565 S
C2145 C2146 1.387 . S
C2145 H2148 0.950 . S
C2146 C2145 1.387 . S
C2146 C2149 1.387 . S
H2147 C2143 0.950 . S
H2148 C2145 0.950 . S
C2149 C2140 1.390 1_565 S
C2149 H2142 0.950 . S
C2149 C2146 1.387 . S
C2150 C2151 1.387 . S
C2150 H2154 0.950 . S
C2150 C2159 1.390 1_565 S
C2151 C2150 1.387 . S
C2151 C2153 1.387 . S
H2152 C2159 0.950 . S
C2153 C2151 1.387 . S
C2153 C2155 1.390 1_565 S
C2153 H2157 0.950 . S
H2154 C2150 0.950 . S
C2155 C2153 1.390 1_545 S
C2155 C2156 1.387 . S
C2155 H2158 0.950 . S
C2156 C2155 1.387 . S
C2156 C2159 1.387 . S
H2157 C2153 0.950 . S
H2158 C2155 0.950 . S
C2159 C2150 1.390 1_545 S
C2159 H2152 0.950 . S
C2159 C2156 1.387 . S
C2160 C2161 1.387 . S
C2160 H2164 0.950 . S
C2160 C2169 1.390 . S
C2161 C2160 1.387 . S
C2161 C2163 1.387 . S
H2162 C2169 0.950 . S
C2163 C2161 1.387 . S
C2163 C2165 1.390 . S
C2163 H2167 0.950 . S
H2164 C2160 0.950 . S
C2165 C2163 1.390 . S
C2165 C2166 1.387 . S
C2165 H2168 0.950 . S
C2166 C2165 1.387 . S
C2166 C2169 1.387 . S
H2167 C2163 0.950 . S
H2168 C2165 0.950 . S
C2169 C2160 1.390 . S
C2169 H2162 0.950 . S
C2169 C2166 1.387 . S
C2170 C2171 1.387 . S
C2170 H2174 0.950 . S
C2170 C2179 1.390 . S
C2171 C2170 1.387 . S
C2171 C2173 1.387 . S
H2172 C2179 0.950 . S
C2173 C2171 1.387 . S
C2173 C2175 1.390 . S
C2173 H2177 0.950 . S
H2174 C2170 0.950 . S
C2175 C2173 1.390 . S
C2175 C2176 1.387 . S
C2175 H2178 0.950 . S
C2176 C2175 1.387 . S
C2176 C2179 1.387 . S
H2177 C2173 0.950 . S
H2178 C2175 0.950 . S
C2179 C2170 1.390 . S
C2179 H2172 0.950 . S
C2179 C2176 1.387 . S
C2180 C2181 1.387 . S
C2180 H2184 0.950 . S
C2180 C2189 1.390 . S
C2181 C2180 1.387 . S
C2181 C2183 1.387 . S
H2182 C2189 0.950 . S
C2183 C2181 1.387 . S
C2183 C2185 1.390 . S
C2183 H2187 0.950 . S
H2184 C2180 0.950 . S
C2185 C2183 1.390 . S
C2185 C2186 1.387 . S
C2185 H2188 0.950 . S
C2186 C2185 1.387 . S
C2186 C2189 1.387 . S
H2187 C2183 0.950 . S
H2188 C2185 0.950 . S
C2189 C2180 1.390 . S
C2189 H2182 0.950 . S
C2189 C2186 1.387 . S
C2190 C2191 1.387 . S
C2190 H2194 0.950 . S
C2190 C2199 1.390 . S
C2191 C2190 1.387 . S
C2191 C2193 1.387 . S
H2192 C2199 0.950 . S
C2193 C2191 1.387 . S
C2193 C2195 1.390 . S
C2193 H2197 0.950 . S
H2194 C2190 0.950 . S
C2195 C2193 1.390 . S
C2195 C2196 1.387 . S
C2195 H2198 0.950 . S
C2196 C2195 1.387 . S
C2196 C2199 1.387 . S
H2197 C2193 0.950 . S
H2198 C2195 0.950 . S
C2199 C2190 1.390 . S
C2199 H2192 0.950 . S
C2199 C2196 1.387 . S
C2200 C2201 1.387 . S
C2200 H2204 0.950 . S
C2200 C2209 1.390 . S
C2201 C2200 1.387 . S
C2201 C2203 1.387 . S
H2202 C2209 0.950 . S
C2203 C2201 1.387 . S
C2203 C2205 1.390 . S
C2203 H2207 0.950 . S
H2204 C2200 0.950 . S
C2205 C2203 1.390 . S
C2205 C2206 1.387 . S
C2205 H2208 0.950 . S
C2206 C2205 1.387 . S
C2206 C2209 1.387 . S
H2207 C2203 0.950 . S
H2208 C2205 0.950 . S
C2209 C2200 1.390 . S
C2209 H2202 0.950 . S
C2209 C2206 1.387 . S
C2210 C2211 1.387 . S
C2210 H2214 0.950 . S
C2210 C2219 1.390 . S
C2211 C2210 1.387 . S
C2211 C2213 1.387 . S
H2212 C2219 0.950 . S
C2213 C2211 1.387 . S
C2213 C2215 1.390 . S
C2213 H2217 0.950 . S
H2214 C2210 0.950 . S
C2215 C2213 1.390 . S
C2215 C2216 1.387 . S
C2215 H2218 0.950 . S
C2216 C2215 1.387 . S
C2216 C2219 1.387 . S
H2217 C2213 0.950 . S
H2218 C2215 0.950 . S
C2219 C2210 1.390 . S
C2219 H2212 0.950 . S
C2219 C2216 1.387 . S
C2220 C2221 1.387 . S
C2220 H2224 0.950 . S
C2220 C2229 1.390 . S
C2221 C2220 1.387 . S
C2221 C2223 1.387 . S
H2222 C2229 0.950 . S
C2223 C2221 1.387 . S
C2223 C2225 1.390 . S
C2223 H2227 0.950 . S
H2224 C2220 0.950 . S
C2225 C2223 1.390 . S
C2225 C2226 1.387 . S
C2225 H2228 0.950 . S
C2226 C2225 1.387 . S
C2226 C2229 1.387 . S
H2227 C2223 0.950 . S
H2228 C2225 0.950 . S
C2229 C2220 1.390 . S
C2229 H2222 0.950 . S
C2229 C2226 1.387 . S
C2230 C2231 1.387 . S
C2230 H2234 0.950 . S
C2230 C2239 1.390 . S
C2231 C2230 1.387 . S
C2231 C2233 1.387 . S
H2232 C2239 0.950 . S
C2233 C2231 1.387 . S
C2233 C2235 1.390 . S
C2233 H2237 0.950 . S
H2234 C2230 0.950 . S
C2235 C2233 1.390 . S
C2235 C2236 1.387 . S
C2235 H2238 0.950 . S
C2236 C2235 1.387 . S
C2236 C2239 1.387 . S
H2237 C2233 0.950 . S
H2238 C2235 0.950 . S
C2239 C2230 1.390 . S
C2239 H2232 0.950 . S
C2239 C2236 1.387 . S
C2240 C2241 1.387 . S
C2240 H2244 0.950 . S
C2240 C2249 1.390 . S
C2241 C2240 1.387 . S
C2241 C2243 1.387 . S
H2242 C2249 0.950 . S
C2243 C2241 1.387 . S
C2243 C2245 1.390 . S
C2243 H2247 0.950 . S
H2244 C2240 0.950 . S
C2245 C2243 1.390 . S
C2245 C2246 1.387 . S
C2245 H2248 0.950 . S
C2246 C2245 1.387 . S
C2246 C2249 1.387 . S
H2247 C2243 0.950 . S
H2248 C2245 0.950 . S
C2249 C2240 1.390 . S
C2249 H2242 0.950 . S
C2249 C2246 1.387 . S
C2250 C2251 1.387 . S
C2250 H2254 0.950 . S
C2250 C2259 1.390 . S
C2251 C2250 1.387 . S
C2251 C2253 1.387 . S
H2252 C2259 0.950 . S
C2253 C2251 1.387 . S
C2253 C2255 1.390 . S
C2253 H2257 0.950 . S
H2254 C2250 0.950 . S
C2255 C2253 1.390 . S
C2255 C2256 1.387 . S
C2255 H2258 0.950 . S
C2256 C2255 1.387 . S
C2256 C2259 1.387 . S
H2257 C2253 0.950 . S
H2258 C2255 0.950 . S
C2259 C2250 1.390 . S
C2259 H2252 0.950 . S
C2259 C2256 1.387 . S
C2260 C2261 1.387 . S
C2260 H2264 0.950 . S
C2260 C2269 1.390 . S
C2261 C2260 1.387 . S
C2261 C2263 1.387 . S
H2262 C2269 0.950 . S
C2263 C2261 1.387 . S
C2263 C2265 1.390 . S
C2263 H2267 0.950 . S
H2264 C2260 0.950 . S
C2265 C2263 1.390 . S
C2265 C2266 1.387 . S
C2265 H2268 0.950 . S
C2266 C2265 1.387 . S
C2266 C2269 1.387 . S
H2267 C2263 0.950 . S
H2268 C2265 0.950 . S
C2269 C2260 1.390 . S
C2269 H2262 0.950 . S
C2269 C2266 1.387 . S
C2270 C2271 1.387 . S
C2270 H2274 0.950 . S
C2270 C2279 1.390 . S
C2271 C2270 1.387 . S
C2271 C2273 1.387 . S
H2272 C2279 0.950 . S
C2273 C2271 1.387 . S
C2273 C2275 1.390 . S
C2273 H2277 0.950 . S
H2274 C2270 0.950 . S
C2275 C2273 1.390 . S
C2275 C2276 1.387 . S
C2275 H2278 0.950 . S
C2276 C2275 1.387 . S
C2276 C2279 1.387 . S
H2277 C2273 0.950 . S
H2278 C2275 0.950 . S
C2279 C2270 1.390 . S
C2279 H2272 0.950 . S
C2279 C2276 1.387 . S
C2280 C2281 1.387 . S
C2280 H2284 0.950 . S
C2280 C2289 1.390 . S
C2281 C2280 1.387 . S
C2281 C2283 1.387 . S
H2282 C2289 0.950 . S
C2283 C2281 1.387 . S
C2283 C2285 1.390 . S
C2283 H2287 0.950 . S
H2284 C2280 0.950 . S
C2285 C2283 1.390 . S
C2285 C2286 1.387 . S
C2285 H2288 0.950 . S
C2286 C2285 1.387 . S
C2286 C2289 1.387 . S
H2287 C2283 0.950 . S
H2288 C2285 0.950 . S
C2289 C2280 1.390 . S
C2289 H2282 0.950 . S
C2289 C2286 1.387 . S
C2290 C2291 1.387 . S
C2290 H2294 0.950 . S
C2290 C2299 1.390 . S
C2291 C2290 1.387 . S
C2291 C2293 1.387 . S
H2292 C2299 0.950 . S
C2293 C2291 1.387 . S
C2293 C2295 1.390 . S
C2293 H2297 0.950 . S
H2294 C2290 0.950 . S
C2295 C2293 1.390 . S
C2295 C2296 1.387 . S
C2295 H2298 0.950 . S
C2296 C2295 1.387 . S
C2296 C2299 1.387 . S
H2297 C2293 0.950 . S
H2298 C2295 0.950 . S
C2299 C2290 1.390 . S
C2299 H2292 0.950 . S
C2299 C2296 1.387 . S
C2300 C2301 1.387 . S
C2300 H2304 0.950 . S
C2300 C2309 1.390 . S
C2301 C2300 1.387 . S
C2301 C2303 1.387 . S
H2302 C2309 0.950 . S
C2303 C2301 1.387 . S
C2303 C2305 1.390 . S
C2303 H2307 0.950 . S
H2304 C2300 0.950 . S
C2305 C2303 1.390 . S
C2305 C2306 1.387 . S
C2305 H2308 0.950 . S
C2306 C2305 1.387 . S
C2306 C2309 1.387 . S
H2307 C2303 0.950 . S
H2308 C2305 0.950 . S
C2309 C2300 1.390 . S
C2309 H2302 0.950 . S
C2309 C2306 1.387 . S
C2310 C2311 1.387 . S
C2310 H2314 0.950 . S
C2310 C2319 1.390 . S
C2311 C2310 1.387 . S
C2311 C2313 1.387 . S
H2312 C2319 0.950 . S
C2313 C2311 1.387 . S
C2313 C2315 1.390 . S
C2313 H2317 0.950 . S
H2314 C2310 0.950 . S
C2315 C2313 1.390 . S
C2315 C2316 1.387 . S
C2315 H2318 0.950 . S
C2316 C2315 1.387 . S
C2316 C2319 1.387 . S
H2317 C2313 0.950 . S
H2318 C2315 0.950 . S
C2319 C2310 1.390 . S
C2319 H2312 0.950 . S
C2319 C2316 1.387 . S
C2320 C2321 1.387 . S
C2320 H2324 0.950 . S
C2320 C2329 1.390 . S
C2321 C2320 1.387 . S
C2321 C2323 1.387 . S
H2322 C2329 0.950 . S
C2323 C2321 1.387 . S
C2323 C2325 1.390 . S
C2323 H2327 0.950 . S
H2324 C2320 0.950 . S
C2325 C2323 1.390 . S
C2325 C2326 1.387 . S
C2325 H2328 0.950 . S
C2326 C2325 1.387 . S
C2326 C2329 1.387 . S
H2327 C2323 0.950 . S
H2328 C2325 0.950 . S
C2329 C2320 1.390 . S
C2329 H2322 0.950 . S
C2329 C2326 1.387 . S
C2330 C2331 1.387 . S
C2330 H2334 0.950 . S
C2330 C2339 1.390 . S
C2331 C2330 1.387 . S
C2331 C2333 1.387 . S
H2332 C2339 0.950 . S
C2333 C2331 1.387 . S
C2333 C2335 1.390 . S
C2333 H2337 0.950 . S
H2334 C2330 0.950 . S
C2335 C2333 1.390 . S
C2335 C2336 1.387 . S
C2335 H2338 0.950 . S
C2336 C2335 1.387 . S
C2336 C2339 1.387 . S
H2337 C2333 0.950 . S
H2338 C2335 0.950 . S
C2339 C2330 1.390 . S
C2339 H2332 0.950 . S
C2339 C2336 1.387 . S
C2340 C2341 1.387 . S
C2340 H2344 0.950 . S
C2340 C2349 1.390 . S
C2341 C2340 1.387 . S
C2341 C2343 1.387 . S
H2342 C2349 0.950 . S
C2343 C2341 1.387 . S
C2343 C2345 1.390 . S
C2343 H2347 0.950 . S
H2344 C2340 0.950 . S
C2345 C2343 1.390 . S
C2345 C2346 1.387 . S
C2345 H2348 0.950 . S
C2346 C2345 1.387 . S
C2346 C2349 1.387 . S
H2347 C2343 0.950 . S
H2348 C2345 0.950 . S
C2349 C2340 1.390 . S
C2349 H2342 0.950 . S
C2349 C2346 1.387 . S
C2350 C2351 1.387 . S
C2350 H2354 0.950 . S
C2350 C2359 1.390 . S
C2351 C2350 1.387 . S
C2351 C2353 1.387 . S
H2352 C2359 0.950 . S
C2353 C2351 1.387 . S
C2353 C2355 1.390 . S
C2353 H2357 0.950 . S
H2354 C2350 0.950 . S
C2355 C2353 1.390 . S
C2355 C2356 1.387 . S
C2355 H2358 0.950 . S
C2356 C2355 1.387 . S
C2356 C2359 1.387 . S
H2357 C2353 0.950 . S
H2358 C2355 0.950 . S
C2359 C2350 1.390 . S
C2359 H2352 0.950 . S
C2359 C2356 1.387 . S
C2360 C2361 1.387 . S
C2360 H2364 0.950 . S
C2360 C2369 1.390 . S
C2361 C2360 1.387 . S
C2361 C2363 1.387 . S
H2362 C2369 0.950 . S
C2363 C2361 1.387 . S
C2363 C2365 1.390 . S
C2363 H2367 0.950 . S
H2364 C2360 0.950 . S
C2365 C2363 1.390 . S
C2365 C2366 1.387 . S
C2365 H2368 0.950 . S
C2366 C2365 1.387 . S
C2366 C2369 1.387 . S
H2367 C2363 0.950 . S
H2368 C2365 0.950 . S
C2369 C2360 1.390 . S
C2369 H2362 0.950 . S
C2369 C2366 1.387 . S
C2370 C2371 1.387 . S
C2370 H2374 0.950 . S
C2370 C2379 1.390 . S
C2371 C2370 1.387 . S
C2371 C2373 1.387 . S
H2372 C2379 0.950 . S
C2373 C2371 1.387 . S
C2373 C2375 1.390 . S
C2373 H2377 0.950 . S
H2374 C2370 0.950 . S
C2375 C2373 1.390 . S
C2375 C2376 1.387 . S
C2375 H2378 0.950 . S
C2376 C2375 1.387 . S
C2376 C2379 1.387 . S
H2377 C2373 0.950 . S
H2378 C2375 0.950 . S
C2379 C2370 1.390 . S
C2379 H2372 0.950 . S
C2379 C2376 1.387 . S
C2380 C2381 1.387 . S
C2380 H2384 0.950 . S
C2380 C2389 1.390 . S
C2381 C2380 1.387 . S
C2381 C2383 1.387 . S
H2382 C2389 0.950 . S
C2383 C2381 1.387 . S
C2383 C2385 1.390 . S
C2383 H2387 0.950 . S
H2384 C2380 0.950 . S
C2385 C2383 1.390 . S
C2385 C2386 1.387 . S
C2385 H2388 0.950 . S
C2386 C2385 1.387 . S
C2386 C2389 1.387 . S
H2387 C2383 0.950 . S
H2388 C2385 0.950 . S
C2389 C2380 1.390 . S
C2389 H2382 0.950 . S
C2389 C2386 1.387 . S
C2390 C2391 1.387 . S
C2390 H2394 0.950 . S
C2390 C2399 1.390 . S
C2391 C2390 1.387 . S
C2391 C2393 1.387 . S
H2392 C2399 0.950 . S
C2393 C2391 1.387 . S
C2393 C2395 1.390 . S
C2393 H2397 0.950 . S
H2394 C2390 0.950 . S
C2395 C2393 1.390 . S
C2395 C2396 1.387 . S
C2395 H2398 0.950 . S
C2396 C2395 1.387 . S
C2396 C2399 1.387 . S
H2397 C2393 0.950 . S
H2398 C2395 0.950 . S
C2399 C2390 1.390 . S
C2399 H2392 0.950 . S
C2399 C2396 1.387 . S
C2400 C2401 1.387 . S
C2400 H2404 0.950 . S
C2400 C2409 1.390 . S
C2401 C2400 1.387 . S
C2401 C2403 1.387 . S
H2402 C2409 0.950 . S
C2403 C2401 1.387 . S
C2403 C2405 1.390 . S
C2403 H2407 0.950 . S
H2404 C2400 0.950 . S
C2405 C2403 1.390 . S
C2405 C2406 1.387 . S
C2405 H2408 0.950 . S
C2406 C2405 1.387 . S
C2406 C2409 1.387 . S
H2407 C2403 0.950 . S
H2408 C2405 0.950 . S
C2409 C2400 1.390 . S
C2409 H2402 0.950 . S
C2409 C2406 1.387 . S
C2410 C2411 1.387 . S
C2410 H2414 0.950 . S
C2410 C2419 1.390 . S
C2411 C2410 1.387 . S
C2411 C2413 1.387 . S
H2412 C2419 0.950 . S
C2413 C2411 1.387 . S
C2413 C2415 1.390 . S
C2413 H2417 0.950 . S
H2414 C2410 0.950 . S
C2415 C2413 1.390 . S
C2415 C2416 1.387 . S
C2415 H2418 0.950 . S
C2416 C2415 1.387 . S
C2416 C2419 1.387 . S
H2417 C2413 0.950 . S
H2418 C2415 0.950 . S
C2419 C2410 1.390 . S
C2419 H2412 0.950 . S
C2419 C2416 1.387 . S
C2420 C2421 1.387 . S
C2420 H2424 0.950 . S
C2420 C2429 1.390 . S
C2421 C2420 1.387 . S
C2421 C2423 1.387 . S
H2422 C2429 0.950 . S
C2423 C2421 1.387 . S
C2423 C2425 1.390 . S
C2423 H2427 0.950 . S
H2424 C2420 0.950 . S
C2425 C2423 1.390 . S
C2425 C2426 1.387 . S
C2425 H2428 0.950 . S
C2426 C2425 1.387 . S
C2426 C2429 1.387 . S
H2427 C2423 0.950 . S
H2428 C2425 0.950 . S
C2429 C2420 1.390 . S
C2429 H2422 0.950 . S
C2429 C2426 1.387 . S
C2430 C2431 1.387 . S
C2430 H2434 0.950 . S
C2430 C2439 1.390 . S
C2431 C2430 1.387 . S
C2431 C2433 1.387 . S
H2432 C2439 0.950 . S
C2433 C2431 1.387 . S
C2433 C2435 1.390 . S
C2433 H2437 0.950 . S
H2434 C2430 0.950 . S
C2435 C2433 1.390 . S
C2435 C2436 1.387 . S
C2435 H2438 0.950 . S
C2436 C2435 1.387 . S
C2436 C2439 1.387 . S
H2437 C2433 0.950 . S
H2438 C2435 0.950 . S
C2439 C2430 1.390 . S
C2439 H2432 0.950 . S
C2439 C2436 1.387 . S
C2440 C2441 1.387 . S
C2440 H2444 0.950 . S
C2440 C2449 1.390 . S
C2441 C2440 1.387 . S
C2441 C2443 1.387 . S
H2442 C2449 0.950 . S
C2443 C2441 1.387 . S
C2443 C2445 1.390 . S
C2443 H2447 0.950 . S
H2444 C2440 0.950 . S
C2445 C2443 1.390 . S
C2445 C2446 1.387 . S
C2445 H2448 0.950 . S
C2446 C2445 1.387 . S
C2446 C2449 1.387 . S
H2447 C2443 0.950 . S
H2448 C2445 0.950 . S
C2449 C2440 1.390 . S
C2449 H2442 0.950 . S
C2449 C2446 1.387 . S
C2450 C2451 1.387 . S
C2450 H2454 0.950 . S
C2450 C2459 1.390 . S
C2451 C2450 1.387 . S
C2451 C2453 1.387 . S
H2452 C2459 0.950 . S
C2453 C2451 1.387 . S
C2453 C2455 1.390 . S
C2453 H2457 0.950 . S
H2454 C2450 0.950 . S
C2455 C2453 1.390 . S
C2455 C2456 1.387 . S
C2455 H2458 0.950 . S
C2456 C2455 1.387 . S
C2456 C2459 1.387 . S
H2457 C2453 0.950 . S
H2458 C2455 0.950 . S
C2459 C2450 1.390 . S
C2459 H2452 0.950 . S
C2459 C2456 1.387 . S
C2460 C2461 1.387 . S
C2460 H2464 0.950 . S
C2460 C2469 1.390 . S
C2461 C2460 1.387 . S
C2461 C2463 1.387 . S
H2462 C2469 0.950 . S
C2463 C2461 1.387 . S
C2463 C2465 1.390 . S
C2463 H2467 0.950 . S
H2464 C2460 0.950 . S
C2465 C2463 1.390 . S
C2465 C2466 1.387 . S
C2465 H2468 0.950 . S
C2466 C2465 1.387 . S
C2466 C2469 1.387 . S
H2467 C2463 0.950 . S
H2468 C2465 0.950 . S
C2469 C2460 1.390 . S
C2469 H2462 0.950 . S
C2469 C2466 1.387 . S
C2470 C2471 1.387 . S
C2470 H2474 0.950 . S
C2470 C2479 1.390 . S
C2471 C2470 1.387 . S
C2471 C2473 1.387 . S
H2472 C2479 0.950 . S
C2473 C2471 1.387 . S
C2473 C2475 1.390 . S
C2473 H2477 0.950 . S
H2474 C2470 0.950 . S
C2475 C2473 1.390 . S
C2475 C2476 1.387 . S
C2475 H2478 0.950 . S
C2476 C2475 1.387 . S
C2476 C2479 1.387 . S
H2477 C2473 0.950 . S
H2478 C2475 0.950 . S
C2479 C2470 1.390 . S
C2479 H2472 0.950 . S
C2479 C2476 1.387 . S
C2480 C2481 1.387 . S
C2480 H2484 0.950 . S
C2480 C2489 1.390 . S
C2481 C2480 1.387 . S
C2481 C2483 1.387 . S
H2482 C2489 0.950 . S
C2483 C2481 1.387 . S
C2483 C2485 1.390 . S
C2483 H2487 0.950 . S
H2484 C2480 0.950 . S
C2485 C2483 1.390 . S
C2485 C2486 1.387 . S
C2485 H2488 0.950 . S
C2486 C2485 1.387 . S
C2486 C2489 1.387 . S
H2487 C2483 0.950 . S
H2488 C2485 0.950 . S
C2489 C2480 1.390 . S
C2489 H2482 0.950 . S
C2489 C2486 1.387 . S
C2490 C2491 1.387 . S
C2490 H2494 0.950 . S
C2490 C2499 1.390 . S
C2491 C2490 1.387 . S
C2491 C2493 1.387 . S
H2492 C2499 0.950 . S
C2493 C2491 1.387 . S
C2493 C2495 1.390 . S
C2493 H2497 0.950 . S
H2494 C2490 0.950 . S
C2495 C2493 1.390 . S
C2495 C2496 1.387 . S
C2495 H2498 0.950 . S
C2496 C2495 1.387 . S
C2496 C2499 1.387 . S
H2497 C2493 0.950 . S
H2498 C2495 0.950 . S
C2499 C2490 1.390 . S
C2499 H2492 0.950 . S
C2499 C2496 1.387 . S
C2500 C2501 1.387 . S
C2500 H2504 0.950 . S
C2500 C2509 1.390 . S
C2501 C2500 1.387 . S
C2501 C2503 1.387 . S
H2502 C2509 0.950 . S
C2503 C2501 1.387 . S
C2503 C2505 1.390 . S
C2503 H2507 0.950 . S
H2504 C2500 0.950 . S
C2505 C2503 1.390 . S
C2505 C2506 1.387 . S
C2505 H2508 0.950 . S
C2506 C2505 1.387 . S
C2506 C2509 1.387 . S
H2507 C2503 0.950 . S
H2508 C2505 0.950 . S
C2509 C2500 1.390 . S
C2509 H2502 0.950 . S
C2509 C2506 1.387 . S
C2510 C2511 1.387 . S
C2510 H2514 0.950 . S
C2510 C2519 1.390 . S
C2511 C2510 1.387 . S
C2511 C2513 1.387 . S
H2512 C2519 0.950 . S
C2513 C2511 1.387 . S
C2513 C2515 1.390 . S
C2513 H2517 0.950 . S
H2514 C2510 0.950 . S
C2515 C2513 1.390 . S
C2515 C2516 1.387 . S
C2515 H2518 0.950 . S
C2516 C2515 1.387 . S
C2516 C2519 1.387 . S
H2517 C2513 0.950 . S
H2518 C2515 0.950 . S
C2519 C2510 1.390 . S
C2519 H2512 0.950 . S
C2519 C2516 1.387 . S
C2520 C2521 1.387 . S
C2520 H2524 0.950 . S
C2520 C2529 1.390 1_545 S
C2521 C2520 1.387 . S
C2521 C2523 1.387 . S
H2522 C2529 0.950 . S
C2523 C2521 1.387 . S
C2523 C2525 1.390 1_545 S
C2523 H2527 0.950 . S
H2524 C2520 0.950 . S
C2525 C2523 1.390 1_565 S
C2525 C2526 1.387 . S
C2525 H2528 0.950 . S
C2526 C2525 1.387 . S
C2526 C2529 1.387 . S
H2527 C2523 0.950 . S
H2528 C2525 0.950 . S
C2529 C2520 1.390 1_565 S
C2529 H2522 0.950 . S
C2529 C2526 1.387 . S
C2530 C2531 1.387 . S
C2530 H2534 0.950 . S
C2530 C2539 1.390 1_455 S
C2531 C2530 1.387 . S
C2531 C2533 1.387 . S
H2532 C2539 0.950 . S
C2533 C2531 1.387 . S
C2533 C2535 1.390 1_455 S
C2533 H2537 0.950 . S
H2534 C2530 0.950 . S
C2535 C2533 1.390 1_655 S
C2535 C2536 1.387 . S
C2535 H2538 0.950 . S
C2536 C2535 1.387 . S
C2536 C2539 1.387 . S
H2537 C2533 0.950 . S
H2538 C2535 0.950 . S
C2539 C2530 1.390 1_655 S
C2539 H2532 0.950 . S
C2539 C2536 1.387 . S
C2540 C2541 1.387 . S
C2540 H2544 0.950 . S
C2540 C2549 1.390 1_545 S
C2541 C2540 1.387 . S
C2541 C2543 1.387 . S
H2542 C2549 0.950 . S
C2543 C2541 1.387 . S
C2543 C2545 1.390 1_545 S
C2543 H2547 0.950 . S
H2544 C2540 0.950 . S
C2545 C2543 1.390 1_565 S
C2545 C2546 1.387 . S
C2545 H2548 0.950 . S
C2546 C2545 1.387 . S
C2546 C2549 1.387 . S
H2547 C2543 0.950 . S
H2548 C2545 0.950 . S
C2549 C2540 1.390 1_565 S
C2549 H2542 0.950 . S
C2549 C2546 1.387 . S
C2550 C2551 1.387 . S
C2550 H2554 0.950 . S
C2550 C2559 1.390 1_455 S
C2551 C2550 1.387 . S
C2551 C2553 1.387 . S
H2552 C2559 0.950 . S
C2553 C2551 1.387 . S
C2553 C2555 1.390 1_455 S
C2553 H2557 0.950 . S
H2554 C2550 0.950 . S
C2555 C2553 1.390 1_655 S
C2555 C2556 1.387 . S
C2555 H2558 0.950 . S
C2556 C2555 1.387 . S
C2556 C2559 1.387 . S
H2557 C2553 0.950 . S
H2558 C2555 0.950 . S
C2559 C2550 1.390 1_655 S
C2559 H2552 0.950 . S
C2559 C2556 1.387 . S
C2560 C2561 1.387 . S
C2560 H2564 0.950 . S
C2560 C2569 1.390 1_545 S
C2561 C2560 1.387 . S
C2561 C2563 1.387 . S
H2562 C2569 0.950 . S
C2563 C2561 1.387 . S
C2563 C2565 1.390 1_545 S
C2563 H2567 0.950 . S
H2564 C2560 0.950 . S
C2565 C2563 1.390 1_565 S
C2565 C2566 1.387 . S
C2565 H2568 0.950 . S
C2566 C2565 1.387 . S
C2566 C2569 1.387 . S
H2567 C2563 0.950 . S
H2568 C2565 0.950 . S
C2569 C2560 1.390 1_565 S
C2569 H2562 0.950 . S
C2569 C2566 1.387 . S
C2570 C2571 1.387 . S
C2570 H2574 0.950 . S
C2570 C2579 1.390 1_655 S
C2571 C2570 1.387 . S
C2571 C2573 1.387 . S
H2572 C2579 0.950 . S
C2573 C2571 1.387 . S
C2573 C2575 1.390 1_655 S
C2573 H2577 0.950 . S
H2574 C2570 0.950 . S
C2575 C2573 1.390 1_455 S
C2575 C2576 1.387 . S
C2575 H2578 0.950 . S
C2576 C2575 1.387 . S
C2576 C2579 1.387 . S
H2577 C2573 0.950 . S
H2578 C2575 0.950 . S
C2579 C2570 1.390 1_455 S
C2579 H2572 0.950 . S
C2579 C2576 1.387 . S
C2580 C2581 1.387 . S
C2580 H2584 0.950 . S
C2580 C2589 1.390 1_545 S
C2581 C2580 1.387 . S
C2581 C2583 1.387 . S
H2582 C2589 0.950 . S
C2583 C2581 1.387 . S
C2583 C2585 1.390 1_545 S
C2583 H2587 0.950 . S
H2584 C2580 0.950 . S
C2585 C2583 1.390 1_565 S
C2585 C2586 1.387 . S
C2585 H2588 0.950 . S
C2586 C2585 1.387 . S
C2586 C2589 1.387 . S
H2587 C2583 0.950 . S
H2588 C2585 0.950 . S
C2589 C2580 1.390 1_565 S
C2589 H2582 0.950 . S
C2589 C2586 1.387 . S
C2590 C2591 1.387 . S
C2590 H2594 0.950 . S
C2590 C2599 1.390 1_655 S
C2591 C2590 1.387 . S
C2591 C2593 1.387 . S
H2592 C2599 0.950 . S
C2593 C2591 1.387 . S
C2593 C2595 1.390 1_655 S
C2593 H2597 0.950 . S
H2594 C2590 0.950 . S
C2595 C2593 1.390 1_455 S
C2595 C2596 1.387 . S
C2595 H2598 0.950 . S
C2596 C2595 1.387 . S
C2596 C2599 1.387 . S
H2597 C2593 0.950 . S
H2598 C2595 0.950 . S
C2599 C2590 1.390 1_455 S
C2599 H2592 0.950 . S
C2599 C2596 1.387 . S
C2600 C2601 1.387 . S
C2600 H2604 0.950 . S
C2600 C2609 1.390 1_556 S
C2601 C2600 1.387 . S
C2601 C2603 1.387 . S
H2602 C2609 0.950 . S
C2603 C2601 1.387 . S
C2603 C2605 1.390 1_556 S
C2603 H2607 0.950 . S
H2604 C2600 0.950 . S
C2605 C2603 1.390 1_554 S
C2605 C2606 1.387 . S
C2605 H2608 0.950 . S
C2606 C2605 1.387 . S
C2606 C2609 1.387 . S
H2607 C2603 0.950 . S
H2608 C2605 0.950 . S
C2609 C2600 1.390 1_554 S
C2609 H2602 0.950 . S
C2609 C2606 1.387 . S
C2610 C2611 1.387 . S
C2610 H2614 0.950 . S
C2610 C2619 1.390 1_554 S
C2611 C2610 1.387 . S
C2611 C2613 1.387 . S
H2612 C2619 0.950 . S
C2613 C2611 1.387 . S
C2613 C2615 1.390 1_554 S
C2613 H2617 0.950 . S
H2614 C2610 0.950 . S
C2615 C2613 1.390 1_556 S
C2615 C2616 1.387 . S
C2615 H2618 0.950 . S
C2616 C2615 1.387 . S
C2616 C2619 1.387 . S
H2617 C2613 0.950 . S
H2618 C2615 0.950 . S
C2619 C2610 1.390 1_556 S
C2619 H2612 0.950 . S
C2619 C2616 1.387 . S
C2620 C2621 1.387 . S
C2620 H2624 0.950 . S
C2620 C2629 1.390 1_556 S
C2621 C2620 1.387 . S
C2621 C2623 1.387 . S
H2622 C2629 0.950 . S
C2623 C2621 1.387 . S
C2623 C2625 1.390 1_556 S
C2623 H2627 0.950 . S
H2624 C2620 0.950 . S
C2625 C2623 1.390 1_554 S
C2625 C2626 1.387 . S
C2625 H2628 0.950 . S
C2626 C2625 1.387 . S
C2626 C2629 1.387 . S
H2627 C2623 0.950 . S
H2628 C2625 0.950 . S
C2629 C2620 1.390 1_554 S
C2629 H2622 0.950 . S
C2629 C2626 1.387 . S
C2630 C2631 1.387 . S
C2630 H2634 0.950 . S
C2630 C2639 1.390 1_554 S
C2631 C2630 1.387 . S
C2631 C2633 1.387 . S
H2632 C2639 0.950 . S
C2633 C2631 1.387 . S
C2633 C2635 1.390 1_554 S
C2633 H2637 0.950 . S
H2634 C2630 0.950 . S
C2635 C2633 1.390 1_556 S
C2635 C2636 1.387 . S
C2635 H2638 0.950 . S
C2636 C2635 1.387 . S
C2636 C2639 1.387 . S
H2637 C2633 0.950 . S
H2638 C2635 0.950 . S
C2639 C2630 1.390 1_556 S
C2639 H2632 0.950 . S
C2639 C2636 1.387 . S
C1921 C101 1.857 . S
C1926 C21 1.857 . S
C1931 C61 1.853 . S
C1936 C141 1.853 . S
C1941 C261 1.853 . S
C1946 C181 1.853 . S
C1951 C221 1.857 . S
C1956 C301 1.857 . S
C1961 C501 1.857 . S
C1966 C341 1.857 . S
C1971 C541 1.853 . S
C1976 C381 1.853 . S
C1981 C421 1.857 . S
C1986 C581 1.857 . S
C1991 C461 1.853 . S
C1996 C621 1.853 . S
C2001 C781 1.853 . S
C2006 C661 1.853 . S
C2011 C701 1.857 . S
C2016 C861 1.857 . S
C2021 C901 1.857 . S
C2026 C741 1.857 . S
C2031 C941 1.857 . S
C2036 C821 1.857 . S
C2041 C981 1.857 . S
C2046 C1061 1.857 . S
C2051 C1021 1.857 . S
C2056 C1101 1.857 . S
C2061 C1221 1.853 . S
C2066 C1141 1.853 . S
C2071 C1261 1.857 . S
C2076 C1181 1.857 . S
C2081 C1301 1.857 . S
C2086 C1461 1.857 . S
C2091 C1341 1.853 . S
C2096 C1501 1.853 . S
C2101 C1381 1.857 . S
C2106 C1541 1.857 . S
C2111 C1581 1.857 . S
C2116 C1421 1.857 . S
C2121 C1741 1.857 . S
C2126 C1621 1.857 . S
C2131 C1821 1.857 . S
C2136 C1661 1.857 . S
C2141 C1861 1.857 . S
C2146 C1701 1.857 . S
C2151 C1901 1.853 . S
C2156 C1781 1.853 . S
C2161 C2 1.913 . S
C2166 C1242 1.915 . S
C2171 C1122 1.914 . S
C2176 C42 1.915 . S
C2181 C82 1.915 . S
C2186 C1162 1.915 . S
C2191 C122 1.913 . S
C2196 C1202 1.913 . S
C2201 C1002 1.913 . S
C2206 C162 1.915 . S
C2211 C1042 1.914 . S
C2216 C202 1.915 . S
C2221 C242 1.914 . S
C2226 C1082 1.912 . S
C2231 C282 1.913 . S
C2236 C962 1.912 . S
C2241 C1762 1.915 . S
C2246 C322 1.915 . S
C2251 C362 1.914 . S
C2256 C1642 1.915 . S
C2261 C1682 1.913 . S
C2266 C402 1.913 . S
C2271 C442 1.914 . S
C2276 C1722 1.912 . S
C2281 C482 1.915 . S
C2286 C1882 1.915 . S
C2291 C522 1.915 . S
C2296 C1802 1.913 . S
C2301 C562 1.912 . S
C2306 C1842 1.913 . S
C2311 C602 1.914 . S
C2316 C1602 1.915 . S
C2321 C642 1.912 . S
C2326 C1562 1.913 . S
C2331 C682 1.915 . S
C2336 C1322 1.913 . S
C2341 C722 1.913 . S
C2346 C1362 1.912 . S
C2351 C1402 1.913 . S
C2356 C762 1.912 . S
C2361 C802 1.913 . S
C2366 C1282 1.913 . S
C2371 C1482 1.915 . S
C2376 C842 1.913 . S
C2381 C1522 1.913 . S
C2386 C882 1.915 . S
C2391 C1442 1.915 . S
C2396 C922 1.915 . S
C2401 C895 2.851 . S
C2406 C15 2.851 . S
C2411 C655 2.854 . S
C2416 C55 2.854 . S
C2421 C95 2.851 . S
C2426 C935 2.851 . S
C2431 C135 2.851 . S
C2436 C855 2.851 . S
C2441 C175 2.851 . S
C2446 C735 2.851 . S
C2451 C775 2.853 . S
C2456 C215 2.853 . S
C2461 C815 2.851 . S
C2466 C255 2.851 . S
C2471 C295 2.854 . S
C2476 C695 2.854 . S
C2481 C335 2.851 . S
C2486 C535 2.851 . S
C2491 C375 2.852 . S
C2496 C575 2.852 . S
C2501 C415 2.852 . S
C2506 C615 2.852 . S
C2511 C495 2.854 . S
C2516 C455 2.854 . S
C2521 C1855 2.852 . S
C2526 C975 2.853 . S
C2531 C1015 2.851 . S
C2536 C1615 2.851 . S
C2541 C1055 2.853 . S
C2546 C1895 2.853 . S
C2551 C1815 2.851 . S
C2556 C1095 2.851 . S
C2561 C1135 2.851 . S
C2566 C1695 2.852 . S
C2571 C1175 2.853 . S
C2576 C1735 2.852 . S
C2581 C1775 2.852 . S
C2586 C1215 2.851 . S
C2591 C1655 2.851 . S
C2596 C1255 2.851 . S
C2601 C1295 2.852 . S
C2606 C1495 2.852 . S
C2611 C1535 2.851 . S
C2616 C1335 2.851 . S
C2621 C1375 2.853 . S
C2626 C1575 2.853 . S
C2631 C1455 2.851 . S
C2636 C1415 2.851 . S
