# Generated by pormake.
# Topology qtz-x, (6)-cn, num edge types: 1
# Building blocks:
#     Node 0, Type 0, BuildingBlock: BETDIP_clean_sbu_0, # of connection points: 6
#     Node 1, Type 0, BuildingBlock: BETDIP_clean_sbu_0, # of connection points: 6
#     Node 2, Type 0, BuildingBlock: BETDIP_clean_sbu_0, # of connection points: 6
#     Edge 3, Type (0, 0), BuildingBlock: UVAHIK_clean_linker_0, # of connection points: 2
#     Edge 4, Type (0, 0), BuildingBlock: UVAHIK_clean_linker_0, # of connection points: 2
#     Edge 5, Type (0, 0), BuildingBlock: UVAHIK_clean_linker_0, # of connection points: 2
#     Edge 6, Type (0, 0), BuildingBlock: UVAHIK_clean_linker_0, # of connection points: 2
#     Edge 7, Type (0, 0), BuildingBlock: UVAHIK_clean_linker_0, # of connection points: 2
#     Edge 8, Type (0, 0), BuildingBlock: UVAHIK_clean_linker_0, # of connection points: 2
#     Edge 9, Type (0, 0), BuildingBlock: UVAHIK_clean_linker_0, # of connection points: 2
#     Edge 10, Type (0, 0), BuildingBlock: UVAHIK_clean_linker_0, # of connection points: 2
#     Edge 11, Type (0, 0), BuildingBlock: UVAHIK_clean_linker_0, # of connection points: 2
# Relax obj value: 0.181
# Max RMSD: 0.233
# Mean RMSD: 0.219
data_MOF--net-qtz-x--node1-BETDIP_clean_sbu_0--edge1-UVAHIK_clean_linker_0
_symmetry_space_group_name_H-M    P1
_symmetry_Int_Tables_number       1
_symmetry_cell_setting            triclinic
loop_
_symmetry_equiv_pos_as_xyz
'x, y, z'
_cell_length_a     18.845111
_cell_length_b     18.865805
_cell_length_c     65.544457
_cell_angle_alpha  72.562232
_cell_angle_beta   109.68034
_cell_angle_gamma 120.92666
loop_
_atom_site_label
_atom_site_type_symbol
_atom_site_fract_x
_atom_site_fract_y
_atom_site_fract_z
_atom_type_partial_charge
Tb0 Tb 0.99239 0.58902 0.18997 0.0
Tb1 Tb 0.1588 0.71346 0.17957 0.0
C2 C 0.87803 0.46448 0.20753 0.0
C3 C 0.86039 0.43621 0.22982 0.0
C4 C 0.88072 0.37412 0.24441 0.0
C5 C 0.86492 0.3475 0.2655 0.0
C6 C 0.82782 0.38189 0.2725 0.0
C7 C 0.80685 0.44353 0.25782 0.0
C8 C 0.8228 0.47026 0.23675 0.0
C9 C 1.01843 0.74551 0.18146 0.0
C10 C 0.15512 0.66858 0.22832 0.0
C11 C 0.27674 0.82986 0.16192 0.0
C12 C 0.30184 0.8325 0.14262 0.0
C13 C 0.33701 0.90796 0.12863 0.0
C14 C 0.356 0.90885 0.10961 0.0
C15 C 0.34009 0.83414 0.1043 0.0
C16 C 0.30553 0.75889 0.11858 0.0
C17 C 0.28599 0.758 0.13739 0.0
C18 C 0.12934 0.55555 0.18702 0.0
C19 C 0.99529 0.64356 0.14079 0.0
O20 O 0.94481 0.46408 0.20563 0.0
O21 O 0.87075 0.53135 0.19614 0.0
O22 O 0.07232 0.71977 0.19217 0.0
O23 O 0.94523 0.68194 0.17655 0.0
O24 O 0.0815 0.6032 0.22249 0.0
O25 O 0.19143 0.73055 0.21333 0.0
O26 O 0.20247 0.82681 0.15794 0.0
O27 O 0.28793 0.77637 0.17913 0.0
O28 O 0.07744 0.58371 0.17663 0.0
O29 O 0.20285 0.61776 0.19224 0.0
O30 O 0.07086 0.70517 0.14732 0.0
O31 O 0.95527 0.58038 0.1551 0.0
H32 H 0.90927 0.34626 0.23956 0.0
H33 H 0.88278 0.3006 0.27642 0.0
H34 H 0.77691 0.47042 0.26248 0.0
H35 H 0.80545 0.5176 0.2259 0.0
H36 H 0.34859 0.9659 0.13225 0.0
H37 H 0.38149 0.96776 0.09886 0.0
H38 H 0.29377 0.70038 0.1153 0.0
H39 H 0.25786 0.69873 0.14781 0.0
Tb40 Tb 0.73546 0.12381 0.54031 0.0
Tb41 Tb 0.675 0.9496 0.53511 0.0
C42 C 0.75442 0.24923 0.55182 0.0
C43 C 0.77758 0.27708 0.57295 0.0
C44 C 0.72366 0.2976 0.57769 0.0
C45 C 0.74421 0.32413 0.59758 0.0
C46 C 0.81959 0.33144 0.61301 0.0
C47 C 0.87344 0.31059 0.60831 0.0
C48 C 0.85244 0.28317 0.58851 0.0
C49 C 0.85402 0.09421 0.53766 0.0
C50 C 0.7272 -0.01881 0.58272 0.0
C51 C 0.64442 0.82349 0.52142 0.0
C52 C 0.60402 0.80169 0.49916 0.0
C53 C 0.6142 0.74409 0.49247 0.0
C54 C 0.57901 0.7277 0.47081 0.0
C55 C 0.53449 0.76985 0.45555 0.0
C56 C 0.52361 0.82655 0.46246 0.0
C57 C 0.55745 0.84181 0.48407 0.0
C58 C 0.55676 -0.01891 0.53723 0.0
C59 C 0.69217 0.09501 0.49296 0.0
O60 O 0.68098 0.18339 0.54777 0.0
O61 O 0.81375 0.24744 0.54619 0.0
O62 O 0.79555 0.04518 0.54787 0.0
O63 O 0.85089 0.16453 0.52993 0.0
O64 O 0.72866 0.05484 0.57383 0.0
O65 O 0.71878 0.93134 0.57059 0.0
O66 O 0.71843 0.88993 0.52335 0.0
O67 O 0.59512 0.82359 0.53144 0.0
O68 O 0.61551 0.02872 0.5271 0.0
O69 O 0.55992 0.91111 0.54542 0.0
O70 O 0.68756 0.0203 0.50194 0.0
O71 O 0.69933 0.1448 0.50481 0.0
H72 H 0.6656 0.29324 0.56595 0.0
H73 H 0.70187 0.34036 0.60075 0.0
H74 H 0.93143 0.31474 0.62004 0.0
H75 H 0.89485 0.26685 0.58544 0.0
H76 H 0.65004 0.71263 0.50388 0.0
H77 H 0.58832 0.68376 0.46585 0.0
H78 H 0.48868 0.85907 0.45112 0.0
H79 H 0.54808 0.88594 0.48892 0.0
Tb80 Tb 0.72839 0.77799 0.85706 0.0
Tb81 Tb 0.86621 0.73064 0.86535 0.0
C82 C 0.60048 0.78315 0.85912 0.0
C83 C 0.571 0.78207 0.8775 0.0
C84 C 0.55814 0.71661 0.89541 0.0
C85 C 0.53658 0.72004 0.9134 0.0
C86 C 0.52788 0.78918 0.91395 0.0
C87 C 0.53935 0.85382 0.89581 0.0
C88 C 0.56036 0.85008 0.87777 0.0
C89 C 0.88058 0.90372 0.85653 0.0
C90 C 0.82336 0.73347 0.90636 0.0
C91 C 0.99219 0.72341 0.86285 0.0
C92 C 1.00525 0.69831 0.84556 0.0
C93 C 0.02471 0.75362 0.82605 0.0
C94 C 0.02338 0.72522 0.80844 0.0
C95 C 1.00256 0.64108 0.81001 0.0
C96 C 0.98814 0.58717 0.82993 0.0
C97 C 0.99001 0.61561 0.84757 0.0
C98 C 0.71342 0.60445 0.8652 0.0
C99 C 0.77161 0.77552 0.81577 0.0
O100 O 0.59979 0.71434 0.85823 0.0
O101 O 0.66992 0.84987 0.85503 0.0
O102 O 0.86281 0.83578 0.8696 0.0
O103 O 0.8115 0.90538 0.84397 0.0
O104 O 0.75406 0.73656 0.89286 0.0
O105 O 0.88545 0.74407 0.89878 0.0
O106 O 0.98591 0.793 0.85766 0.0
O107 O 0.93525 0.66366 0.87365 0.0
O108 O 0.73225 0.67335 0.85262 0.0
O109 O 0.78222 0.60152 0.87738 0.0
O110 O 0.83777 0.76639 0.82942 0.0
O111 O 0.71201 0.77156 0.82309 0.0
H112 H 0.56608 0.6633 0.89575 0.0
H113 H 0.52692 0.66847 0.92689 0.0
H114 H 0.53438 0.90857 0.89575 0.0
H115 H 0.5703 0.90146 0.86421 0.0
H116 H 0.03747 0.81795 0.824 0.0
H117 H 0.03459 0.7681 0.79325 0.0
H118 H 0.97337 0.52234 0.8317 0.0
H119 H 0.976 0.57175 0.86247 0.0
C120 C 0.10982 0.89207 0.18962 0.0
C121 C 0.03078 0.83039 0.1804 0.0
C122 C 0.11996 0.97081 0.18977 0.0
C123 C 0.99668 0.07806 0.18617 0.0
H124 H 0.2032 0.27946 0.1763 0.0
C125 C 0.03611 0.41105 0.17737 0.0
C126 C 0.11534 0.4708 0.1872 0.0
C127 C 0.02464 0.33239 0.17656 0.0
C128 C 0.14549 0.22375 0.17934 0.0
H129 H 0.90104 0.80322 0.16356 0.0
H130 H 0.91883 0.94092 0.16355 0.0
H131 H 0.18603 0.14451 0.17418 0.0
H132 H 0.24406 0.49473 0.20432 0.0
H133 H 0.22402 0.35742 0.20312 0.0
H134 H 0.95619 0.1574 0.19134 0.0
C135 C 0.97267 0.92818 0.17103 0.0
C136 C 0.13563 0.1463 0.17811 0.0
C137 C 0.96259 0.84948 0.17089 0.0
C138 C 0.18239 0.44999 0.19654 0.0
C139 C 0.17103 0.37151 0.19571 0.0
C140 C 1.00652 0.15555 0.18739 0.0
C141 C 0.05128 -0.01037 0.18067 0.0
C142 C 0.06119 0.07239 0.18157 0.0
C143 C 0.09224 0.31194 0.18553 0.0
C144 C 0.08119 0.22937 0.18406 0.0
H145 H 0.16351 0.87904 0.19707 0.0
H146 H 0.18116 0.01623 0.19752 0.0
H147 H 0.93906 0.02234 0.18927 0.0
H148 H 0.98334 0.42554 0.16999 0.0
H149 H 0.96334 0.28835 0.16843 0.0
C150 C 0.4794 0.06813 0.52529 0.0
C151 C 0.48676 -0.00414 0.53724 0.0
C152 C 0.41117 0.07941 0.52517 0.0
C153 C 0.19335 0.96032 0.53553 0.0
H154 H 0.2278 0.1774 0.53925 0.0
C155 C 0.9305 0.00692 0.54854 0.0
C156 C 0.92377 0.08001 0.5372 0.0
C157 C 0.9986 -0.00396 0.54837 0.0
C158 C 0.21671 0.11648 0.53794 0.0
H159 H 0.42931 0.87941 0.55864 0.0
H160 H 0.3113 0.89913 0.55856 0.0
H161 H 0.34777 0.16117 0.539 0.0
H162 H 0.98184 0.1981 0.51642 0.0
H163 H 0.0994 0.17889 0.51586 0.0
H164 H 0.06231 0.9156 0.53444 0.0
C165 C 0.35708 0.94667 0.54901 0.0
C166 C 0.28568 0.10723 0.53778 0.0
C167 C 0.42513 0.93559 0.54916 0.0
C168 C 0.98565 0.14133 0.52547 0.0
C169 C 0.05346 0.13052 0.52527 0.0
C170 C 0.12436 0.96959 0.53566 0.0
C171 C 0.34875 0.01843 0.53693 0.0
C172 C 0.27502 0.02897 0.53664 0.0
C173 C 0.06137 0.05805 0.53684 0.0
C174 C 0.13502 0.04779 0.53687 0.0
H175 H 0.52576 0.11543 0.51587 0.0
H176 H 0.40645 0.13513 0.51554 0.0
H177 H 0.18236 0.89937 0.53428 0.0
H178 H 0.88376 0.95864 0.55775 0.0
H179 H 1.00289 0.93972 0.55763 0.0
C180 C 0.97854 0.04735 0.8415 0.0
C181 C 0.96632 0.97433 0.85692 0.0
C182 C 0.0594 0.11536 0.8421 0.0
C183 C 0.28731 0.1732 0.8633 0.0
H184 H 0.31244 0.39702 0.85438 0.0
C185 C 0.61436 0.46052 0.87964 0.0
C186 C 0.62757 0.5337 0.86424 0.0
C187 C 0.53342 0.39247 0.87864 0.0
C188 C 0.30635 0.335 0.85666 0.0
H189 H 0.02847 0.91441 0.88497 0.0
H190 H 0.16991 0.03352 0.88617 0.0
H191 H 0.17171 0.27718 0.85273 0.0
H192 H 0.56729 0.59352 0.83564 0.0
H193 H 0.42549 0.47449 0.83384 0.0
H194 H 0.42201 0.23105 0.86731 0.0
C195 C 0.11729 0.03803 0.87345 0.0
C196 C 0.22574 0.26633 0.85571 0.0
C197 C 0.03634 0.97 0.87284 0.0
C198 C 0.55852 0.538 0.84784 0.0
C199 C 0.47744 0.46998 0.84685 0.0
C200 C 0.36791 0.24185 0.86428 0.0
C201 C 0.12965 0.11166 0.85815 0.0
C202 C 0.21531 0.18464 0.85903 0.0
C203 C 0.46409 0.39632 0.86219 0.0
C204 C 0.37834 0.3235 0.861 0.0
H205 H 0.92555 0.05204 0.82899 0.0
H206 H 0.06697 0.17064 0.82988 0.0
H207 H 0.28129 0.1112 0.86559 0.0
H208 H 0.66661 0.45583 0.8925 0.0
H209 H 0.525 0.33708 0.89087 0.0
C210 C 0.54443 0.76612 0.95482 0.0
C211 C 0.50866 0.79471 0.93353 0.0
C212 C 0.52698 0.77194 0.97319 0.0
C213 C 0.45989 0.88782 0.99216 0.0
H214 H 0.39596 0.69513 0.03788 0.0
C215 C 0.43134 0.89907 0.07659 0.0
C216 C 0.35868 0.83382 0.08397 0.0
C217 C 0.45 0.89658 0.05794 0.0
C218 C 0.41354 0.74937 1.02521 0.0
H219 H 0.42552 0.85104 0.91502 0.0
H220 H 0.39676 0.86276 0.94715 0.0
H221 H 0.42818 0.686 1.0059 0.0
H222 H 0.2469 0.7165 0.07683 0.0
H223 H 0.2808 0.71143 0.04475 0.0
H224 H 0.44532 0.95117 1.01155 0.0
C225 C 0.43865 0.83625 0.94953 0.0
C226 C 0.43261 0.74434 1.00701 0.0
C227 C 0.45533 0.82965 0.93113 0.0
C228 C 0.30452 0.76685 0.072 0.0
C229 C 0.32368 0.76397 0.05355 0.0
C230 C 0.44186 0.89319 1.01052 0.0
C231 C 0.47413 0.80729 0.97074 0.0
C232 C 0.4555 0.81334 0.99024 0.0
C233 C 0.39685 0.82848 0.04641 0.0
C234 C 0.41794 0.82381 1.02715 0.0
H235 H 0.58714 0.74043 0.95736 0.0
H236 H 0.556 0.75 0.98937 0.0
H237 H 0.47799 0.94216 0.97955 0.0
H238 H 0.475 0.95112 0.0855 0.0
H239 H 0.50717 0.9469 0.05287 0.0
C240 C 0.71227 0.20737 0.45978 0.0
C241 C 0.69374 0.12407 0.46933 0.0
C242 C 0.72143 0.23619 0.43802 0.0
C243 C 0.67243 0.16524 0.38572 0.0
H244 H 0.86684 0.37731 0.37375 0.0
C245 C 0.78052 0.26838 0.30435 0.0
C246 C 0.81055 0.35332 0.29494 0.0
C247 C 0.76374 0.24149 0.32533 0.0
C248 C 0.81151 0.31854 0.37669 0.0
H249 H 0.66861 0.00544 0.46322 0.0
H250 H 0.68349 0.05527 0.42541 0.0
H251 H 0.83882 0.32891 0.41045 0.0
H252 H 0.84756 0.47668 0.30052 0.0
H253 H 0.81628 0.42956 0.33681 0.0
H254 H 0.64494 0.15472 0.352 0.0
C255 C 0.69064 0.09834 0.43466 0.0
C256 C 0.79546 0.2908 0.39776 0.0
C257 C 0.68224 0.06978 0.45642 0.0
C258 C 0.82351 0.41065 0.30711 0.0
C259 C 0.80655 0.38373 0.32807 0.0
C260 C 0.68821 0.19316 0.36462 0.0
C261 C 0.71157 0.18219 0.42528 0.0
C262 C 0.72605 0.21355 0.40258 0.0
C263 C 0.77633 0.29874 0.33747 0.0
C264 C 0.75832 0.26993 0.35984 0.0
H265 H 0.72177 0.25097 0.46924 0.0
H266 H 0.73666 0.30093 0.4312 0.0
H267 H 0.61781 0.10591 0.38881 0.0
H268 H 0.76891 0.22227 0.2954 0.0
H269 H 0.74166 0.17575 0.33212 0.0
C270 C 0.69151 0.78906 0.77648 0.0
C271 C 0.76499 0.78965 0.79178 0.0
C272 C 0.68708 0.80458 0.75389 0.0
C273 C 0.82317 0.91059 0.71405 0.0
H274 H 0.62341 0.77789 0.67357 0.0
C275 C 0.76524 0.01581 0.62021 0.0
C276 C 0.73597 0.95587 0.60683 0.0
C277 C 0.77032 -0.00755 0.6428 0.0
C278 C 0.67982 0.81514 0.6847 0.0
H279 H 0.89115 0.8064 0.79518 0.0
H280 H 0.88346 0.8339 0.75597 0.0
H281 H 0.6277 0.74178 0.71299 0.0
H282 H 0.68909 0.82418 0.60679 0.0
H283 H 0.6971 0.78314 0.64639 0.0
H284 H 0.875 -0.0155 0.68583 0.0
C285 C 0.82938 0.8217 0.76142 0.0
C286 C 0.68196 0.79495 0.70723 0.0
C287 C 0.83352 0.80544 0.78393 0.0
C288 C 0.71227 0.87191 0.61664 0.0
C289 C 0.71627 0.84832 0.63928 0.0
C290 C 0.8206 0.93137 0.69155 0.0
C291 C 0.75636 0.82194 0.74611 0.0
C292 C 0.7537 0.8425 0.72216 0.0
C293 C 0.74531 0.9084 0.6526 0.0
C294 C 0.74887 0.88405 0.6766 0.0
H295 H 0.63751 0.77701 0.78192 0.0
H296 H 0.63015 0.80492 0.7425 0.0
H297 H 0.87911 0.94887 0.72509 0.0
H298 H 0.78408 0.08108 0.61323 0.0
H299 H 0.79223 0.04012 0.65256 0.0
C300 C 0.89711 0.70215 0.94516 0.0
C301 C 0.83138 0.71872 0.93042 0.0
C302 C 0.90373 0.68673 0.96782 0.0
C303 C 0.84566 0.72656 1.00992 0.0
H304 H 0.90436 0.55287 0.04732 0.0
C305 C 0.9884 0.72182 0.10265 0.0
C306 C 0.9595 0.64525 0.11686 0.0
C307 C 0.96107 0.72478 0.07994 0.0
C308 C 0.88697 0.60095 0.03707 0.0
H309 H 0.72113 0.73227 0.92803 0.0
H310 H 0.73314 0.70602 0.96754 0.0
H311 H 0.8799 0.56888 1.00746 0.0
H312 H 0.87822 0.51165 0.11835 0.0
H313 H 0.83109 0.51668 0.07834 0.0
H314 H 0.85447 0.75975 0.03953 0.0
C315 C 0.77959 0.70498 0.96156 0.0
C316 C 0.87387 0.61072 1.01427 0.0
C317 C 0.77255 0.71972 0.93889 0.0
C318 C 0.9012 0.57159 0.10781 0.0
C319 C 0.87473 0.57443 0.08495 0.0
C320 C 0.85963 0.71735 0.03271 0.0
C321 C 0.84519 0.68815 0.9763 0.0
C322 C 0.85408 0.67431 1.00044 0.0
C323 C 0.90486 0.65114 0.07079 0.0
C324 C 0.88151 0.65516 0.04656 0.0
H325 H 0.94342 0.7007 0.93923 0.0
H326 H 0.95565 0.67506 0.97874 0.0
H327 H 0.83094 0.77641 0.99976 0.0
H328 H 0.03323 0.77979 0.10908 0.0
H329 H 0.98618 0.78469 0.06952 0.0
C330 C 0.25992 0.75213 0.25819 0.0
C331 C 0.1938 0.67546 0.25185 0.0
C332 C 0.29579 0.75956 0.28035 0.0
C333 C 0.33157 0.64094 0.33484 0.0
H334 H 0.36152 0.82878 0.35554 0.0
C335 C 0.44911 0.67496 0.42703 0.0
C336 C 0.49985 0.75611 0.43235 0.0
C337 C 0.41171 0.66287 0.40511 0.0
C338 C 0.35504 0.77665 0.35004 0.0
H339 H 0.11407 0.54612 0.26386 0.0
H340 H 0.17802 0.55903 0.3027 0.0
H341 H 0.29649 0.81187 0.31721 0.0
H342 H 0.55465 0.8881 0.41901 0.0
H343 H 0.49231 0.86739 0.38085 0.0
H344 H 0.39207 0.60671 0.36748 0.0
C345 C 0.20168 0.61329 0.29042 0.0
C346 C 0.31725 0.7668 0.32806 0.0
C347 C 0.1649 0.60608 0.26821 0.0
C348 C 0.51474 0.82484 0.41536 0.0
C349 C 0.47844 0.81283 0.39349 0.0
C350 C 0.37045 0.65134 0.35681 0.0
C351 C 0.26714 0.69029 0.2967 0.0
C352 C 0.30536 0.69905 0.32021 0.0
C353 C 0.42522 0.73174 0.38804 0.0
C354 C 0.38305 0.7196 0.3647 0.0
H355 H 0.2836 0.80686 0.24602 0.0
H356 H 0.34665 0.81948 0.28472 0.0
H357 H 0.32382 0.58852 0.32916 0.0
H358 H 0.43614 0.62096 0.43986 0.0
H359 H 0.37041 0.59958 0.40164 0.0
C360 C 0.917 0.53392 0.78495 0.0
C361 C 0.98997 0.60806 0.79052 0.0
C362 C 0.90256 0.50374 0.76618 0.0
C363 C 0.96625 0.57012 0.7131 0.0
H364 H 0.85548 0.33078 0.71321 0.0
C365 C 0.92441 0.42444 0.64103 0.0
C366 C 0.84242 0.36164 0.63386 0.0
C367 C 0.94542 0.45437 0.66043 0.0
C368 C 0.88607 0.39776 0.71293 0.0
H369 H 0.10566 0.70831 0.78102 0.0
H370 H 0.08186 0.65447 0.74845 0.0
H371 H 0.88906 0.38324 0.74677 0.0
H372 H 0.71868 0.27979 0.6415 0.0
H373 H 0.75571 0.33156 0.67558 0.0
H374 H 0.96422 0.58411 0.67925 0.0
C375 C 0.03469 0.6205 0.75832 0.0
C376 C 0.90509 0.42795 0.73212 0.0
C377 C 0.04864 0.65121 0.77701 0.0
C378 C 0.78216 0.32861 0.64659 0.0
C379 C 0.80352 0.35776 0.66614 0.0
C380 C 0.9481 0.53985 0.69397 0.0
C381 C 0.96119 0.54651 0.7526 0.0
C382 C 0.94464 0.51454 0.73241 0.0
C383 C 0.8852 0.42126 0.67317 0.0
C384 C 0.90713 0.45338 0.69365 0.0
H385 H 0.86986 0.50022 0.79483 0.0
H386 H 0.84436 0.44771 0.76208 0.0
H387 H 0.99542 0.63709 0.71256 0.0
H388 H 0.97187 0.45136 0.63144 0.0
H389 H 1.00899 0.50299 0.66556 0.0
loop_
_geom_bond_atom_site_label_1
_geom_bond_atom_site_label_2
_geom_bond_distance
_geom_bond_site_symmetry_2
_ccdc_geom_bond_type
Tb0 C2 2.809 . S
Tb0 O20 2.484 . S
Tb0 O21 2.440 . S
Tb0 O22 2.658 1_655 S
Tb0 O23 2.409 . S
Tb0 O24 2.378 1_655 S
Tb0 O28 2.325 . S
Tb0 O31 2.341 . S
Tb1 C11 2.809 . S
Tb1 O22 2.325 . S
Tb1 O25 2.341 . S
Tb1 O26 2.484 . S
Tb1 O27 2.440 . S
Tb1 O28 2.658 1_455 S
Tb1 O29 2.409 . S
Tb1 O30 2.378 1_455 S
C2 Tb0 2.809 . S
C2 C3 1.514 . S
C2 O20 1.248 . S
C2 O21 1.266 . S
C3 C2 1.514 . S
C3 C4 1.359 . S
C3 C8 1.348 . S
C4 C3 1.359 . S
C4 C5 1.380 . S
C4 H32 0.929 . S
C5 C4 1.380 . S
C5 C6 1.347 . S
C5 H33 0.931 . S
C6 C5 1.347 . S
C6 C7 1.369 . S
C7 C6 1.369 . S
C7 C8 1.408 . S
C7 H34 0.930 . S
C8 C3 1.348 . S
C8 C7 1.408 . S
C8 H35 0.930 . S
C9 O22 1.281 1_655 S
C9 O23 1.254 . S
C10 O24 1.236 . S
C10 O25 1.266 . S
C11 Tb1 2.809 . S
C11 C12 1.514 . S
C11 O26 1.248 . S
C11 O27 1.266 . S
C12 C11 1.514 . S
C12 C13 1.359 . S
C12 C17 1.348 . S
C13 C12 1.359 . S
C13 C14 1.380 . S
C13 H36 0.929 . S
C14 C13 1.380 . S
C14 C15 1.347 . S
C14 H37 0.931 . S
C15 C14 1.347 . S
C15 C16 1.369 . S
C16 C15 1.369 . S
C16 C17 1.408 . S
C16 H38 0.930 . S
C17 C12 1.348 . S
C17 C16 1.408 . S
C17 H39 0.930 . S
C18 O28 1.281 1_455 S
C18 O29 1.254 . S
C19 O30 1.236 . S
C19 O31 1.266 . S
O20 Tb0 2.484 . S
O20 C2 1.248 . S
O21 Tb0 2.440 . S
O21 C2 1.266 . S
O22 Tb0 2.658 1_455 S
O22 Tb1 2.325 . S
O22 C9 1.281 1_455 S
O23 Tb0 2.409 . S
O23 C9 1.254 . S
O24 Tb0 2.378 1_455 S
O24 C10 1.236 . S
O25 Tb1 2.341 . S
O25 C10 1.266 . S
O26 Tb1 2.484 . S
O26 C11 1.248 . S
O27 Tb1 2.440 . S
O27 C11 1.266 . S
O28 Tb0 2.325 . S
O28 Tb1 2.658 1_655 S
O28 C18 1.281 1_655 S
O29 Tb1 2.409 . S
O29 C18 1.254 . S
O30 Tb1 2.378 1_655 S
O30 C19 1.236 . S
O31 Tb0 2.341 . S
O31 C19 1.266 . S
H32 C4 0.929 . S
H33 C5 0.931 . S
H34 C7 0.930 . S
H35 C8 0.930 . S
H36 C13 0.929 . S
H37 C14 0.931 . S
H38 C16 0.930 . S
H39 C17 0.930 . S
Tb40 C42 2.809 . S
Tb40 O60 2.484 . S
Tb40 O61 2.440 . S
Tb40 O62 2.658 1_545 S
Tb40 O63 2.409 . S
Tb40 O64 2.378 . S
Tb40 O68 2.325 . S
Tb40 O71 2.341 . S
Tb41 C51 2.809 . S
Tb41 O62 2.325 . S
Tb41 O65 2.341 . S
Tb41 O66 2.484 . S
Tb41 O67 2.440 . S
Tb41 O68 2.658 1_565 S
Tb41 O69 2.409 . S
Tb41 O70 2.378 1_565 S
C42 Tb40 2.809 . S
C42 C43 1.514 . S
C42 O60 1.248 . S
C42 O61 1.266 . S
C43 C42 1.514 . S
C43 C44 1.359 . S
C43 C48 1.348 . S
C44 C43 1.359 . S
C44 C45 1.380 . S
C44 H72 0.929 . S
C45 C44 1.380 . S
C45 C46 1.347 . S
C45 H73 0.931 . S
C46 C45 1.347 . S
C46 C47 1.369 . S
C47 C46 1.369 . S
C47 C48 1.408 . S
C47 H74 0.930 . S
C48 C43 1.348 . S
C48 C47 1.408 . S
C48 H75 0.930 . S
C49 O62 1.281 1_545 S
C49 O63 1.254 . S
C50 O64 1.236 1_565 S
C50 O65 1.266 . S
C51 Tb41 2.809 . S
C51 C52 1.514 . S
C51 O66 1.248 . S
C51 O67 1.266 . S
C52 C51 1.514 . S
C52 C53 1.359 . S
C52 C57 1.348 . S
C53 C52 1.359 . S
C53 C54 1.380 . S
C53 H76 0.929 . S
C54 C53 1.380 . S
C54 C55 1.347 . S
C54 H77 0.931 . S
C55 C54 1.347 . S
C55 C56 1.369 . S
C56 C55 1.369 . S
C56 C57 1.408 . S
C56 H78 0.930 . S
C57 C52 1.348 . S
C57 C56 1.408 . S
C57 H79 0.930 . S
C58 O68 1.281 1_565 S
C58 O69 1.254 . S
C59 O70 1.236 . S
C59 O71 1.266 . S
O60 Tb40 2.484 . S
O60 C42 1.248 . S
O61 Tb40 2.440 . S
O61 C42 1.266 . S
O62 Tb40 2.658 1_565 S
O62 Tb41 2.325 . S
O62 C49 1.281 1_565 S
O63 Tb40 2.409 . S
O63 C49 1.254 . S
O64 Tb40 2.378 . S
O64 C50 1.236 1_545 S
O65 Tb41 2.341 . S
O65 C50 1.266 . S
O66 Tb41 2.484 . S
O66 C51 1.248 . S
O67 Tb41 2.440 . S
O67 C51 1.266 . S
O68 Tb40 2.325 . S
O68 Tb41 2.658 1_545 S
O68 C58 1.281 1_545 S
O69 Tb41 2.409 . S
O69 C58 1.254 . S
O70 Tb41 2.378 1_545 S
O70 C59 1.236 . S
O71 Tb40 2.341 . S
O71 C59 1.266 . S
H72 C44 0.929 . S
H73 C45 0.931 . S
H74 C47 0.930 . S
H75 C48 0.930 . S
H76 C53 0.929 . S
H77 C54 0.931 . S
H78 C56 0.930 . S
H79 C57 0.930 . S
Tb80 C82 2.809 . S
Tb80 O100 2.484 . S
Tb80 O101 2.440 . S
Tb80 O102 2.658 . S
Tb80 O103 2.409 1_565 S
Tb80 O104 2.378 . S
Tb80 O108 2.325 . S
Tb80 O111 2.341 . S
Tb81 C91 2.809 . S
Tb81 O102 2.325 . S
Tb81 O105 2.341 . S
Tb81 O106 2.484 . S
Tb81 O107 2.440 . S
Tb81 O108 2.658 . S
Tb81 O109 2.409 . S
Tb81 O110 2.378 . S
C82 Tb80 2.809 . S
C82 C83 1.514 . S
C82 O100 1.248 . S
C82 O101 1.266 . S
C83 C82 1.514 . S
C83 C84 1.359 . S
C83 C88 1.346 1_565 S
C84 C83 1.359 . S
C84 C85 1.380 . S
C84 H112 0.929 . S
C85 C84 1.380 . S
C85 C86 1.347 . S
C85 H113 0.931 . S
C86 C85 1.347 . S
C86 C87 1.369 1_565 S
C87 C86 1.369 1_545 S
C87 C88 1.410 . S
C87 H114 0.930 . S
C88 C83 1.346 1_545 S
C88 C87 1.410 . S
C88 H115 0.931 . S
C89 O102 1.281 . S
C89 O103 1.254 1_565 S
C90 O104 1.236 . S
C90 O105 1.266 . S
C91 Tb81 2.809 . S
C91 C92 1.514 . S
C91 O106 1.248 . S
C91 O107 1.266 . S
C92 C91 1.514 . S
C92 C93 1.359 . S
C92 C97 1.348 . S
C93 C92 1.359 . S
C93 C94 1.380 1_655 S
C93 H116 0.929 1_655 S
C94 C93 1.380 1_455 S
C94 C95 1.347 1_455 S
C94 H117 0.931 . S
C95 C94 1.347 1_655 S
C95 C96 1.369 . S
C96 C95 1.369 . S
C96 C97 1.408 . S
C96 H118 0.930 . S
C97 C92 1.348 . S
C97 C96 1.408 . S
C97 H119 0.930 . S
C98 O108 1.281 . S
C98 O109 1.254 . S
C99 O110 1.236 . S
C99 O111 1.266 . S
O100 Tb80 2.484 . S
O100 C82 1.248 . S
O101 Tb80 2.440 . S
O101 C82 1.266 . S
O102 Tb80 2.658 . S
O102 Tb81 2.325 . S
O102 C89 1.281 . S
O103 Tb80 2.409 1_545 S
O103 C89 1.254 1_545 S
O104 Tb80 2.378 . S
O104 C90 1.236 . S
O105 Tb81 2.341 . S
O105 C90 1.266 . S
O106 Tb81 2.484 . S
O106 C91 1.248 . S
O107 Tb81 2.440 . S
O107 C91 1.266 . S
O108 Tb80 2.325 . S
O108 Tb81 2.658 . S
O108 C98 1.281 . S
O109 Tb81 2.409 . S
O109 C98 1.254 . S
O110 Tb81 2.378 . S
O110 C99 1.236 . S
O111 Tb80 2.341 . S
O111 C99 1.266 . S
H112 C84 0.929 . S
H113 C85 0.931 . S
H114 C87 0.930 . S
H115 C88 0.931 . S
H116 C93 0.929 1_455 S
H117 C94 0.931 . S
H118 C96 0.930 . S
H119 C97 0.930 . S
C120 C121 1.349 . S
C120 C122 1.327 . S
C120 H145 0.950 . S
C121 C120 1.349 . S
C121 C137 1.349 1_455 S
C122 C120 1.327 . S
C122 C141 1.429 . S
C122 H146 0.950 . S
C123 C140 1.574 . S
C123 C142 1.368 1_655 S
C123 H147 0.949 . S
H124 C128 0.949 . S
C125 C126 1.349 . S
C125 C127 1.327 . S
C125 H148 0.950 . S
C126 C125 1.349 . S
C126 C138 1.349 1_655 S
C127 C125 1.327 . S
C127 C143 1.429 . S
C127 H149 0.950 . S
C128 H124 0.949 . S
C128 C136 1.574 . S
C128 C144 1.368 1_455 S
H129 C137 0.950 . S
H130 C135 0.950 . S
H131 C136 0.949 . S
H132 C138 0.950 . S
H133 C139 0.950 . S
H134 C140 0.949 . S
C135 H130 0.950 . S
C135 C137 1.327 . S
C135 C141 1.429 1_655 S
C136 C128 1.574 . S
C136 H131 0.949 . S
C136 C142 1.368 . S
C137 C121 1.349 1_655 S
C137 H129 0.950 . S
C137 C135 1.327 . S
C138 C126 1.349 1_455 S
C138 H132 0.950 . S
C138 C139 1.327 . S
C139 H133 0.950 . S
C139 C138 1.327 . S
C139 C143 1.429 1_455 S
C140 C123 1.574 . S
C140 H134 0.949 . S
C140 C144 1.368 . S
C141 C122 1.429 . S
C141 C135 1.429 1_455 S
C141 C142 1.523 1_565 S
C142 C123 1.368 1_455 S
C142 C136 1.368 . S
C142 C141 1.523 1_545 S
C143 C127 1.429 . S
C143 C139 1.429 1_655 S
C143 C144 1.523 . S
C144 C128 1.368 1_655 S
C144 C140 1.368 . S
C144 C143 1.523 . S
H145 C120 0.950 . S
H146 C122 0.950 . S
H147 C123 0.949 . S
H148 C125 0.950 . S
H149 C127 0.950 . S
C150 C151 1.349 . S
C150 C152 1.327 . S
C150 H175 0.950 . S
C151 C150 1.349 . S
C151 C167 1.349 1_545 S
C152 C150 1.327 . S
C152 C171 1.429 . S
C152 H176 0.950 . S
C153 C170 1.574 . S
C153 C172 1.368 1_565 S
C153 H177 0.949 . S
H154 C158 0.949 . S
C155 C156 1.348 . S
C155 C157 1.327 . S
C155 H178 0.950 . S
C156 C155 1.348 . S
C156 C168 1.349 1_565 S
C157 C155 1.327 . S
C157 C173 1.429 1_665 S
C157 H179 0.950 . S
C158 H154 0.949 . S
C158 C166 1.574 . S
C158 C174 1.368 . S
H159 C167 0.950 . S
H160 C165 0.950 . S
H161 C166 0.949 . S
H162 C168 0.950 . S
H163 C169 0.950 . S
H164 C170 0.949 . S
C165 H160 0.950 . S
C165 C167 1.327 . S
C165 C171 1.429 1_565 S
C166 C158 1.574 . S
C166 H161 0.949 . S
C166 C172 1.368 . S
C167 C151 1.349 1_565 S
C167 H159 0.950 . S
C167 C165 1.327 . S
C168 C156 1.349 1_545 S
C168 H162 0.950 . S
C168 C169 1.327 1_655 S
C169 H163 0.950 . S
C169 C168 1.327 1_455 S
C169 C173 1.429 . S
C170 C153 1.574 . S
C170 H164 0.949 . S
C170 C174 1.368 1_565 S
C171 C152 1.429 . S
C171 C165 1.429 1_545 S
C171 C172 1.523 . S
C172 C153 1.368 1_545 S
C172 C166 1.368 . S
C172 C171 1.523 . S
C173 C157 1.429 1_445 S
C173 C169 1.429 . S
C173 C174 1.523 . S
C174 C158 1.368 . S
C174 C170 1.368 1_545 S
C174 C173 1.523 . S
H175 C150 0.950 . S
H176 C152 0.950 . S
H177 C153 0.949 . S
H178 C155 0.950 . S
H179 C157 0.950 . S
C180 C181 1.349 1_655 S
C180 C182 1.327 1_655 S
C180 H205 0.950 . S
C181 C180 1.349 1_455 S
C181 C197 1.349 . S
C182 C180 1.327 1_455 S
C182 C201 1.429 . S
C182 H206 0.950 . S
C183 C200 1.574 . S
C183 C202 1.368 . S
C183 H207 0.949 . S
H184 C188 0.949 . S
C185 C186 1.349 . S
C185 C187 1.327 . S
C185 H208 0.950 . S
C186 C185 1.349 . S
C186 C198 1.349 . S
C187 C185 1.327 . S
C187 C203 1.429 . S
C187 H209 0.950 . S
C188 H184 0.949 . S
C188 C196 1.574 . S
C188 C204 1.368 . S
H189 C197 0.950 1_565 S
H190 C195 0.950 . S
H191 C196 0.949 . S
H192 C198 0.950 . S
H193 C199 0.950 . S
H194 C200 0.949 . S
C195 H190 0.950 . S
C195 C197 1.327 . S
C195 C201 1.429 . S
C196 C188 1.574 . S
C196 H191 0.949 . S
C196 C202 1.368 . S
C197 C181 1.349 . S
C197 H189 0.950 1_545 S
C197 C195 1.327 . S
C198 C186 1.349 . S
C198 H192 0.950 . S
C198 C199 1.327 . S
C199 H193 0.950 . S
C199 C198 1.327 . S
C199 C203 1.429 . S
C200 C183 1.574 . S
C200 H194 0.949 . S
C200 C204 1.368 . S
C201 C182 1.429 . S
C201 C195 1.429 . S
C201 C202 1.523 . S
C202 C183 1.368 . S
C202 C196 1.368 . S
C202 C201 1.523 . S
C203 C187 1.429 . S
C203 C199 1.429 . S
C203 C204 1.523 . S
C204 C188 1.368 . S
C204 C200 1.368 . S
C204 C203 1.523 . S
H205 C180 0.950 . S
H206 C182 0.950 . S
H207 C183 0.949 . S
H208 C185 0.950 . S
H209 C187 0.950 . S
C210 C211 1.349 . S
C210 C212 1.327 . S
C210 H235 0.950 . S
C211 C210 1.349 . S
C211 C227 1.349 1_565 S
C212 C210 1.327 . S
C212 C231 1.429 . S
C212 H236 0.950 . S
C213 C230 1.574 . S
C213 C232 1.368 . S
C213 H237 0.949 1_565 S
H214 C218 0.960 . S
C215 C216 1.349 . S
C215 C217 1.327 . S
C215 H238 0.950 . S
C216 C215 1.349 . S
C216 C228 1.349 . S
C217 C215 1.327 . S
C217 C233 1.429 . S
C217 H239 0.950 1_565 S
C218 H214 0.960 . S
C218 C226 1.558 1_554 S
C218 C234 1.372 1_554 S
H219 C227 0.950 . S
H220 C225 0.950 . S
H221 C226 0.949 . S
H222 C228 0.950 . S
H223 C229 0.950 . S
H224 C230 0.949 1_545 S
C225 H220 0.950 . S
C225 C227 1.327 . S
C225 C231 1.429 1_545 S
C226 C218 1.558 1_556 S
C226 H221 0.949 . S
C226 C232 1.368 . S
C227 C211 1.349 1_545 S
C227 H219 0.950 . S
C227 C225 1.327 . S
C228 C216 1.349 . S
C228 H222 0.950 . S
C228 C229 1.327 . S
C229 H223 0.950 . S
C229 C228 1.327 . S
C229 C233 1.429 . S
C230 C213 1.574 . S
C230 H224 0.949 1_565 S
C230 C234 1.368 . S
C231 C212 1.429 . S
C231 C225 1.429 1_565 S
C231 C232 1.523 . S
C232 C213 1.368 . S
C232 C226 1.368 . S
C232 C231 1.523 . S
C233 C217 1.429 . S
C233 C229 1.429 . S
C233 C234 1.523 1_554 S
C234 C218 1.372 1_556 S
C234 C230 1.368 . S
C234 C233 1.523 1_556 S
H235 C210 0.950 . S
H236 C212 0.950 . S
H237 C213 0.949 1_545 S
H238 C215 0.950 . S
H239 C217 0.950 1_545 S
C240 C241 1.349 . S
C240 C242 1.327 . S
C240 H265 0.950 . S
C241 C240 1.349 . S
C241 C257 1.349 . S
C242 C240 1.327 . S
C242 C261 1.429 . S
C242 H266 0.950 . S
C243 C260 1.574 . S
C243 C262 1.368 . S
C243 H267 0.949 . S
H244 C248 0.949 . S
C245 C246 1.349 . S
C245 C247 1.327 . S
C245 H268 0.950 . S
C246 C245 1.349 . S
C246 C258 1.349 . S
C247 C245 1.327 . S
C247 C263 1.429 . S
C247 H269 0.950 . S
C248 H244 0.949 . S
C248 C256 1.574 . S
C248 C264 1.368 . S
H249 C257 0.950 . S
H250 C255 0.950 . S
H251 C256 0.949 . S
H252 C258 0.950 . S
H253 C259 0.950 . S
H254 C260 0.949 . S
C255 H250 0.950 . S
C255 C257 1.327 . S
C255 C261 1.429 . S
C256 C248 1.574 . S
C256 H251 0.949 . S
C256 C262 1.368 . S
C257 C241 1.349 . S
C257 H249 0.950 . S
C257 C255 1.327 . S
C258 C246 1.349 . S
C258 H252 0.950 . S
C258 C259 1.327 . S
C259 H253 0.950 . S
C259 C258 1.327 . S
C259 C263 1.429 . S
C260 C243 1.574 . S
C260 H254 0.949 . S
C260 C264 1.368 . S
C261 C242 1.429 . S
C261 C255 1.429 . S
C261 C262 1.523 . S
C262 C243 1.368 . S
C262 C256 1.368 . S
C262 C261 1.523 . S
C263 C247 1.429 . S
C263 C259 1.429 . S
C263 C264 1.523 . S
C264 C248 1.368 . S
C264 C260 1.368 . S
C264 C263 1.523 . S
H265 C240 0.950 . S
H266 C242 0.950 . S
H267 C243 0.949 . S
H268 C245 0.950 . S
H269 C247 0.950 . S
C270 C271 1.349 . S
C270 C272 1.327 . S
C270 H295 0.950 . S
C271 C270 1.349 . S
C271 C287 1.349 . S
C272 C270 1.327 . S
C272 C291 1.429 . S
C272 H296 0.950 . S
C273 C290 1.574 . S
C273 C292 1.368 . S
C273 H297 0.949 . S
H274 C278 0.949 . S
C275 C276 1.349 . S
C275 C277 1.327 . S
C275 H298 0.950 1_565 S
C276 C275 1.349 . S
C276 C288 1.349 . S
C277 C275 1.327 . S
C277 C293 1.429 . S
C277 H299 0.950 1_565 S
C278 H274 0.949 . S
C278 C286 1.574 . S
C278 C294 1.368 . S
H279 C287 0.950 . S
H280 C285 0.950 . S
H281 C286 0.949 . S
H282 C288 0.950 . S
H283 C289 0.950 . S
H284 C290 0.949 . S
C285 H280 0.950 . S
C285 C287 1.327 . S
C285 C291 1.429 . S
C286 C278 1.574 . S
C286 H281 0.949 . S
C286 C292 1.368 . S
C287 C271 1.349 . S
C287 H279 0.950 . S
C287 C285 1.327 . S
C288 C276 1.349 . S
C288 H282 0.950 . S
C288 C289 1.327 . S
C289 H283 0.950 . S
C289 C288 1.327 . S
C289 C293 1.429 . S
C290 C273 1.574 . S
C290 H284 0.949 . S
C290 C294 1.368 . S
C291 C272 1.429 . S
C291 C285 1.429 . S
C291 C292 1.523 . S
C292 C273 1.368 . S
C292 C286 1.368 . S
C292 C291 1.523 . S
C293 C277 1.429 . S
C293 C289 1.429 . S
C293 C294 1.523 . S
C294 C278 1.368 . S
C294 C290 1.368 . S
C294 C293 1.523 . S
H295 C270 0.950 . S
H296 C272 0.950 . S
H297 C273 0.949 . S
H298 C275 0.950 1_545 S
H299 C277 0.950 1_545 S
C300 C301 1.349 . S
C300 C302 1.327 . S
C300 H325 0.950 . S
C301 C300 1.349 . S
C301 C317 1.349 . S
C302 C300 1.327 . S
C302 C321 1.429 . S
C302 H326 0.950 . S
C303 C320 1.574 1_556 S
C303 C322 1.368 . S
C303 H327 0.949 . S
H304 C308 0.949 . S
C305 C306 1.349 . S
C305 C307 1.327 . S
C305 H328 0.950 . S
C306 C305 1.349 . S
C306 C318 1.349 . S
C307 C305 1.327 . S
C307 C323 1.429 . S
C307 H329 0.950 . S
C308 H304 0.949 . S
C308 C316 1.574 1_554 S
C308 C324 1.368 . S
H309 C317 0.950 . S
H310 C315 0.950 . S
H311 C316 0.949 . S
H312 C318 0.950 . S
H313 C319 0.950 . S
H314 C320 0.949 . S
C315 H310 0.950 . S
C315 C317 1.327 . S
C315 C321 1.429 . S
C316 C308 1.574 1_556 S
C316 H311 0.949 . S
C316 C322 1.368 . S
C317 C301 1.349 . S
C317 H309 0.950 . S
C317 C315 1.327 . S
C318 C306 1.349 . S
C318 H312 0.950 . S
C318 C319 1.327 . S
C319 H313 0.950 . S
C319 C318 1.327 . S
C319 C323 1.429 . S
C320 C303 1.574 1_554 S
C320 H314 0.949 . S
C320 C324 1.368 . S
C321 C302 1.429 . S
C321 C315 1.429 . S
C321 C322 1.523 . S
C322 C303 1.368 . S
C322 C316 1.368 . S
C322 C321 1.523 . S
C323 C307 1.429 . S
C323 C319 1.429 . S
C323 C324 1.523 . S
C324 C308 1.368 . S
C324 C320 1.368 . S
C324 C323 1.523 . S
H325 C300 0.950 . S
H326 C302 0.950 . S
H327 C303 0.949 . S
H328 C305 0.950 . S
H329 C307 0.950 . S
C330 C331 1.349 . S
C330 C332 1.327 . S
C330 H355 0.950 . S
C331 C330 1.349 . S
C331 C347 1.349 . S
C332 C330 1.327 . S
C332 C351 1.429 . S
C332 H356 0.950 . S
C333 C350 1.574 . S
C333 C352 1.368 . S
C333 H357 0.949 . S
H334 C338 0.949 . S
C335 C336 1.349 . S
C335 C337 1.327 . S
C335 H358 0.950 . S
C336 C335 1.349 . S
C336 C348 1.349 . S
C337 C335 1.327 . S
C337 C353 1.429 . S
C337 H359 0.950 . S
C338 H334 0.949 . S
C338 C346 1.574 . S
C338 C354 1.368 . S
H339 C347 0.950 . S
H340 C345 0.950 . S
H341 C346 0.949 . S
H342 C348 0.950 . S
H343 C349 0.950 . S
H344 C350 0.949 . S
C345 H340 0.950 . S
C345 C347 1.327 . S
C345 C351 1.429 . S
C346 C338 1.574 . S
C346 H341 0.949 . S
C346 C352 1.368 . S
C347 C331 1.349 . S
C347 H339 0.950 . S
C347 C345 1.327 . S
C348 C336 1.349 . S
C348 H342 0.950 . S
C348 C349 1.327 . S
C349 H343 0.950 . S
C349 C348 1.327 . S
C349 C353 1.429 . S
C350 C333 1.574 . S
C350 H344 0.949 . S
C350 C354 1.368 . S
C351 C332 1.429 . S
C351 C345 1.429 . S
C351 C352 1.523 . S
C352 C333 1.368 . S
C352 C346 1.368 . S
C352 C351 1.523 . S
C353 C337 1.429 . S
C353 C349 1.429 . S
C353 C354 1.523 . S
C354 C338 1.368 . S
C354 C350 1.368 . S
C354 C353 1.523 . S
H355 C330 0.950 . S
H356 C332 0.950 . S
H357 C333 0.949 . S
H358 C335 0.950 . S
H359 C337 0.950 . S
C360 C361 1.349 . S
C360 C362 1.327 . S
C360 H385 0.950 . S
C361 C360 1.349 . S
C361 C377 1.349 1_655 S
C362 C360 1.327 . S
C362 C381 1.429 . S
C362 H386 0.950 . S
C363 C380 1.574 . S
C363 C382 1.368 . S
C363 H387 0.949 1_655 S
H364 C368 0.949 . S
C365 C366 1.349 . S
C365 C367 1.327 . S
C365 H388 0.950 . S
C366 C365 1.349 . S
C366 C378 1.349 . S
C367 C365 1.327 . S
C367 C383 1.429 . S
C367 H389 0.953 . S
C368 H364 0.949 . S
C368 C376 1.574 . S
C368 C384 1.368 . S
H369 C377 0.950 . S
H370 C375 0.950 . S
H371 C376 0.949 . S
H372 C378 0.950 . S
H373 C379 0.950 . S
H374 C380 0.949 1_455 S
C375 H370 0.950 . S
C375 C377 1.327 . S
C375 C381 1.429 1_455 S
C376 C368 1.574 . S
C376 H371 0.949 . S
C376 C382 1.368 . S
C377 C361 1.349 1_455 S
C377 H369 0.950 . S
C377 C375 1.327 . S
C378 C366 1.349 . S
C378 H372 0.950 . S
C378 C379 1.327 . S
C379 H373 0.950 . S
C379 C378 1.327 . S
C379 C383 1.429 . S
C380 C363 1.574 . S
C380 H374 0.949 1_655 S
C380 C384 1.368 . S
C381 C362 1.429 . S
C381 C375 1.429 1_655 S
C381 C382 1.523 . S
C382 C363 1.368 . S
C382 C376 1.368 . S
C382 C381 1.523 . S
C383 C367 1.429 . S
C383 C379 1.429 . S
C383 C384 1.523 . S
C384 C368 1.368 . S
C384 C380 1.368 . S
C384 C383 1.523 . S
H385 C360 0.950 . S
H386 C362 0.950 . S
H387 C363 0.949 1_455 S
H388 C365 0.950 . S
H389 C367 0.953 . S
C121 C9 1.316 1_455 S
C126 C18 1.316 1_655 S
C151 C58 1.375 1_545 S
C156 C49 1.376 1_565 S
C181 C89 1.165 1_445 S
C186 C98 1.166 . S
C211 C86 0.909 . S
C216 C15 0.903 . S
C241 C59 1.734 . S
C246 C6 1.707 . S
C271 C99 2.269 . S
C276 C50 2.262 . S
C301 C90 2.225 . S
C306 C19 2.201 . S
C331 C10 1.602 . S
C336 C55 1.546 . S
C361 C95 0.926 . S
C366 C46 0.939 . S
