# Generated by pormake.
# Topology vbm, (6)-cn, num edge types: 1
# Building blocks:
#     Node 0, Type 0, BuildingBlock: BETGAK_clean_sbu_0, # of connection points: 6
#     Node 1, Type 0, BuildingBlock: BETGAK_clean_sbu_0, # of connection points: 6
#     Node 2, Type 0, BuildingBlock: BETGAK_clean_sbu_0, # of connection points: 6
#     Node 3, Type 0, BuildingBlock: BETGAK_clean_sbu_0, # of connection points: 6
#     Node 4, Type 0, BuildingBlock: BETGAK_clean_sbu_0, # of connection points: 6
#     Node 5, Type 0, BuildingBlock: BETGAK_clean_sbu_0, # of connection points: 6
#     Node 6, Type 0, BuildingBlock: BETGAK_clean_sbu_0, # of connection points: 6
#     Node 7, Type 0, BuildingBlock: BETGAK_clean_sbu_0, # of connection points: 6
#     Node 8, Type 0, BuildingBlock: BETGAK_clean_sbu_0, # of connection points: 6
#     Node 9, Type 0, BuildingBlock: BETGAK_clean_sbu_0, # of connection points: 6
#     Node 10, Type 0, BuildingBlock: BETGAK_clean_sbu_0, # of connection points: 6
#     Node 11, Type 0, BuildingBlock: BETGAK_clean_sbu_0, # of connection points: 6
#     Node 12, Type 0, BuildingBlock: BETGAK_clean_sbu_0, # of connection points: 6
#     Node 13, Type 0, BuildingBlock: BETGAK_clean_sbu_0, # of connection points: 6
#     Node 14, Type 0, BuildingBlock: BETGAK_clean_sbu_0, # of connection points: 6
#     Node 15, Type 0, BuildingBlock: BETGAK_clean_sbu_0, # of connection points: 6
#     Edge 16, Type (0, 0), BuildingBlock: XUDNAN_clean_linker_2, # of connection points: 2
#     Edge 17, Type (0, 0), BuildingBlock: XUDNAN_clean_linker_2, # of connection points: 2
#     Edge 18, Type (0, 0), BuildingBlock: XUDNAN_clean_linker_2, # of connection points: 2
#     Edge 19, Type (0, 0), BuildingBlock: XUDNAN_clean_linker_2, # of connection points: 2
#     Edge 20, Type (0, 0), BuildingBlock: XUDNAN_clean_linker_2, # of connection points: 2
#     Edge 21, Type (0, 0), BuildingBlock: XUDNAN_clean_linker_2, # of connection points: 2
#     Edge 22, Type (0, 0), BuildingBlock: XUDNAN_clean_linker_2, # of connection points: 2
#     Edge 23, Type (0, 0), BuildingBlock: XUDNAN_clean_linker_2, # of connection points: 2
#     Edge 24, Type (0, 0), BuildingBlock: XUDNAN_clean_linker_2, # of connection points: 2
#     Edge 25, Type (0, 0), BuildingBlock: XUDNAN_clean_linker_2, # of connection points: 2
#     Edge 26, Type (0, 0), BuildingBlock: XUDNAN_clean_linker_2, # of connection points: 2
#     Edge 27, Type (0, 0), BuildingBlock: XUDNAN_clean_linker_2, # of connection points: 2
#     Edge 28, Type (0, 0), BuildingBlock: XUDNAN_clean_linker_2, # of connection points: 2
#     Edge 29, Type (0, 0), BuildingBlock: XUDNAN_clean_linker_2, # of connection points: 2
#     Edge 30, Type (0, 0), BuildingBlock: XUDNAN_clean_linker_2, # of connection points: 2
#     Edge 31, Type (0, 0), BuildingBlock: XUDNAN_clean_linker_2, # of connection points: 2
#     Edge 32, Type (0, 0), BuildingBlock: XUDNAN_clean_linker_2, # of connection points: 2
#     Edge 33, Type (0, 0), BuildingBlock: XUDNAN_clean_linker_2, # of connection points: 2
#     Edge 34, Type (0, 0), BuildingBlock: XUDNAN_clean_linker_2, # of connection points: 2
#     Edge 35, Type (0, 0), BuildingBlock: XUDNAN_clean_linker_2, # of connection points: 2
#     Edge 36, Type (0, 0), BuildingBlock: XUDNAN_clean_linker_2, # of connection points: 2
#     Edge 37, Type (0, 0), BuildingBlock: XUDNAN_clean_linker_2, # of connection points: 2
#     Edge 38, Type (0, 0), BuildingBlock: XUDNAN_clean_linker_2, # of connection points: 2
#     Edge 39, Type (0, 0), BuildingBlock: XUDNAN_clean_linker_2, # of connection points: 2
#     Edge 40, Type (0, 0), BuildingBlock: XUDNAN_clean_linker_2, # of connection points: 2
#     Edge 41, Type (0, 0), BuildingBlock: XUDNAN_clean_linker_2, # of connection points: 2
#     Edge 42, Type (0, 0), BuildingBlock: XUDNAN_clean_linker_2, # of connection points: 2
#     Edge 43, Type (0, 0), BuildingBlock: XUDNAN_clean_linker_2, # of connection points: 2
#     Edge 44, Type (0, 0), BuildingBlock: XUDNAN_clean_linker_2, # of connection points: 2
#     Edge 45, Type (0, 0), BuildingBlock: XUDNAN_clean_linker_2, # of connection points: 2
#     Edge 46, Type (0, 0), BuildingBlock: XUDNAN_clean_linker_2, # of connection points: 2
#     Edge 47, Type (0, 0), BuildingBlock: XUDNAN_clean_linker_2, # of connection points: 2
#     Edge 48, Type (0, 0), BuildingBlock: XUDNAN_clean_linker_2, # of connection points: 2
#     Edge 49, Type (0, 0), BuildingBlock: XUDNAN_clean_linker_2, # of connection points: 2
#     Edge 50, Type (0, 0), BuildingBlock: XUDNAN_clean_linker_2, # of connection points: 2
#     Edge 51, Type (0, 0), BuildingBlock: XUDNAN_clean_linker_2, # of connection points: 2
#     Edge 52, Type (0, 0), BuildingBlock: XUDNAN_clean_linker_2, # of connection points: 2
#     Edge 53, Type (0, 0), BuildingBlock: XUDNAN_clean_linker_2, # of connection points: 2
#     Edge 54, Type (0, 0), BuildingBlock: XUDNAN_clean_linker_2, # of connection points: 2
#     Edge 55, Type (0, 0), BuildingBlock: XUDNAN_clean_linker_2, # of connection points: 2
#     Edge 56, Type (0, 0), BuildingBlock: XUDNAN_clean_linker_2, # of connection points: 2
#     Edge 57, Type (0, 0), BuildingBlock: XUDNAN_clean_linker_2, # of connection points: 2
#     Edge 58, Type (0, 0), BuildingBlock: XUDNAN_clean_linker_2, # of connection points: 2
#     Edge 59, Type (0, 0), BuildingBlock: XUDNAN_clean_linker_2, # of connection points: 2
#     Edge 60, Type (0, 0), BuildingBlock: XUDNAN_clean_linker_2, # of connection points: 2
#     Edge 61, Type (0, 0), BuildingBlock: XUDNAN_clean_linker_2, # of connection points: 2
#     Edge 62, Type (0, 0), BuildingBlock: XUDNAN_clean_linker_2, # of connection points: 2
#     Edge 63, Type (0, 0), BuildingBlock: XUDNAN_clean_linker_2, # of connection points: 2
# Relax obj value: 0.065
# Max RMSD: 0.139
# Mean RMSD: 0.139
data_MOF--net-vbm--node1-BETGAK_clean_sbu_0--edge1-XUDNAN_clean_linker_2
_symmetry_space_group_name_H-M    P1
_symmetry_Int_Tables_number       1
_symmetry_cell_setting            triclinic
loop_
_symmetry_equiv_pos_as_xyz
'x, y, z'
_cell_length_a     54.829909
_cell_length_b     25.665356
_cell_length_c     56.558883
_cell_angle_alpha  90.056694
_cell_angle_beta   90.351326
_cell_angle_gamma 90.053156
loop_
_atom_site_label
_atom_site_type_symbol
_atom_site_fract_x
_atom_site_fract_y
_atom_site_fract_z
_atom_type_partial_charge
La0 La 0.14422 0.07282 0.15305 0.0
La1 La 0.11916 0.18045 0.15346 0.0
C2 C 0.15633 0.98293 0.16697 0.0
C3 C 0.15279 0.92744 0.16025 0.0
C4 C 0.15717 0.90926 0.13721 0.0
C5 C 0.15413 0.85633 0.13162 0.0
C6 C 0.14651 0.82022 0.14888 0.0
C7 C 0.14211 0.83879 0.17191 0.0
C8 C 0.14527 0.89162 0.17749 0.0
C9 C 0.14098 0.10756 0.10842 0.0
C10 C 0.08713 0.08587 0.14056 0.0
C11 C 0.10607 0.27475 0.14996 0.0
C12 C 0.11507 0.32911 0.14703 0.0
C13 C 0.11206 0.36486 0.16565 0.0
C14 C 0.11737 0.41784 0.16261 0.0
C15 C 0.12575 0.43676 0.14077 0.0
C16 C 0.12952 0.40062 0.12233 0.0
C17 C 0.12419 0.3475 0.1254 0.0
C18 C 0.11553 0.12343 0.19284 0.0
C19 C 0.1764 0.17355 0.16032 0.0
O20 O 0.16994 1.01213 0.15328 0.0
O21 O 0.13697 1.00776 0.17448 0.0
O22 O 0.15079 0.06392 0.11496 0.0
O23 O 0.13389 0.12998 0.12718 0.0
O24 O 0.10523 0.05488 0.1475 0.0
O25 O 0.08935 0.13683 0.13873 0.0
O26 O 0.11104 0.25159 0.17002 0.0
O27 O 0.10718 0.24253 0.13196 0.0
O28 O 0.09857 0.15292 0.18408 0.0
O29 O 0.13415 0.12769 0.17982 0.0
O30 O 0.15728 0.20167 0.15422 0.0
O31 O 0.17547 0.1222 0.16293 0.0
H32 H 0.16303 0.93585 0.12351 0.0
H33 H 0.15805 0.84368 0.11379 0.0
H34 H 0.13586 0.81267 0.18562 0.0
H35 H 0.14177 0.90459 0.1954 0.0
H36 H 0.10474 0.3521 0.18243 0.0
H37 H 0.1139 0.44428 0.17713 0.0
H38 H 0.13628 0.41347 0.10536 0.0
H39 H 0.12665 0.32118 0.11063 0.0
La40 La 0.85981 0.97994 0.1471 0.0
La41 La 0.88367 0.87855 0.15494 0.0
C42 C 0.84695 0.07427 0.15222 0.0
C43 C 0.85415 0.12915 0.14701 0.0
C44 C 0.84838 0.15252 0.1252 0.0
C45 C 0.85264 0.20579 0.12145 0.0
C46 C 0.86268 0.2374 0.13945 0.0
C47 C 0.86872 0.2138 0.16117 0.0
C48 C 0.86445 0.16051 0.16491 0.0
C49 C 0.86214 0.92445 0.10757 0.0
C50 C 0.91838 0.96759 0.14155 0.0
C51 C 0.89698 0.78403 0.15771 0.0
C52 C 0.88907 0.72945 0.15334 0.0
C53 C 0.89426 0.69146 0.1705 0.0
C54 C 0.88972 0.63858 0.16604 0.0
C55 C 0.87993 0.62219 0.1442 0.0
C56 C 0.87393 0.66063 0.12731 0.0
C57 C 0.87845 0.71363 0.13181 0.0
C58 C 0.88002 0.94045 0.1929 0.0
C59 C 0.82711 0.88246 0.15362 0.0
O60 O 0.83985 0.04453 0.13466 0.0
O61 O 0.86009 0.04844 0.16764 0.0
O62 O 0.84464 0.95602 0.11318 0.0
O63 O 0.87836 0.92652 0.1237 0.0
O64 O 0.8994 0.99967 0.14363 0.0
O65 O 0.91606 0.9169 0.14373 0.0
O66 O 0.88649 0.80937 0.17491 0.0
O67 O 0.90093 0.81398 0.13941 0.0
O68 O 0.89906 0.91288 0.18786 0.0
O69 O 0.86416 0.93186 0.17723 0.0
O70 O 0.84652 0.85703 0.14651 0.0
O71 O 0.82836 0.93294 0.15847 0.0
H72 H 0.83999 0.12998 0.11113 0.0
H73 H 0.84738 0.22247 0.10461 0.0
H74 H 0.87674 0.2365 0.17537 0.0
H75 H 0.86878 0.14407 0.18206 0.0
H76 H 0.9026 0.70256 0.18718 0.0
H77 H 0.89485 0.61039 0.1794 0.0
H78 H 0.86599 0.64972 0.11044 0.0
H79 H 0.87416 0.74201 0.11825 0.0
La80 La 0.14167 0.98869 0.39121 0.0
La81 La 0.11963 0.88183 0.38815 0.0
C82 C 0.15359 0.07914 0.37784 0.0
C83 C 0.14984 0.13449 0.38451 0.0
C84 C 0.15336 0.15242 0.40778 0.0
C85 C 0.15046 0.20542 0.41325 0.0
C86 C 0.14391 0.24174 0.39562 0.0
C87 C 0.14023 0.22334 0.3724 0.0
C88 C 0.14321 0.17047 0.36695 0.0
C89 C 0.13741 0.95566 0.4356 0.0
C90 C 0.08512 0.96872 0.40316 0.0
C91 C 0.10909 0.78618 0.3843 0.0
C92 C 0.11637 0.73196 0.38988 0.0
C93 C 0.11434 0.69437 0.37195 0.0
C94 C 0.11899 0.6418 0.3766 0.0
C95 C 0.12584 0.62523 0.39939 0.0
C96 C 0.12842 0.66325 0.4173 0.0
C97 C 0.12373 0.71612 0.4126 0.0
C98 C 0.11695 0.94052 0.34911 0.0
C99 C 0.17602 0.89234 0.39502 0.0
O100 O 0.16702 0.05017 0.39187 0.0
O101 O 0.13446 0.05398 0.3698 0.0
O102 O 0.14589 1.00051 0.42913 0.0
O103 O 0.13126 0.93065 0.41701 0.0
O104 O 0.10182 1.00213 0.39526 0.0
O105 O 0.0895 0.91848 0.40493 0.0
O106 O 0.12265 0.81162 0.36925 0.0
O107 O 0.10105 0.8162 0.40134 0.0
O108 O 0.09946 0.91283 0.35769 0.0
O109 O 0.13521 0.93577 0.36274 0.0
O110 O 0.15619 0.86548 0.3995 0.0
O111 O 0.17495 0.94111 0.38732 0.0
H112 H 0.15851 0.12564 0.42172 0.0
H113 H 0.15375 0.21799 0.43127 0.0
H114 H 0.13475 0.24967 0.3584 0.0
H115 H 0.14036 0.15764 0.34887 0.0
H116 H 0.10852 0.70555 0.35433 0.0
H117 H 0.11638 0.61392 0.36242 0.0
H118 H 0.13396 0.65215 0.435 0.0
H119 H 0.12549 0.74434 0.42677 0.0
La120 La 0.85749 0.0787 0.39192 0.0
La121 La 0.88421 0.18404 0.38618 0.0
C122 C 0.84273 0.98876 0.38016 0.0
C123 C 0.84724 0.93269 0.38603 0.0
C124 C 0.83626 0.90882 0.40567 0.0
C125 C 0.83946 0.85539 0.41013 0.0
C126 C 0.85369 0.82399 0.39507 0.0
C127 C 0.86463 0.84799 0.3754 0.0
C128 C 0.8614 0.90141 0.37093 0.0
C129 C 0.86868 0.11411 0.43486 0.0
C130 C 0.91619 0.0886 0.39685 0.0
C131 C 0.89759 0.27847 0.38345 0.0
C132 C 0.89041 0.33333 0.38819 0.0
C133 C 0.89931 0.37249 0.37321 0.0
C134 C 0.89363 0.42504 0.37711 0.0
C135 C 0.87881 0.44011 0.39617 0.0
C136 C 0.86962 0.40054 0.41105 0.0
C137 C 0.87534 0.34773 0.4071 0.0
C138 C 0.8786 0.12454 0.34778 0.0
C139 C 0.827 0.18116 0.39481 0.0
O140 O 0.83189 1.01813 0.39598 0.0
O141 O 0.86026 1.01388 0.36933 0.0
O142 O 0.8574 0.07079 0.43029 0.0
O143 O 0.87319 0.13603 0.41521 0.0
O144 O 0.89669 0.05868 0.39299 0.0
O145 O 0.91532 0.13994 0.39737 0.0
O146 O 0.88546 0.25392 0.36685 0.0
O147 O 0.90282 0.24794 0.4014 0.0
O148 O 0.89803 0.15116 0.3527 0.0
O149 O 0.86324 0.13254 0.3639 0.0
O150 O 0.848 0.20579 0.39731 0.0
O151 O 0.82578 0.13093 0.38921 0.0
H152 H 0.82489 0.93124 0.41751 0.0
H153 H 0.83034 0.83853 0.42522 0.0
H154 H 0.87593 0.82562 0.36349 0.0
H155 H 0.86989 0.91819 0.35545 0.0
H156 H 0.911 0.36244 0.35852 0.0
H157 H 0.90141 0.45397 0.36545 0.0
H158 H 0.8579 0.41029 0.42573 0.0
H159 H 0.8681 0.3183 0.41884 0.0
La160 La 0.88298 0.88046 0.88641 0.0
La161 La 0.86294 0.98494 0.89479 0.0
C162 C 0.89492 0.78516 0.88718 0.0
C163 C 0.88695 0.73174 0.88051 0.0
C164 C 0.8966 0.70759 0.8603 0.0
C165 C 0.89229 0.65471 0.8558 0.0
C166 C 0.87841 0.62445 0.87151 0.0
C167 C 0.86814 0.64898 0.89134 0.0
C168 C 0.87237 0.70193 0.89581 0.0
C169 C 0.8803 0.94184 0.84826 0.0
C170 C 0.82557 0.89361 0.88724 0.0
C171 C 0.85045 0.07971 0.89252 0.0
C172 C 0.85877 0.13388 0.88865 0.0
C173 C 0.85065 0.17279 0.90415 0.0
C174 C 0.85504 0.22541 0.8994 0.0
C175 C 0.86767 0.24052 0.87893 0.0
C176 C 0.87663 0.20126 0.86384 0.0
C177 C 0.8722 0.14847 0.86862 0.0
C178 C 0.86371 0.92647 0.93354 0.0
C179 C 0.92013 0.96549 0.89872 0.0
O180 O 0.90103 0.81741 0.87031 0.0
O181 O 0.88321 0.80873 0.9042 0.0
O182 O 0.89802 0.90987 0.85262 0.0
O183 O 0.86478 0.93678 0.86438 0.0
O184 O 0.84431 0.86152 0.88704 0.0
O185 O 0.82846 0.94479 0.88821 0.0
O186 O 0.85707 0.05659 0.91212 0.0
O187 O 0.85035 0.04782 0.87444 0.0
O188 O 0.84666 0.95903 0.92775 0.0
O189 O 0.88009 0.92839 0.91778 0.0
O190 O 0.90294 0.99949 0.89266 0.0
O191 O 0.91478 0.91599 0.90139 0.0
H192 H 0.90827 0.72909 0.84839 0.0
H193 H 0.90072 0.63704 0.84049 0.0
H194 H 0.8571 0.62704 0.90364 0.0
H195 H 0.86484 0.71902 0.91168 0.0
H196 H 0.84003 0.16255 0.91957 0.0
H197 H 0.84757 0.25432 0.91128 0.0
H198 H 0.88675 0.21134 0.84812 0.0
H199 H 0.87868 0.11928 0.85632 0.0
La200 La 0.1193 0.18876 0.88966 0.0
La201 La 0.14558 0.08072 0.88765 0.0
C202 C 0.10766 0.28234 0.89879 0.0
C203 C 0.1169 0.33646 0.89562 0.0
C204 C 0.12906 0.35199 0.87499 0.0
C205 C 0.13622 0.40411 0.87185 0.0
C206 C 0.13157 0.4422 0.88931 0.0
C207 C 0.1196 0.42614 0.91006 0.0
C208 C 0.11237 0.37405 0.91312 0.0
C209 C 0.11595 0.13628 0.8491 0.0
C210 C 0.17625 0.18417 0.87865 0.0
C211 C 0.1585 0.9938 0.87063 0.0
C212 C 0.15619 0.93633 0.87291 0.0
C213 C 0.14955 0.91148 0.89409 0.0
C214 C 0.1486 0.85659 0.89538 0.0
C215 C 0.15446 0.82562 0.87557 0.0
C216 C 0.16043 0.85111 0.85433 0.0
C217 C 0.16125 0.90555 0.85305 0.0
C218 C 0.14146 0.11144 0.93286 0.0
C219 C 0.08872 0.09082 0.9005 0.0
O220 O 0.1008 0.25707 0.87975 0.0
O221 O 0.11951 0.25213 0.91355 0.0
O222 O 0.09913 0.16641 0.85765 0.0
O223 O 0.13442 0.13866 0.86265 0.0
O224 O 0.15629 0.21186 0.88192 0.0
O225 O 0.17667 0.13236 0.8796 0.0
O226 O 0.17101 1.01927 0.8868 0.0
O227 O 0.13908 1.01944 0.86369 0.0
O228 O 0.15168 0.06857 0.92582 0.0
O229 O 0.13447 0.13477 0.91425 0.0
O230 O 0.10677 0.06152 0.89223 0.0
O231 O 0.09075 0.14142 0.9043 0.0
H232 H 0.13276 0.32399 0.86112 0.0
H233 H 0.14504 0.41463 0.85546 0.0
H234 H 0.11599 0.45371 0.9241 0.0
H235 H 0.10301 0.36317 0.9292 0.0
H236 H 0.14543 0.9344 0.90965 0.0
H237 H 0.14398 0.83839 0.91203 0.0
H238 H 0.16459 0.82886 0.83859 0.0
H239 H 0.16618 0.92372 0.83646 0.0
La240 La 0.88779 0.18609 0.65542 0.0
La241 La 0.85983 0.08063 0.6509 0.0
C242 C 0.90179 0.28043 0.65473 0.0
C243 C 0.89203 0.33435 0.65245 0.0
C244 C 0.86864 0.3475 0.66054 0.0
C245 C 0.86123 0.39984 0.66166 0.0
C246 C 0.87702 0.44053 0.65478 0.0
C247 C 0.89996 0.42691 0.64555 0.0
C248 C 0.90736 0.37451 0.64447 0.0
C249 C 0.88145 0.13006 0.69449 0.0
C250 C 0.82971 0.1846 0.64865 0.0
C251 C 0.84473 0.99266 0.66489 0.0
C252 C 0.84992 0.93553 0.66342 0.0
C253 C 0.84484 0.90559 0.64305 0.0
C254 C 0.84753 0.85091 0.64335 0.0
C255 C 0.85505 0.82487 0.66408 0.0
C256 C 0.86085 0.85523 0.6841 0.0
C257 C 0.85828 0.90952 0.68378 0.0
C258 C 0.87116 0.11387 0.60781 0.0
C259 C 0.91863 0.08817 0.6463 0.0
O260 O 0.89573 0.25496 0.67384 0.0
O261 O 0.9016 0.25019 0.63603 0.0
O262 O 0.90114 0.15585 0.68968 0.0
O263 O 0.86627 0.13703 0.67791 0.0
O264 O 0.85077 0.20953 0.648 0.0
O265 O 0.82817 0.13345 0.6522 0.0
O266 O 0.83579 1.01695 0.64633 0.0
O267 O 0.86071 1.02126 0.67638 0.0
O268 O 0.85963 0.07095 0.61253 0.0
O269 O 0.87591 0.13602 0.62742 0.0
O270 O 0.89891 0.05925 0.65051 0.0
O271 O 0.91817 0.13946 0.64483 0.0
H272 H 0.85639 0.31747 0.6668 0.0
H273 H 0.84327 0.40851 0.66845 0.0
H274 H 0.9127 0.45686 0.64023 0.0
H275 H 0.92554 0.36552 0.63828 0.0
H276 H 0.83822 0.92416 0.62708 0.0
H277 H 0.84278 0.82888 0.62764 0.0
H278 H 0.86705 0.83686 0.70028 0.0
H279 H 0.86224 0.93117 0.69981 0.0
La280 La 0.12344 0.88338 0.65692 0.0
La281 La 0.14396 0.99337 0.65516 0.0
C282 C 0.11217 0.78791 0.65722 0.0
C283 C 0.12111 0.73445 0.65324 0.0
C284 C 0.11086 0.69424 0.66666 0.0
C285 C 0.11772 0.64253 0.66298 0.0
C286 C 0.13507 0.62965 0.64573 0.0
C287 C 0.14568 0.67024 0.63248 0.0
C288 C 0.1388 0.72231 0.63625 0.0
C289 C 0.1181 0.94204 0.69575 0.0
C290 C 0.17987 0.89822 0.66024 0.0
C291 C 0.15512 0.08453 0.66802 0.0
C292 C 0.15273 0.13958 0.66029 0.0
C293 C 0.16598 0.15932 0.64104 0.0
C294 C 0.165 0.21242 0.63536 0.0
C295 C 0.1508 0.24714 0.64878 0.0
C296 C 0.13726 0.22703 0.66778 0.0
C297 C 0.13831 0.17403 0.6735 0.0
C298 C 0.142 0.9573 0.61074 0.0
C299 C 0.08816 0.97001 0.64187 0.0
O300 O 0.12115 0.81278 0.6755 0.0
O301 O 0.10912 0.81839 0.63886 0.0
O302 O 0.10163 0.91166 0.68681 0.0
O303 O 0.13676 0.93926 0.68284 0.0
O304 O 0.16192 0.86801 0.65299 0.0
O305 O 0.17634 0.9481 0.66533 0.0
O306 O 0.16965 0.05399 0.65594 0.0
O307 O 0.13509 0.06062 0.67452 0.0
O308 O 0.14989 1.00282 0.61708 0.0
O309 O 0.13587 0.93379 0.62951 0.0
O310 O 0.10405 1.00416 0.65077 0.0
O311 O 0.09361 0.92043 0.63923 0.0
H312 H 0.09714 0.70279 0.67982 0.0
H313 H 0.10886 0.61244 0.67325 0.0
H314 H 0.15928 0.66173 0.61922 0.0
H315 H 0.14706 0.75286 0.62579 0.0
H316 H 0.17748 0.13402 0.6306 0.0
H317 H 0.17591 0.22646 0.62079 0.0
H318 H 0.1258 0.25226 0.6783 0.0
H319 H 0.12805 0.16007 0.68854 0.0
La320 La 0.64036 0.58267 0.14652 0.0
La321 La 0.6188 0.68717 0.15193 0.0
C322 C 0.65386 0.48901 0.15173 0.0
C323 C 0.64592 0.43389 0.15352 0.0
C324 C 0.65383 0.39799 0.13645 0.0
C325 C 0.65025 0.34444 0.13961 0.0
C326 C 0.63881 0.32538 0.16004 0.0
C327 C 0.63 0.36151 0.17669 0.0
C328 C 0.63354 0.41514 0.1735 0.0
C329 C 0.63878 0.63592 0.10629 0.0
C330 C 0.58277 0.59805 0.14171 0.0
C331 C 0.60501 0.78103 0.14862 0.0
C332 C 0.61276 0.83554 0.15197 0.0
C333 C 0.6333 0.84923 0.16556 0.0
C334 C 0.63929 0.90194 0.16901 0.0
C335 C 0.62489 0.94166 0.15883 0.0
C336 C 0.60463 0.92732 0.1449 0.0
C337 C 0.59867 0.8749 0.14154 0.0
C338 C 0.62218 0.63027 0.19149 0.0
C339 C 0.67624 0.6769 0.15333 0.0
O340 O 0.65197 0.51208 0.1312 0.0
O341 O 0.64888 0.52056 0.16924 0.0
O342 O 0.65627 0.60516 0.11289 0.0
O343 O 0.62245 0.63524 0.1221 0.0
O344 O 0.60055 0.56543 0.14777 0.0
O345 O 0.5871 0.64795 0.13873 0.0
O346 O 0.60219 0.75243 0.16752 0.0
O347 O 0.61525 0.75511 0.13144 0.0
O348 O 0.60387 0.66009 0.18627 0.0
O349 O 0.63765 0.63496 0.17535 0.0
O350 O 0.65731 0.70774 0.14999 0.0
O351 O 0.67363 0.62576 0.15529 0.0
H352 H 0.66375 0.4112 0.12106 0.0
H353 H 0.65752 0.31788 0.12654 0.0
H354 H 0.62077 0.34829 0.19246 0.0
H355 H 0.6273 0.44167 0.18709 0.0
H356 H 0.64452 0.81932 0.17363 0.0
H357 H 0.65517 0.91159 0.17962 0.0
H358 H 0.59293 0.95666 0.13708 0.0
H359 H 0.58274 0.86508 0.13101 0.0
La360 La 0.35404 0.49358 0.14946 0.0
La361 La 0.37765 0.39188 0.15536 0.0
C362 C 0.34124 0.58773 0.15536 0.0
C363 C 0.34781 0.64261 0.14945 0.0
C364 C 0.34041 0.6654 0.12797 0.0
C365 C 0.34418 0.71866 0.12372 0.0
C366 C 0.35534 0.75084 0.14087 0.0
C367 C 0.36302 0.7278 0.16224 0.0
C368 C 0.35924 0.67453 0.16649 0.0
C369 C 0.35665 0.44219 0.10868 0.0
C370 C 0.41262 0.48328 0.14643 0.0
C371 C 0.39105 0.29725 0.15538 0.0
C372 C 0.38263 0.2428 0.15158 0.0
C373 C 0.3892 0.20468 0.16823 0.0
C374 C 0.38408 0.15191 0.16418 0.0
C375 C 0.37229 0.13571 0.14325 0.0
C376 C 0.36494 0.17426 0.12692 0.0
C377 C 0.37005 0.2272 0.13102 0.0
C378 C 0.37418 0.44984 0.19465 0.0
C379 C 0.32072 0.39747 0.15572 0.0
O380 O 0.33289 0.55765 0.13845 0.0
O381 O 0.35564 0.56228 0.16982 0.0
O382 O 0.33908 0.47268 0.11514 0.0
O383 O 0.37292 0.4426 0.12486 0.0
O384 O 0.39312 0.51385 0.14724 0.0
O385 O 0.41097 0.43225 0.14759 0.0
O386 O 0.38291 0.32167 0.17401 0.0
O387 O 0.39264 0.32815 0.13704 0.0
O388 O 0.39299 0.42208 0.1891 0.0
O389 O 0.35823 0.44312 0.17883 0.0
O390 O 0.33971 0.37077 0.14837 0.0
O391 O 0.32306 0.44722 0.16142 0.0
H392 H 0.33114 0.64242 0.11459 0.0
H393 H 0.33764 0.73487 0.10719 0.0
H394 H 0.37195 0.75093 0.17578 0.0
H395 H 0.36485 0.65853 0.18338 0.0
H396 H 0.39905 0.21558 0.18415 0.0
H397 H 0.39029 0.12361 0.17706 0.0
H398 H 0.35548 0.16347 0.11078 0.0
H399 H 0.36465 0.25567 0.11788 0.0
La400 La 0.64401 0.49132 0.39321 0.0
La401 La 0.62012 0.38927 0.38526 0.0
C402 C 0.65859 0.58497 0.39055 0.0
C403 C 0.65115 0.64011 0.38644 0.0
C404 C 0.64675 0.67365 0.40567 0.0
C405 C 0.64414 0.72753 0.40225 0.0
C406 C 0.64614 0.7494 0.37954 0.0
C407 C 0.64945 0.71553 0.36021 0.0
C408 C 0.65199 0.6617 0.36361 0.0
C409 C 0.64006 0.43544 0.43246 0.0
C410 C 0.58576 0.48185 0.39303 0.0
C411 C 0.60646 0.29486 0.38663 0.0
C412 C 0.61606 0.24081 0.38443 0.0
C413 C 0.62397 0.2208 0.36262 0.0
C414 C 0.63063 0.1683 0.36041 0.0
C415 C 0.62962 0.13422 0.37992 0.0
C416 C 0.62209 0.15462 0.40182 0.0
C417 C 0.61534 0.20712 0.404 0.0
C418 C 0.62473 0.44876 0.34689 0.0
C419 C 0.67823 0.39518 0.38812 0.0
O420 O 0.65187 0.56245 0.4102 0.0
O421 O 0.65809 0.55258 0.37265 0.0
O422 O 0.65842 0.46473 0.42695 0.0
O423 O 0.6241 0.43883 0.41609 0.0
O424 O 0.60515 0.51188 0.38981 0.0
O425 O 0.58758 0.4309 0.39493 0.0
O426 O 0.60581 0.32382 0.36762 0.0
O427 O 0.61297 0.32175 0.4053 0.0
O428 O 0.60609 0.41925 0.35119 0.0
O429 O 0.64024 0.44209 0.36319 0.0
O430 O 0.65843 0.36589 0.38803 0.0
O431 O 0.67712 0.44662 0.38792 0.0
H432 H 0.64638 0.65859 0.42355 0.0
H433 H 0.64182 0.75231 0.41759 0.0
H434 H 0.6507 0.7308 0.34241 0.0
H435 H 0.65558 0.6373 0.34839 0.0
H436 H 0.62452 0.24535 0.34707 0.0
H437 H 0.63595 0.15415 0.34316 0.0
H438 H 0.62138 0.13003 0.41735 0.0
H439 H 0.60914 0.22121 0.421 0.0
La440 La 0.35838 0.57973 0.39893 0.0
La441 La 0.37886 0.68371 0.391 0.0
C442 C 0.34586 0.48488 0.3964 0.0
C443 C 0.35409 0.43085 0.39174 0.0
C444 C 0.34884 0.39219 0.4085 0.0
C445 C 0.35314 0.33959 0.40356 0.0
C446 C 0.36279 0.32416 0.38165 0.0
C447 C 0.36886 0.36319 0.36515 0.0
C448 C 0.36453 0.41597 0.37012 0.0
C449 C 0.35968 0.63641 0.43828 0.0
C450 C 0.41569 0.59814 0.40204 0.0
C451 C 0.39098 0.77897 0.39247 0.0
C452 C 0.38316 0.83263 0.38601 0.0
C453 C 0.38985 0.85479 0.36426 0.0
C454 C 0.38559 0.90769 0.35966 0.0
C455 C 0.37474 0.93993 0.37679 0.0
C456 C 0.36746 0.91738 0.39828 0.0
C457 C 0.37167 0.86451 0.40285 0.0
C458 C 0.37573 0.62324 0.35244 0.0
C459 C 0.32144 0.67198 0.39219 0.0
O460 O 0.35348 0.50738 0.41583 0.0
O461 O 0.34464 0.51751 0.37865 0.0
O462 O 0.34252 0.60427 0.43226 0.0
O463 O 0.37596 0.63534 0.42234 0.0
O464 O 0.39829 0.56484 0.39569 0.0
O465 O 0.4105 0.64737 0.40567 0.0
O466 O 0.39739 0.74698 0.37558 0.0
O467 O 0.37888 0.75511 0.40914 0.0
O468 O 0.39361 0.65483 0.35696 0.0
O469 O 0.36028 0.62833 0.36865 0.0
O470 O 0.3404 0.70332 0.39102 0.0
O471 O 0.32378 0.62079 0.39399 0.0
H472 H 0.34051 0.40253 0.42518 0.0
H473 H 0.34789 0.31087 0.41659 0.0
H474 H 0.37665 0.35292 0.34823 0.0
H475 H 0.36874 0.44487 0.3568 0.0
H476 H 0.39912 0.83171 0.35104 0.0
H477 H 0.39168 0.92375 0.34301 0.0
H478 H 0.35875 0.94077 0.41175 0.0
H479 H 0.36655 0.849 0.41993 0.0
La480 La 0.38085 0.38139 0.88891 0.0
La481 La 0.36036 0.49262 0.88943 0.0
C482 C 0.39072 0.28535 0.89083 0.0
C483 C 0.38015 0.23329 0.89603 0.0
C484 C 0.36881 0.20404 0.87799 0.0
C485 C 0.36238 0.15192 0.88169 0.0
C486 C 0.36717 0.12762 0.9035 0.0
C487 C 0.37761 0.15743 0.92185 0.0
C488 C 0.38414 0.20957 0.91811 0.0
C489 C 0.38649 0.43813 0.84963 0.0
C490 C 0.32449 0.39717 0.88424 0.0
C491 C 0.34912 0.58251 0.87505 0.0
C492 C 0.35124 0.63772 0.88189 0.0
C493 C 0.35794 0.65281 0.90488 0.0
C494 C 0.35913 0.70579 0.91092 0.0
C495 C 0.35369 0.74456 0.89404 0.0
C496 C 0.34722 0.72891 0.87098 0.0
C497 C 0.34603 0.67609 0.865 0.0
C498 C 0.36151 0.45672 0.93387 0.0
C499 C 0.41617 0.46919 0.90315 0.0
O500 O 0.38298 0.30922 0.87175 0.0
O501 O 0.39442 0.31774 0.90845 0.0
O502 O 0.40261 0.40682 0.85848 0.0
O503 O 0.36787 0.43651 0.86262 0.0
O504 O 0.34217 0.36715 0.89217 0.0
O505 O 0.32824 0.44682 0.87882 0.0
O506 O 0.33479 0.55327 0.88797 0.0
O507 O 0.36941 0.55866 0.86938 0.0
O508 O 0.35363 0.5023 0.92761 0.0
O509 O 0.36791 0.43375 0.9151 0.0
O510 O 0.40028 0.50323 0.89417 0.0
O511 O 0.41072 0.41963 0.90609 0.0
H512 H 0.36563 0.22078 0.86067 0.0
H513 H 0.35405 0.13031 0.8673 0.0
H514 H 0.38174 0.13983 0.9388 0.0
H515 H 0.39317 0.23067 0.93227 0.0
H516 H 0.36213 0.62367 0.91814 0.0
H517 H 0.36447 0.71637 0.92875 0.0
H518 H 0.34256 0.75746 0.85761 0.0
H519 H 0.34078 0.66515 0.84717 0.0
La520 La 0.61535 0.6865 0.88603 0.0
La521 La 0.64442 0.58136 0.88966 0.0
C522 C 0.60129 0.78052 0.88943 0.0
C523 C 0.61063 0.83502 0.88646 0.0
C524 C 0.61039 0.85898 0.86408 0.0
C525 C 0.61723 0.91129 0.86139 0.0
C526 C 0.62449 0.94175 0.88096 0.0
C527 C 0.62463 0.91795 0.90341 0.0
C528 C 0.61779 0.86535 0.90611 0.0
C529 C 0.6221 0.63203 0.84649 0.0
C530 C 0.6739 0.68712 0.88873 0.0
C531 C 0.65931 0.49362 0.87517 0.0
C532 C 0.65415 0.43644 0.87633 0.0
C533 C 0.65798 0.40654 0.89693 0.0
C534 C 0.65533 0.35183 0.89643 0.0
C535 C 0.64911 0.32574 0.87528 0.0
C536 C 0.64452 0.3561 0.85501 0.0
C537 C 0.64705 0.41041 0.85552 0.0
C538 C 0.63451 0.61617 0.93286 0.0
C539 C 0.58576 0.58729 0.89632 0.0
O540 O 0.59894 0.75195 0.87036 0.0
O541 O 0.60933 0.75297 0.90735 0.0
O542 O 0.60249 0.65827 0.85115 0.0
O543 O 0.63706 0.63853 0.86326 0.0
O544 O 0.65279 0.71191 0.88827 0.0
O545 O 0.67567 0.6354 0.88734 0.0
O546 O 0.66834 0.51751 0.89383 0.0
O547 O 0.6433 0.52243 0.8639 0.0
O548 O 0.64692 0.57429 0.92823 0.0
O549 O 0.62838 0.63594 0.91315 0.0
O550 O 0.60541 0.55892 0.89119 0.0
O551 O 0.58613 0.63851 0.89831 0.0
H552 H 0.60451 0.83756 0.84855 0.0
H553 H 0.61634 0.92815 0.84386 0.0
H554 H 0.63023 0.93983 0.9189 0.0
H555 H 0.61784 0.84858 0.92368 0.0
H556 H 0.66359 0.42517 0.91327 0.0
H557 H 0.65911 0.3298 0.91236 0.0
H558 H 0.63932 0.33772 0.83848 0.0
H559 H 0.64404 0.43208 0.83933 0.0
La560 La 0.38413 0.69231 0.65801 0.0
La561 La 0.36091 0.58934 0.65451 0.0
C562 C 0.39736 0.78695 0.65686 0.0
C563 C 0.38874 0.84125 0.65321 0.0
C564 C 0.39236 0.87809 0.67129 0.0
C565 C 0.38775 0.93108 0.66738 0.0
C566 C 0.3795 0.94873 0.64518 0.0
C567 C 0.37496 0.91148 0.62735 0.0
C568 C 0.37955 0.8584 0.63129 0.0
C569 C 0.3872 0.63432 0.69708 0.0
C570 C 0.3278 0.68525 0.66307 0.0
C571 C 0.34895 0.49505 0.66134 0.0
C572 C 0.35564 0.44053 0.65524 0.0
C573 C 0.35163 0.41998 0.63248 0.0
C574 C 0.35569 0.367 0.62785 0.0
C575 C 0.36379 0.3331 0.64584 0.0
C576 C 0.36815 0.35402 0.6685 0.0
C577 C 0.36406 0.40694 0.67313 0.0
C578 C 0.36036 0.64108 0.6134 0.0
C579 C 0.41847 0.60247 0.64452 0.0
O580 O 0.39048 0.76296 0.67608 0.0
O581 O 0.39789 0.75556 0.63862 0.0
O582 O 0.40444 0.6632 0.6887 0.0
O583 O 0.36862 0.63908 0.68385 0.0
O584 O 0.34599 0.71203 0.65426 0.0
O585 O 0.33026 0.63524 0.66822 0.0
O586 O 0.33956 0.52452 0.64479 0.0
O587 O 0.36398 0.52108 0.67498 0.0
O588 O 0.34349 0.60962 0.62067 0.0
O589 O 0.37726 0.64044 0.62871 0.0
O590 O 0.40023 0.57018 0.64958 0.0
O591 O 0.41545 0.6533 0.64429 0.0
H592 H 0.39969 0.86612 0.68827 0.0
H593 H 0.39172 0.95846 0.68147 0.0
H594 H 0.36825 0.92345 0.61015 0.0
H595 H 0.37657 0.83111 0.61694 0.0
H596 H 0.34485 0.44451 0.61833 0.0
H597 H 0.35181 0.35237 0.61026 0.0
H598 H 0.37474 0.3295 0.68273 0.0
H599 H 0.36707 0.42146 0.69091 0.0
La600 La 0.62159 0.38708 0.65364 0.0
La601 La 0.64529 0.48953 0.64664 0.0
C602 C 0.60804 0.29254 0.65301 0.0
C603 C 0.61679 0.23856 0.6482 0.0
C604 C 0.62666 0.20759 0.66643 0.0
C605 C 0.63213 0.15484 0.66257 0.0
C606 C 0.62779 0.13151 0.6404 0.0
C607 C 0.61828 0.1628 0.62209 0.0
C608 C 0.61279 0.21545 0.62595 0.0
C609 C 0.62611 0.4458 0.69231 0.0
C610 C 0.67908 0.39369 0.65143 0.0
C611 C 0.65891 0.58323 0.65222 0.0
C612 C 0.65178 0.63844 0.64853 0.0
C613 C 0.64281 0.65663 0.62672 0.0
C614 C 0.63917 0.71016 0.62298 0.0
C615 C 0.64444 0.74677 0.64094 0.0
C616 C 0.65252 0.72805 0.66301 0.0
C617 C 0.65617 0.67461 0.66671 0.0
C618 C 0.64123 0.43548 0.6067 0.0
C619 C 0.58672 0.47951 0.64473 0.0
O620 O 0.61649 0.31642 0.67179 0.0
O621 O 0.60567 0.32443 0.63506 0.0
O622 O 0.60733 0.41699 0.68746 0.0
O623 O 0.6417 0.43945 0.67625 0.0
O624 O 0.65951 0.36523 0.64712 0.0
O625 O 0.67745 0.4442 0.65567 0.0
O626 O 0.66385 0.55501 0.63358 0.0
O627 O 0.64712 0.5566 0.66822 0.0
O628 O 0.65912 0.46632 0.61225 0.0
O629 O 0.62555 0.43756 0.62315 0.0
O630 O 0.60629 0.50997 0.64495 0.0
O631 O 0.58823 0.42844 0.64636 0.0
H632 H 0.6297 0.22377 0.6839 0.0
H633 H 0.63968 0.13228 0.67703 0.0
H634 H 0.61431 0.14623 0.60488 0.0
H635 H 0.60476 0.23768 0.61162 0.0
H636 H 0.63916 0.62969 0.61237 0.0
H637 H 0.63252 0.72292 0.60588 0.0
H638 H 0.65701 0.75483 0.6772 0.0
H639 H 0.66325 0.66164 0.68364 0.0
H640 H 0.22361 0.16458 0.14336 0.0
H641 H 0.17762 0.25362 0.19057 0.0
H642 H 0.21016 0.31884 0.19566 0.0
H643 H 0.28309 0.19595 0.17435 0.0
H644 H 0.29939 0.20054 0.14685 0.0
H645 H 0.27379 0.15681 0.14938 0.0
H646 H 0.25346 0.20118 0.11319 0.0
H647 H 0.27874 0.24563 0.11083 0.0
H648 H 0.24817 0.2705 0.1137 0.0
H649 H 0.24472 0.38017 0.19164 0.0
H650 H 0.28213 0.42954 0.18244 0.0
H651 H 0.30699 0.30152 0.1385 0.0
C652 C 0.22091 0.19672 0.15547 0.0
C653 C 0.19829 0.20384 0.16687 0.0
C654 C 0.19496 0.24734 0.18192 0.0
C655 C 0.21328 0.28469 0.18486 0.0
C656 C 0.23499 0.27801 0.17268 0.0
C657 C 0.23919 0.23475 0.15863 0.0
C658 C 0.26378 0.23916 0.14653 0.0
C659 C 0.28103 0.19553 0.15478 0.0
C660 C 0.26085 0.23912 0.11946 0.0
C661 C 0.27224 0.29202 0.15554 0.0
C662 C 0.25531 0.31366 0.17057 0.0
C663 C 0.25835 0.36333 0.18019 0.0
C664 C 0.27955 0.3913 0.1747 0.0
C665 C 0.29751 0.36944 0.15983 0.0
C666 C 0.29367 0.31918 0.15008 0.0
H667 H 0.77779 0.902 0.14505 0.0
H668 H 0.82836 0.78857 0.17414 0.0
H669 H 0.795 0.72574 0.17882 0.0
H670 H 0.72456 0.86337 0.18255 0.0
H671 H 0.70291 0.8724 0.1588 0.0
H672 H 0.73022 0.91152 0.16005 0.0
H673 H 0.74125 0.8816 0.1177 0.0
H674 H 0.71415 0.84202 0.11643 0.0
H675 H 0.74356 0.81293 0.11134 0.0
H676 H 0.75801 0.67163 0.17666 0.0
H677 H 0.71771 0.63093 0.17045 0.0
H678 H 0.68984 0.77771 0.14329 0.0
C679 C 0.78156 0.86449 0.15301 0.0
C680 C 0.80562 0.85015 0.15928 0.0
C681 C 0.81005 0.80027 0.16915 0.0
C682 C 0.79123 0.76424 0.17193 0.0
C683 C 0.7679 0.77852 0.16485 0.0
C684 C 0.76278 0.82752 0.15587 0.0
C685 C 0.73613 0.83108 0.14851 0.0
C686 C 0.72266 0.87202 0.16337 0.0
C687 C 0.73364 0.84258 0.12191 0.0
C688 C 0.72748 0.77628 0.15431 0.0
C689 C 0.74615 0.7468 0.16377 0.0
C690 C 0.74308 0.69442 0.16955 0.0
C691 C 0.72017 0.67153 0.16582 0.0
C692 C 0.70059 0.70103 0.15647 0.0
C693 C 0.70439 0.75415 0.15066 0.0
H694 H 0.30456 0.75674 0.36763 0.0
H695 H 0.2846 0.6444 0.42142 0.0
H696 H 0.24751 0.69546 0.43012 0.0
H697 H 0.28358 0.87147 0.3964 0.0
H698 H 0.27122 0.90178 0.37021 0.0
H699 H 0.29638 0.85699 0.36786 0.0
H700 H 0.27186 0.80017 0.33821 0.0
H701 H 0.24687 0.84548 0.34001 0.0
H702 H 0.24189 0.7774 0.34615 0.0
H703 H 0.21541 0.76145 0.43556 0.0
H704 H 0.1831 0.8266 0.43113 0.0
H705 H 0.22046 0.89364 0.37086 0.0
C706 C 0.29208 0.74255 0.38093 0.0
C707 C 0.29727 0.69661 0.39387 0.0
C708 C 0.2807 0.67905 0.41115 0.0
C709 C 0.25982 0.70818 0.4164 0.0
C710 C 0.25562 0.75415 0.40388 0.0
C711 C 0.27076 0.77045 0.38596 0.0
C712 C 0.26106 0.81982 0.37436 0.0
C713 C 0.27914 0.86519 0.37739 0.0
C714 C 0.25505 0.81013 0.34813 0.0
C715 C 0.23809 0.82882 0.3887 0.0
C716 C 0.23587 0.79098 0.40599 0.0
C717 C 0.2167 0.79072 0.42186 0.0
C718 C 0.19849 0.82816 0.41921 0.0
C719 C 0.19909 0.86486 0.40046 0.0
C720 C 0.21962 0.86643 0.38545 0.0
H721 H 0.77899 0.16756 0.37827 0.0
H722 H 0.82528 0.2695 0.42057 0.0
H723 H 0.79252 0.33353 0.42284 0.0
H724 H 0.74967 0.2658 0.34501 0.0
H725 H 0.71957 0.23751 0.34535 0.0
H726 H 0.74602 0.19625 0.34776 0.0
H727 H 0.72971 0.15776 0.38691 0.0
H728 H 0.70302 0.19838 0.38439 0.0
H729 H 0.72165 0.20104 0.41074 0.0
H730 H 0.75771 0.39148 0.41709 0.0
H731 H 0.71864 0.43546 0.40912 0.0
H732 H 0.69189 0.29665 0.37341 0.0
C733 C 0.78195 0.20279 0.38844 0.0
C734 C 0.80496 0.21357 0.3989 0.0
C735 C 0.80808 0.26041 0.41198 0.0
C736 C 0.78953 0.29728 0.41346 0.0
C737 C 0.76755 0.28677 0.40219 0.0
C738 C 0.76325 0.24033 0.39044 0.0
C739 C 0.73759 0.23999 0.37998 0.0
C740 C 0.73827 0.23457 0.35292 0.0
C741 C 0.72208 0.19672 0.39118 0.0
C742 C 0.72866 0.29379 0.38733 0.0
C743 C 0.74647 0.32003 0.39991 0.0
C744 C 0.74339 0.37117 0.40758 0.0
C745 C 0.72122 0.39603 0.40277 0.0
C746 C 0.70225 0.36955 0.3907 0.0
C747 C 0.70606 0.31772 0.38282 0.0
H748 H 0.72329 0.66866 0.87814 0.0
H749 H 0.67337 0.78546 0.9056 0.0
H750 H 0.70615 0.84932 0.90685 0.0
H751 H 0.77581 0.71229 0.91432 0.0
H752 H 0.79779 0.70056 0.89136 0.0
H753 H 0.77041 0.66182 0.89271 0.0
H754 H 0.76006 0.68738 0.84951 0.0
H755 H 0.78729 0.72661 0.84815 0.0
H756 H 0.75802 0.75532 0.84166 0.0
H757 H 0.7425 0.9034 0.90326 0.0
H758 H 0.78331 0.9425 0.89931 0.0
H759 H 0.8118 0.79303 0.8762 0.0
C760 C 0.71942 0.70745 0.88464 0.0
C761 C 0.69549 0.72183 0.89131 0.0
C762 C 0.69128 0.7732 0.89983 0.0
C763 C 0.70984 0.81016 0.90072 0.0
C764 C 0.73287 0.79556 0.89337 0.0
C765 C 0.73804 0.74543 0.88589 0.0
C766 C 0.76482 0.74102 0.87934 0.0
C767 C 0.77798 0.70158 0.89539 0.0
C768 C 0.76771 0.72674 0.8531 0.0
C769 C 0.77348 0.79642 0.88421 0.0
C770 C 0.75458 0.82711 0.89208 0.0
C771 C 0.75761 0.87982 0.89728 0.0
C772 C 0.78082 0.90179 0.89484 0.0
C773 C 0.80075 0.87097 0.88749 0.0
C774 C 0.79692 0.81762 0.88194 0.0
H775 H 0.30919 0.30152 0.89979 0.0
H776 H 0.2854 0.4359 0.85914 0.0
H777 H 0.24649 0.39091 0.8502 0.0
H778 H 0.28233 0.20237 0.86243 0.0
H779 H 0.27359 0.16136 0.88681 0.0
H780 H 0.29987 0.20323 0.88949 0.0
H781 H 0.28162 0.24585 0.92694 0.0
H782 H 0.25547 0.20369 0.92458 0.0
H783 H 0.25139 0.27334 0.92562 0.0
H784 H 0.21039 0.33241 0.84612 0.0
H785 H 0.17727 0.26853 0.85042 0.0
H786 H 0.224 0.17143 0.89409 0.0
C787 C 0.29585 0.32164 0.88896 0.0
C788 C 0.30041 0.37235 0.88007 0.0
C789 C 0.28232 0.39725 0.86619 0.0
C790 C 0.26026 0.3718 0.86087 0.0
C791 C 0.25659 0.32154 0.86961 0.0
C792 C 0.27375 0.29693 0.88358 0.0
C793 C 0.26481 0.24386 0.89168 0.0
C794 C 0.28112 0.20013 0.88202 0.0
C795 C 0.26322 0.24158 0.91881 0.0
C796 C 0.2397 0.2426 0.88029 0.0
C797 C 0.23556 0.28766 0.8674 0.0
C798 C 0.21347 0.29695 0.85604 0.0
C799 C 0.19479 0.2603 0.85857 0.0
C800 C 0.19814 0.21484 0.87245 0.0
C801 C 0.22113 0.20518 0.88295 0.0
H802 H 0.69175 0.29172 0.66109 0.0
H803 H 0.72111 0.44023 0.63795 0.0
H804 H 0.76137 0.39962 0.63256 0.0
H805 H 0.74564 0.25418 0.69473 0.0
H806 H 0.74327 0.18594 0.68749 0.0
H807 H 0.71621 0.2256 0.68865 0.0
H808 H 0.70522 0.19809 0.64587 0.0
H809 H 0.73238 0.1587 0.64446 0.0
H810 H 0.727 0.20844 0.62257 0.0
H811 H 0.79709 0.3446 0.62782 0.0
H812 H 0.82984 0.28095 0.62953 0.0
H813 H 0.78025 0.16618 0.65929 0.0
C814 C 0.70673 0.31551 0.65491 0.0
C815 C 0.70336 0.36915 0.64982 0.0
C816 C 0.72334 0.39927 0.64204 0.0
C817 C 0.74621 0.37644 0.63875 0.0
C818 C 0.74891 0.32358 0.64368 0.0
C819 C 0.72998 0.2935 0.65204 0.0
C820 C 0.7386 0.23818 0.65722 0.0
C821 C 0.73577 0.22522 0.68359 0.0
C822 C 0.72499 0.19851 0.64159 0.0
C823 C 0.76535 0.24211 0.65037 0.0
C824 C 0.77048 0.29173 0.64225 0.0
C825 C 0.79344 0.30584 0.63445 0.0
C826 C 0.812 0.269 0.63563 0.0
C827 C 0.80794 0.2184 0.64507 0.0
C828 C 0.78403 0.20438 0.65208 0.0
H829 H 0.19475 0.80245 0.64448 0.0
H830 H 0.21953 0.93721 0.68448 0.0
H831 H 0.25859 0.89231 0.69269 0.0
H832 H 0.22214 0.7036 0.68127 0.0
H833 H 0.23042 0.66243 0.65676 0.0
H834 H 0.20417 0.70436 0.65446 0.0
H835 H 0.22184 0.74675 0.61676 0.0
H836 H 0.24796 0.7045 0.61869 0.0
H837 H 0.25213 0.77413 0.61758 0.0
H838 H 0.29489 0.83394 0.6959 0.0
H839 H 0.32787 0.76974 0.69085 0.0
H840 H 0.27982 0.67209 0.64879 0.0
C841 C 0.20835 0.82266 0.65502 0.0
C842 C 0.20402 0.87346 0.66394 0.0
C843 C 0.22244 0.8985 0.67741 0.0
C844 C 0.24459 0.8731 0.68231 0.0
C845 C 0.24803 0.82276 0.67356 0.0
C846 C 0.23055 0.79802 0.65996 0.0
C847 C 0.23925 0.74486 0.65174 0.0
C848 C 0.22303 0.70124 0.66166 0.0
C849 C 0.24037 0.74245 0.62459 0.0
C850 C 0.26455 0.74358 0.66273 0.0
C851 C 0.26906 0.78882 0.67542 0.0
C852 C 0.29148 0.79824 0.68623 0.0
C853 C 0.31004 0.76144 0.68336 0.0
C854 C 0.30615 0.71564 0.66987 0.0
C855 C 0.28296 0.70599 0.65981 0.0
H856 H 0.15249 0.97487 0.31622 0.0
H857 H 0.07498 0.97783 0.33125 0.0
H858 H 0.06726 1.02318 0.29374 0.0
H859 H 0.15497 0.10305 0.28639 0.0
H860 H 0.17627 0.0824 0.26412 0.0
H861 H 0.17652 0.05192 0.29283 0.0
H862 H 0.17113 0.96171 0.27306 0.0
H863 H 0.17068 0.99194 0.2443 0.0
H864 H 0.14572 0.95087 0.25326 0.0
H865 H 0.06675 0.0653 0.25457 0.0
H866 H 0.07358 0.10562 0.21586 0.0
H867 H 0.15134 0.07732 0.22282 0.0
C868 C 0.13398 0.98584 0.31171 0.0
C869 C 0.1143 0.97272 0.32699 0.0
C870 C 0.09036 0.98715 0.32008 0.0
C871 C 0.08575 1.01302 0.29868 0.0
C872 C 0.10522 1.0244 0.28383 0.0
C873 C 0.12892 1.01162 0.28991 0.0
C874 C 0.14615 1.02795 0.26996 0.0
C875 C 0.16457 0.06876 0.27886 0.0
C876 C 0.1592 0.98027 0.25953 0.0
C877 C 0.12837 0.0517 0.25193 0.0
C878 C 0.10489 0.04895 0.26057 0.0
C879 C 0.08507 0.06782 0.24767 0.0
C880 C 0.08919 0.09074 0.22554 0.0
C881 C 0.11296 0.09502 0.21601 0.0
C882 C 0.1329 0.07462 0.22943 0.0
H883 H 0.91245 0.08828 0.31558 0.0
H884 H 0.83478 0.09304 0.32925 0.0
H885 H 0.82687 0.04796 0.29125 0.0
H886 H 0.90972 0.10782 0.25267 0.0
H887 H 0.93383 0.06251 0.24601 0.0
H888 H 0.9335 0.0956 0.27412 0.0
H889 H 0.93482 1.00693 0.29583 0.0
H890 H 0.93527 0.97355 0.26779 0.0
H891 H 0.91206 0.95828 0.28914 0.0
H892 H 0.82725 1.00705 0.25029 0.0
H893 H 0.83592 0.96459 0.21202 0.0
H894 H 0.91352 0.97889 0.2257 0.0
C895 C 0.89378 0.07969 0.31057 0.0
C896 C 0.87418 0.09467 0.3254 0.0
C897 C 0.85007 0.08216 0.31827 0.0
C898 C 0.84541 0.05664 0.29663 0.0
C899 C 0.86507 0.04289 0.28231 0.0
C900 C 0.88883 0.0532 0.28916 0.0
C901 C 0.90667 1.03264 0.2708 0.0
C902 C 0.92182 0.07732 0.26028 0.0
C903 C 0.92318 0.99033 0.28153 0.0
C904 C 0.88926 1.00972 0.25243 0.0
C905 C 0.86533 1.01669 0.25933 0.0
C906 C 0.84594 1.00087 0.24491 0.0
C907 C 0.85105 0.97685 0.22311 0.0
C908 C 0.87538 0.9678 0.21585 0.0
C909 C 0.89472 0.98463 0.23082 0.0
H910 H 0.91489 0.08878 0.72634 0.0
H911 H 0.83726 0.105 0.71343 0.0
H912 H 0.82876 0.06033 0.75126 0.0
H913 H 0.91079 0.95839 0.75178 0.0
H914 H 0.93489 0.96923 0.77304 0.0
H915 H 0.93496 1.00374 0.74531 0.0
H916 H 0.93703 0.09154 0.7678 0.0
H917 H 0.93689 0.05732 0.7956 0.0
H918 H 0.91419 0.10639 0.7896 0.0
H919 H 0.82867 1.01849 0.79194 0.0
H920 H 0.83672 0.97339 0.82979 0.0
H921 H 0.91428 0.97604 0.81539 0.0
C922 C 0.89611 0.08288 0.73152 0.0
C923 C 0.8767 0.10093 0.71694 0.0
C924 C 0.85241 0.09177 0.72424 0.0
C925 C 0.84741 0.0665 0.74578 0.0
C926 C 0.86688 0.04955 0.75983 0.0
C927 C 0.89077 0.05655 0.75282 0.0
C928 C 0.90827 1.03261 0.77083 0.0
C929 C 0.92311 0.98836 0.75957 0.0
C930 C 0.92509 0.07447 0.78159 0.0
C931 C 0.89055 1.01161 0.78917 0.0
C932 C 0.86677 1.02252 0.78258 0.0
C933 C 0.84721 1.0092 0.79707 0.0
C934 C 0.85198 0.98365 0.81863 0.0
C935 C 0.87608 0.97051 0.82554 0.0
C936 C 0.89562 0.98485 0.8105 0.0
H937 H 0.15151 0.09034 0.81964 0.0
H938 H 0.07356 0.11413 0.8268 0.0
H939 H 0.06649 0.06913 0.78897 0.0
H940 H 0.15334 0.11106 0.75603 0.0
H941 H 0.1758 0.06145 0.75036 0.0
H942 H 0.17532 0.09413 0.77858 0.0
H943 H 0.17178 1.0053 0.79991 0.0
H944 H 0.17241 0.97235 0.77175 0.0
H945 H 0.14752 0.96124 0.7918 0.0
H946 H 0.067 1.02168 0.75061 0.0
H947 H 0.07516 0.97418 0.71365 0.0
H948 H 0.15287 0.98156 0.72814 0.0
C949 C 0.13298 0.08567 0.81327 0.0
C950 C 0.11305 0.10595 0.82645 0.0
C951 C 0.08915 0.09926 0.81724 0.0
C952 C 0.08491 0.07362 0.79565 0.0
C953 C 0.10474 0.05473 0.78298 0.0
C954 C 0.12836 0.0603 0.79131 0.0
C955 C 0.14622 0.03656 0.7736 0.0
C956 C 0.16371 0.0783 0.76408 0.0
C957 C 0.16032 0.99117 0.78494 0.0
C958 C 0.12893 1.0171 0.75413 0.0
C959 C 0.10508 1.02796 0.76018 0.0
C960 C 0.08561 1.01315 0.74568 0.0
C961 C 0.09045 0.98609 0.72461 0.0
C962 C 0.11461 0.97418 0.71771 0.0
C963 C 0.13419 0.99053 0.73268 0.0
H964 H 0.59058 0.48288 0.31408 0.0
H965 H 0.66827 0.48138 0.32875 0.0
H966 H 0.67583 0.52638 0.29082 0.0
H967 H 0.59357 0.46337 0.25103 0.0
H968 H 0.56909 0.50774 0.24413 0.0
H969 H 0.56967 0.47458 0.27219 0.0
H970 H 0.56754 0.56317 0.29399 0.0
H971 H 0.56687 0.59659 0.26599 0.0
H972 H 0.5899 0.61269 0.28768 0.0
H973 H 0.67519 0.56659 0.24983 0.0
H974 H 0.6663 0.60821 0.21136 0.0
H975 H 0.58877 0.59204 0.22409 0.0
C976 C 0.60918 0.49209 0.30928 0.0
C977 C 0.62889 0.47806 0.32439 0.0
C978 C 0.6529 0.49149 0.31755 0.0
C979 C 0.65736 0.51697 0.29595 0.0
C980 C 0.63761 0.52985 0.28137 0.0
C981 C 0.61393 0.51866 0.28791 0.0
C982 C 0.59595 0.53859 0.26932 0.0
C983 C 0.5812 0.49337 0.25853 0.0
C984 C 0.57907 0.58024 0.27988 0.0
C985 C 0.6132 0.56223 0.25121 0.0
C986 C 0.63717 0.55602 0.25842 0.0
C987 C 0.65647 0.57225 0.24423 0.0
C988 C 0.65123 0.5958 0.22232 0.0
C989 C 0.62686 0.60413 0.21474 0.0
C990 C 0.60759 0.58702 0.2295 0.0
H991 H 0.40925 0.59082 0.31869 0.0
H992 H 0.33186 0.5933 0.33389 0.0
H993 H 0.32326 0.55134 0.29537 0.0
H994 H 0.40523 0.61412 0.2558 0.0
H995 H 0.42918 0.56921 0.24816 0.0
H996 H 0.42944 0.60074 0.27664 0.0
H997 H 0.43123 0.51087 0.29728 0.0
H998 H 0.43106 0.47907 0.26886 0.0
H999 H 0.40832 0.46261 0.29049 0.0
H1000 H 0.32272 0.51347 0.25389 0.0
H1001 H 0.3305 0.4731 0.21496 0.0
H1002 H 0.40838 0.48652 0.22723 0.0
C1003 C 0.39051 0.58254 0.31385 0.0
C1004 C 0.37118 0.59602 0.32933 0.0
C1005 C 0.34697 0.58369 0.32243 0.0
C1006 C 0.34189 0.55991 0.30048 0.0
C1007 C 0.36124 0.54748 0.28557 0.0
C1008 C 0.38513 0.55752 0.2921 0.0
C1009 C 0.40255 0.53797 0.27312 0.0
C1010 C 0.41748 0.58321 0.26282 0.0
C1011 C 0.41928 0.49508 0.28303 0.0
C1012 C 0.38475 0.51602 0.2548 0.0
C1013 C 0.36099 0.52262 0.26226 0.0
C1014 C 0.34127 0.50757 0.24806 0.0
C1015 C 0.34587 0.48474 0.22587 0.0
C1016 C 0.37002 0.476 0.21801 0.0
C1017 C 0.3897 0.49203 0.2328 0.0
H1018 H 0.35168 0.48657 0.82002 0.0
H1019 H 0.42928 0.45827 0.8281 0.0
H1020 H 0.43695 0.50355 0.79053 0.0
H1021 H 0.34978 0.46659 0.75633 0.0
H1022 H 0.32785 0.51732 0.75051 0.0
H1023 H 0.32791 0.48428 0.77862 0.0
H1024 H 0.3323 0.57266 0.80028 0.0
H1025 H 0.33211 0.60599 0.77224 0.0
H1026 H 0.35705 0.61567 0.7927 0.0
H1027 H 0.437 0.55124 0.75238 0.0
H1028 H 0.4295 0.59941 0.71548 0.0
H1029 H 0.35168 0.5966 0.7289 0.0
C1030 C 0.37027 0.49033 0.81391 0.0
C1031 C 0.38994 0.46871 0.82724 0.0
C1032 C 0.41392 0.4742 0.81839 0.0
C1033 C 0.41848 0.49996 0.79697 0.0
C1034 C 0.39887 0.5201 0.78412 0.0
C1035 C 0.3752 0.51572 0.79212 0.0
C1036 C 0.35761 0.54053 0.77425 0.0
C1037 C 0.33972 0.49974 0.76435 0.0
C1038 C 0.34396 0.58644 0.78554 0.0
C1039 C 0.37515 0.55937 0.7551 0.0
C1040 C 0.39885 0.54712 0.76142 0.0
C1041 C 0.41851 0.56091 0.74724 0.0
C1042 C 0.41403 0.58839 0.72621 0.0
C1043 C 0.39004 0.60185 0.71903 0.0
C1044 C 0.37023 0.58652 0.73367 0.0
H1045 H 0.58932 0.59156 0.81372 0.0
H1046 H 0.66666 0.60807 0.82821 0.0
H1047 H 0.676 0.5643 0.79034 0.0
H1048 H 0.59412 0.46183 0.78783 0.0
H1049 H 0.57041 0.47279 0.76618 0.0
H1050 H 0.56976 0.50686 0.79404 0.0
H1051 H 0.56803 0.59498 0.77187 0.0
H1052 H 0.56876 0.5612 0.74395 0.0
H1053 H 0.59128 0.6104 0.75058 0.0
H1054 H 0.67697 0.52265 0.74948 0.0
H1055 H 0.66961 0.47753 0.71139 0.0
H1056 H 0.5918 0.4804 0.72442 0.0
C1057 C 0.60821 0.58598 0.80886 0.0
C1058 C 0.62729 0.6038 0.8239 0.0
C1059 C 0.65175 0.59501 0.81703 0.0
C1060 C 0.65723 0.57025 0.79547 0.0
C1061 C 0.63807 0.55345 0.78096 0.0
C1062 C 0.61403 0.56017 0.78755 0.0
C1063 C 0.59692 0.53638 0.76914 0.0
C1064 C 0.58192 0.49181 0.77995 0.0
C1065 C 0.58026 0.57824 0.75824 0.0
C1066 C 0.61504 0.51584 0.75107 0.0
C1067 C 0.63868 0.52673 0.75812 0.0
C1068 C 0.65853 0.51344 0.74397 0.0
C1069 C 0.65418 0.4879 0.72229 0.0
C1070 C 0.63019 0.47487 0.71495 0.0
C1071 C 0.61039 0.48925 0.72963 0.0
H1072 H 0.15939 0.05815 0.97044 0.0
H1073 H 0.11658 0.19516 0.95394 0.0
H1074 H 0.11196 0.21261 0.9971 0.0
H1075 H 0.12485 1.01648 1.02002 0.0
H1076 H 0.15117 0.99303 0.03601 0.0
H1077 H 0.15125 0.99384 1.00419 0.0
H1078 H 0.19077 0.0493 1.00473 0.0
H1079 H 0.19081 0.04866 0.03657 0.0
H1080 H 0.19141 0.10981 0.02094 0.0
H1081 H 0.11208 0.21199 0.04473 0.0
H1082 H 0.11663 0.19292 0.08783 0.0
H1083 H 0.15915 0.05611 0.07063 0.0
C1084 C 0.1491 0.09216 0.97575 0.0
C1085 C 0.1385 0.12548 0.95856 0.0
C1086 C 0.1251 0.16924 0.96659 0.0
C1087 C 0.12235 0.17928 0.99118 0.0
C1088 C 0.13308 0.14523 1.00767 0.0
C1089 C 0.14621 0.10251 0.99998 0.0
C1090 C 0.1558 0.07073 0.02061 0.0
C1091 C 0.14512 1.01526 1.02018 0.0
C1092 C 0.18386 0.06958 0.02071 0.0
C1093 C 0.14613 0.10173 0.04134 0.0
C1094 C 0.13305 0.14477 0.03386 0.0
C1095 C 0.12238 0.17833 0.0505 0.0
C1096 C 0.12507 0.16735 0.07504 0.0
C1097 C 0.13832 0.12308 0.08285 0.0
C1098 C 0.14894 0.09042 0.0655 0.0
H1099 H 0.8312 0.93373 0.96971 0.0
H1100 H 0.90579 0.88915 0.95502 0.0
H1101 H 0.91318 0.87662 0.99805 0.0
H1102 H 0.84375 1.00793 1.02025 0.0
H1103 H 0.81653 0.9891 0.03578 0.0
H1104 H 0.81678 0.98906 1.00398 0.0
H1105 H 0.8035 0.89216 1.0036 0.0
H1106 H 0.80313 0.89194 0.03545 0.0
H1107 H 0.82124 0.84483 1.01974 0.0
H1108 H 0.9128 0.87629 0.0442 0.0
H1109 H 0.90463 0.888 0.08707 0.0
H1110 H 0.8303 0.93273 0.07046 0.0
C1111 C 0.84901 0.92037 0.97545 0.0
C1112 C 0.86788 0.91216 0.95888 0.0
C1113 C 0.89096 0.89525 0.96728 0.0
C1114 C 0.89532 0.88817 0.99175 0.0
C1115 C 0.87638 0.89783 1.00767 0.0
C1116 C 0.85361 0.91322 0.9997 0.0
C1117 C 0.83656 0.92381 1.02017 0.0
C1118 C 0.82791 0.98085 1.02003 0.0
C1119 C 0.81482 0.88592 1.01971 0.0
C1120 C 0.85328 0.913 0.04104 0.0
C1121 C 0.87617 0.89767 0.03364 0.0
C1122 C 0.89483 0.88775 0.05005 0.0
C1123 C 0.89003 0.89436 0.07442 0.0
C1124 C 0.86679 0.91102 0.08225 0.0
C1125 C 0.84822 0.91956 0.06518 0.0
H1126 H 0.15302 1.01238 0.47295 0.0
H1127 H 0.1177 0.86558 0.45664 0.0
H1128 H 0.11511 0.84655 0.4999 0.0
H1129 H 0.18914 0.96806 0.52187 0.0
H1130 H 0.18589 1.02844 0.53784 0.0
H1131 H 0.18478 1.02828 0.50602 0.0
H1132 H 0.1426 0.07374 0.50702 0.0
H1133 H 0.14359 0.07409 0.53882 0.0
H1134 H 0.11813 0.0446 0.52356 0.0
H1135 H 0.11641 0.84704 0.5477 0.0
H1136 H 0.12141 0.86684 0.59073 0.0
H1137 H 0.15612 1.01297 0.57269 0.0
C1138 C 0.14473 0.97596 0.47828 0.0
C1139 C 0.13555 0.94051 0.4612 0.0
C1140 C 0.12491 0.89344 0.46927 0.0
C1141 C 0.12338 0.88243 0.49389 0.0
C1142 C 0.13263 0.91878 0.51027 0.0
C1143 C 0.14314 0.96458 0.50247 0.0
C1144 C 0.15173 0.99823 0.52288 0.0
C1145 C 0.17953 1.00619 0.5221 0.0
C1146 C 0.1382 0.05075 0.52308 0.0
C1147 C 0.14447 0.96478 0.5437 0.0
C1148 C 0.13345 0.91893 0.53644 0.0
C1149 C 0.12512 0.8829 0.55327 0.0
C1150 C 0.12805 0.89432 0.57776 0.0
C1151 C 0.13924 0.94141 0.58528 0.0
C1152 C 0.14754 0.97648 0.56777 0.0
H1153 H 0.87519 0.04892 0.57093 0.0
H1154 H 0.87966 0.21293 0.58824 0.0
H1155 H 0.8833 0.2336 0.54521 0.0
H1156 H 0.91734 0.0498 0.52086 0.0
H1157 H 0.89948 1.00189 0.50512 0.0
H1158 H 0.90001 1.00199 0.53697 0.0
H1159 H 0.85281 1.00803 0.53742 0.0
H1160 H 0.85213 1.00816 0.50566 0.0
H1161 H 0.83789 0.0604 0.52181 0.0
H1162 H 0.88256 0.23374 0.49748 0.0
H1163 H 0.87761 0.21325 0.45447 0.0
H1164 H 0.87367 0.04915 0.47161 0.0
C1165 C 0.87741 0.08931 0.56583 0.0
C1166 C 0.87727 0.12926 0.58304 0.0
C1167 C 0.88006 0.18154 0.57545 0.0
C1168 C 0.882 0.19351 0.55097 0.0
C1169 C 0.88141 0.15274 0.53436 0.0
C1170 C 0.87944 0.1016 0.54182 0.0
C1171 C 0.87789 0.06416 0.52122 0.0
C1172 C 0.9 1.0273 0.52104 0.0
C1173 C 0.85375 1.03342 0.52156 0.0
C1174 C 0.87869 0.10175 0.50071 0.0
C1175 C 0.88095 0.15283 0.50822 0.0
C1176 C 0.88105 0.19368 0.49167 0.0
C1177 C 0.87836 0.18181 0.46721 0.0
C1178 C 0.87534 0.12956 0.45958 0.0
C1179 C 0.87599 0.08955 0.47673 0.0
H1180 H 0.66829 0.61169 0.06927 0.0
H1181 H 0.59911 0.68481 0.08507 0.0
H1182 H 0.59133 0.69632 0.04198 0.0
H1183 H 0.68395 0.68888 1.01731 0.0
H1184 H 0.69693 0.63361 1.00227 0.0
H1185 H 0.69767 0.63677 0.03409 0.0
H1186 H 0.67586 0.54728 0.03633 0.0
H1187 H 0.67512 0.5438 1.00459 0.0
H1188 H 0.6472 0.53824 0.02106 0.0
H1189 H 0.59098 0.69507 0.99513 0.0
H1190 H 0.59697 0.67572 0.95229 0.0
H1191 H 0.66539 0.6001 0.96928 0.0
C1192 C 0.65164 0.63096 0.06379 0.0
C1193 C 0.63442 0.64776 0.08069 0.0
C1194 C 0.61271 0.67202 0.07253 0.0
C1195 C 0.60816 0.67868 0.04803 0.0
C1196 C 0.62546 0.66077 0.0318 0.0
C1197 C 0.64675 0.63727 0.03957 0.0
C1198 C 0.66182 0.61775 1.01905 0.0
C1199 C 0.68656 0.64595 1.01813 0.0
C1200 C 0.66518 0.55826 0.02034 0.0
C1201 C 0.6457 0.63311 0.99839 0.0
C1202 C 0.62491 0.65864 1.00579 0.0
C1203 C 0.60731 0.6753 0.98932 0.0
C1204 C 0.61088 0.66452 0.96497 0.0
C1205 C 0.63169 0.63662 0.9574 0.0
C1206 C 0.64931 0.62169 0.97444 0.0
H1207 H 0.33486 0.49215 0.97071 0.0
H1208 H 0.39275 0.38364 0.95435 0.0
H1209 H 0.398 0.36525 0.99737 0.0
H1210 H 0.36038 0.54604 0.02241 0.0
H1211 H 0.33176 0.55148 0.03772 0.0
H1212 H 0.33235 0.55357 1.00593 0.0
H1213 H 0.30172 0.47675 1.00387 0.0
H1214 H 0.30088 0.47468 0.03569 0.0
H1215 H 0.30862 0.41695 1.0192 0.0
H1216 H 0.39855 0.366 0.04437 0.0
H1217 H 0.39179 0.37945 0.08749 0.0
H1218 H 0.33172 0.48311 0.0711 0.0
C1219 C 0.34846 0.4639 0.9761 0.0
C1220 C 0.36336 0.43925 0.95908 0.0
C1221 C 0.38094 0.40264 0.96698 0.0
C1222 C 0.38412 0.39227 0.99145 0.0
C1223 C 0.3693 0.41814 1.00784 0.0
C1224 C 0.35151 0.45255 1.00024 0.0
C1225 C 0.33771 0.47559 0.02091 0.0
C1226 C 0.34075 0.53519 0.02178 0.0
C1227 C 0.31063 0.46005 1.01985 0.0
C1228 C 0.35062 0.44969 0.04155 0.0
C1229 C 0.36895 0.41689 0.03392 0.0
C1230 C 0.38398 0.3911 0.05031 0.0
C1231 C 0.38006 0.39898 0.07484 0.0
C1232 C 0.36108 0.4319 0.08289 0.0
C1233 C 0.34622 0.45708 0.06577 0.0
H1234 H 0.67238 0.43888 0.46922 0.0
H1235 H 0.59664 0.40465 0.45341 0.0
H1236 H 0.58868 0.39384 0.49639 0.0
H1237 H 0.6794 0.34974 0.51954 0.0
H1238 H 0.6989 0.39447 0.5354 0.0
H1239 H 0.6986 0.39436 0.50353 0.0
H1240 H 0.68832 0.49286 0.50351 0.0
H1241 H 0.68852 0.49325 0.53531 0.0
H1242 H 0.66196 0.51557 0.51938 0.0
H1243 H 0.58903 0.39355 0.54281 0.0
H1244 H 0.5976 0.40433 0.58579 0.0
H1245 H 0.67305 0.43923 0.56991 0.0
C1246 C 0.65416 0.42821 0.4747 0.0
C1247 C 0.63515 0.42237 0.45781 0.0
C1248 C 0.61156 0.40889 0.4659 0.0
C1249 C 0.60689 0.40282 0.49035 0.0
C1250 C 0.62602 0.41005 0.50658 0.0
C1251 C 0.64924 0.42216 0.49889 0.0
C1252 C 0.66654 0.43065 0.51957 0.0
C1253 C 0.68707 0.38987 0.5195 0.0
C1254 C 0.67693 0.48639 0.51943 0.0
C1255 C 0.6495 0.4224 0.54025 0.0
C1256 C 0.62619 0.41013 0.53258 0.0
C1257 C 0.60731 0.40271 0.54883 0.0
C1258 C 0.61233 0.40874 0.57328 0.0
C1259 C 0.63602 0.42243 0.58135 0.0
C1260 C 0.65477 0.42845 0.56444 0.0
H1261 H 0.32854 0.62321 0.57641 0.0
H1262 H 0.40091 0.68272 0.59175 0.0
H1263 H 0.40826 0.69343 0.54878 0.0
H1264 H 0.34453 0.54903 0.52614 0.0
H1265 H 0.31676 0.5624 0.51006 0.0
H1266 H 0.31682 0.56321 0.54188 0.0
H1267 H 0.2997 0.65723 0.54149 0.0
H1268 H 0.29956 0.65667 0.50963 0.0
H1269 H 0.31563 0.70731 0.52542 0.0
H1270 H 0.4083 0.69212 0.50269 0.0
H1271 H 0.40078 0.67921 0.45968 0.0
H1272 H 0.3283 0.62157 0.47515 0.0
C1273 C 0.34583 0.63925 0.57079 0.0
C1274 C 0.3641 0.65235 0.58763 0.0
C1275 C 0.38654 0.67269 0.57933 0.0
C1276 C 0.39089 0.67882 0.55487 0.0
C1277 C 0.3726 0.66472 0.53872 0.0
C1278 C 0.35044 0.64562 0.54646 0.0
C1279 C 0.33403 0.63148 0.52568 0.0
C1280 C 0.32767 0.57307 0.52596 0.0
C1281 C 0.31086 0.66519 0.52555 0.0
C1282 C 0.35041 0.64485 0.50498 0.0
C1283 C 0.37259 0.66419 0.51272 0.0
C1284 C 0.39087 0.6774 0.49657 0.0
C1285 C 0.38645 0.67009 0.4721 0.0
C1286 C 0.36393 0.64964 0.46385 0.0
C1287 C 0.34569 0.63764 0.4807 0.0
H1288 H 0.9429 0.05834 0.15425 0.0
H1289 H 0.94902 0.91663 0.11275 0.0
H1290 H 0.99234 0.9346 0.10588 0.0
H1291 H 0.98758 0.13605 0.11783 0.0
H1292 H 0.99973 0.16879 0.14355 0.0
H1293 H 0.96822 0.14862 0.14285 0.0
H1294 H 0.97497 0.0971 0.1817 0.0
H1295 H 0.00653 0.11639 0.18234 0.0
H1296 H 0.99856 0.04827 0.18305 0.0
H1297 H 0.03582 0.95847 0.109 0.0
H1298 H 0.07674 0.9956 0.11714 0.0
H1299 H 0.04325 0.12512 0.15396 0.0
C1300 C 0.95324 1.03224 0.14308 0.0
C1301 C 0.94268 0.98599 0.13417 0.0
C1302 C 0.95683 0.95208 0.11997 0.0
C1303 C 0.98147 0.96192 0.11589 0.0
C1304 C 0.99174 1.00632 0.12582 0.0
C1305 C 0.97808 0.0417 0.13866 0.0
C1306 C 0.99422 0.08497 0.14825 0.0
C1307 C 0.98701 0.13774 0.13747 0.0
C1308 C 0.99352 0.08675 0.17544 0.0
C1309 C 0.01896 0.06717 0.13944 0.0
C1310 C 0.01707 1.02158 0.12661 0.0
C1311 C 0.03757 0.99494 0.11847 0.0
C1312 C 0.06068 1.01594 0.1233 0.0
C1313 C 0.06295 0.06337 0.13577 0.0
C1314 C 0.04185 0.08934 0.14386 0.0
H1315 H 0.96084 0.12469 0.38351 0.0
H1316 H 0.92505 0.9971 0.41973 0.0
H1317 H 0.9653 0.95813 0.42877 0.0
H1318 H 0.00634 0.04555 0.35611 0.0
H1319 H 0.03 0.09415 0.35827 0.0
H1320 H 0.99855 0.11378 0.35622 0.0
H1321 H 0.00352 0.16699 0.39493 0.0
H1322 H 0.03494 0.14695 0.39725 0.0
H1323 H 0.01432 0.13499 0.42134 0.0
H1324 H 0.00871 0.93372 0.43399 0.0
H1325 H 0.05253 0.91674 0.43018 0.0
H1326 H 0.06074 0.05736 0.38827 0.0
C1327 C 0.96156 0.0887 0.39348 0.0
C1328 C 0.93998 0.06392 0.40116 0.0
C1329 C 0.94144 1.01644 0.41371 0.0
C1330 C 0.96418 0.99439 0.41908 0.0
C1331 C 0.98514 1.02008 0.41147 0.0
C1332 C 0.98407 0.06564 0.39856 0.0
C1333 C 0.00928 0.08301 0.3909 0.0
C1334 C 0.01114 0.08416 0.36377 0.0
C1335 C 0.0159 0.13614 0.40176 0.0
C1336 C 0.02471 0.03984 0.40142 0.0
C1337 C 0.01036 1.00462 0.41357 0.0
C1338 C 0.02013 0.96086 0.42447 0.0
C1339 C 0.04509 0.95163 0.42216 0.0
C1340 C 0.06006 0.98557 0.40876 0.0
C1341 C 0.04982 1.03106 0.3988 0.0
H1342 H 0.04385 0.13131 0.89048 0.0
H1343 H 0.08019 0.99485 0.91896 0.0
H1344 H 0.04017 0.95243 0.92477 0.0
H1345 H 0.98891 0.12698 0.92729 0.0
H1346 H 0.96884 0.14557 0.90339 0.0
H1347 H 1.00003 0.16786 0.90379 0.0
H1348 H 0.0066 0.12834 0.86215 0.0
H1349 H 0.97547 0.10602 0.86161 0.0
H1350 H 0.99999 0.06037 0.85718 0.0
H1351 H 0.99746 0.92438 0.92656 0.0
H1352 H 0.95411 0.90639 0.92084 0.0
H1353 H 0.94416 0.05854 0.8884 0.0
C1354 C 0.04324 0.09288 0.89836 0.0
C1355 C 0.06492 0.06639 0.90469 0.0
C1356 C 0.06369 1.01563 0.9142 0.0
C1357 C 0.04109 0.99149 0.91765 0.0
C1358 C 0.02003 1.01847 0.91113 0.0
C1359 C 0.02082 0.06773 0.90141 0.0
C1360 C 0.99554 0.08585 0.89394 0.0
C1361 C 0.98788 0.13445 0.90795 0.0
C1362 C 0.99434 0.09571 0.86713 0.0
C1363 C 0.98044 0.03877 0.90083 0.0
C1364 C 0.99506 1.00096 0.91105 0.0
C1365 C 0.98582 0.95356 0.91856 0.0
C1366 C 0.96106 0.94377 0.91509 0.0
C1367 C 0.94564 0.9809 0.90391 0.0
C1368 C 0.95542 1.02953 0.89706 0.0
H1369 H 0.9634 0.12533 0.65903 0.0
H1370 H 0.92719 0.99343 0.62598 0.0
H1371 H 0.96738 0.95317 0.61819 0.0
H1372 H 0.01606 0.13117 0.62114 0.0
H1373 H 0.03706 0.14632 0.64481 0.0
H1374 H 0.00563 0.16621 0.6468 0.0
H1375 H 1.00149 0.11771 0.68675 0.0
H1376 H 0.03297 0.09825 0.68503 0.0
H1377 H 0.00949 0.04969 0.68848 0.0
H1378 H 0.01093 0.92862 0.61338 0.0
H1379 H 0.05495 0.91346 0.61683 0.0
H1380 H 0.06333 0.05902 0.65538 0.0
C1381 C 0.96398 0.08805 0.65006 0.0
C1382 C 0.94232 0.06249 0.64287 0.0
C1383 C 0.94365 1.01341 0.63162 0.0
C1384 C 0.96634 0.99058 0.62697 0.0
C1385 C 0.98739 1.01713 0.63401 0.0
C1386 C 0.98643 0.06429 0.64571 0.0
C1387 C 0.01171 0.08291 0.65282 0.0
C1388 C 0.01798 0.13473 0.64066 0.0
C1389 C 0.01404 0.08738 0.67987 0.0
C1390 C 0.02709 0.03873 0.64329 0.0
C1391 C 0.01263 1.00176 0.63218 0.0
C1392 C 0.02241 0.9571 0.62215 0.0
C1393 C 0.04752 0.94895 0.62423 0.0
C1394 C 0.06265 0.9849 0.63657 0.0
C1395 C 0.05232 1.03105 0.64572 0.0
H1396 H 0.45663 0.44809 0.16299 0.0
H1397 H 0.42304 0.57042 0.1211 0.0
H1398 H 0.46378 0.60669 0.11253 0.0
H1399 H 0.50214 0.53076 0.18952 0.0
H1400 H 0.52553 0.48147 0.18991 0.0
H1401 H 0.49391 0.46288 0.19146 0.0
H1402 H 0.49952 0.40325 0.15491 0.0
H1403 H 0.53112 0.42214 0.15309 0.0
H1404 H 0.51123 0.43047 0.12789 0.0
H1405 H 0.50709 0.62875 0.108 0.0
H1406 H 0.55085 0.64531 0.11238 0.0
H1407 H 0.55759 0.51254 0.15958 0.0
C1408 C 0.45795 0.48237 0.15192 0.0
C1409 C 0.43681 0.50639 0.14248 0.0
C1410 C 0.43905 0.55166 0.12848 0.0
C1411 C 0.46209 0.57218 0.12337 0.0
C1412 C 0.48258 0.54732 0.13271 0.0
C1413 C 0.48081 0.50407 0.14706 0.0
C1414 C 0.50574 0.48751 0.15625 0.0
C1415 C 0.50689 0.49088 0.18339 0.0
C1416 C 0.51228 0.43257 0.14751 0.0
C1417 C 0.52179 0.52848 0.14485 0.0
C1418 C 0.50791 0.56179 0.13102 0.0
C1419 C 0.51814 0.60321 0.11886 0.0
C1420 C 0.54307 0.61224 0.12154 0.0
C1421 C 0.55762 0.58051 0.13655 0.0
C1422 C 0.54696 0.53713 0.14788 0.0
H1423 H 0.43997 0.50863 0.38681 0.0
H1424 H 0.45005 0.65395 0.42529 0.0
H1425 H 0.49397 0.63893 0.42703 0.0
H1426 H 0.48844 0.43705 0.41991 0.0
H1427 H 0.49819 0.40135 0.39419 0.0
H1428 H 0.46683 0.42146 0.39681 0.0
H1429 H 0.46977 0.46848 0.35643 0.0
H1430 H 0.50121 0.44912 0.35383 0.0
H1431 H 0.49309 0.51705 0.35208 0.0
H1432 H 0.53667 0.61553 0.421 0.0
H1433 H 0.57675 0.57619 0.41274 0.0
H1434 H 0.54077 0.44227 0.38106 0.0
C1435 C 0.45141 0.53659 0.39599 0.0
C1436 C 0.44147 0.58278 0.4056 0.0
C1437 C 0.45711 0.6186 0.41742 0.0
C1438 C 0.48219 0.61051 0.41858 0.0
C1439 C 0.49156 0.56593 0.40822 0.0
C1440 C 0.47679 0.52882 0.39762 0.0
C1441 C 0.49209 0.48449 0.3879 0.0
C1442 C 0.48603 0.43304 0.40046 0.0
C1443 C 0.48884 0.47952 0.36096 0.0
C1444 C 0.51757 0.50342 0.39433 0.0
C1445 C 0.5167 0.55079 0.40583 0.0
C1446 C 0.5377 0.57795 0.41238 0.0
C1447 C 0.56034 0.55557 0.40745 0.0
C1448 C 0.56176 0.50622 0.39646 0.0
C1449 C 0.5401 0.47984 0.38977 0.0
H1450 H 0.44095 0.55819 0.88943 0.0
H1451 H 0.44968 0.41272 0.92781 0.0
H1452 H 0.49378 0.42765 0.93057 0.0
H1453 H 0.49386 0.54869 0.85556 0.0
H1454 H 0.50206 0.61664 0.85716 0.0
H1455 H 0.47059 0.59742 0.8596 0.0
H1456 H 0.46737 0.6451 0.89987 0.0
H1457 H 0.49874 0.66524 0.89737 0.0
H1458 H 0.48883 0.63001 0.92314 0.0
H1459 H 0.53739 0.45191 0.92496 0.0
H1460 H 0.57752 0.49217 0.91654 0.0
H1461 H 0.54085 0.62422 0.88437 0.0
C1462 C 0.45205 0.53021 0.89893 0.0
C1463 C 0.44178 0.48411 0.90819 0.0
C1464 C 0.45705 0.44817 0.92031 0.0
C1465 C 0.48221 0.45619 0.92201 0.0
C1466 C 0.49191 0.50077 0.91185 0.0
C1467 C 0.47734 0.53786 0.90103 0.0
C1468 C 0.49266 0.58195 0.89129 0.0
C1469 C 0.4896 0.5864 0.8643 0.0
C1470 C 0.48654 0.63363 0.90366 0.0
C1471 C 0.518 0.56314 0.89794 0.0
C1472 C 0.51718 0.51599 0.9096 0.0
C1473 C 0.53832 0.48935 0.91623 0.0
C1474 C 0.56098 0.51216 0.91123 0.0
C1475 C 0.56216 0.56132 0.90008 0.0
C1476 C 0.54039 0.58689 0.89328 0.0
H1477 H 0.4427 0.51396 0.65983 0.0
H1478 H 0.44941 0.64956 0.61448 0.0
H1479 H 0.49267 0.62993 0.60821 0.0
H1480 H 0.49854 0.52737 0.68838 0.0
H1481 H 0.50612 0.45911 0.68964 0.0
H1482 H 0.47467 0.47902 0.68853 0.0
H1483 H 0.46745 0.42211 0.65128 0.0
H1484 H 0.49883 0.40129 0.65249 0.0
H1485 H 0.4868 0.4305 0.6259 0.0
H1486 H 0.53583 0.60484 0.61143 0.0
H1487 H 0.57642 0.56715 0.61961 0.0
H1488 H 0.54268 0.44461 0.66096 0.0
C1489 C 0.45315 0.53834 0.648 0.0
C1490 C 0.44278 0.58334 0.63773 0.0
C1491 C 0.45707 0.61509 0.6227 0.0
C1492 C 0.48167 0.60428 0.61896 0.0
C1493 C 0.49173 0.56117 0.63015 0.0
C1494 C 0.47795 0.52794 0.64396 0.0
C1495 C 0.49385 0.48576 0.65475 0.0
C1496 C 0.49325 0.48798 0.68193 0.0
C1497 C 0.48628 0.43171 0.64555 0.0
C1498 C 0.51865 0.50163 0.64537 0.0
C1499 C 0.51693 0.54538 0.63128 0.0
C1500 C 0.53744 0.56988 0.622 0.0
C1501 C 0.5604 0.54854 0.6269 0.0
C1502 C 0.56256 0.50288 0.6407 0.0
C1503 C 0.54142 0.47914 0.65002 0.0
H1504 H 0.15598 0.73323 0.17659 0.0
H1505 H 0.12826 0.77856 0.10751 0.0
H1506 H 0.12184 0.68609 0.09744 0.0
H1507 H 0.18682 0.61567 0.15799 0.0
H1508 H 0.17865 0.57947 0.18406 0.0
H1509 H 0.18209 0.64921 0.1856 0.0
H1510 H 0.13834 0.65752 0.20219 0.0
H1511 H 0.13479 0.58782 0.20075 0.0
H1512 H 0.11314 0.62953 0.18595 0.0
H1513 H 0.11731 0.5883 0.09511 0.0
H1514 H 0.11411 0.49341 0.10108 0.0
H1515 H 0.14426 0.51091 0.17182 0.0
C1516 C 0.14843 0.72393 0.15936 0.0
C1517 C 0.14282 0.76377 0.14282 0.0
C1518 C 0.13323 0.74921 0.1204 0.0
C1519 C 0.12934 0.69662 0.11453 0.0
C1520 C 0.13506 0.65857 0.13124 0.0
C1521 C 0.14435 0.67153 0.15323 0.0
C1522 C 0.14844 0.6231 0.16816 0.0
C1523 C 0.17562 0.61648 0.17431 0.0
C1524 C 0.13274 0.6246 0.19059 0.0
C1525 C 0.13978 0.58093 0.15121 0.0
C1526 C 0.13228 0.60224 0.12996 0.0
C1527 C 0.12329 0.5712 0.11164 0.0
C1528 C 0.12172 0.51711 0.11515 0.0
C1529 C 0.12904 0.49414 0.13688 0.0
C1530 C 0.13833 0.52691 0.15504 0.0
H1531 H 0.85593 0.31865 0.17113 0.0
H1532 H 0.87828 0.28657 0.09905 0.0
H1533 H 0.88379 0.38073 0.0922 0.0
H1534 H 0.82306 0.4371 0.15875 0.0
H1535 H 0.83279 0.46939 0.18551 0.0
H1536 H 0.83021 0.39943 0.18477 0.0
H1537 H 0.8752 0.39093 0.19844 0.0
H1538 H 0.87789 0.46086 0.19931 0.0
H1539 H 0.89881 0.42302 0.18184 0.0
H1540 H 0.88721 0.47887 0.09314 0.0
H1541 H 0.88944 0.57278 0.10215 0.0
H1542 H 0.86516 0.54188 0.17371 0.0
C1543 C 0.8622 0.33124 0.15394 0.0
C1544 C 0.86654 0.29468 0.1356 0.0
C1545 C 0.87441 0.31342 0.11331 0.0
C1546 C 0.87773 0.36698 0.10927 0.0
C1547 C 0.87316 0.40177 0.12766 0.0
C1548 C 0.86564 0.38468 0.14959 0.0
C1549 C 0.86218 0.43028 0.1664 0.0
C1550 C 0.83547 0.43427 0.17432 0.0
C1551 C 0.87956 0.426 0.18776 0.0
C1552 C 0.8691 0.47563 0.15055 0.0
C1553 C 0.87525 0.45831 0.12824 0.0
C1554 C 0.88233 0.49284 0.11054 0.0
C1555 C 0.88335 0.54634 0.1158 0.0
C1556 C 0.87737 0.56527 0.13862 0.0
C1557 C 0.87004 0.52901 0.15613 0.0
H1558 H 0.15611 0.32738 0.3684 0.0
H1559 H 0.12424 0.28505 0.43581 0.0
H1560 H 0.11841 0.37815 0.44509 0.0
H1561 H 0.1873 0.44412 0.38841 0.0
H1562 H 0.18098 0.4797 0.36161 0.0
H1563 H 0.18382 0.4098 0.36077 0.0
H1564 H 0.141 0.40258 0.3414 0.0
H1565 H 0.13806 0.47242 0.34213 0.0
H1566 H 0.11521 0.43208 0.35579 0.0
H1567 H 0.11454 0.47658 0.44641 0.0
H1568 H 0.11207 0.57128 0.43919 0.0
H1569 H 0.14633 0.54949 0.37089 0.0
C1570 C 0.14781 0.33748 0.3851 0.0
C1571 C 0.14075 0.29837 0.40139 0.0
C1572 C 0.13023 0.31388 0.42315 0.0
C1573 C 0.12671 0.36682 0.42856 0.0
C1574 C 0.13379 0.40416 0.41206 0.0
C1575 C 0.14411 0.39014 0.39076 0.0
C1576 C 0.1495 0.4378 0.37581 0.0
C1577 C 0.17704 0.44316 0.3714 0.0
C1578 C 0.13508 0.4361 0.3524 0.0
C1579 C 0.14032 0.48079 0.39188 0.0
C1580 C 0.13147 0.46064 0.41278 0.0
C1581 C 0.12159 0.49276 0.43016 0.0
C1582 C 0.12043 0.54671 0.42595 0.0
C1583 C 0.12904 0.56833 0.40449 0.0
C1584 C 0.13936 0.53453 0.38741 0.0
H1585 H 0.87056 0.51959 0.36374 0.0
H1586 H 0.87607 0.49022 0.43917 0.0
H1587 H 0.86964 0.5838 0.44699 0.0
H1588 H 0.90282 0.64122 0.36411 0.0
H1589 H 0.8838 0.67104 0.34183 0.0
H1590 H 0.88788 0.60141 0.34209 0.0
H1591 H 0.84108 0.58848 0.34387 0.0
H1592 H 0.83685 0.65808 0.34354 0.0
H1593 H 0.82398 0.61967 0.36703 0.0
H1594 H 0.86408 0.68197 0.44665 0.0
H1595 H 0.85887 0.77555 0.43827 0.0
H1596 H 0.85665 0.74185 0.36303 0.0
C1597 C 0.87049 0.53268 0.38194 0.0
C1598 C 0.8738 0.49686 0.40083 0.0
C1599 C 0.87322 0.51619 0.42434 0.0
C1600 C 0.86975 0.56956 0.42898 0.0
C1601 C 0.86679 0.60365 0.40997 0.0
C1602 C 0.86702 0.58593 0.3869 0.0
C1603 C 0.86357 0.63081 0.36966 0.0
C1604 C 0.88585 0.63644 0.35347 0.0
C1605 C 0.83997 0.62383 0.35517 0.0
C1606 C 0.8616 0.67662 0.3866 0.0
C1607 C 0.86347 0.66005 0.40978 0.0
C1608 C 0.86241 0.69521 0.42856 0.0
C1609 C 0.85927 0.7485 0.42358 0.0
C1610 C 0.85715 0.76677 0.39996 0.0
C1611 C 0.85841 0.7298 0.38129 0.0
H1612 H 0.87667 0.32355 0.90891 0.0
H1613 H 0.86365 0.28572 0.83506 0.0
H1614 H 0.86523 0.37921 0.82507 0.0
H1615 H 0.83937 0.43764 0.91024 0.0
H1616 H 0.85936 0.47328 0.92985 0.0
H1617 H 0.8584 0.4032 0.9311 0.0
H1618 H 0.90506 0.39923 0.92437 0.0
H1619 H 0.9062 0.46932 0.92325 0.0
H1620 H 0.91797 0.43141 0.89903 0.0
H1621 H 0.86693 0.47761 0.82326 0.0
H1622 H 0.86977 0.57269 0.82971 0.0
H1623 H 0.8811 0.54633 0.90477 0.0
C1624 C 0.87412 0.3348 0.89062 0.0
C1625 C 0.87014 0.2969 0.87278 0.0
C1626 C 0.86717 0.31363 0.84903 0.0
C1627 C 0.86783 0.3668 0.84319 0.0
C1628 C 0.87147 0.40301 0.86125 0.0
C1629 C 0.87467 0.3877 0.88448 0.0
C1630 C 0.87803 0.43445 0.9006 0.0
C1631 C 0.85757 0.43729 0.91903 0.0
C1632 C 0.90332 0.43354 0.91251 0.0
C1633 C 0.87603 0.47848 0.88284 0.0
C1634 C 0.8723 0.45954 0.86023 0.0
C1635 C 0.86995 0.49283 0.84089 0.0
C1636 C 0.87167 0.54681 0.84472 0.0
C1637 C 0.87563 0.56718 0.86774 0.0
C1638 C 0.87772 0.53222 0.887 0.0
H1639 H 0.10821 0.53336 0.90371 0.0
H1640 H 0.17294 0.47855 0.86743 0.0
H1641 H 0.1856 0.56934 0.86076 0.0
H1642 H 0.0967 0.64436 0.8671 0.0
H1643 H 0.08731 0.68615 0.89101 0.0
H1644 H 0.08316 0.61671 0.89322 0.0
H1645 H 0.10769 0.616 0.93246 0.0
H1646 H 0.11192 0.68549 0.93038 0.0
H1647 H 0.13801 0.64324 0.93323 0.0
H1648 H 0.19121 0.66602 0.85725 0.0
H1649 H 0.18954 0.76191 0.85733 0.0
H1650 H 0.12191 0.75648 0.89673 0.0
C1651 C 0.1252 0.54024 0.89459 0.0
C1652 C 0.13939 0.498 0.88594 0.0
C1653 C 0.16135 0.50955 0.87384 0.0
C1654 C 0.16886 0.56125 0.87012 0.0
C1655 C 0.15441 0.60163 0.87872 0.0
C1656 C 0.13309 0.59187 0.8908 0.0
C1657 C 0.12093 0.64274 0.89808 0.0
C1658 C 0.09552 0.64777 0.88667 0.0
C1659 C 0.11956 0.64711 0.92515 0.0
C1660 C 0.13862 0.68256 0.88797 0.0
C1661 C 0.15781 0.65777 0.87692 0.0
C1662 C 0.17627 0.68579 0.86586 0.0
C1663 C 0.17507 0.74043 0.8659 0.0
C1664 C 0.15553 0.76719 0.87689 0.0
C1665 C 0.1372 0.73749 0.88832 0.0
H1666 H 0.87262 0.75189 0.63168 0.0
H1667 H 0.83798 0.7649 0.70023 0.0
H1668 H 0.83906 0.66949 0.7045 0.0
H1669 H 0.84169 0.63158 0.61351 0.0
H1670 H 0.8681 0.60495 0.59906 0.0
H1671 H 0.86407 0.67454 0.60078 0.0
H1672 H 0.90647 0.68363 0.62075 0.0
H1673 H 0.91061 0.6141 0.61912 0.0
H1674 H 0.91308 0.64699 0.6472 0.0
H1675 H 0.84414 0.57288 0.70201 0.0
H1676 H 0.85394 0.48129 0.69337 0.0
H1677 H 0.88561 0.5277 0.62643 0.0
C1678 C 0.86509 0.73459 0.64748 0.0
C1679 C 0.85536 0.7664 0.66571 0.0
C1680 C 0.84588 0.74188 0.68617 0.0
C1681 C 0.84626 0.68749 0.68872 0.0
C1682 C 0.85618 0.65743 0.67066 0.0
C1683 C 0.86547 0.67992 0.65042 0.0
C1684 C 0.87562 0.63816 0.63402 0.0
C1685 C 0.86153 0.63726 0.61044 0.0
C1686 C 0.90308 0.64621 0.63005 0.0
C1687 C 0.87076 0.58897 0.64833 0.0
C1688 C 0.85932 0.60119 0.6693 0.0
C1689 C 0.85296 0.56283 0.68556 0.0
C1690 C 0.85847 0.51064 0.68038 0.0
C1691 C 0.87038 0.49661 0.6591 0.0
C1692 C 0.87658 0.53676 0.64289 0.0
H1693 H 0.14988 0.32957 0.68007 0.0
H1694 H 0.15058 0.29415 0.605 0.0
H1695 H 0.14964 0.38828 0.596 0.0
H1696 H 0.10766 0.43456 0.67637 0.0
H1697 H 0.12236 0.4726 0.69917 0.0
H1698 H 0.12464 0.40265 0.69959 0.0
H1699 H 0.1718 0.40973 0.70031 0.0
H1700 H 0.16965 0.47976 0.69979 0.0
H1701 H 0.18706 0.44623 0.67754 0.0
H1702 H 0.14698 0.48707 0.59523 0.0
H1703 H 0.14117 0.58114 0.60281 0.0
H1704 H 0.14187 0.55135 0.67833 0.0
C1705 C 0.14972 0.34141 0.66171 0.0
C1706 C 0.15036 0.30409 0.64327 0.0
C1707 C 0.15047 0.32173 0.6195 0.0
C1708 C 0.14984 0.37521 0.61419 0.0
C1709 C 0.14915 0.4108 0.63282 0.0
C1710 C 0.14904 0.39455 0.6561 0.0
C1711 C 0.1474 0.44049 0.67287 0.0
C1712 C 0.12413 0.43738 0.68788 0.0
C1713 C 0.17035 0.44426 0.68855 0.0
C1714 C 0.14618 0.48511 0.65539 0.0
C1715 C 0.14745 0.46732 0.63237 0.0
C1716 C 0.14612 0.50141 0.61321 0.0
C1717 C 0.14299 0.55489 0.61769 0.0
C1718 C 0.14105 0.57384 0.64116 0.0
C1719 C 0.14308 0.53823 0.66017 0.0
H1720 H 0.62245 1.02336 0.1273 0.0
H1721 H 0.63873 0.98758 0.2007 0.0
H1722 H 0.64436 0.08142 0.20892 0.0
H1723 H 0.66536 0.1306 0.12152 0.0
H1724 H 0.6453 0.1681 0.10279 0.0
H1725 H 0.64366 0.09799 0.10254 0.0
H1726 H 0.59761 0.10267 0.11232 0.0
H1727 H 0.59913 0.17275 0.11273 0.0
H1728 H 0.58784 0.13807 0.13812 0.0
H1729 H 0.64625 0.17984 0.20954 0.0
H1730 H 0.64668 0.27455 0.20205 0.0
H1731 H 0.62845 0.24627 0.12835 0.0
C1732 C 0.62724 1.03518 0.14511 0.0
C1733 C 0.63015 0.99789 0.16336 0.0
C1734 C 0.63672 1.01517 0.18635 0.0
C1735 C 0.63978 0.06848 0.19123 0.0
C1736 C 0.63633 0.10415 0.17293 0.0
C1737 C 0.63042 0.08818 0.15028 0.0
C1738 C 0.62754 0.13441 0.13381 0.0
C1739 C 0.64661 0.13266 0.114 0.0
C1740 C 0.60148 0.13712 0.12365 0.0
C1741 C 0.63249 0.17897 0.15078 0.0
C1742 C 0.6375 0.1607 0.17326 0.0
C1743 C 0.64238 0.19454 0.19199 0.0
C1744 C 0.64235 0.24838 0.18759 0.0
C1745 C 0.6375 0.26814 0.16462 0.0
C1746 C 0.63244 0.23261 0.14606 0.0
H1747 H 0.35076 0.83259 0.17267 0.0
H1748 H 0.36757 0.79954 0.09924 0.0
H1749 H 0.37215 0.89365 0.09167 0.0
H1750 H 0.31667 0.95052 0.16235 0.0
H1751 H 0.32839 0.98333 0.18822 0.0
H1752 H 0.32592 0.91332 0.18789 0.0
H1753 H 0.37185 0.90543 0.19825 0.0
H1754 H 0.37444 0.97539 0.19871 0.0
H1755 H 0.39401 0.93749 0.17986 0.0
H1756 H 0.37528 0.99193 0.09204 0.0
H1757 H 0.37815 0.08599 0.10064 0.0
H1758 H 0.35976 0.05584 0.17392 0.0
C1759 C 0.35562 0.84495 0.15502 0.0
C1760 C 0.35866 0.80811 0.13653 0.0
C1761 C 0.3647 0.82658 0.11366 0.0
C1762 C 0.36748 0.88012 0.10919 0.0
C1763 C 0.36423 0.91518 0.12775 0.0
C1764 C 0.35852 0.89835 0.15024 0.0
C1765 C 0.35628 0.94417 0.16712 0.0
C1766 C 0.33027 0.94805 0.17697 0.0
C1767 C 0.37528 0.94038 0.18717 0.0
C1768 C 0.36183 0.98934 0.15067 0.0
C1769 C 0.3662 0.97175 0.12799 0.0
C1770 C 0.37179 1.0061 0.10972 0.0
C1771 C 0.37319 0.05967 0.11476 0.0
C1772 C 0.36909 0.07883 0.13794 0.0
C1773 C 0.36319 0.04277 0.15604 0.0
H1774 H 0.6082 0.04844 0.40131 0.0
H1775 H 0.66579 0.09126 0.35261 0.0
H1776 H 0.67546 0.9984 0.34681 0.0
H1777 H 0.64114 0.9415 0.42893 0.0
H1778 H 0.61431 0.90156 0.43219 0.0
H1779 H 0.61166 0.97152 0.43238 0.0
H1780 H 0.5802 0.96646 0.39812 0.0
H1781 H 0.58284 0.89651 0.39774 0.0
H1782 H 0.58822 0.93332 0.37115 0.0
H1783 H 0.67868 0.90068 0.34576 0.0
H1784 H 0.67642 0.80544 0.35081 0.0
H1785 H 0.61753 0.82492 0.40101 0.0
C1786 C 0.62305 0.0385 0.38963 0.0
C1787 C 0.63606 0.07772 0.37727 0.0
C1788 C 0.65515 0.06237 0.36194 0.0
C1789 C 0.66092 1.00957 0.35863 0.0
C1790 C 0.6476 0.97213 0.37087 0.0
C1791 C 0.62917 0.98585 0.3862 0.0
C1792 C 0.61781 0.93777 0.39733 0.0
C1793 C 0.62146 0.93812 0.42431 0.0
C1794 C 0.59066 0.93327 0.39068 0.0
C1795 C 0.63268 0.89489 0.38579 0.0
C1796 C 0.64969 0.91567 0.37053 0.0
C1797 C 0.66541 0.88401 0.35765 0.0
C1798 C 0.66383 0.82979 0.36051 0.0
C1799 C 0.64668 0.80728 0.37618 0.0
C1800 C 0.63093 0.84066 0.38898 0.0
H1801 H 0.38258 1.02036 0.40827 0.0
H1802 H 0.36047 0.98924 0.3358 0.0
H1803 H 0.35653 0.08387 0.3287 0.0
H1804 H 0.34164 0.12734 0.41821 0.0
H1805 H 0.36313 0.16359 0.43602 0.0
H1806 H 0.36464 0.09353 0.43516 0.0
H1807 H 0.40981 0.09878 0.42218 0.0
H1808 H 0.40841 0.16888 0.42289 0.0
H1809 H 0.41769 0.1359 0.39628 0.0
H1810 H 0.35432 0.18247 0.32975 0.0
H1811 H 0.35311 0.27638 0.33907 0.0
H1812 H 0.37708 0.24311 0.41078 0.0
C1813 C 0.37668 1.03331 0.39095 0.0
C1814 C 0.37183 0.99709 0.37259 0.0
C1815 C 0.36457 1.01604 0.35009 0.0
C1816 C 0.36218 0.06978 0.3459 0.0
C1817 C 0.36719 0.10431 0.36436 0.0
C1818 C 0.37427 0.08679 0.38645 0.0
C1819 C 0.37843 0.13194 0.40333 0.0
C1820 C 0.36091 0.12891 0.42443 0.0
C1821 C 0.40517 0.13398 0.41165 0.0
C1822 C 0.37235 0.17762 0.38738 0.0
C1823 C 0.36602 0.16089 0.36494 0.0
C1824 C 0.35939 0.19597 0.34724 0.0
C1825 C 0.35895 0.24941 0.35267 0.0
C1826 C 0.36509 0.26757 0.37565 0.0
C1827 C 0.37208 0.23081 0.3931 0.0
H1828 H 0.3705 0.82653 0.86723 0.0
H1829 H 0.33812 0.79082 0.93517 0.0
H1830 H 0.33806 0.88457 0.94516 0.0
H1831 H 0.40917 0.93125 0.88742 0.0
H1832 H 0.40485 0.96951 0.86102 0.0
H1833 H 0.40285 0.89953 0.85959 0.0
H1834 H 0.35967 0.90677 0.841 0.0
H1835 H 0.36149 0.97677 0.84247 0.0
H1836 H 0.33642 0.94317 0.8562 0.0
H1837 H 0.34105 0.98321 0.94745 0.0
H1838 H 0.3473 0.07793 0.94192 0.0
H1839 H 0.37707 0.04853 0.87228 0.0
C1840 C 0.36325 0.83831 0.88418 0.0
C1841 C 0.35433 0.80103 0.90041 0.0
C1842 C 0.34538 0.81836 0.92254 0.0
C1843 C 0.34511 0.87164 0.92832 0.0
C1844 C 0.35386 0.90726 0.91181 0.0
C1845 C 0.36281 0.89126 0.89021 0.0
C1846 C 0.37111 0.93728 0.87554 0.0
C1847 C 0.39863 0.9342 0.87061 0.0
C1848 C 0.35628 0.94122 0.85244 0.0
C1849 C 0.36525 0.98179 0.89217 0.0
C1850 C 0.35539 0.96374 0.91304 0.0
C1851 C 0.34878 0.99772 0.93117 0.0
C1852 C 0.35247 0.05144 0.92791 0.0
C1853 C 0.36257 0.07079 0.90664 0.0
C1854 C 0.36894 1.03519 0.88859 0.0
H1855 H 0.62947 0.25242 0.9064 0.0
H1856 H 0.66852 0.26609 0.84016 0.0
H1857 H 0.66754 0.17077 0.83549 0.0
H1858 H 0.65888 0.13119 0.92594 0.0
H1859 H 0.63147 0.10463 0.93859 0.0
H1860 H 0.63586 0.1742 0.93749 0.0
H1861 H 0.59489 0.18434 0.915 0.0
H1862 H 0.59037 0.11486 0.91605 0.0
H1863 H 0.58987 0.14829 0.88803 0.0
H1864 H 0.66195 0.07433 0.83718 0.0
H1865 H 0.65132 0.98272 0.8447 0.0
H1866 H 0.61498 1.02828 0.90952 0.0
C1867 C 0.63801 0.23527 0.89105 0.0
C1868 C 0.64894 0.26727 0.87355 0.0
C1869 C 0.6597 0.24294 0.85364 0.0
C1870 C 0.65939 0.18859 0.85089 0.0
C1871 C 0.64826 0.15835 0.86818 0.0
C1872 C 0.63774 0.18061 0.8879 0.0
C1873 C 0.62638 0.13866 0.90343 0.0
C1874 C 0.6389 0.13709 0.92781 0.0
C1875 C 0.59874 0.14705 0.90576 0.0
C1876 C 0.63198 0.08965 0.88921 0.0
C1877 C 0.64477 0.10216 0.86903 0.0
C1878 C 0.65186 0.06411 0.8529 0.0
C1879 C 0.64555 1.01199 0.85727 0.0
C1880 C 0.63204 0.99769 0.87759 0.0
C1881 C 0.62545 0.03743 0.8939 0.0
H1882 H 0.3619 1.02649 0.67451 0.0
H1883 H 0.39256 1.00092 0.60486 0.0
H1884 H 0.39107 0.09544 0.59719 0.0
H1885 H 0.32126 0.13242 0.65766 0.0
H1886 H 0.326 0.16774 0.68487 0.0
H1887 H 0.32849 0.09775 0.68451 0.0
H1888 H 0.37205 0.10451 0.70226 0.0
H1889 H 0.36973 0.1745 0.70256 0.0
H1890 H 0.39466 0.14346 0.68744 0.0
H1891 H 0.388 0.19356 0.59767 0.0
H1892 H 0.38247 0.28723 0.60586 0.0
H1893 H 0.35343 0.24951 0.67503 0.0
C1894 C 0.36829 0.04068 0.65762 0.0
C1895 C 0.37723 1.00584 0.64025 0.0
C1896 C 0.38521 1.02637 0.61833 0.0
C1897 C 0.38461 0.08018 0.61385 0.0
C1898 C 0.37592 0.11333 0.63142 0.0
C1899 C 0.36777 0.09437 0.65282 0.0
C1900 C 0.35955 0.1385 0.66879 0.0
C1901 C 0.3322 0.13381 0.67427 0.0
C1902 C 0.37492 0.14034 0.69161 0.0
C1903 C 0.36467 0.18524 0.65315 0.0
C1904 C 0.37405 0.16983 0.63164 0.0
C1905 C 0.38047 0.20601 0.61439 0.0
C1906 C 0.37713 0.25925 0.61917 0.0
C1907 C 0.36741 0.27621 0.64106 0.0
C1908 C 0.36115 0.23826 0.65821 0.0
H1909 H 0.62831 0.82526 0.67079 0.0
H1910 H 0.6576 0.79897 0.60064 0.0
H1911 H 0.65665 0.89353 0.59307 0.0
H1912 H 0.58796 0.93105 0.65476 0.0
H1913 H 0.59323 0.9668 0.68176 0.0
H1914 H 0.5958 0.89684 0.68157 0.0
H1915 H 0.63971 0.90405 0.69841 0.0
H1916 H 0.63731 0.97405 0.69855 0.0
H1917 H 0.66195 0.9429 0.68304 0.0
H1918 H 0.65347 0.99151 0.5933 0.0
H1919 H 0.64702 0.08515 0.60086 0.0
H1920 H 0.61959 0.04871 0.67078 0.0
C1921 C 0.6346 0.83931 0.65385 0.0
C1922 C 0.64291 0.80418 0.63627 0.0
C1923 C 0.65072 0.82459 0.61427 0.0
C1924 C 0.65046 0.87845 0.60986 0.0
C1925 C 0.6423 0.91183 0.62758 0.0
C1926 C 0.63442 0.89309 0.64911 0.0
C1927 C 0.62647 0.93749 0.6651 0.0
C1928 C 0.59925 0.93275 0.67114 0.0
C1929 C 0.64231 0.93974 0.68761 0.0
C1930 C 0.63122 0.98408 0.64923 0.0
C1931 C 0.64038 0.96835 0.62767 0.0
C1932 C 0.64618 1.00421 0.61008 0.0
C1933 C 0.64232 0.05743 0.61451 0.0
C1934 C 0.63267 0.07474 0.63637 0.0
C1935 C 0.62723 0.03717 0.65397 0.0
loop_
_geom_bond_atom_site_label_1
_geom_bond_atom_site_label_2
_geom_bond_distance
_geom_bond_site_symmetry_2
_ccdc_geom_bond_type
La0 C2 2.928 1_545 S
La0 O20 2.521 1_545 S
La0 O21 2.628 1_545 S
La0 O22 2.554 . S
La0 O23 2.757 . S
La0 O24 2.470 . S
La0 O29 2.482 . S
La0 O31 2.503 . S
La1 C11 2.928 . S
La1 O23 2.482 . S
La1 O25 2.503 . S
La1 O26 2.521 . S
La1 O27 2.628 . S
La1 O28 2.554 . S
La1 O29 2.757 . S
La1 O30 2.470 . S
C2 La0 2.928 1_565 S
C2 C3 1.503 . S
C2 O20 1.261 . S
C2 O21 1.243 . S
C3 C2 1.503 . S
C3 C4 1.394 . S
C3 C8 1.373 . S
C4 C3 1.394 . S
C4 C5 1.380 . S
C4 H32 0.930 . S
C5 C4 1.380 . S
C5 C6 1.376 . S
C5 H33 0.930 . S
C6 C5 1.376 . S
C6 C7 1.370 . S
C7 C6 1.370 . S
C7 C8 1.396 . S
C7 H34 0.929 . S
C8 C3 1.373 . S
C8 C7 1.396 . S
C8 H35 0.929 . S
C9 O22 1.240 . S
C9 O23 1.289 . S
C10 O24 1.258 . S
C10 O25 1.256 . S
C11 La1 2.928 . S
C11 C12 1.503 . S
C11 O26 1.261 . S
C11 O27 1.243 . S
C12 C11 1.503 . S
C12 C13 1.394 . S
C12 C17 1.373 . S
C13 C12 1.394 . S
C13 C14 1.380 . S
C13 H36 0.930 . S
C14 C13 1.380 . S
C14 C15 1.376 . S
C14 H37 0.930 . S
C15 C14 1.376 . S
C15 C16 1.370 . S
C16 C15 1.370 . S
C16 C17 1.396 . S
C16 H38 0.929 . S
C17 C12 1.373 . S
C17 C16 1.396 . S
C17 H39 0.929 . S
C18 O28 1.240 . S
C18 O29 1.289 . S
C19 O30 1.258 . S
C19 O31 1.256 . S
O20 La0 2.521 1_565 S
O20 C2 1.261 . S
O21 La0 2.628 1_565 S
O21 C2 1.243 . S
O22 La0 2.554 . S
O22 C9 1.240 . S
O23 La0 2.757 . S
O23 La1 2.482 . S
O23 C9 1.289 . S
O24 La0 2.470 . S
O24 C10 1.258 . S
O25 La1 2.503 . S
O25 C10 1.256 . S
O26 La1 2.521 . S
O26 C11 1.261 . S
O27 La1 2.628 . S
O27 C11 1.243 . S
O28 La1 2.554 . S
O28 C18 1.240 . S
O29 La0 2.482 . S
O29 La1 2.757 . S
O29 C18 1.289 . S
O30 La1 2.470 . S
O30 C19 1.258 . S
O31 La0 2.503 . S
O31 C19 1.256 . S
H32 C4 0.930 . S
H33 C5 0.930 . S
H34 C7 0.929 . S
H35 C8 0.929 . S
H36 C13 0.930 . S
H37 C14 0.930 . S
H38 C16 0.929 . S
H39 C17 0.929 . S
La40 C42 2.928 1_565 S
La40 O60 2.521 1_565 S
La40 O61 2.628 1_565 S
La40 O62 2.554 . S
La40 O63 2.757 . S
La40 O64 2.470 . S
La40 O69 2.482 . S
La40 O71 2.503 . S
La41 C51 2.928 . S
La41 O63 2.482 . S
La41 O65 2.503 . S
La41 O66 2.521 . S
La41 O67 2.628 . S
La41 O68 2.554 . S
La41 O69 2.757 . S
La41 O70 2.470 . S
C42 La40 2.928 1_545 S
C42 C43 1.503 . S
C42 O60 1.261 . S
C42 O61 1.243 . S
C43 C42 1.503 . S
C43 C44 1.394 . S
C43 C48 1.373 . S
C44 C43 1.394 . S
C44 C45 1.380 . S
C44 H72 0.930 . S
C45 C44 1.380 . S
C45 C46 1.376 . S
C45 H73 0.930 . S
C46 C45 1.376 . S
C46 C47 1.370 . S
C47 C46 1.370 . S
C47 C48 1.396 . S
C47 H74 0.929 . S
C48 C43 1.373 . S
C48 C47 1.396 . S
C48 H75 0.929 . S
C49 O62 1.240 . S
C49 O63 1.289 . S
C50 O64 1.258 . S
C50 O65 1.256 . S
C51 La41 2.928 . S
C51 C52 1.503 . S
C51 O66 1.261 . S
C51 O67 1.243 . S
C52 C51 1.503 . S
C52 C53 1.394 . S
C52 C57 1.373 . S
C53 C52 1.394 . S
C53 C54 1.380 . S
C53 H76 0.930 . S
C54 C53 1.380 . S
C54 C55 1.376 . S
C54 H77 0.930 . S
C55 C54 1.376 . S
C55 C56 1.370 . S
C56 C55 1.370 . S
C56 C57 1.396 . S
C56 H78 0.929 . S
C57 C52 1.373 . S
C57 C56 1.396 . S
C57 H79 0.929 . S
C58 O68 1.240 . S
C58 O69 1.289 . S
C59 O70 1.258 . S
C59 O71 1.256 . S
O60 La40 2.521 1_545 S
O60 C42 1.261 . S
O61 La40 2.628 1_545 S
O61 C42 1.243 . S
O62 La40 2.554 . S
O62 C49 1.240 . S
O63 La40 2.757 . S
O63 La41 2.482 . S
O63 C49 1.289 . S
O64 La40 2.470 . S
O64 C50 1.258 . S
O65 La41 2.503 . S
O65 C50 1.256 . S
O66 La41 2.521 . S
O66 C51 1.261 . S
O67 La41 2.628 . S
O67 C51 1.243 . S
O68 La41 2.554 . S
O68 C58 1.240 . S
O69 La40 2.482 . S
O69 La41 2.757 . S
O69 C58 1.289 . S
O70 La41 2.470 . S
O70 C59 1.258 . S
O71 La40 2.503 . S
O71 C59 1.256 . S
H72 C44 0.930 . S
H73 C45 0.930 . S
H74 C47 0.929 . S
H75 C48 0.929 . S
H76 C53 0.930 . S
H77 C54 0.930 . S
H78 C56 0.929 . S
H79 C57 0.929 . S
La80 C82 2.928 1_565 S
La80 O100 2.521 1_565 S
La80 O101 2.628 1_565 S
La80 O102 2.554 . S
La80 O103 2.757 . S
La80 O104 2.470 . S
La80 O109 2.482 . S
La80 O111 2.503 . S
La81 C91 2.928 . S
La81 O103 2.482 . S
La81 O105 2.503 . S
La81 O106 2.521 . S
La81 O107 2.628 . S
La81 O108 2.554 . S
La81 O109 2.757 . S
La81 O110 2.470 . S
C82 La80 2.928 1_545 S
C82 C83 1.503 . S
C82 O100 1.261 . S
C82 O101 1.243 . S
C83 C82 1.503 . S
C83 C84 1.394 . S
C83 C88 1.373 . S
C84 C83 1.394 . S
C84 C85 1.380 . S
C84 H112 0.930 . S
C85 C84 1.380 . S
C85 C86 1.376 . S
C85 H113 0.930 . S
C86 C85 1.376 . S
C86 C87 1.370 . S
C87 C86 1.370 . S
C87 C88 1.396 . S
C87 H114 0.929 . S
C88 C83 1.373 . S
C88 C87 1.396 . S
C88 H115 0.929 . S
C89 O102 1.240 . S
C89 O103 1.289 . S
C90 O104 1.258 . S
C90 O105 1.256 . S
C91 La81 2.928 . S
C91 C92 1.503 . S
C91 O106 1.261 . S
C91 O107 1.243 . S
C92 C91 1.503 . S
C92 C93 1.394 . S
C92 C97 1.373 . S
C93 C92 1.394 . S
C93 C94 1.380 . S
C93 H116 0.930 . S
C94 C93 1.380 . S
C94 C95 1.376 . S
C94 H117 0.930 . S
C95 C94 1.376 . S
C95 C96 1.370 . S
C96 C95 1.370 . S
C96 C97 1.396 . S
C96 H118 0.929 . S
C97 C92 1.373 . S
C97 C96 1.396 . S
C97 H119 0.929 . S
C98 O108 1.240 . S
C98 O109 1.289 . S
C99 O110 1.258 . S
C99 O111 1.256 . S
O100 La80 2.521 1_545 S
O100 C82 1.261 . S
O101 La80 2.628 1_545 S
O101 C82 1.243 . S
O102 La80 2.554 . S
O102 C89 1.240 . S
O103 La80 2.757 . S
O103 La81 2.482 . S
O103 C89 1.289 . S
O104 La80 2.470 . S
O104 C90 1.258 . S
O105 La81 2.503 . S
O105 C90 1.256 . S
O106 La81 2.521 . S
O106 C91 1.261 . S
O107 La81 2.628 . S
O107 C91 1.243 . S
O108 La81 2.554 . S
O108 C98 1.240 . S
O109 La80 2.482 . S
O109 La81 2.757 . S
O109 C98 1.289 . S
O110 La81 2.470 . S
O110 C99 1.258 . S
O111 La80 2.503 . S
O111 C99 1.256 . S
H112 C84 0.930 . S
H113 C85 0.930 . S
H114 C87 0.929 . S
H115 C88 0.929 . S
H116 C93 0.930 . S
H117 C94 0.930 . S
H118 C96 0.929 . S
H119 C97 0.929 . S
La120 C122 2.928 1_545 S
La120 O140 2.521 1_545 S
La120 O141 2.628 1_545 S
La120 O142 2.554 . S
La120 O143 2.757 . S
La120 O144 2.470 . S
La120 O149 2.482 . S
La120 O151 2.503 . S
La121 C131 2.928 . S
La121 O143 2.482 . S
La121 O145 2.503 . S
La121 O146 2.521 . S
La121 O147 2.628 . S
La121 O148 2.554 . S
La121 O149 2.757 . S
La121 O150 2.470 . S
C122 La120 2.928 1_565 S
C122 C123 1.503 . S
C122 O140 1.261 . S
C122 O141 1.243 . S
C123 C122 1.503 . S
C123 C124 1.394 . S
C123 C128 1.373 . S
C124 C123 1.394 . S
C124 C125 1.380 . S
C124 H152 0.930 . S
C125 C124 1.380 . S
C125 C126 1.376 . S
C125 H153 0.930 . S
C126 C125 1.376 . S
C126 C127 1.370 . S
C127 C126 1.370 . S
C127 C128 1.396 . S
C127 H154 0.929 . S
C128 C123 1.373 . S
C128 C127 1.396 . S
C128 H155 0.929 . S
C129 O142 1.240 . S
C129 O143 1.289 . S
C130 O144 1.258 . S
C130 O145 1.256 . S
C131 La121 2.928 . S
C131 C132 1.503 . S
C131 O146 1.261 . S
C131 O147 1.243 . S
C132 C131 1.503 . S
C132 C133 1.394 . S
C132 C137 1.373 . S
C133 C132 1.394 . S
C133 C134 1.380 . S
C133 H156 0.930 . S
C134 C133 1.380 . S
C134 C135 1.376 . S
C134 H157 0.930 . S
C135 C134 1.376 . S
C135 C136 1.370 . S
C136 C135 1.370 . S
C136 C137 1.396 . S
C136 H158 0.929 . S
C137 C132 1.373 . S
C137 C136 1.396 . S
C137 H159 0.929 . S
C138 O148 1.240 . S
C138 O149 1.289 . S
C139 O150 1.258 . S
C139 O151 1.256 . S
O140 La120 2.521 1_565 S
O140 C122 1.261 . S
O141 La120 2.628 1_565 S
O141 C122 1.243 . S
O142 La120 2.554 . S
O142 C129 1.240 . S
O143 La120 2.757 . S
O143 La121 2.482 . S
O143 C129 1.289 . S
O144 La120 2.470 . S
O144 C130 1.258 . S
O145 La121 2.503 . S
O145 C130 1.256 . S
O146 La121 2.521 . S
O146 C131 1.261 . S
O147 La121 2.628 . S
O147 C131 1.243 . S
O148 La121 2.554 . S
O148 C138 1.240 . S
O149 La120 2.482 . S
O149 La121 2.757 . S
O149 C138 1.289 . S
O150 La121 2.470 . S
O150 C139 1.258 . S
O151 La120 2.503 . S
O151 C139 1.256 . S
H152 C124 0.930 . S
H153 C125 0.930 . S
H154 C127 0.929 . S
H155 C128 0.929 . S
H156 C133 0.930 . S
H157 C134 0.930 . S
H158 C136 0.929 . S
H159 C137 0.929 . S
La160 C162 2.928 . S
La160 O180 2.521 . S
La160 O181 2.628 . S
La160 O182 2.554 . S
La160 O183 2.757 . S
La160 O184 2.470 . S
La160 O189 2.482 . S
La160 O191 2.503 . S
La161 C171 2.928 1_565 S
La161 O183 2.482 . S
La161 O185 2.503 . S
La161 O186 2.521 1_565 S
La161 O187 2.628 1_565 S
La161 O188 2.554 . S
La161 O189 2.757 . S
La161 O190 2.470 . S
C162 La160 2.928 . S
C162 C163 1.503 . S
C162 O180 1.261 . S
C162 O181 1.243 . S
C163 C162 1.503 . S
C163 C164 1.394 . S
C163 C168 1.373 . S
C164 C163 1.394 . S
C164 C165 1.380 . S
C164 H192 0.930 . S
C165 C164 1.380 . S
C165 C166 1.376 . S
C165 H193 0.930 . S
C166 C165 1.376 . S
C166 C167 1.370 . S
C167 C166 1.370 . S
C167 C168 1.396 . S
C167 H194 0.929 . S
C168 C163 1.373 . S
C168 C167 1.396 . S
C168 H195 0.929 . S
C169 O182 1.240 . S
C169 O183 1.289 . S
C170 O184 1.258 . S
C170 O185 1.256 . S
C171 La161 2.928 1_545 S
C171 C172 1.503 . S
C171 O186 1.261 . S
C171 O187 1.243 . S
C172 C171 1.503 . S
C172 C173 1.394 . S
C172 C177 1.373 . S
C173 C172 1.394 . S
C173 C174 1.380 . S
C173 H196 0.930 . S
C174 C173 1.380 . S
C174 C175 1.376 . S
C174 H197 0.930 . S
C175 C174 1.376 . S
C175 C176 1.370 . S
C176 C175 1.370 . S
C176 C177 1.396 . S
C176 H198 0.929 . S
C177 C172 1.373 . S
C177 C176 1.396 . S
C177 H199 0.929 . S
C178 O188 1.240 . S
C178 O189 1.289 . S
C179 O190 1.258 . S
C179 O191 1.256 . S
O180 La160 2.521 . S
O180 C162 1.261 . S
O181 La160 2.628 . S
O181 C162 1.243 . S
O182 La160 2.554 . S
O182 C169 1.240 . S
O183 La160 2.757 . S
O183 La161 2.482 . S
O183 C169 1.289 . S
O184 La160 2.470 . S
O184 C170 1.258 . S
O185 La161 2.503 . S
O185 C170 1.256 . S
O186 La161 2.521 1_545 S
O186 C171 1.261 . S
O187 La161 2.628 1_545 S
O187 C171 1.243 . S
O188 La161 2.554 . S
O188 C178 1.240 . S
O189 La160 2.482 . S
O189 La161 2.757 . S
O189 C178 1.289 . S
O190 La161 2.470 . S
O190 C179 1.258 . S
O191 La160 2.503 . S
O191 C179 1.256 . S
H192 C164 0.930 . S
H193 C165 0.930 . S
H194 C167 0.929 . S
H195 C168 0.929 . S
H196 C173 0.930 . S
H197 C174 0.930 . S
H198 C176 0.929 . S
H199 C177 0.929 . S
La200 C202 2.928 . S
La200 O220 2.521 . S
La200 O221 2.628 . S
La200 O222 2.554 . S
La200 O223 2.757 . S
La200 O224 2.470 . S
La200 O229 2.482 . S
La200 O231 2.503 . S
La201 C211 2.928 1_545 S
La201 O223 2.482 . S
La201 O225 2.503 . S
La201 O226 2.521 1_545 S
La201 O227 2.628 1_545 S
La201 O228 2.554 . S
La201 O229 2.757 . S
La201 O230 2.470 . S
C202 La200 2.928 . S
C202 C203 1.503 . S
C202 O220 1.261 . S
C202 O221 1.243 . S
C203 C202 1.503 . S
C203 C204 1.394 . S
C203 C208 1.373 . S
C204 C203 1.394 . S
C204 C205 1.380 . S
C204 H232 0.930 . S
C205 C204 1.380 . S
C205 C206 1.376 . S
C205 H233 0.930 . S
C206 C205 1.376 . S
C206 C207 1.370 . S
C207 C206 1.370 . S
C207 C208 1.396 . S
C207 H234 0.929 . S
C208 C203 1.373 . S
C208 C207 1.396 . S
C208 H235 0.929 . S
C209 O222 1.240 . S
C209 O223 1.289 . S
C210 O224 1.258 . S
C210 O225 1.256 . S
C211 La201 2.928 1_565 S
C211 C212 1.503 . S
C211 O226 1.261 . S
C211 O227 1.243 . S
C212 C211 1.503 . S
C212 C213 1.394 . S
C212 C217 1.373 . S
C213 C212 1.394 . S
C213 C214 1.380 . S
C213 H236 0.930 . S
C214 C213 1.380 . S
C214 C215 1.376 . S
C214 H237 0.930 . S
C215 C214 1.376 . S
C215 C216 1.370 . S
C216 C215 1.370 . S
C216 C217 1.396 . S
C216 H238 0.929 . S
C217 C212 1.373 . S
C217 C216 1.396 . S
C217 H239 0.929 . S
C218 O228 1.240 . S
C218 O229 1.289 . S
C219 O230 1.258 . S
C219 O231 1.256 . S
O220 La200 2.521 . S
O220 C202 1.261 . S
O221 La200 2.628 . S
O221 C202 1.243 . S
O222 La200 2.554 . S
O222 C209 1.240 . S
O223 La200 2.757 . S
O223 La201 2.482 . S
O223 C209 1.289 . S
O224 La200 2.470 . S
O224 C210 1.258 . S
O225 La201 2.503 . S
O225 C210 1.256 . S
O226 La201 2.521 1_565 S
O226 C211 1.261 . S
O227 La201 2.628 1_565 S
O227 C211 1.243 . S
O228 La201 2.554 . S
O228 C218 1.240 . S
O229 La200 2.482 . S
O229 La201 2.757 . S
O229 C218 1.289 . S
O230 La201 2.470 . S
O230 C219 1.258 . S
O231 La200 2.503 . S
O231 C219 1.256 . S
H232 C204 0.930 . S
H233 C205 0.930 . S
H234 C207 0.929 . S
H235 C208 0.929 . S
H236 C213 0.930 . S
H237 C214 0.930 . S
H238 C216 0.929 . S
H239 C217 0.929 . S
La240 C242 2.928 . S
La240 O260 2.521 . S
La240 O261 2.628 . S
La240 O262 2.554 . S
La240 O263 2.757 . S
La240 O264 2.470 . S
La240 O269 2.482 . S
La240 O271 2.503 . S
La241 C251 2.928 1_545 S
La241 O263 2.482 . S
La241 O265 2.503 . S
La241 O266 2.521 1_545 S
La241 O267 2.628 1_545 S
La241 O268 2.554 . S
La241 O269 2.757 . S
La241 O270 2.470 . S
C242 La240 2.928 . S
C242 C243 1.503 . S
C242 O260 1.261 . S
C242 O261 1.243 . S
C243 C242 1.503 . S
C243 C244 1.394 . S
C243 C248 1.373 . S
C244 C243 1.394 . S
C244 C245 1.380 . S
C244 H272 0.930 . S
C245 C244 1.380 . S
C245 C246 1.376 . S
C245 H273 0.930 . S
C246 C245 1.376 . S
C246 C247 1.370 . S
C247 C246 1.370 . S
C247 C248 1.396 . S
C247 H274 0.929 . S
C248 C243 1.373 . S
C248 C247 1.396 . S
C248 H275 0.929 . S
C249 O262 1.240 . S
C249 O263 1.289 . S
C250 O264 1.258 . S
C250 O265 1.256 . S
C251 La241 2.928 1_565 S
C251 C252 1.503 . S
C251 O266 1.261 . S
C251 O267 1.243 . S
C252 C251 1.503 . S
C252 C253 1.394 . S
C252 C257 1.373 . S
C253 C252 1.394 . S
C253 C254 1.380 . S
C253 H276 0.930 . S
C254 C253 1.380 . S
C254 C255 1.376 . S
C254 H277 0.930 . S
C255 C254 1.376 . S
C255 C256 1.370 . S
C256 C255 1.370 . S
C256 C257 1.396 . S
C256 H278 0.929 . S
C257 C252 1.373 . S
C257 C256 1.396 . S
C257 H279 0.929 . S
C258 O268 1.240 . S
C258 O269 1.289 . S
C259 O270 1.258 . S
C259 O271 1.256 . S
O260 La240 2.521 . S
O260 C242 1.261 . S
O261 La240 2.628 . S
O261 C242 1.243 . S
O262 La240 2.554 . S
O262 C249 1.240 . S
O263 La240 2.757 . S
O263 La241 2.482 . S
O263 C249 1.289 . S
O264 La240 2.470 . S
O264 C250 1.258 . S
O265 La241 2.503 . S
O265 C250 1.256 . S
O266 La241 2.521 1_565 S
O266 C251 1.261 . S
O267 La241 2.628 1_565 S
O267 C251 1.243 . S
O268 La241 2.554 . S
O268 C258 1.240 . S
O269 La240 2.482 . S
O269 La241 2.757 . S
O269 C258 1.289 . S
O270 La241 2.470 . S
O270 C259 1.258 . S
O271 La240 2.503 . S
O271 C259 1.256 . S
H272 C244 0.930 . S
H273 C245 0.930 . S
H274 C247 0.929 . S
H275 C248 0.929 . S
H276 C253 0.930 . S
H277 C254 0.930 . S
H278 C256 0.929 . S
H279 C257 0.929 . S
La280 C282 2.928 . S
La280 O300 2.521 . S
La280 O301 2.628 . S
La280 O302 2.554 . S
La280 O303 2.757 . S
La280 O304 2.470 . S
La280 O309 2.482 . S
La280 O311 2.503 . S
La281 C291 2.928 1_565 S
La281 O303 2.482 . S
La281 O305 2.503 . S
La281 O306 2.521 1_565 S
La281 O307 2.628 1_565 S
La281 O308 2.554 . S
La281 O309 2.757 . S
La281 O310 2.470 . S
C282 La280 2.928 . S
C282 C283 1.503 . S
C282 O300 1.261 . S
C282 O301 1.243 . S
C283 C282 1.503 . S
C283 C284 1.394 . S
C283 C288 1.373 . S
C284 C283 1.394 . S
C284 C285 1.380 . S
C284 H312 0.930 . S
C285 C284 1.380 . S
C285 C286 1.376 . S
C285 H313 0.930 . S
C286 C285 1.376 . S
C286 C287 1.370 . S
C287 C286 1.370 . S
C287 C288 1.396 . S
C287 H314 0.929 . S
C288 C283 1.373 . S
C288 C287 1.396 . S
C288 H315 0.929 . S
C289 O302 1.240 . S
C289 O303 1.289 . S
C290 O304 1.258 . S
C290 O305 1.256 . S
C291 La281 2.928 1_545 S
C291 C292 1.503 . S
C291 O306 1.261 . S
C291 O307 1.243 . S
C292 C291 1.503 . S
C292 C293 1.394 . S
C292 C297 1.373 . S
C293 C292 1.394 . S
C293 C294 1.380 . S
C293 H316 0.930 . S
C294 C293 1.380 . S
C294 C295 1.376 . S
C294 H317 0.930 . S
C295 C294 1.376 . S
C295 C296 1.370 . S
C296 C295 1.370 . S
C296 C297 1.396 . S
C296 H318 0.929 . S
C297 C292 1.373 . S
C297 C296 1.396 . S
C297 H319 0.929 . S
C298 O308 1.240 . S
C298 O309 1.289 . S
C299 O310 1.258 . S
C299 O311 1.256 . S
O300 La280 2.521 . S
O300 C282 1.261 . S
O301 La280 2.628 . S
O301 C282 1.243 . S
O302 La280 2.554 . S
O302 C289 1.240 . S
O303 La280 2.757 . S
O303 La281 2.482 . S
O303 C289 1.289 . S
O304 La280 2.470 . S
O304 C290 1.258 . S
O305 La281 2.503 . S
O305 C290 1.256 . S
O306 La281 2.521 1_545 S
O306 C291 1.261 . S
O307 La281 2.628 1_545 S
O307 C291 1.243 . S
O308 La281 2.554 . S
O308 C298 1.240 . S
O309 La280 2.482 . S
O309 La281 2.757 . S
O309 C298 1.289 . S
O310 La281 2.470 . S
O310 C299 1.258 . S
O311 La280 2.503 . S
O311 C299 1.256 . S
H312 C284 0.930 . S
H313 C285 0.930 . S
H314 C287 0.929 . S
H315 C288 0.929 . S
H316 C293 0.930 . S
H317 C294 0.930 . S
H318 C296 0.929 . S
H319 C297 0.929 . S
La320 C322 2.928 . S
La320 O340 2.521 . S
La320 O341 2.628 . S
La320 O342 2.554 . S
La320 O343 2.757 . S
La320 O344 2.470 . S
La320 O349 2.482 . S
La320 O351 2.503 . S
La321 C331 2.928 . S
La321 O343 2.482 . S
La321 O345 2.503 . S
La321 O346 2.521 . S
La321 O347 2.628 . S
La321 O348 2.554 . S
La321 O349 2.757 . S
La321 O350 2.470 . S
C322 La320 2.928 . S
C322 C323 1.503 . S
C322 O340 1.261 . S
C322 O341 1.243 . S
C323 C322 1.503 . S
C323 C324 1.394 . S
C323 C328 1.373 . S
C324 C323 1.394 . S
C324 C325 1.380 . S
C324 H352 0.930 . S
C325 C324 1.380 . S
C325 C326 1.376 . S
C325 H353 0.930 . S
C326 C325 1.376 . S
C326 C327 1.370 . S
C327 C326 1.370 . S
C327 C328 1.396 . S
C327 H354 0.929 . S
C328 C323 1.373 . S
C328 C327 1.396 . S
C328 H355 0.929 . S
C329 O342 1.240 . S
C329 O343 1.289 . S
C330 O344 1.258 . S
C330 O345 1.256 . S
C331 La321 2.928 . S
C331 C332 1.503 . S
C331 O346 1.261 . S
C331 O347 1.243 . S
C332 C331 1.503 . S
C332 C333 1.394 . S
C332 C337 1.373 . S
C333 C332 1.394 . S
C333 C334 1.380 . S
C333 H356 0.930 . S
C334 C333 1.380 . S
C334 C335 1.376 . S
C334 H357 0.930 . S
C335 C334 1.376 . S
C335 C336 1.370 . S
C336 C335 1.370 . S
C336 C337 1.396 . S
C336 H358 0.929 . S
C337 C332 1.373 . S
C337 C336 1.396 . S
C337 H359 0.929 . S
C338 O348 1.240 . S
C338 O349 1.289 . S
C339 O350 1.258 . S
C339 O351 1.256 . S
O340 La320 2.521 . S
O340 C322 1.261 . S
O341 La320 2.628 . S
O341 C322 1.243 . S
O342 La320 2.554 . S
O342 C329 1.240 . S
O343 La320 2.757 . S
O343 La321 2.482 . S
O343 C329 1.289 . S
O344 La320 2.470 . S
O344 C330 1.258 . S
O345 La321 2.503 . S
O345 C330 1.256 . S
O346 La321 2.521 . S
O346 C331 1.261 . S
O347 La321 2.628 . S
O347 C331 1.243 . S
O348 La321 2.554 . S
O348 C338 1.240 . S
O349 La320 2.482 . S
O349 La321 2.757 . S
O349 C338 1.289 . S
O350 La321 2.470 . S
O350 C339 1.258 . S
O351 La320 2.503 . S
O351 C339 1.256 . S
H352 C324 0.930 . S
H353 C325 0.930 . S
H354 C327 0.929 . S
H355 C328 0.929 . S
H356 C333 0.930 . S
H357 C334 0.930 . S
H358 C336 0.929 . S
H359 C337 0.929 . S
La360 C362 2.928 . S
La360 O380 2.521 . S
La360 O381 2.628 . S
La360 O382 2.554 . S
La360 O383 2.757 . S
La360 O384 2.470 . S
La360 O389 2.482 . S
La360 O391 2.503 . S
La361 C371 2.928 . S
La361 O383 2.482 . S
La361 O385 2.503 . S
La361 O386 2.521 . S
La361 O387 2.628 . S
La361 O388 2.554 . S
La361 O389 2.757 . S
La361 O390 2.470 . S
C362 La360 2.928 . S
C362 C363 1.503 . S
C362 O380 1.261 . S
C362 O381 1.243 . S
C363 C362 1.503 . S
C363 C364 1.394 . S
C363 C368 1.373 . S
C364 C363 1.394 . S
C364 C365 1.380 . S
C364 H392 0.930 . S
C365 C364 1.380 . S
C365 C366 1.376 . S
C365 H393 0.930 . S
C366 C365 1.376 . S
C366 C367 1.370 . S
C367 C366 1.370 . S
C367 C368 1.396 . S
C367 H394 0.929 . S
C368 C363 1.373 . S
C368 C367 1.396 . S
C368 H395 0.929 . S
C369 O382 1.240 . S
C369 O383 1.289 . S
C370 O384 1.258 . S
C370 O385 1.256 . S
C371 La361 2.928 . S
C371 C372 1.503 . S
C371 O386 1.261 . S
C371 O387 1.243 . S
C372 C371 1.503 . S
C372 C373 1.394 . S
C372 C377 1.373 . S
C373 C372 1.394 . S
C373 C374 1.380 . S
C373 H396 0.930 . S
C374 C373 1.380 . S
C374 C375 1.376 . S
C374 H397 0.930 . S
C375 C374 1.376 . S
C375 C376 1.370 . S
C376 C375 1.370 . S
C376 C377 1.396 . S
C376 H398 0.929 . S
C377 C372 1.373 . S
C377 C376 1.396 . S
C377 H399 0.929 . S
C378 O388 1.240 . S
C378 O389 1.289 . S
C379 O390 1.258 . S
C379 O391 1.256 . S
O380 La360 2.521 . S
O380 C362 1.261 . S
O381 La360 2.628 . S
O381 C362 1.243 . S
O382 La360 2.554 . S
O382 C369 1.240 . S
O383 La360 2.757 . S
O383 La361 2.482 . S
O383 C369 1.289 . S
O384 La360 2.470 . S
O384 C370 1.258 . S
O385 La361 2.503 . S
O385 C370 1.256 . S
O386 La361 2.521 . S
O386 C371 1.261 . S
O387 La361 2.628 . S
O387 C371 1.243 . S
O388 La361 2.554 . S
O388 C378 1.240 . S
O389 La360 2.482 . S
O389 La361 2.757 . S
O389 C378 1.289 . S
O390 La361 2.470 . S
O390 C379 1.258 . S
O391 La360 2.503 . S
O391 C379 1.256 . S
H392 C364 0.930 . S
H393 C365 0.930 . S
H394 C367 0.929 . S
H395 C368 0.929 . S
H396 C373 0.930 . S
H397 C374 0.930 . S
H398 C376 0.929 . S
H399 C377 0.929 . S
La400 C402 2.928 . S
La400 O420 2.521 . S
La400 O421 2.628 . S
La400 O422 2.554 . S
La400 O423 2.757 . S
La400 O424 2.470 . S
La400 O429 2.482 . S
La400 O431 2.503 . S
La401 C411 2.928 . S
La401 O423 2.482 . S
La401 O425 2.503 . S
La401 O426 2.521 . S
La401 O427 2.628 . S
La401 O428 2.554 . S
La401 O429 2.757 . S
La401 O430 2.470 . S
C402 La400 2.928 . S
C402 C403 1.503 . S
C402 O420 1.261 . S
C402 O421 1.243 . S
C403 C402 1.503 . S
C403 C404 1.394 . S
C403 C408 1.373 . S
C404 C403 1.394 . S
C404 C405 1.380 . S
C404 H432 0.930 . S
C405 C404 1.380 . S
C405 C406 1.376 . S
C405 H433 0.930 . S
C406 C405 1.376 . S
C406 C407 1.370 . S
C407 C406 1.370 . S
C407 C408 1.396 . S
C407 H434 0.929 . S
C408 C403 1.373 . S
C408 C407 1.396 . S
C408 H435 0.929 . S
C409 O422 1.240 . S
C409 O423 1.289 . S
C410 O424 1.258 . S
C410 O425 1.256 . S
C411 La401 2.928 . S
C411 C412 1.503 . S
C411 O426 1.261 . S
C411 O427 1.243 . S
C412 C411 1.503 . S
C412 C413 1.394 . S
C412 C417 1.373 . S
C413 C412 1.394 . S
C413 C414 1.380 . S
C413 H436 0.930 . S
C414 C413 1.380 . S
C414 C415 1.376 . S
C414 H437 0.930 . S
C415 C414 1.376 . S
C415 C416 1.370 . S
C416 C415 1.370 . S
C416 C417 1.396 . S
C416 H438 0.929 . S
C417 C412 1.373 . S
C417 C416 1.396 . S
C417 H439 0.929 . S
C418 O428 1.240 . S
C418 O429 1.289 . S
C419 O430 1.258 . S
C419 O431 1.256 . S
O420 La400 2.521 . S
O420 C402 1.261 . S
O421 La400 2.628 . S
O421 C402 1.243 . S
O422 La400 2.554 . S
O422 C409 1.240 . S
O423 La400 2.757 . S
O423 La401 2.482 . S
O423 C409 1.289 . S
O424 La400 2.470 . S
O424 C410 1.258 . S
O425 La401 2.503 . S
O425 C410 1.256 . S
O426 La401 2.521 . S
O426 C411 1.261 . S
O427 La401 2.628 . S
O427 C411 1.243 . S
O428 La401 2.554 . S
O428 C418 1.240 . S
O429 La400 2.482 . S
O429 La401 2.757 . S
O429 C418 1.289 . S
O430 La401 2.470 . S
O430 C419 1.258 . S
O431 La400 2.503 . S
O431 C419 1.256 . S
H432 C404 0.930 . S
H433 C405 0.930 . S
H434 C407 0.929 . S
H435 C408 0.929 . S
H436 C413 0.930 . S
H437 C414 0.930 . S
H438 C416 0.929 . S
H439 C417 0.929 . S
La440 C442 2.928 . S
La440 O460 2.521 . S
La440 O461 2.628 . S
La440 O462 2.554 . S
La440 O463 2.757 . S
La440 O464 2.470 . S
La440 O469 2.482 . S
La440 O471 2.503 . S
La441 C451 2.928 . S
La441 O463 2.482 . S
La441 O465 2.503 . S
La441 O466 2.521 . S
La441 O467 2.628 . S
La441 O468 2.554 . S
La441 O469 2.757 . S
La441 O470 2.470 . S
C442 La440 2.928 . S
C442 C443 1.503 . S
C442 O460 1.261 . S
C442 O461 1.243 . S
C443 C442 1.503 . S
C443 C444 1.394 . S
C443 C448 1.373 . S
C444 C443 1.394 . S
C444 C445 1.380 . S
C444 H472 0.930 . S
C445 C444 1.380 . S
C445 C446 1.376 . S
C445 H473 0.930 . S
C446 C445 1.376 . S
C446 C447 1.370 . S
C447 C446 1.370 . S
C447 C448 1.396 . S
C447 H474 0.929 . S
C448 C443 1.373 . S
C448 C447 1.396 . S
C448 H475 0.929 . S
C449 O462 1.240 . S
C449 O463 1.289 . S
C450 O464 1.258 . S
C450 O465 1.256 . S
C451 La441 2.928 . S
C451 C452 1.503 . S
C451 O466 1.261 . S
C451 O467 1.243 . S
C452 C451 1.503 . S
C452 C453 1.394 . S
C452 C457 1.373 . S
C453 C452 1.394 . S
C453 C454 1.380 . S
C453 H476 0.930 . S
C454 C453 1.380 . S
C454 C455 1.376 . S
C454 H477 0.930 . S
C455 C454 1.376 . S
C455 C456 1.370 . S
C456 C455 1.370 . S
C456 C457 1.396 . S
C456 H478 0.929 . S
C457 C452 1.373 . S
C457 C456 1.396 . S
C457 H479 0.929 . S
C458 O468 1.240 . S
C458 O469 1.289 . S
C459 O470 1.258 . S
C459 O471 1.256 . S
O460 La440 2.521 . S
O460 C442 1.261 . S
O461 La440 2.628 . S
O461 C442 1.243 . S
O462 La440 2.554 . S
O462 C449 1.240 . S
O463 La440 2.757 . S
O463 La441 2.482 . S
O463 C449 1.289 . S
O464 La440 2.470 . S
O464 C450 1.258 . S
O465 La441 2.503 . S
O465 C450 1.256 . S
O466 La441 2.521 . S
O466 C451 1.261 . S
O467 La441 2.628 . S
O467 C451 1.243 . S
O468 La441 2.554 . S
O468 C458 1.240 . S
O469 La440 2.482 . S
O469 La441 2.757 . S
O469 C458 1.289 . S
O470 La441 2.470 . S
O470 C459 1.258 . S
O471 La440 2.503 . S
O471 C459 1.256 . S
H472 C444 0.930 . S
H473 C445 0.930 . S
H474 C447 0.929 . S
H475 C448 0.929 . S
H476 C453 0.930 . S
H477 C454 0.930 . S
H478 C456 0.929 . S
H479 C457 0.929 . S
La480 C482 2.928 . S
La480 O500 2.521 . S
La480 O501 2.628 . S
La480 O502 2.554 . S
La480 O503 2.757 . S
La480 O504 2.470 . S
La480 O509 2.482 . S
La480 O511 2.503 . S
La481 C491 2.928 . S
La481 O503 2.482 . S
La481 O505 2.503 . S
La481 O506 2.521 . S
La481 O507 2.628 . S
La481 O508 2.554 . S
La481 O509 2.757 . S
La481 O510 2.470 . S
C482 La480 2.928 . S
C482 C483 1.503 . S
C482 O500 1.261 . S
C482 O501 1.243 . S
C483 C482 1.503 . S
C483 C484 1.394 . S
C483 C488 1.373 . S
C484 C483 1.394 . S
C484 C485 1.380 . S
C484 H512 0.930 . S
C485 C484 1.380 . S
C485 C486 1.376 . S
C485 H513 0.930 . S
C486 C485 1.376 . S
C486 C487 1.370 . S
C487 C486 1.370 . S
C487 C488 1.396 . S
C487 H514 0.929 . S
C488 C483 1.373 . S
C488 C487 1.396 . S
C488 H515 0.929 . S
C489 O502 1.240 . S
C489 O503 1.289 . S
C490 O504 1.258 . S
C490 O505 1.256 . S
C491 La481 2.928 . S
C491 C492 1.503 . S
C491 O506 1.261 . S
C491 O507 1.243 . S
C492 C491 1.503 . S
C492 C493 1.394 . S
C492 C497 1.373 . S
C493 C492 1.394 . S
C493 C494 1.380 . S
C493 H516 0.930 . S
C494 C493 1.380 . S
C494 C495 1.376 . S
C494 H517 0.930 . S
C495 C494 1.376 . S
C495 C496 1.370 . S
C496 C495 1.370 . S
C496 C497 1.396 . S
C496 H518 0.929 . S
C497 C492 1.373 . S
C497 C496 1.396 . S
C497 H519 0.929 . S
C498 O508 1.240 . S
C498 O509 1.289 . S
C499 O510 1.258 . S
C499 O511 1.256 . S
O500 La480 2.521 . S
O500 C482 1.261 . S
O501 La480 2.628 . S
O501 C482 1.243 . S
O502 La480 2.554 . S
O502 C489 1.240 . S
O503 La480 2.757 . S
O503 La481 2.482 . S
O503 C489 1.289 . S
O504 La480 2.470 . S
O504 C490 1.258 . S
O505 La481 2.503 . S
O505 C490 1.256 . S
O506 La481 2.521 . S
O506 C491 1.261 . S
O507 La481 2.628 . S
O507 C491 1.243 . S
O508 La481 2.554 . S
O508 C498 1.240 . S
O509 La480 2.482 . S
O509 La481 2.757 . S
O509 C498 1.289 . S
O510 La481 2.470 . S
O510 C499 1.258 . S
O511 La480 2.503 . S
O511 C499 1.256 . S
H512 C484 0.930 . S
H513 C485 0.930 . S
H514 C487 0.929 . S
H515 C488 0.929 . S
H516 C493 0.930 . S
H517 C494 0.930 . S
H518 C496 0.929 . S
H519 C497 0.929 . S
La520 C522 2.928 . S
La520 O540 2.521 . S
La520 O541 2.628 . S
La520 O542 2.554 . S
La520 O543 2.757 . S
La520 O544 2.470 . S
La520 O549 2.482 . S
La520 O551 2.503 . S
La521 C531 2.928 . S
La521 O543 2.482 . S
La521 O545 2.503 . S
La521 O546 2.521 . S
La521 O547 2.628 . S
La521 O548 2.554 . S
La521 O549 2.757 . S
La521 O550 2.470 . S
C522 La520 2.928 . S
C522 C523 1.503 . S
C522 O540 1.261 . S
C522 O541 1.243 . S
C523 C522 1.503 . S
C523 C524 1.394 . S
C523 C528 1.373 . S
C524 C523 1.394 . S
C524 C525 1.380 . S
C524 H552 0.930 . S
C525 C524 1.380 . S
C525 C526 1.376 . S
C525 H553 0.930 . S
C526 C525 1.376 . S
C526 C527 1.370 . S
C527 C526 1.370 . S
C527 C528 1.396 . S
C527 H554 0.929 . S
C528 C523 1.373 . S
C528 C527 1.396 . S
C528 H555 0.929 . S
C529 O542 1.240 . S
C529 O543 1.289 . S
C530 O544 1.258 . S
C530 O545 1.256 . S
C531 La521 2.928 . S
C531 C532 1.503 . S
C531 O546 1.261 . S
C531 O547 1.243 . S
C532 C531 1.503 . S
C532 C533 1.394 . S
C532 C537 1.373 . S
C533 C532 1.394 . S
C533 C534 1.380 . S
C533 H556 0.930 . S
C534 C533 1.380 . S
C534 C535 1.376 . S
C534 H557 0.930 . S
C535 C534 1.376 . S
C535 C536 1.370 . S
C536 C535 1.370 . S
C536 C537 1.396 . S
C536 H558 0.929 . S
C537 C532 1.373 . S
C537 C536 1.396 . S
C537 H559 0.929 . S
C538 O548 1.240 . S
C538 O549 1.289 . S
C539 O550 1.258 . S
C539 O551 1.256 . S
O540 La520 2.521 . S
O540 C522 1.261 . S
O541 La520 2.628 . S
O541 C522 1.243 . S
O542 La520 2.554 . S
O542 C529 1.240 . S
O543 La520 2.757 . S
O543 La521 2.482 . S
O543 C529 1.289 . S
O544 La520 2.470 . S
O544 C530 1.258 . S
O545 La521 2.503 . S
O545 C530 1.256 . S
O546 La521 2.521 . S
O546 C531 1.261 . S
O547 La521 2.628 . S
O547 C531 1.243 . S
O548 La521 2.554 . S
O548 C538 1.240 . S
O549 La520 2.482 . S
O549 La521 2.757 . S
O549 C538 1.289 . S
O550 La521 2.470 . S
O550 C539 1.258 . S
O551 La520 2.503 . S
O551 C539 1.256 . S
H552 C524 0.930 . S
H553 C525 0.930 . S
H554 C527 0.929 . S
H555 C528 0.929 . S
H556 C533 0.930 . S
H557 C534 0.930 . S
H558 C536 0.929 . S
H559 C537 0.929 . S
La560 C562 2.928 . S
La560 O580 2.521 . S
La560 O581 2.628 . S
La560 O582 2.554 . S
La560 O583 2.757 . S
La560 O584 2.470 . S
La560 O589 2.482 . S
La560 O591 2.503 . S
La561 C571 2.928 . S
La561 O583 2.482 . S
La561 O585 2.503 . S
La561 O586 2.521 . S
La561 O587 2.628 . S
La561 O588 2.554 . S
La561 O589 2.757 . S
La561 O590 2.470 . S
C562 La560 2.928 . S
C562 C563 1.503 . S
C562 O580 1.261 . S
C562 O581 1.243 . S
C563 C562 1.503 . S
C563 C564 1.394 . S
C563 C568 1.373 . S
C564 C563 1.394 . S
C564 C565 1.380 . S
C564 H592 0.930 . S
C565 C564 1.380 . S
C565 C566 1.376 . S
C565 H593 0.930 . S
C566 C565 1.376 . S
C566 C567 1.370 . S
C567 C566 1.370 . S
C567 C568 1.396 . S
C567 H594 0.929 . S
C568 C563 1.373 . S
C568 C567 1.396 . S
C568 H595 0.929 . S
C569 O582 1.240 . S
C569 O583 1.289 . S
C570 O584 1.258 . S
C570 O585 1.256 . S
C571 La561 2.928 . S
C571 C572 1.503 . S
C571 O586 1.261 . S
C571 O587 1.243 . S
C572 C571 1.503 . S
C572 C573 1.394 . S
C572 C577 1.373 . S
C573 C572 1.394 . S
C573 C574 1.380 . S
C573 H596 0.930 . S
C574 C573 1.380 . S
C574 C575 1.376 . S
C574 H597 0.930 . S
C575 C574 1.376 . S
C575 C576 1.370 . S
C576 C575 1.370 . S
C576 C577 1.396 . S
C576 H598 0.929 . S
C577 C572 1.373 . S
C577 C576 1.396 . S
C577 H599 0.929 . S
C578 O588 1.240 . S
C578 O589 1.289 . S
C579 O590 1.258 . S
C579 O591 1.256 . S
O580 La560 2.521 . S
O580 C562 1.261 . S
O581 La560 2.628 . S
O581 C562 1.243 . S
O582 La560 2.554 . S
O582 C569 1.240 . S
O583 La560 2.757 . S
O583 La561 2.482 . S
O583 C569 1.289 . S
O584 La560 2.470 . S
O584 C570 1.258 . S
O585 La561 2.503 . S
O585 C570 1.256 . S
O586 La561 2.521 . S
O586 C571 1.261 . S
O587 La561 2.628 . S
O587 C571 1.243 . S
O588 La561 2.554 . S
O588 C578 1.240 . S
O589 La560 2.482 . S
O589 La561 2.757 . S
O589 C578 1.289 . S
O590 La561 2.470 . S
O590 C579 1.258 . S
O591 La560 2.503 . S
O591 C579 1.256 . S
H592 C564 0.930 . S
H593 C565 0.930 . S
H594 C567 0.929 . S
H595 C568 0.929 . S
H596 C573 0.930 . S
H597 C574 0.930 . S
H598 C576 0.929 . S
H599 C577 0.929 . S
La600 C602 2.928 . S
La600 O620 2.521 . S
La600 O621 2.628 . S
La600 O622 2.554 . S
La600 O623 2.757 . S
La600 O624 2.470 . S
La600 O629 2.482 . S
La600 O631 2.503 . S
La601 C611 2.928 . S
La601 O623 2.482 . S
La601 O625 2.503 . S
La601 O626 2.521 . S
La601 O627 2.628 . S
La601 O628 2.554 . S
La601 O629 2.757 . S
La601 O630 2.470 . S
C602 La600 2.928 . S
C602 C603 1.503 . S
C602 O620 1.261 . S
C602 O621 1.243 . S
C603 C602 1.503 . S
C603 C604 1.394 . S
C603 C608 1.373 . S
C604 C603 1.394 . S
C604 C605 1.380 . S
C604 H632 0.930 . S
C605 C604 1.380 . S
C605 C606 1.376 . S
C605 H633 0.930 . S
C606 C605 1.376 . S
C606 C607 1.370 . S
C607 C606 1.370 . S
C607 C608 1.396 . S
C607 H634 0.929 . S
C608 C603 1.373 . S
C608 C607 1.396 . S
C608 H635 0.929 . S
C609 O622 1.240 . S
C609 O623 1.289 . S
C610 O624 1.258 . S
C610 O625 1.256 . S
C611 La601 2.928 . S
C611 C612 1.503 . S
C611 O626 1.261 . S
C611 O627 1.243 . S
C612 C611 1.503 . S
C612 C613 1.394 . S
C612 C617 1.373 . S
C613 C612 1.394 . S
C613 C614 1.380 . S
C613 H636 0.930 . S
C614 C613 1.380 . S
C614 C615 1.376 . S
C614 H637 0.930 . S
C615 C614 1.376 . S
C615 C616 1.370 . S
C616 C615 1.370 . S
C616 C617 1.396 . S
C616 H638 0.929 . S
C617 C612 1.373 . S
C617 C616 1.396 . S
C617 H639 0.929 . S
C618 O628 1.240 . S
C618 O629 1.289 . S
C619 O630 1.258 . S
C619 O631 1.256 . S
O620 La600 2.521 . S
O620 C602 1.261 . S
O621 La600 2.628 . S
O621 C602 1.243 . S
O622 La600 2.554 . S
O622 C609 1.240 . S
O623 La600 2.757 . S
O623 La601 2.482 . S
O623 C609 1.289 . S
O624 La600 2.470 . S
O624 C610 1.258 . S
O625 La601 2.503 . S
O625 C610 1.256 . S
O626 La601 2.521 . S
O626 C611 1.261 . S
O627 La601 2.628 . S
O627 C611 1.243 . S
O628 La601 2.554 . S
O628 C618 1.240 . S
O629 La600 2.482 . S
O629 La601 2.757 . S
O629 C618 1.289 . S
O630 La601 2.470 . S
O630 C619 1.258 . S
O631 La600 2.503 . S
O631 C619 1.256 . S
H632 C604 0.930 . S
H633 C605 0.930 . S
H634 C607 0.929 . S
H635 C608 0.929 . S
H636 C613 0.930 . S
H637 C614 0.930 . S
H638 C616 0.929 . S
H639 C617 0.929 . S
H640 C652 0.930 . S
H641 C654 0.930 . S
H642 C655 0.930 . S
H643 C659 0.959 . S
H644 C659 0.959 . S
H645 C659 0.961 . S
H646 C660 0.960 . S
H647 C660 0.961 . S
H648 C660 0.959 . S
H649 C663 0.929 . S
H650 C664 0.931 . S
H651 C666 0.930 . S
C652 H640 0.930 . S
C652 C653 1.399 . S
C652 C657 1.399 . S
C653 C652 1.399 . S
C653 C654 1.376 . S
C654 H641 0.930 . S
C654 C653 1.376 . S
C654 C655 1.388 . S
C655 H642 0.930 . S
C655 C654 1.388 . S
C655 C656 1.390 . S
C656 C655 1.390 . S
C656 C657 1.394 . S
C656 C662 1.465 . S
C657 C652 1.399 . S
C657 C656 1.394 . S
C657 C658 1.516 . S
C658 C657 1.516 . S
C658 C659 1.502 . S
C658 C660 1.561 . S
C658 C661 1.526 . S
C659 H643 0.959 . S
C659 H644 0.959 . S
C659 H645 0.961 . S
C659 C658 1.502 . S
C660 H646 0.960 . S
C660 H647 0.961 . S
C660 H648 0.959 . S
C660 C658 1.561 . S
C661 C658 1.526 . S
C661 C662 1.396 . S
C661 C666 1.390 . S
C662 C656 1.465 . S
C662 C661 1.396 . S
C662 C663 1.399 . S
C663 H649 0.929 . S
C663 C662 1.399 . S
C663 C664 1.385 . S
C664 H650 0.931 . S
C664 C663 1.385 . S
C664 C665 1.389 . S
C665 C664 1.389 . S
C665 C666 1.387 . S
C666 H651 0.930 . S
C666 C661 1.390 . S
C666 C665 1.387 . S
H667 C679 0.930 . S
H668 C681 0.930 . S
H669 C682 0.930 . S
H670 C686 0.959 . S
H671 C686 0.959 . S
H672 C686 0.961 . S
H673 C687 0.960 . S
H674 C687 0.961 . S
H675 C687 0.959 . S
H676 C690 0.929 . S
H677 C691 0.931 . S
H678 C693 0.930 . S
C679 H667 0.930 . S
C679 C680 1.399 . S
C679 C684 1.399 . S
C680 C679 1.399 . S
C680 C681 1.376 . S
C681 H668 0.930 . S
C681 C680 1.376 . S
C681 C682 1.388 . S
C682 H669 0.930 . S
C682 C681 1.388 . S
C682 C683 1.390 . S
C683 C682 1.390 . S
C683 C684 1.394 . S
C683 C689 1.465 . S
C684 C679 1.399 . S
C684 C683 1.394 . S
C684 C685 1.516 . S
C685 C684 1.516 . S
C685 C686 1.502 . S
C685 C687 1.561 . S
C685 C688 1.526 . S
C686 H670 0.959 . S
C686 H671 0.959 . S
C686 H672 0.961 . S
C686 C685 1.502 . S
C687 H673 0.960 . S
C687 H674 0.961 . S
C687 H675 0.959 . S
C687 C685 1.561 . S
C688 C685 1.526 . S
C688 C689 1.396 . S
C688 C693 1.390 . S
C689 C683 1.465 . S
C689 C688 1.396 . S
C689 C690 1.399 . S
C690 H676 0.929 . S
C690 C689 1.399 . S
C690 C691 1.385 . S
C691 H677 0.931 . S
C691 C690 1.385 . S
C691 C692 1.389 . S
C692 C691 1.389 . S
C692 C693 1.387 . S
C693 H678 0.930 . S
C693 C688 1.390 . S
C693 C692 1.387 . S
H694 C706 0.930 . S
H695 C708 0.930 . S
H696 C709 0.930 . S
H697 C713 0.959 . S
H698 C713 0.959 . S
H699 C713 0.961 . S
H700 C714 0.960 . S
H701 C714 0.961 . S
H702 C714 0.959 . S
H703 C717 0.929 . S
H704 C718 0.931 . S
H705 C720 0.930 . S
C706 H694 0.930 . S
C706 C707 1.399 . S
C706 C711 1.399 . S
C707 C706 1.399 . S
C707 C708 1.376 . S
C708 H695 0.930 . S
C708 C707 1.376 . S
C708 C709 1.388 . S
C709 H696 0.930 . S
C709 C708 1.388 . S
C709 C710 1.390 . S
C710 C709 1.390 . S
C710 C711 1.394 . S
C710 C716 1.465 . S
C711 C706 1.399 . S
C711 C710 1.394 . S
C711 C712 1.516 . S
C712 C711 1.516 . S
C712 C713 1.502 . S
C712 C714 1.561 . S
C712 C715 1.526 . S
C713 H697 0.959 . S
C713 H698 0.959 . S
C713 H699 0.961 . S
C713 C712 1.502 . S
C714 H700 0.960 . S
C714 H701 0.961 . S
C714 H702 0.959 . S
C714 C712 1.561 . S
C715 C712 1.526 . S
C715 C716 1.396 . S
C715 C720 1.390 . S
C716 C710 1.465 . S
C716 C715 1.396 . S
C716 C717 1.399 . S
C717 H703 0.929 . S
C717 C716 1.399 . S
C717 C718 1.385 . S
C718 H704 0.931 . S
C718 C717 1.385 . S
C718 C719 1.389 . S
C719 C718 1.389 . S
C719 C720 1.387 . S
C720 H705 0.930 . S
C720 C715 1.390 . S
C720 C719 1.387 . S
H721 C733 0.930 . S
H722 C735 0.930 . S
H723 C736 0.930 . S
H724 C740 0.959 . S
H725 C740 0.959 . S
H726 C740 0.961 . S
H727 C741 0.960 . S
H728 C741 0.961 . S
H729 C741 0.959 . S
H730 C744 0.929 . S
H731 C745 0.931 . S
H732 C747 0.930 . S
C733 H721 0.930 . S
C733 C734 1.399 . S
C733 C738 1.399 . S
C734 C733 1.399 . S
C734 C735 1.376 . S
C735 H722 0.930 . S
C735 C734 1.376 . S
C735 C736 1.388 . S
C736 H723 0.930 . S
C736 C735 1.388 . S
C736 C737 1.390 . S
C737 C736 1.390 . S
C737 C738 1.394 . S
C737 C743 1.465 . S
C738 C733 1.399 . S
C738 C737 1.394 . S
C738 C739 1.516 . S
C739 C738 1.516 . S
C739 C740 1.502 . S
C739 C741 1.561 . S
C739 C742 1.526 . S
C740 H724 0.959 . S
C740 H725 0.959 . S
C740 H726 0.961 . S
C740 C739 1.502 . S
C741 H727 0.960 . S
C741 H728 0.961 . S
C741 H729 0.959 . S
C741 C739 1.561 . S
C742 C739 1.526 . S
C742 C743 1.396 . S
C742 C747 1.390 . S
C743 C737 1.465 . S
C743 C742 1.396 . S
C743 C744 1.399 . S
C744 H730 0.929 . S
C744 C743 1.399 . S
C744 C745 1.385 . S
C745 H731 0.931 . S
C745 C744 1.385 . S
C745 C746 1.389 . S
C746 C745 1.389 . S
C746 C747 1.387 . S
C747 H732 0.930 . S
C747 C742 1.390 . S
C747 C746 1.387 . S
H748 C760 0.930 . S
H749 C762 0.930 . S
H750 C763 0.930 . S
H751 C767 0.959 . S
H752 C767 0.959 . S
H753 C767 0.961 . S
H754 C768 0.960 . S
H755 C768 0.961 . S
H756 C768 0.959 . S
H757 C771 0.929 . S
H758 C772 0.931 . S
H759 C774 0.930 . S
C760 H748 0.930 . S
C760 C761 1.399 . S
C760 C765 1.399 . S
C761 C760 1.399 . S
C761 C762 1.376 . S
C762 H749 0.930 . S
C762 C761 1.376 . S
C762 C763 1.388 . S
C763 H750 0.930 . S
C763 C762 1.388 . S
C763 C764 1.390 . S
C764 C763 1.390 . S
C764 C765 1.394 . S
C764 C770 1.465 . S
C765 C760 1.399 . S
C765 C764 1.394 . S
C765 C766 1.516 . S
C766 C765 1.516 . S
C766 C767 1.502 . S
C766 C768 1.561 . S
C766 C769 1.526 . S
C767 H751 0.959 . S
C767 H752 0.959 . S
C767 H753 0.961 . S
C767 C766 1.502 . S
C768 H754 0.960 . S
C768 H755 0.961 . S
C768 H756 0.959 . S
C768 C766 1.561 . S
C769 C766 1.526 . S
C769 C770 1.396 . S
C769 C774 1.390 . S
C770 C764 1.465 . S
C770 C769 1.396 . S
C770 C771 1.399 . S
C771 H757 0.929 . S
C771 C770 1.399 . S
C771 C772 1.385 . S
C772 H758 0.931 . S
C772 C771 1.385 . S
C772 C773 1.389 . S
C773 C772 1.389 . S
C773 C774 1.387 . S
C774 H759 0.930 . S
C774 C769 1.390 . S
C774 C773 1.387 . S
H775 C787 0.930 . S
H776 C789 0.930 . S
H777 C790 0.930 . S
H778 C794 0.959 . S
H779 C794 0.959 . S
H780 C794 0.961 . S
H781 C795 0.960 . S
H782 C795 0.961 . S
H783 C795 0.959 . S
H784 C798 0.929 . S
H785 C799 0.931 . S
H786 C801 0.930 . S
C787 H775 0.930 . S
C787 C788 1.399 . S
C787 C792 1.399 . S
C788 C787 1.399 . S
C788 C789 1.376 . S
C789 H776 0.930 . S
C789 C788 1.376 . S
C789 C790 1.388 . S
C790 H777 0.930 . S
C790 C789 1.388 . S
C790 C791 1.390 . S
C791 C790 1.390 . S
C791 C792 1.394 . S
C791 C797 1.465 . S
C792 C787 1.399 . S
C792 C791 1.394 . S
C792 C793 1.516 . S
C793 C792 1.516 . S
C793 C794 1.502 . S
C793 C795 1.561 . S
C793 C796 1.526 . S
C794 H778 0.959 . S
C794 H779 0.959 . S
C794 H780 0.961 . S
C794 C793 1.502 . S
C795 H781 0.960 . S
C795 H782 0.961 . S
C795 H783 0.959 . S
C795 C793 1.561 . S
C796 C793 1.526 . S
C796 C797 1.396 . S
C796 C801 1.390 . S
C797 C791 1.465 . S
C797 C796 1.396 . S
C797 C798 1.399 . S
C798 H784 0.929 . S
C798 C797 1.399 . S
C798 C799 1.385 . S
C799 H785 0.931 . S
C799 C798 1.385 . S
C799 C800 1.389 . S
C800 C799 1.389 . S
C800 C801 1.387 . S
C801 H786 0.930 . S
C801 C796 1.390 . S
C801 C800 1.387 . S
H802 C814 0.930 . S
H803 C816 0.930 . S
H804 C817 0.930 . S
H805 C821 0.959 . S
H806 C821 0.959 . S
H807 C821 0.961 . S
H808 C822 0.960 . S
H809 C822 0.961 . S
H810 C822 0.959 . S
H811 C825 0.929 . S
H812 C826 0.931 . S
H813 C828 0.930 . S
C814 H802 0.930 . S
C814 C815 1.399 . S
C814 C819 1.399 . S
C815 C814 1.399 . S
C815 C816 1.376 . S
C816 H803 0.930 . S
C816 C815 1.376 . S
C816 C817 1.388 . S
C817 H804 0.930 . S
C817 C816 1.388 . S
C817 C818 1.390 . S
C818 C817 1.390 . S
C818 C819 1.394 . S
C818 C824 1.465 . S
C819 C814 1.399 . S
C819 C818 1.394 . S
C819 C820 1.516 . S
C820 C819 1.516 . S
C820 C821 1.502 . S
C820 C822 1.561 . S
C820 C823 1.526 . S
C821 H805 0.959 . S
C821 H806 0.959 . S
C821 H807 0.961 . S
C821 C820 1.502 . S
C822 H808 0.960 . S
C822 H809 0.961 . S
C822 H810 0.959 . S
C822 C820 1.561 . S
C823 C820 1.526 . S
C823 C824 1.396 . S
C823 C828 1.390 . S
C824 C818 1.465 . S
C824 C823 1.396 . S
C824 C825 1.399 . S
C825 H811 0.929 . S
C825 C824 1.399 . S
C825 C826 1.385 . S
C826 H812 0.931 . S
C826 C825 1.385 . S
C826 C827 1.389 . S
C827 C826 1.389 . S
C827 C828 1.387 . S
C828 H813 0.930 . S
C828 C823 1.390 . S
C828 C827 1.387 . S
H829 C841 0.930 . S
H830 C843 0.930 . S
H831 C844 0.930 . S
H832 C848 0.959 . S
H833 C848 0.959 . S
H834 C848 0.961 . S
H835 C849 0.960 . S
H836 C849 0.961 . S
H837 C849 0.959 . S
H838 C852 0.929 . S
H839 C853 0.931 . S
H840 C855 0.930 . S
C841 H829 0.930 . S
C841 C842 1.399 . S
C841 C846 1.399 . S
C842 C841 1.399 . S
C842 C843 1.376 . S
C843 H830 0.930 . S
C843 C842 1.376 . S
C843 C844 1.388 . S
C844 H831 0.930 . S
C844 C843 1.388 . S
C844 C845 1.390 . S
C845 C844 1.390 . S
C845 C846 1.394 . S
C845 C851 1.465 . S
C846 C841 1.399 . S
C846 C845 1.394 . S
C846 C847 1.516 . S
C847 C846 1.516 . S
C847 C848 1.502 . S
C847 C849 1.561 . S
C847 C850 1.526 . S
C848 H832 0.959 . S
C848 H833 0.959 . S
C848 H834 0.961 . S
C848 C847 1.502 . S
C849 H835 0.960 . S
C849 H836 0.961 . S
C849 H837 0.959 . S
C849 C847 1.561 . S
C850 C847 1.526 . S
C850 C851 1.396 . S
C850 C855 1.390 . S
C851 C845 1.465 . S
C851 C850 1.396 . S
C851 C852 1.399 . S
C852 H838 0.929 . S
C852 C851 1.399 . S
C852 C853 1.385 . S
C853 H839 0.931 . S
C853 C852 1.385 . S
C853 C854 1.389 . S
C854 C853 1.389 . S
C854 C855 1.387 . S
C855 H840 0.930 . S
C855 C850 1.390 . S
C855 C854 1.387 . S
H856 C868 0.930 . S
H857 C870 0.930 . S
H858 C871 0.930 . S
H859 C875 0.959 . S
H860 C875 0.959 . S
H861 C875 0.961 . S
H862 C876 0.960 . S
H863 C876 0.961 . S
H864 C876 0.959 . S
H865 C879 0.929 . S
H866 C880 0.931 . S
H867 C882 0.930 1_565 S
C868 H856 0.930 . S
C868 C869 1.399 . S
C868 C873 1.399 . S
C869 C868 1.399 . S
C869 C870 1.376 . S
C870 H857 0.930 . S
C870 C869 1.376 . S
C870 C871 1.388 1_565 S
C871 H858 0.930 . S
C871 C870 1.388 1_545 S
C871 C872 1.390 . S
C872 C871 1.390 . S
C872 C873 1.394 1_545 S
C872 C878 1.465 . S
C873 C868 1.399 . S
C873 C872 1.394 1_565 S
C873 C874 1.516 . S
C874 C873 1.516 . S
C874 C875 1.502 . S
C874 C876 1.561 . S
C874 C877 1.518 1_565 S
C875 H859 0.959 . S
C875 H860 0.959 . S
C875 H861 0.961 . S
C875 C874 1.502 . S
C876 H862 0.960 . S
C876 H863 0.961 . S
C876 H864 0.959 . S
C876 C874 1.561 . S
C877 C874 1.518 1_545 S
C877 C878 1.402 . S
C877 C882 1.392 . S
C878 C872 1.465 . S
C878 C877 1.402 . S
C878 C879 1.399 . S
C879 H865 0.929 . S
C879 C878 1.399 . S
C879 C880 1.385 . S
C880 H866 0.931 . S
C880 C879 1.385 . S
C880 C881 1.389 . S
C881 C880 1.389 . S
C881 C882 1.387 . S
C882 H867 0.930 1_545 S
C882 C877 1.392 . S
C882 C881 1.387 . S
H883 C895 0.930 . S
H884 C897 0.930 . S
H885 C898 0.930 . S
H886 C902 0.959 . S
H887 C902 0.959 . S
H888 C902 0.961 . S
H889 C903 0.960 . S
H890 C903 0.961 . S
H891 C903 0.959 . S
H892 C906 0.929 . S
H893 C907 0.931 . S
H894 C909 0.930 . S
C895 H883 0.930 . S
C895 C896 1.399 . S
C895 C900 1.399 . S
C896 C895 1.399 . S
C896 C897 1.376 . S
C897 H884 0.930 . S
C897 C896 1.376 . S
C897 C898 1.388 . S
C898 H885 0.930 . S
C898 C897 1.388 . S
C898 C899 1.390 . S
C899 C898 1.390 . S
C899 C900 1.394 . S
C899 C905 1.465 . S
C900 C895 1.399 . S
C900 C899 1.394 . S
C900 C901 1.516 1_545 S
C901 C900 1.516 1_565 S
C901 C902 1.502 . S
C901 C903 1.561 . S
C901 C904 1.526 . S
C902 H886 0.959 . S
C902 H887 0.959 . S
C902 H888 0.961 . S
C902 C901 1.502 . S
C903 H889 0.960 . S
C903 H890 0.961 . S
C903 H891 0.959 . S
C903 C901 1.561 . S
C904 C901 1.526 . S
C904 C905 1.396 1_565 S
C904 C909 1.390 . S
C905 C899 1.465 . S
C905 C904 1.396 1_545 S
C905 C906 1.399 . S
C906 H892 0.929 . S
C906 C905 1.399 . S
C906 C907 1.385 1_545 S
C907 H893 0.931 . S
C907 C906 1.385 1_565 S
C907 C908 1.389 . S
C908 C907 1.389 . S
C908 C909 1.387 . S
C909 H894 0.930 . S
C909 C904 1.390 . S
C909 C908 1.387 . S
H910 C922 0.930 1_565 S
H911 C924 0.930 . S
H912 C925 0.930 . S
H913 C929 0.959 . S
H914 C929 0.959 . S
H915 C929 0.961 . S
H916 C930 0.960 . S
H917 C930 0.961 . S
H918 C930 0.959 . S
H919 C933 0.929 . S
H920 C934 0.931 1_545 S
H921 C936 0.930 . S
C922 H910 0.930 1_545 S
C922 C923 1.399 . S
C922 C927 1.396 1_545 S
C923 C922 1.399 . S
C923 C924 1.376 . S
C924 H911 0.930 . S
C924 C923 1.376 . S
C924 C925 1.388 . S
C925 H912 0.930 . S
C925 C924 1.388 . S
C925 C926 1.390 . S
C926 C925 1.390 . S
C926 C927 1.387 1_545 S
C926 C932 1.465 . S
C927 C922 1.396 1_565 S
C927 C926 1.387 1_565 S
C927 C928 1.526 . S
C928 C927 1.526 . S
C928 C929 1.502 . S
C928 C930 1.561 . S
C928 C931 1.526 . S
C929 H913 0.959 . S
C929 H914 0.959 . S
C929 H915 0.961 . S
C929 C928 1.502 . S
C930 H916 0.960 . S
C930 H917 0.961 . S
C930 H918 0.959 . S
C930 C928 1.561 . S
C931 C928 1.526 . S
C931 C932 1.396 1_565 S
C931 C936 1.390 . S
C932 C926 1.465 . S
C932 C931 1.396 1_545 S
C932 C933 1.399 . S
C933 H919 0.929 . S
C933 C932 1.399 . S
C933 C934 1.385 1_545 S
C934 H920 0.931 1_565 S
C934 C933 1.385 1_565 S
C934 C935 1.389 . S
C935 C934 1.389 . S
C935 C936 1.387 . S
C936 H921 0.930 . S
C936 C931 1.390 . S
C936 C935 1.387 . S
H937 C949 0.930 . S
H938 C951 0.930 . S
H939 C952 0.930 . S
H940 C956 0.959 . S
H941 C956 0.959 . S
H942 C956 0.961 . S
H943 C957 0.960 . S
H944 C957 0.961 . S
H945 C957 0.959 . S
H946 C960 0.929 . S
H947 C961 0.931 . S
H948 C963 0.930 . S
C949 H937 0.930 . S
C949 C950 1.399 . S
C949 C954 1.399 . S
C950 C949 1.399 . S
C950 C951 1.376 . S
C951 H938 0.930 . S
C951 C950 1.376 . S
C951 C952 1.388 . S
C952 H939 0.930 . S
C952 C951 1.388 . S
C952 C953 1.390 . S
C953 C952 1.390 . S
C953 C954 1.394 . S
C953 C959 1.462 1_545 S
C954 C949 1.399 . S
C954 C953 1.394 . S
C954 C955 1.516 1_545 S
C955 C954 1.516 1_565 S
C955 C956 1.502 . S
C955 C957 1.561 . S
C955 C958 1.526 . S
C956 H940 0.959 . S
C956 H941 0.959 . S
C956 H942 0.961 . S
C956 C955 1.502 . S
C957 H943 0.960 . S
C957 H944 0.961 . S
C957 H945 0.959 . S
C957 C955 1.561 . S
C958 C955 1.526 . S
C958 C959 1.401 . S
C958 C963 1.390 . S
C959 C953 1.462 1_565 S
C959 C958 1.401 . S
C959 C960 1.398 1_565 S
C960 H946 0.929 . S
C960 C959 1.398 1_545 S
C960 C961 1.385 1_545 S
C961 H947 0.931 . S
C961 C960 1.385 1_565 S
C961 C962 1.389 . S
C962 C961 1.389 . S
C962 C963 1.387 . S
C963 H948 0.930 . S
C963 C958 1.390 . S
C963 C962 1.387 . S
H964 C976 0.930 . S
H965 C978 0.930 . S
H966 C979 0.930 . S
H967 C983 0.959 . S
H968 C983 0.959 . S
H969 C983 0.961 . S
H970 C984 0.960 . S
H971 C984 0.961 . S
H972 C984 0.959 . S
H973 C987 0.929 . S
H974 C988 0.931 . S
H975 C990 0.930 . S
C976 H964 0.930 . S
C976 C977 1.399 . S
C976 C981 1.399 . S
C977 C976 1.399 . S
C977 C978 1.376 . S
C978 H965 0.930 . S
C978 C977 1.376 . S
C978 C979 1.388 . S
C979 H966 0.930 . S
C979 C978 1.388 . S
C979 C980 1.390 . S
C980 C979 1.390 . S
C980 C981 1.394 . S
C980 C986 1.465 . S
C981 C976 1.399 . S
C981 C980 1.394 . S
C981 C982 1.516 . S
C982 C981 1.516 . S
C982 C983 1.502 . S
C982 C984 1.561 . S
C982 C985 1.526 . S
C983 H967 0.959 . S
C983 H968 0.959 . S
C983 H969 0.961 . S
C983 C982 1.502 . S
C984 H970 0.960 . S
C984 H971 0.961 . S
C984 H972 0.959 . S
C984 C982 1.561 . S
C985 C982 1.526 . S
C985 C986 1.396 . S
C985 C990 1.390 . S
C986 C980 1.465 . S
C986 C985 1.396 . S
C986 C987 1.399 . S
C987 H973 0.929 . S
C987 C986 1.399 . S
C987 C988 1.385 . S
C988 H974 0.931 . S
C988 C987 1.385 . S
C988 C989 1.389 . S
C989 C988 1.389 . S
C989 C990 1.387 . S
C990 H975 0.930 . S
C990 C985 1.390 . S
C990 C989 1.387 . S
H991 C1003 0.930 . S
H992 C1005 0.930 . S
H993 C1006 0.930 . S
H994 C1010 0.959 . S
H995 C1010 0.959 . S
H996 C1010 0.961 . S
H997 C1011 0.960 . S
H998 C1011 0.961 . S
H999 C1011 0.959 . S
H1000 C1014 0.929 . S
H1001 C1015 0.931 . S
H1002 C1017 0.930 . S
C1003 H991 0.930 . S
C1003 C1004 1.399 . S
C1003 C1008 1.399 . S
C1004 C1003 1.399 . S
C1004 C1005 1.376 . S
C1005 H992 0.930 . S
C1005 C1004 1.376 . S
C1005 C1006 1.388 . S
C1006 H993 0.930 . S
C1006 C1005 1.388 . S
C1006 C1007 1.390 . S
C1007 C1006 1.390 . S
C1007 C1008 1.394 . S
C1007 C1013 1.465 . S
C1008 C1003 1.399 . S
C1008 C1007 1.394 . S
C1008 C1009 1.516 . S
C1009 C1008 1.516 . S
C1009 C1010 1.502 . S
C1009 C1011 1.561 . S
C1009 C1012 1.526 . S
C1010 H994 0.959 . S
C1010 H995 0.959 . S
C1010 H996 0.961 . S
C1010 C1009 1.502 . S
C1011 H997 0.960 . S
C1011 H998 0.961 . S
C1011 H999 0.959 . S
C1011 C1009 1.561 . S
C1012 C1009 1.526 . S
C1012 C1013 1.396 . S
C1012 C1017 1.390 . S
C1013 C1007 1.465 . S
C1013 C1012 1.396 . S
C1013 C1014 1.399 . S
C1014 H1000 0.929 . S
C1014 C1013 1.399 . S
C1014 C1015 1.385 . S
C1015 H1001 0.931 . S
C1015 C1014 1.385 . S
C1015 C1016 1.389 . S
C1016 C1015 1.389 . S
C1016 C1017 1.387 . S
C1017 H1002 0.930 . S
C1017 C1012 1.390 . S
C1017 C1016 1.387 . S
H1018 C1030 0.930 . S
H1019 C1032 0.930 . S
H1020 C1033 0.930 . S
H1021 C1037 0.959 . S
H1022 C1037 0.959 . S
H1023 C1037 0.961 . S
H1024 C1038 0.960 . S
H1025 C1038 0.961 . S
H1026 C1038 0.959 . S
H1027 C1041 0.929 . S
H1028 C1042 0.931 . S
H1029 C1044 0.930 . S
C1030 H1018 0.930 . S
C1030 C1031 1.399 . S
C1030 C1035 1.399 . S
C1031 C1030 1.399 . S
C1031 C1032 1.376 . S
C1032 H1019 0.930 . S
C1032 C1031 1.376 . S
C1032 C1033 1.388 . S
C1033 H1020 0.930 . S
C1033 C1032 1.388 . S
C1033 C1034 1.390 . S
C1034 C1033 1.390 . S
C1034 C1035 1.394 . S
C1034 C1040 1.465 . S
C1035 C1030 1.399 . S
C1035 C1034 1.394 . S
C1035 C1036 1.516 . S
C1036 C1035 1.516 . S
C1036 C1037 1.502 . S
C1036 C1038 1.561 . S
C1036 C1039 1.526 . S
C1037 H1021 0.959 . S
C1037 H1022 0.959 . S
C1037 H1023 0.961 . S
C1037 C1036 1.502 . S
C1038 H1024 0.960 . S
C1038 H1025 0.961 . S
C1038 H1026 0.959 . S
C1038 C1036 1.561 . S
C1039 C1036 1.526 . S
C1039 C1040 1.396 . S
C1039 C1044 1.390 . S
C1040 C1034 1.465 . S
C1040 C1039 1.396 . S
C1040 C1041 1.399 . S
C1041 H1027 0.929 . S
C1041 C1040 1.399 . S
C1041 C1042 1.385 . S
C1042 H1028 0.931 . S
C1042 C1041 1.385 . S
C1042 C1043 1.389 . S
C1043 C1042 1.389 . S
C1043 C1044 1.387 . S
C1044 H1029 0.930 . S
C1044 C1039 1.390 . S
C1044 C1043 1.387 . S
H1045 C1057 0.930 . S
H1046 C1059 0.930 . S
H1047 C1060 0.930 . S
H1048 C1064 0.959 . S
H1049 C1064 0.959 . S
H1050 C1064 0.961 . S
H1051 C1065 0.960 . S
H1052 C1065 0.961 . S
H1053 C1065 0.959 . S
H1054 C1068 0.929 . S
H1055 C1069 0.931 . S
H1056 C1071 0.930 . S
C1057 H1045 0.930 . S
C1057 C1058 1.399 . S
C1057 C1062 1.399 . S
C1058 C1057 1.399 . S
C1058 C1059 1.376 . S
C1059 H1046 0.930 . S
C1059 C1058 1.376 . S
C1059 C1060 1.388 . S
C1060 H1047 0.930 . S
C1060 C1059 1.388 . S
C1060 C1061 1.390 . S
C1061 C1060 1.390 . S
C1061 C1062 1.394 . S
C1061 C1067 1.465 . S
C1062 C1057 1.399 . S
C1062 C1061 1.394 . S
C1062 C1063 1.516 . S
C1063 C1062 1.516 . S
C1063 C1064 1.502 . S
C1063 C1065 1.561 . S
C1063 C1066 1.526 . S
C1064 H1048 0.959 . S
C1064 H1049 0.959 . S
C1064 H1050 0.961 . S
C1064 C1063 1.502 . S
C1065 H1051 0.960 . S
C1065 H1052 0.961 . S
C1065 H1053 0.959 . S
C1065 C1063 1.561 . S
C1066 C1063 1.526 . S
C1066 C1067 1.396 . S
C1066 C1071 1.390 . S
C1067 C1061 1.465 . S
C1067 C1066 1.396 . S
C1067 C1068 1.399 . S
C1068 H1054 0.929 . S
C1068 C1067 1.399 . S
C1068 C1069 1.385 . S
C1069 H1055 0.931 . S
C1069 C1068 1.385 . S
C1069 C1070 1.389 . S
C1070 C1069 1.389 . S
C1070 C1071 1.387 . S
C1071 H1056 0.930 . S
C1071 C1066 1.390 . S
C1071 C1070 1.387 . S
H1072 C1084 0.930 . S
H1073 C1086 0.930 . S
H1074 C1087 0.930 . S
H1075 C1091 0.962 . S
H1076 C1091 0.979 . S
H1077 C1091 0.940 1_556 S
H1078 C1092 0.958 1_566 S
H1079 C1092 0.963 1_565 S
H1080 C1092 0.959 . S
H1081 C1095 0.929 . S
H1082 C1096 0.931 . S
H1083 C1098 0.930 . S
C1084 H1072 0.930 . S
C1084 C1085 1.399 . S
C1084 C1089 1.399 . S
C1085 C1084 1.399 . S
C1085 C1086 1.376 . S
C1086 H1073 0.930 . S
C1086 C1085 1.376 . S
C1086 C1087 1.388 . S
C1087 H1074 0.930 . S
C1087 C1086 1.388 . S
C1087 C1088 1.390 . S
C1088 C1087 1.390 . S
C1088 C1089 1.394 . S
C1088 C1094 1.465 1_556 S
C1089 C1084 1.399 . S
C1089 C1088 1.394 . S
C1089 C1090 1.517 1_556 S
C1090 C1089 1.517 1_554 S
C1090 C1091 1.502 . S
C1090 C1092 1.561 . S
C1090 C1093 1.525 . S
C1091 H1075 0.962 . S
C1091 H1076 0.979 . S
C1091 H1077 0.940 1_554 S
C1091 C1090 1.502 . S
C1092 H1078 0.958 1_544 S
C1092 H1079 0.963 1_545 S
C1092 H1080 0.959 . S
C1092 C1090 1.561 . S
C1093 C1090 1.525 . S
C1093 C1094 1.396 . S
C1093 C1098 1.390 . S
C1094 C1088 1.465 1_554 S
C1094 C1093 1.396 . S
C1094 C1095 1.399 . S
C1095 H1081 0.929 . S
C1095 C1094 1.399 . S
C1095 C1096 1.385 . S
C1096 H1082 0.931 . S
C1096 C1095 1.385 . S
C1096 C1097 1.389 . S
C1097 C1096 1.389 . S
C1097 C1098 1.387 . S
C1098 H1083 0.930 . S
C1098 C1093 1.390 . S
C1098 C1097 1.387 . S
H1099 C1111 0.930 . S
H1100 C1113 0.930 . S
H1101 C1114 0.930 . S
H1102 C1118 0.962 . S
H1103 C1118 0.979 . S
H1104 C1118 0.940 1_556 S
H1105 C1119 0.958 1_556 S
H1106 C1119 0.963 . S
H1107 C1119 0.959 . S
H1108 C1122 0.929 . S
H1109 C1123 0.931 . S
H1110 C1125 0.930 . S
C1111 H1099 0.930 . S
C1111 C1112 1.399 . S
C1111 C1116 1.399 . S
C1112 C1111 1.399 . S
C1112 C1113 1.376 . S
C1113 H1100 0.930 . S
C1113 C1112 1.376 . S
C1113 C1114 1.388 . S
C1114 H1101 0.930 . S
C1114 C1113 1.388 . S
C1114 C1115 1.390 . S
C1115 C1114 1.390 . S
C1115 C1116 1.394 . S
C1115 C1121 1.465 1_556 S
C1116 C1111 1.399 . S
C1116 C1115 1.394 . S
C1116 C1117 1.517 1_556 S
C1117 C1116 1.517 1_554 S
C1117 C1118 1.502 . S
C1117 C1119 1.561 . S
C1117 C1120 1.525 . S
C1118 H1102 0.962 . S
C1118 H1103 0.979 . S
C1118 H1104 0.940 1_554 S
C1118 C1117 1.502 . S
C1119 H1105 0.958 1_554 S
C1119 H1106 0.963 . S
C1119 H1107 0.959 . S
C1119 C1117 1.561 . S
C1120 C1117 1.525 . S
C1120 C1121 1.396 . S
C1120 C1125 1.390 . S
C1121 C1115 1.465 1_554 S
C1121 C1120 1.396 . S
C1121 C1122 1.399 . S
C1122 H1108 0.929 . S
C1122 C1121 1.399 . S
C1122 C1123 1.385 . S
C1123 H1109 0.931 . S
C1123 C1122 1.385 . S
C1123 C1124 1.389 . S
C1124 C1123 1.389 . S
C1124 C1125 1.387 . S
C1125 H1110 0.930 . S
C1125 C1120 1.390 . S
C1125 C1124 1.387 . S
H1126 C1138 0.930 . S
H1127 C1140 0.930 . S
H1128 C1141 0.930 . S
H1129 C1145 0.959 . S
H1130 C1145 0.959 . S
H1131 C1145 0.961 . S
H1132 C1146 0.960 1_545 S
H1133 C1146 0.961 1_545 S
H1134 C1146 0.959 . S
H1135 C1149 0.929 . S
H1136 C1150 0.931 . S
H1137 C1152 0.930 . S
C1138 H1126 0.930 . S
C1138 C1139 1.399 . S
C1138 C1143 1.399 . S
C1139 C1138 1.399 . S
C1139 C1140 1.376 . S
C1140 H1127 0.930 . S
C1140 C1139 1.376 . S
C1140 C1141 1.388 . S
C1141 H1128 0.930 . S
C1141 C1140 1.388 . S
C1141 C1142 1.390 . S
C1142 C1141 1.390 . S
C1142 C1143 1.394 . S
C1142 C1148 1.465 . S
C1143 C1138 1.399 . S
C1143 C1142 1.394 . S
C1143 C1144 1.516 . S
C1144 C1143 1.516 . S
C1144 C1145 1.502 . S
C1144 C1146 1.561 . S
C1144 C1147 1.526 . S
C1145 H1129 0.959 . S
C1145 H1130 0.959 . S
C1145 H1131 0.961 . S
C1145 C1144 1.502 . S
C1146 H1132 0.960 1_565 S
C1146 H1133 0.961 1_565 S
C1146 H1134 0.959 . S
C1146 C1144 1.561 . S
C1147 C1144 1.526 . S
C1147 C1148 1.396 . S
C1147 C1152 1.390 . S
C1148 C1142 1.465 . S
C1148 C1147 1.396 . S
C1148 C1149 1.399 . S
C1149 H1135 0.929 . S
C1149 C1148 1.399 . S
C1149 C1150 1.385 . S
C1150 H1136 0.931 . S
C1150 C1149 1.385 . S
C1150 C1151 1.389 . S
C1151 C1150 1.389 . S
C1151 C1152 1.387 . S
C1152 H1137 0.930 . S
C1152 C1147 1.390 . S
C1152 C1151 1.387 . S
H1153 C1165 0.930 . S
H1154 C1167 0.930 . S
H1155 C1168 0.930 . S
H1156 C1172 0.959 . S
H1157 C1172 0.959 . S
H1158 C1172 0.961 . S
H1159 C1173 0.960 1_565 S
H1160 C1173 0.961 1_565 S
H1161 C1173 0.959 . S
H1162 C1176 0.929 . S
H1163 C1177 0.931 . S
H1164 C1179 0.930 . S
C1165 H1153 0.930 . S
C1165 C1166 1.399 . S
C1165 C1170 1.399 . S
C1166 C1165 1.399 . S
C1166 C1167 1.376 . S
C1167 H1154 0.930 . S
C1167 C1166 1.376 . S
C1167 C1168 1.388 . S
C1168 H1155 0.930 . S
C1168 C1167 1.388 . S
C1168 C1169 1.390 . S
C1169 C1168 1.390 . S
C1169 C1170 1.394 . S
C1169 C1175 1.465 . S
C1170 C1165 1.399 . S
C1170 C1169 1.394 . S
C1170 C1171 1.516 . S
C1171 C1170 1.516 . S
C1171 C1172 1.502 . S
C1171 C1173 1.561 . S
C1171 C1174 1.526 . S
C1172 H1156 0.959 . S
C1172 H1157 0.959 . S
C1172 H1158 0.961 . S
C1172 C1171 1.502 . S
C1173 H1159 0.960 1_545 S
C1173 H1160 0.961 1_545 S
C1173 H1161 0.959 . S
C1173 C1171 1.561 . S
C1174 C1171 1.526 . S
C1174 C1175 1.396 . S
C1174 C1179 1.390 . S
C1175 C1169 1.465 . S
C1175 C1174 1.396 . S
C1175 C1176 1.399 . S
C1176 H1162 0.929 . S
C1176 C1175 1.399 . S
C1176 C1177 1.385 . S
C1177 H1163 0.931 . S
C1177 C1176 1.385 . S
C1177 C1178 1.389 . S
C1178 C1177 1.389 . S
C1178 C1179 1.387 . S
C1179 H1164 0.930 . S
C1179 C1174 1.390 . S
C1179 C1178 1.387 . S
H1180 C1192 0.930 . S
H1181 C1194 0.930 . S
H1182 C1195 0.930 . S
H1183 C1199 0.962 . S
H1184 C1199 0.979 . S
H1185 C1199 0.940 1_554 S
H1186 C1200 0.958 1_554 S
H1187 C1200 0.963 . S
H1188 C1200 0.959 . S
H1189 C1203 0.929 . S
H1190 C1204 0.931 . S
H1191 C1206 0.930 . S
C1192 H1180 0.930 . S
C1192 C1193 1.399 . S
C1192 C1197 1.399 . S
C1193 C1192 1.399 . S
C1193 C1194 1.376 . S
C1194 H1181 0.930 . S
C1194 C1193 1.376 . S
C1194 C1195 1.388 . S
C1195 H1182 0.930 . S
C1195 C1194 1.388 . S
C1195 C1196 1.390 . S
C1196 C1195 1.390 . S
C1196 C1197 1.394 . S
C1196 C1202 1.465 1_554 S
C1197 C1192 1.399 . S
C1197 C1196 1.394 . S
C1197 C1198 1.517 1_554 S
C1198 C1197 1.517 1_556 S
C1198 C1199 1.502 . S
C1198 C1200 1.561 . S
C1198 C1201 1.525 . S
C1199 H1183 0.962 . S
C1199 H1184 0.979 . S
C1199 H1185 0.940 1_556 S
C1199 C1198 1.502 . S
C1200 H1186 0.958 1_556 S
C1200 H1187 0.963 . S
C1200 H1188 0.959 . S
C1200 C1198 1.561 . S
C1201 C1198 1.525 . S
C1201 C1202 1.396 . S
C1201 C1206 1.390 . S
C1202 C1196 1.465 1_556 S
C1202 C1201 1.396 . S
C1202 C1203 1.399 . S
C1203 H1189 0.929 . S
C1203 C1202 1.399 . S
C1203 C1204 1.385 . S
C1204 H1190 0.931 . S
C1204 C1203 1.385 . S
C1204 C1205 1.389 . S
C1205 C1204 1.389 . S
C1205 C1206 1.387 . S
C1206 H1191 0.930 . S
C1206 C1201 1.390 . S
C1206 C1205 1.387 . S
H1207 C1219 0.930 . S
H1208 C1221 0.930 . S
H1209 C1222 0.930 . S
H1210 C1226 0.962 . S
H1211 C1226 0.979 . S
H1212 C1226 0.940 1_556 S
H1213 C1227 0.958 1_556 S
H1214 C1227 0.963 . S
H1215 C1227 0.959 . S
H1216 C1230 0.929 . S
H1217 C1231 0.931 . S
H1218 C1233 0.930 . S
C1219 H1207 0.930 . S
C1219 C1220 1.399 . S
C1219 C1224 1.399 . S
C1220 C1219 1.399 . S
C1220 C1221 1.376 . S
C1221 H1208 0.930 . S
C1221 C1220 1.376 . S
C1221 C1222 1.388 . S
C1222 H1209 0.930 . S
C1222 C1221 1.388 . S
C1222 C1223 1.390 . S
C1223 C1222 1.390 . S
C1223 C1224 1.394 . S
C1223 C1229 1.465 1_556 S
C1224 C1219 1.399 . S
C1224 C1223 1.394 . S
C1224 C1225 1.517 1_556 S
C1225 C1224 1.517 1_554 S
C1225 C1226 1.502 . S
C1225 C1227 1.561 . S
C1225 C1228 1.525 . S
C1226 H1210 0.962 . S
C1226 H1211 0.979 . S
C1226 H1212 0.940 1_554 S
C1226 C1225 1.502 . S
C1227 H1213 0.958 1_554 S
C1227 H1214 0.963 . S
C1227 H1215 0.959 . S
C1227 C1225 1.561 . S
C1228 C1225 1.525 . S
C1228 C1229 1.396 . S
C1228 C1233 1.390 . S
C1229 C1223 1.465 1_554 S
C1229 C1228 1.396 . S
C1229 C1230 1.399 . S
C1230 H1216 0.929 . S
C1230 C1229 1.399 . S
C1230 C1231 1.385 . S
C1231 H1217 0.931 . S
C1231 C1230 1.385 . S
C1231 C1232 1.389 . S
C1232 C1231 1.389 . S
C1232 C1233 1.387 . S
C1233 H1218 0.930 . S
C1233 C1228 1.390 . S
C1233 C1232 1.387 . S
H1234 C1246 0.930 . S
H1235 C1248 0.930 . S
H1236 C1249 0.930 . S
H1237 C1253 0.959 . S
H1238 C1253 0.959 . S
H1239 C1253 0.961 . S
H1240 C1254 0.960 . S
H1241 C1254 0.961 . S
H1242 C1254 0.959 . S
H1243 C1257 0.929 . S
H1244 C1258 0.931 . S
H1245 C1260 0.930 . S
C1246 H1234 0.930 . S
C1246 C1247 1.399 . S
C1246 C1251 1.399 . S
C1247 C1246 1.399 . S
C1247 C1248 1.376 . S
C1248 H1235 0.930 . S
C1248 C1247 1.376 . S
C1248 C1249 1.388 . S
C1249 H1236 0.930 . S
C1249 C1248 1.388 . S
C1249 C1250 1.390 . S
C1250 C1249 1.390 . S
C1250 C1251 1.394 . S
C1250 C1256 1.465 . S
C1251 C1246 1.399 . S
C1251 C1250 1.394 . S
C1251 C1252 1.516 . S
C1252 C1251 1.516 . S
C1252 C1253 1.502 . S
C1252 C1254 1.561 . S
C1252 C1255 1.526 . S
C1253 H1237 0.959 . S
C1253 H1238 0.959 . S
C1253 H1239 0.961 . S
C1253 C1252 1.502 . S
C1254 H1240 0.960 . S
C1254 H1241 0.961 . S
C1254 H1242 0.959 . S
C1254 C1252 1.561 . S
C1255 C1252 1.526 . S
C1255 C1256 1.396 . S
C1255 C1260 1.390 . S
C1256 C1250 1.465 . S
C1256 C1255 1.396 . S
C1256 C1257 1.399 . S
C1257 H1243 0.929 . S
C1257 C1256 1.399 . S
C1257 C1258 1.385 . S
C1258 H1244 0.931 . S
C1258 C1257 1.385 . S
C1258 C1259 1.389 . S
C1259 C1258 1.389 . S
C1259 C1260 1.387 . S
C1260 H1245 0.930 . S
C1260 C1255 1.390 . S
C1260 C1259 1.387 . S
H1261 C1273 0.930 . S
H1262 C1275 0.930 . S
H1263 C1276 0.930 . S
H1264 C1280 0.959 . S
H1265 C1280 0.959 . S
H1266 C1280 0.961 . S
H1267 C1281 0.960 . S
H1268 C1281 0.961 . S
H1269 C1281 0.959 . S
H1270 C1284 0.929 . S
H1271 C1285 0.931 . S
H1272 C1287 0.930 . S
C1273 H1261 0.930 . S
C1273 C1274 1.399 . S
C1273 C1278 1.399 . S
C1274 C1273 1.399 . S
C1274 C1275 1.376 . S
C1275 H1262 0.930 . S
C1275 C1274 1.376 . S
C1275 C1276 1.388 . S
C1276 H1263 0.930 . S
C1276 C1275 1.388 . S
C1276 C1277 1.390 . S
C1277 C1276 1.390 . S
C1277 C1278 1.394 . S
C1277 C1283 1.465 . S
C1278 C1273 1.399 . S
C1278 C1277 1.394 . S
C1278 C1279 1.516 . S
C1279 C1278 1.516 . S
C1279 C1280 1.502 . S
C1279 C1281 1.561 . S
C1279 C1282 1.526 . S
C1280 H1264 0.959 . S
C1280 H1265 0.959 . S
C1280 H1266 0.961 . S
C1280 C1279 1.502 . S
C1281 H1267 0.960 . S
C1281 H1268 0.961 . S
C1281 H1269 0.959 . S
C1281 C1279 1.561 . S
C1282 C1279 1.526 . S
C1282 C1283 1.396 . S
C1282 C1287 1.390 . S
C1283 C1277 1.465 . S
C1283 C1282 1.396 . S
C1283 C1284 1.399 . S
C1284 H1270 0.929 . S
C1284 C1283 1.399 . S
C1284 C1285 1.385 . S
C1285 H1271 0.931 . S
C1285 C1284 1.385 . S
C1285 C1286 1.389 . S
C1286 C1285 1.389 . S
C1286 C1287 1.387 . S
C1287 H1272 0.930 . S
C1287 C1282 1.390 . S
C1287 C1286 1.387 . S
H1288 C1300 0.930 1_545 S
H1289 C1302 0.930 . S
H1290 C1303 0.930 . S
H1291 C1307 0.959 . S
H1292 C1307 0.959 1_455 S
H1293 C1307 0.961 . S
H1294 C1308 0.960 1_655 S
H1295 C1308 0.961 . S
H1296 C1308 0.959 . S
H1297 C1311 0.929 . S
H1298 C1312 0.933 . S
H1299 C1314 0.930 . S
C1300 H1288 0.930 1_565 S
C1300 C1301 1.399 . S
C1300 C1305 1.399 . S
C1301 C1300 1.399 . S
C1301 C1302 1.376 . S
C1302 H1289 0.930 . S
C1302 C1301 1.376 . S
C1302 C1303 1.388 . S
C1303 H1290 0.930 . S
C1303 C1302 1.388 . S
C1303 C1304 1.390 . S
C1304 C1303 1.390 . S
C1304 C1305 1.394 . S
C1304 C1310 1.465 1_655 S
C1305 C1300 1.399 . S
C1305 C1304 1.394 . S
C1305 C1306 1.548 1_565 S
C1306 C1305 1.548 1_545 S
C1306 C1307 1.508 . S
C1306 C1308 1.557 1_645 S
C1306 C1309 1.492 1_655 S
C1307 H1291 0.959 . S
C1307 H1292 0.959 1_655 S
C1307 H1293 0.961 . S
C1307 C1306 1.508 . S
C1308 H1294 0.960 1_455 S
C1308 H1295 0.961 . S
C1308 H1296 0.959 . S
C1308 C1306 1.557 1_465 S
C1309 C1306 1.492 1_455 S
C1309 C1310 1.396 1_545 S
C1309 C1314 1.390 . S
C1310 C1304 1.465 1_455 S
C1310 C1309 1.396 1_565 S
C1310 C1311 1.399 . S
C1311 H1297 0.929 . S
C1311 C1310 1.399 . S
C1311 C1312 1.391 . S
C1312 H1298 0.933 . S
C1312 C1311 1.391 . S
C1312 C1313 1.382 1_565 S
C1313 C1312 1.382 1_545 S
C1313 C1314 1.387 . S
C1314 H1299 0.930 . S
C1314 C1309 1.390 . S
C1314 C1313 1.387 . S
H1315 C1327 0.930 . S
H1316 C1329 0.930 . S
H1317 C1330 0.930 . S
H1318 C1334 0.959 . S
H1319 C1334 0.959 1_455 S
H1320 C1334 0.961 . S
H1321 C1335 0.960 1_655 S
H1322 C1335 0.961 . S
H1323 C1335 0.959 . S
H1324 C1338 0.929 . S
H1325 C1339 0.931 . S
H1326 C1341 0.930 . S
C1327 H1315 0.930 . S
C1327 C1328 1.399 . S
C1327 C1332 1.399 . S
C1328 C1327 1.399 . S
C1328 C1329 1.376 . S
C1329 H1316 0.930 . S
C1329 C1328 1.376 . S
C1329 C1330 1.388 . S
C1330 H1317 0.930 . S
C1330 C1329 1.388 . S
C1330 C1331 1.390 . S
C1331 C1330 1.390 . S
C1331 C1332 1.394 . S
C1331 C1337 1.466 1_655 S
C1332 C1327 1.399 . S
C1332 C1331 1.394 . S
C1332 C1333 1.494 1_655 S
C1333 C1332 1.494 1_455 S
C1333 C1334 1.499 1_445 S
C1333 C1335 1.566 . S
C1333 C1336 1.547 1_545 S
C1334 H1318 0.959 . S
C1334 H1319 0.959 1_655 S
C1334 H1320 0.961 . S
C1334 C1333 1.499 1_665 S
C1335 H1321 0.960 1_455 S
C1335 H1322 0.961 . S
C1335 H1323 0.959 . S
C1335 C1333 1.566 . S
C1336 C1333 1.547 1_565 S
C1336 C1337 1.396 1_565 S
C1336 C1341 1.390 . S
C1337 C1331 1.466 1_455 S
C1337 C1336 1.396 1_545 S
C1337 C1338 1.398 1_545 S
C1338 H1324 0.929 . S
C1338 C1337 1.398 1_565 S
C1338 C1339 1.385 . S
C1339 H1325 0.931 . S
C1339 C1338 1.385 . S
C1339 C1340 1.389 . S
C1340 C1339 1.389 . S
C1340 C1341 1.387 . S
C1341 H1326 0.930 . S
C1341 C1336 1.390 . S
C1341 C1340 1.387 . S
H1342 C1354 0.930 . S
H1343 C1356 0.930 . S
H1344 C1357 0.930 . S
H1345 C1361 0.959 . S
H1346 C1361 0.959 . S
H1347 C1361 0.961 1_455 S
H1348 C1362 0.960 . S
H1349 C1362 0.961 1_655 S
H1350 C1362 0.959 . S
H1351 C1365 0.929 . S
H1352 C1366 0.931 . S
H1353 C1368 0.930 . S
C1354 H1342 0.930 . S
C1354 C1355 1.399 . S
C1354 C1359 1.399 . S
C1355 C1354 1.399 . S
C1355 C1356 1.376 1_545 S
C1356 H1343 0.930 . S
C1356 C1355 1.376 1_565 S
C1356 C1357 1.389 . S
C1357 H1344 0.930 . S
C1357 C1356 1.389 . S
C1357 C1358 1.390 . S
C1358 C1357 1.390 . S
C1358 C1359 1.394 1_565 S
C1358 C1364 1.465 1_455 S
C1359 C1354 1.399 . S
C1359 C1358 1.394 1_545 S
C1359 C1360 1.489 1_455 S
C1360 C1359 1.489 1_655 S
C1360 C1361 1.508 . S
C1360 C1362 1.558 1_645 S
C1360 C1363 1.552 1_545 S
C1361 H1345 0.959 . S
C1361 H1346 0.959 . S
C1361 H1347 0.961 1_655 S
C1361 C1360 1.508 . S
C1362 H1348 0.960 . S
C1362 H1349 0.961 1_455 S
C1362 H1350 0.959 . S
C1362 C1360 1.558 1_465 S
C1363 C1360 1.552 1_565 S
C1363 C1364 1.396 . S
C1363 C1368 1.390 . S
C1364 C1358 1.465 1_655 S
C1364 C1363 1.396 . S
C1364 C1365 1.399 . S
C1365 H1351 0.929 . S
C1365 C1364 1.399 . S
C1365 C1366 1.385 . S
C1366 H1352 0.931 . S
C1366 C1365 1.385 . S
C1366 C1367 1.389 . S
C1367 C1366 1.389 . S
C1367 C1368 1.387 . S
C1368 H1353 0.930 . S
C1368 C1363 1.390 . S
C1368 C1367 1.387 . S
H1369 C1381 0.930 . S
H1370 C1383 0.930 . S
H1371 C1384 0.930 . S
H1372 C1388 0.959 . S
H1373 C1388 0.959 . S
H1374 C1388 0.961 1_655 S
H1375 C1389 0.960 . S
H1376 C1389 0.961 1_455 S
H1377 C1389 0.959 . S
H1378 C1392 0.929 . S
H1379 C1393 0.931 . S
H1380 C1395 0.930 1_545 S
C1381 H1369 0.930 . S
C1381 C1382 1.399 . S
C1381 C1386 1.399 . S
C1382 C1381 1.399 . S
C1382 C1383 1.376 1_545 S
C1383 H1370 0.930 . S
C1383 C1382 1.376 1_565 S
C1383 C1384 1.388 . S
C1384 H1371 0.930 . S
C1384 C1383 1.388 . S
C1384 C1385 1.390 . S
C1385 C1384 1.390 . S
C1385 C1386 1.394 1_565 S
C1385 C1391 1.465 1_655 S
C1386 C1381 1.399 . S
C1386 C1385 1.394 1_545 S
C1386 C1387 1.516 1_655 S
C1387 C1386 1.516 1_455 S
C1387 C1388 1.502 . S
C1387 C1389 1.561 1_445 S
C1387 C1390 1.526 1_545 S
C1388 H1372 0.959 . S
C1388 H1373 0.959 . S
C1388 H1374 0.961 1_455 S
C1388 C1387 1.502 . S
C1389 H1375 0.960 . S
C1389 H1376 0.961 1_655 S
C1389 H1377 0.959 . S
C1389 C1387 1.561 1_665 S
C1390 C1387 1.526 1_565 S
C1390 C1391 1.396 . S
C1390 C1395 1.390 . S
C1391 C1385 1.465 1_455 S
C1391 C1390 1.396 . S
C1391 C1392 1.399 . S
C1392 H1378 0.929 . S
C1392 C1391 1.399 . S
C1392 C1393 1.385 . S
C1393 H1379 0.931 . S
C1393 C1392 1.385 . S
C1393 C1394 1.389 . S
C1394 C1393 1.389 . S
C1394 C1395 1.387 . S
C1395 H1380 0.930 1_565 S
C1395 C1390 1.390 . S
C1395 C1394 1.387 . S
H1396 C1408 0.930 . S
H1397 C1410 0.930 . S
H1398 C1411 0.930 . S
H1399 C1415 0.959 . S
H1400 C1415 0.959 . S
H1401 C1415 0.961 . S
H1402 C1416 0.960 . S
H1403 C1416 0.961 . S
H1404 C1416 0.959 . S
H1405 C1419 0.929 . S
H1406 C1420 0.931 . S
H1407 C1422 0.930 . S
C1408 H1396 0.930 . S
C1408 C1409 1.399 . S
C1408 C1413 1.399 . S
C1409 C1408 1.399 . S
C1409 C1410 1.376 . S
C1410 H1397 0.930 . S
C1410 C1409 1.376 . S
C1410 C1411 1.388 . S
C1411 H1398 0.930 . S
C1411 C1410 1.388 . S
C1411 C1412 1.390 . S
C1412 C1411 1.390 . S
C1412 C1413 1.394 . S
C1412 C1418 1.465 . S
C1413 C1408 1.399 . S
C1413 C1412 1.394 . S
C1413 C1414 1.516 . S
C1414 C1413 1.516 . S
C1414 C1415 1.502 . S
C1414 C1416 1.561 . S
C1414 C1417 1.526 . S
C1415 H1399 0.959 . S
C1415 H1400 0.959 . S
C1415 H1401 0.961 . S
C1415 C1414 1.502 . S
C1416 H1402 0.960 . S
C1416 H1403 0.961 . S
C1416 H1404 0.959 . S
C1416 C1414 1.561 . S
C1417 C1414 1.526 . S
C1417 C1418 1.396 . S
C1417 C1422 1.390 . S
C1418 C1412 1.465 . S
C1418 C1417 1.396 . S
C1418 C1419 1.399 . S
C1419 H1405 0.929 . S
C1419 C1418 1.399 . S
C1419 C1420 1.385 . S
C1420 H1406 0.931 . S
C1420 C1419 1.385 . S
C1420 C1421 1.389 . S
C1421 C1420 1.389 . S
C1421 C1422 1.387 . S
C1422 H1407 0.930 . S
C1422 C1417 1.390 . S
C1422 C1421 1.387 . S
H1423 C1435 0.930 . S
H1424 C1437 0.930 . S
H1425 C1438 0.930 . S
H1426 C1442 0.959 . S
H1427 C1442 0.959 . S
H1428 C1442 0.961 . S
H1429 C1443 0.960 . S
H1430 C1443 0.961 . S
H1431 C1443 0.959 . S
H1432 C1446 0.929 . S
H1433 C1447 0.931 . S
H1434 C1449 0.930 . S
C1435 H1423 0.930 . S
C1435 C1436 1.399 . S
C1435 C1440 1.399 . S
C1436 C1435 1.399 . S
C1436 C1437 1.376 . S
C1437 H1424 0.930 . S
C1437 C1436 1.376 . S
C1437 C1438 1.388 . S
C1438 H1425 0.930 . S
C1438 C1437 1.388 . S
C1438 C1439 1.390 . S
C1439 C1438 1.390 . S
C1439 C1440 1.394 . S
C1439 C1445 1.465 . S
C1440 C1435 1.399 . S
C1440 C1439 1.394 . S
C1440 C1441 1.516 . S
C1441 C1440 1.516 . S
C1441 C1442 1.502 . S
C1441 C1443 1.561 . S
C1441 C1444 1.526 . S
C1442 H1426 0.959 . S
C1442 H1427 0.959 . S
C1442 H1428 0.961 . S
C1442 C1441 1.502 . S
C1443 H1429 0.960 . S
C1443 H1430 0.961 . S
C1443 H1431 0.959 . S
C1443 C1441 1.561 . S
C1444 C1441 1.526 . S
C1444 C1445 1.396 . S
C1444 C1449 1.390 . S
C1445 C1439 1.465 . S
C1445 C1444 1.396 . S
C1445 C1446 1.399 . S
C1446 H1432 0.929 . S
C1446 C1445 1.399 . S
C1446 C1447 1.385 . S
C1447 H1433 0.931 . S
C1447 C1446 1.385 . S
C1447 C1448 1.389 . S
C1448 C1447 1.389 . S
C1448 C1449 1.387 . S
C1449 H1434 0.930 . S
C1449 C1444 1.390 . S
C1449 C1448 1.387 . S
H1450 C1462 0.930 . S
H1451 C1464 0.930 . S
H1452 C1465 0.930 . S
H1453 C1469 0.959 . S
H1454 C1469 0.959 . S
H1455 C1469 0.961 . S
H1456 C1470 0.960 . S
H1457 C1470 0.961 . S
H1458 C1470 0.959 . S
H1459 C1473 0.929 . S
H1460 C1474 0.931 . S
H1461 C1476 0.930 . S
C1462 H1450 0.930 . S
C1462 C1463 1.399 . S
C1462 C1467 1.399 . S
C1463 C1462 1.399 . S
C1463 C1464 1.376 . S
C1464 H1451 0.930 . S
C1464 C1463 1.376 . S
C1464 C1465 1.388 . S
C1465 H1452 0.930 . S
C1465 C1464 1.388 . S
C1465 C1466 1.390 . S
C1466 C1465 1.390 . S
C1466 C1467 1.394 . S
C1466 C1472 1.465 . S
C1467 C1462 1.399 . S
C1467 C1466 1.394 . S
C1467 C1468 1.516 . S
C1468 C1467 1.516 . S
C1468 C1469 1.502 . S
C1468 C1470 1.561 . S
C1468 C1471 1.526 . S
C1469 H1453 0.959 . S
C1469 H1454 0.959 . S
C1469 H1455 0.961 . S
C1469 C1468 1.502 . S
C1470 H1456 0.960 . S
C1470 H1457 0.961 . S
C1470 H1458 0.959 . S
C1470 C1468 1.561 . S
C1471 C1468 1.526 . S
C1471 C1472 1.396 . S
C1471 C1476 1.390 . S
C1472 C1466 1.465 . S
C1472 C1471 1.396 . S
C1472 C1473 1.399 . S
C1473 H1459 0.929 . S
C1473 C1472 1.399 . S
C1473 C1474 1.385 . S
C1474 H1460 0.931 . S
C1474 C1473 1.385 . S
C1474 C1475 1.389 . S
C1475 C1474 1.389 . S
C1475 C1476 1.387 . S
C1476 H1461 0.930 . S
C1476 C1471 1.390 . S
C1476 C1475 1.387 . S
H1477 C1489 0.930 . S
H1478 C1491 0.930 . S
H1479 C1492 0.930 . S
H1480 C1496 0.959 . S
H1481 C1496 0.959 . S
H1482 C1496 0.961 . S
H1483 C1497 0.960 . S
H1484 C1497 0.961 . S
H1485 C1497 0.959 . S
H1486 C1500 0.929 . S
H1487 C1501 0.931 . S
H1488 C1503 0.930 . S
C1489 H1477 0.930 . S
C1489 C1490 1.399 . S
C1489 C1494 1.399 . S
C1490 C1489 1.399 . S
C1490 C1491 1.376 . S
C1491 H1478 0.930 . S
C1491 C1490 1.376 . S
C1491 C1492 1.388 . S
C1492 H1479 0.930 . S
C1492 C1491 1.388 . S
C1492 C1493 1.390 . S
C1493 C1492 1.390 . S
C1493 C1494 1.394 . S
C1493 C1499 1.465 . S
C1494 C1489 1.399 . S
C1494 C1493 1.394 . S
C1494 C1495 1.516 . S
C1495 C1494 1.516 . S
C1495 C1496 1.502 . S
C1495 C1497 1.561 . S
C1495 C1498 1.526 . S
C1496 H1480 0.959 . S
C1496 H1481 0.959 . S
C1496 H1482 0.961 . S
C1496 C1495 1.502 . S
C1497 H1483 0.960 . S
C1497 H1484 0.961 . S
C1497 H1485 0.959 . S
C1497 C1495 1.561 . S
C1498 C1495 1.526 . S
C1498 C1499 1.396 . S
C1498 C1503 1.390 . S
C1499 C1493 1.465 . S
C1499 C1498 1.396 . S
C1499 C1500 1.399 . S
C1500 H1486 0.929 . S
C1500 C1499 1.399 . S
C1500 C1501 1.385 . S
C1501 H1487 0.931 . S
C1501 C1500 1.385 . S
C1501 C1502 1.389 . S
C1502 C1501 1.389 . S
C1502 C1503 1.387 . S
C1503 H1488 0.930 . S
C1503 C1498 1.390 . S
C1503 C1502 1.387 . S
H1504 C1516 0.930 . S
H1505 C1518 0.930 . S
H1506 C1519 0.930 . S
H1507 C1523 0.959 . S
H1508 C1523 0.959 . S
H1509 C1523 0.961 . S
H1510 C1524 0.960 . S
H1511 C1524 0.961 . S
H1512 C1524 0.959 . S
H1513 C1527 0.929 . S
H1514 C1528 0.931 . S
H1515 C1530 0.930 . S
C1516 H1504 0.930 . S
C1516 C1517 1.399 . S
C1516 C1521 1.399 . S
C1517 C1516 1.399 . S
C1517 C1518 1.376 . S
C1518 H1505 0.930 . S
C1518 C1517 1.376 . S
C1518 C1519 1.388 . S
C1519 H1506 0.930 . S
C1519 C1518 1.388 . S
C1519 C1520 1.390 . S
C1520 C1519 1.390 . S
C1520 C1521 1.394 . S
C1520 C1526 1.465 . S
C1521 C1516 1.399 . S
C1521 C1520 1.394 . S
C1521 C1522 1.516 . S
C1522 C1521 1.516 . S
C1522 C1523 1.502 . S
C1522 C1524 1.561 . S
C1522 C1525 1.526 . S
C1523 H1507 0.959 . S
C1523 H1508 0.959 . S
C1523 H1509 0.961 . S
C1523 C1522 1.502 . S
C1524 H1510 0.960 . S
C1524 H1511 0.961 . S
C1524 H1512 0.959 . S
C1524 C1522 1.561 . S
C1525 C1522 1.526 . S
C1525 C1526 1.396 . S
C1525 C1530 1.390 . S
C1526 C1520 1.465 . S
C1526 C1525 1.396 . S
C1526 C1527 1.399 . S
C1527 H1513 0.929 . S
C1527 C1526 1.399 . S
C1527 C1528 1.385 . S
C1528 H1514 0.931 . S
C1528 C1527 1.385 . S
C1528 C1529 1.389 . S
C1529 C1528 1.389 . S
C1529 C1530 1.387 . S
C1530 H1515 0.930 . S
C1530 C1525 1.390 . S
C1530 C1529 1.387 . S
H1531 C1543 0.930 . S
H1532 C1545 0.930 . S
H1533 C1546 0.930 . S
H1534 C1550 0.959 . S
H1535 C1550 0.959 . S
H1536 C1550 0.961 . S
H1537 C1551 0.960 . S
H1538 C1551 0.961 . S
H1539 C1551 0.959 . S
H1540 C1554 0.929 . S
H1541 C1555 0.931 . S
H1542 C1557 0.930 . S
C1543 H1531 0.930 . S
C1543 C1544 1.399 . S
C1543 C1548 1.399 . S
C1544 C1543 1.399 . S
C1544 C1545 1.376 . S
C1545 H1532 0.930 . S
C1545 C1544 1.376 . S
C1545 C1546 1.388 . S
C1546 H1533 0.930 . S
C1546 C1545 1.388 . S
C1546 C1547 1.390 . S
C1547 C1546 1.390 . S
C1547 C1548 1.394 . S
C1547 C1553 1.465 . S
C1548 C1543 1.399 . S
C1548 C1547 1.394 . S
C1548 C1549 1.516 . S
C1549 C1548 1.516 . S
C1549 C1550 1.502 . S
C1549 C1551 1.561 . S
C1549 C1552 1.526 . S
C1550 H1534 0.959 . S
C1550 H1535 0.959 . S
C1550 H1536 0.961 . S
C1550 C1549 1.502 . S
C1551 H1537 0.960 . S
C1551 H1538 0.961 . S
C1551 H1539 0.959 . S
C1551 C1549 1.561 . S
C1552 C1549 1.526 . S
C1552 C1553 1.396 . S
C1552 C1557 1.390 . S
C1553 C1547 1.465 . S
C1553 C1552 1.396 . S
C1553 C1554 1.399 . S
C1554 H1540 0.929 . S
C1554 C1553 1.399 . S
C1554 C1555 1.385 . S
C1555 H1541 0.931 . S
C1555 C1554 1.385 . S
C1555 C1556 1.389 . S
C1556 C1555 1.389 . S
C1556 C1557 1.387 . S
C1557 H1542 0.930 . S
C1557 C1552 1.390 . S
C1557 C1556 1.387 . S
H1558 C1570 0.930 . S
H1559 C1572 0.930 . S
H1560 C1573 0.930 . S
H1561 C1577 0.959 . S
H1562 C1577 0.959 . S
H1563 C1577 0.961 . S
H1564 C1578 0.960 . S
H1565 C1578 0.961 . S
H1566 C1578 0.959 . S
H1567 C1581 0.929 . S
H1568 C1582 0.931 . S
H1569 C1584 0.930 . S
C1570 H1558 0.930 . S
C1570 C1571 1.399 . S
C1570 C1575 1.399 . S
C1571 C1570 1.399 . S
C1571 C1572 1.376 . S
C1572 H1559 0.930 . S
C1572 C1571 1.376 . S
C1572 C1573 1.388 . S
C1573 H1560 0.930 . S
C1573 C1572 1.388 . S
C1573 C1574 1.390 . S
C1574 C1573 1.390 . S
C1574 C1575 1.394 . S
C1574 C1580 1.465 . S
C1575 C1570 1.399 . S
C1575 C1574 1.394 . S
C1575 C1576 1.516 . S
C1576 C1575 1.516 . S
C1576 C1577 1.502 . S
C1576 C1578 1.561 . S
C1576 C1579 1.526 . S
C1577 H1561 0.959 . S
C1577 H1562 0.959 . S
C1577 H1563 0.961 . S
C1577 C1576 1.502 . S
C1578 H1564 0.960 . S
C1578 H1565 0.961 . S
C1578 H1566 0.959 . S
C1578 C1576 1.561 . S
C1579 C1576 1.526 . S
C1579 C1580 1.396 . S
C1579 C1584 1.390 . S
C1580 C1574 1.465 . S
C1580 C1579 1.396 . S
C1580 C1581 1.399 . S
C1581 H1567 0.929 . S
C1581 C1580 1.399 . S
C1581 C1582 1.385 . S
C1582 H1568 0.931 . S
C1582 C1581 1.385 . S
C1582 C1583 1.389 . S
C1583 C1582 1.389 . S
C1583 C1584 1.387 . S
C1584 H1569 0.930 . S
C1584 C1579 1.390 . S
C1584 C1583 1.387 . S
H1585 C1597 0.930 . S
H1586 C1599 0.930 . S
H1587 C1600 0.930 . S
H1588 C1604 0.959 . S
H1589 C1604 0.959 . S
H1590 C1604 0.961 . S
H1591 C1605 0.960 . S
H1592 C1605 0.961 . S
H1593 C1605 0.959 . S
H1594 C1608 0.929 . S
H1595 C1609 0.931 . S
H1596 C1611 0.930 . S
C1597 H1585 0.930 . S
C1597 C1598 1.399 . S
C1597 C1602 1.399 . S
C1598 C1597 1.399 . S
C1598 C1599 1.376 . S
C1599 H1586 0.930 . S
C1599 C1598 1.376 . S
C1599 C1600 1.388 . S
C1600 H1587 0.930 . S
C1600 C1599 1.388 . S
C1600 C1601 1.390 . S
C1601 C1600 1.390 . S
C1601 C1602 1.394 . S
C1601 C1607 1.465 . S
C1602 C1597 1.399 . S
C1602 C1601 1.394 . S
C1602 C1603 1.516 . S
C1603 C1602 1.516 . S
C1603 C1604 1.502 . S
C1603 C1605 1.561 . S
C1603 C1606 1.526 . S
C1604 H1588 0.959 . S
C1604 H1589 0.959 . S
C1604 H1590 0.961 . S
C1604 C1603 1.502 . S
C1605 H1591 0.960 . S
C1605 H1592 0.961 . S
C1605 H1593 0.959 . S
C1605 C1603 1.561 . S
C1606 C1603 1.526 . S
C1606 C1607 1.396 . S
C1606 C1611 1.390 . S
C1607 C1601 1.465 . S
C1607 C1606 1.396 . S
C1607 C1608 1.399 . S
C1608 H1594 0.929 . S
C1608 C1607 1.399 . S
C1608 C1609 1.385 . S
C1609 H1595 0.931 . S
C1609 C1608 1.385 . S
C1609 C1610 1.389 . S
C1610 C1609 1.389 . S
C1610 C1611 1.387 . S
C1611 H1596 0.930 . S
C1611 C1606 1.390 . S
C1611 C1610 1.387 . S
H1612 C1624 0.930 . S
H1613 C1626 0.930 . S
H1614 C1627 0.930 . S
H1615 C1631 0.959 . S
H1616 C1631 0.959 . S
H1617 C1631 0.961 . S
H1618 C1632 0.960 . S
H1619 C1632 0.961 . S
H1620 C1632 0.959 . S
H1621 C1635 0.929 . S
H1622 C1636 0.931 . S
H1623 C1638 0.930 . S
C1624 H1612 0.930 . S
C1624 C1625 1.399 . S
C1624 C1629 1.399 . S
C1625 C1624 1.399 . S
C1625 C1626 1.376 . S
C1626 H1613 0.930 . S
C1626 C1625 1.376 . S
C1626 C1627 1.388 . S
C1627 H1614 0.930 . S
C1627 C1626 1.388 . S
C1627 C1628 1.390 . S
C1628 C1627 1.390 . S
C1628 C1629 1.394 . S
C1628 C1634 1.465 . S
C1629 C1624 1.399 . S
C1629 C1628 1.394 . S
C1629 C1630 1.516 . S
C1630 C1629 1.516 . S
C1630 C1631 1.502 . S
C1630 C1632 1.561 . S
C1630 C1633 1.526 . S
C1631 H1615 0.959 . S
C1631 H1616 0.959 . S
C1631 H1617 0.961 . S
C1631 C1630 1.502 . S
C1632 H1618 0.960 . S
C1632 H1619 0.961 . S
C1632 H1620 0.959 . S
C1632 C1630 1.561 . S
C1633 C1630 1.526 . S
C1633 C1634 1.396 . S
C1633 C1638 1.390 . S
C1634 C1628 1.465 . S
C1634 C1633 1.396 . S
C1634 C1635 1.399 . S
C1635 H1621 0.929 . S
C1635 C1634 1.399 . S
C1635 C1636 1.385 . S
C1636 H1622 0.931 . S
C1636 C1635 1.385 . S
C1636 C1637 1.389 . S
C1637 C1636 1.389 . S
C1637 C1638 1.387 . S
C1638 H1623 0.930 . S
C1638 C1633 1.390 . S
C1638 C1637 1.387 . S
H1639 C1651 0.930 . S
H1640 C1653 0.930 . S
H1641 C1654 0.930 . S
H1642 C1658 0.959 . S
H1643 C1658 0.959 . S
H1644 C1658 0.961 . S
H1645 C1659 0.960 . S
H1646 C1659 0.961 . S
H1647 C1659 0.959 . S
H1648 C1662 0.929 . S
H1649 C1663 0.931 . S
H1650 C1665 0.930 . S
C1651 H1639 0.930 . S
C1651 C1652 1.399 . S
C1651 C1656 1.399 . S
C1652 C1651 1.399 . S
C1652 C1653 1.376 . S
C1653 H1640 0.930 . S
C1653 C1652 1.376 . S
C1653 C1654 1.388 . S
C1654 H1641 0.930 . S
C1654 C1653 1.388 . S
C1654 C1655 1.390 . S
C1655 C1654 1.390 . S
C1655 C1656 1.394 . S
C1655 C1661 1.465 . S
C1656 C1651 1.399 . S
C1656 C1655 1.394 . S
C1656 C1657 1.516 . S
C1657 C1656 1.516 . S
C1657 C1658 1.502 . S
C1657 C1659 1.561 . S
C1657 C1660 1.526 . S
C1658 H1642 0.959 . S
C1658 H1643 0.959 . S
C1658 H1644 0.961 . S
C1658 C1657 1.502 . S
C1659 H1645 0.960 . S
C1659 H1646 0.961 . S
C1659 H1647 0.959 . S
C1659 C1657 1.561 . S
C1660 C1657 1.526 . S
C1660 C1661 1.396 . S
C1660 C1665 1.390 . S
C1661 C1655 1.465 . S
C1661 C1660 1.396 . S
C1661 C1662 1.399 . S
C1662 H1648 0.929 . S
C1662 C1661 1.399 . S
C1662 C1663 1.385 . S
C1663 H1649 0.931 . S
C1663 C1662 1.385 . S
C1663 C1664 1.389 . S
C1664 C1663 1.389 . S
C1664 C1665 1.387 . S
C1665 H1650 0.930 . S
C1665 C1660 1.390 . S
C1665 C1664 1.387 . S
H1666 C1678 0.930 . S
H1667 C1680 0.930 . S
H1668 C1681 0.930 . S
H1669 C1685 0.959 . S
H1670 C1685 0.959 . S
H1671 C1685 0.961 . S
H1672 C1686 0.960 . S
H1673 C1686 0.961 . S
H1674 C1686 0.959 . S
H1675 C1689 0.929 . S
H1676 C1690 0.931 . S
H1677 C1692 0.930 . S
C1678 H1666 0.930 . S
C1678 C1679 1.399 . S
C1678 C1683 1.399 . S
C1679 C1678 1.399 . S
C1679 C1680 1.376 . S
C1680 H1667 0.930 . S
C1680 C1679 1.376 . S
C1680 C1681 1.388 . S
C1681 H1668 0.930 . S
C1681 C1680 1.388 . S
C1681 C1682 1.390 . S
C1682 C1681 1.390 . S
C1682 C1683 1.394 . S
C1682 C1688 1.465 . S
C1683 C1678 1.399 . S
C1683 C1682 1.394 . S
C1683 C1684 1.516 . S
C1684 C1683 1.516 . S
C1684 C1685 1.502 . S
C1684 C1686 1.561 . S
C1684 C1687 1.526 . S
C1685 H1669 0.959 . S
C1685 H1670 0.959 . S
C1685 H1671 0.961 . S
C1685 C1684 1.502 . S
C1686 H1672 0.960 . S
C1686 H1673 0.961 . S
C1686 H1674 0.959 . S
C1686 C1684 1.561 . S
C1687 C1684 1.526 . S
C1687 C1688 1.396 . S
C1687 C1692 1.390 . S
C1688 C1682 1.465 . S
C1688 C1687 1.396 . S
C1688 C1689 1.399 . S
C1689 H1675 0.929 . S
C1689 C1688 1.399 . S
C1689 C1690 1.385 . S
C1690 H1676 0.931 . S
C1690 C1689 1.385 . S
C1690 C1691 1.389 . S
C1691 C1690 1.389 . S
C1691 C1692 1.387 . S
C1692 H1677 0.930 . S
C1692 C1687 1.390 . S
C1692 C1691 1.387 . S
H1693 C1705 0.930 . S
H1694 C1707 0.930 . S
H1695 C1708 0.930 . S
H1696 C1712 0.959 . S
H1697 C1712 0.959 . S
H1698 C1712 0.961 . S
H1699 C1713 0.960 . S
H1700 C1713 0.961 . S
H1701 C1713 0.959 . S
H1702 C1716 0.929 . S
H1703 C1717 0.931 . S
H1704 C1719 0.930 . S
C1705 H1693 0.930 . S
C1705 C1706 1.399 . S
C1705 C1710 1.399 . S
C1706 C1705 1.399 . S
C1706 C1707 1.376 . S
C1707 H1694 0.930 . S
C1707 C1706 1.376 . S
C1707 C1708 1.388 . S
C1708 H1695 0.930 . S
C1708 C1707 1.388 . S
C1708 C1709 1.390 . S
C1709 C1708 1.390 . S
C1709 C1710 1.394 . S
C1709 C1715 1.465 . S
C1710 C1705 1.399 . S
C1710 C1709 1.394 . S
C1710 C1711 1.516 . S
C1711 C1710 1.516 . S
C1711 C1712 1.502 . S
C1711 C1713 1.561 . S
C1711 C1714 1.526 . S
C1712 H1696 0.959 . S
C1712 H1697 0.959 . S
C1712 H1698 0.961 . S
C1712 C1711 1.502 . S
C1713 H1699 0.960 . S
C1713 H1700 0.961 . S
C1713 H1701 0.959 . S
C1713 C1711 1.561 . S
C1714 C1711 1.526 . S
C1714 C1715 1.396 . S
C1714 C1719 1.390 . S
C1715 C1709 1.465 . S
C1715 C1714 1.396 . S
C1715 C1716 1.399 . S
C1716 H1702 0.929 . S
C1716 C1715 1.399 . S
C1716 C1717 1.385 . S
C1717 H1703 0.931 . S
C1717 C1716 1.385 . S
C1717 C1718 1.389 . S
C1718 C1717 1.389 . S
C1718 C1719 1.387 . S
C1719 H1704 0.930 . S
C1719 C1714 1.390 . S
C1719 C1718 1.387 . S
H1720 C1732 0.929 . S
H1721 C1734 0.930 . S
H1722 C1735 0.930 . S
H1723 C1739 0.959 . S
H1724 C1739 0.959 . S
H1725 C1739 0.961 . S
H1726 C1740 0.960 . S
H1727 C1740 0.961 . S
H1728 C1740 0.959 . S
H1729 C1743 0.929 . S
H1730 C1744 0.931 . S
H1731 C1746 0.930 . S
C1732 H1720 0.929 . S
C1732 C1733 1.397 . S
C1732 C1737 1.402 1_565 S
C1733 C1732 1.397 . S
C1733 C1734 1.376 . S
C1734 H1721 0.930 . S
C1734 C1733 1.376 . S
C1734 C1735 1.388 1_565 S
C1735 H1722 0.930 . S
C1735 C1734 1.388 1_545 S
C1735 C1736 1.390 . S
C1736 C1735 1.390 . S
C1736 C1737 1.394 . S
C1736 C1742 1.465 . S
C1737 C1732 1.402 1_545 S
C1737 C1736 1.394 . S
C1737 C1738 1.516 . S
C1738 C1737 1.516 . S
C1738 C1739 1.502 . S
C1738 C1740 1.561 . S
C1738 C1741 1.526 . S
C1739 H1723 0.959 . S
C1739 H1724 0.959 . S
C1739 H1725 0.961 . S
C1739 C1738 1.502 . S
C1740 H1726 0.960 . S
C1740 H1727 0.961 . S
C1740 H1728 0.959 . S
C1740 C1738 1.561 . S
C1741 C1738 1.526 . S
C1741 C1742 1.396 . S
C1741 C1746 1.390 . S
C1742 C1736 1.465 . S
C1742 C1741 1.396 . S
C1742 C1743 1.399 . S
C1743 H1729 0.929 . S
C1743 C1742 1.399 . S
C1743 C1744 1.385 . S
C1744 H1730 0.931 . S
C1744 C1743 1.385 . S
C1744 C1745 1.389 . S
C1745 C1744 1.389 . S
C1745 C1746 1.387 . S
C1746 H1731 0.930 . S
C1746 C1741 1.390 . S
C1746 C1745 1.387 . S
H1747 C1759 0.930 . S
H1748 C1761 0.930 . S
H1749 C1762 0.930 . S
H1750 C1766 0.959 . S
H1751 C1766 0.959 . S
H1752 C1766 0.961 . S
H1753 C1767 0.960 . S
H1754 C1767 0.961 . S
H1755 C1767 0.959 . S
H1756 C1770 0.929 . S
H1757 C1771 0.931 . S
H1758 C1773 0.927 1_545 S
C1759 H1747 0.930 . S
C1759 C1760 1.399 . S
C1759 C1764 1.399 . S
C1760 C1759 1.399 . S
C1760 C1761 1.376 . S
C1761 H1748 0.930 . S
C1761 C1760 1.376 . S
C1761 C1762 1.388 . S
C1762 H1749 0.930 . S
C1762 C1761 1.388 . S
C1762 C1763 1.390 . S
C1763 C1762 1.390 . S
C1763 C1764 1.394 . S
C1763 C1769 1.465 . S
C1764 C1759 1.399 . S
C1764 C1763 1.394 . S
C1764 C1765 1.516 . S
C1765 C1764 1.516 . S
C1765 C1766 1.502 . S
C1765 C1767 1.561 . S
C1765 C1768 1.526 . S
C1766 H1750 0.959 . S
C1766 H1751 0.959 . S
C1766 H1752 0.961 . S
C1766 C1765 1.502 . S
C1767 H1753 0.960 . S
C1767 H1754 0.961 . S
C1767 H1755 0.959 . S
C1767 C1765 1.561 . S
C1768 C1765 1.526 . S
C1768 C1769 1.396 . S
C1768 C1773 1.390 . S
C1769 C1763 1.465 . S
C1769 C1768 1.396 . S
C1769 C1770 1.399 . S
C1770 H1756 0.929 . S
C1770 C1769 1.399 . S
C1770 C1771 1.385 1_565 S
C1771 H1757 0.931 . S
C1771 C1770 1.385 1_545 S
C1771 C1772 1.389 . S
C1772 C1771 1.389 . S
C1772 C1773 1.387 1_545 S
C1773 H1758 0.927 1_565 S
C1773 C1768 1.390 . S
C1773 C1772 1.387 1_565 S
H1774 C1786 0.930 . S
H1775 C1788 0.930 . S
H1776 C1789 0.930 . S
H1777 C1793 0.959 . S
H1778 C1793 0.959 . S
H1779 C1793 0.961 . S
H1780 C1794 0.960 . S
H1781 C1794 0.961 . S
H1782 C1794 0.959 . S
H1783 C1797 0.929 . S
H1784 C1798 0.931 . S
H1785 C1800 0.930 . S
C1786 H1774 0.930 . S
C1786 C1787 1.399 . S
C1786 C1791 1.399 1_545 S
C1787 C1786 1.399 . S
C1787 C1788 1.376 . S
C1788 H1775 0.930 . S
C1788 C1787 1.376 . S
C1788 C1789 1.388 1_545 S
C1789 H1776 0.930 . S
C1789 C1788 1.388 1_565 S
C1789 C1790 1.390 . S
C1790 C1789 1.390 . S
C1790 C1791 1.394 . S
C1790 C1796 1.465 . S
C1791 C1786 1.399 1_565 S
C1791 C1790 1.394 . S
C1791 C1792 1.516 . S
C1792 C1791 1.516 . S
C1792 C1793 1.502 . S
C1792 C1794 1.561 . S
C1792 C1795 1.526 . S
C1793 H1777 0.959 . S
C1793 H1778 0.959 . S
C1793 H1779 0.961 . S
C1793 C1792 1.502 . S
C1794 H1780 0.960 . S
C1794 H1781 0.961 . S
C1794 H1782 0.959 . S
C1794 C1792 1.561 . S
C1795 C1792 1.526 . S
C1795 C1796 1.396 . S
C1795 C1800 1.390 . S
C1796 C1790 1.465 . S
C1796 C1795 1.396 . S
C1796 C1797 1.399 . S
C1797 H1783 0.929 . S
C1797 C1796 1.399 . S
C1797 C1798 1.385 . S
C1798 H1784 0.931 . S
C1798 C1797 1.385 . S
C1798 C1799 1.389 . S
C1799 C1798 1.389 . S
C1799 C1800 1.387 . S
C1800 H1785 0.930 . S
C1800 C1795 1.390 . S
C1800 C1799 1.387 . S
H1801 C1813 0.930 . S
H1802 C1815 0.930 . S
H1803 C1816 0.930 . S
H1804 C1820 0.959 . S
H1805 C1820 0.959 . S
H1806 C1820 0.961 . S
H1807 C1821 0.960 . S
H1808 C1821 0.961 . S
H1809 C1821 0.959 . S
H1810 C1824 0.929 . S
H1811 C1825 0.931 . S
H1812 C1827 0.930 . S
C1813 H1801 0.930 . S
C1813 C1814 1.399 . S
C1813 C1818 1.399 1_565 S
C1814 C1813 1.399 . S
C1814 C1815 1.376 . S
C1815 H1802 0.930 . S
C1815 C1814 1.376 . S
C1815 C1816 1.388 1_565 S
C1816 H1803 0.930 . S
C1816 C1815 1.388 1_545 S
C1816 C1817 1.390 . S
C1817 C1816 1.390 . S
C1817 C1818 1.394 . S
C1817 C1823 1.465 . S
C1818 C1813 1.399 1_545 S
C1818 C1817 1.394 . S
C1818 C1819 1.516 . S
C1819 C1818 1.516 . S
C1819 C1820 1.502 . S
C1819 C1821 1.561 . S
C1819 C1822 1.526 . S
C1820 H1804 0.959 . S
C1820 H1805 0.959 . S
C1820 H1806 0.961 . S
C1820 C1819 1.502 . S
C1821 H1807 0.960 . S
C1821 H1808 0.961 . S
C1821 H1809 0.959 . S
C1821 C1819 1.561 . S
C1822 C1819 1.526 . S
C1822 C1823 1.396 . S
C1822 C1827 1.390 . S
C1823 C1817 1.465 . S
C1823 C1822 1.396 . S
C1823 C1824 1.399 . S
C1824 H1810 0.929 . S
C1824 C1823 1.399 . S
C1824 C1825 1.385 . S
C1825 H1811 0.931 . S
C1825 C1824 1.385 . S
C1825 C1826 1.389 . S
C1826 C1825 1.389 . S
C1826 C1827 1.387 . S
C1827 H1812 0.930 . S
C1827 C1822 1.390 . S
C1827 C1826 1.387 . S
H1828 C1840 0.930 . S
H1829 C1842 0.930 . S
H1830 C1843 0.930 . S
H1831 C1847 0.959 . S
H1832 C1847 0.959 . S
H1833 C1847 0.961 . S
H1834 C1848 0.960 . S
H1835 C1848 0.961 . S
H1836 C1848 0.959 . S
H1837 C1851 0.929 . S
H1838 C1852 0.931 . S
H1839 C1854 0.930 . S
C1840 H1828 0.930 . S
C1840 C1841 1.399 . S
C1840 C1845 1.399 . S
C1841 C1840 1.399 . S
C1841 C1842 1.376 . S
C1842 H1829 0.930 . S
C1842 C1841 1.376 . S
C1842 C1843 1.388 . S
C1843 H1830 0.930 . S
C1843 C1842 1.388 . S
C1843 C1844 1.390 . S
C1844 C1843 1.390 . S
C1844 C1845 1.394 . S
C1844 C1850 1.465 . S
C1845 C1840 1.399 . S
C1845 C1844 1.394 . S
C1845 C1846 1.516 . S
C1846 C1845 1.516 . S
C1846 C1847 1.502 . S
C1846 C1848 1.561 . S
C1846 C1849 1.526 . S
C1847 H1831 0.959 . S
C1847 H1832 0.959 . S
C1847 H1833 0.961 . S
C1847 C1846 1.502 . S
C1848 H1834 0.960 . S
C1848 H1835 0.961 . S
C1848 H1836 0.959 . S
C1848 C1846 1.561 . S
C1849 C1846 1.526 . S
C1849 C1850 1.396 . S
C1849 C1854 1.390 1_565 S
C1850 C1844 1.465 . S
C1850 C1849 1.396 . S
C1850 C1851 1.399 . S
C1851 H1837 0.929 . S
C1851 C1850 1.399 . S
C1851 C1852 1.385 1_565 S
C1852 H1838 0.931 . S
C1852 C1851 1.385 1_545 S
C1852 C1853 1.389 . S
C1853 C1852 1.389 . S
C1853 C1854 1.387 . S
C1854 H1839 0.930 . S
C1854 C1849 1.390 1_545 S
C1854 C1853 1.387 . S
H1855 C1867 0.930 . S
H1856 C1869 0.930 . S
H1857 C1870 0.930 . S
H1858 C1874 0.959 . S
H1859 C1874 0.959 . S
H1860 C1874 0.961 . S
H1861 C1875 0.960 . S
H1862 C1875 0.961 . S
H1863 C1875 0.959 . S
H1864 C1878 0.929 . S
H1865 C1879 0.931 . S
H1866 C1881 0.930 . S
C1867 H1855 0.930 . S
C1867 C1868 1.399 . S
C1867 C1872 1.399 . S
C1868 C1867 1.399 . S
C1868 C1869 1.376 . S
C1869 H1856 0.930 . S
C1869 C1868 1.376 . S
C1869 C1870 1.388 . S
C1870 H1857 0.930 . S
C1870 C1869 1.388 . S
C1870 C1871 1.390 . S
C1871 C1870 1.390 . S
C1871 C1872 1.394 . S
C1871 C1877 1.465 . S
C1872 C1867 1.399 . S
C1872 C1871 1.394 . S
C1872 C1873 1.516 . S
C1873 C1872 1.516 . S
C1873 C1874 1.502 . S
C1873 C1875 1.561 . S
C1873 C1876 1.526 . S
C1874 H1858 0.959 . S
C1874 H1859 0.959 . S
C1874 H1860 0.961 . S
C1874 C1873 1.502 . S
C1875 H1861 0.960 . S
C1875 H1862 0.961 . S
C1875 H1863 0.959 . S
C1875 C1873 1.561 . S
C1876 C1873 1.526 . S
C1876 C1877 1.396 . S
C1876 C1881 1.390 1_545 S
C1877 C1871 1.465 . S
C1877 C1876 1.396 . S
C1877 C1878 1.399 . S
C1878 H1864 0.929 . S
C1878 C1877 1.399 . S
C1878 C1879 1.385 1_545 S
C1879 H1865 0.931 . S
C1879 C1878 1.385 1_565 S
C1879 C1880 1.389 . S
C1880 C1879 1.389 . S
C1880 C1881 1.387 . S
C1881 H1866 0.930 . S
C1881 C1876 1.390 1_565 S
C1881 C1880 1.387 . S
H1882 C1894 0.930 . S
H1883 C1896 0.930 . S
H1884 C1897 0.930 . S
H1885 C1901 0.959 . S
H1886 C1901 0.959 . S
H1887 C1901 0.961 . S
H1888 C1902 0.960 . S
H1889 C1902 0.961 . S
H1890 C1902 0.959 . S
H1891 C1905 0.929 . S
H1892 C1906 0.931 . S
H1893 C1908 0.930 . S
C1894 H1882 0.930 . S
C1894 C1895 1.399 1_545 S
C1894 C1899 1.399 . S
C1895 C1894 1.399 1_565 S
C1895 C1896 1.376 . S
C1896 H1883 0.930 . S
C1896 C1895 1.376 . S
C1896 C1897 1.388 1_565 S
C1897 H1884 0.930 . S
C1897 C1896 1.388 1_545 S
C1897 C1898 1.390 . S
C1898 C1897 1.390 . S
C1898 C1899 1.394 . S
C1898 C1904 1.465 . S
C1899 C1894 1.399 . S
C1899 C1898 1.394 . S
C1899 C1900 1.516 . S
C1900 C1899 1.516 . S
C1900 C1901 1.502 . S
C1900 C1902 1.561 . S
C1900 C1903 1.526 . S
C1901 H1885 0.959 . S
C1901 H1886 0.959 . S
C1901 H1887 0.961 . S
C1901 C1900 1.502 . S
C1902 H1888 0.960 . S
C1902 H1889 0.961 . S
C1902 H1890 0.959 . S
C1902 C1900 1.561 . S
C1903 C1900 1.526 . S
C1903 C1904 1.396 . S
C1903 C1908 1.390 . S
C1904 C1898 1.465 . S
C1904 C1903 1.396 . S
C1904 C1905 1.399 . S
C1905 H1891 0.929 . S
C1905 C1904 1.399 . S
C1905 C1906 1.385 . S
C1906 H1892 0.931 . S
C1906 C1905 1.385 . S
C1906 C1907 1.389 . S
C1907 C1906 1.389 . S
C1907 C1908 1.387 . S
C1908 H1893 0.930 . S
C1908 C1903 1.390 . S
C1908 C1907 1.387 . S
H1909 C1921 0.930 . S
H1910 C1923 0.930 . S
H1911 C1924 0.930 . S
H1912 C1928 0.959 . S
H1913 C1928 0.959 . S
H1914 C1928 0.961 . S
H1915 C1929 0.960 . S
H1916 C1929 0.961 . S
H1917 C1929 0.959 . S
H1918 C1932 0.929 . S
H1919 C1933 0.931 . S
H1920 C1935 0.931 . S
C1921 H1909 0.930 . S
C1921 C1922 1.399 . S
C1921 C1926 1.399 . S
C1922 C1921 1.399 . S
C1922 C1923 1.376 . S
C1923 H1910 0.930 . S
C1923 C1922 1.376 . S
C1923 C1924 1.388 . S
C1924 H1911 0.930 . S
C1924 C1923 1.388 . S
C1924 C1925 1.390 . S
C1925 C1924 1.390 . S
C1925 C1926 1.394 . S
C1925 C1931 1.465 . S
C1926 C1921 1.399 . S
C1926 C1925 1.394 . S
C1926 C1927 1.516 . S
C1927 C1926 1.516 . S
C1927 C1928 1.502 . S
C1927 C1929 1.561 . S
C1927 C1930 1.526 . S
C1928 H1912 0.959 . S
C1928 H1913 0.959 . S
C1928 H1914 0.961 . S
C1928 C1927 1.502 . S
C1929 H1915 0.960 . S
C1929 H1916 0.961 . S
C1929 H1917 0.959 . S
C1929 C1927 1.561 . S
C1930 C1927 1.526 . S
C1930 C1931 1.396 . S
C1930 C1935 1.387 1_565 S
C1931 C1925 1.465 . S
C1931 C1930 1.396 . S
C1931 C1932 1.399 . S
C1932 H1918 0.929 . S
C1932 C1931 1.399 . S
C1932 C1933 1.385 1_565 S
C1933 H1919 0.931 . S
C1933 C1932 1.385 1_545 S
C1933 C1934 1.389 . S
C1934 C1933 1.389 . S
C1934 C1935 1.388 . S
C1935 H1920 0.931 . S
C1935 C1930 1.387 1_545 S
C1935 C1934 1.388 . S
C653 C19 1.534 . S
C665 C379 1.528 . S
C680 C59 1.548 . S
C692 C339 1.538 . S
C707 C459 1.556 . S
C719 C99 1.561 . S
C734 C139 1.555 . S
C746 C419 1.545 . S
C761 C530 1.559 . S
C773 C170 1.559 . S
C788 C490 1.530 . S
C800 C210 1.531 . S
C815 C610 1.562 . S
C827 C250 1.562 . S
C842 C290 1.530 . S
C854 C570 1.531 . S
C869 C98 1.666 . S
C881 C18 1.662 . S
C896 C138 1.687 . S
C908 C58 1.691 . S
C923 C249 1.659 . S
C935 C169 1.673 . S
C950 C209 1.658 . S
C962 C289 1.666 . S
C977 C418 1.668 . S
C989 C338 1.663 . S
C1004 C458 1.686 . S
C1016 C378 1.690 . S
C1031 C489 1.682 . S
C1043 C569 1.665 . S
C1058 C529 1.658 . S
C1070 C609 1.667 . S
C1085 C218 1.518 . S
C1097 C9 1.530 . S
C1112 C178 1.541 . S
C1124 C49 1.531 . S
C1139 C89 1.546 . S
C1151 C298 1.550 . S
C1166 C258 1.520 . S
C1178 C129 1.532 . S
C1193 C329 1.549 . S
C1205 C538 1.551 . S
C1220 C498 1.533 . S
C1232 C369 1.542 . S
C1247 C409 1.467 . S
C1259 C618 1.467 . S
C1274 C578 1.497 . S
C1286 C449 1.486 . S
C1301 C50 1.568 . S
C1313 C10 1.603 . S
C1328 C130 1.574 . S
C1340 C90 1.592 . S
C1355 C219 1.612 . S
C1367 C179 1.576 . S
C1382 C259 1.616 . S
C1394 C299 1.574 . S
C1409 C370 1.637 . S
C1421 C330 1.610 . S
C1436 C450 1.569 . S
C1448 C410 1.602 . S
C1463 C499 1.588 . S
C1475 C539 1.597 . S
C1490 C579 1.594 . S
C1502 C619 1.633 . S
C1517 C6 1.618 . S
C1529 C15 1.580 . S
C1544 C46 1.617 . S
C1556 C55 1.583 . S
C1571 C86 1.617 . S
C1583 C95 1.583 . S
C1598 C135 1.606 . S
C1610 C126 1.596 . S
C1625 C175 1.606 . S
C1637 C166 1.596 . S
C1652 C206 1.618 . S
C1664 C215 1.580 . S
C1679 C255 1.608 . S
C1691 C246 1.594 . S
C1706 C295 1.590 . S
C1718 C286 1.600 . S
C1733 C335 1.587 . S
C1745 C326 1.603 . S
C1760 C366 1.618 . S
C1772 C375 1.581 . S
C1787 C415 1.608 . S
C1799 C406 1.582 . S
C1814 C455 1.602 . S
C1826 C446 1.588 . S
C1841 C495 1.581 . S
C1853 C486 1.610 . S
C1868 C535 1.606 . S
C1880 C526 1.596 . S
C1895 C566 1.576 . S
C1907 C575 1.618 . S
C1922 C615 1.584 . S
C1934 C606 1.606 . S
