# Generated by pormake.
# Topology ukb, (4)-cn, num edge types: 1
# Building blocks:
#     Node 0, Type 0, BuildingBlock: KUFVIS_clean_sbu_0, # of connection points: 4
#     Node 1, Type 0, BuildingBlock: KUFVIS_clean_sbu_0, # of connection points: 4
#     Node 2, Type 0, BuildingBlock: KUFVIS_clean_sbu_0, # of connection points: 4
#     Node 3, Type 0, BuildingBlock: KUFVIS_clean_sbu_0, # of connection points: 4
#     Node 4, Type 0, BuildingBlock: KUFVIS_clean_sbu_0, # of connection points: 4
#     Node 5, Type 0, BuildingBlock: KUFVIS_clean_sbu_0, # of connection points: 4
#     Node 6, Type 0, BuildingBlock: KUFVIS_clean_sbu_0, # of connection points: 4
#     Node 7, Type 0, BuildingBlock: KUFVIS_clean_sbu_0, # of connection points: 4
#     Node 8, Type 0, BuildingBlock: KUFVIS_clean_sbu_0, # of connection points: 4
#     Node 9, Type 0, BuildingBlock: KUFVIS_clean_sbu_0, # of connection points: 4
#     Node 10, Type 0, BuildingBlock: KUFVIS_clean_sbu_0, # of connection points: 4
#     Node 11, Type 0, BuildingBlock: KUFVIS_clean_sbu_0, # of connection points: 4
#     Node 12, Type 0, BuildingBlock: KUFVIS_clean_sbu_0, # of connection points: 4
#     Node 13, Type 0, BuildingBlock: KUFVIS_clean_sbu_0, # of connection points: 4
#     Node 14, Type 0, BuildingBlock: KUFVIS_clean_sbu_0, # of connection points: 4
#     Node 15, Type 0, BuildingBlock: KUFVIS_clean_sbu_0, # of connection points: 4
#     Edge 16, Type (0, 0), BuildingBlock: UVAHIK_clean_linker_0, # of connection points: 2
#     Edge 17, Type (0, 0), BuildingBlock: UVAHIK_clean_linker_0, # of connection points: 2
#     Edge 18, Type (0, 0), BuildingBlock: UVAHIK_clean_linker_0, # of connection points: 2
#     Edge 19, Type (0, 0), BuildingBlock: UVAHIK_clean_linker_0, # of connection points: 2
#     Edge 20, Type (0, 0), BuildingBlock: UVAHIK_clean_linker_0, # of connection points: 2
#     Edge 21, Type (0, 0), BuildingBlock: UVAHIK_clean_linker_0, # of connection points: 2
#     Edge 22, Type (0, 0), BuildingBlock: UVAHIK_clean_linker_0, # of connection points: 2
#     Edge 23, Type (0, 0), BuildingBlock: UVAHIK_clean_linker_0, # of connection points: 2
#     Edge 24, Type (0, 0), BuildingBlock: UVAHIK_clean_linker_0, # of connection points: 2
#     Edge 25, Type (0, 0), BuildingBlock: UVAHIK_clean_linker_0, # of connection points: 2
#     Edge 26, Type (0, 0), BuildingBlock: UVAHIK_clean_linker_0, # of connection points: 2
#     Edge 27, Type (0, 0), BuildingBlock: UVAHIK_clean_linker_0, # of connection points: 2
#     Edge 28, Type (0, 0), BuildingBlock: UVAHIK_clean_linker_0, # of connection points: 2
#     Edge 29, Type (0, 0), BuildingBlock: UVAHIK_clean_linker_0, # of connection points: 2
#     Edge 30, Type (0, 0), BuildingBlock: UVAHIK_clean_linker_0, # of connection points: 2
#     Edge 31, Type (0, 0), BuildingBlock: UVAHIK_clean_linker_0, # of connection points: 2
#     Edge 32, Type (0, 0), BuildingBlock: UVAHIK_clean_linker_0, # of connection points: 2
#     Edge 33, Type (0, 0), BuildingBlock: UVAHIK_clean_linker_0, # of connection points: 2
#     Edge 34, Type (0, 0), BuildingBlock: UVAHIK_clean_linker_0, # of connection points: 2
#     Edge 35, Type (0, 0), BuildingBlock: UVAHIK_clean_linker_0, # of connection points: 2
#     Edge 36, Type (0, 0), BuildingBlock: UVAHIK_clean_linker_0, # of connection points: 2
#     Edge 37, Type (0, 0), BuildingBlock: UVAHIK_clean_linker_0, # of connection points: 2
#     Edge 38, Type (0, 0), BuildingBlock: UVAHIK_clean_linker_0, # of connection points: 2
#     Edge 39, Type (0, 0), BuildingBlock: UVAHIK_clean_linker_0, # of connection points: 2
#     Edge 40, Type (0, 0), BuildingBlock: UVAHIK_clean_linker_0, # of connection points: 2
#     Edge 41, Type (0, 0), BuildingBlock: UVAHIK_clean_linker_0, # of connection points: 2
#     Edge 42, Type (0, 0), BuildingBlock: UVAHIK_clean_linker_0, # of connection points: 2
#     Edge 43, Type (0, 0), BuildingBlock: UVAHIK_clean_linker_0, # of connection points: 2
#     Edge 44, Type (0, 0), BuildingBlock: UVAHIK_clean_linker_0, # of connection points: 2
#     Edge 45, Type (0, 0), BuildingBlock: UVAHIK_clean_linker_0, # of connection points: 2
#     Edge 46, Type (0, 0), BuildingBlock: UVAHIK_clean_linker_0, # of connection points: 2
#     Edge 47, Type (0, 0), BuildingBlock: UVAHIK_clean_linker_0, # of connection points: 2
# Relax obj value: 0.090
# Max RMSD: 0.068
# Mean RMSD: 0.068
data_MOF--net-ukb--node1-KUFVIS_clean_sbu_0--edge1-UVAHIK_clean_linker_0
_symmetry_space_group_name_H-M    P1
_symmetry_Int_Tables_number       1
_symmetry_cell_setting            triclinic
loop_
_symmetry_equiv_pos_as_xyz
'x, y, z'
_cell_length_a     55.650768
_cell_length_b     55.647395
_cell_length_c     49.168743
_cell_angle_alpha  90.005795
_cell_angle_beta   89.992799
_cell_angle_gamma 90.014185
loop_
_atom_site_label
_atom_site_type_symbol
_atom_site_fract_x
_atom_site_fract_y
_atom_site_fract_z
_atom_type_partial_charge
Mn0 Mn 0.52071 0.19565 0.19035 0.0
Mn1 Mn 0.57268 0.18849 0.15589 0.0
C2 C 0.55151 0.17355 0.20952 0.0
C3 C 0.48156 0.18286 0.19866 0.0
C4 C 0.55917 0.23446 0.18573 0.0
O5 O 0.51218 0.20633 0.15192 0.0
O6 O 0.54632 0.19625 0.13015 0.0
C7 C 0.55998 0.14434 0.12555 0.0
N8 N 0.57493 0.15623 0.14286 0.0
C9 C 0.6011 0.12195 0.1463 0.0
C10 C 0.58607 0.10938 0.12835 0.0
C11 C 0.56537 0.1206 0.11803 0.0
C12 C 0.5947 0.1455 0.15321 0.0
H13 H 0.54406 0.15291 0.11759 0.0
C14 C 0.52459 0.20383 0.1303 0.0
O15 O 0.48816 0.20477 0.20398 0.0
O16 O 0.49753 0.16872 0.18806 0.0
N17 N 0.60001 0.18081 0.17787 0.0
C18 C 0.61259 0.19539 0.19502 0.0
C19 C 0.63379 0.18686 0.20714 0.0
C20 C 0.64207 0.16361 0.20115 0.0
C21 C 0.62915 0.14916 0.18295 0.0
C22 C 0.60817 0.15864 0.17145 0.0
H23 H 0.60649 0.21337 0.19949 0.0
O24 O 0.53429 0.18185 0.22458 0.0
O25 O 0.54981 0.17776 0.18359 0.0
O26 O 0.53962 0.2268 0.19625 0.0
O27 O 0.57207 0.22198 0.16945 0.0
C28 C 0.63622 0.12569 0.1758 0.0
C29 C 0.6221 0.11202 0.15768 0.0
H30 H 0.5902 0.09109 0.12245 0.0
H31 H 0.55363 0.11098 0.10427 0.0
H32 H 0.64373 0.19819 0.22104 0.0
H33 H 0.65835 0.15705 0.21065 0.0
H34 H 0.65239 0.1179 0.18434 0.0
H35 H 0.62756 0.09387 0.15264 0.0
Mn36 Mn 0.30601 0.52259 0.68848 0.0
Mn37 Mn 0.30965 0.57501 0.65405 0.0
C38 C 0.32506 0.55519 0.70821 0.0
C39 C 0.3215 0.48461 0.69775 0.0
C40 C 0.26428 0.55776 0.68247 0.0
O41 O 0.29731 0.51296 0.64973 0.0
O42 O 0.30451 0.54801 0.62835 0.0
C43 C 0.35516 0.56594 0.62462 0.0
N44 N 0.34174 0.57997 0.64147 0.0
C45 C 0.37329 0.60941 0.64456 0.0
C46 C 0.3874 0.59536 0.62707 0.0
C47 C 0.37832 0.57348 0.61715 0.0
C48 C 0.35039 0.60092 0.65136 0.0
H49 H 0.34823 0.54911 0.61697 0.0
C50 C 0.29909 0.52564 0.62822 0.0
O51 O 0.29901 0.48955 0.70206 0.0
O52 O 0.33475 0.50155 0.68759 0.0
N53 N 0.31472 0.60298 0.67595 0.0
C54 C 0.29915 0.61401 0.69334 0.0
C55 C 0.30554 0.63608 0.70516 0.0
C56 C 0.3277 0.64673 0.69873 0.0
C57 C 0.34335 0.63515 0.68064 0.0
C58 C 0.33592 0.61329 0.66931 0.0
H59 H 0.28197 0.60607 0.69813 0.0
O60 O 0.3176 0.53744 0.72307 0.0
O61 O 0.32175 0.5531 0.68213 0.0
O62 O 0.27321 0.53879 0.69302 0.0
O63 O 0.27613 0.5718 0.66685 0.0
C64 C 0.36615 0.64428 0.67368 0.0
C65 C 0.38117 0.63136 0.65577 0.0
H66 H 0.40527 0.60112 0.62126 0.0
H67 H 0.38914 0.56248 0.60375 0.0
H68 H 0.29337 0.64491 0.71912 0.0
H69 H 0.33256 0.66376 0.70786 0.0
H70 H 0.37245 0.66106 0.68229 0.0
H71 H 0.39879 0.6384 0.65086 0.0
Mn72 Mn 0.97651 0.30501 0.19262 0.0
Mn73 Mn 0.92392 0.31273 0.15956 0.0
C74 C 0.94568 0.32596 0.21341 0.0
C75 C 0.01559 0.31807 0.20081 0.0
C76 C 0.93831 0.26599 0.18716 0.0
O77 O 0.98471 0.29589 0.15353 0.0
O78 O 0.94997 0.30599 0.1331 0.0
C79 C 0.93599 0.3579 0.13084 0.0
N80 N 0.92133 0.34538 0.14791 0.0
C81 C 0.89512 0.37942 0.1533 0.0
C82 C 0.90984 0.39264 0.13563 0.0
C83 C 0.93042 0.38185 0.12444 0.0
C84 C 0.9017 0.35569 0.1591 0.0
H85 H 0.95182 0.34966 0.12221 0.0
C86 C 0.97184 0.29888 0.13234 0.0
O87 O 0.00938 0.2959 0.20525 0.0
O88 O 0.99927 0.33233 0.19117 0.0
N89 N 0.8968 0.31953 0.18224 0.0
C90 C 0.88437 0.30426 0.19874 0.0
C91 C 0.86322 0.31223 0.21144 0.0
C92 C 0.85483 0.33566 0.20669 0.0
C93 C 0.86758 0.35084 0.1891 0.0
C94 C 0.88851 0.34189 0.17696 0.0
H95 H 0.89054 0.28613 0.20223 0.0
O96 O 0.96324 0.31737 0.22774 0.0
O97 O 0.94707 0.32273 0.18728 0.0
O98 O 0.95804 0.27345 0.19742 0.0
O99 O 0.92496 0.27886 0.17176 0.0
C100 C 0.86034 0.37452 0.18312 0.0
C101 C 0.87422 0.38887 0.16543 0.0
H102 H 0.90556 0.41109 0.13057 0.0
H103 H 0.94192 0.39196 0.11088 0.0
H104 H 0.85339 0.30034 0.22484 0.0
H105 H 0.83858 0.3418 0.21664 0.0
H106 H 0.84423 0.38193 0.1922 0.0
H107 H 0.86862 0.40715 0.16127 0.0
Mn108 Mn 0.1941 0.97815 0.69103 0.0
Mn109 Mn 0.19082 0.92588 0.6563 0.0
C110 C 0.17367 0.94603 0.70984 0.0
C111 C 0.17907 0.0165 0.69932 0.0
C112 C 0.23532 0.94229 0.6871 0.0
O113 O 0.20506 0.98733 0.65292 0.0
O114 O 0.19733 0.95276 0.63071 0.0
C115 C 0.14649 0.93568 0.62496 0.0
N116 N 0.1591 0.92142 0.64235 0.0
C117 C 0.12692 0.89259 0.64422 0.0
C118 C 0.11365 0.90686 0.62613 0.0
C119 C 0.12345 0.92855 0.61656 0.0
C120 C 0.14976 0.90066 0.65192 0.0
H121 H 0.15396 0.95237 0.61762 0.0
C122 C 0.20376 0.97485 0.63122 0.0
O123 O 0.20123 0.01106 0.70487 0.0
O124 O 0.16593 0.99985 0.68836 0.0
N125 N 0.18457 0.89799 0.67795 0.0
C126 C 0.19939 0.88668 0.69594 0.0
C127 C 0.19219 0.86479 0.70758 0.0
C128 C 0.17002 0.85458 0.70034 0.0
C129 C 0.1552 0.86638 0.68155 0.0
C130 C 0.16341 0.88806 0.67046 0.0
H131 H 0.21657 0.8943 0.70138 0.0
O132 O 0.18066 0.9638 0.72494 0.0
O133 O 0.17807 0.94793 0.68391 0.0
O134 O 0.22621 0.96122 0.69753 0.0
O135 O 0.22396 0.92862 0.67059 0.0
C136 C 0.13246 0.85766 0.6737 0.0
C137 C 0.11828 0.87082 0.65515 0.0
H138 H 0.09587 0.90143 0.61962 0.0
H139 H 0.11326 0.93972 0.60272 0.0
H140 H 0.20372 0.85578 0.72207 0.0
H141 H 0.1645 0.83771 0.7094 0.0
H142 H 0.12557 0.84103 0.68209 0.0
H143 H 0.10069 0.86411 0.64955 0.0
Mn144 Mn 0.52488 0.30588 0.8112 0.0
Mn145 Mn 0.57758 0.31017 0.84498 0.0
C146 C 0.55674 0.32587 0.7913 0.0
C147 C 0.48644 0.32066 0.80293 0.0
C148 C 0.56123 0.26495 0.81558 0.0
O149 O 0.51596 0.2962 0.8498 0.0
O150 O 0.55105 0.30355 0.87098 0.0
C151 C 0.56741 0.35466 0.87589 0.0
N152 N 0.58165 0.34212 0.8584 0.0
C153 C 0.60985 0.3748 0.85559 0.0
C154 C 0.59558 0.38801 0.87372 0.0
C155 C 0.57422 0.37792 0.88383 0.0
C156 C 0.60211 0.35173 0.84836 0.0
H157 H 0.55097 0.34695 0.88368 0.0
C158 C 0.52883 0.29758 0.8712 0.0
O159 O 0.49182 0.29836 0.79802 0.0
O160 O 0.50321 0.3341 0.81313 0.0
N161 N 0.60516 0.31661 0.82289 0.0
C162 C 0.61654 0.30176 0.80499 0.0
C163 C 0.63815 0.30922 0.79288 0.0
C164 C 0.648 0.3317 0.79956 0.0
C165 C 0.63614 0.34653 0.81829 0.0
C166 C 0.61476 0.33806 0.82986 0.0
H167 H 0.6092 0.28437 0.79996 0.0
O168 O 0.5389 0.31832 0.77666 0.0
O169 O 0.55511 0.32221 0.81739 0.0
O170 O 0.54183 0.27355 0.80567 0.0
O171 O 0.57521 0.27687 0.83121 0.0
C172 C 0.64451 0.36954 0.82563 0.0
C173 C 0.63131 0.3837 0.84417 0.0
H174 H 0.60077 0.40597 0.87989 0.0
H175 H 0.56305 0.38805 0.89774 0.0
H176 H 0.6472 0.29767 0.77844 0.0
H177 H 0.66462 0.33743 0.79011 0.0
H178 H 0.6609 0.37663 0.81687 0.0
H179 H 0.63777 0.40148 0.84939 0.0
Mn180 Mn 0.19336 0.51989 0.31245 0.0
Mn181 Mn 0.18957 0.57269 0.34625 0.0
C182 C 0.17113 0.55102 0.29433 0.0
C183 C 0.17967 0.48096 0.30452 0.0
C184 C 0.23252 0.55896 0.31196 0.0
O185 O 0.20539 0.51088 0.35009 0.0
O186 O 0.20237 0.54702 0.37027 0.0
C187 C 0.15092 0.55792 0.38407 0.0
N188 N 0.15951 0.57343 0.36497 0.0
C189 C 0.12429 0.59827 0.36849 0.0
C190 C 0.1151 0.58265 0.38832 0.0
C191 C 0.12844 0.56233 0.39605 0.0
C192 C 0.14669 0.59283 0.35711 0.0
H193 H 0.16116 0.54233 0.39012 0.0
C194 C 0.20794 0.52471 0.37049 0.0
O195 O 0.20146 0.48729 0.29829 0.0
O196 O 0.16614 0.49707 0.31586 0.0
N197 N 0.17771 0.59971 0.32633 0.0
C198 C 0.18913 0.61297 0.30693 0.0
C199 C 0.17815 0.63389 0.29689 0.0
C200 C 0.15585 0.64127 0.30732 0.0
C201 C 0.14474 0.62768 0.32779 0.0
C202 C 0.15651 0.60698 0.33697 0.0
H203 H 0.20643 0.60755 0.2991 0.0
O204 O 0.17867 0.53362 0.27905 0.0
O205 O 0.17617 0.54948 0.32018 0.0
O206 O 0.22485 0.53819 0.30492 0.0
O207 O 0.22059 0.57337 0.32704 0.0
C208 C 0.12239 0.63378 0.33936 0.0
C209 C 0.11208 0.61899 0.35953 0.0
H210 H 0.09781 0.58604 0.39768 0.0
H211 H 0.12144 0.55015 0.41127 0.0
H212 H 0.18691 0.64435 0.2812 0.0
H213 H 0.14742 0.65738 0.29947 0.0
H214 H 0.11289 0.64974 0.33277 0.0
H215 H 0.09477 0.62373 0.36806 0.0
Mn216 Mn 0.97638 0.19589 0.8131 0.0
Mn217 Mn 0.92318 0.19351 0.84624 0.0
C218 C 0.94493 0.17415 0.79489 0.0
C219 C 0.01501 0.1813 0.80541 0.0
C220 C 0.93812 0.23582 0.81162 0.0
O221 O 0.98534 0.20795 0.85079 0.0
O222 O 0.94886 0.20612 0.87039 0.0
C223 C 0.93685 0.15505 0.88482 0.0
N224 N 0.92171 0.16369 0.86539 0.0
C225 C 0.89628 0.12887 0.86897 0.0
C226 C 0.91151 0.11966 0.88915 0.0
C227 C 0.93195 0.13276 0.89702 0.0
C228 C 0.9022 0.15108 0.85739 0.0
H229 H 0.95253 0.16511 0.89097 0.0
C230 C 0.9713 0.2111 0.87092 0.0
O231 O 0.0092 0.2032 0.79909 0.0
O232 O 0.99859 0.1682 0.81687 0.0
N233 N 0.89615 0.18188 0.82613 0.0
C234 C 0.8833 0.19331 0.8064 0.0
C235 C 0.86233 0.18254 0.79617 0.0
C236 C 0.85451 0.16043 0.80675 0.0
C237 C 0.86767 0.14934 0.82757 0.0
C238 C 0.88844 0.1609 0.83691 0.0
H239 H 0.88907 0.21045 0.79844 0.0
O240 O 0.96257 0.18127 0.77968 0.0
O241 O 0.94638 0.17937 0.82069 0.0
O242 O 0.95884 0.2277 0.80509 0.0
O243 O 0.92326 0.22431 0.82656 0.0
C244 C 0.86108 0.12721 0.83933 0.0
C245 C 0.87547 0.11689 0.85986 0.0
H246 H 0.90774 0.10251 0.89867 0.0
H247 H 0.94384 0.12574 0.91251 0.0
H248 H 0.8522 0.19129 0.78021 0.0
H249 H 0.83838 0.15215 0.79874 0.0
H250 H 0.84504 0.1179 0.83265 0.0
H251 H 0.87035 0.09974 0.86854 0.0
Mn252 Mn 0.30651 0.97955 0.30994 0.0
Mn253 Mn 0.3133 0.92762 0.34454 0.0
C254 C 0.32801 0.94855 0.29028 0.0
C255 C 0.31954 0.01869 0.30203 0.0
C256 C 0.26725 0.94187 0.31523 0.0
O257 O 0.29571 0.98792 0.34835 0.0
O258 O 0.30699 0.9543 0.37049 0.0
C259 C 0.35852 0.93898 0.37348 0.0
N260 N 0.34568 0.92426 0.35682 0.0
C261 C 0.37862 0.89642 0.35345 0.0
C262 C 0.39215 0.91118 0.37078 0.0
C263 C 0.38208 0.93261 0.38074 0.0
C264 C 0.35528 0.90376 0.34686 0.0
H265 H 0.35084 0.95547 0.38112 0.0
C266 C 0.29897 0.97585 0.37005 0.0
O267 O 0.2976 0.01226 0.2967 0.0
O268 O 0.33362 0.00254 0.3124 0.0
N269 N 0.31959 0.89992 0.32258 0.0
C270 C 0.30445 0.88808 0.30538 0.0
C271 C 0.31186 0.86637 0.29348 0.0
C272 C 0.33457 0.85686 0.29968 0.0
C273 C 0.34973 0.86919 0.31767 0.0
C274 C 0.34131 0.89067 0.32906 0.0
H275 H 0.28685 0.89512 0.30076 0.0
O276 O 0.32004 0.96616 0.27558 0.0
O277 O 0.32409 0.9501 0.31634 0.0
O278 O 0.27525 0.96093 0.30395 0.0
O279 O 0.27954 0.9292 0.33192 0.0
C280 C 0.373 0.86121 0.32443 0.0
C281 C 0.38748 0.87488 0.3422 0.0
H282 H 0.41032 0.90633 0.37642 0.0
H283 H 0.39245 0.94416 0.394 0.0
H284 H 0.30005 0.85695 0.27961 0.0
H285 H 0.34024 0.84013 0.29043 0.0
H286 H 0.38005 0.84475 0.31579 0.0
H287 H 0.40547 0.86873 0.34695 0.0
Mn288 Mn 0.4764 0.80737 0.81096 0.0
Mn289 Mn 0.42419 0.81208 0.84577 0.0
C290 C 0.44518 0.82963 0.79308 0.0
C291 C 0.51527 0.82086 0.80229 0.0
C292 C 0.43706 0.76854 0.81192 0.0
O293 O 0.48582 0.79559 0.8486 0.0
O294 O 0.45013 0.79958 0.86956 0.0
C295 C 0.43972 0.85133 0.88238 0.0
N296 N 0.42388 0.84247 0.8638 0.0
C297 C 0.39926 0.87788 0.86701 0.0
C298 C 0.41522 0.88733 0.88631 0.0
C299 C 0.4356 0.87404 0.89393 0.0
C300 C 0.40442 0.85525 0.85603 0.0
H301 H 0.45536 0.84112 0.88835 0.0
C302 C 0.47233 0.79365 0.86939 0.0
O303 O 0.5088 0.79905 0.79631 0.0
O304 O 0.49935 0.83449 0.81379 0.0
N305 N 0.39692 0.82372 0.82611 0.0
C306 C 0.38328 0.812 0.80729 0.0
C307 C 0.36224 0.82288 0.79744 0.0
C308 C 0.35514 0.84541 0.80749 0.0
C309 C 0.36911 0.85683 0.8274 0.0
C310 C 0.38992 0.84514 0.8364 0.0
H311 H 0.38848 0.79452 0.79977 0.0
O312 O 0.46235 0.82186 0.77761 0.0
O313 O 0.44705 0.82485 0.81896 0.0
O314 O 0.45769 0.77596 0.80406 0.0
O315 O 0.42311 0.78075 0.82728 0.0
C316 C 0.36327 0.8794 0.83859 0.0
C317 C 0.37844 0.89001 0.85821 0.0
H318 H 0.41205 0.9048 0.89534 0.0
H319 H 0.44805 0.88125 0.90874 0.0
H320 H 0.35148 0.81388 0.78219 0.0
H321 H 0.33893 0.85377 0.79979 0.0
H322 H 0.34723 0.88884 0.83216 0.0
H323 H 0.37389 0.90748 0.86645 0.0
Mn324 Mn 0.69445 0.47947 0.30627 0.0
Mn325 Mn 0.69199 0.42845 0.34307 0.0
C326 C 0.67427 0.44671 0.28872 0.0
C327 C 0.67907 0.51758 0.29762 0.0
C328 C 0.73628 0.44517 0.3122 0.0
O329 O 0.70586 0.48944 0.34402 0.0
O330 O 0.69624 0.45623 0.368 0.0
C331 C 0.64631 0.43648 0.37251 0.0
N332 N 0.66009 0.42265 0.35582 0.0
C333 C 0.6293 0.39239 0.35305 0.0
C334 C 0.61483 0.40623 0.37037 0.0
C335 C 0.62335 0.42841 0.38006 0.0
C336 C 0.65201 0.40138 0.34621 0.0
H337 H 0.65281 0.45355 0.37996 0.0
C338 C 0.70326 0.47808 0.36635 0.0
O339 O 0.70115 0.51218 0.29161 0.0
O340 O 0.66618 0.50099 0.30907 0.0
N341 N 0.68778 0.39997 0.32173 0.0
C342 C 0.70357 0.38926 0.30435 0.0
C343 C 0.69763 0.36706 0.29253 0.0
C344 C 0.67568 0.35597 0.29895 0.0
C345 C 0.65984 0.36719 0.3171 0.0
C346 C 0.6668 0.38923 0.3284 0.0
H347 H 0.72056 0.39755 0.2995 0.0
O348 O 0.68064 0.4643 0.27299 0.0
O349 O 0.679 0.44931 0.31448 0.0
O350 O 0.72643 0.46255 0.29952 0.0
O351 O 0.72557 0.43254 0.33026 0.0
C352 C 0.63724 0.35757 0.3241 0.0
C353 C 0.62195 0.37021 0.34198 0.0
H354 H 0.5971 0.40008 0.37621 0.0
H355 H 0.61224 0.43924 0.39333 0.0
H356 H 0.70996 0.3585 0.27854 0.0
H357 H 0.67113 0.33888 0.28974 0.0
H358 H 0.63131 0.34064 0.31554 0.0
H359 H 0.60448 0.3628 0.34691 0.0
Mn360 Mn 0.02391 0.69269 0.80769 0.0
Mn361 Mn 0.07627 0.68686 0.84168 0.0
C362 C 0.05515 0.67135 0.7882 0.0
C363 C 0.985 0.67906 0.79959 0.0
C364 C 0.06139 0.73247 0.81202 0.0
O365 O 0.01532 0.70311 0.8462 0.0
O366 O 0.04991 0.6941 0.86765 0.0
C367 C 0.06509 0.64267 0.8727 0.0
N368 N 0.07957 0.65484 0.85512 0.0
C369 C 0.10733 0.62178 0.85287 0.0
C370 C 0.09282 0.60893 0.8711 0.0
C371 C 0.07153 0.61938 0.88094 0.0
C372 C 0.09988 0.64483 0.84522 0.0
H373 H 0.04877 0.65069 0.88036 0.0
C374 C 0.02798 0.70105 0.8677 0.0
O375 O 0.99111 0.70111 0.79434 0.0
O376 O 0.00133 0.66522 0.81 0.0
N377 N 0.10359 0.67973 0.81948 0.0
C378 C 0.11518 0.6942 0.80136 0.0
C379 C 0.13654 0.68618 0.78914 0.0
C380 C 0.14602 0.66362 0.79609 0.0
C381 C 0.13404 0.64926 0.8152 0.0
C382 C 0.11276 0.65813 0.82658 0.0
H383 H 0.10815 0.71169 0.79618 0.0
O384 O 0.03764 0.67933 0.77334 0.0
O385 O 0.05351 0.6754 0.81419 0.0
O386 O 0.04195 0.72436 0.80169 0.0
O387 O 0.07476 0.72022 0.828 0.0
C388 C 0.14232 0.62644 0.82331 0.0
C389 C 0.12885 0.6126 0.84191 0.0
H390 H 0.09777 0.591 0.87758 0.0
H391 H 0.06018 0.60955 0.89492 0.0
H392 H 0.14572 0.69742 0.77448 0.0
H393 H 0.16247 0.65747 0.78658 0.0
H394 H 0.15888 0.61923 0.81511 0.0
H395 H 0.13519 0.5949 0.84761 0.0
Mn396 Mn 0.80335 0.02269 0.31145 0.0
Mn397 Mn 0.80022 0.07648 0.34329 0.0
C398 C 0.82166 0.05581 0.29225 0.0
C399 C 0.82219 0.98574 0.30529 0.0
C400 C 0.75918 0.05531 0.31077 0.0
O401 O 0.79205 0.01371 0.34955 0.0
O402 O 0.793 0.05024 0.36933 0.0
C403 C 0.84239 0.07047 0.37929 0.0
N404 N 0.8305 0.08324 0.3599 0.0
C405 C 0.86147 0.1134 0.35898 0.0
C406 C 0.874 0.10065 0.37908 0.0
C407 C 0.86445 0.07905 0.38922 0.0
C408 C 0.83961 0.10393 0.34985 0.0
H409 H 0.83508 0.05385 0.38709 0.0
C410 C 0.78939 0.02752 0.37002 0.0
O411 O 0.79981 0.98886 0.29865 0.0
O412 O 0.83325 0.00382 0.31628 0.0
N413 N 0.80655 0.10386 0.32089 0.0
C414 C 0.79246 0.11367 0.30113 0.0
C415 C 0.79951 0.13531 0.28876 0.0
C416 C 0.82076 0.14678 0.29708 0.0
C417 C 0.83477 0.13652 0.31774 0.0
C418 C 0.82674 0.11504 0.32946 0.0
H419 H 0.77601 0.10503 0.29481 0.0
O420 O 0.81672 0.0371 0.27758 0.0
O421 O 0.81633 0.05442 0.31799 0.0
O422 O 0.77004 0.03646 0.30252 0.0
O423 O 0.76857 0.07108 0.32637 0.0
C424 C 0.85654 0.14659 0.3269 0.0
C425 C 0.86994 0.13498 0.34742 0.0
H426 H 0.89103 0.1072 0.38677 0.0
H427 H 0.87406 0.06906 0.40464 0.0
H428 H 0.78858 0.14313 0.27286 0.0
H429 H 0.82619 0.16341 0.28742 0.0
H430 H 0.86329 0.1631 0.31808 0.0
H431 H 0.8868 0.14274 0.35408 0.0
Mn432 Mn 0.47359 0.69507 0.18729 0.0
Mn433 Mn 0.42141 0.69047 0.1527 0.0
C434 C 0.44168 0.67432 0.20625 0.0
C435 C 0.51209 0.68065 0.19595 0.0
C436 C 0.43706 0.73567 0.18262 0.0
O437 O 0.4829 0.70513 0.14884 0.0
O438 O 0.4482 0.6971 0.12714 0.0
C439 C 0.43184 0.64609 0.12166 0.0
N440 N 0.4175 0.65855 0.13912 0.0
C441 C 0.38901 0.62607 0.14105 0.0
C442 C 0.40338 0.61295 0.12293 0.0
C443 C 0.42495 0.62296 0.11331 0.0
C444 C 0.3969 0.64896 0.14881 0.0
H445 H 0.44839 0.65377 0.11417 0.0
C446 C 0.47035 0.70333 0.12723 0.0
O447 O 0.50638 0.70282 0.20111 0.0
O448 O 0.49559 0.66712 0.18533 0.0
N449 N 0.39375 0.68389 0.17459 0.0
C450 C 0.38235 0.69857 0.19265 0.0
C451 C 0.36074 0.69099 0.20465 0.0
C452 C 0.35083 0.66863 0.19758 0.0
C453 C 0.36264 0.65405 0.17855 0.0
C454 C 0.38418 0.66249 0.16736 0.0
H455 H 0.38972 0.7159 0.19794 0.0
O456 O 0.45913 0.68198 0.22142 0.0
O457 O 0.44371 0.67842 0.18032 0.0
O458 O 0.45626 0.72713 0.19304 0.0
O459 O 0.42353 0.72376 0.1665 0.0
C460 C 0.35395 0.6314 0.17035 0.0
C461 C 0.36724 0.61732 0.15182 0.0
H462 H 0.3981 0.59513 0.11638 0.0
H463 H 0.4362 0.6129 0.09942 0.0
H464 H 0.3517 0.70238 0.21926 0.0
H465 H 0.33419 0.66281 0.20693 0.0
H466 H 0.3372 0.62451 0.17843 0.0
H467 H 0.36058 0.59975 0.14605 0.0
Mn468 Mn 0.80577 0.47844 0.68623 0.0
Mn469 Mn 0.81078 0.42747 0.64945 0.0
C470 C 0.82787 0.44672 0.70338 0.0
C471 C 0.81945 0.51717 0.69532 0.0
C472 C 0.76615 0.44085 0.68191 0.0
O473 O 0.79368 0.48822 0.64878 0.0
O474 O 0.80267 0.45478 0.62506 0.0
C475 C 0.85403 0.44021 0.61753 0.0
N476 N 0.8424 0.4249 0.63466 0.0
C477 C 0.8757 0.39735 0.63436 0.0
C478 C 0.88797 0.41271 0.61649 0.0
C479 C 0.87713 0.43429 0.60817 0.0
C480 C 0.85281 0.40429 0.64315 0.0
H481 H 0.84574 0.4568 0.6111 0.0
C482 C 0.79528 0.47652 0.62657 0.0
O483 O 0.79765 0.51072 0.70139 0.0
O484 O 0.83296 0.50131 0.68352 0.0
N485 N 0.81866 0.39929 0.6699 0.0
C486 C 0.80474 0.38683 0.68782 0.0
C487 C 0.81321 0.36504 0.69859 0.0
C488 C 0.83565 0.35604 0.69041 0.0
C489 C 0.84942 0.36891 0.67149 0.0
C490 C 0.8401 0.39057 0.66154 0.0
H491 H 0.78735 0.39348 0.69395 0.0
O492 O 0.82047 0.46377 0.71927 0.0
O493 O 0.82295 0.44918 0.67765 0.0
O494 O 0.77454 0.45988 0.69291 0.0
O495 O 0.77783 0.42829 0.66457 0.0
C496 C 0.87211 0.3612 0.66225 0.0
C497 C 0.88534 0.37551 0.6439 0.0
H498 H 0.90576 0.40817 0.60917 0.0
H499 H 0.88653 0.4463 0.59451 0.0
H500 H 0.80242 0.35517 0.71311 0.0
H501 H 0.84216 0.33928 0.69883 0.0
H502 H 0.87966 0.3444 0.66935 0.0
H503 H 0.90294 0.36958 0.6373 0.0
Mn504 Mn 0.02759 0.80341 0.18729 0.0
Mn505 Mn 0.08106 0.80413 0.15486 0.0
C506 C 0.06005 0.82232 0.20731 0.0
C507 C 0.99005 0.8208 0.19426 0.0
C508 C 0.06163 0.76051 0.18502 0.0
O509 O 0.01896 0.79323 0.14874 0.0
O510 O 0.05478 0.79849 0.12825 0.0
C511 C 0.07425 0.84844 0.12248 0.0
N512 N 0.08727 0.83552 0.14081 0.0
C513 C 0.11698 0.86681 0.14413 0.0
C514 C 0.10399 0.88038 0.12512 0.0
C515 C 0.08249 0.87118 0.11433 0.0
C516 C 0.10788 0.84427 0.15148 0.0
H517 H 0.0577 0.84144 0.1142 0.0
C518 C 0.03229 0.79359 0.12764 0.0
O519 O 0.99386 0.79832 0.19998 0.0
O520 O 0.00778 0.83277 0.18382 0.0
N521 N 0.10833 0.80951 0.17779 0.0
C522 C 0.11828 0.79452 0.1966 0.0
C523 C 0.13973 0.80121 0.2096 0.0
C524 C 0.15089 0.82306 0.20291 0.0
C525 C 0.14049 0.83805 0.18325 0.0
C526 C 0.11919 0.83036 0.17082 0.0
H527 H 0.1099 0.77762 0.2017 0.0
O528 O 0.04163 0.81603 0.22179 0.0
O529 O 0.0587 0.81796 0.18135 0.0
O530 O 0.04261 0.77037 0.19435 0.0
O531 O 0.07647 0.77131 0.16935 0.0
C532 C 0.15022 0.86048 0.17581 0.0
C533 C 0.13842 0.8749 0.15634 0.0
H534 H 0.11026 0.89795 0.11882 0.0
H535 H 0.0723 0.8816 0.09976 0.0
H536 H 0.14766 0.78954 0.22475 0.0
H537 H 0.16738 0.8282 0.21306 0.0
H538 H 0.16658 0.86697 0.18522 0.0
H539 H 0.1459 0.89225 0.15106 0.0
Mn540 Mn 0.69558 0.02305 0.69084 0.0
Mn541 Mn 0.69223 0.07577 0.65707 0.0
C542 C 0.67524 0.05509 0.7101 0.0
C543 C 0.68047 0.98467 0.69888 0.0
C544 C 0.7368 0.0591 0.68743 0.0
O545 O 0.70589 0.01401 0.65239 0.0
O546 O 0.699 0.04922 0.63123 0.0
C547 C 0.64824 0.06609 0.62504 0.0
N548 N 0.66058 0.08015 0.64291 0.0
C549 C 0.62838 0.10894 0.64455 0.0
C550 C 0.61539 0.09489 0.62599 0.0
C551 C 0.62532 0.0733 0.61631 0.0
C552 C 0.65105 0.10075 0.65266 0.0
H553 H 0.65584 0.04951 0.61754 0.0
C554 C 0.70478 0.02694 0.63101 0.0
O555 O 0.7027 0.98998 0.70428 0.0
O556 O 0.66729 0.00148 0.68833 0.0
N557 N 0.6856 0.10327 0.67919 0.0
C558 C 0.7001 0.11434 0.69769 0.0
C559 C 0.69255 0.1359 0.70982 0.0
C560 C 0.67042 0.14611 0.70243 0.0
C561 C 0.65603 0.13465 0.68295 0.0
C562 C 0.66442 0.11314 0.67165 0.0
H563 H 0.71726 0.10674 0.70322 0.0
O564 O 0.68247 0.03732 0.72505 0.0
O565 O 0.67949 0.05331 0.68417 0.0
O566 O 0.72787 0.0398 0.69718 0.0
O567 O 0.72527 0.07314 0.67152 0.0
C568 C 0.63361 0.14365 0.67441 0.0
C569 C 0.61968 0.1307 0.65543 0.0
H570 H 0.59774 0.10042 0.61915 0.0
H571 H 0.61536 0.06229 0.60209 0.0
H572 H 0.70381 0.14468 0.72477 0.0
H573 H 0.66463 0.16272 0.71188 0.0
H574 H 0.62677 0.16039 0.68256 0.0
H575 H 0.60229 0.1376 0.64938 0.0
C576 C 0.44989 0.15132 0.19585 0.0
C577 C 0.45755 0.17361 0.20603 0.0
C578 C 0.42877 0.14077 0.20536 0.0
C579 C 0.39314 0.13775 0.26694 0.0
H580 H 0.35235 0.09724 0.22234 0.0
C581 C 0.31633 0.0578 0.2769 0.0
C582 C 0.32885 0.04276 0.29497 0.0
C583 C 0.32688 0.07908 0.26748 0.0
C584 C 0.3632 0.10881 0.23511 0.0
H585 H 0.44852 0.20294 0.2332 0.0
H586 H 0.41155 0.18426 0.25015 0.0
H587 H 0.37971 0.12566 0.20068 0.0
H588 H 0.36149 0.0389 0.31864 0.0
H589 H 0.37977 0.07588 0.30237 0.0
H590 H 0.37734 0.1202 0.30134 0.0
C591 C 0.42197 0.175 0.23478 0.0
C592 C 0.37903 0.12493 0.22268 0.0
C593 C 0.44305 0.18572 0.225 0.0
C594 C 0.35145 0.05006 0.30462 0.0
C595 C 0.36185 0.07138 0.29545 0.0
C596 C 0.37739 0.12155 0.27936 0.0
C597 C 0.4149 0.15217 0.22546 0.0
C598 C 0.39478 0.13894 0.23845 0.0
C599 C 0.34997 0.08583 0.27626 0.0
C600 C 0.3629 0.10629 0.26355 0.0
H601 H 0.46064 0.1416 0.18114 0.0
H602 H 0.42401 0.12305 0.19799 0.0
H603 H 0.40511 0.14821 0.27966 0.0
H604 H 0.29886 0.05263 0.26914 0.0
H605 H 0.31725 0.08995 0.25282 0.0
C606 C 0.35519 0.4551 0.6964 0.0
C607 C 0.33214 0.46132 0.70564 0.0
C608 C 0.36658 0.43447 0.70608 0.0
C609 C 0.36968 0.39774 0.76674 0.0
H610 H 0.41095 0.3578 0.72204 0.0
C611 C 0.45636 0.35381 0.80517 0.0
C612 C 0.46289 0.33098 0.7955 0.0
C613 C 0.43559 0.36507 0.79569 0.0
C614 C 0.3992 0.36847 0.7348 0.0
H615 H 0.30253 0.45036 0.73148 0.0
H616 H 0.32269 0.41434 0.74878 0.0
H617 H 0.38295 0.38566 0.70043 0.0
H618 H 0.45226 0.30155 0.76922 0.0
H619 H 0.41597 0.32148 0.75229 0.0
H620 H 0.38669 0.38129 0.80112 0.0
C621 C 0.33186 0.42546 0.73397 0.0
C622 C 0.38332 0.38455 0.72242 0.0
C623 C 0.3203 0.44599 0.72399 0.0
C624 C 0.44766 0.31917 0.77702 0.0
C625 C 0.42698 0.33059 0.76726 0.0
C626 C 0.38571 0.3818 0.77913 0.0
C627 C 0.35527 0.41973 0.72543 0.0
C628 C 0.36891 0.39984 0.73827 0.0
C629 C 0.421 0.35385 0.77613 0.0
C630 C 0.40112 0.36751 0.76328 0.0
H631 H 0.36474 0.46653 0.6822 0.0
H632 H 0.38472 0.43069 0.69935 0.0
H633 H 0.3589 0.40939 0.77949 0.0
H634 H 0.4677 0.36333 0.81948 0.0
H635 H 0.43161 0.38309 0.8027 0.0
C636 C 0.05438 0.31514 0.22661 0.0
C637 C 0.03958 0.32742 0.20809 0.0
C638 C 0.07545 0.3259 0.23635 0.0
C639 C 0.11799 0.37628 0.22452 0.0
H640 H 0.12059 0.38013 0.30321 0.0
C641 C 0.18197 0.44215 0.27871 0.0
C642 C 0.16992 0.4571 0.29728 0.0
C643 C 0.17103 0.42113 0.26914 0.0
C644 C 0.12027 0.37903 0.28122 0.0
H645 H 0.03592 0.35982 0.18395 0.0
H646 H 0.07258 0.37842 0.20069 0.0
H647 H 0.09251 0.3524 0.28153 0.0
H648 H 0.13767 0.46106 0.32162 0.0
H649 H 0.11868 0.42451 0.30506 0.0
H650 H 0.14475 0.40389 0.22417 0.0
C651 C 0.06804 0.36055 0.20775 0.0
C652 C 0.10436 0.36299 0.2688 0.0
C653 C 0.04691 0.34996 0.19831 0.0
C654 C 0.14737 0.44996 0.30723 0.0
C655 C 0.13656 0.4289 0.29789 0.0
C656 C 0.13399 0.39222 0.23693 0.0
C657 C 0.08222 0.34894 0.2274 0.0
C658 C 0.10242 0.3621 0.24031 0.0
C659 C 0.14798 0.41456 0.27822 0.0
C660 C 0.13466 0.3944 0.26541 0.0
H661 H 0.04914 0.29774 0.2345 0.0
H662 H 0.08611 0.31649 0.25138 0.0
H663 H 0.11705 0.37579 0.20252 0.0
H664 H 0.19939 0.44718 0.2707 0.0
H665 H 0.18032 0.41033 0.25412 0.0
C666 C 0.1456 0.04628 0.69752 0.0
C667 C 0.16853 0.0399 0.707 0.0
C668 C 0.1342 0.06691 0.70722 0.0
C669 C 0.13112 0.1035 0.76822 0.0
H670 H 0.08954 0.14334 0.72382 0.0
C671 C 0.04518 0.14821 0.80789 0.0
C672 C 0.0385 0.17088 0.79788 0.0
C673 C 0.06577 0.13676 0.79817 0.0
C674 C 0.10137 0.1327 0.7365 0.0
H675 H 0.19797 0.05066 0.73321 0.0
H676 H 0.17784 0.0867 0.75045 0.0
H677 H 0.1174 0.11546 0.70201 0.0
H678 H 0.04874 0.19985 0.77076 0.0
H679 H 0.08471 0.17964 0.75351 0.0
H680 H 0.11444 0.12007 0.80273 0.0
C681 C 0.16874 0.07567 0.7355 0.0
C682 C 0.11716 0.11659 0.724 0.0
C683 C 0.18028 0.05512 0.72554 0.0
C684 C 0.05344 0.18237 0.77884 0.0
C685 C 0.07394 0.17077 0.76887 0.0
C686 C 0.1152 0.11948 0.78072 0.0
C687 C 0.14539 0.08151 0.72681 0.0
C688 C 0.13171 0.10134 0.73975 0.0
C689 C 0.08003 0.14763 0.77804 0.0
C690 C 0.09969 0.13376 0.765 0.0
H691 H 0.13612 0.03495 0.68318 0.0
H692 H 0.11612 0.07076 0.70035 0.0
H693 H 0.14199 0.09188 0.78091 0.0
H694 H 0.03407 0.13893 0.82263 0.0
H695 H 0.06982 0.11883 0.80543 0.0
C696 C 0.55335 0.819 0.77507 0.0
C697 C 0.53902 0.83059 0.79461 0.0
C698 C 0.57416 0.83011 0.76514 0.0
C699 C 0.61711 0.87994 0.77786 0.0
H700 H 0.61837 0.88591 0.69929 0.0
C701 C 0.68186 0.94544 0.72396 0.0
C702 C 0.66995 0.96113 0.70607 0.0
C703 C 0.6704 0.92464 0.73336 0.0
C704 C 0.61841 0.88423 0.72124 0.0
H705 H 0.53596 0.86213 0.82027 0.0
H706 H 0.57218 0.88136 0.80316 0.0
H707 H 0.5903 0.85798 0.72065 0.0
H708 H 0.63732 0.96667 0.68281 0.0
H709 H 0.61745 0.93047 0.69904 0.0
H710 H 0.64432 0.90712 0.77852 0.0
C711 C 0.56746 0.86374 0.79546 0.0
C712 C 0.60249 0.86807 0.73347 0.0
C713 C 0.54658 0.85279 0.80513 0.0
C714 C 0.64693 0.95499 0.69666 0.0
C715 C 0.63561 0.93413 0.70582 0.0
C716 C 0.63313 0.89598 0.76563 0.0
C717 C 0.58115 0.85283 0.77486 0.0
C718 C 0.6011 0.86637 0.76195 0.0
C719 C 0.64697 0.91901 0.72476 0.0
C720 C 0.63335 0.89889 0.73724 0.0
H721 H 0.54795 0.80186 0.76658 0.0
H722 H 0.58446 0.82122 0.74938 0.0
H723 H 0.61659 0.87883 0.79985 0.0
H724 H 0.69963 0.94971 0.73154 0.0
H725 H 0.67965 0.91323 0.74782 0.0
C726 C 0.54256 0.64791 0.19345 0.0
C727 C 0.53575 0.67058 0.20333 0.0
C728 C 0.56355 0.63692 0.20269 0.0
C729 C 0.60063 0.6338 0.26313 0.0
H730 H 0.64073 0.59349 0.21751 0.0
C731 C 0.64566 0.54735 0.30032 0.0
C732 C 0.66839 0.54098 0.29023 0.0
C733 C 0.63416 0.56809 0.2911 0.0
C734 C 0.63003 0.60498 0.23052 0.0
H735 H 0.54604 0.69999 0.2298 0.0
H736 H 0.58274 0.68053 0.24631 0.0
H737 H 0.61247 0.62144 0.19653 0.0
H738 H 0.69738 0.55184 0.26345 0.0
H739 H 0.67707 0.58807 0.24705 0.0
H740 H 0.61749 0.61662 0.29712 0.0
C741 C 0.57178 0.67134 0.23136 0.0
C742 C 0.61371 0.62083 0.21851 0.0
C743 C 0.55086 0.6825 0.22184 0.0
C744 C 0.67985 0.5563 0.27156 0.0
C745 C 0.6682 0.57696 0.2621 0.0
C746 C 0.61683 0.61783 0.27515 0.0
C747 C 0.57809 0.64825 0.22222 0.0
C748 C 0.59832 0.63485 0.23469 0.0
C749 C 0.64505 0.58281 0.27142 0.0
C750 C 0.63115 0.60272 0.25896 0.0
H751 H 0.53132 0.63832 0.1791 0.0
H752 H 0.56776 0.61901 0.1955 0.0
H753 H 0.58892 0.64428 0.27613 0.0
H754 H 0.63641 0.53595 0.31479 0.0
H755 H 0.61622 0.57194 0.29845 0.0
C756 C 0.9459 0.68175 0.77437 0.0
C757 C 0.9611 0.66939 0.7924 0.0
C758 C 0.92477 0.67093 0.76488 0.0
C759 C 0.89528 0.6344 0.73249 0.0
H760 H 0.8562 0.59229 0.77716 0.0
C761 C 0.85155 0.54833 0.69271 0.0
C762 C 0.82926 0.54086 0.7031 0.0
C763 C 0.86253 0.56916 0.70243 0.0
C764 C 0.86658 0.6043 0.76441 0.0
H765 H 0.96544 0.63669 0.81587 0.0
H766 H 0.92873 0.61795 0.7995 0.0
H767 H 0.88436 0.61997 0.79874 0.0
H768 H 0.80043 0.54995 0.73091 0.0
H769 H 0.81983 0.58641 0.74817 0.0
H770 H 0.87817 0.61806 0.69812 0.0
C771 C 0.93298 0.63596 0.79267 0.0
C772 C 0.88287 0.61999 0.77677 0.0
C773 C 0.95415 0.64663 0.8019 0.0
C774 C 0.81763 0.55526 0.72254 0.0
C775 C 0.82877 0.57605 0.7325 0.0
C776 C 0.87908 0.61862 0.72012 0.0
C777 C 0.91835 0.64771 0.77355 0.0
C778 C 0.89796 0.63462 0.76091 0.0
C779 C 0.85157 0.58294 0.72292 0.0
C780 C 0.86516 0.60282 0.73592 0.0
H781 H 0.9508 0.69933 0.76671 0.0
H782 H 0.91376 0.68047 0.75028 0.0
H783 H 0.90673 0.64535 0.71968 0.0
H784 H 0.86092 0.53765 0.67764 0.0
H785 H 0.88021 0.57379 0.69484 0.0
C786 C 0.85891 0.96022 0.30787 0.0
C787 C 0.83541 0.96358 0.29823 0.0
C788 C 0.87306 0.94151 0.29791 0.0
C789 C 0.87332 0.88512 0.25767 0.0
H790 H 0.93713 0.90717 0.23812 0.0
C791 C 0.95174 0.82338 0.22102 0.0
C792 C 0.96751 0.83318 0.20163 0.0
C793 C 0.93283 0.83721 0.23149 0.0
C794 C 0.91931 0.90074 0.24318 0.0
H795 H 0.80773 0.94905 0.27191 0.0
H796 H 0.83266 0.91644 0.25415 0.0
H797 H 0.90974 0.93438 0.2609 0.0
H798 H 0.97464 0.86424 0.17626 0.0
H799 H 0.94153 0.88805 0.194 0.0
H800 H 0.88309 0.85144 0.23939 0.0
C801 C 0.84006 0.9282 0.26957 0.0
C802 C 0.90371 0.91625 0.25666 0.0
C803 C 0.82581 0.94691 0.27969 0.0
C804 C 0.963 0.85631 0.19147 0.0
C805 C 0.9441 0.87001 0.20175 0.0
C806 C 0.88907 0.86947 0.24418 0.0
C807 C 0.86411 0.92582 0.27791 0.0
C808 C 0.88056 0.90867 0.26414 0.0
C809 C 0.92939 0.86099 0.22262 0.0
C810 C 0.9122 0.87721 0.23666 0.0
H811 H 0.86673 0.97258 0.32241 0.0
H812 H 0.89135 0.9398 0.30522 0.0
H813 H 0.85559 0.87876 0.26323 0.0
H814 H 0.9548 0.80557 0.22921 0.0
H815 H 0.92181 0.82977 0.24757 0.0
C816 C 0.55679 0.27195 0.2143 0.0
C817 C 0.56829 0.25848 0.19386 0.0
C818 C 0.56676 0.29357 0.2235 0.0
C819 C 0.62515 0.32446 0.22766 0.0
H820 H 0.58725 0.38097 0.24462 0.0
C821 C 0.67054 0.41361 0.25527 0.0
C822 C 0.66095 0.42632 0.27732 0.0
C823 C 0.65802 0.39424 0.24413 0.0
C824 C 0.59805 0.36525 0.24023 0.0
H825 H 0.59883 0.25785 0.16633 0.0
H826 H 0.61591 0.2955 0.18213 0.0
H827 H 0.56743 0.34497 0.22698 0.0
H828 H 0.62986 0.43087 0.30318 0.0
H829 H 0.60795 0.39655 0.28415 0.0
H830 H 0.65571 0.34448 0.24091 0.0
C831 C 0.59944 0.28913 0.19142 0.0
C832 C 0.58669 0.34465 0.23011 0.0
C833 C 0.58953 0.26758 0.18224 0.0
C834 C 0.63791 0.42059 0.28684 0.0
C835 C 0.62528 0.40123 0.27565 0.0
C836 C 0.63646 0.34498 0.23774 0.0
C837 C 0.58844 0.30216 0.21249 0.0
C838 C 0.60017 0.32408 0.22354 0.0
C839 C 0.63545 0.38748 0.25455 0.0
C840 C 0.6231 0.36569 0.24401 0.0
H841 H 0.54042 0.26551 0.22373 0.0
H842 H 0.55792 0.30314 0.23987 0.0
H843 H 0.636 0.30875 0.2234 0.0
H844 H 0.68799 0.41832 0.24708 0.0
H845 H 0.66609 0.38449 0.2274 0.0
C846 C 0.22537 0.55055 0.70733 0.0
C847 C 0.23934 0.56474 0.68969 0.0
C848 C 0.2026 0.55829 0.71568 0.0
C849 C 0.15446 0.60278 0.70021 0.0
H850 H 0.14035 0.59701 0.77705 0.0
C851 C 0.08661 0.66481 0.75321 0.0
C852 C 0.07388 0.65634 0.77582 0.0
C853 C 0.10426 0.65057 0.74107 0.0
C854 C 0.14384 0.59867 0.75552 0.0
H855 H 0.23986 0.59795 0.66645 0.0
H856 H 0.20061 0.61148 0.6813 0.0
H857 H 0.17595 0.57778 0.75865 0.0
H858 H 0.06756 0.62573 0.80194 0.0
H859 H 0.09818 0.60046 0.78051 0.0
H860 H 0.12268 0.6242 0.69723 0.0
C861 C 0.207 0.5942 0.68839 0.0
C862 C 0.16424 0.58745 0.74489 0.0
C863 C 0.22967 0.58648 0.68001 0.0
C864 C 0.07789 0.63288 0.78511 0.0
C865 C 0.09537 0.61845 0.77278 0.0
C866 C 0.13414 0.61412 0.71088 0.0
C867 C 0.1933 0.58039 0.70661 0.0
C868 C 0.17011 0.58985 0.71722 0.0
C869 C 0.10904 0.62725 0.75082 0.0
C870 C 0.12894 0.61279 0.73884 0.0
H871 H 0.23216 0.53366 0.7151 0.0
H872 H 0.19238 0.54706 0.72946 0.0
H873 H 0.15811 0.60448 0.67866 0.0
H874 H 0.08339 0.68274 0.74543 0.0
H875 H 0.11459 0.65814 0.7245 0.0
C876 C 0.85733 0.08286 0.29109 0.0
C877 C 0.83518 0.07577 0.28014 0.0
C878 C 0.87023 0.10174 0.27929 0.0
C879 C 0.86039 0.15507 0.23631 0.0
H880 H 0.9299 0.1561 0.23084 0.0
C881 C 0.90896 0.23216 0.18196 0.0
C882 C 0.92942 0.24176 0.19475 0.0
C883 C 0.89897 0.21053 0.19085 0.0
C884 C 0.91049 0.15616 0.23247 0.0
H885 H 0.81017 0.08076 0.24697 0.0
H886 H 0.83254 0.11388 0.22629 0.0
H887 H 0.90973 0.12058 0.24916 0.0
H888 H 0.95591 0.23558 0.22639 0.0
H889 H 0.93826 0.19794 0.24211 0.0
H890 H 0.86103 0.19064 0.22004 0.0
C891 C 0.83965 0.10552 0.24447 0.0
C892 C 0.89894 0.13582 0.24295 0.0
C893 C 0.82687 0.08658 0.2562 0.0
C894 C 0.94018 0.22871 0.21602 0.0
C895 C 0.9301 0.20707 0.22499 0.0
C896 C 0.8719 0.17537 0.22594 0.0
C897 C 0.86124 0.11365 0.25618 0.0
C898 C 0.87374 0.13504 0.2449 0.0
C899 C 0.9091 0.19799 0.21285 0.0
C900 C 0.89708 0.17615 0.22378 0.0
H901 H 0.86445 0.07404 0.309 0.0
H902 H 0.88679 0.10754 0.28882 0.0
H903 H 0.84099 0.15527 0.23801 0.0
H904 H 0.90029 0.24156 0.16536 0.0
H905 H 0.8831 0.20378 0.18065 0.0
C906 C 0.27302 0.94859 0.71445 0.0
C907 C 0.25995 0.93508 0.69531 0.0
C908 C 0.29558 0.9408 0.72339 0.0
C909 C 0.34539 0.89886 0.70675 0.0
H910 H 0.35692 0.89994 0.78444 0.0
C911 C 0.4139 0.83654 0.75809 0.0
C912 C 0.42618 0.84461 0.78121 0.0
C913 C 0.39604 0.85069 0.74627 0.0
C914 C 0.35419 0.89978 0.76268 0.0
H915 H 0.26076 0.903 0.67013 0.0
H916 H 0.29977 0.88941 0.68589 0.0
H917 H 0.32105 0.91899 0.76619 0.0
H918 H 0.43157 0.8746 0.80852 0.0
H919 H 0.40028 0.89964 0.78781 0.0
H920 H 0.37823 0.87911 0.70334 0.0
C921 C 0.29277 0.90619 0.69376 0.0
C922 C 0.33362 0.91077 0.75218 0.0
C923 C 0.27027 0.91393 0.68485 0.0
C924 C 0.42155 0.86771 0.79132 0.0
C925 C 0.40376 0.88201 0.77938 0.0
C926 C 0.36592 0.88781 0.71727 0.0
C927 C 0.3056 0.91937 0.71335 0.0
C928 C 0.32872 0.91 0.72414 0.0
C929 C 0.39053 0.87349 0.75695 0.0
C930 C 0.37027 0.88764 0.74544 0.0
H931 H 0.2657 0.96501 0.72289 0.0
H932 H 0.30513 0.9515 0.73828 0.0
H933 H 0.3424 0.89839 0.68499 0.0
H934 H 0.41765 0.81894 0.74965 0.0
H935 H 0.38608 0.84342 0.72923 0.0
C936 C 0.59048 0.23075 0.81742 0.0
C937 C 0.56869 0.24029 0.80773 0.0
C938 C 0.59852 0.20828 0.80873 0.0
C939 C 0.59274 0.16591 0.75174 0.0
H940 H 0.62813 0.1237 0.79998 0.0
C941 C 0.63733 0.07883 0.71228 0.0
C942 C 0.66048 0.07419 0.72218 0.0
C943 C 0.62312 0.09667 0.72424 0.0
C944 C 0.61846 0.13536 0.78616 0.0
H945 H 0.53794 0.23316 0.78179 0.0
H946 H 0.55193 0.19374 0.76682 0.0
H947 H 0.60848 0.15927 0.81831 0.0
H948 H 0.68651 0.08301 0.75323 0.0
H949 H 0.66232 0.11485 0.77355 0.0
H950 H 0.60267 0.14211 0.71963 0.0
C951 C 0.56291 0.2039 0.78092 0.0
C952 C 0.60715 0.15574 0.7967 0.0
C953 C 0.55484 0.22645 0.78962 0.0
C954 C 0.66883 0.0867 0.745 0.0
C955 C 0.65481 0.10473 0.75677 0.0
C956 C 0.60397 0.14546 0.74122 0.0
C957 C 0.58499 0.19467 0.79015 0.0
C958 C 0.59464 0.17159 0.77951 0.0
C959 C 0.63182 0.1101 0.74644 0.0
C960 C 0.61757 0.13028 0.75814 0.0
H961 H 0.6017 0.24085 0.83132 0.0
H962 H 0.61577 0.20193 0.81594 0.0
H963 H 0.5834 0.17779 0.73786 0.0
H964 H 0.63026 0.06869 0.69525 0.0
H965 H 0.60536 0.09993 0.71606 0.0
C966 C 0.40961 0.66762 0.24049 0.0
C967 C 0.42272 0.65928 0.21811 0.0
C968 C 0.39162 0.65339 0.25198 0.0
C969 C 0.35219 0.60149 0.2362 0.0
H970 H 0.33629 0.60759 0.31262 0.0
C971 C 0.27061 0.55272 0.28506 0.0
C972 C 0.25643 0.56711 0.30228 0.0
C973 C 0.29303 0.56088 0.27594 0.0
C974 C 0.34042 0.6058 0.29119 0.0
H975 H 0.42932 0.6289 0.19173 0.0
H976 H 0.39819 0.60358 0.21212 0.0
H977 H 0.37218 0.62711 0.29501 0.0
H978 H 0.25491 0.60141 0.32338 0.0
H979 H 0.29356 0.61552 0.30736 0.0
H980 H 0.32012 0.58049 0.23238 0.0
C981 C 0.40094 0.62149 0.22013 0.0
C982 C 0.36098 0.61705 0.28105 0.0
C983 C 0.41872 0.63594 0.20841 0.0
C984 C 0.26528 0.58973 0.31024 0.0
C985 C 0.2876 0.5978 0.30122 0.0
C986 C 0.33156 0.59029 0.24634 0.0
C987 C 0.3869 0.63017 0.24184 0.0
C988 C 0.36675 0.61569 0.25324 0.0
C989 C 0.30176 0.58352 0.28396 0.0
C990 C 0.32511 0.59286 0.27381 0.0
H991 H 0.41278 0.68547 0.24854 0.0
H992 H 0.381 0.66091 0.26834 0.0
H993 H 0.35613 0.59976 0.21478 0.0
H994 H 0.2644 0.5352 0.27854 0.0
H995 H 0.30359 0.54941 0.26276 0.0
C996 C 0.86567 0.42264 0.70496 0.0
C997 C 0.8424 0.42711 0.71465 0.0
C998 C 0.87965 0.40442 0.71657 0.0
C999 C 0.88367 0.36523 0.77787 0.0
H1000 H 0.91783 0.32199 0.72962 0.0
C1001 C 0.90833 0.26944 0.80942 0.0
C1002 C 0.93058 0.25975 0.8014 0.0
C1003 C 0.9008 0.29176 0.7998 0.0
C1004 C 0.90871 0.3341 0.74344 0.0
H1005 H 0.81596 0.41759 0.74499 0.0
H1006 H 0.8398 0.38527 0.76473 0.0
H1007 H 0.89928 0.3582 0.71133 0.0
H1008 H 0.9624 0.2662 0.77692 0.0
H1009 H 0.94912 0.30538 0.76008 0.0
H1010 H 0.89292 0.34102 0.80998 0.0
C1011 C 0.84753 0.39573 0.74835 0.0
C1012 C 0.89797 0.35483 0.73292 0.0
C1013 C 0.83372 0.41404 0.7369 0.0
C1014 C 0.94516 0.27309 0.78352 0.0
C1015 C 0.93753 0.29548 0.77379 0.0
C1016 C 0.89443 0.34457 0.78838 0.0
C1017 C 0.87063 0.39057 0.73826 0.0
C1018 C 0.88468 0.37026 0.74987 0.0
C1019 C 0.91526 0.30505 0.78188 0.0
C1020 C 0.90651 0.32843 0.77117 0.0
H1021 H 0.87299 0.43321 0.68842 0.0
H1022 H 0.8975 0.40122 0.70858 0.0
H1023 H 0.87421 0.37708 0.79168 0.0
H1024 H 0.89653 0.25974 0.82307 0.0
H1025 H 0.88335 0.29838 0.80604 0.0
C1026 C 0.0856 0.85899 0.20984 0.0
C1027 C 0.07948 0.83623 0.2199 0.0
C1028 C 0.10413 0.8722 0.22194 0.0
C1029 C 0.15812 0.86279 0.26421 0.0
H1030 H 0.1575 0.93221 0.27103 0.0
C1031 C 0.23352 0.91237 0.32014 0.0
C1032 C 0.24315 0.93283 0.30735 0.0
C1033 C 0.21212 0.90216 0.31095 0.0
C1034 C 0.15799 0.91284 0.26905 0.0
H1035 H 0.08574 0.81036 0.2519 0.0
H1036 H 0.11814 0.83329 0.2732 0.0
H1037 H 0.12239 0.91148 0.2525 0.0
H1038 H 0.23714 0.95914 0.27546 0.0
H1039 H 0.19977 0.94113 0.25932 0.0
H1040 H 0.19366 0.86405 0.28053 0.0
C1041 C 0.10937 0.84067 0.25541 0.0
C1042 C 0.1379 0.90096 0.25842 0.0
C1043 C 0.09082 0.82756 0.24334 0.0
C1044 C 0.23027 0.94339 0.28582 0.0
C1045 C 0.2088 0.93312 0.2766 0.0
C1046 C 0.17812 0.87462 0.27481 0.0
C1047 C 0.11661 0.8629 0.24449 0.0
C1048 C 0.13772 0.87577 0.25597 0.0
C1049 C 0.19978 0.91208 0.28871 0.0
C1050 C 0.17828 0.89976 0.27747 0.0
H1051 H 0.07633 0.86637 0.19236 0.0
H1052 H 0.10921 0.88924 0.21301 0.0
H1053 H 0.15883 0.84343 0.26209 0.0
H1054 H 0.24278 0.90383 0.33693 0.0
H1055 H 0.20539 0.88623 0.32108 0.0
C1056 C 0.36184 0.58055 0.7114 0.0
C1057 C 0.33873 0.57485 0.7207 0.0
C1058 C 0.37449 0.59979 0.72282 0.0
C1059 C 0.36231 0.65608 0.76005 0.0
H1060 H 0.43149 0.65842 0.76912 0.0
C1061 C 0.44014 0.73178 0.78207 0.0
C1062 C 0.42827 0.74474 0.80264 0.0
C1063 C 0.43072 0.70994 0.77264 0.0
C1064 C 0.41218 0.6581 0.76639 0.0
H1065 H 0.3117 0.58249 0.75107 0.0
H1066 H 0.33367 0.61607 0.77125 0.0
H1067 H 0.41247 0.6215 0.75276 0.0
H1068 H 0.3977 0.74429 0.83017 0.0
H1069 H 0.38169 0.70642 0.81409 0.0
H1070 H 0.36189 0.69257 0.77337 0.0
C1071 C 0.34176 0.60644 0.75445 0.0
C1072 C 0.40127 0.63695 0.75707 0.0
C1073 C 0.32921 0.58721 0.74304 0.0
C1074 C 0.40722 0.73504 0.81406 0.0
C1075 C 0.39792 0.71331 0.80474 0.0
C1076 C 0.37316 0.67713 0.76924 0.0
C1077 C 0.36424 0.61344 0.74395 0.0
C1078 C 0.37616 0.63566 0.75398 0.0
C1079 C 0.40928 0.70068 0.78363 0.0
C1080 C 0.39818 0.67836 0.7728 0.0
H1081 H 0.36986 0.57051 0.69484 0.0
H1082 H 0.39176 0.6046 0.71427 0.0
H1083 H 0.343 0.65596 0.75738 0.0
H1084 H 0.45639 0.73872 0.77284 0.0
H1085 H 0.43984 0.70068 0.75625 0.0
C1086 C 0.91264 0.33152 0.24672 0.0
C1087 C 0.92739 0.34104 0.22638 0.0
C1088 C 0.89474 0.34566 0.25855 0.0
C1089 C 0.86148 0.40358 0.24706 0.0
H1090 H 0.83201 0.38464 0.31507 0.0
C1091 C 0.76749 0.43742 0.277 0.0
C1092 C 0.76084 0.4381 0.30448 0.0
C1093 C 0.78987 0.42832 0.26932 0.0
C1094 C 0.84017 0.39065 0.29629 0.0
H1095 H 0.93739 0.37323 0.20457 0.0
H1096 H 0.90745 0.3986 0.22646 0.0
H1097 H 0.86837 0.36508 0.30043 0.0
H1098 H 0.77257 0.43102 0.34565 0.0
H1099 H 0.81232 0.41676 0.3326 0.0
H1100 H 0.83418 0.4303 0.24391 0.0
C1101 C 0.90816 0.37983 0.2321 0.0
C1102 C 0.86093 0.3789 0.28746 0.0
C1103 C 0.92549 0.36539 0.2196 0.0
C1104 C 0.77729 0.43048 0.32428 0.0
C1105 C 0.79998 0.42206 0.31669 0.0
C1106 C 0.84111 0.41578 0.25627 0.0
C1107 C 0.89196 0.37003 0.25121 0.0
C1108 C 0.87152 0.3846 0.26225 0.0
C1109 C 0.80644 0.4203 0.28903 0.0
C1110 C 0.8297 0.40906 0.28064 0.0
H1111 H 0.91423 0.3128 0.25254 0.0
H1112 H 0.8826 0.33701 0.27264 0.0
H1113 H 0.86877 0.40874 0.22755 0.0
H1114 H 0.75494 0.44291 0.26134 0.0
H1115 H 0.79371 0.42683 0.24781 0.0
C1116 C 0.09026 0.76673 0.81666 0.0
C1117 C 0.06977 0.75683 0.80421 0.0
C1118 C 0.09958 0.78868 0.80795 0.0
C1119 C 0.08617 0.84376 0.76874 0.0
H1120 H 0.15543 0.84561 0.76054 0.0
C1121 C 0.13707 0.92025 0.71246 0.0
C1122 C 0.16002 0.92622 0.72206 0.0
C1123 C 0.12436 0.90112 0.72406 0.0
C1124 C 0.1361 0.84559 0.76303 0.0
H1125 H 0.04253 0.76285 0.77336 0.0
H1126 H 0.05902 0.80121 0.75798 0.0
H1127 H 0.13632 0.80939 0.7774 0.0
H1128 H 0.18665 0.91916 0.75305 0.0
H1129 H 0.1646 0.8858 0.77349 0.0
H1130 H 0.08606 0.88005 0.7541 0.0
C1131 C 0.06773 0.79195 0.77465 0.0
C1132 C 0.12513 0.82476 0.77272 0.0
C1133 C 0.05833 0.76991 0.78342 0.0
C1134 C 0.1693 0.91421 0.74477 0.0
C1135 C 0.15669 0.8951 0.75635 0.0
C1136 C 0.09719 0.86469 0.759 0.0
C1137 C 0.08873 0.80133 0.78649 0.0
C1138 C 0.10006 0.82362 0.77587 0.0
C1139 C 0.13437 0.88787 0.74566 0.0
C1140 C 0.12233 0.86587 0.75616 0.0
H1141 H 0.09945 0.75734 0.83291 0.0
H1142 H 0.11549 0.79565 0.81789 0.0
H1143 H 0.06682 0.84348 0.77112 0.0
H1144 H 0.12921 0.93004 0.69562 0.0
H1145 H 0.1072 0.89612 0.71536 0.0
C1146 C 0.58456 0.1666 0.24239 0.0
C1147 C 0.56989 0.15795 0.2215 0.0
C1148 C 0.60232 0.15195 0.25361 0.0
C1149 C 0.63602 0.09494 0.2398 0.0
H1150 H 0.66183 0.10948 0.31102 0.0
C1151 C 0.72965 0.06198 0.27354 0.0
C1152 C 0.73459 0.0599 0.30136 0.0
C1153 C 0.70719 0.07022 0.26482 0.0
C1154 C 0.65469 0.10468 0.29129 0.0
H1155 H 0.56005 0.12674 0.19781 0.0
H1156 H 0.59007 0.10047 0.21841 0.0
H1157 H 0.6261 0.12979 0.29572 0.0
H1158 H 0.71998 0.06316 0.34193 0.0
H1159 H 0.68023 0.07579 0.3269 0.0
H1160 H 0.66395 0.06882 0.23608 0.0
C1161 C 0.58917 0.11896 0.22511 0.0
C1162 C 0.63432 0.11686 0.28216 0.0
C1163 C 0.57187 0.13392 0.21334 0.0
C1164 C 0.71647 0.0648 0.32033 0.0
C1165 C 0.69381 0.07233 0.31165 0.0
C1166 C 0.65611 0.08234 0.24918 0.0
C1167 C 0.60508 0.1279 0.24502 0.0
C1168 C 0.62509 0.11278 0.25593 0.0
C1169 C 0.68907 0.076 0.2838 0.0
C1170 C 0.66613 0.08745 0.27481 0.0
H1171 H 0.58293 0.18504 0.24925 0.0
H1172 H 0.61434 0.15989 0.26838 0.0
H1173 H 0.62963 0.09104 0.21951 0.0
H1174 H 0.74358 0.05857 0.25863 0.0
H1175 H 0.70454 0.0731 0.24327 0.0
C1176 C 0.40839 0.77019 0.17882 0.0
C1177 C 0.42911 0.76013 0.19062 0.0
C1178 C 0.39943 0.79217 0.1879 0.0
C1179 C 0.41399 0.84711 0.22675 0.0
H1180 H 0.34508 0.84865 0.23818 0.0
C1181 C 0.36486 0.92333 0.28556 0.0
C1182 C 0.34144 0.92898 0.27729 0.0
C1183 C 0.37728 0.90437 0.27321 0.0
C1184 C 0.3643 0.84874 0.23476 0.0
H1185 H 0.45716 0.76595 0.22059 0.0
H1186 H 0.44131 0.8044 0.23656 0.0
H1187 H 0.36367 0.81259 0.22025 0.0
H1188 H 0.31358 0.92162 0.2478 0.0
H1189 H 0.33512 0.88863 0.22603 0.0
H1190 H 0.41451 0.88337 0.24148 0.0
C1191 C 0.43214 0.79521 0.22015 0.0
C1192 C 0.37497 0.82799 0.22448 0.0
C1193 C 0.44115 0.77313 0.21105 0.0
C1194 C 0.33134 0.91689 0.25509 0.0
C1195 C 0.34366 0.89798 0.24275 0.0
C1196 C 0.40325 0.86799 0.23705 0.0
C1197 C 0.41089 0.80471 0.20903 0.0
C1198 C 0.3999 0.82695 0.22019 0.0
C1199 C 0.36649 0.89099 0.25218 0.0
C1200 C 0.37824 0.86907 0.24106 0.0
H1201 H 0.39872 0.76087 0.16288 0.0
H1202 H 0.38329 0.79924 0.17854 0.0
H1203 H 0.43323 0.84689 0.22351 0.0
H1204 H 0.37332 0.93321 0.30195 0.0
H1205 H 0.39485 0.89957 0.28094 0.0
C1206 C 0.72937 0.44324 0.71167 0.0
C1207 C 0.7422 0.43194 0.69056 0.0
C1208 C 0.70775 0.43347 0.72117 0.0
C1209 C 0.67614 0.37553 0.72484 0.0
H1210 H 0.62041 0.41378 0.74393 0.0
C1211 C 0.588 0.33014 0.75569 0.0
C1212 C 0.57616 0.33961 0.77842 0.0
C1213 C 0.60673 0.34287 0.74349 0.0
C1214 C 0.6359 0.40288 0.73892 0.0
H1215 H 0.74166 0.402 0.66219 0.0
H1216 H 0.70408 0.38526 0.67857 0.0
H1217 H 0.65626 0.43347 0.7257 0.0
H1218 H 0.57221 0.37079 0.80427 0.0
H1219 H 0.60546 0.39302 0.78344 0.0
H1220 H 0.65615 0.34502 0.73819 0.0
C1221 C 0.71093 0.40141 0.68811 0.0
C1222 C 0.65642 0.41416 0.72847 0.0
C1223 C 0.73246 0.41113 0.67862 0.0
C1224 C 0.58189 0.36281 0.78743 0.0
C1225 C 0.60063 0.37564 0.77519 0.0
C1226 C 0.65573 0.3643 0.73526 0.0
C1227 C 0.69855 0.41219 0.70981 0.0
C1228 C 0.6767 0.40056 0.72116 0.0
C1229 C 0.61372 0.36549 0.75355 0.0
C1230 C 0.63529 0.37778 0.74231 0.0
H1231 H 0.73631 0.45929 0.72135 0.0
H1232 H 0.69869 0.44212 0.73803 0.0
H1233 H 0.69165 0.36459 0.71999 0.0
H1234 H 0.58322 0.31257 0.74787 0.0
H1235 H 0.61591 0.33483 0.72633 0.0
C1236 C 0.16365 0.58163 0.25872 0.0
C1237 C 0.15599 0.56987 0.28237 0.0
C1238 C 0.14934 0.59931 0.24679 0.0
C1239 C 0.10109 0.642 0.26318 0.0
H1240 H 0.10074 0.65155 0.18508 0.0
C1241 C 0.05391 0.72363 0.21343 0.0
C1242 C 0.06767 0.73568 0.19366 0.0
C1243 C 0.06091 0.70095 0.2229 0.0
C1244 C 0.10073 0.64918 0.20695 0.0
H1245 H 0.12655 0.56525 0.3106 0.0
H1246 H 0.10127 0.59631 0.28975 0.0
H1247 H 0.11978 0.61589 0.20413 0.0
H1248 H 0.09926 0.73287 0.16786 0.0
H1249 H 0.11143 0.69373 0.18448 0.0
H1250 H 0.08266 0.67566 0.26606 0.0
C1251 C 0.11869 0.59251 0.28094 0.0
C1252 C 0.11164 0.62875 0.21786 0.0
C1253 C 0.13314 0.57487 0.29296 0.0
C1254 C 0.08816 0.7242 0.18308 0.0
C1255 C 0.09509 0.7016 0.19248 0.0
C1256 C 0.09023 0.66251 0.25227 0.0
C1257 C 0.1268 0.60518 0.25791 0.0
C1258 C 0.11252 0.62523 0.24616 0.0
C1259 C 0.08173 0.6898 0.21273 0.0
C1260 C 0.09046 0.66662 0.22406 0.0
H1261 H 0.18104 0.57761 0.24991 0.0
H1262 H 0.15628 0.60885 0.22927 0.0
H1263 H 0.10146 0.63989 0.28503 0.0
H1264 H 0.03801 0.73188 0.22202 0.0
H1265 H 0.05011 0.69222 0.23834 0.0
C1266 C 0.92092 0.13629 0.79394 0.0
C1267 C 0.92606 0.15898 0.78302 0.0
C1268 C 0.90328 0.12176 0.78205 0.0
C1269 C 0.86687 0.11427 0.71904 0.0
H1270 H 0.82092 0.08439 0.76773 0.0
C1271 C 0.77184 0.08733 0.68511 0.0
C1272 C 0.76136 0.06637 0.69586 0.0
C1273 C 0.79418 0.09529 0.69431 0.0
C1274 C 0.8338 0.09225 0.75381 0.0
H1275 H 0.91856 0.18367 0.75015 0.0
H1276 H 0.88721 0.15883 0.72981 0.0
H1277 H 0.85634 0.10405 0.78634 0.0
H1278 H 0.76666 0.037 0.72429 0.0
H1279 H 0.80581 0.05091 0.74024 0.0
H1280 H 0.84407 0.10277 0.68649 0.0
C1281 C 0.89667 0.15204 0.74744 0.0
C1282 C 0.85411 0.10359 0.76451 0.0
C1283 C 0.91441 0.16641 0.7592 0.0
C1284 C 0.77413 0.05324 0.71558 0.0
C1285 C 0.79651 0.06127 0.72485 0.0
C1286 C 0.84658 0.1029 0.70834 0.0
C1287 C 0.89068 0.12964 0.75888 0.0
C1288 C 0.8706 0.11525 0.74731 0.0
C1289 C 0.80667 0.08253 0.71451 0.0
C1290 C 0.82954 0.09222 0.72563 0.0
H1291 H 0.93045 0.12988 0.81173 0.0
H1292 H 0.89943 0.10444 0.7911 0.0
H1293 H 0.87949 0.12257 0.70516 0.0
H1294 H 0.76258 0.09796 0.66993 0.0
H1295 H 0.80131 0.11192 0.68618 0.0
C1296 C 0.52389 0.2019 0.07961 0.0
C1297 C 0.51405 0.21093 0.10387 0.0
C1298 C 0.51628 0.21064 0.05449 0.0
C1299 C 0.49444 0.26582 0.02454 0.0
H1300 H 0.49309 0.22706 0.95899 0.0
C1301 C 0.49787 0.27598 0.8993 0.0
C1302 C 0.51809 0.29109 0.89774 0.0
C1303 C 0.48974 0.26761 0.92454 0.0
C1304 C 0.49289 0.23817 0.97708 0.0
H1305 H 0.4876 0.23535 0.12073 0.0
H1306 H 0.47448 0.25095 0.07655 0.0
H1307 H 0.49162 0.20753 0.0034 0.0
H1308 H 0.54462 0.31049 0.9215 0.0
H1309 H 0.53045 0.29602 0.96525 0.0
H1310 H 0.49679 0.2964 0.99823 0.0
C1311 C 0.4881 0.23706 0.07714 0.0
C1312 C 0.49226 0.22697 0.0025 0.0
C1313 C 0.49553 0.22807 0.10239 0.0
C1314 C 0.52913 0.29871 0.92196 0.0
C1315 C 0.52085 0.2906 0.94709 0.0
C1316 C 0.49518 0.27701 0.99912 0.0
C1317 C 0.49878 0.22877 0.05297 0.0
C1318 C 0.49398 0.24063 0.02648 0.0
C1319 C 0.50144 0.27451 0.94866 0.0
C1320 C 0.49536 0.26325 0.97514 0.0
H1321 H 0.53805 0.18855 0.08003 0.0
H1322 H 0.52509 0.20407 0.0363 0.0
H1323 H 0.49589 0.27684 0.04262 0.0
H1324 H 0.48898 0.2698 0.881 0.0
H1325 H 0.47466 0.2553 0.92517 0.0
C1326 C 0.23395 0.53048 0.41093 0.0
C1327 C 0.21924 0.51525 0.39542 0.0
C1328 C 0.24485 0.52216 0.43459 0.0
C1329 C 0.23685 0.48684 0.49228 0.0
H1330 H 0.3056 0.4948 0.50162 0.0
C1331 C 0.27984 0.49377 0.59906 0.0
C1332 C 0.29415 0.5145 0.60147 0.0
C1333 C 0.27311 0.48522 0.57333 0.0
C1334 C 0.28641 0.49224 0.49935 0.0
H1335 H 0.20431 0.47936 0.39243 0.0
H1336 H 0.22281 0.465 0.43505 0.0
H1337 H 0.28826 0.49591 0.45603 0.0
H1338 H 0.31385 0.54157 0.57881 0.0
H1339 H 0.30214 0.52692 0.53445 0.0
H1340 H 0.23464 0.48543 0.53573 0.0
C1341 C 0.22614 0.48323 0.42829 0.0
C1342 C 0.27656 0.49271 0.47328 0.0
C1343 C 0.21563 0.49141 0.40406 0.0
C1344 C 0.30263 0.52568 0.57773 0.0
C1345 C 0.29613 0.51707 0.5522 0.0
C1346 C 0.24668 0.48664 0.51849 0.0
C1347 C 0.24093 0.49858 0.44357 0.0
C1348 C 0.25162 0.49108 0.46967 0.0
C1349 C 0.28089 0.49706 0.54962 0.0
C1350 C 0.27144 0.49059 0.52232 0.0
H1351 H 0.23722 0.54886 0.40465 0.0
H1352 H 0.25601 0.53436 0.44625 0.0
H1353 H 0.21752 0.48574 0.4899 0.0
H1354 H 0.27305 0.48474 0.617 0.0
H1355 H 0.26141 0.4697 0.57198 0.0
C1356 C 0.00225 0.27848 0.10211 0.0
C1357 C 0.98212 0.29353 0.10521 0.0
C1358 C 0.01011 0.27176 0.07609 0.0
C1359 C 0.00284 0.28683 0.00261 0.0
H1360 H 0.0084 0.21813 0.99094 0.0
C1361 C 0.96595 0.23818 0.9105 0.0
C1362 C 0.9807 0.22227 0.89595 0.0
C1363 C 0.97396 0.24855 0.93461 0.0
C1364 C 0.00752 0.2374 0.99394 0.0
H1365 H 0.95535 0.31435 0.08341 0.0
H1366 H 0.9688 0.30264 0.03858 0.0
H1367 H 0.00868 0.23408 0.03733 0.0
H1368 H 0.01544 0.20472 0.89505 0.0
H1369 H 0.02921 0.22231 0.93841 0.0
H1370 H 0.99961 0.28987 0.95934 0.0
C1371 C 0.97871 0.29606 0.05602 0.0
C1372 C 0.0077 0.24656 0.02047 0.0
C1373 C 0.97079 0.30258 0.08183 0.0
C1374 C 0.00379 0.21701 0.90591 0.0
C1375 C 0.01163 0.22699 0.93059 0.0
C1376 C 0.0024 0.27766 0.97622 0.0
C1377 C 0.99819 0.28026 0.05276 0.0
C1378 C 0.00418 0.27127 0.0251 0.0
C1379 C 0.99673 0.24289 0.94503 0.0
C1380 C 0.0037 0.2528 0.97176 0.0
H1381 H 0.01139 0.27122 0.11975 0.0
H1382 H 0.02523 0.25962 0.07422 0.0
H1383 H 0.00065 0.30601 0.00548 0.0
H1384 H 0.94814 0.24267 0.90319 0.0
H1385 H 0.96206 0.26055 0.94555 0.0
C1386 C 0.30752 0.98578 0.41841 0.0
C1387 C 0.29178 0.98642 0.3962 0.0
C1388 C 0.29959 0.99246 0.44427 0.0
C1389 C 0.24586 0.01663 0.4825 0.0
H1390 H 0.27233 0.97702 0.54004 0.0
C1391 C 0.20089 0.97842 0.58077 0.0
C1392 C 0.21166 0.98561 0.6053 0.0
C1393 C 0.21068 0.98547 0.55587 0.0
C1394 C 0.26505 0.98846 0.52423 0.0
H1395 H 0.25572 0.99503 0.38307 0.0
H1396 H 0.24123 0.00515 0.42835 0.0
H1397 H 0.29034 0.97583 0.49516 0.0
H1398 H 0.24053 0.00648 0.62313 0.0
H1399 H 0.25829 0.01798 0.57927 0.0
H1400 H 0.21916 0.02735 0.51171 0.0
C1401 C 0.26001 0.00059 0.426 0.0
C1402 C 0.27545 0.98799 0.49842 0.0
C1403 C 0.26822 0.99466 0.39996 0.0
C1404 C 0.23177 0.00088 0.6045 0.0
C1405 C 0.24193 0.00743 0.57953 0.0
C1406 C 0.23509 0.0166 0.50824 0.0
C1407 C 0.27542 0.99898 0.44871 0.0
C1408 C 0.26583 0.00178 0.47697 0.0
C1409 C 0.23166 0.99939 0.55511 0.0
C1410 C 0.24451 0.0023 0.52913 0.0
H1411 H 0.32585 0.97964 0.41584 0.0
H1412 H 0.31231 0.99177 0.46089 0.0
H1413 H 0.23817 0.02792 0.46684 0.0
H1414 H 0.18537 0.96665 0.58084 0.0
H1415 H 0.20269 0.97888 0.5372 0.0
C1416 C 0.46683 0.76803 0.91014 0.0
C1417 C 0.48199 0.78257 0.89433 0.0
C1418 C 0.47523 0.75746 0.93394 0.0
C1419 C 0.50994 0.76622 0.99156 0.0
H1420 H 0.50299 0.69741 0.00146 0.0
C1421 C 0.50205 0.72348 0.09857 0.0
C1422 C 0.48149 0.70888 0.10062 0.0
C1423 C 0.51082 0.73038 0.07299 0.0
C1424 C 0.50529 0.71663 0.99903 0.0
H1425 H 0.51784 0.7975 0.89092 0.0
H1426 H 0.53237 0.77955 0.9338 0.0
H1427 H 0.50238 0.71438 0.95567 0.0
H1428 H 0.45486 0.68901 0.07748 0.0
H1429 H 0.46992 0.70099 0.03339 0.0
H1430 H 0.51054 0.76879 0.03503 0.0
C1431 C 0.51413 0.77612 0.92716 0.0
C1432 C 0.50513 0.72626 0.97285 0.0
C1433 C 0.50585 0.7863 0.90278 0.0
C1434 C 0.47062 0.70043 0.07668 0.0
C1435 C 0.47946 0.70708 0.05131 0.0
C1436 C 0.50986 0.7566 0.01787 0.0
C1437 C 0.49883 0.76153 0.94276 0.0
C1438 C 0.50636 0.75119 0.96902 0.0
C1439 C 0.49939 0.72247 0.04909 0.0
C1440 C 0.50625 0.73182 0.02187 0.0
H1441 H 0.44843 0.76468 0.90401 0.0
H1442 H 0.46308 0.74644 0.94583 0.0
H1443 H 0.5107 0.78555 0.989 0.0
H1444 H 0.51083 0.73026 0.11667 0.0
H1445 H 0.52624 0.74222 0.07189 0.0
C1446 C 0.79851 0.48257 0.57649 0.0
C1447 C 0.78699 0.48789 0.60118 0.0
C1448 C 0.78882 0.49046 0.55188 0.0
C1449 C 0.73278 0.49574 0.52047 0.0
H1450 H 0.76498 0.52998 0.46228 0.0
C1451 C 0.69361 0.49212 0.41306 0.0
C1452 C 0.71021 0.4899 0.39182 0.0
C1453 C 0.70115 0.49957 0.43883 0.0
C1454 C 0.75577 0.52016 0.47816 0.0
H1455 H 0.75679 0.50624 0.61969 0.0
H1456 H 0.73918 0.51916 0.57628 0.0
H1457 H 0.78297 0.52883 0.50759 0.0
H1458 H 0.7474 0.49413 0.38014 0.0
H1459 H 0.76105 0.50561 0.4253 0.0
H1460 H 0.70682 0.48495 0.49119 0.0
C1461 C 0.75603 0.50941 0.5762 0.0
C1462 C 0.76599 0.5198 0.50417 0.0
C1463 C 0.7661 0.50207 0.60092 0.0
C1464 C 0.73428 0.49606 0.39629 0.0
C1465 C 0.74201 0.50278 0.42224 0.0
C1466 C 0.72288 0.49553 0.49439 0.0
C1467 C 0.76713 0.50329 0.55151 0.0
C1468 C 0.75475 0.50723 0.52535 0.0
C1469 C 0.72566 0.504 0.44414 0.0
C1470 C 0.73449 0.50728 0.47264 0.0
H1471 H 0.81465 0.47168 0.57615 0.0
H1472 H 0.79751 0.48532 0.53304 0.0
H1473 H 0.72399 0.48563 0.53647 0.0
H1474 H 0.67491 0.48748 0.4099 0.0
H1475 H 0.68781 0.50103 0.45475 0.0
C1476 C 0.03325 0.7945 0.07689 0.0
C1477 C 0.02174 0.78723 0.10096 0.0
C1478 C 0.02506 0.78653 0.05166 0.0
C1479 C 0.99928 0.77368 0.99939 0.0
H1480 H 0.99501 0.70425 0.99469 0.0
C1481 C 0.99896 0.72509 0.89586 0.0
C1482 C 0.01749 0.70798 0.89421 0.0
C1483 C 0.99163 0.73401 0.92118 0.0
C1484 C 0.99583 0.72368 0.99571 0.0
H1485 H 0.99197 0.76665 0.11735 0.0
H1486 H 0.97786 0.75232 0.07299 0.0
H1487 H 0.99651 0.72359 0.03924 0.0
H1488 H 0.04161 0.68556 0.9178 0.0
H1489 H 0.02877 0.7009 0.9617 0.0
H1490 H 1.00006 0.77369 0.95588 0.0
C1491 C 0.99319 0.7643 0.07382 0.0
C1492 C 0.9965 0.73477 0.02121 0.0
C1493 C 0.00121 0.77257 0.09915 0.0
C1494 C 0.02743 0.69888 0.91837 0.0
C1495 C 0.0199 0.70752 0.94358 0.0
C1496 C 0.99845 0.76261 0.9739 0.0
C1497 C 0.0053 0.7709 0.04986 0.0
C1498 C 0.99922 0.75981 0.02329 0.0
C1499 C 0.00241 0.72565 0.94526 0.0
C1500 C 0.99772 0.73743 0.97182 0.0
H1501 H 0.04901 0.80592 0.07756 0.0
H1502 H 0.03498 0.79171 0.03362 0.0
H1503 H 0.00112 0.79304 0.00041 0.0
H1504 H 0.99096 0.73244 0.87758 0.0
H1505 H 0.97802 0.74792 0.92191 0.0
C1506 C 0.72571 0.99598 0.60203 0.0
C1507 C 0.71055 0.01612 0.6043 0.0
C1508 C 0.73275 0.98756 0.57634 0.0
C1509 C 0.71778 0.99219 0.50281 0.0
H1510 H 0.78665 0.99017 0.49089 0.0
C1511 C 0.76387 0.03164 0.41103 0.0
C1512 C 0.77976 0.01757 0.39561 0.0
C1513 C 0.75447 0.023 0.43534 0.0
C1514 C 0.76738 0.98997 0.49398 0.0
H1515 H 0.68994 0.04237 0.58148 0.0
H1516 H 0.702 0.02776 0.53718 0.0
H1517 H 0.77087 0.98991 0.5374 0.0
H1518 H 0.7983 0.98338 0.39341 0.0
H1519 H 0.78239 0.96851 0.43719 0.0
H1520 H 0.71443 0.99443 0.4595 0.0
C1521 C 0.70848 0.01836 0.55502 0.0
C1522 C 0.75832 0.98982 0.52056 0.0
C1523 C 0.70175 0.02692 0.5805 0.0
C1524 C 0.78605 0.99453 0.40498 0.0
C1525 C 0.77701 0.98606 0.42988 0.0
C1526 C 0.72683 0.99253 0.47636 0.0
C1527 C 0.72435 0.99885 0.55257 0.0
C1528 C 0.73348 0.99221 0.52521 0.0
C1529 C 0.76103 0.00026 0.44508 0.0
C1530 C 0.75171 0.99256 0.47181 0.0
H1531 H 0.7328 0.98732 0.62004 0.0
H1532 H 0.74501 0.97249 0.57504 0.0
H1533 H 0.69854 0.99357 0.50577 0.0
H1534 H 0.75853 0.04936 0.40419 0.0
H1535 H 0.74237 0.03436 0.44688 0.0
loop_
_geom_bond_atom_site_label_1
_geom_bond_atom_site_label_2
_geom_bond_distance
_geom_bond_site_symmetry_2
_ccdc_geom_bond_type
Mn0 O5 2.095 . S
Mn0 O15 2.162 . S
Mn0 O16 2.297 . S
Mn0 O24 2.385 . S
Mn0 O25 2.209 . S
Mn0 O26 2.094 . S
Mn1 O6 2.121 . S
Mn1 N8 2.257 . S
Mn1 N17 2.282 . S
Mn1 O25 2.215 . S
Mn1 O27 2.117 . S
C2 O24 1.234 . S
C2 O25 1.283 . S
C3 O15 1.281 . S
C3 O16 1.236 . S
C4 O26 1.240 . S
C4 O27 1.264 . S
O5 Mn0 2.095 . S
O5 C14 1.250 . S
O6 Mn1 2.121 . S
O6 C14 1.258 . S
C7 N8 1.326 . S
C7 C11 1.460 . S
C7 H13 0.929 . S
N8 Mn1 2.257 . S
N8 C7 1.326 . S
N8 C12 1.362 . S
C9 C10 1.258 . S
C9 C12 1.431 . S
C9 C29 1.449 . S
C10 C9 1.258 . S
C10 C11 1.477 . S
C10 H30 0.931 . S
C11 C7 1.460 . S
C11 C10 1.477 . S
C11 H31 0.930 . S
C12 N8 1.362 . S
C12 C9 1.431 . S
C12 C22 1.476 . S
H13 C7 0.929 . S
C14 O5 1.250 . S
C14 O6 1.258 . S
O15 Mn0 2.162 . S
O15 C3 1.281 . S
O16 Mn0 2.297 . S
O16 C3 1.236 . S
N17 Mn1 2.282 . S
N17 C18 1.328 . S
N17 C22 1.318 . S
C18 N17 1.328 . S
C18 C19 1.457 . S
C18 H23 0.929 . S
C19 C18 1.457 . S
C19 C20 1.291 . S
C19 H32 0.931 . S
C20 C19 1.291 . S
C20 C21 1.373 . S
C20 H33 0.929 . S
C21 C20 1.373 . S
C21 C22 1.396 . S
C21 C28 1.403 . S
C22 C12 1.476 . S
C22 N17 1.318 . S
C22 C21 1.396 . S
H23 C18 0.929 . S
O24 Mn0 2.385 . S
O24 C2 1.234 . S
O25 Mn0 2.209 . S
O25 Mn1 2.215 . S
O25 C2 1.283 . S
O26 Mn0 2.094 . S
O26 C4 1.240 . S
O27 Mn1 2.117 . S
O27 C4 1.264 . S
C28 C21 1.403 . S
C28 C29 1.399 . S
C28 H34 0.929 . S
C29 C9 1.449 . S
C29 C28 1.399 . S
C29 H35 0.930 . S
H30 C10 0.931 . S
H31 C11 0.930 . S
H32 C19 0.931 . S
H33 C20 0.929 . S
H34 C28 0.929 . S
H35 C29 0.930 . S
Mn36 O41 2.095 . S
Mn36 O51 2.162 . S
Mn36 O52 2.297 . S
Mn36 O60 2.385 . S
Mn36 O61 2.209 . S
Mn36 O62 2.094 . S
Mn37 O42 2.121 . S
Mn37 N44 2.257 . S
Mn37 N53 2.282 . S
Mn37 O61 2.215 . S
Mn37 O63 2.117 . S
C38 O60 1.234 . S
C38 O61 1.283 . S
C39 O51 1.281 . S
C39 O52 1.236 . S
C40 O62 1.240 . S
C40 O63 1.264 . S
O41 Mn36 2.095 . S
O41 C50 1.250 . S
O42 Mn37 2.121 . S
O42 C50 1.258 . S
C43 N44 1.326 . S
C43 C47 1.460 . S
C43 H49 0.929 . S
N44 Mn37 2.257 . S
N44 C43 1.326 . S
N44 C48 1.362 . S
C45 C46 1.258 . S
C45 C48 1.431 . S
C45 C65 1.449 . S
C46 C45 1.258 . S
C46 C47 1.477 . S
C46 H66 0.931 . S
C47 C43 1.460 . S
C47 C46 1.477 . S
C47 H67 0.930 . S
C48 N44 1.362 . S
C48 C45 1.431 . S
C48 C58 1.476 . S
H49 C43 0.929 . S
C50 O41 1.250 . S
C50 O42 1.258 . S
O51 Mn36 2.162 . S
O51 C39 1.281 . S
O52 Mn36 2.297 . S
O52 C39 1.236 . S
N53 Mn37 2.282 . S
N53 C54 1.328 . S
N53 C58 1.318 . S
C54 N53 1.328 . S
C54 C55 1.457 . S
C54 H59 0.929 . S
C55 C54 1.457 . S
C55 C56 1.291 . S
C55 H68 0.931 . S
C56 C55 1.291 . S
C56 C57 1.373 . S
C56 H69 0.929 . S
C57 C56 1.373 . S
C57 C58 1.396 . S
C57 C64 1.403 . S
C58 C48 1.476 . S
C58 N53 1.318 . S
C58 C57 1.396 . S
H59 C54 0.929 . S
O60 Mn36 2.385 . S
O60 C38 1.234 . S
O61 Mn36 2.209 . S
O61 Mn37 2.215 . S
O61 C38 1.283 . S
O62 Mn36 2.094 . S
O62 C40 1.240 . S
O63 Mn37 2.117 . S
O63 C40 1.264 . S
C64 C57 1.403 . S
C64 C65 1.399 . S
C64 H70 0.929 . S
C65 C45 1.449 . S
C65 C64 1.399 . S
C65 H71 0.930 . S
H66 C46 0.931 . S
H67 C47 0.930 . S
H68 C55 0.931 . S
H69 C56 0.929 . S
H70 C64 0.929 . S
H71 C65 0.930 . S
Mn72 O77 2.095 . S
Mn72 O87 2.162 1_655 S
Mn72 O88 2.297 1_655 S
Mn72 O96 2.385 . S
Mn72 O97 2.209 . S
Mn72 O98 2.094 . S
Mn73 O78 2.121 . S
Mn73 N80 2.257 . S
Mn73 N89 2.282 . S
Mn73 O97 2.215 . S
Mn73 O99 2.117 . S
C74 O96 1.234 . S
C74 O97 1.283 . S
C75 O87 1.281 . S
C75 O88 1.236 . S
C76 O98 1.240 . S
C76 O99 1.264 . S
O77 Mn72 2.095 . S
O77 C86 1.250 . S
O78 Mn73 2.121 . S
O78 C86 1.258 . S
C79 N80 1.326 . S
C79 C83 1.460 . S
C79 H85 0.929 . S
N80 Mn73 2.257 . S
N80 C79 1.326 . S
N80 C84 1.362 . S
C81 C82 1.258 . S
C81 C84 1.431 . S
C81 C101 1.449 . S
C82 C81 1.258 . S
C82 C83 1.477 . S
C82 H102 0.931 . S
C83 C79 1.460 . S
C83 C82 1.477 . S
C83 H103 0.930 . S
C84 N80 1.362 . S
C84 C81 1.431 . S
C84 C94 1.476 . S
H85 C79 0.929 . S
C86 O77 1.250 . S
C86 O78 1.258 . S
O87 Mn72 2.162 1_455 S
O87 C75 1.281 . S
O88 Mn72 2.297 1_455 S
O88 C75 1.236 . S
N89 Mn73 2.282 . S
N89 C90 1.328 . S
N89 C94 1.318 . S
C90 N89 1.328 . S
C90 C91 1.457 . S
C90 H95 0.929 . S
C91 C90 1.457 . S
C91 C92 1.291 . S
C91 H104 0.931 . S
C92 C91 1.291 . S
C92 C93 1.373 . S
C92 H105 0.929 . S
C93 C92 1.373 . S
C93 C94 1.396 . S
C93 C100 1.403 . S
C94 C84 1.476 . S
C94 N89 1.318 . S
C94 C93 1.396 . S
H95 C90 0.929 . S
O96 Mn72 2.385 . S
O96 C74 1.234 . S
O97 Mn72 2.209 . S
O97 Mn73 2.215 . S
O97 C74 1.283 . S
O98 Mn72 2.094 . S
O98 C76 1.240 . S
O99 Mn73 2.117 . S
O99 C76 1.264 . S
C100 C93 1.403 . S
C100 C101 1.399 . S
C100 H106 0.929 . S
C101 C81 1.449 . S
C101 C100 1.399 . S
C101 H107 0.930 . S
H102 C82 0.931 . S
H103 C83 0.930 . S
H104 C91 0.931 . S
H105 C92 0.929 . S
H106 C100 0.929 . S
H107 C101 0.930 . S
Mn108 O113 2.095 . S
Mn108 O123 2.162 1_565 S
Mn108 O124 2.297 1_565 S
Mn108 O132 2.385 . S
Mn108 O133 2.209 . S
Mn108 O134 2.094 . S
Mn109 O114 2.121 . S
Mn109 N116 2.257 . S
Mn109 N125 2.282 . S
Mn109 O133 2.215 . S
Mn109 O135 2.117 . S
C110 O132 1.234 . S
C110 O133 1.283 . S
C111 O123 1.281 . S
C111 O124 1.236 . S
C112 O134 1.240 . S
C112 O135 1.264 . S
O113 Mn108 2.095 . S
O113 C122 1.250 . S
O114 Mn109 2.121 . S
O114 C122 1.258 . S
C115 N116 1.326 . S
C115 C119 1.460 . S
C115 H121 0.929 . S
N116 Mn109 2.257 . S
N116 C115 1.326 . S
N116 C120 1.362 . S
C117 C118 1.258 . S
C117 C120 1.431 . S
C117 C137 1.449 . S
C118 C117 1.258 . S
C118 C119 1.477 . S
C118 H138 0.931 . S
C119 C115 1.460 . S
C119 C118 1.477 . S
C119 H139 0.930 . S
C120 N116 1.362 . S
C120 C117 1.431 . S
C120 C130 1.476 . S
H121 C115 0.929 . S
C122 O113 1.250 . S
C122 O114 1.258 . S
O123 Mn108 2.162 1_545 S
O123 C111 1.281 . S
O124 Mn108 2.297 1_545 S
O124 C111 1.236 . S
N125 Mn109 2.282 . S
N125 C126 1.328 . S
N125 C130 1.318 . S
C126 N125 1.328 . S
C126 C127 1.457 . S
C126 H131 0.929 . S
C127 C126 1.457 . S
C127 C128 1.291 . S
C127 H140 0.931 . S
C128 C127 1.291 . S
C128 C129 1.373 . S
C128 H141 0.929 . S
C129 C128 1.373 . S
C129 C130 1.396 . S
C129 C136 1.403 . S
C130 C120 1.476 . S
C130 N125 1.318 . S
C130 C129 1.396 . S
H131 C126 0.929 . S
O132 Mn108 2.385 . S
O132 C110 1.234 . S
O133 Mn108 2.209 . S
O133 Mn109 2.215 . S
O133 C110 1.283 . S
O134 Mn108 2.094 . S
O134 C112 1.240 . S
O135 Mn109 2.117 . S
O135 C112 1.264 . S
C136 C129 1.403 . S
C136 C137 1.399 . S
C136 H142 0.929 . S
C137 C117 1.449 . S
C137 C136 1.399 . S
C137 H143 0.930 . S
H138 C118 0.931 . S
H139 C119 0.930 . S
H140 C127 0.931 . S
H141 C128 0.929 . S
H142 C136 0.929 . S
H143 C137 0.930 . S
Mn144 O149 2.095 . S
Mn144 O159 2.162 . S
Mn144 O160 2.297 . S
Mn144 O168 2.385 . S
Mn144 O169 2.209 . S
Mn144 O170 2.094 . S
Mn145 O150 2.121 . S
Mn145 N152 2.257 . S
Mn145 N161 2.282 . S
Mn145 O169 2.215 . S
Mn145 O171 2.117 . S
C146 O168 1.234 . S
C146 O169 1.283 . S
C147 O159 1.281 . S
C147 O160 1.236 . S
C148 O170 1.240 . S
C148 O171 1.264 . S
O149 Mn144 2.095 . S
O149 C158 1.250 . S
O150 Mn145 2.121 . S
O150 C158 1.258 . S
C151 N152 1.326 . S
C151 C155 1.460 . S
C151 H157 0.929 . S
N152 Mn145 2.257 . S
N152 C151 1.326 . S
N152 C156 1.362 . S
C153 C154 1.258 . S
C153 C156 1.431 . S
C153 C173 1.449 . S
C154 C153 1.258 . S
C154 C155 1.477 . S
C154 H174 0.931 . S
C155 C151 1.460 . S
C155 C154 1.477 . S
C155 H175 0.930 . S
C156 N152 1.362 . S
C156 C153 1.431 . S
C156 C166 1.476 . S
H157 C151 0.929 . S
C158 O149 1.250 . S
C158 O150 1.258 . S
O159 Mn144 2.162 . S
O159 C147 1.281 . S
O160 Mn144 2.297 . S
O160 C147 1.236 . S
N161 Mn145 2.282 . S
N161 C162 1.328 . S
N161 C166 1.318 . S
C162 N161 1.328 . S
C162 C163 1.457 . S
C162 H167 0.929 . S
C163 C162 1.457 . S
C163 C164 1.291 . S
C163 H176 0.931 . S
C164 C163 1.291 . S
C164 C165 1.373 . S
C164 H177 0.929 . S
C165 C164 1.373 . S
C165 C166 1.396 . S
C165 C172 1.403 . S
C166 C156 1.476 . S
C166 N161 1.318 . S
C166 C165 1.396 . S
H167 C162 0.929 . S
O168 Mn144 2.385 . S
O168 C146 1.234 . S
O169 Mn144 2.209 . S
O169 Mn145 2.215 . S
O169 C146 1.283 . S
O170 Mn144 2.094 . S
O170 C148 1.240 . S
O171 Mn145 2.117 . S
O171 C148 1.264 . S
C172 C165 1.403 . S
C172 C173 1.399 . S
C172 H178 0.929 . S
C173 C153 1.449 . S
C173 C172 1.399 . S
C173 H179 0.930 . S
H174 C154 0.931 . S
H175 C155 0.930 . S
H176 C163 0.931 . S
H177 C164 0.929 . S
H178 C172 0.929 . S
H179 C173 0.930 . S
Mn180 O185 2.095 . S
Mn180 O195 2.162 . S
Mn180 O196 2.297 . S
Mn180 O204 2.385 . S
Mn180 O205 2.209 . S
Mn180 O206 2.094 . S
Mn181 O186 2.121 . S
Mn181 N188 2.257 . S
Mn181 N197 2.282 . S
Mn181 O205 2.215 . S
Mn181 O207 2.117 . S
C182 O204 1.234 . S
C182 O205 1.283 . S
C183 O195 1.281 . S
C183 O196 1.236 . S
C184 O206 1.240 . S
C184 O207 1.264 . S
O185 Mn180 2.095 . S
O185 C194 1.250 . S
O186 Mn181 2.121 . S
O186 C194 1.258 . S
C187 N188 1.326 . S
C187 C191 1.460 . S
C187 H193 0.929 . S
N188 Mn181 2.257 . S
N188 C187 1.326 . S
N188 C192 1.362 . S
C189 C190 1.258 . S
C189 C192 1.431 . S
C189 C209 1.449 . S
C190 C189 1.258 . S
C190 C191 1.477 . S
C190 H210 0.931 . S
C191 C187 1.460 . S
C191 C190 1.477 . S
C191 H211 0.930 . S
C192 N188 1.362 . S
C192 C189 1.431 . S
C192 C202 1.476 . S
H193 C187 0.929 . S
C194 O185 1.250 . S
C194 O186 1.258 . S
O195 Mn180 2.162 . S
O195 C183 1.281 . S
O196 Mn180 2.297 . S
O196 C183 1.236 . S
N197 Mn181 2.282 . S
N197 C198 1.328 . S
N197 C202 1.318 . S
C198 N197 1.328 . S
C198 C199 1.457 . S
C198 H203 0.929 . S
C199 C198 1.457 . S
C199 C200 1.291 . S
C199 H212 0.931 . S
C200 C199 1.291 . S
C200 C201 1.373 . S
C200 H213 0.929 . S
C201 C200 1.373 . S
C201 C202 1.396 . S
C201 C208 1.403 . S
C202 C192 1.476 . S
C202 N197 1.318 . S
C202 C201 1.396 . S
H203 C198 0.929 . S
O204 Mn180 2.385 . S
O204 C182 1.234 . S
O205 Mn180 2.209 . S
O205 Mn181 2.215 . S
O205 C182 1.283 . S
O206 Mn180 2.094 . S
O206 C184 1.240 . S
O207 Mn181 2.117 . S
O207 C184 1.264 . S
C208 C201 1.403 . S
C208 C209 1.399 . S
C208 H214 0.929 . S
C209 C189 1.449 . S
C209 C208 1.399 . S
C209 H215 0.930 . S
H210 C190 0.931 . S
H211 C191 0.930 . S
H212 C199 0.931 . S
H213 C200 0.929 . S
H214 C208 0.929 . S
H215 C209 0.930 . S
Mn216 O221 2.095 . S
Mn216 O231 2.162 1_655 S
Mn216 O232 2.297 1_655 S
Mn216 O240 2.385 . S
Mn216 O241 2.209 . S
Mn216 O242 2.094 . S
Mn217 O222 2.121 . S
Mn217 N224 2.257 . S
Mn217 N233 2.282 . S
Mn217 O241 2.215 . S
Mn217 O243 2.117 . S
C218 O240 1.234 . S
C218 O241 1.283 . S
C219 O231 1.281 . S
C219 O232 1.236 . S
C220 O242 1.240 . S
C220 O243 1.264 . S
O221 Mn216 2.095 . S
O221 C230 1.250 . S
O222 Mn217 2.121 . S
O222 C230 1.258 . S
C223 N224 1.326 . S
C223 C227 1.460 . S
C223 H229 0.929 . S
N224 Mn217 2.257 . S
N224 C223 1.326 . S
N224 C228 1.362 . S
C225 C226 1.258 . S
C225 C228 1.431 . S
C225 C245 1.449 . S
C226 C225 1.258 . S
C226 C227 1.477 . S
C226 H246 0.931 . S
C227 C223 1.460 . S
C227 C226 1.477 . S
C227 H247 0.930 . S
C228 N224 1.362 . S
C228 C225 1.431 . S
C228 C238 1.476 . S
H229 C223 0.929 . S
C230 O221 1.250 . S
C230 O222 1.258 . S
O231 Mn216 2.162 1_455 S
O231 C219 1.281 . S
O232 Mn216 2.297 1_455 S
O232 C219 1.236 . S
N233 Mn217 2.282 . S
N233 C234 1.328 . S
N233 C238 1.318 . S
C234 N233 1.328 . S
C234 C235 1.457 . S
C234 H239 0.929 . S
C235 C234 1.457 . S
C235 C236 1.291 . S
C235 H248 0.931 . S
C236 C235 1.291 . S
C236 C237 1.373 . S
C236 H249 0.929 . S
C237 C236 1.373 . S
C237 C238 1.396 . S
C237 C244 1.403 . S
C238 C228 1.476 . S
C238 N233 1.318 . S
C238 C237 1.396 . S
H239 C234 0.929 . S
O240 Mn216 2.385 . S
O240 C218 1.234 . S
O241 Mn216 2.209 . S
O241 Mn217 2.215 . S
O241 C218 1.283 . S
O242 Mn216 2.094 . S
O242 C220 1.240 . S
O243 Mn217 2.117 . S
O243 C220 1.264 . S
C244 C237 1.403 . S
C244 C245 1.399 . S
C244 H250 0.929 . S
C245 C225 1.449 . S
C245 C244 1.399 . S
C245 H251 0.930 . S
H246 C226 0.931 . S
H247 C227 0.930 . S
H248 C235 0.931 . S
H249 C236 0.929 . S
H250 C244 0.929 . S
H251 C245 0.930 . S
Mn252 O257 2.095 . S
Mn252 O267 2.162 1_565 S
Mn252 O268 2.297 1_565 S
Mn252 O276 2.385 . S
Mn252 O277 2.209 . S
Mn252 O278 2.094 . S
Mn253 O258 2.121 . S
Mn253 N260 2.257 . S
Mn253 N269 2.282 . S
Mn253 O277 2.215 . S
Mn253 O279 2.117 . S
C254 O276 1.234 . S
C254 O277 1.283 . S
C255 O267 1.281 . S
C255 O268 1.236 . S
C256 O278 1.240 . S
C256 O279 1.264 . S
O257 Mn252 2.095 . S
O257 C266 1.250 . S
O258 Mn253 2.121 . S
O258 C266 1.258 . S
C259 N260 1.326 . S
C259 C263 1.460 . S
C259 H265 0.929 . S
N260 Mn253 2.257 . S
N260 C259 1.326 . S
N260 C264 1.362 . S
C261 C262 1.258 . S
C261 C264 1.431 . S
C261 C281 1.449 . S
C262 C261 1.258 . S
C262 C263 1.477 . S
C262 H282 0.931 . S
C263 C259 1.460 . S
C263 C262 1.477 . S
C263 H283 0.930 . S
C264 N260 1.362 . S
C264 C261 1.431 . S
C264 C274 1.476 . S
H265 C259 0.929 . S
C266 O257 1.250 . S
C266 O258 1.258 . S
O267 Mn252 2.162 1_545 S
O267 C255 1.281 . S
O268 Mn252 2.297 1_545 S
O268 C255 1.236 . S
N269 Mn253 2.282 . S
N269 C270 1.328 . S
N269 C274 1.318 . S
C270 N269 1.328 . S
C270 C271 1.457 . S
C270 H275 0.929 . S
C271 C270 1.457 . S
C271 C272 1.291 . S
C271 H284 0.931 . S
C272 C271 1.291 . S
C272 C273 1.373 . S
C272 H285 0.929 . S
C273 C272 1.373 . S
C273 C274 1.396 . S
C273 C280 1.403 . S
C274 C264 1.476 . S
C274 N269 1.318 . S
C274 C273 1.396 . S
H275 C270 0.929 . S
O276 Mn252 2.385 . S
O276 C254 1.234 . S
O277 Mn252 2.209 . S
O277 Mn253 2.215 . S
O277 C254 1.283 . S
O278 Mn252 2.094 . S
O278 C256 1.240 . S
O279 Mn253 2.117 . S
O279 C256 1.264 . S
C280 C273 1.403 . S
C280 C281 1.399 . S
C280 H286 0.929 . S
C281 C261 1.449 . S
C281 C280 1.399 . S
C281 H287 0.930 . S
H282 C262 0.931 . S
H283 C263 0.930 . S
H284 C271 0.931 . S
H285 C272 0.929 . S
H286 C280 0.929 . S
H287 C281 0.930 . S
Mn288 O293 2.095 . S
Mn288 O303 2.162 . S
Mn288 O304 2.297 . S
Mn288 O312 2.385 . S
Mn288 O313 2.209 . S
Mn288 O314 2.094 . S
Mn289 O294 2.121 . S
Mn289 N296 2.257 . S
Mn289 N305 2.282 . S
Mn289 O313 2.215 . S
Mn289 O315 2.117 . S
C290 O312 1.234 . S
C290 O313 1.283 . S
C291 O303 1.281 . S
C291 O304 1.236 . S
C292 O314 1.240 . S
C292 O315 1.264 . S
O293 Mn288 2.095 . S
O293 C302 1.250 . S
O294 Mn289 2.121 . S
O294 C302 1.258 . S
C295 N296 1.326 . S
C295 C299 1.460 . S
C295 H301 0.929 . S
N296 Mn289 2.257 . S
N296 C295 1.326 . S
N296 C300 1.362 . S
C297 C298 1.258 . S
C297 C300 1.431 . S
C297 C317 1.449 . S
C298 C297 1.258 . S
C298 C299 1.477 . S
C298 H318 0.931 . S
C299 C295 1.460 . S
C299 C298 1.477 . S
C299 H319 0.930 . S
C300 N296 1.362 . S
C300 C297 1.431 . S
C300 C310 1.476 . S
H301 C295 0.929 . S
C302 O293 1.250 . S
C302 O294 1.258 . S
O303 Mn288 2.162 . S
O303 C291 1.281 . S
O304 Mn288 2.297 . S
O304 C291 1.236 . S
N305 Mn289 2.282 . S
N305 C306 1.328 . S
N305 C310 1.318 . S
C306 N305 1.328 . S
C306 C307 1.457 . S
C306 H311 0.929 . S
C307 C306 1.457 . S
C307 C308 1.291 . S
C307 H320 0.931 . S
C308 C307 1.291 . S
C308 C309 1.373 . S
C308 H321 0.929 . S
C309 C308 1.373 . S
C309 C310 1.396 . S
C309 C316 1.403 . S
C310 C300 1.476 . S
C310 N305 1.318 . S
C310 C309 1.396 . S
H311 C306 0.929 . S
O312 Mn288 2.385 . S
O312 C290 1.234 . S
O313 Mn288 2.209 . S
O313 Mn289 2.215 . S
O313 C290 1.283 . S
O314 Mn288 2.094 . S
O314 C292 1.240 . S
O315 Mn289 2.117 . S
O315 C292 1.264 . S
C316 C309 1.403 . S
C316 C317 1.399 . S
C316 H322 0.929 . S
C317 C297 1.449 . S
C317 C316 1.399 . S
C317 H323 0.930 . S
H318 C298 0.931 . S
H319 C299 0.930 . S
H320 C307 0.931 . S
H321 C308 0.929 . S
H322 C316 0.929 . S
H323 C317 0.930 . S
Mn324 O329 2.095 . S
Mn324 O339 2.162 . S
Mn324 O340 2.297 . S
Mn324 O348 2.385 . S
Mn324 O349 2.209 . S
Mn324 O350 2.094 . S
Mn325 O330 2.121 . S
Mn325 N332 2.257 . S
Mn325 N341 2.282 . S
Mn325 O349 2.215 . S
Mn325 O351 2.117 . S
C326 O348 1.234 . S
C326 O349 1.283 . S
C327 O339 1.281 . S
C327 O340 1.236 . S
C328 O350 1.240 . S
C328 O351 1.264 . S
O329 Mn324 2.095 . S
O329 C338 1.250 . S
O330 Mn325 2.121 . S
O330 C338 1.258 . S
C331 N332 1.326 . S
C331 C335 1.460 . S
C331 H337 0.929 . S
N332 Mn325 2.257 . S
N332 C331 1.326 . S
N332 C336 1.362 . S
C333 C334 1.258 . S
C333 C336 1.431 . S
C333 C353 1.449 . S
C334 C333 1.258 . S
C334 C335 1.477 . S
C334 H354 0.931 . S
C335 C331 1.460 . S
C335 C334 1.477 . S
C335 H355 0.930 . S
C336 N332 1.362 . S
C336 C333 1.431 . S
C336 C346 1.476 . S
H337 C331 0.929 . S
C338 O329 1.250 . S
C338 O330 1.258 . S
O339 Mn324 2.162 . S
O339 C327 1.281 . S
O340 Mn324 2.297 . S
O340 C327 1.236 . S
N341 Mn325 2.282 . S
N341 C342 1.328 . S
N341 C346 1.318 . S
C342 N341 1.328 . S
C342 C343 1.457 . S
C342 H347 0.929 . S
C343 C342 1.457 . S
C343 C344 1.291 . S
C343 H356 0.931 . S
C344 C343 1.291 . S
C344 C345 1.373 . S
C344 H357 0.929 . S
C345 C344 1.373 . S
C345 C346 1.396 . S
C345 C352 1.403 . S
C346 C336 1.476 . S
C346 N341 1.318 . S
C346 C345 1.396 . S
H347 C342 0.929 . S
O348 Mn324 2.385 . S
O348 C326 1.234 . S
O349 Mn324 2.209 . S
O349 Mn325 2.215 . S
O349 C326 1.283 . S
O350 Mn324 2.094 . S
O350 C328 1.240 . S
O351 Mn325 2.117 . S
O351 C328 1.264 . S
C352 C345 1.403 . S
C352 C353 1.399 . S
C352 H358 0.929 . S
C353 C333 1.449 . S
C353 C352 1.399 . S
C353 H359 0.930 . S
H354 C334 0.931 . S
H355 C335 0.930 . S
H356 C343 0.931 . S
H357 C344 0.929 . S
H358 C352 0.929 . S
H359 C353 0.930 . S
Mn360 O365 2.095 . S
Mn360 O375 2.162 1_455 S
Mn360 O376 2.297 1_455 S
Mn360 O384 2.385 . S
Mn360 O385 2.209 . S
Mn360 O386 2.094 . S
Mn361 O366 2.121 . S
Mn361 N368 2.257 . S
Mn361 N377 2.282 . S
Mn361 O385 2.215 . S
Mn361 O387 2.117 . S
C362 O384 1.234 . S
C362 O385 1.283 . S
C363 O375 1.281 . S
C363 O376 1.236 . S
C364 O386 1.240 . S
C364 O387 1.264 . S
O365 Mn360 2.095 . S
O365 C374 1.250 . S
O366 Mn361 2.121 . S
O366 C374 1.258 . S
C367 N368 1.326 . S
C367 C371 1.460 . S
C367 H373 0.929 . S
N368 Mn361 2.257 . S
N368 C367 1.326 . S
N368 C372 1.362 . S
C369 C370 1.258 . S
C369 C372 1.431 . S
C369 C389 1.449 . S
C370 C369 1.258 . S
C370 C371 1.477 . S
C370 H390 0.931 . S
C371 C367 1.460 . S
C371 C370 1.477 . S
C371 H391 0.930 . S
C372 N368 1.362 . S
C372 C369 1.431 . S
C372 C382 1.476 . S
H373 C367 0.929 . S
C374 O365 1.250 . S
C374 O366 1.258 . S
O375 Mn360 2.162 1_655 S
O375 C363 1.281 . S
O376 Mn360 2.297 1_655 S
O376 C363 1.236 . S
N377 Mn361 2.282 . S
N377 C378 1.328 . S
N377 C382 1.318 . S
C378 N377 1.328 . S
C378 C379 1.457 . S
C378 H383 0.929 . S
C379 C378 1.457 . S
C379 C380 1.291 . S
C379 H392 0.931 . S
C380 C379 1.291 . S
C380 C381 1.373 . S
C380 H393 0.929 . S
C381 C380 1.373 . S
C381 C382 1.396 . S
C381 C388 1.403 . S
C382 C372 1.476 . S
C382 N377 1.318 . S
C382 C381 1.396 . S
H383 C378 0.929 . S
O384 Mn360 2.385 . S
O384 C362 1.234 . S
O385 Mn360 2.209 . S
O385 Mn361 2.215 . S
O385 C362 1.283 . S
O386 Mn360 2.094 . S
O386 C364 1.240 . S
O387 Mn361 2.117 . S
O387 C364 1.264 . S
C388 C381 1.403 . S
C388 C389 1.399 . S
C388 H394 0.929 . S
C389 C369 1.449 . S
C389 C388 1.399 . S
C389 H395 0.930 . S
H390 C370 0.931 . S
H391 C371 0.930 . S
H392 C379 0.931 . S
H393 C380 0.929 . S
H394 C388 0.929 . S
H395 C389 0.930 . S
Mn396 O401 2.095 . S
Mn396 O411 2.162 1_545 S
Mn396 O412 2.297 1_545 S
Mn396 O420 2.385 . S
Mn396 O421 2.209 . S
Mn396 O422 2.094 . S
Mn397 O402 2.121 . S
Mn397 N404 2.257 . S
Mn397 N413 2.282 . S
Mn397 O421 2.215 . S
Mn397 O423 2.117 . S
C398 O420 1.234 . S
C398 O421 1.283 . S
C399 O411 1.281 . S
C399 O412 1.236 . S
C400 O422 1.240 . S
C400 O423 1.264 . S
O401 Mn396 2.095 . S
O401 C410 1.250 . S
O402 Mn397 2.121 . S
O402 C410 1.258 . S
C403 N404 1.326 . S
C403 C407 1.460 . S
C403 H409 0.929 . S
N404 Mn397 2.257 . S
N404 C403 1.326 . S
N404 C408 1.362 . S
C405 C406 1.258 . S
C405 C408 1.431 . S
C405 C425 1.449 . S
C406 C405 1.258 . S
C406 C407 1.477 . S
C406 H426 0.931 . S
C407 C403 1.460 . S
C407 C406 1.477 . S
C407 H427 0.930 . S
C408 N404 1.362 . S
C408 C405 1.431 . S
C408 C418 1.476 . S
H409 C403 0.929 . S
C410 O401 1.250 . S
C410 O402 1.258 . S
O411 Mn396 2.162 1_565 S
O411 C399 1.281 . S
O412 Mn396 2.297 1_565 S
O412 C399 1.236 . S
N413 Mn397 2.282 . S
N413 C414 1.328 . S
N413 C418 1.318 . S
C414 N413 1.328 . S
C414 C415 1.457 . S
C414 H419 0.929 . S
C415 C414 1.457 . S
C415 C416 1.291 . S
C415 H428 0.931 . S
C416 C415 1.291 . S
C416 C417 1.373 . S
C416 H429 0.929 . S
C417 C416 1.373 . S
C417 C418 1.396 . S
C417 C424 1.403 . S
C418 C408 1.476 . S
C418 N413 1.318 . S
C418 C417 1.396 . S
H419 C414 0.929 . S
O420 Mn396 2.385 . S
O420 C398 1.234 . S
O421 Mn396 2.209 . S
O421 Mn397 2.215 . S
O421 C398 1.283 . S
O422 Mn396 2.094 . S
O422 C400 1.240 . S
O423 Mn397 2.117 . S
O423 C400 1.264 . S
C424 C417 1.403 . S
C424 C425 1.399 . S
C424 H430 0.929 . S
C425 C405 1.449 . S
C425 C424 1.399 . S
C425 H431 0.930 . S
H426 C406 0.931 . S
H427 C407 0.930 . S
H428 C415 0.931 . S
H429 C416 0.929 . S
H430 C424 0.929 . S
H431 C425 0.930 . S
Mn432 O437 2.095 . S
Mn432 O447 2.162 . S
Mn432 O448 2.297 . S
Mn432 O456 2.385 . S
Mn432 O457 2.209 . S
Mn432 O458 2.094 . S
Mn433 O438 2.121 . S
Mn433 N440 2.257 . S
Mn433 N449 2.282 . S
Mn433 O457 2.215 . S
Mn433 O459 2.117 . S
C434 O456 1.234 . S
C434 O457 1.283 . S
C435 O447 1.281 . S
C435 O448 1.236 . S
C436 O458 1.240 . S
C436 O459 1.264 . S
O437 Mn432 2.095 . S
O437 C446 1.250 . S
O438 Mn433 2.121 . S
O438 C446 1.258 . S
C439 N440 1.326 . S
C439 C443 1.460 . S
C439 H445 0.929 . S
N440 Mn433 2.257 . S
N440 C439 1.326 . S
N440 C444 1.362 . S
C441 C442 1.258 . S
C441 C444 1.431 . S
C441 C461 1.449 . S
C442 C441 1.258 . S
C442 C443 1.477 . S
C442 H462 0.931 . S
C443 C439 1.460 . S
C443 C442 1.477 . S
C443 H463 0.930 . S
C444 N440 1.362 . S
C444 C441 1.431 . S
C444 C454 1.476 . S
H445 C439 0.929 . S
C446 O437 1.250 . S
C446 O438 1.258 . S
O447 Mn432 2.162 . S
O447 C435 1.281 . S
O448 Mn432 2.297 . S
O448 C435 1.236 . S
N449 Mn433 2.282 . S
N449 C450 1.328 . S
N449 C454 1.318 . S
C450 N449 1.328 . S
C450 C451 1.457 . S
C450 H455 0.929 . S
C451 C450 1.457 . S
C451 C452 1.291 . S
C451 H464 0.931 . S
C452 C451 1.291 . S
C452 C453 1.373 . S
C452 H465 0.929 . S
C453 C452 1.373 . S
C453 C454 1.396 . S
C453 C460 1.403 . S
C454 C444 1.476 . S
C454 N449 1.318 . S
C454 C453 1.396 . S
H455 C450 0.929 . S
O456 Mn432 2.385 . S
O456 C434 1.234 . S
O457 Mn432 2.209 . S
O457 Mn433 2.215 . S
O457 C434 1.283 . S
O458 Mn432 2.094 . S
O458 C436 1.240 . S
O459 Mn433 2.117 . S
O459 C436 1.264 . S
C460 C453 1.403 . S
C460 C461 1.399 . S
C460 H466 0.929 . S
C461 C441 1.449 . S
C461 C460 1.399 . S
C461 H467 0.930 . S
H462 C442 0.931 . S
H463 C443 0.930 . S
H464 C451 0.931 . S
H465 C452 0.929 . S
H466 C460 0.929 . S
H467 C461 0.930 . S
Mn468 O473 2.095 . S
Mn468 O483 2.162 . S
Mn468 O484 2.297 . S
Mn468 O492 2.385 . S
Mn468 O493 2.209 . S
Mn468 O494 2.094 . S
Mn469 O474 2.121 . S
Mn469 N476 2.257 . S
Mn469 N485 2.282 . S
Mn469 O493 2.215 . S
Mn469 O495 2.117 . S
C470 O492 1.234 . S
C470 O493 1.283 . S
C471 O483 1.281 . S
C471 O484 1.236 . S
C472 O494 1.240 . S
C472 O495 1.264 . S
O473 Mn468 2.095 . S
O473 C482 1.250 . S
O474 Mn469 2.121 . S
O474 C482 1.258 . S
C475 N476 1.326 . S
C475 C479 1.460 . S
C475 H481 0.929 . S
N476 Mn469 2.257 . S
N476 C475 1.326 . S
N476 C480 1.362 . S
C477 C478 1.258 . S
C477 C480 1.431 . S
C477 C497 1.449 . S
C478 C477 1.258 . S
C478 C479 1.477 . S
C478 H498 0.931 . S
C479 C475 1.460 . S
C479 C478 1.477 . S
C479 H499 0.930 . S
C480 N476 1.362 . S
C480 C477 1.431 . S
C480 C490 1.476 . S
H481 C475 0.929 . S
C482 O473 1.250 . S
C482 O474 1.258 . S
O483 Mn468 2.162 . S
O483 C471 1.281 . S
O484 Mn468 2.297 . S
O484 C471 1.236 . S
N485 Mn469 2.282 . S
N485 C486 1.328 . S
N485 C490 1.318 . S
C486 N485 1.328 . S
C486 C487 1.457 . S
C486 H491 0.929 . S
C487 C486 1.457 . S
C487 C488 1.291 . S
C487 H500 0.931 . S
C488 C487 1.291 . S
C488 C489 1.373 . S
C488 H501 0.929 . S
C489 C488 1.373 . S
C489 C490 1.396 . S
C489 C496 1.403 . S
C490 C480 1.476 . S
C490 N485 1.318 . S
C490 C489 1.396 . S
H491 C486 0.929 . S
O492 Mn468 2.385 . S
O492 C470 1.234 . S
O493 Mn468 2.209 . S
O493 Mn469 2.215 . S
O493 C470 1.283 . S
O494 Mn468 2.094 . S
O494 C472 1.240 . S
O495 Mn469 2.117 . S
O495 C472 1.264 . S
C496 C489 1.403 . S
C496 C497 1.399 . S
C496 H502 0.929 . S
C497 C477 1.449 . S
C497 C496 1.399 . S
C497 H503 0.930 . S
H498 C478 0.931 . S
H499 C479 0.930 . S
H500 C487 0.931 . S
H501 C488 0.929 . S
H502 C496 0.929 . S
H503 C497 0.930 . S
Mn504 O509 2.095 . S
Mn504 O519 2.162 1_455 S
Mn504 O520 2.297 1_455 S
Mn504 O528 2.385 . S
Mn504 O529 2.209 . S
Mn504 O530 2.094 . S
Mn505 O510 2.121 . S
Mn505 N512 2.257 . S
Mn505 N521 2.282 . S
Mn505 O529 2.215 . S
Mn505 O531 2.117 . S
C506 O528 1.234 . S
C506 O529 1.283 . S
C507 O519 1.281 . S
C507 O520 1.236 . S
C508 O530 1.240 . S
C508 O531 1.264 . S
O509 Mn504 2.095 . S
O509 C518 1.250 . S
O510 Mn505 2.121 . S
O510 C518 1.258 . S
C511 N512 1.326 . S
C511 C515 1.460 . S
C511 H517 0.929 . S
N512 Mn505 2.257 . S
N512 C511 1.326 . S
N512 C516 1.362 . S
C513 C514 1.258 . S
C513 C516 1.431 . S
C513 C533 1.449 . S
C514 C513 1.258 . S
C514 C515 1.477 . S
C514 H534 0.931 . S
C515 C511 1.460 . S
C515 C514 1.477 . S
C515 H535 0.930 . S
C516 N512 1.362 . S
C516 C513 1.431 . S
C516 C526 1.476 . S
H517 C511 0.929 . S
C518 O509 1.250 . S
C518 O510 1.258 . S
O519 Mn504 2.162 1_655 S
O519 C507 1.281 . S
O520 Mn504 2.297 1_655 S
O520 C507 1.236 . S
N521 Mn505 2.282 . S
N521 C522 1.328 . S
N521 C526 1.318 . S
C522 N521 1.328 . S
C522 C523 1.457 . S
C522 H527 0.929 . S
C523 C522 1.457 . S
C523 C524 1.291 . S
C523 H536 0.931 . S
C524 C523 1.291 . S
C524 C525 1.373 . S
C524 H537 0.929 . S
C525 C524 1.373 . S
C525 C526 1.396 . S
C525 C532 1.403 . S
C526 C516 1.476 . S
C526 N521 1.318 . S
C526 C525 1.396 . S
H527 C522 0.929 . S
O528 Mn504 2.385 . S
O528 C506 1.234 . S
O529 Mn504 2.209 . S
O529 Mn505 2.215 . S
O529 C506 1.283 . S
O530 Mn504 2.094 . S
O530 C508 1.240 . S
O531 Mn505 2.117 . S
O531 C508 1.264 . S
C532 C525 1.403 . S
C532 C533 1.399 . S
C532 H538 0.929 . S
C533 C513 1.449 . S
C533 C532 1.399 . S
C533 H539 0.930 . S
H534 C514 0.931 . S
H535 C515 0.930 . S
H536 C523 0.931 . S
H537 C524 0.929 . S
H538 C532 0.929 . S
H539 C533 0.930 . S
Mn540 O545 2.095 . S
Mn540 O555 2.162 1_545 S
Mn540 O556 2.297 1_545 S
Mn540 O564 2.385 . S
Mn540 O565 2.209 . S
Mn540 O566 2.094 . S
Mn541 O546 2.121 . S
Mn541 N548 2.257 . S
Mn541 N557 2.282 . S
Mn541 O565 2.215 . S
Mn541 O567 2.117 . S
C542 O564 1.234 . S
C542 O565 1.283 . S
C543 O555 1.281 . S
C543 O556 1.236 . S
C544 O566 1.240 . S
C544 O567 1.264 . S
O545 Mn540 2.095 . S
O545 C554 1.250 . S
O546 Mn541 2.121 . S
O546 C554 1.258 . S
C547 N548 1.326 . S
C547 C551 1.460 . S
C547 H553 0.929 . S
N548 Mn541 2.257 . S
N548 C547 1.326 . S
N548 C552 1.362 . S
C549 C550 1.258 . S
C549 C552 1.431 . S
C549 C569 1.449 . S
C550 C549 1.258 . S
C550 C551 1.477 . S
C550 H570 0.931 . S
C551 C547 1.460 . S
C551 C550 1.477 . S
C551 H571 0.930 . S
C552 N548 1.362 . S
C552 C549 1.431 . S
C552 C562 1.476 . S
H553 C547 0.929 . S
C554 O545 1.250 . S
C554 O546 1.258 . S
O555 Mn540 2.162 1_565 S
O555 C543 1.281 . S
O556 Mn540 2.297 1_565 S
O556 C543 1.236 . S
N557 Mn541 2.282 . S
N557 C558 1.328 . S
N557 C562 1.318 . S
C558 N557 1.328 . S
C558 C559 1.457 . S
C558 H563 0.929 . S
C559 C558 1.457 . S
C559 C560 1.291 . S
C559 H572 0.931 . S
C560 C559 1.291 . S
C560 C561 1.373 . S
C560 H573 0.929 . S
C561 C560 1.373 . S
C561 C562 1.396 . S
C561 C568 1.403 . S
C562 C552 1.476 . S
C562 N557 1.318 . S
C562 C561 1.396 . S
H563 C558 0.929 . S
O564 Mn540 2.385 . S
O564 C542 1.234 . S
O565 Mn540 2.209 . S
O565 Mn541 2.215 . S
O565 C542 1.283 . S
O566 Mn540 2.094 . S
O566 C544 1.240 . S
O567 Mn541 2.117 . S
O567 C544 1.264 . S
C568 C561 1.403 . S
C568 C569 1.399 . S
C568 H574 0.929 . S
C569 C549 1.449 . S
C569 C568 1.399 . S
C569 H575 0.930 . S
H570 C550 0.931 . S
H571 C551 0.930 . S
H572 C559 0.931 . S
H573 C560 0.929 . S
H574 C568 0.929 . S
H575 C569 0.930 . S
C576 C577 1.349 . S
C576 C578 1.327 . S
C576 H601 0.950 . S
C577 C576 1.349 . S
C577 C593 1.349 . S
C578 C576 1.327 . S
C578 C597 1.429 . S
C578 H602 0.950 . S
C579 C596 1.574 . S
C579 C598 1.368 . S
C579 H603 0.949 . S
H580 C584 0.949 . S
C581 C582 1.349 . S
C581 C583 1.327 . S
C581 H604 0.950 . S
C582 C581 1.349 . S
C582 C594 1.349 . S
C583 C581 1.327 . S
C583 C599 1.429 . S
C583 H605 0.950 . S
C584 H580 0.949 . S
C584 C592 1.574 . S
C584 C600 1.368 . S
H585 C593 0.950 . S
H586 C591 0.950 . S
H587 C592 0.949 . S
H588 C594 0.950 . S
H589 C595 0.950 . S
H590 C596 0.949 . S
C591 H586 0.950 . S
C591 C593 1.327 . S
C591 C597 1.429 . S
C592 C584 1.574 . S
C592 H587 0.949 . S
C592 C598 1.368 . S
C593 C577 1.349 . S
C593 H585 0.950 . S
C593 C591 1.327 . S
C594 C582 1.349 . S
C594 H588 0.950 . S
C594 C595 1.327 . S
C595 H589 0.950 . S
C595 C594 1.327 . S
C595 C599 1.429 . S
C596 C579 1.574 . S
C596 H590 0.949 . S
C596 C600 1.368 . S
C597 C578 1.429 . S
C597 C591 1.429 . S
C597 C598 1.523 . S
C598 C579 1.368 . S
C598 C592 1.368 . S
C598 C597 1.523 . S
C599 C583 1.429 . S
C599 C595 1.429 . S
C599 C600 1.523 . S
C600 C584 1.368 . S
C600 C596 1.368 . S
C600 C599 1.523 . S
H601 C576 0.950 . S
H602 C578 0.950 . S
H603 C579 0.949 . S
H604 C581 0.950 . S
H605 C583 0.950 . S
C606 C607 1.349 . S
C606 C608 1.327 . S
C606 H631 0.950 . S
C607 C606 1.349 . S
C607 C623 1.349 . S
C608 C606 1.327 . S
C608 C627 1.429 . S
C608 H632 0.950 . S
C609 C626 1.574 . S
C609 C628 1.368 . S
C609 H633 0.949 . S
H610 C614 0.949 . S
C611 C612 1.349 . S
C611 C613 1.327 . S
C611 H634 0.950 . S
C612 C611 1.349 . S
C612 C624 1.349 . S
C613 C611 1.327 . S
C613 C629 1.429 . S
C613 H635 0.950 . S
C614 H610 0.949 . S
C614 C622 1.574 . S
C614 C630 1.368 . S
H615 C623 0.950 . S
H616 C621 0.950 . S
H617 C622 0.949 . S
H618 C624 0.950 . S
H619 C625 0.950 . S
H620 C626 0.949 . S
C621 H616 0.950 . S
C621 C623 1.327 . S
C621 C627 1.429 . S
C622 C614 1.574 . S
C622 H617 0.949 . S
C622 C628 1.368 . S
C623 C607 1.349 . S
C623 H615 0.950 . S
C623 C621 1.327 . S
C624 C612 1.349 . S
C624 H618 0.950 . S
C624 C625 1.327 . S
C625 H619 0.950 . S
C625 C624 1.327 . S
C625 C629 1.429 . S
C626 C609 1.574 . S
C626 H620 0.949 . S
C626 C630 1.368 . S
C627 C608 1.429 . S
C627 C621 1.429 . S
C627 C628 1.523 . S
C628 C609 1.368 . S
C628 C622 1.368 . S
C628 C627 1.523 . S
C629 C613 1.429 . S
C629 C625 1.429 . S
C629 C630 1.523 . S
C630 C614 1.368 . S
C630 C626 1.368 . S
C630 C629 1.523 . S
H631 C606 0.950 . S
H632 C608 0.950 . S
H633 C609 0.949 . S
H634 C611 0.950 . S
H635 C613 0.950 . S
C636 C637 1.349 . S
C636 C638 1.327 . S
C636 H661 0.950 . S
C637 C636 1.349 . S
C637 C653 1.349 . S
C638 C636 1.327 . S
C638 C657 1.429 . S
C638 H662 0.950 . S
C639 C656 1.574 . S
C639 C658 1.368 . S
C639 H663 0.949 . S
H640 C644 0.949 . S
C641 C642 1.349 . S
C641 C643 1.327 . S
C641 H664 0.950 . S
C642 C641 1.349 . S
C642 C654 1.349 . S
C643 C641 1.327 . S
C643 C659 1.429 . S
C643 H665 0.950 . S
C644 H640 0.949 . S
C644 C652 1.574 . S
C644 C660 1.368 . S
H645 C653 0.950 . S
H646 C651 0.950 . S
H647 C652 0.949 . S
H648 C654 0.950 . S
H649 C655 0.950 . S
H650 C656 0.949 . S
C651 H646 0.950 . S
C651 C653 1.327 . S
C651 C657 1.429 . S
C652 C644 1.574 . S
C652 H647 0.949 . S
C652 C658 1.368 . S
C653 C637 1.349 . S
C653 H645 0.950 . S
C653 C651 1.327 . S
C654 C642 1.349 . S
C654 H648 0.950 . S
C654 C655 1.327 . S
C655 H649 0.950 . S
C655 C654 1.327 . S
C655 C659 1.429 . S
C656 C639 1.574 . S
C656 H650 0.949 . S
C656 C660 1.368 . S
C657 C638 1.429 . S
C657 C651 1.429 . S
C657 C658 1.523 . S
C658 C639 1.368 . S
C658 C652 1.368 . S
C658 C657 1.523 . S
C659 C643 1.429 . S
C659 C655 1.429 . S
C659 C660 1.523 . S
C660 C644 1.368 . S
C660 C656 1.368 . S
C660 C659 1.523 . S
H661 C636 0.950 . S
H662 C638 0.950 . S
H663 C639 0.949 . S
H664 C641 0.950 . S
H665 C643 0.950 . S
C666 C667 1.349 . S
C666 C668 1.327 . S
C666 H691 0.950 . S
C667 C666 1.349 . S
C667 C683 1.349 . S
C668 C666 1.327 . S
C668 C687 1.429 . S
C668 H692 0.950 . S
C669 C686 1.574 . S
C669 C688 1.368 . S
C669 H693 0.949 . S
H670 C674 0.949 . S
C671 C672 1.349 . S
C671 C673 1.327 . S
C671 H694 0.950 . S
C672 C671 1.349 . S
C672 C684 1.349 . S
C673 C671 1.327 . S
C673 C689 1.429 . S
C673 H695 0.950 . S
C674 H670 0.949 . S
C674 C682 1.574 . S
C674 C690 1.368 . S
H675 C683 0.950 . S
H676 C681 0.950 . S
H677 C682 0.949 . S
H678 C684 0.950 . S
H679 C685 0.950 . S
H680 C686 0.949 . S
C681 H676 0.950 . S
C681 C683 1.327 . S
C681 C687 1.429 . S
C682 C674 1.574 . S
C682 H677 0.949 . S
C682 C688 1.368 . S
C683 C667 1.349 . S
C683 H675 0.950 . S
C683 C681 1.327 . S
C684 C672 1.349 . S
C684 H678 0.950 . S
C684 C685 1.327 . S
C685 H679 0.950 . S
C685 C684 1.327 . S
C685 C689 1.429 . S
C686 C669 1.574 . S
C686 H680 0.949 . S
C686 C690 1.368 . S
C687 C668 1.429 . S
C687 C681 1.429 . S
C687 C688 1.523 . S
C688 C669 1.368 . S
C688 C682 1.368 . S
C688 C687 1.523 . S
C689 C673 1.429 . S
C689 C685 1.429 . S
C689 C690 1.523 . S
C690 C674 1.368 . S
C690 C686 1.368 . S
C690 C689 1.523 . S
H691 C666 0.950 . S
H692 C668 0.950 . S
H693 C669 0.949 . S
H694 C671 0.950 . S
H695 C673 0.950 . S
C696 C697 1.349 . S
C696 C698 1.327 . S
C696 H721 0.950 . S
C697 C696 1.349 . S
C697 C713 1.349 . S
C698 C696 1.327 . S
C698 C717 1.429 . S
C698 H722 0.950 . S
C699 C716 1.574 . S
C699 C718 1.368 . S
C699 H723 0.949 . S
H700 C704 0.949 . S
C701 C702 1.349 . S
C701 C703 1.327 . S
C701 H724 0.950 . S
C702 C701 1.349 . S
C702 C714 1.349 . S
C703 C701 1.327 . S
C703 C719 1.429 . S
C703 H725 0.950 . S
C704 H700 0.949 . S
C704 C712 1.574 . S
C704 C720 1.368 . S
H705 C713 0.950 . S
H706 C711 0.950 . S
H707 C712 0.949 . S
H708 C714 0.950 . S
H709 C715 0.950 . S
H710 C716 0.949 . S
C711 H706 0.950 . S
C711 C713 1.327 . S
C711 C717 1.429 . S
C712 C704 1.574 . S
C712 H707 0.949 . S
C712 C718 1.368 . S
C713 C697 1.349 . S
C713 H705 0.950 . S
C713 C711 1.327 . S
C714 C702 1.349 . S
C714 H708 0.950 . S
C714 C715 1.327 . S
C715 H709 0.950 . S
C715 C714 1.327 . S
C715 C719 1.429 . S
C716 C699 1.574 . S
C716 H710 0.949 . S
C716 C720 1.368 . S
C717 C698 1.429 . S
C717 C711 1.429 . S
C717 C718 1.523 . S
C718 C699 1.368 . S
C718 C712 1.368 . S
C718 C717 1.523 . S
C719 C703 1.429 . S
C719 C715 1.429 . S
C719 C720 1.523 . S
C720 C704 1.368 . S
C720 C716 1.368 . S
C720 C719 1.523 . S
H721 C696 0.950 . S
H722 C698 0.950 . S
H723 C699 0.949 . S
H724 C701 0.950 . S
H725 C703 0.950 . S
C726 C727 1.349 . S
C726 C728 1.327 . S
C726 H751 0.950 . S
C727 C726 1.349 . S
C727 C743 1.349 . S
C728 C726 1.327 . S
C728 C747 1.429 . S
C728 H752 0.950 . S
C729 C746 1.574 . S
C729 C748 1.368 . S
C729 H753 0.949 . S
H730 C734 0.949 . S
C731 C732 1.349 . S
C731 C733 1.327 . S
C731 H754 0.950 . S
C732 C731 1.349 . S
C732 C744 1.349 . S
C733 C731 1.327 . S
C733 C749 1.429 . S
C733 H755 0.950 . S
C734 H730 0.949 . S
C734 C742 1.574 . S
C734 C750 1.368 . S
H735 C743 0.950 . S
H736 C741 0.950 . S
H737 C742 0.949 . S
H738 C744 0.950 . S
H739 C745 0.950 . S
H740 C746 0.949 . S
C741 H736 0.950 . S
C741 C743 1.327 . S
C741 C747 1.429 . S
C742 C734 1.574 . S
C742 H737 0.949 . S
C742 C748 1.368 . S
C743 C727 1.349 . S
C743 H735 0.950 . S
C743 C741 1.327 . S
C744 C732 1.349 . S
C744 H738 0.950 . S
C744 C745 1.327 . S
C745 H739 0.950 . S
C745 C744 1.327 . S
C745 C749 1.429 . S
C746 C729 1.574 . S
C746 H740 0.949 . S
C746 C750 1.368 . S
C747 C728 1.429 . S
C747 C741 1.429 . S
C747 C748 1.523 . S
C748 C729 1.368 . S
C748 C742 1.368 . S
C748 C747 1.523 . S
C749 C733 1.429 . S
C749 C745 1.429 . S
C749 C750 1.523 . S
C750 C734 1.368 . S
C750 C746 1.368 . S
C750 C749 1.523 . S
H751 C726 0.950 . S
H752 C728 0.950 . S
H753 C729 0.949 . S
H754 C731 0.950 . S
H755 C733 0.950 . S
C756 C757 1.349 . S
C756 C758 1.327 . S
C756 H781 0.950 . S
C757 C756 1.349 . S
C757 C773 1.349 . S
C758 C756 1.327 . S
C758 C777 1.429 . S
C758 H782 0.950 . S
C759 C776 1.574 . S
C759 C778 1.368 . S
C759 H783 0.949 . S
H760 C764 0.949 . S
C761 C762 1.349 . S
C761 C763 1.327 . S
C761 H784 0.950 . S
C762 C761 1.349 . S
C762 C774 1.349 . S
C763 C761 1.327 . S
C763 C779 1.429 . S
C763 H785 0.950 . S
C764 H760 0.949 . S
C764 C772 1.574 . S
C764 C780 1.368 . S
H765 C773 0.950 . S
H766 C771 0.950 . S
H767 C772 0.949 . S
H768 C774 0.950 . S
H769 C775 0.950 . S
H770 C776 0.949 . S
C771 H766 0.950 . S
C771 C773 1.327 . S
C771 C777 1.429 . S
C772 C764 1.574 . S
C772 H767 0.949 . S
C772 C778 1.368 . S
C773 C757 1.349 . S
C773 H765 0.950 . S
C773 C771 1.327 . S
C774 C762 1.349 . S
C774 H768 0.950 . S
C774 C775 1.327 . S
C775 H769 0.950 . S
C775 C774 1.327 . S
C775 C779 1.429 . S
C776 C759 1.574 . S
C776 H770 0.949 . S
C776 C780 1.368 . S
C777 C758 1.429 . S
C777 C771 1.429 . S
C777 C778 1.523 . S
C778 C759 1.368 . S
C778 C772 1.368 . S
C778 C777 1.523 . S
C779 C763 1.429 . S
C779 C775 1.429 . S
C779 C780 1.523 . S
C780 C764 1.368 . S
C780 C776 1.368 . S
C780 C779 1.523 . S
H781 C756 0.950 . S
H782 C758 0.950 . S
H783 C759 0.949 . S
H784 C761 0.950 . S
H785 C763 0.950 . S
C786 C787 1.349 . S
C786 C788 1.327 . S
C786 H811 0.950 . S
C787 C786 1.349 . S
C787 C803 1.349 . S
C788 C786 1.327 . S
C788 C807 1.429 . S
C788 H812 0.950 . S
C789 C806 1.574 . S
C789 C808 1.368 . S
C789 H813 0.949 . S
H790 C794 0.949 . S
C791 C792 1.349 . S
C791 C793 1.327 . S
C791 H814 0.950 . S
C792 C791 1.349 . S
C792 C804 1.349 . S
C793 C791 1.327 . S
C793 C809 1.429 . S
C793 H815 0.950 . S
C794 H790 0.949 . S
C794 C802 1.574 . S
C794 C810 1.368 . S
H795 C803 0.950 . S
H796 C801 0.950 . S
H797 C802 0.949 . S
H798 C804 0.950 . S
H799 C805 0.950 . S
H800 C806 0.949 . S
C801 H796 0.950 . S
C801 C803 1.327 . S
C801 C807 1.429 . S
C802 C794 1.574 . S
C802 H797 0.949 . S
C802 C808 1.368 . S
C803 C787 1.349 . S
C803 H795 0.950 . S
C803 C801 1.327 . S
C804 C792 1.349 . S
C804 H798 0.950 . S
C804 C805 1.327 . S
C805 H799 0.950 . S
C805 C804 1.327 . S
C805 C809 1.429 . S
C806 C789 1.574 . S
C806 H800 0.949 . S
C806 C810 1.368 . S
C807 C788 1.429 . S
C807 C801 1.429 . S
C807 C808 1.523 . S
C808 C789 1.368 . S
C808 C802 1.368 . S
C808 C807 1.523 . S
C809 C793 1.429 . S
C809 C805 1.429 . S
C809 C810 1.523 . S
C810 C794 1.368 . S
C810 C806 1.368 . S
C810 C809 1.523 . S
H811 C786 0.950 . S
H812 C788 0.950 . S
H813 C789 0.949 . S
H814 C791 0.950 . S
H815 C793 0.950 . S
C816 C817 1.349 . S
C816 C818 1.327 . S
C816 H841 0.950 . S
C817 C816 1.349 . S
C817 C833 1.349 . S
C818 C816 1.327 . S
C818 C837 1.429 . S
C818 H842 0.950 . S
C819 C836 1.574 . S
C819 C838 1.368 . S
C819 H843 0.949 . S
H820 C824 0.949 . S
C821 C822 1.349 . S
C821 C823 1.327 . S
C821 H844 0.950 . S
C822 C821 1.349 . S
C822 C834 1.349 . S
C823 C821 1.327 . S
C823 C839 1.429 . S
C823 H845 0.950 . S
C824 H820 0.949 . S
C824 C832 1.574 . S
C824 C840 1.368 . S
H825 C833 0.950 . S
H826 C831 0.950 . S
H827 C832 0.949 . S
H828 C834 0.950 . S
H829 C835 0.950 . S
H830 C836 0.949 . S
C831 H826 0.950 . S
C831 C833 1.327 . S
C831 C837 1.429 . S
C832 C824 1.574 . S
C832 H827 0.949 . S
C832 C838 1.368 . S
C833 C817 1.349 . S
C833 H825 0.950 . S
C833 C831 1.327 . S
C834 C822 1.349 . S
C834 H828 0.950 . S
C834 C835 1.327 . S
C835 H829 0.950 . S
C835 C834 1.327 . S
C835 C839 1.429 . S
C836 C819 1.574 . S
C836 H830 0.949 . S
C836 C840 1.368 . S
C837 C818 1.429 . S
C837 C831 1.429 . S
C837 C838 1.523 . S
C838 C819 1.368 . S
C838 C832 1.368 . S
C838 C837 1.523 . S
C839 C823 1.429 . S
C839 C835 1.429 . S
C839 C840 1.523 . S
C840 C824 1.368 . S
C840 C836 1.368 . S
C840 C839 1.523 . S
H841 C816 0.950 . S
H842 C818 0.950 . S
H843 C819 0.949 . S
H844 C821 0.950 . S
H845 C823 0.950 . S
C846 C847 1.349 . S
C846 C848 1.327 . S
C846 H871 0.950 . S
C847 C846 1.349 . S
C847 C863 1.349 . S
C848 C846 1.327 . S
C848 C867 1.429 . S
C848 H872 0.950 . S
C849 C866 1.574 . S
C849 C868 1.368 . S
C849 H873 0.949 . S
H850 C854 0.949 . S
C851 C852 1.349 . S
C851 C853 1.327 . S
C851 H874 0.950 . S
C852 C851 1.349 . S
C852 C864 1.349 . S
C853 C851 1.327 . S
C853 C869 1.429 . S
C853 H875 0.950 . S
C854 H850 0.949 . S
C854 C862 1.574 . S
C854 C870 1.368 . S
H855 C863 0.950 . S
H856 C861 0.950 . S
H857 C862 0.949 . S
H858 C864 0.950 . S
H859 C865 0.950 . S
H860 C866 0.949 . S
C861 H856 0.950 . S
C861 C863 1.327 . S
C861 C867 1.429 . S
C862 C854 1.574 . S
C862 H857 0.949 . S
C862 C868 1.368 . S
C863 C847 1.349 . S
C863 H855 0.950 . S
C863 C861 1.327 . S
C864 C852 1.349 . S
C864 H858 0.950 . S
C864 C865 1.327 . S
C865 H859 0.950 . S
C865 C864 1.327 . S
C865 C869 1.429 . S
C866 C849 1.574 . S
C866 H860 0.949 . S
C866 C870 1.368 . S
C867 C848 1.429 . S
C867 C861 1.429 . S
C867 C868 1.523 . S
C868 C849 1.368 . S
C868 C862 1.368 . S
C868 C867 1.523 . S
C869 C853 1.429 . S
C869 C865 1.429 . S
C869 C870 1.523 . S
C870 C854 1.368 . S
C870 C866 1.368 . S
C870 C869 1.523 . S
H871 C846 0.950 . S
H872 C848 0.950 . S
H873 C849 0.949 . S
H874 C851 0.950 . S
H875 C853 0.950 . S
C876 C877 1.349 . S
C876 C878 1.327 . S
C876 H901 0.950 . S
C877 C876 1.349 . S
C877 C893 1.349 . S
C878 C876 1.327 . S
C878 C897 1.429 . S
C878 H902 0.950 . S
C879 C896 1.574 . S
C879 C898 1.368 . S
C879 H903 0.949 . S
H880 C884 0.949 . S
C881 C882 1.349 . S
C881 C883 1.327 . S
C881 H904 0.950 . S
C882 C881 1.349 . S
C882 C894 1.349 . S
C883 C881 1.327 . S
C883 C899 1.429 . S
C883 H905 0.950 . S
C884 H880 0.949 . S
C884 C892 1.574 . S
C884 C900 1.368 . S
H885 C893 0.950 . S
H886 C891 0.950 . S
H887 C892 0.949 . S
H888 C894 0.950 . S
H889 C895 0.950 . S
H890 C896 0.949 . S
C891 H886 0.950 . S
C891 C893 1.327 . S
C891 C897 1.429 . S
C892 C884 1.574 . S
C892 H887 0.949 . S
C892 C898 1.368 . S
C893 C877 1.349 . S
C893 H885 0.950 . S
C893 C891 1.327 . S
C894 C882 1.349 . S
C894 H888 0.950 . S
C894 C895 1.327 . S
C895 H889 0.950 . S
C895 C894 1.327 . S
C895 C899 1.429 . S
C896 C879 1.574 . S
C896 H890 0.949 . S
C896 C900 1.368 . S
C897 C878 1.429 . S
C897 C891 1.429 . S
C897 C898 1.523 . S
C898 C879 1.368 . S
C898 C892 1.368 . S
C898 C897 1.523 . S
C899 C883 1.429 . S
C899 C895 1.429 . S
C899 C900 1.523 . S
C900 C884 1.368 . S
C900 C896 1.368 . S
C900 C899 1.523 . S
H901 C876 0.950 . S
H902 C878 0.950 . S
H903 C879 0.949 . S
H904 C881 0.950 . S
H905 C883 0.950 . S
C906 C907 1.349 . S
C906 C908 1.327 . S
C906 H931 0.950 . S
C907 C906 1.349 . S
C907 C923 1.349 . S
C908 C906 1.327 . S
C908 C927 1.429 . S
C908 H932 0.950 . S
C909 C926 1.574 . S
C909 C928 1.368 . S
C909 H933 0.949 . S
H910 C914 0.949 . S
C911 C912 1.349 . S
C911 C913 1.327 . S
C911 H934 0.950 . S
C912 C911 1.349 . S
C912 C924 1.349 . S
C913 C911 1.327 . S
C913 C929 1.429 . S
C913 H935 0.950 . S
C914 H910 0.949 . S
C914 C922 1.574 . S
C914 C930 1.368 . S
H915 C923 0.950 . S
H916 C921 0.950 . S
H917 C922 0.949 . S
H918 C924 0.950 . S
H919 C925 0.950 . S
H920 C926 0.949 . S
C921 H916 0.950 . S
C921 C923 1.327 . S
C921 C927 1.429 . S
C922 C914 1.574 . S
C922 H917 0.949 . S
C922 C928 1.368 . S
C923 C907 1.349 . S
C923 H915 0.950 . S
C923 C921 1.327 . S
C924 C912 1.349 . S
C924 H918 0.950 . S
C924 C925 1.327 . S
C925 H919 0.950 . S
C925 C924 1.327 . S
C925 C929 1.429 . S
C926 C909 1.574 . S
C926 H920 0.949 . S
C926 C930 1.368 . S
C927 C908 1.429 . S
C927 C921 1.429 . S
C927 C928 1.523 . S
C928 C909 1.368 . S
C928 C922 1.368 . S
C928 C927 1.523 . S
C929 C913 1.429 . S
C929 C925 1.429 . S
C929 C930 1.523 . S
C930 C914 1.368 . S
C930 C926 1.368 . S
C930 C929 1.523 . S
H931 C906 0.950 . S
H932 C908 0.950 . S
H933 C909 0.949 . S
H934 C911 0.950 . S
H935 C913 0.950 . S
C936 C937 1.349 . S
C936 C938 1.327 . S
C936 H961 0.950 . S
C937 C936 1.349 . S
C937 C953 1.349 . S
C938 C936 1.327 . S
C938 C957 1.429 . S
C938 H962 0.950 . S
C939 C956 1.574 . S
C939 C958 1.368 . S
C939 H963 0.949 . S
H940 C944 0.949 . S
C941 C942 1.349 . S
C941 C943 1.327 . S
C941 H964 0.950 . S
C942 C941 1.349 . S
C942 C954 1.349 . S
C943 C941 1.327 . S
C943 C959 1.429 . S
C943 H965 0.950 . S
C944 H940 0.949 . S
C944 C952 1.574 . S
C944 C960 1.368 . S
H945 C953 0.950 . S
H946 C951 0.950 . S
H947 C952 0.949 . S
H948 C954 0.950 . S
H949 C955 0.950 . S
H950 C956 0.949 . S
C951 H946 0.950 . S
C951 C953 1.327 . S
C951 C957 1.429 . S
C952 C944 1.574 . S
C952 H947 0.949 . S
C952 C958 1.368 . S
C953 C937 1.349 . S
C953 H945 0.950 . S
C953 C951 1.327 . S
C954 C942 1.349 . S
C954 H948 0.950 . S
C954 C955 1.327 . S
C955 H949 0.950 . S
C955 C954 1.327 . S
C955 C959 1.429 . S
C956 C939 1.574 . S
C956 H950 0.949 . S
C956 C960 1.368 . S
C957 C938 1.429 . S
C957 C951 1.429 . S
C957 C958 1.523 . S
C958 C939 1.368 . S
C958 C952 1.368 . S
C958 C957 1.523 . S
C959 C943 1.429 . S
C959 C955 1.429 . S
C959 C960 1.523 . S
C960 C944 1.368 . S
C960 C956 1.368 . S
C960 C959 1.523 . S
H961 C936 0.950 . S
H962 C938 0.950 . S
H963 C939 0.949 . S
H964 C941 0.950 . S
H965 C943 0.950 . S
C966 C967 1.349 . S
C966 C968 1.327 . S
C966 H991 0.950 . S
C967 C966 1.349 . S
C967 C983 1.349 . S
C968 C966 1.327 . S
C968 C987 1.429 . S
C968 H992 0.950 . S
C969 C986 1.574 . S
C969 C988 1.368 . S
C969 H993 0.949 . S
H970 C974 0.949 . S
C971 C972 1.349 . S
C971 C973 1.327 . S
C971 H994 0.950 . S
C972 C971 1.349 . S
C972 C984 1.349 . S
C973 C971 1.327 . S
C973 C989 1.429 . S
C973 H995 0.950 . S
C974 H970 0.949 . S
C974 C982 1.574 . S
C974 C990 1.368 . S
H975 C983 0.950 . S
H976 C981 0.950 . S
H977 C982 0.949 . S
H978 C984 0.950 . S
H979 C985 0.950 . S
H980 C986 0.949 . S
C981 H976 0.950 . S
C981 C983 1.327 . S
C981 C987 1.429 . S
C982 C974 1.574 . S
C982 H977 0.949 . S
C982 C988 1.368 . S
C983 C967 1.349 . S
C983 H975 0.950 . S
C983 C981 1.327 . S
C984 C972 1.349 . S
C984 H978 0.950 . S
C984 C985 1.327 . S
C985 H979 0.950 . S
C985 C984 1.327 . S
C985 C989 1.429 . S
C986 C969 1.574 . S
C986 H980 0.949 . S
C986 C990 1.368 . S
C987 C968 1.429 . S
C987 C981 1.429 . S
C987 C988 1.523 . S
C988 C969 1.368 . S
C988 C982 1.368 . S
C988 C987 1.523 . S
C989 C973 1.429 . S
C989 C985 1.429 . S
C989 C990 1.523 . S
C990 C974 1.368 . S
C990 C986 1.368 . S
C990 C989 1.523 . S
H991 C966 0.950 . S
H992 C968 0.950 . S
H993 C969 0.949 . S
H994 C971 0.950 . S
H995 C973 0.950 . S
C996 C997 1.349 . S
C996 C998 1.327 . S
C996 H1021 0.950 . S
C997 C996 1.349 . S
C997 C1013 1.349 . S
C998 C996 1.327 . S
C998 C1017 1.429 . S
C998 H1022 0.950 . S
C999 C1016 1.574 . S
C999 C1018 1.368 . S
C999 H1023 0.949 . S
H1000 C1004 0.949 . S
C1001 C1002 1.349 . S
C1001 C1003 1.327 . S
C1001 H1024 0.950 . S
C1002 C1001 1.349 . S
C1002 C1014 1.349 . S
C1003 C1001 1.327 . S
C1003 C1019 1.429 . S
C1003 H1025 0.950 . S
C1004 H1000 0.949 . S
C1004 C1012 1.574 . S
C1004 C1020 1.368 . S
H1005 C1013 0.950 . S
H1006 C1011 0.950 . S
H1007 C1012 0.949 . S
H1008 C1014 0.950 . S
H1009 C1015 0.950 . S
H1010 C1016 0.949 . S
C1011 H1006 0.950 . S
C1011 C1013 1.327 . S
C1011 C1017 1.429 . S
C1012 C1004 1.574 . S
C1012 H1007 0.949 . S
C1012 C1018 1.368 . S
C1013 C997 1.349 . S
C1013 H1005 0.950 . S
C1013 C1011 1.327 . S
C1014 C1002 1.349 . S
C1014 H1008 0.950 . S
C1014 C1015 1.327 . S
C1015 H1009 0.950 . S
C1015 C1014 1.327 . S
C1015 C1019 1.429 . S
C1016 C999 1.574 . S
C1016 H1010 0.949 . S
C1016 C1020 1.368 . S
C1017 C998 1.429 . S
C1017 C1011 1.429 . S
C1017 C1018 1.523 . S
C1018 C999 1.368 . S
C1018 C1012 1.368 . S
C1018 C1017 1.523 . S
C1019 C1003 1.429 . S
C1019 C1015 1.429 . S
C1019 C1020 1.523 . S
C1020 C1004 1.368 . S
C1020 C1016 1.368 . S
C1020 C1019 1.523 . S
H1021 C996 0.950 . S
H1022 C998 0.950 . S
H1023 C999 0.949 . S
H1024 C1001 0.950 . S
H1025 C1003 0.950 . S
C1026 C1027 1.349 . S
C1026 C1028 1.327 . S
C1026 H1051 0.950 . S
C1027 C1026 1.349 . S
C1027 C1043 1.349 . S
C1028 C1026 1.327 . S
C1028 C1047 1.429 . S
C1028 H1052 0.950 . S
C1029 C1046 1.574 . S
C1029 C1048 1.368 . S
C1029 H1053 0.949 . S
H1030 C1034 0.949 . S
C1031 C1032 1.349 . S
C1031 C1033 1.327 . S
C1031 H1054 0.950 . S
C1032 C1031 1.349 . S
C1032 C1044 1.349 . S
C1033 C1031 1.327 . S
C1033 C1049 1.429 . S
C1033 H1055 0.950 . S
C1034 H1030 0.949 . S
C1034 C1042 1.574 . S
C1034 C1050 1.368 . S
H1035 C1043 0.950 . S
H1036 C1041 0.950 . S
H1037 C1042 0.949 . S
H1038 C1044 0.950 . S
H1039 C1045 0.950 . S
H1040 C1046 0.949 . S
C1041 H1036 0.950 . S
C1041 C1043 1.327 . S
C1041 C1047 1.429 . S
C1042 C1034 1.574 . S
C1042 H1037 0.949 . S
C1042 C1048 1.368 . S
C1043 C1027 1.349 . S
C1043 H1035 0.950 . S
C1043 C1041 1.327 . S
C1044 C1032 1.349 . S
C1044 H1038 0.950 . S
C1044 C1045 1.327 . S
C1045 H1039 0.950 . S
C1045 C1044 1.327 . S
C1045 C1049 1.429 . S
C1046 C1029 1.574 . S
C1046 H1040 0.949 . S
C1046 C1050 1.368 . S
C1047 C1028 1.429 . S
C1047 C1041 1.429 . S
C1047 C1048 1.523 . S
C1048 C1029 1.368 . S
C1048 C1042 1.368 . S
C1048 C1047 1.523 . S
C1049 C1033 1.429 . S
C1049 C1045 1.429 . S
C1049 C1050 1.523 . S
C1050 C1034 1.368 . S
C1050 C1046 1.368 . S
C1050 C1049 1.523 . S
H1051 C1026 0.950 . S
H1052 C1028 0.950 . S
H1053 C1029 0.949 . S
H1054 C1031 0.950 . S
H1055 C1033 0.950 . S
C1056 C1057 1.349 . S
C1056 C1058 1.327 . S
C1056 H1081 0.950 . S
C1057 C1056 1.349 . S
C1057 C1073 1.349 . S
C1058 C1056 1.327 . S
C1058 C1077 1.429 . S
C1058 H1082 0.950 . S
C1059 C1076 1.574 . S
C1059 C1078 1.368 . S
C1059 H1083 0.949 . S
H1060 C1064 0.949 . S
C1061 C1062 1.349 . S
C1061 C1063 1.327 . S
C1061 H1084 0.950 . S
C1062 C1061 1.349 . S
C1062 C1074 1.349 . S
C1063 C1061 1.327 . S
C1063 C1079 1.429 . S
C1063 H1085 0.950 . S
C1064 H1060 0.949 . S
C1064 C1072 1.574 . S
C1064 C1080 1.368 . S
H1065 C1073 0.950 . S
H1066 C1071 0.950 . S
H1067 C1072 0.949 . S
H1068 C1074 0.950 . S
H1069 C1075 0.950 . S
H1070 C1076 0.949 . S
C1071 H1066 0.950 . S
C1071 C1073 1.327 . S
C1071 C1077 1.429 . S
C1072 C1064 1.574 . S
C1072 H1067 0.949 . S
C1072 C1078 1.368 . S
C1073 C1057 1.349 . S
C1073 H1065 0.950 . S
C1073 C1071 1.327 . S
C1074 C1062 1.349 . S
C1074 H1068 0.950 . S
C1074 C1075 1.327 . S
C1075 H1069 0.950 . S
C1075 C1074 1.327 . S
C1075 C1079 1.429 . S
C1076 C1059 1.574 . S
C1076 H1070 0.949 . S
C1076 C1080 1.368 . S
C1077 C1058 1.429 . S
C1077 C1071 1.429 . S
C1077 C1078 1.523 . S
C1078 C1059 1.368 . S
C1078 C1072 1.368 . S
C1078 C1077 1.523 . S
C1079 C1063 1.429 . S
C1079 C1075 1.429 . S
C1079 C1080 1.523 . S
C1080 C1064 1.368 . S
C1080 C1076 1.368 . S
C1080 C1079 1.523 . S
H1081 C1056 0.950 . S
H1082 C1058 0.950 . S
H1083 C1059 0.949 . S
H1084 C1061 0.950 . S
H1085 C1063 0.950 . S
C1086 C1087 1.349 . S
C1086 C1088 1.327 . S
C1086 H1111 0.950 . S
C1087 C1086 1.349 . S
C1087 C1103 1.349 . S
C1088 C1086 1.327 . S
C1088 C1107 1.429 . S
C1088 H1112 0.950 . S
C1089 C1106 1.574 . S
C1089 C1108 1.368 . S
C1089 H1113 0.949 . S
H1090 C1094 0.949 . S
C1091 C1092 1.349 . S
C1091 C1093 1.327 . S
C1091 H1114 0.950 . S
C1092 C1091 1.349 . S
C1092 C1104 1.349 . S
C1093 C1091 1.327 . S
C1093 C1109 1.429 . S
C1093 H1115 0.950 . S
C1094 H1090 0.949 . S
C1094 C1102 1.574 . S
C1094 C1110 1.368 . S
H1095 C1103 0.950 . S
H1096 C1101 0.950 . S
H1097 C1102 0.949 . S
H1098 C1104 0.950 . S
H1099 C1105 0.950 . S
H1100 C1106 0.949 . S
C1101 H1096 0.950 . S
C1101 C1103 1.327 . S
C1101 C1107 1.429 . S
C1102 C1094 1.574 . S
C1102 H1097 0.949 . S
C1102 C1108 1.368 . S
C1103 C1087 1.349 . S
C1103 H1095 0.950 . S
C1103 C1101 1.327 . S
C1104 C1092 1.349 . S
C1104 H1098 0.950 . S
C1104 C1105 1.327 . S
C1105 H1099 0.950 . S
C1105 C1104 1.327 . S
C1105 C1109 1.429 . S
C1106 C1089 1.574 . S
C1106 H1100 0.949 . S
C1106 C1110 1.368 . S
C1107 C1088 1.429 . S
C1107 C1101 1.429 . S
C1107 C1108 1.523 . S
C1108 C1089 1.368 . S
C1108 C1102 1.368 . S
C1108 C1107 1.523 . S
C1109 C1093 1.429 . S
C1109 C1105 1.429 . S
C1109 C1110 1.523 . S
C1110 C1094 1.368 . S
C1110 C1106 1.368 . S
C1110 C1109 1.523 . S
H1111 C1086 0.950 . S
H1112 C1088 0.950 . S
H1113 C1089 0.949 . S
H1114 C1091 0.950 . S
H1115 C1093 0.950 . S
C1116 C1117 1.349 . S
C1116 C1118 1.327 . S
C1116 H1141 0.950 . S
C1117 C1116 1.349 . S
C1117 C1133 1.349 . S
C1118 C1116 1.327 . S
C1118 C1137 1.429 . S
C1118 H1142 0.950 . S
C1119 C1136 1.574 . S
C1119 C1138 1.368 . S
C1119 H1143 0.949 . S
H1120 C1124 0.949 . S
C1121 C1122 1.349 . S
C1121 C1123 1.327 . S
C1121 H1144 0.950 . S
C1122 C1121 1.349 . S
C1122 C1134 1.349 . S
C1123 C1121 1.327 . S
C1123 C1139 1.429 . S
C1123 H1145 0.950 . S
C1124 H1120 0.949 . S
C1124 C1132 1.574 . S
C1124 C1140 1.368 . S
H1125 C1133 0.950 . S
H1126 C1131 0.950 . S
H1127 C1132 0.949 . S
H1128 C1134 0.950 . S
H1129 C1135 0.950 . S
H1130 C1136 0.949 . S
C1131 H1126 0.950 . S
C1131 C1133 1.327 . S
C1131 C1137 1.429 . S
C1132 C1124 1.574 . S
C1132 H1127 0.949 . S
C1132 C1138 1.368 . S
C1133 C1117 1.349 . S
C1133 H1125 0.950 . S
C1133 C1131 1.327 . S
C1134 C1122 1.349 . S
C1134 H1128 0.950 . S
C1134 C1135 1.327 . S
C1135 H1129 0.950 . S
C1135 C1134 1.327 . S
C1135 C1139 1.429 . S
C1136 C1119 1.574 . S
C1136 H1130 0.949 . S
C1136 C1140 1.368 . S
C1137 C1118 1.429 . S
C1137 C1131 1.429 . S
C1137 C1138 1.523 . S
C1138 C1119 1.368 . S
C1138 C1132 1.368 . S
C1138 C1137 1.523 . S
C1139 C1123 1.429 . S
C1139 C1135 1.429 . S
C1139 C1140 1.523 . S
C1140 C1124 1.368 . S
C1140 C1136 1.368 . S
C1140 C1139 1.523 . S
H1141 C1116 0.950 . S
H1142 C1118 0.950 . S
H1143 C1119 0.949 . S
H1144 C1121 0.950 . S
H1145 C1123 0.950 . S
C1146 C1147 1.349 . S
C1146 C1148 1.327 . S
C1146 H1171 0.950 . S
C1147 C1146 1.349 . S
C1147 C1163 1.349 . S
C1148 C1146 1.327 . S
C1148 C1167 1.429 . S
C1148 H1172 0.950 . S
C1149 C1166 1.574 . S
C1149 C1168 1.368 . S
C1149 H1173 0.949 . S
H1150 C1154 0.949 . S
C1151 C1152 1.349 . S
C1151 C1153 1.327 . S
C1151 H1174 0.950 . S
C1152 C1151 1.349 . S
C1152 C1164 1.349 . S
C1153 C1151 1.327 . S
C1153 C1169 1.429 . S
C1153 H1175 0.950 . S
C1154 H1150 0.949 . S
C1154 C1162 1.574 . S
C1154 C1170 1.368 . S
H1155 C1163 0.950 . S
H1156 C1161 0.950 . S
H1157 C1162 0.949 . S
H1158 C1164 0.950 . S
H1159 C1165 0.950 . S
H1160 C1166 0.949 . S
C1161 H1156 0.950 . S
C1161 C1163 1.327 . S
C1161 C1167 1.429 . S
C1162 C1154 1.574 . S
C1162 H1157 0.949 . S
C1162 C1168 1.368 . S
C1163 C1147 1.349 . S
C1163 H1155 0.950 . S
C1163 C1161 1.327 . S
C1164 C1152 1.349 . S
C1164 H1158 0.950 . S
C1164 C1165 1.327 . S
C1165 H1159 0.950 . S
C1165 C1164 1.327 . S
C1165 C1169 1.429 . S
C1166 C1149 1.574 . S
C1166 H1160 0.949 . S
C1166 C1170 1.368 . S
C1167 C1148 1.429 . S
C1167 C1161 1.429 . S
C1167 C1168 1.523 . S
C1168 C1149 1.368 . S
C1168 C1162 1.368 . S
C1168 C1167 1.523 . S
C1169 C1153 1.429 . S
C1169 C1165 1.429 . S
C1169 C1170 1.523 . S
C1170 C1154 1.368 . S
C1170 C1166 1.368 . S
C1170 C1169 1.523 . S
H1171 C1146 0.950 . S
H1172 C1148 0.950 . S
H1173 C1149 0.949 . S
H1174 C1151 0.950 . S
H1175 C1153 0.950 . S
C1176 C1177 1.349 . S
C1176 C1178 1.327 . S
C1176 H1201 0.950 . S
C1177 C1176 1.349 . S
C1177 C1193 1.349 . S
C1178 C1176 1.327 . S
C1178 C1197 1.429 . S
C1178 H1202 0.950 . S
C1179 C1196 1.574 . S
C1179 C1198 1.368 . S
C1179 H1203 0.949 . S
H1180 C1184 0.949 . S
C1181 C1182 1.349 . S
C1181 C1183 1.327 . S
C1181 H1204 0.950 . S
C1182 C1181 1.349 . S
C1182 C1194 1.349 . S
C1183 C1181 1.327 . S
C1183 C1199 1.429 . S
C1183 H1205 0.950 . S
C1184 H1180 0.949 . S
C1184 C1192 1.574 . S
C1184 C1200 1.368 . S
H1185 C1193 0.950 . S
H1186 C1191 0.950 . S
H1187 C1192 0.949 . S
H1188 C1194 0.950 . S
H1189 C1195 0.950 . S
H1190 C1196 0.949 . S
C1191 H1186 0.950 . S
C1191 C1193 1.327 . S
C1191 C1197 1.429 . S
C1192 C1184 1.574 . S
C1192 H1187 0.949 . S
C1192 C1198 1.368 . S
C1193 C1177 1.349 . S
C1193 H1185 0.950 . S
C1193 C1191 1.327 . S
C1194 C1182 1.349 . S
C1194 H1188 0.950 . S
C1194 C1195 1.327 . S
C1195 H1189 0.950 . S
C1195 C1194 1.327 . S
C1195 C1199 1.429 . S
C1196 C1179 1.574 . S
C1196 H1190 0.949 . S
C1196 C1200 1.368 . S
C1197 C1178 1.429 . S
C1197 C1191 1.429 . S
C1197 C1198 1.523 . S
C1198 C1179 1.368 . S
C1198 C1192 1.368 . S
C1198 C1197 1.523 . S
C1199 C1183 1.429 . S
C1199 C1195 1.429 . S
C1199 C1200 1.523 . S
C1200 C1184 1.368 . S
C1200 C1196 1.368 . S
C1200 C1199 1.523 . S
H1201 C1176 0.950 . S
H1202 C1178 0.950 . S
H1203 C1179 0.949 . S
H1204 C1181 0.950 . S
H1205 C1183 0.950 . S
C1206 C1207 1.349 . S
C1206 C1208 1.327 . S
C1206 H1231 0.950 . S
C1207 C1206 1.349 . S
C1207 C1223 1.349 . S
C1208 C1206 1.327 . S
C1208 C1227 1.429 . S
C1208 H1232 0.950 . S
C1209 C1226 1.574 . S
C1209 C1228 1.368 . S
C1209 H1233 0.949 . S
H1210 C1214 0.949 . S
C1211 C1212 1.349 . S
C1211 C1213 1.327 . S
C1211 H1234 0.950 . S
C1212 C1211 1.349 . S
C1212 C1224 1.349 . S
C1213 C1211 1.327 . S
C1213 C1229 1.429 . S
C1213 H1235 0.950 . S
C1214 H1210 0.949 . S
C1214 C1222 1.574 . S
C1214 C1230 1.368 . S
H1215 C1223 0.950 . S
H1216 C1221 0.950 . S
H1217 C1222 0.949 . S
H1218 C1224 0.950 . S
H1219 C1225 0.950 . S
H1220 C1226 0.949 . S
C1221 H1216 0.950 . S
C1221 C1223 1.327 . S
C1221 C1227 1.429 . S
C1222 C1214 1.574 . S
C1222 H1217 0.949 . S
C1222 C1228 1.368 . S
C1223 C1207 1.349 . S
C1223 H1215 0.950 . S
C1223 C1221 1.327 . S
C1224 C1212 1.349 . S
C1224 H1218 0.950 . S
C1224 C1225 1.327 . S
C1225 H1219 0.950 . S
C1225 C1224 1.327 . S
C1225 C1229 1.429 . S
C1226 C1209 1.574 . S
C1226 H1220 0.949 . S
C1226 C1230 1.368 . S
C1227 C1208 1.429 . S
C1227 C1221 1.429 . S
C1227 C1228 1.523 . S
C1228 C1209 1.368 . S
C1228 C1222 1.368 . S
C1228 C1227 1.523 . S
C1229 C1213 1.429 . S
C1229 C1225 1.429 . S
C1229 C1230 1.523 . S
C1230 C1214 1.368 . S
C1230 C1226 1.368 . S
C1230 C1229 1.523 . S
H1231 C1206 0.950 . S
H1232 C1208 0.950 . S
H1233 C1209 0.949 . S
H1234 C1211 0.950 . S
H1235 C1213 0.950 . S
C1236 C1237 1.349 . S
C1236 C1238 1.327 . S
C1236 H1261 0.950 . S
C1237 C1236 1.349 . S
C1237 C1253 1.349 . S
C1238 C1236 1.327 . S
C1238 C1257 1.429 . S
C1238 H1262 0.950 . S
C1239 C1256 1.574 . S
C1239 C1258 1.368 . S
C1239 H1263 0.949 . S
H1240 C1244 0.949 . S
C1241 C1242 1.349 . S
C1241 C1243 1.327 . S
C1241 H1264 0.950 . S
C1242 C1241 1.349 . S
C1242 C1254 1.349 . S
C1243 C1241 1.327 . S
C1243 C1259 1.429 . S
C1243 H1265 0.950 . S
C1244 H1240 0.949 . S
C1244 C1252 1.574 . S
C1244 C1260 1.368 . S
H1245 C1253 0.950 . S
H1246 C1251 0.950 . S
H1247 C1252 0.949 . S
H1248 C1254 0.950 . S
H1249 C1255 0.950 . S
H1250 C1256 0.949 . S
C1251 H1246 0.950 . S
C1251 C1253 1.327 . S
C1251 C1257 1.429 . S
C1252 C1244 1.574 . S
C1252 H1247 0.949 . S
C1252 C1258 1.368 . S
C1253 C1237 1.349 . S
C1253 H1245 0.950 . S
C1253 C1251 1.327 . S
C1254 C1242 1.349 . S
C1254 H1248 0.950 . S
C1254 C1255 1.327 . S
C1255 H1249 0.950 . S
C1255 C1254 1.327 . S
C1255 C1259 1.429 . S
C1256 C1239 1.574 . S
C1256 H1250 0.949 . S
C1256 C1260 1.368 . S
C1257 C1238 1.429 . S
C1257 C1251 1.429 . S
C1257 C1258 1.523 . S
C1258 C1239 1.368 . S
C1258 C1252 1.368 . S
C1258 C1257 1.523 . S
C1259 C1243 1.429 . S
C1259 C1255 1.429 . S
C1259 C1260 1.523 . S
C1260 C1244 1.368 . S
C1260 C1256 1.368 . S
C1260 C1259 1.523 . S
H1261 C1236 0.950 . S
H1262 C1238 0.950 . S
H1263 C1239 0.949 . S
H1264 C1241 0.950 . S
H1265 C1243 0.950 . S
C1266 C1267 1.349 . S
C1266 C1268 1.327 . S
C1266 H1291 0.950 . S
C1267 C1266 1.349 . S
C1267 C1283 1.349 . S
C1268 C1266 1.327 . S
C1268 C1287 1.429 . S
C1268 H1292 0.950 . S
C1269 C1286 1.574 . S
C1269 C1288 1.368 . S
C1269 H1293 0.949 . S
H1270 C1274 0.949 . S
C1271 C1272 1.349 . S
C1271 C1273 1.327 . S
C1271 H1294 0.950 . S
C1272 C1271 1.349 . S
C1272 C1284 1.349 . S
C1273 C1271 1.327 . S
C1273 C1289 1.429 . S
C1273 H1295 0.950 . S
C1274 H1270 0.949 . S
C1274 C1282 1.574 . S
C1274 C1290 1.368 . S
H1275 C1283 0.950 . S
H1276 C1281 0.950 . S
H1277 C1282 0.949 . S
H1278 C1284 0.950 . S
H1279 C1285 0.950 . S
H1280 C1286 0.949 . S
C1281 H1276 0.950 . S
C1281 C1283 1.327 . S
C1281 C1287 1.429 . S
C1282 C1274 1.574 . S
C1282 H1277 0.949 . S
C1282 C1288 1.368 . S
C1283 C1267 1.349 . S
C1283 H1275 0.950 . S
C1283 C1281 1.327 . S
C1284 C1272 1.349 . S
C1284 H1278 0.950 . S
C1284 C1285 1.327 . S
C1285 H1279 0.950 . S
C1285 C1284 1.327 . S
C1285 C1289 1.429 . S
C1286 C1269 1.574 . S
C1286 H1280 0.949 . S
C1286 C1290 1.368 . S
C1287 C1268 1.429 . S
C1287 C1281 1.429 . S
C1287 C1288 1.523 . S
C1288 C1269 1.368 . S
C1288 C1282 1.368 . S
C1288 C1287 1.523 . S
C1289 C1273 1.429 . S
C1289 C1285 1.429 . S
C1289 C1290 1.523 . S
C1290 C1274 1.368 . S
C1290 C1286 1.368 . S
C1290 C1289 1.523 . S
H1291 C1266 0.950 . S
H1292 C1268 0.950 . S
H1293 C1269 0.949 . S
H1294 C1271 0.950 . S
H1295 C1273 0.950 . S
C1296 C1297 1.349 . S
C1296 C1298 1.327 . S
C1296 H1321 0.950 . S
C1297 C1296 1.349 . S
C1297 C1313 1.349 . S
C1298 C1296 1.327 . S
C1298 C1317 1.429 . S
C1298 H1322 0.950 . S
C1299 C1316 1.574 1_554 S
C1299 C1318 1.368 . S
C1299 H1323 0.949 . S
H1300 C1304 0.949 . S
C1301 C1302 1.349 . S
C1301 C1303 1.327 . S
C1301 H1324 0.950 . S
C1302 C1301 1.349 . S
C1302 C1314 1.349 . S
C1303 C1301 1.327 . S
C1303 C1319 1.429 . S
C1303 H1325 0.950 . S
C1304 H1300 0.949 . S
C1304 C1312 1.574 1_556 S
C1304 C1320 1.368 . S
H1305 C1313 0.950 . S
H1306 C1311 0.950 . S
H1307 C1312 0.949 . S
H1308 C1314 0.950 . S
H1309 C1315 0.950 . S
H1310 C1316 0.949 . S
C1311 H1306 0.950 . S
C1311 C1313 1.327 . S
C1311 C1317 1.429 . S
C1312 C1304 1.574 1_554 S
C1312 H1307 0.949 . S
C1312 C1318 1.368 . S
C1313 C1297 1.349 . S
C1313 H1305 0.950 . S
C1313 C1311 1.327 . S
C1314 C1302 1.349 . S
C1314 H1308 0.950 . S
C1314 C1315 1.327 . S
C1315 H1309 0.950 . S
C1315 C1314 1.327 . S
C1315 C1319 1.429 . S
C1316 C1299 1.574 1_556 S
C1316 H1310 0.949 . S
C1316 C1320 1.368 . S
C1317 C1298 1.429 . S
C1317 C1311 1.429 . S
C1317 C1318 1.523 . S
C1318 C1299 1.368 . S
C1318 C1312 1.368 . S
C1318 C1317 1.523 . S
C1319 C1303 1.429 . S
C1319 C1315 1.429 . S
C1319 C1320 1.523 . S
C1320 C1304 1.368 . S
C1320 C1316 1.368 . S
C1320 C1319 1.523 . S
H1321 C1296 0.950 . S
H1322 C1298 0.950 . S
H1323 C1299 0.949 . S
H1324 C1301 0.950 . S
H1325 C1303 0.950 . S
C1326 C1327 1.349 . S
C1326 C1328 1.327 . S
C1326 H1351 0.950 . S
C1327 C1326 1.349 . S
C1327 C1343 1.349 . S
C1328 C1326 1.327 . S
C1328 C1347 1.429 . S
C1328 H1352 0.950 . S
C1329 C1346 1.574 . S
C1329 C1348 1.368 . S
C1329 H1353 0.949 . S
H1330 C1334 0.949 . S
C1331 C1332 1.349 . S
C1331 C1333 1.327 . S
C1331 H1354 0.950 . S
C1332 C1331 1.349 . S
C1332 C1344 1.349 . S
C1333 C1331 1.327 . S
C1333 C1349 1.429 . S
C1333 H1355 0.950 . S
C1334 H1330 0.949 . S
C1334 C1342 1.574 . S
C1334 C1350 1.368 . S
H1335 C1343 0.950 . S
H1336 C1341 0.950 . S
H1337 C1342 0.949 . S
H1338 C1344 0.950 . S
H1339 C1345 0.950 . S
H1340 C1346 0.949 . S
C1341 H1336 0.950 . S
C1341 C1343 1.327 . S
C1341 C1347 1.429 . S
C1342 C1334 1.574 . S
C1342 H1337 0.949 . S
C1342 C1348 1.368 . S
C1343 C1327 1.349 . S
C1343 H1335 0.950 . S
C1343 C1341 1.327 . S
C1344 C1332 1.349 . S
C1344 H1338 0.950 . S
C1344 C1345 1.327 . S
C1345 H1339 0.950 . S
C1345 C1344 1.327 . S
C1345 C1349 1.429 . S
C1346 C1329 1.574 . S
C1346 H1340 0.949 . S
C1346 C1350 1.368 . S
C1347 C1328 1.429 . S
C1347 C1341 1.429 . S
C1347 C1348 1.523 . S
C1348 C1329 1.368 . S
C1348 C1342 1.368 . S
C1348 C1347 1.523 . S
C1349 C1333 1.429 . S
C1349 C1345 1.429 . S
C1349 C1350 1.523 . S
C1350 C1334 1.368 . S
C1350 C1346 1.368 . S
C1350 C1349 1.523 . S
H1351 C1326 0.950 . S
H1352 C1328 0.950 . S
H1353 C1329 0.949 . S
H1354 C1331 0.950 . S
H1355 C1333 0.950 . S
C1356 C1357 1.349 . S
C1356 C1358 1.327 . S
C1356 H1381 0.950 . S
C1357 C1356 1.349 . S
C1357 C1373 1.349 1_655 S
C1358 C1356 1.327 . S
C1358 C1377 1.429 . S
C1358 H1382 0.950 . S
C1359 C1376 1.574 1_554 S
C1359 C1378 1.368 1_455 S
C1359 H1383 0.949 . S
H1360 C1364 0.949 . S
C1361 C1362 1.349 1_455 S
C1361 C1363 1.327 . S
C1361 H1384 0.950 . S
C1362 C1361 1.349 1_655 S
C1362 C1374 1.349 . S
C1363 C1361 1.327 . S
C1363 C1379 1.429 1_455 S
C1363 H1385 0.950 . S
C1364 H1360 0.949 . S
C1364 C1372 1.574 1_556 S
C1364 C1380 1.368 . S
H1365 C1373 0.950 . S
H1366 C1371 0.950 . S
H1367 C1372 0.949 . S
H1368 C1374 0.950 . S
H1369 C1375 0.950 . S
H1370 C1376 0.949 . S
C1371 H1366 0.950 . S
C1371 C1373 1.327 . S
C1371 C1377 1.429 1_455 S
C1372 C1364 1.574 1_554 S
C1372 H1367 0.949 . S
C1372 C1378 1.368 . S
C1373 C1357 1.349 1_455 S
C1373 H1365 0.950 . S
C1373 C1371 1.327 . S
C1374 C1362 1.349 . S
C1374 H1368 0.950 . S
C1374 C1375 1.327 . S
C1375 H1369 0.950 . S
C1375 C1374 1.327 . S
C1375 C1379 1.429 . S
C1376 C1359 1.574 1_556 S
C1376 H1370 0.949 . S
C1376 C1380 1.368 1_455 S
C1377 C1358 1.429 . S
C1377 C1371 1.429 1_655 S
C1377 C1378 1.523 . S
C1378 C1359 1.368 1_655 S
C1378 C1372 1.368 . S
C1378 C1377 1.523 . S
C1379 C1363 1.429 1_655 S
C1379 C1375 1.429 . S
C1379 C1380 1.523 . S
C1380 C1364 1.368 . S
C1380 C1376 1.368 1_655 S
C1380 C1379 1.523 . S
H1381 C1356 0.950 . S
H1382 C1358 0.950 . S
H1383 C1359 0.949 . S
H1384 C1361 0.950 . S
H1385 C1363 0.950 . S
C1386 C1387 1.349 . S
C1386 C1388 1.327 . S
C1386 H1411 0.950 . S
C1387 C1386 1.349 . S
C1387 C1403 1.349 1_565 S
C1388 C1386 1.327 . S
C1388 C1407 1.429 . S
C1388 H1412 0.950 . S
C1389 C1406 1.574 . S
C1389 C1408 1.368 1_545 S
C1389 H1413 0.949 . S
H1390 C1394 0.949 . S
C1391 C1392 1.349 1_545 S
C1391 C1393 1.327 . S
C1391 H1414 0.950 . S
C1392 C1391 1.349 1_565 S
C1392 C1404 1.349 . S
C1393 C1391 1.327 . S
C1393 C1409 1.429 1_545 S
C1393 H1415 0.950 . S
C1394 H1390 0.949 . S
C1394 C1402 1.574 . S
C1394 C1410 1.368 . S
H1395 C1403 0.950 . S
H1396 C1401 0.950 . S
H1397 C1402 0.949 . S
H1398 C1404 0.950 . S
H1399 C1405 0.950 . S
H1400 C1406 0.949 . S
C1401 H1396 0.950 . S
C1401 C1403 1.327 . S
C1401 C1407 1.429 1_545 S
C1402 C1394 1.574 . S
C1402 H1397 0.949 . S
C1402 C1408 1.368 . S
C1403 C1387 1.349 1_545 S
C1403 H1395 0.950 . S
C1403 C1401 1.327 . S
C1404 C1392 1.349 . S
C1404 H1398 0.950 . S
C1404 C1405 1.327 . S
C1405 H1399 0.950 . S
C1405 C1404 1.327 . S
C1405 C1409 1.429 . S
C1406 C1389 1.574 . S
C1406 H1400 0.949 . S
C1406 C1410 1.368 1_545 S
C1407 C1388 1.429 . S
C1407 C1401 1.429 1_565 S
C1407 C1408 1.523 . S
C1408 C1389 1.368 1_565 S
C1408 C1402 1.368 . S
C1408 C1407 1.523 . S
C1409 C1393 1.429 1_565 S
C1409 C1405 1.429 . S
C1409 C1410 1.523 . S
C1410 C1394 1.368 . S
C1410 C1406 1.368 1_565 S
C1410 C1409 1.523 . S
H1411 C1386 0.950 . S
H1412 C1388 0.950 . S
H1413 C1389 0.949 . S
H1414 C1391 0.950 . S
H1415 C1393 0.950 . S
C1416 C1417 1.349 . S
C1416 C1418 1.327 . S
C1416 H1441 0.950 . S
C1417 C1416 1.349 . S
C1417 C1433 1.349 . S
C1418 C1416 1.327 . S
C1418 C1437 1.429 . S
C1418 H1442 0.950 . S
C1419 C1436 1.574 1_556 S
C1419 C1438 1.368 . S
C1419 H1443 0.949 . S
H1420 C1424 0.949 . S
C1421 C1422 1.349 . S
C1421 C1423 1.327 . S
C1421 H1444 0.950 . S
C1422 C1421 1.349 . S
C1422 C1434 1.349 . S
C1423 C1421 1.327 . S
C1423 C1439 1.429 . S
C1423 H1445 0.950 . S
C1424 H1420 0.949 . S
C1424 C1432 1.574 1_554 S
C1424 C1440 1.368 . S
H1425 C1433 0.950 . S
H1426 C1431 0.950 . S
H1427 C1432 0.949 . S
H1428 C1434 0.950 . S
H1429 C1435 0.950 . S
H1430 C1436 0.949 . S
C1431 H1426 0.950 . S
C1431 C1433 1.327 . S
C1431 C1437 1.429 . S
C1432 C1424 1.574 1_556 S
C1432 H1427 0.949 . S
C1432 C1438 1.368 . S
C1433 C1417 1.349 . S
C1433 H1425 0.950 . S
C1433 C1431 1.327 . S
C1434 C1422 1.349 . S
C1434 H1428 0.950 . S
C1434 C1435 1.327 . S
C1435 H1429 0.950 . S
C1435 C1434 1.327 . S
C1435 C1439 1.429 . S
C1436 C1419 1.574 1_554 S
C1436 H1430 0.949 . S
C1436 C1440 1.368 . S
C1437 C1418 1.429 . S
C1437 C1431 1.429 . S
C1437 C1438 1.523 . S
C1438 C1419 1.368 . S
C1438 C1432 1.368 . S
C1438 C1437 1.523 . S
C1439 C1423 1.429 . S
C1439 C1435 1.429 . S
C1439 C1440 1.523 . S
C1440 C1424 1.368 . S
C1440 C1436 1.368 . S
C1440 C1439 1.523 . S
H1441 C1416 0.950 . S
H1442 C1418 0.950 . S
H1443 C1419 0.949 . S
H1444 C1421 0.950 . S
H1445 C1423 0.950 . S
C1446 C1447 1.349 . S
C1446 C1448 1.327 . S
C1446 H1471 0.950 . S
C1447 C1446 1.349 . S
C1447 C1463 1.349 . S
C1448 C1446 1.327 . S
C1448 C1467 1.429 . S
C1448 H1472 0.950 . S
C1449 C1466 1.574 . S
C1449 C1468 1.368 . S
C1449 H1473 0.949 . S
H1450 C1454 0.949 . S
C1451 C1452 1.349 . S
C1451 C1453 1.327 . S
C1451 H1474 0.950 . S
C1452 C1451 1.349 . S
C1452 C1464 1.349 . S
C1453 C1451 1.327 . S
C1453 C1469 1.429 . S
C1453 H1475 0.950 . S
C1454 H1450 0.949 . S
C1454 C1462 1.574 . S
C1454 C1470 1.368 . S
H1455 C1463 0.950 . S
H1456 C1461 0.950 . S
H1457 C1462 0.949 . S
H1458 C1464 0.950 . S
H1459 C1465 0.950 . S
H1460 C1466 0.949 . S
C1461 H1456 0.950 . S
C1461 C1463 1.327 . S
C1461 C1467 1.429 . S
C1462 C1454 1.574 . S
C1462 H1457 0.949 . S
C1462 C1468 1.368 . S
C1463 C1447 1.349 . S
C1463 H1455 0.950 . S
C1463 C1461 1.327 . S
C1464 C1452 1.349 . S
C1464 H1458 0.950 . S
C1464 C1465 1.327 . S
C1465 H1459 0.950 . S
C1465 C1464 1.327 . S
C1465 C1469 1.429 . S
C1466 C1449 1.574 . S
C1466 H1460 0.949 . S
C1466 C1470 1.368 . S
C1467 C1448 1.429 . S
C1467 C1461 1.429 . S
C1467 C1468 1.523 . S
C1468 C1449 1.368 . S
C1468 C1462 1.368 . S
C1468 C1467 1.523 . S
C1469 C1453 1.429 . S
C1469 C1465 1.429 . S
C1469 C1470 1.523 . S
C1470 C1454 1.368 . S
C1470 C1466 1.368 . S
C1470 C1469 1.523 . S
H1471 C1446 0.950 . S
H1472 C1448 0.950 . S
H1473 C1449 0.949 . S
H1474 C1451 0.950 . S
H1475 C1453 0.950 . S
C1476 C1477 1.349 1_655 S
C1476 C1478 1.327 . S
C1476 H1501 0.950 . S
C1477 C1476 1.349 1_455 S
C1477 C1493 1.349 . S
C1478 C1476 1.327 . S
C1478 C1497 1.429 1_655 S
C1478 H1502 0.950 . S
C1479 C1496 1.574 1_554 S
C1479 C1498 1.368 . S
C1479 H1503 0.949 . S
H1480 C1484 0.949 . S
C1481 C1482 1.349 . S
C1481 C1483 1.327 . S
C1481 H1504 0.950 . S
C1482 C1481 1.349 . S
C1482 C1494 1.349 1_455 S
C1483 C1481 1.327 . S
C1483 C1499 1.429 . S
C1483 H1505 0.950 . S
C1484 H1480 0.949 . S
C1484 C1492 1.574 1_556 S
C1484 C1500 1.368 1_655 S
H1485 C1493 0.950 . S
H1486 C1491 0.950 . S
H1487 C1492 0.949 . S
H1488 C1494 0.950 . S
H1489 C1495 0.950 . S
H1490 C1496 0.949 . S
C1491 H1486 0.950 . S
C1491 C1493 1.327 . S
C1491 C1497 1.429 . S
C1492 C1484 1.574 1_554 S
C1492 H1487 0.949 . S
C1492 C1498 1.368 1_655 S
C1493 C1477 1.349 . S
C1493 H1485 0.950 . S
C1493 C1491 1.327 . S
C1494 C1482 1.349 1_655 S
C1494 H1488 0.950 . S
C1494 C1495 1.327 . S
C1495 H1489 0.950 . S
C1495 C1494 1.327 . S
C1495 C1499 1.429 1_655 S
C1496 C1479 1.574 1_556 S
C1496 H1490 0.949 . S
C1496 C1500 1.368 . S
C1497 C1478 1.429 1_455 S
C1497 C1491 1.429 . S
C1497 C1498 1.523 . S
C1498 C1479 1.368 . S
C1498 C1492 1.368 1_455 S
C1498 C1497 1.523 . S
C1499 C1483 1.429 . S
C1499 C1495 1.429 1_455 S
C1499 C1500 1.523 . S
C1500 C1484 1.368 1_455 S
C1500 C1496 1.368 . S
C1500 C1499 1.523 . S
H1501 C1476 0.950 . S
H1502 C1478 0.950 . S
H1503 C1479 0.949 . S
H1504 C1481 0.950 . S
H1505 C1483 0.950 . S
C1506 C1507 1.349 . S
C1506 C1508 1.327 . S
C1506 H1531 0.950 . S
C1507 C1506 1.349 . S
C1507 C1523 1.349 1_545 S
C1508 C1506 1.327 . S
C1508 C1527 1.429 . S
C1508 H1532 0.950 . S
C1509 C1526 1.574 . S
C1509 C1528 1.368 1_565 S
C1509 H1533 0.949 . S
H1510 C1514 0.949 . S
C1511 C1512 1.349 1_565 S
C1511 C1513 1.327 . S
C1511 H1534 0.950 . S
C1512 C1511 1.349 1_545 S
C1512 C1524 1.349 . S
C1513 C1511 1.327 . S
C1513 C1529 1.429 1_565 S
C1513 H1535 0.950 . S
C1514 H1510 0.949 . S
C1514 C1522 1.574 . S
C1514 C1530 1.368 . S
H1515 C1523 0.950 . S
H1516 C1521 0.950 . S
H1517 C1522 0.949 . S
H1518 C1524 0.950 . S
H1519 C1525 0.950 . S
H1520 C1526 0.949 . S
C1521 H1516 0.950 . S
C1521 C1523 1.327 . S
C1521 C1527 1.429 1_565 S
C1522 C1514 1.574 . S
C1522 H1517 0.949 . S
C1522 C1528 1.368 . S
C1523 C1507 1.349 1_565 S
C1523 H1515 0.950 . S
C1523 C1521 1.327 . S
C1524 C1512 1.349 . S
C1524 H1518 0.950 . S
C1524 C1525 1.327 . S
C1525 H1519 0.950 . S
C1525 C1524 1.327 . S
C1525 C1529 1.429 . S
C1526 C1509 1.574 . S
C1526 H1520 0.949 . S
C1526 C1530 1.368 1_565 S
C1527 C1508 1.429 . S
C1527 C1521 1.429 1_545 S
C1527 C1528 1.523 . S
C1528 C1509 1.368 1_545 S
C1528 C1522 1.368 . S
C1528 C1527 1.523 . S
C1529 C1513 1.429 1_545 S
C1529 C1525 1.429 . S
C1529 C1530 1.523 . S
C1530 C1514 1.368 . S
C1530 C1526 1.368 1_545 S
C1530 C1529 1.523 . S
H1531 C1506 0.950 . S
H1532 C1508 0.950 . S
H1533 C1509 0.949 . S
H1534 C1511 0.950 . S
H1535 C1513 0.950 . S
C577 C3 1.208 . S
C582 C255 1.208 . S
C607 C39 1.208 . S
C612 C147 1.208 . S
C637 C75 1.208 . S
C642 C183 1.208 . S
C667 C111 1.208 . S
C672 C219 1.208 . S
C697 C291 1.208 . S
C702 C543 1.208 . S
C727 C435 1.208 . S
C732 C327 1.208 . S
C757 C363 1.208 . S
C762 C471 1.208 . S
C787 C399 1.208 . S
C792 C507 1.208 . S
C817 C4 1.365 . S
C822 C326 1.405 . S
C847 C40 1.365 . S
C852 C362 1.405 . S
C877 C398 1.405 . S
C882 C76 1.365 . S
C907 C112 1.365 . S
C912 C290 1.405 . S
C937 C148 1.365 . S
C942 C542 1.405 . S
C967 C434 1.405 . S
C972 C184 1.365 . S
C997 C470 1.405 . S
C1002 C220 1.365 . S
C1027 C506 1.405 . S
C1032 C256 1.365 . S
C1057 C38 1.405 . S
C1062 C292 1.365 . S
C1087 C74 1.405 . S
C1092 C328 1.365 . S
C1117 C364 1.365 . S
C1122 C110 1.405 . S
C1147 C2 1.405 . S
C1152 C400 1.365 . S
C1177 C436 1.365 . S
C1182 C254 1.405 . S
C1207 C472 1.365 . S
C1212 C146 1.405 . S
C1237 C182 1.405 . S
C1242 C508 1.365 . S
C1267 C218 1.405 . S
C1272 C544 1.365 . S
C1297 C14 1.508 . S
C1302 C158 1.508 . S
C1327 C194 1.508 . S
C1332 C50 1.508 . S
C1357 C86 1.508 . S
C1362 C230 1.508 . S
C1387 C266 1.508 . S
C1392 C122 1.508 . S
C1417 C302 1.508 . S
C1422 C446 1.508 . S
C1447 C482 1.508 . S
C1452 C338 1.508 . S
C1477 C518 1.508 . S
C1482 C374 1.508 . S
C1507 C554 1.508 . S
C1512 C410 1.508 . S
