# Generated by pormake.
# Topology dei, (4)-cn, num edge types: 1
# Building blocks:
#     Node 0, Type 0, BuildingBlock: QUQFOY_clean_sbu_1, # of connection points: 4
#     Node 1, Type 0, BuildingBlock: QUQFOY_clean_sbu_1, # of connection points: 4
#     Node 2, Type 0, BuildingBlock: QUQFOY_clean_sbu_1, # of connection points: 4
#     Node 3, Type 0, BuildingBlock: QUQFOY_clean_sbu_1, # of connection points: 4
#     Node 4, Type 0, BuildingBlock: QUQFOY_clean_sbu_1, # of connection points: 4
#     Node 5, Type 0, BuildingBlock: QUQFOY_clean_sbu_1, # of connection points: 4
#     Node 6, Type 0, BuildingBlock: QUQFOY_clean_sbu_1, # of connection points: 4
#     Node 7, Type 0, BuildingBlock: QUQFOY_clean_sbu_1, # of connection points: 4
#     Node 8, Type 0, BuildingBlock: QUQFOY_clean_sbu_1, # of connection points: 4
#     Node 9, Type 0, BuildingBlock: QUQFOY_clean_sbu_1, # of connection points: 4
#     Node 10, Type 0, BuildingBlock: QUQFOY_clean_sbu_1, # of connection points: 4
#     Node 11, Type 0, BuildingBlock: QUQFOY_clean_sbu_1, # of connection points: 4
#     Node 12, Type 0, BuildingBlock: QUQFOY_clean_sbu_1, # of connection points: 4
#     Node 13, Type 0, BuildingBlock: QUQFOY_clean_sbu_1, # of connection points: 4
#     Node 14, Type 0, BuildingBlock: QUQFOY_clean_sbu_1, # of connection points: 4
#     Node 15, Type 0, BuildingBlock: QUQFOY_clean_sbu_1, # of connection points: 4
#     Node 16, Type 0, BuildingBlock: QUQFOY_clean_sbu_1, # of connection points: 4
#     Node 17, Type 0, BuildingBlock: QUQFOY_clean_sbu_1, # of connection points: 4
#     Node 18, Type 0, BuildingBlock: QUQFOY_clean_sbu_1, # of connection points: 4
#     Node 19, Type 0, BuildingBlock: QUQFOY_clean_sbu_1, # of connection points: 4
#     Node 20, Type 0, BuildingBlock: QUQFOY_clean_sbu_1, # of connection points: 4
#     Node 21, Type 0, BuildingBlock: QUQFOY_clean_sbu_1, # of connection points: 4
#     Node 22, Type 0, BuildingBlock: QUQFOY_clean_sbu_1, # of connection points: 4
#     Node 23, Type 0, BuildingBlock: QUQFOY_clean_sbu_1, # of connection points: 4
#     Node 24, Type 0, BuildingBlock: QUQFOY_clean_sbu_1, # of connection points: 4
#     Node 25, Type 0, BuildingBlock: QUQFOY_clean_sbu_1, # of connection points: 4
#     Node 26, Type 0, BuildingBlock: QUQFOY_clean_sbu_1, # of connection points: 4
#     Node 27, Type 0, BuildingBlock: QUQFOY_clean_sbu_1, # of connection points: 4
#     Node 28, Type 0, BuildingBlock: QUQFOY_clean_sbu_1, # of connection points: 4
#     Node 29, Type 0, BuildingBlock: QUQFOY_clean_sbu_1, # of connection points: 4
#     Node 30, Type 0, BuildingBlock: QUQFOY_clean_sbu_1, # of connection points: 4
#     Node 31, Type 0, BuildingBlock: QUQFOY_clean_sbu_1, # of connection points: 4
#     Edge 32, Type (0, 0), BuildingBlock: EZIPEK_clean_linker_0, # of connection points: 2
#     Edge 33, Type (0, 0), BuildingBlock: EZIPEK_clean_linker_0, # of connection points: 2
#     Edge 34, Type (0, 0), BuildingBlock: EZIPEK_clean_linker_0, # of connection points: 2
#     Edge 35, Type (0, 0), BuildingBlock: EZIPEK_clean_linker_0, # of connection points: 2
#     Edge 36, Type (0, 0), BuildingBlock: EZIPEK_clean_linker_0, # of connection points: 2
#     Edge 37, Type (0, 0), BuildingBlock: EZIPEK_clean_linker_0, # of connection points: 2
#     Edge 38, Type (0, 0), BuildingBlock: EZIPEK_clean_linker_0, # of connection points: 2
#     Edge 39, Type (0, 0), BuildingBlock: EZIPEK_clean_linker_0, # of connection points: 2
#     Edge 40, Type (0, 0), BuildingBlock: EZIPEK_clean_linker_0, # of connection points: 2
#     Edge 41, Type (0, 0), BuildingBlock: EZIPEK_clean_linker_0, # of connection points: 2
#     Edge 42, Type (0, 0), BuildingBlock: EZIPEK_clean_linker_0, # of connection points: 2
#     Edge 43, Type (0, 0), BuildingBlock: EZIPEK_clean_linker_0, # of connection points: 2
#     Edge 44, Type (0, 0), BuildingBlock: EZIPEK_clean_linker_0, # of connection points: 2
#     Edge 45, Type (0, 0), BuildingBlock: EZIPEK_clean_linker_0, # of connection points: 2
#     Edge 46, Type (0, 0), BuildingBlock: EZIPEK_clean_linker_0, # of connection points: 2
#     Edge 47, Type (0, 0), BuildingBlock: EZIPEK_clean_linker_0, # of connection points: 2
#     Edge 48, Type (0, 0), BuildingBlock: EZIPEK_clean_linker_0, # of connection points: 2
#     Edge 49, Type (0, 0), BuildingBlock: EZIPEK_clean_linker_0, # of connection points: 2
#     Edge 50, Type (0, 0), BuildingBlock: EZIPEK_clean_linker_0, # of connection points: 2
#     Edge 51, Type (0, 0), BuildingBlock: EZIPEK_clean_linker_0, # of connection points: 2
#     Edge 52, Type (0, 0), BuildingBlock: EZIPEK_clean_linker_0, # of connection points: 2
#     Edge 53, Type (0, 0), BuildingBlock: EZIPEK_clean_linker_0, # of connection points: 2
#     Edge 54, Type (0, 0), BuildingBlock: EZIPEK_clean_linker_0, # of connection points: 2
#     Edge 55, Type (0, 0), BuildingBlock: EZIPEK_clean_linker_0, # of connection points: 2
#     Edge 56, Type (0, 0), BuildingBlock: EZIPEK_clean_linker_0, # of connection points: 2
#     Edge 57, Type (0, 0), BuildingBlock: EZIPEK_clean_linker_0, # of connection points: 2
#     Edge 58, Type (0, 0), BuildingBlock: EZIPEK_clean_linker_0, # of connection points: 2
#     Edge 59, Type (0, 0), BuildingBlock: EZIPEK_clean_linker_0, # of connection points: 2
#     Edge 60, Type (0, 0), BuildingBlock: EZIPEK_clean_linker_0, # of connection points: 2
#     Edge 61, Type (0, 0), BuildingBlock: EZIPEK_clean_linker_0, # of connection points: 2
#     Edge 62, Type (0, 0), BuildingBlock: EZIPEK_clean_linker_0, # of connection points: 2
#     Edge 63, Type (0, 0), BuildingBlock: EZIPEK_clean_linker_0, # of connection points: 2
#     Edge 64, Type (0, 0), BuildingBlock: EZIPEK_clean_linker_0, # of connection points: 2
#     Edge 65, Type (0, 0), BuildingBlock: EZIPEK_clean_linker_0, # of connection points: 2
#     Edge 66, Type (0, 0), BuildingBlock: EZIPEK_clean_linker_0, # of connection points: 2
#     Edge 67, Type (0, 0), BuildingBlock: EZIPEK_clean_linker_0, # of connection points: 2
#     Edge 68, Type (0, 0), BuildingBlock: EZIPEK_clean_linker_0, # of connection points: 2
#     Edge 69, Type (0, 0), BuildingBlock: EZIPEK_clean_linker_0, # of connection points: 2
#     Edge 70, Type (0, 0), BuildingBlock: EZIPEK_clean_linker_0, # of connection points: 2
#     Edge 71, Type (0, 0), BuildingBlock: EZIPEK_clean_linker_0, # of connection points: 2
#     Edge 72, Type (0, 0), BuildingBlock: EZIPEK_clean_linker_0, # of connection points: 2
#     Edge 73, Type (0, 0), BuildingBlock: EZIPEK_clean_linker_0, # of connection points: 2
#     Edge 74, Type (0, 0), BuildingBlock: EZIPEK_clean_linker_0, # of connection points: 2
#     Edge 75, Type (0, 0), BuildingBlock: EZIPEK_clean_linker_0, # of connection points: 2
#     Edge 76, Type (0, 0), BuildingBlock: EZIPEK_clean_linker_0, # of connection points: 2
#     Edge 77, Type (0, 0), BuildingBlock: EZIPEK_clean_linker_0, # of connection points: 2
#     Edge 78, Type (0, 0), BuildingBlock: EZIPEK_clean_linker_0, # of connection points: 2
#     Edge 79, Type (0, 0), BuildingBlock: EZIPEK_clean_linker_0, # of connection points: 2
#     Edge 80, Type (0, 0), BuildingBlock: EZIPEK_clean_linker_0, # of connection points: 2
#     Edge 81, Type (0, 0), BuildingBlock: EZIPEK_clean_linker_0, # of connection points: 2
#     Edge 82, Type (0, 0), BuildingBlock: EZIPEK_clean_linker_0, # of connection points: 2
#     Edge 83, Type (0, 0), BuildingBlock: EZIPEK_clean_linker_0, # of connection points: 2
#     Edge 84, Type (0, 0), BuildingBlock: EZIPEK_clean_linker_0, # of connection points: 2
#     Edge 85, Type (0, 0), BuildingBlock: EZIPEK_clean_linker_0, # of connection points: 2
#     Edge 86, Type (0, 0), BuildingBlock: EZIPEK_clean_linker_0, # of connection points: 2
#     Edge 87, Type (0, 0), BuildingBlock: EZIPEK_clean_linker_0, # of connection points: 2
#     Edge 88, Type (0, 0), BuildingBlock: EZIPEK_clean_linker_0, # of connection points: 2
#     Edge 89, Type (0, 0), BuildingBlock: EZIPEK_clean_linker_0, # of connection points: 2
#     Edge 90, Type (0, 0), BuildingBlock: EZIPEK_clean_linker_0, # of connection points: 2
#     Edge 91, Type (0, 0), BuildingBlock: EZIPEK_clean_linker_0, # of connection points: 2
#     Edge 92, Type (0, 0), BuildingBlock: EZIPEK_clean_linker_0, # of connection points: 2
#     Edge 93, Type (0, 0), BuildingBlock: EZIPEK_clean_linker_0, # of connection points: 2
#     Edge 94, Type (0, 0), BuildingBlock: EZIPEK_clean_linker_0, # of connection points: 2
#     Edge 95, Type (0, 0), BuildingBlock: EZIPEK_clean_linker_0, # of connection points: 2
# Relax obj value: 0.259
# Max RMSD: 0.141
# Mean RMSD: 0.141
data_MOF--net-dei--node1-QUQFOY_clean_sbu_1--edge1-EZIPEK_clean_linker_0
_symmetry_space_group_name_H-M    P1
_symmetry_Int_Tables_number       1
_symmetry_cell_setting            triclinic
loop_
_symmetry_equiv_pos_as_xyz
'x, y, z'
_cell_length_a     42.230336
_cell_length_b     42.276201
_cell_length_c     69.809564
_cell_angle_alpha  89.950287
_cell_angle_beta   90.077473
_cell_angle_gamma 89.963396
loop_
_atom_site_label
_atom_site_type_symbol
_atom_site_fract_x
_atom_site_fract_y
_atom_site_fract_z
_atom_type_partial_charge
O0 O 0.10993 0.64437 0.01791 0.0
Cd1 Cd 0.15811 0.63925 0.02157 0.0
Cd2 Cd 0.14259 0.65285 0.05882 0.0
O3 O 0.1008 0.63435 0.04836 0.0
O4 O 0.17223 0.60945 1.00108 0.0
O5 O 0.17175 0.59695 0.03197 0.0
C6 C 0.17533 0.58829 0.01433 0.0
C7 C 0.14733 0.64877 0.09269 0.0
C8 C 0.09083 0.63786 0.03135 0.0
C9 C 0.17476 0.7031 0.03425 0.0
O10 O 0.15681 0.6966 0.04835 0.0
O11 O 0.18324 0.68152 0.02259 0.0
O12 O 0.16781 0.63563 0.08159 0.0
O13 O 0.12463 0.66358 0.08439 0.0
O14 O 0.59595 0.91073 0.30022 0.0
Cd15 Cd 0.63824 0.89188 0.31001 0.0
Cd16 Cd 0.65395 0.90742 0.273 0.0
O17 O 0.61151 0.93267 0.27306 0.0
O18 O 0.62855 0.88324 0.33748 0.0
O19 O 0.66684 0.91561 0.32845 0.0
C20 C 0.65124 0.90204 0.34205 0.0
C21 C 0.70483 0.92505 0.26556 0.0
C22 C 0.58992 0.92705 0.28534 0.0
C23 C 0.65082 0.83898 0.28258 0.0
O24 O 0.64959 0.85919 0.26914 0.0
O25 O 0.64992 0.84752 0.3 0.0
O26 O 0.68365 0.92142 0.25237 0.0
O27 O 0.69625 0.92172 0.28323 0.0
O28 O 0.43361 0.4003 0.51617 0.0
Cd29 Cd 0.38563 0.40301 0.52124 0.0
Cd30 Cd 0.40422 0.38759 0.5581 0.0
O31 O 0.4456 0.40556 0.54674 0.0
O32 O 0.36927 0.43218 0.501 0.0
O33 O 0.37127 0.44491 0.53182 0.0
C34 C 0.36653 0.45337 0.51423 0.0
C35 C 0.40041 0.39242 0.59196 0.0
C36 C 0.4539 0.40491 0.52928 0.0
C37 C 0.37033 0.33809 0.53387 0.0
O38 O 0.38871 0.3442 0.54785 0.0
O39 O 0.36179 0.35988 0.52231 0.0
O40 O 0.37985 0.40561 0.58088 0.0
O41 O 0.42275 0.37715 0.58364 0.0
O42 O 0.94824 0.126 0.80348 0.0
Cd43 Cd 0.90786 0.14715 0.81413 0.0
Cd44 Cd 0.88855 0.13574 0.7773 0.0
O45 O 0.93135 0.11131 0.77481 0.0
O46 O 0.91788 0.15223 0.84186 0.0
O47 O 0.87659 0.1249 0.83157 0.0
C48 C 0.89305 0.13584 0.84568 0.0
C49 C 0.83694 0.11761 0.77277 0.0
C50 C 0.95329 0.11299 0.78736 0.0
C51 C 0.89567 0.20339 0.78891 0.0
O52 O 0.89174 0.18439 0.77504 0.0
O53 O 0.90071 0.19328 0.80575 0.0
O54 O 0.85513 0.12347 0.75833 0.0
O55 O 0.8492 0.11865 0.78976 0.0
O56 O 0.10822 0.39848 0.99587 0.0
Cd57 Cd 0.15687 0.40179 0.9938 0.0
Cd58 Cd 0.14612 0.38279 0.95714 0.0
O59 O 0.09983 0.39044 0.96502 0.0
O60 O 0.16889 0.43582 0.01237 0.0
O61 O 0.17373 0.44078 0.98087 0.0
C62 C 0.1746 0.45358 0.9977 0.0
C63 C 0.15841 0.39767 0.92575 0.0
C64 C 0.08941 0.39511 0.98182 0.0
C65 C 0.17926 0.33698 0.98419 0.0
O66 O 0.16642 0.34209 0.96799 0.0
O67 O 0.1812 0.35899 0.99663 0.0
O68 O 0.14161 0.37304 0.92936 0.0
O69 O 0.16925 0.41384 0.93999 0.0
O70 O 0.95061 0.91659 0.21618 0.0
Cd71 Cd 0.90966 0.89713 0.20508 0.0
Cd72 Cd 0.89031 0.90681 0.24219 0.0
O73 O 0.93396 0.92961 0.24519 0.0
O74 O 0.91907 0.89278 0.17726 0.0
O75 O 0.87825 0.92024 0.1881 0.0
C76 C 0.8941 0.90921 0.17378 0.0
C77 C 0.83925 0.9255 0.24768 0.0
C78 C 0.95595 0.92814 0.23269 0.0
C79 C 0.89559 0.83985 0.22904 0.0
O80 O 0.89167 0.85805 0.24329 0.0
O81 O 0.90131 0.85092 0.21252 0.0
O82 O 0.85787 0.9187 0.2618 0.0
O83 O 0.85085 0.9252 0.23053 0.0
O84 O 0.43315 0.6422 0.49307 0.0
Cd85 Cd 0.38423 0.63934 0.49217 0.0
Cd86 Cd 0.39287 0.65974 0.45576 0.0
O87 O 0.43969 0.65155 0.46221 0.0
O88 O 0.37349 0.60546 0.51114 0.0
O89 O 0.36599 0.60044 0.47985 0.0
C90 C 0.36638 0.58771 0.49671 0.0
C91 C 0.3772 0.64373 0.42513 0.0
C92 C 0.45112 0.64601 0.47869 0.0
C93 C 0.36137 0.70466 0.48385 0.0
O94 O 0.3737 0.70034 0.46744 0.0
O95 O 0.35976 0.68191 0.49583 0.0
O96 O 0.39437 0.66849 0.42773 0.0
O97 O 0.36768 0.62832 0.44002 0.0
O98 O 0.59369 0.12979 0.71824 0.0
Cd99 Cd 0.63572 0.14898 0.70826 0.0
Cd100 Cd 0.65254 0.13492 0.74577 0.0
O101 O 0.60905 0.11157 0.74652 0.0
O102 O 0.62625 0.15774 0.68075 0.0
O103 O 0.66526 0.12626 0.6899 0.0
C104 C 0.64971 0.13985 0.67626 0.0
C105 C 0.70283 0.11648 0.754 0.0
C106 C 0.58759 0.11552 0.73386 0.0
C107 C 0.64986 0.20289 0.7351 0.0
O108 O 0.6502 0.18329 0.74887 0.0
O109 O 0.64687 0.19366 0.7179 0.0
O110 O 0.68146 0.12123 0.7669 0.0
O111 O 0.69459 0.11878 0.7362 0.0
O112 O 0.93489 0.39573 0.99658 0.0
Cd113 Cd 0.88636 0.40003 0.99436 0.0
Cd114 Cd 0.89692 0.38246 0.95732 0.0
O115 O 0.94296 0.3912 0.96547 0.0
O116 O 0.87446 0.43371 0.01315 0.0
O117 O 0.87034 0.43956 0.98164 0.0
C118 C 0.86919 0.45189 0.9986 0.0
C119 C 0.88566 0.39716 0.92568 0.0
C120 C 0.95356 0.39423 0.98239 0.0
C121 C 0.8637 0.33594 0.98411 0.0
O122 O 0.87688 0.34134 0.96806 0.0
O123 O 0.86143 0.35773 0.99666 0.0
O124 O 0.90247 0.37263 0.92959 0.0
O125 O 0.87402 0.41319 0.93974 0.0
O126 O 0.38918 0.18404 0.74804 0.0
Cd127 Cd 0.38756 0.13543 0.74482 0.0
Cd128 Cd 0.40614 0.15015 0.70837 0.0
O129 O 0.39521 0.19517 0.71736 0.0
O130 O 0.35467 0.12166 0.7637 0.0
O131 O 0.34837 0.11825 0.73222 0.0
C132 C 0.33631 0.11644 0.74923 0.0
C133 C 0.39221 0.13871 0.6767 0.0
C134 C 0.39087 0.20404 0.73451 0.0
C135 C 0.45312 0.11624 0.73453 0.0
O136 O 0.44775 0.13112 0.71901 0.0
O137 O 0.43092 0.11171 0.7466 0.0
O138 O 0.41573 0.15684 0.68071 0.0
O139 O 0.37656 0.12623 0.69066 0.0
O140 O 0.60557 0.64283 0.49223 0.0
Cd141 Cd 0.65441 0.64017 0.49119 0.0
Cd142 Cd 0.64473 0.66125 0.45437 0.0
O143 O 0.59842 0.65157 0.46132 0.0
O144 O 0.66625 0.60551 0.50957 0.0
O145 O 0.67352 0.60223 0.47824 0.0
C146 C 0.67418 0.58871 0.49488 0.0
C147 C 0.65845 0.64909 0.42271 0.0
C148 C 0.58733 0.64621 0.4779 0.0
C149 C 0.67629 0.70584 0.48304 0.0
O150 O 0.66375 0.70156 0.46666 0.0
O151 O 0.67835 0.68303 0.49496 0.0
O152 O 0.64085 0.67297 0.42678 0.0
O153 O 0.66937 0.63224 0.43666 0.0
O154 O 0.1517 0.85716 0.2499 0.0
Cd155 Cd 0.15491 0.90549 0.24614 0.0
Cd156 Cd 0.13699 0.89025 0.20931 0.0
O157 O 0.14862 0.84571 0.21909 0.0
O158 O 0.18492 0.91922 0.26667 0.0
O159 O 0.19678 0.92062 0.23575 0.0
C160 C 0.20574 0.92347 0.25339 0.0
C161 C 0.15005 0.90054 0.17733 0.0
C162 C 0.15141 0.83705 0.23642 0.0
C163 C 0.09006 0.92545 0.23479 0.0
O164 O 0.09532 0.90964 0.21963 0.0
O165 O 0.1122 0.93037 0.24686 0.0
O166 O 0.12702 0.88211 0.18181 0.0
O167 O 0.16584 0.91379 0.19098 0.0
O168 O 0.93555 0.6403 0.0196 0.0
Cd169 Cd 0.88718 0.6371 0.02297 0.0
Cd170 Cd 0.90139 0.6538 0.06012 0.0
O171 O 0.9464 0.64333 0.05051 0.0
O172 O 0.87349 0.60724 1.00239 0.0
O173 O 0.87188 0.5953 0.03332 0.0
C174 C 0.86917 0.5864 0.01567 0.0
C175 C 0.8908 0.63956 0.09189 0.0
C176 C 0.95541 0.64073 0.03324 0.0
C177 C 0.86646 0.7014 0.03489 0.0
O178 O 0.88143 0.69556 0.05031 0.0
O179 O 0.86268 0.67996 0.02225 0.0
O180 O 0.90891 0.66302 0.08777 0.0
O181 O 0.87804 0.62398 0.07799 0.0
O182 O 0.14773 0.18229 0.77532 0.0
Cd183 Cd 0.15181 0.1336 0.77723 0.0
Cd184 Cd 0.13247 0.14527 0.81451 0.0
O185 O 0.14174 0.19101 0.80632 0.0
O186 O 0.18058 0.12201 0.75557 0.0
O187 O 0.19448 0.11764 0.78607 0.0
C188 C 0.2023 0.11652 0.76818 0.0
C189 C 0.14659 0.13371 0.84619 0.0
C190 C 0.14558 0.20119 0.78939 0.0
C191 C 0.08691 0.11156 0.78748 0.0
O192 O 0.09155 0.12565 0.80333 0.0
O193 O 0.10945 0.10835 0.77551 0.0
O194 O 0.12225 0.15077 0.84219 0.0
O195 O 0.16275 0.12203 0.8322 0.0
O196 O 0.6088 0.40507 0.51559 0.0
Cd197 Cd 0.65706 0.40645 0.51968 0.0
Cd198 Cd 0.63967 0.39196 0.55747 0.0
O199 O 0.59776 0.40953 0.54636 0.0
O200 O 0.67374 0.43273 0.49806 0.0
O201 O 0.67527 0.44859 0.52797 0.0
C202 C 0.68035 0.45489 0.51009 0.0
C203 C 0.64393 0.39633 0.5914 0.0
C204 C 0.58896 0.40931 0.52897 0.0
C205 C 0.67154 0.34115 0.53307 0.0
O206 O 0.6547 0.34819 0.54755 0.0
O207 O 0.67894 0.36215 0.52072 0.0
O208 O 0.6213 0.38156 0.58304 0.0
O209 O 0.66441 0.40954 0.58033 0.0
O210 O 0.39384 0.85674 0.27927 0.0
Cd211 Cd 0.39081 0.9055 0.27913 0.0
Cd212 Cd 0.40849 0.89861 0.31661 0.0
O213 O 0.39968 0.85188 0.31057 0.0
O214 O 0.35902 0.91579 0.25874 0.0
O215 O 0.3505 0.92372 0.28972 0.0
C216 C 0.33976 0.92332 0.27235 0.0
C217 C 0.3924 0.91313 0.34738 0.0
C218 C 0.39595 0.8396 0.29416 0.0
C219 C 0.45558 0.92807 0.28877 0.0
O220 O 0.45 0.91692 0.30536 0.0
O221 O 0.43376 0.92921 0.27613 0.0
O222 O 0.41731 0.89628 0.34459 0.0
O223 O 0.37701 0.92331 0.33262 0.0
O224 O 0.60739 0.14397 0.52402 0.0
Cd225 Cd 0.65611 0.14072 0.5255 0.0
Cd226 Cd 0.64448 0.15914 0.5631 0.0
O227 O 0.5992 0.14728 0.55523 0.0
O228 O 0.66759 0.11218 0.50365 0.0
O229 O 0.67264 0.09808 0.53406 0.0
C230 C 0.67331 0.09035 0.51614 0.0
C231 C 0.65679 0.14766 0.59514 0.0
C232 C 0.58879 0.14429 0.53828 0.0
C233 C 0.67508 0.20642 0.53571 0.0
O234 O 0.66123 0.20098 0.55154 0.0
O235 O 0.67987 0.18405 0.5238 0.0
O236 O 0.6384 0.17069 0.59056 0.0
O237 O 0.66929 0.13126 0.58151 0.0
O238 O 0.09527 0.41436 0.80315 0.0
Cd239 Cd 0.13574 0.39335 0.81386 0.0
Cd240 Cd 0.15486 0.40426 0.77713 0.0
O241 O 0.11211 0.42875 0.77443 0.0
O242 O 0.12609 0.38879 0.84164 0.0
O243 O 0.16726 0.41591 0.83101 0.0
C244 C 0.15099 0.40522 0.84525 0.0
C245 C 0.20651 0.42235 0.77293 0.0
C246 C 0.0902 0.42721 0.78697 0.0
C247 C 0.14781 0.33677 0.78902 0.0
O248 O 0.15166 0.3556 0.77505 0.0
O249 O 0.14285 0.34709 0.80581 0.0
O250 O 0.18855 0.41642 0.75837 0.0
O251 O 0.19398 0.4214 0.78983 0.0
O252 O 0.93285 0.89711 0.02352 0.0
Cd253 Cd 0.88411 0.90055 0.02541 0.0
Cd254 Cd 0.89552 0.88172 0.06238 0.0
O255 O 0.94139 0.89074 0.05452 0.0
O256 O 0.87232 0.93018 1.00419 0.0
O257 O 0.86797 0.94265 0.0349 0.0
C258 C 0.86685 0.95128 0.01714 0.0
C259 C 0.88322 0.89732 0.09362 0.0
C260 C 0.95167 0.89484 0.03765 0.0
C261 C 0.86281 0.83536 0.03565 0.0
O262 O 0.87658 0.84035 0.05157 0.0
O263 O 0.85941 0.8578 0.02359 0.0
O264 O 0.90035 0.8728 0.09025 0.0
O265 O 0.87176 0.91273 0.07921 0.0
O266 O 0.4392 0.61359 0.30564 0.0
Cd267 Cd 0.40031 0.64033 0.31389 0.0
Cd268 Cd 0.39198 0.64017 0.2749 0.0
O269 O 0.43842 0.62279 0.27472 0.0
O270 O 0.4093 0.64366 0.34185 0.0
O271 O 0.36543 0.62207 0.33074 0.0
C272 C 0.38242 0.63068 0.34518 0.0
C273 C 0.34209 0.61923 0.26906 0.0
C274 C 0.4533 0.61342 0.28959 0.0
C275 C 0.39497 0.70314 0.29182 0.0
O276 O 0.39063 0.68821 0.27633 0.0
O277 O 0.39949 0.68848 0.3075 0.0
O278 O 0.36041 0.62717 0.255 0.0
O279 O 0.35378 0.61927 0.28624 0.0
O280 O 0.60597 0.90218 0.49381 0.0
Cd281 Cd 0.65469 0.90482 0.49199 0.0
Cd282 Cd 0.64328 0.88399 0.45507 0.0
O283 O 0.59713 0.89203 0.46321 0.0
O284 O 0.66651 0.93821 0.51111 0.0
O285 O 0.67245 0.94419 0.47978 0.0
C286 C 0.67289 0.95644 0.49677 0.0
C287 C 0.655 0.897 0.42323 0.0
C288 C 0.58699 0.89788 0.47995 0.0
C289 C 0.67656 0.83927 0.48288 0.0
O290 O 0.66392 0.84394 0.46658 0.0
O291 O 0.67832 0.86157 0.49517 0.0
O292 O 0.63823 0.87263 0.42749 0.0
O293 O 0.666 0.91405 0.43705 0.0
O294 O 0.44958 0.4045 0.72091 0.0
Cd295 Cd 0.40601 0.39107 0.70982 0.0
Cd296 Cd 0.39145 0.40641 0.74723 0.0
O297 O 0.43416 0.43076 0.74667 0.0
O298 O 0.38965 0.41656 0.68693 0.0
O299 O 0.41729 0.37319 0.68428 0.0
C300 C 0.40285 0.39602 0.6759 0.0
C301 C 0.34081 0.42397 0.75502 0.0
C302 C 0.45596 0.42203 0.73522 0.0
C303 C 0.38968 0.33935 0.73702 0.0
O304 O 0.39577 0.35823 0.75064 0.0
O305 O 0.38681 0.34952 0.72001 0.0
O306 O 0.36223 0.4203 0.76807 0.0
O307 O 0.34908 0.4209 0.73727 0.0
O308 O 0.9344 0.13995 0.99683 0.0
Cd309 Cd 0.88562 0.13717 0.99449 0.0
Cd310 Cd 0.89778 0.15731 0.9579 0.0
O311 O 0.94364 0.14823 0.9661 0.0
O312 O 0.87312 0.10416 0.01366 0.0
O313 O 0.86888 0.0975 0.98224 0.0
C314 C 0.8675 0.08568 0.99933 0.0
C315 C 0.88574 0.14323 0.92636 0.0
C316 C 0.9536 0.14328 0.98299 0.0
C317 C 0.86371 0.20238 0.98493 0.0
O318 O 0.87769 0.19787 0.96904 0.0
O319 O 0.86084 0.17981 0.99694 0.0
O320 O 0.90285 0.16755 0.93022 0.0
O321 O 0.87443 0.12696 0.94043 0.0
O322 O 0.0966 0.63608 0.22094 0.0
Cd323 Cd 0.14023 0.65056 0.21043 0.0
Cd324 Cd 0.15492 0.63445 0.24737 0.0
O325 O 0.11214 0.60975 0.24669 0.0
O326 O 0.15766 0.6255 0.18772 0.0
O327 O 0.12938 0.66845 0.18482 0.0
C328 C 0.14438 0.64588 0.17657 0.0
C329 C 0.20657 0.61727 0.25338 0.0
C330 C 0.09032 0.61819 0.2351 0.0
C331 C 0.15566 0.70194 0.23808 0.0
O332 O 0.15006 0.68248 0.25149 0.0
O333 O 0.15837 0.69241 0.22094 0.0
O334 O 0.18615 0.6198 0.26708 0.0
O335 O 0.19677 0.62131 0.23598 0.0
O336 O 0.43332 0.89875 0.49701 0.0
Cd337 Cd 0.38458 0.90247 0.4961 0.0
Cd338 Cd 0.39319 0.88634 0.45828 0.0
O339 O 0.43964 0.89418 0.46572 0.0
O340 O 0.37332 0.93113 0.51784 0.0
O341 O 0.36802 0.94488 0.48736 0.0
C342 C 0.36737 0.95275 0.50526 0.0
C343 C 0.38072 0.90298 0.42721 0.0
C344 C 0.45114 0.89714 0.48242 0.0
C345 C 0.36158 0.83847 0.48461 0.0
O346 O 0.37364 0.84467 0.46836 0.0
O347 O 0.36025 0.85959 0.49762 0.0
O348 O 0.39745 0.87809 0.43032 0.0
O349 O 0.36978 0.91826 0.44176 0.0
O350 O 0.89224 0.68584 0.243 0.0
Cd351 Cd 0.88994 0.63711 0.24221 0.0
Cd352 Cd 0.90855 0.64673 0.20459 0.0
O353 O 0.89797 0.69269 0.21181 0.0
O354 O 0.85746 0.62574 0.26203 0.0
O355 O 0.85006 0.61893 0.23085 0.0
C356 C 0.83862 0.61882 0.24805 0.0
C357 C 0.89603 0.63379 0.17286 0.0
C358 C 0.89405 0.70388 0.2285 0.0
C359 C 0.95558 0.61669 0.23257 0.0
O360 O 0.94995 0.62875 0.21621 0.0
O361 O 0.93362 0.61421 0.24503 0.0
O362 O 0.91968 0.65165 0.17699 0.0
O363 O 0.8796 0.62217 0.18675 0.0
O364 O 0.10825 0.14343 0.9983 0.0
Cd365 Cd 0.15681 0.13889 0.996 0.0
Cd366 Cd 0.145 0.15649 0.95867 0.0
O367 O 0.0996 0.14595 0.96713 0.0
O368 O 0.1686 0.10917 0.01714 0.0
O369 O 0.172 0.09652 0.9864 0.0
C370 C 0.17353 0.08797 1.00417 0.0
C371 C 0.15608 0.14243 0.92695 0.0
C372 C 0.08934 0.14387 0.98415 0.0
C373 C 0.1787 0.20315 0.98508 0.0
O374 O 0.16414 0.198 0.96942 0.0
O375 O 0.18246 0.18097 0.99726 0.0
O376 O 0.13853 0.16635 0.931 0.0
O377 O 0.16848 0.12663 0.94091 0.0
O378 O 0.65162 0.35719 0.74979 0.0
Cd379 Cd 0.65523 0.40538 0.74631 0.0
Cd380 Cd 0.64017 0.39068 0.70921 0.0
O381 O 0.65771 0.34793 0.71897 0.0
O382 O 0.68937 0.41918 0.7643 0.0
O383 O 0.69382 0.42127 0.73264 0.0
C384 C 0.70694 0.4235 0.74937 0.0
C385 C 0.64328 0.39679 0.67537 0.0
C386 C 0.65618 0.33804 0.7361 0.0
C387 C 0.59061 0.4218 0.73512 0.0
O388 O 0.59701 0.40543 0.72033 0.0
O389 O 0.6122 0.42901 0.74713 0.0
O390 O 0.65731 0.41639 0.68665 0.0
O391 O 0.62821 0.37412 0.68347 0.0
O392 O 0.43423 0.14016 0.52504 0.0
Cd393 Cd 0.38562 0.13821 0.52733 0.0
Cd394 Cd 0.39769 0.15718 0.56402 0.0
O395 O 0.44343 0.14738 0.55589 0.0
O396 O 0.37281 0.10445 0.5088 0.0
O397 O 0.36778 0.09972 0.5403 0.0
C398 C 0.36684 0.08683 0.52349 0.0
C399 C 0.3857 0.14422 0.5958 0.0
C400 C 0.45335 0.14263 0.53899 0.0
C401 C 0.3661 0.20385 0.53666 0.0
O402 O 0.37905 0.19843 0.55279 0.0
O403 O 0.36277 0.18174 0.52438 0.0
O404 O 0.40343 0.16792 0.59161 0.0
O405 O 0.37378 0.1279 0.58194 0.0
O406 O 0.64779 0.68374 0.26838 0.0
Cd407 Cd 0.65261 0.6354 0.27272 0.0
Cd408 Cd 0.64093 0.65215 0.30962 0.0
O409 O 0.65234 0.69589 0.29901 0.0
O410 O 0.68286 0.62057 0.25255 0.0
O411 O 0.69509 0.62252 0.28344 0.0
C412 C 0.70396 0.61815 0.26591 0.0
C413 C 0.65524 0.64314 0.34162 0.0
C414 C 0.65086 0.70421 0.28158 0.0
C415 C 0.58999 0.61597 0.28733 0.0
O416 O 0.59778 0.63392 0.30118 0.0
O417 O 0.61052 0.60911 0.27462 0.0
O418 O 0.63283 0.6623 0.3371 0.0
O419 O 0.66991 0.62861 0.32802 0.0
O420 O 0.1063 0.89877 0.02467 0.0
Cd421 Cd 0.15483 0.90229 0.02715 0.0
Cd422 Cd 0.14284 0.88367 0.06409 0.0
O423 O 0.09716 0.89356 0.05567 0.0
O424 O 0.16715 0.93559 1.00818 0.0
O425 O 0.17145 0.94175 0.03964 0.0
C426 C 0.17265 0.95389 0.02262 0.0
C427 C 0.15449 0.89583 0.0961 0.0
C428 C 0.08718 0.8971 0.03864 0.0
C429 C 0.1756 0.83736 0.03698 0.0
O430 O 0.16198 0.84259 0.0529 0.0
O431 O 0.17897 0.85948 0.02471 0.0
O432 O 0.13668 0.87235 0.0916 0.0
O433 O 0.16657 0.91247 0.08243 0.0
O434 O 0.896 0.35781 0.77448 0.0
Cd435 Cd 0.89181 0.40648 0.77643 0.0
Cd436 Cd 0.91086 0.39498 0.81364 0.0
O437 O 0.90186 0.34919 0.80551 0.0
O438 O 0.86294 0.41824 0.75482 0.0
O439 O 0.84916 0.42219 0.78533 0.0
C440 C 0.84126 0.4235 0.76745 0.0
C441 C 0.89599 0.40666 0.84512 0.0
C442 C 0.89812 0.33894 0.78859 0.0
C443 C 0.95657 0.42874 0.78683 0.0
O444 O 0.95189 0.41467 0.80269 0.0
O445 O 0.93407 0.43187 0.77479 0.0
O446 O 0.92053 0.38973 0.84142 0.0
O447 O 0.88007 0.41817 0.83093 0.0
C448 C 0.12363 0.66228 0.14419 0.0
C449 C 0.14566 0.64423 0.15506 0.0
C450 C 0.16641 0.62407 0.12452 0.0
C451 C 0.14901 0.64755 0.1142 0.0
N452 N 0.12142 0.69783 0.11755 0.0
N453 N 0.1951 0.61449 0.15384 0.0
C454 C 0.13082 0.66948 0.125 0.0
C455 C 0.16927 0.62696 0.14482 0.0
N456 N 0.09519 0.67155 0.15157 0.0
N457 N 0.17907 0.59833 0.11556 0.0
H458 H 0.20047 0.61848 0.16817 0.0
H459 H 0.21353 0.60376 0.14631 0.0
H460 H 0.17513 0.59295 0.10123 0.0
H461 H 0.18989 0.57999 0.12314 0.0
H462 H 0.07854 0.68382 0.14336 0.0
H463 H 0.08634 0.66283 0.16447 0.0
H464 H 0.10905 0.71442 0.12571 0.0
H465 H 0.13011 0.70669 0.10465 0.0
C466 C 0.6819 0.8862 0.39198 0.0
C467 C 0.66059 0.90491 0.40284 0.0
C468 C 0.63845 0.92765 0.3734 0.0
C469 C 0.65849 0.90759 0.36253 0.0
N470 N 0.70408 0.87363 0.36074 0.0
N471 N 0.62406 0.94852 0.40466 0.0
C472 C 0.68199 0.88891 0.37163 0.0
C473 C 0.6408 0.92752 0.39375 0.0
N474 N 0.70113 0.86501 0.40116 0.0
N475 N 0.61629 0.94575 0.36419 0.0
H476 H 0.62502 0.94859 0.41959 0.0
H477 H 0.61118 0.96736 0.39906 0.0
H478 H 0.61515 0.94753 0.34929 0.0
H479 H 0.59835 0.95809 0.37113 0.0
H480 H 0.71463 0.84796 0.39419 0.0
H481 H 0.70276 0.86378 0.41607 0.0
H482 H 0.72349 0.86161 0.36636 0.0
H483 H 0.70437 0.87504 0.34582 0.0
C484 C 0.4241 0.37951 0.64371 0.0
C485 C 0.40202 0.39774 0.65437 0.0
C486 C 0.38187 0.41785 0.62361 0.0
C487 C 0.3991 0.39409 0.61349 0.0
N488 N 0.42654 0.34375 0.61722 0.0
N489 N 0.35291 0.42799 0.65271 0.0
C490 C 0.41715 0.37221 0.62448 0.0
C491 C 0.37872 0.41516 0.6439 0.0
N492 N 0.45234 0.37009 0.65135 0.0
N493 N 0.36968 0.44368 0.61447 0.0
H494 H 0.34733 0.42424 0.66702 0.0
H495 H 0.33469 0.43883 0.64501 0.0
H496 H 0.37403 0.44897 0.60017 0.0
H497 H 0.35893 0.46219 0.6219 0.0
H498 H 0.4691 0.35773 0.64331 0.0
H499 H 0.46094 0.37874 0.66433 0.0
H500 H 0.43878 0.32721 0.62552 0.0
H501 H 0.41791 0.33472 0.60434 0.0
C502 C 0.89958 0.1108 0.89766 0.0
C503 C 0.88027 0.13442 0.9061 0.0
C504 C 0.86074 0.15013 0.87437 0.0
C505 C 0.88409 0.1305 0.86592 0.0
N506 N 0.92445 0.0906 0.86873 0.0
N507 N 0.84095 0.17534 0.90329 0.0
C508 C 0.90277 0.10994 0.87736 0.0
C509 C 0.85996 0.15337 0.89467 0.0
N510 N 0.91515 0.08964 0.90912 0.0
N511 N 0.83976 0.16595 0.86291 0.0
H512 H 0.83869 0.17696 0.91815 0.0
H513 H 0.82823 0.19257 0.89592 0.0
H514 H 0.84016 0.16431 0.848 0.0
H515 H 0.82051 0.17875 0.86803 0.0
H516 H 0.92768 0.07023 0.904 0.0
H517 H 0.91356 0.0901 0.92403 0.0
H518 H 0.94153 0.07766 0.8761 0.0
H519 H 0.92599 0.08826 0.85388 0.0
C520 C 0.18437 0.38769 0.89417 0.0
C521 C 0.16422 0.40677 0.90558 0.0
C522 C 0.14198 0.43158 0.87681 0.0
C523 C 0.16033 0.41075 0.86541 0.0
N524 N 0.20432 0.37491 0.86242 0.0
N525 N 0.12995 0.452 0.90855 0.0
C526 C 0.18354 0.39093 0.87387 0.0
C527 C 0.14522 0.43067 0.89711 0.0
N528 N 0.20326 0.3656 0.90283 0.0
N529 N 0.12054 0.4512 0.86814 0.0
H530 H 0.1316 0.45151 0.92345 0.0
H531 H 0.11764 0.47157 0.90341 0.0
H532 H 0.119 0.45352 0.85328 0.0
H533 H 0.10369 0.46442 0.87548 0.0
H534 H 0.21586 0.34829 0.8955 0.0
H535 H 0.20559 0.36402 0.91769 0.0
H536 H 0.22344 0.36189 0.86755 0.0
H537 H 0.20387 0.37661 0.84752 0.0
C538 C 0.89686 0.93213 0.12136 0.0
C539 C 0.87806 0.90739 0.11369 0.0
C540 C 0.86063 0.89279 0.14603 0.0
C541 C 0.88371 0.9136 0.15369 0.0
N542 N 0.92242 0.95466 0.14947 0.0
N543 N 0.84023 0.86549 0.11794 0.0
C544 C 0.90102 0.93418 0.14157 0.0
C545 C 0.85894 0.88846 0.12582 0.0
N546 N 0.91112 0.95317 0.10925 0.0
N547 N 0.84083 0.87687 0.15814 0.0
H548 H 0.83726 0.86308 0.10316 0.0
H549 H 0.82844 0.84827 0.12583 0.0
H550 H 0.84192 0.87932 0.17299 0.0
H551 H 0.82183 0.86312 0.15361 0.0
H552 H 0.92316 0.97327 0.1138 0.0
H553 H 0.90886 0.95186 0.0944 0.0
H554 H 0.93862 0.96783 0.14159 0.0
H555 H 0.92461 0.95775 0.16425 0.0
C556 C 0.38583 0.60726 0.39737 0.0
C557 C 0.36964 0.63355 0.40533 0.0
C558 C 0.35108 0.64915 0.37334 0.0
C559 C 0.37201 0.62661 0.36527 0.0
N560 N 0.40714 0.58225 0.36876 0.0
N561 N 0.33412 0.67766 0.40182 0.0
C562 C 0.38825 0.60463 0.37708 0.0
C563 C 0.35094 0.65362 0.39356 0.0
N564 N 0.39943 0.58535 0.40922 0.0
N565 N 0.33196 0.66661 0.36155 0.0
H566 H 0.33218 0.68017 0.41665 0.0
H567 H 0.3227 0.69548 0.3942 0.0
H568 H 0.33196 0.6639 0.3467 0.0
H569 H 0.31454 0.68206 0.36636 0.0
H570 H 0.40951 0.5643 0.40451 0.0
H571 H 0.39865 0.58703 0.4241 0.0
H572 H 0.4227 0.56772 0.37626 0.0
H573 H 0.40781 0.57879 0.35396 0.0
C574 C 0.67482 0.16335 0.64716 0.0
C575 C 0.65937 0.13731 0.65593 0.0
C576 C 0.64872 0.1139 0.62444 0.0
C577 C 0.66277 0.14076 0.61566 0.0
N578 N 0.69636 0.18647 0.61806 0.0
N579 N 0.6387 0.08446 0.65379 0.0
C580 C 0.67822 0.164 0.62689 0.0
C581 C 0.64888 0.11132 0.64481 0.0
N582 N 0.68518 0.18795 0.65822 0.0
N583 N 0.63346 0.09199 0.6134 0.0
H584 H 0.63815 0.0823 0.66868 0.0
H585 H 0.63334 0.06354 0.64666 0.0
H586 H 0.63342 0.09277 0.59847 0.0
H587 H 0.61947 0.07391 0.61893 0.0
H588 H 0.69307 0.20941 0.6527 0.0
H589 H 0.6847 0.18736 0.67316 0.0
H590 H 0.7105 0.20262 0.62536 0.0
H591 H 0.69945 0.18713 0.60323 0.0
C592 C 0.8627 0.39168 0.87327 0.0
C593 C 0.88639 0.41147 0.86532 0.0
C594 C 0.90066 0.43028 0.89744 0.0
C595 C 0.88099 0.40651 0.90542 0.0
N596 N 0.8418 0.36573 0.90168 0.0
N597 N 0.92681 0.45103 0.86905 0.0
C598 C 0.86114 0.3879 0.89353 0.0
C599 C 0.90469 0.43162 0.87719 0.0
N600 N 0.8421 0.37624 0.8614 0.0
N601 N 0.91576 0.45114 0.90928 0.0
H602 H 0.92899 0.45368 0.85424 0.0
H603 H 0.94364 0.46368 0.87678 0.0
H604 H 0.91356 0.45034 0.92415 0.0
H605 H 0.92848 0.47066 0.90448 0.0
H606 H 0.82263 0.36341 0.86615 0.0
H607 H 0.84307 0.37826 0.84652 0.0
H608 H 0.82941 0.34869 0.89399 0.0
H609 H 0.83894 0.36373 0.91649 0.0
C610 C 0.40142 0.11179 0.64528 0.0
C611 C 0.38352 0.13338 0.65642 0.0
C612 C 0.36054 0.15651 0.62735 0.0
C613 C 0.37998 0.13632 0.61618 0.0
N614 N 0.41289 0.08998 0.61381 0.0
N615 N 0.34068 0.17065 0.6589 0.0
C616 C 0.39825 0.11216 0.62496 0.0
C617 C 0.3611 0.15377 0.64768 0.0
N618 N 0.42242 0.09199 0.65418 0.0
N619 N 0.34256 0.17907 0.61844 0.0
H620 H 0.34087 0.16918 0.67383 0.0
H621 H 0.32203 0.18414 0.65358 0.0
H622 H 0.34037 0.1804 0.60357 0.0
H623 H 0.33066 0.19707 0.6256 0.0
H624 H 0.43898 0.07819 0.647 0.0
H625 H 0.42403 0.09019 0.66907 0.0
H626 H 0.4245 0.07018 0.61922 0.0
H627 H 0.41134 0.09005 0.5989 0.0
C628 C 0.64928 0.6162 0.39335 0.0
C629 C 0.66526 0.64171 0.40236 0.0
C630 C 0.68377 0.66065 0.37106 0.0
C631 C 0.66346 0.63854 0.36205 0.0
N632 N 0.62768 0.59441 0.36385 0.0
N633 N 0.69943 0.68714 0.40048 0.0
C634 C 0.64691 0.61561 0.37298 0.0
C635 C 0.68342 0.66338 0.39139 0.0
N636 N 0.63593 0.59294 0.4043 0.0
N637 N 0.70324 0.679 0.36005 0.0
H638 H 0.70122 0.68849 0.41537 0.0
H639 H 0.71012 0.70602 0.39345 0.0
H640 H 0.70381 0.67731 0.34514 0.0
H641 H 0.72049 0.694 0.36557 0.0
H642 H 0.62632 0.57224 0.39872 0.0
H643 H 0.63655 0.59314 0.41922 0.0
H644 H 0.61189 0.57948 0.37085 0.0
H645 H 0.62659 0.5926 0.34896 0.0
C646 C 0.17918 0.88403 0.1479 0.0
C647 C 0.15805 0.9054 0.15689 0.0
C648 C 0.14349 0.92767 0.12561 0.0
C649 C 0.16049 0.90287 0.11659 0.0
N650 N 0.19587 0.85831 0.11846 0.0
N651 N 0.12089 0.94843 0.15508 0.0
C652 C 0.17914 0.88156 0.12756 0.0
C653 C 0.14084 0.92789 0.14596 0.0
N654 N 0.19909 0.8661 0.15892 0.0
N655 N 0.12955 0.95062 0.11467 0.0
H656 H 0.11962 0.95004 0.16998 0.0
H657 H 0.10476 0.963 0.14806 0.0
H658 H 0.13057 0.95067 0.09974 0.0
H659 H 0.11903 0.97087 0.12025 0.0
H660 H 0.21694 0.8518 0.15341 0.0
H661 H 0.19938 0.86743 0.17384 0.0
H662 H 0.20696 0.83961 0.12548 0.0
H663 H 0.19778 0.85712 0.10357 0.0
C664 C 0.86461 0.6506 0.1233 0.0
C665 C 0.88516 0.63139 0.11223 0.0
C666 C 0.907 0.60754 0.14143 0.0
C667 C 0.88789 0.62817 0.1525 0.0
N668 N 0.84344 0.66362 0.15472 0.0
N669 N 0.92009 0.5866 0.10995 0.0
C670 C 0.8648 0.64767 0.14363 0.0
C671 C 0.9043 0.608 0.12108 0.0
N672 N 0.84595 0.67254 0.11432 0.0
N673 N 0.92858 0.58851 0.15043 0.0
H674 H 0.91869 0.58673 0.09503 0.0
H675 H 0.93253 0.56731 0.11537 0.0
H676 H 0.92984 0.58654 0.16532 0.0
H677 H 0.94588 0.5755 0.14334 0.0
H678 H 0.83315 0.68995 0.12144 0.0
H679 H 0.84413 0.67403 0.09943 0.0
H680 H 0.82433 0.67628 0.14926 0.0
H681 H 0.84339 0.66218 0.16963 0.0
C682 C 0.13597 0.10946 0.87826 0.0
C683 C 0.1555 0.12866 0.86651 0.0
C684 C 0.18137 0.15092 0.89495 0.0
C685 C 0.16047 0.13322 0.90667 0.0
N686 N 0.12346 0.0904 0.91026 0.0
N687 N 0.20149 0.16177 0.86298 0.0
C688 C 0.13973 0.11055 0.89852 0.0
C689 C 0.17998 0.14727 0.87467 0.0
N690 N 0.11306 0.09117 0.86996 0.0
N691 N 0.20152 0.17219 0.90326 0.0
H692 H 0.20065 0.15996 0.84809 0.0
H693 H 0.22151 0.17358 0.86791 0.0
H694 H 0.2041 0.17412 0.91809 0.0
H695 H 0.21484 0.18864 0.89567 0.0
H696 H 0.09545 0.07942 0.87756 0.0
H697 H 0.11102 0.08856 0.85514 0.0
H698 H 0.1098 0.07159 0.90537 0.0
H699 H 0.12558 0.091 0.92514 0.0
C700 C 0.62739 0.37542 0.62375 0.0
C701 C 0.64571 0.39725 0.61293 0.0
C702 C 0.66721 0.41666 0.6435 0.0
C703 C 0.64373 0.39942 0.65387 0.0
N704 N 0.59259 0.37337 0.65073 0.0
N705 N 0.67638 0.44602 0.6144 0.0
C706 C 0.62096 0.38224 0.64309 0.0
C707 C 0.66372 0.42019 0.62327 0.0
N708 N 0.61728 0.3474 0.61622 0.0
N709 N 0.69349 0.42855 0.65233 0.0
H710 H 0.6719 0.45192 0.60019 0.0
H711 H 0.68772 0.46398 0.62201 0.0
H712 H 0.69924 0.42418 0.66656 0.0
H713 H 0.7118 0.43921 0.64467 0.0
H714 H 0.60479 0.33091 0.6244 0.0
H715 H 0.62557 0.33852 0.60324 0.0
H716 H 0.57539 0.36175 0.64261 0.0
H717 H 0.58441 0.38184 0.66385 0.0
C718 C 0.39977 0.93888 0.37928 0.0
C719 C 0.3816 0.9189 0.36724 0.0
C720 C 0.35536 0.89559 0.39517 0.0
C721 C 0.3755 0.91356 0.40723 0.0
N722 N 0.41067 0.95773 0.41155 0.0
N723 N 0.3368 0.88447 0.36287 0.0
C724 C 0.39546 0.93728 0.39949 0.0
C725 C 0.35735 0.89953 0.37495 0.0
N726 N 0.42207 0.95827 0.37132 0.0
N727 N 0.33544 0.87378 0.40315 0.0
H728 H 0.33808 0.88662 0.34801 0.0
H729 H 0.31708 0.87182 0.36743 0.0
H730 H 0.33238 0.87174 0.41794 0.0
H731 H 0.32267 0.85715 0.39535 0.0
H732 H 0.43879 0.97087 0.37916 0.0
H733 H 0.42438 0.96106 0.35653 0.0
H734 H 0.42381 0.9771 0.40696 0.0
H735 H 0.40812 0.95674 0.42639 0.0
C736 C 0.03996 0.66604 0.02413 0.0
C737 C 0.05629 0.63729 0.02789 0.0
C738 C 1.00588 0.60967 0.03266 0.0
C739 C 0.98965 0.63849 0.02915 0.0
N740 N 0.98993 0.69208 0.01736 0.0
N741 N 0.05559 0.5807 0.03149 0.0
C742 C 1.00631 0.66598 0.02338 0.0
C743 C 0.03942 0.60871 0.03081 0.0
N744 N 0.05647 0.69376 0.02256 0.0
N745 N 0.98922 0.58349 0.0382 0.0
H746 H 0.08016 0.57941 0.03006 0.0
H747 H 0.04472 0.55862 0.03184 0.0
H748 H 0.96452 0.58296 0.03866 0.0
H749 H 0.99971 0.56275 0.04314 0.0
H750 H 0.04582 0.71596 0.02224 0.0
H751 H 0.08112 0.69495 0.02288 0.0
H752 H 1.00061 0.71166 0.01103 0.0
H753 H 0.96526 0.69322 0.01723 0.0
C754 C 0.62447 0.75487 0.27208 0.0
C755 C 0.65257 0.73834 0.27705 0.0
C756 C 0.68126 0.78852 0.28016 0.0
C757 C 0.65216 0.80487 0.27811 0.0
N758 N 0.59599 0.80483 0.27202 0.0
N759 N 0.70813 0.73825 0.28485 0.0
C760 C 0.62381 0.78843 0.27367 0.0
C761 C 0.68123 0.75488 0.28058 0.0
N762 N 0.59838 0.73841 0.26615 0.0
N763 N 0.70884 0.80533 0.28154 0.0
H764 H 0.70931 0.71362 0.28402 0.0
H765 H 0.72897 0.74852 0.28979 0.0
H766 H 0.7094 0.83 0.28141 0.0
H767 H 0.73127 0.79515 0.28138 0.0
H768 H 0.57813 0.74899 0.26055 0.0
H769 H 0.59772 0.71379 0.26545 0.0
H770 H 0.57382 0.79423 0.2711 0.0
H771 H 0.5948 0.82947 0.27253 0.0
C772 C 0.5037 0.43702 0.52836 0.0
C773 C 0.48796 0.40799 0.52467 0.0
C774 C 0.53889 0.38108 0.52042 0.0
C775 C 0.55464 0.40987 0.52476 0.0
N776 N 0.55329 0.46632 0.52872 0.0
N777 N 0.48961 0.35427 0.51302 0.0
C778 C 0.53736 0.43826 0.52739 0.0
C779 C 0.50528 0.38071 0.51914 0.0
N780 N 0.48634 0.46314 0.5332 0.0
N781 N 0.55594 0.35366 0.5188 0.0
H782 H 0.46501 0.35242 0.51278 0.0
H783 H 0.50081 0.33492 0.50678 0.0
H784 H 0.5806 0.35288 0.51931 0.0
H785 H 0.54577 0.33127 0.51816 0.0
H786 H 0.49615 0.48412 0.53823 0.0
H787 H 0.46164 0.46347 0.53276 0.0
H788 H 0.54232 0.48835 0.52909 0.0
H789 H 0.57793 0.46771 0.52793 0.0
C790 C 0.86837 0.2886 0.7829 0.0
C791 C 0.8977 0.30441 0.78544 0.0
C792 C 0.92585 0.25368 0.78545 0.0
C793 C 0.89627 0.23786 0.78544 0.0
N794 N 0.83931 0.23904 0.78412 0.0
N795 N 0.95444 0.30307 0.78923 0.0
C796 C 0.86747 0.25497 0.78385 0.0
C797 C 0.92653 0.28723 0.78658 0.0
N798 N 0.84144 0.30585 0.77976 0.0
N799 N 0.9532 0.23648 0.78399 0.0
H800 H 0.95607 0.3277 0.78899 0.0
H801 H 0.9758 0.29205 0.79252 0.0
H802 H 0.9534 0.21184 0.78307 0.0
H803 H 0.97549 0.24646 0.78209 0.0
H804 H 0.8198 0.29601 0.77587 0.0
H805 H 0.84112 0.3305 0.77987 0.0
H806 H 0.81729 0.24991 0.78523 0.0
H807 H 0.83798 0.21442 0.78407 0.0
C808 C 1.00448 0.42171 0.99053 0.0
C809 C 0.98821 0.39358 0.98543 0.0
C810 C 0.03865 0.36521 0.98273 0.0
C811 C 0.05487 0.3943 0.98506 0.0
N812 N 0.05425 0.45048 0.99082 0.0
N813 N 0.98886 0.33829 0.97692 0.0
C814 C 0.0381 0.42259 0.98916 0.0
C815 C 1.00505 0.36518 0.98171 0.0
N816 N 0.98776 0.44754 0.99659 0.0
N817 N 0.05548 0.33756 0.98206 0.0
H818 H 0.96423 0.33664 0.97748 0.0
H819 H 0.99962 0.31796 0.97161 0.0
H820 H 0.08013 0.33679 0.98299 0.0
H821 H 0.04515 0.31522 0.98226 0.0
H822 H 0.99818 0.46776 1.00227 0.0
H823 H 0.96313 0.44791 0.99733 0.0
H824 H 0.0434 0.47256 0.99151 0.0
H825 H 0.07888 0.45178 0.99046 0.0
C826 C 0.91664 0.78833 0.24148 0.0
C827 C 0.89284 0.80521 0.23136 0.0
C828 C 0.86668 0.75543 0.22275 0.0
C829 C 0.89241 0.73856 0.23092 0.0
N830 N 0.94334 0.73819 0.24663 0.0
N831 N 0.84544 0.80573 0.21202 0.0
C832 C 0.91758 0.75476 0.24018 0.0
C833 C 0.86781 0.78899 0.22197 0.0
N834 N 0.93862 0.8044 0.2521 0.0
N835 N 0.84081 0.73926 0.21617 0.0
H836 H 0.8441 0.83036 0.21224 0.0
H837 H 0.82901 0.79545 0.20282 0.0
H838 H 0.83942 0.71465 0.2163 0.0
H839 H 0.81976 0.75002 0.21195 0.0
H840 H 0.95424 0.79348 0.26157 0.0
H841 H 0.93999 0.829 0.2525 0.0
H842 H 0.96415 0.74874 0.25141 0.0
H843 H 0.945 0.71361 0.24596 0.0
C844 C 0.50226 0.67531 0.4801 0.0
C845 C 0.48589 0.6461 0.48117 0.0
C846 C 0.53632 0.61752 0.48398 0.0
C847 C 0.55261 0.64634 0.48058 0.0
N848 N 0.55204 0.70273 0.47521 0.0
N849 N 0.4862 0.58929 0.48367 0.0
C850 C 0.53583 0.6753 0.47867 0.0
C851 C 0.5026 0.61716 0.48325 0.0
N852 N 0.48561 0.70306 0.48102 0.0
N853 N 0.55313 0.59057 0.48779 0.0
H854 H 0.46154 0.58833 0.48379 0.0
H855 H 0.49673 0.56707 0.48294 0.0
H856 H 0.57781 0.58971 0.48761 0.0
H857 H 0.5429 0.56947 0.49232 0.0
H858 H 0.49607 0.72524 0.48225 0.0
H859 H 0.46099 0.70386 0.48217 0.0
H860 H 0.54127 0.72389 0.47123 0.0
H861 H 0.5767 0.70415 0.47547 0.0
C862 C 0.62628 0.25454 0.74496 0.0
C863 C 0.6531 0.23706 0.73891 0.0
C864 C 0.68406 0.28589 0.73639 0.0
C865 C 0.65604 0.30355 0.73959 0.0
N866 N 0.59985 0.30543 0.74591 0.0
N867 N 0.70767 0.23499 0.72894 0.0
C868 C 0.62705 0.28812 0.74394 0.0
C869 C 0.68216 0.25242 0.73479 0.0
N870 N 0.60003 0.23901 0.7515 0.0
N871 N 0.71248 0.30122 0.73533 0.0
H872 H 0.70762 0.21031 0.7287 0.0
H873 H 0.72838 0.24485 0.72353 0.0
H874 H 0.7144 0.32566 0.73688 0.0
H875 H 0.73427 0.28976 0.73467 0.0
H876 H 0.58098 0.25031 0.75802 0.0
H877 H 0.59828 0.2144 0.75183 0.0
H878 H 0.57737 0.29545 0.74673 0.0
H879 H 0.59932 0.33008 0.74547 0.0
C880 C 0.41558 0.28795 0.74604 0.0
C881 C 0.38801 0.30486 0.74038 0.0
C882 C 0.36099 0.2552 0.73281 0.0
C883 C 0.38842 0.23827 0.73859 0.0
N884 N 0.4391 0.2375 0.75458 0.0
N885 N 0.3323 0.30498 0.73317 0.0
C886 C 0.41471 0.25434 0.74666 0.0
C887 C 0.35997 0.28853 0.73529 0.0
N888 N 0.44325 0.3038 0.74948 0.0
N889 N 0.33629 0.23953 0.72445 0.0
H890 H 0.33086 0.3294 0.7352 0.0
H891 H 0.31035 0.29424 0.73123 0.0
H892 H 0.33573 0.215 0.72303 0.0
H893 H 0.31725 0.25086 0.71789 0.0
H894 H 0.46501 0.2926 0.75128 0.0
H895 H 0.44516 0.32836 0.74913 0.0
H896 H 0.4572 0.24783 0.76255 0.0
H897 H 0.44003 0.21286 0.75452 0.0
C898 C 0.12769 0.7524 0.24643 0.0
C899 C 0.15626 0.73637 0.24177 0.0
C900 C 0.18308 0.78701 0.23643 0.0
C901 C 0.15438 0.80294 0.24072 0.0
N902 N 0.10176 0.80208 0.25401 0.0
N903 N 0.21255 0.73759 0.23661 0.0
C904 C 0.12753 0.78601 0.24725 0.0
C905 C 0.18446 0.7535 0.23814 0.0
N906 N 0.10023 0.73566 0.24873 0.0
N907 N 0.20872 0.80394 0.23028 0.0
H908 H 0.21413 0.71304 0.23788 0.0
H909 H 0.23451 0.74862 0.23569 0.0
H910 H 0.20906 0.82862 0.22996 0.0
H911 H 0.22916 0.79371 0.22474 0.0
H912 H 0.07797 0.74611 0.24973 0.0
H913 H 0.0992 0.71104 0.24836 0.0
H914 H 0.0828 0.7912 0.26088 0.0
H915 H 0.10038 0.82671 0.25418 0.0
C916 C 0.17546 0.25154 0.78403 0.0
C917 C 0.14606 0.23571 0.78616 0.0
C918 C 0.11783 0.28639 0.78543 0.0
C919 C 0.14738 0.30226 0.78577 0.0
N920 N 0.20437 0.30119 0.78535 0.0
N921 N 0.0892 0.23698 0.78906 0.0
C922 C 0.17626 0.28518 0.78476 0.0
C923 C 0.11717 0.25284 0.78674 0.0
N924 N 0.20254 0.2343 0.78146 0.0
N925 N 0.09051 0.30352 0.78348 0.0
H926 H 0.08763 0.21234 0.78899 0.0
H927 H 0.06769 0.24799 0.79194 0.0
H928 H 0.0903 0.32815 0.78245 0.0
H929 H 0.06831 0.29348 0.78131 0.0
H930 H 0.22433 0.24412 0.77788 0.0
H931 H 0.2029 0.20965 0.78175 0.0
H932 H 0.22637 0.2904 0.78688 0.0
H933 H 0.20564 0.3258 0.78513 0.0
C934 C 0.36963 0.75445 0.30108 0.0
C935 C 0.39457 0.7381 0.2917 0.0
C936 C 0.42041 0.78844 0.28384 0.0
C937 C 0.39481 0.80478 0.29251 0.0
N938 N 0.34301 0.80442 0.30695 0.0
N939 N 0.44181 0.73877 0.27226 0.0
C940 C 0.36887 0.78807 0.30051 0.0
C941 C 0.41929 0.7549 0.28239 0.0
N942 N 0.34677 0.73779 0.31062 0.0
N943 N 0.44657 0.80488 0.27796 0.0
H944 H 0.44331 0.71416 0.272 0.0
H945 H 0.45802 0.74963 0.26317 0.0
H946 H 0.44831 0.82946 0.27874 0.0
H947 H 0.46758 0.79425 0.27359 0.0
H948 H 0.33027 0.74809 0.31975 0.0
H949 H 0.34514 0.71319 0.31024 0.0
H950 H 0.3218 0.79383 0.31096 0.0
H951 H 0.34181 0.82905 0.30698 0.0
C952 C 0.50371 0.17219 0.53465 0.0
C953 C 0.48776 0.14274 0.53549 0.0
C954 C 0.53832 0.11445 0.53348 0.0
C955 C 0.55426 0.14381 0.53524 0.0
N956 N 0.55331 0.20069 0.53768 0.0
N957 N 0.48855 0.08581 0.53554 0.0
C958 C 0.53728 0.17276 0.53569 0.0
C959 C 0.50468 0.1138 0.53459 0.0
N960 N 0.48663 0.1995 0.53253 0.0
N961 N 0.55544 0.08735 0.53079 0.0
H962 H 0.4639 0.08467 0.53556 0.0
H963 H 0.49932 0.06382 0.53712 0.0
H964 H 0.58013 0.08707 0.53052 0.0
H965 H 0.54543 0.06551 0.52758 0.0
H966 H 0.49674 0.22153 0.52996 0.0
H967 H 0.46195 0.19982 0.53177 0.0
H968 H 0.5424 0.22227 0.54047 0.0
H969 H 0.57797 0.20216 0.53748 0.0
C970 C 1.0023 0.92467 0.03301 0.0
C971 C 0.98618 0.89536 0.03455 0.0
C972 C 0.03659 0.8669 0.03636 0.0
C973 C 0.05274 0.89625 0.03507 0.0
N974 N 0.05217 0.95198 0.02789 0.0
N975 N 0.98687 0.83845 0.03341 0.0
C976 C 0.03593 0.92482 0.03192 0.0
C977 C 1.00304 0.86638 0.03487 0.0
N978 N 0.9855 0.95232 0.0335 0.0
N979 N 0.05335 0.83965 0.03945 0.0
H980 H 0.96225 0.83737 0.0323 0.0
H981 H 0.99774 0.81653 0.0317 0.0
H982 H 0.07805 0.83884 0.03942 0.0
H983 H 0.04298 0.81807 0.04289 0.0
H984 H 0.99586 0.97457 0.03458 0.0
H985 H 0.96082 0.95298 0.03398 0.0
H986 H 0.04138 0.97303 0.02372 0.0
H987 H 0.07681 0.95278 0.02718 0.0
C988 C 0.50262 0.86811 0.48272 0.0
C989 C 0.48589 0.89704 0.4847 0.0
C990 C 0.53583 0.92656 0.48561 0.0
C991 C 0.5525 0.89765 0.4834 0.0
N992 N 0.55313 0.84069 0.4841 0.0
N993 N 0.48556 0.95297 0.49128 0.0
C994 C 0.53626 0.86831 0.48325 0.0
C995 C 0.50224 0.92603 0.4873 0.0
N996 N 0.48627 0.84056 0.47992 0.0
N997 N 0.55205 0.95454 0.48519 0.0
H998 H 0.46089 0.95358 0.49181 0.0
H999 H 0.49597 0.97426 0.49529 0.0
H1000 H 0.57667 0.95565 0.48452 0.0
H1001 H 0.5413 0.97666 0.48452 0.0
H1002 H 0.49685 0.8193 0.476 0.0
H1003 H 0.46162 0.83919 0.48062 0.0
H1004 H 0.54288 0.81852 0.48593 0.0
H1005 H 0.57782 0.84006 0.48458 0.0
C1006 C 0.03871 0.11423 0.98082 0.0
C1007 C 0.05482 0.14163 0.98722 0.0
C1008 C 1.00419 0.16671 0.9953 0.0
C1009 C 0.98813 0.14122 0.9863 0.0
N1010 N 0.98945 0.09104 0.96987 0.0
N1011 N 0.05383 0.19471 0.9998 0.0
C1012 C 1.00521 0.11494 0.97899 0.0
C1013 C 0.03785 0.16792 0.99457 0.0
N1014 N 0.05553 0.08735 0.97689 0.0
N1015 N 0.98724 0.18995 1.00427 0.0
H1016 H 0.07848 0.19629 0.99977 0.0
H1017 H 0.04281 0.21606 1.00306 0.0
H1018 H 0.96257 0.19068 1.00432 0.0
H1019 H 0.99747 0.20731 0.01283 0.0
H1020 H 0.0451 0.06558 0.97395 0.0
H1021 H 0.08011 0.08608 0.97832 0.0
H1022 H 1.00069 0.07318 0.96219 0.0
H1023 H 0.96483 0.08996 0.96904 0.0
C1024 C 0.15258 0.50834 0.99317 0.0
C1025 C 0.17733 0.48857 1.00014 0.0
C1026 C 0.20315 0.53516 0.01461 0.0
C1027 C 0.17689 0.55412 1.00915 0.0
N1028 N 0.12362 0.55739 0.99667 0.0
N1029 N 0.22527 0.48237 0.01852 0.0
C1030 C 0.15095 0.54042 0.9992 0.0
C1031 C 0.20237 0.50179 0.01119 0.0
N1032 N 0.13015 0.49653 0.98096 0.0
N1033 N 0.22916 0.54924 0.02254 0.0
H1034 H 0.22661 0.45834 0.01522 0.0
H1035 H 0.24207 0.48962 0.02851 0.0
H1036 H 0.23029 0.57349 0.02523 0.0
H1037 H 0.25041 0.53752 0.02517 0.0
H1038 H 0.1143 0.51078 0.97344 0.0
H1039 H 0.12851 0.47281 0.97713 0.0
H1040 H 0.10251 0.54749 0.99182 0.0
H1041 H 0.1208 0.5807 1.00121 0.0
C1042 C 0.791 0.95299 0.26137 0.0
C1043 C 0.80441 0.92745 0.25091 0.0
C1044 C 0.75298 0.9002 0.25104 0.0
C1045 C 0.739 0.92665 0.26031 0.0
N1046 N 0.74328 0.9797 0.27245 0.0
N1047 N 0.79746 0.87824 0.23375 0.0
C1048 C 0.75765 0.95348 0.26502 0.0
C1049 C 0.78508 0.9017 0.24499 0.0
N1050 N 0.81024 0.97657 0.26798 0.0
N1051 N 0.7362 0.87265 0.24918 0.0
H1052 H 0.82138 0.87647 0.23032 0.0
H1053 H 0.78363 0.86143 0.22676 0.0
H1054 H 0.71281 0.87005 0.25365 0.0
H1055 H 0.74622 0.85131 0.24486 0.0
H1056 H 0.80288 0.99404 0.27748 0.0
H1057 H 0.83431 0.97775 0.26468 0.0
H1058 H 0.7547 1.00124 0.2745 0.0
H1059 H 0.71905 0.9806 0.27533 0.0
C1060 C 0.38984 0.50098 0.49827 0.0
C1061 C 0.36459 0.48747 0.50893 0.0
C1062 C 0.33934 0.53985 0.51116 0.0
C1063 C 0.36352 0.55279 0.49934 0.0
N1064 N 0.40891 0.54417 0.4788 0.0
N1065 N 0.31332 0.49266 0.52353 0.0
C1066 C 0.38763 0.53281 0.49186 0.0
C1067 C 0.33875 0.50655 0.51485 0.0
N1068 N 0.41715 0.48415 0.49544 0.0
N1069 N 0.31708 0.55947 0.51894 0.0
H1070 H 0.31237 0.46846 0.52644 0.0
H1071 H 0.29229 0.50447 0.52657 0.0
H1072 H 0.31557 0.58345 0.5155 0.0
H1073 H 0.30105 0.55243 0.52941 0.0
H1074 H 0.43782 0.49406 0.48997 0.0
H1075 H 0.42053 0.46112 0.50037 0.0
H1076 H 0.42416 0.52962 0.47107 0.0
H1077 H 0.40999 0.56767 0.47446 0.0
C1078 C 0.78926 0.08937 0.75886 0.0
C1079 C 0.80204 0.11465 0.76985 0.0
C1080 C 0.75033 0.1413 0.76931 0.0
C1081 C 0.73689 0.11502 0.75959 0.0
N1082 N 0.74217 0.06226 0.74714 0.0
N1083 N 0.79312 0.16213 0.78848 0.0
C1084 C 0.756 0.08852 0.75489 0.0
C1085 C 0.78199 0.1396 0.77615 0.0
N1086 N 0.80898 0.0663 0.75211 0.0
N1087 N 0.73365 0.16898 0.7708 0.0
H1088 H 0.81651 0.16343 0.79309 0.0
H1089 H 0.77845 0.17829 0.79542 0.0
H1090 H 0.71084 0.17201 0.76539 0.0
H1091 H 0.74358 0.19011 0.77556 0.0
H1092 H 0.80209 0.04924 0.74221 0.0
H1093 H 0.83291 0.06511 0.75579 0.0
H1094 H 0.75398 0.04092 0.74507 0.0
H1095 H 0.71802 0.06108 0.74406 0.0
C1096 C 0.89423 0.53811 1.00157 0.0
C1097 C 0.86764 0.55219 0.01064 0.0
C1098 C 0.84126 0.50029 0.01168 0.0
C1099 C 0.86692 0.48681 1.00133 0.0
N1100 N 0.91578 0.4941 0.98377 0.0
N1101 N 0.81431 0.54806 0.0224 0.0
C1102 C 0.89258 0.50617 0.99531 0.0
C1103 C 0.8407 0.53363 0.01521 0.0
N1104 N 0.92205 0.55457 1.00012 0.0
N1105 N 0.81757 0.48115 0.01825 0.0
H1106 H 0.81337 0.57229 0.0252 0.0
H1107 H 0.79271 0.53667 0.02431 0.0
H1108 H 0.81627 0.45713 0.01491 0.0
H1109 H 0.80008 0.48859 0.02773 0.0
H1110 H 0.94337 0.54434 0.9959 0.0
H1111 H 0.92488 0.57771 1.00497 0.0
H1112 H 0.93257 0.50813 0.97691 0.0
H1113 H 0.9172 0.47042 0.9798 0.0
C1114 C 0.24979 0.14088 0.7525 0.0
C1115 C 0.23619 0.11471 0.76228 0.0
C1116 C 0.28834 0.08854 0.763 0.0
C1117 C 0.30138 0.11388 0.75216 0.0
N1118 N 0.29314 0.16199 0.73396 0.0
N1119 N 0.24103 0.06172 0.77453 0.0
C1120 C 0.28158 0.13913 0.74593 0.0
C1121 C 0.25509 0.08798 0.76693 0.0
N1122 N 0.23312 0.16853 0.75072 0.0
N1123 N 0.30783 0.06516 0.76964 0.0
H1124 H 0.21684 0.06064 0.77748 0.0
H1125 H 0.25264 0.04026 0.77656 0.0
H1126 H 0.33173 0.06375 0.76597 0.0
H1127 H 0.3008 0.04803 0.77947 0.0
H1128 H 0.24314 0.18969 0.74609 0.0
H1129 H 0.21004 0.1715 0.75563 0.0
H1130 H 0.27873 0.17822 0.72685 0.0
H1131 H 0.31676 0.16367 0.72993 0.0
C1132 C 0.67665 0.49944 0.48584 0.0
C1133 C 0.68861 0.488 0.50357 0.0
C1134 C 0.70131 0.54323 0.51217 0.0
C1135 C 0.6815 0.55417 0.49703 0.0
N1136 N 0.64535 0.54049 0.47127 0.0
N1137 N 0.71819 0.49936 0.53229 0.0
C1138 C 0.66801 0.53174 0.48423 0.0
C1139 C 0.70275 0.51009 0.51637 0.0
N1140 N 0.67457 0.48012 0.47025 0.0
N1141 N 0.71973 0.56431 0.52197 0.0
H1142 H 0.72414 0.4756 0.53413 0.0
H1143 H 0.72497 0.51392 0.5436 0.0
H1144 H 0.72043 0.58834 0.5186 0.0
H1145 H 0.73662 0.55772 0.53208 0.0
H1146 H 0.66748 0.48834 0.45681 0.0
H1147 H 0.68502 0.45783 0.46982 0.0
H1148 H 0.63312 0.52405 0.46294 0.0
H1149 H 0.63594 0.56322 0.47041 0.0
C1150 C 0.25855 0.95191 0.25462 0.0
C1151 C 0.23999 0.92464 0.25844 0.0
C1152 C 0.28592 0.89875 0.27338 0.0
C1153 C 0.30513 0.92511 0.26845 0.0
N1154 N 0.3111 0.97541 0.2527 0.0
N1155 N 0.2375 0.86963 0.26767 0.0
C1156 C 0.29182 0.95132 0.25853 0.0
C1157 C 0.25404 0.89746 0.26691 0.0
N1158 N 0.24415 0.97859 0.24777 0.0
N1159 N 0.2982 0.87462 0.28417 0.0
H1160 H 0.21433 0.86722 0.26273 0.0
H1161 H 0.24763 0.84805 0.27145 0.0
H1162 H 0.32196 0.87318 0.28808 0.0
H1163 H 0.28438 0.857 0.29038 0.0
H1164 H 0.25548 1.00032 0.24641 0.0
H1165 H 0.22 0.97951 0.24463 0.0
H1166 H 0.30379 0.9936 0.24365 0.0
H1167 H 0.33515 0.97628 0.2561 0.0
C1168 C 0.64929 0.04315 0.4998 0.0
C1169 C 0.67509 0.05646 0.51012 0.0
C1170 C 0.70063 1.00402 0.51118 0.0
C1171 C 0.67582 0.99135 0.49972 0.0
N1172 N 0.62932 1.00057 0.48015 0.0
N1173 N 0.72754 0.05091 0.52322 0.0
C1174 C 0.65127 1.01154 0.49294 0.0
C1175 C 0.70141 0.03723 0.51517 0.0
N1176 N 0.62167 0.05982 0.49778 0.0
N1177 N 0.72333 0.98423 0.51836 0.0
H1178 H 0.72885 0.07507 0.52616 0.0
H1179 H 0.74877 0.039 0.52556 0.0
H1180 H 0.72467 0.96035 0.51468 0.0
H1181 H 0.73988 0.99103 0.52862 0.0
H1182 H 0.60076 0.04992 0.49261 0.0
H1183 H 0.61835 0.08258 0.50311 0.0
H1184 H 0.6136 1.01534 0.47289 0.0
H1185 H 0.62812 0.97723 0.47553 0.0
C1186 C 0.25421 0.4506 0.75913 0.0
C1187 C 0.24144 0.42546 0.77026 0.0
C1188 C 0.2934 0.39926 0.77044 0.0
C1189 C 0.30673 0.42535 0.76048 0.0
N1190 N 0.30125 0.47772 0.74742 0.0
N1191 N 0.25039 0.37848 0.78942 0.0
C1192 C 0.2875 0.45158 0.75537 0.0
C1193 C 0.26158 0.40083 0.77697 0.0
N1194 N 0.23443 0.4734 0.75206 0.0
N1195 N 0.31039 0.37185 0.77248 0.0
H1196 H 0.2269 0.37702 0.79378 0.0
H1197 H 0.26505 0.36263 0.79665 0.0
H1198 H 0.33342 0.36898 0.76742 0.0
H1199 H 0.30061 0.35074 0.77739 0.0
H1200 H 0.24133 0.49028 0.74204 0.0
H1201 H 0.21047 0.47457 0.75561 0.0
H1202 H 0.28934 0.49892 0.74504 0.0
H1203 H 0.32544 0.47899 0.74448 0.0
C1204 C 0.83841 1.00409 0.01592 0.0
C1205 C 0.86552 0.98542 0.0118 0.0
C1206 C 0.89129 0.03147 0.99695 0.0
C1207 C 0.86529 0.05083 1.00242 0.0
N1208 N 0.81522 0.05665 0.0185 0.0
N1209 N 0.92025 0.98273 1.00187 0.0
C1210 C 0.83916 0.03742 0.01235 0.0
C1211 C 0.89251 0.99941 1.00308 0.0
N1212 N 0.81169 0.98974 0.0227 0.0
N1213 N 0.91529 0.04376 0.98611 0.0
H1214 H 0.92272 0.95942 1.00649 0.0
H1215 H 0.94181 0.99281 0.99801 0.0
H1216 H 0.91717 0.06762 0.98263 0.0
H1217 H 0.93242 0.02989 0.97944 0.0
H1218 H 0.79004 1.0012 0.02427 0.0
H1219 H 0.81054 0.9655 0.02546 0.0
H1220 H 0.79726 0.04927 0.02765 0.0
H1221 H 0.81421 0.0807 0.01518 0.0
C1222 C 0.29381 0.59143 0.25541 0.0
C1223 C 0.30717 0.61689 0.26597 0.0
C1224 C 0.25503 0.64289 0.26712 0.0
C1225 C 0.24115 0.61638 0.25785 0.0
N1226 N 0.24616 0.56398 0.24483 0.0
N1227 N 0.29994 0.6655 0.28373 0.0
C1228 C 0.26026 0.59025 0.25238 0.0
C1229 C 0.28753 0.64202 0.27251 0.0
N1230 N 0.31327 0.56859 0.24813 0.0
N1231 N 0.23766 0.66994 0.26965 0.0
H1232 H 0.32401 0.66795 0.28662 0.0
H1233 H 0.28609 0.68169 0.29121 0.0
H1234 H 0.21395 0.67207 0.2657 0.0
H1235 H 0.24738 0.6914 0.27399 0.0
H1236 H 0.30582 0.55124 0.23857 0.0
H1237 H 0.33755 0.56798 0.2509 0.0
H1238 H 0.258 0.54283 0.24222 0.0
H1239 H 0.22182 0.5626 0.24238 0.0
C1240 C 0.38855 0.03198 0.52808 0.0
C1241 C 0.36391 0.05185 0.52108 0.0
C1242 C 0.33871 1.0055 0.50596 0.0
C1243 C 0.36522 0.98663 0.51114 0.0
N1244 N 0.41862 0.98394 0.52357 0.0
N1245 N 0.31633 0.05822 0.5024 0.0
C1246 C 0.39085 1.00031 0.52142 0.0
C1247 C 0.33921 0.03877 0.50971 0.0
N1248 N 0.4103 0.04329 0.54089 0.0
N1249 N 0.31271 0.99142 0.49802 0.0
H1250 H 0.31474 0.08214 0.50595 0.0
H1251 H 0.29985 0.05109 0.49218 0.0
H1252 H 0.31161 0.9672 0.49526 0.0
H1253 H 0.29138 1.00311 0.49558 0.0
H1254 H 0.42601 0.02871 0.5483 0.0
H1255 H 0.41136 0.0667 0.54538 0.0
H1256 H 0.43942 0.99413 0.5287 0.0
H1257 H 0.42219 0.96113 0.51838 0.0
C1258 C 0.75195 0.64336 0.25142 0.0
C1259 C 0.73826 0.61692 0.26086 0.0
C1260 C 0.79065 0.59124 0.26217 0.0
C1261 C 0.80376 0.61668 0.25146 0.0
N1262 N 0.7961 0.6654 0.23388 0.0
N1263 N 0.74326 0.56425 0.27353 0.0
C1264 C 0.78407 0.64208 0.24535 0.0
C1265 C 0.75729 0.59045 0.26583 0.0
N1266 N 0.73483 0.67069 0.24936 0.0
N1267 N 0.81019 0.56801 0.26898 0.0
H1268 H 0.71906 0.56319 0.27647 0.0
H1269 H 0.75495 0.5429 0.2758 0.0
H1270 H 0.83426 0.56703 0.26569 0.0
H1271 H 0.80305 0.55067 0.27863 0.0
H1272 H 0.74458 0.69205 0.24488 0.0
H1273 H 0.71142 0.6731 0.25385 0.0
H1274 H 0.78205 0.68195 0.22679 0.0
H1275 H 0.81995 0.66721 0.23034 0.0
C1276 C 0.14989 1.00852 0.02561 0.0
C1277 C 0.1753 0.98875 0.01967 0.0
C1278 C 0.20168 0.03499 1.00518 0.0
C1279 C 0.17486 0.05388 1.00958 0.0
N1280 N 0.12049 0.05682 0.02013 0.0
N1281 N 0.22438 0.98224 1.00257 0.0
C1282 C 0.14828 0.04023 0.01889 0.0
C1283 C 0.20092 1.00175 1.00905 0.0
N1284 N 0.12685 0.99706 0.03749 0.0
N1285 N 0.22817 0.04902 0.99785 0.0
H1286 H 0.22557 0.95831 1.00617 0.0
H1287 H 0.24176 0.9893 0.99292 0.0
H1288 H 0.22932 0.07317 0.99484 0.0
H1289 H 0.24968 0.03738 0.99605 0.0
H1290 H 0.11025 1.01148 0.04422 0.0
H1291 H 0.12546 0.97359 0.04189 0.0
H1292 H 0.0992 0.0468 0.02457 0.0
H1293 H 0.11762 0.0797 0.01482 0.0
C1294 C 0.79381 0.40007 0.75112 0.0
C1295 C 0.80735 0.42557 0.76154 0.0
C1296 C 0.75507 0.45135 0.76296 0.0
C1297 C 0.74201 0.42663 0.7516 0.0
N1298 N 0.75091 0.38061 0.73158 0.0
N1299 N 0.80238 0.47781 0.77484 0.0
C1300 C 0.76206 0.40225 0.74449 0.0
C1301 C 0.78837 0.4519 0.76678 0.0
N1302 N 0.81042 0.37252 0.74879 0.0
N1303 N 0.73558 0.47424 0.77015 0.0
H1304 H 0.82662 0.47892 0.77767 0.0
H1305 H 0.79066 0.49907 0.77733 0.0
H1306 H 0.71172 0.47602 0.7664 0.0
H1307 H 0.74262 0.49065 0.78041 0.0
H1308 H 0.80033 0.35172 0.74362 0.0
H1309 H 0.83339 0.3691 0.75382 0.0
H1310 H 0.76566 0.36528 0.72405 0.0
H1311 H 0.72747 0.37921 0.72713 0.0
C1312 C 0.16545 0.78773 0.0179 0.0
C1313 C 0.18332 0.80387 0.03217 0.0
C1314 C 0.20211 0.75293 0.04486 0.0
C1315 C 0.18339 0.73687 0.03106 0.0
N1316 N 0.15427 0.73855 1.00133 0.0
N1317 N 0.22456 0.80272 0.05589 0.0
C1318 C 0.16775 0.75418 0.01641 0.0
C1319 C 0.2037 0.78664 0.04453 0.0
N1320 N 0.14412 0.80397 1.00688 0.0
N1321 N 0.2175 0.73588 0.05867 0.0
H1322 H 0.22625 0.82736 0.05566 0.0
H1323 H 0.24192 0.79185 0.06419 0.0
H1324 H 0.21833 0.7112 0.05854 0.0
H1325 H 0.22842 0.74595 0.07056 0.0
H1326 H 0.12733 0.79303 0.9982 0.0
H1327 H 0.14144 0.82844 1.0073 0.0
H1328 H 0.14555 0.74996 0.98919 0.0
H1329 H 0.15433 0.714 1.00008 0.0
C1330 C 0.53863 0.91924 0.26782 0.0
C1331 C 0.55625 0.93606 0.28183 0.0
C1332 C 0.50651 0.95681 0.2952 0.0
C1333 C 0.48916 0.9352 0.28373 0.0
N1334 N 0.48921 0.89335 0.26007 0.0
N1335 N 0.55754 0.97208 0.30845 0.0
C1336 C 0.50522 0.91629 0.26994 0.0
C1337 C 0.54029 0.95558 0.29525 0.0
N1338 N 0.55383 0.90518 0.2528 0.0
N1339 N 0.49052 0.97852 0.30598 0.0
H1340 H 0.58223 0.97315 0.30803 0.0
H1341 H 0.54762 0.98367 0.32015 0.0
H1342 H 0.46584 0.98001 0.30595 0.0
H1343 H 0.50149 0.99669 0.31353 0.0
H1344 H 0.54195 0.89553 0.2411 0.0
H1345 H 0.57828 0.90581 0.25099 0.0
H1346 H 0.50041 0.87606 0.2519 0.0
H1347 H 0.46492 0.88966 0.26116 0.0
C1348 C 0.37797 0.25323 0.51766 0.0
C1349 C 0.35927 0.2375 0.53169 0.0
C1350 C 0.34159 0.28888 0.54425 0.0
C1351 C 0.36108 0.3045 0.53067 0.0
N1352 N 0.39089 0.30221 0.50128 0.0
N1353 N 0.31742 0.23968 0.55492 0.0
C1354 C 0.37662 0.28684 0.51618 0.0
C1355 C 0.33904 0.25523 0.54383 0.0
N1356 N 0.39916 0.23649 0.50686 0.0
N1357 N 0.32638 0.30626 0.55794 0.0
H1358 H 0.31503 0.2151 0.55461 0.0
H1359 H 0.30015 0.25099 0.56303 0.0
H1360 H 0.32633 0.33096 0.55788 0.0
H1361 H 0.31489 0.2964 0.56969 0.0
H1362 H 0.41648 0.24704 0.4984 0.0
H1363 H 0.40116 0.21196 0.50728 0.0
H1364 H 0.39965 0.29065 0.48923 0.0
H1365 H 0.39146 0.32677 0.50007 0.0
C1366 C 1.00384 0.12217 0.76903 0.0
C1367 C 0.98659 0.10417 0.78271 0.0
C1368 C 0.03648 0.08297 0.79562 0.0
C1369 C 0.0537 0.10227 0.78264 0.0
N1370 N 0.0537 0.13186 0.75298 0.0
N1371 N 0.9855 0.06146 0.80539 0.0
C1372 C 0.03735 0.11874 0.76787 0.0
C1373 C 1.00271 0.08244 0.79476 0.0
N1374 N 0.98876 0.14469 0.75828 0.0
N1375 N 0.05256 0.06599 0.80917 0.0
H1376 H 0.96081 0.06062 0.80475 0.0
H1377 H 0.99547 0.0433 0.81346 0.0
H1378 H 0.07723 0.06427 0.80921 0.0
H1379 H 0.04174 0.05444 0.82058 0.0
H1380 H 1.00067 0.16163 0.7502 0.0
H1381 H 0.96436 0.14822 0.75842 0.0
H1382 H 0.04271 0.14121 0.74086 0.0
H1383 H 0.07818 0.13057 0.75161 0.0
C1384 C 0.20773 0.25317 0.97654 0.0
C1385 C 0.18792 0.23648 0.9895 0.0
C1386 C 0.16866 0.28684 1.00266 0.0
C1387 C 0.18733 0.30357 0.98906 0.0
N1388 N 0.2304 0.30356 0.96665 0.0
N1389 N 0.15715 0.23733 0.01868 0.0
C1390 C 0.2089 0.2869 0.97723 0.0
C1391 C 0.17128 0.2533 1.00396 0.0
N1392 N 0.22459 0.23664 0.96318 0.0
N1393 N 0.14625 0.30251 0.01315 0.0
H1394 H 0.15745 0.21283 0.01999 0.0
H1395 H 0.14774 0.24853 0.03067 0.0
H1396 H 0.14332 0.32695 0.0129 0.0
H1397 H 0.12885 0.29109 0.02112 0.0
H1398 H 0.23651 0.24712 0.95179 0.0
H1399 H 0.22581 0.21198 0.96324 0.0
H1400 H 0.24851 0.29315 0.95876 0.0
H1401 H 0.23173 0.32821 0.96716 0.0
C1402 C 1.0068 0.95676 0.2261 0.0
C1403 C 0.98953 0.93538 0.23776 0.0
C1404 C 0.03933 0.9185 0.25305 0.0
C1405 C 0.05668 0.935 0.23879 0.0
N1406 N 0.05758 0.97142 0.21231 0.0
N1407 N 0.98963 0.89392 0.26169 0.0
C1408 C 0.04055 0.95499 0.22564 0.0
C1409 C 1.00575 0.9163 0.25144 0.0
N1410 N 0.99072 0.97871 0.2155 0.0
N1411 N 0.05488 0.90405 0.26784 0.0
H1412 H 0.96517 0.89108 0.26113 0.0
H1413 H 1.00072 0.87638 0.26975 0.0
H1414 H 0.07941 0.90409 0.26928 0.0
H1415 H 0.04334 0.89463 0.27973 0.0
H1416 H 1.00165 0.99672 0.20778 0.0
H1417 H 0.96607 0.98054 0.21585 0.0
H1418 H 0.04745 0.98338 0.2008 0.0
H1419 H 0.08229 0.9721 0.21247 0.0
C1420 C 0.3698 0.75402 0.50333 0.0
C1421 C 0.35218 0.73771 0.48908 0.0
C1422 C 0.33131 0.78871 0.4775 0.0
C1423 C 0.35389 0.80479 0.48896 0.0
N1424 N 0.39661 0.80249 0.51204 0.0
N1425 N 0.31376 0.73891 0.46365 0.0
C1426 C 0.37313 0.78749 0.50204 0.0
C1427 C 0.33183 0.75496 0.47666 0.0
N1428 N 0.38404 0.73767 0.51788 0.0
N1429 N 0.30947 0.8059 0.46746 0.0
H1430 H 0.31203 0.71428 0.46371 0.0
H1431 H 0.3013 0.74972 0.45256 0.0
H1432 H 0.30862 0.83056 0.46807 0.0
H1433 H 0.2907 0.79593 0.45991 0.0
H1434 H 0.39439 0.74865 0.52968 0.0
H1435 H 0.38267 0.71325 0.51937 0.0
H1436 H 0.41419 0.79052 0.51961 0.0
H1437 H 0.40031 0.82682 0.51165 0.0
C1438 C 0.50353 0.12345 0.75329 0.0
C1439 C 0.48662 0.10713 0.73873 0.0
C1440 C 0.53711 0.08695 0.72594 0.0
C1441 C 0.5538 0.10801 0.7381 0.0
N1442 N 0.55288 0.14809 0.76276 0.0
N1443 N 0.48669 0.07145 0.71191 0.0
C1444 C 0.5371 0.12616 0.75196 0.0
C1445 C 0.50331 0.08793 0.72542 0.0
N1446 N 0.48758 0.13713 0.76816 0.0
N1447 N 0.55377 0.06603 0.71496 0.0
H1448 H 0.46201 0.07 0.71208 0.0
H1449 H 0.49707 0.06007 0.7003 0.0
H1450 H 0.57846 0.06484 0.7153 0.0
H1451 H 0.54336 0.04823 0.70682 0.0
H1452 H 0.49881 0.14631 0.78023 0.0
H1453 H 0.46305 0.13671 0.76947 0.0
H1454 H 0.54154 0.16512 0.77106 0.0
H1455 H 0.57735 0.15106 0.76245 0.0
C1456 C 0.87353 0.28568 1.00269 0.0
C1457 C 0.85546 0.30251 0.9888 0.0
C1458 C 0.83452 0.25228 0.9764 0.0
C1459 C 0.8539 0.23547 0.9896 0.0
N1460 N 0.88336 0.23628 0.01928 0.0
N1461 N 0.81283 0.30286 0.96599 0.0
C1462 C 0.87024 0.25223 1.0042 0.0
C1463 C 0.83386 0.28603 0.97686 0.0
N1464 N 0.89595 0.30109 0.01332 0.0
N1465 N 0.81761 0.23579 0.96303 0.0
H1466 H 0.81188 0.32753 0.96632 0.0
H1467 H 0.79473 0.29262 0.958 0.0
H1468 H 0.81598 0.21114 0.96329 0.0
H1469 H 0.80604 0.24623 0.95148 0.0
H1470 H 0.91286 0.28946 0.02161 0.0
H1471 H 0.89948 0.32545 0.01285 0.0
H1472 H 0.89271 0.24755 0.03128 0.0
H1473 H 0.88198 0.21186 0.02091 0.0
C1474 C 0.66541 0.78905 0.50116 0.0
C1475 C 0.68477 0.80598 0.48803 0.0
C1476 C 0.70642 0.7558 0.47597 0.0
C1477 C 0.68561 0.73888 0.48824 0.0
N1478 N 0.65307 0.73925 0.51667 0.0
N1479 N 0.72932 0.80645 0.46673 0.0
C1480 C 0.66801 0.75547 0.50237 0.0
C1481 C 0.70728 0.78955 0.47674 0.0
N1482 N 0.64251 0.80463 0.51131 0.0
N1483 N 0.72453 0.73944 0.46314 0.0
H1484 H 0.73037 0.83111 0.46732 0.0
H1485 H 0.74802 0.79627 0.45924 0.0
H1486 H 0.72594 0.71479 0.46324 0.0
H1487 H 0.73739 0.75001 0.45216 0.0
H1488 H 0.62468 0.79316 0.5189 0.0
H1489 H 0.63981 0.82911 0.51118 0.0
H1490 H 0.64268 0.75023 0.52844 0.0
H1491 H 0.65374 0.71475 0.51795 0.0
C1492 C 0.87449 0.75255 0.01701 0.0
C1493 C 0.85747 0.7349 0.03095 0.0
C1494 C 0.8358 0.78425 0.0442 0.0
C1495 C 0.85413 0.80194 0.03091 0.0
N1496 N 0.88259 0.80259 1.00086 0.0
N1497 N 0.81616 0.73281 0.05451 0.0
C1498 C 0.8704 0.78597 0.01593 0.0
C1499 C 0.8361 0.75049 0.04343 0.0
N1500 N 0.89665 0.73786 1.00583 0.0
N1501 N 0.81889 0.79993 0.05791 0.0
H1502 H 0.81592 0.70813 0.05399 0.0
H1503 H 0.79822 0.74232 0.06294 0.0
H1504 H 0.8164 0.8245 0.05786 0.0
H1505 H 0.80808 0.78892 0.06952 0.0
H1506 H 0.91301 0.75001 0.99745 0.0
H1507 H 0.9005 0.71352 1.00591 0.0
H1508 H 0.89169 0.79185 0.98862 0.0
H1509 H 0.88073 0.827 0.99946 0.0
C1510 C 0.66186 0.28924 0.51648 0.0
C1511 C 0.67955 0.30719 0.52993 0.0
C1512 C 0.70129 0.25821 0.54373 0.0
C1513 C 0.6824 0.24013 0.5309 0.0
N1514 N 0.65098 0.23832 0.50193 0.0
N1515 N 0.72134 0.30991 0.55322 0.0
C1516 C 0.66505 0.25563 0.51611 0.0
C1517 C 0.70107 0.29194 0.54252 0.0
N1518 N 0.64018 0.3041 0.50499 0.0
N1519 N 0.71871 0.24294 0.55742 0.0
H1520 H 0.72163 0.33457 0.55243 0.0
H1521 H 0.73946 0.30066 0.56164 0.0
H1522 H 0.72115 0.21837 0.55772 0.0
H1523 H 0.72999 0.25428 0.56875 0.0
H1524 H 0.62329 0.29224 0.49685 0.0
H1525 H 0.63762 0.32862 0.50443 0.0
H1526 H 0.64112 0.24834 0.48967 0.0
H1527 H 0.6514 0.21375 0.50141 0.0
C1528 C 1.00614 0.42158 0.76731 0.0
C1529 C 0.98979 0.43803 0.78205 0.0
C1530 C 0.04079 0.45778 0.79426 0.0
C1531 C 0.0569 0.43605 0.78225 0.0
N1532 N 0.05468 0.3955 0.75787 0.0
N1533 N 0.99095 0.47424 0.80857 0.0
C1534 C 0.03964 0.41807 0.76855 0.0
C1535 C 1.00702 0.45728 0.79506 0.0
N1536 N 0.98981 0.40856 0.75237 0.0
N1537 N 0.05801 0.47875 0.80489 0.0
H1538 H 0.96629 0.47598 0.80857 0.0
H1539 H 1.00178 0.48576 0.82 0.0
H1540 H 0.0827 0.47958 0.8043 0.0
H1541 H 0.04804 0.49692 0.81292 0.0
H1542 H 1.00082 0.39924 0.74028 0.0
H1543 H 0.96534 0.40993 0.75092 0.0
H1544 H 0.04272 0.37859 0.74978 0.0
H1545 H 0.07905 0.39187 0.75808 0.0
C1546 C 0.50389 0.59878 0.27137 0.0
C1547 C 0.48853 0.6067 0.28892 0.0
C1548 C 0.54039 0.602 0.30451 0.0
C1549 C 0.55617 0.60455 0.28673 0.0
N1550 N 0.55081 0.60618 0.25205 0.0
N1551 N 0.49749 0.62484 0.32186 0.0
C1552 C 0.53747 0.60278 0.26971 0.0
C1553 C 0.50802 0.6103 0.30558 0.0
N1554 N 0.48688 0.58664 0.25646 0.0
N1555 N 0.55663 0.59329 0.32059 0.0
H1556 H 0.4767 0.63791 0.32271 0.0
H1557 H 0.51224 0.62875 0.33363 0.0
H1558 H 0.5803 0.58617 0.32006 0.0
H1559 H 0.54542 0.58968 0.33372 0.0
H1560 H 0.49749 0.57851 0.24391 0.0
H1561 H 0.46301 0.58071 0.25767 0.0
H1562 H 0.53726 0.60871 0.23964 0.0
H1563 H 0.57499 0.60842 0.24973 0.0
C1564 C 0.50629 0.41433 0.75386 0.0
C1565 C 0.48978 0.42999 0.73885 0.0
C1566 C 0.54035 0.44943 0.72599 0.0
C1567 C 0.55679 0.42938 0.73891 0.0
N1568 N 0.5559 0.3917 0.76488 0.0
N1569 N 0.49028 0.46373 0.71108 0.0
C1570 C 0.53996 0.41213 0.7531 0.0
C1571 C 0.50663 0.44829 0.72519 0.0
N1572 N 0.48979 0.40084 0.76859 0.0
N1573 N 0.55721 0.4696 0.71459 0.0
H1574 H 0.4656 0.46497 0.71088 0.0
H1575 H 0.50091 0.47434 0.69928 0.0
H1576 H 0.58188 0.47092 0.71512 0.0
H1577 H 0.54695 0.48676 0.70588 0.0
H1578 H 0.50045 0.39206 0.78095 0.0
H1579 H 0.46516 0.40072 0.76928 0.0
H1580 H 0.54481 0.37523 0.77368 0.0
H1581 H 0.5805 0.3897 0.76505 0.0
C1582 C 1.00658 0.58854 0.22555 0.0
C1583 C 0.9893 0.60957 0.23744 0.0
C1584 C 0.03918 0.62621 0.25274 0.0
C1585 C 0.05649 0.60971 0.23849 0.0
N1586 N 0.05733 0.5742 0.2116 0.0
N1587 N 0.98934 0.65036 0.26172 0.0
C1588 C 0.04033 0.59023 0.22512 0.0
C1589 C 1.00556 0.62837 0.25122 0.0
N1590 N 0.9905 0.56691 0.21474 0.0
N1591 N 0.05491 0.6406 0.26747 0.0
H1592 H 0.96485 0.65302 0.26122 0.0
H1593 H 1.00034 0.66767 0.26997 0.0
H1594 H 0.07951 0.64053 0.2687 0.0
H1595 H 0.04357 0.65013 0.27938 0.0
H1596 H 1.00143 0.54909 0.20688 0.0
H1597 H 0.96585 0.56509 0.21506 0.0
H1598 H 0.04716 0.56265 0.19996 0.0
H1599 H 0.08204 0.57353 0.21167 0.0
loop_
_geom_bond_atom_site_label_1
_geom_bond_atom_site_label_2
_geom_bond_distance
_geom_bond_site_symmetry_2
_ccdc_geom_bond_type
O0 Cd1 2.223 . S
O0 C8 1.315 . S
Cd1 O0 2.223 . S
Cd1 O4 2.297 1_554 S
Cd1 O5 2.439 . S
Cd1 O11 2.240 . S
Cd2 O3 2.240 . S
Cd2 O10 2.223 . S
Cd2 O12 2.297 . S
Cd2 O13 2.439 . S
O3 Cd2 2.240 . S
O3 C8 1.279 . S
O4 Cd1 2.297 1_556 S
O4 C6 1.247 1_556 S
O5 Cd1 2.439 . S
O5 C6 1.208 . S
C6 O4 1.247 1_554 S
C6 O5 1.208 . S
C7 O12 1.247 . S
C7 O13 1.208 . S
C8 O0 1.315 . S
C8 O3 1.279 . S
C9 O10 1.315 . S
C9 O11 1.279 . S
O10 Cd2 2.223 . S
O10 C9 1.315 . S
O11 Cd1 2.240 . S
O11 C9 1.279 . S
O12 Cd2 2.297 . S
O12 C7 1.247 . S
O13 Cd2 2.439 . S
O13 C7 1.208 . S
O14 Cd15 2.223 . S
O14 C22 1.315 . S
Cd15 O14 2.223 . S
Cd15 O18 2.297 . S
Cd15 O19 2.439 . S
Cd15 O25 2.240 . S
Cd16 O17 2.240 . S
Cd16 O24 2.223 . S
Cd16 O26 2.297 . S
Cd16 O27 2.439 . S
O17 Cd16 2.240 . S
O17 C22 1.279 . S
O18 Cd15 2.297 . S
O18 C20 1.247 . S
O19 Cd15 2.439 . S
O19 C20 1.208 . S
C20 O18 1.247 . S
C20 O19 1.208 . S
C21 O26 1.247 . S
C21 O27 1.208 . S
C22 O14 1.315 . S
C22 O17 1.279 . S
C23 O24 1.315 . S
C23 O25 1.279 . S
O24 Cd16 2.223 . S
O24 C23 1.315 . S
O25 Cd15 2.240 . S
O25 C23 1.279 . S
O26 Cd16 2.297 . S
O26 C21 1.247 . S
O27 Cd16 2.439 . S
O27 C21 1.208 . S
O28 Cd29 2.223 . S
O28 C36 1.315 . S
Cd29 O28 2.223 . S
Cd29 O32 2.297 . S
Cd29 O33 2.439 . S
Cd29 O39 2.240 . S
Cd30 O31 2.240 . S
Cd30 O38 2.223 . S
Cd30 O40 2.297 . S
Cd30 O41 2.439 . S
O31 Cd30 2.240 . S
O31 C36 1.279 . S
O32 Cd29 2.297 . S
O32 C34 1.247 . S
O33 Cd29 2.439 . S
O33 C34 1.208 . S
C34 O32 1.247 . S
C34 O33 1.208 . S
C35 O40 1.247 . S
C35 O41 1.208 . S
C36 O28 1.315 . S
C36 O31 1.279 . S
C37 O38 1.315 . S
C37 O39 1.279 . S
O38 Cd30 2.223 . S
O38 C37 1.315 . S
O39 Cd29 2.240 . S
O39 C37 1.279 . S
O40 Cd30 2.297 . S
O40 C35 1.247 . S
O41 Cd30 2.439 . S
O41 C35 1.208 . S
O42 Cd43 2.223 . S
O42 C50 1.315 . S
Cd43 O42 2.223 . S
Cd43 O46 2.297 . S
Cd43 O47 2.439 . S
Cd43 O53 2.240 . S
Cd44 O45 2.240 . S
Cd44 O52 2.223 . S
Cd44 O54 2.297 . S
Cd44 O55 2.439 . S
O45 Cd44 2.240 . S
O45 C50 1.279 . S
O46 Cd43 2.297 . S
O46 C48 1.247 . S
O47 Cd43 2.439 . S
O47 C48 1.208 . S
C48 O46 1.247 . S
C48 O47 1.208 . S
C49 O54 1.247 . S
C49 O55 1.208 . S
C50 O42 1.315 . S
C50 O45 1.279 . S
C51 O52 1.315 . S
C51 O53 1.279 . S
O52 Cd44 2.223 . S
O52 C51 1.315 . S
O53 Cd43 2.240 . S
O53 C51 1.279 . S
O54 Cd44 2.297 . S
O54 C49 1.247 . S
O55 Cd44 2.439 . S
O55 C49 1.208 . S
O56 Cd57 2.223 . S
O56 C64 1.315 . S
Cd57 O56 2.223 . S
Cd57 O60 2.297 1_556 S
Cd57 O61 2.439 . S
Cd57 O67 2.240 . S
Cd58 O59 2.240 . S
Cd58 O66 2.223 . S
Cd58 O68 2.297 . S
Cd58 O69 2.439 . S
O59 Cd58 2.240 . S
O59 C64 1.279 . S
O60 Cd57 2.297 1_554 S
O60 C62 1.247 1_554 S
O61 Cd57 2.439 . S
O61 C62 1.208 . S
C62 O60 1.247 1_556 S
C62 O61 1.208 . S
C63 O68 1.247 . S
C63 O69 1.208 . S
C64 O56 1.315 . S
C64 O59 1.279 . S
C65 O66 1.315 . S
C65 O67 1.279 . S
O66 Cd58 2.223 . S
O66 C65 1.315 . S
O67 Cd57 2.240 . S
O67 C65 1.279 . S
O68 Cd58 2.297 . S
O68 C63 1.247 . S
O69 Cd58 2.439 . S
O69 C63 1.208 . S
O70 Cd71 2.223 . S
O70 C78 1.315 . S
Cd71 O70 2.223 . S
Cd71 O74 2.297 . S
Cd71 O75 2.439 . S
Cd71 O81 2.240 . S
Cd72 O73 2.240 . S
Cd72 O80 2.223 . S
Cd72 O82 2.297 . S
Cd72 O83 2.439 . S
O73 Cd72 2.240 . S
O73 C78 1.279 . S
O74 Cd71 2.297 . S
O74 C76 1.247 . S
O75 Cd71 2.439 . S
O75 C76 1.208 . S
C76 O74 1.247 . S
C76 O75 1.208 . S
C77 O82 1.247 . S
C77 O83 1.208 . S
C78 O70 1.315 . S
C78 O73 1.279 . S
C79 O80 1.315 . S
C79 O81 1.279 . S
O80 Cd72 2.223 . S
O80 C79 1.315 . S
O81 Cd71 2.240 . S
O81 C79 1.279 . S
O82 Cd72 2.297 . S
O82 C77 1.247 . S
O83 Cd72 2.439 . S
O83 C77 1.208 . S
O84 Cd85 2.223 . S
O84 C92 1.315 . S
Cd85 O84 2.223 . S
Cd85 O88 2.297 . S
Cd85 O89 2.439 . S
Cd85 O95 2.240 . S
Cd86 O87 2.240 . S
Cd86 O94 2.223 . S
Cd86 O96 2.297 . S
Cd86 O97 2.439 . S
O87 Cd86 2.240 . S
O87 C92 1.279 . S
O88 Cd85 2.297 . S
O88 C90 1.247 . S
O89 Cd85 2.439 . S
O89 C90 1.208 . S
C90 O88 1.247 . S
C90 O89 1.208 . S
C91 O96 1.247 . S
C91 O97 1.208 . S
C92 O84 1.315 . S
C92 O87 1.279 . S
C93 O94 1.315 . S
C93 O95 1.279 . S
O94 Cd86 2.223 . S
O94 C93 1.315 . S
O95 Cd85 2.240 . S
O95 C93 1.279 . S
O96 Cd86 2.297 . S
O96 C91 1.247 . S
O97 Cd86 2.439 . S
O97 C91 1.208 . S
O98 Cd99 2.223 . S
O98 C106 1.315 . S
Cd99 O98 2.223 . S
Cd99 O102 2.297 . S
Cd99 O103 2.439 . S
Cd99 O109 2.240 . S
Cd100 O101 2.240 . S
Cd100 O108 2.223 . S
Cd100 O110 2.297 . S
Cd100 O111 2.439 . S
O101 Cd100 2.240 . S
O101 C106 1.279 . S
O102 Cd99 2.297 . S
O102 C104 1.247 . S
O103 Cd99 2.439 . S
O103 C104 1.208 . S
C104 O102 1.247 . S
C104 O103 1.208 . S
C105 O110 1.247 . S
C105 O111 1.208 . S
C106 O98 1.315 . S
C106 O101 1.279 . S
C107 O108 1.315 . S
C107 O109 1.279 . S
O108 Cd100 2.223 . S
O108 C107 1.315 . S
O109 Cd99 2.240 . S
O109 C107 1.279 . S
O110 Cd100 2.297 . S
O110 C105 1.247 . S
O111 Cd100 2.439 . S
O111 C105 1.208 . S
O112 Cd113 2.223 . S
O112 C120 1.315 . S
Cd113 O112 2.223 . S
Cd113 O116 2.297 1_556 S
Cd113 O117 2.439 . S
Cd113 O123 2.240 . S
Cd114 O115 2.240 . S
Cd114 O122 2.223 . S
Cd114 O124 2.297 . S
Cd114 O125 2.439 . S
O115 Cd114 2.240 . S
O115 C120 1.279 . S
O116 Cd113 2.297 1_554 S
O116 C118 1.247 1_554 S
O117 Cd113 2.439 . S
O117 C118 1.208 . S
C118 O116 1.247 1_556 S
C118 O117 1.208 . S
C119 O124 1.247 . S
C119 O125 1.208 . S
C120 O112 1.315 . S
C120 O115 1.279 . S
C121 O122 1.315 . S
C121 O123 1.279 . S
O122 Cd114 2.223 . S
O122 C121 1.315 . S
O123 Cd113 2.240 . S
O123 C121 1.279 . S
O124 Cd114 2.297 . S
O124 C119 1.247 . S
O125 Cd114 2.439 . S
O125 C119 1.208 . S
O126 Cd127 2.223 . S
O126 C134 1.315 . S
Cd127 O126 2.223 . S
Cd127 O130 2.297 . S
Cd127 O131 2.439 . S
Cd127 O137 2.240 . S
Cd128 O129 2.240 . S
Cd128 O136 2.223 . S
Cd128 O138 2.297 . S
Cd128 O139 2.439 . S
O129 Cd128 2.240 . S
O129 C134 1.279 . S
O130 Cd127 2.297 . S
O130 C132 1.247 . S
O131 Cd127 2.439 . S
O131 C132 1.208 . S
C132 O130 1.247 . S
C132 O131 1.208 . S
C133 O138 1.247 . S
C133 O139 1.208 . S
C134 O126 1.315 . S
C134 O129 1.279 . S
C135 O136 1.315 . S
C135 O137 1.279 . S
O136 Cd128 2.223 . S
O136 C135 1.315 . S
O137 Cd127 2.240 . S
O137 C135 1.279 . S
O138 Cd128 2.297 . S
O138 C133 1.247 . S
O139 Cd128 2.439 . S
O139 C133 1.208 . S
O140 Cd141 2.223 . S
O140 C148 1.315 . S
Cd141 O140 2.223 . S
Cd141 O144 2.297 . S
Cd141 O145 2.439 . S
Cd141 O151 2.240 . S
Cd142 O143 2.240 . S
Cd142 O150 2.223 . S
Cd142 O152 2.297 . S
Cd142 O153 2.439 . S
O143 Cd142 2.240 . S
O143 C148 1.279 . S
O144 Cd141 2.297 . S
O144 C146 1.247 . S
O145 Cd141 2.439 . S
O145 C146 1.208 . S
C146 O144 1.247 . S
C146 O145 1.208 . S
C147 O152 1.247 . S
C147 O153 1.208 . S
C148 O140 1.315 . S
C148 O143 1.279 . S
C149 O150 1.315 . S
C149 O151 1.279 . S
O150 Cd142 2.223 . S
O150 C149 1.315 . S
O151 Cd141 2.240 . S
O151 C149 1.279 . S
O152 Cd142 2.297 . S
O152 C147 1.247 . S
O153 Cd142 2.439 . S
O153 C147 1.208 . S
O154 Cd155 2.223 . S
O154 C162 1.315 . S
Cd155 O154 2.223 . S
Cd155 O158 2.297 . S
Cd155 O159 2.439 . S
Cd155 O165 2.240 . S
Cd156 O157 2.240 . S
Cd156 O164 2.223 . S
Cd156 O166 2.297 . S
Cd156 O167 2.439 . S
O157 Cd156 2.240 . S
O157 C162 1.279 . S
O158 Cd155 2.297 . S
O158 C160 1.247 . S
O159 Cd155 2.439 . S
O159 C160 1.208 . S
C160 O158 1.247 . S
C160 O159 1.208 . S
C161 O166 1.247 . S
C161 O167 1.208 . S
C162 O154 1.315 . S
C162 O157 1.279 . S
C163 O164 1.315 . S
C163 O165 1.279 . S
O164 Cd156 2.223 . S
O164 C163 1.315 . S
O165 Cd155 2.240 . S
O165 C163 1.279 . S
O166 Cd156 2.297 . S
O166 C161 1.247 . S
O167 Cd156 2.439 . S
O167 C161 1.208 . S
O168 Cd169 2.223 . S
O168 C176 1.315 . S
Cd169 O168 2.223 . S
Cd169 O172 2.297 1_554 S
Cd169 O173 2.439 . S
Cd169 O179 2.240 . S
Cd170 O171 2.240 . S
Cd170 O178 2.223 . S
Cd170 O180 2.297 . S
Cd170 O181 2.439 . S
O171 Cd170 2.240 . S
O171 C176 1.279 . S
O172 Cd169 2.297 1_556 S
O172 C174 1.247 1_556 S
O173 Cd169 2.439 . S
O173 C174 1.208 . S
C174 O172 1.247 1_554 S
C174 O173 1.208 . S
C175 O180 1.247 . S
C175 O181 1.208 . S
C176 O168 1.315 . S
C176 O171 1.279 . S
C177 O178 1.315 . S
C177 O179 1.279 . S
O178 Cd170 2.223 . S
O178 C177 1.315 . S
O179 Cd169 2.240 . S
O179 C177 1.279 . S
O180 Cd170 2.297 . S
O180 C175 1.247 . S
O181 Cd170 2.439 . S
O181 C175 1.208 . S
O182 Cd183 2.223 . S
O182 C190 1.315 . S
Cd183 O182 2.223 . S
Cd183 O186 2.297 . S
Cd183 O187 2.439 . S
Cd183 O193 2.240 . S
Cd184 O185 2.240 . S
Cd184 O192 2.223 . S
Cd184 O194 2.297 . S
Cd184 O195 2.439 . S
O185 Cd184 2.240 . S
O185 C190 1.279 . S
O186 Cd183 2.297 . S
O186 C188 1.247 . S
O187 Cd183 2.439 . S
O187 C188 1.208 . S
C188 O186 1.247 . S
C188 O187 1.208 . S
C189 O194 1.247 . S
C189 O195 1.208 . S
C190 O182 1.315 . S
C190 O185 1.279 . S
C191 O192 1.315 . S
C191 O193 1.279 . S
O192 Cd184 2.223 . S
O192 C191 1.315 . S
O193 Cd183 2.240 . S
O193 C191 1.279 . S
O194 Cd184 2.297 . S
O194 C189 1.247 . S
O195 Cd184 2.439 . S
O195 C189 1.208 . S
O196 Cd197 2.223 . S
O196 C204 1.315 . S
Cd197 O196 2.223 . S
Cd197 O200 2.297 . S
Cd197 O201 2.439 . S
Cd197 O207 2.240 . S
Cd198 O199 2.240 . S
Cd198 O206 2.223 . S
Cd198 O208 2.297 . S
Cd198 O209 2.439 . S
O199 Cd198 2.240 . S
O199 C204 1.279 . S
O200 Cd197 2.297 . S
O200 C202 1.247 . S
O201 Cd197 2.439 . S
O201 C202 1.208 . S
C202 O200 1.247 . S
C202 O201 1.208 . S
C203 O208 1.247 . S
C203 O209 1.208 . S
C204 O196 1.315 . S
C204 O199 1.279 . S
C205 O206 1.315 . S
C205 O207 1.279 . S
O206 Cd198 2.223 . S
O206 C205 1.315 . S
O207 Cd197 2.240 . S
O207 C205 1.279 . S
O208 Cd198 2.297 . S
O208 C203 1.247 . S
O209 Cd198 2.439 . S
O209 C203 1.208 . S
O210 Cd211 2.223 . S
O210 C218 1.315 . S
Cd211 O210 2.223 . S
Cd211 O214 2.297 . S
Cd211 O215 2.439 . S
Cd211 O221 2.240 . S
Cd212 O213 2.240 . S
Cd212 O220 2.223 . S
Cd212 O222 2.297 . S
Cd212 O223 2.439 . S
O213 Cd212 2.240 . S
O213 C218 1.279 . S
O214 Cd211 2.297 . S
O214 C216 1.247 . S
O215 Cd211 2.439 . S
O215 C216 1.208 . S
C216 O214 1.247 . S
C216 O215 1.208 . S
C217 O222 1.247 . S
C217 O223 1.208 . S
C218 O210 1.315 . S
C218 O213 1.279 . S
C219 O220 1.315 . S
C219 O221 1.279 . S
O220 Cd212 2.223 . S
O220 C219 1.315 . S
O221 Cd211 2.240 . S
O221 C219 1.279 . S
O222 Cd212 2.297 . S
O222 C217 1.247 . S
O223 Cd212 2.439 . S
O223 C217 1.208 . S
O224 Cd225 2.223 . S
O224 C232 1.315 . S
Cd225 O224 2.223 . S
Cd225 O228 2.297 . S
Cd225 O229 2.439 . S
Cd225 O235 2.240 . S
Cd226 O227 2.240 . S
Cd226 O234 2.223 . S
Cd226 O236 2.297 . S
Cd226 O237 2.439 . S
O227 Cd226 2.240 . S
O227 C232 1.279 . S
O228 Cd225 2.297 . S
O228 C230 1.247 . S
O229 Cd225 2.439 . S
O229 C230 1.208 . S
C230 O228 1.247 . S
C230 O229 1.208 . S
C231 O236 1.247 . S
C231 O237 1.208 . S
C232 O224 1.315 . S
C232 O227 1.279 . S
C233 O234 1.315 . S
C233 O235 1.279 . S
O234 Cd226 2.223 . S
O234 C233 1.315 . S
O235 Cd225 2.240 . S
O235 C233 1.279 . S
O236 Cd226 2.297 . S
O236 C231 1.247 . S
O237 Cd226 2.439 . S
O237 C231 1.208 . S
O238 Cd239 2.223 . S
O238 C246 1.315 . S
Cd239 O238 2.223 . S
Cd239 O242 2.297 . S
Cd239 O243 2.439 . S
Cd239 O249 2.240 . S
Cd240 O241 2.240 . S
Cd240 O248 2.223 . S
Cd240 O250 2.297 . S
Cd240 O251 2.439 . S
O241 Cd240 2.240 . S
O241 C246 1.279 . S
O242 Cd239 2.297 . S
O242 C244 1.247 . S
O243 Cd239 2.439 . S
O243 C244 1.208 . S
C244 O242 1.247 . S
C244 O243 1.208 . S
C245 O250 1.247 . S
C245 O251 1.208 . S
C246 O238 1.315 . S
C246 O241 1.279 . S
C247 O248 1.315 . S
C247 O249 1.279 . S
O248 Cd240 2.223 . S
O248 C247 1.315 . S
O249 Cd239 2.240 . S
O249 C247 1.279 . S
O250 Cd240 2.297 . S
O250 C245 1.247 . S
O251 Cd240 2.439 . S
O251 C245 1.208 . S
O252 Cd253 2.223 . S
O252 C260 1.315 . S
Cd253 O252 2.223 . S
Cd253 O256 2.297 1_554 S
Cd253 O257 2.439 . S
Cd253 O263 2.240 . S
Cd254 O255 2.240 . S
Cd254 O262 2.223 . S
Cd254 O264 2.297 . S
Cd254 O265 2.439 . S
O255 Cd254 2.240 . S
O255 C260 1.279 . S
O256 Cd253 2.297 1_556 S
O256 C258 1.247 1_556 S
O257 Cd253 2.439 . S
O257 C258 1.208 . S
C258 O256 1.247 1_554 S
C258 O257 1.208 . S
C259 O264 1.247 . S
C259 O265 1.208 . S
C260 O252 1.315 . S
C260 O255 1.279 . S
C261 O262 1.315 . S
C261 O263 1.279 . S
O262 Cd254 2.223 . S
O262 C261 1.315 . S
O263 Cd253 2.240 . S
O263 C261 1.279 . S
O264 Cd254 2.297 . S
O264 C259 1.247 . S
O265 Cd254 2.439 . S
O265 C259 1.208 . S
O266 Cd267 2.223 . S
O266 C274 1.315 . S
Cd267 O266 2.223 . S
Cd267 O270 2.297 . S
Cd267 O271 2.439 . S
Cd267 O277 2.240 . S
Cd268 O269 2.240 . S
Cd268 O276 2.223 . S
Cd268 O278 2.297 . S
Cd268 O279 2.439 . S
O269 Cd268 2.240 . S
O269 C274 1.279 . S
O270 Cd267 2.297 . S
O270 C272 1.247 . S
O271 Cd267 2.439 . S
O271 C272 1.208 . S
C272 O270 1.247 . S
C272 O271 1.208 . S
C273 O278 1.247 . S
C273 O279 1.208 . S
C274 O266 1.315 . S
C274 O269 1.279 . S
C275 O276 1.315 . S
C275 O277 1.279 . S
O276 Cd268 2.223 . S
O276 C275 1.315 . S
O277 Cd267 2.240 . S
O277 C275 1.279 . S
O278 Cd268 2.297 . S
O278 C273 1.247 . S
O279 Cd268 2.439 . S
O279 C273 1.208 . S
O280 Cd281 2.223 . S
O280 C288 1.315 . S
Cd281 O280 2.223 . S
Cd281 O284 2.297 . S
Cd281 O285 2.439 . S
Cd281 O291 2.240 . S
Cd282 O283 2.240 . S
Cd282 O290 2.223 . S
Cd282 O292 2.297 . S
Cd282 O293 2.439 . S
O283 Cd282 2.240 . S
O283 C288 1.279 . S
O284 Cd281 2.297 . S
O284 C286 1.247 . S
O285 Cd281 2.439 . S
O285 C286 1.208 . S
C286 O284 1.247 . S
C286 O285 1.208 . S
C287 O292 1.247 . S
C287 O293 1.208 . S
C288 O280 1.315 . S
C288 O283 1.279 . S
C289 O290 1.315 . S
C289 O291 1.279 . S
O290 Cd282 2.223 . S
O290 C289 1.315 . S
O291 Cd281 2.240 . S
O291 C289 1.279 . S
O292 Cd282 2.297 . S
O292 C287 1.247 . S
O293 Cd282 2.439 . S
O293 C287 1.208 . S
O294 Cd295 2.223 . S
O294 C302 1.315 . S
Cd295 O294 2.223 . S
Cd295 O298 2.297 . S
Cd295 O299 2.439 . S
Cd295 O305 2.240 . S
Cd296 O297 2.240 . S
Cd296 O304 2.223 . S
Cd296 O306 2.297 . S
Cd296 O307 2.439 . S
O297 Cd296 2.240 . S
O297 C302 1.279 . S
O298 Cd295 2.297 . S
O298 C300 1.247 . S
O299 Cd295 2.439 . S
O299 C300 1.208 . S
C300 O298 1.247 . S
C300 O299 1.208 . S
C301 O306 1.247 . S
C301 O307 1.208 . S
C302 O294 1.315 . S
C302 O297 1.279 . S
C303 O304 1.315 . S
C303 O305 1.279 . S
O304 Cd296 2.223 . S
O304 C303 1.315 . S
O305 Cd295 2.240 . S
O305 C303 1.279 . S
O306 Cd296 2.297 . S
O306 C301 1.247 . S
O307 Cd296 2.439 . S
O307 C301 1.208 . S
O308 Cd309 2.223 . S
O308 C316 1.315 . S
Cd309 O308 2.223 . S
Cd309 O312 2.297 1_556 S
Cd309 O313 2.439 . S
Cd309 O319 2.240 . S
Cd310 O311 2.240 . S
Cd310 O318 2.223 . S
Cd310 O320 2.297 . S
Cd310 O321 2.439 . S
O311 Cd310 2.240 . S
O311 C316 1.279 . S
O312 Cd309 2.297 1_554 S
O312 C314 1.247 1_554 S
O313 Cd309 2.439 . S
O313 C314 1.208 . S
C314 O312 1.247 1_556 S
C314 O313 1.208 . S
C315 O320 1.247 . S
C315 O321 1.208 . S
C316 O308 1.315 . S
C316 O311 1.279 . S
C317 O318 1.315 . S
C317 O319 1.279 . S
O318 Cd310 2.223 . S
O318 C317 1.315 . S
O319 Cd309 2.240 . S
O319 C317 1.279 . S
O320 Cd310 2.297 . S
O320 C315 1.247 . S
O321 Cd310 2.439 . S
O321 C315 1.208 . S
O322 Cd323 2.223 . S
O322 C330 1.315 . S
Cd323 O322 2.223 . S
Cd323 O326 2.297 . S
Cd323 O327 2.439 . S
Cd323 O333 2.240 . S
Cd324 O325 2.240 . S
Cd324 O332 2.223 . S
Cd324 O334 2.297 . S
Cd324 O335 2.439 . S
O325 Cd324 2.240 . S
O325 C330 1.279 . S
O326 Cd323 2.297 . S
O326 C328 1.247 . S
O327 Cd323 2.439 . S
O327 C328 1.208 . S
C328 O326 1.247 . S
C328 O327 1.208 . S
C329 O334 1.247 . S
C329 O335 1.208 . S
C330 O322 1.315 . S
C330 O325 1.279 . S
C331 O332 1.315 . S
C331 O333 1.279 . S
O332 Cd324 2.223 . S
O332 C331 1.315 . S
O333 Cd323 2.240 . S
O333 C331 1.279 . S
O334 Cd324 2.297 . S
O334 C329 1.247 . S
O335 Cd324 2.439 . S
O335 C329 1.208 . S
O336 Cd337 2.223 . S
O336 C344 1.315 . S
Cd337 O336 2.223 . S
Cd337 O340 2.297 . S
Cd337 O341 2.439 . S
Cd337 O347 2.240 . S
Cd338 O339 2.240 . S
Cd338 O346 2.223 . S
Cd338 O348 2.297 . S
Cd338 O349 2.439 . S
O339 Cd338 2.240 . S
O339 C344 1.279 . S
O340 Cd337 2.297 . S
O340 C342 1.247 . S
O341 Cd337 2.439 . S
O341 C342 1.208 . S
C342 O340 1.247 . S
C342 O341 1.208 . S
C343 O348 1.247 . S
C343 O349 1.208 . S
C344 O336 1.315 . S
C344 O339 1.279 . S
C345 O346 1.315 . S
C345 O347 1.279 . S
O346 Cd338 2.223 . S
O346 C345 1.315 . S
O347 Cd337 2.240 . S
O347 C345 1.279 . S
O348 Cd338 2.297 . S
O348 C343 1.247 . S
O349 Cd338 2.439 . S
O349 C343 1.208 . S
O350 Cd351 2.223 . S
O350 C358 1.315 . S
Cd351 O350 2.223 . S
Cd351 O354 2.297 . S
Cd351 O355 2.439 . S
Cd351 O361 2.240 . S
Cd352 O353 2.240 . S
Cd352 O360 2.223 . S
Cd352 O362 2.297 . S
Cd352 O363 2.439 . S
O353 Cd352 2.240 . S
O353 C358 1.279 . S
O354 Cd351 2.297 . S
O354 C356 1.247 . S
O355 Cd351 2.439 . S
O355 C356 1.208 . S
C356 O354 1.247 . S
C356 O355 1.208 . S
C357 O362 1.247 . S
C357 O363 1.208 . S
C358 O350 1.315 . S
C358 O353 1.279 . S
C359 O360 1.315 . S
C359 O361 1.279 . S
O360 Cd352 2.223 . S
O360 C359 1.315 . S
O361 Cd351 2.240 . S
O361 C359 1.279 . S
O362 Cd352 2.297 . S
O362 C357 1.247 . S
O363 Cd352 2.439 . S
O363 C357 1.208 . S
O364 Cd365 2.223 . S
O364 C372 1.315 . S
Cd365 O364 2.223 . S
Cd365 O368 2.297 1_556 S
Cd365 O369 2.439 . S
Cd365 O375 2.240 . S
Cd366 O367 2.240 . S
Cd366 O374 2.223 . S
Cd366 O376 2.297 . S
Cd366 O377 2.439 . S
O367 Cd366 2.240 . S
O367 C372 1.279 . S
O368 Cd365 2.297 1_554 S
O368 C370 1.247 1_554 S
O369 Cd365 2.439 . S
O369 C370 1.208 . S
C370 O368 1.247 1_556 S
C370 O369 1.208 . S
C371 O376 1.247 . S
C371 O377 1.208 . S
C372 O364 1.315 . S
C372 O367 1.279 . S
C373 O374 1.315 . S
C373 O375 1.279 . S
O374 Cd366 2.223 . S
O374 C373 1.315 . S
O375 Cd365 2.240 . S
O375 C373 1.279 . S
O376 Cd366 2.297 . S
O376 C371 1.247 . S
O377 Cd366 2.439 . S
O377 C371 1.208 . S
O378 Cd379 2.223 . S
O378 C386 1.315 . S
Cd379 O378 2.223 . S
Cd379 O382 2.297 . S
Cd379 O383 2.439 . S
Cd379 O389 2.240 . S
Cd380 O381 2.240 . S
Cd380 O388 2.223 . S
Cd380 O390 2.297 . S
Cd380 O391 2.439 . S
O381 Cd380 2.240 . S
O381 C386 1.279 . S
O382 Cd379 2.297 . S
O382 C384 1.247 . S
O383 Cd379 2.439 . S
O383 C384 1.208 . S
C384 O382 1.247 . S
C384 O383 1.208 . S
C385 O390 1.247 . S
C385 O391 1.208 . S
C386 O378 1.315 . S
C386 O381 1.279 . S
C387 O388 1.315 . S
C387 O389 1.279 . S
O388 Cd380 2.223 . S
O388 C387 1.315 . S
O389 Cd379 2.240 . S
O389 C387 1.279 . S
O390 Cd380 2.297 . S
O390 C385 1.247 . S
O391 Cd380 2.439 . S
O391 C385 1.208 . S
O392 Cd393 2.223 . S
O392 C400 1.315 . S
Cd393 O392 2.223 . S
Cd393 O396 2.297 . S
Cd393 O397 2.439 . S
Cd393 O403 2.240 . S
Cd394 O395 2.240 . S
Cd394 O402 2.223 . S
Cd394 O404 2.297 . S
Cd394 O405 2.439 . S
O395 Cd394 2.240 . S
O395 C400 1.279 . S
O396 Cd393 2.297 . S
O396 C398 1.247 . S
O397 Cd393 2.439 . S
O397 C398 1.208 . S
C398 O396 1.247 . S
C398 O397 1.208 . S
C399 O404 1.247 . S
C399 O405 1.208 . S
C400 O392 1.315 . S
C400 O395 1.279 . S
C401 O402 1.315 . S
C401 O403 1.279 . S
O402 Cd394 2.223 . S
O402 C401 1.315 . S
O403 Cd393 2.240 . S
O403 C401 1.279 . S
O404 Cd394 2.297 . S
O404 C399 1.247 . S
O405 Cd394 2.439 . S
O405 C399 1.208 . S
O406 Cd407 2.223 . S
O406 C414 1.315 . S
Cd407 O406 2.223 . S
Cd407 O410 2.297 . S
Cd407 O411 2.439 . S
Cd407 O417 2.240 . S
Cd408 O409 2.240 . S
Cd408 O416 2.223 . S
Cd408 O418 2.297 . S
Cd408 O419 2.439 . S
O409 Cd408 2.240 . S
O409 C414 1.279 . S
O410 Cd407 2.297 . S
O410 C412 1.247 . S
O411 Cd407 2.439 . S
O411 C412 1.208 . S
C412 O410 1.247 . S
C412 O411 1.208 . S
C413 O418 1.247 . S
C413 O419 1.208 . S
C414 O406 1.315 . S
C414 O409 1.279 . S
C415 O416 1.315 . S
C415 O417 1.279 . S
O416 Cd408 2.223 . S
O416 C415 1.315 . S
O417 Cd407 2.240 . S
O417 C415 1.279 . S
O418 Cd408 2.297 . S
O418 C413 1.247 . S
O419 Cd408 2.439 . S
O419 C413 1.208 . S
O420 Cd421 2.223 . S
O420 C428 1.315 . S
Cd421 O420 2.223 . S
Cd421 O424 2.297 1_554 S
Cd421 O425 2.439 . S
Cd421 O431 2.240 . S
Cd422 O423 2.240 . S
Cd422 O430 2.223 . S
Cd422 O432 2.297 . S
Cd422 O433 2.439 . S
O423 Cd422 2.240 . S
O423 C428 1.279 . S
O424 Cd421 2.297 1_556 S
O424 C426 1.247 1_556 S
O425 Cd421 2.439 . S
O425 C426 1.208 . S
C426 O424 1.247 1_554 S
C426 O425 1.208 . S
C427 O432 1.247 . S
C427 O433 1.208 . S
C428 O420 1.315 . S
C428 O423 1.279 . S
C429 O430 1.315 . S
C429 O431 1.279 . S
O430 Cd422 2.223 . S
O430 C429 1.315 . S
O431 Cd421 2.240 . S
O431 C429 1.279 . S
O432 Cd422 2.297 . S
O432 C427 1.247 . S
O433 Cd422 2.439 . S
O433 C427 1.208 . S
O434 Cd435 2.223 . S
O434 C442 1.315 . S
Cd435 O434 2.223 . S
Cd435 O438 2.297 . S
Cd435 O439 2.439 . S
Cd435 O445 2.240 . S
Cd436 O437 2.240 . S
Cd436 O444 2.223 . S
Cd436 O446 2.297 . S
Cd436 O447 2.439 . S
O437 Cd436 2.240 . S
O437 C442 1.279 . S
O438 Cd435 2.297 . S
O438 C440 1.247 . S
O439 Cd435 2.439 . S
O439 C440 1.208 . S
C440 O438 1.247 . S
C440 O439 1.208 . S
C441 O446 1.247 . S
C441 O447 1.208 . S
C442 O434 1.315 . S
C442 O437 1.279 . S
C443 O444 1.315 . S
C443 O445 1.279 . S
O444 Cd436 2.223 . S
O444 C443 1.315 . S
O445 Cd435 2.240 . S
O445 C443 1.279 . S
O446 Cd436 2.297 . S
O446 C441 1.247 . S
O447 Cd436 2.439 . S
O447 C441 1.208 . S
C448 C449 1.363 . S
C448 C454 1.379 . S
C448 N456 1.356 . S
C449 C448 1.363 . S
C449 C455 1.363 . S
C450 C451 1.363 . S
C450 C455 1.379 . S
C450 N457 1.356 . S
C451 C450 1.363 . S
C451 C454 1.363 . S
N452 C454 1.356 . S
N452 H464 0.984 . S
N452 H465 0.985 . S
N453 C455 1.356 . S
N453 H458 0.984 . S
N453 H459 0.985 . S
C454 C448 1.379 . S
C454 C451 1.363 . S
C454 N452 1.356 . S
C455 C449 1.363 . S
C455 C450 1.379 . S
C455 N453 1.356 . S
N456 C448 1.356 . S
N456 H462 0.984 . S
N456 H463 0.984 . S
N457 C450 1.356 . S
N457 H460 0.984 . S
N457 H461 0.985 . S
H458 N453 0.984 . S
H459 N453 0.985 . S
H460 N457 0.984 . S
H461 N457 0.985 . S
H462 N456 0.984 . S
H463 N456 0.984 . S
H464 N452 0.984 . S
H465 N452 0.985 . S
C466 C467 1.363 . S
C466 C472 1.379 . S
C466 N474 1.356 . S
C467 C466 1.363 . S
C467 C473 1.363 . S
C468 C469 1.363 . S
C468 C473 1.379 . S
C468 N475 1.356 . S
C469 C468 1.363 . S
C469 C472 1.363 . S
N470 C472 1.356 . S
N470 H482 0.984 . S
N470 H483 0.985 . S
N471 C473 1.356 . S
N471 H476 0.984 . S
N471 H477 0.985 . S
C472 C466 1.379 . S
C472 C469 1.363 . S
C472 N470 1.356 . S
C473 C467 1.363 . S
C473 C468 1.379 . S
C473 N471 1.356 . S
N474 C466 1.356 . S
N474 H480 0.984 . S
N474 H481 0.984 . S
N475 C468 1.356 . S
N475 H478 0.984 . S
N475 H479 0.985 . S
H476 N471 0.984 . S
H477 N471 0.985 . S
H478 N475 0.984 . S
H479 N475 0.985 . S
H480 N474 0.984 . S
H481 N474 0.984 . S
H482 N470 0.984 . S
H483 N470 0.985 . S
C484 C485 1.363 . S
C484 C490 1.379 . S
C484 N492 1.356 . S
C485 C484 1.363 . S
C485 C491 1.363 . S
C486 C487 1.363 . S
C486 C491 1.379 . S
C486 N493 1.356 . S
C487 C486 1.363 . S
C487 C490 1.363 . S
N488 C490 1.356 . S
N488 H500 0.984 . S
N488 H501 0.985 . S
N489 C491 1.356 . S
N489 H494 0.984 . S
N489 H495 0.985 . S
C490 C484 1.379 . S
C490 C487 1.363 . S
C490 N488 1.356 . S
C491 C485 1.363 . S
C491 C486 1.379 . S
C491 N489 1.356 . S
N492 C484 1.356 . S
N492 H498 0.984 . S
N492 H499 0.984 . S
N493 C486 1.356 . S
N493 H496 0.984 . S
N493 H497 0.985 . S
H494 N489 0.984 . S
H495 N489 0.985 . S
H496 N493 0.984 . S
H497 N493 0.985 . S
H498 N492 0.984 . S
H499 N492 0.984 . S
H500 N488 0.984 . S
H501 N488 0.985 . S
C502 C503 1.363 . S
C502 C508 1.379 . S
C502 N510 1.356 . S
C503 C502 1.363 . S
C503 C509 1.363 . S
C504 C505 1.363 . S
C504 C509 1.379 . S
C504 N511 1.356 . S
C505 C504 1.363 . S
C505 C508 1.363 . S
N506 C508 1.356 . S
N506 H518 0.984 . S
N506 H519 0.985 . S
N507 C509 1.356 . S
N507 H512 0.984 . S
N507 H513 0.985 . S
C508 C502 1.379 . S
C508 C505 1.363 . S
C508 N506 1.356 . S
C509 C503 1.363 . S
C509 C504 1.379 . S
C509 N507 1.356 . S
N510 C502 1.356 . S
N510 H516 0.984 . S
N510 H517 0.984 . S
N511 C504 1.356 . S
N511 H514 0.984 . S
N511 H515 0.985 . S
H512 N507 0.984 . S
H513 N507 0.985 . S
H514 N511 0.984 . S
H515 N511 0.985 . S
H516 N510 0.984 . S
H517 N510 0.984 . S
H518 N506 0.984 . S
H519 N506 0.985 . S
C520 C521 1.363 . S
C520 C526 1.379 . S
C520 N528 1.356 . S
C521 C520 1.363 . S
C521 C527 1.363 . S
C522 C523 1.363 . S
C522 C527 1.379 . S
C522 N529 1.356 . S
C523 C522 1.363 . S
C523 C526 1.363 . S
N524 C526 1.356 . S
N524 H536 0.984 . S
N524 H537 0.985 . S
N525 C527 1.356 . S
N525 H530 0.984 . S
N525 H531 0.985 . S
C526 C520 1.379 . S
C526 C523 1.363 . S
C526 N524 1.356 . S
C527 C521 1.363 . S
C527 C522 1.379 . S
C527 N525 1.356 . S
N528 C520 1.356 . S
N528 H534 0.984 . S
N528 H535 0.984 . S
N529 C522 1.356 . S
N529 H532 0.984 . S
N529 H533 0.985 . S
H530 N525 0.984 . S
H531 N525 0.985 . S
H532 N529 0.984 . S
H533 N529 0.985 . S
H534 N528 0.984 . S
H535 N528 0.984 . S
H536 N524 0.984 . S
H537 N524 0.985 . S
C538 C539 1.363 . S
C538 C544 1.379 . S
C538 N546 1.356 . S
C539 C538 1.363 . S
C539 C545 1.363 . S
C540 C541 1.363 . S
C540 C545 1.379 . S
C540 N547 1.356 . S
C541 C540 1.363 . S
C541 C544 1.363 . S
N542 C544 1.356 . S
N542 H554 0.984 . S
N542 H555 0.985 . S
N543 C545 1.356 . S
N543 H548 0.984 . S
N543 H549 0.985 . S
C544 C538 1.379 . S
C544 C541 1.363 . S
C544 N542 1.356 . S
C545 C539 1.363 . S
C545 C540 1.379 . S
C545 N543 1.356 . S
N546 C538 1.356 . S
N546 H552 0.984 . S
N546 H553 0.984 . S
N547 C540 1.356 . S
N547 H550 0.984 . S
N547 H551 0.985 . S
H548 N543 0.984 . S
H549 N543 0.985 . S
H550 N547 0.984 . S
H551 N547 0.985 . S
H552 N546 0.984 . S
H553 N546 0.984 . S
H554 N542 0.984 . S
H555 N542 0.985 . S
C556 C557 1.363 . S
C556 C562 1.379 . S
C556 N564 1.356 . S
C557 C556 1.363 . S
C557 C563 1.363 . S
C558 C559 1.363 . S
C558 C563 1.379 . S
C558 N565 1.356 . S
C559 C558 1.363 . S
C559 C562 1.363 . S
N560 C562 1.356 . S
N560 H572 0.984 . S
N560 H573 0.985 . S
N561 C563 1.356 . S
N561 H566 0.984 . S
N561 H567 0.985 . S
C562 C556 1.379 . S
C562 C559 1.363 . S
C562 N560 1.356 . S
C563 C557 1.363 . S
C563 C558 1.379 . S
C563 N561 1.356 . S
N564 C556 1.356 . S
N564 H570 0.984 . S
N564 H571 0.984 . S
N565 C558 1.356 . S
N565 H568 0.984 . S
N565 H569 0.985 . S
H566 N561 0.984 . S
H567 N561 0.985 . S
H568 N565 0.984 . S
H569 N565 0.985 . S
H570 N564 0.984 . S
H571 N564 0.984 . S
H572 N560 0.984 . S
H573 N560 0.985 . S
C574 C575 1.363 . S
C574 C580 1.379 . S
C574 N582 1.356 . S
C575 C574 1.363 . S
C575 C581 1.363 . S
C576 C577 1.363 . S
C576 C581 1.379 . S
C576 N583 1.356 . S
C577 C576 1.363 . S
C577 C580 1.363 . S
N578 C580 1.356 . S
N578 H590 0.984 . S
N578 H591 0.985 . S
N579 C581 1.356 . S
N579 H584 0.984 . S
N579 H585 0.985 . S
C580 C574 1.379 . S
C580 C577 1.363 . S
C580 N578 1.356 . S
C581 C575 1.363 . S
C581 C576 1.379 . S
C581 N579 1.356 . S
N582 C574 1.356 . S
N582 H588 0.984 . S
N582 H589 0.984 . S
N583 C576 1.356 . S
N583 H586 0.984 . S
N583 H587 0.985 . S
H584 N579 0.984 . S
H585 N579 0.985 . S
H586 N583 0.984 . S
H587 N583 0.985 . S
H588 N582 0.984 . S
H589 N582 0.984 . S
H590 N578 0.984 . S
H591 N578 0.985 . S
C592 C593 1.363 . S
C592 C598 1.379 . S
C592 N600 1.356 . S
C593 C592 1.363 . S
C593 C599 1.363 . S
C594 C595 1.363 . S
C594 C599 1.379 . S
C594 N601 1.356 . S
C595 C594 1.363 . S
C595 C598 1.363 . S
N596 C598 1.356 . S
N596 H608 0.984 . S
N596 H609 0.985 . S
N597 C599 1.356 . S
N597 H602 0.984 . S
N597 H603 0.985 . S
C598 C592 1.379 . S
C598 C595 1.363 . S
C598 N596 1.356 . S
C599 C593 1.363 . S
C599 C594 1.379 . S
C599 N597 1.356 . S
N600 C592 1.356 . S
N600 H606 0.984 . S
N600 H607 0.984 . S
N601 C594 1.356 . S
N601 H604 0.984 . S
N601 H605 0.985 . S
H602 N597 0.984 . S
H603 N597 0.985 . S
H604 N601 0.984 . S
H605 N601 0.985 . S
H606 N600 0.984 . S
H607 N600 0.984 . S
H608 N596 0.984 . S
H609 N596 0.985 . S
C610 C611 1.363 . S
C610 C616 1.379 . S
C610 N618 1.356 . S
C611 C610 1.363 . S
C611 C617 1.363 . S
C612 C613 1.363 . S
C612 C617 1.379 . S
C612 N619 1.356 . S
C613 C612 1.363 . S
C613 C616 1.363 . S
N614 C616 1.356 . S
N614 H626 0.984 . S
N614 H627 0.985 . S
N615 C617 1.356 . S
N615 H620 0.984 . S
N615 H621 0.985 . S
C616 C610 1.379 . S
C616 C613 1.363 . S
C616 N614 1.356 . S
C617 C611 1.363 . S
C617 C612 1.379 . S
C617 N615 1.356 . S
N618 C610 1.356 . S
N618 H624 0.984 . S
N618 H625 0.984 . S
N619 C612 1.356 . S
N619 H622 0.984 . S
N619 H623 0.985 . S
H620 N615 0.984 . S
H621 N615 0.985 . S
H622 N619 0.984 . S
H623 N619 0.985 . S
H624 N618 0.984 . S
H625 N618 0.984 . S
H626 N614 0.984 . S
H627 N614 0.985 . S
C628 C629 1.363 . S
C628 C634 1.379 . S
C628 N636 1.356 . S
C629 C628 1.363 . S
C629 C635 1.363 . S
C630 C631 1.363 . S
C630 C635 1.379 . S
C630 N637 1.356 . S
C631 C630 1.363 . S
C631 C634 1.363 . S
N632 C634 1.356 . S
N632 H644 0.984 . S
N632 H645 0.985 . S
N633 C635 1.356 . S
N633 H638 0.984 . S
N633 H639 0.985 . S
C634 C628 1.379 . S
C634 C631 1.363 . S
C634 N632 1.356 . S
C635 C629 1.363 . S
C635 C630 1.379 . S
C635 N633 1.356 . S
N636 C628 1.356 . S
N636 H642 0.984 . S
N636 H643 0.984 . S
N637 C630 1.356 . S
N637 H640 0.984 . S
N637 H641 0.985 . S
H638 N633 0.984 . S
H639 N633 0.985 . S
H640 N637 0.984 . S
H641 N637 0.985 . S
H642 N636 0.984 . S
H643 N636 0.984 . S
H644 N632 0.984 . S
H645 N632 0.985 . S
C646 C647 1.363 . S
C646 C652 1.379 . S
C646 N654 1.356 . S
C647 C646 1.363 . S
C647 C653 1.363 . S
C648 C649 1.363 . S
C648 C653 1.379 . S
C648 N655 1.356 . S
C649 C648 1.363 . S
C649 C652 1.363 . S
N650 C652 1.356 . S
N650 H662 0.984 . S
N650 H663 0.985 . S
N651 C653 1.356 . S
N651 H656 0.984 . S
N651 H657 0.985 . S
C652 C646 1.379 . S
C652 C649 1.363 . S
C652 N650 1.356 . S
C653 C647 1.363 . S
C653 C648 1.379 . S
C653 N651 1.356 . S
N654 C646 1.356 . S
N654 H660 0.984 . S
N654 H661 0.984 . S
N655 C648 1.356 . S
N655 H658 0.984 . S
N655 H659 0.985 . S
H656 N651 0.984 . S
H657 N651 0.985 . S
H658 N655 0.984 . S
H659 N655 0.985 . S
H660 N654 0.984 . S
H661 N654 0.984 . S
H662 N650 0.984 . S
H663 N650 0.985 . S
C664 C665 1.363 . S
C664 C670 1.379 . S
C664 N672 1.356 . S
C665 C664 1.363 . S
C665 C671 1.363 . S
C666 C667 1.363 . S
C666 C671 1.379 . S
C666 N673 1.356 . S
C667 C666 1.363 . S
C667 C670 1.363 . S
N668 C670 1.356 . S
N668 H680 0.984 . S
N668 H681 0.985 . S
N669 C671 1.356 . S
N669 H674 0.984 . S
N669 H675 0.985 . S
C670 C664 1.379 . S
C670 C667 1.363 . S
C670 N668 1.356 . S
C671 C665 1.363 . S
C671 C666 1.379 . S
C671 N669 1.356 . S
N672 C664 1.356 . S
N672 H678 0.984 . S
N672 H679 0.984 . S
N673 C666 1.356 . S
N673 H676 0.984 . S
N673 H677 0.985 . S
H674 N669 0.984 . S
H675 N669 0.985 . S
H676 N673 0.984 . S
H677 N673 0.985 . S
H678 N672 0.984 . S
H679 N672 0.984 . S
H680 N668 0.984 . S
H681 N668 0.985 . S
C682 C683 1.363 . S
C682 C688 1.379 . S
C682 N690 1.356 . S
C683 C682 1.363 . S
C683 C689 1.363 . S
C684 C685 1.363 . S
C684 C689 1.379 . S
C684 N691 1.356 . S
C685 C684 1.363 . S
C685 C688 1.363 . S
N686 C688 1.356 . S
N686 H698 0.984 . S
N686 H699 0.985 . S
N687 C689 1.356 . S
N687 H692 0.984 . S
N687 H693 0.985 . S
C688 C682 1.379 . S
C688 C685 1.363 . S
C688 N686 1.356 . S
C689 C683 1.363 . S
C689 C684 1.379 . S
C689 N687 1.356 . S
N690 C682 1.356 . S
N690 H696 0.984 . S
N690 H697 0.984 . S
N691 C684 1.356 . S
N691 H694 0.984 . S
N691 H695 0.985 . S
H692 N687 0.984 . S
H693 N687 0.985 . S
H694 N691 0.984 . S
H695 N691 0.985 . S
H696 N690 0.984 . S
H697 N690 0.984 . S
H698 N686 0.984 . S
H699 N686 0.985 . S
C700 C701 1.363 . S
C700 C706 1.379 . S
C700 N708 1.356 . S
C701 C700 1.363 . S
C701 C707 1.363 . S
C702 C703 1.363 . S
C702 C707 1.379 . S
C702 N709 1.356 . S
C703 C702 1.363 . S
C703 C706 1.363 . S
N704 C706 1.356 . S
N704 H716 0.984 . S
N704 H717 0.985 . S
N705 C707 1.356 . S
N705 H710 0.984 . S
N705 H711 0.985 . S
C706 C700 1.379 . S
C706 C703 1.363 . S
C706 N704 1.356 . S
C707 C701 1.363 . S
C707 C702 1.379 . S
C707 N705 1.356 . S
N708 C700 1.356 . S
N708 H714 0.984 . S
N708 H715 0.984 . S
N709 C702 1.356 . S
N709 H712 0.984 . S
N709 H713 0.985 . S
H710 N705 0.984 . S
H711 N705 0.985 . S
H712 N709 0.984 . S
H713 N709 0.985 . S
H714 N708 0.984 . S
H715 N708 0.984 . S
H716 N704 0.984 . S
H717 N704 0.985 . S
C718 C719 1.363 . S
C718 C724 1.379 . S
C718 N726 1.356 . S
C719 C718 1.363 . S
C719 C725 1.363 . S
C720 C721 1.363 . S
C720 C725 1.379 . S
C720 N727 1.356 . S
C721 C720 1.363 . S
C721 C724 1.363 . S
N722 C724 1.356 . S
N722 H734 0.984 . S
N722 H735 0.985 . S
N723 C725 1.356 . S
N723 H728 0.984 . S
N723 H729 0.985 . S
C724 C718 1.379 . S
C724 C721 1.363 . S
C724 N722 1.356 . S
C725 C719 1.363 . S
C725 C720 1.379 . S
C725 N723 1.356 . S
N726 C718 1.356 . S
N726 H732 0.984 . S
N726 H733 0.984 . S
N727 C720 1.356 . S
N727 H730 0.984 . S
N727 H731 0.985 . S
H728 N723 0.984 . S
H729 N723 0.985 . S
H730 N727 0.984 . S
H731 N727 0.985 . S
H732 N726 0.984 . S
H733 N726 0.984 . S
H734 N722 0.984 . S
H735 N722 0.985 . S
C736 C737 1.363 . S
C736 C742 1.379 1_455 S
C736 N744 1.356 1_554 S
C737 C736 1.363 . S
C737 C743 1.363 . S
C738 C739 1.363 . S
C738 C743 1.379 1_655 S
C738 N745 1.356 . S
C739 C738 1.363 . S
C739 C742 1.363 . S
N740 C742 1.356 1_556 S
N740 H752 0.984 . S
N740 H753 0.985 . S
N741 C743 1.356 . S
N741 H746 0.984 . S
N741 H747 0.985 . S
C742 C736 1.379 1_655 S
C742 C739 1.363 . S
C742 N740 1.356 1_554 S
C743 C737 1.363 . S
C743 C738 1.379 1_455 S
C743 N741 1.356 . S
N744 C736 1.356 1_556 S
N744 H750 0.984 . S
N744 H751 0.984 . S
N745 C738 1.356 . S
N745 H748 0.984 . S
N745 H749 0.985 . S
H746 N741 0.984 . S
H747 N741 0.985 . S
H748 N745 0.984 . S
H749 N745 0.985 . S
H750 N744 0.984 . S
H751 N744 0.984 . S
H752 N740 0.984 . S
H753 N740 0.985 . S
C754 C755 1.363 . S
C754 C760 1.379 . S
C754 N762 1.356 . S
C755 C754 1.363 . S
C755 C761 1.363 . S
C756 C757 1.363 . S
C756 C761 1.379 . S
C756 N763 1.356 . S
C757 C756 1.363 . S
C757 C760 1.363 . S
N758 C760 1.356 . S
N758 H770 0.984 . S
N758 H771 0.985 . S
N759 C761 1.356 . S
N759 H764 0.984 . S
N759 H765 0.985 . S
C760 C754 1.379 . S
C760 C757 1.363 . S
C760 N758 1.356 . S
C761 C755 1.363 . S
C761 C756 1.379 . S
C761 N759 1.356 . S
N762 C754 1.356 . S
N762 H768 0.984 . S
N762 H769 0.984 . S
N763 C756 1.356 . S
N763 H766 0.984 . S
N763 H767 0.985 . S
H764 N759 0.984 . S
H765 N759 0.985 . S
H766 N763 0.984 . S
H767 N763 0.985 . S
H768 N762 0.984 . S
H769 N762 0.984 . S
H770 N758 0.984 . S
H771 N758 0.985 . S
C772 C773 1.363 . S
C772 C778 1.379 . S
C772 N780 1.356 . S
C773 C772 1.363 . S
C773 C779 1.363 . S
C774 C775 1.363 . S
C774 C779 1.379 . S
C774 N781 1.356 . S
C775 C774 1.363 . S
C775 C778 1.363 . S
N776 C778 1.356 . S
N776 H788 0.984 . S
N776 H789 0.985 . S
N777 C779 1.356 . S
N777 H782 0.984 . S
N777 H783 0.985 . S
C778 C772 1.379 . S
C778 C775 1.363 . S
C778 N776 1.356 . S
C779 C773 1.363 . S
C779 C774 1.379 . S
C779 N777 1.356 . S
N780 C772 1.356 . S
N780 H786 0.984 . S
N780 H787 0.984 . S
N781 C774 1.356 . S
N781 H784 0.984 . S
N781 H785 0.985 . S
H782 N777 0.984 . S
H783 N777 0.985 . S
H784 N781 0.984 . S
H785 N781 0.985 . S
H786 N780 0.984 . S
H787 N780 0.984 . S
H788 N776 0.984 . S
H789 N776 0.985 . S
C790 C791 1.363 . S
C790 C796 1.379 . S
C790 N798 1.356 . S
C791 C790 1.363 . S
C791 C797 1.363 . S
C792 C793 1.363 . S
C792 C797 1.379 . S
C792 N799 1.356 . S
C793 C792 1.363 . S
C793 C796 1.363 . S
N794 C796 1.356 . S
N794 H806 0.984 . S
N794 H807 0.985 . S
N795 C797 1.356 . S
N795 H800 0.984 . S
N795 H801 0.985 . S
C796 C790 1.379 . S
C796 C793 1.363 . S
C796 N794 1.356 . S
C797 C791 1.363 . S
C797 C792 1.379 . S
C797 N795 1.356 . S
N798 C790 1.356 . S
N798 H804 0.984 . S
N798 H805 0.984 . S
N799 C792 1.356 . S
N799 H802 0.984 . S
N799 H803 0.985 . S
H800 N795 0.984 . S
H801 N795 0.985 . S
H802 N799 0.984 . S
H803 N799 0.985 . S
H804 N798 0.984 . S
H805 N798 0.984 . S
H806 N794 0.984 . S
H807 N794 0.985 . S
C808 C809 1.363 . S
C808 C814 1.379 1_655 S
C808 N816 1.375 . S
C809 C808 1.363 . S
C809 C815 1.363 . S
C810 C811 1.363 . S
C810 C815 1.379 1_455 S
C810 N817 1.356 . S
C811 C810 1.363 . S
C811 C814 1.363 . S
N812 C814 1.375 . S
N812 H824 0.959 1_556 S
N812 H825 0.994 . S
N813 C815 1.356 . S
N813 H818 0.984 . S
N813 H819 0.985 . S
C814 C808 1.379 1_455 S
C814 C811 1.363 . S
C814 N812 1.375 . S
C815 C809 1.363 . S
C815 C810 1.379 1_655 S
C815 N813 1.356 . S
N816 C808 1.375 . S
N816 H822 0.959 1_556 S
N816 H823 0.994 . S
N817 C810 1.356 . S
N817 H820 0.984 . S
N817 H821 0.985 . S
H818 N813 0.984 . S
H819 N813 0.985 . S
H820 N817 0.984 . S
H821 N817 0.985 . S
H822 N816 0.959 1_554 S
H823 N816 0.994 . S
H824 N812 0.959 1_554 S
H825 N812 0.994 . S
C826 C827 1.363 . S
C826 C832 1.379 . S
C826 N834 1.356 . S
C827 C826 1.363 . S
C827 C833 1.363 . S
C828 C829 1.363 . S
C828 C833 1.379 . S
C828 N835 1.356 . S
C829 C828 1.363 . S
C829 C832 1.363 . S
N830 C832 1.356 . S
N830 H842 0.984 . S
N830 H843 0.985 . S
N831 C833 1.356 . S
N831 H836 0.984 . S
N831 H837 0.985 . S
C832 C826 1.379 . S
C832 C829 1.363 . S
C832 N830 1.356 . S
C833 C827 1.363 . S
C833 C828 1.379 . S
C833 N831 1.356 . S
N834 C826 1.356 . S
N834 H840 0.984 . S
N834 H841 0.984 . S
N835 C828 1.356 . S
N835 H838 0.984 . S
N835 H839 0.985 . S
H836 N831 0.984 . S
H837 N831 0.985 . S
H838 N835 0.984 . S
H839 N835 0.985 . S
H840 N834 0.984 . S
H841 N834 0.984 . S
H842 N830 0.984 . S
H843 N830 0.985 . S
C844 C845 1.363 . S
C844 C850 1.379 . S
C844 N852 1.356 . S
C845 C844 1.363 . S
C845 C851 1.363 . S
C846 C847 1.363 . S
C846 C851 1.379 . S
C846 N853 1.356 . S
C847 C846 1.363 . S
C847 C850 1.363 . S
N848 C850 1.356 . S
N848 H860 0.984 . S
N848 H861 0.985 . S
N849 C851 1.356 . S
N849 H854 0.984 . S
N849 H855 0.985 . S
C850 C844 1.379 . S
C850 C847 1.363 . S
C850 N848 1.356 . S
C851 C845 1.363 . S
C851 C846 1.379 . S
C851 N849 1.356 . S
N852 C844 1.356 . S
N852 H858 0.984 . S
N852 H859 0.984 . S
N853 C846 1.356 . S
N853 H856 0.984 . S
N853 H857 0.985 . S
H854 N849 0.984 . S
H855 N849 0.985 . S
H856 N853 0.984 . S
H857 N853 0.985 . S
H858 N852 0.984 . S
H859 N852 0.984 . S
H860 N848 0.984 . S
H861 N848 0.985 . S
C862 C863 1.363 . S
C862 C868 1.379 . S
C862 N870 1.356 . S
C863 C862 1.363 . S
C863 C869 1.363 . S
C864 C865 1.363 . S
C864 C869 1.379 . S
C864 N871 1.356 . S
C865 C864 1.363 . S
C865 C868 1.363 . S
N866 C868 1.356 . S
N866 H878 0.984 . S
N866 H879 0.985 . S
N867 C869 1.356 . S
N867 H872 0.984 . S
N867 H873 0.985 . S
C868 C862 1.379 . S
C868 C865 1.363 . S
C868 N866 1.356 . S
C869 C863 1.363 . S
C869 C864 1.379 . S
C869 N867 1.356 . S
N870 C862 1.356 . S
N870 H876 0.984 . S
N870 H877 0.984 . S
N871 C864 1.356 . S
N871 H874 0.984 . S
N871 H875 0.985 . S
H872 N867 0.984 . S
H873 N867 0.985 . S
H874 N871 0.984 . S
H875 N871 0.985 . S
H876 N870 0.984 . S
H877 N870 0.984 . S
H878 N866 0.984 . S
H879 N866 0.985 . S
C880 C881 1.363 . S
C880 C886 1.379 . S
C880 N888 1.356 . S
C881 C880 1.363 . S
C881 C887 1.363 . S
C882 C883 1.363 . S
C882 C887 1.379 . S
C882 N889 1.356 . S
C883 C882 1.363 . S
C883 C886 1.363 . S
N884 C886 1.356 . S
N884 H896 0.984 . S
N884 H897 0.985 . S
N885 C887 1.356 . S
N885 H890 0.984 . S
N885 H891 0.985 . S
C886 C880 1.379 . S
C886 C883 1.363 . S
C886 N884 1.356 . S
C887 C881 1.363 . S
C887 C882 1.379 . S
C887 N885 1.356 . S
N888 C880 1.356 . S
N888 H894 0.984 . S
N888 H895 0.984 . S
N889 C882 1.356 . S
N889 H892 0.984 . S
N889 H893 0.985 . S
H890 N885 0.984 . S
H891 N885 0.985 . S
H892 N889 0.984 . S
H893 N889 0.985 . S
H894 N888 0.984 . S
H895 N888 0.984 . S
H896 N884 0.984 . S
H897 N884 0.985 . S
C898 C899 1.363 . S
C898 C904 1.379 . S
C898 N906 1.356 . S
C899 C898 1.363 . S
C899 C905 1.363 . S
C900 C901 1.363 . S
C900 C905 1.379 . S
C900 N907 1.356 . S
C901 C900 1.363 . S
C901 C904 1.363 . S
N902 C904 1.356 . S
N902 H914 0.984 . S
N902 H915 0.985 . S
N903 C905 1.356 . S
N903 H908 0.984 . S
N903 H909 0.985 . S
C904 C898 1.379 . S
C904 C901 1.363 . S
C904 N902 1.356 . S
C905 C899 1.363 . S
C905 C900 1.379 . S
C905 N903 1.356 . S
N906 C898 1.356 . S
N906 H912 0.984 . S
N906 H913 0.984 . S
N907 C900 1.356 . S
N907 H910 0.984 . S
N907 H911 0.985 . S
H908 N903 0.984 . S
H909 N903 0.985 . S
H910 N907 0.984 . S
H911 N907 0.985 . S
H912 N906 0.984 . S
H913 N906 0.984 . S
H914 N902 0.984 . S
H915 N902 0.985 . S
C916 C917 1.363 . S
C916 C922 1.379 . S
C916 N924 1.356 . S
C917 C916 1.363 . S
C917 C923 1.363 . S
C918 C919 1.363 . S
C918 C923 1.379 . S
C918 N925 1.356 . S
C919 C918 1.363 . S
C919 C922 1.363 . S
N920 C922 1.356 . S
N920 H932 0.984 . S
N920 H933 0.985 . S
N921 C923 1.356 . S
N921 H926 0.984 . S
N921 H927 0.985 . S
C922 C916 1.379 . S
C922 C919 1.363 . S
C922 N920 1.356 . S
C923 C917 1.363 . S
C923 C918 1.379 . S
C923 N921 1.356 . S
N924 C916 1.356 . S
N924 H930 0.984 . S
N924 H931 0.984 . S
N925 C918 1.356 . S
N925 H928 0.984 . S
N925 H929 0.985 . S
H926 N921 0.984 . S
H927 N921 0.985 . S
H928 N925 0.984 . S
H929 N925 0.985 . S
H930 N924 0.984 . S
H931 N924 0.984 . S
H932 N920 0.984 . S
H933 N920 0.985 . S
C934 C935 1.363 . S
C934 C940 1.379 . S
C934 N942 1.356 . S
C935 C934 1.363 . S
C935 C941 1.363 . S
C936 C937 1.363 . S
C936 C941 1.379 . S
C936 N943 1.356 . S
C937 C936 1.363 . S
C937 C940 1.363 . S
N938 C940 1.356 . S
N938 H950 0.984 . S
N938 H951 0.985 . S
N939 C941 1.356 . S
N939 H944 0.984 . S
N939 H945 0.985 . S
C940 C934 1.379 . S
C940 C937 1.363 . S
C940 N938 1.356 . S
C941 C935 1.363 . S
C941 C936 1.379 . S
C941 N939 1.356 . S
N942 C934 1.356 . S
N942 H948 0.984 . S
N942 H949 0.984 . S
N943 C936 1.356 . S
N943 H946 0.984 . S
N943 H947 0.985 . S
H944 N939 0.984 . S
H945 N939 0.985 . S
H946 N943 0.984 . S
H947 N943 0.985 . S
H948 N942 0.984 . S
H949 N942 0.984 . S
H950 N938 0.984 . S
H951 N938 0.985 . S
C952 C953 1.363 . S
C952 C958 1.379 . S
C952 N960 1.356 . S
C953 C952 1.363 . S
C953 C959 1.363 . S
C954 C955 1.363 . S
C954 C959 1.379 . S
C954 N961 1.356 . S
C955 C954 1.363 . S
C955 C958 1.363 . S
N956 C958 1.356 . S
N956 H968 0.984 . S
N956 H969 0.985 . S
N957 C959 1.356 . S
N957 H962 0.984 . S
N957 H963 0.985 . S
C958 C952 1.379 . S
C958 C955 1.363 . S
C958 N956 1.356 . S
C959 C953 1.363 . S
C959 C954 1.379 . S
C959 N957 1.356 . S
N960 C952 1.356 . S
N960 H966 0.984 . S
N960 H967 0.984 . S
N961 C954 1.356 . S
N961 H964 0.984 . S
N961 H965 0.985 . S
H962 N957 0.984 . S
H963 N957 0.985 . S
H964 N961 0.984 . S
H965 N961 0.985 . S
H966 N960 0.984 . S
H967 N960 0.984 . S
H968 N956 0.984 . S
H969 N956 0.985 . S
C970 C971 1.363 . S
C970 C976 1.379 1_655 S
C970 N978 1.356 1_554 S
C971 C970 1.363 . S
C971 C977 1.363 . S
C972 C973 1.363 . S
C972 C977 1.379 1_455 S
C972 N979 1.356 . S
C973 C972 1.363 . S
C973 C976 1.363 . S
N974 C976 1.356 1_556 S
N974 H986 0.984 . S
N974 H987 0.985 . S
N975 C977 1.356 . S
N975 H980 0.984 . S
N975 H981 0.985 . S
C976 C970 1.379 1_455 S
C976 C973 1.363 . S
C976 N974 1.356 1_554 S
C977 C971 1.363 . S
C977 C972 1.379 1_655 S
C977 N975 1.356 . S
N978 C970 1.356 1_556 S
N978 H984 0.984 . S
N978 H985 0.984 . S
N979 C972 1.356 . S
N979 H982 0.984 . S
N979 H983 0.985 . S
H980 N975 0.984 . S
H981 N975 0.985 . S
H982 N979 0.984 . S
H983 N979 0.985 . S
H984 N978 0.984 . S
H985 N978 0.984 . S
H986 N974 0.984 . S
H987 N974 0.985 . S
C988 C989 1.363 . S
C988 C994 1.379 . S
C988 N996 1.356 . S
C989 C988 1.363 . S
C989 C995 1.363 . S
C990 C991 1.363 . S
C990 C995 1.379 . S
C990 N997 1.356 . S
C991 C990 1.363 . S
C991 C994 1.363 . S
N992 C994 1.356 . S
N992 H1004 0.984 . S
N992 H1005 0.985 . S
N993 C995 1.356 . S
N993 H998 0.984 . S
N993 H999 0.985 . S
C994 C988 1.379 . S
C994 C991 1.363 . S
C994 N992 1.356 . S
C995 C989 1.363 . S
C995 C990 1.379 . S
C995 N993 1.356 . S
N996 C988 1.356 . S
N996 H1002 0.984 . S
N996 H1003 0.984 . S
N997 C990 1.356 . S
N997 H1000 0.984 . S
N997 H1001 0.985 . S
H998 N993 0.984 . S
H999 N993 0.985 . S
H1000 N997 0.984 . S
H1001 N997 0.985 . S
H1002 N996 0.984 . S
H1003 N996 0.984 . S
H1004 N992 0.984 . S
H1005 N992 0.985 . S
C1006 C1007 1.363 . S
C1006 C1012 1.379 1_455 S
C1006 N1014 1.356 . S
C1007 C1006 1.363 . S
C1007 C1013 1.363 . S
C1008 C1009 1.363 . S
C1008 C1013 1.379 1_655 S
C1008 N1015 1.356 . S
C1009 C1008 1.363 . S
C1009 C1012 1.363 . S
N1010 C1012 1.356 . S
N1010 H1022 0.984 . S
N1010 H1023 0.985 . S
N1011 C1013 1.356 . S
N1011 H1016 0.984 . S
N1011 H1017 0.985 . S
C1012 C1006 1.379 1_655 S
C1012 C1009 1.363 . S
C1012 N1010 1.356 . S
C1013 C1007 1.363 . S
C1013 C1008 1.379 1_455 S
C1013 N1011 1.356 . S
N1014 C1006 1.356 . S
N1014 H1020 0.984 . S
N1014 H1021 0.984 . S
N1015 C1008 1.356 . S
N1015 H1018 0.984 . S
N1015 H1019 0.985 . S
H1016 N1011 0.984 . S
H1017 N1011 0.985 . S
H1018 N1015 0.984 . S
H1019 N1015 0.985 . S
H1020 N1014 0.984 . S
H1021 N1014 0.984 . S
H1022 N1010 0.984 . S
H1023 N1010 0.985 . S
C1024 C1025 1.363 . S
C1024 C1030 1.379 . S
C1024 N1032 1.356 . S
C1025 C1024 1.363 . S
C1025 C1031 1.363 1_556 S
C1026 C1027 1.363 . S
C1026 C1031 1.379 . S
C1026 N1033 1.356 . S
C1027 C1026 1.363 . S
C1027 C1030 1.363 1_554 S
N1028 C1030 1.356 . S
N1028 H1040 0.984 . S
N1028 H1041 0.985 . S
N1029 C1031 1.356 . S
N1029 H1034 0.984 . S
N1029 H1035 0.985 . S
C1030 C1024 1.379 . S
C1030 C1027 1.363 1_556 S
C1030 N1028 1.356 . S
C1031 C1025 1.363 1_554 S
C1031 C1026 1.379 . S
C1031 N1029 1.356 . S
N1032 C1024 1.356 . S
N1032 H1038 0.984 . S
N1032 H1039 0.984 . S
N1033 C1026 1.356 . S
N1033 H1036 0.984 . S
N1033 H1037 0.985 . S
H1034 N1029 0.984 . S
H1035 N1029 0.985 . S
H1036 N1033 0.984 . S
H1037 N1033 0.985 . S
H1038 N1032 0.984 . S
H1039 N1032 0.984 . S
H1040 N1028 0.984 . S
H1041 N1028 0.985 . S
C1042 C1043 1.363 . S
C1042 C1048 1.379 . S
C1042 N1050 1.356 . S
C1043 C1042 1.363 . S
C1043 C1049 1.363 . S
C1044 C1045 1.363 . S
C1044 C1049 1.379 . S
C1044 N1051 1.356 . S
C1045 C1044 1.363 . S
C1045 C1048 1.363 . S
N1046 C1048 1.356 . S
N1046 H1058 0.984 . S
N1046 H1059 0.985 . S
N1047 C1049 1.356 . S
N1047 H1052 0.984 . S
N1047 H1053 0.985 . S
C1048 C1042 1.379 . S
C1048 C1045 1.363 . S
C1048 N1046 1.356 . S
C1049 C1043 1.363 . S
C1049 C1044 1.379 . S
C1049 N1047 1.356 . S
N1050 C1042 1.356 . S
N1050 H1056 0.984 . S
N1050 H1057 0.984 . S
N1051 C1044 1.356 . S
N1051 H1054 0.984 . S
N1051 H1055 0.985 . S
H1052 N1047 0.984 . S
H1053 N1047 0.985 . S
H1054 N1051 0.984 . S
H1055 N1051 0.985 . S
H1056 N1050 0.984 . S
H1057 N1050 0.984 . S
H1058 N1046 0.984 . S
H1059 N1046 0.985 . S
C1060 C1061 1.363 . S
C1060 C1066 1.379 . S
C1060 N1068 1.356 . S
C1061 C1060 1.363 . S
C1061 C1067 1.363 . S
C1062 C1063 1.363 . S
C1062 C1067 1.379 . S
C1062 N1069 1.356 . S
C1063 C1062 1.363 . S
C1063 C1066 1.363 . S
N1064 C1066 1.356 . S
N1064 H1076 0.984 . S
N1064 H1077 0.985 . S
N1065 C1067 1.356 . S
N1065 H1070 0.984 . S
N1065 H1071 0.985 . S
C1066 C1060 1.379 . S
C1066 C1063 1.363 . S
C1066 N1064 1.356 . S
C1067 C1061 1.363 . S
C1067 C1062 1.379 . S
C1067 N1065 1.356 . S
N1068 C1060 1.356 . S
N1068 H1074 0.984 . S
N1068 H1075 0.984 . S
N1069 C1062 1.356 . S
N1069 H1072 0.984 . S
N1069 H1073 0.985 . S
H1070 N1065 0.984 . S
H1071 N1065 0.985 . S
H1072 N1069 0.984 . S
H1073 N1069 0.985 . S
H1074 N1068 0.984 . S
H1075 N1068 0.984 . S
H1076 N1064 0.984 . S
H1077 N1064 0.985 . S
C1078 C1079 1.363 . S
C1078 C1084 1.379 . S
C1078 N1086 1.356 . S
C1079 C1078 1.363 . S
C1079 C1085 1.363 . S
C1080 C1081 1.363 . S
C1080 C1085 1.379 . S
C1080 N1087 1.356 . S
C1081 C1080 1.363 . S
C1081 C1084 1.363 . S
N1082 C1084 1.356 . S
N1082 H1094 0.984 . S
N1082 H1095 0.985 . S
N1083 C1085 1.356 . S
N1083 H1088 0.984 . S
N1083 H1089 0.985 . S
C1084 C1078 1.379 . S
C1084 C1081 1.363 . S
C1084 N1082 1.356 . S
C1085 C1079 1.363 . S
C1085 C1080 1.379 . S
C1085 N1083 1.356 . S
N1086 C1078 1.356 . S
N1086 H1092 0.984 . S
N1086 H1093 0.984 . S
N1087 C1080 1.356 . S
N1087 H1090 0.984 . S
N1087 H1091 0.985 . S
H1088 N1083 0.984 . S
H1089 N1083 0.985 . S
H1090 N1087 0.984 . S
H1091 N1087 0.985 . S
H1092 N1086 0.984 . S
H1093 N1086 0.984 . S
H1094 N1082 0.984 . S
H1095 N1082 0.985 . S
C1096 C1097 1.363 . S
C1096 C1102 1.379 1_554 S
C1096 N1104 1.356 . S
C1097 C1096 1.363 . S
C1097 C1103 1.363 . S
C1098 C1099 1.363 . S
C1098 C1103 1.379 1_556 S
C1098 N1105 1.356 . S
C1099 C1098 1.363 . S
C1099 C1102 1.363 . S
N1100 C1102 1.356 . S
N1100 H1112 0.984 . S
N1100 H1113 0.985 . S
N1101 C1103 1.356 . S
N1101 H1106 0.984 . S
N1101 H1107 0.985 . S
C1102 C1096 1.379 1_556 S
C1102 C1099 1.363 . S
C1102 N1100 1.356 . S
C1103 C1097 1.363 . S
C1103 C1098 1.379 1_554 S
C1103 N1101 1.356 . S
N1104 C1096 1.356 . S
N1104 H1110 0.984 . S
N1104 H1111 0.984 . S
N1105 C1098 1.356 . S
N1105 H1108 0.984 . S
N1105 H1109 0.985 . S
H1106 N1101 0.984 . S
H1107 N1101 0.985 . S
H1108 N1105 0.984 . S
H1109 N1105 0.985 . S
H1110 N1104 0.984 . S
H1111 N1104 0.984 . S
H1112 N1100 0.984 . S
H1113 N1100 0.985 . S
C1114 C1115 1.363 . S
C1114 C1120 1.379 . S
C1114 N1122 1.356 . S
C1115 C1114 1.363 . S
C1115 C1121 1.363 . S
C1116 C1117 1.363 . S
C1116 C1121 1.379 . S
C1116 N1123 1.356 . S
C1117 C1116 1.363 . S
C1117 C1120 1.363 . S
N1118 C1120 1.356 . S
N1118 H1130 0.984 . S
N1118 H1131 0.985 . S
N1119 C1121 1.356 . S
N1119 H1124 0.984 . S
N1119 H1125 0.985 . S
C1120 C1114 1.379 . S
C1120 C1117 1.363 . S
C1120 N1118 1.356 . S
C1121 C1115 1.363 . S
C1121 C1116 1.379 . S
C1121 N1119 1.356 . S
N1122 C1114 1.356 . S
N1122 H1128 0.984 . S
N1122 H1129 0.984 . S
N1123 C1116 1.356 . S
N1123 H1126 0.984 . S
N1123 H1127 0.985 . S
H1124 N1119 0.984 . S
H1125 N1119 0.985 . S
H1126 N1123 0.984 . S
H1127 N1123 0.985 . S
H1128 N1122 0.984 . S
H1129 N1122 0.984 . S
H1130 N1118 0.984 . S
H1131 N1118 0.985 . S
C1132 C1133 1.363 . S
C1132 C1138 1.379 . S
C1132 N1140 1.356 . S
C1133 C1132 1.363 . S
C1133 C1139 1.363 . S
C1134 C1135 1.363 . S
C1134 C1139 1.379 . S
C1134 N1141 1.356 . S
C1135 C1134 1.363 . S
C1135 C1138 1.363 . S
N1136 C1138 1.356 . S
N1136 H1148 0.984 . S
N1136 H1149 0.985 . S
N1137 C1139 1.356 . S
N1137 H1142 0.984 . S
N1137 H1143 0.985 . S
C1138 C1132 1.379 . S
C1138 C1135 1.363 . S
C1138 N1136 1.356 . S
C1139 C1133 1.363 . S
C1139 C1134 1.379 . S
C1139 N1137 1.356 . S
N1140 C1132 1.356 . S
N1140 H1146 0.984 . S
N1140 H1147 0.984 . S
N1141 C1134 1.356 . S
N1141 H1144 0.984 . S
N1141 H1145 0.985 . S
H1142 N1137 0.984 . S
H1143 N1137 0.985 . S
H1144 N1141 0.984 . S
H1145 N1141 0.985 . S
H1146 N1140 0.984 . S
H1147 N1140 0.984 . S
H1148 N1136 0.984 . S
H1149 N1136 0.985 . S
C1150 C1151 1.363 . S
C1150 C1156 1.379 . S
C1150 N1158 1.356 . S
C1151 C1150 1.363 . S
C1151 C1157 1.363 . S
C1152 C1153 1.363 . S
C1152 C1157 1.379 . S
C1152 N1159 1.356 . S
C1153 C1152 1.363 . S
C1153 C1156 1.363 . S
N1154 C1156 1.356 . S
N1154 H1166 0.984 . S
N1154 H1167 0.985 . S
N1155 C1157 1.356 . S
N1155 H1160 0.984 . S
N1155 H1161 0.985 . S
C1156 C1150 1.379 . S
C1156 C1153 1.363 . S
C1156 N1154 1.356 . S
C1157 C1151 1.363 . S
C1157 C1152 1.379 . S
C1157 N1155 1.356 . S
N1158 C1150 1.356 . S
N1158 H1164 0.984 . S
N1158 H1165 0.984 . S
N1159 C1152 1.356 . S
N1159 H1162 0.984 . S
N1159 H1163 0.985 . S
H1160 N1155 0.984 . S
H1161 N1155 0.985 . S
H1162 N1159 0.984 . S
H1163 N1159 0.985 . S
H1164 N1158 0.984 . S
H1165 N1158 0.984 . S
H1166 N1154 0.984 . S
H1167 N1154 0.985 . S
C1168 C1169 1.363 . S
C1168 C1174 1.379 1_545 S
C1168 N1176 1.356 . S
C1169 C1168 1.363 . S
C1169 C1175 1.363 . S
C1170 C1171 1.363 . S
C1170 C1175 1.379 1_565 S
C1170 N1177 1.356 . S
C1171 C1170 1.363 . S
C1171 C1174 1.363 . S
N1172 C1174 1.356 . S
N1172 H1184 0.984 . S
N1172 H1185 0.985 . S
N1173 C1175 1.356 . S
N1173 H1178 0.984 . S
N1173 H1179 0.985 . S
C1174 C1168 1.379 1_565 S
C1174 C1171 1.363 . S
C1174 N1172 1.356 . S
C1175 C1169 1.363 . S
C1175 C1170 1.379 1_545 S
C1175 N1173 1.356 . S
N1176 C1168 1.356 . S
N1176 H1182 0.984 . S
N1176 H1183 0.984 . S
N1177 C1170 1.356 . S
N1177 H1180 0.984 . S
N1177 H1181 0.985 . S
H1178 N1173 0.984 . S
H1179 N1173 0.985 . S
H1180 N1177 0.984 . S
H1181 N1177 0.985 . S
H1182 N1176 0.984 . S
H1183 N1176 0.984 . S
H1184 N1172 0.984 . S
H1185 N1172 0.985 . S
C1186 C1187 1.363 . S
C1186 C1192 1.379 . S
C1186 N1194 1.356 . S
C1187 C1186 1.363 . S
C1187 C1193 1.363 . S
C1188 C1189 1.363 . S
C1188 C1193 1.379 . S
C1188 N1195 1.356 . S
C1189 C1188 1.363 . S
C1189 C1192 1.363 . S
N1190 C1192 1.356 . S
N1190 H1202 0.984 . S
N1190 H1203 0.985 . S
N1191 C1193 1.356 . S
N1191 H1196 0.984 . S
N1191 H1197 0.985 . S
C1192 C1186 1.379 . S
C1192 C1189 1.363 . S
C1192 N1190 1.356 . S
C1193 C1187 1.363 . S
C1193 C1188 1.379 . S
C1193 N1191 1.356 . S
N1194 C1186 1.356 . S
N1194 H1200 0.984 . S
N1194 H1201 0.984 . S
N1195 C1188 1.356 . S
N1195 H1198 0.984 . S
N1195 H1199 0.985 . S
H1196 N1191 0.984 . S
H1197 N1191 0.985 . S
H1198 N1195 0.984 . S
H1199 N1195 0.985 . S
H1200 N1194 0.984 . S
H1201 N1194 0.984 . S
H1202 N1190 0.984 . S
H1203 N1190 0.985 . S
C1204 C1205 1.363 . S
C1204 C1210 1.379 1_565 S
C1204 N1212 1.356 . S
C1205 C1204 1.363 . S
C1205 C1211 1.363 1_554 S
C1206 C1207 1.363 . S
C1206 C1211 1.379 1_545 S
C1206 N1213 1.356 . S
C1207 C1206 1.363 . S
C1207 C1210 1.363 1_556 S
N1208 C1210 1.356 . S
N1208 H1220 0.984 . S
N1208 H1221 0.985 . S
N1209 C1211 1.356 . S
N1209 H1214 0.984 . S
N1209 H1215 0.985 . S
C1210 C1204 1.379 1_545 S
C1210 C1207 1.363 1_554 S
C1210 N1208 1.356 . S
C1211 C1205 1.363 1_556 S
C1211 C1206 1.379 1_565 S
C1211 N1209 1.356 . S
N1212 C1204 1.356 . S
N1212 H1218 0.984 . S
N1212 H1219 0.984 . S
N1213 C1206 1.356 . S
N1213 H1216 0.984 . S
N1213 H1217 0.985 . S
H1214 N1209 0.984 . S
H1215 N1209 0.985 . S
H1216 N1213 0.984 . S
H1217 N1213 0.985 . S
H1218 N1212 0.984 . S
H1219 N1212 0.984 . S
H1220 N1208 0.984 . S
H1221 N1208 0.985 . S
C1222 C1223 1.363 . S
C1222 C1228 1.379 . S
C1222 N1230 1.356 . S
C1223 C1222 1.363 . S
C1223 C1229 1.363 . S
C1224 C1225 1.363 . S
C1224 C1229 1.379 . S
C1224 N1231 1.356 . S
C1225 C1224 1.363 . S
C1225 C1228 1.363 . S
N1226 C1228 1.356 . S
N1226 H1238 0.984 . S
N1226 H1239 0.985 . S
N1227 C1229 1.356 . S
N1227 H1232 0.984 . S
N1227 H1233 0.985 . S
C1228 C1222 1.379 . S
C1228 C1225 1.363 . S
C1228 N1226 1.356 . S
C1229 C1223 1.363 . S
C1229 C1224 1.379 . S
C1229 N1227 1.356 . S
N1230 C1222 1.356 . S
N1230 H1236 0.984 . S
N1230 H1237 0.984 . S
N1231 C1224 1.356 . S
N1231 H1234 0.984 . S
N1231 H1235 0.985 . S
H1232 N1227 0.984 . S
H1233 N1227 0.985 . S
H1234 N1231 0.984 . S
H1235 N1231 0.985 . S
H1236 N1230 0.984 . S
H1237 N1230 0.984 . S
H1238 N1226 0.984 . S
H1239 N1226 0.985 . S
C1240 C1241 1.363 . S
C1240 C1246 1.379 1_545 S
C1240 N1248 1.356 . S
C1241 C1240 1.363 . S
C1241 C1247 1.363 . S
C1242 C1243 1.363 . S
C1242 C1247 1.379 1_565 S
C1242 N1249 1.356 . S
C1243 C1242 1.363 . S
C1243 C1246 1.363 . S
N1244 C1246 1.356 . S
N1244 H1256 0.984 . S
N1244 H1257 0.985 . S
N1245 C1247 1.356 . S
N1245 H1250 0.984 . S
N1245 H1251 0.985 . S
C1246 C1240 1.379 1_565 S
C1246 C1243 1.363 . S
C1246 N1244 1.356 . S
C1247 C1241 1.363 . S
C1247 C1242 1.379 1_545 S
C1247 N1245 1.356 . S
N1248 C1240 1.356 . S
N1248 H1254 0.984 . S
N1248 H1255 0.984 . S
N1249 C1242 1.356 . S
N1249 H1252 0.984 . S
N1249 H1253 0.985 . S
H1250 N1245 0.984 . S
H1251 N1245 0.985 . S
H1252 N1249 0.984 . S
H1253 N1249 0.985 . S
H1254 N1248 0.984 . S
H1255 N1248 0.984 . S
H1256 N1244 0.984 . S
H1257 N1244 0.985 . S
C1258 C1259 1.363 . S
C1258 C1264 1.379 . S
C1258 N1266 1.356 . S
C1259 C1258 1.363 . S
C1259 C1265 1.363 . S
C1260 C1261 1.363 . S
C1260 C1265 1.379 . S
C1260 N1267 1.356 . S
C1261 C1260 1.363 . S
C1261 C1264 1.363 . S
N1262 C1264 1.356 . S
N1262 H1274 0.984 . S
N1262 H1275 0.985 . S
N1263 C1265 1.356 . S
N1263 H1268 0.984 . S
N1263 H1269 0.985 . S
C1264 C1258 1.379 . S
C1264 C1261 1.363 . S
C1264 N1262 1.356 . S
C1265 C1259 1.363 . S
C1265 C1260 1.379 . S
C1265 N1263 1.356 . S
N1266 C1258 1.356 . S
N1266 H1272 0.984 . S
N1266 H1273 0.984 . S
N1267 C1260 1.356 . S
N1267 H1270 0.984 . S
N1267 H1271 0.985 . S
H1268 N1263 0.984 . S
H1269 N1263 0.985 . S
H1270 N1267 0.984 . S
H1271 N1267 0.985 . S
H1272 N1266 0.984 . S
H1273 N1266 0.984 . S
H1274 N1262 0.984 . S
H1275 N1262 0.985 . S
C1276 C1277 1.363 . S
C1276 C1282 1.379 1_565 S
C1276 N1284 1.356 . S
C1277 C1276 1.363 . S
C1277 C1283 1.363 1_554 S
C1278 C1279 1.363 . S
C1278 C1283 1.379 1_545 S
C1278 N1285 1.356 . S
C1279 C1278 1.363 . S
C1279 C1282 1.363 1_556 S
N1280 C1282 1.356 . S
N1280 H1292 0.984 . S
N1280 H1293 0.985 . S
N1281 C1283 1.356 . S
N1281 H1286 0.984 . S
N1281 H1287 0.985 . S
C1282 C1276 1.379 1_545 S
C1282 C1279 1.363 1_554 S
C1282 N1280 1.356 . S
C1283 C1277 1.363 1_556 S
C1283 C1278 1.379 1_565 S
C1283 N1281 1.356 . S
N1284 C1276 1.356 . S
N1284 H1290 0.984 . S
N1284 H1291 0.984 . S
N1285 C1278 1.356 . S
N1285 H1288 0.984 . S
N1285 H1289 0.985 . S
H1286 N1281 0.984 . S
H1287 N1281 0.985 . S
H1288 N1285 0.984 . S
H1289 N1285 0.985 . S
H1290 N1284 0.984 . S
H1291 N1284 0.984 . S
H1292 N1280 0.984 . S
H1293 N1280 0.985 . S
C1294 C1295 1.363 . S
C1294 C1300 1.379 . S
C1294 N1302 1.356 . S
C1295 C1294 1.363 . S
C1295 C1301 1.363 . S
C1296 C1297 1.363 . S
C1296 C1301 1.379 . S
C1296 N1303 1.356 . S
C1297 C1296 1.363 . S
C1297 C1300 1.363 . S
N1298 C1300 1.356 . S
N1298 H1310 0.984 . S
N1298 H1311 0.985 . S
N1299 C1301 1.356 . S
N1299 H1304 0.984 . S
N1299 H1305 0.985 . S
C1300 C1294 1.379 . S
C1300 C1297 1.363 . S
C1300 N1298 1.356 . S
C1301 C1295 1.363 . S
C1301 C1296 1.379 . S
C1301 N1299 1.356 . S
N1302 C1294 1.356 . S
N1302 H1308 0.984 . S
N1302 H1309 0.984 . S
N1303 C1296 1.356 . S
N1303 H1306 0.984 . S
N1303 H1307 0.985 . S
H1304 N1299 0.984 . S
H1305 N1299 0.985 . S
H1306 N1303 0.984 . S
H1307 N1303 0.985 . S
H1308 N1302 0.984 . S
H1309 N1302 0.984 . S
H1310 N1298 0.984 . S
H1311 N1298 0.985 . S
C1312 C1313 1.363 . S
C1312 C1318 1.379 . S
C1312 N1320 1.356 . S
C1313 C1312 1.363 . S
C1313 C1319 1.363 . S
C1314 C1315 1.363 . S
C1314 C1319 1.379 . S
C1314 N1321 1.356 . S
C1315 C1314 1.363 . S
C1315 C1318 1.363 . S
N1316 C1318 1.356 . S
N1316 H1328 0.984 1_554 S
N1316 H1329 0.985 . S
N1317 C1319 1.356 . S
N1317 H1322 0.984 . S
N1317 H1323 0.985 . S
C1318 C1312 1.379 . S
C1318 C1315 1.363 . S
C1318 N1316 1.356 . S
C1319 C1313 1.363 . S
C1319 C1314 1.379 . S
C1319 N1317 1.356 . S
N1320 C1312 1.356 . S
N1320 H1326 0.984 1_554 S
N1320 H1327 0.984 . S
N1321 C1314 1.356 . S
N1321 H1324 0.984 . S
N1321 H1325 0.985 . S
H1322 N1317 0.984 . S
H1323 N1317 0.985 . S
H1324 N1321 0.984 . S
H1325 N1321 0.985 . S
H1326 N1320 0.984 1_556 S
H1327 N1320 0.984 . S
H1328 N1316 0.984 1_556 S
H1329 N1316 0.985 . S
C1330 C1331 1.363 . S
C1330 C1336 1.379 . S
C1330 N1338 1.356 . S
C1331 C1330 1.363 . S
C1331 C1337 1.363 . S
C1332 C1333 1.363 . S
C1332 C1337 1.379 . S
C1332 N1339 1.356 . S
C1333 C1332 1.363 . S
C1333 C1336 1.363 . S
N1334 C1336 1.356 . S
N1334 H1346 0.984 . S
N1334 H1347 0.985 . S
N1335 C1337 1.356 . S
N1335 H1340 0.984 . S
N1335 H1341 0.985 . S
C1336 C1330 1.379 . S
C1336 C1333 1.363 . S
C1336 N1334 1.356 . S
C1337 C1331 1.363 . S
C1337 C1332 1.379 . S
C1337 N1335 1.356 . S
N1338 C1330 1.356 . S
N1338 H1344 0.984 . S
N1338 H1345 0.984 . S
N1339 C1332 1.356 . S
N1339 H1342 0.984 . S
N1339 H1343 0.985 . S
H1340 N1335 0.984 . S
H1341 N1335 0.985 . S
H1342 N1339 0.984 . S
H1343 N1339 0.985 . S
H1344 N1338 0.984 . S
H1345 N1338 0.984 . S
H1346 N1334 0.984 . S
H1347 N1334 0.985 . S
C1348 C1349 1.363 . S
C1348 C1354 1.379 . S
C1348 N1356 1.356 . S
C1349 C1348 1.363 . S
C1349 C1355 1.363 . S
C1350 C1351 1.363 . S
C1350 C1355 1.379 . S
C1350 N1357 1.356 . S
C1351 C1350 1.363 . S
C1351 C1354 1.363 . S
N1352 C1354 1.356 . S
N1352 H1364 0.984 . S
N1352 H1365 0.985 . S
N1353 C1355 1.356 . S
N1353 H1358 0.984 . S
N1353 H1359 0.985 . S
C1354 C1348 1.379 . S
C1354 C1351 1.363 . S
C1354 N1352 1.356 . S
C1355 C1349 1.363 . S
C1355 C1350 1.379 . S
C1355 N1353 1.356 . S
N1356 C1348 1.356 . S
N1356 H1362 0.984 . S
N1356 H1363 0.984 . S
N1357 C1350 1.356 . S
N1357 H1360 0.984 . S
N1357 H1361 0.985 . S
H1358 N1353 0.984 . S
H1359 N1353 0.985 . S
H1360 N1357 0.984 . S
H1361 N1357 0.985 . S
H1362 N1356 0.984 . S
H1363 N1356 0.984 . S
H1364 N1352 0.984 . S
H1365 N1352 0.985 . S
C1366 C1367 1.363 . S
C1366 C1372 1.379 1_655 S
C1366 N1374 1.356 . S
C1367 C1366 1.363 . S
C1367 C1373 1.363 . S
C1368 C1369 1.363 . S
C1368 C1373 1.379 1_455 S
C1368 N1375 1.356 . S
C1369 C1368 1.363 . S
C1369 C1372 1.363 . S
N1370 C1372 1.356 . S
N1370 H1382 0.984 . S
N1370 H1383 0.985 . S
N1371 C1373 1.356 . S
N1371 H1376 0.984 . S
N1371 H1377 0.985 . S
C1372 C1366 1.379 1_455 S
C1372 C1369 1.363 . S
C1372 N1370 1.356 . S
C1373 C1367 1.363 . S
C1373 C1368 1.379 1_655 S
C1373 N1371 1.356 . S
N1374 C1366 1.356 . S
N1374 H1380 0.984 . S
N1374 H1381 0.984 . S
N1375 C1368 1.356 . S
N1375 H1378 0.984 . S
N1375 H1379 0.985 . S
H1376 N1371 0.984 . S
H1377 N1371 0.985 . S
H1378 N1375 0.984 . S
H1379 N1375 0.985 . S
H1380 N1374 0.984 . S
H1381 N1374 0.984 . S
H1382 N1370 0.984 . S
H1383 N1370 0.985 . S
C1384 C1385 1.363 . S
C1384 C1390 1.379 . S
C1384 N1392 1.356 . S
C1385 C1384 1.363 . S
C1385 C1391 1.363 . S
C1386 C1387 1.363 . S
C1386 C1391 1.379 . S
C1386 N1393 1.356 . S
C1387 C1386 1.363 . S
C1387 C1390 1.363 . S
N1388 C1390 1.356 . S
N1388 H1400 0.984 . S
N1388 H1401 0.985 . S
N1389 C1391 1.356 . S
N1389 H1394 0.984 . S
N1389 H1395 0.985 1_556 S
C1390 C1384 1.379 . S
C1390 C1387 1.363 . S
C1390 N1388 1.356 . S
C1391 C1385 1.363 . S
C1391 C1386 1.379 . S
C1391 N1389 1.356 . S
N1392 C1384 1.356 . S
N1392 H1398 0.984 . S
N1392 H1399 0.984 . S
N1393 C1386 1.356 . S
N1393 H1396 0.984 . S
N1393 H1397 0.985 1_556 S
H1394 N1389 0.984 . S
H1395 N1389 0.985 1_554 S
H1396 N1393 0.984 . S
H1397 N1393 0.985 1_554 S
H1398 N1392 0.984 . S
H1399 N1392 0.984 . S
H1400 N1388 0.984 . S
H1401 N1388 0.985 . S
C1402 C1403 1.363 . S
C1402 C1408 1.379 1_655 S
C1402 N1410 1.356 . S
C1403 C1402 1.363 . S
C1403 C1409 1.363 . S
C1404 C1405 1.363 . S
C1404 C1409 1.379 1_455 S
C1404 N1411 1.356 . S
C1405 C1404 1.363 . S
C1405 C1408 1.363 . S
N1406 C1408 1.356 . S
N1406 H1418 0.984 . S
N1406 H1419 0.985 . S
N1407 C1409 1.356 . S
N1407 H1412 0.984 . S
N1407 H1413 0.985 . S
C1408 C1402 1.379 1_455 S
C1408 C1405 1.363 . S
C1408 N1406 1.356 . S
C1409 C1403 1.363 . S
C1409 C1404 1.379 1_655 S
C1409 N1407 1.356 . S
N1410 C1402 1.356 . S
N1410 H1416 0.984 . S
N1410 H1417 0.984 . S
N1411 C1404 1.356 . S
N1411 H1414 0.984 . S
N1411 H1415 0.985 . S
H1412 N1407 0.984 . S
H1413 N1407 0.985 . S
H1414 N1411 0.984 . S
H1415 N1411 0.985 . S
H1416 N1410 0.984 . S
H1417 N1410 0.984 . S
H1418 N1406 0.984 . S
H1419 N1406 0.985 . S
C1420 C1421 1.363 . S
C1420 C1426 1.379 . S
C1420 N1428 1.356 . S
C1421 C1420 1.363 . S
C1421 C1427 1.363 . S
C1422 C1423 1.363 . S
C1422 C1427 1.379 . S
C1422 N1429 1.356 . S
C1423 C1422 1.363 . S
C1423 C1426 1.363 . S
N1424 C1426 1.356 . S
N1424 H1436 0.984 . S
N1424 H1437 0.985 . S
N1425 C1427 1.356 . S
N1425 H1430 0.984 . S
N1425 H1431 0.985 . S
C1426 C1420 1.379 . S
C1426 C1423 1.363 . S
C1426 N1424 1.356 . S
C1427 C1421 1.363 . S
C1427 C1422 1.379 . S
C1427 N1425 1.356 . S
N1428 C1420 1.356 . S
N1428 H1434 0.984 . S
N1428 H1435 0.984 . S
N1429 C1422 1.356 . S
N1429 H1432 0.984 . S
N1429 H1433 0.985 . S
H1430 N1425 0.984 . S
H1431 N1425 0.985 . S
H1432 N1429 0.984 . S
H1433 N1429 0.985 . S
H1434 N1428 0.984 . S
H1435 N1428 0.984 . S
H1436 N1424 0.984 . S
H1437 N1424 0.985 . S
C1438 C1439 1.363 . S
C1438 C1444 1.379 . S
C1438 N1446 1.356 . S
C1439 C1438 1.363 . S
C1439 C1445 1.363 . S
C1440 C1441 1.363 . S
C1440 C1445 1.379 . S
C1440 N1447 1.356 . S
C1441 C1440 1.363 . S
C1441 C1444 1.363 . S
N1442 C1444 1.356 . S
N1442 H1454 0.984 . S
N1442 H1455 0.985 . S
N1443 C1445 1.356 . S
N1443 H1448 0.984 . S
N1443 H1449 0.985 . S
C1444 C1438 1.379 . S
C1444 C1441 1.363 . S
C1444 N1442 1.356 . S
C1445 C1439 1.363 . S
C1445 C1440 1.379 . S
C1445 N1443 1.356 . S
N1446 C1438 1.356 . S
N1446 H1452 0.984 . S
N1446 H1453 0.984 . S
N1447 C1440 1.356 . S
N1447 H1450 0.984 . S
N1447 H1451 0.985 . S
H1448 N1443 0.984 . S
H1449 N1443 0.985 . S
H1450 N1447 0.984 . S
H1451 N1447 0.985 . S
H1452 N1446 0.984 . S
H1453 N1446 0.984 . S
H1454 N1442 0.984 . S
H1455 N1442 0.985 . S
C1456 C1457 1.363 . S
C1456 C1462 1.379 . S
C1456 N1464 1.356 . S
C1457 C1456 1.363 . S
C1457 C1463 1.363 . S
C1458 C1459 1.363 . S
C1458 C1463 1.379 . S
C1458 N1465 1.356 . S
C1459 C1458 1.363 . S
C1459 C1462 1.363 . S
N1460 C1462 1.356 . S
N1460 H1472 0.984 1_556 S
N1460 H1473 0.985 . S
N1461 C1463 1.356 . S
N1461 H1466 0.984 . S
N1461 H1467 0.985 . S
C1462 C1456 1.379 . S
C1462 C1459 1.363 . S
C1462 N1460 1.356 . S
C1463 C1457 1.363 . S
C1463 C1458 1.379 . S
C1463 N1461 1.356 . S
N1464 C1456 1.356 . S
N1464 H1470 0.984 1_556 S
N1464 H1471 0.984 . S
N1465 C1458 1.356 . S
N1465 H1468 0.984 . S
N1465 H1469 0.985 . S
H1466 N1461 0.984 . S
H1467 N1461 0.985 . S
H1468 N1465 0.984 . S
H1469 N1465 0.985 . S
H1470 N1464 0.984 1_554 S
H1471 N1464 0.984 . S
H1472 N1460 0.984 1_554 S
H1473 N1460 0.985 . S
C1474 C1475 1.363 . S
C1474 C1480 1.379 . S
C1474 N1482 1.356 . S
C1475 C1474 1.363 . S
C1475 C1481 1.363 . S
C1476 C1477 1.363 . S
C1476 C1481 1.379 . S
C1476 N1483 1.356 . S
C1477 C1476 1.363 . S
C1477 C1480 1.363 . S
N1478 C1480 1.356 . S
N1478 H1490 0.984 . S
N1478 H1491 0.985 . S
N1479 C1481 1.356 . S
N1479 H1484 0.984 . S
N1479 H1485 0.985 . S
C1480 C1474 1.379 . S
C1480 C1477 1.363 . S
C1480 N1478 1.356 . S
C1481 C1475 1.363 . S
C1481 C1476 1.379 . S
C1481 N1479 1.356 . S
N1482 C1474 1.356 . S
N1482 H1488 0.984 . S
N1482 H1489 0.984 . S
N1483 C1476 1.356 . S
N1483 H1486 0.984 . S
N1483 H1487 0.985 . S
H1484 N1479 0.984 . S
H1485 N1479 0.985 . S
H1486 N1483 0.984 . S
H1487 N1483 0.985 . S
H1488 N1482 0.984 . S
H1489 N1482 0.984 . S
H1490 N1478 0.984 . S
H1491 N1478 0.985 . S
C1492 C1493 1.363 . S
C1492 C1498 1.379 . S
C1492 N1500 1.356 . S
C1493 C1492 1.363 . S
C1493 C1499 1.363 . S
C1494 C1495 1.363 . S
C1494 C1499 1.379 . S
C1494 N1501 1.356 . S
C1495 C1494 1.363 . S
C1495 C1498 1.363 . S
N1496 C1498 1.356 . S
N1496 H1508 0.984 1_554 S
N1496 H1509 0.985 . S
N1497 C1499 1.356 . S
N1497 H1502 0.984 . S
N1497 H1503 0.985 . S
C1498 C1492 1.379 . S
C1498 C1495 1.363 . S
C1498 N1496 1.356 . S
C1499 C1493 1.363 . S
C1499 C1494 1.379 . S
C1499 N1497 1.356 . S
N1500 C1492 1.356 . S
N1500 H1506 0.984 1_554 S
N1500 H1507 0.984 . S
N1501 C1494 1.356 . S
N1501 H1504 0.984 . S
N1501 H1505 0.985 . S
H1502 N1497 0.984 . S
H1503 N1497 0.985 . S
H1504 N1501 0.984 . S
H1505 N1501 0.985 . S
H1506 N1500 0.984 1_556 S
H1507 N1500 0.984 . S
H1508 N1496 0.984 1_556 S
H1509 N1496 0.985 . S
C1510 C1511 1.363 . S
C1510 C1516 1.379 . S
C1510 N1518 1.356 . S
C1511 C1510 1.363 . S
C1511 C1517 1.363 . S
C1512 C1513 1.363 . S
C1512 C1517 1.379 . S
C1512 N1519 1.356 . S
C1513 C1512 1.363 . S
C1513 C1516 1.363 . S
N1514 C1516 1.356 . S
N1514 H1526 0.984 . S
N1514 H1527 0.985 . S
N1515 C1517 1.356 . S
N1515 H1520 0.984 . S
N1515 H1521 0.985 . S
C1516 C1510 1.379 . S
C1516 C1513 1.363 . S
C1516 N1514 1.356 . S
C1517 C1511 1.363 . S
C1517 C1512 1.379 . S
C1517 N1515 1.356 . S
N1518 C1510 1.356 . S
N1518 H1524 0.984 . S
N1518 H1525 0.984 . S
N1519 C1512 1.356 . S
N1519 H1522 0.984 . S
N1519 H1523 0.985 . S
H1520 N1515 0.984 . S
H1521 N1515 0.985 . S
H1522 N1519 0.984 . S
H1523 N1519 0.985 . S
H1524 N1518 0.984 . S
H1525 N1518 0.984 . S
H1526 N1514 0.984 . S
H1527 N1514 0.985 . S
C1528 C1529 1.363 . S
C1528 C1534 1.379 1_655 S
C1528 N1536 1.356 . S
C1529 C1528 1.363 . S
C1529 C1535 1.363 . S
C1530 C1531 1.363 . S
C1530 C1535 1.379 1_455 S
C1530 N1537 1.356 . S
C1531 C1530 1.363 . S
C1531 C1534 1.363 . S
N1532 C1534 1.356 . S
N1532 H1544 0.984 . S
N1532 H1545 0.985 . S
N1533 C1535 1.356 . S
N1533 H1538 0.984 . S
N1533 H1539 0.985 . S
C1534 C1528 1.379 1_455 S
C1534 C1531 1.363 . S
C1534 N1532 1.356 . S
C1535 C1529 1.363 . S
C1535 C1530 1.379 1_655 S
C1535 N1533 1.356 . S
N1536 C1528 1.356 . S
N1536 H1542 0.984 . S
N1536 H1543 0.984 . S
N1537 C1530 1.356 . S
N1537 H1540 0.984 . S
N1537 H1541 0.985 . S
H1538 N1533 0.984 . S
H1539 N1533 0.985 . S
H1540 N1537 0.984 . S
H1541 N1537 0.985 . S
H1542 N1536 0.984 . S
H1543 N1536 0.984 . S
H1544 N1532 0.984 . S
H1545 N1532 0.985 . S
C1546 C1547 1.363 . S
C1546 C1552 1.379 . S
C1546 N1554 1.356 . S
C1547 C1546 1.363 . S
C1547 C1553 1.363 . S
C1548 C1549 1.363 . S
C1548 C1553 1.379 . S
C1548 N1555 1.356 . S
C1549 C1548 1.363 . S
C1549 C1552 1.363 . S
N1550 C1552 1.356 . S
N1550 H1562 0.984 . S
N1550 H1563 0.985 . S
N1551 C1553 1.356 . S
N1551 H1556 0.984 . S
N1551 H1557 0.985 . S
C1552 C1546 1.379 . S
C1552 C1549 1.363 . S
C1552 N1550 1.356 . S
C1553 C1547 1.363 . S
C1553 C1548 1.379 . S
C1553 N1551 1.356 . S
N1554 C1546 1.356 . S
N1554 H1560 0.984 . S
N1554 H1561 0.984 . S
N1555 C1548 1.356 . S
N1555 H1558 0.984 . S
N1555 H1559 0.985 . S
H1556 N1551 0.984 . S
H1557 N1551 0.985 . S
H1558 N1555 0.984 . S
H1559 N1555 0.985 . S
H1560 N1554 0.984 . S
H1561 N1554 0.984 . S
H1562 N1550 0.984 . S
H1563 N1550 0.985 . S
C1564 C1565 1.363 . S
C1564 C1570 1.379 . S
C1564 N1572 1.356 . S
C1565 C1564 1.363 . S
C1565 C1571 1.363 . S
C1566 C1567 1.363 . S
C1566 C1571 1.379 . S
C1566 N1573 1.356 . S
C1567 C1566 1.363 . S
C1567 C1570 1.363 . S
N1568 C1570 1.356 . S
N1568 H1580 0.984 . S
N1568 H1581 0.985 . S
N1569 C1571 1.356 . S
N1569 H1574 0.984 . S
N1569 H1575 0.985 . S
C1570 C1564 1.379 . S
C1570 C1567 1.363 . S
C1570 N1568 1.356 . S
C1571 C1565 1.363 . S
C1571 C1566 1.379 . S
C1571 N1569 1.356 . S
N1572 C1564 1.356 . S
N1572 H1578 0.984 . S
N1572 H1579 0.984 . S
N1573 C1566 1.356 . S
N1573 H1576 0.984 . S
N1573 H1577 0.985 . S
H1574 N1569 0.984 . S
H1575 N1569 0.985 . S
H1576 N1573 0.984 . S
H1577 N1573 0.985 . S
H1578 N1572 0.984 . S
H1579 N1572 0.984 . S
H1580 N1568 0.984 . S
H1581 N1568 0.985 . S
C1582 C1583 1.363 . S
C1582 C1588 1.379 1_655 S
C1582 N1590 1.356 . S
C1583 C1582 1.363 . S
C1583 C1589 1.363 . S
C1584 C1585 1.363 . S
C1584 C1589 1.379 1_455 S
C1584 N1591 1.356 . S
C1585 C1584 1.363 . S
C1585 C1588 1.363 . S
N1586 C1588 1.356 . S
N1586 H1598 0.984 . S
N1586 H1599 0.985 . S
N1587 C1589 1.356 . S
N1587 H1592 0.984 . S
N1587 H1593 0.985 . S
C1588 C1582 1.379 1_455 S
C1588 C1585 1.363 . S
C1588 N1586 1.356 . S
C1589 C1583 1.363 . S
C1589 C1584 1.379 1_655 S
C1589 N1587 1.356 . S
N1590 C1582 1.356 . S
N1590 H1596 0.984 . S
N1590 H1597 0.984 . S
N1591 C1584 1.356 . S
N1591 H1594 0.984 . S
N1591 H1595 0.985 . S
H1592 N1587 0.984 . S
H1593 N1587 0.985 . S
H1594 N1591 0.984 . S
H1595 N1591 0.985 . S
H1596 N1590 0.984 . S
H1597 N1590 0.984 . S
H1598 N1586 0.984 . S
H1599 N1586 0.985 . S
C449 C328 1.776 . S
C451 C7 1.776 . S
C467 C287 1.776 . S
C469 C20 1.776 . S
C485 C300 1.776 . S
C487 C35 1.776 . S
C503 C315 1.776 . S
C505 C48 1.776 . S
C521 C63 1.776 . S
C523 C244 1.776 . S
C539 C259 1.776 . S
C541 C76 1.776 . S
C557 C91 1.776 . S
C559 C272 1.776 . S
C575 C104 1.776 . S
C577 C231 1.776 . S
C593 C441 1.776 . S
C595 C119 1.776 . S
C611 C133 1.776 . S
C613 C399 1.776 . S
C629 C147 1.776 . S
C631 C413 1.776 . S
C647 C161 1.776 . S
C649 C427 1.776 . S
C665 C175 1.776 . S
C667 C357 1.776 . S
C683 C189 1.776 . S
C685 C371 1.776 . S
C701 C203 1.776 . S
C703 C385 1.776 . S
C719 C217 1.776 . S
C721 C343 1.776 . S
C737 C8 1.409 . S
C739 C176 1.409 . S
C755 C414 1.409 . S
C757 C23 1.409 . S
C773 C36 1.409 . S
C775 C204 1.409 . S
C791 C442 1.409 . S
C793 C51 1.409 . S
C809 C120 1.409 . S
C811 C64 1.409 . S
C827 C79 1.409 . S
C829 C358 1.409 . S
C845 C92 1.409 . S
C847 C148 1.409 . S
C863 C107 1.409 . S
C865 C386 1.409 . S
C881 C303 1.409 . S
C883 C134 1.409 . S
C899 C331 1.409 . S
C901 C162 1.409 . S
C917 C190 1.409 . S
C919 C247 1.409 . S
C935 C275 1.409 . S
C937 C218 1.409 . S
C953 C400 1.409 . S
C955 C232 1.409 . S
C971 C260 1.409 . S
C973 C428 1.409 . S
C989 C344 1.409 . S
C991 C288 1.409 . S
C1007 C372 1.409 . S
C1009 C316 1.409 . S
C1025 C62 1.403 . S
C1027 C6 1.403 . S
C1043 C77 1.403 . S
C1045 C21 1.403 . S
C1061 C34 1.403 . S
C1063 C90 1.403 . S
C1079 C49 1.403 . S
C1081 C105 1.403 . S
C1097 C174 1.403 . S
C1099 C118 1.403 . S
C1115 C188 1.403 . S
C1117 C132 1.403 . S
C1133 C202 1.403 . S
C1135 C146 1.403 . S
C1151 C160 1.403 . S
C1153 C216 1.403 . S
C1169 C230 1.403 . S
C1171 C286 1.403 . S
C1187 C245 1.403 . S
C1189 C301 1.403 . S
C1205 C258 1.403 . S
C1207 C314 1.403 . S
C1223 C273 1.403 . S
C1225 C329 1.403 . S
C1241 C398 1.403 . S
C1243 C342 1.403 . S
C1259 C412 1.403 . S
C1261 C356 1.403 . S
C1277 C426 1.403 . S
C1279 C370 1.403 . S
C1295 C440 1.403 . S
C1297 C384 1.403 . S
C1313 C429 1.596 . S
C1315 C9 1.596 . S
C1331 C22 1.596 . S
C1333 C219 1.596 . S
C1349 C401 1.596 . S
C1351 C37 1.596 . S
C1367 C50 1.596 . S
C1369 C191 1.596 . S
C1385 C373 1.596 . S
C1387 C65 1.596 . S
C1403 C78 1.596 . S
C1405 C163 1.596 . S
C1421 C93 1.596 . S
C1423 C345 1.596 . S
C1439 C135 1.596 . S
C1441 C106 1.596 . S
C1457 C121 1.596 . S
C1459 C317 1.596 . S
C1475 C289 1.596 . S
C1477 C149 1.596 . S
C1493 C177 1.596 . S
C1495 C261 1.596 . S
C1511 C205 1.596 . S
C1513 C233 1.596 . S
C1529 C443 1.596 . S
C1531 C246 1.596 . S
C1547 C274 1.596 . S
C1549 C415 1.596 . S
C1565 C302 1.596 . S
C1567 C387 1.596 . S
C1583 C359 1.596 . S
C1585 C330 1.596 . S
