# Generated by pormake.
# Topology lcs-e, (6)-cn, num edge types: 1
# Building blocks:
#     Node 0, Type 0, BuildingBlock: BETDEL_clean_sbu_0, # of connection points: 6
#     Node 1, Type 0, BuildingBlock: BETDEL_clean_sbu_0, # of connection points: 6
#     Node 2, Type 0, BuildingBlock: BETDEL_clean_sbu_0, # of connection points: 6
#     Node 3, Type 0, BuildingBlock: BETDEL_clean_sbu_0, # of connection points: 6
#     Node 4, Type 0, BuildingBlock: BETDEL_clean_sbu_0, # of connection points: 6
#     Node 5, Type 0, BuildingBlock: BETDEL_clean_sbu_0, # of connection points: 6
#     Node 6, Type 0, BuildingBlock: BETDEL_clean_sbu_0, # of connection points: 6
#     Node 7, Type 0, BuildingBlock: BETDEL_clean_sbu_0, # of connection points: 6
#     Node 8, Type 0, BuildingBlock: BETDEL_clean_sbu_0, # of connection points: 6
#     Node 9, Type 0, BuildingBlock: BETDEL_clean_sbu_0, # of connection points: 6
#     Node 10, Type 0, BuildingBlock: BETDEL_clean_sbu_0, # of connection points: 6
#     Node 11, Type 0, BuildingBlock: BETDEL_clean_sbu_0, # of connection points: 6
#     Node 12, Type 0, BuildingBlock: BETDEL_clean_sbu_0, # of connection points: 6
#     Node 13, Type 0, BuildingBlock: BETDEL_clean_sbu_0, # of connection points: 6
#     Node 14, Type 0, BuildingBlock: BETDEL_clean_sbu_0, # of connection points: 6
#     Node 15, Type 0, BuildingBlock: BETDEL_clean_sbu_0, # of connection points: 6
#     Node 16, Type 0, BuildingBlock: BETDEL_clean_sbu_0, # of connection points: 6
#     Node 17, Type 0, BuildingBlock: BETDEL_clean_sbu_0, # of connection points: 6
#     Node 18, Type 0, BuildingBlock: BETDEL_clean_sbu_0, # of connection points: 6
#     Node 19, Type 0, BuildingBlock: BETDEL_clean_sbu_0, # of connection points: 6
#     Node 20, Type 0, BuildingBlock: BETDEL_clean_sbu_0, # of connection points: 6
#     Node 21, Type 0, BuildingBlock: BETDEL_clean_sbu_0, # of connection points: 6
#     Node 22, Type 0, BuildingBlock: BETDEL_clean_sbu_0, # of connection points: 6
#     Node 23, Type 0, BuildingBlock: BETDEL_clean_sbu_0, # of connection points: 6
#     Node 24, Type 0, BuildingBlock: BETDEL_clean_sbu_0, # of connection points: 6
#     Node 25, Type 0, BuildingBlock: BETDEL_clean_sbu_0, # of connection points: 6
#     Node 26, Type 0, BuildingBlock: BETDEL_clean_sbu_0, # of connection points: 6
#     Node 27, Type 0, BuildingBlock: BETDEL_clean_sbu_0, # of connection points: 6
#     Node 28, Type 0, BuildingBlock: BETDEL_clean_sbu_0, # of connection points: 6
#     Node 29, Type 0, BuildingBlock: BETDEL_clean_sbu_0, # of connection points: 6
#     Node 30, Type 0, BuildingBlock: BETDEL_clean_sbu_0, # of connection points: 6
#     Node 31, Type 0, BuildingBlock: BETDEL_clean_sbu_0, # of connection points: 6
#     Node 32, Type 0, BuildingBlock: BETDEL_clean_sbu_0, # of connection points: 6
#     Node 33, Type 0, BuildingBlock: BETDEL_clean_sbu_0, # of connection points: 6
#     Node 34, Type 0, BuildingBlock: BETDEL_clean_sbu_0, # of connection points: 6
#     Node 35, Type 0, BuildingBlock: BETDEL_clean_sbu_0, # of connection points: 6
#     Node 36, Type 0, BuildingBlock: BETDEL_clean_sbu_0, # of connection points: 6
#     Node 37, Type 0, BuildingBlock: BETDEL_clean_sbu_0, # of connection points: 6
#     Node 38, Type 0, BuildingBlock: BETDEL_clean_sbu_0, # of connection points: 6
#     Node 39, Type 0, BuildingBlock: BETDEL_clean_sbu_0, # of connection points: 6
#     Node 40, Type 0, BuildingBlock: BETDEL_clean_sbu_0, # of connection points: 6
#     Node 41, Type 0, BuildingBlock: BETDEL_clean_sbu_0, # of connection points: 6
#     Node 42, Type 0, BuildingBlock: BETDEL_clean_sbu_0, # of connection points: 6
#     Node 43, Type 0, BuildingBlock: BETDEL_clean_sbu_0, # of connection points: 6
#     Node 44, Type 0, BuildingBlock: BETDEL_clean_sbu_0, # of connection points: 6
#     Node 45, Type 0, BuildingBlock: BETDEL_clean_sbu_0, # of connection points: 6
#     Node 46, Type 0, BuildingBlock: BETDEL_clean_sbu_0, # of connection points: 6
#     Node 47, Type 0, BuildingBlock: BETDEL_clean_sbu_0, # of connection points: 6
#     Edge 48, Type (0, 0), None
#     Edge 49, Type (0, 0), None
#     Edge 50, Type (0, 0), None
#     Edge 51, Type (0, 0), None
#     Edge 52, Type (0, 0), None
#     Edge 53, Type (0, 0), None
#     Edge 54, Type (0, 0), None
#     Edge 55, Type (0, 0), None
#     Edge 56, Type (0, 0), None
#     Edge 57, Type (0, 0), None
#     Edge 58, Type (0, 0), None
#     Edge 59, Type (0, 0), None
#     Edge 60, Type (0, 0), None
#     Edge 61, Type (0, 0), None
#     Edge 62, Type (0, 0), None
#     Edge 63, Type (0, 0), None
#     Edge 64, Type (0, 0), None
#     Edge 65, Type (0, 0), None
#     Edge 66, Type (0, 0), None
#     Edge 67, Type (0, 0), None
#     Edge 68, Type (0, 0), None
#     Edge 69, Type (0, 0), None
#     Edge 70, Type (0, 0), None
#     Edge 71, Type (0, 0), None
#     Edge 72, Type (0, 0), None
#     Edge 73, Type (0, 0), None
#     Edge 74, Type (0, 0), None
#     Edge 75, Type (0, 0), None
#     Edge 76, Type (0, 0), None
#     Edge 77, Type (0, 0), None
#     Edge 78, Type (0, 0), None
#     Edge 79, Type (0, 0), None
#     Edge 80, Type (0, 0), None
#     Edge 81, Type (0, 0), None
#     Edge 82, Type (0, 0), None
#     Edge 83, Type (0, 0), None
#     Edge 84, Type (0, 0), None
#     Edge 85, Type (0, 0), None
#     Edge 86, Type (0, 0), None
#     Edge 87, Type (0, 0), None
#     Edge 88, Type (0, 0), None
#     Edge 89, Type (0, 0), None
#     Edge 90, Type (0, 0), None
#     Edge 91, Type (0, 0), None
#     Edge 92, Type (0, 0), None
#     Edge 93, Type (0, 0), None
#     Edge 94, Type (0, 0), None
#     Edge 95, Type (0, 0), None
#     Edge 96, Type (0, 0), None
#     Edge 97, Type (0, 0), None
#     Edge 98, Type (0, 0), None
#     Edge 99, Type (0, 0), None
#     Edge 100, Type (0, 0), None
#     Edge 101, Type (0, 0), None
#     Edge 102, Type (0, 0), None
#     Edge 103, Type (0, 0), None
#     Edge 104, Type (0, 0), None
#     Edge 105, Type (0, 0), None
#     Edge 106, Type (0, 0), None
#     Edge 107, Type (0, 0), None
#     Edge 108, Type (0, 0), None
#     Edge 109, Type (0, 0), None
#     Edge 110, Type (0, 0), None
#     Edge 111, Type (0, 0), None
#     Edge 112, Type (0, 0), None
#     Edge 113, Type (0, 0), None
#     Edge 114, Type (0, 0), None
#     Edge 115, Type (0, 0), None
#     Edge 116, Type (0, 0), None
#     Edge 117, Type (0, 0), None
#     Edge 118, Type (0, 0), None
#     Edge 119, Type (0, 0), None
#     Edge 120, Type (0, 0), None
#     Edge 121, Type (0, 0), None
#     Edge 122, Type (0, 0), None
#     Edge 123, Type (0, 0), None
#     Edge 124, Type (0, 0), None
#     Edge 125, Type (0, 0), None
#     Edge 126, Type (0, 0), None
#     Edge 127, Type (0, 0), None
#     Edge 128, Type (0, 0), None
#     Edge 129, Type (0, 0), None
#     Edge 130, Type (0, 0), None
#     Edge 131, Type (0, 0), None
#     Edge 132, Type (0, 0), None
#     Edge 133, Type (0, 0), None
#     Edge 134, Type (0, 0), None
#     Edge 135, Type (0, 0), None
#     Edge 136, Type (0, 0), None
#     Edge 137, Type (0, 0), None
#     Edge 138, Type (0, 0), None
#     Edge 139, Type (0, 0), None
#     Edge 140, Type (0, 0), None
#     Edge 141, Type (0, 0), None
#     Edge 142, Type (0, 0), None
#     Edge 143, Type (0, 0), None
#     Edge 144, Type (0, 0), None
#     Edge 145, Type (0, 0), None
#     Edge 146, Type (0, 0), None
#     Edge 147, Type (0, 0), None
#     Edge 148, Type (0, 0), None
#     Edge 149, Type (0, 0), None
#     Edge 150, Type (0, 0), None
#     Edge 151, Type (0, 0), None
#     Edge 152, Type (0, 0), None
#     Edge 153, Type (0, 0), None
#     Edge 154, Type (0, 0), None
#     Edge 155, Type (0, 0), None
#     Edge 156, Type (0, 0), None
#     Edge 157, Type (0, 0), None
#     Edge 158, Type (0, 0), None
#     Edge 159, Type (0, 0), None
#     Edge 160, Type (0, 0), None
#     Edge 161, Type (0, 0), None
#     Edge 162, Type (0, 0), None
#     Edge 163, Type (0, 0), None
#     Edge 164, Type (0, 0), None
#     Edge 165, Type (0, 0), None
#     Edge 166, Type (0, 0), None
#     Edge 167, Type (0, 0), None
#     Edge 168, Type (0, 0), None
#     Edge 169, Type (0, 0), None
#     Edge 170, Type (0, 0), None
#     Edge 171, Type (0, 0), None
#     Edge 172, Type (0, 0), None
#     Edge 173, Type (0, 0), None
#     Edge 174, Type (0, 0), None
#     Edge 175, Type (0, 0), None
#     Edge 176, Type (0, 0), None
#     Edge 177, Type (0, 0), None
#     Edge 178, Type (0, 0), None
#     Edge 179, Type (0, 0), None
#     Edge 180, Type (0, 0), None
#     Edge 181, Type (0, 0), None
#     Edge 182, Type (0, 0), None
#     Edge 183, Type (0, 0), None
#     Edge 184, Type (0, 0), None
#     Edge 185, Type (0, 0), None
#     Edge 186, Type (0, 0), None
#     Edge 187, Type (0, 0), None
#     Edge 188, Type (0, 0), None
#     Edge 189, Type (0, 0), None
#     Edge 190, Type (0, 0), None
#     Edge 191, Type (0, 0), None
# Relax obj value: 0.484
# Max RMSD: 0.322
# Mean RMSD: 0.289
data_MOF--net-lcs-e--node1-BETDEL_clean_sbu_0--edge1-none
_symmetry_space_group_name_H-M    P1
_symmetry_Int_Tables_number       1
_symmetry_cell_setting            triclinic
loop_
_symmetry_equiv_pos_as_xyz
'x, y, z'
_cell_length_a     27.16372
_cell_length_b     28.149596
_cell_length_c     26.921071
_cell_angle_alpha  87.904134
_cell_angle_beta   89.07051
_cell_angle_gamma 87.574803
loop_
_atom_site_label
_atom_site_type_symbol
_atom_site_fract_x
_atom_site_fract_y
_atom_site_fract_z
_atom_type_partial_charge
Dy0 Dy 0.99849 0.3717 0.243 0.0
C1 C 0.07012 0.49128 0.39524 0.0
C2 C 1.0039 0.2694 0.22081 0.0
Dy3 Dy 0.02977 0.43619 0.33479 0.0
O4 O 0.97318 0.30304 0.20105 0.0
O5 O 0.03002 0.29347 0.25046 0.0
O6 O 0.9766 0.44765 0.20458 0.0
O7 O 0.97693 0.44264 0.27883 0.0
C8 C 0.97353 0.4744 0.24446 0.0
C9 C 0.06149 0.34718 0.33373 0.0
O10 O 0.9548 0.41989 0.35234 0.0
O11 O 0.95651 0.34864 0.31314 0.0
O12 O 0.04177 0.45783 0.41038 0.0
O13 O 0.06283 0.50335 0.34869 0.0
O14 O 0.05477 0.36943 0.37489 0.0
O15 O 0.05209 0.37473 0.29853 0.0
O16 O 0.07648 0.39057 0.21734 0.0
O17 O 0.09253 0.44256 0.28115 0.0
C18 C 0.94719 0.37435 0.3528 0.0
C19 C 0.10579 0.41995 0.24042 0.0
Dy20 Dy 0.85862 0.7618 0.60301 0.0
C21 C 0.8379 0.89974 0.461 0.0
C22 C 0.9053 0.71218 0.6724 0.0
Dy23 Dy 0.85592 0.8191 0.50915 0.0
O24 O 0.86753 0.69711 0.64934 0.0
O25 O 0.91149 0.75648 0.66314 0.0
O26 O 0.80968 0.79959 0.65617 0.0
O27 O 0.82342 0.82508 0.58217 0.0
C28 C 0.80372 0.8344 0.62356 0.0
C29 C 0.95113 0.77724 0.51186 0.0
O30 O 0.89013 0.87209 0.55523 0.0
O31 O 0.90812 0.81917 0.62062 0.0
O32 O 0.86658 0.86645 0.4429 0.0
O33 O 0.81617 0.88769 0.5019 0.0
O34 O 0.93161 0.79994 0.47352 0.0
O35 O 0.91493 0.7724 0.5433 0.0
O36 O 0.78284 0.73834 0.57503 0.0
O37 O 0.78196 0.78115 0.50037 0.0
C38 C 0.91085 0.86113 0.59792 0.0
C39 C 0.75735 0.75625 0.53579 0.0
Dy40 Dy 0.4423 0.61377 0.72255 0.0
C41 C 0.57978 0.63446 0.8754 0.0
C42 C 0.35783 0.59348 0.68582 0.0
Dy43 Dy 0.52428 0.61301 0.79995 0.0
O44 O 0.37187 0.63635 0.68928 0.0
O45 O 0.39373 0.56181 0.69061 0.0
O46 O 0.38588 0.65001 0.7705 0.0
O47 O 0.46236 0.65723 0.7782 0.0
C48 C 0.42036 0.66812 0.7951 0.0
C49 C 0.52637 0.52118 0.7619 0.0
O50 O 0.46495 0.59449 0.85217 0.0
O51 O 0.41819 0.56853 0.78822 0.0
O52 O 0.59569 0.63098 0.82957 0.0
O53 O 0.53375 0.62431 0.87997 0.0
O54 O 0.55825 0.53727 0.79177 0.0
O55 O 0.49863 0.55823 0.74928 0.0
O56 O 0.47416 0.68738 0.69512 0.0
O57 O 0.53105 0.68898 0.75831 0.0
C58 C 0.42534 0.5758 0.83579 0.0
C59 C 0.50547 0.71282 0.72132 0.0
Dy60 Dy 0.6101 0.21057 0.01624 0.0
C61 C 0.59842 0.33985 0.16238 0.0
C62 C 0.63952 0.13989 0.96148 0.0
Dy63 Dy 0.61471 0.28856 0.08375 0.0
O64 O 0.61006 0.1354 0.99878 0.0
O65 O 0.64895 0.18398 0.95016 0.0
O66 O 0.56954 0.15565 0.06048 0.0
O67 O 0.58413 0.22039 0.0904 0.0
C68 C 0.56646 0.18048 0.09995 0.0
C69 C 0.70355 0.2931 0.02956 0.0
O70 O 0.64657 0.22898 0.13181 0.0
O71 O 0.67599 0.19323 0.06232 0.0
O72 O 0.64193 0.32819 0.14613 0.0
O73 O 0.56381 0.3262 0.13491 0.0
O74 O 0.68548 0.32564 0.05868 0.0
O75 O 0.66821 0.26386 0.02541 0.0
O76 O 0.53721 0.24444 0.99069 0.0
O77 O 0.53372 0.29854 0.05224 0.0
C78 C 0.67291 0.1945 0.11096 0.0
C79 C 0.50999 0.27288 0.01931 0.0
Dy80 Dy 0.97583 0.63469 0.18522 0.0
C81 C 0.13748 0.61146 0.32279 0.0
C82 C 0.93732 0.66411 0.09969 0.0
Dy83 Dy 0.05026 0.62771 0.27456 0.0
O84 O 0.94414 0.6198 0.113 0.0
O85 O 0.94103 0.69125 0.1371 0.0
O86 O 0.02858 0.59833 0.13257 0.0
O87 O 0.03537 0.59258 0.20934 0.0
C88 C 0.05597 0.58287 0.16889 0.0
C89 C 1.00359 0.71988 0.27381 0.0
O90 O 0.09828 0.65814 0.21351 0.0
O91 O 0.03593 0.68064 0.15815 0.0
O92 O 0.10504 0.64459 0.33347 0.0
O93 O 0.12085 0.58538 0.28916 0.0
O94 O 0.02918 0.69952 0.30983 0.0
O95 O 0.99604 0.68483 0.24468 0.0
O96 O 0.95169 0.56065 0.21609 0.0
O97 O 0.00976 0.55196 0.27917 0.0
C98 C 0.08265 0.67764 0.1708 0.0
C99 C 0.97709 0.53151 0.24841 0.0
Dy100 Dy 0.60263 0.82674 0.54543 0.0
C101 C 0.6047 0.72099 0.37967 0.0
C102 C 0.61187 0.90094 0.60142 0.0
Dy103 Dy 0.61334 0.74482 0.4744 0.0
O104 O 0.5817 0.90053 0.56521 0.0
O105 O 0.63223 0.85884 0.61131 0.0
O106 O 0.58598 0.88314 0.48889 0.0
O107 O 0.56977 0.81131 0.47723 0.0
C108 C 0.57338 0.85282 0.45717 0.0
C109 C 0.70166 0.74356 0.52855 0.0
O110 O 0.65584 0.79741 0.43248 0.0
O111 O 0.67041 0.84211 0.50069 0.0
O112 O 0.61916 0.69034 0.41469 0.0
O113 O 0.5923 0.76067 0.39824 0.0
O114 O 0.68921 0.71168 0.49751 0.0
O115 O 0.66156 0.77022 0.53302 0.0
O116 O 0.52731 0.79525 0.56318 0.0
O117 O 0.53362 0.73392 0.50783 0.0
C118 C 0.67782 0.83151 0.45363 0.0
C119 C 0.50544 0.76271 0.53716 0.0
Dy120 Dy 0.52334 0.37366 0.6892 0.0
C121 C 0.3612 0.39133 0.81133 0.0
C122 C 0.57803 0.35996 0.60899 0.0
Dy123 Dy 0.44564 0.36932 0.76425 0.0
O124 O 0.54346 0.39216 0.61165 0.0
O125 O 0.58795 0.33957 0.65225 0.0
O126 O 0.4721 0.40348 0.63062 0.0
O127 O 0.46274 0.41959 0.70604 0.0
C128 C 0.44532 0.42528 0.66333 0.0
C129 C 0.48826 0.27596 0.76957 0.0
O130 O 0.40334 0.34611 0.70083 0.0
O131 O 0.47603 0.31512 0.66995 0.0
O132 O 0.40318 0.38308 0.83352 0.0
O133 O 0.36529 0.3861 0.76389 0.0
O134 O 0.45736 0.29508 0.80125 0.0
O135 O 0.50164 0.31101 0.73976 0.0
O136 O 0.54849 0.4404 0.72748 0.0
O137 O 0.47997 0.44431 0.77859 0.0
C138 C 0.4279 0.32133 0.66794 0.0
C139 C 0.51859 0.46642 0.75681 0.0
Dy140 Dy 0.86165 0.29032 0.94821 0.0
C141 C 0.83581 0.12511 0.06342 0.0
C142 C 0.89199 0.34529 0.87107 0.0
Dy143 Dy 0.86252 0.21095 0.03178 0.0
O144 O 0.85919 0.31386 0.86832 0.0
O145 O 0.90307 0.35154 0.91746 0.0
O146 O 0.83623 0.24447 0.88808 0.0
O147 O 0.82442 0.22768 0.96353 0.0
C148 C 0.82235 0.21228 0.9201 0.0
C149 C 0.95002 0.25616 0.04057 0.0
O150 O 0.89941 0.1723 0.97137 0.0
O151 O 0.92641 0.24149 0.93417 0.0
O152 O 0.88042 0.13879 0.06779 0.0
O153 O 0.80654 0.15918 0.04768 0.0
O154 O 0.93195 0.22652 0.07395 0.0
O155 O 0.91466 0.26678 0.0093 0.0
O156 O 0.78508 0.30938 0.98473 0.0
O157 O 0.78678 0.25103 0.04853 0.0
C158 C 0.92395 0.19484 0.93628 0.0
C159 C 0.76093 0.2838 0.02016 0.0
Dy160 Dy 0.32513 0.01774 0.35314 0.0
C161 C 0.2186 0.1497 0.36295 0.0
C162 C 0.40206 0.95858 0.33909 0.0
Dy163 Dy 0.26578 0.06831 0.34497 0.0
O164 O 0.38089 0.96416 0.38193 0.0
O165 O 0.37651 0.97825 0.30356 0.0
O166 O 0.39116 0.04647 0.38761 0.0
O167 O 0.32857 0.0934 0.37794 0.0
C168 C 0.37213 0.08838 0.39157 0.0
C169 C 0.23894 0.02655 0.26074 0.0
O170 O 0.32543 0.11289 0.30667 0.0
O171 O 0.36226 0.04463 0.28694 0.0
O172 O 0.24262 0.14174 0.32221 0.0
O173 O 0.21245 0.11126 0.39009 0.0
O174 O 0.22006 0.06582 0.27751 0.0
O175 O 0.26752 1.00472 0.294 0.0
O176 O 0.30185 0.98355 0.42679 0.0
O177 O 0.24981 0.04597 0.42785 0.0
C178 C 0.361 0.09019 0.28272 0.0
C179 C 0.27221 1.01036 0.45344 0.0
Dy180 Dy 0.20315 1.01042 0.61282 0.0
C181 C 0.31633 0.16242 0.57953 0.0
C182 C 0.12804 0.95648 0.63366 0.0
Dy183 Dy 0.28018 0.08104 0.60773 0.0
O184 O 0.1283 0.98811 0.59809 0.0
O185 O 0.17183 0.94883 0.65245 0.0
O186 O 0.14561 0.06381 0.58765 0.0
O187 O 0.22015 0.06455 0.56248 0.0
C188 C 0.17861 0.08513 0.56111 0.0
C189 C 0.28753 0.04273 0.70297 0.0
O190 O 0.22182 0.12729 0.64007 0.0
O191 O 0.17925 0.06292 0.67026 0.0
O192 O 0.3429 0.12297 0.58535 0.0
O193 O 0.2703 0.15779 0.59023 0.0
O194 O 0.31977 0.06974 0.68137 0.0
O195 O 0.25715 0.03127 0.66933 0.0
O196 O 0.23919 0.98599 0.53827 0.0
O197 O 0.2969 0.04383 0.5329 0.0
C198 C 0.18711 0.10907 0.66794 0.0
C199 C 0.27294 1.00946 0.51117 0.0
Dy200 Dy 0.28632 0.96618 0.85508 0.0
C201 C 0.11433 0.08659 0.84519 0.0
C202 C 0.33459 0.88251 0.86531 0.0
Dy203 Dy 0.20391 0.04535 0.86207 0.0
O204 O 0.30101 0.89193 0.83305 0.0
O205 O 0.3468 0.92095 0.88746 0.0
O206 O 0.2356 0.9139 0.82617 0.0
O207 O 0.2215 0.98683 0.81747 0.0
C208 C 0.20375 0.94696 0.81346 0.0
C209 C 0.249 0.04335 0.95295 0.0
O210 O 0.16705 0.98372 0.89864 0.0
O211 O 0.24228 0.95089 0.92281 0.0
O212 O 0.13815 0.09008 0.8858 0.0
O213 O 0.13988 0.0632 0.81312 0.0
O214 O 0.22152 0.07871 0.93476 0.0
O215 O 0.26153 0.01668 0.91564 0.0
O216 O 0.31074 1.00753 0.78572 0.0
O217 O 0.24335 0.0615 0.78453 0.0
C218 C 0.19388 0.95053 0.92256 0.0
C219 C 0.28076 0.03792 0.76036 0.0
Dy220 Dy 0.24143 0.94711 0.10934 0.0
C221 C 0.39111 0.04962 0.09469 0.0
C222 C 0.19296 0.86796 0.0949 0.0
Dy223 Dy 0.29974 0.02088 0.09789 0.0
O224 O 0.21026 0.87894 0.13709 0.0
O225 O 0.19283 0.9041 0.06382 0.0
O226 O 0.30108 0.89401 0.13583 0.0
O227 O 0.30104 0.96535 0.1553 0.0
C228 C 0.32441 0.92597 0.15798 0.0
C229 C 0.25534 0.03527 0.01092 0.0
O230 O 0.35175 0.96551 0.07081 0.0
O231 O 0.29037 0.91829 0.05169 0.0
O232 O 0.37146 0.02766 0.05984 0.0
O233 O 0.35877 0.06201 0.12864 0.0
O234 O 0.27148 0.0692 0.03721 0.0
O235 O 0.24905 0.99652 0.03867 0.0
O236 O 0.21637 0.98123 0.18394 0.0
O237 O 0.26717 0.0437 0.17357 0.0
C238 C 0.33651 0.92839 0.05003 0.0
C239 C 0.23865 0.0176 0.2038 0.0
Dy240 Dy 0.35945 0.26202 0.10087 0.0
C241 C 0.33913 0.40005 0.95939 0.0
C242 C 0.40653 0.21183 0.16959 0.0
Dy243 Dy 0.35744 0.31959 0.00766 0.0
O244 O 0.3692 0.1966 0.14591 0.0
O245 O 0.4123 0.25629 0.16102 0.0
O246 O 0.30974 0.29899 0.15396 0.0
O247 O 0.32406 0.32539 0.08031 0.0
C248 C 0.30383 0.3341 0.12164 0.0
C249 C 0.4527 0.27828 0.01075 0.0
O250 O 0.39112 0.37255 0.05439 0.0
O251 O 0.40783 0.31969 0.12016 0.0
O252 O 0.36876 0.36726 0.9418 0.0
O253 O 0.31675 0.38759 0.99979 0.0
O254 O 0.43334 0.30089 0.97229 0.0
O255 O 0.41643 0.27309 0.042 0.0
O256 O 0.28403 0.23839 0.07221 0.0
O257 O 0.28385 0.28132 0.99767 0.0
C258 C 0.41094 0.36165 0.09758 0.0
C259 C 0.25893 0.2563 0.03274 0.0
Dy260 Dy 0.02271 0.87306 0.19126 0.0
C261 C 0.86085 0.89081 0.31378 0.0
C262 C 0.0776 0.85998 0.11088 0.0
Dy263 Dy 0.94558 0.86889 0.26703 0.0
O264 O 0.04255 0.89169 0.11365 0.0
O265 O 0.08762 0.83956 0.15412 0.0
O266 O 0.97117 0.90265 0.13297 0.0
O267 O 0.96216 0.91904 0.2084 0.0
C268 C 0.94452 0.92452 0.16573 0.0
C269 C 0.98834 0.77555 0.27214 0.0
O270 O 0.90277 0.84562 0.20408 0.0
O271 O 0.97506 0.81465 0.17217 0.0
O272 O 0.90286 0.88315 0.33608 0.0
O273 O 0.86511 0.88507 0.26644 0.0
O274 O 0.95779 0.7947 0.30413 0.0
O275 O 1.0014 0.81059 0.24218 0.0
O276 O 0.04804 0.93989 0.22916 0.0
O277 O 0.97992 0.94396 0.2808 0.0
C278 C 0.92688 0.82089 0.17085 0.0
C279 C 0.01837 0.96598 0.2586 0.0
Dy280 Dy 0.10912 0.70946 0.51582 0.0
C281 C 0.09787 0.83906 0.66275 0.0
C282 C 0.1394 0.63912 0.4609 0.0
Dy283 Dy 0.11337 0.78787 0.58405 0.0
O284 O 0.11005 0.63423 0.49827 0.0
O285 O 0.14818 0.68336 0.44959 0.0
O286 O 0.06925 0.65439 0.56076 0.0
O287 O 0.08317 0.71959 0.58969 0.0
C288 C 0.0659 0.67964 0.59994 0.0
C289 C 0.20202 0.79255 0.52949 0.0
O290 O 0.14595 0.72834 0.63168 0.0
O291 O 0.17521 0.69292 0.56186 0.0
O292 O 0.14103 0.8305 0.64392 0.0
O293 O 0.06302 0.82208 0.63804 0.0
O294 O 0.18413 0.82491 0.5589 0.0
O295 O 0.16654 0.7634 0.52541 0.0
O296 O 0.03556 0.74317 0.49146 0.0
O297 O 0.03248 0.79804 0.55246 0.0
C298 C 0.17223 0.694 0.61052 0.0
C299 C 0.00853 0.77189 0.52009 0.0
Dy300 Dy 0.98057 0.59452 0.6675 0.0
C301 C 0.0059 0.76162 0.78096 0.0
C302 C 0.94072 0.54 0.60587 0.0
Dy303 Dy 0.01073 0.65915 0.75917 0.0
O304 O 0.96899 0.57374 0.59144 0.0
O305 O 0.94791 0.52741 0.65232 0.0
O306 O 0.95535 0.66121 0.62741 0.0
O307 O 0.95687 0.65575 0.70397 0.0
C308 C 0.94793 0.68319 0.66858 0.0
C309 C 0.03674 0.5567 0.7576 0.0
O310 O 0.93226 0.63996 0.78411 0.0
O311 O 0.91836 0.58587 0.72161 0.0
O312 O 0.03615 0.72781 0.80116 0.0
O313 O 0.97991 0.73762 0.75114 0.0
O314 O 0.03302 0.58331 0.79754 0.0
O315 O 0.03343 0.58856 0.72334 0.0
O316 O 0.05555 0.61128 0.65004 0.0
O317 O 0.0527 0.68264 0.68896 0.0
C318 C 0.90407 0.60896 0.76179 0.0
C319 C 0.06289 0.6569 0.64949 0.0
Dy320 Dy 0.15444 0.21185 0.49261 0.0
C321 C 0.10438 0.31854 0.32935 0.0
C322 C 0.17222 0.13117 0.54068 0.0
Dy323 Dy 0.15162 0.26935 0.39858 0.0
O324 O 0.14329 0.16434 0.55864 0.0
O325 O 0.19437 0.14342 0.50007 0.0
O326 O 0.07874 0.23115 0.52821 0.0
O327 O 0.0957 0.2588 0.45864 0.0
C328 C 0.05932 0.25391 0.48987 0.0
C329 C 0.20632 0.1967 0.37803 0.0
O330 O 0.22764 0.29243 0.42656 0.0
O331 O 0.22848 0.24973 0.50131 0.0
O332 O 0.14223 0.33392 0.35209 0.0
O333 O 0.09853 0.27419 0.33861 0.0
O334 O 0.20047 0.23153 0.34542 0.0
O335 O 0.18662 0.20596 0.41944 0.0
O336 O 0.12017 0.15897 0.44637 0.0
O337 O 0.10191 0.21203 0.38118 0.0
C338 C 0.25317 0.27445 0.4658 0.0
C339 C 0.09926 0.17002 0.40378 0.0
Dy340 Dy 0.48604 0.41832 0.20163 0.0
C341 C 0.65221 0.43745 0.31627 0.0
C342 C 0.43017 0.39741 0.12655 0.0
Dy343 Dy 0.56776 0.41736 0.27964 0.0
O344 O 0.41438 0.40101 0.1724 0.0
O345 O 0.4763 0.40711 0.1217 0.0
O346 O 0.45231 0.49414 0.20967 0.0
O347 O 0.5113 0.47275 0.25278 0.0
C348 C 0.4839 0.51 0.23997 0.0
C349 C 0.58973 0.36302 0.20692 0.0
O350 O 0.53574 0.34376 0.30673 0.0
O351 O 0.47931 0.34221 0.24308 0.0
O352 O 0.63799 0.3946 0.31319 0.0
O353 O 0.61648 0.46926 0.31125 0.0
O354 O 0.62423 0.38082 0.23176 0.0
O355 O 0.54784 0.37428 0.22379 0.0
O356 O 0.5457 0.43683 0.14977 0.0
O357 O 0.59206 0.4627 0.21409 0.0
C358 C 0.50465 0.31835 0.28024 0.0
C359 C 0.58527 0.4554 0.16646 0.0
Dy360 Dy 0.39555 0.74268 0.91819 0.0
C361 C 0.37081 0.89121 0.0402 0.0
C362 C 0.41165 0.69134 0.8396 0.0
Dy363 Dy 0.40015 0.82068 0.98525 0.0
O364 O 0.36816 0.7032 0.85577 0.0
O365 O 0.4463 0.70474 0.86718 0.0
O366 O 0.32486 0.70549 0.94344 0.0
O367 O 0.34205 0.76737 0.97648 0.0
C368 C 0.30674 0.73811 0.97245 0.0
C369 C 0.44369 0.85082 0.90161 0.0
O370 O 0.47311 0.78705 0.01075 0.0
O371 O 0.47673 0.73282 0.94942 0.0
O372 O 0.4003 0.8958 0.00293 0.0
O373 O 0.36131 0.84713 0.05141 0.0
O374 O 0.44062 0.8756 0.9411 0.0
O375 O 0.42591 0.81092 0.91088 0.0
O376 O 0.36358 0.80216 0.86999 0.0
O377 O 0.33419 0.83818 0.93933 0.0
C378 C 0.50045 0.75873 0.98214 0.0
C379 C 0.33718 0.83668 0.89071 0.0
Dy380 Dy 0.9608 0.40299 0.72687 0.0
C381 C 0.0727 0.3675 0.90217 0.0
C382 C 0.87404 0.41882 0.67814 0.0
Dy383 Dy 0.03338 0.39674 0.81707 0.0
O384 O 0.90638 0.38547 0.66793 0.0
O385 O 0.89056 0.44527 0.71145 0.0
O386 O 0.98265 0.33155 0.69157 0.0
O387 O 0.01465 0.34597 0.75756 0.0
C388 C 0.00742 0.31109 0.72809 0.0
C389 C 0.95254 0.44842 0.83105 0.0
O390 O 0.05808 0.47064 0.7865 0.0
O391 O 1.00117 0.47896 0.72237 0.0
O392 O 0.06623 0.41186 0.88876 0.0
O393 O 0.06786 0.3402 0.86513 0.0
O394 O 0.9783 0.43224 0.86835 0.0
O395 O 0.97473 0.43902 0.79148 0.0
O396 O 0.91216 0.37226 0.78761 0.0
O397 O 0.97366 0.35072 0.84421 0.0
C398 C 0.03338 0.49961 0.75352 0.0
C399 C 0.92721 0.3532 0.83078 0.0
Dy400 Dy 0.39705 0.28661 0.52758 0.0
C401 C 0.39817 0.13004 0.40035 0.0
C402 C 0.40662 0.30979 0.62225 0.0
Dy403 Dy 0.40759 0.20431 0.45601 0.0
O404 O 0.38986 0.34025 0.58811 0.0
O405 O 0.42089 0.27101 0.60283 0.0
O406 O 0.3208 0.31914 0.50473 0.0
O407 O 0.34944 0.26164 0.46836 0.0
C408 C 0.30877 0.2875 0.47324 0.0
C409 C 0.43686 0.17844 0.54451 0.0
O410 O 0.48299 0.23584 0.4386 0.0
O411 O 0.47667 0.2974 0.4938 0.0
O412 O 0.42859 0.13051 0.43634 0.0
O413 O 0.3777 0.17209 0.39039 0.0
O414 O 0.42477 0.14798 0.5127 0.0
O415 O 0.43996 0.21988 0.52422 0.0
O416 O 0.35451 0.23375 0.56916 0.0
O417 O 0.33989 0.18902 0.50088 0.0
C418 C 0.50486 0.26841 0.46465 0.0
C419 C 0.33251 0.19968 0.54793 0.0
Dy420 Dy 0.56485 0.66169 0.2377 0.0
C421 C 0.43212 0.67108 0.39286 0.0
C422 C 0.64941 0.63943 0.19093 0.0
Dy423 Dy 0.48706 0.65754 0.31279 0.0
O424 O 0.60764 0.64824 0.16852 0.0
O425 O 0.64506 0.64418 0.23842 0.0
O426 O 0.55329 0.73598 0.20077 0.0
O427 O 0.50892 0.72012 0.2622 0.0
C428 C 0.52238 0.75515 0.23241 0.0
C429 C 0.5651 0.60583 0.33856 0.0
O430 O 0.46202 0.59071 0.27456 0.0
O431 O 0.53036 0.58682 0.22318 0.0
O432 O 0.4666 0.6388 0.3902 0.0
O433 O 0.42238 0.69162 0.34962 0.0
O434 O 0.53837 0.62761 0.37134 0.0
O435 O 0.54747 0.61158 0.29596 0.0
O436 O 0.60716 0.68499 0.30102 0.0
O437 O 0.53462 0.71569 0.33277 0.0
C438 C 0.49183 0.56471 0.24513 0.0
C439 C 0.5828 0.70956 0.33424 0.0
Dy440 Dy 0.14768 0.82049 0.9698 0.0
C441 C 0.11749 0.68594 0.13032 0.0
C442 C 0.17462 0.90602 0.93774 0.0
Dy443 Dy 0.14853 0.74067 0.05346 0.0
O444 O 0.1295 0.89324 0.93544 0.0
O445 O 0.20404 0.8713 0.95161 0.0
O446 O 0.07841 0.80468 0.92751 0.0
O447 O 0.09599 0.76428 0.99194 0.0
C448 C 0.06048 0.77492 0.96085 0.0
C449 C 0.18801 0.81887 0.08149 0.0
O450 O 0.22507 0.72162 0.01692 0.0
O451 O 0.22368 0.78053 0.95363 0.0
O452 O 0.15078 0.71687 0.13326 0.0
O453 O 0.10628 0.67988 0.08394 0.0
O454 O 0.17472 0.78644 0.11355 0.0
O455 O 0.1852 0.80347 0.03816 0.0
O456 O 0.11094 0.85892 0.03043 0.0
O457 O 0.08391 0.78965 0.06762 0.0
C458 C 0.24935 0.74745 0.98178 0.0
C459 C 0.08637 0.83632 0.06548 0.0
Dy460 Dy 0.74433 0.96278 0.65676 0.0
C461 C 0.60822 0.07246 0.66239 0.0
C462 C 0.79168 0.88144 0.63874 0.0
Dy463 Dy 0.68519 1.0132 0.64843 0.0
O464 O 0.76778 0.88942 0.67955 0.0
O465 O 0.79764 0.91987 0.61153 0.0
O466 O 0.79033 0.96541 0.72402 0.0
O467 O 0.74237 0.02626 0.70795 0.0
C468 C 0.77139 1.00462 0.74092 0.0
C469 C 0.63799 0.94254 0.61029 0.0
O470 O 0.70847 0.04753 0.57487 0.0
O471 O 0.76046 0.9851 0.57388 0.0
O472 O 0.62947 0.06687 0.61958 0.0
O473 O 0.63366 0.05266 0.69792 0.0
O474 O 0.61904 0.98448 0.61423 0.0
O475 O 0.68166 0.9375 0.62363 0.0
O476 O 0.68479 0.91815 0.69506 0.0
O477 O 0.64819 0.98649 0.71482 0.0
C478 C 0.73812 0.02072 0.54825 0.0
C479 C 0.64933 0.94093 0.71907 0.0
Dy480 Dy 0.73022 0.95005 0.39394 0.0
C481 C 0.88254 0.07465 0.36831 0.0
C482 C 0.6941 0.8687 0.42207 0.0
Dy483 Dy 0.80738 0.02072 0.38894 0.0
O484 O 0.66749 0.9081 0.41606 0.0
O485 O 0.74017 0.87334 0.41155 0.0
O486 O 0.69069 0.96153 0.32027 0.0
O487 O 0.75332 0.9999 0.33248 0.0
C488 C 0.72301 0.9885 0.29874 0.0
C489 C 0.83164 0.9458 0.44056 0.0
O490 O 0.77125 0.04509 0.46347 0.0
O491 O 0.71348 0.98726 0.46877 0.0
O492 O 0.88219 0.04302 0.40387 0.0
O493 O 0.83878 0.08232 0.34943 0.0
O494 O 0.86479 0.96712 0.4142 0.0
O495 O 0.79024 0.96663 0.43913 0.0
O496 O 0.78852 0.90383 0.36148 0.0
O497 O 0.83142 0.96814 0.3316 0.0
C498 C 0.73745 0.02162 0.49052 0.0
C499 C 0.82338 0.92202 0.33378 0.0
Dy500 Dy 0.80678 0.98582 0.13956 0.0
C501 C 0.67567 0.14861 0.1362 0.0
C502 C 0.89631 0.94457 0.15651 0.0
Dy503 Dy 0.72384 0.06501 0.14658 0.0
O504 O 0.87265 0.94128 0.11577 0.0
O505 O 0.87065 0.96779 0.18864 0.0
O506 O 0.78913 0.95261 0.06676 0.0
O507 O 0.74893 1.01437 0.08626 0.0
C508 C 0.7615 0.98795 0.04876 0.0
C509 C 0.80648 0.08413 0.18834 0.0
O510 O 0.69969 0.02352 0.21596 0.0
O511 O 0.76737 0.96984 0.21721 0.0
O512 O 0.70912 0.13925 0.16861 0.0
O513 O 0.66347 0.11021 0.11398 0.0
O514 O 0.7745 0.11722 0.17605 0.0
O515 O 0.78871 0.04436 0.18381 0.0
O516 O 0.8434 0.04764 0.10311 0.0
O517 O 0.76807 0.08048 0.07899 0.0
C518 C 0.72984 0.99331 0.24134 0.0
C519 C 0.81649 0.0808 0.07922 0.0
Dy520 Dy 0.71048 1.01012 0.9037 0.0
C521 C 0.81741 0.1632 0.90679 0.0
C522 C 0.61904 0.98169 0.90676 0.0
Dy523 Dy 0.76892 0.08418 0.89228 0.0
O524 O 0.63872 1.00354 0.94167 0.0
O525 O 0.65134 0.96927 0.87277 0.0
O526 O 0.7376 0.96206 0.96503 0.0
O527 O 0.7619 0.03411 0.96252 0.0
C528 C 0.75448 0.99593 0.99089 0.0
C529 C 0.6858 0.10507 0.84387 0.0
O530 O 0.79385 0.04999 0.81767 0.0
O531 O 0.74326 0.9873 0.8281 0.0
O532 O 0.80062 0.15207 0.86442 0.0
O533 O 0.81712 0.12724 0.93806 0.0
O534 O 0.70908 0.13713 0.86592 0.0
O535 O 0.70937 0.06578 0.84645 0.0
O536 O 0.65864 0.06558 0.93096 0.0
O537 O 0.71998 0.11292 0.94997 0.0
C538 C 0.77173 1.01349 0.79786 0.0
C539 C 0.67388 0.1027 0.95175 0.0
Dy540 Dy 0.65271 0.71101 0.99562 0.0
C541 C 0.6034 0.8195 0.83153 0.0
C542 C 0.6709 0.63025 0.04292 0.0
Dy543 Dy 0.65001 0.7704 0.90109 0.0
O544 O 0.64184 0.66312 0.06125 0.0
O545 O 0.69284 0.64274 0.00226 0.0
O546 O 0.57618 0.72973 0.02989 0.0
O547 O 0.59486 0.75854 0.96146 0.0
C548 C 0.5576 0.75307 0.99147 0.0
C549 C 0.70495 0.69757 0.88196 0.0
O550 O 0.7261 0.79278 0.92973 0.0
O551 O 0.7268 0.74921 0.0042 0.0
O552 O 0.64075 0.83507 0.85496 0.0
O553 O 0.59752 0.77513 0.84072 0.0
O554 O 0.69942 0.73198 0.84878 0.0
O555 O 0.68516 0.70797 0.92287 0.0
O556 O 0.61908 0.65885 0.9477 0.0
O557 O 0.60125 0.7125 0.88264 0.0
C558 C 0.75153 0.77434 0.96889 0.0
C559 C 0.59873 0.67021 0.9048 0.0
Dy560 Dy 0.06491 0.16201 0.73481 0.0
C561 C 0.93277 0.17116 0.89089 0.0
C562 C 0.14965 0.14016 0.68813 0.0
Dy563 Dy 0.98778 0.15798 0.81068 0.0
O564 O 0.10773 0.14813 0.66573 0.0
O565 O 0.14531 0.14551 0.73552 0.0
O566 O 0.05285 0.23618 0.69776 0.0
O567 O 0.00925 0.22041 0.75978 0.0
C568 C 0.02243 0.2554 0.72982 0.0
C569 C 0.06607 0.10657 0.83609 0.0
O570 O 0.96255 0.09106 0.7728 0.0
O571 O 0.03051 0.08701 0.72094 0.0
O572 O 0.96766 0.13927 0.88821 0.0
O573 O 0.92286 0.19162 0.84766 0.0
O574 O 0.03942 0.12835 0.86894 0.0
O575 O 0.0482 0.11202 0.79354 0.0
O576 O 0.10777 0.18545 0.79756 0.0
O577 O 0.03562 0.21612 0.83025 0.0
C578 C 0.99215 0.06497 0.74329 0.0
C579 C 0.08385 0.21006 0.83102 0.0
Dy580 Dy 0.89686 0.24312 0.41801 0.0
C581 C 0.87127 0.3916 0.5406 0.0
C582 C 0.91222 0.19203 0.33923 0.0
Dy583 Dy 0.9013 0.3212 0.48592 0.0
O584 O 0.86907 0.20063 0.35806 0.0
O585 O 0.9471 0.20885 0.36401 0.0
O586 O 0.8261 0.20604 0.44313 0.0
O587 O 0.84367 0.26754 0.4766 0.0
C588 C 0.8082 0.23843 0.4725 0.0
C589 C 0.94424 0.35142 0.40212 0.0
O590 O 0.97484 0.28768 0.51032 0.0
O591 O 0.97796 0.23305 0.44919 0.0
O592 O 0.90075 0.39639 0.50333 0.0
O593 O 0.86235 0.34742 0.55206 0.0
O594 O 0.94124 0.3764 0.44148 0.0
O595 O 0.92679 0.31147 0.41178 0.0
O596 O 0.86419 0.30259 0.3703 0.0
O597 O 0.83515 0.33821 0.44007 0.0
C598 C 1.00193 0.25918 0.48156 0.0
C599 C 0.8379 0.33698 0.3914 0.0
Dy600 Dy 0.49905 0.87209 0.74286 0.0
C601 C 0.56868 0.99191 0.89548 0.0
C602 C 0.50431 0.76976 0.7207 0.0
Dy603 Dy 0.52834 0.93692 0.83478 0.0
O604 O 0.47361 0.80344 0.70099 0.0
O605 O 0.53071 0.79384 0.7501 0.0
O606 O 0.47808 0.94778 0.70359 0.0
O607 O 0.47627 0.9432 0.77795 0.0
C608 C 0.47379 0.97474 0.74324 0.0
C609 C 0.56046 0.84808 0.8346 0.0
O610 O 0.45358 0.9198 0.85222 0.0
O611 O 0.45657 0.84869 0.81266 0.0
O612 O 0.54052 0.95828 0.91051 0.0
O613 O 0.56129 1.00413 0.84899 0.0
O614 O 0.55262 0.87034 0.87556 0.0
O615 O 0.55193 0.87544 0.79903 0.0
O616 O 0.57739 0.89109 0.71838 0.0
O617 O 0.59163 0.94391 0.7819 0.0
C618 C 0.44654 0.87414 0.85237 0.0
C619 C 0.60586 0.92115 0.74157 0.0
Dy620 Dy 0.94221 0.11338 0.22314 0.0
C621 C 0.07987 0.13418 0.37506 0.0
C622 C 0.85765 0.09352 0.18683 0.0
Dy623 Dy 0.02392 0.11284 0.30024 0.0
O624 O 0.87202 0.13634 0.18969 0.0
O625 O 0.8933 0.06161 0.19172 0.0
O626 O 0.88579 0.1495 0.27124 0.0
O627 O 0.96231 0.15724 0.27822 0.0
C628 C 0.9204 0.16809 0.29522 0.0
C629 C 0.02604 0.02077 0.26317 0.0
O630 O 0.96471 0.09474 0.35279 0.0
O631 O 0.91786 0.06856 0.28904 0.0
O632 O 0.09563 0.13025 0.32925 0.0
O633 O 0.03373 0.12458 0.38005 0.0
O634 O 0.05801 0.03715 0.29271 0.0
O635 O 0.99816 0.0576 0.25017 0.0
O636 O 0.97398 0.18693 0.19531 0.0
O637 O 0.03086 0.18873 0.25842 0.0
C638 C 0.9251 0.07592 0.33657 0.0
C639 C 0.0053 0.21249 0.22137 0.0
Dy640 Dy 0.47632 0.135 0.68283 0.0
C641 C 0.63696 0.11172 0.82257 0.0
C642 C 0.4385 0.16389 0.59667 0.0
Dy643 Dy 0.55026 0.12819 0.77306 0.0
O644 O 0.44622 0.11969 0.60994 0.0
O645 O 0.44077 0.19103 0.63431 0.0
O646 O 0.53001 0.09888 0.63089 0.0
O647 O 0.53555 0.09297 0.70783 0.0
C648 C 0.55675 0.08335 0.66769 0.0
C649 C 0.50356 0.22032 0.77149 0.0
O650 O 0.59861 0.15851 0.71219 0.0
O651 O 0.53645 0.18135 0.65668 0.0
O652 O 0.60467 0.14529 0.83233 0.0
O653 O 0.62044 0.08545 0.78904 0.0
O654 O 0.52884 0.20013 0.80782 0.0
O655 O 0.49624 0.18513 0.74246 0.0
O656 O 0.45229 0.06086 0.71395 0.0
O657 O 0.50967 0.05252 0.77777 0.0
C658 C 0.58316 0.17812 0.66944 0.0
C659 C 0.4773 0.03191 0.7468 0.0
Dy660 Dy 0.10405 0.32656 0.04215 0.0
C661 C 0.10645 0.22113 0.87619 0.0
C662 C 0.11278 0.40084 0.09816 0.0
Dy663 Dy 0.11492 0.24503 0.97087 0.0
O664 O 0.08308 0.40045 0.06157 0.0
O665 O 0.13309 0.35875 0.10827 0.0
O666 O 0.08732 0.38311 0.98591 0.0
O667 O 0.07094 0.31128 0.97402 0.0
C668 C 0.07457 0.35288 0.95417 0.0
C669 C 0.20329 0.24368 0.02501 0.0
O670 O 0.15715 0.29769 0.92888 0.0
O671 O 0.17177 0.34203 0.99731 0.0
O672 O 0.11931 0.19021 0.91158 0.0
O673 O 0.09596 0.26149 0.89419 0.0
O674 O 0.19092 0.21195 0.99378 0.0
O675 O 0.16319 0.2703 0.02954 0.0
O676 O 0.02888 0.29483 0.05998 0.0
O677 O 0.03514 0.23391 0.00418 0.0
C678 C 0.17906 0.33173 0.95015 0.0
C679 C 0.00698 0.26239 0.03384 0.0
Dy680 Dy 0.36091 0.79023 0.44969 0.0
C681 C 0.33493 0.62611 0.56557 0.0
C682 C 0.39209 0.8451 0.3728 0.0
Dy683 Dy 0.36156 0.71129 0.53292 0.0
O684 O 0.35883 0.81413 0.36988 0.0
O685 O 0.40315 0.85111 0.41922 0.0
O686 O 0.33642 0.7445 0.38907 0.0
O687 O 0.32358 0.72737 0.46433 0.0
C688 C 0.32215 0.71217 0.42073 0.0
C689 C 0.44837 0.7569 0.54332 0.0
O690 O 0.39824 0.67225 0.4729 0.0
O691 O 0.42587 0.74136 0.43627 0.0
O692 O 0.38065 0.63714 0.56239 0.0
O693 O 0.30528 0.66232 0.55731 0.0
O694 O 0.42973 0.72755 0.57666 0.0
O695 O 0.41361 0.76739 0.51137 0.0
O696 O 0.28393 0.80925 0.48538 0.0
O697 O 0.285 0.75027 0.54836 0.0
C698 C 0.42339 0.6947 0.43828 0.0
C699 C 0.2594 0.78327 0.52018 0.0
Dy700 Dy 0.82483 0.51868 0.85217 0.0
C701 C 0.71569 0.65038 0.86715 0.0
C702 C 0.90095 0.45944 0.8348 0.0
Dy703 Dy 0.76596 0.57108 0.84792 0.0
O704 O 0.87761 0.46067 0.87701 0.0
O705 O 0.87792 0.48389 0.80056 0.0
O706 O 0.89291 0.54613 0.88513 0.0
O707 O 0.83039 0.59323 0.87999 0.0
C708 C 0.87413 0.58755 0.8928 0.0
C709 C 0.74176 0.53008 0.76174 0.0
O710 O 0.82779 0.61483 0.81269 0.0
O711 O 0.85284 0.54699 0.78138 0.0
O712 O 0.73695 0.64233 0.82516 0.0
O713 O 0.71343 0.6125 0.89571 0.0
O714 O 0.73367 0.57392 0.77269 0.0
O715 O 0.76015 0.50605 0.80052 0.0
O716 O 0.80464 0.48667 0.92825 0.0
O717 O 0.74917 0.54659 0.92994 0.0
C718 C 0.85797 0.59213 0.78256 0.0
C719 C 0.77353 0.51193 0.95516 0.0
Dy720 Dy 0.70357 0.50997 0.11472 0.0
C721 C 0.81535 0.66262 0.0825 0.0
C722 C 0.62819 0.45633 0.13513 0.0
Dy723 Dy 0.77965 0.58108 0.11004 0.0
O724 O 0.62891 0.48755 0.09921 0.0
O725 O 0.67177 0.44861 0.15439 0.0
O726 O 0.64542 0.56282 0.09016 0.0
O727 O 0.71985 0.56435 0.06447 0.0
C728 C 0.67804 0.58441 0.06339 0.0
C729 C 0.78736 0.54287 0.20511 0.0
O730 O 0.72107 0.6271 0.14209 0.0
O731 O 0.67932 0.56232 0.17239 0.0
O732 O 0.84206 0.62322 0.08783 0.0
O733 O 0.76939 0.65788 0.09344 0.0
O734 O 0.81936 0.57013 0.18354 0.0
O735 O 0.75704 0.53109 0.17157 0.0
O736 O 0.74005 0.48659 0.03978 0.0
O737 O 0.79764 0.54452 0.03524 0.0
C738 C 0.68677 0.60856 0.1702 0.0
C739 C 0.77392 0.51034 0.01301 0.0
Dy740 Dy 0.78594 0.46634 0.35673 0.0
C741 C 0.61343 0.58602 0.34758 0.0
C742 C 0.83468 0.38287 0.36623 0.0
Dy743 Dy 0.7034 0.54544 0.36385 0.0
O744 O 0.80057 0.39215 0.33452 0.0
O745 O 0.84698 0.4213 0.38835 0.0
O746 O 0.73534 0.41399 0.32771 0.0
O747 O 0.72099 0.48693 0.31914 0.0
C748 C 0.70338 0.44698 0.31511 0.0
C749 C 0.74838 0.54353 0.45448 0.0
O750 O 0.66695 0.48358 0.40023 0.0
O751 O 0.74223 0.45133 0.4247 0.0
O752 O 0.63703 0.58893 0.3884 0.0
O753 O 0.6394 0.56363 0.31504 0.0
O754 O 0.72112 0.57904 0.43626 0.0
O755 O 0.76104 0.51681 0.41728 0.0
O756 O 0.81053 0.50803 0.28782 0.0
O757 O 0.74284 0.56164 0.28639 0.0
C758 C 0.69389 0.45041 0.42401 0.0
C759 C 0.78049 0.53824 0.26241 0.0
Dy760 Dy 0.74161 0.44675 0.61071 0.0
C761 C 0.89043 0.55052 0.59455 0.0
C762 C 0.69275 0.36805 0.59518 0.0
Dy763 Dy 0.7996 0.52084 0.59844 0.0
O764 O 0.70934 0.37881 0.6378 0.0
O765 O 0.69328 0.40431 0.56432 0.0
O766 O 0.80142 0.39334 0.63587 0.0
O767 O 0.80192 0.46484 0.65531 0.0
C768 C 0.82519 0.42542 0.65743 0.0
C769 C 0.75443 0.53537 0.51236 0.0
O770 O 0.85169 0.46612 0.57029 0.0
O771 O 0.7907 0.4175 0.55333 0.0
O772 O 0.87075 0.52864 0.55965 0.0
O773 O 0.8583 0.56245 0.62886 0.0
O774 O 0.77055 0.56934 0.53854 0.0
O775 O 0.74848 0.49643 0.53996 0.0
O776 O 0.72069 0.47936 0.68769 0.0
O777 O 0.76721 0.54443 0.67365 0.0
C778 C 0.83659 0.42848 0.55037 0.0
C779 C 0.74189 0.51723 0.70582 0.0
Dy780 Dy 0.48181 0.09439 0.16686 0.0
C781 C 0.50582 0.26143 0.28083 0.0
C782 C 0.44147 0.0394 0.10609 0.0
Dy783 Dy 0.51115 0.15915 0.25866 0.0
O784 O 0.46966 0.07303 0.09111 0.0
O785 O 0.4488 0.0272 0.1526 0.0
O786 O 0.45753 0.16083 0.12595 0.0
O787 O 0.45799 0.15601 0.20258 0.0
C788 C 0.44951 0.18318 0.1668 0.0
C789 C 0.53635 0.05644 0.2583 0.0
O790 O 0.43289 0.1401 0.28334 0.0
O791 O 0.41856 0.08736 0.21978 0.0
O792 O 0.53644 0.22775 0.30068 0.0
O793 O 0.47955 0.23738 0.25129 0.0
O794 O 0.53215 0.08342 0.29794 0.0
O795 O 0.53385 0.08807 0.22367 0.0
O796 O 0.55662 0.11152 0.14941 0.0
O797 O 0.55366 0.18262 0.18892 0.0
C798 C 0.40439 0.11006 0.26017 0.0
C799 C 0.56373 0.15718 0.14923 0.0
Dy800 Dy 0.98635 0.91824 0.7012 0.0
C801 C 0.15255 0.93771 0.81507 0.0
C802 C 0.93032 0.89697 0.62652 0.0
Dy803 Dy 0.068 0.91774 0.77897 0.0
O804 O 0.91459 0.90098 0.67234 0.0
O805 O 0.9765 0.90642 0.62146 0.0
O806 O 0.95256 0.99409 0.7086 0.0
O807 O 0.01176 0.97315 0.75172 0.0
C808 C 0.98429 1.01024 0.73857 0.0
C809 C 0.08973 0.8629 0.70683 0.0
O810 O 0.03606 0.84409 0.80645 0.0
O811 O 0.97945 0.84231 0.74301 0.0
O812 O 0.138 0.89487 0.81291 0.0
O813 O 0.11706 0.9697 0.80968 0.0
O814 O 0.1244 0.88117 0.73101 0.0
O815 O 0.04794 0.87422 0.7238 0.0
O816 O 0.04584 0.93636 0.64899 0.0
O817 O 0.09267 0.96232 0.71296 0.0
C818 C 1.00482 0.81856 0.78021 0.0
C819 C 0.08547 0.95503 0.66539 0.0
Dy820 Dy 0.46001 0.90282 0.22853 0.0
C821 C 0.57171 0.86731 0.40503 0.0
C822 C 0.37327 0.91922 0.17918 0.0
Dy823 Dy 0.53408 0.89625 0.31888 0.0
O824 O 0.40515 0.88518 0.16994 0.0
O825 O 0.39022 0.94597 0.21205 0.0
O826 O 0.48164 0.83084 0.19392 0.0
O827 O 0.51431 0.84615 0.25912 0.0
C828 C 0.507 0.81079 0.23029 0.0
C829 C 0.45357 0.94797 0.33377 0.0
O830 O 0.55795 0.97036 0.28762 0.0
O831 O 0.50048 0.97858 0.22384 0.0
O832 O 0.5648 0.91157 0.39153 0.0
O833 O 0.56859 0.84002 0.36765 0.0
O834 O 0.48048 0.93295 0.37064 0.0
O835 O 0.47473 0.93772 0.29382 0.0
O836 O 0.41174 0.87253 0.28954 0.0
O837 O 0.47384 0.85013 0.34535 0.0
C838 C 0.53283 0.99925 0.25478 0.0
C839 C 0.42717 0.85312 0.33241 0.0
Dy840 Dy 0.8957 0.78658 0.03051 0.0
C841 C 0.90015 0.62921 0.90249 0.0
C842 C 0.90485 0.80979 0.12536 0.0
Dy843 Dy 0.90651 0.70408 0.95908 0.0
O844 O 0.88992 0.84065 0.09072 0.0
O845 O 0.91728 0.77033 0.1064 0.0
O846 O 0.81938 0.81898 0.00771 0.0
O847 O 0.84788 0.7612 0.9715 0.0
C848 C 0.80725 0.78719 0.9764 0.0
C849 C 0.93571 0.67858 0.04755 0.0
O850 O 0.98175 0.73599 0.94183 0.0
O851 O 0.97533 0.79759 0.99692 0.0
O852 O 0.92814 0.62989 0.94041 0.0
O853 O 0.87979 0.67129 0.8921 0.0
O854 O 0.92343 0.64802 0.01592 0.0
O855 O 0.93902 0.71999 0.02717 0.0
O856 O 0.85327 0.73386 0.07214 0.0
O857 O 0.83854 0.6892 0.00378 0.0
C858 C 1.00354 0.7687 0.9677 0.0
C859 C 0.83121 0.69987 0.05089 0.0
Dy860 Dy 0.64865 0.31997 0.46891 0.0
C861 C 0.61813 0.18613 0.629 0.0
C862 C 0.67515 0.405 0.43606 0.0
Dy863 Dy 0.64938 0.24082 0.55214 0.0
O864 O 0.6294 0.39426 0.44016 0.0
O865 O 0.70479 0.36862 0.44349 0.0
O866 O 0.58052 0.30362 0.42514 0.0
O867 O 0.59682 0.26363 0.49026 0.0
C868 C 0.56195 0.27418 0.45842 0.0
C869 C 0.68809 0.31903 0.58122 0.0
O870 O 0.72623 0.22169 0.51635 0.0
O871 O 0.72536 0.28109 0.45377 0.0
O872 O 0.65153 0.21694 0.63193 0.0
O873 O 0.60697 0.18009 0.58262 0.0
O874 O 0.6743 0.28645 0.61282 0.0
O875 O 0.68627 0.30385 0.53764 0.0
O876 O 0.61203 0.35888 0.52903 0.0
O877 O 0.58442 0.28969 0.56557 0.0
C878 C 0.75083 0.24782 0.48175 0.0
C879 C 0.58686 0.33636 0.56358 0.0
Dy880 Dy 0.24437 0.46244 0.1556 0.0
C881 C 0.10739 0.57219 0.1625 0.0
C882 C 0.29149 0.38101 0.13715 0.0
Dy883 Dy 0.18443 0.51345 0.14675 0.0
O884 O 0.26752 0.38879 0.17799 0.0
O885 O 0.29759 0.4196 0.11024 0.0
O886 O 0.29133 0.46632 0.22206 0.0
O887 O 0.241 0.5257 0.20717 0.0
C888 C 0.27136 0.50491 0.23944 0.0
C889 C 0.13839 0.44254 0.10788 0.0
O890 O 0.20816 0.54756 0.07326 0.0
O891 O 0.26007 0.48495 0.07259 0.0
O892 O 0.1277 0.56673 0.11923 0.0
O893 O 0.13382 0.55269 0.19746 0.0
O894 O 0.1194 0.48465 0.11051 0.0
O895 O 0.18153 0.4376 0.1227 0.0
O896 O 0.185 0.4177 0.19427 0.0
O897 O 0.14568 0.48568 0.21143 0.0
C898 C 0.23783 0.52057 0.04681 0.0
C899 C 0.1483 0.44023 0.2168 0.0
Dy900 Dy 0.23122 0.45069 0.89188 0.0
C901 C 0.3827 0.57463 0.86745 0.0
C902 C 0.19498 0.36918 0.91879 0.0
Dy903 Dy 0.30743 0.52077 0.88751 0.0
O904 O 0.16854 0.40881 0.91405 0.0
O905 O 0.24092 0.37369 0.90762 0.0
O906 O 0.19099 0.4621 0.81884 0.0
O907 O 0.25419 0.50038 0.82994 0.0
C908 C 0.22341 0.48857 0.7968 0.0
C909 C 0.33243 0.446 0.93889 0.0
O910 O 0.2711 0.54515 0.96201 0.0
O911 O 0.21389 0.48699 0.96706 0.0
O912 O 0.3822 0.54291 0.90289 0.0
O913 O 0.33901 0.58256 0.84851 0.0
O914 O 0.36522 0.46739 0.91215 0.0
O915 O 0.2909 0.4666 0.93792 0.0
O916 O 0.28935 0.40417 0.85975 0.0
O917 O 0.33183 0.46857 0.82985 0.0
C918 C 0.23747 0.52144 0.98901 0.0
C919 C 0.32395 0.42242 0.83185 0.0
Dy920 Dy 0.30702 0.4855 0.63785 0.0
C921 C 0.17539 0.64803 0.63555 0.0
C922 C 0.39701 0.44508 0.65418 0.0
Dy923 Dy 0.22403 0.56451 0.64504 0.0
O924 O 0.3737 0.44256 0.61314 0.0
O925 O 0.37075 0.46698 0.68687 0.0
O926 O 0.28922 0.45181 0.5655 0.0
O927 O 0.2491 0.51389 0.58461 0.0
C928 C 0.26184 0.48725 0.54734 0.0
C929 C 0.30667 0.5838 0.68687 0.0
O930 O 0.19956 0.52266 0.71392 0.0
O931 O 0.26767 0.46951 0.71545 0.0
O932 O 0.20937 0.63866 0.66738 0.0
O933 O 0.16316 0.60967 0.61326 0.0
O934 O 0.27457 0.61679 0.67462 0.0
O935 O 0.28903 0.54397 0.68231 0.0
O936 O 0.34322 0.54758 0.60162 0.0
O937 O 0.26784 0.57976 0.57718 0.0
C938 C 0.22987 0.49273 0.7394 0.0
C939 C 0.31619 0.58073 0.57788 0.0
Dy940 Dy 0.21142 0.50985 0.40264 0.0
C941 C 0.31755 0.66312 0.40706 0.0
C942 C 0.12038 0.48081 0.40652 0.0
Dy943 Dy 0.26964 0.58403 0.39148 0.0
O944 O 0.14007 0.50298 0.44117 0.0
O945 O 0.15251 0.46837 0.37238 0.0
O946 O 0.23928 0.46144 0.46325 0.0
O947 O 0.26255 0.53388 0.46157 0.0
C948 C 0.25553 0.49535 0.48947 0.0
C949 C 0.18659 0.60501 0.34329 0.0
O950 O 0.29415 0.55008 0.31641 0.0
O951 O 0.24357 0.48736 0.3267 0.0
O952 O 0.30158 0.65205 0.3643 0.0
O953 O 0.31702 0.62704 0.43816 0.0
O954 O 0.20985 0.63707 0.36537 0.0
O955 O 0.21016 0.56574 0.34566 0.0
O956 O 0.15917 0.56493 0.43014 0.0
O957 O 0.22012 0.6129 0.44877 0.0
C958 C 0.27199 0.51359 0.29648 0.0
C959 C 0.17411 0.60226 0.4508 0.0
loop_
_geom_bond_atom_site_label_1
_geom_bond_atom_site_label_2
_geom_bond_distance
_geom_bond_site_symmetry_2
_ccdc_geom_bond_type
Dy0 O4 2.398 . S
Dy0 O5 2.491 . S
Dy0 O6 2.403 . S
Dy0 O7 2.666 . S
Dy0 O11 2.326 . S
Dy0 O15 2.310 1_655 S
Dy0 O16 2.351 1_655 S
C1 O12 1.185 . S
C1 O13 1.355 . S
C2 O4 1.185 . S
C2 O5 1.355 . S
Dy3 O7 2.301 1_455 S
Dy3 O10 2.351 1_455 S
Dy3 O12 2.398 . S
Dy3 O13 2.491 . S
Dy3 O14 2.403 . S
Dy3 O15 2.664 . S
Dy3 O17 2.326 . S
O4 Dy0 2.398 . S
O4 C2 1.185 . S
O5 Dy0 2.491 . S
O5 C2 1.355 . S
O6 Dy0 2.403 . S
O6 C8 1.254 . S
O7 Dy0 2.666 . S
O7 Dy3 2.301 1_655 S
O7 C8 1.280 . S
C8 O6 1.254 . S
C8 O7 1.280 . S
C9 O14 1.254 . S
C9 O15 1.268 . S
O10 Dy3 2.351 1_655 S
O10 C18 1.249 . S
O11 Dy0 2.326 . S
O11 C18 1.267 . S
O12 C1 1.185 . S
O12 Dy3 2.398 . S
O13 C1 1.355 . S
O13 Dy3 2.491 . S
O14 Dy3 2.403 . S
O14 C9 1.254 . S
O15 Dy0 2.310 1_455 S
O15 Dy3 2.664 . S
O15 C9 1.268 . S
O16 Dy0 2.351 1_455 S
O16 C19 1.249 . S
O17 Dy3 2.326 . S
O17 C19 1.267 . S
C18 O10 1.249 . S
C18 O11 1.267 . S
C19 O16 1.249 . S
C19 O17 1.267 . S
Dy20 O24 2.398 . S
Dy20 O25 2.491 . S
Dy20 O26 2.403 . S
Dy20 O27 2.664 . S
Dy20 O31 2.326 . S
Dy20 O35 2.310 . S
Dy20 O36 2.351 . S
C21 O32 1.185 . S
C21 O33 1.355 . S
C22 O24 1.185 . S
C22 O25 1.355 . S
Dy23 O27 2.310 . S
Dy23 O30 2.351 . S
Dy23 O32 2.398 . S
Dy23 O33 2.491 . S
Dy23 O34 2.403 . S
Dy23 O35 2.664 . S
Dy23 O37 2.326 . S
O24 Dy20 2.398 . S
O24 C22 1.185 . S
O25 Dy20 2.491 . S
O25 C22 1.355 . S
O26 Dy20 2.403 . S
O26 C28 1.254 . S
O27 Dy20 2.664 . S
O27 Dy23 2.310 . S
O27 C28 1.268 . S
C28 O26 1.254 . S
C28 O27 1.268 . S
C29 O34 1.254 . S
C29 O35 1.268 . S
O30 Dy23 2.351 . S
O30 C38 1.249 . S
O31 Dy20 2.326 . S
O31 C38 1.267 . S
O32 C21 1.185 . S
O32 Dy23 2.398 . S
O33 C21 1.355 . S
O33 Dy23 2.491 . S
O34 Dy23 2.403 . S
O34 C29 1.254 . S
O35 Dy20 2.310 . S
O35 Dy23 2.664 . S
O35 C29 1.268 . S
O36 Dy20 2.351 . S
O36 C39 1.249 . S
O37 Dy23 2.326 . S
O37 C39 1.267 . S
C38 O30 1.249 . S
C38 O31 1.267 . S
C39 O36 1.249 . S
C39 O37 1.267 . S
Dy40 O44 2.398 . S
Dy40 O45 2.491 . S
Dy40 O46 2.403 . S
Dy40 O47 2.664 . S
Dy40 O51 2.326 . S
Dy40 O55 2.310 . S
Dy40 O56 2.351 . S
C41 O52 1.185 . S
C41 O53 1.355 . S
C42 O44 1.185 . S
C42 O45 1.355 . S
Dy43 O47 2.310 . S
Dy43 O50 2.351 . S
Dy43 O52 2.398 . S
Dy43 O53 2.491 . S
Dy43 O54 2.403 . S
Dy43 O55 2.664 . S
Dy43 O57 2.326 . S
O44 Dy40 2.398 . S
O44 C42 1.185 . S
O45 Dy40 2.491 . S
O45 C42 1.355 . S
O46 Dy40 2.403 . S
O46 C48 1.254 . S
O47 Dy40 2.664 . S
O47 Dy43 2.310 . S
O47 C48 1.268 . S
C48 O46 1.254 . S
C48 O47 1.268 . S
C49 O54 1.254 . S
C49 O55 1.268 . S
O50 Dy43 2.351 . S
O50 C58 1.249 . S
O51 Dy40 2.326 . S
O51 C58 1.267 . S
O52 C41 1.185 . S
O52 Dy43 2.398 . S
O53 C41 1.355 . S
O53 Dy43 2.491 . S
O54 Dy43 2.403 . S
O54 C49 1.254 . S
O55 Dy40 2.310 . S
O55 Dy43 2.664 . S
O55 C49 1.268 . S
O56 Dy40 2.351 . S
O56 C59 1.249 . S
O57 Dy43 2.326 . S
O57 C59 1.267 . S
C58 O50 1.249 . S
C58 O51 1.267 . S
C59 O56 1.249 . S
C59 O57 1.267 . S
Dy60 O64 2.398 1_554 S
Dy60 O65 2.491 1_554 S
Dy60 O66 2.403 . S
Dy60 O67 2.664 . S
Dy60 O71 2.326 . S
Dy60 O75 2.310 . S
Dy60 O76 2.351 . S
C61 O72 1.185 . S
C61 O73 1.355 . S
C62 O64 1.185 . S
C62 O65 1.355 . S
Dy63 O67 2.310 . S
Dy63 O70 2.351 . S
Dy63 O72 2.398 . S
Dy63 O73 2.491 . S
Dy63 O74 2.403 . S
Dy63 O75 2.664 . S
Dy63 O77 2.326 . S
O64 Dy60 2.398 1_556 S
O64 C62 1.185 . S
O65 Dy60 2.491 1_556 S
O65 C62 1.355 . S
O66 Dy60 2.403 . S
O66 C68 1.254 . S
O67 Dy60 2.664 . S
O67 Dy63 2.310 . S
O67 C68 1.268 . S
C68 O66 1.254 . S
C68 O67 1.268 . S
C69 O74 1.254 . S
C69 O75 1.268 . S
O70 Dy63 2.351 . S
O70 C78 1.249 . S
O71 Dy60 2.326 . S
O71 C78 1.267 . S
O72 C61 1.185 . S
O72 Dy63 2.398 . S
O73 C61 1.355 . S
O73 Dy63 2.491 . S
O74 Dy63 2.403 . S
O74 C69 1.254 . S
O75 Dy60 2.310 . S
O75 Dy63 2.664 . S
O75 C69 1.268 . S
O76 Dy60 2.351 . S
O76 C79 1.249 . S
O77 Dy63 2.326 . S
O77 C79 1.267 . S
C78 O70 1.249 . S
C78 O71 1.267 . S
C79 O76 1.249 . S
C79 O77 1.267 . S
Dy80 O84 2.398 . S
Dy80 O85 2.491 . S
Dy80 O86 2.403 1_655 S
Dy80 O87 2.664 1_655 S
Dy80 O91 2.326 1_655 S
Dy80 O95 2.310 . S
Dy80 O96 2.351 . S
C81 O92 1.185 . S
C81 O93 1.355 . S
C82 O84 1.185 . S
C82 O85 1.355 . S
Dy83 O87 2.310 . S
Dy83 O90 2.351 . S
Dy83 O92 2.398 . S
Dy83 O93 2.491 . S
Dy83 O94 2.403 . S
Dy83 O95 2.664 1_455 S
Dy83 O97 2.326 . S
O84 Dy80 2.398 . S
O84 C82 1.185 . S
O85 Dy80 2.491 . S
O85 C82 1.355 . S
O86 Dy80 2.403 1_455 S
O86 C88 1.254 . S
O87 Dy80 2.664 1_455 S
O87 Dy83 2.310 . S
O87 C88 1.268 . S
C88 O86 1.254 . S
C88 O87 1.268 . S
C89 O94 1.254 1_655 S
C89 O95 1.268 . S
O90 Dy83 2.351 . S
O90 C98 1.249 . S
O91 Dy80 2.326 1_455 S
O91 C98 1.267 . S
O92 C81 1.185 . S
O92 Dy83 2.398 . S
O93 C81 1.355 . S
O93 Dy83 2.491 . S
O94 Dy83 2.403 . S
O94 C89 1.254 1_455 S
O95 Dy80 2.310 . S
O95 Dy83 2.664 1_655 S
O95 C89 1.268 . S
O96 Dy80 2.351 . S
O96 C99 1.249 . S
O97 Dy83 2.326 . S
O97 C99 1.267 1_455 S
C98 O90 1.249 . S
C98 O91 1.267 . S
C99 O96 1.249 . S
C99 O97 1.267 1_655 S
Dy100 O104 2.398 . S
Dy100 O105 2.491 . S
Dy100 O106 2.403 . S
Dy100 O107 2.664 . S
Dy100 O111 2.326 . S
Dy100 O115 2.310 . S
Dy100 O116 2.351 . S
C101 O112 1.185 . S
C101 O113 1.355 . S
C102 O104 1.185 . S
C102 O105 1.355 . S
Dy103 O107 2.310 . S
Dy103 O110 2.351 . S
Dy103 O112 2.398 . S
Dy103 O113 2.491 . S
Dy103 O114 2.403 . S
Dy103 O115 2.664 . S
Dy103 O117 2.326 . S
O104 Dy100 2.398 . S
O104 C102 1.185 . S
O105 Dy100 2.491 . S
O105 C102 1.355 . S
O106 Dy100 2.403 . S
O106 C108 1.254 . S
O107 Dy100 2.664 . S
O107 Dy103 2.310 . S
O107 C108 1.268 . S
C108 O106 1.254 . S
C108 O107 1.268 . S
C109 O114 1.254 . S
C109 O115 1.268 . S
O110 Dy103 2.351 . S
O110 C118 1.249 . S
O111 Dy100 2.326 . S
O111 C118 1.267 . S
O112 C101 1.185 . S
O112 Dy103 2.398 . S
O113 C101 1.355 . S
O113 Dy103 2.491 . S
O114 Dy103 2.403 . S
O114 C109 1.254 . S
O115 Dy100 2.310 . S
O115 Dy103 2.664 . S
O115 C109 1.268 . S
O116 Dy100 2.351 . S
O116 C119 1.249 . S
O117 Dy103 2.326 . S
O117 C119 1.267 . S
C118 O110 1.249 . S
C118 O111 1.267 . S
C119 O116 1.249 . S
C119 O117 1.267 . S
Dy120 O124 2.398 . S
Dy120 O125 2.491 . S
Dy120 O126 2.403 . S
Dy120 O127 2.664 . S
Dy120 O131 2.326 . S
Dy120 O135 2.310 . S
Dy120 O136 2.351 . S
C121 O132 1.185 . S
C121 O133 1.355 . S
C122 O124 1.185 . S
C122 O125 1.355 . S
Dy123 O127 2.310 . S
Dy123 O130 2.351 . S
Dy123 O132 2.398 . S
Dy123 O133 2.491 . S
Dy123 O134 2.403 . S
Dy123 O135 2.664 . S
Dy123 O137 2.326 . S
O124 Dy120 2.398 . S
O124 C122 1.185 . S
O125 Dy120 2.491 . S
O125 C122 1.355 . S
O126 Dy120 2.403 . S
O126 C128 1.254 . S
O127 Dy120 2.664 . S
O127 Dy123 2.310 . S
O127 C128 1.268 . S
C128 O126 1.254 . S
C128 O127 1.268 . S
C129 O134 1.254 . S
C129 O135 1.268 . S
O130 Dy123 2.351 . S
O130 C138 1.249 . S
O131 Dy120 2.326 . S
O131 C138 1.267 . S
O132 C121 1.185 . S
O132 Dy123 2.398 . S
O133 C121 1.355 . S
O133 Dy123 2.491 . S
O134 Dy123 2.403 . S
O134 C129 1.254 . S
O135 Dy120 2.310 . S
O135 Dy123 2.664 . S
O135 C129 1.268 . S
O136 Dy120 2.351 . S
O136 C139 1.249 . S
O137 Dy123 2.326 . S
O137 C139 1.267 . S
C138 O130 1.249 . S
C138 O131 1.267 . S
C139 O136 1.249 . S
C139 O137 1.267 . S
Dy140 O144 2.398 . S
Dy140 O145 2.491 . S
Dy140 O146 2.403 . S
Dy140 O147 2.664 . S
Dy140 O151 2.326 . S
Dy140 O155 2.310 1_556 S
Dy140 O156 2.351 1_556 S
C141 O152 1.185 . S
C141 O153 1.355 . S
C142 O144 1.185 . S
C142 O145 1.355 . S
Dy143 O147 2.310 1_554 S
Dy143 O150 2.351 1_554 S
Dy143 O152 2.398 . S
Dy143 O153 2.491 . S
Dy143 O154 2.403 . S
Dy143 O155 2.664 . S
Dy143 O157 2.326 . S
O144 Dy140 2.398 . S
O144 C142 1.185 . S
O145 Dy140 2.491 . S
O145 C142 1.355 . S
O146 Dy140 2.403 . S
O146 C148 1.254 . S
O147 Dy140 2.664 . S
O147 Dy143 2.310 1_556 S
O147 C148 1.268 . S
C148 O146 1.254 . S
C148 O147 1.268 . S
C149 O154 1.254 . S
C149 O155 1.268 . S
O150 Dy143 2.351 1_556 S
O150 C158 1.249 . S
O151 Dy140 2.326 . S
O151 C158 1.267 . S
O152 C141 1.185 . S
O152 Dy143 2.398 . S
O153 C141 1.355 . S
O153 Dy143 2.491 . S
O154 Dy143 2.403 . S
O154 C149 1.254 . S
O155 Dy140 2.310 1_554 S
O155 Dy143 2.664 . S
O155 C149 1.268 . S
O156 Dy140 2.351 1_554 S
O156 C159 1.249 . S
O157 Dy143 2.326 . S
O157 C159 1.267 . S
C158 O150 1.249 . S
C158 O151 1.267 . S
C159 O156 1.249 . S
C159 O157 1.267 . S
Dy160 O164 2.398 . S
Dy160 O165 2.491 . S
Dy160 O166 2.403 1_565 S
Dy160 O167 2.664 1_565 S
Dy160 O171 2.326 1_565 S
Dy160 O175 2.310 1_565 S
Dy160 O176 2.351 . S
C161 O172 1.185 . S
C161 O173 1.355 . S
C162 O164 1.185 . S
C162 O165 1.355 . S
Dy163 O167 2.310 . S
Dy163 O170 2.351 . S
Dy163 O172 2.398 . S
Dy163 O173 2.491 . S
Dy163 O174 2.403 . S
Dy163 O175 2.664 . S
Dy163 O177 2.326 . S
O164 Dy160 2.398 . S
O164 C162 1.185 . S
O165 Dy160 2.491 . S
O165 C162 1.355 . S
O166 Dy160 2.403 1_545 S
O166 C168 1.254 . S
O167 Dy160 2.664 1_545 S
O167 Dy163 2.310 . S
O167 C168 1.268 . S
C168 O166 1.254 . S
C168 O167 1.268 . S
C169 O174 1.254 . S
C169 O175 1.268 . S
O170 Dy163 2.351 . S
O170 C178 1.249 . S
O171 Dy160 2.326 1_545 S
O171 C178 1.267 . S
O172 C161 1.185 . S
O172 Dy163 2.398 . S
O173 C161 1.355 . S
O173 Dy163 2.491 . S
O174 Dy163 2.403 . S
O174 C169 1.254 . S
O175 Dy160 2.310 1_545 S
O175 Dy163 2.664 . S
O175 C169 1.268 . S
O176 Dy160 2.351 . S
O176 C179 1.249 1_565 S
O177 Dy163 2.326 . S
O177 C179 1.267 . S
C178 O170 1.249 . S
C178 O171 1.267 . S
C179 O176 1.249 1_545 S
C179 O177 1.267 . S
Dy180 O184 2.398 . S
Dy180 O185 2.491 . S
Dy180 O186 2.403 1_565 S
Dy180 O187 2.664 1_565 S
Dy180 O191 2.326 1_565 S
Dy180 O195 2.310 1_565 S
Dy180 O196 2.351 . S
C181 O192 1.185 . S
C181 O193 1.355 . S
C182 O184 1.185 . S
C182 O185 1.355 . S
Dy183 O187 2.310 . S
Dy183 O190 2.351 . S
Dy183 O192 2.398 . S
Dy183 O193 2.491 . S
Dy183 O194 2.403 . S
Dy183 O195 2.664 . S
Dy183 O197 2.326 . S
O184 Dy180 2.398 . S
O184 C182 1.185 . S
O185 Dy180 2.491 . S
O185 C182 1.355 . S
O186 Dy180 2.403 1_545 S
O186 C188 1.254 . S
O187 Dy180 2.664 1_545 S
O187 Dy183 2.310 . S
O187 C188 1.268 . S
C188 O186 1.254 . S
C188 O187 1.268 . S
C189 O194 1.254 . S
C189 O195 1.268 . S
O190 Dy183 2.351 . S
O190 C198 1.249 . S
O191 Dy180 2.326 1_545 S
O191 C198 1.267 . S
O192 C181 1.185 . S
O192 Dy183 2.398 . S
O193 C181 1.355 . S
O193 Dy183 2.491 . S
O194 Dy183 2.403 . S
O194 C189 1.254 . S
O195 Dy180 2.310 1_545 S
O195 Dy183 2.664 . S
O195 C189 1.268 . S
O196 Dy180 2.351 . S
O196 C199 1.249 1_565 S
O197 Dy183 2.326 . S
O197 C199 1.267 . S
C198 O190 1.249 . S
C198 O191 1.267 . S
C199 O196 1.249 1_545 S
C199 O197 1.267 . S
Dy200 O204 2.398 . S
Dy200 O205 2.491 . S
Dy200 O206 2.403 . S
Dy200 O207 2.664 . S
Dy200 O211 2.326 . S
Dy200 O215 2.304 1_565 S
Dy200 O216 2.351 1_565 S
C201 O212 1.185 . S
C201 O213 1.355 . S
C202 O204 1.185 . S
C202 O205 1.355 . S
Dy203 O207 2.310 1_545 S
Dy203 O210 2.351 1_545 S
Dy203 O212 2.398 . S
Dy203 O213 2.491 . S
Dy203 O214 2.403 . S
Dy203 O215 2.667 . S
Dy203 O217 2.326 . S
O204 Dy200 2.398 . S
O204 C202 1.185 . S
O205 Dy200 2.491 . S
O205 C202 1.355 . S
O206 Dy200 2.403 . S
O206 C208 1.254 . S
O207 Dy200 2.664 . S
O207 Dy203 2.310 1_565 S
O207 C208 1.268 . S
C208 O206 1.254 . S
C208 O207 1.268 . S
C209 O214 1.254 . S
C209 O215 1.274 . S
O210 Dy203 2.351 1_565 S
O210 C218 1.249 . S
O211 Dy200 2.326 . S
O211 C218 1.267 . S
O212 C201 1.185 . S
O212 Dy203 2.398 . S
O213 C201 1.355 . S
O213 Dy203 2.491 . S
O214 Dy203 2.403 . S
O214 C209 1.254 . S
O215 Dy200 2.304 1_545 S
O215 Dy203 2.667 . S
O215 C209 1.274 . S
O216 Dy200 2.351 1_545 S
O216 C219 1.249 . S
O217 Dy203 2.326 . S
O217 C219 1.267 . S
C218 O210 1.249 . S
C218 O211 1.267 . S
C219 O216 1.249 . S
C219 O217 1.267 . S
Dy220 O224 2.398 . S
Dy220 O225 2.491 . S
Dy220 O226 2.403 . S
Dy220 O227 2.664 . S
Dy220 O231 2.326 . S
Dy220 O235 2.310 . S
Dy220 O236 2.351 . S
C221 O232 1.185 . S
C221 O233 1.355 . S
C222 O224 1.185 . S
C222 O225 1.355 . S
Dy223 O227 2.310 1_545 S
Dy223 O230 2.351 1_545 S
Dy223 O232 2.398 . S
Dy223 O233 2.491 . S
Dy223 O234 2.403 . S
Dy223 O235 2.664 1_545 S
Dy223 O237 2.326 . S
O224 Dy220 2.398 . S
O224 C222 1.185 . S
O225 Dy220 2.491 . S
O225 C222 1.355 . S
O226 Dy220 2.403 . S
O226 C228 1.254 . S
O227 Dy220 2.664 . S
O227 Dy223 2.310 1_565 S
O227 C228 1.268 . S
C228 O226 1.254 . S
C228 O227 1.268 . S
C229 O234 1.254 . S
C229 O235 1.268 1_545 S
O230 Dy223 2.351 1_565 S
O230 C238 1.249 . S
O231 Dy220 2.326 . S
O231 C238 1.267 . S
O232 C221 1.185 . S
O232 Dy223 2.398 . S
O233 C221 1.355 . S
O233 Dy223 2.491 . S
O234 Dy223 2.403 . S
O234 C229 1.254 . S
O235 Dy220 2.310 . S
O235 Dy223 2.664 1_565 S
O235 C229 1.268 1_565 S
O236 Dy220 2.351 . S
O236 C239 1.249 1_565 S
O237 Dy223 2.326 . S
O237 C239 1.267 . S
C238 O230 1.249 . S
C238 O231 1.267 . S
C239 O236 1.249 1_545 S
C239 O237 1.267 . S
Dy240 O244 2.398 . S
Dy240 O245 2.491 . S
Dy240 O246 2.403 . S
Dy240 O247 2.664 . S
Dy240 O251 2.326 . S
Dy240 O255 2.310 . S
Dy240 O256 2.351 . S
C241 O252 1.185 . S
C241 O253 1.355 . S
C242 O244 1.185 . S
C242 O245 1.355 . S
Dy243 O247 2.310 . S
Dy243 O250 2.351 . S
Dy243 O252 2.398 1_554 S
Dy243 O253 2.491 1_554 S
Dy243 O254 2.403 1_554 S
Dy243 O255 2.664 . S
Dy243 O257 2.326 1_554 S
O244 Dy240 2.398 . S
O244 C242 1.185 . S
O245 Dy240 2.491 . S
O245 C242 1.355 . S
O246 Dy240 2.403 . S
O246 C248 1.254 . S
O247 Dy240 2.664 . S
O247 Dy243 2.310 . S
O247 C248 1.268 . S
C248 O246 1.254 . S
C248 O247 1.268 . S
C249 O254 1.254 . S
C249 O255 1.268 1_556 S
O250 Dy243 2.351 . S
O250 C258 1.249 . S
O251 Dy240 2.326 . S
O251 C258 1.267 . S
O252 C241 1.185 . S
O252 Dy243 2.398 1_556 S
O253 C241 1.355 . S
O253 Dy243 2.491 1_556 S
O254 Dy243 2.403 1_556 S
O254 C249 1.254 . S
O255 Dy240 2.310 . S
O255 Dy243 2.664 . S
O255 C249 1.268 1_554 S
O256 Dy240 2.351 . S
O256 C259 1.249 1_554 S
O257 Dy243 2.326 1_556 S
O257 C259 1.267 . S
C258 O250 1.249 . S
C258 O251 1.267 . S
C259 O256 1.249 1_556 S
C259 O257 1.267 . S
Dy260 O264 2.398 . S
Dy260 O265 2.491 . S
Dy260 O266 2.403 1_455 S
Dy260 O267 2.664 1_455 S
Dy260 O271 2.326 1_455 S
Dy260 O275 2.310 . S
Dy260 O276 2.351 . S
C261 O272 1.185 . S
C261 O273 1.355 . S
C262 O264 1.185 . S
C262 O265 1.355 . S
Dy263 O267 2.310 . S
Dy263 O270 2.351 . S
Dy263 O272 2.398 . S
Dy263 O273 2.491 . S
Dy263 O274 2.403 . S
Dy263 O275 2.664 1_655 S
Dy263 O277 2.326 . S
O264 Dy260 2.398 . S
O264 C262 1.185 . S
O265 Dy260 2.491 . S
O265 C262 1.355 . S
O266 Dy260 2.403 1_655 S
O266 C268 1.254 . S
O267 Dy260 2.664 1_655 S
O267 Dy263 2.310 . S
O267 C268 1.268 . S
C268 O266 1.254 . S
C268 O267 1.268 . S
C269 O274 1.254 1_455 S
C269 O275 1.268 . S
O270 Dy263 2.351 . S
O270 C278 1.249 . S
O271 Dy260 2.326 1_655 S
O271 C278 1.267 . S
O272 C261 1.185 . S
O272 Dy263 2.398 . S
O273 C261 1.355 . S
O273 Dy263 2.491 . S
O274 Dy263 2.403 . S
O274 C269 1.254 1_655 S
O275 Dy260 2.310 . S
O275 Dy263 2.664 1_455 S
O275 C269 1.268 . S
O276 Dy260 2.351 . S
O276 C279 1.249 . S
O277 Dy263 2.326 . S
O277 C279 1.267 1_655 S
C278 O270 1.249 . S
C278 O271 1.267 . S
C279 O276 1.249 . S
C279 O277 1.267 1_455 S
Dy280 O284 2.398 . S
Dy280 O285 2.491 . S
Dy280 O286 2.403 . S
Dy280 O287 2.664 . S
Dy280 O291 2.326 . S
Dy280 O295 2.310 . S
Dy280 O296 2.351 . S
C281 O292 1.185 . S
C281 O293 1.355 . S
C282 O284 1.185 . S
C282 O285 1.355 . S
Dy283 O287 2.310 . S
Dy283 O290 2.351 . S
Dy283 O292 2.398 . S
Dy283 O293 2.491 . S
Dy283 O294 2.403 . S
Dy283 O295 2.664 . S
Dy283 O297 2.326 . S
O284 Dy280 2.398 . S
O284 C282 1.185 . S
O285 Dy280 2.491 . S
O285 C282 1.355 . S
O286 Dy280 2.403 . S
O286 C288 1.254 . S
O287 Dy280 2.664 . S
O287 Dy283 2.310 . S
O287 C288 1.268 . S
C288 O286 1.254 . S
C288 O287 1.268 . S
C289 O294 1.254 . S
C289 O295 1.268 . S
O290 Dy283 2.351 . S
O290 C298 1.249 . S
O291 Dy280 2.326 . S
O291 C298 1.267 . S
O292 C281 1.185 . S
O292 Dy283 2.398 . S
O293 C281 1.355 . S
O293 Dy283 2.491 . S
O294 Dy283 2.403 . S
O294 C289 1.254 . S
O295 Dy280 2.310 . S
O295 Dy283 2.664 . S
O295 C289 1.268 . S
O296 Dy280 2.351 . S
O296 C299 1.249 . S
O297 Dy283 2.326 . S
O297 C299 1.267 . S
C298 O290 1.249 . S
C298 O291 1.267 . S
C299 O296 1.249 . S
C299 O297 1.267 . S
Dy300 O304 2.398 . S
Dy300 O305 2.491 . S
Dy300 O306 2.403 . S
Dy300 O307 2.664 . S
Dy300 O311 2.326 . S
Dy300 O315 2.301 1_655 S
Dy300 O316 2.351 1_655 S
C301 O312 1.185 . S
C301 O313 1.355 . S
C302 O304 1.185 . S
C302 O305 1.355 . S
Dy303 O307 2.310 1_455 S
Dy303 O310 2.351 1_455 S
Dy303 O312 2.398 . S
Dy303 O313 2.491 . S
Dy303 O314 2.403 . S
Dy303 O315 2.666 . S
Dy303 O317 2.326 . S
O304 Dy300 2.398 . S
O304 C302 1.185 . S
O305 Dy300 2.491 . S
O305 C302 1.355 . S
O306 Dy300 2.403 . S
O306 C308 1.254 . S
O307 Dy300 2.664 . S
O307 Dy303 2.310 1_655 S
O307 C308 1.268 . S
C308 O306 1.254 . S
C308 O307 1.268 . S
C309 O314 1.254 . S
C309 O315 1.280 . S
O310 Dy303 2.351 1_655 S
O310 C318 1.249 . S
O311 Dy300 2.326 . S
O311 C318 1.267 . S
O312 C301 1.185 . S
O312 Dy303 2.398 . S
O313 C301 1.355 . S
O313 Dy303 2.491 . S
O314 Dy303 2.403 . S
O314 C309 1.254 . S
O315 Dy300 2.301 1_455 S
O315 Dy303 2.666 . S
O315 C309 1.280 . S
O316 Dy300 2.351 1_455 S
O316 C319 1.249 . S
O317 Dy303 2.326 . S
O317 C319 1.267 . S
C318 O310 1.249 . S
C318 O311 1.267 . S
C319 O316 1.249 . S
C319 O317 1.267 . S
Dy320 O324 2.398 . S
Dy320 O325 2.491 . S
Dy320 O326 2.403 . S
Dy320 O327 2.664 . S
Dy320 O331 2.326 . S
Dy320 O335 2.310 . S
Dy320 O336 2.351 . S
C321 O332 1.185 . S
C321 O333 1.355 . S
C322 O324 1.185 . S
C322 O325 1.355 . S
Dy323 O327 2.310 . S
Dy323 O330 2.351 . S
Dy323 O332 2.398 . S
Dy323 O333 2.491 . S
Dy323 O334 2.403 . S
Dy323 O335 2.664 . S
Dy323 O337 2.326 . S
O324 Dy320 2.398 . S
O324 C322 1.185 . S
O325 Dy320 2.491 . S
O325 C322 1.355 . S
O326 Dy320 2.403 . S
O326 C328 1.254 . S
O327 Dy320 2.664 . S
O327 Dy323 2.310 . S
O327 C328 1.268 . S
C328 O326 1.254 . S
C328 O327 1.268 . S
C329 O334 1.254 . S
C329 O335 1.268 . S
O330 Dy323 2.351 . S
O330 C338 1.249 . S
O331 Dy320 2.326 . S
O331 C338 1.267 . S
O332 C321 1.185 . S
O332 Dy323 2.398 . S
O333 C321 1.355 . S
O333 Dy323 2.491 . S
O334 Dy323 2.403 . S
O334 C329 1.254 . S
O335 Dy320 2.310 . S
O335 Dy323 2.664 . S
O335 C329 1.268 . S
O336 Dy320 2.351 . S
O336 C339 1.249 . S
O337 Dy323 2.326 . S
O337 C339 1.267 . S
C338 O330 1.249 . S
C338 O331 1.267 . S
C339 O336 1.249 . S
C339 O337 1.267 . S
Dy340 O344 2.398 . S
Dy340 O345 2.491 . S
Dy340 O346 2.403 . S
Dy340 O347 2.664 . S
Dy340 O351 2.326 . S
Dy340 O355 2.310 . S
Dy340 O356 2.351 . S
C341 O352 1.185 . S
C341 O353 1.355 . S
C342 O344 1.185 . S
C342 O345 1.355 . S
Dy343 O347 2.310 . S
Dy343 O350 2.351 . S
Dy343 O352 2.398 . S
Dy343 O353 2.491 . S
Dy343 O354 2.403 . S
Dy343 O355 2.664 . S
Dy343 O357 2.326 . S
O344 Dy340 2.398 . S
O344 C342 1.185 . S
O345 Dy340 2.491 . S
O345 C342 1.355 . S
O346 Dy340 2.403 . S
O346 C348 1.254 . S
O347 Dy340 2.664 . S
O347 Dy343 2.310 . S
O347 C348 1.268 . S
C348 O346 1.254 . S
C348 O347 1.268 . S
C349 O354 1.254 . S
C349 O355 1.268 . S
O350 Dy343 2.351 . S
O350 C358 1.249 . S
O351 Dy340 2.326 . S
O351 C358 1.267 . S
O352 C341 1.185 . S
O352 Dy343 2.398 . S
O353 C341 1.355 . S
O353 Dy343 2.491 . S
O354 Dy343 2.403 . S
O354 C349 1.254 . S
O355 Dy340 2.310 . S
O355 Dy343 2.664 . S
O355 C349 1.268 . S
O356 Dy340 2.351 . S
O356 C359 1.249 . S
O357 Dy343 2.326 . S
O357 C359 1.267 . S
C358 O350 1.249 . S
C358 O351 1.267 . S
C359 O356 1.249 . S
C359 O357 1.267 . S
Dy360 O364 2.398 . S
Dy360 O365 2.491 . S
Dy360 O366 2.403 . S
Dy360 O367 2.664 . S
Dy360 O371 2.326 . S
Dy360 O375 2.310 . S
Dy360 O376 2.351 . S
C361 O372 1.185 . S
C361 O373 1.355 . S
C362 O364 1.185 . S
C362 O365 1.355 . S
Dy363 O367 2.310 . S
Dy363 O370 2.351 . S
Dy363 O372 2.398 1_556 S
Dy363 O373 2.491 1_556 S
Dy363 O374 2.403 . S
Dy363 O375 2.664 . S
Dy363 O377 2.326 . S
O364 Dy360 2.398 . S
O364 C362 1.185 . S
O365 Dy360 2.491 . S
O365 C362 1.355 . S
O366 Dy360 2.403 . S
O366 C368 1.254 . S
O367 Dy360 2.664 . S
O367 Dy363 2.310 . S
O367 C368 1.268 . S
C368 O366 1.254 . S
C368 O367 1.268 . S
C369 O374 1.254 . S
C369 O375 1.268 . S
O370 Dy363 2.351 . S
O370 C378 1.249 . S
O371 Dy360 2.326 . S
O371 C378 1.267 . S
O372 C361 1.185 . S
O372 Dy363 2.398 1_554 S
O373 C361 1.355 . S
O373 Dy363 2.491 1_554 S
O374 Dy363 2.403 . S
O374 C369 1.254 . S
O375 Dy360 2.310 . S
O375 Dy363 2.664 . S
O375 C369 1.268 . S
O376 Dy360 2.351 . S
O376 C379 1.249 . S
O377 Dy363 2.326 . S
O377 C379 1.267 . S
C378 O370 1.249 . S
C378 O371 1.267 . S
C379 O376 1.249 . S
C379 O377 1.267 . S
Dy380 O384 2.398 . S
Dy380 O385 2.491 . S
Dy380 O386 2.403 . S
Dy380 O387 2.664 1_655 S
Dy380 O391 2.326 . S
Dy380 O395 2.310 . S
Dy380 O396 2.351 . S
C381 O392 1.185 . S
C381 O393 1.355 . S
C382 O384 1.185 . S
C382 O385 1.355 . S
Dy383 O387 2.310 . S
Dy383 O390 2.351 . S
Dy383 O392 2.398 . S
Dy383 O393 2.491 . S
Dy383 O394 2.403 1_455 S
Dy383 O395 2.664 1_455 S
Dy383 O397 2.326 1_455 S
O384 Dy380 2.398 . S
O384 C382 1.185 . S
O385 Dy380 2.491 . S
O385 C382 1.355 . S
O386 Dy380 2.403 . S
O386 C388 1.254 1_655 S
O387 Dy380 2.664 1_455 S
O387 Dy383 2.310 . S
O387 C388 1.268 . S
C388 O386 1.254 1_455 S
C388 O387 1.268 . S
C389 O394 1.254 . S
C389 O395 1.268 . S
O390 Dy383 2.351 . S
O390 C398 1.249 . S
O391 Dy380 2.326 . S
O391 C398 1.267 1_655 S
O392 C381 1.185 . S
O392 Dy383 2.398 . S
O393 C381 1.355 . S
O393 Dy383 2.491 . S
O394 Dy383 2.403 1_655 S
O394 C389 1.254 . S
O395 Dy380 2.310 . S
O395 Dy383 2.664 1_655 S
O395 C389 1.268 . S
O396 Dy380 2.351 . S
O396 C399 1.249 . S
O397 Dy383 2.326 1_655 S
O397 C399 1.267 . S
C398 O390 1.249 . S
C398 O391 1.267 1_455 S
C399 O396 1.249 . S
C399 O397 1.267 . S
Dy400 O404 2.398 . S
Dy400 O405 2.491 . S
Dy400 O406 2.403 . S
Dy400 O407 2.664 . S
Dy400 O411 2.326 . S
Dy400 O415 2.310 . S
Dy400 O416 2.351 . S
C401 O412 1.185 . S
C401 O413 1.355 . S
C402 O404 1.185 . S
C402 O405 1.355 . S
Dy403 O407 2.310 . S
Dy403 O410 2.351 . S
Dy403 O412 2.398 . S
Dy403 O413 2.491 . S
Dy403 O414 2.403 . S
Dy403 O415 2.664 . S
Dy403 O417 2.326 . S
O404 Dy400 2.398 . S
O404 C402 1.185 . S
O405 Dy400 2.491 . S
O405 C402 1.355 . S
O406 Dy400 2.403 . S
O406 C408 1.254 . S
O407 Dy400 2.664 . S
O407 Dy403 2.310 . S
O407 C408 1.268 . S
C408 O406 1.254 . S
C408 O407 1.268 . S
C409 O414 1.254 . S
C409 O415 1.268 . S
O410 Dy403 2.351 . S
O410 C418 1.249 . S
O411 Dy400 2.326 . S
O411 C418 1.267 . S
O412 C401 1.185 . S
O412 Dy403 2.398 . S
O413 C401 1.355 . S
O413 Dy403 2.491 . S
O414 Dy403 2.403 . S
O414 C409 1.254 . S
O415 Dy400 2.310 . S
O415 Dy403 2.664 . S
O415 C409 1.268 . S
O416 Dy400 2.351 . S
O416 C419 1.249 . S
O417 Dy403 2.326 . S
O417 C419 1.267 . S
C418 O410 1.249 . S
C418 O411 1.267 . S
C419 O416 1.249 . S
C419 O417 1.267 . S
Dy420 O424 2.398 . S
Dy420 O425 2.491 . S
Dy420 O426 2.403 . S
Dy420 O427 2.664 . S
Dy420 O431 2.326 . S
Dy420 O435 2.310 . S
Dy420 O436 2.351 . S
C421 O432 1.185 . S
C421 O433 1.355 . S
C422 O424 1.185 . S
C422 O425 1.355 . S
Dy423 O427 2.310 . S
Dy423 O430 2.351 . S
Dy423 O432 2.398 . S
Dy423 O433 2.491 . S
Dy423 O434 2.403 . S
Dy423 O435 2.664 . S
Dy423 O437 2.326 . S
O424 Dy420 2.398 . S
O424 C422 1.185 . S
O425 Dy420 2.491 . S
O425 C422 1.355 . S
O426 Dy420 2.403 . S
O426 C428 1.254 . S
O427 Dy420 2.664 . S
O427 Dy423 2.310 . S
O427 C428 1.268 . S
C428 O426 1.254 . S
C428 O427 1.268 . S
C429 O434 1.254 . S
C429 O435 1.268 . S
O430 Dy423 2.351 . S
O430 C438 1.249 . S
O431 Dy420 2.326 . S
O431 C438 1.267 . S
O432 C421 1.185 . S
O432 Dy423 2.398 . S
O433 C421 1.355 . S
O433 Dy423 2.491 . S
O434 Dy423 2.403 . S
O434 C429 1.254 . S
O435 Dy420 2.310 . S
O435 Dy423 2.664 . S
O435 C429 1.268 . S
O436 Dy420 2.351 . S
O436 C439 1.249 . S
O437 Dy423 2.326 . S
O437 C439 1.267 . S
C438 O430 1.249 . S
C438 O431 1.267 . S
C439 O436 1.249 . S
C439 O437 1.267 . S
Dy440 O444 2.398 . S
Dy440 O445 2.491 . S
Dy440 O446 2.403 . S
Dy440 O447 2.664 . S
Dy440 O451 2.326 . S
Dy440 O455 2.310 1_556 S
Dy440 O456 2.351 1_556 S
C441 O452 1.185 . S
C441 O453 1.355 . S
C442 O444 1.185 . S
C442 O445 1.355 . S
Dy443 O447 2.310 1_554 S
Dy443 O450 2.351 1_554 S
Dy443 O452 2.398 . S
Dy443 O453 2.491 . S
Dy443 O454 2.403 . S
Dy443 O455 2.664 . S
Dy443 O457 2.326 . S
O444 Dy440 2.398 . S
O444 C442 1.185 . S
O445 Dy440 2.491 . S
O445 C442 1.355 . S
O446 Dy440 2.403 . S
O446 C448 1.254 . S
O447 Dy440 2.664 . S
O447 Dy443 2.310 1_556 S
O447 C448 1.268 . S
C448 O446 1.254 . S
C448 O447 1.268 . S
C449 O454 1.254 . S
C449 O455 1.268 . S
O450 Dy443 2.351 1_556 S
O450 C458 1.249 . S
O451 Dy440 2.326 . S
O451 C458 1.267 . S
O452 C441 1.185 . S
O452 Dy443 2.398 . S
O453 C441 1.355 . S
O453 Dy443 2.491 . S
O454 Dy443 2.403 . S
O454 C449 1.254 . S
O455 Dy440 2.310 1_554 S
O455 Dy443 2.664 . S
O455 C449 1.268 . S
O456 Dy440 2.351 1_554 S
O456 C459 1.249 . S
O457 Dy443 2.326 . S
O457 C459 1.267 . S
C458 O450 1.249 . S
C458 O451 1.267 . S
C459 O456 1.249 . S
C459 O457 1.267 . S
Dy460 O464 2.398 . S
Dy460 O465 2.491 . S
Dy460 O466 2.403 . S
Dy460 O467 2.664 . S
Dy460 O471 2.326 . S
Dy460 O475 2.310 . S
Dy460 O476 2.351 . S
C461 O472 1.185 . S
C461 O473 1.355 . S
C462 O464 1.185 . S
C462 O465 1.355 . S
Dy463 O467 2.310 1_545 S
Dy463 O470 2.351 . S
Dy463 O472 2.398 . S
Dy463 O473 2.491 . S
Dy463 O474 2.403 1_545 S
Dy463 O475 2.664 1_545 S
Dy463 O477 2.326 1_545 S
O464 Dy460 2.398 . S
O464 C462 1.185 . S
O465 Dy460 2.491 . S
O465 C462 1.355 . S
O466 Dy460 2.403 . S
O466 C468 1.254 . S
O467 Dy460 2.664 . S
O467 Dy463 2.310 1_565 S
O467 C468 1.268 . S
C468 O466 1.254 . S
C468 O467 1.268 . S
C469 O474 1.254 . S
C469 O475 1.268 . S
O470 Dy463 2.351 . S
O470 C478 1.249 1_545 S
O471 Dy460 2.326 . S
O471 C478 1.267 . S
O472 C461 1.185 . S
O472 Dy463 2.398 . S
O473 C461 1.355 . S
O473 Dy463 2.491 . S
O474 Dy463 2.403 1_565 S
O474 C469 1.254 . S
O475 Dy460 2.310 . S
O475 Dy463 2.664 1_565 S
O475 C469 1.268 . S
O476 Dy460 2.351 . S
O476 C479 1.249 . S
O477 Dy463 2.326 1_565 S
O477 C479 1.267 . S
C478 O470 1.249 1_565 S
C478 O471 1.267 . S
C479 O476 1.249 . S
C479 O477 1.267 . S
Dy480 O484 2.398 . S
Dy480 O485 2.491 . S
Dy480 O486 2.403 . S
Dy480 O487 2.664 . S
Dy480 O491 2.326 . S
Dy480 O495 2.310 . S
Dy480 O496 2.351 . S
C481 O492 1.185 . S
C481 O493 1.355 . S
C482 O484 1.185 . S
C482 O485 1.355 . S
Dy483 O487 2.310 1_545 S
Dy483 O490 2.351 . S
Dy483 O492 2.398 . S
Dy483 O493 2.491 . S
Dy483 O494 2.403 1_545 S
Dy483 O495 2.664 1_545 S
Dy483 O497 2.326 1_545 S
O484 Dy480 2.398 . S
O484 C482 1.185 . S
O485 Dy480 2.491 . S
O485 C482 1.355 . S
O486 Dy480 2.403 . S
O486 C488 1.254 . S
O487 Dy480 2.664 . S
O487 Dy483 2.310 1_565 S
O487 C488 1.268 . S
C488 O486 1.254 . S
C488 O487 1.268 . S
C489 O494 1.254 . S
C489 O495 1.268 . S
O490 Dy483 2.351 . S
O490 C498 1.249 1_545 S
O491 Dy480 2.326 . S
O491 C498 1.267 . S
O492 C481 1.185 . S
O492 Dy483 2.398 . S
O493 C481 1.355 . S
O493 Dy483 2.491 . S
O494 Dy483 2.403 1_565 S
O494 C489 1.254 . S
O495 Dy480 2.310 . S
O495 Dy483 2.664 1_565 S
O495 C489 1.268 . S
O496 Dy480 2.351 . S
O496 C499 1.249 . S
O497 Dy483 2.326 1_565 S
O497 C499 1.267 . S
C498 O490 1.249 1_565 S
C498 O491 1.267 . S
C499 O496 1.249 . S
C499 O497 1.267 . S
Dy500 O504 2.398 . S
Dy500 O505 2.491 . S
Dy500 O506 2.403 . S
Dy500 O507 2.667 . S
Dy500 O511 2.326 . S
Dy500 O515 2.310 1_565 S
Dy500 O516 2.351 1_565 S
C501 O512 1.185 . S
C501 O513 1.355 . S
C502 O504 1.185 . S
C502 O505 1.355 . S
Dy503 O507 2.304 1_545 S
Dy503 O510 2.351 1_545 S
Dy503 O512 2.398 . S
Dy503 O513 2.491 . S
Dy503 O514 2.403 . S
Dy503 O515 2.664 . S
Dy503 O517 2.326 . S
O504 Dy500 2.398 . S
O504 C502 1.185 . S
O505 Dy500 2.491 . S
O505 C502 1.355 . S
O506 Dy500 2.403 . S
O506 C508 1.254 . S
O507 Dy500 2.667 . S
O507 Dy503 2.304 1_565 S
O507 C508 1.274 . S
C508 O506 1.254 . S
C508 O507 1.274 . S
C509 O514 1.254 . S
C509 O515 1.268 . S
O510 Dy503 2.351 1_565 S
O510 C518 1.249 . S
O511 Dy500 2.326 . S
O511 C518 1.267 . S
O512 C501 1.185 . S
O512 Dy503 2.398 . S
O513 C501 1.355 . S
O513 Dy503 2.491 . S
O514 Dy503 2.403 . S
O514 C509 1.254 . S
O515 Dy500 2.310 1_545 S
O515 Dy503 2.664 . S
O515 C509 1.268 . S
O516 Dy500 2.351 1_545 S
O516 C519 1.249 . S
O517 Dy503 2.326 . S
O517 C519 1.267 . S
C518 O510 1.249 . S
C518 O511 1.267 . S
C519 O516 1.249 . S
C519 O517 1.267 . S
Dy520 O524 2.398 . S
Dy520 O525 2.491 . S
Dy520 O526 2.403 . S
Dy520 O527 2.664 1_565 S
Dy520 O531 2.326 . S
Dy520 O535 2.310 1_565 S
Dy520 O536 2.351 1_565 S
C521 O532 1.185 . S
C521 O533 1.355 . S
C522 O524 1.185 . S
C522 O525 1.355 . S
Dy523 O527 2.310 . S
Dy523 O530 2.351 . S
Dy523 O532 2.398 . S
Dy523 O533 2.491 . S
Dy523 O534 2.403 . S
Dy523 O535 2.664 . S
Dy523 O537 2.326 . S
O524 Dy520 2.398 . S
O524 C522 1.185 . S
O525 Dy520 2.491 . S
O525 C522 1.355 . S
O526 Dy520 2.403 . S
O526 C528 1.254 . S
O527 Dy520 2.664 1_545 S
O527 Dy523 2.310 . S
O527 C528 1.268 1_545 S
C528 O526 1.254 . S
C528 O527 1.268 1_565 S
C529 O534 1.254 . S
C529 O535 1.268 . S
O530 Dy523 2.351 . S
O530 C538 1.249 1_545 S
O531 Dy520 2.326 . S
O531 C538 1.267 . S
O532 C521 1.185 . S
O532 Dy523 2.398 . S
O533 C521 1.355 . S
O533 Dy523 2.491 . S
O534 Dy523 2.403 . S
O534 C529 1.254 . S
O535 Dy520 2.310 1_545 S
O535 Dy523 2.664 . S
O535 C529 1.268 . S
O536 Dy520 2.351 1_545 S
O536 C539 1.249 . S
O537 Dy523 2.326 . S
O537 C539 1.267 . S
C538 O530 1.249 1_565 S
C538 O531 1.267 . S
C539 O536 1.249 . S
C539 O537 1.267 . S
Dy540 O544 2.398 1_556 S
Dy540 O545 2.491 1_556 S
Dy540 O546 2.403 1_556 S
Dy540 O547 2.664 . S
Dy540 O551 2.326 1_556 S
Dy540 O555 2.310 . S
Dy540 O556 2.351 . S
C541 O552 1.185 . S
C541 O553 1.355 . S
C542 O544 1.185 . S
C542 O545 1.355 . S
Dy543 O547 2.310 . S
Dy543 O550 2.351 . S
Dy543 O552 2.398 . S
Dy543 O553 2.491 . S
Dy543 O554 2.403 . S
Dy543 O555 2.664 . S
Dy543 O557 2.326 . S
O544 Dy540 2.398 1_554 S
O544 C542 1.185 . S
O545 Dy540 2.491 1_554 S
O545 C542 1.355 . S
O546 Dy540 2.403 1_554 S
O546 C548 1.254 . S
O547 Dy540 2.664 . S
O547 Dy543 2.310 . S
O547 C548 1.268 1_556 S
C548 O546 1.254 . S
C548 O547 1.268 1_554 S
C549 O554 1.254 . S
C549 O555 1.268 . S
O550 Dy543 2.351 . S
O550 C558 1.249 1_556 S
O551 Dy540 2.326 1_554 S
O551 C558 1.267 . S
O552 C541 1.185 . S
O552 Dy543 2.398 . S
O553 C541 1.355 . S
O553 Dy543 2.491 . S
O554 Dy543 2.403 . S
O554 C549 1.254 . S
O555 Dy540 2.310 . S
O555 Dy543 2.664 . S
O555 C549 1.268 . S
O556 Dy540 2.351 . S
O556 C559 1.249 . S
O557 Dy543 2.326 . S
O557 C559 1.267 . S
C558 O550 1.249 1_554 S
C558 O551 1.267 . S
C559 O556 1.249 . S
C559 O557 1.267 . S
Dy560 O564 2.398 . S
Dy560 O565 2.491 . S
Dy560 O566 2.403 . S
Dy560 O567 2.664 1_455 S
Dy560 O571 2.326 . S
Dy560 O575 2.310 . S
Dy560 O576 2.351 . S
C561 O572 1.185 . S
C561 O573 1.355 . S
C562 O564 1.185 . S
C562 O565 1.355 . S
Dy563 O567 2.310 . S
Dy563 O570 2.351 . S
Dy563 O572 2.398 . S
Dy563 O573 2.491 . S
Dy563 O574 2.403 1_655 S
Dy563 O575 2.664 1_655 S
Dy563 O577 2.326 1_655 S
O564 Dy560 2.398 . S
O564 C562 1.185 . S
O565 Dy560 2.491 . S
O565 C562 1.355 . S
O566 Dy560 2.403 . S
O566 C568 1.254 1_455 S
O567 Dy560 2.664 1_655 S
O567 Dy563 2.310 . S
O567 C568 1.268 . S
C568 O566 1.254 1_655 S
C568 O567 1.268 . S
C569 O574 1.254 . S
C569 O575 1.268 . S
O570 Dy563 2.351 . S
O570 C578 1.249 . S
O571 Dy560 2.326 . S
O571 C578 1.267 1_455 S
O572 C561 1.185 . S
O572 Dy563 2.398 . S
O573 C561 1.355 . S
O573 Dy563 2.491 . S
O574 Dy563 2.403 1_455 S
O574 C569 1.254 . S
O575 Dy560 2.310 . S
O575 Dy563 2.664 1_455 S
O575 C569 1.268 . S
O576 Dy560 2.351 . S
O576 C579 1.249 . S
O577 Dy563 2.326 1_455 S
O577 C579 1.267 . S
C578 O570 1.249 . S
C578 O571 1.267 1_655 S
C579 O576 1.249 . S
C579 O577 1.267 . S
Dy580 O584 2.398 . S
Dy580 O585 2.491 . S
Dy580 O586 2.403 . S
Dy580 O587 2.664 . S
Dy580 O591 2.326 . S
Dy580 O595 2.310 . S
Dy580 O596 2.351 . S
C581 O592 1.185 . S
C581 O593 1.355 . S
C582 O584 1.185 . S
C582 O585 1.355 . S
Dy583 O587 2.310 . S
Dy583 O590 2.351 . S
Dy583 O592 2.398 . S
Dy583 O593 2.491 . S
Dy583 O594 2.403 . S
Dy583 O595 2.664 . S
Dy583 O597 2.326 . S
O584 Dy580 2.398 . S
O584 C582 1.185 . S
O585 Dy580 2.491 . S
O585 C582 1.355 . S
O586 Dy580 2.403 . S
O586 C588 1.254 . S
O587 Dy580 2.664 . S
O587 Dy583 2.310 . S
O587 C588 1.268 . S
C588 O586 1.254 . S
C588 O587 1.268 . S
C589 O594 1.254 . S
C589 O595 1.268 . S
O590 Dy583 2.351 . S
O590 C598 1.249 . S
O591 Dy580 2.326 . S
O591 C598 1.267 . S
O592 C581 1.185 . S
O592 Dy583 2.398 . S
O593 C581 1.355 . S
O593 Dy583 2.491 . S
O594 Dy583 2.403 . S
O594 C589 1.254 . S
O595 Dy580 2.310 . S
O595 Dy583 2.664 . S
O595 C589 1.268 . S
O596 Dy580 2.351 . S
O596 C599 1.249 . S
O597 Dy583 2.326 . S
O597 C599 1.267 . S
C598 O590 1.249 . S
C598 O591 1.267 . S
C599 O596 1.249 . S
C599 O597 1.267 . S
Dy600 O604 2.398 . S
Dy600 O605 2.491 . S
Dy600 O606 2.403 . S
Dy600 O607 2.664 . S
Dy600 O611 2.326 . S
Dy600 O615 2.310 . S
Dy600 O616 2.351 . S
C601 O612 1.185 . S
C601 O613 1.355 . S
C602 O604 1.185 . S
C602 O605 1.355 . S
Dy603 O607 2.310 . S
Dy603 O610 2.351 . S
Dy603 O612 2.398 . S
Dy603 O613 2.491 . S
Dy603 O614 2.403 . S
Dy603 O615 2.664 . S
Dy603 O617 2.326 . S
O604 Dy600 2.398 . S
O604 C602 1.185 . S
O605 Dy600 2.491 . S
O605 C602 1.355 . S
O606 Dy600 2.403 . S
O606 C608 1.254 . S
O607 Dy600 2.664 . S
O607 Dy603 2.310 . S
O607 C608 1.268 . S
C608 O606 1.254 . S
C608 O607 1.268 . S
C609 O614 1.254 . S
C609 O615 1.268 . S
O610 Dy603 2.351 . S
O610 C618 1.249 . S
O611 Dy600 2.326 . S
O611 C618 1.267 . S
O612 C601 1.185 . S
O612 Dy603 2.398 . S
O613 C601 1.355 . S
O613 Dy603 2.491 . S
O614 Dy603 2.403 . S
O614 C609 1.254 . S
O615 Dy600 2.310 . S
O615 Dy603 2.664 . S
O615 C609 1.268 . S
O616 Dy600 2.351 . S
O616 C619 1.249 . S
O617 Dy603 2.326 . S
O617 C619 1.267 . S
C618 O610 1.249 . S
C618 O611 1.267 . S
C619 O616 1.249 . S
C619 O617 1.267 . S
Dy620 O624 2.398 . S
Dy620 O625 2.491 . S
Dy620 O626 2.403 . S
Dy620 O627 2.664 . S
Dy620 O631 2.326 . S
Dy620 O635 2.310 . S
Dy620 O636 2.351 . S
C621 O632 1.185 . S
C621 O633 1.355 . S
C622 O624 1.185 . S
C622 O625 1.355 . S
Dy623 O627 2.310 1_455 S
Dy623 O630 2.351 1_455 S
Dy623 O632 2.398 . S
Dy623 O633 2.491 . S
Dy623 O634 2.403 . S
Dy623 O635 2.664 1_455 S
Dy623 O637 2.326 . S
O624 Dy620 2.398 . S
O624 C622 1.185 . S
O625 Dy620 2.491 . S
O625 C622 1.355 . S
O626 Dy620 2.403 . S
O626 C628 1.254 . S
O627 Dy620 2.664 . S
O627 Dy623 2.310 1_655 S
O627 C628 1.268 . S
C628 O626 1.254 . S
C628 O627 1.268 . S
C629 O634 1.254 . S
C629 O635 1.268 1_455 S
O630 Dy623 2.351 1_655 S
O630 C638 1.249 . S
O631 Dy620 2.326 . S
O631 C638 1.267 . S
O632 C621 1.185 . S
O632 Dy623 2.398 . S
O633 C621 1.355 . S
O633 Dy623 2.491 . S
O634 Dy623 2.403 . S
O634 C629 1.254 . S
O635 Dy620 2.310 . S
O635 Dy623 2.664 1_655 S
O635 C629 1.268 1_655 S
O636 Dy620 2.351 . S
O636 C639 1.249 1_655 S
O637 Dy623 2.326 . S
O637 C639 1.267 . S
C638 O630 1.249 . S
C638 O631 1.267 . S
C639 O636 1.249 1_455 S
C639 O637 1.267 . S
Dy640 O644 2.398 . S
Dy640 O645 2.491 . S
Dy640 O646 2.403 . S
Dy640 O647 2.664 . S
Dy640 O651 2.326 . S
Dy640 O655 2.310 . S
Dy640 O656 2.351 . S
C641 O652 1.185 . S
C641 O653 1.355 . S
C642 O644 1.185 . S
C642 O645 1.355 . S
Dy643 O647 2.310 . S
Dy643 O650 2.351 . S
Dy643 O652 2.398 . S
Dy643 O653 2.491 . S
Dy643 O654 2.403 . S
Dy643 O655 2.664 . S
Dy643 O657 2.326 . S
O644 Dy640 2.398 . S
O644 C642 1.185 . S
O645 Dy640 2.491 . S
O645 C642 1.355 . S
O646 Dy640 2.403 . S
O646 C648 1.254 . S
O647 Dy640 2.664 . S
O647 Dy643 2.310 . S
O647 C648 1.268 . S
C648 O646 1.254 . S
C648 O647 1.268 . S
C649 O654 1.254 . S
C649 O655 1.268 . S
O650 Dy643 2.351 . S
O650 C658 1.249 . S
O651 Dy640 2.326 . S
O651 C658 1.267 . S
O652 C641 1.185 . S
O652 Dy643 2.398 . S
O653 C641 1.355 . S
O653 Dy643 2.491 . S
O654 Dy643 2.403 . S
O654 C649 1.254 . S
O655 Dy640 2.310 . S
O655 Dy643 2.664 . S
O655 C649 1.268 . S
O656 Dy640 2.351 . S
O656 C659 1.249 . S
O657 Dy643 2.326 . S
O657 C659 1.267 . S
C658 O650 1.249 . S
C658 O651 1.267 . S
C659 O656 1.249 . S
C659 O657 1.267 . S
Dy660 O664 2.398 . S
Dy660 O665 2.491 . S
Dy660 O666 2.403 1_554 S
Dy660 O667 2.664 1_554 S
Dy660 O671 2.326 1_554 S
Dy660 O675 2.310 . S
Dy660 O676 2.351 . S
C661 O672 1.185 . S
C661 O673 1.355 . S
C662 O664 1.185 . S
C662 O665 1.355 . S
Dy663 O667 2.310 . S
Dy663 O670 2.351 . S
Dy663 O672 2.398 . S
Dy663 O673 2.491 . S
Dy663 O674 2.403 1_556 S
Dy663 O675 2.664 1_556 S
Dy663 O677 2.326 1_556 S
O664 Dy660 2.398 . S
O664 C662 1.185 . S
O665 Dy660 2.491 . S
O665 C662 1.355 . S
O666 Dy660 2.403 1_556 S
O666 C668 1.254 . S
O667 Dy660 2.664 1_556 S
O667 Dy663 2.310 . S
O667 C668 1.268 . S
C668 O666 1.254 . S
C668 O667 1.268 . S
C669 O674 1.254 . S
C669 O675 1.268 . S
O670 Dy663 2.351 . S
O670 C678 1.249 . S
O671 Dy660 2.326 1_556 S
O671 C678 1.267 . S
O672 C661 1.185 . S
O672 Dy663 2.398 . S
O673 C661 1.355 . S
O673 Dy663 2.491 . S
O674 Dy663 2.403 1_554 S
O674 C669 1.254 . S
O675 Dy660 2.310 . S
O675 Dy663 2.664 1_554 S
O675 C669 1.268 . S
O676 Dy660 2.351 . S
O676 C679 1.249 . S
O677 Dy663 2.326 1_554 S
O677 C679 1.267 . S
C678 O670 1.249 . S
C678 O671 1.267 . S
C679 O676 1.249 . S
C679 O677 1.267 . S
Dy680 O684 2.398 . S
Dy680 O685 2.491 . S
Dy680 O686 2.403 . S
Dy680 O687 2.664 . S
Dy680 O691 2.326 . S
Dy680 O695 2.310 . S
Dy680 O696 2.351 . S
C681 O692 1.185 . S
C681 O693 1.355 . S
C682 O684 1.185 . S
C682 O685 1.355 . S
Dy683 O687 2.310 . S
Dy683 O690 2.351 . S
Dy683 O692 2.398 . S
Dy683 O693 2.491 . S
Dy683 O694 2.403 . S
Dy683 O695 2.664 . S
Dy683 O697 2.326 . S
O684 Dy680 2.398 . S
O684 C682 1.185 . S
O685 Dy680 2.491 . S
O685 C682 1.355 . S
O686 Dy680 2.403 . S
O686 C688 1.254 . S
O687 Dy680 2.664 . S
O687 Dy683 2.310 . S
O687 C688 1.268 . S
C688 O686 1.254 . S
C688 O687 1.268 . S
C689 O694 1.254 . S
C689 O695 1.268 . S
O690 Dy683 2.351 . S
O690 C698 1.249 . S
O691 Dy680 2.326 . S
O691 C698 1.267 . S
O692 C681 1.185 . S
O692 Dy683 2.398 . S
O693 C681 1.355 . S
O693 Dy683 2.491 . S
O694 Dy683 2.403 . S
O694 C689 1.254 . S
O695 Dy680 2.310 . S
O695 Dy683 2.664 . S
O695 C689 1.268 . S
O696 Dy680 2.351 . S
O696 C699 1.249 . S
O697 Dy683 2.326 . S
O697 C699 1.267 . S
C698 O690 1.249 . S
C698 O691 1.267 . S
C699 O696 1.249 . S
C699 O697 1.267 . S
Dy700 O704 2.398 . S
Dy700 O705 2.491 . S
Dy700 O706 2.403 . S
Dy700 O707 2.664 . S
Dy700 O711 2.326 . S
Dy700 O715 2.310 . S
Dy700 O716 2.351 . S
C701 O712 1.185 . S
C701 O713 1.355 . S
C702 O704 1.185 . S
C702 O705 1.355 . S
Dy703 O707 2.310 . S
Dy703 O710 2.351 . S
Dy703 O712 2.398 . S
Dy703 O713 2.491 . S
Dy703 O714 2.403 . S
Dy703 O715 2.664 . S
Dy703 O717 2.326 . S
O704 Dy700 2.398 . S
O704 C702 1.185 . S
O705 Dy700 2.491 . S
O705 C702 1.355 . S
O706 Dy700 2.403 . S
O706 C708 1.254 . S
O707 Dy700 2.664 . S
O707 Dy703 2.310 . S
O707 C708 1.268 . S
C708 O706 1.254 . S
C708 O707 1.268 . S
C709 O714 1.254 . S
C709 O715 1.268 . S
O710 Dy703 2.351 . S
O710 C718 1.249 . S
O711 Dy700 2.326 . S
O711 C718 1.267 . S
O712 C701 1.185 . S
O712 Dy703 2.398 . S
O713 C701 1.355 . S
O713 Dy703 2.491 . S
O714 Dy703 2.403 . S
O714 C709 1.254 . S
O715 Dy700 2.310 . S
O715 Dy703 2.664 . S
O715 C709 1.268 . S
O716 Dy700 2.351 . S
O716 C719 1.249 . S
O717 Dy703 2.326 . S
O717 C719 1.267 . S
C718 O710 1.249 . S
C718 O711 1.267 . S
C719 O716 1.249 . S
C719 O717 1.267 . S
Dy720 O724 2.398 . S
Dy720 O725 2.491 . S
Dy720 O726 2.403 . S
Dy720 O727 2.664 . S
Dy720 O731 2.326 . S
Dy720 O735 2.310 . S
Dy720 O736 2.351 . S
C721 O732 1.185 . S
C721 O733 1.355 . S
C722 O724 1.185 . S
C722 O725 1.355 . S
Dy723 O727 2.310 . S
Dy723 O730 2.351 . S
Dy723 O732 2.398 . S
Dy723 O733 2.491 . S
Dy723 O734 2.403 . S
Dy723 O735 2.664 . S
Dy723 O737 2.326 . S
O724 Dy720 2.398 . S
O724 C722 1.185 . S
O725 Dy720 2.491 . S
O725 C722 1.355 . S
O726 Dy720 2.403 . S
O726 C728 1.254 . S
O727 Dy720 2.664 . S
O727 Dy723 2.310 . S
O727 C728 1.268 . S
C728 O726 1.254 . S
C728 O727 1.268 . S
C729 O734 1.254 . S
C729 O735 1.268 . S
O730 Dy723 2.351 . S
O730 C738 1.249 . S
O731 Dy720 2.326 . S
O731 C738 1.267 . S
O732 C721 1.185 . S
O732 Dy723 2.398 . S
O733 C721 1.355 . S
O733 Dy723 2.491 . S
O734 Dy723 2.403 . S
O734 C729 1.254 . S
O735 Dy720 2.310 . S
O735 Dy723 2.664 . S
O735 C729 1.268 . S
O736 Dy720 2.351 . S
O736 C739 1.249 . S
O737 Dy723 2.326 . S
O737 C739 1.267 . S
C738 O730 1.249 . S
C738 O731 1.267 . S
C739 O736 1.249 . S
C739 O737 1.267 . S
Dy740 O744 2.398 . S
Dy740 O745 2.491 . S
Dy740 O746 2.403 . S
Dy740 O747 2.664 . S
Dy740 O751 2.326 . S
Dy740 O755 2.310 . S
Dy740 O756 2.351 . S
C741 O752 1.185 . S
C741 O753 1.355 . S
C742 O744 1.185 . S
C742 O745 1.355 . S
Dy743 O747 2.310 . S
Dy743 O750 2.351 . S
Dy743 O752 2.398 . S
Dy743 O753 2.491 . S
Dy743 O754 2.403 . S
Dy743 O755 2.664 . S
Dy743 O757 2.326 . S
O744 Dy740 2.398 . S
O744 C742 1.185 . S
O745 Dy740 2.491 . S
O745 C742 1.355 . S
O746 Dy740 2.403 . S
O746 C748 1.254 . S
O747 Dy740 2.664 . S
O747 Dy743 2.310 . S
O747 C748 1.268 . S
C748 O746 1.254 . S
C748 O747 1.268 . S
C749 O754 1.254 . S
C749 O755 1.268 . S
O750 Dy743 2.351 . S
O750 C758 1.249 . S
O751 Dy740 2.326 . S
O751 C758 1.267 . S
O752 C741 1.185 . S
O752 Dy743 2.398 . S
O753 C741 1.355 . S
O753 Dy743 2.491 . S
O754 Dy743 2.403 . S
O754 C749 1.254 . S
O755 Dy740 2.310 . S
O755 Dy743 2.664 . S
O755 C749 1.268 . S
O756 Dy740 2.351 . S
O756 C759 1.249 . S
O757 Dy743 2.326 . S
O757 C759 1.267 . S
C758 O750 1.249 . S
C758 O751 1.267 . S
C759 O756 1.249 . S
C759 O757 1.267 . S
Dy760 O764 2.398 . S
Dy760 O765 2.491 . S
Dy760 O766 2.403 . S
Dy760 O767 2.664 . S
Dy760 O771 2.326 . S
Dy760 O775 2.310 . S
Dy760 O776 2.351 . S
C761 O772 1.185 . S
C761 O773 1.355 . S
C762 O764 1.185 . S
C762 O765 1.355 . S
Dy763 O767 2.310 . S
Dy763 O770 2.351 . S
Dy763 O772 2.398 . S
Dy763 O773 2.491 . S
Dy763 O774 2.403 . S
Dy763 O775 2.664 . S
Dy763 O777 2.326 . S
O764 Dy760 2.398 . S
O764 C762 1.185 . S
O765 Dy760 2.491 . S
O765 C762 1.355 . S
O766 Dy760 2.403 . S
O766 C768 1.254 . S
O767 Dy760 2.664 . S
O767 Dy763 2.310 . S
O767 C768 1.268 . S
C768 O766 1.254 . S
C768 O767 1.268 . S
C769 O774 1.254 . S
C769 O775 1.268 . S
O770 Dy763 2.351 . S
O770 C778 1.249 . S
O771 Dy760 2.326 . S
O771 C778 1.267 . S
O772 C761 1.185 . S
O772 Dy763 2.398 . S
O773 C761 1.355 . S
O773 Dy763 2.491 . S
O774 Dy763 2.403 . S
O774 C769 1.254 . S
O775 Dy760 2.310 . S
O775 Dy763 2.664 . S
O775 C769 1.268 . S
O776 Dy760 2.351 . S
O776 C779 1.249 . S
O777 Dy763 2.326 . S
O777 C779 1.267 . S
C778 O770 1.249 . S
C778 O771 1.267 . S
C779 O776 1.249 . S
C779 O777 1.267 . S
Dy780 O784 2.398 . S
Dy780 O785 2.491 . S
Dy780 O786 2.403 . S
Dy780 O787 2.664 . S
Dy780 O791 2.326 . S
Dy780 O795 2.310 . S
Dy780 O796 2.351 . S
C781 O792 1.185 . S
C781 O793 1.355 . S
C782 O784 1.185 . S
C782 O785 1.355 . S
Dy783 O787 2.310 . S
Dy783 O790 2.351 . S
Dy783 O792 2.398 . S
Dy783 O793 2.491 . S
Dy783 O794 2.403 . S
Dy783 O795 2.664 . S
Dy783 O797 2.326 . S
O784 Dy780 2.398 . S
O784 C782 1.185 . S
O785 Dy780 2.491 . S
O785 C782 1.355 . S
O786 Dy780 2.403 . S
O786 C788 1.254 . S
O787 Dy780 2.664 . S
O787 Dy783 2.310 . S
O787 C788 1.268 . S
C788 O786 1.254 . S
C788 O787 1.268 . S
C789 O794 1.254 . S
C789 O795 1.268 . S
O790 Dy783 2.351 . S
O790 C798 1.249 . S
O791 Dy780 2.326 . S
O791 C798 1.267 . S
O792 C781 1.185 . S
O792 Dy783 2.398 . S
O793 C781 1.355 . S
O793 Dy783 2.491 . S
O794 Dy783 2.403 . S
O794 C789 1.254 . S
O795 Dy780 2.310 . S
O795 Dy783 2.664 . S
O795 C789 1.268 . S
O796 Dy780 2.351 . S
O796 C799 1.249 . S
O797 Dy783 2.326 . S
O797 C799 1.267 . S
C798 O790 1.249 . S
C798 O791 1.267 . S
C799 O796 1.249 . S
C799 O797 1.267 . S
Dy800 O804 2.398 . S
Dy800 O805 2.491 . S
Dy800 O806 2.403 . S
Dy800 O807 2.664 1_655 S
Dy800 O811 2.326 . S
Dy800 O815 2.310 1_655 S
Dy800 O816 2.351 1_655 S
C801 O812 1.185 . S
C801 O813 1.355 . S
C802 O804 1.185 . S
C802 O805 1.355 . S
Dy803 O807 2.310 . S
Dy803 O810 2.351 . S
Dy803 O812 2.398 . S
Dy803 O813 2.491 . S
Dy803 O814 2.403 . S
Dy803 O815 2.664 . S
Dy803 O817 2.326 . S
O804 Dy800 2.398 . S
O804 C802 1.185 . S
O805 Dy800 2.491 . S
O805 C802 1.355 . S
O806 Dy800 2.403 . S
O806 C808 1.254 . S
O807 Dy800 2.664 1_455 S
O807 Dy803 2.310 . S
O807 C808 1.268 1_455 S
C808 O806 1.254 . S
C808 O807 1.268 1_655 S
C809 O814 1.254 . S
C809 O815 1.268 . S
O810 Dy803 2.351 . S
O810 C818 1.249 1_455 S
O811 Dy800 2.326 . S
O811 C818 1.267 . S
O812 C801 1.185 . S
O812 Dy803 2.398 . S
O813 C801 1.355 . S
O813 Dy803 2.491 . S
O814 Dy803 2.403 . S
O814 C809 1.254 . S
O815 Dy800 2.310 1_455 S
O815 Dy803 2.664 . S
O815 C809 1.268 . S
O816 Dy800 2.351 1_455 S
O816 C819 1.249 . S
O817 Dy803 2.326 . S
O817 C819 1.267 . S
C818 O810 1.249 1_655 S
C818 O811 1.267 . S
C819 O816 1.249 . S
C819 O817 1.267 . S
Dy820 O824 2.398 . S
Dy820 O825 2.491 . S
Dy820 O826 2.403 . S
Dy820 O827 2.664 . S
Dy820 O831 2.326 . S
Dy820 O835 2.310 . S
Dy820 O836 2.351 . S
C821 O832 1.185 . S
C821 O833 1.355 . S
C822 O824 1.185 . S
C822 O825 1.355 . S
Dy823 O827 2.310 . S
Dy823 O830 2.351 . S
Dy823 O832 2.398 . S
Dy823 O833 2.491 . S
Dy823 O834 2.403 . S
Dy823 O835 2.664 . S
Dy823 O837 2.326 . S
O824 Dy820 2.398 . S
O824 C822 1.185 . S
O825 Dy820 2.491 . S
O825 C822 1.355 . S
O826 Dy820 2.403 . S
O826 C828 1.254 . S
O827 Dy820 2.664 . S
O827 Dy823 2.310 . S
O827 C828 1.268 . S
C828 O826 1.254 . S
C828 O827 1.268 . S
C829 O834 1.254 . S
C829 O835 1.268 . S
O830 Dy823 2.351 . S
O830 C838 1.249 . S
O831 Dy820 2.326 . S
O831 C838 1.267 . S
O832 C821 1.185 . S
O832 Dy823 2.398 . S
O833 C821 1.355 . S
O833 Dy823 2.491 . S
O834 Dy823 2.403 . S
O834 C829 1.254 . S
O835 Dy820 2.310 . S
O835 Dy823 2.664 . S
O835 C829 1.268 . S
O836 Dy820 2.351 . S
O836 C839 1.249 . S
O837 Dy823 2.326 . S
O837 C839 1.267 . S
C838 O830 1.249 . S
C838 O831 1.267 . S
C839 O836 1.249 . S
C839 O837 1.267 . S
Dy840 O844 2.398 . S
Dy840 O845 2.491 . S
Dy840 O846 2.403 1_554 S
Dy840 O847 2.664 1_554 S
Dy840 O851 2.326 1_554 S
Dy840 O855 2.310 . S
Dy840 O856 2.351 . S
C841 O852 1.185 . S
C841 O853 1.355 . S
C842 O844 1.185 . S
C842 O845 1.355 . S
Dy843 O847 2.310 . S
Dy843 O850 2.351 . S
Dy843 O852 2.398 . S
Dy843 O853 2.491 . S
Dy843 O854 2.403 1_556 S
Dy843 O855 2.664 1_556 S
Dy843 O857 2.326 1_556 S
O844 Dy840 2.398 . S
O844 C842 1.185 . S
O845 Dy840 2.491 . S
O845 C842 1.355 . S
O846 Dy840 2.403 1_556 S
O846 C848 1.254 . S
O847 Dy840 2.664 1_556 S
O847 Dy843 2.310 . S
O847 C848 1.268 . S
C848 O846 1.254 . S
C848 O847 1.268 . S
C849 O854 1.254 . S
C849 O855 1.268 . S
O850 Dy843 2.351 . S
O850 C858 1.249 . S
O851 Dy840 2.326 1_556 S
O851 C858 1.267 . S
O852 C841 1.185 . S
O852 Dy843 2.398 . S
O853 C841 1.355 . S
O853 Dy843 2.491 . S
O854 Dy843 2.403 1_554 S
O854 C849 1.254 . S
O855 Dy840 2.310 . S
O855 Dy843 2.664 1_554 S
O855 C849 1.268 . S
O856 Dy840 2.351 . S
O856 C859 1.249 . S
O857 Dy843 2.326 1_554 S
O857 C859 1.267 . S
C858 O850 1.249 . S
C858 O851 1.267 . S
C859 O856 1.249 . S
C859 O857 1.267 . S
Dy860 O864 2.398 . S
Dy860 O865 2.491 . S
Dy860 O866 2.403 . S
Dy860 O867 2.664 . S
Dy860 O871 2.326 . S
Dy860 O875 2.310 . S
Dy860 O876 2.351 . S
C861 O872 1.185 . S
C861 O873 1.355 . S
C862 O864 1.185 . S
C862 O865 1.355 . S
Dy863 O867 2.310 . S
Dy863 O870 2.351 . S
Dy863 O872 2.398 . S
Dy863 O873 2.491 . S
Dy863 O874 2.403 . S
Dy863 O875 2.664 . S
Dy863 O877 2.326 . S
O864 Dy860 2.398 . S
O864 C862 1.185 . S
O865 Dy860 2.491 . S
O865 C862 1.355 . S
O866 Dy860 2.403 . S
O866 C868 1.254 . S
O867 Dy860 2.664 . S
O867 Dy863 2.310 . S
O867 C868 1.268 . S
C868 O866 1.254 . S
C868 O867 1.268 . S
C869 O874 1.254 . S
C869 O875 1.268 . S
O870 Dy863 2.351 . S
O870 C878 1.249 . S
O871 Dy860 2.326 . S
O871 C878 1.267 . S
O872 C861 1.185 . S
O872 Dy863 2.398 . S
O873 C861 1.355 . S
O873 Dy863 2.491 . S
O874 Dy863 2.403 . S
O874 C869 1.254 . S
O875 Dy860 2.310 . S
O875 Dy863 2.664 . S
O875 C869 1.268 . S
O876 Dy860 2.351 . S
O876 C879 1.249 . S
O877 Dy863 2.326 . S
O877 C879 1.267 . S
C878 O870 1.249 . S
C878 O871 1.267 . S
C879 O876 1.249 . S
C879 O877 1.267 . S
Dy880 O884 2.398 . S
Dy880 O885 2.491 . S
Dy880 O886 2.403 . S
Dy880 O887 2.664 . S
Dy880 O891 2.326 . S
Dy880 O895 2.310 . S
Dy880 O896 2.351 . S
C881 O892 1.185 . S
C881 O893 1.355 . S
C882 O884 1.185 . S
C882 O885 1.355 . S
Dy883 O887 2.310 . S
Dy883 O890 2.351 . S
Dy883 O892 2.398 . S
Dy883 O893 2.491 . S
Dy883 O894 2.403 . S
Dy883 O895 2.664 . S
Dy883 O897 2.326 . S
O884 Dy880 2.398 . S
O884 C882 1.185 . S
O885 Dy880 2.491 . S
O885 C882 1.355 . S
O886 Dy880 2.403 . S
O886 C888 1.254 . S
O887 Dy880 2.664 . S
O887 Dy883 2.310 . S
O887 C888 1.268 . S
C888 O886 1.254 . S
C888 O887 1.268 . S
C889 O894 1.254 . S
C889 O895 1.268 . S
O890 Dy883 2.351 . S
O890 C898 1.249 . S
O891 Dy880 2.326 . S
O891 C898 1.267 . S
O892 C881 1.185 . S
O892 Dy883 2.398 . S
O893 C881 1.355 . S
O893 Dy883 2.491 . S
O894 Dy883 2.403 . S
O894 C889 1.254 . S
O895 Dy880 2.310 . S
O895 Dy883 2.664 . S
O895 C889 1.268 . S
O896 Dy880 2.351 . S
O896 C899 1.249 . S
O897 Dy883 2.326 . S
O897 C899 1.267 . S
C898 O890 1.249 . S
C898 O891 1.267 . S
C899 O896 1.249 . S
C899 O897 1.267 . S
Dy900 O904 2.398 . S
Dy900 O905 2.491 . S
Dy900 O906 2.403 . S
Dy900 O907 2.664 . S
Dy900 O911 2.326 . S
Dy900 O915 2.310 . S
Dy900 O916 2.351 . S
C901 O912 1.185 . S
C901 O913 1.355 . S
C902 O904 1.185 . S
C902 O905 1.355 . S
Dy903 O907 2.310 . S
Dy903 O910 2.351 . S
Dy903 O912 2.398 . S
Dy903 O913 2.491 . S
Dy903 O914 2.403 . S
Dy903 O915 2.664 . S
Dy903 O917 2.326 . S
O904 Dy900 2.398 . S
O904 C902 1.185 . S
O905 Dy900 2.491 . S
O905 C902 1.355 . S
O906 Dy900 2.403 . S
O906 C908 1.254 . S
O907 Dy900 2.664 . S
O907 Dy903 2.310 . S
O907 C908 1.268 . S
C908 O906 1.254 . S
C908 O907 1.268 . S
C909 O914 1.254 . S
C909 O915 1.268 . S
O910 Dy903 2.351 . S
O910 C918 1.249 . S
O911 Dy900 2.326 . S
O911 C918 1.267 . S
O912 C901 1.185 . S
O912 Dy903 2.398 . S
O913 C901 1.355 . S
O913 Dy903 2.491 . S
O914 Dy903 2.403 . S
O914 C909 1.254 . S
O915 Dy900 2.310 . S
O915 Dy903 2.664 . S
O915 C909 1.268 . S
O916 Dy900 2.351 . S
O916 C919 1.249 . S
O917 Dy903 2.326 . S
O917 C919 1.267 . S
C918 O910 1.249 . S
C918 O911 1.267 . S
C919 O916 1.249 . S
C919 O917 1.267 . S
Dy920 O924 2.398 . S
Dy920 O925 2.491 . S
Dy920 O926 2.403 . S
Dy920 O927 2.664 . S
Dy920 O931 2.326 . S
Dy920 O935 2.310 . S
Dy920 O936 2.351 . S
C921 O932 1.185 . S
C921 O933 1.355 . S
C922 O924 1.185 . S
C922 O925 1.355 . S
Dy923 O927 2.310 . S
Dy923 O930 2.351 . S
Dy923 O932 2.398 . S
Dy923 O933 2.491 . S
Dy923 O934 2.403 . S
Dy923 O935 2.664 . S
Dy923 O937 2.326 . S
O924 Dy920 2.398 . S
O924 C922 1.185 . S
O925 Dy920 2.491 . S
O925 C922 1.355 . S
O926 Dy920 2.403 . S
O926 C928 1.254 . S
O927 Dy920 2.664 . S
O927 Dy923 2.310 . S
O927 C928 1.268 . S
C928 O926 1.254 . S
C928 O927 1.268 . S
C929 O934 1.254 . S
C929 O935 1.268 . S
O930 Dy923 2.351 . S
O930 C938 1.249 . S
O931 Dy920 2.326 . S
O931 C938 1.267 . S
O932 C921 1.185 . S
O932 Dy923 2.398 . S
O933 C921 1.355 . S
O933 Dy923 2.491 . S
O934 Dy923 2.403 . S
O934 C929 1.254 . S
O935 Dy920 2.310 . S
O935 Dy923 2.664 . S
O935 C929 1.268 . S
O936 Dy920 2.351 . S
O936 C939 1.249 . S
O937 Dy923 2.326 . S
O937 C939 1.267 . S
C938 O930 1.249 . S
C938 O931 1.267 . S
C939 O936 1.249 . S
C939 O937 1.267 . S
Dy940 O944 2.398 . S
Dy940 O945 2.491 . S
Dy940 O946 2.403 . S
Dy940 O947 2.664 . S
Dy940 O951 2.326 . S
Dy940 O955 2.310 . S
Dy940 O956 2.351 . S
C941 O952 1.185 . S
C941 O953 1.355 . S
C942 O944 1.185 . S
C942 O945 1.355 . S
Dy943 O947 2.310 . S
Dy943 O950 2.351 . S
Dy943 O952 2.398 . S
Dy943 O953 2.491 . S
Dy943 O954 2.403 . S
Dy943 O955 2.664 . S
Dy943 O957 2.326 . S
O944 Dy940 2.398 . S
O944 C942 1.185 . S
O945 Dy940 2.491 . S
O945 C942 1.355 . S
O946 Dy940 2.403 . S
O946 C948 1.254 . S
O947 Dy940 2.664 . S
O947 Dy943 2.310 . S
O947 C948 1.268 . S
C948 O946 1.254 . S
C948 O947 1.268 . S
C949 O954 1.254 . S
C949 O955 1.268 . S
O950 Dy943 2.351 . S
O950 C958 1.249 . S
O951 Dy940 2.326 . S
O951 C958 1.267 . S
O952 C941 1.185 . S
O952 Dy943 2.398 . S
O953 C941 1.355 . S
O953 Dy943 2.491 . S
O954 Dy943 2.403 . S
O954 C949 1.254 . S
O955 Dy940 2.310 . S
O955 Dy943 2.664 . S
O955 C949 1.268 . S
O956 Dy940 2.351 . S
O956 C959 1.249 . S
O957 Dy943 2.326 . S
O957 C959 1.267 . S
C958 O950 1.249 . S
C958 O951 1.267 . S
C959 O956 1.249 . S
C959 O957 1.267 . S
C8 C99 4.559 . S
C39 C109 4.061 . S
C139 C49 3.496 . S
C159 C69 2.954 . S
C179 C199 3.694 . S
C189 C219 3.441 . S
C229 C209 3.054 1_554 S
C239 C169 3.025 . S
C249 C79 3.806 1_556 S
C149 C679 2.975 1_655 S
C89 C269 3.129 1_655 S
C119 C689 2.961 . S
C29 C299 3.816 1_655 S
C639 C2 4.007 1_455 S
C602 C59 3.991 . S
C398 C309 4.559 . S
C338 C408 4.061 . S
C348 C438 3.496 . S
C368 C458 2.954 . S
C498 C478 3.694 . S
C488 C518 3.441 . S
C528 C508 3.054 1_556 S
C468 C538 3.025 . S
C378 C548 3.806 1_556 S
C858 C448 2.975 1_655 S
C568 C388 3.129 1_655 S
C418 C868 2.961 . S
C598 C328 3.816 1_655 S
C301 C818 4.007 1_455 S
C358 C781 3.991 . S
C659 C608 4.549 1_545 S
C669 C259 4.021 1_554 S
C629 C279 3.488 1_545 S
C699 C289 2.933 . S
C719 C739 3.703 1_556 S
C729 C759 3.415 . S
C769 C749 3.055 . S
C709 C779 3.047 . S
C129 C649 3.109 . S
C838 C789 4.549 1_565 S
C848 C558 4.021 1_556 S
C578 C808 3.488 1_545 S
C878 C588 2.933 . S
C898 C918 3.703 1_554 S
C908 C938 3.415 . S
C928 C948 3.055 . S
C958 C888 3.047 . S
C828 C428 3.109 . S
C9 C321 0.721 . S
C802 C38 1.735 . S
C48 C362 0.913 . S
C68 C799 2.072 . S
C98 C441 1.869 . S
C108 C821 2.218 . S
C138 C402 2.272 . S
C561 C158 1.421 . S
C178 C798 1.558 . S
C188 C322 1.654 . S
C208 C801 1.294 . S
C361 C238 1.347 . S
C822 C228 2.751 . S
C401 C168 1.073 . S
C198 C562 1.770 . S
C442 C218 2.512 . S
C882 C248 1.446 . S
C521 C148 1.782 . S
C88 C881 0.476 . S
C118 C482 1.370 . S
C268 C502 2.575 . S
C921 C298 1.410 . S
C1 C942 1.905 . S
C58 C901 1.138 . S
C22 C308 0.721 . S
C339 C621 1.735 . S
C349 C61 0.913 . S
C369 C618 2.072 . S
C142 C399 1.869 . S
C642 C409 2.218 . S
C101 C439 2.272 . S
C459 C262 1.421 . S
C479 C619 1.558 . S
C21 C489 1.654 . S
C509 C622 1.294 . S
C62 C539 1.347 . S
C641 C529 2.751 . S
C469 C102 1.073 . S
C499 C261 1.770 . S
C141 C519 2.512 . S
C549 C701 1.446 . S
C222 C449 1.782 . S
C702 C389 0.476 . S
C419 C181 1.370 . S
C569 C201 2.575 . S
C742 C599 1.410 . S
C302 C761 1.905 . S
C722 C359 1.138 . S
C541 C609 0.724 . S
C258 C342 1.755 . S
C582 C628 0.882 . S
C288 C319 2.058 . S
C658 C861 1.870 . S
C381 C668 2.121 . S
C278 C842 2.196 . S
C421 C698 1.423 . S
C718 C318 1.543 . S
C728 C542 1.627 . S
C748 C341 1.334 . S
C581 C778 1.385 . S
C382 C768 2.733 . S
C708 C841 1.005 . S
C422 C738 1.741 . S
C758 C862 2.504 . S
C28 C462 1.457 . S
C941 C688 1.811 . S
C648 C461 0.473 . S
C678 C902 1.283 . S
C922 C128 2.571 . S
C501 C78 1.416 . S
C601 C522 1.905 . S
C481 C638 1.142 . S
C242 C788 0.724 . S
C559 C41 1.755 . S
C281 C809 0.882 . S
C589 C18 2.058 . S
C839 C682 1.870 . S
C82 C849 2.121 . S
C661 C579 2.196 . S
C122 C879 1.423 . S
C19 C899 1.543 . S
C909 C241 1.627 . S
C42 C929 1.334 . S
C282 C959 1.385 . S
C81 C949 2.733 . S
C662 C889 1.005 . S
C919 C121 1.741 . S
C681 C939 2.504 . S
C161 C329 1.457 . S
C869 C762 1.811 . S
C829 C162 0.473 . S
C721 C859 1.283 . S
C429 C741 2.571 . S
C379 C202 1.416 . S
C221 C782 1.905 . S
C182 C819 1.142 . S
