# Generated by pormake.
# Topology smn, (6)-cn, num edge types: 1
# Building blocks:
#     Node 0, Type 0, BuildingBlock: IZENUY_clean_sbu_0, # of connection points: 6
#     Node 1, Type 0, BuildingBlock: IZENUY_clean_sbu_0, # of connection points: 6
#     Node 2, Type 0, BuildingBlock: IZENUY_clean_sbu_0, # of connection points: 6
#     Node 3, Type 0, BuildingBlock: IZENUY_clean_sbu_0, # of connection points: 6
#     Node 4, Type 0, BuildingBlock: IZENUY_clean_sbu_0, # of connection points: 6
#     Node 5, Type 0, BuildingBlock: IZENUY_clean_sbu_0, # of connection points: 6
#     Node 6, Type 0, BuildingBlock: IZENUY_clean_sbu_0, # of connection points: 6
#     Node 7, Type 0, BuildingBlock: IZENUY_clean_sbu_0, # of connection points: 6
#     Node 8, Type 0, BuildingBlock: IZENUY_clean_sbu_0, # of connection points: 6
#     Node 9, Type 0, BuildingBlock: IZENUY_clean_sbu_0, # of connection points: 6
#     Node 10, Type 0, BuildingBlock: IZENUY_clean_sbu_0, # of connection points: 6
#     Node 11, Type 0, BuildingBlock: IZENUY_clean_sbu_0, # of connection points: 6
#     Node 12, Type 0, BuildingBlock: IZENUY_clean_sbu_0, # of connection points: 6
#     Node 13, Type 0, BuildingBlock: IZENUY_clean_sbu_0, # of connection points: 6
#     Node 14, Type 0, BuildingBlock: IZENUY_clean_sbu_0, # of connection points: 6
#     Node 15, Type 0, BuildingBlock: IZENUY_clean_sbu_0, # of connection points: 6
#     Node 16, Type 0, BuildingBlock: IZENUY_clean_sbu_0, # of connection points: 6
#     Node 17, Type 0, BuildingBlock: IZENUY_clean_sbu_0, # of connection points: 6
#     Edge 18, Type (0, 0), BuildingBlock: KIFKEQ_clean_linker_1, # of connection points: 2
#     Edge 19, Type (0, 0), BuildingBlock: KIFKEQ_clean_linker_1, # of connection points: 2
#     Edge 20, Type (0, 0), BuildingBlock: KIFKEQ_clean_linker_1, # of connection points: 2
#     Edge 21, Type (0, 0), BuildingBlock: KIFKEQ_clean_linker_1, # of connection points: 2
#     Edge 22, Type (0, 0), BuildingBlock: KIFKEQ_clean_linker_1, # of connection points: 2
#     Edge 23, Type (0, 0), BuildingBlock: KIFKEQ_clean_linker_1, # of connection points: 2
#     Edge 24, Type (0, 0), BuildingBlock: KIFKEQ_clean_linker_1, # of connection points: 2
#     Edge 25, Type (0, 0), BuildingBlock: KIFKEQ_clean_linker_1, # of connection points: 2
#     Edge 26, Type (0, 0), BuildingBlock: KIFKEQ_clean_linker_1, # of connection points: 2
#     Edge 27, Type (0, 0), BuildingBlock: KIFKEQ_clean_linker_1, # of connection points: 2
#     Edge 28, Type (0, 0), BuildingBlock: KIFKEQ_clean_linker_1, # of connection points: 2
#     Edge 29, Type (0, 0), BuildingBlock: KIFKEQ_clean_linker_1, # of connection points: 2
#     Edge 30, Type (0, 0), BuildingBlock: KIFKEQ_clean_linker_1, # of connection points: 2
#     Edge 31, Type (0, 0), BuildingBlock: KIFKEQ_clean_linker_1, # of connection points: 2
#     Edge 32, Type (0, 0), BuildingBlock: KIFKEQ_clean_linker_1, # of connection points: 2
#     Edge 33, Type (0, 0), BuildingBlock: KIFKEQ_clean_linker_1, # of connection points: 2
#     Edge 34, Type (0, 0), BuildingBlock: KIFKEQ_clean_linker_1, # of connection points: 2
#     Edge 35, Type (0, 0), BuildingBlock: KIFKEQ_clean_linker_1, # of connection points: 2
#     Edge 36, Type (0, 0), BuildingBlock: KIFKEQ_clean_linker_1, # of connection points: 2
#     Edge 37, Type (0, 0), BuildingBlock: KIFKEQ_clean_linker_1, # of connection points: 2
#     Edge 38, Type (0, 0), BuildingBlock: KIFKEQ_clean_linker_1, # of connection points: 2
#     Edge 39, Type (0, 0), BuildingBlock: KIFKEQ_clean_linker_1, # of connection points: 2
#     Edge 40, Type (0, 0), BuildingBlock: KIFKEQ_clean_linker_1, # of connection points: 2
#     Edge 41, Type (0, 0), BuildingBlock: KIFKEQ_clean_linker_1, # of connection points: 2
#     Edge 42, Type (0, 0), BuildingBlock: KIFKEQ_clean_linker_1, # of connection points: 2
#     Edge 43, Type (0, 0), BuildingBlock: KIFKEQ_clean_linker_1, # of connection points: 2
#     Edge 44, Type (0, 0), BuildingBlock: KIFKEQ_clean_linker_1, # of connection points: 2
#     Edge 45, Type (0, 0), BuildingBlock: KIFKEQ_clean_linker_1, # of connection points: 2
#     Edge 46, Type (0, 0), BuildingBlock: KIFKEQ_clean_linker_1, # of connection points: 2
#     Edge 47, Type (0, 0), BuildingBlock: KIFKEQ_clean_linker_1, # of connection points: 2
#     Edge 48, Type (0, 0), BuildingBlock: KIFKEQ_clean_linker_1, # of connection points: 2
#     Edge 49, Type (0, 0), BuildingBlock: KIFKEQ_clean_linker_1, # of connection points: 2
#     Edge 50, Type (0, 0), BuildingBlock: KIFKEQ_clean_linker_1, # of connection points: 2
#     Edge 51, Type (0, 0), BuildingBlock: KIFKEQ_clean_linker_1, # of connection points: 2
#     Edge 52, Type (0, 0), BuildingBlock: KIFKEQ_clean_linker_1, # of connection points: 2
#     Edge 53, Type (0, 0), BuildingBlock: KIFKEQ_clean_linker_1, # of connection points: 2
#     Edge 54, Type (0, 0), BuildingBlock: KIFKEQ_clean_linker_1, # of connection points: 2
#     Edge 55, Type (0, 0), BuildingBlock: KIFKEQ_clean_linker_1, # of connection points: 2
#     Edge 56, Type (0, 0), BuildingBlock: KIFKEQ_clean_linker_1, # of connection points: 2
#     Edge 57, Type (0, 0), BuildingBlock: KIFKEQ_clean_linker_1, # of connection points: 2
#     Edge 58, Type (0, 0), BuildingBlock: KIFKEQ_clean_linker_1, # of connection points: 2
#     Edge 59, Type (0, 0), BuildingBlock: KIFKEQ_clean_linker_1, # of connection points: 2
#     Edge 60, Type (0, 0), BuildingBlock: KIFKEQ_clean_linker_1, # of connection points: 2
#     Edge 61, Type (0, 0), BuildingBlock: KIFKEQ_clean_linker_1, # of connection points: 2
#     Edge 62, Type (0, 0), BuildingBlock: KIFKEQ_clean_linker_1, # of connection points: 2
#     Edge 63, Type (0, 0), BuildingBlock: KIFKEQ_clean_linker_1, # of connection points: 2
#     Edge 64, Type (0, 0), BuildingBlock: KIFKEQ_clean_linker_1, # of connection points: 2
#     Edge 65, Type (0, 0), BuildingBlock: KIFKEQ_clean_linker_1, # of connection points: 2
#     Edge 66, Type (0, 0), BuildingBlock: KIFKEQ_clean_linker_1, # of connection points: 2
#     Edge 67, Type (0, 0), BuildingBlock: KIFKEQ_clean_linker_1, # of connection points: 2
#     Edge 68, Type (0, 0), BuildingBlock: KIFKEQ_clean_linker_1, # of connection points: 2
#     Edge 69, Type (0, 0), BuildingBlock: KIFKEQ_clean_linker_1, # of connection points: 2
#     Edge 70, Type (0, 0), BuildingBlock: KIFKEQ_clean_linker_1, # of connection points: 2
#     Edge 71, Type (0, 0), BuildingBlock: KIFKEQ_clean_linker_1, # of connection points: 2
# Relax obj value: 0.165
# Max RMSD: 0.234
# Mean RMSD: 0.233
data_MOF--net-smn--node1-IZENUY_clean_sbu_0--edge1-KIFKEQ_clean_linker_1
_symmetry_space_group_name_H-M    P1
_symmetry_Int_Tables_number       1
_symmetry_cell_setting            triclinic
loop_
_symmetry_equiv_pos_as_xyz
'x, y, z'
_cell_length_a     62.582011
_cell_length_b     62.566812
_cell_length_c     18.7986
_cell_angle_alpha  90.093791
_cell_angle_beta   89.921019
_cell_angle_gamma 120.08534
loop_
_atom_site_label
_atom_site_type_symbol
_atom_site_fract_x
_atom_site_fract_y
_atom_site_fract_z
_atom_type_partial_charge
Fe0 Fe 1.02393 0.23147 0.69352 0.0
Fe1 Fe 0.03857 0.19708 0.76718 0.0
O2 O 0.03791 0.22521 0.76662 0.0
Fe3 Fe 0.05148 0.24614 0.83852 0.0
O4 O 1.0243 0.24803 0.85521 0.0
O5 O 1.00937 0.24566 0.74763 0.0
O6 O 0.99513 0.20246 0.70394 0.0
C7 C 0.99334 0.18164 0.69875 0.0
C8 C 0.06532 0.27779 0.71597 0.0
O9 O 1.01224 0.17975 0.70754 0.0
C10 C 0.08338 0.22834 0.83531 0.0
O11 O 0.03741 0.21896 0.62788 0.0
O12 O 0.05976 0.20807 0.69382 0.0
O13 O 0.06553 0.27444 0.78267 0.0
O14 O 0.05063 0.2608 0.67549 0.0
C15 C 1.02123 0.19799 0.89892 0.0
O16 O 0.06495 0.20718 0.82682 0.0
O17 O 0.08083 0.24691 0.82981 0.0
C18 C 0.05608 0.21598 0.63598 0.0
O19 O 1.01766 0.18616 0.8413 0.0
O20 O 0.03841 0.22059 0.90516 0.0
C21 C 1.00945 0.24971 0.81403 0.0
Fe22 Fe 0.82134 0.8257 0.83455 0.0
Fe23 Fe 0.87116 0.85968 0.7628 0.0
O24 O 0.84204 0.83182 0.76235 0.0
Fe25 Fe 0.83464 0.81101 0.68985 0.0
O26 O 0.80603 0.80997 0.67196 0.0
O27 O 0.79295 0.81201 0.77918 0.0
O28 O 0.82217 0.85513 0.82481 0.0
C29 C 0.84155 0.87579 0.82924 0.0
C30 C 0.81555 0.77907 0.81163 0.0
O31 O 0.86215 0.87723 0.82068 0.0
C32 C 0.88418 0.8278 0.69543 0.0
O33 O 0.84676 0.8376 0.90142 0.0
O34 O 0.88079 0.84897 0.83801 0.0
O35 O 0.81943 0.78257 0.74506 0.0
O36 O 0.81807 0.7961 0.85234 0.0
C37 C 0.85405 0.85934 0.62963 0.0
O38 O 0.88746 0.84911 0.70498 0.0
O39 O 0.86278 0.80949 0.69951 0.0
C40 C 0.86889 0.8417 0.89571 0.0
O41 O 0.86203 0.8709 0.68764 0.0
O42 O 0.84806 0.83661 0.6234 0.0
C43 C 0.78939 0.80843 0.71256 0.0
Fe44 Fe 0.24289 0.01729 0.83508 0.0
Fe45 Fe 0.20781 0.03082 0.76133 0.0
O46 O 0.23579 0.0301 0.76061 0.0
Fe47 Fe 0.25582 0.04245 0.68618 0.0
O48 O 0.25679 1.01456 0.67211 0.0
O49 O 0.25732 1.00269 0.78212 0.0
O50 O 0.21386 0.98794 0.82839 0.0
C51 C 0.19303 0.98629 0.83281 0.0
C52 C 0.2887 0.05839 0.80636 0.0
O53 O 0.19129 1.00526 0.82331 0.0
C54 C 0.2384 0.07476 0.68884 0.0
O55 O 0.23047 0.03102 0.90005 0.0
O56 O 0.21948 0.05289 0.83263 0.0
O57 O 0.28479 0.05681 0.73953 0.0
O58 O 0.27203 0.04474 0.84933 0.0
C59 C 0.20697 1.01207 0.63039 0.0
O60 O 0.21741 0.05637 0.69957 0.0
O61 O 0.25711 0.07228 0.69189 0.0
C62 C 0.22738 0.04956 0.89094 0.0
O63 O 0.19605 1.00903 0.68937 0.0
O64 O 0.22956 0.02896 0.6218 0.0
C65 C 0.25971 1.001 0.71544 0.0
Fe66 Fe 0.02581 0.81152 0.18577 0.0
Fe67 Fe 0.05154 0.82504 0.3339 0.0
O68 O 0.0382 0.83172 0.25985 0.0
Fe69 Fe 0.03701 0.85946 0.2607 0.0
O70 O 0.05855 0.8714 0.18824 0.0
O71 O 0.03888 0.83771 0.12107 0.0
O72 O 0.05385 0.81093 0.17104 0.0
C73 C 0.06791 0.8086 0.21388 0.0
C74 C 0.993 0.82831 0.18911 0.0
O75 O 0.06641 0.81103 0.28058 0.0
C76 C 1.01881 0.83972 0.39051 0.0
O77 O 1.01192 0.78262 0.23961 0.0
O78 O 0.02449 0.79567 0.34894 0.0
O79 O 1.0112 0.84945 0.19957 0.0
O80 O 0.9958 0.8098 0.19205 0.0
C81 C 0.08186 0.87498 0.33115 0.0
O82 O 0.03766 0.83714 0.39918 0.0
O83 O 1.01518 0.84757 0.33251 0.0
C84 C 1.01073 0.77885 0.30651 0.0
O85 O 0.08055 0.85432 0.32641 0.0
O86 O 0.06268 0.87639 0.32211 0.0
C87 C 0.05556 0.86041 0.12937 0.0
Fe88 Fe 0.25599 0.23466 0.19139 0.0
Fe89 Fe 0.20689 0.19915 0.2637 0.0
O90 O 0.23558 0.22737 0.26483 0.0
Fe91 Fe 0.24285 0.24751 0.33872 0.0
O92 O 0.27155 0.24858 0.35463 0.0
O93 O 0.28475 0.24924 0.24561 0.0
O94 O 0.25651 0.20594 0.19952 0.0
C95 C 0.23762 0.18492 0.19397 0.0
C96 C 0.26026 0.28027 0.21868 0.0
O97 O 0.21658 0.18252 0.20338 0.0
C98 C 0.19313 0.22996 0.3347 0.0
O99 O 0.23025 0.22188 0.12542 0.0
O100 O 0.19682 0.21046 0.19095 0.0
O101 O 0.25791 0.27644 0.28546 0.0
O102 O 0.25745 0.26366 0.1758 0.0
C103 C 0.22445 0.199 0.39558 0.0
O104 O 0.19031 0.20886 0.3237 0.0
O105 O 0.21438 0.24862 0.33081 0.0
C106 C 0.2085 0.21855 0.13329 0.0
O107 O 0.21658 0.18772 0.3371 0.0
O108 O 0.22973 0.22146 0.4034 0.0
C109 C 0.28842 0.25166 0.31249 0.0
Fe110 Fe 0.87033 0.02915 0.26487 0.0
Fe111 Fe 0.82127 1.01463 0.33826 0.0
O112 O 0.84146 0.0281 0.26437 0.0
Fe113 Fe 0.83387 0.04077 0.19069 0.0
O114 O 0.86226 0.07074 0.19775 0.0
O115 O 0.88639 0.05524 0.2047 0.0
O116 O 0.88031 0.05067 0.33751 0.0
C117 C 0.86882 0.04681 0.39564 0.0
C118 C 0.85298 1.01126 0.13288 0.0
O119 O 0.84717 0.02815 0.40379 0.0
C120 C 0.7886 0.99875 0.21793 0.0
O121 O 0.8613 1.00316 0.32522 0.0
O122 O 0.82132 0.98551 0.33021 0.0
O123 O 0.84709 0.02801 0.12544 0.0
O124 O 0.86074 1.00791 0.19157 0.0
C125 C 0.81597 0.05546 0.31169 0.0
O126 O 0.79245 1.00007 0.28465 0.0
O127 O 0.80517 1.01276 0.17525 0.0
C128 C 0.84061 0.98406 0.33446 0.0
O129 O 0.81912 0.04176 0.354 0.0
O130 O 0.81882 0.05448 0.24486 0.0
C131 C 0.88356 0.07349 0.1945 0.0
Fe132 Fe 0.71977 0.57907 0.17056 0.0
Fe133 Fe 0.70549 0.52995 0.0973 0.0
O134 O 0.70578 0.55854 0.09787 0.0
Fe135 Fe 0.69225 0.56555 0.02515 0.0
O136 O 0.7194 0.59472 1.00829 0.0
O137 O 0.73454 0.60761 0.11573 0.0
O138 O 0.74876 0.57888 0.16207 0.0
C139 C 0.75039 0.55973 0.16648 0.0
C140 C 0.6784 0.58391 0.14662 0.0
O141 O 0.73143 0.53903 0.15745 0.0
C142 C 0.6607 0.51579 0.02847 0.0
O143 O 0.70592 0.55322 0.2362 0.0
O144 O 0.68437 0.51923 0.17097 0.0
O145 O 0.67808 0.57989 0.08014 0.0
O146 O 0.69313 0.58188 0.18745 0.0
C147 C 0.72368 0.54926 0.96693 0.0
O148 O 0.67933 0.51344 0.03683 0.0
O149 O 0.66298 0.53681 0.03422 0.0
C150 C 0.68826 0.53085 0.22916 0.0
O151 O 0.72692 0.54082 0.02443 0.0
O152 O 0.70542 0.55291 0.95895 0.0
C153 C 0.73445 0.61132 0.0492 0.0
Fe154 Fe 0.48731 0.15906 0.16728 0.0
Fe155 Fe 0.53774 0.19279 0.09949 0.0
O156 O 0.50862 0.165 0.09683 0.0
Fe157 Fe 0.50224 0.14432 0.02452 0.0
O158 O 0.47285 0.14151 1.00572 0.0
O159 O 0.45971 0.14697 0.10934 0.0
O160 O 0.48926 0.18906 0.15885 0.0
C161 C 0.50883 0.20929 0.16659 0.0
C162 C 0.48167 0.11208 0.14497 0.0
O163 O 0.5291 0.20999 0.16 0.0
C164 C 0.55215 0.16261 0.03015 0.0
O165 O 0.51237 0.1696 0.23566 0.0
O166 O 0.54653 0.18057 0.17286 0.0
O167 O 0.48809 0.11598 0.07989 0.0
O168 O 0.4822 0.12866 0.18399 0.0
C169 C 0.52087 0.19319 0.96679 0.0
O170 O 0.55444 0.18344 0.03982 0.0
O171 O 0.53109 0.14386 0.03396 0.0
C172 C 0.534 0.17225 0.22934 0.0
O173 O 0.52877 0.20457 0.02539 0.0
O174 O 0.51493 0.17043 0.95931 0.0
C175 C 0.45631 0.14151 0.04358 0.0
Fe176 Fe 0.9056 0.34678 0.1679 0.0
Fe177 Fe 0.87168 0.36232 0.09484 0.0
O178 O 0.89956 0.36121 0.09532 0.0
Fe179 Fe 0.92058 0.37461 0.02324 0.0
O180 O 0.92119 0.34679 1.00516 0.0
O181 O 0.91979 0.3324 0.11293 0.0
O182 O 0.87637 0.31794 0.15742 0.0
C183 C 0.85557 0.31638 0.16071 0.0
C184 C 0.9522 0.38763 0.14571 0.0
O185 O 0.85388 0.33538 0.15136 0.0
C186 C 0.90408 0.4076 0.02914 0.0
O187 O 0.89316 0.35986 0.23448 0.0
O188 O 0.88186 0.38241 0.17086 0.0
O189 O 0.94889 0.38744 0.07888 0.0
O190 O 0.93497 0.37351 0.18648 0.0
C191 C 0.87261 0.34617 0.96112 0.0
O192 O 0.88268 0.38955 0.03817 0.0
O193 O 0.92235 0.40444 0.03341 0.0
C194 C 0.88877 0.37768 0.22891 0.0
O195 O 0.86085 0.34224 0.01884 0.0
O196 O 0.89533 0.36294 0.95599 0.0
C197 C 0.9231 0.33204 0.04622 0.0
Fe198 Fe 0.69029 0.14422 0.52302 0.0
Fe199 Fe 0.71945 0.15971 0.66588 0.0
O200 O 0.70437 0.16545 0.59436 0.0
Fe201 Fe 0.70328 0.19338 0.5943 0.0
O202 O 0.72315 0.2041 0.51792 0.0
O203 O 0.70228 0.16944 0.45546 0.0
O204 O 0.71755 0.14265 0.50379 0.0
C205 C 0.73308 0.14153 0.54345 0.0
C206 C 0.65784 0.16139 0.52941 0.0
O207 O 0.73392 0.14596 0.60978 0.0
C208 C 0.68828 0.17606 0.72833 0.0
O209 O 0.67713 0.11614 0.57947 0.0
O210 O 0.69329 0.13005 0.68535 0.0
O211 O 0.67607 0.18267 0.53789 0.0
O212 O 0.66076 0.14301 0.53401 0.0
C213 C 0.74936 0.20983 0.65895 0.0
O214 O 0.70621 0.17178 0.73324 0.0
O215 O 0.68339 0.18312 0.67071 0.0
C216 C 0.67828 0.1129 0.64582 0.0
O217 O 0.74801 0.18916 0.65473 0.0
O218 O 0.7302 0.21125 0.65063 0.0
C219 C 0.71909 0.1922 0.46034 0.0
Fe220 Fe 0.87386 0.53024 0.59958 0.0
Fe221 Fe 0.92252 0.56462 0.52356 0.0
O222 O 0.90246 0.55853 0.59722 0.0
Fe223 Fe 0.91009 0.57954 0.66934 0.0
O224 O 0.88153 0.58044 0.66097 0.0
O225 O 0.85782 0.54059 0.65957 0.0
O226 O 0.86279 0.54005 0.52562 0.0
C227 C 0.87402 0.54722 0.46675 0.0
C228 C 0.8936 0.5322 0.72972 0.0
O229 O 0.89635 0.55199 0.45906 0.0
C230 C 0.95528 0.58236 0.64356 0.0
O231 O 0.88262 0.51285 0.54026 0.0
O232 O 0.92244 0.53552 0.53301 0.0
O233 O 0.89731 0.55416 0.73669 0.0
O234 O 0.88499 0.52016 0.67276 0.0
C235 C 0.92822 0.61115 0.54641 0.0
O236 O 0.95139 0.57896 0.57697 0.0
O237 O 0.93898 0.5809 0.68549 0.0
C238 C 0.90328 0.51464 0.53005 0.0
O239 O 0.92508 0.5939 0.5057 0.0
O240 O 0.9248 0.60786 0.61324 0.0
C241 C 0.86042 0.56174 0.66742 0.0
Fe242 Fe 0.48783 0.34728 0.67071 0.0
Fe243 Fe 0.53781 0.36334 0.60101 0.0
O244 O 0.50877 0.36203 0.5991 0.0
Fe245 Fe 0.50198 0.37571 0.52626 0.0
O246 O 0.47295 0.34851 0.50826 0.0
O247 O 0.45977 0.33204 0.61422 0.0
O248 O 0.4891 0.31886 0.66211 0.0
C249 C 0.50859 0.31796 0.66859 0.0
C250 C 0.48212 0.38832 0.647 0.0
O251 O 0.52902 0.33742 0.66128 0.0
C252 C 0.55176 0.40787 0.5315 0.0
O253 O 0.51318 0.36148 0.73818 0.0
O254 O 0.54699 0.38454 0.67424 0.0
O255 O 0.48727 0.38957 0.58103 0.0
O256 O 0.48378 0.37325 0.68743 0.0
C257 C 0.52089 0.34584 0.46844 0.0
O258 O 0.55426 0.38945 0.54131 0.0
O259 O 0.5306 0.40535 0.53526 0.0
C260 C 0.53482 0.38038 0.73134 0.0
O261 O 0.52867 0.34239 0.52709 0.0
O262 O 0.51502 0.36266 0.46104 0.0
C263 C 0.45632 0.33284 0.54784 0.0
Fe264 Fe 0.38465 0.91242 0.50714 0.0
Fe265 Fe 0.36076 0.90152 0.35722 0.0
O266 O 0.372 0.89277 0.43187 0.0
Fe267 Fe 0.37058 0.86371 0.43124 0.0
O268 O 0.34922 0.85323 0.50419 0.0
O269 O 0.37086 0.88627 0.57161 0.0
O270 O 0.35707 0.91396 0.52097 0.0
C271 C 0.34483 0.91857 0.47705 0.0
C272 C 0.41544 0.89328 0.50316 0.0
O273 O 0.34779 0.91757 0.41032 0.0
C274 C 0.38909 0.88125 0.2996 0.0
O275 O 0.39964 0.94172 0.45503 0.0
O276 O 0.38965 0.92937 0.34422 0.0
O277 O 0.39664 0.87256 0.49116 0.0
O278 O 0.41384 0.91255 0.50085 0.0
C279 C 0.32666 0.85225 0.35943 0.0
O280 O 0.37277 0.88764 0.2919 0.0
O281 O 0.39193 0.87324 0.35829 0.0
C282 C 0.40273 0.94582 0.38839 0.0
O283 O 0.33034 0.87393 0.36264 0.0
O284 O 0.34416 0.84825 0.37121 0.0
C285 C 0.35321 0.86408 0.56343 0.0
Fe286 Fe 0.15279 0.48893 0.5031 0.0
Fe287 Fe 0.20074 0.52681 0.43052 0.0
O288 O 0.1735 0.49725 0.43026 0.0
Fe289 Fe 0.16792 0.47722 0.35665 0.0
O290 O 0.13781 0.47292 0.34023 0.0
O291 O 0.12428 0.47335 0.44829 0.0
O292 O 0.15031 0.51664 0.49577 0.0
C293 C 0.16829 0.5382 0.50081 0.0
C294 C 0.15176 0.44456 0.47711 0.0
O295 O 0.18977 0.54198 0.49125 0.0
C296 C 0.21809 0.49892 0.36042 0.0
O297 O 0.1786 0.50257 0.56884 0.0
O298 O 0.21284 0.5177 0.50362 0.0
O299 O 0.15517 0.4485 0.41053 0.0
O300 O 0.15271 0.46071 0.51869 0.0
C301 C 0.18101 0.52446 0.30019 0.0
O302 O 0.21868 0.51911 0.36965 0.0
O303 O 0.19784 0.47911 0.36515 0.0
C304 C 0.20144 0.50906 0.56163 0.0
O305 O 0.18858 0.53609 0.35819 0.0
O306 O 0.17901 0.50321 0.29137 0.0
C307 C 0.12066 0.46959 0.38169 0.0
Fe308 Fe 0.58973 0.7078 0.35382 0.0
Fe309 Fe 0.57474 0.68119 0.50039 0.0
O310 O 0.56897 0.69528 0.4265 0.0
Fe311 Fe 0.54154 0.69717 0.42587 0.0
O312 O 0.52971 0.67586 0.35272 0.0
O313 O 0.56398 0.69531 0.2878 0.0
O314 O 0.59013 0.67977 0.33842 0.0
C315 C 0.5914 0.66488 0.3804 0.0
C316 C 0.57377 0.74122 0.35634 0.0
O317 O 0.58797 0.66556 0.44693 0.0
C318 C 0.56106 0.71493 0.55638 0.0
O319 O 0.61819 0.72114 0.40887 0.0
O320 O 0.60459 0.70741 0.51699 0.0
O321 O 0.55236 0.72329 0.36517 0.0
O322 O 0.59188 0.73788 0.36124 0.0
C323 C 0.52465 0.65201 0.49583 0.0
O324 O 0.56321 0.69579 0.56536 0.0
O325 O 0.5534 0.71873 0.49826 0.0
C326 C 0.62171 0.72131 0.47559 0.0
O327 O 0.54506 0.65281 0.49165 0.0
O328 O 0.52377 0.67145 0.48656 0.0
C329 C 0.54119 0.67874 0.29479 0.0
Fe330 Fe 0.38408 0.49186 1.00107 0.0
Fe331 Fe 0.37135 0.52764 0.92704 0.0
O332 O 0.37121 0.4992 0.92716 0.0
Fe333 Fe 0.3582 0.47887 0.85331 0.0
O334 O 0.38596 0.47789 0.83757 0.0
O335 O 0.39785 0.47677 0.94706 0.0
O336 O 0.41382 0.52042 0.99343 0.0
C337 C 0.41628 0.54164 0.99628 0.0
C338 C 0.34261 0.44634 0.9739 0.0
O339 O 0.3979 0.54426 0.98554 0.0
C340 C 0.32629 0.49669 0.85825 0.0
O341 O 0.37146 0.50504 0.06689 0.0
O342 O 0.35056 0.51775 1.00131 0.0
O343 O 0.3444 0.45005 0.90707 0.0
O344 O 0.35614 0.46312 0.01676 0.0
C345 C 0.38809 0.52706 0.79415 0.0
O346 O 0.34481 0.51771 0.86854 0.0
O347 O 0.32857 0.47784 0.86122 0.0
C348 C 0.35447 0.51058 0.06006 0.0
O349 O 0.39214 0.53833 0.85274 0.0
O350 O 0.37089 0.50459 0.78747 0.0
C351 C 0.39945 0.47456 0.88016 0.0
Fe352 Fe 0.58953 0.9006 0.85469 0.0
Fe353 Fe 0.54205 0.86318 0.9302 0.0
O354 O 0.56954 0.89245 0.92918 0.0
Fe355 Fe 0.5763 0.91247 1.00349 0.0
O356 O 0.6058 0.91492 0.01772 0.0
O357 O 0.61855 0.91624 0.9075 0.0
O358 O 0.59187 0.87274 0.86084 0.0
C359 C 0.57371 0.85118 0.85723 0.0
C360 C 0.5921 0.94534 0.88347 0.0
O361 O 0.55237 0.84757 0.86875 0.0
C362 C 0.5263 0.89232 1.00166 0.0
O363 O 0.56327 0.88691 0.79056 0.0
O364 O 0.52966 0.87237 0.85802 0.0
O365 O 0.59004 0.94143 0.95025 0.0
O366 O 0.58939 0.92882 0.84046 0.0
C367 C 0.56224 0.86521 0.05958 0.0
O368 O 0.525 0.87178 0.99195 0.0
O369 O 0.54689 0.91185 0.99685 0.0
C370 C 0.54056 0.88061 0.79922 0.0
O371 O 0.55434 0.85363 1.00167 0.0
O372 O 0.56449 0.8865 0.06859 0.0
C373 C 0.62246 0.91829 0.97428 0.0
Fe374 Fe 0.20138 0.69396 0.93349 0.0
Fe375 Fe 0.15386 0.68375 1.00831 0.0
O376 O 0.1735 0.6948 0.93296 0.0
Fe377 Fe 0.16615 0.70663 0.85697 0.0
O378 O 0.19515 0.73605 0.86157 0.0
O379 O 0.21775 0.71876 0.86901 0.0
O380 O 0.21326 0.71693 1.00245 0.0
C381 C 0.20235 0.71507 0.06069 0.0
C382 C 0.18133 0.67366 0.80564 0.0
O383 O 0.18038 0.69727 0.07177 0.0
C384 C 0.12053 0.66631 0.88963 0.0
O385 O 0.1916 0.66896 0.99818 0.0
O386 O 0.15191 0.65367 1.00456 0.0
O387 O 0.17848 0.69225 0.79434 0.0
O388 O 0.18949 0.671 0.86444 0.0
C389 C 0.1507 0.7251 0.97429 0.0
O390 O 0.1246 0.66953 0.95626 0.0
O391 O 0.13707 0.67884 0.84502 0.0
C392 C 0.17037 0.65082 1.00913 0.0
O393 O 0.15395 0.71225 0.01944 0.0
O394 O 0.15183 0.7218 0.90784 0.0
C395 C 0.216 0.73767 0.85803 0.0
H396 H 0.10507 0.24003 0.65531 0.0
H397 H 0.04984 0.20688 0.49096 0.0
H398 H 0.13722 0.24721 0.57035 0.0
H399 H 0.08244 0.21393 0.40452 0.0
H400 H 0.14429 0.19476 0.33174 0.0
H401 H 0.11015 0.19534 0.3925 0.0
H402 H 0.15957 0.27009 0.46193 0.0
H403 H 0.19389 0.26952 0.40131 0.0
C404 C 0.09988 0.23457 0.60042 0.0
C405 C 0.07495 0.22269 0.57977 0.0
C406 C 0.11837 0.2389 0.55153 0.0
C407 C 0.11246 0.23117 0.48057 0.0
C408 C 0.08755 0.22003 0.45897 0.0
C409 C 0.06892 0.21609 0.50812 0.0
C410 C 0.14785 0.21149 0.35903 0.0
C411 C 0.17196 0.23196 0.36268 0.0
C412 C 0.12818 0.21188 0.3933 0.0
C413 C 0.13215 0.23267 0.43254 0.0
C414 C 0.15596 0.25368 0.43269 0.0
C415 C 0.17563 0.25338 0.39785 0.0
H416 H 0.80288 0.94369 0.40344 0.0
H417 H 0.87727 0.97305 0.32466 0.0
H418 H 0.80553 0.90993 0.46139 0.0
H419 H 0.87974 0.9395 0.38144 0.0
H420 H 0.88765 0.90609 0.59316 0.0
H421 H 0.8826 0.93284 0.50966 0.0
H422 H 0.8114 0.87221 0.44772 0.0
H423 H 0.8167 0.84512 0.53206 0.0
C424 C 0.81956 0.94268 0.39723 0.0
C425 C 0.84003 0.96135 0.3606 0.0
C426 C 0.82105 0.92329 0.43015 0.0
C427 C 0.843 0.92224 0.42686 0.0
C428 C 0.86275 0.94001 0.38614 0.0
C429 C 0.8613 0.95927 0.35358 0.0
C430 C 0.87119 0.89827 0.5604 0.0
C431 C 0.85269 0.87348 0.56855 0.0
C432 C 0.86827 0.9136 0.51245 0.0
C433 C 0.84657 0.90469 0.47196 0.0
C434 C 0.82828 0.87962 0.47836 0.0
C435 C 0.83144 0.86406 0.52583 0.0
H436 H 0.15875 0.99562 0.60454 0.0
H437 H 0.22134 0.99183 0.52362 0.0
H438 H 0.13191 0.96428 0.51981 0.0
H439 H 0.19405 0.95972 0.43838 0.0
H440 H 0.12318 0.8779 0.39399 0.0
H441 H 0.15693 0.91408 0.45334 0.0
H442 H 0.12513 0.95816 0.38751 0.0
H443 H 0.09167 0.92242 0.32893 0.0
C444 C 0.16684 0.98833 0.56766 0.0
C445 C 0.19214 0.99619 0.57057 0.0
C446 C 0.15146 0.97038 0.51897 0.0
C447 C 0.16086 0.9595 0.47245 0.0
C448 C 0.18632 0.96775 0.47383 0.0
C449 C 0.20193 0.98623 0.52201 0.0
C450 C 0.12369 0.89543 0.39112 0.0
C451 C 0.10444 0.89712 0.358 0.0
C452 C 0.14307 0.91616 0.42477 0.0
C453 C 0.14346 0.93886 0.42579 0.0
C454 C 0.12512 0.94084 0.38854 0.0
C455 C 0.1059 0.92029 0.35508 0.0
H456 H 0.21697 0.0427 0.03493 0.0
H457 H 0.25071 0.09862 0.87264 0.0
H458 H 0.22249 0.07478 0.12149 0.0
H459 H 0.25651 0.1303 0.95798 0.0
H460 H 0.27771 0.18571 0.13156 0.0
H461 H 0.27875 0.15177 0.07019 0.0
H462 H 0.20288 0.10237 0.12951 0.0
H463 H 0.20176 0.13622 0.19084 0.0
C464 C 0.226 0.06184 0.01832 0.0
C465 C 0.23326 0.06822 0.9472 0.0
C466 C 0.22906 0.08014 0.06751 0.0
C467 C 0.23999 0.10509 0.04652 0.0
C468 C 0.24832 0.11138 0.97619 0.0
C469 C 0.24482 0.09319 0.92715 0.0
C470 C 0.26138 0.16754 0.13261 0.0
C471 C 0.23953 0.1638 0.16517 0.0
C472 C 0.26197 0.1481 0.09738 0.0
C473 C 0.24084 0.12442 0.09464 0.0
C474 C 0.2195 0.12032 0.13109 0.0
C475 C 0.21882 0.13981 0.16566 0.0
H476 H 0.88444 0.11177 0.11841 0.0
H477 H 0.9318 0.08786 0.21297 0.0
H478 H 0.92058 0.146 0.06015 0.0
H479 H 0.96749 0.12177 0.15562 0.0
H480 H 1.00882 0.15197 0.94066 0.0
H481 H 0.97682 0.1257 0.0249 0.0
H482 H 0.96408 0.18575 0.07546 0.0
H483 H 0.99676 0.21241 0.99077 0.0
C484 C 0.90255 0.11414 0.12811 0.0
C485 C 0.90517 0.0968 0.1691 0.0
C486 C 0.92325 0.13376 0.09498 0.0
C487 C 0.94682 0.13632 0.1025 0.0
C488 C 0.94954 0.12004 0.1478 0.0
C489 C 0.92903 0.10058 0.18061 0.0
C490 C 0.99966 0.15977 0.97114 0.0
C491 C 1.00544 0.18426 0.95994 0.0
C492 C 0.98131 0.14474 0.0194 0.0
C493 C 0.9679 0.15364 0.0569 0.0
C494 C 0.97409 0.1784 0.04721 0.0
C495 C 0.99294 0.1937 0.99957 0.0
H496 H 0.91414 0.87578 0.9415 0.0
H497 H 0.85436 0.80217 0.98466 0.0
H498 H 0.94027 0.86993 0.02569 0.0
H499 H 0.88084 0.796 0.06929 0.0
H500 H 0.95506 0.7912 0.11092 0.0
H501 H 0.92074 0.7931 0.05382 0.0
H502 H 0.94411 0.8634 0.15498 0.0
H503 H 0.97817 0.86165 0.21105 0.0
C504 C 0.90642 0.85855 0.97066 0.0
C505 C 0.88219 0.83957 0.95751 0.0
C506 C 0.92137 0.85515 0.01884 0.0
C507 C 0.91263 0.83248 0.05422 0.0
C508 C 0.88807 0.81364 0.04271 0.0
C509 C 0.87285 0.81726 0.99515 0.0
C510 C 0.95249 0.80675 0.12208 0.0
C511 C 0.96964 0.82651 0.16426 0.0
C512 C 0.93281 0.80781 0.08963 0.0
C513 C 0.92998 0.82861 0.09909 0.0
C514 C 0.94605 0.84736 0.14562 0.0
C515 C 0.9656 0.84633 0.17769 0.0
H516 H 0.88219 0.78777 0.62852 0.0
H517 H 0.9333 0.8619 0.7 0.0
H518 H 0.91594 0.78639 0.56695 0.0
H519 H 0.96687 0.86049 0.63842 0.0
H520 H 0.02545 0.8471 0.5358 0.0
H521 H 0.99336 0.84013 0.62397 0.0
H522 H 0.93817 0.81051 0.45832 0.0
H523 H 0.96982 0.81769 0.37153 0.0
C524 C 0.90067 0.80356 0.63236 0.0
C525 C 0.90496 0.8251 0.66807 0.0
C526 C 0.91999 0.80278 0.59703 0.0
C527 C 0.94402 0.82342 0.59737 0.0
C528 C 0.94863 0.84424 0.63752 0.0
C529 C 0.9293 0.84511 0.67222 0.0
C530 C 1.00638 0.83875 0.51896 0.0
C531 C 1.00011 0.83321 0.44694 0.0
C532 C 0.98807 0.83482 0.56911 0.0
C533 C 0.96323 0.82471 0.54804 0.0
C534 C 0.95701 0.81801 0.47657 0.0
C535 C 0.97521 0.82237 0.42669 0.0
H536 H 0.2759 0.11356 0.61411 0.0
H537 H 0.2038 0.08818 0.70596 0.0
H538 H 0.27368 0.14761 0.55612 0.0
H539 H 0.20171 0.12186 0.64867 0.0
H540 H 0.19153 0.15207 0.43231 0.0
H541 H 0.19736 0.12577 0.51592 0.0
H542 H 0.26867 0.18697 0.57418 0.0
H543 H 0.26252 0.21367 0.4903 0.0
C544 C 0.25989 0.11555 0.62321 0.0
C545 C 0.23981 0.09787 0.66335 0.0
C546 C 0.25865 0.13506 0.59028 0.0
C547 C 0.23734 0.13713 0.59713 0.0
C548 C 0.21817 0.1205 0.64152 0.0
C549 C 0.2194 0.10117 0.67421 0.0
C550 C 0.20818 0.16008 0.46426 0.0
C551 C 0.22644 0.18492 0.45557 0.0
C552 C 0.21155 0.14504 0.51212 0.0
C553 C 0.23348 0.15432 0.55162 0.0
C554 C 0.25161 0.17937 0.54431 0.0
C555 C 0.24798 0.19466 0.49713 0.0
H556 H 0.87311 0.03893 0.53817 0.0
H557 H 0.89303 0.09596 0.38069 0.0
H558 H 0.89945 0.07063 0.62592 0.0
H559 H 0.91868 0.12727 0.46721 0.0
H560 H 0.95277 0.18141 0.64271 0.0
H561 H 0.91771 0.14726 0.58239 0.0
H562 H 0.94673 0.09929 0.63125 0.0
H563 H 0.9818 0.13336 0.69166 0.0
C564 C 0.88265 0.05822 0.52298 0.0
C565 C 0.88124 0.06508 0.45284 0.0
C566 C 0.89776 0.0763 0.57281 0.0
C567 C 0.91108 0.10144 0.55341 0.0
C568 C 0.90846 0.10817 0.48418 0.0
C569 C 0.8939 0.09021 0.43447 0.0
C570 C 0.95149 0.16349 0.64172 0.0
C571 C 0.97034 0.16025 0.67095 0.0
C572 C 0.93139 0.14393 0.60715 0.0
C573 C 0.92956 0.12064 0.60169 0.0
C574 C 0.94753 0.11695 0.63502 0.0
C575 C 0.96775 0.13657 0.66903 0.0
H576 H 0.88478 0.99493 0.10588 0.0
H577 H 0.81885 0.99198 0.0249 0.0
H578 H 0.88049 0.96423 0.01905 0.0
H579 H 0.81422 0.96049 0.93764 0.0
H580 H 0.80298 0.87864 0.89124 0.0
H581 H 0.8054 0.9147 0.95116 0.0
H582 H 0.8815 0.95892 0.88598 0.0
H583 H 0.87923 0.92329 0.82673 0.0
C584 C 0.86955 0.98797 0.06856 0.0
C585 C 0.85215 0.99584 0.07209 0.0
C586 C 0.86712 0.9704 0.01867 0.0
C587 C 0.847 0.95992 0.97157 0.0
C588 C 0.82985 0.96823 0.97353 0.0
C589 C 0.8326 0.98633 0.0229 0.0
C590 C 0.82004 0.89619 0.8885 0.0
C591 C 0.84106 0.89794 0.85549 0.0
C592 C 0.82139 0.91684 0.9225 0.0
C593 C 0.84375 0.93952 0.92397 0.0
C594 C 0.86414 0.9416 0.88661 0.0
C595 C 0.86281 0.92112 0.85277 0.0
H596 H 0.14541 0.97578 0.82839 0.0
H597 H 0.19047 0.9453 0.89722 0.0
H598 H 0.10968 0.94213 0.88631 0.0
H599 H 0.15424 0.9113 0.95582 0.0
H600 H 0.07603 0.84619 0.02279 0.0
H601 H 0.10846 0.87365 0.93861 0.0
H602 H 0.10335 0.93558 0.01929 0.0
H603 H 0.07177 0.90859 0.10321 0.0
C604 C 0.14767 0.96173 0.85523 0.0
C605 C 0.17098 0.96355 0.85939 0.0
C606 C 0.12712 0.9424 0.88829 0.0
C607 C 0.12921 0.92426 0.92633 0.0
C608 C 0.15208 0.925 0.92659 0.0
C609 C 0.17283 0.94452 0.89337 0.0
C610 C 0.08161 0.86559 0.02132 0.0
C611 C 0.07143 0.87527 0.06953 0.0
C612 C 0.10026 0.8813 0.97372 0.0
C613 C 0.10846 0.90676 0.97247 0.0
C614 C 0.09732 0.91604 0.01845 0.0
C615 C 0.07922 0.90057 0.06662 0.0
H616 H 0.12313 0.26909 0.89405 0.0
H617 H 0.09664 0.19293 0.8371 0.0
H618 H 0.15878 0.27078 0.95286 0.0
H619 H 0.13214 0.19465 0.89603 0.0
H620 H 0.20484 0.2077 0.98975 0.0
H621 H 0.17882 0.21371 0.90286 0.0
H622 H 0.15892 0.24962 0.065 0.0
H623 H 0.18433 0.24339 0.15057 0.0
C624 C 0.12511 0.25286 0.89296 0.0
C625 C 0.10679 0.23074 0.86203 0.0
C626 C 0.14552 0.25382 0.92668 0.0
C627 C 0.14817 0.23278 0.92953 0.0
C628 C 0.13075 0.21122 0.89433 0.0
C629 C 0.11026 0.21018 0.86119 0.0
C630 C 0.19523 0.21729 1.00589 0.0
C631 C 0.19632 0.22488 0.07672 0.0
C632 C 0.18031 0.22064 0.95653 0.0
C633 C 0.16682 0.23216 0.97713 0.0
C634 C 0.16924 0.24097 0.04706 0.0
C635 C 0.18364 0.23721 0.09626 0.0
H636 H 0.8614 0.60168 0.73221 0.0
H637 H 0.81161 0.52656 0.66599 0.0
H638 H 0.8272 0.60261 0.7926 0.0
H639 H 0.77759 0.52753 0.72629 0.0
H640 H 0.71753 0.54008 0.82206 0.0
H641 H 0.75013 0.54673 0.73608 0.0
H642 H 0.80481 0.57988 0.90217 0.0
H643 H 0.77263 0.57301 0.98682 0.0
C644 C 0.84312 0.58554 0.72938 0.0
C645 C 0.83934 0.56392 0.69524 0.0
C646 C 0.82353 0.58605 0.76407 0.0
C647 C 0.7997 0.56507 0.76463 0.0
C648 C 0.79563 0.54405 0.72646 0.0
C649 C 0.81523 0.54344 0.69247 0.0
C650 C 0.7366 0.54918 0.83937 0.0
C651 C 0.74259 0.55583 0.911 0.0
C652 C 0.75521 0.55289 0.79049 0.0
C653 C 0.78008 0.56387 0.81234 0.0
C654 C 0.78598 0.57167 0.88323 0.0
C655 C 0.76749 0.56754 0.93191 0.0
H656 H 0.55403 0.24055 0.93498 0.0
H657 H 0.4848 0.17896 0.86489 0.0
H658 H 0.54956 0.26739 0.85058 0.0
H659 H 0.48014 0.20615 0.77934 0.0
H660 H 0.47036 0.27659 0.73208 0.0
H661 H 0.47297 0.24296 0.79087 0.0
H662 H 0.54875 0.27489 0.72242 0.0
H663 H 0.54633 0.30837 0.66498 0.0
C664 C 0.53808 0.23264 0.90019 0.0
C665 C 0.51986 0.20765 0.90609 0.0
C666 C 0.53551 0.24802 0.85163 0.0
C667 C 0.51449 0.23893 0.80811 0.0
C668 C 0.49651 0.21369 0.81233 0.0
C669 C 0.4993 0.19809 0.86054 0.0
C670 C 0.48741 0.27615 0.7286 0.0
C671 C 0.50828 0.29544 0.69508 0.0
C672 C 0.48887 0.25683 0.76196 0.0
C673 C 0.5112 0.25647 0.76218 0.0
C674 C 0.53144 0.27487 0.72442 0.0
C675 C 0.53002 0.29409 0.69147 0.0
H676 H 0.88757 0.32452 0.86071 0.0
H677 H 0.82582 0.3327 0.92472 0.0
H678 H 0.86105 0.29294 0.77326 0.0
H679 H 0.79964 0.30171 0.83815 0.0
H680 H 0.7601 0.25752 0.65076 0.0
H681 H 0.79353 0.29349 0.70873 0.0
H682 H 0.82364 0.24894 0.78445 0.0
H683 H 0.79005 0.21264 0.72538 0.0
C684 C 0.86857 0.3201 0.85453 0.0
C685 C 0.85874 0.33114 0.89898 0.0
C686 C 0.85335 0.30187 0.80522 0.0
C687 C 0.82825 0.29483 0.79874 0.0
C688 C 0.81893 0.30687 0.841 0.0
C689 C 0.83392 0.32463 0.89075 0.0
C690 C 0.77401 0.25537 0.67885 0.0
C691 C 0.77211 0.23206 0.68456 0.0
C692 C 0.79319 0.27604 0.71208 0.0
C693 C 0.81102 0.27401 0.75211 0.0
C694 C 0.81022 0.25111 0.75376 0.0
C695 C 0.79093 0.2303 0.7202 0.0
H696 H 0.86697 0.46681 0.5421 0.0
H697 H 0.94081 0.51221 0.45955 0.0
H698 H 0.8643 0.43079 0.48423 0.0
H699 H 0.93797 0.4758 0.40071 0.0
H700 H 0.92612 0.39976 0.3267 0.0
H701 H 0.93184 0.43173 0.41367 0.0
H702 H 0.86101 0.42233 0.3539 0.0
H703 H 0.8556 0.39101 0.26759 0.0
C704 C 0.8828 0.46907 0.51227 0.0
C705 C 0.90393 0.49252 0.50426 0.0
C706 C 0.88124 0.44837 0.47916 0.0
C707 C 0.90075 0.4505 0.43704 0.0
C708 C 0.92265 0.47357 0.43306 0.0
C709 C 0.92424 0.49444 0.46648 0.0
C710 C 0.91156 0.40413 0.33397 0.0
C711 C 0.89031 0.39282 0.2911 0.0
C712 C 0.91494 0.42258 0.38295 0.0
C713 C 0.89687 0.42953 0.39068 0.0
C714 C 0.87515 0.41723 0.35001 0.0
C715 C 0.87202 0.39927 0.30051 0.0
H716 H 0.59994 0.42126 0.54543 0.0
H717 H 0.55278 0.44665 0.45786 0.0
H718 H 0.63539 0.45473 0.48587 0.0
H719 H 0.5887 0.48044 0.39753 0.0
H720 H 0.66544 0.54598 0.32496 0.0
H721 H 0.63319 0.51972 0.41131 0.0
H722 H 0.64278 0.45824 0.35317 0.0
H723 H 0.67431 0.48411 0.26726 0.0
C724 C 0.59717 0.43422 0.51422 0.0
C725 C 0.57341 0.43097 0.50524 0.0
C726 C 0.61755 0.45343 0.48017 0.0
C727 C 0.61478 0.46998 0.4362 0.0
C728 C 0.59138 0.46797 0.4313 0.0
C729 C 0.57082 0.4486 0.46562 0.0
C730 C 0.66099 0.52701 0.3323 0.0
C731 C 0.67247 0.51706 0.29013 0.0
C732 C 0.6424 0.51196 0.38093 0.0
C733 C 0.6355 0.48695 0.38908 0.0
C734 C 0.64785 0.47748 0.34882 0.0
C735 C 0.66592 0.49228 0.29959 0.0
H736 H 0.6182 0.12054 0.4701 0.0
H737 H 0.64408 0.19643 0.5289 0.0
H738 H 0.58251 0.11876 0.41123 0.0
H739 H 0.60867 0.19468 0.46969 0.0
H740 H 0.53742 0.18318 0.37291 0.0
H741 H 0.5628 0.17658 0.46065 0.0
H742 H 0.58151 0.13914 0.30025 0.0
H743 H 0.55662 0.14584 0.21402 0.0
C744 C 0.61608 0.13669 0.47161 0.0
C745 C 0.63425 0.15875 0.50313 0.0
C746 C 0.59565 0.13569 0.43775 0.0
C747 C 0.59284 0.15666 0.43521 0.0
C748 C 0.61012 0.17814 0.47106 0.0
C749 C 0.63059 0.1792 0.50441 0.0
C750 C 0.54654 0.17306 0.3574 0.0
C751 C 0.54528 0.16517 0.28683 0.0
C752 C 0.56115 0.16939 0.40725 0.0
C753 C 0.57422 0.15735 0.3874 0.0
C754 C 0.57152 0.14819 0.31778 0.0
C755 C 0.5574 0.1522 0.26815 0.0
H756 H 0.5535 0.12502 0.95642 0.0
H757 H 0.60027 0.19758 0.04563 0.0
H758 H 0.58963 0.1273 0.89732 0.0
H759 H 0.636 0.19969 0.98763 0.0
H760 H 0.67624 0.20979 0.7712 0.0
H761 H 0.64494 0.2043 0.85767 0.0
H762 H 0.63312 0.13193 0.90959 0.0
H763 H 0.66508 0.13773 0.82248 0.0
C764 C 0.57151 0.14115 0.9648 0.0
C765 C 0.57393 0.16132 1.00449 0.0
C766 C 0.59221 0.14242 0.93121 0.0
C767 C 0.6156 0.16385 0.93699 0.0
C768 C 0.61818 0.18313 0.98111 0.0
C769 C 0.59765 0.18189 0.01432 0.0
C770 C 0.66746 0.193 0.80253 0.0
C771 C 0.67325 0.17433 0.79093 0.0
C772 C 0.64951 0.18981 0.85209 0.0
C773 C 0.63652 0.16766 0.89056 0.0
C774 C 0.6428 0.14917 0.88061 0.0
C775 C 0.66125 0.15259 0.83159 0.0
H776 H 0.86989 0.42245 0.03234 0.0
H777 H 0.94454 0.44622 0.96502 0.0
H778 H 0.8717 0.45782 0.97251 0.0
H779 H 0.94636 0.48181 0.90535 0.0
H780 H 0.91753 0.50717 0.71101 0.0
H781 H 0.92425 0.48206 0.79637 0.0
H782 H 0.89112 0.50414 0.96131 0.0
H783 H 0.88456 0.52982 0.87449 0.0
C784 C 0.88688 0.43547 1.00583 0.0
C785 C 0.90693 0.43124 1.00244 0.0
C786 C 0.88797 0.45591 0.97209 0.0
C787 C 0.90908 0.47254 0.93367 0.0
C788 C 0.92972 0.46917 0.93396 0.0
C789 C 0.9287 0.44881 0.96828 0.0
C790 C 0.91206 0.50702 0.76583 0.0
C791 C 0.90032 0.52022 0.78614 0.0
C792 C 0.91611 0.49278 0.81495 0.0
C793 C 0.90822 0.49104 0.88571 0.0
C794 C 0.89733 0.50506 0.90701 0.0
C795 C 0.89366 0.51981 0.85766 0.0
H796 H 0.61993 0.51592 0.97484 0.0
H797 H 0.64864 0.46743 0.02102 0.0
H798 H 0.58411 0.48172 0.91701 0.0
H799 H 0.61302 0.43343 0.96285 0.0
H800 H 0.54055 0.37267 0.87295 0.0
H801 H 0.56696 0.4047 0.95966 0.0
H802 H 0.58217 0.46107 0.80311 0.0
H803 H 0.55627 0.42941 0.71779 0.0
C804 C 0.61845 0.49792 0.97364 0.0
C805 C 0.63739 0.49455 1.00148 0.0
C806 C 0.59793 0.47832 0.94045 0.0
C807 C 0.59579 0.45488 0.93489 0.0
C808 C 0.61396 0.45115 0.96671 0.0
C809 C 0.63454 0.47076 0.99942 0.0
C810 C 0.54911 0.39196 0.8582 0.0
C811 C 0.54654 0.39867 0.7889 0.0
C812 C 0.56431 0.41026 0.9074 0.0
C813 C 0.5767 0.43545 0.88821 0.0
C814 C 0.57273 0.44196 0.8201 0.0
C815 C 0.55801 0.4238 0.77102 0.0
H816 H 0.54711 0.25648 0.16645 0.0
H817 H 0.47048 0.21267 0.22786 0.0
H818 H 0.54962 0.29235 0.22485 0.0
H819 H 0.47316 0.24884 0.28766 0.0
H820 H 0.48554 0.32473 0.36418 0.0
H821 H 0.4811 0.29313 0.27767 0.0
H822 H 0.54944 0.3 0.35316 0.0
H823 H 0.5537 0.33108 0.43844 0.0
C824 C 0.53068 0.25454 0.19188 0.0
C825 C 0.50871 0.23155 0.19363 0.0
C826 C 0.53215 0.27515 0.22538 0.0
C827 C 0.51172 0.27338 0.26185 0.0
C828 C 0.48921 0.25083 0.25977 0.0
C829 C 0.4877 0.23008 0.22584 0.0
C830 C 0.49985 0.31986 0.36062 0.0
C831 C 0.52004 0.33043 0.4076 0.0
C832 C 0.49719 0.30161 0.31184 0.0
C833 C 0.51493 0.29407 0.30849 0.0
C834 C 0.53559 0.30556 0.35353 0.0
C835 C 0.53803 0.32336 0.40262 0.0
H836 H 0.8531 0.27611 0.2289 0.0
H837 H 0.80771 0.30494 0.15039 0.0
H838 H 0.81681 0.24226 0.28711 0.0
H839 H 0.77173 0.27122 0.20741 0.0
H840 H 0.73134 0.23845 0.42152 0.0
H841 H 0.76245 0.26488 0.33564 0.0
H842 H 0.77348 0.20444 0.27541 0.0
H843 H 0.7418 0.17768 0.36223 0.0
C844 C 0.83534 0.27494 0.22271 0.0
C845 C 0.83342 0.29352 0.18619 0.0
C846 C 0.81453 0.25549 0.25577 0.0
C847 C 0.79145 0.25427 0.25272 0.0
C848 C 0.7893 0.27188 0.21189 0.0
C849 C 0.80998 0.29123 0.17919 0.0
C850 C 0.73992 0.2306 0.38861 0.0
C851 C 0.73402 0.20599 0.39801 0.0
C852 C 0.75776 0.24573 0.33927 0.0
C853 C 0.77049 0.23679 0.2986 0.0
C854 C 0.76403 0.21186 0.30613 0.0
C855 C 0.74573 0.19649 0.35504 0.0
H856 H 0.82665 0.5145 0.43401 0.0
H857 H 0.88896 0.58348 0.36557 0.0
H858 H 0.80039 0.51938 0.34815 0.0
H859 H 0.86231 0.58864 0.27906 0.0
H860 H 0.7908 0.59792 0.23373 0.0
H861 H 0.82451 0.59554 0.29294 0.0
H862 H 0.79495 0.52091 0.21632 0.0
H863 H 0.76149 0.52313 0.158 0.0
C864 C 0.83482 0.53049 0.39935 0.0
C865 C 0.85984 0.5485 0.4059 0.0
C866 C 0.81979 0.53329 0.35008 0.0
C867 C 0.82928 0.55439 0.30678 0.0
C868 C 0.85452 0.57221 0.31187 0.0
C869 C 0.86978 0.56914 0.36062 0.0
C870 C 0.79183 0.58123 0.22839 0.0
C871 C 0.77317 0.56054 0.19247 0.0
C872 C 0.81118 0.5799 0.26199 0.0
C873 C 0.81213 0.5579 0.26005 0.0
C874 C 0.79447 0.53796 0.21974 0.0
C875 C 0.77527 0.53926 0.1864 0.0
H876 H 0.40414 0.84846 0.27228 0.0
H877 H 0.41039 0.91618 0.19411 0.0
H878 H 0.43553 0.85253 0.18852 0.0
H879 H 0.44244 0.92049 0.10951 0.0
H880 H 0.5232 0.93077 0.06389 0.0
H881 H 0.48704 0.92836 0.1229 0.0
H882 H 0.44315 0.85203 0.05918 0.0
H883 H 0.47893 0.85427 1.00121 0.0
C884 C 0.41193 0.86402 0.23603 0.0
C885 C 0.40475 0.88196 0.23954 0.0
C886 C 0.42992 0.86634 0.18785 0.0
C887 C 0.44152 0.88685 0.14232 0.0
C888 C 0.43388 0.90453 0.14416 0.0
C889 C 0.41541 0.90195 0.19192 0.0
C890 C 0.50572 0.91362 0.06154 0.0
C891 C 0.50412 0.89258 0.02904 0.0
C892 C 0.48498 0.91228 0.095 0.0
C893 C 0.46231 0.8899 0.09649 0.0
C894 C 0.46043 0.86941 0.06005 0.0
C895 C 0.48101 0.87073 0.02684 0.0
H896 H 0.15436 0.54669 0.31869 0.0
H897 H 0.19242 0.52962 0.1567 0.0
H898 H 0.14794 0.57261 0.23571 0.0
H899 H 0.18602 0.55598 0.07218 0.0
H900 H 0.20562 0.63739 1.00987 0.0
H901 H 0.20393 0.60169 0.06698 0.0
H902 H 0.12803 0.57517 0.12629 0.0
H903 H 0.12978 0.61119 0.06959 0.0
C904 C 0.16094 0.54816 0.26453 0.0
C905 C 0.17405 0.53634 0.24412 0.0
C906 C 0.15708 0.56288 0.21674 0.0
C907 C 0.1665 0.56647 0.14726 0.0
C908 C 0.17866 0.55367 0.12555 0.0
C909 C 0.1822 0.53849 0.17354 0.0
C910 C 0.18844 0.62382 0.03435 0.0
C911 C 0.16797 0.62742 0.03634 0.0
C912 C 0.1874 0.60317 0.06641 0.0
C913 C 0.16591 0.58563 0.10163 0.0
C914 C 0.14497 0.5885 0.10023 0.0
C915 C 0.14595 0.60912 0.06769 0.0
H916 H 0.42941 0.58984 0.98357 0.0
H917 H 0.45537 0.54281 0.06857 0.0
H918 H 0.46309 0.62534 0.04231 0.0
H919 H 0.4894 0.57879 0.12801 0.0
H920 H 0.55546 0.65555 0.19756 0.0
H921 H 0.52853 0.62312 0.11261 0.0
H922 H 0.46768 0.63319 0.17457 0.0
H923 H 0.49421 0.66491 0.25914 0.0
C924 C 0.44251 0.5871 0.01409 0.0
C925 C 0.43937 0.56335 0.02251 0.0
C926 C 0.46185 0.60751 0.04768 0.0
C927 C 0.47867 0.60481 0.09058 0.0
C928 C 0.47672 0.58142 0.09505 0.0
C929 C 0.45721 0.56083 0.06125 0.0
C930 C 0.53648 0.65116 0.19145 0.0
C931 C 0.52692 0.66283 0.23441 0.0
C932 C 0.52104 0.63246 0.14358 0.0
C933 C 0.49601 0.62564 0.1369 0.0
C934 C 0.48692 0.63818 0.17781 0.0
C935 C 0.50211 0.65636 0.2263 0.0
H936 H 0.61344 0.85324 0.78773 0.0
H937 H 0.54001 0.80201 0.86362 0.0
H938 H 0.61482 0.81928 0.72726 0.0
H939 H 0.54134 0.76828 0.80294 0.0
H940 H 0.55343 0.70901 0.702 0.0
H941 H 0.56074 0.74167 0.7885 0.0
H942 H 0.59155 0.79608 0.62099 0.0
H943 H 0.58421 0.7639 0.53604 0.0
C944 C 0.59779 0.83471 0.79261 0.0
C945 C 0.57645 0.83044 0.82941 0.0
C946 C 0.59855 0.81526 0.75786 0.0
C947 C 0.57809 0.79109 0.75975 0.0
C948 C 0.55747 0.78659 0.80075 0.0
C949 C 0.55663 0.80602 0.83494 0.0
C950 C 0.56216 0.72803 0.68444 0.0
C951 C 0.56798 0.73392 0.61235 0.0
C952 C 0.56626 0.74669 0.73365 0.0
C953 C 0.57675 0.77151 0.7116 0.0
C954 C 0.58376 0.77731 0.64015 0.0
C955 C 0.5793 0.75878 0.59125 0.0
H956 H 0.33218 0.87811 0.66866 0.0
H957 H 0.33835 0.81643 0.59166 0.0
H958 H 0.29993 0.85047 0.75307 0.0
H959 H 0.3069 0.78923 0.67561 0.0
H960 H 0.26365 0.74827 0.86351 0.0
H961 H 0.29954 0.7822 0.80702 0.0
H962 H 0.25493 0.81279 0.73596 0.0
H963 H 0.21859 0.77858 0.7933 0.0
C964 C 0.3271 0.85884 0.67113 0.0
C965 C 0.33773 0.84937 0.62385 0.0
C966 C 0.30855 0.84302 0.71878 0.0
C967 C 0.30089 0.81768 0.72088 0.0
C968 C 0.31253 0.80867 0.6759 0.0
C969 C 0.33055 0.82425 0.62772 0.0
C970 C 0.26141 0.76232 0.83657 0.0
C971 C 0.23808 0.76039 0.83161 0.0
C972 C 0.28206 0.78181 0.80435 0.0
C973 C 0.28 0.79998 0.7663 0.0
C974 C 0.25707 0.79909 0.7652 0.0
C975 C 0.23625 0.77943 0.79764 0.0
H976 H 0.2486 0.54217 0.5964 0.0
H977 H 0.18714 0.47176 0.65922 0.0
H978 H 0.27515 0.53697 0.68053 0.0
H979 H 0.21408 0.46625 0.74366 0.0
H980 H 0.28694 0.45872 0.78643 0.0
H981 H 0.25298 0.46077 0.72746 0.0
H982 H 0.27993 0.53393 0.81284 0.0
H983 H 0.31355 0.53202 0.87114 0.0
C984 C 0.24067 0.52577 0.62939 0.0
C985 C 0.21578 0.50746 0.62175 0.0
C986 C 0.25587 0.52277 0.67763 0.0
C987 C 0.24672 0.50119 0.71873 0.0
C988 C 0.22162 0.48305 0.71253 0.0
C989 C 0.20618 0.4863 0.66493 0.0
C990 C 0.28526 0.47498 0.79379 0.0
C991 C 0.30325 0.49539 0.8323 0.0
C992 C 0.26578 0.47613 0.76024 0.0
C993 C 0.26404 0.49767 0.76476 0.0
C994 C 0.28102 0.51726 0.80744 0.0
C995 C 0.30032 0.51613 0.84078 0.0
H996 H 0.22232 0.46073 0.30174 0.0
H997 H 0.26502 0.53792 0.3589 0.0
H998 H 0.25876 0.46367 0.24336 0.0
H999 H 0.30117 0.54068 0.30168 0.0
H1000 H 0.33933 0.54323 0.08742 0.0
H1001 H 0.30858 0.53944 0.17308 0.0
H1002 H 0.30348 0.4726 0.25527 0.0
H1003 H 0.33489 0.47666 0.16865 0.0
C1004 C 0.23954 0.47816 0.30305 0.0
C1005 C 0.24059 0.49921 0.33371 0.0
C1006 C 0.26045 0.4798 0.27002 0.0
C1007 C 0.28277 0.50249 0.26715 0.0
C1008 C 0.28415 0.52304 0.30193 0.0
C1009 C 0.26337 0.52143 0.33469 0.0
C1010 C 0.33209 0.52801 0.12479 0.0
C1011 C 0.3395 0.51024 0.12141 0.0
C1012 C 0.31448 0.52586 0.1741 0.0
C1013 C 0.30352 0.50569 0.22098 0.0
C1014 C 0.31153 0.48828 0.21955 0.0
C1015 C 0.32962 0.49071 0.17058 0.0
H1016 H 0.61416 0.77943 0.29085 0.0
H1017 H 0.54013 0.75663 0.36226 0.0
H1018 H 0.61611 0.81523 0.23196 0.0
H1019 H 0.54206 0.79216 0.30326 0.0
H1020 H 0.55458 0.86366 0.20483 0.0
H1021 H 0.56191 0.83847 0.2914 0.0
H1022 H 0.59316 0.81511 0.12426 0.0
H1023 H 0.58573 0.83978 0.03913 0.0
C1024 C 0.59851 0.78229 0.29514 0.0
C1025 C 0.57682 0.76493 0.33002 0.0
C1026 C 0.59961 0.80276 0.26137 0.0
C1027 C 0.57915 0.80641 0.26246 0.0
C1028 C 0.55819 0.79002 0.3018 0.0
C1029 C 0.55701 0.76948 0.33497 0.0
C1030 C 0.56342 0.85346 0.18739 0.0
C1031 C 0.56928 0.85333 0.11537 0.0
C1032 C 0.56755 0.83902 0.23663 0.0
C1033 C 0.57812 0.82479 0.21462 0.0
C1034 C 0.58528 0.82603 0.14329 0.0
C1035 C 0.58078 0.83997 0.09433 0.0
H1036 H 0.30888 0.80287 0.37388 0.0
H1037 H 0.29139 0.85523 0.28016 0.0
H1038 H 0.274 0.76919 0.31191 0.0
H1039 H 0.25643 0.82139 0.21788 0.0
H1040 H 0.23382 0.76305 0.03391 0.0
H1041 H 0.25889 0.79584 0.11719 0.0
H1042 H 0.22677 0.74479 0.2922 0.0
H1043 H 0.20102 0.71157 0.20762 0.0
C1044 C 0.29731 0.80714 0.34101 0.0
C1045 C 0.30314 0.83178 0.33104 0.0
C1046 C 0.27718 0.78779 0.30604 0.0
C1047 C 0.26259 0.79266 0.25966 0.0
C1048 C 0.26749 0.81713 0.25298 0.0
C1049 C 0.28747 0.83649 0.28873 0.0
C1050 C 0.23189 0.75879 0.09024 0.0
C1051 C 0.21571 0.73467 0.11428 0.0
C1052 C 0.24607 0.77769 0.13803 0.0
C1053 C 0.24477 0.77295 0.21127 0.0
C1054 C 0.22813 0.74894 0.23591 0.0
C1055 C 0.21342 0.72998 0.18775 0.0
H1056 H 0.18442 0.67831 0.65921 0.0
H1057 H 0.16365 0.62528 0.82947 0.0
H1058 H 0.17671 0.64562 0.57251 0.0
H1059 H 0.15572 0.593 0.74403 0.0
H1060 H 0.12942 0.53497 0.57762 0.0
H1061 H 0.12821 0.56855 0.64119 0.0
H1062 H 0.19904 0.62095 0.552 0.0
H1063 H 0.2003 0.58754 0.48878 0.0
C1064 C 0.1779 0.65968 0.67787 0.0
C1065 C 0.175 0.65439 0.75098 0.0
C1066 C 0.17351 0.64102 0.62849 0.0
C1067 C 0.16551 0.61673 0.65155 0.0
C1068 C 0.16155 0.61139 0.72443 0.0
C1069 C 0.16639 0.62999 0.77345 0.0
C1070 C 0.14444 0.55372 0.57034 0.0
C1071 C 0.16514 0.55856 0.52919 0.0
C1072 C 0.14379 0.57293 0.60682 0.0
C1073 C 0.16364 0.59734 0.60197 0.0
C1074 C 0.18341 0.60239 0.55646 0.0
C1075 C 0.18422 0.58319 0.52078 0.0
H1076 H 0.40183 0.57424 0.76263 0.0
H1077 H 0.40924 0.51281 0.69012 0.0
H1078 H 0.43273 0.60115 0.67712 0.0
H1079 H 0.44069 0.54006 0.60346 0.0
H1080 H 0.52104 0.61037 0.55781 0.0
H1081 H 0.4846 0.57663 0.61554 0.0
H1082 H 0.44117 0.60913 0.54917 0.0
H1083 H 0.47736 0.64281 0.49272 0.0
C1084 C 0.40973 0.56639 0.72702 0.0
C1085 C 0.40308 0.54145 0.73266 0.0
C1086 C 0.42741 0.5818 0.67781 0.0
C1087 C 0.4392 0.57277 0.63342 0.0
C1088 C 0.43196 0.54754 0.63717 0.0
C1089 C 0.41382 0.53191 0.68603 0.0
C1090 C 0.50361 0.61006 0.55458 0.0
C1091 C 0.50224 0.62957 0.52196 0.0
C1092 C 0.4827 0.59065 0.58726 0.0
C1093 C 0.46008 0.5904 0.58771 0.0
C1094 C 0.45842 0.60903 0.55086 0.0
C1095 C 0.47921 0.62835 0.51854 0.0
H1096 H 0.45599 0.93133 0.57055 0.0
H1097 H 0.42606 0.85624 0.49657 0.0
H1098 H 0.48967 0.92885 0.62952 0.0
H1099 H 0.45945 0.85392 0.55486 0.0
H1100 H 0.49269 0.84809 0.77021 0.0
H1101 H 0.46578 0.85289 0.68665 0.0
H1102 H 0.52732 0.92168 0.61325 0.0
H1103 H 0.55462 0.9166 0.69731 0.0
C1104 C 0.45683 0.91452 0.56567 0.0
C1105 C 0.43803 0.89383 0.53005 0.0
C1106 C 0.47617 0.91314 0.59914 0.0
C1107 C 0.47699 0.89106 0.59753 0.0
C1108 C 0.4591 0.87103 0.55797 0.0
C1109 C 0.43993 0.8724 0.52464 0.0
C1110 C 0.50063 0.86398 0.7352 0.0
C1111 C 0.52576 0.88188 0.73987 0.0
C1112 C 0.48522 0.86673 0.68723 0.0
C1113 C 0.49442 0.88767 0.64336 0.0
C1114 C 0.51973 0.90539 0.64659 0.0
C1115 C 0.53537 0.90236 0.69399 0.0
H1116 H 0.06169 0.29152 0.58141 0.0
H1117 H 0.10599 0.31952 0.77158 0.0
H1118 H 0.08627 0.33072 0.52345 0.0
H1119 H 0.13171 0.35913 0.71157 0.0
H1120 H 0.14776 0.43361 0.61823 0.0
H1121 H 0.13047 0.39386 0.67447 0.0
H1122 H 0.12291 0.35959 0.46908 0.0
H1123 H 0.13935 0.39995 0.41156 0.0
C1124 C 0.07697 0.30599 0.61092 0.0
C1125 C 0.08164 0.30225 0.68188 0.0
C1126 C 0.09137 0.32859 0.57687 0.0
C1127 C 0.11122 0.34835 0.61208 0.0
C1128 C 0.11637 0.34452 0.68271 0.0
C1129 C 0.10167 0.32179 0.71734 0.0
C1130 C 0.14265 0.41773 0.58446 0.0
C1131 C 0.14462 0.42012 0.50972 0.0
C1132 C 0.13288 0.39473 0.61732 0.0
C1133 C 0.12492 0.37319 0.57686 0.0
C1134 C 0.12826 0.37565 0.50222 0.0
C1135 C 0.13792 0.39884 0.469 0.0
H1136 H 0.74474 0.79644 0.77658 0.0
H1137 H 0.77831 0.80216 0.5712 0.0
H1138 H 0.7044 0.77936 0.71878 0.0
H1139 H 0.73846 0.78424 0.5147 0.0
H1140 H 0.66395 0.76067 0.41741 0.0
H1141 H 0.70395 0.78596 0.47597 0.0
H1142 H 0.67521 0.74219 0.66683 0.0
H1143 H 0.63566 0.71799 0.61017 0.0
C1144 C 0.74361 0.79423 0.71932 0.0
C1145 C 0.76487 0.80045 0.67911 0.0
C1146 C 0.72042 0.78421 0.68597 0.0
C1147 C 0.7179 0.78001 0.61168 0.0
C1148 C 0.7394 0.78732 0.57157 0.0
C1149 C 0.76243 0.79745 0.60457 0.0
C1150 C 0.66624 0.7566 0.47191 0.0
C1151 C 0.64647 0.7372 0.5086 0.0
C1152 C 0.6892 0.77105 0.50569 0.0
C1153 C 0.69301 0.7663 0.57673 0.0
C1154 C 0.67309 0.74699 0.61303 0.0
C1155 C 0.65028 0.73281 0.57979 0.0
H1156 H 0.28794 0.98338 0.77733 0.0
H1157 H 0.25064 0.98137 0.58244 0.0
H1158 H 0.30646 0.96175 0.71763 0.0
H1159 H 0.26844 0.95937 0.52348 0.0
H1160 H 0.32919 0.94878 0.417 0.0
H1161 H 0.30667 0.96644 0.47639 0.0
H1162 H 0.30023 0.92449 0.66561 0.0
H1163 H 0.32308 0.90756 0.60717 0.0
C1164 C 0.28323 0.97782 0.72235 0.0
C1165 C 0.2679 0.98426 0.68478 0.0
C1166 C 0.29387 0.96543 0.6878 0.0
C1167 C 0.28928 0.959 0.61499 0.0
C1168 C 0.273 0.96449 0.57877 0.0
C1169 C 0.26256 0.97695 0.613 0.0
C1170 C 0.32262 0.94309 0.47083 0.0
C1171 C 0.32814 0.92688 0.50729 0.0
C1172 C 0.30969 0.95321 0.50516 0.0
C1173 C 0.30179 0.94719 0.57657 0.0
C1174 C 0.30647 0.93014 0.61154 0.0
C1175 C 0.31945 0.92023 0.57757 0.0
H1176 H 0.33336 0.08903 0.73856 0.0
H1177 H 0.30049 0.06628 0.94701 0.0
H1178 H 0.37396 0.1136 0.79431 0.0
H1179 H 0.34051 0.08935 1.00166 0.0
H1180 H 0.41456 0.14109 0.09614 0.0
H1181 H 0.3749 0.12604 0.03574 0.0
H1182 H 0.40374 0.10793 0.85048 0.0
H1183 H 0.44307 0.12385 0.90862 0.0
C1184 C 0.33471 0.08929 0.79601 0.0
C1185 C 0.31354 0.07532 0.83776 0.0
C1186 C 0.35804 0.10324 0.82825 0.0
C1187 C 0.36081 0.10341 0.90301 0.0
C1188 C 0.33942 0.09016 0.94435 0.0
C1189 C 0.31627 0.07653 0.91244 0.0
C1190 C 0.41244 0.13411 0.04231 0.0
C1191 C 0.43212 0.13359 1.00794 0.0
C1192 C 0.38962 0.12533 1.00752 0.0
C1193 C 0.3858 0.11552 0.93779 0.0
C1194 C 0.40578 0.11565 0.90327 0.0
C1195 C 0.42848 0.12463 0.93745 0.0
H1196 H 0.97139 0.25417 0.75286 0.0
H1197 H 1.01014 0.26409 0.9512 0.0
H1198 H 0.94628 0.26934 0.80986 0.0
H1199 H 0.98632 0.28008 1.00623 0.0
H1200 H 0.93317 0.29813 0.11067 0.0
H1201 H 0.94961 0.27411 0.05409 0.0
H1202 H 0.94879 0.30563 0.85035 0.0
H1203 H 0.93142 0.32828 0.90555 0.0
C1204 C 0.9746 0.25956 0.80832 0.0
C1205 C 0.99298 0.25796 0.8468 0.0
C1206 C 0.96028 0.26841 0.84119 0.0
C1207 C 0.96415 0.27611 0.91319 0.0
C1208 C 0.98223 0.27397 0.95151 0.0
C1209 C 0.99623 0.26496 0.91916 0.0
C1210 C 0.93618 0.29961 0.05372 0.0
C1211 C 0.93116 0.31545 0.01329 0.0
C1212 C 0.94582 0.28597 0.02105 0.0
C1213 C 0.95092 0.288 0.94721 0.0
C1214 C 0.94495 0.30314 0.90682 0.0
C1215 C 0.93515 0.31647 0.93912 0.0
H1216 H 0.79841 0.76535 0.94666 0.0
H1217 H 0.81285 0.73679 0.75432 0.0
H1218 H 0.78287 0.72585 1.00367 0.0
H1219 H 0.79804 0.69689 0.81329 0.0
H1220 H 0.73984 0.6225 0.90793 0.0
H1221 H 0.76188 0.66239 0.85166 0.0
H1222 H 0.79017 0.69648 0.05627 0.0
H1223 H 0.76671 0.65609 0.11381 0.0
C1224 C 0.79858 0.75068 0.91643 0.0
C1225 C 0.8068 0.7544 0.84518 0.0
C1226 C 0.78984 0.72789 0.9499 0.0
C1227 C 0.78917 0.7079 0.91383 0.0
C1228 C 0.79787 0.71167 0.84285 0.0
C1229 C 0.80646 0.73459 0.80883 0.0
C1230 C 0.7508 0.6384 0.94149 0.0
C1231 C 0.75104 0.63594 0.01608 0.0
C1232 C 0.76379 0.66146 0.90861 0.0
C1233 C 0.77779 0.68299 0.94888 0.0
C1234 C 0.77915 0.68046 0.02328 0.0
C1235 C 0.76587 0.65723 0.0565 0.0
H1236 H 0.94875 0.62524 0.41516 0.0
H1237 H 0.92899 0.65313 0.59907 0.0
H1238 H 0.96482 0.66456 0.35674 0.0
H1239 H 0.94433 0.69286 0.53845 0.0
H1240 H 1.00241 0.76782 0.44752 0.0
H1241 H 0.98038 0.72799 0.50395 0.0
H1242 H 0.9579 0.69307 0.29773 0.0
H1243 H 0.98144 0.73349 0.2403 0.0
C1244 C 0.94749 0.63972 0.4431 0.0
C1245 C 0.93755 0.63585 0.51243 0.0
C1246 C 0.95657 0.66241 0.40879 0.0
C1247 C 0.95586 0.68217 0.44197 0.0
C1248 C 0.94558 0.67829 0.51113 0.0
C1249 C 0.93668 0.65546 0.54612 0.0
C1250 C 0.99278 0.75174 0.41358 0.0
C1251 C 0.9942 0.75404 0.33875 0.0
C1252 C 0.97976 0.7287 0.44651 0.0
C1253 C 0.96736 0.70697 0.40605 0.0
C1254 C 0.96766 0.70926 0.33107 0.0
C1255 C 0.98099 0.7325 0.29783 0.0
H1256 H 0.33159 0.25862 0.24865 0.0
H1257 H 0.30138 0.263 0.45144 0.0
H1258 H 0.37182 0.27337 0.30547 0.0
H1259 H 0.34111 0.27861 0.50651 0.0
H1260 H 0.41252 0.29663 0.60851 0.0
H1261 H 0.37235 0.27279 0.55017 0.0
H1262 H 0.40488 0.30911 0.35103 0.0
H1263 H 0.44464 0.33156 0.40764 0.0
C1264 C 0.33346 0.26272 0.30504 0.0
C1265 C 0.31312 0.25971 0.34486 0.0
C1266 C 0.35659 0.27132 0.33784 0.0
C1267 C 0.36 0.27737 0.41112 0.0
C1268 C 0.33943 0.27379 0.45067 0.0
C1269 C 0.31647 0.26502 0.41836 0.0
C1270 C 0.4111 0.29921 0.55212 0.0
C1271 C 0.43191 0.31632 0.51347 0.0
C1272 C 0.38799 0.28567 0.51848 0.0
C1273 C 0.38504 0.2891 0.4455 0.0
C1274 C 0.40614 0.30552 0.40672 0.0
C1275 C 0.42912 0.31874 0.43991 0.0
H1276 H 0.80494 0.05763 0.45084 0.0
H1277 H 0.8075 0.09041 0.24656 0.0
H1278 H 0.7885 0.08124 0.50499 0.0
H1279 H 0.79186 0.11531 0.30229 0.0
H1280 H 0.73319 0.12913 0.40433 0.0
H1281 H 0.75575 0.11175 0.34857 0.0
H1282 H 0.79368 0.11847 0.54658 0.0
H1283 H 0.76984 0.13495 0.60406 0.0
C1284 C 0.80233 0.07018 0.41722 0.0
C1285 C 0.80741 0.0718 0.34362 0.0
C1286 C 0.79306 0.08407 0.44896 0.0
C1287 C 0.78872 0.10038 0.40866 0.0
C1288 C 0.7945 0.10266 0.33525 0.0
C1289 C 0.80363 0.08847 0.30308 0.0
C1290 C 0.74639 0.12707 0.4365 0.0
C1291 C 0.74933 0.13323 0.5095 0.0
C1292 C 0.75965 0.11725 0.40381 0.0
C1293 C 0.77662 0.11343 0.44254 0.0
C1294 C 0.78042 0.12058 0.51497 0.0
C1295 C 0.76687 0.13024 0.5481 0.0
H1296 H 0.63202 0.90646 0.10448 0.0
H1297 H 0.66873 0.94768 0.91544 0.0
H1298 H 0.67153 0.92262 0.16431 0.0
H1299 H 0.70859 0.96457 0.9762 0.0
H1300 H 0.77873 0.97902 0.08512 0.0
H1301 H 0.73916 0.95707 0.02478 0.0
H1302 H 0.70261 0.9596 0.21719 0.0
H1303 H 0.7425 0.98111 0.27824 0.0
C1304 C 0.64864 0.91897 0.07546 0.0
C1305 C 0.64718 0.9259 1.00513 0.0
C1306 C 0.67135 0.92841 0.11018 0.0
C1307 C 0.69342 0.94527 0.07594 0.0
C1308 C 0.69207 0.95149 1.00442 0.0
C1309 C 0.66922 0.94182 0.9693 0.0
C1310 C 0.76222 0.9746 0.11498 0.0
C1311 C 0.76385 0.98193 0.18662 0.0
C1312 C 0.73946 0.96219 0.07998 0.0
C1313 C 0.71753 0.9568 0.11531 0.0
C1314 C 0.71901 0.9632 0.18806 0.0
C1315 C 0.7419 0.97552 0.22337 0.0
H1316 H 0.08728 0.78182 0.27502 0.0
H1317 H 0.08704 0.8182 0.08047 0.0
H1318 H 0.10989 0.76452 0.21426 0.0
H1319 H 0.10994 0.80159 0.02048 0.0
H1320 H 0.12021 0.74028 0.91469 0.0
H1321 H 0.10292 0.76307 0.9744 0.0
H1322 H 0.14759 0.77224 0.15958 0.0
H1323 H 0.16428 0.74915 0.10068 0.0
C1324 C 0.09254 0.7866 0.21989 0.0
C1325 C 0.08516 0.80125 0.18263 0.0
C1326 C 0.10549 0.77667 0.18479 0.0
C1327 C 0.11151 0.78134 0.1118 0.0
C1328 C 0.10515 0.79702 0.07594 0.0
C1329 C 0.09216 0.80675 0.11073 0.0
C1330 C 0.12668 0.74764 0.96747 0.0
C1331 C 0.14349 0.74276 1.00294 0.0
C1332 C 0.11675 0.76068 1.00202 0.0
C1333 C 0.12355 0.76926 0.07259 0.0
C1334 C 0.14138 0.76544 0.1062 0.0
C1335 C 0.15114 0.75237 0.07199 0.0
H1336 H 0.28898 0.32656 0.27797 0.0
H1337 H 0.24937 0.28974 0.08694 0.0
H1338 H 0.30644 0.36637 0.21682 0.0
H1339 H 0.26609 0.32924 0.02659 0.0
H1340 H 0.32551 0.40013 0.91453 0.0
H1341 H 0.30345 0.36026 0.97561 0.0
H1342 H 0.29965 0.39703 0.166 0.0
H1343 H 0.32215 0.43656 0.10575 0.0
C1344 C 0.28356 0.32702 0.22356 0.0
C1345 C 0.26794 0.30495 0.18737 0.0
C1346 C 0.29357 0.34985 0.1882 0.0
C1347 C 0.28799 0.35117 0.116 0.0
C1348 C 0.2714 0.32908 0.0813 0.0
C1349 C 0.26161 0.30638 0.1163 0.0
C1350 C 0.31957 0.39958 0.96897 0.0
C1351 C 0.32577 0.42158 1.00522 0.0
C1352 C 0.30691 0.37671 1.00429 0.0
C1353 C 0.29995 0.37528 0.07651 0.0
C1354 C 0.30518 0.39727 0.11127 0.0
C1355 C 0.31794 0.42001 0.07631 0.0
H1356 H 0.9971 0.41954 0.08168 0.0
H1357 H 0.96354 0.39161 0.28695 0.0
H1358 H 0.03751 0.44255 0.13926 0.0
H1359 H 1.0035 0.41343 0.34333 0.0
H1360 H 0.07813 0.46605 0.43979 0.0
H1361 H 0.03791 0.45025 0.38164 0.0
H1362 H 0.06687 0.43493 0.19158 0.0
H1363 H 0.10662 0.45132 0.24784 0.0
C1364 C 0.99826 0.41833 0.13887 0.0
C1365 C 0.97695 0.40343 0.17912 0.0
C1366 C 1.02149 0.43139 0.17209 0.0
C1367 C 1.02403 0.42977 0.24635 0.0
C1368 C 1.00253 0.41554 0.28648 0.0
C1369 C 0.97944 0.40271 0.25357 0.0
C1370 C 0.07585 0.45939 0.38556 0.0
C1371 C 0.09575 0.46002 0.34895 0.0
C1372 C 0.05275 0.45025 0.35203 0.0
C1373 C 0.04895 0.4413 0.2813 0.0
C1374 C 0.06897 0.44211 0.24513 0.0
C1375 C 0.09191 0.45137 0.27813 0.0
H1376 H 0.63773 0.58465 0.09025 0.0
H1377 H 0.68227 0.60226 0.28022 0.0
H1378 H 0.61218 0.59898 0.14898 0.0
H1379 H 0.65786 0.61733 0.33686 0.0
H1380 H 0.60447 0.6335 0.44729 0.0
H1381 H 0.62127 0.60971 0.39108 0.0
H1382 H 0.61325 0.6351 0.18445 0.0
H1383 H 0.5956 0.65747 0.23953 0.0
C1384 C 0.64215 0.59163 0.14418 0.0
C1385 C 0.66218 0.59232 0.17996 0.0
C1386 C 0.62755 0.59993 0.17805 0.0
C1387 C 0.63279 0.60939 0.24826 0.0
C1388 C 0.65268 0.60973 0.28378 0.0
C1389 C 0.66698 0.60126 0.25049 0.0
C1390 C 0.60589 0.63358 0.38986 0.0
C1391 C 0.59892 0.64775 0.34846 0.0
C1392 C 0.61576 0.62012 0.35739 0.0
C1393 C 0.61906 0.62063 0.28278 0.0
C1394 C 0.6109 0.63385 0.24163 0.0
C1395 C 0.60092 0.64702 0.27378 0.0
H1396 H 0.41946 0.95664 0.25228 0.0
H1397 H 0.42495 0.99156 0.45506 0.0
H1398 H 0.44075 0.99652 0.19492 0.0
H1399 H 0.44759 0.03208 0.39767 0.0
H1400 H 0.45238 0.09457 0.26155 0.0
H1401 H 0.43784 0.05589 0.32308 0.0
H1402 H 0.47583 0.03481 0.17098 0.0
H1403 H 0.4899 0.07383 0.10714 0.0
C1404 C 0.42565 0.97292 0.28516 0.0
C1405 C 0.42001 0.97074 0.35843 0.0
C1406 C 0.43817 0.99598 0.25198 0.0
C1407 C 0.4457 0.01777 0.29093 0.0
C1408 C 0.44156 1.01572 0.36528 0.0
C1409 C 0.42882 0.99248 0.39862 0.0
C1410 C 0.45778 0.08179 0.24089 0.0
C1411 C 0.47238 0.08744 0.17901 0.0
C1412 C 0.44959 0.05955 0.27704 0.0
C1413 C 0.45583 0.0421 0.25319 0.0
C1414 C 0.47043 0.04764 0.19098 0.0
C1415 C 0.4785 0.07 0.1541 0.0
H1416 H 0.6087 0.99045 0.95134 0.0
H1417 H 0.59328 0.95658 0.74318 0.0
H1418 H 0.62578 0.03107 0.89512 0.0
H1419 H 0.61123 0.99658 0.68779 0.0
H1420 H 0.63592 0.07179 0.59543 0.0
H1421 H 0.61097 0.03222 0.65621 0.0
H1422 H 0.66131 0.05911 0.83455 0.0
H1423 H 0.6852 0.0984 0.77591 0.0
C1424 C 0.60875 0.99159 0.89386 0.0
C1425 C 0.59985 0.97013 0.85222 0.0
C1426 C 0.61879 1.01492 0.86132 0.0
C1427 C 0.62032 0.01739 0.78637 0.0
C1428 C 0.61028 0.99574 0.74529 0.0
C1429 C 0.60013 0.97259 0.77755 0.0
C1430 C 0.64152 0.06919 0.64767 0.0
C1431 C 0.66264 0.08836 0.68031 0.0
C1432 C 0.62726 0.04646 0.68274 0.0
C1433 C 0.63396 0.04222 0.75092 0.0
C1434 C 0.65503 0.06157 0.78323 0.0
C1435 C 0.66899 0.08421 0.74881 0.0
H1436 H 0.07445 0.65142 0.94696 0.0
H1437 H 0.1106 0.64227 0.76337 0.0
H1438 H 0.03461 0.62848 0.88588 0.0
H1439 H 0.07109 0.61907 0.7032 0.0
H1440 H 1.00178 0.60902 0.58394 0.0
H1441 H 0.04139 0.62658 0.64642 0.0
H1442 H 1.00327 0.58976 0.83954 0.0
H1443 H 0.964 0.57281 0.77772 0.0
C1444 C 0.07382 0.64401 0.8944 0.0
C1445 C 0.09572 0.64886 0.85999 0.0
C1446 C 0.05099 0.63088 0.85908 0.0
C1447 C 0.04956 0.62216 0.7888 0.0
C1448 C 0.07141 0.62598 0.75627 0.0
C1449 C 0.09409 0.63914 0.79122 0.0
C1450 C 1.00197 0.60434 0.63928 0.0
C1451 C 0.97972 0.58969 0.6758 0.0
C1452 C 0.02467 0.61442 0.67539 0.0
C1453 C 0.02562 0.60992 0.74869 0.0
C1454 C 1.00336 0.59421 0.78386 0.0
C1455 C 0.9808 0.5843 0.74805 0.0
H1456 H 0.48198 0.42966 0.59317 0.0
H1457 H 0.46099 0.38219 0.77752 0.0
H1458 H 0.46639 0.45419 0.65183 0.0
H1459 H 0.4448 0.40568 0.83404 0.0
H1460 H 0.42865 0.45889 0.94769 0.0
H1461 H 0.45214 0.4417 0.89185 0.0
H1462 H 0.42981 0.45299 0.68436 0.0
H1463 H 0.40765 0.47099 0.7393 0.0
C1464 C 0.474 0.42438 0.64583 0.0
C1465 C 0.47282 0.40388 0.68015 0.0
C1466 C 0.46496 0.43839 0.67965 0.0
C1467 C 0.4543 0.43211 0.74835 0.0
C1468 C 0.45333 0.41166 0.78226 0.0
C1469 C 0.46249 0.39792 0.74904 0.0
C1470 C 0.4291 0.45802 0.8902 0.0
C1471 C 0.41592 0.46612 0.8485 0.0
C1472 C 0.44241 0.44794 0.8579 0.0
C1473 C 0.44276 0.44556 0.78308 0.0
C1474 C 0.43037 0.45463 0.74175 0.0
C1475 C 0.41733 0.46481 0.77378 0.0
loop_
_geom_bond_atom_site_label_1
_geom_bond_atom_site_label_2
_geom_bond_distance
_geom_bond_site_symmetry_2
_ccdc_geom_bond_type
Fe0 O2 1.918 . S
Fe0 O5 1.997 1_455 S
Fe0 O6 2.002 1_455 S
Fe0 O11 1.976 . S
Fe0 O14 1.996 . S
Fe1 O2 1.918 . S
Fe1 O9 1.997 1_455 S
Fe1 O12 1.996 . S
Fe1 O16 1.976 . S
Fe1 O19 2.002 1_455 S
O2 Fe0 1.918 . S
O2 Fe1 1.918 . S
O2 Fe3 1.918 . S
Fe3 O2 1.918 . S
Fe3 O4 2.002 1_455 S
Fe3 O13 1.976 . S
Fe3 O17 1.996 . S
Fe3 O20 1.997 1_455 S
O4 Fe3 2.002 1_655 S
O4 C21 1.295 . S
O5 Fe0 1.997 1_655 S
O5 C21 1.235 . S
O6 Fe0 2.002 1_655 S
O6 C7 1.295 . S
C7 O6 1.295 . S
C7 O9 1.235 . S
C8 O13 1.287 . S
C8 O14 1.255 . S
O9 Fe1 1.997 1_655 S
O9 C7 1.235 . S
C10 O16 1.287 . S
C10 O17 1.255 . S
O11 Fe0 1.976 . S
O11 C18 1.287 . S
O12 Fe1 1.996 . S
O12 C18 1.255 . S
O13 Fe3 1.976 . S
O13 C8 1.287 . S
O14 Fe0 1.996 . S
O14 C8 1.255 . S
C15 O19 1.295 . S
C15 O20 1.235 . S
O16 Fe1 1.976 . S
O16 C10 1.287 . S
O17 Fe3 1.996 . S
O17 C10 1.255 . S
C18 O11 1.287 . S
C18 O12 1.255 . S
O19 Fe1 2.002 1_655 S
O19 C15 1.295 . S
O20 Fe3 1.997 1_655 S
O20 C15 1.235 . S
C21 O4 1.295 . S
C21 O5 1.235 . S
Fe22 O24 1.918 . S
Fe22 O27 1.997 . S
Fe22 O28 2.002 . S
Fe22 O33 1.976 . S
Fe22 O36 1.996 . S
Fe23 O24 1.918 . S
Fe23 O31 1.997 . S
Fe23 O34 1.996 . S
Fe23 O38 1.976 . S
Fe23 O41 2.002 . S
O24 Fe22 1.918 . S
O24 Fe23 1.918 . S
O24 Fe25 1.918 . S
Fe25 O24 1.918 . S
Fe25 O26 2.002 . S
Fe25 O35 1.976 . S
Fe25 O39 1.996 . S
Fe25 O42 1.997 . S
O26 Fe25 2.002 . S
O26 C43 1.295 . S
O27 Fe22 1.997 . S
O27 C43 1.235 . S
O28 Fe22 2.002 . S
O28 C29 1.295 . S
C29 O28 1.295 . S
C29 O31 1.235 . S
C30 O35 1.287 . S
C30 O36 1.255 . S
O31 Fe23 1.997 . S
O31 C29 1.235 . S
C32 O38 1.287 . S
C32 O39 1.255 . S
O33 Fe22 1.976 . S
O33 C40 1.287 . S
O34 Fe23 1.996 . S
O34 C40 1.255 . S
O35 Fe25 1.976 . S
O35 C30 1.287 . S
O36 Fe22 1.996 . S
O36 C30 1.255 . S
C37 O41 1.295 . S
C37 O42 1.235 . S
O38 Fe23 1.976 . S
O38 C32 1.287 . S
O39 Fe25 1.996 . S
O39 C32 1.255 . S
C40 O33 1.287 . S
C40 O34 1.255 . S
O41 Fe23 2.002 . S
O41 C37 1.295 . S
O42 Fe25 1.997 . S
O42 C37 1.235 . S
C43 O26 1.295 . S
C43 O27 1.235 . S
Fe44 O46 1.918 . S
Fe44 O49 1.997 1_545 S
Fe44 O50 2.002 1_545 S
Fe44 O55 1.976 . S
Fe44 O58 1.996 . S
Fe45 O46 1.918 . S
Fe45 O53 1.997 1_545 S
Fe45 O56 1.996 . S
Fe45 O60 1.976 . S
Fe45 O63 2.002 1_545 S
O46 Fe44 1.918 . S
O46 Fe45 1.918 . S
O46 Fe47 1.918 . S
Fe47 O46 1.918 . S
Fe47 O48 2.002 1_545 S
Fe47 O57 1.976 . S
Fe47 O61 1.996 . S
Fe47 O64 1.997 1_545 S
O48 Fe47 2.002 1_565 S
O48 C65 1.295 . S
O49 Fe44 1.997 1_565 S
O49 C65 1.235 . S
O50 Fe44 2.002 1_565 S
O50 C51 1.295 . S
C51 O50 1.295 . S
C51 O53 1.235 . S
C52 O57 1.287 . S
C52 O58 1.255 . S
O53 Fe45 1.997 1_565 S
O53 C51 1.235 . S
C54 O60 1.287 . S
C54 O61 1.255 . S
O55 Fe44 1.976 . S
O55 C62 1.287 . S
O56 Fe45 1.996 . S
O56 C62 1.255 . S
O57 Fe47 1.976 . S
O57 C52 1.287 . S
O58 Fe44 1.996 . S
O58 C52 1.255 . S
C59 O63 1.295 . S
C59 O64 1.235 . S
O60 Fe45 1.976 . S
O60 C54 1.287 . S
O61 Fe47 1.996 . S
O61 C54 1.255 . S
C62 O55 1.287 . S
C62 O56 1.255 . S
O63 Fe45 2.002 1_565 S
O63 C59 1.295 . S
O64 Fe47 1.997 1_565 S
O64 C59 1.235 . S
C65 O48 1.295 . S
C65 O49 1.235 . S
Fe66 O68 1.918 . S
Fe66 O71 1.997 . S
Fe66 O72 2.002 . S
Fe66 O77 1.976 1_455 S
Fe66 O80 1.996 1_455 S
Fe67 O68 1.918 . S
Fe67 O75 1.997 . S
Fe67 O78 1.996 1_455 S
Fe67 O82 1.976 1_455 S
Fe67 O85 2.002 . S
O68 Fe66 1.918 . S
O68 Fe67 1.918 . S
O68 Fe69 1.918 . S
Fe69 O68 1.918 . S
Fe69 O70 2.002 . S
Fe69 O79 1.976 1_455 S
Fe69 O83 1.996 1_455 S
Fe69 O86 1.997 . S
O70 Fe69 2.002 . S
O70 C87 1.295 . S
O71 Fe66 1.997 . S
O71 C87 1.235 . S
O72 Fe66 2.002 . S
O72 C73 1.295 . S
C73 O72 1.295 . S
C73 O75 1.235 . S
C74 O79 1.287 . S
C74 O80 1.255 . S
O75 Fe67 1.997 . S
O75 C73 1.235 . S
C76 O82 1.287 . S
C76 O83 1.255 . S
O77 Fe66 1.976 1_655 S
O77 C84 1.287 . S
O78 Fe67 1.996 1_655 S
O78 C84 1.255 . S
O79 Fe69 1.976 1_655 S
O79 C74 1.287 . S
O80 Fe66 1.996 1_655 S
O80 C74 1.255 . S
C81 O85 1.295 . S
C81 O86 1.235 . S
O82 Fe67 1.976 1_655 S
O82 C76 1.287 . S
O83 Fe69 1.996 1_655 S
O83 C76 1.255 . S
C84 O77 1.287 . S
C84 O78 1.255 . S
O85 Fe67 2.002 . S
O85 C81 1.295 . S
O86 Fe69 1.997 . S
O86 C81 1.235 . S
C87 O70 1.295 . S
C87 O71 1.235 . S
Fe88 O90 1.918 . S
Fe88 O93 1.997 . S
Fe88 O94 2.002 . S
Fe88 O99 1.976 . S
Fe88 O102 1.996 . S
Fe89 O90 1.918 . S
Fe89 O97 1.997 . S
Fe89 O100 1.996 . S
Fe89 O104 1.976 . S
Fe89 O107 2.002 . S
O90 Fe88 1.918 . S
O90 Fe89 1.918 . S
O90 Fe91 1.918 . S
Fe91 O90 1.918 . S
Fe91 O92 2.002 . S
Fe91 O101 1.976 . S
Fe91 O105 1.996 . S
Fe91 O108 1.997 . S
O92 Fe91 2.002 . S
O92 C109 1.295 . S
O93 Fe88 1.997 . S
O93 C109 1.235 . S
O94 Fe88 2.002 . S
O94 C95 1.295 . S
C95 O94 1.295 . S
C95 O97 1.235 . S
C96 O101 1.287 . S
C96 O102 1.255 . S
O97 Fe89 1.997 . S
O97 C95 1.235 . S
C98 O104 1.287 . S
C98 O105 1.255 . S
O99 Fe88 1.976 . S
O99 C106 1.287 . S
O100 Fe89 1.996 . S
O100 C106 1.255 . S
O101 Fe91 1.976 . S
O101 C96 1.287 . S
O102 Fe88 1.996 . S
O102 C96 1.255 . S
C103 O107 1.295 . S
C103 O108 1.235 . S
O104 Fe89 1.976 . S
O104 C98 1.287 . S
O105 Fe91 1.996 . S
O105 C98 1.255 . S
C106 O99 1.287 . S
C106 O100 1.255 . S
O107 Fe89 2.002 . S
O107 C103 1.295 . S
O108 Fe91 1.997 . S
O108 C103 1.235 . S
C109 O92 1.295 . S
C109 O93 1.235 . S
Fe110 O112 1.918 . S
Fe110 O115 1.997 . S
Fe110 O116 2.002 . S
Fe110 O121 1.976 1_545 S
Fe110 O124 1.996 1_545 S
Fe111 O112 1.918 . S
Fe111 O119 1.997 . S
Fe111 O122 1.996 1_545 S
Fe111 O126 1.976 1_545 S
Fe111 O129 2.002 . S
O112 Fe110 1.918 . S
O112 Fe111 1.918 . S
O112 Fe113 1.918 . S
Fe113 O112 1.918 . S
Fe113 O114 2.002 . S
Fe113 O123 1.976 1_545 S
Fe113 O127 1.996 1_545 S
Fe113 O130 1.997 . S
O114 Fe113 2.002 . S
O114 C131 1.295 . S
O115 Fe110 1.997 . S
O115 C131 1.235 . S
O116 Fe110 2.002 . S
O116 C117 1.295 . S
C117 O116 1.295 . S
C117 O119 1.235 . S
C118 O123 1.287 . S
C118 O124 1.255 . S
O119 Fe111 1.997 . S
O119 C117 1.235 . S
C120 O126 1.287 . S
C120 O127 1.255 . S
O121 Fe110 1.976 1_565 S
O121 C128 1.287 . S
O122 Fe111 1.996 1_565 S
O122 C128 1.255 . S
O123 Fe113 1.976 1_565 S
O123 C118 1.287 . S
O124 Fe110 1.996 1_565 S
O124 C118 1.255 . S
C125 O129 1.295 . S
C125 O130 1.235 . S
O126 Fe111 1.976 1_565 S
O126 C120 1.287 . S
O127 Fe113 1.996 1_565 S
O127 C120 1.255 . S
C128 O121 1.287 . S
C128 O122 1.255 . S
O129 Fe111 2.002 . S
O129 C125 1.295 . S
O130 Fe113 1.997 . S
O130 C125 1.235 . S
C131 O114 1.295 . S
C131 O115 1.235 . S
Fe132 O134 1.918 . S
Fe132 O137 1.997 . S
Fe132 O138 2.002 . S
Fe132 O143 1.976 . S
Fe132 O146 1.996 . S
Fe133 O134 1.918 . S
Fe133 O141 1.997 . S
Fe133 O144 1.996 . S
Fe133 O148 1.976 . S
Fe133 O151 2.002 . S
O134 Fe132 1.918 . S
O134 Fe133 1.918 . S
O134 Fe135 1.918 1_554 S
Fe135 O134 1.918 1_556 S
Fe135 O136 2.002 1_556 S
Fe135 O145 1.976 1_556 S
Fe135 O149 1.996 . S
Fe135 O152 1.997 . S
O136 Fe135 2.002 1_554 S
O136 C153 1.295 . S
O137 Fe132 1.997 . S
O137 C153 1.235 . S
O138 Fe132 2.002 . S
O138 C139 1.295 . S
C139 O138 1.295 . S
C139 O141 1.235 . S
C140 O145 1.287 . S
C140 O146 1.255 . S
O141 Fe133 1.997 . S
O141 C139 1.235 . S
C142 O148 1.287 1_556 S
C142 O149 1.255 . S
O143 Fe132 1.976 . S
O143 C150 1.287 . S
O144 Fe133 1.996 . S
O144 C150 1.255 . S
O145 Fe135 1.976 1_554 S
O145 C140 1.287 . S
O146 Fe132 1.996 . S
O146 C140 1.255 . S
C147 O151 1.295 1_556 S
C147 O152 1.235 . S
O148 Fe133 1.976 . S
O148 C142 1.287 1_554 S
O149 Fe135 1.996 . S
O149 C142 1.255 . S
C150 O143 1.287 . S
C150 O144 1.255 . S
O151 Fe133 2.002 . S
O151 C147 1.295 1_554 S
O152 Fe135 1.997 . S
O152 C147 1.235 . S
C153 O136 1.295 . S
C153 O137 1.235 . S
Fe154 O156 1.918 . S
Fe154 O159 1.997 . S
Fe154 O160 2.002 . S
Fe154 O165 1.976 . S
Fe154 O168 1.996 . S
Fe155 O156 1.918 . S
Fe155 O163 1.997 . S
Fe155 O166 1.996 . S
Fe155 O170 1.976 . S
Fe155 O173 2.002 . S
O156 Fe154 1.918 . S
O156 Fe155 1.918 . S
O156 Fe157 1.918 1_554 S
Fe157 O156 1.918 1_556 S
Fe157 O158 2.002 1_556 S
Fe157 O167 1.976 1_556 S
Fe157 O171 1.996 . S
Fe157 O174 1.997 . S
O158 Fe157 2.002 1_554 S
O158 C175 1.295 . S
O159 Fe154 1.997 . S
O159 C175 1.235 . S
O160 Fe154 2.002 . S
O160 C161 1.295 . S
C161 O160 1.295 . S
C161 O163 1.235 . S
C162 O167 1.287 . S
C162 O168 1.255 . S
O163 Fe155 1.997 . S
O163 C161 1.235 . S
C164 O170 1.287 1_556 S
C164 O171 1.255 . S
O165 Fe154 1.976 . S
O165 C172 1.287 . S
O166 Fe155 1.996 . S
O166 C172 1.255 . S
O167 Fe157 1.976 1_554 S
O167 C162 1.287 . S
O168 Fe154 1.996 . S
O168 C162 1.255 . S
C169 O173 1.295 1_556 S
C169 O174 1.235 . S
O170 Fe155 1.976 . S
O170 C164 1.287 1_554 S
O171 Fe157 1.996 . S
O171 C164 1.255 . S
C172 O165 1.287 . S
C172 O166 1.255 . S
O173 Fe155 2.002 . S
O173 C169 1.295 1_554 S
O174 Fe157 1.997 . S
O174 C169 1.235 . S
C175 O158 1.295 . S
C175 O159 1.235 . S
Fe176 O178 1.918 . S
Fe176 O181 1.997 . S
Fe176 O182 2.002 . S
Fe176 O187 1.976 . S
Fe176 O190 1.996 . S
Fe177 O178 1.918 . S
Fe177 O185 1.997 . S
Fe177 O188 1.996 . S
Fe177 O192 1.976 . S
Fe177 O195 2.002 . S
O178 Fe176 1.918 . S
O178 Fe177 1.918 . S
O178 Fe179 1.918 1_554 S
Fe179 O178 1.918 1_556 S
Fe179 O180 2.002 1_556 S
Fe179 O189 1.976 1_556 S
Fe179 O193 1.996 . S
Fe179 O196 1.997 . S
O180 Fe179 2.002 1_554 S
O180 C197 1.295 . S
O181 Fe176 1.997 . S
O181 C197 1.235 . S
O182 Fe176 2.002 . S
O182 C183 1.295 . S
C183 O182 1.295 . S
C183 O185 1.235 . S
C184 O189 1.287 . S
C184 O190 1.255 . S
O185 Fe177 1.997 . S
O185 C183 1.235 . S
C186 O192 1.287 1_556 S
C186 O193 1.255 . S
O187 Fe176 1.976 . S
O187 C194 1.287 . S
O188 Fe177 1.996 . S
O188 C194 1.255 . S
O189 Fe179 1.976 1_554 S
O189 C184 1.287 . S
O190 Fe176 1.996 . S
O190 C184 1.255 . S
C191 O195 1.295 1_556 S
C191 O196 1.235 . S
O192 Fe177 1.976 . S
O192 C186 1.287 1_554 S
O193 Fe179 1.996 . S
O193 C186 1.255 . S
C194 O187 1.287 . S
C194 O188 1.255 . S
O195 Fe177 2.002 . S
O195 C191 1.295 1_554 S
O196 Fe179 1.997 . S
O196 C191 1.235 . S
C197 O180 1.295 . S
C197 O181 1.235 . S
Fe198 O200 1.918 . S
Fe198 O203 1.997 . S
Fe198 O204 2.002 . S
Fe198 O209 1.976 . S
Fe198 O212 1.996 . S
Fe199 O200 1.918 . S
Fe199 O207 1.997 . S
Fe199 O210 1.996 . S
Fe199 O214 1.976 . S
Fe199 O217 2.002 . S
O200 Fe198 1.918 . S
O200 Fe199 1.918 . S
O200 Fe201 1.918 . S
Fe201 O200 1.918 . S
Fe201 O202 2.002 . S
Fe201 O211 1.976 . S
Fe201 O215 1.996 . S
Fe201 O218 1.997 . S
O202 Fe201 2.002 . S
O202 C219 1.295 . S
O203 Fe198 1.997 . S
O203 C219 1.235 . S
O204 Fe198 2.002 . S
O204 C205 1.295 . S
C205 O204 1.295 . S
C205 O207 1.235 . S
C206 O211 1.287 . S
C206 O212 1.255 . S
O207 Fe199 1.997 . S
O207 C205 1.235 . S
C208 O214 1.287 . S
C208 O215 1.255 . S
O209 Fe198 1.976 . S
O209 C216 1.287 . S
O210 Fe199 1.996 . S
O210 C216 1.255 . S
O211 Fe201 1.976 . S
O211 C206 1.287 . S
O212 Fe198 1.996 . S
O212 C206 1.255 . S
C213 O217 1.295 . S
C213 O218 1.235 . S
O214 Fe199 1.976 . S
O214 C208 1.287 . S
O215 Fe201 1.996 . S
O215 C208 1.255 . S
C216 O209 1.287 . S
C216 O210 1.255 . S
O217 Fe199 2.002 . S
O217 C213 1.295 . S
O218 Fe201 1.997 . S
O218 C213 1.235 . S
C219 O202 1.295 . S
C219 O203 1.235 . S
Fe220 O222 1.918 . S
Fe220 O225 1.997 . S
Fe220 O226 2.002 . S
Fe220 O231 1.976 . S
Fe220 O234 1.996 . S
Fe221 O222 1.918 . S
Fe221 O229 1.997 . S
Fe221 O232 1.996 . S
Fe221 O236 1.976 . S
Fe221 O239 2.002 . S
O222 Fe220 1.918 . S
O222 Fe221 1.918 . S
O222 Fe223 1.918 . S
Fe223 O222 1.918 . S
Fe223 O224 2.002 . S
Fe223 O233 1.976 . S
Fe223 O237 1.996 . S
Fe223 O240 1.997 . S
O224 Fe223 2.002 . S
O224 C241 1.295 . S
O225 Fe220 1.997 . S
O225 C241 1.235 . S
O226 Fe220 2.002 . S
O226 C227 1.295 . S
C227 O226 1.295 . S
C227 O229 1.235 . S
C228 O233 1.287 . S
C228 O234 1.255 . S
O229 Fe221 1.997 . S
O229 C227 1.235 . S
C230 O236 1.287 . S
C230 O237 1.255 . S
O231 Fe220 1.976 . S
O231 C238 1.287 . S
O232 Fe221 1.996 . S
O232 C238 1.255 . S
O233 Fe223 1.976 . S
O233 C228 1.287 . S
O234 Fe220 1.996 . S
O234 C228 1.255 . S
C235 O239 1.295 . S
C235 O240 1.235 . S
O236 Fe221 1.976 . S
O236 C230 1.287 . S
O237 Fe223 1.996 . S
O237 C230 1.255 . S
C238 O231 1.287 . S
C238 O232 1.255 . S
O239 Fe221 2.002 . S
O239 C235 1.295 . S
O240 Fe223 1.997 . S
O240 C235 1.235 . S
C241 O224 1.295 . S
C241 O225 1.235 . S
Fe242 O244 1.918 . S
Fe242 O247 1.997 . S
Fe242 O248 2.002 . S
Fe242 O253 1.976 . S
Fe242 O256 1.996 . S
Fe243 O244 1.918 . S
Fe243 O251 1.997 . S
Fe243 O254 1.996 . S
Fe243 O258 1.976 . S
Fe243 O261 2.002 . S
O244 Fe242 1.918 . S
O244 Fe243 1.918 . S
O244 Fe245 1.918 . S
Fe245 O244 1.918 . S
Fe245 O246 2.002 . S
Fe245 O255 1.976 . S
Fe245 O259 1.996 . S
Fe245 O262 1.997 . S
O246 Fe245 2.002 . S
O246 C263 1.295 . S
O247 Fe242 1.997 . S
O247 C263 1.235 . S
O248 Fe242 2.002 . S
O248 C249 1.295 . S
C249 O248 1.295 . S
C249 O251 1.235 . S
C250 O255 1.287 . S
C250 O256 1.255 . S
O251 Fe243 1.997 . S
O251 C249 1.235 . S
C252 O258 1.287 . S
C252 O259 1.255 . S
O253 Fe242 1.976 . S
O253 C260 1.287 . S
O254 Fe243 1.996 . S
O254 C260 1.255 . S
O255 Fe245 1.976 . S
O255 C250 1.287 . S
O256 Fe242 1.996 . S
O256 C250 1.255 . S
C257 O261 1.295 . S
C257 O262 1.235 . S
O258 Fe243 1.976 . S
O258 C252 1.287 . S
O259 Fe245 1.996 . S
O259 C252 1.255 . S
C260 O253 1.287 . S
C260 O254 1.255 . S
O261 Fe243 2.002 . S
O261 C257 1.295 . S
O262 Fe245 1.997 . S
O262 C257 1.235 . S
C263 O246 1.295 . S
C263 O247 1.235 . S
Fe264 O266 1.918 . S
Fe264 O269 1.997 . S
Fe264 O270 2.002 . S
Fe264 O275 1.976 . S
Fe264 O278 1.996 . S
Fe265 O266 1.918 . S
Fe265 O273 1.997 . S
Fe265 O276 1.996 . S
Fe265 O280 1.976 . S
Fe265 O283 2.002 . S
O266 Fe264 1.918 . S
O266 Fe265 1.918 . S
O266 Fe267 1.918 . S
Fe267 O266 1.918 . S
Fe267 O268 2.002 . S
Fe267 O277 1.976 . S
Fe267 O281 1.996 . S
Fe267 O284 1.997 . S
O268 Fe267 2.002 . S
O268 C285 1.295 . S
O269 Fe264 1.997 . S
O269 C285 1.235 . S
O270 Fe264 2.002 . S
O270 C271 1.295 . S
C271 O270 1.295 . S
C271 O273 1.235 . S
C272 O277 1.287 . S
C272 O278 1.255 . S
O273 Fe265 1.997 . S
O273 C271 1.235 . S
C274 O280 1.287 . S
C274 O281 1.255 . S
O275 Fe264 1.976 . S
O275 C282 1.287 . S
O276 Fe265 1.996 . S
O276 C282 1.255 . S
O277 Fe267 1.976 . S
O277 C272 1.287 . S
O278 Fe264 1.996 . S
O278 C272 1.255 . S
C279 O283 1.295 . S
C279 O284 1.235 . S
O280 Fe265 1.976 . S
O280 C274 1.287 . S
O281 Fe267 1.996 . S
O281 C274 1.255 . S
C282 O275 1.287 . S
C282 O276 1.255 . S
O283 Fe265 2.002 . S
O283 C279 1.295 . S
O284 Fe267 1.997 . S
O284 C279 1.235 . S
C285 O268 1.295 . S
C285 O269 1.235 . S
Fe286 O288 1.918 . S
Fe286 O291 1.997 . S
Fe286 O292 2.002 . S
Fe286 O297 1.976 . S
Fe286 O300 1.996 . S
Fe287 O288 1.918 . S
Fe287 O295 1.997 . S
Fe287 O298 1.996 . S
Fe287 O302 1.976 . S
Fe287 O305 2.002 . S
O288 Fe286 1.918 . S
O288 Fe287 1.918 . S
O288 Fe289 1.918 . S
Fe289 O288 1.918 . S
Fe289 O290 2.002 . S
Fe289 O299 1.976 . S
Fe289 O303 1.996 . S
Fe289 O306 1.997 . S
O290 Fe289 2.002 . S
O290 C307 1.295 . S
O291 Fe286 1.997 . S
O291 C307 1.235 . S
O292 Fe286 2.002 . S
O292 C293 1.295 . S
C293 O292 1.295 . S
C293 O295 1.235 . S
C294 O299 1.287 . S
C294 O300 1.255 . S
O295 Fe287 1.997 . S
O295 C293 1.235 . S
C296 O302 1.287 . S
C296 O303 1.255 . S
O297 Fe286 1.976 . S
O297 C304 1.287 . S
O298 Fe287 1.996 . S
O298 C304 1.255 . S
O299 Fe289 1.976 . S
O299 C294 1.287 . S
O300 Fe286 1.996 . S
O300 C294 1.255 . S
C301 O305 1.295 . S
C301 O306 1.235 . S
O302 Fe287 1.976 . S
O302 C296 1.287 . S
O303 Fe289 1.996 . S
O303 C296 1.255 . S
C304 O297 1.287 . S
C304 O298 1.255 . S
O305 Fe287 2.002 . S
O305 C301 1.295 . S
O306 Fe289 1.997 . S
O306 C301 1.235 . S
C307 O290 1.295 . S
C307 O291 1.235 . S
Fe308 O310 1.918 . S
Fe308 O313 1.997 . S
Fe308 O314 2.002 . S
Fe308 O319 1.976 . S
Fe308 O322 1.996 . S
Fe309 O310 1.918 . S
Fe309 O317 1.997 . S
Fe309 O320 1.996 . S
Fe309 O324 1.976 . S
Fe309 O327 2.002 . S
O310 Fe308 1.918 . S
O310 Fe309 1.918 . S
O310 Fe311 1.918 . S
Fe311 O310 1.918 . S
Fe311 O312 2.002 . S
Fe311 O321 1.976 . S
Fe311 O325 1.996 . S
Fe311 O328 1.997 . S
O312 Fe311 2.002 . S
O312 C329 1.295 . S
O313 Fe308 1.997 . S
O313 C329 1.235 . S
O314 Fe308 2.002 . S
O314 C315 1.295 . S
C315 O314 1.295 . S
C315 O317 1.235 . S
C316 O321 1.287 . S
C316 O322 1.255 . S
O317 Fe309 1.997 . S
O317 C315 1.235 . S
C318 O324 1.287 . S
C318 O325 1.255 . S
O319 Fe308 1.976 . S
O319 C326 1.287 . S
O320 Fe309 1.996 . S
O320 C326 1.255 . S
O321 Fe311 1.976 . S
O321 C316 1.287 . S
O322 Fe308 1.996 . S
O322 C316 1.255 . S
C323 O327 1.295 . S
C323 O328 1.235 . S
O324 Fe309 1.976 . S
O324 C318 1.287 . S
O325 Fe311 1.996 . S
O325 C318 1.255 . S
C326 O319 1.287 . S
C326 O320 1.255 . S
O327 Fe309 2.002 . S
O327 C323 1.295 . S
O328 Fe311 1.997 . S
O328 C323 1.235 . S
C329 O312 1.295 . S
C329 O313 1.235 . S
Fe330 O332 1.918 1_554 S
Fe330 O335 1.997 1_554 S
Fe330 O336 2.002 . S
Fe330 O341 1.976 . S
Fe330 O344 1.996 1_554 S
Fe331 O332 1.918 . S
Fe331 O339 1.997 . S
Fe331 O342 2.006 . S
Fe331 O346 1.976 . S
Fe331 O349 2.002 . S
O332 Fe330 1.918 1_556 S
O332 Fe331 1.918 . S
O332 Fe333 1.918 . S
Fe333 O332 1.918 . S
Fe333 O334 2.002 . S
Fe333 O343 1.976 . S
Fe333 O347 1.996 . S
Fe333 O350 1.997 . S
O334 Fe333 2.002 . S
O334 C351 1.295 . S
O335 Fe330 1.997 1_556 S
O335 C351 1.235 . S
O336 Fe330 2.002 . S
O336 C337 1.295 . S
C337 O336 1.295 . S
C337 O339 1.235 1_554 S
C338 O343 1.287 . S
C338 O344 1.255 . S
O339 Fe331 1.997 . S
O339 C337 1.235 1_556 S
C340 O346 1.287 . S
C340 O347 1.255 . S
O341 Fe330 1.976 . S
O341 C348 1.287 . S
O342 Fe331 2.006 . S
O342 C348 1.245 1_556 S
O343 Fe333 1.976 . S
O343 C338 1.287 . S
O344 Fe330 1.996 1_556 S
O344 C338 1.255 . S
C345 O349 1.295 . S
C345 O350 1.235 . S
O346 Fe331 1.976 . S
O346 C340 1.287 . S
O347 Fe333 1.996 . S
O347 C340 1.255 . S
C348 O341 1.287 . S
C348 O342 1.245 1_554 S
O349 Fe331 2.002 . S
O349 C345 1.295 . S
O350 Fe333 1.997 . S
O350 C345 1.235 . S
C351 O334 1.295 . S
C351 O335 1.235 . S
Fe352 O354 1.918 . S
Fe352 O357 1.997 . S
Fe352 O358 2.002 . S
Fe352 O363 1.976 . S
Fe352 O366 1.996 . S
Fe353 O354 1.918 . S
Fe353 O361 1.997 . S
Fe353 O364 1.996 . S
Fe353 O368 1.976 . S
Fe353 O371 2.002 . S
O354 Fe352 1.918 . S
O354 Fe353 1.918 . S
O354 Fe355 1.918 1_556 S
Fe355 O354 1.918 1_554 S
Fe355 O356 2.002 1_554 S
Fe355 O365 1.976 1_554 S
Fe355 O369 1.996 . S
Fe355 O372 1.997 . S
O356 Fe355 2.002 1_556 S
O356 C373 1.295 . S
O357 Fe352 1.997 . S
O357 C373 1.235 . S
O358 Fe352 2.002 . S
O358 C359 1.295 . S
C359 O358 1.295 . S
C359 O361 1.235 . S
C360 O365 1.287 . S
C360 O366 1.255 . S
O361 Fe353 1.997 . S
O361 C359 1.235 . S
C362 O368 1.287 1_554 S
C362 O369 1.255 . S
O363 Fe352 1.976 . S
O363 C370 1.287 . S
O364 Fe353 1.996 . S
O364 C370 1.255 . S
O365 Fe355 1.976 1_556 S
O365 C360 1.287 . S
O366 Fe352 1.996 . S
O366 C360 1.255 . S
C367 O371 1.295 1_554 S
C367 O372 1.235 . S
O368 Fe353 1.976 . S
O368 C362 1.287 1_556 S
O369 Fe355 1.996 . S
O369 C362 1.255 . S
C370 O363 1.287 . S
C370 O364 1.255 . S
O371 Fe353 2.002 . S
O371 C367 1.295 1_556 S
O372 Fe355 1.997 . S
O372 C367 1.235 . S
C373 O356 1.295 . S
C373 O357 1.235 . S
Fe374 O376 1.918 . S
Fe374 O379 1.997 . S
Fe374 O380 2.002 . S
Fe374 O385 1.976 . S
Fe374 O388 1.996 . S
Fe375 O376 1.918 1_554 S
Fe375 O383 1.997 . S
Fe375 O386 1.996 . S
Fe375 O390 1.976 1_554 S
Fe375 O393 2.002 1_554 S
O376 Fe374 1.918 . S
O376 Fe375 1.918 1_556 S
O376 Fe377 1.918 . S
Fe377 O376 1.918 . S
Fe377 O378 2.002 . S
Fe377 O387 1.976 . S
Fe377 O391 1.996 . S
Fe377 O394 1.997 . S
O378 Fe377 2.002 . S
O378 C395 1.295 . S
O379 Fe374 1.997 . S
O379 C395 1.235 . S
O380 Fe374 2.002 . S
O380 C381 1.295 1_556 S
C381 O380 1.295 1_554 S
C381 O383 1.235 . S
C382 O387 1.287 . S
C382 O388 1.255 . S
O383 Fe375 1.997 . S
O383 C381 1.235 . S
C384 O390 1.287 . S
C384 O391 1.255 . S
O385 Fe374 1.976 . S
O385 C392 1.287 1_556 S
O386 Fe375 1.996 . S
O386 C392 1.255 . S
O387 Fe377 1.976 . S
O387 C382 1.287 . S
O388 Fe374 1.996 . S
O388 C382 1.255 . S
C389 O393 1.295 . S
C389 O394 1.235 . S
O390 Fe375 1.976 1_556 S
O390 C384 1.287 . S
O391 Fe377 1.996 . S
O391 C384 1.255 . S
C392 O385 1.287 1_554 S
C392 O386 1.255 . S
O393 Fe375 2.002 1_556 S
O393 C389 1.295 . S
O394 Fe377 1.997 . S
O394 C389 1.235 . S
C395 O378 1.295 . S
C395 O379 1.235 . S
H396 C404 0.950 . S
H397 C409 0.950 . S
H398 C406 0.950 . S
H399 C408 0.950 . S
H400 C410 0.950 . S
H401 C412 0.950 . S
H402 C414 0.950 . S
H403 C415 0.950 . S
C404 H396 0.950 . S
C404 C405 1.386 . S
C404 C406 1.391 . S
C405 C404 1.386 . S
C405 C409 1.393 . S
C406 H398 0.950 . S
C406 C404 1.391 . S
C406 C407 1.400 . S
C407 C406 1.400 . S
C407 C408 1.398 . S
C407 C413 1.491 . S
C408 H399 0.950 . S
C408 C407 1.398 . S
C408 C409 1.391 . S
C409 H397 0.950 . S
C409 C405 1.393 . S
C409 C408 1.391 . S
C410 H400 0.950 . S
C410 C411 1.386 . S
C410 C412 1.391 . S
C411 C410 1.386 . S
C411 C415 1.393 . S
C412 H401 0.950 . S
C412 C410 1.391 . S
C412 C413 1.400 . S
C413 C407 1.491 . S
C413 C412 1.400 . S
C413 C414 1.398 . S
C414 H402 0.950 . S
C414 C413 1.398 . S
C414 C415 1.391 . S
C415 H403 0.950 . S
C415 C411 1.393 . S
C415 C414 1.391 . S
H416 C424 0.950 . S
H417 C429 0.950 . S
H418 C426 0.950 . S
H419 C428 0.950 . S
H420 C430 0.950 . S
H421 C432 0.950 . S
H422 C434 0.950 . S
H423 C435 0.950 . S
C424 H416 0.950 . S
C424 C425 1.386 . S
C424 C426 1.391 . S
C425 C424 1.386 . S
C425 C429 1.393 . S
C426 H418 0.950 . S
C426 C424 1.391 . S
C426 C427 1.400 . S
C427 C426 1.400 . S
C427 C428 1.398 . S
C427 C433 1.491 . S
C428 H419 0.950 . S
C428 C427 1.398 . S
C428 C429 1.391 . S
C429 H417 0.950 . S
C429 C425 1.393 . S
C429 C428 1.391 . S
C430 H420 0.950 . S
C430 C431 1.386 . S
C430 C432 1.391 . S
C431 C430 1.386 . S
C431 C435 1.393 . S
C432 H421 0.950 . S
C432 C430 1.391 . S
C432 C433 1.400 . S
C433 C427 1.491 . S
C433 C432 1.400 . S
C433 C434 1.398 . S
C434 H422 0.950 . S
C434 C433 1.398 . S
C434 C435 1.391 . S
C435 H423 0.950 . S
C435 C431 1.393 . S
C435 C434 1.391 . S
H436 C444 0.950 . S
H437 C449 0.950 . S
H438 C446 0.950 . S
H439 C448 0.950 . S
H440 C450 0.950 . S
H441 C452 0.950 . S
H442 C454 0.950 . S
H443 C455 0.950 . S
C444 H436 0.950 . S
C444 C445 1.386 . S
C444 C446 1.391 . S
C445 C444 1.386 . S
C445 C449 1.393 . S
C446 H438 0.950 . S
C446 C444 1.391 . S
C446 C447 1.400 . S
C447 C446 1.400 . S
C447 C448 1.398 . S
C447 C453 1.491 . S
C448 H439 0.950 . S
C448 C447 1.398 . S
C448 C449 1.391 . S
C449 H437 0.950 . S
C449 C445 1.393 . S
C449 C448 1.391 . S
C450 H440 0.950 . S
C450 C451 1.386 . S
C450 C452 1.391 . S
C451 C450 1.386 . S
C451 C455 1.393 . S
C452 H441 0.950 . S
C452 C450 1.391 . S
C452 C453 1.400 . S
C453 C447 1.491 . S
C453 C452 1.400 . S
C453 C454 1.398 . S
C454 H442 0.950 . S
C454 C453 1.398 . S
C454 C455 1.391 . S
C455 H443 0.950 . S
C455 C451 1.393 . S
C455 C454 1.391 . S
H456 C464 0.950 . S
H457 C469 0.950 . S
H458 C466 0.950 . S
H459 C468 0.950 . S
H460 C470 0.950 . S
H461 C472 0.950 1_556 S
H462 C474 0.950 . S
H463 C475 0.950 . S
C464 H456 0.950 . S
C464 C465 1.386 . S
C464 C466 1.391 1_556 S
C465 C464 1.386 . S
C465 C469 1.393 . S
C466 H458 0.950 . S
C466 C464 1.391 1_554 S
C466 C467 1.400 1_554 S
C467 C466 1.400 1_556 S
C467 C468 1.398 . S
C467 C473 1.491 1_556 S
C468 H459 0.950 . S
C468 C467 1.398 . S
C468 C469 1.391 . S
C469 H457 0.950 . S
C469 C465 1.393 . S
C469 C468 1.391 . S
C470 H460 0.950 . S
C470 C471 1.386 . S
C470 C472 1.391 . S
C471 C470 1.386 . S
C471 C475 1.393 . S
C472 H461 0.950 1_554 S
C472 C470 1.391 . S
C472 C473 1.400 . S
C473 C467 1.491 1_554 S
C473 C472 1.400 . S
C473 C474 1.398 . S
C474 H462 0.950 . S
C474 C473 1.398 . S
C474 C475 1.391 . S
C475 H463 0.950 . S
C475 C471 1.393 . S
C475 C474 1.391 . S
H476 C484 0.950 . S
H477 C489 0.950 . S
H478 C486 0.950 . S
H479 C488 0.950 1_556 S
H480 C490 0.950 . S
H481 C492 0.950 . S
H482 C494 0.950 . S
H483 C495 0.950 . S
C484 H476 0.950 . S
C484 C485 1.386 . S
C484 C486 1.391 . S
C485 C484 1.386 . S
C485 C489 1.393 . S
C486 H478 0.950 . S
C486 C484 1.391 . S
C486 C487 1.400 . S
C487 C486 1.400 . S
C487 C488 1.398 . S
C487 C493 1.491 1_554 S
C488 H479 0.950 1_554 S
C488 C487 1.398 . S
C488 C489 1.391 . S
C489 H477 0.950 . S
C489 C485 1.393 . S
C489 C488 1.391 . S
C490 H480 0.950 . S
C490 C491 1.386 . S
C490 C492 1.391 . S
C491 C490 1.386 . S
C491 C495 1.393 . S
C492 H481 0.950 . S
C492 C490 1.391 . S
C492 C493 1.400 . S
C493 C487 1.491 1_556 S
C493 C492 1.400 . S
C493 C494 1.398 1_556 S
C494 H482 0.950 . S
C494 C493 1.398 1_554 S
C494 C495 1.391 1_554 S
C495 H483 0.950 . S
C495 C491 1.393 . S
C495 C494 1.391 1_556 S
H496 C504 0.950 . S
H497 C509 0.950 . S
H498 C506 0.950 . S
H499 C508 0.950 . S
H500 C510 0.950 . S
H501 C512 0.950 . S
H502 C514 0.950 1_556 S
H503 C515 0.950 . S
C504 H496 0.950 . S
C504 C505 1.386 . S
C504 C506 1.391 . S
C505 C504 1.386 . S
C505 C509 1.393 . S
C506 H498 0.950 . S
C506 C504 1.391 . S
C506 C507 1.400 . S
C507 C506 1.400 . S
C507 C508 1.398 1_556 S
C507 C513 1.491 1_556 S
C508 H499 0.950 . S
C508 C507 1.398 1_554 S
C508 C509 1.391 1_554 S
C509 H497 0.950 . S
C509 C505 1.393 . S
C509 C508 1.391 1_556 S
C510 H500 0.950 . S
C510 C511 1.386 . S
C510 C512 1.391 . S
C511 C510 1.386 . S
C511 C515 1.393 . S
C512 H501 0.950 . S
C512 C510 1.391 . S
C512 C513 1.400 . S
C513 C507 1.491 1_554 S
C513 C512 1.400 . S
C513 C514 1.398 . S
C514 H502 0.950 1_554 S
C514 C513 1.398 . S
C514 C515 1.391 . S
C515 H503 0.950 . S
C515 C511 1.393 . S
C515 C514 1.391 . S
H516 C524 0.950 . S
H517 C529 0.950 . S
H518 C526 0.950 . S
H519 C528 0.950 . S
H520 C530 0.950 . S
H521 C532 0.950 . S
H522 C534 0.950 . S
H523 C535 0.950 . S
C524 H516 0.950 . S
C524 C525 1.386 . S
C524 C526 1.391 . S
C525 C524 1.386 . S
C525 C529 1.393 . S
C526 H518 0.950 . S
C526 C524 1.391 . S
C526 C527 1.400 . S
C527 C526 1.400 . S
C527 C528 1.398 . S
C527 C533 1.491 . S
C528 H519 0.950 . S
C528 C527 1.398 . S
C528 C529 1.391 . S
C529 H517 0.950 . S
C529 C525 1.393 . S
C529 C528 1.391 . S
C530 H520 0.950 . S
C530 C531 1.386 . S
C530 C532 1.391 . S
C531 C530 1.386 . S
C531 C535 1.393 . S
C532 H521 0.950 . S
C532 C530 1.391 . S
C532 C533 1.400 . S
C533 C527 1.491 . S
C533 C532 1.400 . S
C533 C534 1.398 . S
C534 H522 0.950 . S
C534 C533 1.398 . S
C534 C535 1.391 . S
C535 H523 0.950 . S
C535 C531 1.393 . S
C535 C534 1.391 . S
H536 C544 0.950 . S
H537 C549 0.950 . S
H538 C546 0.950 . S
H539 C548 0.950 . S
H540 C550 0.950 . S
H541 C552 0.950 . S
H542 C554 0.950 . S
H543 C555 0.950 . S
C544 H536 0.950 . S
C544 C545 1.386 . S
C544 C546 1.391 . S
C545 C544 1.386 . S
C545 C549 1.393 . S
C546 H538 0.950 . S
C546 C544 1.391 . S
C546 C547 1.400 . S
C547 C546 1.400 . S
C547 C548 1.398 . S
C547 C553 1.491 . S
C548 H539 0.950 . S
C548 C547 1.398 . S
C548 C549 1.391 . S
C549 H537 0.950 . S
C549 C545 1.393 . S
C549 C548 1.391 . S
C550 H540 0.950 . S
C550 C551 1.386 . S
C550 C552 1.391 . S
C551 C550 1.386 . S
C551 C555 1.393 . S
C552 H541 0.950 . S
C552 C550 1.391 . S
C552 C553 1.400 . S
C553 C547 1.491 . S
C553 C552 1.400 . S
C553 C554 1.398 . S
C554 H542 0.950 . S
C554 C553 1.398 . S
C554 C555 1.391 . S
C555 H543 0.950 . S
C555 C551 1.393 . S
C555 C554 1.391 . S
H556 C564 0.950 . S
H557 C569 0.950 . S
H558 C566 0.950 . S
H559 C568 0.950 . S
H560 C570 0.950 . S
H561 C572 0.950 . S
H562 C574 0.950 . S
H563 C575 0.950 . S
C564 H556 0.950 . S
C564 C565 1.386 . S
C564 C566 1.391 . S
C565 C564 1.386 . S
C565 C569 1.393 . S
C566 H558 0.950 . S
C566 C564 1.391 . S
C566 C567 1.400 . S
C567 C566 1.400 . S
C567 C568 1.398 . S
C567 C573 1.491 . S
C568 H559 0.950 . S
C568 C567 1.398 . S
C568 C569 1.391 . S
C569 H557 0.950 . S
C569 C565 1.393 . S
C569 C568 1.391 . S
C570 H560 0.950 . S
C570 C571 1.386 . S
C570 C572 1.391 . S
C571 C570 1.386 . S
C571 C575 1.393 . S
C572 H561 0.950 . S
C572 C570 1.391 . S
C572 C573 1.400 . S
C573 C567 1.491 . S
C573 C572 1.400 . S
C573 C574 1.398 . S
C574 H562 0.950 . S
C574 C573 1.398 . S
C574 C575 1.391 . S
C575 H563 0.950 . S
C575 C571 1.393 . S
C575 C574 1.391 . S
H576 C584 0.950 . S
H577 C589 0.950 . S
H578 C586 0.950 . S
H579 C588 0.950 . S
H580 C590 0.950 . S
H581 C592 0.950 . S
H582 C594 0.950 1_554 S
H583 C595 0.950 . S
C584 H576 0.950 . S
C584 C585 1.386 . S
C584 C586 1.391 . S
C585 C584 1.386 . S
C585 C589 1.393 . S
C586 H578 0.950 . S
C586 C584 1.391 . S
C586 C587 1.400 . S
C587 C586 1.400 . S
C587 C588 1.398 1_554 S
C587 C593 1.491 1_554 S
C588 H579 0.950 . S
C588 C587 1.398 1_556 S
C588 C589 1.391 1_556 S
C589 H577 0.950 . S
C589 C585 1.393 . S
C589 C588 1.391 1_554 S
C590 H580 0.950 . S
C590 C591 1.386 . S
C590 C592 1.391 . S
C591 C590 1.386 . S
C591 C595 1.393 . S
C592 H581 0.950 . S
C592 C590 1.391 . S
C592 C593 1.400 . S
C593 C587 1.491 1_556 S
C593 C592 1.400 . S
C593 C594 1.398 . S
C594 H582 0.950 1_556 S
C594 C593 1.398 . S
C594 C595 1.391 . S
C595 H583 0.950 . S
C595 C591 1.393 . S
C595 C594 1.391 . S
H596 C604 0.950 . S
H597 C609 0.950 . S
H598 C606 0.950 . S
H599 C608 0.950 . S
H600 C610 0.950 . S
H601 C612 0.950 . S
H602 C614 0.950 . S
H603 C615 0.950 . S
C604 H596 0.950 . S
C604 C605 1.386 . S
C604 C606 1.391 . S
C605 C604 1.386 . S
C605 C609 1.393 . S
C606 H598 0.950 . S
C606 C604 1.391 . S
C606 C607 1.400 . S
C607 C606 1.400 . S
C607 C608 1.398 . S
C607 C613 1.491 1_556 S
C608 H599 0.950 . S
C608 C607 1.398 . S
C608 C609 1.391 . S
C609 H597 0.950 . S
C609 C605 1.393 . S
C609 C608 1.391 . S
C610 H600 0.950 . S
C610 C611 1.386 . S
C610 C612 1.391 . S
C611 C610 1.386 . S
C611 C615 1.393 . S
C612 H601 0.950 . S
C612 C610 1.391 . S
C612 C613 1.400 . S
C613 C607 1.491 1_554 S
C613 C612 1.400 . S
C613 C614 1.398 . S
C614 H602 0.950 . S
C614 C613 1.398 . S
C614 C615 1.391 . S
C615 H603 0.950 . S
C615 C611 1.393 . S
C615 C614 1.391 . S
H616 C624 0.950 . S
H617 C629 0.950 . S
H618 C626 0.947 1_554 S
H619 C628 0.950 . S
H620 C630 0.950 1_556 S
H621 C632 0.950 . S
H622 C634 0.950 . S
H623 C635 0.950 . S
C624 H616 0.950 . S
C624 C625 1.386 . S
C624 C626 1.393 . S
C625 C624 1.386 . S
C625 C629 1.393 . S
C626 H618 0.947 1_556 S
C626 C624 1.393 . S
C626 C627 1.401 . S
C627 C626 1.401 . S
C627 C628 1.398 . S
C627 C633 1.491 1_556 S
C628 H619 0.950 . S
C628 C627 1.398 . S
C628 C629 1.391 . S
C629 H617 0.950 . S
C629 C625 1.393 . S
C629 C628 1.391 . S
C630 H620 0.950 1_554 S
C630 C631 1.386 . S
C630 C632 1.391 1_554 S
C631 C630 1.386 . S
C631 C635 1.393 . S
C632 H621 0.950 . S
C632 C630 1.391 1_556 S
C632 C633 1.400 1_556 S
C633 C627 1.491 1_554 S
C633 C632 1.400 1_554 S
C633 C634 1.398 . S
C634 H622 0.950 . S
C634 C633 1.398 . S
C634 C635 1.391 . S
C635 H623 0.950 . S
C635 C631 1.393 . S
C635 C634 1.391 . S
H636 C644 0.950 . S
H637 C649 0.950 . S
H638 C646 0.950 . S
H639 C648 0.950 . S
H640 C650 0.950 . S
H641 C652 0.950 . S
H642 C654 0.950 . S
H643 C655 0.950 . S
C644 H636 0.950 . S
C644 C645 1.386 . S
C644 C646 1.391 . S
C645 C644 1.386 . S
C645 C649 1.393 . S
C646 H638 0.950 . S
C646 C644 1.391 . S
C646 C647 1.400 . S
C647 C646 1.400 . S
C647 C648 1.398 . S
C647 C653 1.491 . S
C648 H639 0.950 . S
C648 C647 1.398 . S
C648 C649 1.391 . S
C649 H637 0.950 . S
C649 C645 1.393 . S
C649 C648 1.391 . S
C650 H640 0.950 . S
C650 C651 1.386 . S
C650 C652 1.391 . S
C651 C650 1.386 . S
C651 C655 1.393 . S
C652 H641 0.950 . S
C652 C650 1.391 . S
C652 C653 1.400 . S
C653 C647 1.491 . S
C653 C652 1.400 . S
C653 C654 1.398 . S
C654 H642 0.950 . S
C654 C653 1.398 . S
C654 C655 1.391 . S
C655 H643 0.950 . S
C655 C651 1.393 . S
C655 C654 1.391 . S
H656 C664 0.950 . S
H657 C669 0.950 . S
H658 C666 0.950 . S
H659 C668 0.950 . S
H660 C670 0.950 . S
H661 C672 0.950 . S
H662 C674 0.950 . S
H663 C675 0.950 . S
C664 H656 0.950 . S
C664 C665 1.386 . S
C664 C666 1.391 . S
C665 C664 1.386 . S
C665 C669 1.393 . S
C666 H658 0.950 . S
C666 C664 1.391 . S
C666 C667 1.400 . S
C667 C666 1.400 . S
C667 C668 1.398 . S
C667 C673 1.491 . S
C668 H659 0.950 . S
C668 C667 1.398 . S
C668 C669 1.391 . S
C669 H657 0.950 . S
C669 C665 1.393 . S
C669 C668 1.391 . S
C670 H660 0.950 . S
C670 C671 1.386 . S
C670 C672 1.391 . S
C671 C670 1.386 . S
C671 C675 1.393 . S
C672 H661 0.950 . S
C672 C670 1.391 . S
C672 C673 1.400 . S
C673 C667 1.491 . S
C673 C672 1.400 . S
C673 C674 1.398 . S
C674 H662 0.950 . S
C674 C673 1.398 . S
C674 C675 1.391 . S
C675 H663 0.950 . S
C675 C671 1.393 . S
C675 C674 1.391 . S
H676 C684 0.950 . S
H677 C689 0.950 . S
H678 C686 0.950 . S
H679 C688 0.950 . S
H680 C690 0.950 . S
H681 C692 0.950 . S
H682 C694 0.950 . S
H683 C695 0.950 . S
C684 H676 0.950 . S
C684 C685 1.386 . S
C684 C686 1.391 . S
C685 C684 1.386 . S
C685 C689 1.393 . S
C686 H678 0.950 . S
C686 C684 1.391 . S
C686 C687 1.400 . S
C687 C686 1.400 . S
C687 C688 1.398 . S
C687 C693 1.491 . S
C688 H679 0.950 . S
C688 C687 1.398 . S
C688 C689 1.391 . S
C689 H677 0.950 . S
C689 C685 1.393 . S
C689 C688 1.391 . S
C690 H680 0.950 . S
C690 C691 1.386 . S
C690 C692 1.391 . S
C691 C690 1.386 . S
C691 C695 1.393 . S
C692 H681 0.950 . S
C692 C690 1.391 . S
C692 C693 1.400 . S
C693 C687 1.491 . S
C693 C692 1.400 . S
C693 C694 1.398 . S
C694 H682 0.950 . S
C694 C693 1.398 . S
C694 C695 1.391 . S
C695 H683 0.950 . S
C695 C691 1.393 . S
C695 C694 1.391 . S
H696 C704 0.950 . S
H697 C709 0.950 . S
H698 C706 0.950 . S
H699 C708 0.950 . S
H700 C710 0.950 . S
H701 C712 0.950 . S
H702 C714 0.950 . S
H703 C715 0.950 . S
C704 H696 0.950 . S
C704 C705 1.386 . S
C704 C706 1.391 . S
C705 C704 1.386 . S
C705 C709 1.393 . S
C706 H698 0.950 . S
C706 C704 1.391 . S
C706 C707 1.400 . S
C707 C706 1.400 . S
C707 C708 1.398 . S
C707 C713 1.491 . S
C708 H699 0.950 . S
C708 C707 1.398 . S
C708 C709 1.391 . S
C709 H697 0.950 . S
C709 C705 1.393 . S
C709 C708 1.391 . S
C710 H700 0.950 . S
C710 C711 1.386 . S
C710 C712 1.391 . S
C711 C710 1.386 . S
C711 C715 1.393 . S
C712 H701 0.950 . S
C712 C710 1.391 . S
C712 C713 1.400 . S
C713 C707 1.491 . S
C713 C712 1.400 . S
C713 C714 1.398 . S
C714 H702 0.950 . S
C714 C713 1.398 . S
C714 C715 1.391 . S
C715 H703 0.950 . S
C715 C711 1.393 . S
C715 C714 1.391 . S
H716 C724 0.950 . S
H717 C729 0.950 . S
H718 C726 0.950 . S
H719 C728 0.950 . S
H720 C730 0.950 . S
H721 C732 0.950 . S
H722 C734 0.950 . S
H723 C735 0.950 . S
C724 H716 0.950 . S
C724 C725 1.386 . S
C724 C726 1.391 . S
C725 C724 1.386 . S
C725 C729 1.393 . S
C726 H718 0.950 . S
C726 C724 1.391 . S
C726 C727 1.400 . S
C727 C726 1.400 . S
C727 C728 1.398 . S
C727 C733 1.491 . S
C728 H719 0.950 . S
C728 C727 1.398 . S
C728 C729 1.391 . S
C729 H717 0.950 . S
C729 C725 1.393 . S
C729 C728 1.391 . S
C730 H720 0.950 . S
C730 C731 1.386 . S
C730 C732 1.391 . S
C731 C730 1.386 . S
C731 C735 1.393 . S
C732 H721 0.950 . S
C732 C730 1.391 . S
C732 C733 1.400 . S
C733 C727 1.491 . S
C733 C732 1.400 . S
C733 C734 1.398 . S
C734 H722 0.950 . S
C734 C733 1.398 . S
C734 C735 1.391 . S
C735 H723 0.950 . S
C735 C731 1.393 . S
C735 C734 1.391 . S
H736 C744 0.950 . S
H737 C749 0.950 . S
H738 C746 0.950 . S
H739 C748 0.950 . S
H740 C750 0.950 . S
H741 C752 0.950 . S
H742 C754 0.950 . S
H743 C755 0.950 . S
C744 H736 0.950 . S
C744 C745 1.386 . S
C744 C746 1.391 . S
C745 C744 1.386 . S
C745 C749 1.393 . S
C746 H738 0.950 . S
C746 C744 1.391 . S
C746 C747 1.400 . S
C747 C746 1.400 . S
C747 C748 1.398 . S
C747 C753 1.491 . S
C748 H739 0.950 . S
C748 C747 1.398 . S
C748 C749 1.391 . S
C749 H737 0.950 . S
C749 C745 1.393 . S
C749 C748 1.391 . S
C750 H740 0.950 . S
C750 C751 1.386 . S
C750 C752 1.391 . S
C751 C750 1.386 . S
C751 C755 1.393 . S
C752 H741 0.950 . S
C752 C750 1.391 . S
C752 C753 1.400 . S
C753 C747 1.491 . S
C753 C752 1.400 . S
C753 C754 1.398 . S
C754 H742 0.950 . S
C754 C753 1.398 . S
C754 C755 1.391 . S
C755 H743 0.950 . S
C755 C751 1.393 . S
C755 C754 1.391 . S
H756 C764 0.950 . S
H757 C769 0.950 . S
H758 C766 0.950 . S
H759 C768 0.950 . S
H760 C770 0.950 . S
H761 C772 0.950 . S
H762 C774 0.950 . S
H763 C775 0.950 . S
C764 H756 0.950 . S
C764 C765 1.386 . S
C764 C766 1.391 . S
C765 C764 1.386 . S
C765 C769 1.393 . S
C766 H758 0.950 . S
C766 C764 1.391 . S
C766 C767 1.400 . S
C767 C766 1.400 . S
C767 C768 1.398 . S
C767 C773 1.491 . S
C768 H759 0.950 . S
C768 C767 1.398 . S
C768 C769 1.391 . S
C769 H757 0.950 . S
C769 C765 1.393 . S
C769 C768 1.391 . S
C770 H760 0.950 . S
C770 C771 1.386 . S
C770 C772 1.391 . S
C771 C770 1.386 . S
C771 C775 1.393 . S
C772 H761 0.950 . S
C772 C770 1.391 . S
C772 C773 1.400 . S
C773 C767 1.491 . S
C773 C772 1.400 . S
C773 C774 1.398 . S
C774 H762 0.950 . S
C774 C773 1.398 . S
C774 C775 1.391 . S
C775 H763 0.950 . S
C775 C771 1.393 . S
C775 C774 1.391 . S
H776 C784 0.950 . S
H777 C789 0.950 . S
H778 C786 0.950 . S
H779 C788 0.950 . S
H780 C790 0.950 . S
H781 C792 0.950 . S
H782 C794 0.950 . S
H783 C795 0.950 . S
C784 H776 0.950 . S
C784 C785 1.386 . S
C784 C786 1.391 . S
C785 C784 1.386 . S
C785 C789 1.393 . S
C786 H778 0.950 . S
C786 C784 1.391 . S
C786 C787 1.400 . S
C787 C786 1.400 . S
C787 C788 1.398 . S
C787 C793 1.491 . S
C788 H779 0.950 . S
C788 C787 1.398 . S
C788 C789 1.391 . S
C789 H777 0.950 . S
C789 C785 1.393 . S
C789 C788 1.391 . S
C790 H780 0.950 . S
C790 C791 1.386 . S
C790 C792 1.391 . S
C791 C790 1.386 . S
C791 C795 1.393 . S
C792 H781 0.950 . S
C792 C790 1.391 . S
C792 C793 1.400 . S
C793 C787 1.491 . S
C793 C792 1.400 . S
C793 C794 1.398 . S
C794 H782 0.950 . S
C794 C793 1.398 . S
C794 C795 1.391 . S
C795 H783 0.950 . S
C795 C791 1.393 . S
C795 C794 1.391 . S
H796 C804 0.950 . S
H797 C809 0.950 . S
H798 C806 0.950 . S
H799 C808 0.950 . S
H800 C810 0.950 . S
H801 C812 0.950 . S
H802 C814 0.950 . S
H803 C815 0.950 . S
C804 H796 0.950 . S
C804 C805 1.386 . S
C804 C806 1.391 . S
C805 C804 1.386 . S
C805 C809 1.393 . S
C806 H798 0.950 . S
C806 C804 1.391 . S
C806 C807 1.400 . S
C807 C806 1.400 . S
C807 C808 1.398 . S
C807 C813 1.491 . S
C808 H799 0.950 . S
C808 C807 1.398 . S
C808 C809 1.391 . S
C809 H797 0.950 . S
C809 C805 1.393 . S
C809 C808 1.391 . S
C810 H800 0.950 . S
C810 C811 1.386 . S
C810 C812 1.391 . S
C811 C810 1.386 . S
C811 C815 1.393 . S
C812 H801 0.950 . S
C812 C810 1.391 . S
C812 C813 1.400 . S
C813 C807 1.491 . S
C813 C812 1.400 . S
C813 C814 1.398 . S
C814 H802 0.950 . S
C814 C813 1.398 . S
C814 C815 1.391 . S
C815 H803 0.950 . S
C815 C811 1.393 . S
C815 C814 1.391 . S
H816 C824 0.950 . S
H817 C829 0.950 . S
H818 C826 0.950 . S
H819 C828 0.950 . S
H820 C830 0.950 . S
H821 C832 0.950 . S
H822 C834 0.950 . S
H823 C835 0.950 . S
C824 H816 0.950 . S
C824 C825 1.386 . S
C824 C826 1.391 . S
C825 C824 1.386 . S
C825 C829 1.393 . S
C826 H818 0.950 . S
C826 C824 1.391 . S
C826 C827 1.400 . S
C827 C826 1.400 . S
C827 C828 1.398 . S
C827 C833 1.491 . S
C828 H819 0.950 . S
C828 C827 1.398 . S
C828 C829 1.391 . S
C829 H817 0.950 . S
C829 C825 1.393 . S
C829 C828 1.391 . S
C830 H820 0.950 . S
C830 C831 1.386 . S
C830 C832 1.391 . S
C831 C830 1.386 . S
C831 C835 1.393 . S
C832 H821 0.950 . S
C832 C830 1.391 . S
C832 C833 1.400 . S
C833 C827 1.491 . S
C833 C832 1.400 . S
C833 C834 1.398 . S
C834 H822 0.950 . S
C834 C833 1.398 . S
C834 C835 1.391 . S
C835 H823 0.950 . S
C835 C831 1.393 . S
C835 C834 1.391 . S
H836 C844 0.950 . S
H837 C849 0.950 . S
H838 C846 0.950 . S
H839 C848 0.950 . S
H840 C850 0.950 . S
H841 C852 0.950 . S
H842 C854 0.950 . S
H843 C855 0.950 . S
C844 H836 0.950 . S
C844 C845 1.386 . S
C844 C846 1.391 . S
C845 C844 1.386 . S
C845 C849 1.393 . S
C846 H838 0.950 . S
C846 C844 1.391 . S
C846 C847 1.400 . S
C847 C846 1.400 . S
C847 C848 1.398 . S
C847 C853 1.491 . S
C848 H839 0.950 . S
C848 C847 1.398 . S
C848 C849 1.391 . S
C849 H837 0.950 . S
C849 C845 1.393 . S
C849 C848 1.391 . S
C850 H840 0.950 . S
C850 C851 1.386 . S
C850 C852 1.391 . S
C851 C850 1.386 . S
C851 C855 1.393 . S
C852 H841 0.950 . S
C852 C850 1.391 . S
C852 C853 1.400 . S
C853 C847 1.491 . S
C853 C852 1.400 . S
C853 C854 1.398 . S
C854 H842 0.950 . S
C854 C853 1.398 . S
C854 C855 1.391 . S
C855 H843 0.950 . S
C855 C851 1.393 . S
C855 C854 1.391 . S
H856 C864 0.950 . S
H857 C869 0.950 . S
H858 C866 0.950 . S
H859 C868 0.950 . S
H860 C870 0.950 . S
H861 C872 0.950 . S
H862 C874 0.950 . S
H863 C875 0.950 . S
C864 H856 0.950 . S
C864 C865 1.386 . S
C864 C866 1.391 . S
C865 C864 1.386 . S
C865 C869 1.393 . S
C866 H858 0.950 . S
C866 C864 1.391 . S
C866 C867 1.400 . S
C867 C866 1.400 . S
C867 C868 1.398 . S
C867 C873 1.491 . S
C868 H859 0.950 . S
C868 C867 1.398 . S
C868 C869 1.391 . S
C869 H857 0.950 . S
C869 C865 1.393 . S
C869 C868 1.391 . S
C870 H860 0.950 . S
C870 C871 1.386 . S
C870 C872 1.391 . S
C871 C870 1.386 . S
C871 C875 1.393 . S
C872 H861 0.950 . S
C872 C870 1.391 . S
C872 C873 1.400 . S
C873 C867 1.491 . S
C873 C872 1.400 . S
C873 C874 1.398 . S
C874 H862 0.950 . S
C874 C873 1.398 . S
C874 C875 1.391 . S
C875 H863 0.950 . S
C875 C871 1.393 . S
C875 C874 1.391 . S
H876 C884 0.950 . S
H877 C889 0.950 . S
H878 C886 0.950 . S
H879 C888 0.950 . S
H880 C890 0.950 . S
H881 C892 0.950 . S
H882 C894 0.950 . S
H883 C895 0.950 . S
C884 H876 0.950 . S
C884 C885 1.386 . S
C884 C886 1.391 . S
C885 C884 1.386 . S
C885 C889 1.393 . S
C886 H878 0.950 . S
C886 C884 1.391 . S
C886 C887 1.400 . S
C887 C886 1.400 . S
C887 C888 1.398 . S
C887 C893 1.491 . S
C888 H879 0.950 . S
C888 C887 1.398 . S
C888 C889 1.391 . S
C889 H877 0.950 . S
C889 C885 1.393 . S
C889 C888 1.391 . S
C890 H880 0.950 . S
C890 C891 1.386 . S
C890 C892 1.391 . S
C891 C890 1.386 . S
C891 C895 1.393 . S
C892 H881 0.950 . S
C892 C890 1.391 . S
C892 C893 1.400 . S
C893 C887 1.491 . S
C893 C892 1.400 . S
C893 C894 1.398 . S
C894 H882 0.950 . S
C894 C893 1.398 . S
C894 C895 1.391 . S
C895 H883 0.950 . S
C895 C891 1.393 . S
C895 C894 1.391 . S
H896 C904 0.950 . S
H897 C909 0.950 . S
H898 C906 0.950 . S
H899 C908 0.950 . S
H900 C910 0.950 1_556 S
H901 C912 0.950 . S
H902 C914 0.950 . S
H903 C915 0.950 . S
C904 H896 0.950 . S
C904 C905 1.386 . S
C904 C906 1.391 . S
C905 C904 1.386 . S
C905 C909 1.393 . S
C906 H898 0.950 . S
C906 C904 1.391 . S
C906 C907 1.400 . S
C907 C906 1.400 . S
C907 C908 1.398 . S
C907 C913 1.491 . S
C908 H899 0.950 . S
C908 C907 1.398 . S
C908 C909 1.391 . S
C909 H897 0.950 . S
C909 C905 1.393 . S
C909 C908 1.391 . S
C910 H900 0.950 1_554 S
C910 C911 1.386 . S
C910 C912 1.391 . S
C911 C910 1.386 . S
C911 C915 1.393 . S
C912 H901 0.950 . S
C912 C910 1.391 . S
C912 C913 1.400 . S
C913 C907 1.491 . S
C913 C912 1.400 . S
C913 C914 1.398 . S
C914 H902 0.950 . S
C914 C913 1.398 . S
C914 C915 1.391 . S
C915 H903 0.950 . S
C915 C911 1.393 . S
C915 C914 1.391 . S
H916 C924 0.950 . S
H917 C929 0.950 . S
H918 C926 0.950 . S
H919 C928 0.950 . S
H920 C930 0.950 . S
H921 C932 0.950 . S
H922 C934 0.950 . S
H923 C935 0.950 . S
C924 H916 0.950 . S
C924 C925 1.386 . S
C924 C926 1.391 . S
C925 C924 1.386 . S
C925 C929 1.393 . S
C926 H918 0.950 . S
C926 C924 1.391 . S
C926 C927 1.400 . S
C927 C926 1.400 . S
C927 C928 1.398 . S
C927 C933 1.491 . S
C928 H919 0.950 . S
C928 C927 1.398 . S
C928 C929 1.391 . S
C929 H917 0.950 . S
C929 C925 1.393 . S
C929 C928 1.391 . S
C930 H920 0.950 . S
C930 C931 1.386 . S
C930 C932 1.391 . S
C931 C930 1.386 . S
C931 C935 1.393 . S
C932 H921 0.950 . S
C932 C930 1.391 . S
C932 C933 1.400 . S
C933 C927 1.491 . S
C933 C932 1.400 . S
C933 C934 1.398 . S
C934 H922 0.950 . S
C934 C933 1.398 . S
C934 C935 1.391 . S
C935 H923 0.950 . S
C935 C931 1.393 . S
C935 C934 1.391 . S
H936 C944 0.950 . S
H937 C949 0.950 . S
H938 C946 0.950 . S
H939 C948 0.950 . S
H940 C950 0.950 . S
H941 C952 0.950 . S
H942 C954 0.950 . S
H943 C955 0.950 . S
C944 H936 0.950 . S
C944 C945 1.386 . S
C944 C946 1.391 . S
C945 C944 1.386 . S
C945 C949 1.393 . S
C946 H938 0.950 . S
C946 C944 1.391 . S
C946 C947 1.400 . S
C947 C946 1.400 . S
C947 C948 1.398 . S
C947 C953 1.491 . S
C948 H939 0.950 . S
C948 C947 1.398 . S
C948 C949 1.391 . S
C949 H937 0.950 . S
C949 C945 1.393 . S
C949 C948 1.391 . S
C950 H940 0.950 . S
C950 C951 1.386 . S
C950 C952 1.391 . S
C951 C950 1.386 . S
C951 C955 1.393 . S
C952 H941 0.950 . S
C952 C950 1.391 . S
C952 C953 1.400 . S
C953 C947 1.491 . S
C953 C952 1.400 . S
C953 C954 1.398 . S
C954 H942 0.950 . S
C954 C953 1.398 . S
C954 C955 1.391 . S
C955 H943 0.950 . S
C955 C951 1.393 . S
C955 C954 1.391 . S
H956 C964 0.950 . S
H957 C969 0.950 . S
H958 C966 0.950 . S
H959 C968 0.950 . S
H960 C970 0.950 . S
H961 C972 0.950 . S
H962 C974 0.950 . S
H963 C975 0.950 . S
C964 H956 0.950 . S
C964 C965 1.386 . S
C964 C966 1.391 . S
C965 C964 1.386 . S
C965 C969 1.393 . S
C966 H958 0.950 . S
C966 C964 1.391 . S
C966 C967 1.400 . S
C967 C966 1.400 . S
C967 C968 1.398 . S
C967 C973 1.491 . S
C968 H959 0.950 . S
C968 C967 1.398 . S
C968 C969 1.391 . S
C969 H957 0.950 . S
C969 C965 1.393 . S
C969 C968 1.391 . S
C970 H960 0.950 . S
C970 C971 1.386 . S
C970 C972 1.391 . S
C971 C970 1.386 . S
C971 C975 1.393 . S
C972 H961 0.950 . S
C972 C970 1.391 . S
C972 C973 1.400 . S
C973 C967 1.491 . S
C973 C972 1.400 . S
C973 C974 1.398 . S
C974 H962 0.950 . S
C974 C973 1.398 . S
C974 C975 1.391 . S
C975 H963 0.950 . S
C975 C971 1.393 . S
C975 C974 1.391 . S
H976 C984 0.950 . S
H977 C989 0.950 . S
H978 C986 0.950 . S
H979 C988 0.950 . S
H980 C990 0.950 . S
H981 C992 0.950 . S
H982 C994 0.950 . S
H983 C995 0.950 . S
C984 H976 0.950 . S
C984 C985 1.386 . S
C984 C986 1.391 . S
C985 C984 1.386 . S
C985 C989 1.393 . S
C986 H978 0.950 . S
C986 C984 1.391 . S
C986 C987 1.400 . S
C987 C986 1.400 . S
C987 C988 1.398 . S
C987 C993 1.491 . S
C988 H979 0.950 . S
C988 C987 1.398 . S
C988 C989 1.391 . S
C989 H977 0.950 . S
C989 C985 1.393 . S
C989 C988 1.391 . S
C990 H980 0.950 . S
C990 C991 1.386 . S
C990 C992 1.391 . S
C991 C990 1.386 . S
C991 C995 1.393 . S
C992 H981 0.950 . S
C992 C990 1.391 . S
C992 C993 1.400 . S
C993 C987 1.491 . S
C993 C992 1.400 . S
C993 C994 1.398 . S
C994 H982 0.950 . S
C994 C993 1.398 . S
C994 C995 1.391 . S
C995 H983 0.950 . S
C995 C991 1.393 . S
C995 C994 1.391 . S
H996 C1004 0.950 . S
H997 C1009 0.950 . S
H998 C1006 0.950 . S
H999 C1008 0.950 . S
H1000 C1010 0.950 . S
H1001 C1012 0.950 . S
H1002 C1014 0.950 . S
H1003 C1015 0.950 . S
C1004 H996 0.950 . S
C1004 C1005 1.386 . S
C1004 C1006 1.391 . S
C1005 C1004 1.386 . S
C1005 C1009 1.393 . S
C1006 H998 0.950 . S
C1006 C1004 1.391 . S
C1006 C1007 1.400 . S
C1007 C1006 1.400 . S
C1007 C1008 1.398 . S
C1007 C1013 1.491 . S
C1008 H999 0.950 . S
C1008 C1007 1.398 . S
C1008 C1009 1.391 . S
C1009 H997 0.950 . S
C1009 C1005 1.393 . S
C1009 C1008 1.391 . S
C1010 H1000 0.950 . S
C1010 C1011 1.386 . S
C1010 C1012 1.391 . S
C1011 C1010 1.386 . S
C1011 C1015 1.393 . S
C1012 H1001 0.950 . S
C1012 C1010 1.391 . S
C1012 C1013 1.400 . S
C1013 C1007 1.491 . S
C1013 C1012 1.400 . S
C1013 C1014 1.398 . S
C1014 H1002 0.950 . S
C1014 C1013 1.398 . S
C1014 C1015 1.391 . S
C1015 H1003 0.950 . S
C1015 C1011 1.393 . S
C1015 C1014 1.391 . S
H1016 C1024 0.950 . S
H1017 C1029 0.950 . S
H1018 C1026 0.950 . S
H1019 C1028 0.950 . S
H1020 C1030 0.950 . S
H1021 C1032 0.950 . S
H1022 C1034 0.950 . S
H1023 C1035 0.950 . S
C1024 H1016 0.950 . S
C1024 C1025 1.386 . S
C1024 C1026 1.391 . S
C1025 C1024 1.386 . S
C1025 C1029 1.393 . S
C1026 H1018 0.950 . S
C1026 C1024 1.391 . S
C1026 C1027 1.400 . S
C1027 C1026 1.400 . S
C1027 C1028 1.398 . S
C1027 C1033 1.491 . S
C1028 H1019 0.950 . S
C1028 C1027 1.398 . S
C1028 C1029 1.391 . S
C1029 H1017 0.950 . S
C1029 C1025 1.393 . S
C1029 C1028 1.391 . S
C1030 H1020 0.950 . S
C1030 C1031 1.386 . S
C1030 C1032 1.391 . S
C1031 C1030 1.386 . S
C1031 C1035 1.393 . S
C1032 H1021 0.950 . S
C1032 C1030 1.391 . S
C1032 C1033 1.400 . S
C1033 C1027 1.491 . S
C1033 C1032 1.400 . S
C1033 C1034 1.398 . S
C1034 H1022 0.950 . S
C1034 C1033 1.398 . S
C1034 C1035 1.391 . S
C1035 H1023 0.950 . S
C1035 C1031 1.393 . S
C1035 C1034 1.391 . S
H1036 C1044 0.950 . S
H1037 C1049 0.950 . S
H1038 C1046 0.950 . S
H1039 C1048 0.950 . S
H1040 C1050 0.950 . S
H1041 C1052 0.950 . S
H1042 C1054 0.950 . S
H1043 C1055 0.950 . S
C1044 H1036 0.950 . S
C1044 C1045 1.386 . S
C1044 C1046 1.391 . S
C1045 C1044 1.386 . S
C1045 C1049 1.393 . S
C1046 H1038 0.950 . S
C1046 C1044 1.391 . S
C1046 C1047 1.400 . S
C1047 C1046 1.400 . S
C1047 C1048 1.398 . S
C1047 C1053 1.491 . S
C1048 H1039 0.950 . S
C1048 C1047 1.398 . S
C1048 C1049 1.391 . S
C1049 H1037 0.950 . S
C1049 C1045 1.393 . S
C1049 C1048 1.391 . S
C1050 H1040 0.950 . S
C1050 C1051 1.386 . S
C1050 C1052 1.391 . S
C1051 C1050 1.386 . S
C1051 C1055 1.393 . S
C1052 H1041 0.950 . S
C1052 C1050 1.391 . S
C1052 C1053 1.400 . S
C1053 C1047 1.491 . S
C1053 C1052 1.400 . S
C1053 C1054 1.398 . S
C1054 H1042 0.950 . S
C1054 C1053 1.398 . S
C1054 C1055 1.391 . S
C1055 H1043 0.950 . S
C1055 C1051 1.393 . S
C1055 C1054 1.391 . S
H1056 C1064 0.950 . S
H1057 C1069 0.950 . S
H1058 C1066 0.950 . S
H1059 C1068 0.950 . S
H1060 C1070 0.950 . S
H1061 C1072 0.950 . S
H1062 C1074 0.950 . S
H1063 C1075 0.950 . S
C1064 H1056 0.950 . S
C1064 C1065 1.386 . S
C1064 C1066 1.391 . S
C1065 C1064 1.386 . S
C1065 C1069 1.393 . S
C1066 H1058 0.950 . S
C1066 C1064 1.391 . S
C1066 C1067 1.400 . S
C1067 C1066 1.400 . S
C1067 C1068 1.398 . S
C1067 C1073 1.491 . S
C1068 H1059 0.950 . S
C1068 C1067 1.398 . S
C1068 C1069 1.391 . S
C1069 H1057 0.950 . S
C1069 C1065 1.393 . S
C1069 C1068 1.391 . S
C1070 H1060 0.950 . S
C1070 C1071 1.386 . S
C1070 C1072 1.391 . S
C1071 C1070 1.386 . S
C1071 C1075 1.393 . S
C1072 H1061 0.950 . S
C1072 C1070 1.391 . S
C1072 C1073 1.400 . S
C1073 C1067 1.491 . S
C1073 C1072 1.400 . S
C1073 C1074 1.398 . S
C1074 H1062 0.950 . S
C1074 C1073 1.398 . S
C1074 C1075 1.391 . S
C1075 H1063 0.950 . S
C1075 C1071 1.393 . S
C1075 C1074 1.391 . S
H1076 C1084 0.950 . S
H1077 C1089 0.950 . S
H1078 C1086 0.950 . S
H1079 C1088 0.950 . S
H1080 C1090 0.950 . S
H1081 C1092 0.950 . S
H1082 C1094 0.950 . S
H1083 C1095 0.950 . S
C1084 H1076 0.950 . S
C1084 C1085 1.386 . S
C1084 C1086 1.391 . S
C1085 C1084 1.386 . S
C1085 C1089 1.393 . S
C1086 H1078 0.950 . S
C1086 C1084 1.391 . S
C1086 C1087 1.400 . S
C1087 C1086 1.400 . S
C1087 C1088 1.398 . S
C1087 C1093 1.491 . S
C1088 H1079 0.950 . S
C1088 C1087 1.398 . S
C1088 C1089 1.391 . S
C1089 H1077 0.950 . S
C1089 C1085 1.393 . S
C1089 C1088 1.391 . S
C1090 H1080 0.950 . S
C1090 C1091 1.386 . S
C1090 C1092 1.391 . S
C1091 C1090 1.386 . S
C1091 C1095 1.393 . S
C1092 H1081 0.950 . S
C1092 C1090 1.391 . S
C1092 C1093 1.400 . S
C1093 C1087 1.491 . S
C1093 C1092 1.400 . S
C1093 C1094 1.398 . S
C1094 H1082 0.950 . S
C1094 C1093 1.398 . S
C1094 C1095 1.391 . S
C1095 H1083 0.950 . S
C1095 C1091 1.393 . S
C1095 C1094 1.391 . S
H1096 C1104 0.950 . S
H1097 C1109 0.950 . S
H1098 C1106 0.950 . S
H1099 C1108 0.950 . S
H1100 C1110 0.950 . S
H1101 C1112 0.950 . S
H1102 C1114 0.950 . S
H1103 C1115 0.950 . S
C1104 H1096 0.950 . S
C1104 C1105 1.386 . S
C1104 C1106 1.391 . S
C1105 C1104 1.386 . S
C1105 C1109 1.393 . S
C1106 H1098 0.950 . S
C1106 C1104 1.391 . S
C1106 C1107 1.400 . S
C1107 C1106 1.400 . S
C1107 C1108 1.398 . S
C1107 C1113 1.491 . S
C1108 H1099 0.950 . S
C1108 C1107 1.398 . S
C1108 C1109 1.391 . S
C1109 H1097 0.950 . S
C1109 C1105 1.393 . S
C1109 C1108 1.391 . S
C1110 H1100 0.950 . S
C1110 C1111 1.386 . S
C1110 C1112 1.391 . S
C1111 C1110 1.386 . S
C1111 C1115 1.393 . S
C1112 H1101 0.950 . S
C1112 C1110 1.391 . S
C1112 C1113 1.400 . S
C1113 C1107 1.491 . S
C1113 C1112 1.400 . S
C1113 C1114 1.398 . S
C1114 H1102 0.950 . S
C1114 C1113 1.398 . S
C1114 C1115 1.391 . S
C1115 H1103 0.950 . S
C1115 C1111 1.393 . S
C1115 C1114 1.391 . S
H1116 C1124 0.950 . S
H1117 C1129 0.950 . S
H1118 C1126 0.950 . S
H1119 C1128 0.950 . S
H1120 C1130 0.950 . S
H1121 C1132 0.950 . S
H1122 C1134 0.950 . S
H1123 C1135 0.950 . S
C1124 H1116 0.950 . S
C1124 C1125 1.386 . S
C1124 C1126 1.391 . S
C1125 C1124 1.386 . S
C1125 C1129 1.393 . S
C1126 H1118 0.950 . S
C1126 C1124 1.391 . S
C1126 C1127 1.400 . S
C1127 C1126 1.400 . S
C1127 C1128 1.398 . S
C1127 C1133 1.491 . S
C1128 H1119 0.950 . S
C1128 C1127 1.398 . S
C1128 C1129 1.391 . S
C1129 H1117 0.950 . S
C1129 C1125 1.393 . S
C1129 C1128 1.391 . S
C1130 H1120 0.950 . S
C1130 C1131 1.386 . S
C1130 C1132 1.391 . S
C1131 C1130 1.386 . S
C1131 C1135 1.393 . S
C1132 H1121 0.950 . S
C1132 C1130 1.391 . S
C1132 C1133 1.400 . S
C1133 C1127 1.491 . S
C1133 C1132 1.400 . S
C1133 C1134 1.398 . S
C1134 H1122 0.950 . S
C1134 C1133 1.398 . S
C1134 C1135 1.391 . S
C1135 H1123 0.950 . S
C1135 C1131 1.393 . S
C1135 C1134 1.391 . S
H1136 C1144 0.950 . S
H1137 C1149 0.950 . S
H1138 C1146 0.950 . S
H1139 C1148 0.950 . S
H1140 C1150 0.950 . S
H1141 C1152 0.950 . S
H1142 C1154 0.950 . S
H1143 C1155 0.950 . S
C1144 H1136 0.950 . S
C1144 C1145 1.386 . S
C1144 C1146 1.391 . S
C1145 C1144 1.386 . S
C1145 C1149 1.393 . S
C1146 H1138 0.950 . S
C1146 C1144 1.391 . S
C1146 C1147 1.400 . S
C1147 C1146 1.400 . S
C1147 C1148 1.398 . S
C1147 C1153 1.491 . S
C1148 H1139 0.950 . S
C1148 C1147 1.398 . S
C1148 C1149 1.391 . S
C1149 H1137 0.950 . S
C1149 C1145 1.393 . S
C1149 C1148 1.391 . S
C1150 H1140 0.950 . S
C1150 C1151 1.386 . S
C1150 C1152 1.391 . S
C1151 C1150 1.386 . S
C1151 C1155 1.393 . S
C1152 H1141 0.950 . S
C1152 C1150 1.391 . S
C1152 C1153 1.400 . S
C1153 C1147 1.491 . S
C1153 C1152 1.400 . S
C1153 C1154 1.398 . S
C1154 H1142 0.950 . S
C1154 C1153 1.398 . S
C1154 C1155 1.391 . S
C1155 H1143 0.950 . S
C1155 C1151 1.393 . S
C1155 C1154 1.391 . S
H1156 C1164 0.950 . S
H1157 C1169 0.950 . S
H1158 C1166 0.950 . S
H1159 C1168 0.950 . S
H1160 C1170 0.950 . S
H1161 C1172 0.950 . S
H1162 C1174 0.950 . S
H1163 C1175 0.950 . S
C1164 H1156 0.950 . S
C1164 C1165 1.386 . S
C1164 C1166 1.391 . S
C1165 C1164 1.386 . S
C1165 C1169 1.393 . S
C1166 H1158 0.950 . S
C1166 C1164 1.391 . S
C1166 C1167 1.400 . S
C1167 C1166 1.400 . S
C1167 C1168 1.398 . S
C1167 C1173 1.491 . S
C1168 H1159 0.950 . S
C1168 C1167 1.398 . S
C1168 C1169 1.391 . S
C1169 H1157 0.950 . S
C1169 C1165 1.393 . S
C1169 C1168 1.391 . S
C1170 H1160 0.950 . S
C1170 C1171 1.386 . S
C1170 C1172 1.391 . S
C1171 C1170 1.386 . S
C1171 C1175 1.393 . S
C1172 H1161 0.950 . S
C1172 C1170 1.391 . S
C1172 C1173 1.400 . S
C1173 C1167 1.491 . S
C1173 C1172 1.400 . S
C1173 C1174 1.398 . S
C1174 H1162 0.950 . S
C1174 C1173 1.398 . S
C1174 C1175 1.391 . S
C1175 H1163 0.950 . S
C1175 C1171 1.393 . S
C1175 C1174 1.391 . S
H1176 C1184 0.950 . S
H1177 C1189 0.950 . S
H1178 C1186 0.950 . S
H1179 C1188 0.950 . S
H1180 C1190 0.950 . S
H1181 C1192 0.950 . S
H1182 C1194 0.950 . S
H1183 C1195 0.950 . S
C1184 H1176 0.950 . S
C1184 C1185 1.386 . S
C1184 C1186 1.391 . S
C1185 C1184 1.386 . S
C1185 C1189 1.393 . S
C1186 H1178 0.950 . S
C1186 C1184 1.391 . S
C1186 C1187 1.400 . S
C1187 C1186 1.400 . S
C1187 C1188 1.398 . S
C1187 C1193 1.491 . S
C1188 H1179 0.950 . S
C1188 C1187 1.398 . S
C1188 C1189 1.391 . S
C1189 H1177 0.950 . S
C1189 C1185 1.393 . S
C1189 C1188 1.391 . S
C1190 H1180 0.950 . S
C1190 C1191 1.386 . S
C1190 C1192 1.391 1_554 S
C1191 C1190 1.386 . S
C1191 C1195 1.393 1_554 S
C1192 H1181 0.950 . S
C1192 C1190 1.391 1_556 S
C1192 C1193 1.400 . S
C1193 C1187 1.491 . S
C1193 C1192 1.400 . S
C1193 C1194 1.398 . S
C1194 H1182 0.950 . S
C1194 C1193 1.398 . S
C1194 C1195 1.391 . S
C1195 H1183 0.950 . S
C1195 C1191 1.393 1_556 S
C1195 C1194 1.391 . S
H1196 C1204 0.950 . S
H1197 C1209 0.950 . S
H1198 C1206 0.950 . S
H1199 C1208 0.950 . S
H1200 C1210 0.950 . S
H1201 C1212 0.950 1_554 S
H1202 C1214 0.950 . S
H1203 C1215 0.950 . S
C1204 H1196 0.950 . S
C1204 C1205 1.386 . S
C1204 C1206 1.391 . S
C1205 C1204 1.386 . S
C1205 C1209 1.393 . S
C1206 H1198 0.950 . S
C1206 C1204 1.391 . S
C1206 C1207 1.400 . S
C1207 C1206 1.400 . S
C1207 C1208 1.398 . S
C1207 C1213 1.491 . S
C1208 H1199 0.950 . S
C1208 C1207 1.398 . S
C1208 C1209 1.391 . S
C1209 H1197 0.950 . S
C1209 C1205 1.393 . S
C1209 C1208 1.391 . S
C1210 H1200 0.950 . S
C1210 C1211 1.386 . S
C1210 C1212 1.391 1_554 S
C1211 C1210 1.386 . S
C1211 C1215 1.393 1_554 S
C1212 H1201 0.950 1_556 S
C1212 C1210 1.391 1_556 S
C1212 C1213 1.400 . S
C1213 C1207 1.491 . S
C1213 C1212 1.400 . S
C1213 C1214 1.398 . S
C1214 H1202 0.950 . S
C1214 C1213 1.398 . S
C1214 C1215 1.391 . S
C1215 H1203 0.950 . S
C1215 C1211 1.393 1_556 S
C1215 C1214 1.391 . S
H1216 C1224 0.950 . S
H1217 C1229 0.950 . S
H1218 C1226 0.950 . S
H1219 C1228 0.950 . S
H1220 C1230 0.950 . S
H1221 C1232 0.950 . S
H1222 C1234 0.950 . S
H1223 C1235 0.950 . S
C1224 H1216 0.950 . S
C1224 C1225 1.386 . S
C1224 C1226 1.391 . S
C1225 C1224 1.386 . S
C1225 C1229 1.393 . S
C1226 H1218 0.950 . S
C1226 C1224 1.391 . S
C1226 C1227 1.400 . S
C1227 C1226 1.400 . S
C1227 C1228 1.398 . S
C1227 C1233 1.491 . S
C1228 H1219 0.950 . S
C1228 C1227 1.398 . S
C1228 C1229 1.391 . S
C1229 H1217 0.950 . S
C1229 C1225 1.393 . S
C1229 C1228 1.391 . S
C1230 H1220 0.950 . S
C1230 C1231 1.386 1_556 S
C1230 C1232 1.391 . S
C1231 C1230 1.386 1_554 S
C1231 C1235 1.393 . S
C1232 H1221 0.950 . S
C1232 C1230 1.391 . S
C1232 C1233 1.400 . S
C1233 C1227 1.491 . S
C1233 C1232 1.400 . S
C1233 C1234 1.398 . S
C1234 H1222 0.950 . S
C1234 C1233 1.398 . S
C1234 C1235 1.391 1_556 S
C1235 H1223 0.950 . S
C1235 C1231 1.393 . S
C1235 C1234 1.391 1_554 S
H1236 C1244 0.950 . S
H1237 C1249 0.950 . S
H1238 C1246 0.950 . S
H1239 C1248 0.950 . S
H1240 C1250 0.950 . S
H1241 C1252 0.950 . S
H1242 C1254 0.950 . S
H1243 C1255 0.950 . S
C1244 H1236 0.950 . S
C1244 C1245 1.386 . S
C1244 C1246 1.391 . S
C1245 C1244 1.386 . S
C1245 C1249 1.393 . S
C1246 H1238 0.950 . S
C1246 C1244 1.391 . S
C1246 C1247 1.400 . S
C1247 C1246 1.400 . S
C1247 C1248 1.398 . S
C1247 C1253 1.491 . S
C1248 H1239 0.950 . S
C1248 C1247 1.398 . S
C1248 C1249 1.391 . S
C1249 H1237 0.950 . S
C1249 C1245 1.393 . S
C1249 C1248 1.391 . S
C1250 H1240 0.950 . S
C1250 C1251 1.386 . S
C1250 C1252 1.391 . S
C1251 C1250 1.386 . S
C1251 C1255 1.393 . S
C1252 H1241 0.950 . S
C1252 C1250 1.391 . S
C1252 C1253 1.400 . S
C1253 C1247 1.491 . S
C1253 C1252 1.400 . S
C1253 C1254 1.398 . S
C1254 H1242 0.950 . S
C1254 C1253 1.398 . S
C1254 C1255 1.391 . S
C1255 H1243 0.950 . S
C1255 C1251 1.393 . S
C1255 C1254 1.391 . S
H1256 C1264 0.950 . S
H1257 C1269 0.950 . S
H1258 C1266 0.950 . S
H1259 C1268 0.950 . S
H1260 C1270 0.950 . S
H1261 C1272 0.950 . S
H1262 C1274 0.950 . S
H1263 C1275 0.950 . S
C1264 H1256 0.950 . S
C1264 C1265 1.386 . S
C1264 C1266 1.391 . S
C1265 C1264 1.386 . S
C1265 C1269 1.393 . S
C1266 H1258 0.950 . S
C1266 C1264 1.391 . S
C1266 C1267 1.400 . S
C1267 C1266 1.400 . S
C1267 C1268 1.398 . S
C1267 C1273 1.491 . S
C1268 H1259 0.950 . S
C1268 C1267 1.398 . S
C1268 C1269 1.391 . S
C1269 H1257 0.950 . S
C1269 C1265 1.393 . S
C1269 C1268 1.391 . S
C1270 H1260 0.950 . S
C1270 C1271 1.386 . S
C1270 C1272 1.391 . S
C1271 C1270 1.386 . S
C1271 C1275 1.393 . S
C1272 H1261 0.950 . S
C1272 C1270 1.391 . S
C1272 C1273 1.400 . S
C1273 C1267 1.491 . S
C1273 C1272 1.400 . S
C1273 C1274 1.398 . S
C1274 H1262 0.950 . S
C1274 C1273 1.398 . S
C1274 C1275 1.391 . S
C1275 H1263 0.950 . S
C1275 C1271 1.393 . S
C1275 C1274 1.391 . S
H1276 C1284 0.950 . S
H1277 C1289 0.950 . S
H1278 C1286 0.950 . S
H1279 C1288 0.950 . S
H1280 C1290 0.950 . S
H1281 C1292 0.950 . S
H1282 C1294 0.950 . S
H1283 C1295 0.950 . S
C1284 H1276 0.950 . S
C1284 C1285 1.386 . S
C1284 C1286 1.391 . S
C1285 C1284 1.386 . S
C1285 C1289 1.393 . S
C1286 H1278 0.950 . S
C1286 C1284 1.391 . S
C1286 C1287 1.400 . S
C1287 C1286 1.400 . S
C1287 C1288 1.398 . S
C1287 C1293 1.491 . S
C1288 H1279 0.950 . S
C1288 C1287 1.398 . S
C1288 C1289 1.391 . S
C1289 H1277 0.950 . S
C1289 C1285 1.393 . S
C1289 C1288 1.391 . S
C1290 H1280 0.950 . S
C1290 C1291 1.386 . S
C1290 C1292 1.391 . S
C1291 C1290 1.386 . S
C1291 C1295 1.393 . S
C1292 H1281 0.950 . S
C1292 C1290 1.391 . S
C1292 C1293 1.400 . S
C1293 C1287 1.491 . S
C1293 C1292 1.400 . S
C1293 C1294 1.398 . S
C1294 H1282 0.950 . S
C1294 C1293 1.398 . S
C1294 C1295 1.391 . S
C1295 H1283 0.950 . S
C1295 C1291 1.393 . S
C1295 C1294 1.391 . S
H1296 C1304 0.950 . S
H1297 C1309 0.950 . S
H1298 C1306 0.950 . S
H1299 C1308 0.950 . S
H1300 C1310 0.950 . S
H1301 C1312 0.950 . S
H1302 C1314 0.950 . S
H1303 C1315 0.950 . S
C1304 H1296 0.950 . S
C1304 C1305 1.386 1_554 S
C1304 C1306 1.391 . S
C1305 C1304 1.386 1_556 S
C1305 C1309 1.393 . S
C1306 H1298 0.950 . S
C1306 C1304 1.391 . S
C1306 C1307 1.400 . S
C1307 C1306 1.400 . S
C1307 C1308 1.398 1_554 S
C1307 C1313 1.491 . S
C1308 H1299 0.950 . S
C1308 C1307 1.398 1_556 S
C1308 C1309 1.391 . S
C1309 H1297 0.950 . S
C1309 C1305 1.393 . S
C1309 C1308 1.391 . S
C1310 H1300 0.950 . S
C1310 C1311 1.386 . S
C1310 C1312 1.391 . S
C1311 C1310 1.386 . S
C1311 C1315 1.393 . S
C1312 H1301 0.950 . S
C1312 C1310 1.391 . S
C1312 C1313 1.400 . S
C1313 C1307 1.491 . S
C1313 C1312 1.400 . S
C1313 C1314 1.398 . S
C1314 H1302 0.950 . S
C1314 C1313 1.398 . S
C1314 C1315 1.391 . S
C1315 H1303 0.950 . S
C1315 C1311 1.393 . S
C1315 C1314 1.391 . S
H1316 C1324 0.950 . S
H1317 C1329 0.950 . S
H1318 C1326 0.950 . S
H1319 C1328 0.950 . S
H1320 C1330 0.950 . S
H1321 C1332 0.950 . S
H1322 C1334 0.950 . S
H1323 C1335 0.950 . S
C1324 H1316 0.950 . S
C1324 C1325 1.386 . S
C1324 C1326 1.391 . S
C1325 C1324 1.386 . S
C1325 C1329 1.393 . S
C1326 H1318 0.950 . S
C1326 C1324 1.391 . S
C1326 C1327 1.400 . S
C1327 C1326 1.400 . S
C1327 C1328 1.398 . S
C1327 C1333 1.491 . S
C1328 H1319 0.950 . S
C1328 C1327 1.398 . S
C1328 C1329 1.391 . S
C1329 H1317 0.950 . S
C1329 C1325 1.393 . S
C1329 C1328 1.391 . S
C1330 H1320 0.950 . S
C1330 C1331 1.386 . S
C1330 C1332 1.391 . S
C1331 C1330 1.386 . S
C1331 C1335 1.393 1_556 S
C1332 H1321 0.950 . S
C1332 C1330 1.391 . S
C1332 C1333 1.400 1_556 S
C1333 C1327 1.491 . S
C1333 C1332 1.400 1_554 S
C1333 C1334 1.398 . S
C1334 H1322 0.950 . S
C1334 C1333 1.398 . S
C1334 C1335 1.391 . S
C1335 H1323 0.950 . S
C1335 C1331 1.393 1_554 S
C1335 C1334 1.391 . S
H1336 C1344 0.950 . S
H1337 C1349 0.950 . S
H1338 C1346 0.950 . S
H1339 C1348 0.950 . S
H1340 C1350 0.950 . S
H1341 C1352 0.950 . S
H1342 C1354 0.950 . S
H1343 C1355 0.950 . S
C1344 H1336 0.950 . S
C1344 C1345 1.386 . S
C1344 C1346 1.391 . S
C1345 C1344 1.386 . S
C1345 C1349 1.393 . S
C1346 H1338 0.950 . S
C1346 C1344 1.391 . S
C1346 C1347 1.400 . S
C1347 C1346 1.400 . S
C1347 C1348 1.398 . S
C1347 C1353 1.491 . S
C1348 H1339 0.950 . S
C1348 C1347 1.398 . S
C1348 C1349 1.391 . S
C1349 H1337 0.950 . S
C1349 C1345 1.393 . S
C1349 C1348 1.391 . S
C1350 H1340 0.950 . S
C1350 C1351 1.386 . S
C1350 C1352 1.391 . S
C1351 C1350 1.386 . S
C1351 C1355 1.393 1_556 S
C1352 H1341 0.950 . S
C1352 C1350 1.391 . S
C1352 C1353 1.400 1_556 S
C1353 C1347 1.491 . S
C1353 C1352 1.400 1_554 S
C1353 C1354 1.398 . S
C1354 H1342 0.950 . S
C1354 C1353 1.398 . S
C1354 C1355 1.391 . S
C1355 H1343 0.950 . S
C1355 C1351 1.393 1_554 S
C1355 C1354 1.391 . S
H1356 C1364 0.950 . S
H1357 C1369 0.950 . S
H1358 C1366 0.950 . S
H1359 C1368 0.950 . S
H1360 C1370 0.950 . S
H1361 C1372 0.950 . S
H1362 C1374 0.950 . S
H1363 C1375 0.950 . S
C1364 H1356 0.950 . S
C1364 C1365 1.386 . S
C1364 C1366 1.391 1_655 S
C1365 C1364 1.386 . S
C1365 C1369 1.393 . S
C1366 H1358 0.950 . S
C1366 C1364 1.391 1_455 S
C1366 C1367 1.400 . S
C1367 C1366 1.400 . S
C1367 C1368 1.398 1_455 S
C1367 C1373 1.491 . S
C1368 H1359 0.950 . S
C1368 C1367 1.398 1_655 S
C1368 C1369 1.391 . S
C1369 H1357 0.950 . S
C1369 C1365 1.393 . S
C1369 C1368 1.391 . S
C1370 H1360 0.950 . S
C1370 C1371 1.386 . S
C1370 C1372 1.391 . S
C1371 C1370 1.386 . S
C1371 C1375 1.393 . S
C1372 H1361 0.950 . S
C1372 C1370 1.391 . S
C1372 C1373 1.400 . S
C1373 C1367 1.491 . S
C1373 C1372 1.400 . S
C1373 C1374 1.398 . S
C1374 H1362 0.950 . S
C1374 C1373 1.398 . S
C1374 C1375 1.391 . S
C1375 H1363 0.950 . S
C1375 C1371 1.393 . S
C1375 C1374 1.391 . S
H1376 C1384 0.950 . S
H1377 C1389 0.950 . S
H1378 C1386 0.950 . S
H1379 C1388 0.950 . S
H1380 C1390 0.950 . S
H1381 C1392 0.950 . S
H1382 C1394 0.950 . S
H1383 C1395 0.950 . S
C1384 H1376 0.950 . S
C1384 C1385 1.386 . S
C1384 C1386 1.391 . S
C1385 C1384 1.386 . S
C1385 C1389 1.393 . S
C1386 H1378 0.950 . S
C1386 C1384 1.391 . S
C1386 C1387 1.400 . S
C1387 C1386 1.400 . S
C1387 C1388 1.398 . S
C1387 C1393 1.491 . S
C1388 H1379 0.950 . S
C1388 C1387 1.398 . S
C1388 C1389 1.391 . S
C1389 H1377 0.950 . S
C1389 C1385 1.393 . S
C1389 C1388 1.391 . S
C1390 H1380 0.950 . S
C1390 C1391 1.386 . S
C1390 C1392 1.391 . S
C1391 C1390 1.386 . S
C1391 C1395 1.393 . S
C1392 H1381 0.950 . S
C1392 C1390 1.391 . S
C1392 C1393 1.400 . S
C1393 C1387 1.491 . S
C1393 C1392 1.400 . S
C1393 C1394 1.398 . S
C1394 H1382 0.950 . S
C1394 C1393 1.398 . S
C1394 C1395 1.391 . S
C1395 H1383 0.950 . S
C1395 C1391 1.393 . S
C1395 C1394 1.391 . S
H1396 C1404 0.950 . S
H1397 C1409 0.950 . S
H1398 C1406 0.950 . S
H1399 C1408 0.950 . S
H1400 C1410 0.950 . S
H1401 C1412 0.950 . S
H1402 C1414 0.950 . S
H1403 C1415 0.950 . S
C1404 H1396 0.950 . S
C1404 C1405 1.386 . S
C1404 C1406 1.391 . S
C1405 C1404 1.386 . S
C1405 C1409 1.393 . S
C1406 H1398 0.950 . S
C1406 C1404 1.391 . S
C1406 C1407 1.400 1_565 S
C1407 C1406 1.400 1_545 S
C1407 C1408 1.398 . S
C1407 C1413 1.491 . S
C1408 H1399 0.950 . S
C1408 C1407 1.398 . S
C1408 C1409 1.391 1_545 S
C1409 H1397 0.950 . S
C1409 C1405 1.393 . S
C1409 C1408 1.391 1_565 S
C1410 H1400 0.950 . S
C1410 C1411 1.386 . S
C1410 C1412 1.391 . S
C1411 C1410 1.386 . S
C1411 C1415 1.393 . S
C1412 H1401 0.950 . S
C1412 C1410 1.391 . S
C1412 C1413 1.400 . S
C1413 C1407 1.491 . S
C1413 C1412 1.400 . S
C1413 C1414 1.398 . S
C1414 H1402 0.950 . S
C1414 C1413 1.398 . S
C1414 C1415 1.391 . S
C1415 H1403 0.950 . S
C1415 C1411 1.393 . S
C1415 C1414 1.391 . S
H1416 C1424 0.950 . S
H1417 C1429 0.950 . S
H1418 C1426 0.950 1_545 S
H1419 C1428 0.950 . S
H1420 C1430 0.950 . S
H1421 C1432 0.950 . S
H1422 C1434 0.950 . S
H1423 C1435 0.950 . S
C1424 H1416 0.950 . S
C1424 C1425 1.386 . S
C1424 C1426 1.391 . S
C1425 C1424 1.386 . S
C1425 C1429 1.393 . S
C1426 H1418 0.950 1_565 S
C1426 C1424 1.391 . S
C1426 C1427 1.400 1_565 S
C1427 C1426 1.400 1_545 S
C1427 C1428 1.398 1_545 S
C1427 C1433 1.491 . S
C1428 H1419 0.950 . S
C1428 C1427 1.398 1_565 S
C1428 C1429 1.391 . S
C1429 H1417 0.950 . S
C1429 C1425 1.393 . S
C1429 C1428 1.391 . S
C1430 H1420 0.950 . S
C1430 C1431 1.386 . S
C1430 C1432 1.391 . S
C1431 C1430 1.386 . S
C1431 C1435 1.393 . S
C1432 H1421 0.950 . S
C1432 C1430 1.391 . S
C1432 C1433 1.400 . S
C1433 C1427 1.491 . S
C1433 C1432 1.400 . S
C1433 C1434 1.398 . S
C1434 H1422 0.950 . S
C1434 C1433 1.398 . S
C1434 C1435 1.391 . S
C1435 H1423 0.950 . S
C1435 C1431 1.393 . S
C1435 C1434 1.391 . S
H1436 C1444 0.950 . S
H1437 C1449 0.950 . S
H1438 C1446 0.950 . S
H1439 C1448 0.950 . S
H1440 C1450 0.950 . S
H1441 C1452 0.950 . S
H1442 C1454 0.950 . S
H1443 C1455 0.950 . S
C1444 H1436 0.950 . S
C1444 C1445 1.386 . S
C1444 C1446 1.391 . S
C1445 C1444 1.386 . S
C1445 C1449 1.393 . S
C1446 H1438 0.950 . S
C1446 C1444 1.391 . S
C1446 C1447 1.400 . S
C1447 C1446 1.400 . S
C1447 C1448 1.398 . S
C1447 C1453 1.491 . S
C1448 H1439 0.950 . S
C1448 C1447 1.398 . S
C1448 C1449 1.391 . S
C1449 H1437 0.950 . S
C1449 C1445 1.393 . S
C1449 C1448 1.391 . S
C1450 H1440 0.950 . S
C1450 C1451 1.386 . S
C1450 C1452 1.391 1_655 S
C1451 C1450 1.386 . S
C1451 C1455 1.393 . S
C1452 H1441 0.950 . S
C1452 C1450 1.391 1_455 S
C1452 C1453 1.400 . S
C1453 C1447 1.491 . S
C1453 C1452 1.400 . S
C1453 C1454 1.398 1_455 S
C1454 H1442 0.950 . S
C1454 C1453 1.398 1_655 S
C1454 C1455 1.391 . S
C1455 H1443 0.950 . S
C1455 C1451 1.393 . S
C1455 C1454 1.391 . S
H1456 C1464 0.950 . S
H1457 C1469 0.950 . S
H1458 C1466 0.950 . S
H1459 C1468 0.950 . S
H1460 C1470 0.950 . S
H1461 C1472 0.950 . S
H1462 C1474 0.950 . S
H1463 C1475 0.950 . S
C1464 H1456 0.950 . S
C1464 C1465 1.386 . S
C1464 C1466 1.391 . S
C1465 C1464 1.386 . S
C1465 C1469 1.393 . S
C1466 H1458 0.950 . S
C1466 C1464 1.391 . S
C1466 C1467 1.400 . S
C1467 C1466 1.400 . S
C1467 C1468 1.398 . S
C1467 C1473 1.491 . S
C1468 H1459 0.950 . S
C1468 C1467 1.398 . S
C1468 C1469 1.391 . S
C1469 H1457 0.950 . S
C1469 C1465 1.393 . S
C1469 C1468 1.391 . S
C1470 H1460 0.950 . S
C1470 C1471 1.386 . S
C1470 C1472 1.391 . S
C1471 C1470 1.386 . S
C1471 C1475 1.393 . S
C1472 H1461 0.950 . S
C1472 C1470 1.391 . S
C1472 C1473 1.400 . S
C1473 C1467 1.491 . S
C1473 C1472 1.400 . S
C1473 C1474 1.398 . S
C1474 H1462 0.950 . S
C1474 C1473 1.398 . S
C1474 C1475 1.391 . S
C1475 H1463 0.950 . S
C1475 C1471 1.393 . S
C1475 C1474 1.391 . S
C405 C18 1.175 . S
C411 C98 1.182 . S
C425 C128 1.214 . S
C431 C37 1.214 . S
C445 C59 1.240 . S
C451 C81 1.225 . S
C465 C62 1.188 . S
C471 C95 1.180 . S
C485 C131 1.231 . S
C491 C15 1.237 . S
C505 C40 1.156 . S
C511 C74 1.158 . S
C525 C32 1.152 . S
C531 C76 1.147 . S
C545 C54 1.199 . S
C551 C103 1.203 . S
C565 C117 1.233 . S
C571 C7 1.236 . S
C585 C118 1.190 . S
C591 C29 1.196 . S
C605 C51 1.241 . S
C611 C87 1.236 . S
C625 C10 1.180 . S
C631 C106 1.172 . S
C645 C241 1.247 . S
C651 C147 1.241 . S
C665 C169 1.249 . S
C671 C249 1.245 . S
C685 C191 1.220 . S
C691 C213 1.224 . S
C705 C238 1.160 . S
C711 C194 1.158 . S
C725 C252 1.162 . S
C731 C150 1.162 . S
C745 C206 1.185 . S
C751 C172 1.168 . S
C765 C164 1.178 . S
C771 C208 1.175 . S
C785 C186 1.181 . S
C791 C228 1.165 . S
C805 C142 1.153 . S
C811 C260 1.151 . S
C825 C161 1.227 . S
C831 C257 1.225 . S
C845 C183 1.226 . S
C851 C219 1.233 . S
C865 C227 1.249 . S
C871 C139 1.252 . S
C885 C274 1.169 . S
C891 C362 1.172 . S
C905 C301 1.211 . S
C911 C392 1.219 . S
C925 C337 1.248 . S
C931 C329 1.252 . S
C945 C359 1.193 . S
C951 C318 1.178 . S
C965 C285 1.225 . S
C971 C395 1.228 . S
C985 C304 1.169 . S
C991 C340 1.174 . S
C1005 C296 1.170 . S
C1011 C348 1.166 . S
C1025 C316 1.203 . S
C1031 C367 1.207 . S
C1045 C279 1.227 . S
C1051 C381 1.220 . S
C1065 C382 1.193 . S
C1071 C293 1.208 . S
C1085 C345 1.251 . S
C1091 C323 1.249 . S
C1105 C272 1.175 . S
C1111 C370 1.171 . S
C1125 C8 1.910 . S
C1131 C294 1.914 . S
C1145 C43 1.925 . S
C1151 C326 1.930 . S
C1165 C65 1.945 . S
C1171 C271 1.932 . S
C1185 C52 1.937 . S
C1191 C175 1.912 . S
C1205 C21 1.948 . S
C1211 C197 1.941 . S
C1225 C30 1.929 . S
C1231 C153 1.921 . S
C1245 C235 1.926 . S
C1251 C84 1.934 . S
C1265 C109 1.976 . S
C1271 C263 1.979 . S
C1285 C125 1.965 . S
C1291 C205 1.954 . S
C1305 C373 1.931 . S
C1311 C120 1.935 . S
C1325 C73 1.937 . S
C1331 C389 1.952 . S
C1345 C96 1.920 . S
C1351 C338 1.928 . S
C1365 C184 1.967 . S
C1371 C307 1.941 . S
C1385 C140 1.935 . S
C1391 C315 1.912 . S
C1405 C282 1.906 . S
C1411 C162 1.914 . S
C1425 C360 1.917 . S
C1431 C216 1.924 . S
C1445 C384 1.892 . S
C1451 C230 1.901 . S
C1465 C250 1.949 . S
C1471 C351 1.933 . S
