# Generated by pormake.
# Topology rho, (4)-cn, num edge types: 1
# Building blocks:
#     Node 0, Type 0, BuildingBlock: GALJAG_clean_sbu_0, # of connection points: 4
#     Node 1, Type 0, BuildingBlock: GALJAG_clean_sbu_0, # of connection points: 4
#     Node 2, Type 0, BuildingBlock: GALJAG_clean_sbu_0, # of connection points: 4
#     Node 3, Type 0, BuildingBlock: GALJAG_clean_sbu_0, # of connection points: 4
#     Node 4, Type 0, BuildingBlock: GALJAG_clean_sbu_0, # of connection points: 4
#     Node 5, Type 0, BuildingBlock: GALJAG_clean_sbu_0, # of connection points: 4
#     Node 6, Type 0, BuildingBlock: GALJAG_clean_sbu_0, # of connection points: 4
#     Node 7, Type 0, BuildingBlock: GALJAG_clean_sbu_0, # of connection points: 4
#     Node 8, Type 0, BuildingBlock: GALJAG_clean_sbu_0, # of connection points: 4
#     Node 9, Type 0, BuildingBlock: GALJAG_clean_sbu_0, # of connection points: 4
#     Node 10, Type 0, BuildingBlock: GALJAG_clean_sbu_0, # of connection points: 4
#     Node 11, Type 0, BuildingBlock: GALJAG_clean_sbu_0, # of connection points: 4
#     Node 12, Type 0, BuildingBlock: GALJAG_clean_sbu_0, # of connection points: 4
#     Node 13, Type 0, BuildingBlock: GALJAG_clean_sbu_0, # of connection points: 4
#     Node 14, Type 0, BuildingBlock: GALJAG_clean_sbu_0, # of connection points: 4
#     Node 15, Type 0, BuildingBlock: GALJAG_clean_sbu_0, # of connection points: 4
#     Node 16, Type 0, BuildingBlock: GALJAG_clean_sbu_0, # of connection points: 4
#     Node 17, Type 0, BuildingBlock: GALJAG_clean_sbu_0, # of connection points: 4
#     Node 18, Type 0, BuildingBlock: GALJAG_clean_sbu_0, # of connection points: 4
#     Node 19, Type 0, BuildingBlock: GALJAG_clean_sbu_0, # of connection points: 4
#     Node 20, Type 0, BuildingBlock: GALJAG_clean_sbu_0, # of connection points: 4
#     Node 21, Type 0, BuildingBlock: GALJAG_clean_sbu_0, # of connection points: 4
#     Node 22, Type 0, BuildingBlock: GALJAG_clean_sbu_0, # of connection points: 4
#     Node 23, Type 0, BuildingBlock: GALJAG_clean_sbu_0, # of connection points: 4
#     Node 24, Type 0, BuildingBlock: GALJAG_clean_sbu_0, # of connection points: 4
#     Node 25, Type 0, BuildingBlock: GALJAG_clean_sbu_0, # of connection points: 4
#     Node 26, Type 0, BuildingBlock: GALJAG_clean_sbu_0, # of connection points: 4
#     Node 27, Type 0, BuildingBlock: GALJAG_clean_sbu_0, # of connection points: 4
#     Node 28, Type 0, BuildingBlock: GALJAG_clean_sbu_0, # of connection points: 4
#     Node 29, Type 0, BuildingBlock: GALJAG_clean_sbu_0, # of connection points: 4
#     Node 30, Type 0, BuildingBlock: GALJAG_clean_sbu_0, # of connection points: 4
#     Node 31, Type 0, BuildingBlock: GALJAG_clean_sbu_0, # of connection points: 4
#     Node 32, Type 0, BuildingBlock: GALJAG_clean_sbu_0, # of connection points: 4
#     Node 33, Type 0, BuildingBlock: GALJAG_clean_sbu_0, # of connection points: 4
#     Node 34, Type 0, BuildingBlock: GALJAG_clean_sbu_0, # of connection points: 4
#     Node 35, Type 0, BuildingBlock: GALJAG_clean_sbu_0, # of connection points: 4
#     Node 36, Type 0, BuildingBlock: GALJAG_clean_sbu_0, # of connection points: 4
#     Node 37, Type 0, BuildingBlock: GALJAG_clean_sbu_0, # of connection points: 4
#     Node 38, Type 0, BuildingBlock: GALJAG_clean_sbu_0, # of connection points: 4
#     Node 39, Type 0, BuildingBlock: GALJAG_clean_sbu_0, # of connection points: 4
#     Node 40, Type 0, BuildingBlock: GALJAG_clean_sbu_0, # of connection points: 4
#     Node 41, Type 0, BuildingBlock: GALJAG_clean_sbu_0, # of connection points: 4
#     Node 42, Type 0, BuildingBlock: GALJAG_clean_sbu_0, # of connection points: 4
#     Node 43, Type 0, BuildingBlock: GALJAG_clean_sbu_0, # of connection points: 4
#     Node 44, Type 0, BuildingBlock: GALJAG_clean_sbu_0, # of connection points: 4
#     Node 45, Type 0, BuildingBlock: GALJAG_clean_sbu_0, # of connection points: 4
#     Node 46, Type 0, BuildingBlock: GALJAG_clean_sbu_0, # of connection points: 4
#     Node 47, Type 0, BuildingBlock: GALJAG_clean_sbu_0, # of connection points: 4
#     Edge 48, Type (0, 0), BuildingBlock: OJICUG_clean_linker_0, # of connection points: 2
#     Edge 49, Type (0, 0), BuildingBlock: OJICUG_clean_linker_0, # of connection points: 2
#     Edge 50, Type (0, 0), BuildingBlock: OJICUG_clean_linker_0, # of connection points: 2
#     Edge 51, Type (0, 0), BuildingBlock: OJICUG_clean_linker_0, # of connection points: 2
#     Edge 52, Type (0, 0), BuildingBlock: OJICUG_clean_linker_0, # of connection points: 2
#     Edge 53, Type (0, 0), BuildingBlock: OJICUG_clean_linker_0, # of connection points: 2
#     Edge 54, Type (0, 0), BuildingBlock: OJICUG_clean_linker_0, # of connection points: 2
#     Edge 55, Type (0, 0), BuildingBlock: OJICUG_clean_linker_0, # of connection points: 2
#     Edge 56, Type (0, 0), BuildingBlock: OJICUG_clean_linker_0, # of connection points: 2
#     Edge 57, Type (0, 0), BuildingBlock: OJICUG_clean_linker_0, # of connection points: 2
#     Edge 58, Type (0, 0), BuildingBlock: OJICUG_clean_linker_0, # of connection points: 2
#     Edge 59, Type (0, 0), BuildingBlock: OJICUG_clean_linker_0, # of connection points: 2
#     Edge 60, Type (0, 0), BuildingBlock: OJICUG_clean_linker_0, # of connection points: 2
#     Edge 61, Type (0, 0), BuildingBlock: OJICUG_clean_linker_0, # of connection points: 2
#     Edge 62, Type (0, 0), BuildingBlock: OJICUG_clean_linker_0, # of connection points: 2
#     Edge 63, Type (0, 0), BuildingBlock: OJICUG_clean_linker_0, # of connection points: 2
#     Edge 64, Type (0, 0), BuildingBlock: OJICUG_clean_linker_0, # of connection points: 2
#     Edge 65, Type (0, 0), BuildingBlock: OJICUG_clean_linker_0, # of connection points: 2
#     Edge 66, Type (0, 0), BuildingBlock: OJICUG_clean_linker_0, # of connection points: 2
#     Edge 67, Type (0, 0), BuildingBlock: OJICUG_clean_linker_0, # of connection points: 2
#     Edge 68, Type (0, 0), BuildingBlock: OJICUG_clean_linker_0, # of connection points: 2
#     Edge 69, Type (0, 0), BuildingBlock: OJICUG_clean_linker_0, # of connection points: 2
#     Edge 70, Type (0, 0), BuildingBlock: OJICUG_clean_linker_0, # of connection points: 2
#     Edge 71, Type (0, 0), BuildingBlock: OJICUG_clean_linker_0, # of connection points: 2
#     Edge 72, Type (0, 0), BuildingBlock: OJICUG_clean_linker_0, # of connection points: 2
#     Edge 73, Type (0, 0), BuildingBlock: OJICUG_clean_linker_0, # of connection points: 2
#     Edge 74, Type (0, 0), BuildingBlock: OJICUG_clean_linker_0, # of connection points: 2
#     Edge 75, Type (0, 0), BuildingBlock: OJICUG_clean_linker_0, # of connection points: 2
#     Edge 76, Type (0, 0), BuildingBlock: OJICUG_clean_linker_0, # of connection points: 2
#     Edge 77, Type (0, 0), BuildingBlock: OJICUG_clean_linker_0, # of connection points: 2
#     Edge 78, Type (0, 0), BuildingBlock: OJICUG_clean_linker_0, # of connection points: 2
#     Edge 79, Type (0, 0), BuildingBlock: OJICUG_clean_linker_0, # of connection points: 2
#     Edge 80, Type (0, 0), BuildingBlock: OJICUG_clean_linker_0, # of connection points: 2
#     Edge 81, Type (0, 0), BuildingBlock: OJICUG_clean_linker_0, # of connection points: 2
#     Edge 82, Type (0, 0), BuildingBlock: OJICUG_clean_linker_0, # of connection points: 2
#     Edge 83, Type (0, 0), BuildingBlock: OJICUG_clean_linker_0, # of connection points: 2
#     Edge 84, Type (0, 0), BuildingBlock: OJICUG_clean_linker_0, # of connection points: 2
#     Edge 85, Type (0, 0), BuildingBlock: OJICUG_clean_linker_0, # of connection points: 2
#     Edge 86, Type (0, 0), BuildingBlock: OJICUG_clean_linker_0, # of connection points: 2
#     Edge 87, Type (0, 0), BuildingBlock: OJICUG_clean_linker_0, # of connection points: 2
#     Edge 88, Type (0, 0), BuildingBlock: OJICUG_clean_linker_0, # of connection points: 2
#     Edge 89, Type (0, 0), BuildingBlock: OJICUG_clean_linker_0, # of connection points: 2
#     Edge 90, Type (0, 0), BuildingBlock: OJICUG_clean_linker_0, # of connection points: 2
#     Edge 91, Type (0, 0), BuildingBlock: OJICUG_clean_linker_0, # of connection points: 2
#     Edge 92, Type (0, 0), BuildingBlock: OJICUG_clean_linker_0, # of connection points: 2
#     Edge 93, Type (0, 0), BuildingBlock: OJICUG_clean_linker_0, # of connection points: 2
#     Edge 94, Type (0, 0), BuildingBlock: OJICUG_clean_linker_0, # of connection points: 2
#     Edge 95, Type (0, 0), BuildingBlock: OJICUG_clean_linker_0, # of connection points: 2
#     Edge 96, Type (0, 0), BuildingBlock: OJICUG_clean_linker_0, # of connection points: 2
#     Edge 97, Type (0, 0), BuildingBlock: OJICUG_clean_linker_0, # of connection points: 2
#     Edge 98, Type (0, 0), BuildingBlock: OJICUG_clean_linker_0, # of connection points: 2
#     Edge 99, Type (0, 0), BuildingBlock: OJICUG_clean_linker_0, # of connection points: 2
#     Edge 100, Type (0, 0), BuildingBlock: OJICUG_clean_linker_0, # of connection points: 2
#     Edge 101, Type (0, 0), BuildingBlock: OJICUG_clean_linker_0, # of connection points: 2
#     Edge 102, Type (0, 0), BuildingBlock: OJICUG_clean_linker_0, # of connection points: 2
#     Edge 103, Type (0, 0), BuildingBlock: OJICUG_clean_linker_0, # of connection points: 2
#     Edge 104, Type (0, 0), BuildingBlock: OJICUG_clean_linker_0, # of connection points: 2
#     Edge 105, Type (0, 0), BuildingBlock: OJICUG_clean_linker_0, # of connection points: 2
#     Edge 106, Type (0, 0), BuildingBlock: OJICUG_clean_linker_0, # of connection points: 2
#     Edge 107, Type (0, 0), BuildingBlock: OJICUG_clean_linker_0, # of connection points: 2
#     Edge 108, Type (0, 0), BuildingBlock: OJICUG_clean_linker_0, # of connection points: 2
#     Edge 109, Type (0, 0), BuildingBlock: OJICUG_clean_linker_0, # of connection points: 2
#     Edge 110, Type (0, 0), BuildingBlock: OJICUG_clean_linker_0, # of connection points: 2
#     Edge 111, Type (0, 0), BuildingBlock: OJICUG_clean_linker_0, # of connection points: 2
#     Edge 112, Type (0, 0), BuildingBlock: OJICUG_clean_linker_0, # of connection points: 2
#     Edge 113, Type (0, 0), BuildingBlock: OJICUG_clean_linker_0, # of connection points: 2
#     Edge 114, Type (0, 0), BuildingBlock: OJICUG_clean_linker_0, # of connection points: 2
#     Edge 115, Type (0, 0), BuildingBlock: OJICUG_clean_linker_0, # of connection points: 2
#     Edge 116, Type (0, 0), BuildingBlock: OJICUG_clean_linker_0, # of connection points: 2
#     Edge 117, Type (0, 0), BuildingBlock: OJICUG_clean_linker_0, # of connection points: 2
#     Edge 118, Type (0, 0), BuildingBlock: OJICUG_clean_linker_0, # of connection points: 2
#     Edge 119, Type (0, 0), BuildingBlock: OJICUG_clean_linker_0, # of connection points: 2
#     Edge 120, Type (0, 0), BuildingBlock: OJICUG_clean_linker_0, # of connection points: 2
#     Edge 121, Type (0, 0), BuildingBlock: OJICUG_clean_linker_0, # of connection points: 2
#     Edge 122, Type (0, 0), BuildingBlock: OJICUG_clean_linker_0, # of connection points: 2
#     Edge 123, Type (0, 0), BuildingBlock: OJICUG_clean_linker_0, # of connection points: 2
#     Edge 124, Type (0, 0), BuildingBlock: OJICUG_clean_linker_0, # of connection points: 2
#     Edge 125, Type (0, 0), BuildingBlock: OJICUG_clean_linker_0, # of connection points: 2
#     Edge 126, Type (0, 0), BuildingBlock: OJICUG_clean_linker_0, # of connection points: 2
#     Edge 127, Type (0, 0), BuildingBlock: OJICUG_clean_linker_0, # of connection points: 2
#     Edge 128, Type (0, 0), BuildingBlock: OJICUG_clean_linker_0, # of connection points: 2
#     Edge 129, Type (0, 0), BuildingBlock: OJICUG_clean_linker_0, # of connection points: 2
#     Edge 130, Type (0, 0), BuildingBlock: OJICUG_clean_linker_0, # of connection points: 2
#     Edge 131, Type (0, 0), BuildingBlock: OJICUG_clean_linker_0, # of connection points: 2
#     Edge 132, Type (0, 0), BuildingBlock: OJICUG_clean_linker_0, # of connection points: 2
#     Edge 133, Type (0, 0), BuildingBlock: OJICUG_clean_linker_0, # of connection points: 2
#     Edge 134, Type (0, 0), BuildingBlock: OJICUG_clean_linker_0, # of connection points: 2
#     Edge 135, Type (0, 0), BuildingBlock: OJICUG_clean_linker_0, # of connection points: 2
#     Edge 136, Type (0, 0), BuildingBlock: OJICUG_clean_linker_0, # of connection points: 2
#     Edge 137, Type (0, 0), BuildingBlock: OJICUG_clean_linker_0, # of connection points: 2
#     Edge 138, Type (0, 0), BuildingBlock: OJICUG_clean_linker_0, # of connection points: 2
#     Edge 139, Type (0, 0), BuildingBlock: OJICUG_clean_linker_0, # of connection points: 2
#     Edge 140, Type (0, 0), BuildingBlock: OJICUG_clean_linker_0, # of connection points: 2
#     Edge 141, Type (0, 0), BuildingBlock: OJICUG_clean_linker_0, # of connection points: 2
#     Edge 142, Type (0, 0), BuildingBlock: OJICUG_clean_linker_0, # of connection points: 2
#     Edge 143, Type (0, 0), BuildingBlock: OJICUG_clean_linker_0, # of connection points: 2
# Relax obj value: 0.062
# Max RMSD: 0.056
# Mean RMSD: 0.055
data_MOF--net-rho--node1-GALJAG_clean_sbu_0--edge1-OJICUG_clean_linker_0
_symmetry_space_group_name_H-M    P1
_symmetry_Int_Tables_number       1
_symmetry_cell_setting            triclinic
loop_
_symmetry_equiv_pos_as_xyz
'x, y, z'
_cell_length_a     53.509844
_cell_length_b     53.499777
_cell_length_c     53.508752
_cell_angle_alpha  90.052921
_cell_angle_beta   90.033042
_cell_angle_gamma 90.153778
loop_
_atom_site_label
_atom_site_type_symbol
_atom_site_fract_x
_atom_site_fract_y
_atom_site_fract_z
_atom_type_partial_charge
In0 In 0.10072 0.24648 0.39237 0.0
O1 O 0.11159 0.26604 0.42905 0.0
O2 O 0.09616 0.22938 0.43068 0.0
C3 C 0.1103 0.28108 0.35719 0.0
C4 C 0.13589 0.2119 0.38294 0.0
C5 C 0.05057 0.24511 0.38816 0.0
O6 O 0.11299 0.2856 0.38023 0.0
O7 O 0.10329 0.25912 0.35209 0.0
O8 O 0.06404 0.22691 0.38146 0.0
O9 O 0.06245 0.26361 0.39673 0.0
C10 C 0.10476 0.24787 0.44255 0.0
O11 O 0.11285 0.20738 0.38018 0.0
O12 O 0.14099 0.23386 0.38995 0.0
In13 In 0.7462 0.10019 0.39245 0.0
O14 O 0.76582 0.0637 0.38138 0.0
O15 O 0.72857 0.06191 0.39518 0.0
C16 C 0.78095 0.13556 0.38371 0.0
C17 C 0.71163 0.11047 0.35745 0.0
C18 C 0.74466 0.10291 0.44272 0.0
O19 O 0.78523 0.1126 0.38012 0.0
O20 O 0.75918 0.14048 0.39126 0.0
O21 O 0.72688 0.11073 0.42929 0.0
O22 O 0.76287 0.09401 0.43074 0.0
C23 C 0.74728 0.05015 0.38706 0.0
O24 O 0.70708 0.11245 0.38055 0.0
O25 O 0.73363 0.10383 0.35221 0.0
In26 In 0.89193 0.74639 0.39198 0.0
O27 O 0.87956 0.78542 0.37979 0.0
O28 O 0.85165 0.7591 0.39055 0.0
C29 C 0.94204 0.74768 0.38734 0.0
C30 C 0.88872 0.74485 0.44219 0.0
C31 C 0.88198 0.71186 0.35677 0.0
O32 O 0.92856 0.76604 0.3811 0.0
O33 O 0.93017 0.72906 0.39563 0.0
O34 O 0.87963 0.70728 0.37983 0.0
O35 O 0.88881 0.73387 0.35167 0.0
C36 C 0.85659 0.78098 0.38322 0.0
O37 O 0.88133 0.72687 0.42869 0.0
O38 O 0.89745 0.76324 0.4303 0.0
In39 In 0.24626 0.89256 0.39214 0.0
O40 O 0.22677 0.92919 0.38134 0.0
O41 O 0.26355 0.93088 0.39639 0.0
C42 C 0.21157 0.85725 0.38293 0.0
C43 C 0.28078 0.88286 0.35693 0.0
C44 C 0.24769 0.88884 0.44232 0.0
O45 O 0.20717 0.88026 0.37988 0.0
O46 O 0.23346 0.85226 0.39012 0.0
O47 O 0.26579 0.88189 0.42883 0.0
O48 O 0.22924 0.89738 0.43045 0.0
C49 C 0.24503 0.94272 0.38797 0.0
O50 O 0.28531 0.88031 0.37998 0.0
O51 O 0.25884 0.88982 0.35184 0.0
In52 In 0.1003 0.74641 0.60048 0.0
O53 O 0.06374 0.76598 0.61137 0.0
O54 O 0.06198 0.72908 0.59658 0.0
C55 C 0.13564 0.7811 0.60963 0.0
C56 C 0.11004 0.71188 0.63565 0.0
C57 C 0.10377 0.74496 0.55027 0.0
O58 O 0.11264 0.78549 0.61275 0.0
O59 O 0.14061 0.75921 0.60239 0.0
O60 O 0.11087 0.7269 0.56373 0.0
O61 O 0.09521 0.76338 0.56219 0.0
C62 C 0.05019 0.74766 0.60496 0.0
O63 O 0.11255 0.70734 0.6126 0.0
O64 O 0.10313 0.73383 0.64076 0.0
In65 In 0.24678 0.10086 0.60074 0.0
O66 O 0.20772 0.11302 0.613 0.0
O67 O 0.23415 0.14114 0.60311 0.0
C68 C 0.2454 0.05069 0.60485 0.0
C69 C 0.24806 0.10481 0.55057 0.0
C70 C 0.28139 0.11052 0.63595 0.0
O71 O 0.22722 0.06416 0.61158 0.0
O72 O 0.2639 0.06258 0.59634 0.0
O73 O 0.28589 0.11315 0.61291 0.0
O74 O 0.25944 0.10351 0.64103 0.0
C75 C 0.21223 0.13605 0.61018 0.0
O76 O 0.26627 0.11163 0.56405 0.0
O77 O 0.22958 0.09628 0.56246 0.0
In78 In 0.8929 0.24654 0.60033 0.0
O79 O 0.88064 0.2856 0.6125 0.0
O80 O 0.89019 0.25916 0.64063 0.0
C81 C 0.88927 0.24797 0.55016 0.0
C82 C 0.94304 0.24522 0.6046 0.0
C83 C 0.85753 0.21189 0.60937 0.0
O84 O 0.88231 0.26607 0.56365 0.0
O85 O 0.89779 0.22951 0.56203 0.0
O86 O 0.8805 0.2075 0.61262 0.0
O87 O 0.85259 0.23375 0.60207 0.0
C88 C 0.88322 0.2811 0.63555 0.0
O89 O 0.92949 0.22698 0.61118 0.0
O90 O 0.93124 0.26376 0.59618 0.0
In91 In 0.74634 0.8924 0.60065 0.0
O92 O 0.72686 0.88182 0.56387 0.0
O93 O 0.76281 0.89881 0.56231 0.0
C94 C 0.7118 0.88195 0.63565 0.0
C95 C 0.781 0.85706 0.60915 0.0
C96 C 0.74759 0.94243 0.60623 0.0
O97 O 0.70718 0.88014 0.61254 0.0
O98 O 0.73387 0.8885 0.6409 0.0
O99 O 0.76615 0.92892 0.61174 0.0
O100 O 0.72879 0.93064 0.59819 0.0
C101 C 0.74456 0.88979 0.55039 0.0
O102 O 0.78536 0.88001 0.61287 0.0
O103 O 0.75919 0.85214 0.60162 0.0
In104 In 0.39209 0.10068 0.24664 0.0
O105 O 0.38 0.11299 0.28572 0.0
O106 O 0.35181 0.10343 0.25925 0.0
C107 C 0.4423 0.10424 0.24812 0.0
C108 C 0.38751 0.05055 0.24529 0.0
C109 C 0.38294 0.13597 0.21206 0.0
O110 O 0.42883 0.11135 0.26618 0.0
O111 O 0.43038 0.09563 0.22968 0.0
O112 O 0.3798 0.11296 0.2076 0.0
O113 O 0.3902 0.14098 0.23395 0.0
C114 C 0.35695 0.1104 0.28121 0.0
O115 O 0.38117 0.06406 0.22698 0.0
O116 O 0.39587 0.06238 0.2639 0.0
In117 In 0.8923 0.39223 0.24645 0.0
O118 O 0.92889 0.38132 0.2269 0.0
O119 O 0.93059 0.3961 0.2638 0.0
C120 C 0.85697 0.38316 0.2118 0.0
C121 C 0.88249 0.35703 0.28097 0.0
C122 C 0.88896 0.44245 0.2479 0.0
O123 O 0.87996 0.38002 0.20737 0.0
O124 O 0.852 0.39037 0.2337 0.0
O125 O 0.88162 0.42898 0.26588 0.0
O126 O 0.8977 0.43053 0.22956 0.0
C127 C 0.9424 0.38772 0.24523 0.0
O128 O 0.8801 0.38009 0.28555 0.0
O129 O 0.8893 0.35193 0.25897 0.0
In130 In 0.60024 0.89255 0.24655 0.0
O131 O 0.61219 0.88019 0.28565 0.0
O132 O 0.64049 0.88924 0.25917 0.0
C133 C 0.55002 0.88921 0.24795 0.0
C134 C 0.60506 0.94268 0.24549 0.0
C135 C 0.60921 0.85735 0.21177 0.0
O136 O 0.56346 0.88182 0.26592 0.0
O137 O 0.56196 0.89798 0.22964 0.0
O138 O 0.61258 0.88036 0.20748 0.0
O139 O 0.60179 0.85231 0.23357 0.0
C140 C 0.63528 0.8824 0.28113 0.0
O141 O 0.61128 0.9292 0.2271 0.0
O142 O 0.59672 0.9308 0.26406 0.0
In143 In 0.1004 0.6006 0.24632 0.0
O144 O 0.11108 0.56394 0.26587 0.0
O145 O 0.09539 0.56223 0.22937 0.0
C146 C 0.11014 0.63582 0.28091 0.0
C147 C 0.1357 0.60993 0.21176 0.0
C148 C 0.05028 0.60508 0.24498 0.0
O149 O 0.11261 0.61277 0.28544 0.0
O150 O 0.10328 0.64091 0.25893 0.0
O151 O 0.06382 0.61139 0.22666 0.0
O152 O 0.06209 0.59677 0.26358 0.0
C153 C 0.10401 0.5504 0.24781 0.0
O154 O 0.11269 0.61281 0.20726 0.0
O155 O 0.14071 0.60283 0.23368 0.0
In156 In 0.39233 0.89233 0.74612 0.0
O157 O 0.38008 0.87987 0.78511 0.0
O158 O 0.39071 0.852 0.75878 0.0
C159 C 0.38752 0.94241 0.74751 0.0
C160 C 0.44256 0.88926 0.74454 0.0
C161 C 0.35713 0.88245 0.71156 0.0
O162 O 0.3815 0.92885 0.7659 0.0
O163 O 0.39569 0.93065 0.7288 0.0
O164 O 0.38019 0.88017 0.70698 0.0
O165 O 0.35203 0.88918 0.73359 0.0
C166 C 0.38339 0.85691 0.78065 0.0
O167 O 0.42905 0.88179 0.72661 0.0
O168 O 0.43067 0.898 0.7629 0.0
In169 In 0.10049 0.39245 0.74661 0.0
O170 O 0.11133 0.42913 0.72709 0.0
O171 O 0.09604 0.43078 0.76375 0.0
C172 C 0.11002 0.35724 0.71201 0.0
C173 C 0.13559 0.38291 0.78131 0.0
C174 C 0.05031 0.38839 0.74783 0.0
O175 O 0.11292 0.38027 0.70759 0.0
O176 O 0.1028 0.35216 0.73388 0.0
O177 O 0.06376 0.38167 0.76605 0.0
O178 O 0.06223 0.39686 0.72935 0.0
C179 C 0.10455 0.44264 0.74526 0.0
O180 O 0.11254 0.38016 0.78572 0.0
O181 O 0.14074 0.39001 0.75941 0.0
In182 In 0.60094 0.10033 0.74633 0.0
O183 O 0.61198 0.06381 0.76593 0.0
O184 O 0.59793 0.06206 0.72876 0.0
C185 C 0.60956 0.13571 0.78107 0.0
C186 C 0.636 0.11072 0.71184 0.0
C187 C 0.5507 0.10313 0.74475 0.0
O188 O 0.61315 0.11276 0.7854 0.0
O189 O 0.60212 0.14061 0.75924 0.0
O190 O 0.56415 0.11089 0.72693 0.0
O191 O 0.56263 0.09422 0.76299 0.0
C192 C 0.60611 0.05028 0.74743 0.0
O193 O 0.61291 0.11256 0.7072 0.0
O194 O 0.6412 0.10416 0.73388 0.0
In195 In 0.89224 0.60073 0.7461 0.0
O196 O 0.92893 0.61166 0.76561 0.0
O197 O 0.93052 0.59643 0.72891 0.0
C198 C 0.85705 0.61008 0.78074 0.0
C199 C 0.88257 0.63586 0.71151 0.0
C200 C 0.88831 0.55053 0.74478 0.0
O201 O 0.88008 0.61303 0.78518 0.0
O202 O 0.85197 0.60291 0.75883 0.0
O203 O 0.88146 0.56398 0.72661 0.0
O204 O 0.89686 0.56246 0.76324 0.0
C205 C 0.9424 0.60496 0.74741 0.0
O206 O 0.87991 0.6128 0.70702 0.0
O207 O 0.88962 0.641 0.73344 0.0
In208 In 0.24644 0.39232 0.10098 0.0
O209 O 0.28551 0.3802 0.11326 0.0
O210 O 0.25911 0.35206 0.10331 0.0
C211 C 0.24777 0.44248 0.10524 0.0
C212 C 0.24501 0.38846 0.05079 0.0
C213 C 0.21182 0.38278 0.13615 0.0
O214 O 0.26604 0.42903 0.11175 0.0
O215 O 0.22921 0.43057 0.09685 0.0
O216 O 0.20734 0.38003 0.11311 0.0
O217 O 0.23377 0.38981 0.14126 0.0
C218 C 0.28102 0.35716 0.11042 0.0
O219 O 0.22694 0.38139 0.06429 0.0
O220 O 0.26343 0.39719 0.06266 0.0
In221 In 0.24619 0.6002 0.89241 0.0
O222 O 0.26569 0.56356 0.88162 0.0
O223 O 0.22889 0.56189 0.89659 0.0
C224 C 0.28088 0.63543 0.88292 0.0
C225 C 0.2116 0.60976 0.85722 0.0
C226 C 0.24489 0.60403 0.9426 0.0
O227 O 0.28526 0.6124 0.88005 0.0
O228 O 0.25901 0.6405 0.89012 0.0
O229 O 0.22679 0.61102 0.92913 0.0
O230 O 0.26329 0.59542 0.9307 0.0
C231 C 0.24742 0.55004 0.8882 0.0
O232 O 0.20712 0.61245 0.88026 0.0
O233 O 0.23352 0.60274 0.85213 0.0
In234 In 0.39212 0.24658 0.8927 0.0
O235 O 0.3812 0.22698 0.92929 0.0
O236 O 0.39603 0.26389 0.93099 0.0
C237 C 0.38325 0.21191 0.85732 0.0
C238 C 0.3569 0.28102 0.88299 0.0
C239 C 0.44233 0.24812 0.88939 0.0
O240 O 0.3799 0.20749 0.88029 0.0
O241 O 0.39053 0.23381 0.85239 0.0
O242 O 0.42889 0.2661 0.88209 0.0
O243 O 0.43038 0.22974 0.89809 0.0
C244 C 0.38763 0.24531 0.94281 0.0
O245 O 0.37995 0.28564 0.8805 0.0
O246 O 0.35182 0.25901 0.88983 0.0
In247 In 0.74649 0.39241 0.8922 0.0
O248 O 0.78555 0.38022 0.88 0.0
O249 O 0.75915 0.39004 0.85192 0.0
C250 C 0.74779 0.3884 0.94237 0.0
C251 C 0.74515 0.44258 0.8882 0.0
C252 C 0.71186 0.35713 0.88265 0.0
O253 O 0.76599 0.38169 0.9289 0.0
O254 O 0.72931 0.39685 0.93048 0.0
O255 O 0.70739 0.38016 0.87994 0.0
O256 O 0.73379 0.35209 0.88968 0.0
C257 C 0.78107 0.38301 0.85697 0.0
O258 O 0.72699 0.42903 0.88137 0.0
O259 O 0.76362 0.43077 0.89676 0.0
In260 In 0.60072 0.74623 0.89199 0.0
O261 O 0.61281 0.70713 0.87978 0.0
O262 O 0.641 0.73373 0.88908 0.0
C263 C 0.55051 0.74467 0.88853 0.0
C264 C 0.60528 0.74766 0.9421 0.0
C265 C 0.60971 0.78085 0.85666 0.0
O266 O 0.56396 0.72665 0.88134 0.0
O267 O 0.56243 0.7631 0.8972 0.0
O268 O 0.613 0.78529 0.87964 0.0
O269 O 0.60241 0.75895 0.85169 0.0
C270 C 0.63587 0.71172 0.88224 0.0
O271 O 0.61166 0.76595 0.92855 0.0
O272 O 0.59689 0.72903 0.93031 0.0
In273 In 0.7462 0.60089 0.10024 0.0
O274 O 0.76572 0.61179 0.06361 0.0
O275 O 0.72908 0.59633 0.06192 0.0
C276 C 0.78085 0.61011 0.13553 0.0
C277 C 0.71173 0.63613 0.10985 0.0
C278 C 0.74476 0.55071 0.10413 0.0
O279 O 0.7853 0.61311 0.11252 0.0
O280 O 0.75891 0.603 0.14054 0.0
O281 O 0.72659 0.56417 0.11091 0.0
O282 O 0.76327 0.56262 0.09566 0.0
C283 C 0.74756 0.60493 0.05008 0.0
O284 O 0.70715 0.61309 0.1125 0.0
O285 O 0.73368 0.6412 0.10286 0.0
In286 In 0.39248 0.74666 0.09999 0.0
O287 O 0.3802 0.78568 0.11233 0.0
O288 O 0.39066 0.75941 0.14029 0.0
C289 C 0.38801 0.74785 0.04987 0.0
C290 C 0.44268 0.74524 0.10343 0.0
C291 C 0.35724 0.71206 0.10971 0.0
O292 O 0.38171 0.76621 0.06335 0.0
O293 O 0.39627 0.72927 0.06173 0.0
O294 O 0.38028 0.70759 0.11233 0.0
O295 O 0.35217 0.73399 0.10271 0.0
C296 C 0.38338 0.78126 0.13532 0.0
O297 O 0.42917 0.7272 0.11064 0.0
O298 O 0.43081 0.76363 0.09479 0.0
In299 In 0.60042 0.24644 0.10073 0.0
O300 O 0.56378 0.26598 0.11143 0.0
O301 O 0.56204 0.22948 0.09569 0.0
C302 C 0.63568 0.28105 0.11039 0.0
C303 C 0.60955 0.21187 0.13604 0.0
C304 C 0.60485 0.24509 0.05061 0.0
O305 O 0.61264 0.28555 0.11299 0.0
O306 O 0.64073 0.25909 0.10346 0.0
O307 O 0.6112 0.22679 0.06412 0.0
O308 O 0.59653 0.26368 0.06244 0.0
C309 C 0.55022 0.24792 0.10433 0.0
O310 O 0.61257 0.20738 0.11304 0.0
O311 O 0.60242 0.23377 0.14104 0.0
In312 In 0.89223 0.74636 0.60027 0.0
O313 O 0.88153 0.72685 0.56354 0.0
O314 O 0.89765 0.76321 0.56198 0.0
C315 C 0.88236 0.71185 0.63546 0.0
C316 C 0.85695 0.78099 0.60914 0.0
C317 C 0.94234 0.74765 0.60486 0.0
O318 O 0.87992 0.70726 0.61241 0.0
O319 O 0.88923 0.73386 0.64057 0.0
O320 O 0.92887 0.76599 0.6112 0.0
O321 O 0.93046 0.72905 0.5965 0.0
C322 C 0.88889 0.74483 0.55007 0.0
O323 O 0.87993 0.78541 0.61253 0.0
O324 O 0.85196 0.75911 0.6018 0.0
In325 In 0.24645 0.89263 0.60039 0.0
O326 O 0.22701 0.92927 0.61135 0.0
O327 O 0.26374 0.93095 0.59623 0.0
C328 C 0.21179 0.85732 0.60958 0.0
C329 C 0.28105 0.88285 0.63552 0.0
C330 C 0.24779 0.8889 0.5502 0.0
O331 O 0.20738 0.88033 0.61265 0.0
O332 O 0.23366 0.85233 0.60238 0.0
O333 O 0.26591 0.88195 0.56367 0.0
O334 O 0.22936 0.89745 0.5621 0.0
C335 C 0.24526 0.94279 0.60474 0.0
O336 O 0.28553 0.88037 0.61246 0.0
O337 O 0.25912 0.8898 0.64066 0.0
In338 In 0.10107 0.24654 0.60059 0.0
O339 O 0.11186 0.26608 0.56393 0.0
O340 O 0.09654 0.22937 0.56229 0.0
C341 C 0.11048 0.28115 0.63589 0.0
C342 C 0.13626 0.21202 0.6101 0.0
C343 C 0.05091 0.24517 0.60458 0.0
O344 O 0.11337 0.28564 0.61288 0.0
O345 O 0.10338 0.25921 0.6409 0.0
O346 O 0.06436 0.22697 0.61131 0.0
O347 O 0.06282 0.26367 0.5961 0.0
C348 C 0.10506 0.24787 0.55043 0.0
O349 O 0.11322 0.20749 0.61285 0.0
O350 O 0.14135 0.23395 0.60306 0.0
In351 In 0.74654 0.10028 0.6009 0.0
O352 O 0.76626 0.06383 0.61193 0.0
O353 O 0.7289 0.06198 0.59838 0.0
C354 C 0.78131 0.13569 0.60947 0.0
C355 C 0.71203 0.11071 0.6359 0.0
C356 C 0.74481 0.10288 0.55063 0.0
O357 O 0.7856 0.11276 0.61314 0.0
O358 O 0.75951 0.14057 0.60194 0.0
O359 O 0.7271 0.11076 0.56411 0.0
O360 O 0.76304 0.09395 0.56256 0.0
C361 C 0.74767 0.05025 0.60639 0.0
O362 O 0.70741 0.11248 0.6128 0.0
O363 O 0.73408 0.1042 0.64115 0.0
In364 In 0.89256 0.24644 0.3921 0.0
O365 O 0.88029 0.2855 0.38 0.0
O366 O 0.88964 0.25901 0.35181 0.0
C367 C 0.8891 0.24792 0.44228 0.0
C368 C 0.9427 0.24517 0.38776 0.0
C369 C 0.85715 0.21177 0.3832 0.0
O370 O 0.88207 0.266 0.42882 0.0
O371 O 0.8976 0.22947 0.43038 0.0
O372 O 0.88012 0.20737 0.37986 0.0
O373 O 0.85225 0.23365 0.39049 0.0
C374 C 0.88273 0.28096 0.35694 0.0
O375 O 0.92915 0.2269 0.38118 0.0
O376 O 0.93089 0.26371 0.39619 0.0
In377 In 0.74592 0.89229 0.39222 0.0
O378 O 0.72658 0.88169 0.42904 0.0
O379 O 0.76257 0.89863 0.43051 0.0
C380 C 0.71134 0.88202 0.35715 0.0
C381 C 0.78056 0.85697 0.38354 0.0
C382 C 0.74714 0.94233 0.38693 0.0
O383 O 0.70675 0.88003 0.38024 0.0
O384 O 0.7334 0.88863 0.35196 0.0
O385 O 0.76565 0.92883 0.38121 0.0
O386 O 0.72841 0.93052 0.39503 0.0
C387 C 0.74436 0.88964 0.44248 0.0
O388 O 0.78491 0.87992 0.37992 0.0
O389 O 0.75876 0.85202 0.39108 0.0
In390 In 0.1 0.74645 0.39216 0.0
O391 O 0.11225 0.70737 0.38007 0.0
O392 O 0.10297 0.73385 0.35188 0.0
C393 C 0.10355 0.74498 0.44237 0.0
C394 C 0.04989 0.74771 0.38753 0.0
C395 C 0.13534 0.78112 0.38304 0.0
O396 O 0.11062 0.72693 0.42886 0.0
O397 O 0.09496 0.76341 0.4305 0.0
O398 O 0.11234 0.78553 0.37993 0.0
O399 O 0.14031 0.75925 0.39027 0.0
C400 C 0.10985 0.71189 0.357 0.0
O401 O 0.06345 0.76605 0.38125 0.0
O402 O 0.06166 0.72911 0.39586 0.0
In403 In 0.24643 0.10077 0.39252 0.0
O404 O 0.26604 0.11158 0.42919 0.0
O405 O 0.22935 0.09624 0.43084 0.0
C406 C 0.28098 0.11039 0.3573 0.0
C407 C 0.21185 0.13593 0.38309 0.0
C408 C 0.24506 0.05061 0.38833 0.0
O409 O 0.2855 0.11312 0.38034 0.0
O410 O 0.25904 0.10331 0.35223 0.0
O411 O 0.22685 0.06408 0.38167 0.0
O412 O 0.26358 0.0625 0.39683 0.0
C413 C 0.24787 0.10478 0.44269 0.0
O414 O 0.20734 0.11288 0.38031 0.0
O415 O 0.23379 0.14104 0.39013 0.0
In416 In 0.60071 0.89234 0.74606 0.0
O417 O 0.61301 0.87997 0.78507 0.0
O418 O 0.60199 0.85206 0.75886 0.0
C419 C 0.60596 0.94243 0.74729 0.0
C420 C 0.55046 0.88931 0.7445 0.0
C421 C 0.63574 0.88206 0.71155 0.0
O422 O 0.61178 0.9289 0.76577 0.0
O423 O 0.59779 0.93062 0.72858 0.0
O424 O 0.61264 0.88006 0.70693 0.0
O425 O 0.64096 0.88874 0.73357 0.0
C426 C 0.60948 0.857 0.78068 0.0
O427 O 0.56389 0.88181 0.72658 0.0
O428 O 0.56242 0.89808 0.76284 0.0
In429 In 0.10043 0.60072 0.74633 0.0
O430 O 0.11267 0.61284 0.70723 0.0
O431 O 0.10313 0.641 0.73367 0.0
C432 C 0.10434 0.55054 0.74503 0.0
C433 C 0.05028 0.60484 0.74756 0.0
C434 C 0.13563 0.61015 0.78102 0.0
O435 O 0.11124 0.56401 0.72688 0.0
O436 O 0.09573 0.56243 0.76345 0.0
O437 O 0.1126 0.61291 0.78547 0.0
O438 O 0.14071 0.60315 0.75908 0.0
C439 C 0.11008 0.63589 0.71173 0.0
O440 O 0.06378 0.61165 0.76576 0.0
O441 O 0.06213 0.59623 0.72912 0.0
In442 In 0.39255 0.10035 0.74656 0.0
O443 O 0.42932 0.11095 0.72711 0.0
O444 O 0.43087 0.09453 0.76327 0.0
C445 C 0.35743 0.11037 0.71204 0.0
C446 C 0.38375 0.1357 0.78124 0.0
C447 C 0.38753 0.05026 0.74771 0.0
O448 O 0.3805 0.11269 0.70749 0.0
O449 O 0.35228 0.10353 0.73401 0.0
O450 O 0.38164 0.06376 0.7662 0.0
O451 O 0.39565 0.0621 0.72902 0.0
C452 C 0.44279 0.10333 0.74495 0.0
O453 O 0.38025 0.11273 0.78558 0.0
O454 O 0.39124 0.14064 0.75944 0.0
In455 In 0.89229 0.39247 0.74627 0.0
O456 O 0.88147 0.42909 0.72673 0.0
O457 O 0.89693 0.43082 0.76334 0.0
C458 C 0.88282 0.35719 0.71166 0.0
C459 C 0.85707 0.38302 0.78088 0.0
C460 C 0.94244 0.38847 0.74768 0.0
O461 O 0.8801 0.38021 0.70716 0.0
O462 O 0.88979 0.35215 0.73361 0.0
O463 O 0.92892 0.3817 0.76584 0.0
O464 O 0.93061 0.39698 0.72918 0.0
C465 C 0.88835 0.44263 0.74487 0.0
O466 O 0.8801 0.38027 0.78536 0.0
O467 O 0.852 0.39003 0.75894 0.0
In468 In 0.60039 0.10067 0.24687 0.0
O469 O 0.56368 0.11137 0.26631 0.0
O470 O 0.56207 0.09543 0.22991 0.0
C471 C 0.63553 0.11067 0.28146 0.0
C472 C 0.60952 0.13591 0.2122 0.0
C473 C 0.60499 0.05055 0.24561 0.0
O474 O 0.61246 0.1129 0.28602 0.0
O475 O 0.64067 0.10391 0.25946 0.0
O476 O 0.61135 0.06408 0.2273 0.0
O477 O 0.59658 0.06237 0.26417 0.0
C478 C 0.55019 0.10414 0.24828 0.0
O479 O 0.6126 0.11291 0.20779 0.0
O480 O 0.60232 0.14095 0.23408 0.0
In481 In 0.89231 0.60059 0.24619 0.0
O482 O 0.92894 0.61142 0.22658 0.0
O483 O 0.93058 0.59709 0.26362 0.0
C484 C 0.85703 0.60966 0.21154 0.0
C485 C 0.88237 0.63575 0.28073 0.0
C486 C 0.88889 0.55036 0.24771 0.0
O487 O 0.88003 0.6129 0.20716 0.0
O488 O 0.85203 0.6023 0.23338 0.0
O489 O 0.88163 0.56386 0.26569 0.0
O490 O 0.89757 0.56226 0.22931 0.0
C491 C 0.94243 0.60528 0.24498 0.0
O492 O 0.87997 0.61268 0.28526 0.0
O493 O 0.88931 0.64089 0.25878 0.0
In494 In 0.39192 0.89257 0.24632 0.0
O495 O 0.38102 0.92916 0.22678 0.0
O496 O 0.39574 0.93085 0.26369 0.0
C497 C 0.38296 0.85726 0.21159 0.0
C498 C 0.35674 0.8827 0.28084 0.0
C499 C 0.44212 0.88926 0.24786 0.0
O500 O 0.37974 0.88025 0.20721 0.0
O501 O 0.39017 0.85228 0.23347 0.0
O502 O 0.42862 0.88187 0.26579 0.0
O503 O 0.43025 0.89804 0.22952 0.0
C504 C 0.38739 0.94268 0.24513 0.0
O505 O 0.37979 0.88031 0.2854 0.0
O506 O 0.35162 0.88952 0.25886 0.0
In507 In 0.10039 0.39226 0.24661 0.0
O508 O 0.1127 0.38019 0.28569 0.0
O509 O 0.10305 0.352 0.25925 0.0
C510 C 0.10407 0.44248 0.24795 0.0
C511 C 0.05025 0.38777 0.24531 0.0
C512 C 0.13565 0.38293 0.21206 0.0
O513 O 0.11107 0.42906 0.26608 0.0
O514 O 0.09551 0.43052 0.22951 0.0
O515 O 0.11263 0.37993 0.20758 0.0
O516 O 0.14068 0.39015 0.23395 0.0
C517 C 0.11007 0.35713 0.28118 0.0
O518 O 0.06375 0.38135 0.22701 0.0
O519 O 0.06211 0.39617 0.26389 0.0
In520 In 0.74643 0.60066 0.89204 0.0
O521 O 0.70736 0.61273 0.87973 0.0
O522 O 0.73379 0.64093 0.88947 0.0
C523 C 0.74512 0.55048 0.8881 0.0
C524 C 0.7477 0.60479 0.9422 0.0
C525 C 0.78105 0.61008 0.85682 0.0
O526 O 0.72694 0.5639 0.88126 0.0
O527 O 0.76359 0.56243 0.89664 0.0
O528 O 0.78553 0.61297 0.87985 0.0
O529 O 0.75912 0.60296 0.85176 0.0
C530 C 0.71186 0.63579 0.88242 0.0
O531 O 0.76588 0.61165 0.92874 0.0
O532 O 0.72926 0.59615 0.9303 0.0
In533 In 0.74628 0.39264 0.10041 0.0
O534 O 0.72667 0.42927 0.11103 0.0
O535 O 0.76339 0.43099 0.09587 0.0
C536 C 0.71172 0.35733 0.11006 0.0
C537 C 0.78088 0.38341 0.13569 0.0
C538 C 0.74765 0.38847 0.05025 0.0
O539 O 0.70724 0.38036 0.11276 0.0
O540 O 0.73364 0.3523 0.10298 0.0
O541 O 0.76586 0.38187 0.06377 0.0
O542 O 0.72912 0.39688 0.06209 0.0
C543 C 0.74486 0.44282 0.10428 0.0
O544 O 0.78533 0.38042 0.11267 0.0
O545 O 0.759 0.39056 0.14071 0.0
In546 In 0.60078 0.74675 0.10006 0.0
O547 O 0.61175 0.7663 0.06345 0.0
O548 O 0.59694 0.72938 0.0618 0.0
C549 C 0.60972 0.78138 0.13547 0.0
C550 C 0.6359 0.71223 0.10988 0.0
C551 C 0.55057 0.74524 0.10338 0.0
O552 O 0.61301 0.78584 0.1125 0.0
O553 O 0.60246 0.75946 0.14038 0.0
O554 O 0.56401 0.72724 0.11066 0.0
O555 O 0.56252 0.76362 0.0947 0.0
C556 C 0.60535 0.74794 0.04996 0.0
O557 O 0.61284 0.70768 0.11233 0.0
O558 O 0.64106 0.73421 0.103 0.0
In559 In 0.24648 0.60049 0.1007 0.0
O560 O 0.20739 0.61266 0.11281 0.0
O561 O 0.23383 0.60314 0.14098 0.0
C562 C 0.24503 0.60411 0.0505 0.0
C563 C 0.24779 0.55036 0.1051 0.0
C564 C 0.28112 0.63584 0.11 0.0
O565 O 0.22698 0.61119 0.06399 0.0
O566 O 0.26344 0.5955 0.06238 0.0
O567 O 0.28557 0.61283 0.11292 0.0
O568 O 0.25921 0.64082 0.10288 0.0
C569 C 0.21188 0.61005 0.13586 0.0
O570 O 0.26607 0.56393 0.11158 0.0
O571 O 0.22923 0.56214 0.09667 0.0
In572 In 0.39213 0.24666 0.10078 0.0
O573 O 0.38121 0.22705 0.06416 0.0
O574 O 0.39614 0.26392 0.06251 0.0
C575 C 0.38289 0.21206 0.13606 0.0
C576 C 0.35699 0.28119 0.11046 0.0
C577 C 0.44233 0.24806 0.10436 0.0
O578 O 0.37979 0.2076 0.11305 0.0
O579 O 0.39014 0.23396 0.14108 0.0
O580 O 0.42892 0.26615 0.11146 0.0
O581 O 0.43037 0.22964 0.09574 0.0
C582 C 0.3877 0.24534 0.05066 0.0
O583 O 0.38004 0.28574 0.11307 0.0
O584 O 0.35187 0.25922 0.10349 0.0
In585 In 0.2462 0.39202 0.8927 0.0
O586 O 0.2268 0.38111 0.92942 0.0
O587 O 0.26327 0.39698 0.931 0.0
C588 C 0.21159 0.38245 0.85747 0.0
C589 C 0.28082 0.35688 0.88325 0.0
C590 C 0.24748 0.44216 0.88846 0.0
O591 O 0.20707 0.37976 0.8805 0.0
O592 O 0.23356 0.38943 0.85242 0.0
O593 O 0.26572 0.42871 0.88186 0.0
O594 O 0.22897 0.43026 0.89694 0.0
C595 C 0.24489 0.38825 0.94289 0.0
O596 O 0.28528 0.37992 0.88046 0.0
O597 O 0.2589 0.35175 0.89033 0.0
In598 In 0.60042 0.24644 0.89263 0.0
O599 O 0.61266 0.20741 0.88024 0.0
O600 O 0.60196 0.23364 0.85234 0.0
C601 C 0.60498 0.24514 0.94275 0.0
C602 C 0.55022 0.24799 0.8893 0.0
C603 C 0.63568 0.28098 0.88281 0.0
O604 O 0.6112 0.22679 0.92922 0.0
O605 O 0.59677 0.26377 0.93093 0.0
O606 O 0.61264 0.28551 0.88034 0.0
O607 O 0.64075 0.25902 0.88973 0.0
C608 C 0.6093 0.2118 0.85727 0.0
O609 O 0.56376 0.26598 0.88205 0.0
O610 O 0.56206 0.22958 0.89794 0.0
In611 In 0.39242 0.74614 0.8919 0.0
O612 O 0.3802 0.78515 0.87958 0.0
O613 O 0.39058 0.75884 0.85159 0.0
C614 C 0.38803 0.74758 0.94202 0.0
C615 C 0.44262 0.74466 0.8884 0.0
C616 C 0.3571 0.71155 0.88234 0.0
O617 O 0.38169 0.76586 0.92848 0.0
O618 O 0.39631 0.72895 0.93022 0.0
O619 O 0.38012 0.70701 0.87972 0.0
O620 O 0.35209 0.73354 0.88923 0.0
C621 C 0.38335 0.78072 0.85659 0.0
O622 O 0.42908 0.72661 0.88122 0.0
O623 O 0.43077 0.76307 0.89705 0.0
C624 C 0.11768 0.34395 0.3255 0.0
C625 C 0.11304 0.33761 0.30043 0.0
H626 H 0.12057 0.3309 0.36328 0.0
C627 C 0.10954 0.31237 0.29404 0.0
H628 H 0.12047 0.36326 0.33095 0.0
C629 C 0.1096 0.29395 0.31245 0.0
C630 C 0.11316 0.30035 0.33766 0.0
H631 H 0.10604 0.30689 0.27485 0.0
H632 H 0.10614 0.27475 0.30698 0.0
C633 C 0.11774 0.32545 0.34399 0.0
C634 C 0.69876 0.11075 0.31269 0.0
C635 C 0.69235 0.11361 0.33797 0.0
H636 H 0.6858 0.1078 0.27501 0.0
C637 C 0.66722 0.11766 0.34439 0.0
H638 H 0.71798 0.10773 0.30715 0.0
C639 C 0.6487 0.11771 0.3259 0.0
C640 C 0.65505 0.1137 0.30073 0.0
H641 H 0.66176 0.11995 0.36374 0.0
H642 H 0.62937 0.12004 0.3314 0.0
C643 C 0.68031 0.11079 0.29427 0.0
C644 C 0.87475 0.66745 0.34356 0.0
C645 C 0.87904 0.69258 0.33723 0.0
H646 H 0.87231 0.6296 0.33052 0.0
C647 C 0.88233 0.69899 0.312 0.0
H648 H 0.87212 0.66198 0.36287 0.0
C649 C 0.88244 0.68054 0.29357 0.0
C650 C 0.87927 0.65528 0.29997 0.0
H651 H 0.88556 0.71822 0.30652 0.0
H652 H 0.88575 0.68603 0.27437 0.0
C653 C 0.87486 0.64893 0.32506 0.0
C654 C 0.31199 0.88312 0.29372 0.0
C655 C 0.33721 0.87976 0.30011 0.0
H656 H 0.27439 0.88653 0.30669 0.0
C657 C 0.34356 0.87536 0.3252 0.0
H658 H 0.3065 0.88644 0.27452 0.0
C659 C 0.32509 0.87541 0.34371 0.0
C660 C 0.3 0.87987 0.33739 0.0
H661 H 0.36287 0.87268 0.33065 0.0
H662 H 0.33056 0.87276 0.36302 0.0
C663 C 0.29358 0.88318 0.31216 0.0
C664 C 0.10958 0.68064 0.69884 0.0
C665 C 0.113 0.65541 0.69246 0.0
H666 H 0.10619 0.71824 0.68588 0.0
C667 C 0.11749 0.64907 0.66737 0.0
H668 H 0.1062 0.68613 0.71804 0.0
C669 C 0.11748 0.66755 0.64887 0.0
C670 C 0.11298 0.69264 0.65519 0.0
H671 H 0.12021 0.62976 0.66193 0.0
H672 H 0.1202 0.66209 0.62956 0.0
C673 C 0.10958 0.69905 0.68041 0.0
C674 C 0.32577 0.11787 0.64918 0.0
C675 C 0.30066 0.11345 0.6555 0.0
H676 H 0.36359 0.12049 0.66225 0.0
C677 C 0.29424 0.11012 0.68072 0.0
H678 H 0.33124 0.12054 0.62987 0.0
C679 C 0.31267 0.1101 0.69916 0.0
C680 C 0.33791 0.1134 0.69278 0.0
H681 H 0.27503 0.1068 0.68618 0.0
H682 H 0.30717 0.10675 0.71835 0.0
C683 C 0.34427 0.11784 0.66769 0.0
C684 C 0.88373 0.29399 0.68031 0.0
C685 C 0.88024 0.30035 0.65509 0.0
H686 H 0.88707 0.30699 0.71794 0.0
C687 C 0.87557 0.3254 0.64878 0.0
H688 H 0.88725 0.27483 0.68577 0.0
C689 C 0.87546 0.3439 0.6673 0.0
C690 C 0.88002 0.33762 0.69238 0.0
H691 H 0.87278 0.33081 0.62949 0.0
H692 H 0.8726 0.36318 0.66186 0.0
C693 C 0.88362 0.31243 0.69875 0.0
C694 C 0.66733 0.87497 0.64866 0.0
C695 C 0.69252 0.87881 0.65511 0.0
H696 H 0.62946 0.87286 0.66159 0.0
C697 C 0.69897 0.8815 0.68041 0.0
H698 H 0.66183 0.8728 0.62929 0.0
C699 C 0.68053 0.88154 0.69881 0.0
C700 C 0.65523 0.87888 0.69231 0.0
H701 H 0.71824 0.88435 0.68597 0.0
H702 H 0.68606 0.88442 0.71808 0.0
C703 C 0.64882 0.875 0.66712 0.0
C704 C 0.31221 0.10978 0.2941 0.0
C705 C 0.33743 0.11333 0.30047 0.0
H706 H 0.27461 0.10627 0.30709 0.0
C707 C 0.34378 0.11796 0.32554 0.0
H708 H 0.30672 0.10629 0.27492 0.0
C709 C 0.32531 0.11795 0.34405 0.0
C710 C 0.30022 0.11331 0.33775 0.0
H711 H 0.36309 0.12079 0.33097 0.0
H712 H 0.33077 0.12078 0.36334 0.0
C713 C 0.2938 0.10977 0.31254 0.0
C714 C 0.88296 0.29382 0.31219 0.0
C715 C 0.87971 0.30021 0.33743 0.0
H716 H 0.88617 0.30678 0.27456 0.0
C717 C 0.87528 0.3253 0.3438 0.0
H718 H 0.88629 0.27463 0.30668 0.0
C719 C 0.87521 0.3438 0.32532 0.0
C720 C 0.87957 0.33748 0.30021 0.0
H721 H 0.87267 0.33075 0.36313 0.0
H722 H 0.87256 0.36311 0.33081 0.0
C723 C 0.88289 0.31225 0.29377 0.0
C724 C 0.66688 0.87503 0.34403 0.0
C725 C 0.69205 0.87898 0.33765 0.0
H726 H 0.62901 0.87288 0.33102 0.0
C727 C 0.6985 0.88189 0.31238 0.0
H728 H 0.66138 0.8727 0.36337 0.0
C729 C 0.68006 0.88201 0.29395 0.0
C730 C 0.65477 0.87922 0.30039 0.0
H731 H 0.71776 0.88485 0.30686 0.0
H732 H 0.68559 0.88504 0.27472 0.0
C733 C 0.64837 0.87514 0.32553 0.0
C734 C 0.11738 0.64904 0.3253 0.0
C735 C 0.11304 0.65537 0.30019 0.0
H736 H 0.1199 0.6621 0.36313 0.0
C737 C 0.10972 0.68059 0.29379 0.0
H738 H 0.12004 0.62974 0.33076 0.0
C739 C 0.10964 0.69902 0.31223 0.0
C740 C 0.11288 0.69264 0.33747 0.0
H741 H 0.10646 0.68606 0.27458 0.0
H742 H 0.10632 0.71822 0.30675 0.0
C743 C 0.11731 0.66755 0.34381 0.0
C744 C 0.34389 0.87528 0.66716 0.0
C745 C 0.33758 0.87956 0.69229 0.0
H746 H 0.33083 0.87284 0.62934 0.0
C747 C 0.31236 0.88285 0.69871 0.0
H748 H 0.3632 0.87265 0.66169 0.0
C749 C 0.29393 0.88298 0.68028 0.0
C750 C 0.30031 0.8798 0.65503 0.0
H751 H 0.3069 0.88608 0.71794 0.0
H752 H 0.27473 0.88628 0.68578 0.0
C753 C 0.32539 0.87539 0.64866 0.0
C754 C 0.11791 0.34399 0.66774 0.0
C755 C 0.11298 0.33769 0.69276 0.0
H756 H 0.1211 0.33091 0.62998 0.0
C757 C 0.10925 0.31249 0.69907 0.0
H758 H 0.12089 0.36328 0.66236 0.0
C759 C 0.10938 0.29405 0.68063 0.0
C760 C 0.11324 0.30042 0.65547 0.0
H761 H 0.10553 0.30703 0.71821 0.0
H762 H 0.10575 0.27488 0.68604 0.0
C763 C 0.11803 0.32549 0.64923 0.0
C764 C 0.66759 0.11764 0.64892 0.0
C765 C 0.69276 0.11389 0.65537 0.0
H766 H 0.62973 0.11972 0.66186 0.0
C767 C 0.69922 0.11132 0.68067 0.0
H768 H 0.66209 0.11971 0.62955 0.0
C769 C 0.68079 0.11132 0.69908 0.0
C770 C 0.6555 0.11389 0.69258 0.0
H771 H 0.71849 0.10854 0.68623 0.0
H772 H 0.68632 0.10854 0.71836 0.0
C773 C 0.64909 0.11764 0.6674 0.0
C774 C 0.88288 0.69903 0.68022 0.0
C775 C 0.87944 0.6926 0.655 0.0
H776 H 0.88638 0.68612 0.71784 0.0
C777 C 0.87496 0.66749 0.64868 0.0
H778 H 0.88626 0.71825 0.68569 0.0
C779 C 0.87503 0.649 0.66717 0.0
C780 C 0.87958 0.65537 0.69226 0.0
H781 H 0.87221 0.66201 0.62938 0.0
H782 H 0.87232 0.62967 0.66173 0.0
C783 C 0.88296 0.68062 0.69865 0.0
C784 C 0.32533 0.34399 0.118 0.0
C785 C 0.30026 0.33765 0.11331 0.0
H786 H 0.3631 0.33097 0.12091 0.0
C787 C 0.29386 0.31243 0.1097 0.0
H788 H 0.33079 0.36329 0.12088 0.0
C789 C 0.31226 0.29402 0.10973 0.0
C790 C 0.33747 0.30043 0.11335 0.0
H791 H 0.27468 0.30694 0.10616 0.0
H792 H 0.30678 0.27483 0.1062 0.0
C793 C 0.34381 0.32551 0.11802 0.0
C794 C 0.34372 0.66718 0.87498 0.0
C795 C 0.3375 0.69227 0.87959 0.0
H796 H 0.33056 0.62937 0.87229 0.0
C797 C 0.31233 0.69864 0.88331 0.0
H798 H 0.36298 0.66175 0.87202 0.0
C799 C 0.29387 0.68019 0.88349 0.0
C800 C 0.30017 0.65498 0.87993 0.0
H801 H 0.30693 0.71783 0.8868 0.0
H802 H 0.27472 0.68565 0.8871 0.0
C803 C 0.32519 0.64867 0.87514 0.0
C804 C 0.32514 0.34378 0.87567 0.0
C805 C 0.30008 0.33739 0.88032 0.0
H806 H 0.36292 0.33082 0.87274 0.0
C807 C 0.29371 0.31215 0.88381 0.0
H808 H 0.33056 0.36309 0.87287 0.0
C809 C 0.31214 0.29377 0.88372 0.0
C810 C 0.33734 0.30022 0.88015 0.0
H811 H 0.27454 0.30663 0.88732 0.0
H812 H 0.30669 0.27456 0.88717 0.0
C813 C 0.34364 0.32532 0.87559 0.0
C814 C 0.64897 0.32532 0.87526 0.0
C815 C 0.65526 0.30025 0.87984 0.0
H816 H 0.66208 0.36313 0.87243 0.0
C817 C 0.68046 0.2939 0.8833 0.0
H818 H 0.62968 0.33074 0.8725 0.0
C819 C 0.69892 0.31235 0.88327 0.0
C820 C 0.69257 0.33755 0.87977 0.0
H821 H 0.68591 0.27472 0.88675 0.0
H822 H 0.71811 0.30691 0.88669 0.0
C823 C 0.6675 0.34384 0.87522 0.0
C824 C 0.66753 0.64891 0.87489 0.0
C825 C 0.69262 0.65529 0.87947 0.0
H826 H 0.62975 0.6619 0.87206 0.0
C827 C 0.69903 0.68053 0.8829 0.0
H828 H 0.66207 0.62959 0.87214 0.0
C829 C 0.68062 0.69893 0.88284 0.0
C830 C 0.6554 0.69249 0.87935 0.0
H831 H 0.71822 0.68604 0.88634 0.0
H832 H 0.68611 0.71814 0.88624 0.0
C833 C 0.64905 0.66738 0.87484 0.0
C834 C 0.649 0.66789 0.11735 0.0
C835 C 0.65539 0.69297 0.11281 0.0
H836 H 0.66194 0.63008 0.12011 0.0
C837 C 0.68062 0.69935 0.10933 0.0
H838 H 0.62968 0.66246 0.12013 0.0
C839 C 0.69899 0.6809 0.10931 0.0
C840 C 0.69253 0.65569 0.11277 0.0
H841 H 0.68615 0.71853 0.10589 0.0
H842 H 0.7182 0.68636 0.10587 0.0
C843 C 0.66744 0.64938 0.11734 0.0
C844 C 0.34397 0.66774 0.11743 0.0
C845 C 0.33768 0.69278 0.11266 0.0
H846 H 0.33087 0.62994 0.12046 0.0
C847 C 0.31248 0.69908 0.10902 0.0
H848 H 0.36325 0.66236 0.12034 0.0
C849 C 0.29404 0.68061 0.10908 0.0
C850 C 0.3004 0.65544 0.11279 0.0
H851 H 0.30704 0.71823 0.10542 0.0
H852 H 0.27487 0.68602 0.10552 0.0
C853 C 0.32546 0.64921 0.1175 0.0
C854 C 0.69885 0.31253 0.10953 0.0
C855 C 0.69248 0.33773 0.11305 0.0
H856 H 0.68588 0.27487 0.10616 0.0
C857 C 0.66743 0.34399 0.11774 0.0
H858 H 0.71802 0.30711 0.106 0.0
C859 C 0.64894 0.32543 0.11783 0.0
C860 C 0.65523 0.30036 0.11324 0.0
H861 H 0.662 0.36328 0.12055 0.0
H862 H 0.62965 0.33083 0.12071 0.0
C863 C 0.68043 0.29404 0.10963 0.0
C864 C 0.60784 0.8123 0.7936 0.0
C865 C 0.61219 0.83742 0.7999 0.0
H866 H 0.60386 0.77475 0.80659 0.0
C867 C 0.61759 0.84362 0.82486 0.0
H868 H 0.60373 0.80692 0.77451 0.0
C869 C 0.61766 0.8251 0.84333 0.0
C870 C 0.61234 0.80012 0.8371 0.0
H871 H 0.62105 0.86284 0.83023 0.0
H872 H 0.62116 0.83045 0.86254 0.0
C873 C 0.60792 0.79385 0.81199 0.0
C874 C 0.16731 0.61738 0.84395 0.0
C875 C 0.19236 0.61272 0.83766 0.0
H876 H 0.12955 0.62034 0.83083 0.0
C877 C 0.19875 0.60924 0.81245 0.0
H878 H 0.16187 0.62017 0.86324 0.0
C879 C 0.18035 0.60934 0.79399 0.0
C880 C 0.15515 0.61293 0.80033 0.0
H881 H 0.21792 0.60573 0.80701 0.0
H882 H 0.18582 0.60591 0.7748 0.0
C883 C 0.14883 0.61748 0.82541 0.0
C884 C 0.38538 0.18041 0.79423 0.0
C885 C 0.38101 0.15529 0.80048 0.0
H886 H 0.3893 0.21797 0.80729 0.0
C887 C 0.37552 0.14911 0.82541 0.0
H888 H 0.38956 0.18578 0.77517 0.0
C889 C 0.37538 0.16764 0.8439 0.0
C890 C 0.38071 0.19262 0.83773 0.0
H891 H 0.37205 0.12989 0.83074 0.0
H892 H 0.37181 0.1623 0.86309 0.0
C893 C 0.38523 0.19887 0.81265 0.0
C894 C 0.81234 0.38382 0.7938 0.0
C895 C 0.83753 0.38017 0.80015 0.0
H896 H 0.77476 0.38737 0.80679 0.0
C897 C 0.84384 0.37547 0.8252 0.0
H898 H 0.80688 0.38737 0.77463 0.0
C899 C 0.82536 0.37547 0.84371 0.0
C900 C 0.80031 0.38017 0.83742 0.0
H901 H 0.86312 0.37257 0.83062 0.0
H902 H 0.8308 0.37257 0.86299 0.0
C903 C 0.79393 0.38382 0.81223 0.0
C904 C 0.61724 0.16762 0.14939 0.0
C905 C 0.61229 0.19264 0.15562 0.0
H906 H 0.62037 0.12989 0.16253 0.0
C907 C 0.60835 0.19901 0.18077 0.0
H908 H 0.62038 0.16219 0.13014 0.0
C909 C 0.60834 0.18061 0.19922 0.0
C910 C 0.61227 0.15545 0.19292 0.0
H911 H 0.6046 0.21816 0.18618 0.0
H912 H 0.60458 0.18607 0.21835 0.0
C913 C 0.61724 0.14915 0.16791 0.0
C914 C 0.8123 0.60852 0.19863 0.0
C915 C 0.83746 0.6125 0.19231 0.0
H916 H 0.7747 0.60487 0.18564 0.0
C917 C 0.8437 0.61763 0.16732 0.0
H918 H 0.80689 0.60464 0.21775 0.0
C919 C 0.82517 0.61776 0.14884 0.0
C920 C 0.80014 0.61277 0.15509 0.0
H921 H 0.86295 0.6208 0.16193 0.0
H922 H 0.83054 0.62102 0.1296 0.0
C923 C 0.79384 0.60867 0.18023 0.0
C924 C 0.37537 0.82546 0.14873 0.0
C925 C 0.38057 0.80049 0.15492 0.0
H926 H 0.37191 0.86317 0.16194 0.0
C927 C 0.38467 0.79418 0.18005 0.0
H928 H 0.3721 0.83085 0.1295 0.0
C929 C 0.38456 0.81258 0.19853 0.0
C930 C 0.38034 0.8377 0.19227 0.0
H931 H 0.38863 0.77507 0.18542 0.0
H932 H 0.38844 0.80717 0.21764 0.0
C933 C 0.37525 0.84394 0.16728 0.0
C934 C 0.19887 0.38368 0.18087 0.0
C935 C 0.19254 0.37994 0.15567 0.0
H936 H 0.18584 0.38736 0.21843 0.0
C937 C 0.16748 0.37519 0.14933 0.0
H938 H 0.21804 0.38727 0.18635 0.0
C939 C 0.14895 0.37524 0.16779 0.0
C940 C 0.15522 0.38004 0.19285 0.0
H941 H 0.16208 0.37222 0.13004 0.0
H942 H 0.12967 0.37229 0.16233 0.0
C943 C 0.18041 0.38373 0.19926 0.0
C944 C 0.79392 0.60916 0.81208 0.0
C945 C 0.8003 0.61292 0.83727 0.0
H946 H 0.80686 0.60552 0.77449 0.0
C947 C 0.82536 0.61773 0.84355 0.0
H948 H 0.77475 0.60553 0.80664 0.0
C949 C 0.84385 0.61773 0.82505 0.0
C950 C 0.83753 0.61292 0.8 0.0
H951 H 0.8308 0.62073 0.86283 0.0
H952 H 0.86313 0.62072 0.83046 0.0
C953 C 0.81233 0.60916 0.79365 0.0
C954 C 0.37545 0.84346 0.82484 0.0
C955 C 0.38068 0.83729 0.79985 0.0
H956 H 0.37207 0.83028 0.86253 0.0
C957 C 0.38491 0.81218 0.79351 0.0
H958 H 0.37209 0.86268 0.83024 0.0
C959 C 0.38489 0.79372 0.8119 0.0
C960 C 0.38065 0.79998 0.83704 0.0
H961 H 0.38889 0.80682 0.7744 0.0
H962 H 0.38887 0.77463 0.80648 0.0
C963 C 0.37543 0.82494 0.8433 0.0
C964 C 0.19874 0.38324 0.81271 0.0
C965 C 0.19232 0.37966 0.8379 0.0
H966 H 0.18583 0.38689 0.7751 0.0
C967 C 0.16722 0.37513 0.84417 0.0
H968 H 0.21795 0.38666 0.80728 0.0
C969 C 0.14873 0.37526 0.82564 0.0
C970 C 0.15509 0.37993 0.8006 0.0
H971 H 0.16175 0.37228 0.86344 0.0
H972 H 0.12941 0.3725 0.83104 0.0
C973 C 0.18033 0.38338 0.79426 0.0
C974 C 0.6076 0.18037 0.79413 0.0
C975 C 0.61212 0.1553 0.80036 0.0
H976 H 0.60336 0.21786 0.80723 0.0
C977 C 0.61752 0.14913 0.82531 0.0
H978 H 0.60347 0.18572 0.77505 0.0
C979 C 0.61745 0.16763 0.84384 0.0
C980 C 0.61198 0.19255 0.83767 0.0
H981 H 0.6211 0.12994 0.83063 0.0
H982 H 0.62099 0.1623 0.86304 0.0
C983 C 0.60753 0.19879 0.81258 0.0
C984 C 0.81226 0.3845 0.19885 0.0
C985 C 0.8374 0.38047 0.19253 0.0
H986 H 0.77472 0.38839 0.18583 0.0
C987 C 0.84362 0.37548 0.16751 0.0
H988 H 0.80686 0.38828 0.21799 0.0
C989 C 0.82512 0.37555 0.149 0.0
C990 C 0.80013 0.3806 0.15525 0.0
H991 H 0.86286 0.37228 0.16212 0.0
H992 H 0.8305 0.37239 0.12974 0.0
C993 C 0.79383 0.38456 0.18041 0.0
C994 C 0.60782 0.81267 0.19866 0.0
C995 C 0.61201 0.83783 0.19246 0.0
H996 H 0.60402 0.77513 0.18552 0.0
C997 C 0.61733 0.84412 0.16752 0.0
H998 H 0.60378 0.80722 0.21773 0.0
C999 C 0.61747 0.82565 0.14897 0.0
C1000 C 0.6123 0.80062 0.1551 0.0
H1001 H 0.62066 0.86338 0.16223 0.0
H1002 H 0.6209 0.83106 0.12978 0.0
C1003 C 0.60796 0.79427 0.18019 0.0
C1004 C 0.18046 0.60922 0.19896 0.0
C1005 C 0.15528 0.6128 0.19254 0.0
H1006 H 0.21808 0.60576 0.18607 0.0
C1007 C 0.14902 0.61749 0.16747 0.0
H1008 H 0.18588 0.60569 0.21814 0.0
C1009 C 0.16755 0.61753 0.14901 0.0
C1010 C 0.1926 0.61289 0.15537 0.0
H1011 H 0.12975 0.62035 0.162 0.0
H1012 H 0.16216 0.62041 0.12972 0.0
C1013 C 0.19892 0.60927 0.18057 0.0
C1014 C 0.37508 0.16777 0.14934 0.0
C1015 C 0.38012 0.1928 0.15561 0.0
H1016 H 0.37189 0.13001 0.16241 0.0
C1017 C 0.38416 0.19913 0.18077 0.0
H1018 H 0.37187 0.16238 0.13008 0.0
C1019 C 0.38418 0.1807 0.19917 0.0
C1020 C 0.38016 0.15553 0.19283 0.0
H1021 H 0.38799 0.21827 0.1862 0.0
H1022 H 0.38801 0.18612 0.21831 0.0
C1023 C 0.37509 0.14927 0.16782 0.0
C1024 C 0.81231 0.79398 0.60718 0.0
C1025 C 0.8374 0.80024 0.61175 0.0
H1026 H 0.77485 0.80703 0.60294 0.0
C1027 C 0.84363 0.82518 0.61726 0.0
H1028 H 0.80692 0.7749 0.60297 0.0
C1029 C 0.82516 0.84367 0.61726 0.0
C1030 C 0.80022 0.83749 0.61173 0.0
H1031 H 0.86283 0.83052 0.62089 0.0
H1032 H 0.83053 0.86288 0.62088 0.0
C1033 C 0.79393 0.8124 0.60716 0.0
C1034 C 0.81246 0.19872 0.38516 0.0
C1035 C 0.83753 0.19248 0.38065 0.0
H1036 H 0.77496 0.18563 0.38949 0.0
C1037 C 0.84367 0.16751 0.37533 0.0
H1038 H 0.80714 0.21782 0.38923 0.0
C1039 C 0.82514 0.14897 0.37548 0.0
C1040 C 0.80023 0.15515 0.38096 0.0
H1041 H 0.86285 0.16217 0.37177 0.0
H1042 H 0.83044 0.12976 0.37201 0.0
C1043 C 0.79402 0.18026 0.38532 0.0
C1044 C 0.82472 0.84363 0.37533 0.0
C1045 C 0.79979 0.83742 0.38087 0.0
H1046 H 0.86239 0.83053 0.37161 0.0
C1047 C 0.79354 0.81231 0.38537 0.0
H1048 H 0.83005 0.86284 0.37176 0.0
C1049 C 0.81194 0.79391 0.38527 0.0
C1050 C 0.83702 0.8002 0.38068 0.0
H1051 H 0.77448 0.80692 0.3896 0.0
H1052 H 0.80658 0.77483 0.38943 0.0
C1053 C 0.8432 0.82516 0.37524 0.0
C1054 C 0.14872 0.8254 0.37523 0.0
C1055 C 0.15493 0.80039 0.38026 0.0
H1056 H 0.16191 0.86316 0.37202 0.0
C1057 C 0.18008 0.79409 0.38422 0.0
H1058 H 0.12948 0.83077 0.37207 0.0
C1059 C 0.19854 0.81253 0.38418 0.0
C1060 C 0.19227 0.83768 0.38018 0.0
H1061 H 0.18546 0.77496 0.38803 0.0
H1062 H 0.21767 0.80712 0.38797 0.0
C1063 C 0.16726 0.84391 0.3752 0.0
C1064 C 0.19901 0.18066 0.38378 0.0
C1065 C 0.19261 0.15544 0.3802 0.0
H1066 H 0.1861 0.21826 0.38724 0.0
C1067 C 0.16754 0.14909 0.37552 0.0
H1068 H 0.2182 0.18615 0.38731 0.0
C1069 C 0.14907 0.16757 0.37548 0.0
C1070 C 0.15541 0.19266 0.38012 0.0
H1071 H 0.16208 0.12979 0.37266 0.0
H1072 H 0.12977 0.16211 0.37259 0.0
C1073 C 0.18061 0.19907 0.38374 0.0
C1074 C 0.16793 0.14924 0.61771 0.0
C1075 C 0.19299 0.15558 0.61303 0.0
H1076 H 0.13016 0.16227 0.62057 0.0
C1077 C 0.19939 0.18079 0.60939 0.0
H1078 H 0.16248 0.12995 0.62061 0.0
C1079 C 0.18099 0.19919 0.60937 0.0
C1080 C 0.15578 0.19279 0.61299 0.0
H1081 H 0.21857 0.18626 0.60586 0.0
H1082 H 0.18646 0.21837 0.60583 0.0
C1083 C 0.14945 0.16772 0.61769 0.0
C1084 C 0.82554 0.14916 0.61749 0.0
C1085 C 0.8006 0.1553 0.61206 0.0
H1086 H 0.86326 0.16237 0.62101 0.0
C1087 C 0.79438 0.18038 0.60758 0.0
H1088 H 0.83085 0.12996 0.62104 0.0
C1089 C 0.81283 0.19884 0.60758 0.0
C1090 C 0.83792 0.19262 0.61204 0.0
H1091 H 0.77531 0.18572 0.60345 0.0
H1092 H 0.80749 0.21791 0.60343 0.0
C1093 C 0.84407 0.16768 0.61748 0.0
C1094 C 0.16751 0.84394 0.61737 0.0
C1095 C 0.19251 0.83773 0.61236 0.0
H1096 H 0.12975 0.83077 0.62056 0.0
C1097 C 0.19881 0.81257 0.60838 0.0
H1098 H 0.16214 0.86319 0.62054 0.0
C1099 C 0.18036 0.79411 0.6084 0.0
C1100 C 0.15522 0.80039 0.61239 0.0
H1101 H 0.21793 0.80718 0.60458 0.0
H1102 H 0.18576 0.77498 0.6046 0.0
C1103 C 0.14899 0.82541 0.61739 0.0
C1104 C 0.09851 0.22674 0.48347 0.0
C1105 C 0.10602 0.24805 0.47012 0.0
H1106 H 0.09244 0.21003 0.51915 0.0
C1107 C 0.11404 0.26931 0.48338 0.0
H1108 H 0.0923 0.21003 0.47381 0.0
C1109 C 0.11412 0.2693 0.50959 0.0
C1110 C 0.10619 0.24805 0.52285 0.0
H1111 H 0.11994 0.28599 0.47355 0.0
H1112 H 0.12008 0.28599 0.51943 0.0
C1113 C 0.09859 0.22674 0.50949 0.0
C1114 C 0.72386 0.11301 0.50981 0.0
C1115 C 0.74447 0.10356 0.52304 0.0
H1116 H 0.70769 0.12027 0.47379 0.0
C1117 C 0.76504 0.09432 0.50966 0.0
H1118 H 0.70776 0.12025 0.51966 0.0
C1119 C 0.765 0.09433 0.48363 0.0
C1120 C 0.7444 0.10359 0.47031 0.0
H1121 H 0.78121 0.08691 0.5193 0.0
H1122 H 0.78115 0.08693 0.47395 0.0
C1123 C 0.72383 0.11302 0.4836 0.0
C1124 C 0.89632 0.76558 0.48313 0.0
C1125 C 0.88785 0.74461 0.46977 0.0
H1126 H 0.90319 0.78202 0.51883 0.0
C1127 C 0.87912 0.72365 0.48301 0.0
H1128 H 0.90312 0.78204 0.47349 0.0
C1129 C 0.87916 0.72364 0.50921 0.0
C1130 C 0.88793 0.74459 0.52249 0.0
H1131 H 0.87249 0.70723 0.47316 0.0
H1132 H 0.87256 0.70721 0.51904 0.0
C1133 C 0.89636 0.76557 0.50916 0.0
C1134 C 0.26903 0.87954 0.48315 0.0
C1135 C 0.24791 0.88777 0.4699 0.0
H1136 H 0.28562 0.87339 0.51918 0.0
C1137 C 0.22676 0.89564 0.48326 0.0
H1138 H 0.28558 0.87336 0.47331 0.0
C1139 C 0.22679 0.89566 0.50928 0.0
C1140 C 0.24795 0.8878 0.52262 0.0
H1141 H 0.21017 0.90203 0.47361 0.0
H1142 H 0.21021 0.90206 0.51895 0.0
C1143 C 0.26905 0.87956 0.50935 0.0
C1144 C 0.11305 0.72369 0.50938 0.0
C1145 C 0.10473 0.74475 0.52268 0.0
H1146 H 0.11925 0.70717 0.47332 0.0
C1147 C 0.09668 0.76586 0.50937 0.0
H1148 H 0.11936 0.70717 0.51919 0.0
C1149 C 0.09662 0.76586 0.48334 0.0
C1150 C 0.10461 0.74476 0.46995 0.0
H1151 H 0.09021 0.78241 0.51905 0.0
H1152 H 0.0901 0.78241 0.47371 0.0
C1153 C 0.11299 0.72369 0.48318 0.0
C1154 C 0.26939 0.11392 0.48351 0.0
C1155 C 0.2481 0.10597 0.47027 0.0
H1156 H 0.28614 0.11985 0.51954 0.0
C1157 C 0.22681 0.09845 0.48364 0.0
H1158 H 0.28606 0.11983 0.47366 0.0
C1159 C 0.22685 0.09846 0.50967 0.0
C1160 C 0.24819 0.10599 0.523 0.0
H1161 H 0.21008 0.09229 0.474 0.0
H1162 H 0.21016 0.09231 0.51934 0.0
C1163 C 0.26943 0.11393 0.50972 0.0
C1164 C 0.87993 0.26927 0.50934 0.0
C1165 C 0.88821 0.24817 0.52258 0.0
H1166 H 0.87367 0.28581 0.47332 0.0
C1167 C 0.89609 0.22702 0.50921 0.0
H1168 H 0.87374 0.28583 0.51919 0.0
C1169 C 0.89605 0.22701 0.48319 0.0
C1170 C 0.88812 0.24815 0.46986 0.0
H1171 H 0.90252 0.21044 0.51886 0.0
H1172 H 0.90245 0.21043 0.47352 0.0
C1173 C 0.87989 0.26926 0.48314 0.0
C1174 C 0.7647 0.89842 0.48339 0.0
C1175 C 0.74411 0.88901 0.47007 0.0
H1176 H 0.78092 0.90599 0.51905 0.0
C1177 C 0.72355 0.87945 0.48336 0.0
H1178 H 0.78083 0.90591 0.4737 0.0
C1179 C 0.7236 0.87949 0.50957 0.0
C1180 C 0.7442 0.88909 0.5228 0.0
H1181 H 0.70742 0.87208 0.47355 0.0
H1182 H 0.70751 0.87215 0.51943 0.0
C1183 C 0.76475 0.89846 0.50942 0.0
C1184 C 0.48322 0.09711 0.2273 0.0
C1185 C 0.46988 0.10524 0.24837 0.0
H1186 H 0.5189 0.09049 0.21081 0.0
C1187 C 0.48316 0.11367 0.26944 0.0
H1188 H 0.47355 0.09055 0.21074 0.0
C1189 C 0.50936 0.11364 0.26948 0.0
C1190 C 0.52261 0.10517 0.24845 0.0
H1191 H 0.47333 0.12004 0.28594 0.0
H1192 H 0.5192 0.11999 0.28601 0.0
C1193 C 0.50925 0.09708 0.22734 0.0
C1194 C 0.89644 0.50939 0.22707 0.0
C1195 C 0.88796 0.52277 0.24798 0.0
H1196 H 0.90331 0.47368 0.21072 0.0
C1197 C 0.87921 0.50953 0.26892 0.0
H1198 H 0.90327 0.51903 0.21063 0.0
C1199 C 0.87923 0.48333 0.26897 0.0
C1200 C 0.88801 0.47003 0.24808 0.0
H1201 H 0.87256 0.5194 0.2853 0.0
H1202 H 0.8726 0.47351 0.28538 0.0
C1203 C 0.89646 0.48336 0.22712 0.0
C1204 C 0.50913 0.87947 0.26903 0.0
C1205 C 0.52243 0.8883 0.24815 0.0
H1206 H 0.47307 0.8728 0.28537 0.0
C1207 C 0.50911 0.89684 0.22724 0.0
H1208 H 0.51895 0.87277 0.2854 0.0
C1209 C 0.48309 0.89686 0.22722 0.0
C1210 C 0.4697 0.88833 0.24812 0.0
H1211 H 0.5188 0.90373 0.21085 0.0
H1212 H 0.47346 0.90376 0.21081 0.0
C1213 C 0.48293 0.87949 0.26901 0.0
C1214 C 0.11337 0.50962 0.26918 0.0
C1215 C 0.10507 0.52281 0.24805 0.0
H1216 H 0.11962 0.47363 0.28579 0.0
C1217 C 0.09715 0.50939 0.22691 0.0
H1218 H 0.11959 0.51952 0.28573 0.0
C1219 C 0.09717 0.48335 0.22695 0.0
C1220 C 0.10511 0.47007 0.24812 0.0
H1221 H 0.0907 0.51899 0.21031 0.0
H1222 H 0.09073 0.47364 0.21037 0.0
C1223 C 0.11339 0.48342 0.26921 0.0
C1224 C 0.48337 0.87956 0.72339 0.0
C1225 C 0.47014 0.88843 0.74427 0.0
H1226 H 0.51938 0.87283 0.70702 0.0
C1227 C 0.48353 0.89706 0.76515 0.0
H1228 H 0.4735 0.87281 0.70703 0.0
C1229 C 0.50956 0.89707 0.76514 0.0
C1230 C 0.52287 0.88847 0.74425 0.0
H1231 H 0.4739 0.90398 0.78155 0.0
H1232 H 0.51925 0.90401 0.78153 0.0
C1233 C 0.50957 0.87958 0.72338 0.0
C1234 C 0.09799 0.48361 0.76624 0.0
C1235 C 0.10569 0.47022 0.74503 0.0
H1236 H 0.09163 0.51932 0.78281 0.0
C1237 C 0.11373 0.48346 0.72381 0.0
H1238 H 0.09174 0.47397 0.78292 0.0
C1239 C 0.11367 0.50967 0.72375 0.0
C1240 C 0.10555 0.52296 0.74491 0.0
H1241 H 0.11977 0.4736 0.70721 0.0
H1242 H 0.11967 0.51949 0.7071 0.0
C1243 C 0.09792 0.50964 0.76618 0.0
C1244 C 0.48374 0.09502 0.76531 0.0
C1245 C 0.47038 0.10406 0.74463 0.0
H1246 H 0.51944 0.0877 0.78148 0.0
C1247 C 0.48364 0.11326 0.7239 0.0
H1248 H 0.47409 0.08781 0.78158 0.0
C1249 C 0.50984 0.1132 0.72384 0.0
C1250 C 0.52311 0.10393 0.74451 0.0
H1251 H 0.47379 0.12034 0.7077 0.0
H1252 H 0.51967 0.12024 0.70761 0.0
C1253 C 0.50977 0.09495 0.76525 0.0
C1254 C 0.89488 0.50966 0.76587 0.0
C1255 C 0.88717 0.52295 0.74462 0.0
H1256 H 0.90118 0.47401 0.78254 0.0
C1257 C 0.87906 0.50962 0.72344 0.0
H1258 H 0.90117 0.51936 0.78251 0.0
C1259 C 0.87907 0.48341 0.72347 0.0
C1260 C 0.88719 0.47021 0.74466 0.0
H1261 H 0.87301 0.51942 0.70681 0.0
H1262 H 0.87302 0.47353 0.70685 0.0
C1263 C 0.89489 0.48362 0.76589 0.0
C1264 C 0.22648 0.50937 0.09942 0.0
C1265 C 0.24794 0.52279 0.10645 0.0
H1266 H 0.20965 0.47362 0.09365 0.0
C1267 C 0.26934 0.5096 0.114 0.0
H1268 H 0.20966 0.51897 0.09359 0.0
C1269 C 0.26934 0.48339 0.11404 0.0
C1270 C 0.24794 0.47006 0.10652 0.0
H1271 H 0.28614 0.51949 0.11954 0.0
H1272 H 0.28614 0.4736 0.1196 0.0
C1273 C 0.22648 0.48334 0.09945 0.0
C1274 C 0.2689 0.50925 0.87926 0.0
C1275 C 0.24758 0.52247 0.88699 0.0
H1276 H 0.28565 0.47324 0.8736 0.0
C1277 C 0.22623 0.50907 0.89434 0.0
H1278 H 0.28562 0.51912 0.87348 0.0
C1279 C 0.22625 0.48304 0.89442 0.0
C1280 C 0.24762 0.46974 0.88714 0.0
H1281 H 0.20948 0.5187 0.90033 0.0
H1282 H 0.20951 0.47334 0.90045 0.0
C1283 C 0.26891 0.48304 0.87933 0.0
C1284 C 0.48319 0.22734 0.8968 0.0
C1285 C 0.46991 0.24833 0.88844 0.0
H1286 H 0.51882 0.21084 0.90354 0.0
C1287 C 0.48324 0.26927 0.87976 0.0
H1288 H 0.47348 0.2109 0.90358 0.0
C1289 C 0.50944 0.26923 0.87973 0.0
C1290 C 0.52263 0.24826 0.88839 0.0
H1291 H 0.47345 0.2857 0.8732 0.0
H1292 H 0.51934 0.28564 0.87316 0.0
C1293 C 0.50922 0.22731 0.89678 0.0
C1294 C 0.72376 0.50955 0.87889 0.0
C1295 C 0.74495 0.5229 0.88695 0.0
H1296 H 0.70713 0.47345 0.87291 0.0
C1297 C 0.76621 0.50962 0.89462 0.0
H1298 H 0.70711 0.51933 0.87287 0.0
C1299 C 0.76622 0.48359 0.89465 0.0
C1300 C 0.74497 0.47016 0.887 0.0
H1301 H 0.78287 0.51934 0.90088 0.0
H1302 H 0.78288 0.47399 0.90092 0.0
C1303 C 0.72377 0.48335 0.87892 0.0
C1304 C 0.4836 0.7655 0.89562 0.0
C1305 C 0.4702 0.74443 0.88743 0.0
H1306 H 0.51932 0.78203 0.90229 0.0
C1307 C 0.48341 0.72339 0.87895 0.0
H1308 H 0.47398 0.78203 0.90222 0.0
C1309 C 0.50962 0.72339 0.87899 0.0
C1310 C 0.52293 0.74443 0.88751 0.0
H1311 H 0.47354 0.70689 0.87253 0.0
H1312 H 0.51942 0.7069 0.8726 0.0
C1313 C 0.50962 0.7655 0.89566 0.0
C1314 C 0.72333 0.50981 0.11322 0.0
C1315 C 0.74459 0.52313 0.10532 0.0
H1316 H 0.70668 0.47372 0.11914 0.0
C1317 C 0.76591 0.50984 0.09787 0.0
H1318 H 0.70664 0.51961 0.11907 0.0
C1319 C 0.76594 0.48381 0.09791 0.0
C1320 C 0.74464 0.4704 0.1054 0.0
H1321 H 0.78261 0.51954 0.09175 0.0
H1322 H 0.78266 0.4742 0.09182 0.0
C1323 C 0.72336 0.48361 0.11326 0.0
C1324 C 0.50968 0.72405 0.11299 0.0
C1325 C 0.52299 0.74501 0.10433 0.0
H1326 H 0.47361 0.70762 0.11957 0.0
C1327 C 0.50969 0.76599 0.09599 0.0
H1328 H 0.51948 0.70762 0.11953 0.0
C1329 C 0.48366 0.766 0.09601 0.0
C1330 C 0.47026 0.74501 0.10437 0.0
H1331 H 0.51938 0.78245 0.08923 0.0
H1332 H 0.47404 0.78246 0.08927 0.0
C1333 C 0.48348 0.72405 0.11301 0.0
C1334 C 0.5092 0.22707 0.09733 0.0
C1335 C 0.52265 0.24817 0.10537 0.0
H1336 H 0.47345 0.21055 0.09081 0.0
C1337 C 0.50947 0.26927 0.11377 0.0
H1338 H 0.51879 0.21049 0.0908 0.0
C1339 C 0.48327 0.2693 0.11378 0.0
C1340 C 0.46992 0.24824 0.10539 0.0
H1341 H 0.51938 0.28579 0.12008 0.0
H1342 H 0.4735 0.28585 0.12009 0.0
C1343 C 0.48318 0.2271 0.09734 0.0
C1344 C 0.61418 0.76944 0.00909 0.0
C1345 C 0.60673 0.74803 0.02239 0.0
H1346 H 0.61963 0.78618 0.97302 0.0
C1347 C 0.59975 0.72649 0.00908 0.0
H1348 H 0.61967 0.7863 0.0189 0.0
C1349 C 0.59973 0.72642 0.98305 0.0
C1350 C 0.60669 0.74789 0.96967 0.0
H1351 H 0.594 0.70966 0.01876 0.0
H1352 H 0.59397 0.70954 0.97343 0.0
C1353 C 0.61416 0.76937 0.98289 0.0
C1354 C 0.22372 0.61356 0.98346 0.0
C1355 C 0.24473 0.60512 0.97018 0.0
H1356 H 0.20726 0.61992 0.01952 0.0
C1357 C 0.26582 0.59705 0.98352 0.0
H1358 H 0.20721 0.6199 0.97364 0.0
C1359 C 0.26585 0.59706 0.00955 0.0
C1360 C 0.2448 0.60515 0.02292 0.0
H1361 H 0.28233 0.59047 0.97385 0.0
H1362 H 0.28238 0.5905 0.01919 0.0
C1363 C 0.22375 0.61358 0.00967 0.0
C1364 C 0.39341 0.26664 0.00976 0.0
C1365 C 0.38633 0.24518 0.0231 0.0
H1366 H 0.39923 0.28346 0.97409 0.0
C1367 C 0.37875 0.22377 0.00982 0.0
H1368 H 0.39927 0.28347 0.01943 0.0
C1369 C 0.37873 0.22376 0.98362 0.0
C1370 C 0.38629 0.24516 0.97037 0.0
H1371 H 0.37318 0.20696 0.01965 0.0
H1372 H 0.37315 0.20695 0.97377 0.0
C1373 C 0.39339 0.26663 0.98374 0.0
C1374 C 0.76912 0.37935 0.00945 0.0
C1375 C 0.74786 0.38725 0.02267 0.0
H1376 H 0.78584 0.37347 0.97343 0.0
C1377 C 0.72658 0.3947 0.00929 0.0
H1378 H 0.78579 0.3735 0.01932 0.0
C1379 C 0.72661 0.39468 0.98326 0.0
C1380 C 0.74793 0.38722 0.96994 0.0
H1381 H 0.70987 0.40082 0.01891 0.0
H1382 H 0.70993 0.40079 0.97357 0.0
C1383 C 0.76916 0.37934 0.98324 0.0
C1384 C 0.61365 0.22352 0.98356 0.0
C1385 C 0.60632 0.24497 0.97032 0.0
H1386 H 0.61898 0.20667 0.01959 0.0
C1387 C 0.59945 0.26647 0.98369 0.0
H1388 H 0.61905 0.20669 0.97371 0.0
C1389 C 0.5994 0.26645 0.00971 0.0
C1390 C 0.60623 0.24494 0.02304 0.0
H1391 H 0.59379 0.28333 0.97404 0.0
H1392 H 0.59372 0.28331 0.01938 0.0
C1393 C 0.61361 0.22351 0.00977 0.0
C1394 C 0.76895 0.61427 0.00928 0.0
C1395 C 0.74777 0.60608 0.02251 0.0
H1396 H 0.78561 0.62035 0.97327 0.0
C1397 C 0.72657 0.59827 0.00912 0.0
H1398 H 0.78555 0.62041 0.01915 0.0
C1399 C 0.7266 0.59823 0.98309 0.0
C1400 C 0.74784 0.60601 0.96978 0.0
H1401 H 0.70992 0.5919 0.01875 0.0
H1402 H 0.70998 0.59184 0.97341 0.0
C1403 C 0.76899 0.61424 0.98308 0.0
C1404 C 0.3793 0.76928 0.9828 0.0
C1405 C 0.38669 0.74781 0.96958 0.0
H1406 H 0.37386 0.78619 0.01881 0.0
C1407 C 0.39358 0.72635 0.98297 0.0
H1408 H 0.37388 0.78608 0.97293 0.0
C1409 C 0.39357 0.72642 0.00899 0.0
C1410 C 0.38667 0.74794 0.0223 0.0
H1411 H 0.39928 0.70948 0.97334 0.0
H1412 H 0.39927 0.70959 0.01868 0.0
C1413 C 0.37929 0.76934 0.00901 0.0
C1414 C 0.26587 0.39542 0.00984 0.0
C1415 C 0.24479 0.38732 0.02321 0.0
H1416 H 0.28237 0.40196 0.97414 0.0
C1417 C 0.22372 0.3788 0.00997 0.0
H1418 H 0.28242 0.40205 0.01948 0.0
C1419 C 0.22369 0.37874 0.98376 0.0
C1420 C 0.24473 0.38721 0.97048 0.0
H1421 H 0.20721 0.37244 0.01982 0.0
H1422 H 0.20716 0.37235 0.97394 0.0
C1423 C 0.26584 0.39537 0.98381 0.0
C1424 C 0.00935 0.59858 0.72636 0.0
C1425 C 0.02271 0.6061 0.74768 0.0
H1426 H 0.97366 0.59245 0.70961 0.0
C1427 C 0.00946 0.6141 0.7689 0.0
H1428 H 0.019 0.59239 0.70968 0.0
C1429 C 0.98326 0.61414 0.76886 0.0
C1430 C 0.96998 0.60618 0.7476 0.0
H1431 H 0.0193 0.62001 0.78559 0.0
H1432 H 0.97343 0.62007 0.78552 0.0
C1433 C 0.98332 0.59862 0.72632 0.0
C1434 C 0.37911 0.98319 0.76933 0.0
C1435 C 0.38601 0.96997 0.7477 0.0
H1436 H 0.37411 0.01921 0.78637 0.0
C1437 C 0.39235 0.98336 0.72605 0.0
H1438 H 0.37412 0.97332 0.78628 0.0
C1439 C 0.39234 0.00939 0.7261 0.0
C1440 C 0.386 0.0227 0.7478 0.0
H1441 H 0.39765 0.97373 0.70905 0.0
H1442 H 0.39763 0.01907 0.70913 0.0
C1443 C 0.3791 0.0094 0.76938 0.0
C1444 C 0.00943 0.37925 0.76916 0.0
C1445 C 0.02274 0.38722 0.74796 0.0
H1446 H 0.97336 0.37334 0.78577 0.0
C1447 C 0.00943 0.3948 0.72667 0.0
H1448 H 0.01923 0.3733 0.78583 0.0
C1449 C 0.9834 0.39482 0.72663 0.0
C1450 C 0.97001 0.38727 0.74789 0.0
H1451 H 0.01912 0.40098 0.71 0.0
H1452 H 0.97378 0.40102 0.70994 0.0
C1453 C 0.98323 0.37927 0.76913 0.0
C1454 C 0.60145 0.98334 0.72574 0.0
C1455 C 0.60762 0.96999 0.74745 0.0
H1456 H 0.59631 0.01903 0.70876 0.0
C1457 C 0.61443 0.98325 0.76911 0.0
H1458 H 0.59624 0.97368 0.70871 0.0
C1459 C 0.61447 0.00946 0.76914 0.0
C1460 C 0.6077 0.02272 0.74751 0.0
H1461 H 0.61929 0.97341 0.78611 0.0
H1462 H 0.61936 0.0193 0.78616 0.0
C1463 C 0.60149 0.00937 0.72577 0.0
C1464 C 0.98332 0.39336 0.2666 0.0
C1465 C 0.96996 0.38636 0.2451 0.0
H1466 H 0.01902 0.39916 0.28346 0.0
C1467 C 0.98321 0.37888 0.2237 0.0
H1468 H 0.97368 0.39914 0.28343 0.0
C1469 C 0.00941 0.37889 0.22372 0.0
C1470 C 0.02269 0.38639 0.24514 0.0
H1471 H 0.97336 0.37337 0.20687 0.0
H1472 H 0.01924 0.37339 0.20691 0.0
C1473 C 0.00935 0.39338 0.26662 0.0
C1474 C 0.61389 0.00975 0.22402 0.0
C1475 C 0.60642 0.02299 0.24545 0.0
H1476 H 0.61938 0.97372 0.20716 0.0
C1477 C 0.59949 0.00961 0.26693 0.0
H1478 H 0.61934 0.01961 0.20721 0.0
C1479 C 0.59952 0.98358 0.26691 0.0
C1480 C 0.60648 0.97025 0.2454 0.0
H1481 H 0.59373 0.01925 0.28377 0.0
H1482 H 0.59378 0.97389 0.28373 0.0
C1483 C 0.61392 0.98354 0.224 0.0
C1484 C 0.00936 0.59985 0.26639 0.0
C1485 C 0.02272 0.60652 0.24482 0.0
H1486 H 0.97366 0.59439 0.2833 0.0
C1487 C 0.00948 0.61377 0.22333 0.0
H1488 H 0.019 0.59428 0.28329 0.0
C1489 C 0.98328 0.61383 0.22333 0.0
C1490 C 0.97 0.60665 0.24484 0.0
H1491 H 0.01934 0.61901 0.20644 0.0
H1492 H 0.97346 0.61911 0.20645 0.0
C1493 C 0.98333 0.59992 0.2664 0.0
C1494 C 0.39302 0.00962 0.26658 0.0
C1495 C 0.3861 0.02298 0.2451 0.0
H1496 H 0.39872 0.97393 0.28337 0.0
C1497 C 0.37864 0.00971 0.22365 0.0
H1498 H 0.39878 0.01928 0.28344 0.0
C1499 C 0.3786 0.98351 0.22361 0.0
C1500 C 0.38603 0.97024 0.24502 0.0
H1501 H 0.37319 0.01956 0.20684 0.0
H1502 H 0.37313 0.97367 0.20677 0.0
C1503 C 0.39299 0.98359 0.26654 0.0
C1504 C 0.76956 0.00948 0.61439 0.0
C1505 C 0.74777 0.02271 0.60811 0.0
H1506 H 0.78666 0.97346 0.61878 0.0
C1507 C 0.72589 0.00932 0.60246 0.0
H1508 H 0.78669 0.01936 0.61885 0.0
C1509 C 0.72587 0.98329 0.60242 0.0
C1510 C 0.74774 0.96998 0.60803 0.0
H1511 H 0.70876 0.01895 0.59768 0.0
H1512 H 0.70872 0.9736 0.59761 0.0
C1513 C 0.76954 0.98327 0.61435 0.0
C1514 C 0.76904 0.00938 0.37873 0.0
C1515 C 0.74736 0.0226 0.38536 0.0
H1516 H 0.78604 0.97335 0.37397 0.0
C1517 C 0.72557 0.00922 0.39132 0.0
H1518 H 0.7861 0.01924 0.37403 0.0
C1519 C 0.72553 0.98319 0.39129 0.0
C1520 C 0.74729 0.96988 0.38529 0.0
H1521 H 0.70852 0.01886 0.39639 0.0
H1522 H 0.70846 0.97351 0.39634 0.0
C1523 C 0.76901 0.98317 0.3787 0.0
C1524 C 0.98292 0.7693 0.37865 0.0
C1525 C 0.9696 0.74784 0.38597 0.0
H1526 H 0.01901 0.78616 0.37335 0.0
C1527 C 0.98289 0.72631 0.39283 0.0
H1528 H 0.97313 0.78614 0.37326 0.0
C1529 C 0.00892 0.72632 0.39288 0.0
C1530 C 0.02233 0.74785 0.38608 0.0
H1531 H 0.97319 0.70944 0.39847 0.0
H1532 H 0.01852 0.70945 0.39856 0.0
C1533 C 0.00913 0.7693 0.3787 0.0
C1534 C 0.22359 0.00973 0.37911 0.0
C1535 C 0.24488 0.02303 0.38701 0.0
H1536 H 0.20688 0.97366 0.37316 0.0
C1537 C 0.26622 0.00971 0.39437 0.0
H1538 H 0.20689 0.01955 0.37333 0.0
C1539 C 0.26622 0.98368 0.39426 0.0
C1540 C 0.24487 0.9703 0.38681 0.0
H1541 H 0.28295 0.0194 0.40048 0.0
H1542 H 0.28294 0.97405 0.40031 0.0
C1543 C 0.22359 0.98353 0.37901 0.0
C1544 C 0.00969 0.26631 0.39414 0.0
C1545 C 0.023 0.24495 0.38681 0.0
H1546 H 0.97405 0.28308 0.40005 0.0
C1547 C 0.00969 0.22367 0.3789 0.0
H1548 H 0.01938 0.28304 0.40026 0.0
C1549 C 0.98349 0.22369 0.37878 0.0
C1550 C 0.97027 0.245 0.38657 0.0
H1551 H 0.0195 0.20695 0.37313 0.0
H1552 H 0.97361 0.20698 0.37294 0.0
C1553 C 0.98367 0.26634 0.39402 0.0
C1554 C 0.26649 0.00978 0.59857 0.0
C1555 C 0.24521 0.02311 0.60606 0.0
H1556 H 0.28315 0.97412 0.5924 0.0
C1557 C 0.22394 0.00981 0.61397 0.0
H1558 H 0.28321 0.01947 0.59244 0.0
C1559 C 0.22391 0.9836 0.61395 0.0
C1560 C 0.24514 0.97037 0.60602 0.0
H1561 H 0.20727 0.01963 0.61986 0.0
H1562 H 0.20721 0.97374 0.61982 0.0
C1563 C 0.26646 0.98375 0.59855 0.0
C1564 C 0.98381 0.22376 0.61369 0.0
C1565 C 0.97061 0.24504 0.60582 0.0
H1566 H 0.0198 0.20705 0.61952 0.0
C1567 C 0.98402 0.26635 0.59836 0.0
H1568 H 0.97392 0.20708 0.61954 0.0
C1569 C 0.01005 0.26633 0.59834 0.0
C1570 C 0.02334 0.245 0.60578 0.0
H1571 H 0.97442 0.28307 0.59226 0.0
H1572 H 0.01975 0.28304 0.59223 0.0
C1573 C 0.01001 0.22375 0.61367 0.0
C1574 C 0.00922 0.72632 0.59929 0.0
C1575 C 0.02262 0.74781 0.6063 0.0
H1576 H 0.9735 0.70949 0.59347 0.0
C1577 C 0.00942 0.76923 0.61379 0.0
H1578 H 0.01883 0.70949 0.59351 0.0
C1579 C 0.98321 0.76923 0.61376 0.0
C1580 C 0.9699 0.74781 0.60626 0.0
H1581 H 0.0193 0.78605 0.6193 0.0
H1582 H 0.97342 0.78605 0.61926 0.0
C1583 C 0.9832 0.72632 0.59927 0.0
loop_
_geom_bond_atom_site_label_1
_geom_bond_atom_site_label_2
_geom_bond_distance
_geom_bond_site_symmetry_2
_ccdc_geom_bond_type
In0 O1 2.294 . S
In0 O2 2.326 . S
In0 O6 2.266 . S
In0 O7 2.326 . S
In0 O8 2.266 . S
In0 O9 2.326 . S
In0 O11 2.294 . S
In0 O12 2.326 . S
O1 In0 2.294 . S
O1 C10 1.240 . S
O2 In0 2.326 . S
O2 C10 1.252 . S
C3 O6 1.252 . S
C3 O7 1.260 . S
C4 O11 1.240 . S
C4 O12 1.252 . S
C5 O8 1.252 . S
C5 O9 1.260 . S
O6 In0 2.266 . S
O6 C3 1.252 . S
O7 In0 2.326 . S
O7 C3 1.260 . S
O8 In0 2.266 . S
O8 C5 1.252 . S
O9 In0 2.326 . S
O9 C5 1.260 . S
C10 O1 1.240 . S
C10 O2 1.252 . S
O11 In0 2.294 . S
O11 C4 1.240 . S
O12 In0 2.326 . S
O12 C4 1.252 . S
In13 O14 2.294 . S
In13 O15 2.326 . S
In13 O19 2.266 . S
In13 O20 2.326 . S
In13 O21 2.266 . S
In13 O22 2.326 . S
In13 O24 2.294 . S
In13 O25 2.326 . S
O14 In13 2.294 . S
O14 C23 1.240 . S
O15 In13 2.326 . S
O15 C23 1.252 . S
C16 O19 1.252 . S
C16 O20 1.260 . S
C17 O24 1.240 . S
C17 O25 1.252 . S
C18 O21 1.252 . S
C18 O22 1.260 . S
O19 In13 2.266 . S
O19 C16 1.252 . S
O20 In13 2.326 . S
O20 C16 1.260 . S
O21 In13 2.266 . S
O21 C18 1.252 . S
O22 In13 2.326 . S
O22 C18 1.260 . S
C23 O14 1.240 . S
C23 O15 1.252 . S
O24 In13 2.294 . S
O24 C17 1.240 . S
O25 In13 2.326 . S
O25 C17 1.252 . S
In26 O27 2.294 . S
In26 O28 2.326 . S
In26 O32 2.266 . S
In26 O33 2.326 . S
In26 O34 2.266 . S
In26 O35 2.326 . S
In26 O37 2.294 . S
In26 O38 2.326 . S
O27 In26 2.294 . S
O27 C36 1.240 . S
O28 In26 2.326 . S
O28 C36 1.252 . S
C29 O32 1.252 . S
C29 O33 1.260 . S
C30 O37 1.240 . S
C30 O38 1.252 . S
C31 O34 1.252 . S
C31 O35 1.260 . S
O32 In26 2.266 . S
O32 C29 1.252 . S
O33 In26 2.326 . S
O33 C29 1.260 . S
O34 In26 2.266 . S
O34 C31 1.252 . S
O35 In26 2.326 . S
O35 C31 1.260 . S
C36 O27 1.240 . S
C36 O28 1.252 . S
O37 In26 2.294 . S
O37 C30 1.240 . S
O38 In26 2.326 . S
O38 C30 1.252 . S
In39 O40 2.294 . S
In39 O41 2.326 . S
In39 O45 2.266 . S
In39 O46 2.326 . S
In39 O47 2.266 . S
In39 O48 2.326 . S
In39 O50 2.294 . S
In39 O51 2.326 . S
O40 In39 2.294 . S
O40 C49 1.240 . S
O41 In39 2.326 . S
O41 C49 1.252 . S
C42 O45 1.252 . S
C42 O46 1.260 . S
C43 O50 1.240 . S
C43 O51 1.252 . S
C44 O47 1.252 . S
C44 O48 1.260 . S
O45 In39 2.266 . S
O45 C42 1.252 . S
O46 In39 2.326 . S
O46 C42 1.260 . S
O47 In39 2.266 . S
O47 C44 1.252 . S
O48 In39 2.326 . S
O48 C44 1.260 . S
C49 O40 1.240 . S
C49 O41 1.252 . S
O50 In39 2.294 . S
O50 C43 1.240 . S
O51 In39 2.326 . S
O51 C43 1.252 . S
In52 O53 2.294 . S
In52 O54 2.326 . S
In52 O58 2.266 . S
In52 O59 2.326 . S
In52 O60 2.266 . S
In52 O61 2.326 . S
In52 O63 2.294 . S
In52 O64 2.326 . S
O53 In52 2.294 . S
O53 C62 1.240 . S
O54 In52 2.326 . S
O54 C62 1.252 . S
C55 O58 1.252 . S
C55 O59 1.260 . S
C56 O63 1.240 . S
C56 O64 1.252 . S
C57 O60 1.252 . S
C57 O61 1.260 . S
O58 In52 2.266 . S
O58 C55 1.252 . S
O59 In52 2.326 . S
O59 C55 1.260 . S
O60 In52 2.266 . S
O60 C57 1.252 . S
O61 In52 2.326 . S
O61 C57 1.260 . S
C62 O53 1.240 . S
C62 O54 1.252 . S
O63 In52 2.294 . S
O63 C56 1.240 . S
O64 In52 2.326 . S
O64 C56 1.252 . S
In65 O66 2.294 . S
In65 O67 2.326 . S
In65 O71 2.266 . S
In65 O72 2.326 . S
In65 O73 2.266 . S
In65 O74 2.326 . S
In65 O76 2.294 . S
In65 O77 2.326 . S
O66 In65 2.294 . S
O66 C75 1.240 . S
O67 In65 2.326 . S
O67 C75 1.252 . S
C68 O71 1.252 . S
C68 O72 1.260 . S
C69 O76 1.240 . S
C69 O77 1.252 . S
C70 O73 1.252 . S
C70 O74 1.260 . S
O71 In65 2.266 . S
O71 C68 1.252 . S
O72 In65 2.326 . S
O72 C68 1.260 . S
O73 In65 2.266 . S
O73 C70 1.252 . S
O74 In65 2.326 . S
O74 C70 1.260 . S
C75 O66 1.240 . S
C75 O67 1.252 . S
O76 In65 2.294 . S
O76 C69 1.240 . S
O77 In65 2.326 . S
O77 C69 1.252 . S
In78 O79 2.294 . S
In78 O80 2.326 . S
In78 O84 2.266 . S
In78 O85 2.326 . S
In78 O86 2.266 . S
In78 O87 2.326 . S
In78 O89 2.294 . S
In78 O90 2.326 . S
O79 In78 2.294 . S
O79 C88 1.240 . S
O80 In78 2.326 . S
O80 C88 1.252 . S
C81 O84 1.252 . S
C81 O85 1.260 . S
C82 O89 1.240 . S
C82 O90 1.252 . S
C83 O86 1.252 . S
C83 O87 1.260 . S
O84 In78 2.266 . S
O84 C81 1.252 . S
O85 In78 2.326 . S
O85 C81 1.260 . S
O86 In78 2.266 . S
O86 C83 1.252 . S
O87 In78 2.326 . S
O87 C83 1.260 . S
C88 O79 1.240 . S
C88 O80 1.252 . S
O89 In78 2.294 . S
O89 C82 1.240 . S
O90 In78 2.326 . S
O90 C82 1.252 . S
In91 O92 2.294 . S
In91 O93 2.326 . S
In91 O97 2.266 . S
In91 O98 2.326 . S
In91 O99 2.266 . S
In91 O100 2.326 . S
In91 O102 2.294 . S
In91 O103 2.326 . S
O92 In91 2.294 . S
O92 C101 1.240 . S
O93 In91 2.326 . S
O93 C101 1.252 . S
C94 O97 1.252 . S
C94 O98 1.260 . S
C95 O102 1.240 . S
C95 O103 1.252 . S
C96 O99 1.252 . S
C96 O100 1.260 . S
O97 In91 2.266 . S
O97 C94 1.252 . S
O98 In91 2.326 . S
O98 C94 1.260 . S
O99 In91 2.266 . S
O99 C96 1.252 . S
O100 In91 2.326 . S
O100 C96 1.260 . S
C101 O92 1.240 . S
C101 O93 1.252 . S
O102 In91 2.294 . S
O102 C95 1.240 . S
O103 In91 2.326 . S
O103 C95 1.252 . S
In104 O105 2.294 . S
In104 O106 2.326 . S
In104 O110 2.266 . S
In104 O111 2.326 . S
In104 O112 2.266 . S
In104 O113 2.326 . S
In104 O115 2.294 . S
In104 O116 2.326 . S
O105 In104 2.294 . S
O105 C114 1.240 . S
O106 In104 2.326 . S
O106 C114 1.252 . S
C107 O110 1.252 . S
C107 O111 1.260 . S
C108 O115 1.240 . S
C108 O116 1.252 . S
C109 O112 1.252 . S
C109 O113 1.260 . S
O110 In104 2.266 . S
O110 C107 1.252 . S
O111 In104 2.326 . S
O111 C107 1.260 . S
O112 In104 2.266 . S
O112 C109 1.252 . S
O113 In104 2.326 . S
O113 C109 1.260 . S
C114 O105 1.240 . S
C114 O106 1.252 . S
O115 In104 2.294 . S
O115 C108 1.240 . S
O116 In104 2.326 . S
O116 C108 1.252 . S
In117 O118 2.294 . S
In117 O119 2.326 . S
In117 O123 2.266 . S
In117 O124 2.326 . S
In117 O125 2.266 . S
In117 O126 2.326 . S
In117 O128 2.294 . S
In117 O129 2.326 . S
O118 In117 2.294 . S
O118 C127 1.240 . S
O119 In117 2.326 . S
O119 C127 1.252 . S
C120 O123 1.252 . S
C120 O124 1.260 . S
C121 O128 1.240 . S
C121 O129 1.252 . S
C122 O125 1.252 . S
C122 O126 1.260 . S
O123 In117 2.266 . S
O123 C120 1.252 . S
O124 In117 2.326 . S
O124 C120 1.260 . S
O125 In117 2.266 . S
O125 C122 1.252 . S
O126 In117 2.326 . S
O126 C122 1.260 . S
C127 O118 1.240 . S
C127 O119 1.252 . S
O128 In117 2.294 . S
O128 C121 1.240 . S
O129 In117 2.326 . S
O129 C121 1.252 . S
In130 O131 2.294 . S
In130 O132 2.326 . S
In130 O136 2.266 . S
In130 O137 2.326 . S
In130 O138 2.266 . S
In130 O139 2.326 . S
In130 O141 2.294 . S
In130 O142 2.326 . S
O131 In130 2.294 . S
O131 C140 1.240 . S
O132 In130 2.326 . S
O132 C140 1.252 . S
C133 O136 1.252 . S
C133 O137 1.260 . S
C134 O141 1.240 . S
C134 O142 1.252 . S
C135 O138 1.252 . S
C135 O139 1.260 . S
O136 In130 2.266 . S
O136 C133 1.252 . S
O137 In130 2.326 . S
O137 C133 1.260 . S
O138 In130 2.266 . S
O138 C135 1.252 . S
O139 In130 2.326 . S
O139 C135 1.260 . S
C140 O131 1.240 . S
C140 O132 1.252 . S
O141 In130 2.294 . S
O141 C134 1.240 . S
O142 In130 2.326 . S
O142 C134 1.252 . S
In143 O144 2.294 . S
In143 O145 2.326 . S
In143 O149 2.266 . S
In143 O150 2.326 . S
In143 O151 2.266 . S
In143 O152 2.326 . S
In143 O154 2.294 . S
In143 O155 2.326 . S
O144 In143 2.294 . S
O144 C153 1.240 . S
O145 In143 2.326 . S
O145 C153 1.252 . S
C146 O149 1.252 . S
C146 O150 1.260 . S
C147 O154 1.240 . S
C147 O155 1.252 . S
C148 O151 1.252 . S
C148 O152 1.260 . S
O149 In143 2.266 . S
O149 C146 1.252 . S
O150 In143 2.326 . S
O150 C146 1.260 . S
O151 In143 2.266 . S
O151 C148 1.252 . S
O152 In143 2.326 . S
O152 C148 1.260 . S
C153 O144 1.240 . S
C153 O145 1.252 . S
O154 In143 2.294 . S
O154 C147 1.240 . S
O155 In143 2.326 . S
O155 C147 1.252 . S
In156 O157 2.294 . S
In156 O158 2.326 . S
In156 O162 2.266 . S
In156 O163 2.326 . S
In156 O164 2.266 . S
In156 O165 2.326 . S
In156 O167 2.294 . S
In156 O168 2.326 . S
O157 In156 2.294 . S
O157 C166 1.240 . S
O158 In156 2.326 . S
O158 C166 1.252 . S
C159 O162 1.252 . S
C159 O163 1.260 . S
C160 O167 1.240 . S
C160 O168 1.252 . S
C161 O164 1.252 . S
C161 O165 1.260 . S
O162 In156 2.266 . S
O162 C159 1.252 . S
O163 In156 2.326 . S
O163 C159 1.260 . S
O164 In156 2.266 . S
O164 C161 1.252 . S
O165 In156 2.326 . S
O165 C161 1.260 . S
C166 O157 1.240 . S
C166 O158 1.252 . S
O167 In156 2.294 . S
O167 C160 1.240 . S
O168 In156 2.326 . S
O168 C160 1.252 . S
In169 O170 2.294 . S
In169 O171 2.326 . S
In169 O175 2.266 . S
In169 O176 2.326 . S
In169 O177 2.266 . S
In169 O178 2.326 . S
In169 O180 2.294 . S
In169 O181 2.326 . S
O170 In169 2.294 . S
O170 C179 1.240 . S
O171 In169 2.326 . S
O171 C179 1.252 . S
C172 O175 1.252 . S
C172 O176 1.260 . S
C173 O180 1.240 . S
C173 O181 1.252 . S
C174 O177 1.252 . S
C174 O178 1.260 . S
O175 In169 2.266 . S
O175 C172 1.252 . S
O176 In169 2.326 . S
O176 C172 1.260 . S
O177 In169 2.266 . S
O177 C174 1.252 . S
O178 In169 2.326 . S
O178 C174 1.260 . S
C179 O170 1.240 . S
C179 O171 1.252 . S
O180 In169 2.294 . S
O180 C173 1.240 . S
O181 In169 2.326 . S
O181 C173 1.252 . S
In182 O183 2.294 . S
In182 O184 2.326 . S
In182 O188 2.266 . S
In182 O189 2.326 . S
In182 O190 2.266 . S
In182 O191 2.326 . S
In182 O193 2.294 . S
In182 O194 2.326 . S
O183 In182 2.294 . S
O183 C192 1.240 . S
O184 In182 2.326 . S
O184 C192 1.252 . S
C185 O188 1.252 . S
C185 O189 1.260 . S
C186 O193 1.240 . S
C186 O194 1.252 . S
C187 O190 1.252 . S
C187 O191 1.260 . S
O188 In182 2.266 . S
O188 C185 1.252 . S
O189 In182 2.326 . S
O189 C185 1.260 . S
O190 In182 2.266 . S
O190 C187 1.252 . S
O191 In182 2.326 . S
O191 C187 1.260 . S
C192 O183 1.240 . S
C192 O184 1.252 . S
O193 In182 2.294 . S
O193 C186 1.240 . S
O194 In182 2.326 . S
O194 C186 1.252 . S
In195 O196 2.294 . S
In195 O197 2.326 . S
In195 O201 2.266 . S
In195 O202 2.326 . S
In195 O203 2.266 . S
In195 O204 2.326 . S
In195 O206 2.294 . S
In195 O207 2.326 . S
O196 In195 2.294 . S
O196 C205 1.240 . S
O197 In195 2.326 . S
O197 C205 1.252 . S
C198 O201 1.252 . S
C198 O202 1.260 . S
C199 O206 1.240 . S
C199 O207 1.252 . S
C200 O203 1.252 . S
C200 O204 1.260 . S
O201 In195 2.266 . S
O201 C198 1.252 . S
O202 In195 2.326 . S
O202 C198 1.260 . S
O203 In195 2.266 . S
O203 C200 1.252 . S
O204 In195 2.326 . S
O204 C200 1.260 . S
C205 O196 1.240 . S
C205 O197 1.252 . S
O206 In195 2.294 . S
O206 C199 1.240 . S
O207 In195 2.326 . S
O207 C199 1.252 . S
In208 O209 2.294 . S
In208 O210 2.326 . S
In208 O214 2.266 . S
In208 O215 2.326 . S
In208 O216 2.266 . S
In208 O217 2.326 . S
In208 O219 2.294 . S
In208 O220 2.326 . S
O209 In208 2.294 . S
O209 C218 1.240 . S
O210 In208 2.326 . S
O210 C218 1.252 . S
C211 O214 1.252 . S
C211 O215 1.260 . S
C212 O219 1.240 . S
C212 O220 1.252 . S
C213 O216 1.252 . S
C213 O217 1.260 . S
O214 In208 2.266 . S
O214 C211 1.252 . S
O215 In208 2.326 . S
O215 C211 1.260 . S
O216 In208 2.266 . S
O216 C213 1.252 . S
O217 In208 2.326 . S
O217 C213 1.260 . S
C218 O209 1.240 . S
C218 O210 1.252 . S
O219 In208 2.294 . S
O219 C212 1.240 . S
O220 In208 2.326 . S
O220 C212 1.252 . S
In221 O222 2.294 . S
In221 O223 2.326 . S
In221 O227 2.266 . S
In221 O228 2.326 . S
In221 O229 2.266 . S
In221 O230 2.326 . S
In221 O232 2.294 . S
In221 O233 2.326 . S
O222 In221 2.294 . S
O222 C231 1.240 . S
O223 In221 2.326 . S
O223 C231 1.252 . S
C224 O227 1.252 . S
C224 O228 1.260 . S
C225 O232 1.240 . S
C225 O233 1.252 . S
C226 O229 1.252 . S
C226 O230 1.260 . S
O227 In221 2.266 . S
O227 C224 1.252 . S
O228 In221 2.326 . S
O228 C224 1.260 . S
O229 In221 2.266 . S
O229 C226 1.252 . S
O230 In221 2.326 . S
O230 C226 1.260 . S
C231 O222 1.240 . S
C231 O223 1.252 . S
O232 In221 2.294 . S
O232 C225 1.240 . S
O233 In221 2.326 . S
O233 C225 1.252 . S
In234 O235 2.294 . S
In234 O236 2.326 . S
In234 O240 2.266 . S
In234 O241 2.326 . S
In234 O242 2.266 . S
In234 O243 2.326 . S
In234 O245 2.294 . S
In234 O246 2.326 . S
O235 In234 2.294 . S
O235 C244 1.240 . S
O236 In234 2.326 . S
O236 C244 1.252 . S
C237 O240 1.252 . S
C237 O241 1.260 . S
C238 O245 1.240 . S
C238 O246 1.252 . S
C239 O242 1.252 . S
C239 O243 1.260 . S
O240 In234 2.266 . S
O240 C237 1.252 . S
O241 In234 2.326 . S
O241 C237 1.260 . S
O242 In234 2.266 . S
O242 C239 1.252 . S
O243 In234 2.326 . S
O243 C239 1.260 . S
C244 O235 1.240 . S
C244 O236 1.252 . S
O245 In234 2.294 . S
O245 C238 1.240 . S
O246 In234 2.326 . S
O246 C238 1.252 . S
In247 O248 2.294 . S
In247 O249 2.326 . S
In247 O253 2.266 . S
In247 O254 2.326 . S
In247 O255 2.266 . S
In247 O256 2.326 . S
In247 O258 2.294 . S
In247 O259 2.326 . S
O248 In247 2.294 . S
O248 C257 1.240 . S
O249 In247 2.326 . S
O249 C257 1.252 . S
C250 O253 1.252 . S
C250 O254 1.260 . S
C251 O258 1.240 . S
C251 O259 1.252 . S
C252 O255 1.252 . S
C252 O256 1.260 . S
O253 In247 2.266 . S
O253 C250 1.252 . S
O254 In247 2.326 . S
O254 C250 1.260 . S
O255 In247 2.266 . S
O255 C252 1.252 . S
O256 In247 2.326 . S
O256 C252 1.260 . S
C257 O248 1.240 . S
C257 O249 1.252 . S
O258 In247 2.294 . S
O258 C251 1.240 . S
O259 In247 2.326 . S
O259 C251 1.252 . S
In260 O261 2.294 . S
In260 O262 2.326 . S
In260 O266 2.266 . S
In260 O267 2.326 . S
In260 O268 2.266 . S
In260 O269 2.326 . S
In260 O271 2.294 . S
In260 O272 2.326 . S
O261 In260 2.294 . S
O261 C270 1.240 . S
O262 In260 2.326 . S
O262 C270 1.252 . S
C263 O266 1.252 . S
C263 O267 1.260 . S
C264 O271 1.240 . S
C264 O272 1.252 . S
C265 O268 1.252 . S
C265 O269 1.260 . S
O266 In260 2.266 . S
O266 C263 1.252 . S
O267 In260 2.326 . S
O267 C263 1.260 . S
O268 In260 2.266 . S
O268 C265 1.252 . S
O269 In260 2.326 . S
O269 C265 1.260 . S
C270 O261 1.240 . S
C270 O262 1.252 . S
O271 In260 2.294 . S
O271 C264 1.240 . S
O272 In260 2.326 . S
O272 C264 1.252 . S
In273 O274 2.294 . S
In273 O275 2.326 . S
In273 O279 2.266 . S
In273 O280 2.326 . S
In273 O281 2.266 . S
In273 O282 2.326 . S
In273 O284 2.294 . S
In273 O285 2.326 . S
O274 In273 2.294 . S
O274 C283 1.240 . S
O275 In273 2.326 . S
O275 C283 1.252 . S
C276 O279 1.252 . S
C276 O280 1.260 . S
C277 O284 1.240 . S
C277 O285 1.252 . S
C278 O281 1.252 . S
C278 O282 1.260 . S
O279 In273 2.266 . S
O279 C276 1.252 . S
O280 In273 2.326 . S
O280 C276 1.260 . S
O281 In273 2.266 . S
O281 C278 1.252 . S
O282 In273 2.326 . S
O282 C278 1.260 . S
C283 O274 1.240 . S
C283 O275 1.252 . S
O284 In273 2.294 . S
O284 C277 1.240 . S
O285 In273 2.326 . S
O285 C277 1.252 . S
In286 O287 2.294 . S
In286 O288 2.326 . S
In286 O292 2.266 . S
In286 O293 2.326 . S
In286 O294 2.266 . S
In286 O295 2.326 . S
In286 O297 2.294 . S
In286 O298 2.326 . S
O287 In286 2.294 . S
O287 C296 1.240 . S
O288 In286 2.326 . S
O288 C296 1.252 . S
C289 O292 1.252 . S
C289 O293 1.260 . S
C290 O297 1.240 . S
C290 O298 1.252 . S
C291 O294 1.252 . S
C291 O295 1.260 . S
O292 In286 2.266 . S
O292 C289 1.252 . S
O293 In286 2.326 . S
O293 C289 1.260 . S
O294 In286 2.266 . S
O294 C291 1.252 . S
O295 In286 2.326 . S
O295 C291 1.260 . S
C296 O287 1.240 . S
C296 O288 1.252 . S
O297 In286 2.294 . S
O297 C290 1.240 . S
O298 In286 2.326 . S
O298 C290 1.252 . S
In299 O300 2.294 . S
In299 O301 2.326 . S
In299 O305 2.266 . S
In299 O306 2.326 . S
In299 O307 2.266 . S
In299 O308 2.326 . S
In299 O310 2.294 . S
In299 O311 2.326 . S
O300 In299 2.294 . S
O300 C309 1.240 . S
O301 In299 2.326 . S
O301 C309 1.252 . S
C302 O305 1.252 . S
C302 O306 1.260 . S
C303 O310 1.240 . S
C303 O311 1.252 . S
C304 O307 1.252 . S
C304 O308 1.260 . S
O305 In299 2.266 . S
O305 C302 1.252 . S
O306 In299 2.326 . S
O306 C302 1.260 . S
O307 In299 2.266 . S
O307 C304 1.252 . S
O308 In299 2.326 . S
O308 C304 1.260 . S
C309 O300 1.240 . S
C309 O301 1.252 . S
O310 In299 2.294 . S
O310 C303 1.240 . S
O311 In299 2.326 . S
O311 C303 1.252 . S
In312 O313 2.294 . S
In312 O314 2.326 . S
In312 O318 2.266 . S
In312 O319 2.326 . S
In312 O320 2.266 . S
In312 O321 2.326 . S
In312 O323 2.294 . S
In312 O324 2.326 . S
O313 In312 2.294 . S
O313 C322 1.240 . S
O314 In312 2.326 . S
O314 C322 1.252 . S
C315 O318 1.252 . S
C315 O319 1.260 . S
C316 O323 1.240 . S
C316 O324 1.252 . S
C317 O320 1.252 . S
C317 O321 1.260 . S
O318 In312 2.266 . S
O318 C315 1.252 . S
O319 In312 2.326 . S
O319 C315 1.260 . S
O320 In312 2.266 . S
O320 C317 1.252 . S
O321 In312 2.326 . S
O321 C317 1.260 . S
C322 O313 1.240 . S
C322 O314 1.252 . S
O323 In312 2.294 . S
O323 C316 1.240 . S
O324 In312 2.326 . S
O324 C316 1.252 . S
In325 O326 2.294 . S
In325 O327 2.326 . S
In325 O331 2.266 . S
In325 O332 2.326 . S
In325 O333 2.266 . S
In325 O334 2.326 . S
In325 O336 2.294 . S
In325 O337 2.326 . S
O326 In325 2.294 . S
O326 C335 1.240 . S
O327 In325 2.326 . S
O327 C335 1.252 . S
C328 O331 1.252 . S
C328 O332 1.260 . S
C329 O336 1.240 . S
C329 O337 1.252 . S
C330 O333 1.252 . S
C330 O334 1.260 . S
O331 In325 2.266 . S
O331 C328 1.252 . S
O332 In325 2.326 . S
O332 C328 1.260 . S
O333 In325 2.266 . S
O333 C330 1.252 . S
O334 In325 2.326 . S
O334 C330 1.260 . S
C335 O326 1.240 . S
C335 O327 1.252 . S
O336 In325 2.294 . S
O336 C329 1.240 . S
O337 In325 2.326 . S
O337 C329 1.252 . S
In338 O339 2.294 . S
In338 O340 2.326 . S
In338 O344 2.266 . S
In338 O345 2.326 . S
In338 O346 2.266 . S
In338 O347 2.326 . S
In338 O349 2.294 . S
In338 O350 2.326 . S
O339 In338 2.294 . S
O339 C348 1.240 . S
O340 In338 2.326 . S
O340 C348 1.252 . S
C341 O344 1.252 . S
C341 O345 1.260 . S
C342 O349 1.240 . S
C342 O350 1.252 . S
C343 O346 1.252 . S
C343 O347 1.260 . S
O344 In338 2.266 . S
O344 C341 1.252 . S
O345 In338 2.326 . S
O345 C341 1.260 . S
O346 In338 2.266 . S
O346 C343 1.252 . S
O347 In338 2.326 . S
O347 C343 1.260 . S
C348 O339 1.240 . S
C348 O340 1.252 . S
O349 In338 2.294 . S
O349 C342 1.240 . S
O350 In338 2.326 . S
O350 C342 1.252 . S
In351 O352 2.294 . S
In351 O353 2.326 . S
In351 O357 2.266 . S
In351 O358 2.326 . S
In351 O359 2.266 . S
In351 O360 2.326 . S
In351 O362 2.294 . S
In351 O363 2.326 . S
O352 In351 2.294 . S
O352 C361 1.240 . S
O353 In351 2.326 . S
O353 C361 1.252 . S
C354 O357 1.252 . S
C354 O358 1.260 . S
C355 O362 1.240 . S
C355 O363 1.252 . S
C356 O359 1.252 . S
C356 O360 1.260 . S
O357 In351 2.266 . S
O357 C354 1.252 . S
O358 In351 2.326 . S
O358 C354 1.260 . S
O359 In351 2.266 . S
O359 C356 1.252 . S
O360 In351 2.326 . S
O360 C356 1.260 . S
C361 O352 1.240 . S
C361 O353 1.252 . S
O362 In351 2.294 . S
O362 C355 1.240 . S
O363 In351 2.326 . S
O363 C355 1.252 . S
In364 O365 2.294 . S
In364 O366 2.326 . S
In364 O370 2.266 . S
In364 O371 2.326 . S
In364 O372 2.266 . S
In364 O373 2.326 . S
In364 O375 2.294 . S
In364 O376 2.326 . S
O365 In364 2.294 . S
O365 C374 1.240 . S
O366 In364 2.326 . S
O366 C374 1.252 . S
C367 O370 1.252 . S
C367 O371 1.260 . S
C368 O375 1.240 . S
C368 O376 1.252 . S
C369 O372 1.252 . S
C369 O373 1.260 . S
O370 In364 2.266 . S
O370 C367 1.252 . S
O371 In364 2.326 . S
O371 C367 1.260 . S
O372 In364 2.266 . S
O372 C369 1.252 . S
O373 In364 2.326 . S
O373 C369 1.260 . S
C374 O365 1.240 . S
C374 O366 1.252 . S
O375 In364 2.294 . S
O375 C368 1.240 . S
O376 In364 2.326 . S
O376 C368 1.252 . S
In377 O378 2.294 . S
In377 O379 2.326 . S
In377 O383 2.266 . S
In377 O384 2.326 . S
In377 O385 2.266 . S
In377 O386 2.326 . S
In377 O388 2.294 . S
In377 O389 2.326 . S
O378 In377 2.294 . S
O378 C387 1.240 . S
O379 In377 2.326 . S
O379 C387 1.252 . S
C380 O383 1.252 . S
C380 O384 1.260 . S
C381 O388 1.240 . S
C381 O389 1.252 . S
C382 O385 1.252 . S
C382 O386 1.260 . S
O383 In377 2.266 . S
O383 C380 1.252 . S
O384 In377 2.326 . S
O384 C380 1.260 . S
O385 In377 2.266 . S
O385 C382 1.252 . S
O386 In377 2.326 . S
O386 C382 1.260 . S
C387 O378 1.240 . S
C387 O379 1.252 . S
O388 In377 2.294 . S
O388 C381 1.240 . S
O389 In377 2.326 . S
O389 C381 1.252 . S
In390 O391 2.294 . S
In390 O392 2.326 . S
In390 O396 2.266 . S
In390 O397 2.326 . S
In390 O398 2.266 . S
In390 O399 2.326 . S
In390 O401 2.294 . S
In390 O402 2.326 . S
O391 In390 2.294 . S
O391 C400 1.240 . S
O392 In390 2.326 . S
O392 C400 1.252 . S
C393 O396 1.252 . S
C393 O397 1.260 . S
C394 O401 1.240 . S
C394 O402 1.252 . S
C395 O398 1.252 . S
C395 O399 1.260 . S
O396 In390 2.266 . S
O396 C393 1.252 . S
O397 In390 2.326 . S
O397 C393 1.260 . S
O398 In390 2.266 . S
O398 C395 1.252 . S
O399 In390 2.326 . S
O399 C395 1.260 . S
C400 O391 1.240 . S
C400 O392 1.252 . S
O401 In390 2.294 . S
O401 C394 1.240 . S
O402 In390 2.326 . S
O402 C394 1.252 . S
In403 O404 2.294 . S
In403 O405 2.326 . S
In403 O409 2.266 . S
In403 O410 2.326 . S
In403 O411 2.266 . S
In403 O412 2.326 . S
In403 O414 2.294 . S
In403 O415 2.326 . S
O404 In403 2.294 . S
O404 C413 1.240 . S
O405 In403 2.326 . S
O405 C413 1.252 . S
C406 O409 1.252 . S
C406 O410 1.260 . S
C407 O414 1.240 . S
C407 O415 1.252 . S
C408 O411 1.252 . S
C408 O412 1.260 . S
O409 In403 2.266 . S
O409 C406 1.252 . S
O410 In403 2.326 . S
O410 C406 1.260 . S
O411 In403 2.266 . S
O411 C408 1.252 . S
O412 In403 2.326 . S
O412 C408 1.260 . S
C413 O404 1.240 . S
C413 O405 1.252 . S
O414 In403 2.294 . S
O414 C407 1.240 . S
O415 In403 2.326 . S
O415 C407 1.252 . S
In416 O417 2.294 . S
In416 O418 2.326 . S
In416 O422 2.266 . S
In416 O423 2.326 . S
In416 O424 2.266 . S
In416 O425 2.326 . S
In416 O427 2.294 . S
In416 O428 2.326 . S
O417 In416 2.294 . S
O417 C426 1.240 . S
O418 In416 2.326 . S
O418 C426 1.252 . S
C419 O422 1.252 . S
C419 O423 1.260 . S
C420 O427 1.240 . S
C420 O428 1.252 . S
C421 O424 1.252 . S
C421 O425 1.260 . S
O422 In416 2.266 . S
O422 C419 1.252 . S
O423 In416 2.326 . S
O423 C419 1.260 . S
O424 In416 2.266 . S
O424 C421 1.252 . S
O425 In416 2.326 . S
O425 C421 1.260 . S
C426 O417 1.240 . S
C426 O418 1.252 . S
O427 In416 2.294 . S
O427 C420 1.240 . S
O428 In416 2.326 . S
O428 C420 1.252 . S
In429 O430 2.294 . S
In429 O431 2.326 . S
In429 O435 2.266 . S
In429 O436 2.326 . S
In429 O437 2.266 . S
In429 O438 2.326 . S
In429 O440 2.294 . S
In429 O441 2.326 . S
O430 In429 2.294 . S
O430 C439 1.240 . S
O431 In429 2.326 . S
O431 C439 1.252 . S
C432 O435 1.252 . S
C432 O436 1.260 . S
C433 O440 1.240 . S
C433 O441 1.252 . S
C434 O437 1.252 . S
C434 O438 1.260 . S
O435 In429 2.266 . S
O435 C432 1.252 . S
O436 In429 2.326 . S
O436 C432 1.260 . S
O437 In429 2.266 . S
O437 C434 1.252 . S
O438 In429 2.326 . S
O438 C434 1.260 . S
C439 O430 1.240 . S
C439 O431 1.252 . S
O440 In429 2.294 . S
O440 C433 1.240 . S
O441 In429 2.326 . S
O441 C433 1.252 . S
In442 O443 2.294 . S
In442 O444 2.326 . S
In442 O448 2.266 . S
In442 O449 2.326 . S
In442 O450 2.266 . S
In442 O451 2.326 . S
In442 O453 2.294 . S
In442 O454 2.326 . S
O443 In442 2.294 . S
O443 C452 1.240 . S
O444 In442 2.326 . S
O444 C452 1.252 . S
C445 O448 1.252 . S
C445 O449 1.260 . S
C446 O453 1.240 . S
C446 O454 1.252 . S
C447 O450 1.252 . S
C447 O451 1.260 . S
O448 In442 2.266 . S
O448 C445 1.252 . S
O449 In442 2.326 . S
O449 C445 1.260 . S
O450 In442 2.266 . S
O450 C447 1.252 . S
O451 In442 2.326 . S
O451 C447 1.260 . S
C452 O443 1.240 . S
C452 O444 1.252 . S
O453 In442 2.294 . S
O453 C446 1.240 . S
O454 In442 2.326 . S
O454 C446 1.252 . S
In455 O456 2.294 . S
In455 O457 2.326 . S
In455 O461 2.266 . S
In455 O462 2.326 . S
In455 O463 2.266 . S
In455 O464 2.326 . S
In455 O466 2.294 . S
In455 O467 2.326 . S
O456 In455 2.294 . S
O456 C465 1.240 . S
O457 In455 2.326 . S
O457 C465 1.252 . S
C458 O461 1.252 . S
C458 O462 1.260 . S
C459 O466 1.240 . S
C459 O467 1.252 . S
C460 O463 1.252 . S
C460 O464 1.260 . S
O461 In455 2.266 . S
O461 C458 1.252 . S
O462 In455 2.326 . S
O462 C458 1.260 . S
O463 In455 2.266 . S
O463 C460 1.252 . S
O464 In455 2.326 . S
O464 C460 1.260 . S
C465 O456 1.240 . S
C465 O457 1.252 . S
O466 In455 2.294 . S
O466 C459 1.240 . S
O467 In455 2.326 . S
O467 C459 1.252 . S
In468 O469 2.294 . S
In468 O470 2.326 . S
In468 O474 2.266 . S
In468 O475 2.326 . S
In468 O476 2.266 . S
In468 O477 2.326 . S
In468 O479 2.294 . S
In468 O480 2.326 . S
O469 In468 2.294 . S
O469 C478 1.240 . S
O470 In468 2.326 . S
O470 C478 1.252 . S
C471 O474 1.252 . S
C471 O475 1.260 . S
C472 O479 1.240 . S
C472 O480 1.252 . S
C473 O476 1.252 . S
C473 O477 1.260 . S
O474 In468 2.266 . S
O474 C471 1.252 . S
O475 In468 2.326 . S
O475 C471 1.260 . S
O476 In468 2.266 . S
O476 C473 1.252 . S
O477 In468 2.326 . S
O477 C473 1.260 . S
C478 O469 1.240 . S
C478 O470 1.252 . S
O479 In468 2.294 . S
O479 C472 1.240 . S
O480 In468 2.326 . S
O480 C472 1.252 . S
In481 O482 2.294 . S
In481 O483 2.326 . S
In481 O487 2.266 . S
In481 O488 2.326 . S
In481 O489 2.266 . S
In481 O490 2.326 . S
In481 O492 2.294 . S
In481 O493 2.326 . S
O482 In481 2.294 . S
O482 C491 1.240 . S
O483 In481 2.326 . S
O483 C491 1.252 . S
C484 O487 1.252 . S
C484 O488 1.260 . S
C485 O492 1.240 . S
C485 O493 1.252 . S
C486 O489 1.252 . S
C486 O490 1.260 . S
O487 In481 2.266 . S
O487 C484 1.252 . S
O488 In481 2.326 . S
O488 C484 1.260 . S
O489 In481 2.266 . S
O489 C486 1.252 . S
O490 In481 2.326 . S
O490 C486 1.260 . S
C491 O482 1.240 . S
C491 O483 1.252 . S
O492 In481 2.294 . S
O492 C485 1.240 . S
O493 In481 2.326 . S
O493 C485 1.252 . S
In494 O495 2.294 . S
In494 O496 2.326 . S
In494 O500 2.266 . S
In494 O501 2.326 . S
In494 O502 2.266 . S
In494 O503 2.326 . S
In494 O505 2.294 . S
In494 O506 2.326 . S
O495 In494 2.294 . S
O495 C504 1.240 . S
O496 In494 2.326 . S
O496 C504 1.252 . S
C497 O500 1.252 . S
C497 O501 1.260 . S
C498 O505 1.240 . S
C498 O506 1.252 . S
C499 O502 1.252 . S
C499 O503 1.260 . S
O500 In494 2.266 . S
O500 C497 1.252 . S
O501 In494 2.326 . S
O501 C497 1.260 . S
O502 In494 2.266 . S
O502 C499 1.252 . S
O503 In494 2.326 . S
O503 C499 1.260 . S
C504 O495 1.240 . S
C504 O496 1.252 . S
O505 In494 2.294 . S
O505 C498 1.240 . S
O506 In494 2.326 . S
O506 C498 1.252 . S
In507 O508 2.294 . S
In507 O509 2.326 . S
In507 O513 2.266 . S
In507 O514 2.326 . S
In507 O515 2.266 . S
In507 O516 2.326 . S
In507 O518 2.294 . S
In507 O519 2.326 . S
O508 In507 2.294 . S
O508 C517 1.240 . S
O509 In507 2.326 . S
O509 C517 1.252 . S
C510 O513 1.252 . S
C510 O514 1.260 . S
C511 O518 1.240 . S
C511 O519 1.252 . S
C512 O515 1.252 . S
C512 O516 1.260 . S
O513 In507 2.266 . S
O513 C510 1.252 . S
O514 In507 2.326 . S
O514 C510 1.260 . S
O515 In507 2.266 . S
O515 C512 1.252 . S
O516 In507 2.326 . S
O516 C512 1.260 . S
C517 O508 1.240 . S
C517 O509 1.252 . S
O518 In507 2.294 . S
O518 C511 1.240 . S
O519 In507 2.326 . S
O519 C511 1.252 . S
In520 O521 2.294 . S
In520 O522 2.326 . S
In520 O526 2.266 . S
In520 O527 2.326 . S
In520 O528 2.266 . S
In520 O529 2.326 . S
In520 O531 2.294 . S
In520 O532 2.326 . S
O521 In520 2.294 . S
O521 C530 1.240 . S
O522 In520 2.326 . S
O522 C530 1.252 . S
C523 O526 1.252 . S
C523 O527 1.260 . S
C524 O531 1.240 . S
C524 O532 1.252 . S
C525 O528 1.252 . S
C525 O529 1.260 . S
O526 In520 2.266 . S
O526 C523 1.252 . S
O527 In520 2.326 . S
O527 C523 1.260 . S
O528 In520 2.266 . S
O528 C525 1.252 . S
O529 In520 2.326 . S
O529 C525 1.260 . S
C530 O521 1.240 . S
C530 O522 1.252 . S
O531 In520 2.294 . S
O531 C524 1.240 . S
O532 In520 2.326 . S
O532 C524 1.252 . S
In533 O534 2.294 . S
In533 O535 2.326 . S
In533 O539 2.266 . S
In533 O540 2.326 . S
In533 O541 2.266 . S
In533 O542 2.326 . S
In533 O544 2.294 . S
In533 O545 2.326 . S
O534 In533 2.294 . S
O534 C543 1.240 . S
O535 In533 2.326 . S
O535 C543 1.252 . S
C536 O539 1.252 . S
C536 O540 1.260 . S
C537 O544 1.240 . S
C537 O545 1.252 . S
C538 O541 1.252 . S
C538 O542 1.260 . S
O539 In533 2.266 . S
O539 C536 1.252 . S
O540 In533 2.326 . S
O540 C536 1.260 . S
O541 In533 2.266 . S
O541 C538 1.252 . S
O542 In533 2.326 . S
O542 C538 1.260 . S
C543 O534 1.240 . S
C543 O535 1.252 . S
O544 In533 2.294 . S
O544 C537 1.240 . S
O545 In533 2.326 . S
O545 C537 1.252 . S
In546 O547 2.294 . S
In546 O548 2.326 . S
In546 O552 2.266 . S
In546 O553 2.326 . S
In546 O554 2.266 . S
In546 O555 2.326 . S
In546 O557 2.294 . S
In546 O558 2.326 . S
O547 In546 2.294 . S
O547 C556 1.240 . S
O548 In546 2.326 . S
O548 C556 1.252 . S
C549 O552 1.252 . S
C549 O553 1.260 . S
C550 O557 1.240 . S
C550 O558 1.252 . S
C551 O554 1.252 . S
C551 O555 1.260 . S
O552 In546 2.266 . S
O552 C549 1.252 . S
O553 In546 2.326 . S
O553 C549 1.260 . S
O554 In546 2.266 . S
O554 C551 1.252 . S
O555 In546 2.326 . S
O555 C551 1.260 . S
C556 O547 1.240 . S
C556 O548 1.252 . S
O557 In546 2.294 . S
O557 C550 1.240 . S
O558 In546 2.326 . S
O558 C550 1.252 . S
In559 O560 2.294 . S
In559 O561 2.326 . S
In559 O565 2.266 . S
In559 O566 2.326 . S
In559 O567 2.266 . S
In559 O568 2.326 . S
In559 O570 2.294 . S
In559 O571 2.326 . S
O560 In559 2.294 . S
O560 C569 1.240 . S
O561 In559 2.326 . S
O561 C569 1.252 . S
C562 O565 1.252 . S
C562 O566 1.260 . S
C563 O570 1.240 . S
C563 O571 1.252 . S
C564 O567 1.252 . S
C564 O568 1.260 . S
O565 In559 2.266 . S
O565 C562 1.252 . S
O566 In559 2.326 . S
O566 C562 1.260 . S
O567 In559 2.266 . S
O567 C564 1.252 . S
O568 In559 2.326 . S
O568 C564 1.260 . S
C569 O560 1.240 . S
C569 O561 1.252 . S
O570 In559 2.294 . S
O570 C563 1.240 . S
O571 In559 2.326 . S
O571 C563 1.252 . S
In572 O573 2.294 . S
In572 O574 2.326 . S
In572 O578 2.266 . S
In572 O579 2.326 . S
In572 O580 2.266 . S
In572 O581 2.326 . S
In572 O583 2.294 . S
In572 O584 2.326 . S
O573 In572 2.294 . S
O573 C582 1.240 . S
O574 In572 2.326 . S
O574 C582 1.252 . S
C575 O578 1.252 . S
C575 O579 1.260 . S
C576 O583 1.240 . S
C576 O584 1.252 . S
C577 O580 1.252 . S
C577 O581 1.260 . S
O578 In572 2.266 . S
O578 C575 1.252 . S
O579 In572 2.326 . S
O579 C575 1.260 . S
O580 In572 2.266 . S
O580 C577 1.252 . S
O581 In572 2.326 . S
O581 C577 1.260 . S
C582 O573 1.240 . S
C582 O574 1.252 . S
O583 In572 2.294 . S
O583 C576 1.240 . S
O584 In572 2.326 . S
O584 C576 1.252 . S
In585 O586 2.294 . S
In585 O587 2.326 . S
In585 O591 2.266 . S
In585 O592 2.326 . S
In585 O593 2.266 . S
In585 O594 2.326 . S
In585 O596 2.294 . S
In585 O597 2.326 . S
O586 In585 2.294 . S
O586 C595 1.240 . S
O587 In585 2.326 . S
O587 C595 1.252 . S
C588 O591 1.252 . S
C588 O592 1.260 . S
C589 O596 1.240 . S
C589 O597 1.252 . S
C590 O593 1.252 . S
C590 O594 1.260 . S
O591 In585 2.266 . S
O591 C588 1.252 . S
O592 In585 2.326 . S
O592 C588 1.260 . S
O593 In585 2.266 . S
O593 C590 1.252 . S
O594 In585 2.326 . S
O594 C590 1.260 . S
C595 O586 1.240 . S
C595 O587 1.252 . S
O596 In585 2.294 . S
O596 C589 1.240 . S
O597 In585 2.326 . S
O597 C589 1.252 . S
In598 O599 2.294 . S
In598 O600 2.326 . S
In598 O604 2.266 . S
In598 O605 2.326 . S
In598 O606 2.266 . S
In598 O607 2.326 . S
In598 O609 2.294 . S
In598 O610 2.326 . S
O599 In598 2.294 . S
O599 C608 1.240 . S
O600 In598 2.326 . S
O600 C608 1.252 . S
C601 O604 1.252 . S
C601 O605 1.260 . S
C602 O609 1.240 . S
C602 O610 1.252 . S
C603 O606 1.252 . S
C603 O607 1.260 . S
O604 In598 2.266 . S
O604 C601 1.252 . S
O605 In598 2.326 . S
O605 C601 1.260 . S
O606 In598 2.266 . S
O606 C603 1.252 . S
O607 In598 2.326 . S
O607 C603 1.260 . S
C608 O599 1.240 . S
C608 O600 1.252 . S
O609 In598 2.294 . S
O609 C602 1.240 . S
O610 In598 2.326 . S
O610 C602 1.252 . S
In611 O612 2.294 . S
In611 O613 2.326 . S
In611 O617 2.266 . S
In611 O618 2.326 . S
In611 O619 2.266 . S
In611 O620 2.326 . S
In611 O622 2.294 . S
In611 O623 2.326 . S
O612 In611 2.294 . S
O612 C621 1.240 . S
O613 In611 2.326 . S
O613 C621 1.252 . S
C614 O617 1.252 . S
C614 O618 1.260 . S
C615 O622 1.240 . S
C615 O623 1.252 . S
C616 O619 1.252 . S
C616 O620 1.260 . S
O617 In611 2.266 . S
O617 C614 1.252 . S
O618 In611 2.326 . S
O618 C614 1.260 . S
O619 In611 2.266 . S
O619 C616 1.252 . S
O620 In611 2.326 . S
O620 C616 1.260 . S
C621 O612 1.240 . S
C621 O613 1.252 . S
O622 In611 2.294 . S
O622 C615 1.240 . S
O623 In611 2.326 . S
O623 C615 1.252 . S
C624 C625 1.387 . S
C624 H628 0.950 . S
C624 C633 1.390 . S
C625 C624 1.387 . S
C625 C627 1.387 . S
H626 C633 0.950 . S
C627 C625 1.387 . S
C627 C629 1.390 . S
C627 H631 0.950 . S
H628 C624 0.950 . S
C629 C627 1.390 . S
C629 C630 1.387 . S
C629 H632 0.950 . S
C630 C629 1.387 . S
C630 C633 1.387 . S
H631 C627 0.950 . S
H632 C629 0.950 . S
C633 C624 1.390 . S
C633 H626 0.950 . S
C633 C630 1.387 . S
C634 C635 1.387 . S
C634 H638 0.950 . S
C634 C643 1.390 . S
C635 C634 1.387 . S
C635 C637 1.387 . S
H636 C643 0.950 . S
C637 C635 1.387 . S
C637 C639 1.390 . S
C637 H641 0.950 . S
H638 C634 0.950 . S
C639 C637 1.390 . S
C639 C640 1.387 . S
C639 H642 0.950 . S
C640 C639 1.387 . S
C640 C643 1.387 . S
H641 C637 0.950 . S
H642 C639 0.950 . S
C643 C634 1.390 . S
C643 H636 0.950 . S
C643 C640 1.387 . S
C644 C645 1.387 . S
C644 H648 0.950 . S
C644 C653 1.390 . S
C645 C644 1.387 . S
C645 C647 1.387 . S
H646 C653 0.950 . S
C647 C645 1.387 . S
C647 C649 1.390 . S
C647 H651 0.950 . S
H648 C644 0.950 . S
C649 C647 1.390 . S
C649 C650 1.387 . S
C649 H652 0.950 . S
C650 C649 1.387 . S
C650 C653 1.387 . S
H651 C647 0.950 . S
H652 C649 0.950 . S
C653 C644 1.390 . S
C653 H646 0.950 . S
C653 C650 1.387 . S
C654 C655 1.387 . S
C654 H658 0.950 . S
C654 C663 1.390 . S
C655 C654 1.387 . S
C655 C657 1.387 . S
H656 C663 0.950 . S
C657 C655 1.387 . S
C657 C659 1.390 . S
C657 H661 0.950 . S
H658 C654 0.950 . S
C659 C657 1.390 . S
C659 C660 1.387 . S
C659 H662 0.950 . S
C660 C659 1.387 . S
C660 C663 1.387 . S
H661 C657 0.950 . S
H662 C659 0.950 . S
C663 C654 1.390 . S
C663 H656 0.950 . S
C663 C660 1.387 . S
C664 C665 1.387 . S
C664 H668 0.950 . S
C664 C673 1.390 . S
C665 C664 1.387 . S
C665 C667 1.387 . S
H666 C673 0.950 . S
C667 C665 1.387 . S
C667 C669 1.390 . S
C667 H671 0.950 . S
H668 C664 0.950 . S
C669 C667 1.390 . S
C669 C670 1.387 . S
C669 H672 0.950 . S
C670 C669 1.387 . S
C670 C673 1.387 . S
H671 C667 0.950 . S
H672 C669 0.950 . S
C673 C664 1.390 . S
C673 H666 0.950 . S
C673 C670 1.387 . S
C674 C675 1.387 . S
C674 H678 0.950 . S
C674 C683 1.390 . S
C675 C674 1.387 . S
C675 C677 1.387 . S
H676 C683 0.950 . S
C677 C675 1.387 . S
C677 C679 1.390 . S
C677 H681 0.950 . S
H678 C674 0.950 . S
C679 C677 1.390 . S
C679 C680 1.387 . S
C679 H682 0.950 . S
C680 C679 1.387 . S
C680 C683 1.387 . S
H681 C677 0.950 . S
H682 C679 0.950 . S
C683 C674 1.390 . S
C683 H676 0.950 . S
C683 C680 1.387 . S
C684 C685 1.387 . S
C684 H688 0.950 . S
C684 C693 1.390 . S
C685 C684 1.387 . S
C685 C687 1.387 . S
H686 C693 0.950 . S
C687 C685 1.387 . S
C687 C689 1.390 . S
C687 H691 0.950 . S
H688 C684 0.950 . S
C689 C687 1.390 . S
C689 C690 1.387 . S
C689 H692 0.950 . S
C690 C689 1.387 . S
C690 C693 1.387 . S
H691 C687 0.950 . S
H692 C689 0.950 . S
C693 C684 1.390 . S
C693 H686 0.950 . S
C693 C690 1.387 . S
C694 C695 1.387 . S
C694 H698 0.950 . S
C694 C703 1.390 . S
C695 C694 1.387 . S
C695 C697 1.387 . S
H696 C703 0.950 . S
C697 C695 1.387 . S
C697 C699 1.390 . S
C697 H701 0.950 . S
H698 C694 0.950 . S
C699 C697 1.390 . S
C699 C700 1.387 . S
C699 H702 0.950 . S
C700 C699 1.387 . S
C700 C703 1.387 . S
H701 C697 0.950 . S
H702 C699 0.950 . S
C703 C694 1.390 . S
C703 H696 0.950 . S
C703 C700 1.387 . S
C704 C705 1.387 . S
C704 H708 0.950 . S
C704 C713 1.390 . S
C705 C704 1.387 . S
C705 C707 1.387 . S
H706 C713 0.950 . S
C707 C705 1.387 . S
C707 C709 1.390 . S
C707 H711 0.950 . S
H708 C704 0.950 . S
C709 C707 1.390 . S
C709 C710 1.387 . S
C709 H712 0.950 . S
C710 C709 1.387 . S
C710 C713 1.387 . S
H711 C707 0.950 . S
H712 C709 0.950 . S
C713 C704 1.390 . S
C713 H706 0.950 . S
C713 C710 1.387 . S
C714 C715 1.387 . S
C714 H718 0.950 . S
C714 C723 1.390 . S
C715 C714 1.387 . S
C715 C717 1.387 . S
H716 C723 0.950 . S
C717 C715 1.387 . S
C717 C719 1.390 . S
C717 H721 0.950 . S
H718 C714 0.950 . S
C719 C717 1.390 . S
C719 C720 1.387 . S
C719 H722 0.950 . S
C720 C719 1.387 . S
C720 C723 1.387 . S
H721 C717 0.950 . S
H722 C719 0.950 . S
C723 C714 1.390 . S
C723 H716 0.950 . S
C723 C720 1.387 . S
C724 C725 1.387 . S
C724 H728 0.950 . S
C724 C733 1.390 . S
C725 C724 1.387 . S
C725 C727 1.387 . S
H726 C733 0.950 . S
C727 C725 1.387 . S
C727 C729 1.390 . S
C727 H731 0.950 . S
H728 C724 0.950 . S
C729 C727 1.390 . S
C729 C730 1.387 . S
C729 H732 0.950 . S
C730 C729 1.387 . S
C730 C733 1.387 . S
H731 C727 0.950 . S
H732 C729 0.950 . S
C733 C724 1.390 . S
C733 H726 0.950 . S
C733 C730 1.387 . S
C734 C735 1.387 . S
C734 H738 0.950 . S
C734 C743 1.390 . S
C735 C734 1.387 . S
C735 C737 1.387 . S
H736 C743 0.950 . S
C737 C735 1.387 . S
C737 C739 1.390 . S
C737 H741 0.950 . S
H738 C734 0.950 . S
C739 C737 1.390 . S
C739 C740 1.387 . S
C739 H742 0.950 . S
C740 C739 1.387 . S
C740 C743 1.387 . S
H741 C737 0.950 . S
H742 C739 0.950 . S
C743 C734 1.390 . S
C743 H736 0.950 . S
C743 C740 1.387 . S
C744 C745 1.387 . S
C744 H748 0.950 . S
C744 C753 1.390 . S
C745 C744 1.387 . S
C745 C747 1.387 . S
H746 C753 0.950 . S
C747 C745 1.387 . S
C747 C749 1.390 . S
C747 H751 0.950 . S
H748 C744 0.950 . S
C749 C747 1.390 . S
C749 C750 1.387 . S
C749 H752 0.950 . S
C750 C749 1.387 . S
C750 C753 1.387 . S
H751 C747 0.950 . S
H752 C749 0.950 . S
C753 C744 1.390 . S
C753 H746 0.950 . S
C753 C750 1.387 . S
C754 C755 1.387 . S
C754 H758 0.950 . S
C754 C763 1.390 . S
C755 C754 1.387 . S
C755 C757 1.387 . S
H756 C763 0.950 . S
C757 C755 1.387 . S
C757 C759 1.390 . S
C757 H761 0.950 . S
H758 C754 0.950 . S
C759 C757 1.390 . S
C759 C760 1.387 . S
C759 H762 0.950 . S
C760 C759 1.387 . S
C760 C763 1.387 . S
H761 C757 0.950 . S
H762 C759 0.950 . S
C763 C754 1.390 . S
C763 H756 0.950 . S
C763 C760 1.387 . S
C764 C765 1.387 . S
C764 H768 0.950 . S
C764 C773 1.390 . S
C765 C764 1.387 . S
C765 C767 1.387 . S
H766 C773 0.950 . S
C767 C765 1.387 . S
C767 C769 1.390 . S
C767 H771 0.950 . S
H768 C764 0.950 . S
C769 C767 1.390 . S
C769 C770 1.387 . S
C769 H772 0.950 . S
C770 C769 1.387 . S
C770 C773 1.387 . S
H771 C767 0.950 . S
H772 C769 0.950 . S
C773 C764 1.390 . S
C773 H766 0.950 . S
C773 C770 1.387 . S
C774 C775 1.387 . S
C774 H778 0.950 . S
C774 C783 1.390 . S
C775 C774 1.387 . S
C775 C777 1.387 . S
H776 C783 0.950 . S
C777 C775 1.387 . S
C777 C779 1.390 . S
C777 H781 0.950 . S
H778 C774 0.950 . S
C779 C777 1.390 . S
C779 C780 1.387 . S
C779 H782 0.950 . S
C780 C779 1.387 . S
C780 C783 1.387 . S
H781 C777 0.950 . S
H782 C779 0.950 . S
C783 C774 1.390 . S
C783 H776 0.950 . S
C783 C780 1.387 . S
C784 C785 1.387 . S
C784 H788 0.950 . S
C784 C793 1.390 . S
C785 C784 1.387 . S
C785 C787 1.387 . S
H786 C793 0.950 . S
C787 C785 1.387 . S
C787 C789 1.390 . S
C787 H791 0.950 . S
H788 C784 0.950 . S
C789 C787 1.390 . S
C789 C790 1.387 . S
C789 H792 0.950 . S
C790 C789 1.387 . S
C790 C793 1.387 . S
H791 C787 0.950 . S
H792 C789 0.950 . S
C793 C784 1.390 . S
C793 H786 0.950 . S
C793 C790 1.387 . S
C794 C795 1.387 . S
C794 H798 0.950 . S
C794 C803 1.390 . S
C795 C794 1.387 . S
C795 C797 1.387 . S
H796 C803 0.950 . S
C797 C795 1.387 . S
C797 C799 1.390 . S
C797 H801 0.950 . S
H798 C794 0.950 . S
C799 C797 1.390 . S
C799 C800 1.387 . S
C799 H802 0.950 . S
C800 C799 1.387 . S
C800 C803 1.387 . S
H801 C797 0.950 . S
H802 C799 0.950 . S
C803 C794 1.390 . S
C803 H796 0.950 . S
C803 C800 1.387 . S
C804 C805 1.387 . S
C804 H808 0.950 . S
C804 C813 1.390 . S
C805 C804 1.387 . S
C805 C807 1.387 . S
H806 C813 0.950 . S
C807 C805 1.387 . S
C807 C809 1.390 . S
C807 H811 0.950 . S
H808 C804 0.950 . S
C809 C807 1.390 . S
C809 C810 1.387 . S
C809 H812 0.950 . S
C810 C809 1.387 . S
C810 C813 1.387 . S
H811 C807 0.950 . S
H812 C809 0.950 . S
C813 C804 1.390 . S
C813 H806 0.950 . S
C813 C810 1.387 . S
C814 C815 1.387 . S
C814 H818 0.950 . S
C814 C823 1.390 . S
C815 C814 1.387 . S
C815 C817 1.387 . S
H816 C823 0.950 . S
C817 C815 1.387 . S
C817 C819 1.390 . S
C817 H821 0.950 . S
H818 C814 0.950 . S
C819 C817 1.390 . S
C819 C820 1.387 . S
C819 H822 0.950 . S
C820 C819 1.387 . S
C820 C823 1.387 . S
H821 C817 0.950 . S
H822 C819 0.950 . S
C823 C814 1.390 . S
C823 H816 0.950 . S
C823 C820 1.387 . S
C824 C825 1.387 . S
C824 H828 0.950 . S
C824 C833 1.390 . S
C825 C824 1.387 . S
C825 C827 1.387 . S
H826 C833 0.950 . S
C827 C825 1.387 . S
C827 C829 1.390 . S
C827 H831 0.950 . S
H828 C824 0.950 . S
C829 C827 1.390 . S
C829 C830 1.387 . S
C829 H832 0.950 . S
C830 C829 1.387 . S
C830 C833 1.387 . S
H831 C827 0.950 . S
H832 C829 0.950 . S
C833 C824 1.390 . S
C833 H826 0.950 . S
C833 C830 1.387 . S
C834 C835 1.387 . S
C834 H838 0.950 . S
C834 C843 1.390 . S
C835 C834 1.387 . S
C835 C837 1.387 . S
H836 C843 0.950 . S
C837 C835 1.387 . S
C837 C839 1.390 . S
C837 H841 0.950 . S
H838 C834 0.950 . S
C839 C837 1.390 . S
C839 C840 1.387 . S
C839 H842 0.950 . S
C840 C839 1.387 . S
C840 C843 1.387 . S
H841 C837 0.950 . S
H842 C839 0.950 . S
C843 C834 1.390 . S
C843 H836 0.950 . S
C843 C840 1.387 . S
C844 C845 1.387 . S
C844 H848 0.950 . S
C844 C853 1.390 . S
C845 C844 1.387 . S
C845 C847 1.387 . S
H846 C853 0.950 . S
C847 C845 1.387 . S
C847 C849 1.390 . S
C847 H851 0.950 . S
H848 C844 0.950 . S
C849 C847 1.390 . S
C849 C850 1.387 . S
C849 H852 0.950 . S
C850 C849 1.387 . S
C850 C853 1.387 . S
H851 C847 0.950 . S
H852 C849 0.950 . S
C853 C844 1.390 . S
C853 H846 0.950 . S
C853 C850 1.387 . S
C854 C855 1.387 . S
C854 H858 0.950 . S
C854 C863 1.390 . S
C855 C854 1.387 . S
C855 C857 1.387 . S
H856 C863 0.950 . S
C857 C855 1.387 . S
C857 C859 1.390 . S
C857 H861 0.950 . S
H858 C854 0.950 . S
C859 C857 1.390 . S
C859 C860 1.387 . S
C859 H862 0.950 . S
C860 C859 1.387 . S
C860 C863 1.387 . S
H861 C857 0.950 . S
H862 C859 0.950 . S
C863 C854 1.390 . S
C863 H856 0.950 . S
C863 C860 1.387 . S
C864 C865 1.387 . S
C864 H868 0.950 . S
C864 C873 1.390 . S
C865 C864 1.387 . S
C865 C867 1.387 . S
H866 C873 0.950 . S
C867 C865 1.387 . S
C867 C869 1.390 . S
C867 H871 0.950 . S
H868 C864 0.950 . S
C869 C867 1.390 . S
C869 C870 1.387 . S
C869 H872 0.950 . S
C870 C869 1.387 . S
C870 C873 1.387 . S
H871 C867 0.950 . S
H872 C869 0.950 . S
C873 C864 1.390 . S
C873 H866 0.950 . S
C873 C870 1.387 . S
C874 C875 1.387 . S
C874 H878 0.950 . S
C874 C883 1.390 . S
C875 C874 1.387 . S
C875 C877 1.387 . S
H876 C883 0.950 . S
C877 C875 1.387 . S
C877 C879 1.390 . S
C877 H881 0.950 . S
H878 C874 0.950 . S
C879 C877 1.390 . S
C879 C880 1.387 . S
C879 H882 0.950 . S
C880 C879 1.387 . S
C880 C883 1.387 . S
H881 C877 0.950 . S
H882 C879 0.950 . S
C883 C874 1.390 . S
C883 H876 0.950 . S
C883 C880 1.387 . S
C884 C885 1.387 . S
C884 H888 0.950 . S
C884 C893 1.390 . S
C885 C884 1.387 . S
C885 C887 1.387 . S
H886 C893 0.950 . S
C887 C885 1.387 . S
C887 C889 1.390 . S
C887 H891 0.950 . S
H888 C884 0.950 . S
C889 C887 1.390 . S
C889 C890 1.387 . S
C889 H892 0.950 . S
C890 C889 1.387 . S
C890 C893 1.387 . S
H891 C887 0.950 . S
H892 C889 0.950 . S
C893 C884 1.390 . S
C893 H886 0.950 . S
C893 C890 1.387 . S
C894 C895 1.387 . S
C894 H898 0.950 . S
C894 C903 1.390 . S
C895 C894 1.387 . S
C895 C897 1.387 . S
H896 C903 0.950 . S
C897 C895 1.387 . S
C897 C899 1.390 . S
C897 H901 0.950 . S
H898 C894 0.950 . S
C899 C897 1.390 . S
C899 C900 1.387 . S
C899 H902 0.950 . S
C900 C899 1.387 . S
C900 C903 1.387 . S
H901 C897 0.950 . S
H902 C899 0.950 . S
C903 C894 1.390 . S
C903 H896 0.950 . S
C903 C900 1.387 . S
C904 C905 1.387 . S
C904 H908 0.950 . S
C904 C913 1.390 . S
C905 C904 1.387 . S
C905 C907 1.387 . S
H906 C913 0.950 . S
C907 C905 1.387 . S
C907 C909 1.390 . S
C907 H911 0.950 . S
H908 C904 0.950 . S
C909 C907 1.390 . S
C909 C910 1.387 . S
C909 H912 0.950 . S
C910 C909 1.387 . S
C910 C913 1.387 . S
H911 C907 0.950 . S
H912 C909 0.950 . S
C913 C904 1.390 . S
C913 H906 0.950 . S
C913 C910 1.387 . S
C914 C915 1.387 . S
C914 H918 0.950 . S
C914 C923 1.390 . S
C915 C914 1.387 . S
C915 C917 1.387 . S
H916 C923 0.950 . S
C917 C915 1.387 . S
C917 C919 1.390 . S
C917 H921 0.950 . S
H918 C914 0.950 . S
C919 C917 1.390 . S
C919 C920 1.387 . S
C919 H922 0.950 . S
C920 C919 1.387 . S
C920 C923 1.387 . S
H921 C917 0.950 . S
H922 C919 0.950 . S
C923 C914 1.390 . S
C923 H916 0.950 . S
C923 C920 1.387 . S
C924 C925 1.387 . S
C924 H928 0.950 . S
C924 C933 1.390 . S
C925 C924 1.387 . S
C925 C927 1.387 . S
H926 C933 0.950 . S
C927 C925 1.387 . S
C927 C929 1.390 . S
C927 H931 0.950 . S
H928 C924 0.950 . S
C929 C927 1.390 . S
C929 C930 1.387 . S
C929 H932 0.950 . S
C930 C929 1.387 . S
C930 C933 1.387 . S
H931 C927 0.950 . S
H932 C929 0.950 . S
C933 C924 1.390 . S
C933 H926 0.950 . S
C933 C930 1.387 . S
C934 C935 1.387 . S
C934 H938 0.950 . S
C934 C943 1.390 . S
C935 C934 1.387 . S
C935 C937 1.387 . S
H936 C943 0.950 . S
C937 C935 1.387 . S
C937 C939 1.390 . S
C937 H941 0.950 . S
H938 C934 0.950 . S
C939 C937 1.390 . S
C939 C940 1.387 . S
C939 H942 0.950 . S
C940 C939 1.387 . S
C940 C943 1.387 . S
H941 C937 0.950 . S
H942 C939 0.950 . S
C943 C934 1.390 . S
C943 H936 0.950 . S
C943 C940 1.387 . S
C944 C945 1.387 . S
C944 H948 0.950 . S
C944 C953 1.390 . S
C945 C944 1.387 . S
C945 C947 1.387 . S
H946 C953 0.950 . S
C947 C945 1.387 . S
C947 C949 1.390 . S
C947 H951 0.950 . S
H948 C944 0.950 . S
C949 C947 1.390 . S
C949 C950 1.387 . S
C949 H952 0.950 . S
C950 C949 1.387 . S
C950 C953 1.387 . S
H951 C947 0.950 . S
H952 C949 0.950 . S
C953 C944 1.390 . S
C953 H946 0.950 . S
C953 C950 1.387 . S
C954 C955 1.387 . S
C954 H958 0.950 . S
C954 C963 1.390 . S
C955 C954 1.387 . S
C955 C957 1.387 . S
H956 C963 0.950 . S
C957 C955 1.387 . S
C957 C959 1.390 . S
C957 H961 0.950 . S
H958 C954 0.950 . S
C959 C957 1.390 . S
C959 C960 1.387 . S
C959 H962 0.950 . S
C960 C959 1.387 . S
C960 C963 1.387 . S
H961 C957 0.950 . S
H962 C959 0.950 . S
C963 C954 1.390 . S
C963 H956 0.950 . S
C963 C960 1.387 . S
C964 C965 1.387 . S
C964 H968 0.950 . S
C964 C973 1.390 . S
C965 C964 1.387 . S
C965 C967 1.387 . S
H966 C973 0.950 . S
C967 C965 1.387 . S
C967 C969 1.390 . S
C967 H971 0.950 . S
H968 C964 0.950 . S
C969 C967 1.390 . S
C969 C970 1.387 . S
C969 H972 0.950 . S
C970 C969 1.387 . S
C970 C973 1.387 . S
H971 C967 0.950 . S
H972 C969 0.950 . S
C973 C964 1.390 . S
C973 H966 0.950 . S
C973 C970 1.387 . S
C974 C975 1.387 . S
C974 H978 0.950 . S
C974 C983 1.390 . S
C975 C974 1.387 . S
C975 C977 1.387 . S
H976 C983 0.950 . S
C977 C975 1.387 . S
C977 C979 1.390 . S
C977 H981 0.950 . S
H978 C974 0.950 . S
C979 C977 1.390 . S
C979 C980 1.387 . S
C979 H982 0.950 . S
C980 C979 1.387 . S
C980 C983 1.387 . S
H981 C977 0.950 . S
H982 C979 0.950 . S
C983 C974 1.390 . S
C983 H976 0.950 . S
C983 C980 1.387 . S
C984 C985 1.387 . S
C984 H988 0.950 . S
C984 C993 1.390 . S
C985 C984 1.387 . S
C985 C987 1.387 . S
H986 C993 0.950 . S
C987 C985 1.387 . S
C987 C989 1.390 . S
C987 H991 0.950 . S
H988 C984 0.950 . S
C989 C987 1.390 . S
C989 C990 1.387 . S
C989 H992 0.950 . S
C990 C989 1.387 . S
C990 C993 1.387 . S
H991 C987 0.950 . S
H992 C989 0.950 . S
C993 C984 1.390 . S
C993 H986 0.950 . S
C993 C990 1.387 . S
C994 C995 1.387 . S
C994 H998 0.950 . S
C994 C1003 1.390 . S
C995 C994 1.387 . S
C995 C997 1.387 . S
H996 C1003 0.950 . S
C997 C995 1.387 . S
C997 C999 1.390 . S
C997 H1001 0.950 . S
H998 C994 0.950 . S
C999 C997 1.390 . S
C999 C1000 1.387 . S
C999 H1002 0.950 . S
C1000 C999 1.387 . S
C1000 C1003 1.387 . S
H1001 C997 0.950 . S
H1002 C999 0.950 . S
C1003 C994 1.390 . S
C1003 H996 0.950 . S
C1003 C1000 1.387 . S
C1004 C1005 1.387 . S
C1004 H1008 0.950 . S
C1004 C1013 1.390 . S
C1005 C1004 1.387 . S
C1005 C1007 1.387 . S
H1006 C1013 0.950 . S
C1007 C1005 1.387 . S
C1007 C1009 1.390 . S
C1007 H1011 0.950 . S
H1008 C1004 0.950 . S
C1009 C1007 1.390 . S
C1009 C1010 1.387 . S
C1009 H1012 0.950 . S
C1010 C1009 1.387 . S
C1010 C1013 1.387 . S
H1011 C1007 0.950 . S
H1012 C1009 0.950 . S
C1013 C1004 1.390 . S
C1013 H1006 0.950 . S
C1013 C1010 1.387 . S
C1014 C1015 1.387 . S
C1014 H1018 0.950 . S
C1014 C1023 1.390 . S
C1015 C1014 1.387 . S
C1015 C1017 1.387 . S
H1016 C1023 0.950 . S
C1017 C1015 1.387 . S
C1017 C1019 1.390 . S
C1017 H1021 0.950 . S
H1018 C1014 0.950 . S
C1019 C1017 1.390 . S
C1019 C1020 1.387 . S
C1019 H1022 0.950 . S
C1020 C1019 1.387 . S
C1020 C1023 1.387 . S
H1021 C1017 0.950 . S
H1022 C1019 0.950 . S
C1023 C1014 1.390 . S
C1023 H1016 0.950 . S
C1023 C1020 1.387 . S
C1024 C1025 1.387 . S
C1024 H1028 0.950 . S
C1024 C1033 1.390 . S
C1025 C1024 1.387 . S
C1025 C1027 1.387 . S
H1026 C1033 0.950 . S
C1027 C1025 1.387 . S
C1027 C1029 1.390 . S
C1027 H1031 0.950 . S
H1028 C1024 0.950 . S
C1029 C1027 1.390 . S
C1029 C1030 1.387 . S
C1029 H1032 0.950 . S
C1030 C1029 1.387 . S
C1030 C1033 1.387 . S
H1031 C1027 0.950 . S
H1032 C1029 0.950 . S
C1033 C1024 1.390 . S
C1033 H1026 0.950 . S
C1033 C1030 1.387 . S
C1034 C1035 1.387 . S
C1034 H1038 0.950 . S
C1034 C1043 1.390 . S
C1035 C1034 1.387 . S
C1035 C1037 1.387 . S
H1036 C1043 0.950 . S
C1037 C1035 1.387 . S
C1037 C1039 1.390 . S
C1037 H1041 0.950 . S
H1038 C1034 0.950 . S
C1039 C1037 1.390 . S
C1039 C1040 1.387 . S
C1039 H1042 0.950 . S
C1040 C1039 1.387 . S
C1040 C1043 1.387 . S
H1041 C1037 0.950 . S
H1042 C1039 0.950 . S
C1043 C1034 1.390 . S
C1043 H1036 0.950 . S
C1043 C1040 1.387 . S
C1044 C1045 1.387 . S
C1044 H1048 0.950 . S
C1044 C1053 1.390 . S
C1045 C1044 1.387 . S
C1045 C1047 1.387 . S
H1046 C1053 0.950 . S
C1047 C1045 1.387 . S
C1047 C1049 1.390 . S
C1047 H1051 0.950 . S
H1048 C1044 0.950 . S
C1049 C1047 1.390 . S
C1049 C1050 1.387 . S
C1049 H1052 0.950 . S
C1050 C1049 1.387 . S
C1050 C1053 1.387 . S
H1051 C1047 0.950 . S
H1052 C1049 0.950 . S
C1053 C1044 1.390 . S
C1053 H1046 0.950 . S
C1053 C1050 1.387 . S
C1054 C1055 1.387 . S
C1054 H1058 0.950 . S
C1054 C1063 1.390 . S
C1055 C1054 1.387 . S
C1055 C1057 1.387 . S
H1056 C1063 0.950 . S
C1057 C1055 1.387 . S
C1057 C1059 1.390 . S
C1057 H1061 0.950 . S
H1058 C1054 0.950 . S
C1059 C1057 1.390 . S
C1059 C1060 1.387 . S
C1059 H1062 0.950 . S
C1060 C1059 1.387 . S
C1060 C1063 1.387 . S
H1061 C1057 0.950 . S
H1062 C1059 0.950 . S
C1063 C1054 1.390 . S
C1063 H1056 0.950 . S
C1063 C1060 1.387 . S
C1064 C1065 1.387 . S
C1064 H1068 0.950 . S
C1064 C1073 1.390 . S
C1065 C1064 1.387 . S
C1065 C1067 1.387 . S
H1066 C1073 0.950 . S
C1067 C1065 1.387 . S
C1067 C1069 1.390 . S
C1067 H1071 0.950 . S
H1068 C1064 0.950 . S
C1069 C1067 1.390 . S
C1069 C1070 1.387 . S
C1069 H1072 0.950 . S
C1070 C1069 1.387 . S
C1070 C1073 1.387 . S
H1071 C1067 0.950 . S
H1072 C1069 0.950 . S
C1073 C1064 1.390 . S
C1073 H1066 0.950 . S
C1073 C1070 1.387 . S
C1074 C1075 1.387 . S
C1074 H1078 0.950 . S
C1074 C1083 1.390 . S
C1075 C1074 1.387 . S
C1075 C1077 1.387 . S
H1076 C1083 0.950 . S
C1077 C1075 1.387 . S
C1077 C1079 1.390 . S
C1077 H1081 0.950 . S
H1078 C1074 0.950 . S
C1079 C1077 1.390 . S
C1079 C1080 1.387 . S
C1079 H1082 0.950 . S
C1080 C1079 1.387 . S
C1080 C1083 1.387 . S
H1081 C1077 0.950 . S
H1082 C1079 0.950 . S
C1083 C1074 1.390 . S
C1083 H1076 0.950 . S
C1083 C1080 1.387 . S
C1084 C1085 1.387 . S
C1084 H1088 0.950 . S
C1084 C1093 1.390 . S
C1085 C1084 1.387 . S
C1085 C1087 1.387 . S
H1086 C1093 0.950 . S
C1087 C1085 1.387 . S
C1087 C1089 1.390 . S
C1087 H1091 0.950 . S
H1088 C1084 0.950 . S
C1089 C1087 1.390 . S
C1089 C1090 1.387 . S
C1089 H1092 0.950 . S
C1090 C1089 1.387 . S
C1090 C1093 1.387 . S
H1091 C1087 0.950 . S
H1092 C1089 0.950 . S
C1093 C1084 1.390 . S
C1093 H1086 0.950 . S
C1093 C1090 1.387 . S
C1094 C1095 1.387 . S
C1094 H1098 0.950 . S
C1094 C1103 1.390 . S
C1095 C1094 1.387 . S
C1095 C1097 1.387 . S
H1096 C1103 0.950 . S
C1097 C1095 1.387 . S
C1097 C1099 1.390 . S
C1097 H1101 0.950 . S
H1098 C1094 0.950 . S
C1099 C1097 1.390 . S
C1099 C1100 1.387 . S
C1099 H1102 0.950 . S
C1100 C1099 1.387 . S
C1100 C1103 1.387 . S
H1101 C1097 0.950 . S
H1102 C1099 0.950 . S
C1103 C1094 1.390 . S
C1103 H1096 0.950 . S
C1103 C1100 1.387 . S
C1104 C1105 1.387 . S
C1104 H1108 0.950 . S
C1104 C1113 1.390 . S
C1105 C1104 1.387 . S
C1105 C1107 1.387 . S
H1106 C1113 0.950 . S
C1107 C1105 1.387 . S
C1107 C1109 1.390 . S
C1107 H1111 0.950 . S
H1108 C1104 0.950 . S
C1109 C1107 1.390 . S
C1109 C1110 1.387 . S
C1109 H1112 0.950 . S
C1110 C1109 1.387 . S
C1110 C1113 1.387 . S
H1111 C1107 0.950 . S
H1112 C1109 0.950 . S
C1113 C1104 1.390 . S
C1113 H1106 0.950 . S
C1113 C1110 1.387 . S
C1114 C1115 1.387 . S
C1114 H1118 0.950 . S
C1114 C1123 1.390 . S
C1115 C1114 1.387 . S
C1115 C1117 1.387 . S
H1116 C1123 0.950 . S
C1117 C1115 1.387 . S
C1117 C1119 1.390 . S
C1117 H1121 0.950 . S
H1118 C1114 0.950 . S
C1119 C1117 1.390 . S
C1119 C1120 1.387 . S
C1119 H1122 0.950 . S
C1120 C1119 1.387 . S
C1120 C1123 1.387 . S
H1121 C1117 0.950 . S
H1122 C1119 0.950 . S
C1123 C1114 1.390 . S
C1123 H1116 0.950 . S
C1123 C1120 1.387 . S
C1124 C1125 1.387 . S
C1124 H1128 0.950 . S
C1124 C1133 1.390 . S
C1125 C1124 1.387 . S
C1125 C1127 1.387 . S
H1126 C1133 0.950 . S
C1127 C1125 1.387 . S
C1127 C1129 1.390 . S
C1127 H1131 0.950 . S
H1128 C1124 0.950 . S
C1129 C1127 1.390 . S
C1129 C1130 1.387 . S
C1129 H1132 0.950 . S
C1130 C1129 1.387 . S
C1130 C1133 1.387 . S
H1131 C1127 0.950 . S
H1132 C1129 0.950 . S
C1133 C1124 1.390 . S
C1133 H1126 0.950 . S
C1133 C1130 1.387 . S
C1134 C1135 1.387 . S
C1134 H1138 0.950 . S
C1134 C1143 1.390 . S
C1135 C1134 1.387 . S
C1135 C1137 1.387 . S
H1136 C1143 0.950 . S
C1137 C1135 1.387 . S
C1137 C1139 1.390 . S
C1137 H1141 0.950 . S
H1138 C1134 0.950 . S
C1139 C1137 1.390 . S
C1139 C1140 1.387 . S
C1139 H1142 0.950 . S
C1140 C1139 1.387 . S
C1140 C1143 1.387 . S
H1141 C1137 0.950 . S
H1142 C1139 0.950 . S
C1143 C1134 1.390 . S
C1143 H1136 0.950 . S
C1143 C1140 1.387 . S
C1144 C1145 1.387 . S
C1144 H1148 0.950 . S
C1144 C1153 1.390 . S
C1145 C1144 1.387 . S
C1145 C1147 1.387 . S
H1146 C1153 0.950 . S
C1147 C1145 1.387 . S
C1147 C1149 1.390 . S
C1147 H1151 0.950 . S
H1148 C1144 0.950 . S
C1149 C1147 1.390 . S
C1149 C1150 1.387 . S
C1149 H1152 0.950 . S
C1150 C1149 1.387 . S
C1150 C1153 1.387 . S
H1151 C1147 0.950 . S
H1152 C1149 0.950 . S
C1153 C1144 1.390 . S
C1153 H1146 0.950 . S
C1153 C1150 1.387 . S
C1154 C1155 1.387 . S
C1154 H1158 0.950 . S
C1154 C1163 1.390 . S
C1155 C1154 1.387 . S
C1155 C1157 1.387 . S
H1156 C1163 0.950 . S
C1157 C1155 1.387 . S
C1157 C1159 1.390 . S
C1157 H1161 0.950 . S
H1158 C1154 0.950 . S
C1159 C1157 1.390 . S
C1159 C1160 1.387 . S
C1159 H1162 0.950 . S
C1160 C1159 1.387 . S
C1160 C1163 1.387 . S
H1161 C1157 0.950 . S
H1162 C1159 0.950 . S
C1163 C1154 1.390 . S
C1163 H1156 0.950 . S
C1163 C1160 1.387 . S
C1164 C1165 1.387 . S
C1164 H1168 0.950 . S
C1164 C1173 1.390 . S
C1165 C1164 1.387 . S
C1165 C1167 1.387 . S
H1166 C1173 0.950 . S
C1167 C1165 1.387 . S
C1167 C1169 1.390 . S
C1167 H1171 0.950 . S
H1168 C1164 0.950 . S
C1169 C1167 1.390 . S
C1169 C1170 1.387 . S
C1169 H1172 0.950 . S
C1170 C1169 1.387 . S
C1170 C1173 1.387 . S
H1171 C1167 0.950 . S
H1172 C1169 0.950 . S
C1173 C1164 1.390 . S
C1173 H1166 0.950 . S
C1173 C1170 1.387 . S
C1174 C1175 1.387 . S
C1174 H1178 0.950 . S
C1174 C1183 1.390 . S
C1175 C1174 1.387 . S
C1175 C1177 1.387 . S
H1176 C1183 0.950 . S
C1177 C1175 1.387 . S
C1177 C1179 1.390 . S
C1177 H1181 0.950 . S
H1178 C1174 0.950 . S
C1179 C1177 1.390 . S
C1179 C1180 1.387 . S
C1179 H1182 0.950 . S
C1180 C1179 1.387 . S
C1180 C1183 1.387 . S
H1181 C1177 0.950 . S
H1182 C1179 0.950 . S
C1183 C1174 1.390 . S
C1183 H1176 0.950 . S
C1183 C1180 1.387 . S
C1184 C1185 1.387 . S
C1184 H1188 0.950 . S
C1184 C1193 1.390 . S
C1185 C1184 1.387 . S
C1185 C1187 1.387 . S
H1186 C1193 0.950 . S
C1187 C1185 1.387 . S
C1187 C1189 1.390 . S
C1187 H1191 0.950 . S
H1188 C1184 0.950 . S
C1189 C1187 1.390 . S
C1189 C1190 1.387 . S
C1189 H1192 0.950 . S
C1190 C1189 1.387 . S
C1190 C1193 1.387 . S
H1191 C1187 0.950 . S
H1192 C1189 0.950 . S
C1193 C1184 1.390 . S
C1193 H1186 0.950 . S
C1193 C1190 1.387 . S
C1194 C1195 1.387 . S
C1194 H1198 0.950 . S
C1194 C1203 1.390 . S
C1195 C1194 1.387 . S
C1195 C1197 1.387 . S
H1196 C1203 0.950 . S
C1197 C1195 1.387 . S
C1197 C1199 1.390 . S
C1197 H1201 0.950 . S
H1198 C1194 0.950 . S
C1199 C1197 1.390 . S
C1199 C1200 1.387 . S
C1199 H1202 0.950 . S
C1200 C1199 1.387 . S
C1200 C1203 1.387 . S
H1201 C1197 0.950 . S
H1202 C1199 0.950 . S
C1203 C1194 1.390 . S
C1203 H1196 0.950 . S
C1203 C1200 1.387 . S
C1204 C1205 1.387 . S
C1204 H1208 0.950 . S
C1204 C1213 1.390 . S
C1205 C1204 1.387 . S
C1205 C1207 1.387 . S
H1206 C1213 0.950 . S
C1207 C1205 1.387 . S
C1207 C1209 1.390 . S
C1207 H1211 0.950 . S
H1208 C1204 0.950 . S
C1209 C1207 1.390 . S
C1209 C1210 1.387 . S
C1209 H1212 0.950 . S
C1210 C1209 1.387 . S
C1210 C1213 1.387 . S
H1211 C1207 0.950 . S
H1212 C1209 0.950 . S
C1213 C1204 1.390 . S
C1213 H1206 0.950 . S
C1213 C1210 1.387 . S
C1214 C1215 1.387 . S
C1214 H1218 0.950 . S
C1214 C1223 1.390 . S
C1215 C1214 1.387 . S
C1215 C1217 1.387 . S
H1216 C1223 0.950 . S
C1217 C1215 1.387 . S
C1217 C1219 1.390 . S
C1217 H1221 0.950 . S
H1218 C1214 0.950 . S
C1219 C1217 1.390 . S
C1219 C1220 1.387 . S
C1219 H1222 0.950 . S
C1220 C1219 1.387 . S
C1220 C1223 1.387 . S
H1221 C1217 0.950 . S
H1222 C1219 0.950 . S
C1223 C1214 1.390 . S
C1223 H1216 0.950 . S
C1223 C1220 1.387 . S
C1224 C1225 1.387 . S
C1224 H1228 0.950 . S
C1224 C1233 1.390 . S
C1225 C1224 1.387 . S
C1225 C1227 1.387 . S
H1226 C1233 0.950 . S
C1227 C1225 1.387 . S
C1227 C1229 1.390 . S
C1227 H1231 0.950 . S
H1228 C1224 0.950 . S
C1229 C1227 1.390 . S
C1229 C1230 1.387 . S
C1229 H1232 0.950 . S
C1230 C1229 1.387 . S
C1230 C1233 1.387 . S
H1231 C1227 0.950 . S
H1232 C1229 0.950 . S
C1233 C1224 1.390 . S
C1233 H1226 0.950 . S
C1233 C1230 1.387 . S
C1234 C1235 1.387 . S
C1234 H1238 0.950 . S
C1234 C1243 1.390 . S
C1235 C1234 1.387 . S
C1235 C1237 1.387 . S
H1236 C1243 0.950 . S
C1237 C1235 1.387 . S
C1237 C1239 1.390 . S
C1237 H1241 0.950 . S
H1238 C1234 0.950 . S
C1239 C1237 1.390 . S
C1239 C1240 1.387 . S
C1239 H1242 0.950 . S
C1240 C1239 1.387 . S
C1240 C1243 1.387 . S
H1241 C1237 0.950 . S
H1242 C1239 0.950 . S
C1243 C1234 1.390 . S
C1243 H1236 0.950 . S
C1243 C1240 1.387 . S
C1244 C1245 1.387 . S
C1244 H1248 0.950 . S
C1244 C1253 1.390 . S
C1245 C1244 1.387 . S
C1245 C1247 1.387 . S
H1246 C1253 0.950 . S
C1247 C1245 1.387 . S
C1247 C1249 1.390 . S
C1247 H1251 0.950 . S
H1248 C1244 0.950 . S
C1249 C1247 1.390 . S
C1249 C1250 1.387 . S
C1249 H1252 0.950 . S
C1250 C1249 1.387 . S
C1250 C1253 1.387 . S
H1251 C1247 0.950 . S
H1252 C1249 0.950 . S
C1253 C1244 1.390 . S
C1253 H1246 0.950 . S
C1253 C1250 1.387 . S
C1254 C1255 1.387 . S
C1254 H1258 0.950 . S
C1254 C1263 1.390 . S
C1255 C1254 1.387 . S
C1255 C1257 1.387 . S
H1256 C1263 0.950 . S
C1257 C1255 1.387 . S
C1257 C1259 1.390 . S
C1257 H1261 0.950 . S
H1258 C1254 0.950 . S
C1259 C1257 1.390 . S
C1259 C1260 1.387 . S
C1259 H1262 0.950 . S
C1260 C1259 1.387 . S
C1260 C1263 1.387 . S
H1261 C1257 0.950 . S
H1262 C1259 0.950 . S
C1263 C1254 1.390 . S
C1263 H1256 0.950 . S
C1263 C1260 1.387 . S
C1264 C1265 1.387 . S
C1264 H1268 0.950 . S
C1264 C1273 1.390 . S
C1265 C1264 1.387 . S
C1265 C1267 1.387 . S
H1266 C1273 0.950 . S
C1267 C1265 1.387 . S
C1267 C1269 1.390 . S
C1267 H1271 0.950 . S
H1268 C1264 0.950 . S
C1269 C1267 1.390 . S
C1269 C1270 1.387 . S
C1269 H1272 0.950 . S
C1270 C1269 1.387 . S
C1270 C1273 1.387 . S
H1271 C1267 0.950 . S
H1272 C1269 0.950 . S
C1273 C1264 1.390 . S
C1273 H1266 0.950 . S
C1273 C1270 1.387 . S
C1274 C1275 1.387 . S
C1274 H1278 0.950 . S
C1274 C1283 1.390 . S
C1275 C1274 1.387 . S
C1275 C1277 1.387 . S
H1276 C1283 0.950 . S
C1277 C1275 1.387 . S
C1277 C1279 1.390 . S
C1277 H1281 0.950 . S
H1278 C1274 0.950 . S
C1279 C1277 1.390 . S
C1279 C1280 1.387 . S
C1279 H1282 0.950 . S
C1280 C1279 1.387 . S
C1280 C1283 1.387 . S
H1281 C1277 0.950 . S
H1282 C1279 0.950 . S
C1283 C1274 1.390 . S
C1283 H1276 0.950 . S
C1283 C1280 1.387 . S
C1284 C1285 1.387 . S
C1284 H1288 0.950 . S
C1284 C1293 1.390 . S
C1285 C1284 1.387 . S
C1285 C1287 1.387 . S
H1286 C1293 0.950 . S
C1287 C1285 1.387 . S
C1287 C1289 1.390 . S
C1287 H1291 0.950 . S
H1288 C1284 0.950 . S
C1289 C1287 1.390 . S
C1289 C1290 1.387 . S
C1289 H1292 0.950 . S
C1290 C1289 1.387 . S
C1290 C1293 1.387 . S
H1291 C1287 0.950 . S
H1292 C1289 0.950 . S
C1293 C1284 1.390 . S
C1293 H1286 0.950 . S
C1293 C1290 1.387 . S
C1294 C1295 1.387 . S
C1294 H1298 0.950 . S
C1294 C1303 1.390 . S
C1295 C1294 1.387 . S
C1295 C1297 1.387 . S
H1296 C1303 0.950 . S
C1297 C1295 1.387 . S
C1297 C1299 1.390 . S
C1297 H1301 0.950 . S
H1298 C1294 0.950 . S
C1299 C1297 1.390 . S
C1299 C1300 1.387 . S
C1299 H1302 0.950 . S
C1300 C1299 1.387 . S
C1300 C1303 1.387 . S
H1301 C1297 0.950 . S
H1302 C1299 0.950 . S
C1303 C1294 1.390 . S
C1303 H1296 0.950 . S
C1303 C1300 1.387 . S
C1304 C1305 1.387 . S
C1304 H1308 0.950 . S
C1304 C1313 1.390 . S
C1305 C1304 1.387 . S
C1305 C1307 1.387 . S
H1306 C1313 0.950 . S
C1307 C1305 1.387 . S
C1307 C1309 1.390 . S
C1307 H1311 0.950 . S
H1308 C1304 0.950 . S
C1309 C1307 1.390 . S
C1309 C1310 1.387 . S
C1309 H1312 0.950 . S
C1310 C1309 1.387 . S
C1310 C1313 1.387 . S
H1311 C1307 0.950 . S
H1312 C1309 0.950 . S
C1313 C1304 1.390 . S
C1313 H1306 0.950 . S
C1313 C1310 1.387 . S
C1314 C1315 1.387 . S
C1314 H1318 0.950 . S
C1314 C1323 1.390 . S
C1315 C1314 1.387 . S
C1315 C1317 1.387 . S
H1316 C1323 0.950 . S
C1317 C1315 1.387 . S
C1317 C1319 1.390 . S
C1317 H1321 0.950 . S
H1318 C1314 0.950 . S
C1319 C1317 1.390 . S
C1319 C1320 1.387 . S
C1319 H1322 0.950 . S
C1320 C1319 1.387 . S
C1320 C1323 1.387 . S
H1321 C1317 0.950 . S
H1322 C1319 0.950 . S
C1323 C1314 1.390 . S
C1323 H1316 0.950 . S
C1323 C1320 1.387 . S
C1324 C1325 1.387 . S
C1324 H1328 0.950 . S
C1324 C1333 1.390 . S
C1325 C1324 1.387 . S
C1325 C1327 1.387 . S
H1326 C1333 0.950 . S
C1327 C1325 1.387 . S
C1327 C1329 1.390 . S
C1327 H1331 0.950 . S
H1328 C1324 0.950 . S
C1329 C1327 1.390 . S
C1329 C1330 1.387 . S
C1329 H1332 0.950 . S
C1330 C1329 1.387 . S
C1330 C1333 1.387 . S
H1331 C1327 0.950 . S
H1332 C1329 0.950 . S
C1333 C1324 1.390 . S
C1333 H1326 0.950 . S
C1333 C1330 1.387 . S
C1334 C1335 1.387 . S
C1334 H1338 0.950 . S
C1334 C1343 1.390 . S
C1335 C1334 1.387 . S
C1335 C1337 1.387 . S
H1336 C1343 0.950 . S
C1337 C1335 1.387 . S
C1337 C1339 1.390 . S
C1337 H1341 0.950 . S
H1338 C1334 0.950 . S
C1339 C1337 1.390 . S
C1339 C1340 1.387 . S
C1339 H1342 0.950 . S
C1340 C1339 1.387 . S
C1340 C1343 1.387 . S
H1341 C1337 0.950 . S
H1342 C1339 0.950 . S
C1343 C1334 1.390 . S
C1343 H1336 0.950 . S
C1343 C1340 1.387 . S
C1344 C1345 1.387 . S
C1344 H1348 0.950 . S
C1344 C1353 1.390 1_554 S
C1345 C1344 1.387 . S
C1345 C1347 1.387 . S
H1346 C1353 0.950 . S
C1347 C1345 1.387 . S
C1347 C1349 1.390 1_554 S
C1347 H1351 0.950 . S
H1348 C1344 0.950 . S
C1349 C1347 1.390 1_556 S
C1349 C1350 1.387 . S
C1349 H1352 0.950 . S
C1350 C1349 1.387 . S
C1350 C1353 1.387 . S
H1351 C1347 0.950 . S
H1352 C1349 0.950 . S
C1353 C1344 1.390 1_556 S
C1353 H1346 0.950 . S
C1353 C1350 1.387 . S
C1354 C1355 1.387 . S
C1354 H1358 0.950 . S
C1354 C1363 1.390 1_556 S
C1355 C1354 1.387 . S
C1355 C1357 1.387 . S
H1356 C1363 0.950 . S
C1357 C1355 1.387 . S
C1357 C1359 1.390 1_556 S
C1357 H1361 0.950 . S
H1358 C1354 0.950 . S
C1359 C1357 1.390 1_554 S
C1359 C1360 1.387 . S
C1359 H1362 0.950 . S
C1360 C1359 1.387 . S
C1360 C1363 1.387 . S
H1361 C1357 0.950 . S
H1362 C1359 0.950 . S
C1363 C1354 1.390 1_554 S
C1363 H1356 0.950 . S
C1363 C1360 1.387 . S
C1364 C1365 1.387 . S
C1364 H1368 0.950 . S
C1364 C1373 1.390 1_554 S
C1365 C1364 1.387 . S
C1365 C1367 1.387 . S
H1366 C1373 0.950 . S
C1367 C1365 1.387 . S
C1367 C1369 1.390 1_554 S
C1367 H1371 0.950 . S
H1368 C1364 0.950 . S
C1369 C1367 1.390 1_556 S
C1369 C1370 1.387 . S
C1369 H1372 0.950 . S
C1370 C1369 1.387 . S
C1370 C1373 1.387 . S
H1371 C1367 0.950 . S
H1372 C1369 0.950 . S
C1373 C1364 1.390 1_556 S
C1373 H1366 0.950 . S
C1373 C1370 1.387 . S
C1374 C1375 1.387 . S
C1374 H1378 0.950 . S
C1374 C1383 1.390 1_554 S
C1375 C1374 1.387 . S
C1375 C1377 1.387 . S
H1376 C1383 0.950 . S
C1377 C1375 1.387 . S
C1377 C1379 1.390 1_554 S
C1377 H1381 0.950 . S
H1378 C1374 0.950 . S
C1379 C1377 1.390 1_556 S
C1379 C1380 1.387 . S
C1379 H1382 0.950 . S
C1380 C1379 1.387 . S
C1380 C1383 1.387 . S
H1381 C1377 0.950 . S
H1382 C1379 0.950 . S
C1383 C1374 1.390 1_556 S
C1383 H1376 0.950 . S
C1383 C1380 1.387 . S
C1384 C1385 1.387 . S
C1384 H1388 0.950 . S
C1384 C1393 1.390 1_556 S
C1385 C1384 1.387 . S
C1385 C1387 1.387 . S
H1386 C1393 0.950 . S
C1387 C1385 1.387 . S
C1387 C1389 1.390 1_556 S
C1387 H1391 0.950 . S
H1388 C1384 0.950 . S
C1389 C1387 1.390 1_554 S
C1389 C1390 1.387 . S
C1389 H1392 0.950 . S
C1390 C1389 1.387 . S
C1390 C1393 1.387 . S
H1391 C1387 0.950 . S
H1392 C1389 0.950 . S
C1393 C1384 1.390 1_554 S
C1393 H1386 0.950 . S
C1393 C1390 1.387 . S
C1394 C1395 1.387 . S
C1394 H1398 0.950 . S
C1394 C1403 1.390 1_554 S
C1395 C1394 1.387 . S
C1395 C1397 1.387 . S
H1396 C1403 0.950 . S
C1397 C1395 1.387 . S
C1397 C1399 1.390 1_554 S
C1397 H1401 0.950 . S
H1398 C1394 0.950 . S
C1399 C1397 1.390 1_556 S
C1399 C1400 1.387 . S
C1399 H1402 0.950 . S
C1400 C1399 1.387 . S
C1400 C1403 1.387 . S
H1401 C1397 0.950 . S
H1402 C1399 0.950 . S
C1403 C1394 1.390 1_556 S
C1403 H1396 0.950 . S
C1403 C1400 1.387 . S
C1404 C1405 1.387 . S
C1404 H1408 0.950 . S
C1404 C1413 1.390 1_556 S
C1405 C1404 1.387 . S
C1405 C1407 1.387 . S
H1406 C1413 0.950 . S
C1407 C1405 1.387 . S
C1407 C1409 1.390 1_556 S
C1407 H1411 0.950 . S
H1408 C1404 0.950 . S
C1409 C1407 1.390 1_554 S
C1409 C1410 1.387 . S
C1409 H1412 0.950 . S
C1410 C1409 1.387 . S
C1410 C1413 1.387 . S
H1411 C1407 0.950 . S
H1412 C1409 0.950 . S
C1413 C1404 1.390 1_554 S
C1413 H1406 0.950 . S
C1413 C1410 1.387 . S
C1414 C1415 1.387 . S
C1414 H1418 0.950 . S
C1414 C1423 1.390 1_554 S
C1415 C1414 1.387 . S
C1415 C1417 1.387 . S
H1416 C1423 0.950 . S
C1417 C1415 1.387 . S
C1417 C1419 1.390 1_554 S
C1417 H1421 0.950 . S
H1418 C1414 0.950 . S
C1419 C1417 1.390 1_556 S
C1419 C1420 1.387 . S
C1419 H1422 0.950 . S
C1420 C1419 1.387 . S
C1420 C1423 1.387 . S
H1421 C1417 0.950 . S
H1422 C1419 0.950 . S
C1423 C1414 1.390 1_556 S
C1423 H1416 0.950 . S
C1423 C1420 1.387 . S
C1424 C1425 1.387 . S
C1424 H1428 0.950 . S
C1424 C1433 1.390 1_455 S
C1425 C1424 1.387 . S
C1425 C1427 1.387 . S
H1426 C1433 0.950 . S
C1427 C1425 1.387 . S
C1427 C1429 1.390 1_455 S
C1427 H1431 0.950 . S
H1428 C1424 0.950 . S
C1429 C1427 1.390 1_655 S
C1429 C1430 1.387 . S
C1429 H1432 0.950 . S
C1430 C1429 1.387 . S
C1430 C1433 1.387 . S
H1431 C1427 0.950 . S
H1432 C1429 0.950 . S
C1433 C1424 1.390 1_655 S
C1433 H1426 0.950 . S
C1433 C1430 1.387 . S
C1434 C1435 1.387 . S
C1434 H1438 0.950 . S
C1434 C1443 1.390 1_565 S
C1435 C1434 1.387 . S
C1435 C1437 1.387 . S
H1436 C1443 0.950 . S
C1437 C1435 1.387 . S
C1437 C1439 1.390 1_565 S
C1437 H1441 0.950 . S
H1438 C1434 0.950 . S
C1439 C1437 1.390 1_545 S
C1439 C1440 1.387 . S
C1439 H1442 0.950 . S
C1440 C1439 1.387 . S
C1440 C1443 1.387 . S
H1441 C1437 0.950 . S
H1442 C1439 0.950 . S
C1443 C1434 1.390 1_545 S
C1443 H1436 0.950 . S
C1443 C1440 1.387 . S
C1444 C1445 1.387 . S
C1444 H1448 0.950 . S
C1444 C1453 1.390 1_455 S
C1445 C1444 1.387 . S
C1445 C1447 1.387 . S
H1446 C1453 0.950 . S
C1447 C1445 1.387 . S
C1447 C1449 1.390 1_455 S
C1447 H1451 0.950 . S
H1448 C1444 0.950 . S
C1449 C1447 1.390 1_655 S
C1449 C1450 1.387 . S
C1449 H1452 0.950 . S
C1450 C1449 1.387 . S
C1450 C1453 1.387 . S
H1451 C1447 0.950 . S
H1452 C1449 0.950 . S
C1453 C1444 1.390 1_655 S
C1453 H1446 0.950 . S
C1453 C1450 1.387 . S
C1454 C1455 1.387 . S
C1454 H1458 0.950 . S
C1454 C1463 1.390 1_565 S
C1455 C1454 1.387 . S
C1455 C1457 1.387 . S
H1456 C1463 0.950 . S
C1457 C1455 1.387 . S
C1457 C1459 1.390 1_565 S
C1457 H1461 0.950 . S
H1458 C1454 0.950 . S
C1459 C1457 1.390 1_545 S
C1459 C1460 1.387 . S
C1459 H1462 0.950 . S
C1460 C1459 1.387 . S
C1460 C1463 1.387 . S
H1461 C1457 0.950 . S
H1462 C1459 0.950 . S
C1463 C1454 1.390 1_545 S
C1463 H1456 0.950 . S
C1463 C1460 1.387 . S
C1464 C1465 1.387 . S
C1464 H1468 0.950 . S
C1464 C1473 1.390 1_655 S
C1465 C1464 1.387 . S
C1465 C1467 1.387 . S
H1466 C1473 0.950 . S
C1467 C1465 1.387 . S
C1467 C1469 1.390 1_655 S
C1467 H1471 0.950 . S
H1468 C1464 0.950 . S
C1469 C1467 1.390 1_455 S
C1469 C1470 1.387 . S
C1469 H1472 0.950 . S
C1470 C1469 1.387 . S
C1470 C1473 1.387 . S
H1471 C1467 0.950 . S
H1472 C1469 0.950 . S
C1473 C1464 1.390 1_455 S
C1473 H1466 0.950 . S
C1473 C1470 1.387 . S
C1474 C1475 1.387 . S
C1474 H1478 0.950 . S
C1474 C1483 1.390 1_545 S
C1475 C1474 1.387 . S
C1475 C1477 1.387 . S
H1476 C1483 0.950 . S
C1477 C1475 1.387 . S
C1477 C1479 1.390 1_545 S
C1477 H1481 0.950 . S
H1478 C1474 0.950 . S
C1479 C1477 1.390 1_565 S
C1479 C1480 1.387 . S
C1479 H1482 0.950 . S
C1480 C1479 1.387 . S
C1480 C1483 1.387 . S
H1481 C1477 0.950 . S
H1482 C1479 0.950 . S
C1483 C1474 1.390 1_565 S
C1483 H1476 0.950 . S
C1483 C1480 1.387 . S
C1484 C1485 1.387 . S
C1484 H1488 0.950 . S
C1484 C1493 1.390 1_455 S
C1485 C1484 1.387 . S
C1485 C1487 1.387 . S
H1486 C1493 0.950 . S
C1487 C1485 1.387 . S
C1487 C1489 1.390 1_455 S
C1487 H1491 0.950 . S
H1488 C1484 0.950 . S
C1489 C1487 1.390 1_655 S
C1489 C1490 1.387 . S
C1489 H1492 0.950 . S
C1490 C1489 1.387 . S
C1490 C1493 1.387 . S
H1491 C1487 0.950 . S
H1492 C1489 0.950 . S
C1493 C1484 1.390 1_655 S
C1493 H1486 0.950 . S
C1493 C1490 1.387 . S
C1494 C1495 1.387 . S
C1494 H1498 0.950 . S
C1494 C1503 1.390 1_545 S
C1495 C1494 1.387 . S
C1495 C1497 1.387 . S
H1496 C1503 0.950 . S
C1497 C1495 1.387 . S
C1497 C1499 1.390 1_545 S
C1497 H1501 0.950 . S
H1498 C1494 0.950 . S
C1499 C1497 1.390 1_565 S
C1499 C1500 1.387 . S
C1499 H1502 0.950 . S
C1500 C1499 1.387 . S
C1500 C1503 1.387 . S
H1501 C1497 0.950 . S
H1502 C1499 0.950 . S
C1503 C1494 1.390 1_565 S
C1503 H1496 0.950 . S
C1503 C1500 1.387 . S
C1504 C1505 1.387 . S
C1504 H1508 0.950 . S
C1504 C1513 1.390 1_545 S
C1505 C1504 1.387 . S
C1505 C1507 1.387 . S
H1506 C1513 0.950 . S
C1507 C1505 1.387 . S
C1507 C1509 1.390 1_545 S
C1507 H1511 0.950 . S
H1508 C1504 0.950 . S
C1509 C1507 1.390 1_565 S
C1509 C1510 1.387 . S
C1509 H1512 0.950 . S
C1510 C1509 1.387 . S
C1510 C1513 1.387 . S
H1511 C1507 0.950 . S
H1512 C1509 0.950 . S
C1513 C1504 1.390 1_565 S
C1513 H1506 0.950 . S
C1513 C1510 1.387 . S
C1514 C1515 1.387 . S
C1514 H1518 0.950 . S
C1514 C1523 1.390 1_545 S
C1515 C1514 1.387 . S
C1515 C1517 1.387 . S
H1516 C1523 0.950 . S
C1517 C1515 1.387 . S
C1517 C1519 1.390 1_545 S
C1517 H1521 0.950 . S
H1518 C1514 0.950 . S
C1519 C1517 1.390 1_565 S
C1519 C1520 1.387 . S
C1519 H1522 0.950 . S
C1520 C1519 1.387 . S
C1520 C1523 1.387 . S
H1521 C1517 0.950 . S
H1522 C1519 0.950 . S
C1523 C1514 1.390 1_565 S
C1523 H1516 0.950 . S
C1523 C1520 1.387 . S
C1524 C1525 1.387 . S
C1524 H1528 0.950 . S
C1524 C1533 1.390 1_655 S
C1525 C1524 1.387 . S
C1525 C1527 1.387 . S
H1526 C1533 0.950 . S
C1527 C1525 1.387 . S
C1527 C1529 1.390 1_655 S
C1527 H1531 0.950 . S
H1528 C1524 0.950 . S
C1529 C1527 1.390 1_455 S
C1529 C1530 1.387 . S
C1529 H1532 0.950 . S
C1530 C1529 1.387 . S
C1530 C1533 1.387 . S
H1531 C1527 0.950 . S
H1532 C1529 0.950 . S
C1533 C1524 1.390 1_455 S
C1533 H1526 0.950 . S
C1533 C1530 1.387 . S
C1534 C1535 1.387 . S
C1534 H1538 0.950 . S
C1534 C1543 1.390 1_545 S
C1535 C1534 1.387 . S
C1535 C1537 1.387 . S
H1536 C1543 0.950 . S
C1537 C1535 1.387 . S
C1537 C1539 1.390 1_545 S
C1537 H1541 0.950 . S
H1538 C1534 0.950 . S
C1539 C1537 1.390 1_565 S
C1539 C1540 1.387 . S
C1539 H1542 0.950 . S
C1540 C1539 1.387 . S
C1540 C1543 1.387 . S
H1541 C1537 0.950 . S
H1542 C1539 0.950 . S
C1543 C1534 1.390 1_565 S
C1543 H1536 0.950 . S
C1543 C1540 1.387 . S
C1544 C1545 1.387 . S
C1544 H1548 0.950 . S
C1544 C1553 1.390 1_455 S
C1545 C1544 1.387 . S
C1545 C1547 1.387 . S
H1546 C1553 0.950 . S
C1547 C1545 1.387 . S
C1547 C1549 1.390 1_455 S
C1547 H1551 0.950 . S
H1548 C1544 0.950 . S
C1549 C1547 1.390 1_655 S
C1549 C1550 1.387 . S
C1549 H1552 0.950 . S
C1550 C1549 1.387 . S
C1550 C1553 1.387 . S
H1551 C1547 0.950 . S
H1552 C1549 0.950 . S
C1553 C1544 1.390 1_655 S
C1553 H1546 0.950 . S
C1553 C1550 1.387 . S
C1554 C1555 1.387 . S
C1554 H1558 0.950 . S
C1554 C1563 1.390 1_545 S
C1555 C1554 1.387 . S
C1555 C1557 1.387 . S
H1556 C1563 0.950 . S
C1557 C1555 1.387 . S
C1557 C1559 1.390 1_545 S
C1557 H1561 0.950 . S
H1558 C1554 0.950 . S
C1559 C1557 1.390 1_565 S
C1559 C1560 1.387 . S
C1559 H1562 0.950 . S
C1560 C1559 1.387 . S
C1560 C1563 1.387 . S
H1561 C1557 0.950 . S
H1562 C1559 0.950 . S
C1563 C1554 1.390 1_565 S
C1563 H1556 0.950 . S
C1563 C1560 1.387 . S
C1564 C1565 1.387 . S
C1564 H1568 0.950 . S
C1564 C1573 1.390 1_655 S
C1565 C1564 1.387 . S
C1565 C1567 1.387 . S
H1566 C1573 0.950 . S
C1567 C1565 1.387 . S
C1567 C1569 1.390 1_655 S
C1567 H1571 0.950 . S
H1568 C1564 0.950 . S
C1569 C1567 1.390 1_455 S
C1569 C1570 1.387 . S
C1569 H1572 0.950 . S
C1570 C1569 1.387 . S
C1570 C1573 1.387 . S
H1571 C1567 0.950 . S
H1572 C1569 0.950 . S
C1573 C1564 1.390 1_455 S
C1573 H1566 0.950 . S
C1573 C1570 1.387 . S
C1574 C1575 1.387 . S
C1574 H1578 0.950 . S
C1574 C1583 1.390 1_455 S
C1575 C1574 1.387 . S
C1575 C1577 1.387 . S
H1576 C1583 0.950 . S
C1577 C1575 1.387 . S
C1577 C1579 1.390 1_455 S
C1577 H1581 0.950 . S
H1578 C1574 0.950 . S
C1579 C1577 1.390 1_655 S
C1579 C1580 1.387 . S
C1579 H1582 0.950 . S
C1580 C1579 1.387 . S
C1580 C1583 1.387 . S
H1581 C1577 0.950 . S
H1582 C1579 0.950 . S
C1583 C1574 1.390 1_655 S
C1583 H1576 0.950 . S
C1583 C1580 1.387 . S
C625 C517 1.422 . S
C630 C3 1.424 . S
C635 C17 1.420 . S
C640 C471 1.422 . S
C645 C31 1.421 . S
C650 C485 1.419 . S
C655 C498 1.417 . S
C660 C43 1.418 . S
C665 C439 1.415 . S
C670 C56 1.415 . S
C675 C70 1.426 . S
C680 C445 1.426 . S
C685 C88 1.417 . S
C690 C458 1.419 . S
C695 C94 1.428 . S
C700 C421 1.428 . S
C705 C114 1.422 . S
C710 C406 1.424 . S
C715 C374 1.417 . S
C720 C121 1.417 . S
C725 C380 1.420 . S
C730 C140 1.418 . S
C735 C146 1.422 . S
C740 C400 1.420 . S
C745 C161 1.417 . S
C750 C329 1.416 . S
C755 C172 1.425 . S
C760 C341 1.425 . S
C765 C355 1.411 . S
C770 C186 1.411 . S
C775 C315 1.424 . S
C780 C199 1.422 . S
C785 C218 1.420 . S
C790 C576 1.420 . S
C795 C616 1.422 . S
C800 C224 1.422 . S
C805 C589 1.416 . S
C810 C238 1.416 . S
C815 C603 1.422 . S
C820 C252 1.422 . S
C825 C530 1.419 . S
C830 C270 1.419 . S
C835 C550 1.421 . S
C840 C277 1.421 . S
C845 C291 1.421 . S
C850 C564 1.421 . S
C855 C536 1.421 . S
C860 C302 1.421 . S
C865 C426 1.422 . S
C870 C265 1.424 . S
C875 C225 1.418 . S
C880 C434 1.421 . S
C885 C446 1.418 . S
C890 C237 1.420 . S
C895 C459 1.413 . S
C900 C257 1.413 . S
C905 C303 1.411 . S
C910 C472 1.411 . S
C915 C484 1.425 . S
C920 C276 1.425 . S
C925 C296 1.415 . S
C930 C497 1.417 . S
C935 C213 1.428 . S
C940 C512 1.428 . S
C945 C525 1.428 . S
C950 C198 1.428 . S
C955 C166 1.417 . S
C960 C621 1.417 . S
C965 C588 1.421 . S
C970 C173 1.419 . S
C975 C185 1.422 . S
C980 C608 1.420 . S
C985 C120 1.417 . S
C990 C537 1.415 . S
C995 C135 1.426 . S
C1000 C549 1.426 . S
C1005 C147 1.412 . S
C1010 C569 1.411 . S
C1015 C575 1.428 . S
C1020 C109 1.428 . S
C1025 C316 1.418 . S
C1030 C95 1.418 . S
C1035 C369 1.423 . S
C1040 C16 1.423 . S
C1045 C381 1.416 . S
C1050 C36 1.416 . S
C1055 C395 1.423 . S
C1060 C42 1.423 . S
C1065 C407 1.417 . S
C1070 C4 1.418 . S
C1075 C75 1.421 . S
C1080 C342 1.421 . S
C1085 C354 1.421 . S
C1090 C83 1.421 . S
C1095 C328 1.421 . S
C1100 C55 1.421 . S
C1105 C10 1.557 . S
C1110 C348 1.558 . S
C1115 C356 1.567 . S
C1120 C18 1.567 . S
C1125 C30 1.556 . S
C1130 C322 1.556 . S
C1135 C44 1.567 . S
C1140 C330 1.567 . S
C1145 C57 1.567 . S
C1150 C393 1.566 . S
C1155 C413 1.557 . S
C1160 C69 1.558 . S
C1165 C81 1.567 . S
C1170 C367 1.566 . S
C1175 C387 1.556 . S
C1180 C101 1.557 . S
C1185 C107 1.558 . S
C1190 C478 1.562 . S
C1195 C486 1.568 . S
C1200 C122 1.568 . S
C1205 C133 1.568 . S
C1210 C499 1.568 . S
C1215 C153 1.562 . S
C1220 C510 1.558 . S
C1225 C160 1.556 . S
C1230 C420 1.556 . S
C1235 C179 1.563 . S
C1240 C432 1.561 . S
C1245 C452 1.564 . S
C1250 C187 1.562 . S
C1255 C200 1.560 . S
C1260 C465 1.564 . S
C1265 C563 1.563 . S
C1270 C211 1.559 . S
C1275 C231 1.563 . S
C1280 C590 1.560 . S
C1285 C239 1.560 . S
C1290 C602 1.563 . S
C1295 C523 1.560 . S
C1300 C251 1.563 . S
C1305 C615 1.566 . S
C1310 C263 1.563 . S
C1315 C278 1.558 . S
C1320 C543 1.560 . S
C1325 C551 1.557 . S
C1330 C290 1.561 . S
C1335 C309 1.563 . S
C1340 C577 1.560 . S
C1345 C556 1.557 . S
C1350 C264 1.557 . S
C1355 C226 1.566 . S
C1360 C562 1.567 . S
C1365 C582 1.557 . S
C1370 C244 1.556 . S
C1375 C538 1.566 . S
C1380 C250 1.567 . S
C1385 C601 1.566 . S
C1390 C304 1.567 . S
C1395 C283 1.558 . S
C1400 C524 1.558 . S
C1405 C614 1.566 . S
C1410 C289 1.567 . S
C1415 C212 1.557 . S
C1420 C595 1.557 . S
C1425 C433 1.554 . S
C1430 C205 1.554 . S
C1435 C159 1.568 . S
C1440 C447 1.567 . S
C1445 C174 1.570 . S
C1450 C460 1.569 . S
C1455 C419 1.559 . S
C1460 C192 1.561 . S
C1465 C127 1.556 . S
C1470 C511 1.556 . S
C1475 C473 1.562 . S
C1480 C134 1.565 . S
C1485 C148 1.562 . S
C1490 C491 1.565 . S
C1495 C108 1.556 . S
C1500 C504 1.557 . S
C1505 C361 1.563 . S
C1510 C96 1.560 . S
C1515 C23 1.563 . S
C1520 C382 1.560 . S
C1525 C29 1.561 . S
C1530 C394 1.563 . S
C1535 C408 1.563 . S
C1540 C49 1.566 . S
C1545 C5 1.563 . S
C1550 C368 1.566 . S
C1555 C68 1.557 . S
C1560 C335 1.561 . S
C1565 C82 1.561 . S
C1570 C343 1.557 . S
C1575 C62 1.566 . S
C1580 C317 1.564 . S
