# Generated by pormake.
# Topology swf, (7)-cn, num edge types: 1
# Building blocks:
#     Node 0, Type 0, BuildingBlock: HICVOG_clean_sbu_0, # of connection points: 7
#     Node 1, Type 0, BuildingBlock: HICVOG_clean_sbu_0, # of connection points: 7
#     Node 2, Type 0, BuildingBlock: HICVOG_clean_sbu_0, # of connection points: 7
#     Node 3, Type 0, BuildingBlock: HICVOG_clean_sbu_0, # of connection points: 7
#     Node 4, Type 0, BuildingBlock: HICVOG_clean_sbu_0, # of connection points: 7
#     Node 5, Type 0, BuildingBlock: HICVOG_clean_sbu_0, # of connection points: 7
#     Node 6, Type 0, BuildingBlock: HICVOG_clean_sbu_0, # of connection points: 7
#     Node 7, Type 0, BuildingBlock: HICVOG_clean_sbu_0, # of connection points: 7
#     Node 8, Type 0, BuildingBlock: HICVOG_clean_sbu_0, # of connection points: 7
#     Node 9, Type 0, BuildingBlock: HICVOG_clean_sbu_0, # of connection points: 7
#     Node 10, Type 0, BuildingBlock: HICVOG_clean_sbu_0, # of connection points: 7
#     Node 11, Type 0, BuildingBlock: HICVOG_clean_sbu_0, # of connection points: 7
#     Edge 12, Type (0, 0), BuildingBlock: TEMPAE_clean_linker_10, # of connection points: 2
#     Edge 13, Type (0, 0), BuildingBlock: TEMPAE_clean_linker_10, # of connection points: 2
#     Edge 14, Type (0, 0), BuildingBlock: TEMPAE_clean_linker_10, # of connection points: 2
#     Edge 15, Type (0, 0), BuildingBlock: TEMPAE_clean_linker_10, # of connection points: 2
#     Edge 16, Type (0, 0), BuildingBlock: TEMPAE_clean_linker_10, # of connection points: 2
#     Edge 17, Type (0, 0), BuildingBlock: TEMPAE_clean_linker_10, # of connection points: 2
#     Edge 18, Type (0, 0), BuildingBlock: TEMPAE_clean_linker_10, # of connection points: 2
#     Edge 19, Type (0, 0), BuildingBlock: TEMPAE_clean_linker_10, # of connection points: 2
#     Edge 20, Type (0, 0), BuildingBlock: TEMPAE_clean_linker_10, # of connection points: 2
#     Edge 21, Type (0, 0), BuildingBlock: TEMPAE_clean_linker_10, # of connection points: 2
#     Edge 22, Type (0, 0), BuildingBlock: TEMPAE_clean_linker_10, # of connection points: 2
#     Edge 23, Type (0, 0), BuildingBlock: TEMPAE_clean_linker_10, # of connection points: 2
#     Edge 24, Type (0, 0), BuildingBlock: TEMPAE_clean_linker_10, # of connection points: 2
#     Edge 25, Type (0, 0), BuildingBlock: TEMPAE_clean_linker_10, # of connection points: 2
#     Edge 26, Type (0, 0), BuildingBlock: TEMPAE_clean_linker_10, # of connection points: 2
#     Edge 27, Type (0, 0), BuildingBlock: TEMPAE_clean_linker_10, # of connection points: 2
#     Edge 28, Type (0, 0), BuildingBlock: TEMPAE_clean_linker_10, # of connection points: 2
#     Edge 29, Type (0, 0), BuildingBlock: TEMPAE_clean_linker_10, # of connection points: 2
#     Edge 30, Type (0, 0), BuildingBlock: TEMPAE_clean_linker_10, # of connection points: 2
#     Edge 31, Type (0, 0), BuildingBlock: TEMPAE_clean_linker_10, # of connection points: 2
#     Edge 32, Type (0, 0), BuildingBlock: TEMPAE_clean_linker_10, # of connection points: 2
#     Edge 33, Type (0, 0), BuildingBlock: TEMPAE_clean_linker_10, # of connection points: 2
#     Edge 34, Type (0, 0), BuildingBlock: TEMPAE_clean_linker_10, # of connection points: 2
#     Edge 35, Type (0, 0), BuildingBlock: TEMPAE_clean_linker_10, # of connection points: 2
#     Edge 36, Type (0, 0), BuildingBlock: TEMPAE_clean_linker_10, # of connection points: 2
#     Edge 37, Type (0, 0), BuildingBlock: TEMPAE_clean_linker_10, # of connection points: 2
#     Edge 38, Type (0, 0), BuildingBlock: TEMPAE_clean_linker_10, # of connection points: 2
#     Edge 39, Type (0, 0), BuildingBlock: TEMPAE_clean_linker_10, # of connection points: 2
#     Edge 40, Type (0, 0), BuildingBlock: TEMPAE_clean_linker_10, # of connection points: 2
#     Edge 41, Type (0, 0), BuildingBlock: TEMPAE_clean_linker_10, # of connection points: 2
#     Edge 42, Type (0, 0), BuildingBlock: TEMPAE_clean_linker_10, # of connection points: 2
#     Edge 43, Type (0, 0), BuildingBlock: TEMPAE_clean_linker_10, # of connection points: 2
#     Edge 44, Type (0, 0), BuildingBlock: TEMPAE_clean_linker_10, # of connection points: 2
#     Edge 45, Type (0, 0), BuildingBlock: TEMPAE_clean_linker_10, # of connection points: 2
#     Edge 46, Type (0, 0), BuildingBlock: TEMPAE_clean_linker_10, # of connection points: 2
#     Edge 47, Type (0, 0), BuildingBlock: TEMPAE_clean_linker_10, # of connection points: 2
#     Edge 48, Type (0, 0), BuildingBlock: TEMPAE_clean_linker_10, # of connection points: 2
#     Edge 49, Type (0, 0), BuildingBlock: TEMPAE_clean_linker_10, # of connection points: 2
#     Edge 50, Type (0, 0), BuildingBlock: TEMPAE_clean_linker_10, # of connection points: 2
#     Edge 51, Type (0, 0), BuildingBlock: TEMPAE_clean_linker_10, # of connection points: 2
#     Edge 52, Type (0, 0), BuildingBlock: TEMPAE_clean_linker_10, # of connection points: 2
#     Edge 53, Type (0, 0), BuildingBlock: TEMPAE_clean_linker_10, # of connection points: 2
# Relax obj value: 0.351
# Max RMSD: 0.195
# Mean RMSD: 0.195
data_MOF--net-swf--node1-HICVOG_clean_sbu_0--edge1-TEMPAE_clean_linker_10
_symmetry_space_group_name_H-M    P1
_symmetry_Int_Tables_number       1
_symmetry_cell_setting            triclinic
loop_
_symmetry_equiv_pos_as_xyz
'x, y, z'
_cell_length_a     47.453065
_cell_length_b     47.59729
_cell_length_c     24.941474
_cell_angle_alpha  90.144627
_cell_angle_beta   89.938184
_cell_angle_gamma 119.92387
loop_
_atom_site_label
_atom_site_type_symbol
_atom_site_fract_x
_atom_site_fract_y
_atom_site_fract_z
_atom_type_partial_charge
Zn0 Zn 0.45964 0.13365 1.00514 0.0
C1 C 0.46325 0.19692 0.11654 0.0
N2 N 0.46148 0.21391 0.07312 0.0
C3 C 0.46199 0.19675 1.02895 0.0
N4 N 0.46399 0.17058 1.04575 0.0
N5 N 0.46478 0.17053 0.09897 0.0
C6 C 0.43293 0.12207 0.22679 0.0
O7 O 0.41433 0.12624 0.19257 0.0
O8 O 0.4768 0.14809 0.93115 0.0
Zn9 Zn 0.47609 0.14028 0.13531 0.0
N10 N 0.41395 0.10326 1.00948 0.0
C11 C 0.36783 0.07678 0.06657 0.0
C12 C 0.40087 0.09795 0.05945 0.0
C13 C 0.39533 0.08839 0.96598 0.0
N14 N 0.34925 0.06122 1.02337 0.0
C15 C 0.36199 0.06615 0.97304 0.0
O16 O 0.46053 0.09311 0.10627 0.0
C17 C 0.47485 0.08872 0.06647 0.0
O18 O 0.48365 0.1088 1.02781 0.0
H19 H 0.41603 0.11016 0.09353 0.0
H20 H 0.4066 0.09412 0.92684 0.0
C21 C 0.5349 0.14027 0.12975 0.0
C22 C 0.56526 0.14922 0.10705 0.0
C23 C 0.57 0.19914 0.07978 0.0
C24 C 0.5395 0.18977 0.10158 0.0
N25 N 0.52235 0.16024 0.12532 0.0
N26 N 0.58208 0.17864 0.08272 0.0
H27 H 0.52033 0.11682 0.14818 0.0
C28 C 0.50572 0.17189 0.9327 0.0
O29 O 0.51791 0.18553 0.97921 0.0
O30 O 0.46205 0.13077 0.21331 0.0
H31 H 0.52901 0.20521 0.09701 0.0
H32 H 0.35708 0.07241 0.10612 0.0
H33 H 0.58373 0.22227 0.05984 0.0
Zn34 Zn 0.32193 0.44467 0.99885 0.0
C35 C 0.2615 0.43913 0.12156 0.0
N36 N 0.24144 0.43486 0.07863 0.0
C37 C 0.25973 0.43782 1.03404 0.0
N38 N 0.28954 0.4433 1.04962 0.0
N39 N 0.29103 0.44429 0.10306 0.0
C40 C 0.33819 0.42088 0.19975 0.0
O41 O 0.32988 0.40853 0.1513 0.0
O42 O 0.33282 0.48022 0.94398 0.0
Zn43 Zn 0.33408 0.46823 0.13931 0.0
N44 N 0.29845 0.40262 0.9674 0.0
C45 C 0.26185 0.34677 0.98346 0.0
C46 C 0.28249 0.37788 1.00261 0.0
C47 C 0.29504 0.3977 0.91367 0.0
N48 N 0.2585 0.34165 0.92981 0.0
C49 C 0.27448 0.36622 0.89404 0.0
O50 O 0.37558 0.47203 0.104 0.0
C51 C 0.38569 0.46382 0.0628 0.0
O52 O 0.36697 0.45107 1.02256 0.0
H53 H 0.28531 0.38251 1.0453 0.0
H54 H 0.30854 0.41804 0.88714 0.0
C55 C 0.33694 0.52923 0.17937 0.0
C56 C 0.33093 0.55495 0.16798 0.0
C57 C 0.33038 0.54417 0.07513 0.0
C58 C 0.33525 0.51843 0.08673 0.0
N59 N 0.33859 0.51132 0.1382 0.0
N60 N 0.32822 0.56171 0.11591 0.0
H61 H 0.33953 0.52294 0.21994 0.0
C62 C 0.3585 0.50697 0.95417 0.0
O63 O 0.37608 0.50919 0.99616 0.0
O64 O 0.33839 0.44736 0.20959 0.0
H65 H 0.33404 0.50264 0.05511 0.0
H66 H 0.24873 0.32682 1.01088 0.0
H67 H 0.32742 0.5496 1.03412 0.0
Zn68 Zn 0.86163 0.32987 0.98553 0.0
C69 C 0.81124 0.26992 0.10736 0.0
N70 N 0.79265 0.25026 0.06558 0.0
C71 C 0.80743 0.2675 1.01994 0.0
N72 N 0.83347 0.29632 1.03429 0.0
N73 N 0.83679 0.29779 0.08724 0.0
C74 C 0.90984 0.32083 0.18599 0.0
O75 O 0.91188 0.30895 0.13948 0.0
O76 O 0.83304 0.33335 0.93137 0.0
Zn77 Zn 0.87275 0.33866 0.11942 0.0
N78 N 0.8875 0.31382 0.95582 0.0
C79 C 0.91706 0.28644 0.97072 0.0
C80 C 0.89896 0.29984 0.99038 0.0
C81 C 0.89321 0.31509 0.90245 0.0
N82 N 0.92328 0.28806 0.91743 0.0
C83 C 0.9118 0.30201 0.88262 0.0
O84 O 0.91581 0.3669 0.07616 0.0
C85 C 0.91689 0.38675 1.04082 0.0
O86 O 0.89263 0.37751 1.00958 0.0
H87 H 0.89378 0.29893 1.03274 0.0
H88 H 0.88397 0.32678 0.87635 0.0
C89 C 0.82358 0.35701 0.12044 0.0
C90 C 0.81238 0.37935 0.11756 0.0
C91 C 0.86727 0.42244 0.122 0.0
C92 C 0.87775 0.40018 0.12919 0.0
N93 N 0.85591 0.36796 0.12638 0.0
N94 N 0.83501 0.41156 0.117 0.0
H95 H 0.80696 0.33122 0.11844 0.0
C96 C 0.81031 0.3373 0.95009 0.0
O97 O 0.8056 0.33568 1.00213 0.0
O98 O 0.89103 0.33267 0.18996 0.0
H99 H 0.90331 0.4085 0.13469 0.0
H100 H 0.92636 0.27513 0.9975 0.0
H101 H 0.88448 0.44818 0.12196 0.0
Zn102 Zn 0.53695 0.85812 0.13386 0.0
C103 C 0.54234 0.79581 1.02659 0.0
N104 N 0.54038 0.77763 0.07078 0.0
C105 C 0.54199 0.79637 0.11432 0.0
N106 N 0.5444 0.82472 0.09688 0.0
N107 N 0.54407 0.82393 1.04349 0.0
C108 C 0.50141 0.82672 0.93021 0.0
O109 O 0.48865 0.81278 0.97623 0.0
O110 O 0.55415 0.87167 0.21062 0.0
Zn111 Zn 0.55063 0.86159 1.00212 0.0
N112 N 0.49065 0.84 0.12791 0.0
C113 C 0.4413 0.80177 0.0854 0.0
C114 C 0.47173 0.81003 0.10626 0.0
C115 C 0.47984 0.86143 0.13154 0.0
N116 N 0.43112 0.82383 0.08691 0.0
C117 C 0.44971 0.85366 0.10928 0.0
O118 O 0.52883 0.88854 1.02485 0.0
C119 C 0.53875 0.90912 0.06288 0.0
O120 O 0.55363 0.90479 0.10165 0.0
H121 H 0.48072 0.79329 0.10241 0.0
H122 H 0.49563 0.88513 0.14854 0.0
C123 C 0.61284 0.91167 0.96342 0.0
C124 C 0.64666 0.93285 0.96744 0.0
C125 C 0.64705 0.90827 1.04985 0.0
C126 C 0.61367 0.88779 1.04594 0.0
N127 N 0.59715 0.89001 1.00312 0.0
N128 N 0.6627 0.93032 1.01075 0.0
H129 H 0.59888 0.91185 0.92937 0.0
C130 C 0.5839 0.89416 0.21029 0.0
O131 O 0.6002 0.89952 0.16534 0.0
O132 O 0.53138 0.84814 0.92883 0.0
H133 H 0.60118 0.87036 0.07713 0.0
H134 H 0.4262 0.7783 0.06707 0.0
H135 H 0.66042 0.9068 0.0838 0.0
Zn136 Zn 0.69149 0.54676 0.99444 0.0
C137 C 0.7503 0.54144 0.10758 0.0
N138 N 0.76822 0.54212 0.0636 0.0
C139 C 0.75045 0.54203 1.02001 0.0
N140 N 0.72261 0.54095 1.03766 0.0
N141 N 0.72252 0.54089 0.09114 0.0
C142 C 0.6832 0.59334 0.17333 0.0
O143 O 0.6729 0.59195 0.12404 0.0
O144 O 0.68707 0.52553 0.92286 0.0
Zn145 Zn 0.68546 0.53711 0.13597 0.0
N146 N 0.71083 0.59306 0.99266 0.0
C147 C 0.74072 0.64277 1.04022 0.0
C148 C 0.72516 0.60915 1.03878 0.0
C149 C 0.7117 0.60924 0.94756 0.0
N150 N 0.74117 0.65902 0.99546 0.0
C151 C 0.72701 0.6433 0.94891 0.0
O152 O 0.6411 0.52582 0.1032 0.0
C153 C 0.62667 0.52201 0.05864 0.0
O154 O 0.64262 0.5275 1.01514 0.0
H155 H 0.72463 0.59598 0.07424 0.0
H156 H 0.70107 0.59547 0.91135 0.0
C157 C 0.66993 0.50117 0.23194 0.0
C158 C 0.65893 0.47285 0.26199 0.0
C159 C 0.65511 0.44367 0.18224 0.0
C160 C 0.66576 0.47186 0.15252 0.0
N161 N 0.67315 0.4999 0.17818 0.0
N162 N 0.65181 0.44479 0.2361 0.0
H163 H 0.675 0.52378 0.25041 0.0
C164 C 0.68198 0.49671 0.92673 0.0
O165 O 0.68365 0.48579 0.97426 0.0
O166 O 0.69426 0.57477 0.18666 0.0
H167 H 0.66817 0.47155 0.10941 0.0
H168 H 0.75219 0.65588 0.07665 0.0
H169 H 0.64926 0.42106 0.16279 0.0
Zn170 Zn 0.15974 0.67565 0.12017 0.0
C171 C 0.20745 0.74974 1.01295 0.0
N172 N 0.2211 0.76847 0.05789 0.0
C173 C 0.20541 0.74828 0.10063 0.0
N174 N 0.18253 0.71827 0.08182 0.0
N175 N 0.18379 0.71939 1.02832 0.0
C176 C 0.18294 0.65043 0.95754 0.0
O177 O 0.1871 0.65393 1.00953 0.0
O178 O 0.13498 0.67369 0.19015 0.0
Zn179 Zn 0.15115 0.68627 0.97878 0.0
N180 N 0.19352 0.66386 0.12598 0.0
C181 C 0.24899 0.6785 0.11278 0.0
C182 C 0.22543 0.68719 0.12241 0.0
C183 C 0.18444 0.63208 0.12055 0.0
N184 N 0.23981 0.64679 0.10657 0.0
C185 C 0.20806 0.62314 0.10947 0.0
O186 O 0.10906 0.64471 1.00337 0.0
C187 C 0.10261 0.62605 1.04369 0.0
O188 O 0.12102 0.63587 0.08462 0.0
H189 H 0.23273 0.71248 0.12464 0.0
H190 H 0.15894 0.61422 0.12379 0.0
C191 C 0.1364 0.70719 0.88044 0.0
C192 C 0.13151 0.72875 0.84875 0.0
C193 C 0.13408 0.7585 0.92699 0.0
C194 C 0.13806 0.73658 0.95824 0.0
N195 N 0.13955 0.71167 0.93428 0.0
N196 N 0.13059 0.75391 0.87323 0.0
H197 H 0.137 0.68663 0.86319 0.0
C198 C 0.10893 0.67498 0.18386 0.0
O199 O 0.103 0.68273 0.13633 0.0
O200 O 0.16951 0.66424 0.93379 0.0
H201 H 0.14083 0.73987 1.00121 0.0
H202 H 0.27436 0.69687 0.10958 0.0
H203 H 0.13335 0.77875 0.94528 0.0
Zn204 Zn 0.86344 0.52136 0.49511 0.0
C205 C 0.81195 0.54274 0.60544 0.0
N206 N 0.79643 0.54549 0.56087 0.0
C207 C 0.81298 0.54266 0.51755 0.0
N208 N 0.83773 0.53804 0.53551 0.0
N209 N 0.837 0.53822 0.589 0.0
C210 C 0.82764 0.49648 0.70391 0.0
O211 O 0.81396 0.48521 0.65719 0.0
O212 O 0.89004 0.54862 0.42973 0.0
Zn213 Zn 0.87219 0.53996 0.63302 0.0
N214 N 0.82971 0.47702 0.48119 0.0
C215 C 0.78441 0.43154 0.52155 0.0
C216 C 0.8132 0.46113 0.52599 0.0
C217 C 0.81952 0.4636 0.43201 0.0
N218 N 0.77333 0.41878 0.47221 0.0
C219 C 0.79024 0.434 0.42724 0.0
O220 O 0.89675 0.51465 0.61708 0.0
C221 C 0.90929 0.51098 0.57438 0.0
O222 O 0.8998 0.51545 0.52925 0.0
H223 H 0.82195 0.47204 0.56473 0.0
H224 H 0.83318 0.47662 0.39694 0.0
C225 C 0.93694 0.59206 0.6343 0.0
C226 C 0.96216 0.62307 0.62054 0.0
C227 C 0.92314 0.63813 0.5968 0.0
C228 C 0.89821 0.60733 0.61064 0.0
N229 N 0.90559 0.58488 0.62916 0.0
N230 N 0.95447 0.6453 0.60205 0.0
H231 H 0.94206 0.57341 0.64731 0.0
C232 C 0.91719 0.57356 0.44192 0.0
O233 O 0.92285 0.58217 0.49262 0.0
O234 O 0.85446 0.52311 0.70603 0.0
H235 H 0.87325 0.60117 0.60461 0.0
H236 H 0.77075 0.41906 0.55696 0.0
H237 H 0.91765 0.65612 0.58154 0.0
Zn238 Zn 0.32964 0.8723 0.48448 0.0
C239 C 0.26874 0.80978 0.59932 0.0
N240 N 0.25056 0.792 0.55606 0.0
C241 C 0.26793 0.80926 0.51182 0.0
N242 N 0.2954 0.83669 0.52799 0.0
N243 N 0.2959 0.83687 0.58129 0.0
C244 C 0.35427 0.8516 0.67404 0.0
O245 O 0.3579 0.8487 0.62244 0.0
O246 O 0.31856 0.90547 0.454 0.0
Zn247 Zn 0.32273 0.87648 0.62225 0.0
N248 N 0.33618 0.8519 0.4246 0.0
C249 C 0.35586 0.81865 0.38953 0.0
C250 C 0.3492 0.83258 0.43317 0.0
C251 C 0.32963 0.85823 0.37456 0.0
N252 N 0.34981 0.82528 0.3394 0.0
C253 C 0.33687 0.84481 0.33044 0.0
O254 O 0.36867 0.91329 0.59601 0.0
C255 C 0.38757 0.9182 0.55624 0.0
O256 O 0.3764 0.90065 0.51437 0.0
H257 H 0.35433 0.82819 0.47357 0.0
H258 H 0.31934 0.87382 0.36954 0.0
C259 C 0.289 0.9047 0.67826 0.0
C260 C 0.26579 0.91485 0.68114 0.0
C261 C 0.2517 0.89982 0.59039 0.0
C262 C 0.27492 0.89017 0.58749 0.0
N263 N 0.29327 0.89297 0.63128 0.0
N264 N 0.24792 0.91231 0.63691 0.0
H265 H 0.3042 0.90697 0.71219 0.0
C266 C 0.32852 0.93291 0.47651 0.0
O267 O 0.33848 0.93672 0.52641 0.0
O268 O 0.33636 0.86311 0.68906 0.0
H269 H 0.27826 0.88051 0.55037 0.0
H270 H 0.36612 0.80305 0.39525 0.0
H271 H 0.23712 0.89784 0.55575 0.0
Zn272 Zn 0.45692 0.31444 0.64098 0.0
C273 C 0.46213 0.25545 0.52749 0.0
N274 N 0.45923 0.23645 0.57115 0.0
C275 C 0.46019 0.2544 0.6152 0.0
N276 N 0.46293 0.28296 0.59804 0.0
N277 N 0.46549 0.2843 0.54481 0.0
C278 C 0.44187 0.32574 0.44247 0.0
O279 O 0.42877 0.31685 0.49032 0.0
O280 O 0.48426 0.32359 0.70746 0.0
Zn281 Zn 0.48943 0.32708 0.5081 0.0
N282 N 0.41013 0.29507 0.64621 0.0
C283 C 0.35701 0.25168 0.62595 0.0
C284 C 0.39009 0.26333 0.63324 0.0
C285 C 0.39836 0.31574 0.65068 0.0
N286 N 0.34527 0.27233 0.63095 0.0
C287 C 0.36505 0.30423 0.64296 0.0
O288 O 0.49097 0.36881 0.53677 0.0
C289 C 0.48441 0.38025 0.57788 0.0
O290 O 0.47194 0.36205 0.61841 0.0
H291 H 0.39967 0.24727 0.62672 0.0
H292 H 0.41516 0.34111 0.65796 0.0
C293 C 0.55602 0.36806 0.53224 0.0
C294 C 0.5866 0.37578 0.55355 0.0
C295 C 0.57266 0.32084 0.54268 0.0
C296 C 0.54259 0.31357 0.5215 0.0
N297 N 0.53472 0.33733 0.51637 0.0
N298 N 0.59401 0.35169 0.55772 0.0
H299 H 0.54911 0.38631 0.52748 0.0
C300 C 0.51329 0.33354 0.69167 0.0
O301 O 0.51857 0.33304 0.64009 0.0
O302 O 0.46979 0.32844 0.43483 0.0
H303 H 0.52545 0.2888 0.51163 0.0
H304 H 0.34084 0.22654 0.61562 0.0
H305 H 0.57898 0.30206 0.54721 0.0
Zn306 Zn 0.13795 0.44035 0.50719 0.0
C307 C 0.20175 0.4405 0.62017 0.0
N308 N 0.2189 0.43978 0.5761 0.0
C309 C 0.20118 0.43999 0.53245 0.0
N310 N 0.17403 0.44039 0.54965 0.0
N311 N 0.17497 0.44173 0.603 0.0
C312 C 0.17524 0.48267 0.72089 0.0
O313 O 0.19242 0.49586 0.6774 0.0
O314 O 0.11755 0.40609 0.44817 0.0
Zn315 Zn 0.13747 0.4382 0.64203 0.0
N316 N 0.15763 0.48086 0.47246 0.0
C317 C 0.18888 0.53824 0.47395 0.0
C318 C 0.17583 0.50866 0.50051 0.0
C319 C 0.15134 0.48109 0.41964 0.0
N320 N 0.18305 0.5385 0.42071 0.0
C321 C 0.16459 0.51057 0.39264 0.0
O322 O 0.11543 0.46464 0.61729 0.0
C323 C 0.09511 0.4563 0.57894 0.0
O324 O 0.09734 0.44007 0.54024 0.0
H325 H 0.17996 0.50773 0.54295 0.0
H326 H 0.13578 0.45848 0.39935 0.0
C327 C 0.07363 0.38354 0.63296 0.0
C328 C 0.05083 0.35216 0.61487 0.0
C329 C 0.09339 0.3398 0.60768 0.0
C330 C 0.11585 0.3712 0.62374 0.0
N331 N 0.10557 0.39254 0.63575 0.0
N332 N 0.06156 0.33109 0.60342 0.0
H333 H 0.06662 0.40108 0.64418 0.0
C334 C 0.08901 0.38284 0.45781 0.0
O335 O 0.07915 0.37746 0.50774 0.0
O336 O 0.14951 0.45518 0.71728 0.0
H337 H 0.14139 0.37869 0.62479 0.0
H338 H 0.20352 0.56076 0.49529 0.0
H339 H 0.10124 0.32264 0.59776 0.0
Zn340 Zn 0.69173 0.1408 0.62159 0.0
C341 C 0.74841 0.21148 0.51768 0.0
N342 N 0.76601 0.22777 0.56249 0.0
C343 C 0.74864 0.20871 0.60521 0.0
N344 N 0.72163 0.18168 0.58593 0.0
N345 N 0.72099 0.1837 0.53288 0.0
C346 C 0.65604 0.09329 0.43515 0.0
O347 O 0.63519 0.10366 0.43009 0.0
O348 O 0.67633 0.15259 0.6885 0.0
Zn349 Zn 0.68212 0.15133 0.49161 0.0
N350 N 0.71748 0.12018 0.62838 0.0
C351 C 0.75413 0.10698 0.58497 0.0
C352 C 0.73462 0.12119 0.58394 0.0
C353 C 0.71899 0.10555 0.67386 0.0
N354 N 0.75541 0.09197 0.63026 0.0
C355 C 0.73857 0.09116 0.67496 0.0
O356 O 0.63642 0.13134 0.5277 0.0
C357 C 0.6265 0.10719 0.55925 0.0
O358 O 0.64705 0.10557 0.59007 0.0
H359 H 0.73299 0.1328 0.54783 0.0
H360 H 0.70441 0.10444 0.70808 0.0
C361 C 0.68779 0.16762 0.38248 0.0
C362 C 0.6807 0.17957 0.33643 0.0
C363 C 0.66003 0.2062 0.3913 0.0
C364 C 0.66557 0.19278 0.43672 0.0
N365 N 0.67914 0.17371 0.43109 0.0
N366 N 0.66716 0.19883 0.34239 0.0
H367 H 0.69893 0.15266 0.38017 0.0
C368 C 0.66417 0.1702 0.67576 0.0
O369 O 0.66524 0.1786 0.62533 0.0
O370 O 0.68195 0.1105 0.46243 0.0
H371 H 0.65881 0.19708 0.47603 0.0
H372 H 0.76777 0.10748 0.54986 0.0
H373 H 0.6493 0.22154 0.39462 0.0
Zn374 Zn 0.52755 0.66954 0.50105 0.0
C375 C 0.54381 0.73841 0.61198 0.0
N376 N 0.53999 0.75391 0.56841 0.0
C377 C 0.54051 0.73648 0.5246 0.0
N378 N 0.54351 0.7108 0.54124 0.0
N379 N 0.54615 0.71233 0.5944 0.0
C380 C 0.50997 0.67038 0.70609 0.0
O381 O 0.49712 0.67113 0.65995 0.0
O382 O 0.55145 0.67238 0.43082 0.0
Zn383 Zn 0.56045 0.68608 0.63451 0.0
N384 N 0.48303 0.65737 0.49363 0.0
C385 C 0.43316 0.6378 0.54069 0.0
C386 C 0.46459 0.64284 0.53762 0.0
C387 C 0.47152 0.66723 0.45243 0.0
N388 N 0.42115 0.64669 0.49887 0.0
C389 C 0.43933 0.66109 0.4544 0.0
O390 O 0.54855 0.63864 0.6129 0.0
C391 C 0.53363 0.61879 0.57476 0.0
O392 O 0.52454 0.62838 0.53422 0.0
H393 H 0.47469 0.63615 0.57074 0.0
H394 H 0.48739 0.67977 0.41902 0.0
C395 C 0.62704 0.7162 0.67317 0.0
C396 C 0.66083 0.73664 0.6677 0.0
C397 C 0.65315 0.75026 0.57993 0.0
C398 C 0.61975 0.72994 0.58537 0.0
N399 N 0.60729 0.71315 0.63171 0.0
N400 N 0.67299 0.7529 0.62097 0.0
H401 H 0.61656 0.70219 0.70923 0.0
C402 C 0.57933 0.67499 0.43767 0.0
O403 O 0.59109 0.67948 0.48653 0.0
O404 O 0.53974 0.67782 0.70773 0.0
H405 H 0.60398 0.72759 0.55255 0.0
H406 H 0.41828 0.62661 0.5757 0.0
H407 H 0.66326 0.76351 0.54314 0.0
C408 C 0.38569 0.09054 0.28841 0.0
C409 C 0.41783 0.10032 0.27358 0.0
C410 C 0.36876 0.06521 0.3252 0.0
C411 C 0.38423 0.04902 0.3474 0.0
C412 C 0.4173 0.0601 0.33508 0.0
C413 C 0.43374 0.08572 0.29863 0.0
C414 C 0.3338 0.05468 0.33814 0.0
C415 C 0.43483 0.04369 0.35805 0.0
C416 C 0.35101 0.99283 0.46793 0.0
C417 C 0.33706 0.96212 0.44357 0.0
C418 C 0.36515 0.02136 0.43715 0.0
C419 C 0.36545 0.01921 0.38057 0.0
C420 C 0.34967 0.98827 0.35567 0.0
C421 C 0.33564 0.96013 0.3874 0.0
C422 C 0.3813 0.05378 0.46536 0.0
C423 C 0.34916 0.98483 0.29545 0.0
H424 H 0.37326 0.10185 0.26965 0.0
H425 H 0.45856 0.09305 0.28757 0.0
H426 H 0.31766 0.0306 0.31983 0.0
H427 H 0.32972 0.05211 0.38209 0.0
H428 H 0.32655 0.07206 0.32284 0.0
H429 H 0.46105 0.05651 0.34737 0.0
H430 H 0.43259 0.04234 0.40236 0.0
H431 H 0.42349 0.01845 0.3427 0.0
H432 H 0.35216 0.99472 0.51128 0.0
H433 H 0.32499 0.9366 0.36808 0.0
H434 H 0.37395 0.07032 0.44683 0.0
H435 H 0.40807 0.06529 0.46117 0.0
H436 H 0.37527 0.05145 0.50876 0.0
H437 H 0.34006 0.99982 0.27641 0.0
H438 H 0.33365 0.95929 0.28227 0.0
H439 H 0.37428 0.99378 0.28063 0.0
C440 C 0.34861 0.37602 0.22579 0.0
C441 C 0.35151 0.40622 0.23799 0.0
C442 C 0.36359 0.36271 0.25739 0.0
C443 C 0.38222 0.37991 0.3027 0.0
C444 C 0.38497 0.41025 0.31583 0.0
C445 C 0.36954 0.423 0.28347 0.0
C446 C 0.35957 0.3302 0.242 0.0
C447 C 0.40455 0.42944 0.36376 0.0
C448 C 0.39452 0.33135 0.41271 0.0
C449 C 0.42623 0.3373 0.40289 0.0
C450 C 0.38012 0.34505 0.38066 0.0
C451 C 0.39769 0.36542 0.33724 0.0
C452 C 0.42949 0.37106 0.32625 0.0
C453 C 0.44336 0.35691 0.35907 0.0
C454 C 0.34611 0.33796 0.39379 0.0
C455 C 0.44908 0.39251 0.28029 0.0
H456 H 0.33481 0.36273 0.19082 0.0
H457 H 0.37225 0.44644 0.29309 0.0
H458 H 0.38373 0.33258 0.23462 0.0
H459 H 0.34811 0.31277 0.2754 0.0
H460 H 0.34441 0.31991 0.20549 0.0
H461 H 0.40458 0.45267 0.36852 0.0
H462 H 0.39458 0.41495 0.40082 0.0
H463 H 0.43004 0.43479 0.35972 0.0
H464 H 0.38094 0.31627 0.44635 0.0
H465 H 0.46793 0.36197 0.35133 0.0
H466 H 0.32991 0.32657 0.35876 0.0
H467 H 0.34626 0.3609 0.40255 0.0
H468 H 0.33563 0.32158 0.42882 0.0
H469 H 0.43586 0.38267 0.242 0.0
H470 H 0.47345 0.39471 0.27703 0.0
H471 H 0.45227 0.41709 0.28551 0.0
C472 C 0.06957 0.38366 0.36433 0.0
C473 C 0.06423 0.3685 0.41448 0.0
C474 C 0.044 0.3742 0.32726 0.0
C475 C 0.01238 0.34866 0.34025 0.0
C476 C 0.00733 0.33217 0.38962 0.0
C477 C 0.0332 0.34237 0.42612 0.0
C478 C 0.05052 0.39255 0.27521 0.0
C479 C 0.97426 0.30451 0.40486 0.0
C480 C 0.93977 0.34726 0.2714 0.0
C481 C 0.93332 0.32524 0.2293 0.0
C482 C 0.96519 0.35486 0.30806 0.0
C483 C 0.98443 0.33982 0.30299 0.0
C484 C 0.97715 0.31662 0.26188 0.0
C485 C 0.95188 0.30976 0.22549 0.0
C486 C 0.97212 0.37978 0.35125 0.0
C487 C 0.99656 0.29955 0.25556 0.0
H488 H 0.09334 0.40402 0.35503 0.0
H489 H 0.02879 0.33048 0.46474 0.0
H490 H 0.03603 0.405 0.27378 0.0
H491 H 0.07662 0.41097 0.2702 0.0
H492 H 0.0428 0.37552 0.24077 0.0
H493 H 0.97487 0.29272 0.44289 0.0
H494 H 0.95694 0.31359 0.40967 0.0
H495 H 0.96467 0.28597 0.37258 0.0
H496 H 0.92574 0.3595 0.27458 0.0
H497 H 0.94706 0.29262 0.19327 0.0
H498 H 0.99701 0.40072 0.34594 0.0
H499 H 0.97125 0.36933 0.39133 0.0
H500 H 0.95455 0.38876 0.35064 0.0
H501 H 0.02222 0.31747 0.246 0.0
H502 H 0.98681 0.28094 0.2233 0.0
H503 H 0.99663 0.28765 0.29373 0.0
C504 C 0.62834 0.94689 0.24569 0.0
C505 C 0.59821 0.91867 0.25418 0.0
C506 C 0.63989 0.9736 0.28048 0.0
C507 C 0.62137 0.97202 0.32603 0.0
C508 C 0.59227 0.94264 0.33742 0.0
C509 C 0.58083 0.9164 0.30109 0.0
C510 C 0.67064 0.00446 0.26584 0.0
C511 C 0.57202 0.93972 0.38601 0.0
C512 C 0.66173 0.0434 0.42448 0.0
C513 C 0.64865 0.0626 0.40758 0.0
C514 C 0.65242 0.0133 0.39954 0.0
C515 C 0.62993 0.00248 0.3563 0.0
C516 C 0.61686 0.02197 0.33919 0.0
C517 C 0.62636 0.0516 0.36488 0.0
C518 C 0.66645 0.99297 0.41954 0.0
C519 C 0.59333 0.01199 0.2927 0.0
H520 H 0.6422 0.94903 0.20986 0.0
H521 H 0.55768 0.8947 0.30831 0.0
H522 H 0.66431 0.02284 0.25236 0.0
H523 H 0.68685 0.01464 0.30113 0.0
H524 H 0.68428 1.00063 0.23311 0.0
H525 H 0.55338 0.91412 0.39423 0.0
H526 H 0.58769 0.94999 0.42193 0.0
H527 H 0.55943 0.95377 0.37938 0.0
H528 H 0.67868 0.05157 0.45775 0.0
H529 H 0.61634 0.06638 0.35102 0.0
H530 H 0.68078 0.98987 0.38728 0.0
H531 H 0.64652 0.96843 0.43042 0.0
H532 H 0.68242 0.00397 0.45501 0.0
H533 H 0.60655 0.01439 0.25472 0.0
H534 H 0.58157 0.02707 0.28988 0.0
H535 H 0.57392 0.98629 0.29633 0.0
C536 C 0.67141 0.63724 0.19917 0.0
C537 C 0.67471 0.61065 0.21429 0.0
C538 C 0.6579 0.65059 0.23423 0.0
C539 C 0.64651 0.63647 0.28531 0.0
C540 C 0.65065 0.61016 0.30141 0.0
C541 C 0.66506 0.59784 0.26598 0.0
C542 C 0.65496 0.67923 0.21593 0.0
C543 C 0.63846 0.594 0.3551 0.0
C544 C 0.63049 0.68164 0.39708 0.0
C545 C 0.59668 0.66857 0.39387 0.0
C546 C 0.64713 0.67232 0.36093 0.0
C547 C 0.62949 0.64861 0.32128 0.0
C548 C 0.59541 0.63592 0.31693 0.0
C549 C 0.57949 0.64636 0.35283 0.0
C550 C 0.68352 0.68727 0.36609 0.0
C551 C 0.57554 0.61026 0.27581 0.0
H552 H 0.67875 0.64721 0.15922 0.0
H553 H 0.66702 0.57695 0.27766 0.0
H554 H 0.62894 0.67185 0.21102 0.0
H555 H 0.66527 0.69876 0.24659 0.0
H556 H 0.6676 0.68922 0.17723 0.0
H557 H 0.64435 0.57446 0.3623 0.0
H558 H 0.6492 0.6121 0.38787 0.0
H559 H 0.61169 0.58337 0.35722 0.0
H560 H 0.64394 0.69887 0.42866 0.0
H561 H 0.55333 0.63585 0.35054 0.0
H562 H 0.6954 0.6969 0.3268 0.0
H563 H 0.68954 0.6685 0.37839 0.0
H564 H 0.69398 0.70724 0.39604 0.0
H565 H 0.58511 0.619 0.23497 0.0
H566 H 0.54945 0.60329 0.27684 0.0
H567 H 0.57751 0.58831 0.28316 0.0
C568 C 0.97211 0.61953 0.41619 0.0
C569 C 0.94419 0.59021 0.40219 0.0
C570 C 0.99947 0.6343 0.38229 0.0
C571 C 0.99936 0.61938 0.33299 0.0
C572 C 0.97112 0.58994 0.31825 0.0
C573 C 0.94386 0.57585 0.35277 0.0
C574 C 0.02866 0.66582 0.39959 0.0
C575 C 0.96997 0.57296 0.26641 0.0
C576 C 0.0577 0.67045 0.22128 0.0
C577 C 0.08298 0.66329 0.22581 0.0
C578 C 0.03079 0.65679 0.25622 0.0
C579 C 0.02856 0.63488 0.29661 0.0
C580 C 0.05427 0.62795 0.30207 0.0
C581 C 0.08124 0.64239 0.26696 0.0
C582 C 1.00444 0.66546 0.24933 0.0
C583 C 0.05288 0.60456 0.34415 0.0
H584 H 0.97278 0.63091 0.45424 0.0
H585 H 0.92266 0.55306 0.34172 0.0
H586 H 0.05031 0.66279 0.40276 0.0
H587 H 0.0342 0.68479 0.36903 0.0
H588 H 0.02484 0.67451 0.43885 0.0
H589 H 0.94641 0.55021 0.26074 0.0
H590 H 0.97392 0.58922 0.23196 0.0
H591 H 0.98983 0.56706 0.26571 0.0
H592 H 0.05871 0.68655 0.18972 0.0
H593 H 0.10037 0.63636 0.27052 0.0
H594 H 1.00065 0.67515 0.28749 0.0
H595 H 0.98113 0.64343 0.2391 0.0
H596 H 0.0103 0.68377 0.21734 0.0
H597 H 0.05022 0.61275 0.38455 0.0
H598 H 0.07493 0.60204 0.3439 0.0
H599 H 0.03125 0.58033 0.33725 0.0
C600 C 0.73864 0.0834 0.7734 0.0
C601 C 0.73771 0.07195 0.72133 0.0
C602 C 0.73028 0.06248 0.8172 0.0
C603 C 0.72026 0.02947 0.80799 0.0
C604 C 0.72244 0.01868 0.75606 0.0
C605 C 0.73152 0.04031 0.71316 0.0
C606 C 0.72919 0.07503 0.87237 0.0
C607 C 0.71169 0.98356 0.74469 0.0
C608 C 0.69914 0.97043 0.92248 0.0
C609 C 0.66537 0.95769 0.92645 0.0
C610 C 0.71764 0.99439 0.88481 0.0
C611 C 0.70186 0.00536 0.84981 0.0
C612 C 0.66791 0.99286 0.85367 0.0
C613 C 0.65016 0.96955 0.8925 0.0
C614 C 0.75395 0.00787 0.88236 0.0
C615 C 0.65023 0.00401 0.81663 0.0
H616 H 0.74423 0.10822 0.77949 0.0
H617 H 0.73099 0.03165 0.67269 0.0
H618 H 0.70364 0.06752 0.88271 0.0
H619 H 0.73833 0.06471 0.90306 0.0
H620 H 0.74374 0.10191 0.87439 0.0
H621 H 0.71975 0.98026 0.7045 0.0
H622 H 0.72121 0.97365 0.7754 0.0
H623 H 0.68474 0.96911 0.74619 0.0
H624 H 0.71121 0.96162 0.94872 0.0
H625 H 0.62446 0.96112 0.89634 0.0
H626 H 0.76684 0.03466 0.88629 0.0
H627 H 0.76075 1.00222 0.84289 0.0
H628 H 0.76269 0.99788 0.91435 0.0
H629 H 0.65974 0.03038 0.82196 0.0
H630 H 0.62359 0.99108 0.82394 0.0
H631 H 0.6545 1.00002 0.77424 0.0
C632 C 0.75004 0.69555 0.89923 0.0
C633 C 0.72685 0.66241 0.90246 0.0
C634 C 0.74777 0.71524 0.85984 0.0
C635 C 0.72174 0.7013 0.82301 0.0
C636 C 0.69941 0.66757 0.82399 0.0
C637 C 0.70203 0.64862 0.86403 0.0
C638 C 0.77203 0.7511 0.85989 0.0
C639 C 0.67143 0.65171 0.78475 0.0
C640 C 0.67588 0.73809 0.76334 0.0
C641 C 0.68311 0.73754 0.70914 0.0
C642 C 0.69188 0.73046 0.80267 0.0
C643 C 0.71511 0.72171 0.78676 0.0
C644 C 0.72551 0.72541 0.73282 0.0
C645 C 0.70933 0.73348 0.69434 0.0
C646 C 0.68096 0.72782 0.86022 0.0
C647 C 0.75065 0.71685 0.71469 0.0
H648 H 0.76946 0.7064 0.92855 0.0
H649 H 0.68343 0.62336 0.86651 0.0
H650 H 0.77815 0.76079 0.81851 0.0
H651 H 0.76129 0.76413 0.88086 0.0
H652 H 0.7948 0.75656 0.88106 0.0
H653 H 0.65804 0.62486 0.78806 0.0
H654 H 0.65404 0.66046 0.79227 0.0
H655 H 0.68038 0.65829 0.74301 0.0
H656 H 0.65628 0.74237 0.77467 0.0
H657 H 0.7152 0.73359 0.65227 0.0
H658 H 0.70206 0.73749 0.88785 0.0
H659 H 0.66462 0.70191 0.8703 0.0
H660 H 0.66749 0.74103 0.86726 0.0
H661 H 0.7705 0.72474 0.74455 0.0
H662 H 0.76129 0.72798 0.67532 0.0
H663 H 0.739 0.69013 0.71044 0.0
C664 C 0.13179 0.70365 0.75977 0.0
C665 C 0.12224 0.72183 0.79165 0.0
C666 C 0.11524 0.68926 0.71196 0.0
C667 C 0.08832 0.69262 0.69721 0.0
C668 C 0.08254 0.71546 0.72438 0.0
C669 C 0.09988 0.73004 0.77113 0.0
C670 C 0.12458 0.668 0.68072 0.0
C671 C 0.05497 0.72111 0.70884 0.0
C672 C 0.02101 0.65648 0.5976 0.0
C673 C 0.99654 0.63312 0.63038 0.0
C674 C 0.05348 0.67292 0.6148 0.0
C675 C 0.06095 0.66664 0.66668 0.0
C676 C 0.03715 0.63975 0.69608 0.0
C677 C 1.00516 0.62323 0.67737 0.0
C678 C 0.07883 0.69906 0.57971 0.0
C679 C 0.04422 0.63123 0.75091 0.0
H680 H 0.15072 0.699 0.77349 0.0
H681 H 0.09329 0.74515 0.79444 0.0
H682 H 0.11515 0.64439 0.70142 0.0
H683 H 0.11481 0.66352 0.63923 0.0
H684 H 0.15148 0.67937 0.67901 0.0
H685 H 0.05502 0.74096 0.73247 0.0
H686 H 0.05665 0.72744 0.6658 0.0
H687 H 0.03132 0.69865 0.71537 0.0
H688 H 0.01456 0.66334 0.5601 0.0
H689 H 0.98647 0.60494 0.70267 0.0
H690 H 0.10388 0.70553 0.59174 0.0
H691 H 0.07648 0.72107 0.58209 0.0
H692 H 0.07492 0.69102 0.53716 0.0
H693 H 0.06601 0.62841 0.74935 0.0
H694 H 0.0236 0.60837 0.76665 0.0
H695 H 0.04924 0.65102 0.77969 0.0
C696 C 0.30697 0.0325 0.93265 0.0
C697 C 0.34086 0.04644 0.92839 0.0
C698 C 0.28616 0.01014 0.89449 0.0
C699 C 0.29972 1.00168 0.85127 0.0
C700 C 0.33388 0.01687 0.84522 0.0
C701 C 0.35401 0.03882 0.88409 0.0
C702 C 0.24985 0.99435 0.90223 0.0
C703 C 0.34932 0.00869 0.79913 0.0
C704 C 0.26744 0.92278 0.78002 0.0
C705 C 0.26389 0.93218 0.72852 0.0
C706 C 0.27475 0.944 0.82334 0.0
C707 C 0.27899 0.9752 0.81412 0.0
C708 C 0.27082 0.98283 0.76388 0.0
C709 C 0.26317 0.96099 0.72139 0.0
C710 C 0.28209 0.93458 0.87705 0.0
C711 C 0.27443 0.01564 0.75296 0.0
H712 H 0.29658 0.03832 0.96671 0.0
H713 H 0.37997 0.04855 0.88076 0.0
H714 H 0.23712 0.99092 0.86343 0.0
H715 H 0.24068 0.97005 0.92032 0.0
H716 H 0.24337 0.00879 0.9294 0.0
H717 H 0.37618 0.0245 0.79821 0.0
H718 H 0.34362 0.98314 0.80255 0.0
H719 H 0.33936 0.01119 0.76035 0.0
H720 H 0.26677 0.89987 0.78576 0.0
H721 H 0.25982 0.96797 0.68158 0.0
H722 H 0.27385 0.94422 0.91036 0.0
H723 H 0.30876 0.94495 0.88105 0.0
H724 H 0.27028 0.90786 0.88119 0.0
H725 H 0.26649 0.02439 0.78792 0.0
H726 H 0.26025 0.01507 0.71716 0.0
H727 H 0.30044 0.03339 0.74544 0.0
C728 C 0.36375 0.34993 0.68993 0.0
C729 C 0.35052 0.32506 0.65159 0.0
C730 C 0.34533 0.36292 0.71055 0.0
C731 C 0.31284 0.35024 0.69287 0.0
C732 C 0.30189 0.33004 0.64717 0.0
C733 C 0.3207 0.31708 0.62746 0.0
C734 C 0.35907 0.38655 0.75684 0.0
C735 C 0.26897 0.31921 0.62286 0.0
C736 C 0.26875 0.32823 0.82162 0.0
C737 C 0.273 0.35848 0.83636 0.0
C738 C 0.27689 0.32311 0.77021 0.0
C739 C 0.28909 0.34888 0.73269 0.0
C740 C 0.28701 0.37687 0.74407 0.0
C741 C 0.27946 0.38169 0.79643 0.0
C742 C 0.27688 0.29185 0.75915 0.0
C743 C 0.29577 0.40315 0.70308 0.0
H744 H 0.38698 0.35696 0.70833 0.0
H745 H 0.31097 0.29902 0.59583 0.0
H746 H 0.35509 0.40732 0.75024 0.0
H747 H 0.34654 0.37437 0.79457 0.0
H748 H 0.38557 0.39615 0.76222 0.0
H749 H 0.27042 0.31861 0.57845 0.0
H750 H 0.25155 0.29421 0.63622 0.0
H751 H 0.25939 0.33541 0.63441 0.0
H752 H 0.26239 0.30961 0.85169 0.0
H753 H 0.2804 0.40427 0.80654 0.0
H754 H 0.30227 0.29676 0.75569 0.0
H755 H 0.2643 0.28104 0.72085 0.0
H756 H 0.26462 0.27366 0.79138 0.0
H757 H 0.31853 0.42525 0.71532 0.0
H758 H 0.27632 0.40963 0.70154 0.0
H759 H 0.29897 0.39576 0.66231 0.0
C760 C 1.00364 0.36227 0.62005 0.0
C761 C 0.0154 0.34059 0.61377 0.0
C762 C 0.97394 0.35212 0.64596 0.0
C763 C 0.95616 0.31978 0.66404 0.0
C764 C 0.96294 0.29647 0.64195 0.0
C765 C 0.9932 0.30722 0.61753 0.0
C766 C 0.96512 0.37711 0.66319 0.0
C767 C 0.94181 0.26099 0.65448 0.0
C768 C 0.95346 0.31328 0.81466 0.0
C769 C 0.92171 0.30565 0.82614 0.0
C770 C 0.96481 0.31828 0.76215 0.0
C771 C 0.94327 0.31427 0.71939 0.0
C772 C 0.91073 0.30581 0.73066 0.0
C773 C 0.90052 0.30231 0.78429 0.0
C774 C 1.00017 0.32828 0.7533 0.0
C775 C 0.88656 0.30072 0.68716 0.0
H776 H 0.01897 0.38771 0.61122 0.0
H777 H 1.00081 0.2897 0.60857 0.0
H778 H 0.93851 0.36719 0.6599 0.0
H779 H 0.97216 0.38373 0.70578 0.0
H780 H 0.97788 0.39946 0.63865 0.0
H781 H 0.94376 0.24577 0.62249 0.0
H782 H 0.94999 0.25549 0.69273 0.0
H783 H 0.91598 0.25453 0.65904 0.0
H784 H 0.9699 0.31632 0.84722 0.0
H785 H 0.8759 0.29655 0.7933 0.0
H786 H 0.01254 0.35102 0.7298 0.0
H787 H 1.00196 0.30907 0.73097 0.0
H788 H 0.01373 0.33248 0.79151 0.0
H789 H 0.88372 0.32246 0.68489 0.0
H790 H 0.86231 0.2798 0.69714 0.0
H791 H 0.89404 0.29648 0.6472 0.0
C792 C 0.54472 0.96213 0.10089 0.0
C793 C 0.52983 0.93585 0.06471 0.0
C794 C 0.53629 0.987 0.10274 0.0
C795 C 0.51176 0.98582 0.06831 0.0
C796 C 0.49623 0.95898 1.03255 0.0
C797 C 0.50552 0.93481 1.0309 0.0
C798 C 0.55383 0.01474 0.14169 0.0
C799 C 0.46951 0.95564 0.99577 0.0
C800 C 0.46917 0.0356 0.10242 0.0
C801 C 0.48425 0.06236 0.06748 0.0
C802 C 0.47778 0.01088 0.10323 0.0
C803 C 0.50267 0.01265 0.06899 0.0
C804 C 0.51843 0.04 1.03449 0.0
C805 C 0.50896 0.06405 1.03384 0.0
C806 C 0.45962 0.98237 0.14019 0.0
C807 C 0.54552 0.04395 0.99797 0.0
H808 H 0.56333 0.96349 0.12767 0.0
H809 H 0.49325 0.91466 1.00327 0.0
H810 H 0.56587 0.03811 0.11973 0.0
H811 H 0.53612 0.01563 0.16974 0.0
H812 H 0.57249 0.01264 0.16542 0.0
H813 H 0.45951 0.93342 0.97059 0.0
H814 H 0.44939 0.95482 1.01971 0.0
H815 H 0.47886 0.97708 0.9691 0.0
H816 H 0.45012 0.03366 0.1288 0.0
H817 H 0.52136 0.08459 1.00712 0.0
H818 H 0.47689 0.97866 0.16496 0.0
H819 H 0.44539 0.96011 0.11591 0.0
H820 H 0.44266 0.98537 0.16718 0.0
H821 H 0.56543 0.04448 1.02204 0.0
H822 H 0.55568 0.06653 0.97386 0.0
H823 H 0.53647 0.02292 0.9703 0.0
C824 C 0.43267 0.45804 0.09906 0.0
C825 C 0.4205 0.47092 0.06077 0.0
C826 C 0.46547 0.46489 0.09787 0.0
C827 C 0.48765 0.48655 0.059 0.0
C828 C 0.47547 0.5001 1.0209 0.0
C829 C 0.44218 0.4916 1.02151 0.0
C830 C 0.47627 0.4486 0.13818 0.0
C831 C 0.49784 0.52438 0.98013 0.0
C832 C 0.57959 0.52817 0.0928 0.0
C833 C 0.59113 0.51276 0.05812 0.0
C834 C 0.54656 0.52049 0.09263 0.0
C835 C 0.52347 0.49549 0.05877 0.0
C836 C 0.53492 0.47931 1.02452 0.0
C837 C 0.56846 0.48861 1.02368 0.0
C838 C 0.53656 0.5397 0.12821 0.0
C839 C 0.51157 0.45161 0.98934 0.0
H840 H 0.41628 0.44203 0.12959 0.0
H841 H 0.43331 0.50204 0.99207 0.0
H842 H 0.48835 0.43679 0.11738 0.0
H843 H 0.49431 0.46691 0.16602 0.0
H844 H 0.45564 0.43006 0.16217 0.0
H845 H 0.48531 0.53419 0.9553 0.0
H846 H 0.51874 0.54485 1.00076 0.0
H847 H 0.50784 0.51295 0.95316 0.0
H848 H 0.59673 0.54702 0.11936 0.0
H849 H 0.57682 0.47628 0.99698 0.0
H850 H 0.51884 0.52359 0.15863 0.0
H851 H 0.52432 0.55004 0.10397 0.0
H852 H 0.55759 0.55979 0.14934 0.0
H853 H 0.49139 0.43304 1.01397 0.0
H854 H 0.5236 0.43993 0.96791 0.0
H855 H 0.50064 0.46042 0.95922 0.0
C856 C 0.0562 0.5766 0.08909 0.0
C857 C 0.07419 0.59157 1.04246 0.0
C858 C 0.03039 0.54388 0.08909 0.0
C859 C 0.02283 0.52451 1.04192 0.0
C860 C 0.04137 0.53942 0.99497 0.0
C861 C 0.06615 0.5726 0.99554 0.0
C862 C 0.01106 0.53008 0.13986 0.0
C863 C 0.03557 0.52006 0.94412 0.0
C864 C 0.97583 0.43081 0.05844 0.0
C865 C 0.9443 0.42183 1.04052 0.0
C866 C 1.00146 0.46366 0.05823 0.0
C867 C 0.99565 0.48894 1.0416 0.0
C868 C 0.96363 0.47998 1.02456 0.0
C869 C 0.9388 0.44688 1.02333 0.0
C870 C 0.03504 0.47127 0.07517 0.0
C871 C 0.95536 0.50553 1.00835 0.0
H872 H 0.06204 0.59072 0.12573 0.0
H873 H 0.08009 0.58344 0.95944 0.0
H874 H 0.98468 0.51913 0.13142 0.0
H875 H 0.01507 0.51054 0.15539 0.0
H876 H 0.01788 0.54877 0.17167 0.0
H877 H 0.05273 0.53451 0.91166 0.0
H878 H 0.03819 0.49855 0.95219 0.0
H879 H 0.01038 0.51102 0.92972 0.0
H880 H 0.98067 0.41198 0.07178 0.0
H881 H 0.91462 0.44066 1.01009 0.0
H882 H 0.03613 0.44912 0.08533 0.0
H883 H 0.04301 0.48755 0.11059 0.0
H884 H 0.05261 0.48427 1.04241 0.0
H885 H 0.96161 0.52337 1.04135 0.0
H886 H 0.92918 0.49503 0.99845 0.0
H887 H 0.96996 0.51897 0.97293 0.0
C888 C 0.93906 0.4849 0.61954 0.0
C889 C 0.93626 0.50258 0.57673 0.0
C890 C 0.96421 0.47688 0.62151 0.0
C891 C 0.98816 0.4873 0.58023 0.0
C892 C 0.98583 0.50589 0.53763 0.0
C893 C 0.95991 0.51273 0.53596 0.0
C894 C 0.96393 0.45613 0.66733 0.0
C895 C 0.01116 0.51914 0.49389 0.0
C896 C 0.07001 0.49032 0.61016 0.0
C897 C 0.06771 0.46417 0.58007 0.0
C898 C 0.04474 0.49819 0.61024 0.0
C899 C 0.01546 0.47893 0.58107 0.0
C900 C 0.01267 0.45191 0.55196 0.0
C901 C 0.03882 0.44541 0.55079 0.0
C902 C 0.04943 0.52734 0.64161 0.0
C903 C 0.98165 0.42933 0.52267 0.0
H904 H 0.92107 0.47662 0.65128 0.0
H905 H 0.95859 0.52678 0.50292 0.0
H906 H 0.9473 0.43032 0.65692 0.0
H907 H 0.98827 0.4593 0.67586 0.0
H908 H 0.95447 0.46144 0.70448 0.0
H909 H 0.00733 0.53488 0.46549 0.0
H910 H 0.03576 0.53342 0.51183 0.0
H911 H 0.01068 0.49892 0.47098 0.0
H912 H 0.092 0.5052 0.63294 0.0
H913 H 0.03627 0.42494 0.52769 0.0
H914 H 0.03083 0.51952 0.67373 0.0
H915 H 0.046 0.54403 0.61491 0.0
H916 H 0.07392 0.54084 0.66024 0.0
H917 H 0.96061 0.42082 0.55032 0.0
H918 H 0.98202 0.40787 0.50588 0.0
H919 H 0.97774 0.44239 0.48936 0.0
C920 C 0.4341 0.96997 0.59749 0.0
C921 C 0.42276 0.94581 0.55742 0.0
C922 C 0.46656 0.99647 0.59786 0.0
C923 C 0.48913 0.99925 0.55765 0.0
C924 C 0.47791 0.97479 0.51738 0.0
C925 C 0.44518 0.94883 0.5175 0.0
C926 C 0.47667 0.02176 0.64136 0.0
C927 C 0.50063 0.97591 0.47399 0.0
C928 C 0.56685 0.08214 0.53 0.0
C929 C 0.59113 0.07997 0.55915 0.0
C930 C 0.5339 0.05651 0.5295 0.0
C931 C 0.52438 0.02728 0.55819 0.0
C932 C 0.54885 0.02491 0.58735 0.0
C933 C 0.58145 0.05102 0.58775 0.0
C934 C 0.50913 0.0608 0.49817 0.0
C935 C 0.54065 0.99448 0.61799 0.0
H936 H 0.41738 0.96846 0.62848 0.0
H937 H 0.43721 0.93064 0.48614 0.0
H938 H 0.49694 0.02277 0.66503 0.0
H939 H 0.48575 0.04603 0.62317 0.0
H940 H 0.45637 0.01683 0.66905 0.0
H941 H 0.48863 0.95504 0.44592 0.0
H942 H 0.50996 0.99866 0.45071 0.0
H943 H 0.52195 0.97593 0.49227 0.0
H944 H 0.57354 0.10405 0.50757 0.0
H945 H 0.59959 0.0485 0.61026 0.0
H946 H 0.48908 0.05758 0.52504 0.0
H947 H 0.49824 0.04198 0.46646 0.0
H948 H 0.51988 0.08504 0.47905 0.0
H949 H 0.52189 0.98978 0.64872 0.0
H950 H 0.56222 0.99601 0.63823 0.0
H951 H 0.53027 0.97337 0.59033 0.0
C952 C 0.54567 0.57455 0.60654 0.0
C953 C 0.52624 0.58374 0.57709 0.0
C954 C 0.53937 0.54196 0.60702 0.0
C955 C 0.51223 0.51707 0.57886 0.0
C956 C 0.49216 0.52617 0.55006 0.0
C957 C 0.49963 0.55905 0.54884 0.0
C958 C 0.56224 0.53425 0.63705 0.0
C959 C 0.4625 0.501 0.52042 0.0
C960 C 0.51031 0.4373 0.53768 0.0
C961 C 0.49156 0.41529 0.57836 0.0
C962 C 0.51714 0.47001 0.53742 0.0
C963 C 0.5051 0.48184 0.57882 0.0
C964 C 0.48594 0.45968 0.61975 0.0
C965 C 0.47966 0.42713 0.61924 0.0
C966 C 0.53759 0.49211 0.49273 0.0
C967 C 0.47158 0.47025 0.66404 0.0
H968 H 0.56643 0.59306 0.62832 0.0
H969 H 0.48414 0.56538 0.52612 0.0
H970 H 0.54877 0.51591 0.66845 0.0
H971 H 0.57265 0.52361 0.60912 0.0
H972 H 0.58249 0.55605 0.6563 0.0
H973 H 0.44842 0.51139 0.502 0.0
H974 H 0.46984 0.48978 0.48832 0.0
H975 H 0.44636 0.48134 0.54827 0.0
H976 H 0.51997 0.42901 0.50583 0.0
H977 H 0.465 0.41076 0.65088 0.0
H978 H 0.56102 0.51142 0.50932 0.0
H979 H 0.5253 0.50426 0.47411 0.0
H980 H 0.54267 0.47888 0.4609 0.0
H981 H 0.49132 0.4902 0.68742 0.0
H982 H 0.45627 0.45012 0.69186 0.0
H983 H 0.45651 0.47979 0.64666 0.0
C984 C 0.57725 0.11384 0.164 0.0
C985 C 0.58104 0.12951 0.11497 0.0
C986 C 0.60152 0.10803 0.18285 0.0
C987 C 0.63052 0.11946 0.15233 0.0
C988 C 0.62918 0.12528 0.09711 0.0
C989 C 0.60483 0.13161 0.07909 0.0
C990 C 0.59787 0.09494 0.23902 0.0
C991 C 0.65534 0.12875 0.05896 0.0
C992 C 0.68356 0.18698 0.2383 0.0
C993 C 0.68311 0.16852 0.28199 0.0
C994 C 0.6733 0.17275 0.18785 0.0
C995 C 0.66179 0.13896 0.18189 0.0
C996 C 0.67067 0.12353 0.22128 0.0
C997 C 0.67978 0.13782 0.27234 0.0
C998 C 0.67053 0.19321 0.1443 0.0
C999 C 0.66709 0.09062 0.21174 0.0
H1000 H 0.55779 0.10996 0.19107 0.0
H1001 H 0.60628 0.14105 1.03905 0.0
H1002 H 0.60685 0.07757 0.24123 0.0
H1003 H 0.61178 0.11516 0.26751 0.0
H1004 H 0.57206 0.08208 0.25222 0.0
H1005 H 0.64492 0.10744 1.0317 0.0
H1006 H 0.66363 0.15056 1.03342 0.0
H1007 H 0.67644 0.12982 0.0801 0.0
H1008 H 0.68879 0.21168 0.24462 0.0
H1009 H 0.68162 0.12374 0.30471 0.0
H1010 H 0.64491 0.18745 0.14066 0.0
H1011 H 0.67884 0.18873 0.10542 0.0
H1012 H 0.68552 0.21954 0.15322 0.0
H1013 H 0.65588 0.07467 0.24702 0.0
H1014 H 0.69168 0.09361 0.20677 0.0
H1015 H 0.65274 0.07865 0.17515 0.0
C1016 C 0.33815 0.60832 0.19715 0.0
C1017 C 0.33006 0.57641 0.21014 0.0
C1018 C 0.34759 0.63191 0.23731 0.0
C1019 C 0.34995 0.62327 0.2904 0.0
C1020 C 0.33466 0.59005 0.3046 0.0
C1021 C 0.32463 0.56678 0.26391 0.0
C1022 C 0.3597 0.66668 0.22187 0.0
C1023 C 0.33362 0.57943 0.36189 0.0
C1024 C 0.43053 0.65764 0.35622 0.0
C1025 C 0.423 0.66472 0.40689 0.0
C1026 C 0.40817 0.64821 0.31439 0.0
C1027 C 0.37773 0.64629 0.32364 0.0
C1028 C 0.37259 0.65904 0.37147 0.0
C1029 C 0.39524 0.66776 0.41316 0.0
C1030 C 0.41553 0.63597 0.26316 0.0
C1031 C 0.34201 0.66054 0.38114 0.0
H1032 H 0.34026 0.61578 0.15563 0.0
H1033 H 0.31518 0.5416 0.27447 0.0
H1034 H 0.3582 0.68083 0.25611 0.0
H1035 H 0.38545 0.67807 0.20892 0.0
H1036 H 0.34541 0.668 0.1877 0.0
H1037 H 0.31803 0.55278 0.36659 0.0
H1038 H 0.35857 0.58649 0.37547 0.0
H1039 H 0.32417 0.59153 0.38847 0.0
H1040 H 0.45204 0.65556 0.35059 0.0
H1041 H 0.38986 0.67436 0.45191 0.0
H1042 H 0.41268 0.64852 0.22803 0.0
H1043 H 0.39841 0.60961 0.25847 0.0
H1044 H 0.44062 0.63981 0.26252 0.0
H1045 H 0.32784 0.65699 0.34387 0.0
H1046 H 0.3483 0.68438 0.39895 0.0
H1047 H 0.32648 0.64172 0.41067 0.0
C1048 C 0.77021 0.39491 0.12924 0.0
C1049 C 0.77798 0.36999 0.1293 0.0
C1050 C 0.75517 0.39933 0.1744 0.0
C1051 C 0.74717 0.37756 0.21766 0.0
C1052 C 0.74416 0.34692 0.208 0.0
C1053 C 0.75949 0.34314 0.16267 0.0
C1054 C 0.75474 0.43061 0.18073 0.0
C1055 C 0.73199 0.32133 0.25096 0.0
C1056 C 0.80013 0.41817 0.33836 0.0
C1057 C 0.77825 0.41908 0.3745 0.0
C1058 C 0.7901 0.40466 0.28764 0.0
C1059 C 0.75697 0.39148 0.27233 0.0
C1060 C 0.73449 0.39199 0.30917 0.0
C1061 C 0.74547 0.40579 0.3602 0.0
C1062 C 0.81559 0.40524 0.2506 0.0
C1063 C 0.69923 0.37901 0.29501 0.0
H1064 H 0.78168 0.41439 0.1003 0.0
H1065 H 0.76202 0.3218 0.16026 0.0
H1066 H 0.73336 0.42674 0.20461 0.0
H1067 H 0.77701 0.44851 0.20234 0.0
H1068 H 0.75421 0.441 0.14116 0.0
H1069 H 0.72296 0.29682 0.23342 0.0
H1070 H 0.75235 0.32645 0.27855 0.0
H1071 H 0.71231 0.32154 0.27472 0.0
H1072 H 0.82533 0.42794 0.35007 0.0
H1073 H 0.72858 0.40673 0.38848 0.0
H1074 H 0.81781 0.41989 0.2148 0.0
H1075 H 0.80871 0.38031 0.23792 0.0
H1076 H 0.83999 0.4161 0.26959 0.0
H1077 H 0.69602 0.39938 0.28118 0.0
H1078 H 0.6835 0.3683 0.33079 0.0
H1079 H 0.69076 0.36049 0.26274 0.0
C1080 C 0.33171 0.83247 0.23381 0.0
C1081 C 0.33452 0.8538 0.27468 0.0
C1082 C 0.34281 0.84401 0.18229 0.0
C1083 C 0.35829 0.87795 0.17299 0.0
C1084 C 0.35168 0.89696 0.2088 0.0
C1085 C 0.34093 0.88512 0.26084 0.0
C1086 C 0.34282 0.82045 0.14174 0.0
C1087 C 0.3602 0.93108 0.19491 0.0
C1088 C 0.44024 0.89155 0.16392 0.0
C1089 C 0.43627 0.8755 0.11518 0.0
C1090 C 0.41795 0.90086 0.1799 0.0
C1091 C 0.39072 0.89295 0.14636 0.0
C1092 C 0.39254 0.88584 0.09183 0.0
C1093 C 0.41473 0.87581 0.077 0.0
C1094 C 0.42138 0.91422 0.23598 0.0
C1095 C 0.36891 0.88517 1.05089 0.0
H1096 H 0.32412 0.80748 0.24332 0.0
H1097 H 0.34094 0.90148 0.29108 0.0
H1098 H 0.33648 0.82529 0.10145 0.0
H1099 H 0.36723 0.82272 0.14021 0.0
H1100 H 0.32497 0.79495 0.1523 0.0
H1101 H 0.37542 0.94819 0.22687 0.0
H1102 H 0.37289 0.93905 0.15575 0.0
H1103 H 0.33744 0.93225 0.19282 0.0
H1104 H 0.45807 0.89318 0.19273 0.0
H1105 H 0.41335 0.86578 1.03737 0.0
H1106 H 0.40476 0.89465 0.26348 0.0
H1107 H 0.41572 0.9341 0.23689 0.0
H1108 H 0.4465 0.92408 0.25162 0.0
H1109 H 0.35782 0.86209 1.02789 0.0
H1110 H 0.38247 0.90498 1.02165 0.0
H1111 H 0.34954 0.88865 0.06922 0.0
C1112 C 0.60478 0.43479 0.55834 0.0
C1113 C 0.61275 0.41007 0.55957 0.0
C1114 C 0.621 0.4604 0.52211 0.0
C1115 C 0.64626 0.4613 0.49086 0.0
C1116 C 0.66137 0.4438 0.50837 0.0
C1117 C 0.64415 0.4178 0.54349 0.0
C1118 C 0.60649 0.48132 0.50884 0.0
C1119 C 0.69135 0.44744 0.48099 0.0
C1120 C 0.62946 0.44386 0.34342 0.0
C1121 C 0.65386 0.4723 0.32041 0.0
C1122 C 0.62534 0.44093 0.3988 0.0
C1123 C 0.64661 0.46715 0.43249 0.0
C1124 C 0.66983 0.4968 0.40941 0.0
C1125 C 0.67336 0.49903 0.35342 0.0
C1126 C 0.59867 0.40917 0.42063 0.0
C1127 C 0.69184 0.52581 0.44326 0.0
H1128 H 0.58237 0.43091 0.57662 0.0
H1129 H 0.65235 0.40043 0.54896 0.0
H1130 H 0.62536 0.50557 0.49459 0.0
H1131 H 0.58839 0.46955 0.47626 0.0
H1132 H 0.59387 0.48421 0.54418 0.0
H1133 H 0.70425 0.43846 0.50681 0.0
H1134 H 0.68419 0.43305 0.44329 0.0
H1135 H 0.70825 0.47316 0.47057 0.0
H1136 H 0.61369 0.42352 0.31795 0.0
H1137 H 0.69216 0.52126 0.33588 0.0
H1138 H 0.58282 0.41369 0.44764 0.0
H1139 H 0.60944 0.39686 0.44339 0.0
H1140 H 0.58311 0.39234 0.38857 0.0
H1141 H 0.68258 0.52441 0.48456 0.0
H1142 H 0.69505 0.54829 0.42425 0.0
H1143 H 0.71594 0.52754 0.446 0.0
C1144 C 0.1674 0.56394 0.10107 0.0
C1145 C 0.1996 0.58874 0.10958 0.0
C1146 C 0.15504 0.5352 0.13061 0.0
C1147 C 0.17566 0.53232 0.16815 0.0
C1148 C 0.20973 0.55221 0.16255 0.0
C1149 C 0.22155 0.58083 0.13304 0.0
C1150 C 0.11902 0.51173 0.12999 0.0
C1151 C 0.23309 0.54729 0.19685 0.0
C1152 C 0.16057 0.53943 0.31362 0.0
C1153 C 0.15992 0.51199 0.33448 0.0
C1154 C 0.16203 0.5446 0.25848 0.0
C1155 C 0.16334 0.52172 0.22319 0.0
C1156 C 0.159 0.49221 0.24372 0.0
C1157 C 0.15739 0.48766 0.29938 0.0
C1158 C 0.1649 0.57601 0.2391 0.0
C1159 C 0.15814 0.4662 0.20795 0.0
H1160 H 0.15084 0.56866 0.07805 0.0
H1161 H 0.2471 0.59893 0.13615 0.0
H1162 H 0.11335 0.48751 0.14491 0.0
H1163 H 0.10656 0.52109 0.15609 0.0
H1164 H 0.10926 0.5093 0.08875 0.0
H1165 H 0.2583 0.56093 0.18099 0.0
H1166 H 0.23309 0.55596 0.23824 0.0
H1167 H 0.22559 0.52123 0.19897 0.0
H1168 H 0.16133 0.55766 0.3407 0.0
H1169 H 0.15632 0.46597 0.31503 0.0
H1170 H 0.14707 0.57133 0.20681 0.0
H1171 H 0.1897 0.59206 0.22326 0.0
H1172 H 0.16053 0.58937 0.27164 0.0
H1173 H 0.1537 0.46928 0.16528 0.0
H1174 H 0.13883 0.44197 0.22163 0.0
H1175 H 0.18165 0.46659 0.21105 0.0
C1176 C 0.38333 0.82178 0.69568 0.0
C1177 C 0.37184 0.84242 0.71245 0.0
C1178 C 0.40297 0.81514 0.72908 0.0
C1179 C 0.41162 0.82984 0.78022 0.0
C1180 C 0.39909 0.84973 0.79827 0.0
C1181 C 0.37912 0.85565 0.76416 0.0
C1182 C 0.41533 0.79329 0.70894 0.0
C1183 C 0.40785 0.86578 0.85273 0.0
C1184 C 0.44651 0.80017 0.88812 0.0
C1185 C 0.47967 0.82344 0.88543 0.0
C1186 C 0.42413 0.80106 0.85255 0.0
C1187 C 0.43524 0.82592 0.81371 0.0
C1188 C 0.46894 0.84812 0.80847 0.0
C1189 C 0.49083 0.84647 0.84423 0.0
C1190 C 0.38844 0.77649 0.85844 0.0
C1191 C 0.4817 0.87485 0.7672 0.0
H1192 H 0.37737 0.81114 0.65591 0.0
H1193 H 0.37021 0.87157 0.77717 0.0
H1194 H 0.44208 0.80756 0.70352 0.0
H1195 H 0.41033 0.7741 0.73877 0.0
H1196 H 0.40409 0.78159 0.67012 0.0
H1197 H 0.39495 0.87934 0.86165 0.0
H1198 H 0.40188 0.84737 0.88447 0.0
H1199 H 0.43443 0.8829 0.85472 0.0
H1200 H 0.43779 0.78208 0.91958 0.0
H1201 H 0.51644 0.86443 0.84179 0.0
H1202 H 0.37768 0.76576 0.81894 0.0
H1203 H 0.37531 0.78866 0.8739 0.0
H1204 H 0.38423 0.75664 0.88643 0.0
H1205 H 0.47276 0.86463 0.72669 0.0
H1206 H 0.5087 0.88893 0.76629 0.0
H1207 H 0.47254 0.89171 0.77625 0.0
C1208 C 0.53771 0.3596 0.77969 0.0
C1209 C 0.54154 0.35113 0.72755 0.0
C1210 C 0.5648 0.38184 0.80956 0.0
C1211 C 0.59629 0.39582 0.78651 0.0
C1212 C 0.60047 0.38547 0.73552 0.0
C1213 C 0.57302 0.36309 0.7068 0.0
C1214 C 0.55952 0.39188 0.86444 0.0
C1215 C 0.63356 0.39956 0.70957 0.0
C1216 C 0.6519 0.48008 0.84007 0.0
C1217 C 0.66714 0.47343 0.88223 0.0
C1218 C 0.63029 0.45522 0.80589 0.0
C1219 C 0.62415 0.4232 0.81408 0.0
C1220 C 0.64223 0.41716 0.85273 0.0
C1221 C 0.66353 0.44242 0.88654 0.0
C1222 C 0.61206 0.46273 0.76399 0.0
C1223 C 0.63724 0.38359 0.86124 0.0
H1224 H 0.51349 0.35018 0.79611 0.0
H1225 H 0.57624 0.35618 0.66685 0.0
H1226 H 0.57581 0.38991 0.89418 0.0
H1227 H 0.56563 0.41763 0.86347 0.0
H1228 H 0.53398 0.37688 0.87828 0.0
H1229 H 0.63346 0.38445 0.67545 0.0
H1230 H 0.64093 0.4241 0.69402 0.0
H1231 H 0.65223 0.40214 0.73898 0.0
H1232 H 0.65494 0.50412 0.83614 0.0
H1233 H 0.67587 0.43737 0.91843 0.0
H1234 H 0.58613 0.45164 0.77586 0.0
H1235 H 0.61287 0.45217 0.72473 0.0
H1236 H 0.62211 0.48923 0.75894 0.0
H1237 H 0.61359 0.36835 0.88159 0.0
H1238 H 0.65678 0.38399 0.88632 0.0
H1239 H 0.63639 0.37186 0.82232 0.0
C1240 C 0.15841 0.49576 0.80778 0.0
C1241 C 0.1829 0.50215 0.77031 0.0
C1242 C 0.16276 0.51894 0.8466 0.0
C1243 C 0.1924 0.5488 0.84809 0.0
C1244 C 0.2186 0.55339 0.8151 0.0
C1245 C 0.21343 0.53008 0.77608 0.0
C1246 C 0.13449 0.51286 0.88211 0.0
C1247 C 0.25108 0.58423 0.81745 0.0
C1248 C 0.18171 0.62121 0.87386 0.0
C1249 C 0.18944 0.62723 0.92838 0.0
C1250 C 0.18358 0.59632 0.84713 0.0
C1251 C 0.19361 0.57705 0.87557 0.0
C1252 C 0.20303 0.58402 0.92995 0.0
C1253 C 0.20076 0.60905 0.95574 0.0
C1254 C 0.17355 0.58985 0.78888 0.0
C1255 C 0.21403 0.56429 0.96181 0.0
H1256 H 0.13492 0.47393 0.80399 0.0
H1257 H 0.23275 0.53464 0.74809 0.0
H1258 H 0.14271 0.52004 0.92407 0.0
H1259 H 0.12402 0.52785 0.86813 0.0
H1260 H 0.115 0.48701 0.88152 0.0
H1261 H 0.27042 0.58145 0.79719 0.0
H1262 H 0.24916 0.60396 0.79725 0.0
H1263 H 0.25843 0.59177 0.85963 0.0
H1264 H 0.17311 0.63525 0.85236 0.0
H1265 H 0.207 0.61373 0.99776 0.0
H1266 H 0.15212 0.5652 0.78448 0.0
H1267 H 0.1935 0.59071 0.76442 0.0
H1268 H 0.16723 0.60766 0.77232 0.0
H1269 H 0.19236 0.54221 0.97713 0.0
H1270 H 0.22902 0.5781 0.99688 0.0
H1271 H 0.22823 0.55647 0.93677 0.0
C1272 C 0.63156 0.19647 0.69788 0.0
C1273 C 0.64524 0.17767 0.71434 0.0
C1274 C 0.60968 0.20015 0.7307 0.0
C1275 C 0.60135 0.18467 0.7811 0.0
C1276 C 0.61645 0.16718 0.79928 0.0
C1277 C 0.63835 0.16394 0.76561 0.0
C1278 C 0.59436 0.21934 0.7104 0.0
C1279 C 0.60834 0.15064 0.85325 0.0
C1280 C 0.55955 0.20576 0.88981 0.0
C1281 C 0.52785 0.17922 0.88686 0.0
C1282 C 0.58352 0.20892 0.85363 0.0
C1283 C 0.57542 0.18499 0.81366 0.0
C1284 C 0.54282 0.15974 0.8076 0.0
C1285 C 0.51932 0.15717 0.84436 0.0
C1286 C 0.61792 0.23653 0.86062 0.0
C1287 C 0.53321 0.13411 0.7647 0.0
H1288 H 0.63707 0.20748 0.65847 0.0
H1289 H 0.64906 0.14962 0.77865 0.0
H1290 H 0.56818 0.20269 0.70222 0.0
H1291 H 0.59595 0.23693 0.7412 0.0
H1292 H 0.60605 0.23273 0.67298 0.0
H1293 H 0.6236 0.13962 0.86266 0.0
H1294 H 0.61174 0.16823 0.88536 0.0
H1295 H 0.58242 0.13129 0.85393 0.0
H1296 H 0.56613 0.22314 0.92223 0.0
H1297 H 0.49478 0.13677 0.84168 0.0
H1298 H 0.62844 0.24804 0.8215 0.0
H1299 H 0.6333 0.22704 0.87685 0.0
H1300 H 0.61925 0.25537 0.88857 0.0
H1301 H 0.5423 0.1455 0.72498 0.0
H1302 H 0.50643 0.11798 0.7622 0.0
H1303 H 0.54445 0.11902 0.77348 0.0
C1304 C 0.49373 0.63593 0.7875 0.0
C1305 C 0.48814 0.65527 0.75191 0.0
C1306 C 0.46914 0.61472 0.82234 0.0
C1307 C 0.43868 0.61355 0.82215 0.0
C1308 C 0.43411 0.63532 0.78988 0.0
C1309 C 0.45886 0.65572 0.75456 0.0
C1310 C 0.47502 0.592 0.85659 0.0
C1311 C 0.40251 0.63572 0.79005 0.0
C1312 C 0.37088 0.53076 0.8627 0.0
C1313 C 0.37096 0.53494 0.91817 0.0
C1314 C 0.3912 0.55705 0.82976 0.0
C1315 C 0.41129 0.58798 0.85322 0.0
C1316 C 0.4083 0.59287 0.90832 0.0
C1317 C 0.38839 0.56612 0.94034 0.0
C1318 C 0.39349 0.551 0.77091 0.0
C1319 C 0.42824 0.62571 0.93432 0.0
H1320 H 0.51637 0.63557 0.78533 0.0
H1321 H 0.45476 0.67106 0.72735 0.0
H1322 H 0.46976 0.59418 0.89925 0.0
H1323 H 0.45834 0.56657 0.84404 0.0
H1324 H 0.50043 0.59688 0.8535 0.0
H1325 H 0.40536 0.65833 0.77207 0.0
H1326 H 0.38411 0.61486 0.76636 0.0
H1327 H 0.39292 0.63332 0.83139 0.0
H1328 H 0.35728 0.50659 0.84575 0.0
H1329 H 0.38794 0.56929 0.98337 0.0
H1330 H 0.37359 0.52684 0.75787 0.0
H1331 H 0.41711 0.55226 0.7629 0.0
H1332 H 0.39264 0.56991 0.74623 0.0
H1333 H 0.41891 0.62661 0.9748 0.0
H1334 H 0.42837 0.64495 0.90912 0.0
H1335 H 0.4538 0.63129 0.93848 0.0
C1336 C 0.78138 0.36846 0.93881 0.0
C1337 C 0.79557 0.35153 0.91576 0.0
C1338 C 0.77676 0.39051 0.9083 0.0
C1339 C 0.78654 0.39536 0.854 0.0
C1340 C 0.79652 0.37499 0.82907 0.0
C1341 C 0.80092 0.35323 0.86044 0.0
C1342 C 0.76496 0.41102 0.9358 0.0
C1343 C 0.8064 0.37895 0.77073 0.0
C1344 C 0.78217 0.45025 0.7508 0.0
C1345 C 0.81466 0.47536 0.75075 0.0
C1346 C 0.77117 0.42535 0.78871 0.0
C1347 C 0.7935 0.42551 0.82627 0.0
C1348 C 0.82542 0.45252 0.82959 0.0
C1349 C 0.83569 0.47716 0.79146 0.0
C1350 C 0.73656 0.39776 0.78551 0.0
C1351 C 0.84977 0.45392 0.87007 0.0
H1352 H 0.77661 0.36677 0.98155 0.0
H1353 H 0.81128 0.33967 0.84251 0.0
H1354 H 0.78619 0.43349 0.95126 0.0
H1355 H 0.75148 0.41815 0.90777 0.0
H1356 H 0.74904 0.39801 0.97042 0.0
H1357 H 0.81111 0.35956 0.75651 0.0
H1358 H 0.78718 0.37881 0.74531 0.0
H1359 H 0.82893 0.40263 0.76491 0.0
H1360 H 0.76571 0.44925 0.71973 0.0
H1361 H 0.86075 0.4967 0.79153 0.0
H1362 H 0.72698 0.38746 0.8257 0.0
H1363 H 0.73569 0.37817 0.7601 0.0
H1364 H 0.72038 0.40572 0.76716 0.0
H1365 H 0.83892 0.44823 0.91076 0.0
H1366 H 0.87215 0.47811 0.87124 0.0
H1367 H 0.85677 0.43554 0.85969 0.0
C1368 C 0.4845 0.20355 0.21452 0.0
C1369 C 0.46383 0.20625 0.17658 0.0
C1370 C 0.48463 0.211 0.27048 0.0
C1371 C 0.46297 0.22098 0.2917 0.0
C1372 C 0.4419 0.22357 0.25349 0.0
C1373 C 0.44292 0.21681 0.19743 0.0
C1374 C 0.50836 0.2082 0.30706 0.0
C1375 C 0.41751 0.233 0.27207 0.0
C1376 C 0.44529 0.21386 0.44815 0.0
C1377 C 0.46294 0.2462 0.46736 0.0
C1378 C 0.44467 0.20543 0.39235 0.0
C1379 C 0.46295 0.22945 0.35269 0.0
C1380 C 0.48141 0.26193 0.37215 0.0
C1381 C 0.48079 0.26969 0.42765 0.0
C1382 C 0.42389 0.17047 0.37573 0.0
C1383 C 0.50251 0.28894 0.33414 0.0
H1384 H 0.50115 0.19585 0.20026 0.0
H1385 H 0.42648 0.21899 0.1699 0.0
H1386 H 0.52179 0.23052 0.33163 0.0
H1387 H 0.49494 0.18764 0.33499 0.0
H1388 H 0.52618 0.20409 0.28449 0.0
H1389 H 0.40146 0.23225 0.23905 0.0
H1390 H 0.4022 0.21642 0.30444 0.0
H1391 H 0.43032 0.25785 0.2891 0.0
H1392 H 0.4311 0.1949 0.47677 0.0
H1393 H 0.49538 0.29457 0.44002 0.0
H1394 H 0.4396 0.16083 0.36169 0.0
H1395 H 0.40792 0.1685 0.34172 0.0
H1396 H 0.40851 0.155 0.40912 0.0
H1397 H 0.51915 0.28281 0.31231 0.0
H1398 H 0.51727 0.31247 0.35512 0.0
H1399 H 0.48712 0.29187 0.30379 0.0
C1400 C 0.21397 0.41458 0.44949 0.0
C1401 C 0.21056 0.43997 0.47241 0.0
C1402 C 0.2217 0.41395 0.39373 0.0
C1403 C 0.22681 0.43946 0.35773 0.0
C1404 C 0.22422 0.46555 0.38109 0.0
C1405 C 0.21623 0.46542 0.43683 0.0
C1406 C 0.22466 0.38572 0.37331 0.0
C1407 C 0.23074 0.49438 0.34723 0.0
C1408 C 0.27597 0.45414 0.22272 0.0
C1409 C 0.25232 0.43966 0.1819 0.0
C1410 C 0.26833 0.45407 0.27849 0.0
C1411 C 0.2355 0.43932 0.29679 0.0
C1412 C 0.2112 0.42489 0.25585 0.0
C1413 C 0.2197 0.42532 0.20012 0.0
C1414 C 0.29589 0.46984 0.31818 0.0
C1415 C 0.17579 0.40838 0.27108 0.0
H1416 H 0.21016 0.39469 0.47525 0.0
H1417 H 0.21535 0.48606 0.45298 0.0
H1418 H 0.20671 0.37313 0.34083 0.0
H1419 H 0.24918 0.39458 0.35586 0.0
H1420 H 0.22063 0.36795 0.40538 0.0
H1421 H 0.2174 0.48635 0.30865 0.0
H1422 H 0.22394 0.51076 0.36805 0.0
H1423 H 0.25701 0.5085 0.33746 0.0
H1424 H 0.30096 0.4663 0.21102 0.0
H1425 H 0.20045 0.41388 0.17068 0.0
H1426 H 0.29317 0.45209 0.34941 0.0
H1427 H 0.2952 0.49015 0.33877 0.0
H1428 H 0.32005 0.47935 0.29885 0.0
H1429 H 0.16955 0.38653 0.29532 0.0
H1430 H 0.15961 0.40088 0.23545 0.0
H1431 H 0.17094 0.42472 0.29635 0.0
C1432 C 0.74798 0.23866 0.42702 0.0
C1433 C 0.75939 0.22173 0.45855 0.0
C1434 C 0.75683 0.24677 0.37158 0.0
C1435 C 0.77891 0.239 0.34488 0.0
C1436 C 0.79176 0.22333 0.3778 0.0
C1437 C 0.7816 0.2146 0.43258 0.0
C1438 C 0.74239 0.26412 0.34185 0.0
C1439 C 0.81689 0.2157 0.3563 0.0
C1440 C 0.7847 0.23006 0.18731 0.0
C1441 C 0.80341 0.26212 0.16813 0.0
C1442 C 0.77753 0.22234 0.2432 0.0
C1443 C 0.78814 0.24708 0.28371 0.0
C1444 C 0.80776 0.27961 0.2643 0.0
C1445 C 0.81466 0.28647 0.20814 0.0
C1446 C 0.75972 0.18698 0.25785 0.0
C1447 C 0.82313 0.30813 0.30215 0.0
H1448 H 0.73158 0.2454 0.44566 0.0
H1449 H 0.79144 0.20211 0.4554 0.0
H1450 H 0.76038 0.29036 0.34077 0.0
H1451 H 0.73617 0.25524 0.29995 0.0
H1452 H 0.72035 0.26146 0.36204 0.0
H1453 H 0.83565 0.22075 0.38728 0.0
H1454 H 0.80497 0.18944 0.34687 0.0
H1455 H 0.82922 0.22975 0.31979 0.0
H1456 H 0.77603 0.21046 0.15838 0.0
H1457 H 0.82899 0.31147 0.1957 0.0
H1458 H 0.74734 0.18228 0.29718 0.0
H1459 H 0.77745 0.17826 0.2596 0.0
H1460 H 0.74179 0.17248 0.22631 0.0
H1461 H 0.81199 0.32358 0.29574 0.0
H1462 H 0.84941 0.32335 0.29273 0.0
H1463 H 0.82071 0.30108 0.34494 0.0
C1464 C 0.52022 0.75519 0.19399 0.0
C1465 C 0.54101 0.78687 0.17439 0.0
C1466 C 0.51906 0.7467 0.24973 0.0
C1467 C 0.5394 0.76998 0.28908 0.0
C1468 C 0.56078 0.80186 0.26913 0.0
C1469 C 0.56132 0.80963 0.21331 0.0
C1470 C 0.49519 0.71259 0.26668 0.0
C1471 C 0.5835 0.82814 0.30703 0.0
C1472 C 0.51971 0.75721 0.44486 0.0
C1473 C 0.53965 0.7452 0.4646 0.0
C1474 C 0.51898 0.76473 0.38904 0.0
C1475 C 0.53907 0.76105 0.34994 0.0
C1476 C 0.55941 0.74924 0.37001 0.0
C1477 C 0.55948 0.74176 0.42578 0.0
C1478 C 0.4962 0.77642 0.37172 0.0
C1479 C 0.5816 0.74458 0.3323 0.0
H1480 H 0.50423 0.73686 0.16566 0.0
H1481 H 0.57863 0.83373 0.19967 0.0
H1482 H 0.5072 0.70262 0.29234 0.0
H1483 H 0.47568 0.71283 0.29083 0.0
H1484 H 0.48389 0.69622 0.23177 0.0
H1485 H 0.56919 0.8327 0.33751 0.0
H1486 H 0.59875 0.82022 0.32872 0.0
H1487 H 0.59969 0.85125 0.28601 0.0
H1488 H 0.50409 0.7603 0.47309 0.0
H1489 H 0.57606 0.7339 0.43945 0.0
H1490 H 0.4787 0.75933 0.34182 0.0
H1491 H 0.51008 0.80039 0.35194 0.0
H1492 H 0.48235 0.77856 0.40589 0.0
H1493 H 0.56706 0.72724 0.30011 0.0
H1494 H 0.596 0.73529 0.35306 0.0
H1495 H 0.59857 0.76794 0.31274 0.0
C1496 C 0.81606 0.53237 0.41527 0.0
C1497 C 0.80441 0.54391 0.45708 0.0
C1498 C 0.80858 0.53266 0.35962 0.0
C1499 C 0.78866 0.54554 0.3421 0.0
C1500 C 0.77857 0.55952 0.38365 0.0
C1501 C 0.7857 0.55784 0.4395 0.0
C1502 C 0.82335 0.51973 0.31988 0.0
C1503 C 0.76184 0.57827 0.36904 0.0
C1504 C 0.78496 0.57104 0.1918 0.0
C1505 C 0.76058 0.54235 0.16721 0.0
C1506 C 0.79451 0.57249 0.24697 0.0
C1507 C 0.77902 0.54473 0.2814 0.0
C1508 C 0.75476 0.51551 0.25624 0.0
C1509 C 0.74638 0.51465 0.20056 0.0
C1510 C 0.822 0.60431 0.267 0.0
C1511 C 0.73759 0.48453 0.28809 0.0
H1512 H 0.83159 0.52309 0.42589 0.0
H1513 H 0.77725 0.56844 0.46946 0.0
H1514 H 0.80904 0.49285 0.31975 0.0
H1515 H 0.82408 0.52852 0.27849 0.0
H1516 H 0.84854 0.5267 0.332 0.0
H1517 H 0.75056 0.58297 0.40434 0.0
H1518 H 0.78014 0.60217 0.35282 0.0
H1519 H 0.74334 0.56567 0.33741 0.0
H1520 H 0.79698 0.5928 0.16762 0.0
H1521 H 0.72866 0.49181 0.18292 0.0
H1522 H 0.83214 0.6022 0.30583 0.0
H1523 H 0.81317 0.62184 0.2715 0.0
H1524 H 0.84194 0.61464 0.23697 0.0
H1525 H 0.71624 0.46525 0.26645 0.0
H1526 H 0.72956 0.48894 0.32748 0.0
H1527 H 0.75452 0.47533 0.29583 0.0
C1528 C 0.23204 0.79012 0.17939 0.0
C1529 C 0.21411 0.75763 0.16124 0.0
C1530 C 0.23987 0.79885 0.23508 0.0
C1531 C 0.22997 0.7748 0.2766 0.0
C1532 C 0.21107 0.74197 0.25825 0.0
C1533 C 0.20445 0.7342 0.20235 0.0
C1534 C 0.25796 0.83447 0.2483 0.0
C1535 C 0.19622 0.71395 0.29698 0.0
C1536 C 0.26899 0.78284 0.42076 0.0
C1537 C 0.25747 0.79976 0.45224 0.0
C1538 C 0.26086 0.7752 0.365 0.0
C1539 C 0.23939 0.78352 0.33768 0.0
C1540 C 0.22664 0.79951 0.37034 0.0
C1541 C 0.23614 0.80776 0.42558 0.0
C1542 C 0.27529 0.75752 0.33596 0.0
C1543 C 0.20224 0.80789 0.34812 0.0
H1544 H 0.23991 0.80923 0.14982 0.0
H1545 H 0.19196 0.7091 0.19103 0.0
H1546 H 0.2405 0.84356 0.2483 0.0
H1547 H 0.27005 0.83976 0.28796 0.0
H1548 H 0.27629 0.84821 0.21687 0.0
H1549 H 0.17005 0.69801 0.28744 0.0
H1550 H 0.20801 0.69901 0.29172 0.0
H1551 H 0.19817 0.7215 0.3395 0.0
H1552 H 0.28492 0.77563 0.43978 0.0
H1553 H 0.2264 0.82046 0.44823 0.0
H1554 H 0.27931 0.76394 0.29284 0.0
H1555 H 0.25848 0.73106 0.33936 0.0
H1556 H 0.29863 0.76249 0.35425 0.0
H1557 H 0.2149 0.83403 0.33781 0.0
H1558 H 0.18365 0.80387 0.37888 0.0
H1559 H 0.18962 0.79352 0.31193 0.0
C1560 C 0.52319 0.75823 0.69396 0.0
C1561 C 0.54473 0.74851 0.67242 0.0
C1562 C 0.52249 0.76548 0.75018 0.0
C1563 C 0.54392 0.76345 0.78852 0.0
C1564 C 0.56605 0.75422 0.7667 0.0
C1565 C 0.56639 0.74744 0.71037 0.0
C1566 C 0.49832 0.7752 0.76875 0.0
C1567 C 0.58973 0.75133 0.80323 0.0
C1568 C 0.56344 0.81027 0.92791 0.0
C1569 C 0.54347 0.78673 0.96623 0.0
C1570 C 0.56359 0.80329 0.87164 0.0
C1571 C 0.54368 0.77139 0.85024 0.0
C1572 C 0.52401 0.74721 0.88896 0.0
C1573 C 0.52421 0.75497 0.94517 0.0
C1574 C 0.58525 0.83063 0.83467 0.0
C1575 C 0.50225 0.71273 0.87082 0.0
H1576 H 0.50613 0.7596 0.66678 0.0
H1577 H 0.58387 0.74098 0.69603 0.0
H1578 H 0.48192 0.7578 0.79931 0.0
H1579 H 0.51126 0.79941 0.78818 0.0
H1580 H 0.48334 0.77607 0.7353 0.0
H1581 H 0.60363 0.74157 0.78209 0.0
H1582 H 0.60713 0.77551 0.81998 0.0
H1583 H 0.57664 0.7352 0.83748 0.0
H1584 H 0.57922 0.83476 0.942 0.0
H1585 H 0.50856 0.73595 0.97269 0.0
H1586 H 0.57033 0.83349 0.80326 0.0
H1587 H 0.6025 0.82488 0.81405 0.0
H1588 H 0.59934 0.85406 0.85627 0.0
H1589 H 0.48923 0.69623 0.90476 0.0
H1590 H 0.51679 0.7037 0.8497 0.0
H1591 H 0.48405 0.71174 0.84184 0.0
C1592 C 0.82538 0.56429 0.70502 0.0
C1593 C 0.80241 0.5442 0.66579 0.0
C1594 C 0.81756 0.56441 0.76106 0.0
C1595 C 0.78551 0.54376 0.78175 0.0
C1596 C 0.76206 0.52351 0.74232 0.0
C1597 C 0.77049 0.52421 0.68623 0.0
C1598 C 0.84421 0.58679 0.79868 0.0
C1599 C 0.72767 0.50037 0.75964 0.0
C1600 C 0.77233 0.52352 0.93848 0.0
C1601 C 0.7606 0.54341 0.95951 0.0
C1602 C 0.78009 0.52328 0.8825 0.0
C1603 C 0.77678 0.54359 0.84351 0.0
C1604 C 0.76551 0.5642 0.86491 0.0
C1605 C 0.75793 0.56394 0.92113 0.0
C1606 C 0.79153 0.50052 0.86495 0.0
C1607 C 0.76125 0.58683 0.82806 0.0
H1608 H 0.85013 0.58004 0.6921 0.0
H1609 H 0.75192 0.50812 0.65831 0.0
H1610 H 0.83683 0.60251 0.82026 0.0
H1611 H 0.84836 0.57236 0.82926 0.0
H1612 H 0.86748 0.6024 0.77743 0.0
H1613 H 0.71188 0.48618 0.72555 0.0
H1614 H 0.72759 0.48326 0.78987 0.0
H1615 H 0.71706 0.51398 0.77905 0.0
H1616 H 0.77487 0.50731 0.96593 0.0
H1617 H 0.74985 0.5802 0.93514 0.0
H1618 H 0.81462 0.51417 0.84252 0.0
H1619 H 0.77311 0.48213 0.83773 0.0
H1620 H 0.79538 0.48789 0.89911 0.0
H1621 H 0.78439 0.60274 0.80679 0.0
H1622 H 0.75353 0.60225 0.84985 0.0
H1623 H 0.74272 0.57257 0.79716 0.0
C1624 C 0.2319 0.80069 0.68365 0.0
C1625 C 0.25934 0.80133 0.6599 0.0
C1626 C 0.22359 0.79357 0.73967 0.0
C1627 C 0.24297 0.78671 0.77593 0.0
C1628 C 0.27088 0.78759 0.75178 0.0
C1629 C 0.27806 0.79404 0.69544 0.0
C1630 C 0.19359 0.79375 0.75882 0.0
C1631 C 0.29386 0.78176 0.78539 0.0
C1632 C 0.22789 0.79206 0.93291 0.0
C1633 C 0.21777 0.76057 0.95302 0.0
C1634 C 0.23649 0.80095 0.87721 0.0
C1635 C 0.23404 0.77784 0.83739 0.0
C1636 C 0.22379 0.7461 0.85805 0.0
C1637 C 0.21761 0.73885 0.91421 0.0
C1638 C 0.24837 0.83564 0.86172 0.0
C1639 C 0.21844 0.71852 0.82165 0.0
H1640 H 0.21666 0.80608 0.65831 0.0
H1641 H 0.29867 0.79309 0.67897 0.0
H1642 H 0.18561 0.78302 0.79912 0.0
H1643 H 0.19861 0.81916 0.75999 0.0
H1644 H 0.17334 0.78038 0.73002 0.0
H1645 H 0.3184 0.79286 0.76715 0.0
H1646 H 0.29614 0.7915 0.82663 0.0
H1647 H 0.28466 0.75536 0.788 0.0
H1648 H 0.2292 0.81015 0.96085 0.0
H1649 H 0.21349 0.71586 0.92816 0.0
H1650 H 0.22719 0.83842 0.85116 0.0
H1651 H 0.2651 0.84324 0.82684 0.0
H1652 H 0.26113 0.85222 0.89581 0.0
H1653 H 0.21824 0.72393 0.77851 0.0
H1654 H 0.1949 0.69663 0.83147 0.0
H1655 H 0.23764 0.71217 0.82916 0.0
C1656 C 0.47521 0.22743 0.69415 0.0
C1657 C 0.45967 0.24453 0.67576 0.0
C1658 C 0.47647 0.22005 0.75011 0.0
C1659 C 0.4608 0.2285 0.79121 0.0
C1660 C 0.44452 0.24506 0.77264 0.0
C1661 C 0.44466 0.25307 0.71696 0.0
C1662 C 0.49536 0.20354 0.7654 0.0
C1663 C 0.42654 0.25451 0.812 0.0
C1664 C 0.43834 0.18288 0.93164 0.0
C1665 C 0.46093 0.20553 0.96868 0.0
C1666 C 0.43795 0.18984 0.87545 0.0
C1667 C 0.46126 0.22032 0.85263 0.0
C1668 C 0.4844 0.24319 0.88985 0.0
C1669 C 0.48366 0.23587 0.94621 0.0
C1670 C 0.41204 0.16421 0.84031 0.0
C1671 C 0.51072 0.27564 0.86982 0.0
H1672 H 0.48744 0.2205 0.6647 0.0
H1673 H 0.43264 0.26628 0.70607 0.0
H1674 H 0.51339 0.21775 0.79701 0.0
H1675 H 0.47863 0.17928 0.78231 0.0
H1676 H 0.50834 0.20056 0.73071 0.0
H1677 H 0.41226 0.26412 0.79177 0.0
H1678 H 0.40979 0.23328 0.83667 0.0
H1679 H 0.44411 0.27338 0.83967 0.0
H1680 H 0.42049 0.15931 0.94679 0.0
H1681 H 0.50178 0.25388 0.97269 0.0
H1682 H 0.42345 0.15632 0.80939 0.0
H1683 H 0.39858 0.17436 0.81903 0.0
H1684 H 0.39444 0.14261 0.8635 0.0
H1685 H 0.52422 0.27212 0.83654 0.0
H1686 H 0.52824 0.2902 0.90186 0.0
H1687 H 0.49975 0.28966 0.85356 0.0
C1688 C 0.18637 0.42283 0.72029 0.0
C1689 C 0.2105 0.43863 0.68049 0.0
C1690 C 0.19334 0.42371 0.77666 0.0
C1691 C 0.22603 0.43836 0.79662 0.0
C1692 C 0.25077 0.45297 0.75599 0.0
C1693 C 0.24284 0.4532 0.70002 0.0
C1694 C 0.16458 0.40979 0.81417 0.0
C1695 C 0.28629 0.46947 0.77081 0.0
C1696 C 0.25784 0.4666 0.94616 0.0
C1697 C 0.24959 0.43769 0.97425 0.0
C1698 C 0.24987 0.46723 0.89051 0.0
C1699 C 0.23409 0.43822 0.85846 0.0
C1700 C 0.22568 0.40886 0.88712 0.0
C1701 C 0.23294 0.40899 0.94336 0.0
C1702 C 0.25823 0.49972 0.86742 0.0
C1703 C 0.2084 0.3765 0.85896 0.0
H1704 H 0.16123 0.41016 0.70766 0.0
H1705 H 0.26244 0.46541 0.67138 0.0
H1706 H 0.15047 0.38308 0.80898 0.0
H1707 H 0.17141 0.41569 0.8569 0.0
H1708 H 0.148 0.41906 0.80344 0.0
H1709 H 0.3008 0.46683 0.7383 0.0
H1710 H 0.29555 0.49581 0.77577 0.0
H1711 H 0.29066 0.46 0.8086 0.0
H1712 H 0.27055 0.48928 0.96804 0.0
H1713 H 0.2259 0.38618 0.96308 0.0
H1714 H 0.24588 0.49781 0.82879 0.0
H1715 H 0.28493 0.5143 0.8615 0.0
H1716 H 0.25151 0.51328 0.89617 0.0
H1717 H 0.18182 0.36673 0.86153 0.0
H1718 H 0.21323 0.35846 0.87863 0.0
H1719 H 0.21535 0.37845 0.81607 0.0
C1720 C 0.77804 0.24908 0.68543 0.0
C1721 C 0.75822 0.21693 0.66623 0.0
C1722 C 0.78588 0.25698 0.7415 0.0
C1723 C 0.77369 0.2326 0.78249 0.0
C1724 C 0.75408 0.20014 0.7632 0.0
C1725 C 0.74736 0.19298 0.70686 0.0
C1726 C 0.8067 0.29209 0.75666 0.0
C1727 C 0.73984 0.17239 0.80236 0.0
C1728 C 0.81593 0.24826 0.92594 0.0
C1729 C 0.79726 0.25646 0.96024 0.0
C1730 C 0.8086 0.24038 0.86987 0.0
C1731 C 0.78174 0.24074 0.84429 0.0
C1732 C 0.76262 0.24878 0.87891 0.0
C1733 C 0.77032 0.2562 0.93513 0.0
C1734 C 0.82964 0.23087 0.83828 0.0
C1735 C 0.7337 0.24974 0.85631 0.0
H1736 H 0.78731 0.26857 0.6564 0.0
H1737 H 0.73361 0.16805 0.69468 0.0
H1738 H 0.79048 0.30155 0.7686 0.0
H1739 H 0.82283 0.29523 0.79107 0.0
H1740 H 0.82184 0.30681 0.72247 0.0
H1741 H 0.72129 0.14939 0.7834 0.0
H1742 H 0.75952 0.16873 0.81864 0.0
H1743 H 0.72846 0.17794 0.83663 0.0
H1744 H 0.83659 0.24773 0.94318 0.0
H1745 H 0.75539 0.2626 0.95938 0.0
H1746 H 0.83344 0.24027 0.79667 0.0
H1747 H 0.81732 0.20405 0.83589 0.0
H1748 H 0.85365 0.2396 0.85766 0.0
H1749 H 0.74206 0.26941 0.82618 0.0
H1750 H 0.71968 0.25402 0.88779 0.0
H1751 H 0.71729 0.22658 0.83548 0.0
loop_
_geom_bond_atom_site_label_1
_geom_bond_atom_site_label_2
_geom_bond_distance
_geom_bond_site_symmetry_2
_ccdc_geom_bond_type
Zn0 N4 2.020 . S
Zn0 O8 2.019 . S
Zn0 N10 2.119 . S
Zn0 O18 1.975 . S
C1 N2 1.334 . S
C1 N5 1.336 . S
N2 C1 1.334 . S
N2 C3 1.333 1_554 S
C3 N2 1.333 1_556 S
C3 N4 1.336 . S
N4 Zn0 2.020 . S
N4 C3 1.336 . S
N4 N5 1.354 1_556 S
N5 C1 1.336 . S
N5 N4 1.354 1_554 S
N5 Zn9 2.020 . S
C6 O7 1.244 . S
C6 O30 1.257 . S
O7 C6 1.244 . S
O8 Zn0 2.019 . S
O8 C28 1.257 . S
Zn9 N5 2.020 . S
Zn9 O16 1.975 . S
Zn9 N25 2.119 . S
Zn9 O30 2.019 . S
N10 Zn0 2.119 . S
N10 C12 1.334 . S
N10 C13 1.328 . S
C11 C12 1.391 . S
C11 N14 1.329 . S
C11 H32 0.930 . S
C12 N10 1.334 . S
C12 C11 1.391 . S
C12 H19 0.930 . S
C13 N10 1.328 . S
C13 C15 1.392 . S
C13 H20 0.930 . S
N14 C11 1.329 . S
N14 C15 1.331 . S
C15 C13 1.392 . S
C15 N14 1.331 . S
O16 Zn9 1.975 . S
O16 C17 1.252 . S
C17 O16 1.252 . S
C17 O18 1.252 1_554 S
O18 Zn0 1.975 . S
O18 C17 1.252 1_556 S
H19 C12 0.930 . S
H20 C13 0.930 . S
C21 C22 1.392 . S
C21 N25 1.328 . S
C21 H27 0.930 . S
C22 C21 1.392 . S
C22 N26 1.331 . S
C23 C24 1.391 . S
C23 N26 1.329 . S
C23 H33 0.930 . S
C24 C23 1.391 . S
C24 N25 1.334 . S
C24 H31 0.930 . S
N25 Zn9 2.119 . S
N25 C21 1.328 . S
N25 C24 1.334 . S
N26 C22 1.331 . S
N26 C23 1.329 . S
H27 C21 0.930 . S
C28 O8 1.257 . S
C28 O29 1.244 . S
O29 C28 1.244 . S
O30 C6 1.257 . S
O30 Zn9 2.019 . S
H31 C24 0.930 . S
H32 C11 0.930 . S
H33 C23 0.930 . S
Zn34 N38 2.020 . S
Zn34 O42 2.019 . S
Zn34 N44 2.119 . S
Zn34 O52 1.975 . S
C35 N36 1.334 . S
C35 N39 1.336 . S
N36 C35 1.334 . S
N36 C37 1.333 1_554 S
C37 N36 1.333 1_556 S
C37 N38 1.336 . S
N38 Zn34 2.020 . S
N38 C37 1.336 . S
N38 N39 1.354 1_556 S
N39 C35 1.336 . S
N39 N38 1.354 1_554 S
N39 Zn43 2.020 . S
C40 O41 1.244 . S
C40 O64 1.257 . S
O41 C40 1.244 . S
O42 Zn34 2.019 . S
O42 C62 1.257 . S
Zn43 N39 2.020 . S
Zn43 O50 1.975 . S
Zn43 N59 2.119 . S
Zn43 O64 2.019 . S
N44 Zn34 2.119 . S
N44 C46 1.334 . S
N44 C47 1.328 . S
C45 C46 1.391 . S
C45 N48 1.329 . S
C45 H66 0.930 . S
C46 N44 1.334 . S
C46 C45 1.391 . S
C46 H53 0.930 . S
C47 N44 1.328 . S
C47 C49 1.392 . S
C47 H54 0.930 . S
N48 C45 1.329 . S
N48 C49 1.331 . S
C49 C47 1.392 . S
C49 N48 1.331 . S
O50 Zn43 1.975 . S
O50 C51 1.252 . S
C51 O50 1.252 . S
C51 O52 1.252 1_554 S
O52 Zn34 1.975 . S
O52 C51 1.252 1_556 S
H53 C46 0.930 . S
H54 C47 0.930 . S
C55 C56 1.392 . S
C55 N59 1.328 . S
C55 H61 0.930 . S
C56 C55 1.392 . S
C56 N60 1.331 . S
C57 C58 1.391 . S
C57 N60 1.329 . S
C57 H67 0.930 . S
C58 C57 1.391 . S
C58 N59 1.334 . S
C58 H65 0.930 . S
N59 Zn43 2.119 . S
N59 C55 1.328 . S
N59 C58 1.334 . S
N60 C56 1.331 . S
N60 C57 1.329 . S
H61 C55 0.930 . S
C62 O42 1.257 . S
C62 O63 1.244 . S
O63 C62 1.244 . S
O64 C40 1.257 . S
O64 Zn43 2.019 . S
H65 C58 0.930 . S
H66 C45 0.930 . S
H67 C57 0.930 . S
Zn68 N72 2.020 . S
Zn68 O76 2.019 . S
Zn68 N78 2.119 . S
Zn68 O86 1.975 . S
C69 N70 1.334 . S
C69 N73 1.336 . S
N70 C69 1.334 . S
N70 C71 1.333 1_554 S
C71 N70 1.333 1_556 S
C71 N72 1.336 . S
N72 Zn68 2.020 . S
N72 C71 1.336 . S
N72 N73 1.354 1_556 S
N73 C69 1.336 . S
N73 N72 1.354 1_554 S
N73 Zn77 2.020 . S
C74 O75 1.244 . S
C74 O98 1.257 . S
O75 C74 1.244 . S
O76 Zn68 2.019 . S
O76 C96 1.257 . S
Zn77 N73 2.020 . S
Zn77 O84 1.975 . S
Zn77 N93 2.119 . S
Zn77 O98 2.019 . S
N78 Zn68 2.119 . S
N78 C80 1.334 . S
N78 C81 1.328 . S
C79 C80 1.391 . S
C79 N82 1.329 . S
C79 H100 0.930 . S
C80 N78 1.334 . S
C80 C79 1.391 . S
C80 H87 0.930 . S
C81 N78 1.328 . S
C81 C83 1.392 . S
C81 H88 0.930 . S
N82 C79 1.329 . S
N82 C83 1.331 . S
C83 C81 1.392 . S
C83 N82 1.331 . S
O84 Zn77 1.975 . S
O84 C85 1.252 . S
C85 O84 1.252 . S
C85 O86 1.252 1_554 S
O86 Zn68 1.975 . S
O86 C85 1.252 1_556 S
H87 C80 0.930 . S
H88 C81 0.930 . S
C89 C90 1.392 . S
C89 N93 1.328 . S
C89 H95 0.930 . S
C90 C89 1.392 . S
C90 N94 1.331 . S
C91 C92 1.391 . S
C91 N94 1.329 . S
C91 H101 0.930 . S
C92 C91 1.391 . S
C92 N93 1.334 . S
C92 H99 0.930 . S
N93 Zn77 2.119 . S
N93 C89 1.328 . S
N93 C92 1.334 . S
N94 C90 1.331 . S
N94 C91 1.329 . S
H95 C89 0.930 . S
C96 O76 1.257 . S
C96 O97 1.244 . S
O97 C96 1.244 . S
O98 C74 1.257 . S
O98 Zn77 2.019 . S
H99 C92 0.930 . S
H100 C79 0.930 . S
H101 C91 0.930 . S
Zn102 N106 2.020 . S
Zn102 O110 2.019 . S
Zn102 N112 2.119 . S
Zn102 O120 1.975 . S
C103 N104 1.333 1_556 S
C103 N107 1.336 . S
N104 C103 1.333 1_554 S
N104 C105 1.334 . S
C105 N104 1.334 . S
C105 N106 1.336 . S
N106 Zn102 2.020 . S
N106 C105 1.336 . S
N106 N107 1.354 1_554 S
N107 C103 1.336 . S
N107 N106 1.354 1_556 S
N107 Zn111 2.020 . S
C108 O109 1.244 . S
C108 O132 1.257 . S
O109 C108 1.244 . S
O110 Zn102 2.019 . S
O110 C130 1.257 . S
Zn111 N107 2.020 . S
Zn111 O118 1.975 . S
Zn111 N127 2.119 . S
Zn111 O132 2.019 . S
N112 Zn102 2.119 . S
N112 C114 1.334 . S
N112 C115 1.328 . S
C113 C114 1.391 . S
C113 N116 1.329 . S
C113 H134 0.930 . S
C114 N112 1.334 . S
C114 C113 1.391 . S
C114 H121 0.930 . S
C115 N112 1.328 . S
C115 C117 1.392 . S
C115 H122 0.930 . S
N116 C113 1.329 . S
N116 C117 1.331 . S
C117 C115 1.392 . S
C117 N116 1.331 . S
O118 Zn111 1.975 . S
O118 C119 1.252 1_556 S
C119 O118 1.252 1_554 S
C119 O120 1.252 . S
O120 Zn102 1.975 . S
O120 C119 1.252 . S
H121 C114 0.930 . S
H122 C115 0.930 . S
C123 C124 1.392 . S
C123 N127 1.328 . S
C123 H129 0.930 . S
C124 C123 1.392 . S
C124 N128 1.331 . S
C125 C126 1.391 . S
C125 N128 1.329 . S
C125 H135 0.930 . S
C126 C125 1.391 . S
C126 N127 1.334 . S
C126 H133 0.930 . S
N127 Zn111 2.119 . S
N127 C123 1.328 . S
N127 C126 1.334 . S
N128 C124 1.331 . S
N128 C125 1.329 . S
H129 C123 0.930 . S
C130 O110 1.257 . S
C130 O131 1.244 . S
O131 C130 1.244 . S
O132 C108 1.257 . S
O132 Zn111 2.019 . S
H133 C126 0.930 . S
H134 C113 0.930 . S
H135 C125 0.930 . S
Zn136 N140 2.020 . S
Zn136 O144 2.019 . S
Zn136 N146 2.119 . S
Zn136 O154 1.975 . S
C137 N138 1.334 . S
C137 N141 1.336 . S
N138 C137 1.334 . S
N138 C139 1.333 1_554 S
C139 N138 1.333 1_556 S
C139 N140 1.336 . S
N140 Zn136 2.020 . S
N140 C139 1.336 . S
N140 N141 1.354 1_556 S
N141 C137 1.336 . S
N141 N140 1.354 1_554 S
N141 Zn145 2.020 . S
C142 O143 1.244 . S
C142 O166 1.257 . S
O143 C142 1.244 . S
O144 Zn136 2.019 . S
O144 C164 1.257 . S
Zn145 N141 2.020 . S
Zn145 O152 1.975 . S
Zn145 N161 2.119 . S
Zn145 O166 2.019 . S
N146 Zn136 2.119 . S
N146 C148 1.334 . S
N146 C149 1.328 . S
C147 C148 1.391 . S
C147 N150 1.329 . S
C147 H168 0.930 . S
C148 N146 1.334 . S
C148 C147 1.391 . S
C148 H155 0.930 . S
C149 N146 1.328 . S
C149 C151 1.392 . S
C149 H156 0.930 . S
N150 C147 1.329 . S
N150 C151 1.331 . S
C151 C149 1.392 . S
C151 N150 1.331 . S
O152 Zn145 1.975 . S
O152 C153 1.252 . S
C153 O152 1.252 . S
C153 O154 1.252 1_554 S
O154 Zn136 1.975 . S
O154 C153 1.252 1_556 S
H155 C148 0.930 . S
H156 C149 0.930 . S
C157 C158 1.392 . S
C157 N161 1.328 . S
C157 H163 0.930 . S
C158 C157 1.392 . S
C158 N162 1.331 . S
C159 C160 1.391 . S
C159 N162 1.329 . S
C159 H169 0.930 . S
C160 C159 1.391 . S
C160 N161 1.334 . S
C160 H167 0.930 . S
N161 Zn145 2.119 . S
N161 C157 1.328 . S
N161 C160 1.334 . S
N162 C158 1.331 . S
N162 C159 1.329 . S
H163 C157 0.930 . S
C164 O144 1.257 . S
C164 O165 1.244 . S
O165 C164 1.244 . S
O166 C142 1.257 . S
O166 Zn145 2.019 . S
H167 C160 0.930 . S
H168 C147 0.930 . S
H169 C159 0.930 . S
Zn170 N174 2.020 . S
Zn170 O178 2.019 . S
Zn170 N180 2.119 . S
Zn170 O188 1.975 . S
C171 N172 1.333 1_556 S
C171 N175 1.336 . S
N172 C171 1.333 1_554 S
N172 C173 1.334 . S
C173 N172 1.334 . S
C173 N174 1.336 . S
N174 Zn170 2.020 . S
N174 C173 1.336 . S
N174 N175 1.354 1_554 S
N175 C171 1.336 . S
N175 N174 1.354 1_556 S
N175 Zn179 2.020 . S
C176 O177 1.244 . S
C176 O200 1.257 . S
O177 C176 1.244 . S
O178 Zn170 2.019 . S
O178 C198 1.257 . S
Zn179 N175 2.020 . S
Zn179 O186 1.975 . S
Zn179 N195 2.119 . S
Zn179 O200 2.019 . S
N180 Zn170 2.119 . S
N180 C182 1.334 . S
N180 C183 1.328 . S
C181 C182 1.391 . S
C181 N184 1.329 . S
C181 H202 0.930 . S
C182 N180 1.334 . S
C182 C181 1.391 . S
C182 H189 0.930 . S
C183 N180 1.328 . S
C183 C185 1.392 . S
C183 H190 0.930 . S
N184 C181 1.329 . S
N184 C185 1.331 . S
C185 C183 1.392 . S
C185 N184 1.331 . S
O186 Zn179 1.975 . S
O186 C187 1.252 1_556 S
C187 O186 1.252 1_554 S
C187 O188 1.252 . S
O188 Zn170 1.975 . S
O188 C187 1.252 . S
H189 C182 0.930 . S
H190 C183 0.930 . S
C191 C192 1.392 . S
C191 N195 1.328 . S
C191 H197 0.930 . S
C192 C191 1.392 . S
C192 N196 1.331 . S
C193 C194 1.391 . S
C193 N196 1.329 . S
C193 H203 0.930 . S
C194 C193 1.391 . S
C194 N195 1.334 . S
C194 H201 0.930 . S
N195 Zn179 2.119 . S
N195 C191 1.328 . S
N195 C194 1.334 . S
N196 C192 1.331 . S
N196 C193 1.329 . S
H197 C191 0.930 . S
C198 O178 1.257 . S
C198 O199 1.244 . S
O199 C198 1.244 . S
O200 C176 1.257 . S
O200 Zn179 2.019 . S
H201 C194 0.930 . S
H202 C181 0.930 . S
H203 C193 0.930 . S
Zn204 N208 2.020 . S
Zn204 O212 2.019 . S
Zn204 N214 2.119 . S
Zn204 O222 1.975 . S
C205 N206 1.334 . S
C205 N209 1.336 . S
N206 C205 1.334 . S
N206 C207 1.334 . S
C207 N206 1.334 . S
C207 N208 1.336 . S
N208 Zn204 2.020 . S
N208 C207 1.336 . S
N208 N209 1.354 . S
N209 C205 1.336 . S
N209 N208 1.354 . S
N209 Zn213 2.020 . S
C210 O211 1.244 . S
C210 O234 1.257 . S
O211 C210 1.244 . S
O212 Zn204 2.019 . S
O212 C232 1.257 . S
Zn213 N209 2.020 . S
Zn213 O220 1.975 . S
Zn213 N229 2.119 . S
Zn213 O234 2.019 . S
N214 Zn204 2.119 . S
N214 C216 1.334 . S
N214 C217 1.328 . S
C215 C216 1.391 . S
C215 N218 1.329 . S
C215 H236 0.930 . S
C216 N214 1.334 . S
C216 C215 1.391 . S
C216 H223 0.930 . S
C217 N214 1.328 . S
C217 C219 1.392 . S
C217 H224 0.930 . S
N218 C215 1.329 . S
N218 C219 1.331 . S
C219 C217 1.392 . S
C219 N218 1.331 . S
O220 Zn213 1.975 . S
O220 C221 1.252 . S
C221 O220 1.252 . S
C221 O222 1.252 . S
O222 Zn204 1.975 . S
O222 C221 1.252 . S
H223 C216 0.930 . S
H224 C217 0.930 . S
C225 C226 1.392 . S
C225 N229 1.328 . S
C225 H231 0.930 . S
C226 C225 1.392 . S
C226 N230 1.331 . S
C227 C228 1.391 . S
C227 N230 1.329 . S
C227 H237 0.930 . S
C228 C227 1.391 . S
C228 N229 1.334 . S
C228 H235 0.930 . S
N229 Zn213 2.119 . S
N229 C225 1.328 . S
N229 C228 1.334 . S
N230 C226 1.331 . S
N230 C227 1.329 . S
H231 C225 0.930 . S
C232 O212 1.257 . S
C232 O233 1.244 . S
O233 C232 1.244 . S
O234 C210 1.257 . S
O234 Zn213 2.019 . S
H235 C228 0.930 . S
H236 C215 0.930 . S
H237 C227 0.930 . S
Zn238 N242 2.020 . S
Zn238 O246 2.019 . S
Zn238 N248 2.119 . S
Zn238 O256 1.975 . S
C239 N240 1.334 . S
C239 N243 1.336 . S
N240 C239 1.334 . S
N240 C241 1.334 . S
C241 N240 1.334 . S
C241 N242 1.336 . S
N242 Zn238 2.020 . S
N242 C241 1.336 . S
N242 N243 1.354 . S
N243 C239 1.336 . S
N243 N242 1.354 . S
N243 Zn247 2.020 . S
C244 O245 1.244 . S
C244 O268 1.257 . S
O245 C244 1.244 . S
O246 Zn238 2.019 . S
O246 C266 1.257 . S
Zn247 N243 2.020 . S
Zn247 O254 1.975 . S
Zn247 N263 2.119 . S
Zn247 O268 2.019 . S
N248 Zn238 2.119 . S
N248 C250 1.334 . S
N248 C251 1.328 . S
C249 C250 1.391 . S
C249 N252 1.329 . S
C249 H270 0.930 . S
C250 N248 1.334 . S
C250 C249 1.391 . S
C250 H257 0.930 . S
C251 N248 1.328 . S
C251 C253 1.392 . S
C251 H258 0.930 . S
N252 C249 1.329 . S
N252 C253 1.331 . S
C253 C251 1.392 . S
C253 N252 1.331 . S
O254 Zn247 1.975 . S
O254 C255 1.252 . S
C255 O254 1.252 . S
C255 O256 1.252 . S
O256 Zn238 1.975 . S
O256 C255 1.252 . S
H257 C250 0.930 . S
H258 C251 0.930 . S
C259 C260 1.392 . S
C259 N263 1.328 . S
C259 H265 0.930 . S
C260 C259 1.392 . S
C260 N264 1.331 . S
C261 C262 1.391 . S
C261 N264 1.329 . S
C261 H271 0.930 . S
C262 C261 1.391 . S
C262 N263 1.334 . S
C262 H269 0.930 . S
N263 Zn247 2.119 . S
N263 C259 1.328 . S
N263 C262 1.334 . S
N264 C260 1.331 . S
N264 C261 1.329 . S
H265 C259 0.930 . S
C266 O246 1.257 . S
C266 O267 1.244 . S
O267 C266 1.244 . S
O268 C244 1.257 . S
O268 Zn247 2.019 . S
H269 C262 0.930 . S
H270 C249 0.930 . S
H271 C261 0.930 . S
Zn272 N276 2.020 . S
Zn272 O280 2.019 . S
Zn272 N282 2.119 . S
Zn272 O290 1.975 . S
C273 N274 1.334 . S
C273 N277 1.336 . S
N274 C273 1.334 . S
N274 C275 1.334 . S
C275 N274 1.334 . S
C275 N276 1.336 . S
N276 Zn272 2.020 . S
N276 C275 1.336 . S
N276 N277 1.354 . S
N277 C273 1.336 . S
N277 N276 1.354 . S
N277 Zn281 2.020 . S
C278 O279 1.244 . S
C278 O302 1.257 . S
O279 C278 1.244 . S
O280 Zn272 2.019 . S
O280 C300 1.257 . S
Zn281 N277 2.020 . S
Zn281 O288 1.975 . S
Zn281 N297 2.119 . S
Zn281 O302 2.019 . S
N282 Zn272 2.119 . S
N282 C284 1.334 . S
N282 C285 1.328 . S
C283 C284 1.391 . S
C283 N286 1.329 . S
C283 H304 0.930 . S
C284 N282 1.334 . S
C284 C283 1.391 . S
C284 H291 0.930 . S
C285 N282 1.328 . S
C285 C287 1.392 . S
C285 H292 0.930 . S
N286 C283 1.329 . S
N286 C287 1.331 . S
C287 C285 1.392 . S
C287 N286 1.331 . S
O288 Zn281 1.975 . S
O288 C289 1.252 . S
C289 O288 1.252 . S
C289 O290 1.252 . S
O290 Zn272 1.975 . S
O290 C289 1.252 . S
H291 C284 0.930 . S
H292 C285 0.930 . S
C293 C294 1.392 . S
C293 N297 1.328 . S
C293 H299 0.930 . S
C294 C293 1.392 . S
C294 N298 1.331 . S
C295 C296 1.391 . S
C295 N298 1.329 . S
C295 H305 0.930 . S
C296 C295 1.391 . S
C296 N297 1.334 . S
C296 H303 0.930 . S
N297 Zn281 2.119 . S
N297 C293 1.328 . S
N297 C296 1.334 . S
N298 C294 1.331 . S
N298 C295 1.329 . S
H299 C293 0.930 . S
C300 O280 1.257 . S
C300 O301 1.244 . S
O301 C300 1.244 . S
O302 C278 1.257 . S
O302 Zn281 2.019 . S
H303 C296 0.930 . S
H304 C283 0.930 . S
H305 C295 0.930 . S
Zn306 N310 2.020 . S
Zn306 O314 2.019 . S
Zn306 N316 2.119 . S
Zn306 O324 1.975 . S
C307 N308 1.334 . S
C307 N311 1.336 . S
N308 C307 1.334 . S
N308 C309 1.334 . S
C309 N308 1.334 . S
C309 N310 1.336 . S
N310 Zn306 2.020 . S
N310 C309 1.336 . S
N310 N311 1.354 . S
N311 C307 1.336 . S
N311 N310 1.354 . S
N311 Zn315 2.020 . S
C312 O313 1.244 . S
C312 O336 1.257 . S
O313 C312 1.244 . S
O314 Zn306 2.019 . S
O314 C334 1.257 . S
Zn315 N311 2.020 . S
Zn315 O322 1.975 . S
Zn315 N331 2.119 . S
Zn315 O336 2.019 . S
N316 Zn306 2.119 . S
N316 C318 1.334 . S
N316 C319 1.328 . S
C317 C318 1.391 . S
C317 N320 1.329 . S
C317 H338 0.930 . S
C318 N316 1.334 . S
C318 C317 1.391 . S
C318 H325 0.930 . S
C319 N316 1.328 . S
C319 C321 1.392 . S
C319 H326 0.930 . S
N320 C317 1.329 . S
N320 C321 1.331 . S
C321 C319 1.392 . S
C321 N320 1.331 . S
O322 Zn315 1.975 . S
O322 C323 1.252 . S
C323 O322 1.252 . S
C323 O324 1.252 . S
O324 Zn306 1.975 . S
O324 C323 1.252 . S
H325 C318 0.930 . S
H326 C319 0.930 . S
C327 C328 1.392 . S
C327 N331 1.328 . S
C327 H333 0.930 . S
C328 C327 1.392 . S
C328 N332 1.331 . S
C329 C330 1.391 . S
C329 N332 1.329 . S
C329 H339 0.930 . S
C330 C329 1.391 . S
C330 N331 1.334 . S
C330 H337 0.930 . S
N331 Zn315 2.119 . S
N331 C327 1.328 . S
N331 C330 1.334 . S
N332 C328 1.331 . S
N332 C329 1.329 . S
H333 C327 0.930 . S
C334 O314 1.257 . S
C334 O335 1.244 . S
O335 C334 1.244 . S
O336 C312 1.257 . S
O336 Zn315 2.019 . S
H337 C330 0.930 . S
H338 C317 0.930 . S
H339 C329 0.930 . S
Zn340 N344 2.020 . S
Zn340 O348 2.019 . S
Zn340 N350 2.119 . S
Zn340 O358 1.975 . S
C341 N342 1.334 . S
C341 N345 1.336 . S
N342 C341 1.334 . S
N342 C343 1.334 . S
C343 N342 1.334 . S
C343 N344 1.336 . S
N344 Zn340 2.020 . S
N344 C343 1.336 . S
N344 N345 1.354 . S
N345 C341 1.336 . S
N345 N344 1.354 . S
N345 Zn349 2.020 . S
C346 O347 1.244 . S
C346 O370 1.257 . S
O347 C346 1.244 . S
O348 Zn340 2.019 . S
O348 C368 1.257 . S
Zn349 N345 2.020 . S
Zn349 O356 1.975 . S
Zn349 N365 2.119 . S
Zn349 O370 2.019 . S
N350 Zn340 2.119 . S
N350 C352 1.334 . S
N350 C353 1.328 . S
C351 C352 1.391 . S
C351 N354 1.329 . S
C351 H372 0.930 . S
C352 N350 1.334 . S
C352 C351 1.391 . S
C352 H359 0.930 . S
C353 N350 1.328 . S
C353 C355 1.392 . S
C353 H360 0.930 . S
N354 C351 1.329 . S
N354 C355 1.331 . S
C355 C353 1.392 . S
C355 N354 1.331 . S
O356 Zn349 1.975 . S
O356 C357 1.252 . S
C357 O356 1.252 . S
C357 O358 1.252 . S
O358 Zn340 1.975 . S
O358 C357 1.252 . S
H359 C352 0.930 . S
H360 C353 0.930 . S
C361 C362 1.392 . S
C361 N365 1.328 . S
C361 H367 0.930 . S
C362 C361 1.392 . S
C362 N366 1.331 . S
C363 C364 1.391 . S
C363 N366 1.329 . S
C363 H373 0.930 . S
C364 C363 1.391 . S
C364 N365 1.334 . S
C364 H371 0.930 . S
N365 Zn349 2.119 . S
N365 C361 1.328 . S
N365 C364 1.334 . S
N366 C362 1.331 . S
N366 C363 1.329 . S
H367 C361 0.930 . S
C368 O348 1.257 . S
C368 O369 1.244 . S
O369 C368 1.244 . S
O370 C346 1.257 . S
O370 Zn349 2.019 . S
H371 C364 0.930 . S
H372 C351 0.930 . S
H373 C363 0.930 . S
Zn374 N378 2.020 . S
Zn374 O382 2.019 . S
Zn374 N384 2.119 . S
Zn374 O392 1.975 . S
C375 N376 1.334 . S
C375 N379 1.336 . S
N376 C375 1.334 . S
N376 C377 1.334 . S
C377 N376 1.334 . S
C377 N378 1.336 . S
N378 Zn374 2.020 . S
N378 C377 1.336 . S
N378 N379 1.354 . S
N379 C375 1.336 . S
N379 N378 1.354 . S
N379 Zn383 2.020 . S
C380 O381 1.244 . S
C380 O404 1.257 . S
O381 C380 1.244 . S
O382 Zn374 2.019 . S
O382 C402 1.257 . S
Zn383 N379 2.020 . S
Zn383 O390 1.975 . S
Zn383 N399 2.119 . S
Zn383 O404 2.019 . S
N384 Zn374 2.119 . S
N384 C386 1.334 . S
N384 C387 1.328 . S
C385 C386 1.391 . S
C385 N388 1.329 . S
C385 H406 0.930 . S
C386 N384 1.334 . S
C386 C385 1.391 . S
C386 H393 0.930 . S
C387 N384 1.328 . S
C387 C389 1.392 . S
C387 H394 0.930 . S
N388 C385 1.329 . S
N388 C389 1.331 . S
C389 C387 1.392 . S
C389 N388 1.331 . S
O390 Zn383 1.975 . S
O390 C391 1.252 . S
C391 O390 1.252 . S
C391 O392 1.252 . S
O392 Zn374 1.975 . S
O392 C391 1.252 . S
H393 C386 0.930 . S
H394 C387 0.930 . S
C395 C396 1.392 . S
C395 N399 1.328 . S
C395 H401 0.930 . S
C396 C395 1.392 . S
C396 N400 1.331 . S
C397 C398 1.391 . S
C397 N400 1.329 . S
C397 H407 0.930 . S
C398 C397 1.391 . S
C398 N399 1.334 . S
C398 H405 0.930 . S
N399 Zn383 2.119 . S
N399 C395 1.328 . S
N399 C398 1.334 . S
N400 C396 1.331 . S
N400 C397 1.329 . S
H401 C395 0.930 . S
C402 O382 1.257 . S
C402 O403 1.244 . S
O403 C402 1.244 . S
O404 C380 1.257 . S
O404 Zn383 2.019 . S
H405 C398 0.930 . S
H406 C385 0.930 . S
H407 C397 0.930 . S
C408 C409 1.391 . S
C408 C410 1.394 . S
C408 H424 0.931 . S
C409 C408 1.391 . S
C409 C413 1.376 . S
C410 C408 1.394 . S
C410 C411 1.369 . S
C410 C414 1.531 1_545 S
C411 C410 1.369 . S
C411 C412 1.410 . S
C411 C419 1.503 1_545 S
C412 C411 1.410 . S
C412 C413 1.392 . S
C412 C415 1.511 . S
C413 C409 1.376 . S
C413 C412 1.392 . S
C413 H425 0.929 . S
C414 C410 1.531 1_565 S
C414 H426 0.960 . S
C414 H427 0.963 . S
C414 H428 0.960 . S
C415 C412 1.511 . S
C415 H429 0.961 . S
C415 H430 0.961 . S
C415 H431 0.961 . S
C416 C417 1.370 . S
C416 C418 1.363 . S
C416 H432 0.931 . S
C417 C416 1.370 . S
C417 C421 1.408 . S
C418 C416 1.363 . S
C418 C419 1.370 . S
C418 C422 1.524 1_565 S
C419 C411 1.503 1_565 S
C419 C418 1.370 . S
C419 C420 1.403 . S
C420 C419 1.403 . S
C420 C421 1.404 . S
C420 C423 1.539 . S
C421 C417 1.408 . S
C421 C420 1.404 . S
C421 H433 0.930 . S
C422 C418 1.524 1_545 S
C422 H434 0.956 . S
C422 H435 0.961 . S
C422 H436 0.961 . S
C423 C420 1.539 . S
C423 H437 0.958 . S
C423 H438 0.961 . S
C423 H439 0.960 . S
H424 C408 0.931 . S
H425 C413 0.929 . S
H426 C414 0.960 . S
H427 C414 0.963 . S
H428 C414 0.960 . S
H429 C415 0.961 . S
H430 C415 0.961 . S
H431 C415 0.961 . S
H432 C416 0.931 . S
H433 C421 0.930 . S
H434 C422 0.956 . S
H435 C422 0.961 . S
H436 C422 0.961 . S
H437 C423 0.958 . S
H438 C423 0.961 . S
H439 C423 0.960 . S
C440 C441 1.391 . S
C440 C442 1.394 . S
C440 H456 0.931 . S
C441 C440 1.391 . S
C441 C445 1.376 . S
C442 C440 1.394 . S
C442 C443 1.369 . S
C442 C446 1.531 . S
C443 C442 1.369 . S
C443 C444 1.410 . S
C443 C451 1.503 . S
C444 C443 1.410 . S
C444 C445 1.392 . S
C444 C447 1.511 . S
C445 C441 1.376 . S
C445 C444 1.392 . S
C445 H457 0.929 . S
C446 C442 1.531 . S
C446 H458 0.960 . S
C446 H459 0.962 . S
C446 H460 0.960 . S
C447 C444 1.511 . S
C447 H461 0.961 . S
C447 H462 0.961 . S
C447 H463 0.961 . S
C448 C449 1.370 . S
C448 C450 1.363 . S
C448 H464 0.931 . S
C449 C448 1.370 . S
C449 C453 1.408 . S
C450 C448 1.363 . S
C450 C451 1.370 . S
C450 C454 1.524 . S
C451 C443 1.503 . S
C451 C450 1.370 . S
C451 C452 1.403 . S
C452 C451 1.403 . S
C452 C453 1.404 . S
C452 C455 1.539 . S
C453 C449 1.408 . S
C453 C452 1.404 . S
C453 H465 0.930 . S
C454 C450 1.524 . S
C454 H466 0.956 . S
C454 H467 0.961 . S
C454 H468 0.961 . S
C455 C452 1.539 . S
C455 H469 0.958 . S
C455 H470 0.961 . S
C455 H471 0.960 . S
H456 C440 0.931 . S
H457 C445 0.929 . S
H458 C446 0.960 . S
H459 C446 0.962 . S
H460 C446 0.960 . S
H461 C447 0.961 . S
H462 C447 0.961 . S
H463 C447 0.961 . S
H464 C448 0.931 . S
H465 C453 0.930 . S
H466 C454 0.956 . S
H467 C454 0.961 . S
H468 C454 0.961 . S
H469 C455 0.958 . S
H470 C455 0.961 . S
H471 C455 0.960 . S
C472 C473 1.391 . S
C472 C474 1.394 . S
C472 H488 0.931 . S
C473 C472 1.391 . S
C473 C477 1.376 . S
C474 C472 1.394 . S
C474 C475 1.369 . S
C474 C478 1.531 . S
C475 C474 1.369 . S
C475 C476 1.410 . S
C475 C483 1.503 1_455 S
C476 C475 1.410 . S
C476 C477 1.392 . S
C476 C479 1.511 1_455 S
C477 C473 1.376 . S
C477 C476 1.392 . S
C477 H489 0.929 . S
C478 C474 1.531 . S
C478 H490 0.960 . S
C478 H491 0.962 . S
C478 H492 0.960 . S
C479 C476 1.511 1_655 S
C479 H493 0.961 . S
C479 H494 0.961 . S
C479 H495 0.961 . S
C480 C481 1.370 . S
C480 C482 1.363 . S
C480 H496 0.931 . S
C481 C480 1.370 . S
C481 C485 1.408 . S
C482 C480 1.363 . S
C482 C483 1.370 . S
C482 C486 1.524 1_655 S
C483 C475 1.503 1_655 S
C483 C482 1.370 . S
C483 C484 1.403 . S
C484 C483 1.403 . S
C484 C485 1.404 . S
C484 C487 1.539 . S
C485 C481 1.408 . S
C485 C484 1.404 . S
C485 H497 0.930 . S
C486 C482 1.524 1_455 S
C486 H498 0.956 . S
C486 H499 0.960 . S
C486 H500 0.961 1_455 S
C487 C484 1.539 . S
C487 H501 0.958 . S
C487 H502 0.961 . S
C487 H503 0.960 . S
H488 C472 0.931 . S
H489 C477 0.929 . S
H490 C478 0.960 . S
H491 C478 0.962 . S
H492 C478 0.960 . S
H493 C479 0.961 . S
H494 C479 0.961 . S
H495 C479 0.961 . S
H496 C480 0.931 . S
H497 C485 0.930 . S
H498 C486 0.956 . S
H499 C486 0.960 . S
H500 C486 0.961 1_655 S
H501 C487 0.958 . S
H502 C487 0.961 . S
H503 C487 0.960 . S
C504 C505 1.391 . S
C504 C506 1.394 . S
C504 H520 0.931 . S
C505 C504 1.391 . S
C505 C509 1.376 . S
C506 C504 1.394 . S
C506 C507 1.369 . S
C506 C510 1.531 1_565 S
C507 C506 1.369 . S
C507 C508 1.410 . S
C507 C515 1.503 1_565 S
C508 C507 1.410 . S
C508 C509 1.392 . S
C508 C511 1.511 . S
C509 C505 1.376 . S
C509 C508 1.392 . S
C509 H521 0.929 . S
C510 C506 1.531 1_545 S
C510 H522 0.960 . S
C510 H523 0.962 . S
C510 H524 0.960 . S
C511 C508 1.511 . S
C511 H525 0.961 . S
C511 H526 0.961 . S
C511 H527 0.961 . S
C512 C513 1.370 . S
C512 C514 1.363 . S
C512 H528 0.931 . S
C513 C512 1.370 . S
C513 C517 1.408 . S
C514 C512 1.363 . S
C514 C515 1.370 . S
C514 C518 1.524 . S
C515 C507 1.503 1_545 S
C515 C514 1.370 . S
C515 C516 1.403 . S
C516 C515 1.403 . S
C516 C517 1.404 . S
C516 C519 1.539 . S
C517 C513 1.408 . S
C517 C516 1.404 . S
C517 H529 0.930 . S
C518 C514 1.524 . S
C518 H530 0.956 . S
C518 H531 0.961 1_545 S
C518 H532 0.961 . S
C519 C516 1.539 . S
C519 H533 0.958 . S
C519 H534 0.961 . S
C519 H535 0.960 1_545 S
H520 C504 0.931 . S
H521 C509 0.929 . S
H522 C510 0.960 . S
H523 C510 0.962 . S
H524 C510 0.960 . S
H525 C511 0.961 . S
H526 C511 0.961 . S
H527 C511 0.961 . S
H528 C512 0.931 . S
H529 C517 0.930 . S
H530 C518 0.956 . S
H531 C518 0.961 1_565 S
H532 C518 0.961 . S
H533 C519 0.958 . S
H534 C519 0.961 . S
H535 C519 0.960 1_565 S
C536 C537 1.391 . S
C536 C538 1.394 . S
C536 H552 0.931 . S
C537 C536 1.391 . S
C537 C541 1.376 . S
C538 C536 1.394 . S
C538 C539 1.369 . S
C538 C542 1.531 . S
C539 C538 1.369 . S
C539 C540 1.410 . S
C539 C547 1.503 . S
C540 C539 1.410 . S
C540 C541 1.392 . S
C540 C543 1.511 . S
C541 C537 1.376 . S
C541 C540 1.392 . S
C541 H553 0.929 . S
C542 C538 1.531 . S
C542 H554 0.960 . S
C542 H555 0.962 . S
C542 H556 0.960 . S
C543 C540 1.511 . S
C543 H557 0.961 . S
C543 H558 0.961 . S
C543 H559 0.961 . S
C544 C545 1.370 . S
C544 C546 1.363 . S
C544 H560 0.931 . S
C545 C544 1.370 . S
C545 C549 1.408 . S
C546 C544 1.363 . S
C546 C547 1.370 . S
C546 C550 1.524 . S
C547 C539 1.503 . S
C547 C546 1.370 . S
C547 C548 1.403 . S
C548 C547 1.403 . S
C548 C549 1.404 . S
C548 C551 1.539 . S
C549 C545 1.408 . S
C549 C548 1.404 . S
C549 H561 0.930 . S
C550 C546 1.524 . S
C550 H562 0.956 . S
C550 H563 0.961 . S
C550 H564 0.961 . S
C551 C548 1.539 . S
C551 H565 0.958 . S
C551 H566 0.961 . S
C551 H567 0.960 . S
H552 C536 0.931 . S
H553 C541 0.929 . S
H554 C542 0.960 . S
H555 C542 0.962 . S
H556 C542 0.960 . S
H557 C543 0.961 . S
H558 C543 0.961 . S
H559 C543 0.961 . S
H560 C544 0.931 . S
H561 C549 0.930 . S
H562 C550 0.956 . S
H563 C550 0.961 . S
H564 C550 0.961 . S
H565 C551 0.958 . S
H566 C551 0.961 . S
H567 C551 0.960 . S
C568 C569 1.391 . S
C568 C570 1.394 . S
C568 H584 0.931 . S
C569 C568 1.391 . S
C569 C573 1.376 . S
C570 C568 1.394 . S
C570 C571 1.369 . S
C570 C574 1.531 1_655 S
C571 C570 1.369 . S
C571 C572 1.410 . S
C571 C579 1.503 1_655 S
C572 C571 1.410 . S
C572 C573 1.392 . S
C572 C575 1.511 . S
C573 C569 1.376 . S
C573 C572 1.392 . S
C573 H585 0.929 . S
C574 C570 1.531 1_455 S
C574 H586 0.960 . S
C574 H587 0.962 . S
C574 H588 0.960 . S
C575 C572 1.511 . S
C575 H589 0.961 . S
C575 H590 0.961 . S
C575 H591 0.961 . S
C576 C577 1.370 . S
C576 C578 1.363 . S
C576 H592 0.931 . S
C577 C576 1.370 . S
C577 C581 1.408 . S
C578 C576 1.363 . S
C578 C579 1.370 . S
C578 C582 1.524 . S
C579 C571 1.503 1_455 S
C579 C578 1.370 . S
C579 C580 1.403 . S
C580 C579 1.403 . S
C580 C581 1.404 . S
C580 C583 1.539 1_455 S
C581 C577 1.408 . S
C581 C580 1.404 . S
C581 H593 0.930 . S
C582 C578 1.524 . S
C582 H594 0.956 . S
C582 H595 0.961 . S
C582 H596 0.961 . S
C583 C580 1.539 1_655 S
C583 H597 0.958 . S
C583 H598 0.961 . S
C583 H599 0.960 . S
H584 C568 0.931 . S
H585 C573 0.929 . S
H586 C574 0.960 . S
H587 C574 0.962 . S
H588 C574 0.960 . S
H589 C575 0.961 . S
H590 C575 0.961 . S
H591 C575 0.961 . S
H592 C576 0.931 . S
H593 C581 0.930 . S
H594 C582 0.956 . S
H595 C582 0.961 . S
H596 C582 0.961 . S
H597 C583 0.958 . S
H598 C583 0.961 . S
H599 C583 0.960 . S
C600 C601 1.391 . S
C600 C602 1.394 . S
C600 H616 0.931 . S
C601 C600 1.391 . S
C601 C605 1.376 . S
C602 C600 1.394 . S
C602 C603 1.369 . S
C602 C606 1.531 . S
C603 C602 1.369 . S
C603 C604 1.410 . S
C603 C611 1.503 1_545 S
C604 C603 1.410 . S
C604 C605 1.392 . S
C604 C607 1.511 1_545 S
C605 C601 1.376 . S
C605 C604 1.392 . S
C605 H617 0.929 . S
C606 C602 1.531 . S
C606 H618 0.960 . S
C606 H619 0.962 . S
C606 H620 0.960 . S
C607 C604 1.511 1_565 S
C607 H621 0.961 . S
C607 H622 0.961 . S
C607 H623 0.961 . S
C608 C609 1.370 . S
C608 C610 1.363 . S
C608 H624 0.931 . S
C609 C608 1.370 . S
C609 C613 1.408 . S
C610 C608 1.363 . S
C610 C611 1.370 . S
C610 C614 1.524 . S
C611 C603 1.503 1_565 S
C611 C610 1.370 . S
C611 C612 1.403 . S
C612 C611 1.403 . S
C612 C613 1.404 . S
C612 C615 1.539 . S
C613 C609 1.408 . S
C613 C612 1.404 . S
C613 H625 0.930 . S
C614 C610 1.524 . S
C614 H626 0.956 1_565 S
C614 H627 0.961 . S
C614 H628 0.961 . S
C615 C612 1.539 . S
C615 H629 0.958 . S
C615 H630 0.961 . S
C615 H631 0.960 . S
H616 C600 0.931 . S
H617 C605 0.929 . S
H618 C606 0.960 . S
H619 C606 0.962 . S
H620 C606 0.960 . S
H621 C607 0.961 . S
H622 C607 0.961 . S
H623 C607 0.961 . S
H624 C608 0.931 . S
H625 C613 0.930 . S
H626 C614 0.956 1_545 S
H627 C614 0.961 . S
H628 C614 0.961 . S
H629 C615 0.958 . S
H630 C615 0.961 . S
H631 C615 0.960 . S
C632 C633 1.391 . S
C632 C634 1.394 . S
C632 H648 0.931 . S
C633 C632 1.391 . S
C633 C637 1.376 . S
C634 C632 1.394 . S
C634 C635 1.369 . S
C634 C638 1.531 . S
C635 C634 1.369 . S
C635 C636 1.410 . S
C635 C643 1.503 . S
C636 C635 1.410 . S
C636 C637 1.392 . S
C636 C639 1.511 . S
C637 C633 1.376 . S
C637 C636 1.392 . S
C637 H649 0.929 . S
C638 C634 1.531 . S
C638 H650 0.960 . S
C638 H651 0.962 . S
C638 H652 0.960 . S
C639 C636 1.511 . S
C639 H653 0.961 . S
C639 H654 0.961 . S
C639 H655 0.961 . S
C640 C641 1.370 . S
C640 C642 1.363 . S
C640 H656 0.931 . S
C641 C640 1.370 . S
C641 C645 1.408 . S
C642 C640 1.363 . S
C642 C643 1.370 . S
C642 C646 1.524 . S
C643 C635 1.503 . S
C643 C642 1.370 . S
C643 C644 1.403 . S
C644 C643 1.403 . S
C644 C645 1.404 . S
C644 C647 1.539 . S
C645 C641 1.408 . S
C645 C644 1.404 . S
C645 H657 0.930 . S
C646 C642 1.524 . S
C646 H658 0.956 . S
C646 H659 0.961 . S
C646 H660 0.961 . S
C647 C644 1.539 . S
C647 H661 0.958 . S
C647 H662 0.961 . S
C647 H663 0.960 . S
H648 C632 0.931 . S
H649 C637 0.929 . S
H650 C638 0.960 . S
H651 C638 0.962 . S
H652 C638 0.960 . S
H653 C639 0.961 . S
H654 C639 0.961 . S
H655 C639 0.961 . S
H656 C640 0.931 . S
H657 C645 0.930 . S
H658 C646 0.956 . S
H659 C646 0.961 . S
H660 C646 0.961 . S
H661 C647 0.958 . S
H662 C647 0.961 . S
H663 C647 0.960 . S
C664 C665 1.391 . S
C664 C666 1.394 . S
C664 H680 0.931 . S
C665 C664 1.391 . S
C665 C669 1.376 . S
C666 C664 1.394 . S
C666 C667 1.369 . S
C666 C670 1.531 . S
C667 C666 1.369 . S
C667 C668 1.410 . S
C667 C675 1.503 1_455 S
C668 C667 1.410 . S
C668 C669 1.392 . S
C668 C671 1.511 1_455 S
C669 C665 1.376 . S
C669 C668 1.392 . S
C669 H681 0.929 . S
C670 C666 1.531 . S
C670 H682 0.960 . S
C670 H683 0.962 . S
C670 H684 0.960 . S
C671 C668 1.511 1_655 S
C671 H685 0.961 . S
C671 H686 0.961 . S
C671 H687 0.961 . S
C672 C673 1.370 . S
C672 C674 1.363 . S
C672 H688 0.931 . S
C673 C672 1.370 . S
C673 C677 1.408 . S
C674 C672 1.363 . S
C674 C675 1.370 . S
C674 C678 1.524 1_655 S
C675 C667 1.503 1_655 S
C675 C674 1.370 . S
C675 C676 1.403 . S
C676 C675 1.403 . S
C676 C677 1.404 . S
C676 C679 1.539 . S
C677 C673 1.408 . S
C677 C676 1.404 . S
C677 H689 0.930 . S
C678 C674 1.524 1_455 S
C678 H690 0.956 . S
C678 H691 0.961 . S
C678 H692 0.961 . S
C679 C676 1.539 . S
C679 H693 0.958 . S
C679 H694 0.961 . S
C679 H695 0.960 . S
H680 C664 0.931 . S
H681 C669 0.929 . S
H682 C670 0.960 . S
H683 C670 0.962 . S
H684 C670 0.960 . S
H685 C671 0.961 . S
H686 C671 0.961 . S
H687 C671 0.961 . S
H688 C672 0.931 . S
H689 C677 0.930 . S
H690 C678 0.956 . S
H691 C678 0.961 . S
H692 C678 0.961 . S
H693 C679 0.958 . S
H694 C679 0.961 . S
H695 C679 0.960 . S
C696 C697 1.391 . S
C696 C698 1.394 . S
C696 H712 0.931 . S
C697 C696 1.391 . S
C697 C701 1.376 . S
C698 C696 1.394 . S
C698 C699 1.369 . S
C698 C702 1.531 . S
C699 C698 1.369 . S
C699 C700 1.410 . S
C699 C707 1.503 1_545 S
C700 C699 1.410 . S
C700 C701 1.392 . S
C700 C703 1.511 . S
C701 C697 1.376 . S
C701 C700 1.392 . S
C701 H713 0.929 . S
C702 C698 1.531 . S
C702 H714 0.960 . S
C702 H715 0.962 1_545 S
C702 H716 0.960 . S
C703 C700 1.511 . S
C703 H717 0.961 . S
C703 H718 0.961 1_545 S
C703 H719 0.961 . S
C704 C705 1.370 . S
C704 C706 1.363 . S
C704 H720 0.931 . S
C705 C704 1.370 . S
C705 C709 1.408 . S
C706 C704 1.363 . S
C706 C707 1.370 . S
C706 C710 1.524 . S
C707 C699 1.503 1_565 S
C707 C706 1.370 . S
C707 C708 1.403 . S
C708 C707 1.403 . S
C708 C709 1.404 . S
C708 C711 1.539 1_565 S
C709 C705 1.408 . S
C709 C708 1.404 . S
C709 H721 0.930 . S
C710 C706 1.524 . S
C710 H722 0.956 . S
C710 H723 0.961 . S
C710 H724 0.961 . S
C711 C708 1.539 1_545 S
C711 H725 0.958 . S
C711 H726 0.961 . S
C711 H727 0.960 . S
H712 C696 0.931 . S
H713 C701 0.929 . S
H714 C702 0.960 . S
H715 C702 0.962 1_565 S
H716 C702 0.960 . S
H717 C703 0.961 . S
H718 C703 0.961 1_565 S
H719 C703 0.961 . S
H720 C704 0.931 . S
H721 C709 0.930 . S
H722 C710 0.956 . S
H723 C710 0.961 . S
H724 C710 0.961 . S
H725 C711 0.958 . S
H726 C711 0.961 . S
H727 C711 0.960 . S
C728 C729 1.391 . S
C728 C730 1.394 . S
C728 H744 0.931 . S
C729 C728 1.391 . S
C729 C733 1.376 . S
C730 C728 1.394 . S
C730 C731 1.369 . S
C730 C734 1.531 . S
C731 C730 1.369 . S
C731 C732 1.410 . S
C731 C739 1.503 . S
C732 C731 1.410 . S
C732 C733 1.392 . S
C732 C735 1.511 . S
C733 C729 1.376 . S
C733 C732 1.392 . S
C733 H745 0.929 . S
C734 C730 1.531 . S
C734 H746 0.960 . S
C734 H747 0.962 . S
C734 H748 0.960 . S
C735 C732 1.511 . S
C735 H749 0.961 . S
C735 H750 0.961 . S
C735 H751 0.961 . S
C736 C737 1.370 . S
C736 C738 1.363 . S
C736 H752 0.931 . S
C737 C736 1.370 . S
C737 C741 1.408 . S
C738 C736 1.363 . S
C738 C739 1.370 . S
C738 C742 1.524 . S
C739 C731 1.503 . S
C739 C738 1.370 . S
C739 C740 1.403 . S
C740 C739 1.403 . S
C740 C741 1.404 . S
C740 C743 1.539 . S
C741 C737 1.408 . S
C741 C740 1.404 . S
C741 H753 0.930 . S
C742 C738 1.524 . S
C742 H754 0.956 . S
C742 H755 0.961 . S
C742 H756 0.961 . S
C743 C740 1.539 . S
C743 H757 0.958 . S
C743 H758 0.961 . S
C743 H759 0.960 . S
H744 C728 0.931 . S
H745 C733 0.929 . S
H746 C734 0.960 . S
H747 C734 0.962 . S
H748 C734 0.960 . S
H749 C735 0.961 . S
H750 C735 0.961 . S
H751 C735 0.961 . S
H752 C736 0.931 . S
H753 C741 0.930 . S
H754 C742 0.956 . S
H755 C742 0.961 . S
H756 C742 0.961 . S
H757 C743 0.958 . S
H758 C743 0.961 . S
H759 C743 0.960 . S
C760 C761 1.391 . S
C760 C762 1.394 . S
C760 H776 0.931 . S
C761 C760 1.391 . S
C761 C765 1.376 . S
C762 C760 1.394 . S
C762 C763 1.369 . S
C762 C766 1.531 1_455 S
C763 C762 1.369 . S
C763 C764 1.410 . S
C763 C771 1.503 1_455 S
C764 C763 1.410 . S
C764 C765 1.392 . S
C764 C767 1.511 . S
C765 C761 1.376 . S
C765 C764 1.392 . S
C765 H777 0.929 . S
C766 C762 1.531 1_655 S
C766 H778 0.960 . S
C766 H779 0.962 1_655 S
C766 H780 0.960 . S
C767 C764 1.511 . S
C767 H781 0.961 . S
C767 H782 0.961 . S
C767 H783 0.961 . S
C768 C769 1.370 . S
C768 C770 1.363 . S
C768 H784 0.931 . S
C769 C768 1.370 . S
C769 C773 1.408 . S
C770 C768 1.363 . S
C770 C771 1.370 . S
C770 C774 1.524 1_655 S
C771 C763 1.503 1_655 S
C771 C770 1.370 . S
C771 C772 1.403 . S
C772 C771 1.403 . S
C772 C773 1.404 . S
C772 C775 1.539 . S
C773 C769 1.408 . S
C773 C772 1.404 . S
C773 H785 0.930 . S
C774 C770 1.524 1_455 S
C774 H786 0.956 . S
C774 H787 0.961 . S
C774 H788 0.961 . S
C775 C772 1.539 . S
C775 H789 0.958 . S
C775 H790 0.961 . S
C775 H791 0.960 . S
H776 C760 0.931 . S
H777 C765 0.929 . S
H778 C766 0.960 . S
H779 C766 0.962 1_455 S
H780 C766 0.960 . S
H781 C767 0.961 . S
H782 C767 0.961 . S
H783 C767 0.961 . S
H784 C768 0.931 . S
H785 C773 0.930 . S
H786 C774 0.956 . S
H787 C774 0.961 . S
H788 C774 0.961 . S
H789 C775 0.958 . S
H790 C775 0.961 . S
H791 C775 0.960 . S
C792 C793 1.391 1_554 S
C792 C794 1.394 . S
C792 H808 0.931 . S
C793 C792 1.391 1_556 S
C793 C797 1.376 . S
C794 C792 1.394 . S
C794 C795 1.369 1_554 S
C794 C798 1.531 1_565 S
C795 C794 1.369 1_556 S
C795 C796 1.410 . S
C795 C803 1.503 1_565 S
C796 C795 1.410 . S
C796 C797 1.392 . S
C796 C799 1.511 . S
C797 C793 1.376 . S
C797 C796 1.392 . S
C797 H809 0.929 . S
C798 C794 1.531 1_545 S
C798 H810 0.960 . S
C798 H811 0.962 . S
C798 H812 0.960 . S
C799 C796 1.511 . S
C799 H813 0.961 . S
C799 H814 0.961 . S
C799 H815 0.961 . S
C800 C801 1.370 1_554 S
C800 C802 1.363 . S
C800 H816 0.931 . S
C801 C800 1.370 1_556 S
C801 C805 1.408 . S
C802 C800 1.363 . S
C802 C803 1.370 1_554 S
C802 C806 1.524 1_545 S
C803 C795 1.503 1_545 S
C803 C802 1.370 1_556 S
C803 C804 1.403 . S
C804 C803 1.403 . S
C804 C805 1.404 . S
C804 C807 1.539 . S
C805 C801 1.408 . S
C805 C804 1.404 . S
C805 H817 0.930 . S
C806 C802 1.524 1_565 S
C806 H818 0.956 . S
C806 H819 0.961 . S
C806 H820 0.961 . S
C807 C804 1.539 . S
C807 H821 0.958 . S
C807 H822 0.961 . S
C807 H823 0.960 . S
H808 C792 0.931 . S
H809 C797 0.929 . S
H810 C798 0.960 . S
H811 C798 0.962 . S
H812 C798 0.960 . S
H813 C799 0.961 . S
H814 C799 0.961 . S
H815 C799 0.961 . S
H816 C800 0.931 . S
H817 C805 0.930 . S
H818 C806 0.956 . S
H819 C806 0.961 . S
H820 C806 0.961 . S
H821 C807 0.958 . S
H822 C807 0.961 . S
H823 C807 0.960 . S
C824 C825 1.391 1_554 S
C824 C826 1.394 . S
C824 H840 0.931 . S
C825 C824 1.391 1_556 S
C825 C829 1.376 . S
C826 C824 1.394 . S
C826 C827 1.369 1_554 S
C826 C830 1.531 . S
C827 C826 1.369 1_556 S
C827 C828 1.410 . S
C827 C835 1.503 . S
C828 C827 1.410 . S
C828 C829 1.392 . S
C828 C831 1.511 . S
C829 C825 1.376 . S
C829 C828 1.392 . S
C829 H841 0.929 . S
C830 C826 1.531 . S
C830 H842 0.960 . S
C830 H843 0.962 . S
C830 H844 0.960 . S
C831 C828 1.511 . S
C831 H845 0.961 . S
C831 H846 0.961 . S
C831 H847 0.961 . S
C832 C833 1.370 1_554 S
C832 C834 1.363 . S
C832 H848 0.931 . S
C833 C832 1.370 1_556 S
C833 C837 1.408 . S
C834 C832 1.363 . S
C834 C835 1.370 1_554 S
C834 C838 1.524 . S
C835 C827 1.503 . S
C835 C834 1.370 1_556 S
C835 C836 1.403 . S
C836 C835 1.403 . S
C836 C837 1.404 . S
C836 C839 1.539 . S
C837 C833 1.408 . S
C837 C836 1.404 . S
C837 H849 0.930 . S
C838 C834 1.524 . S
C838 H850 0.956 . S
C838 H851 0.961 . S
C838 H852 0.961 . S
C839 C836 1.539 . S
C839 H853 0.958 . S
C839 H854 0.961 . S
C839 H855 0.960 . S
H840 C824 0.931 . S
H841 C829 0.929 . S
H842 C830 0.960 . S
H843 C830 0.962 . S
H844 C830 0.960 . S
H845 C831 0.961 . S
H846 C831 0.961 . S
H847 C831 0.961 . S
H848 C832 0.931 . S
H849 C837 0.930 . S
H850 C838 0.956 . S
H851 C838 0.961 . S
H852 C838 0.961 . S
H853 C839 0.958 . S
H854 C839 0.961 . S
H855 C839 0.960 . S
C856 C857 1.391 . S
C856 C858 1.394 . S
C856 H872 0.931 . S
C857 C856 1.391 . S
C857 C861 1.376 1_556 S
C858 C856 1.394 . S
C858 C859 1.369 . S
C858 C862 1.531 1_455 S
C859 C858 1.369 . S
C859 C860 1.410 1_556 S
C859 C867 1.503 1_455 S
C860 C859 1.410 1_554 S
C860 C861 1.392 . S
C860 C863 1.511 . S
C861 C857 1.376 1_554 S
C861 C860 1.392 . S
C861 H873 0.929 . S
C862 C858 1.531 1_655 S
C862 H874 0.960 . S
C862 H875 0.962 . S
C862 H876 0.960 . S
C863 C860 1.511 . S
C863 H877 0.961 . S
C863 H878 0.961 . S
C863 H879 0.961 . S
C864 C865 1.358 1_554 S
C864 C866 1.363 . S
C864 H880 0.931 . S
C865 C864 1.358 1_556 S
C865 C869 1.423 . S
C866 C864 1.363 . S
C866 C867 1.370 1_554 S
C866 C870 1.524 . S
C867 C859 1.503 1_655 S
C867 C866 1.370 1_556 S
C867 C868 1.403 . S
C868 C867 1.403 . S
C868 C869 1.404 . S
C868 C871 1.539 1_655 S
C869 C865 1.423 . S
C869 C868 1.404 . S
C869 H881 0.930 . S
C870 C866 1.524 . S
C870 H882 0.956 . S
C870 H883 0.961 . S
C870 H884 0.961 . S
C871 C868 1.539 1_455 S
C871 H885 0.958 . S
C871 H886 0.961 . S
C871 H887 0.960 . S
H872 C856 0.931 . S
H873 C861 0.929 . S
H874 C862 0.960 . S
H875 C862 0.962 . S
H876 C862 0.960 . S
H877 C863 0.961 . S
H878 C863 0.961 . S
H879 C863 0.961 . S
H880 C864 0.931 . S
H881 C869 0.930 . S
H882 C870 0.956 . S
H883 C870 0.961 . S
H884 C870 0.961 . S
H885 C871 0.958 . S
H886 C871 0.961 . S
H887 C871 0.960 . S
C888 C889 1.391 . S
C888 C890 1.394 . S
C888 H904 0.931 . S
C889 C888 1.391 . S
C889 C893 1.376 . S
C890 C888 1.394 . S
C890 C891 1.369 . S
C890 C894 1.531 . S
C891 C890 1.369 . S
C891 C892 1.410 . S
C891 C899 1.503 1_655 S
C892 C891 1.410 . S
C892 C893 1.392 . S
C892 C895 1.511 1_655 S
C893 C889 1.376 . S
C893 C892 1.392 . S
C893 H905 0.929 . S
C894 C890 1.531 . S
C894 H906 0.960 . S
C894 H907 0.962 . S
C894 H908 0.960 . S
C895 C892 1.511 1_455 S
C895 H909 0.961 . S
C895 H910 0.961 . S
C895 H911 0.961 . S
C896 C897 1.370 . S
C896 C898 1.363 . S
C896 H912 0.931 . S
C897 C896 1.370 . S
C897 C901 1.408 . S
C898 C896 1.363 . S
C898 C899 1.370 . S
C898 C902 1.524 . S
C899 C891 1.503 1_455 S
C899 C898 1.370 . S
C899 C900 1.403 . S
C900 C899 1.403 . S
C900 C901 1.404 . S
C900 C903 1.539 1_455 S
C901 C897 1.408 . S
C901 C900 1.404 . S
C901 H913 0.930 . S
C902 C898 1.524 . S
C902 H914 0.956 . S
C902 H915 0.961 . S
C902 H916 0.961 . S
C903 C900 1.539 1_655 S
C903 H917 0.958 . S
C903 H918 0.961 1_655 S
C903 H919 0.960 . S
H904 C888 0.931 . S
H905 C893 0.929 . S
H906 C894 0.960 . S
H907 C894 0.962 . S
H908 C894 0.960 . S
H909 C895 0.961 . S
H910 C895 0.961 . S
H911 C895 0.961 . S
H912 C896 0.931 . S
H913 C901 0.930 . S
H914 C902 0.956 . S
H915 C902 0.961 . S
H916 C902 0.961 . S
H917 C903 0.958 . S
H918 C903 0.961 1_455 S
H919 C903 0.960 . S
C920 C921 1.391 . S
C920 C922 1.394 . S
C920 H936 0.931 . S
C921 C920 1.391 . S
C921 C925 1.376 . S
C922 C920 1.394 . S
C922 C923 1.369 . S
C922 C926 1.531 1_565 S
C923 C922 1.369 . S
C923 C924 1.410 . S
C923 C931 1.503 1_565 S
C924 C923 1.410 . S
C924 C925 1.392 . S
C924 C927 1.511 . S
C925 C921 1.376 . S
C925 C924 1.392 . S
C925 H937 0.929 . S
C926 C922 1.531 1_545 S
C926 H938 0.960 . S
C926 H939 0.962 . S
C926 H940 0.960 . S
C927 C924 1.511 . S
C927 H941 0.961 . S
C927 H942 0.961 . S
C927 H943 0.961 . S
C928 C929 1.370 . S
C928 C930 1.363 . S
C928 H944 0.931 . S
C929 C928 1.370 . S
C929 C933 1.408 . S
C930 C928 1.363 . S
C930 C931 1.370 . S
C930 C934 1.524 . S
C931 C923 1.503 1_545 S
C931 C930 1.370 . S
C931 C932 1.403 . S
C932 C931 1.403 . S
C932 C933 1.404 . S
C932 C935 1.539 1_545 S
C933 C929 1.408 . S
C933 C932 1.404 . S
C933 H945 0.930 . S
C934 C930 1.524 . S
C934 H946 0.956 . S
C934 H947 0.961 . S
C934 H948 0.961 . S
C935 C932 1.539 1_565 S
C935 H949 0.958 . S
C935 H950 0.961 . S
C935 H951 0.960 . S
H936 C920 0.931 . S
H937 C925 0.929 . S
H938 C926 0.960 . S
H939 C926 0.962 . S
H940 C926 0.960 . S
H941 C927 0.961 . S
H942 C927 0.961 . S
H943 C927 0.961 . S
H944 C928 0.931 . S
H945 C933 0.930 . S
H946 C934 0.956 . S
H947 C934 0.961 . S
H948 C934 0.961 . S
H949 C935 0.958 . S
H950 C935 0.961 . S
H951 C935 0.960 . S
C952 C953 1.391 . S
C952 C954 1.394 . S
C952 H968 0.931 . S
C953 C952 1.391 . S
C953 C957 1.376 . S
C954 C952 1.394 . S
C954 C955 1.369 . S
C954 C958 1.531 . S
C955 C954 1.369 . S
C955 C956 1.410 . S
C955 C963 1.503 . S
C956 C955 1.410 . S
C956 C957 1.392 . S
C956 C959 1.511 . S
C957 C953 1.376 . S
C957 C956 1.392 . S
C957 H969 0.929 . S
C958 C954 1.531 . S
C958 H970 0.960 . S
C958 H971 0.962 . S
C958 H972 0.960 . S
C959 C956 1.511 . S
C959 H973 0.961 . S
C959 H974 0.961 . S
C959 H975 0.961 . S
C960 C961 1.370 . S
C960 C962 1.363 . S
C960 H976 0.931 . S
C961 C960 1.370 . S
C961 C965 1.408 . S
C962 C960 1.363 . S
C962 C963 1.370 . S
C962 C966 1.524 . S
C963 C955 1.503 . S
C963 C962 1.370 . S
C963 C964 1.403 . S
C964 C963 1.403 . S
C964 C965 1.404 . S
C964 C967 1.539 . S
C965 C961 1.408 . S
C965 C964 1.404 . S
C965 H977 0.930 . S
C966 C962 1.524 . S
C966 H978 0.956 . S
C966 H979 0.961 . S
C966 H980 0.961 . S
C967 C964 1.539 . S
C967 H981 0.958 . S
C967 H982 0.961 . S
C967 H983 0.960 . S
H968 C952 0.931 . S
H969 C957 0.929 . S
H970 C958 0.960 . S
H971 C958 0.962 . S
H972 C958 0.960 . S
H973 C959 0.961 . S
H974 C959 0.961 . S
H975 C959 0.961 . S
H976 C960 0.931 . S
H977 C965 0.930 . S
H978 C966 0.956 . S
H979 C966 0.961 . S
H980 C966 0.961 . S
H981 C967 0.958 . S
H982 C967 0.961 . S
H983 C967 0.960 . S
C984 C985 1.391 . S
C984 C986 1.394 . S
C984 H1000 0.931 . S
C985 C984 1.391 . S
C985 C989 1.376 . S
C986 C984 1.394 . S
C986 C987 1.369 . S
C986 C990 1.531 . S
C987 C986 1.369 . S
C987 C988 1.410 . S
C987 C995 1.503 . S
C988 C987 1.410 . S
C988 C989 1.392 . S
C988 C991 1.511 . S
C989 C985 1.376 . S
C989 C988 1.392 . S
C989 H1001 0.929 . S
C990 C986 1.531 . S
C990 H1002 0.960 . S
C990 H1003 0.962 . S
C990 H1004 0.960 . S
C991 C988 1.511 . S
C991 H1005 0.961 . S
C991 H1006 0.961 . S
C991 H1007 0.961 . S
C992 C993 1.370 . S
C992 C994 1.363 . S
C992 H1008 0.931 . S
C993 C992 1.370 . S
C993 C997 1.408 . S
C994 C992 1.363 . S
C994 C995 1.370 . S
C994 C998 1.524 . S
C995 C987 1.503 . S
C995 C994 1.370 . S
C995 C996 1.403 . S
C996 C995 1.403 . S
C996 C997 1.404 . S
C996 C999 1.539 . S
C997 C993 1.408 . S
C997 C996 1.404 . S
C997 H1009 0.930 . S
C998 C994 1.524 . S
C998 H1010 0.956 . S
C998 H1011 0.961 . S
C998 H1012 0.961 . S
C999 C996 1.539 . S
C999 H1013 0.958 . S
C999 H1014 0.961 . S
C999 H1015 0.960 . S
H1000 C984 0.931 . S
H1001 C989 0.929 . S
H1002 C990 0.960 . S
H1003 C990 0.962 . S
H1004 C990 0.960 . S
H1005 C991 0.961 . S
H1006 C991 0.961 . S
H1007 C991 0.961 . S
H1008 C992 0.931 . S
H1009 C997 0.930 . S
H1010 C998 0.956 . S
H1011 C998 0.961 . S
H1012 C998 0.961 . S
H1013 C999 0.958 . S
H1014 C999 0.961 . S
H1015 C999 0.960 . S
C1016 C1017 1.391 . S
C1016 C1018 1.394 . S
C1016 H1032 0.931 . S
C1017 C1016 1.391 . S
C1017 C1021 1.376 . S
C1018 C1016 1.394 . S
C1018 C1019 1.369 . S
C1018 C1022 1.531 . S
C1019 C1018 1.369 . S
C1019 C1020 1.410 . S
C1019 C1027 1.503 . S
C1020 C1019 1.410 . S
C1020 C1021 1.392 . S
C1020 C1023 1.511 . S
C1021 C1017 1.376 . S
C1021 C1020 1.392 . S
C1021 H1033 0.929 . S
C1022 C1018 1.531 . S
C1022 H1034 0.960 . S
C1022 H1035 0.962 . S
C1022 H1036 0.960 . S
C1023 C1020 1.511 . S
C1023 H1037 0.961 . S
C1023 H1038 0.961 . S
C1023 H1039 0.961 . S
C1024 C1025 1.370 . S
C1024 C1026 1.363 . S
C1024 H1040 0.931 . S
C1025 C1024 1.370 . S
C1025 C1029 1.408 . S
C1026 C1024 1.363 . S
C1026 C1027 1.370 . S
C1026 C1030 1.524 . S
C1027 C1019 1.503 . S
C1027 C1026 1.370 . S
C1027 C1028 1.403 . S
C1028 C1027 1.403 . S
C1028 C1029 1.404 . S
C1028 C1031 1.539 . S
C1029 C1025 1.408 . S
C1029 C1028 1.404 . S
C1029 H1041 0.930 . S
C1030 C1026 1.524 . S
C1030 H1042 0.956 . S
C1030 H1043 0.961 . S
C1030 H1044 0.961 . S
C1031 C1028 1.539 . S
C1031 H1045 0.958 . S
C1031 H1046 0.961 . S
C1031 H1047 0.960 . S
H1032 C1016 0.931 . S
H1033 C1021 0.929 . S
H1034 C1022 0.960 . S
H1035 C1022 0.962 . S
H1036 C1022 0.960 . S
H1037 C1023 0.961 . S
H1038 C1023 0.961 . S
H1039 C1023 0.961 . S
H1040 C1024 0.931 . S
H1041 C1029 0.930 . S
H1042 C1030 0.956 . S
H1043 C1030 0.961 . S
H1044 C1030 0.961 . S
H1045 C1031 0.958 . S
H1046 C1031 0.961 . S
H1047 C1031 0.960 . S
C1048 C1049 1.391 . S
C1048 C1050 1.394 . S
C1048 H1064 0.931 . S
C1049 C1048 1.391 . S
C1049 C1053 1.376 . S
C1050 C1048 1.394 . S
C1050 C1051 1.369 . S
C1050 C1054 1.531 . S
C1051 C1050 1.369 . S
C1051 C1052 1.410 . S
C1051 C1059 1.503 . S
C1052 C1051 1.410 . S
C1052 C1053 1.392 . S
C1052 C1055 1.511 . S
C1053 C1049 1.376 . S
C1053 C1052 1.392 . S
C1053 H1065 0.929 . S
C1054 C1050 1.531 . S
C1054 H1066 0.960 . S
C1054 H1067 0.962 . S
C1054 H1068 0.960 . S
C1055 C1052 1.511 . S
C1055 H1069 0.961 . S
C1055 H1070 0.961 . S
C1055 H1071 0.961 . S
C1056 C1057 1.370 . S
C1056 C1058 1.363 . S
C1056 H1072 0.931 . S
C1057 C1056 1.370 . S
C1057 C1061 1.408 . S
C1058 C1056 1.363 . S
C1058 C1059 1.370 . S
C1058 C1062 1.524 . S
C1059 C1051 1.503 . S
C1059 C1058 1.370 . S
C1059 C1060 1.403 . S
C1060 C1059 1.403 . S
C1060 C1061 1.404 . S
C1060 C1063 1.539 . S
C1061 C1057 1.408 . S
C1061 C1060 1.404 . S
C1061 H1073 0.930 . S
C1062 C1058 1.524 . S
C1062 H1074 0.956 . S
C1062 H1075 0.961 . S
C1062 H1076 0.961 . S
C1063 C1060 1.539 . S
C1063 H1077 0.958 . S
C1063 H1078 0.961 . S
C1063 H1079 0.960 . S
H1064 C1048 0.931 . S
H1065 C1053 0.929 . S
H1066 C1054 0.960 . S
H1067 C1054 0.962 . S
H1068 C1054 0.960 . S
H1069 C1055 0.961 . S
H1070 C1055 0.961 . S
H1071 C1055 0.961 . S
H1072 C1056 0.931 . S
H1073 C1061 0.930 . S
H1074 C1062 0.956 . S
H1075 C1062 0.961 . S
H1076 C1062 0.961 . S
H1077 C1063 0.958 . S
H1078 C1063 0.961 . S
H1079 C1063 0.960 . S
C1080 C1081 1.391 . S
C1080 C1082 1.394 . S
C1080 H1096 0.931 . S
C1081 C1080 1.391 . S
C1081 C1085 1.376 . S
C1082 C1080 1.394 . S
C1082 C1083 1.369 . S
C1082 C1086 1.531 . S
C1083 C1082 1.369 . S
C1083 C1084 1.410 . S
C1083 C1091 1.503 . S
C1084 C1083 1.410 . S
C1084 C1085 1.392 . S
C1084 C1087 1.511 . S
C1085 C1081 1.376 . S
C1085 C1084 1.392 . S
C1085 H1097 0.929 . S
C1086 C1082 1.531 . S
C1086 H1098 0.960 . S
C1086 H1099 0.962 . S
C1086 H1100 0.960 . S
C1087 C1084 1.511 . S
C1087 H1101 0.961 . S
C1087 H1102 0.961 . S
C1087 H1103 0.961 . S
C1088 C1089 1.370 . S
C1088 C1090 1.363 . S
C1088 H1104 0.931 . S
C1089 C1088 1.370 . S
C1089 C1093 1.408 . S
C1090 C1088 1.363 . S
C1090 C1091 1.370 . S
C1090 C1094 1.524 . S
C1091 C1083 1.503 . S
C1091 C1090 1.370 . S
C1091 C1092 1.403 . S
C1092 C1091 1.403 . S
C1092 C1093 1.404 . S
C1092 C1095 1.539 . S
C1093 C1089 1.408 . S
C1093 C1092 1.404 . S
C1093 H1105 0.930 . S
C1094 C1090 1.524 . S
C1094 H1106 0.956 . S
C1094 H1107 0.961 . S
C1094 H1108 0.961 . S
C1095 C1092 1.539 . S
C1095 H1109 0.958 . S
C1095 H1110 0.961 . S
C1095 H1111 0.960 . S
H1096 C1080 0.931 . S
H1097 C1085 0.929 . S
H1098 C1086 0.960 . S
H1099 C1086 0.962 . S
H1100 C1086 0.960 . S
H1101 C1087 0.961 . S
H1102 C1087 0.961 . S
H1103 C1087 0.961 . S
H1104 C1088 0.931 . S
H1105 C1093 0.930 . S
H1106 C1094 0.956 . S
H1107 C1094 0.961 . S
H1108 C1094 0.961 . S
H1109 C1095 0.958 . S
H1110 C1095 0.961 . S
H1111 C1095 0.960 . S
C1112 C1113 1.391 . S
C1112 C1114 1.394 . S
C1112 H1128 0.931 . S
C1113 C1112 1.391 . S
C1113 C1117 1.376 . S
C1114 C1112 1.394 . S
C1114 C1115 1.369 . S
C1114 C1118 1.531 . S
C1115 C1114 1.369 . S
C1115 C1116 1.410 . S
C1115 C1123 1.503 . S
C1116 C1115 1.410 . S
C1116 C1117 1.392 . S
C1116 C1119 1.511 . S
C1117 C1113 1.376 . S
C1117 C1116 1.392 . S
C1117 H1129 0.929 . S
C1118 C1114 1.531 . S
C1118 H1130 0.960 . S
C1118 H1131 0.962 . S
C1118 H1132 0.960 . S
C1119 C1116 1.511 . S
C1119 H1133 0.961 . S
C1119 H1134 0.961 . S
C1119 H1135 0.961 . S
C1120 C1121 1.370 . S
C1120 C1122 1.363 . S
C1120 H1136 0.931 . S
C1121 C1120 1.370 . S
C1121 C1125 1.408 . S
C1122 C1120 1.363 . S
C1122 C1123 1.370 . S
C1122 C1126 1.524 . S
C1123 C1115 1.503 . S
C1123 C1122 1.370 . S
C1123 C1124 1.403 . S
C1124 C1123 1.403 . S
C1124 C1125 1.404 . S
C1124 C1127 1.539 . S
C1125 C1121 1.408 . S
C1125 C1124 1.404 . S
C1125 H1137 0.930 . S
C1126 C1122 1.524 . S
C1126 H1138 0.956 . S
C1126 H1139 0.961 . S
C1126 H1140 0.961 . S
C1127 C1124 1.539 . S
C1127 H1141 0.958 . S
C1127 H1142 0.961 . S
C1127 H1143 0.960 . S
H1128 C1112 0.931 . S
H1129 C1117 0.929 . S
H1130 C1118 0.960 . S
H1131 C1118 0.962 . S
H1132 C1118 0.960 . S
H1133 C1119 0.961 . S
H1134 C1119 0.961 . S
H1135 C1119 0.961 . S
H1136 C1120 0.931 . S
H1137 C1125 0.930 . S
H1138 C1126 0.956 . S
H1139 C1126 0.961 . S
H1140 C1126 0.961 . S
H1141 C1127 0.958 . S
H1142 C1127 0.961 . S
H1143 C1127 0.960 . S
C1144 C1145 1.391 . S
C1144 C1146 1.394 . S
C1144 H1160 0.931 . S
C1145 C1144 1.391 . S
C1145 C1149 1.376 . S
C1146 C1144 1.394 . S
C1146 C1147 1.369 . S
C1146 C1150 1.531 . S
C1147 C1146 1.369 . S
C1147 C1148 1.410 . S
C1147 C1155 1.503 . S
C1148 C1147 1.410 . S
C1148 C1149 1.392 . S
C1148 C1151 1.511 . S
C1149 C1145 1.376 . S
C1149 C1148 1.392 . S
C1149 H1161 0.929 . S
C1150 C1146 1.531 . S
C1150 H1162 0.960 . S
C1150 H1163 0.962 . S
C1150 H1164 0.960 . S
C1151 C1148 1.511 . S
C1151 H1165 0.961 . S
C1151 H1166 0.961 . S
C1151 H1167 0.961 . S
C1152 C1153 1.370 . S
C1152 C1154 1.363 . S
C1152 H1168 0.931 . S
C1153 C1152 1.370 . S
C1153 C1157 1.408 . S
C1154 C1152 1.363 . S
C1154 C1155 1.370 . S
C1154 C1158 1.524 . S
C1155 C1147 1.503 . S
C1155 C1154 1.370 . S
C1155 C1156 1.403 . S
C1156 C1155 1.403 . S
C1156 C1157 1.404 . S
C1156 C1159 1.539 . S
C1157 C1153 1.408 . S
C1157 C1156 1.404 . S
C1157 H1169 0.930 . S
C1158 C1154 1.524 . S
C1158 H1170 0.956 . S
C1158 H1171 0.961 . S
C1158 H1172 0.961 . S
C1159 C1156 1.539 . S
C1159 H1173 0.958 . S
C1159 H1174 0.961 . S
C1159 H1175 0.960 . S
H1160 C1144 0.931 . S
H1161 C1149 0.929 . S
H1162 C1150 0.960 . S
H1163 C1150 0.962 . S
H1164 C1150 0.960 . S
H1165 C1151 0.961 . S
H1166 C1151 0.961 . S
H1167 C1151 0.961 . S
H1168 C1152 0.931 . S
H1169 C1157 0.930 . S
H1170 C1158 0.956 . S
H1171 C1158 0.961 . S
H1172 C1158 0.961 . S
H1173 C1159 0.958 . S
H1174 C1159 0.961 . S
H1175 C1159 0.960 . S
C1176 C1177 1.391 . S
C1176 C1178 1.394 . S
C1176 H1192 0.931 . S
C1177 C1176 1.391 . S
C1177 C1181 1.376 . S
C1178 C1176 1.394 . S
C1178 C1179 1.369 . S
C1178 C1182 1.531 . S
C1179 C1178 1.369 . S
C1179 C1180 1.410 . S
C1179 C1187 1.503 . S
C1180 C1179 1.410 . S
C1180 C1181 1.392 . S
C1180 C1183 1.511 . S
C1181 C1177 1.376 . S
C1181 C1180 1.392 . S
C1181 H1193 0.929 . S
C1182 C1178 1.531 . S
C1182 H1194 0.960 . S
C1182 H1195 0.962 . S
C1182 H1196 0.960 . S
C1183 C1180 1.511 . S
C1183 H1197 0.961 . S
C1183 H1198 0.961 . S
C1183 H1199 0.961 . S
C1184 C1185 1.370 . S
C1184 C1186 1.363 . S
C1184 H1200 0.931 . S
C1185 C1184 1.370 . S
C1185 C1189 1.408 . S
C1186 C1184 1.363 . S
C1186 C1187 1.370 . S
C1186 C1190 1.524 . S
C1187 C1179 1.503 . S
C1187 C1186 1.370 . S
C1187 C1188 1.403 . S
C1188 C1187 1.403 . S
C1188 C1189 1.404 . S
C1188 C1191 1.539 . S
C1189 C1185 1.408 . S
C1189 C1188 1.404 . S
C1189 H1201 0.930 . S
C1190 C1186 1.524 . S
C1190 H1202 0.956 . S
C1190 H1203 0.961 . S
C1190 H1204 0.961 . S
C1191 C1188 1.539 . S
C1191 H1205 0.958 . S
C1191 H1206 0.961 . S
C1191 H1207 0.960 . S
H1192 C1176 0.931 . S
H1193 C1181 0.929 . S
H1194 C1182 0.960 . S
H1195 C1182 0.962 . S
H1196 C1182 0.960 . S
H1197 C1183 0.961 . S
H1198 C1183 0.961 . S
H1199 C1183 0.961 . S
H1200 C1184 0.931 . S
H1201 C1189 0.930 . S
H1202 C1190 0.956 . S
H1203 C1190 0.961 . S
H1204 C1190 0.961 . S
H1205 C1191 0.958 . S
H1206 C1191 0.961 . S
H1207 C1191 0.960 . S
C1208 C1209 1.391 . S
C1208 C1210 1.394 . S
C1208 H1224 0.931 . S
C1209 C1208 1.391 . S
C1209 C1213 1.376 . S
C1210 C1208 1.394 . S
C1210 C1211 1.369 . S
C1210 C1214 1.531 . S
C1211 C1210 1.369 . S
C1211 C1212 1.410 . S
C1211 C1219 1.503 . S
C1212 C1211 1.410 . S
C1212 C1213 1.392 . S
C1212 C1215 1.511 . S
C1213 C1209 1.376 . S
C1213 C1212 1.392 . S
C1213 H1225 0.929 . S
C1214 C1210 1.531 . S
C1214 H1226 0.960 . S
C1214 H1227 0.962 . S
C1214 H1228 0.960 . S
C1215 C1212 1.511 . S
C1215 H1229 0.961 . S
C1215 H1230 0.961 . S
C1215 H1231 0.961 . S
C1216 C1217 1.370 . S
C1216 C1218 1.363 . S
C1216 H1232 0.931 . S
C1217 C1216 1.370 . S
C1217 C1221 1.408 . S
C1218 C1216 1.363 . S
C1218 C1219 1.370 . S
C1218 C1222 1.524 . S
C1219 C1211 1.503 . S
C1219 C1218 1.370 . S
C1219 C1220 1.403 . S
C1220 C1219 1.403 . S
C1220 C1221 1.404 . S
C1220 C1223 1.539 . S
C1221 C1217 1.408 . S
C1221 C1220 1.404 . S
C1221 H1233 0.930 . S
C1222 C1218 1.524 . S
C1222 H1234 0.956 . S
C1222 H1235 0.961 . S
C1222 H1236 0.961 . S
C1223 C1220 1.539 . S
C1223 H1237 0.958 . S
C1223 H1238 0.961 . S
C1223 H1239 0.960 . S
H1224 C1208 0.931 . S
H1225 C1213 0.929 . S
H1226 C1214 0.960 . S
H1227 C1214 0.962 . S
H1228 C1214 0.960 . S
H1229 C1215 0.961 . S
H1230 C1215 0.961 . S
H1231 C1215 0.961 . S
H1232 C1216 0.931 . S
H1233 C1221 0.930 . S
H1234 C1222 0.956 . S
H1235 C1222 0.961 . S
H1236 C1222 0.961 . S
H1237 C1223 0.958 . S
H1238 C1223 0.961 . S
H1239 C1223 0.960 . S
C1240 C1241 1.391 . S
C1240 C1242 1.394 . S
C1240 H1256 0.931 . S
C1241 C1240 1.391 . S
C1241 C1245 1.376 . S
C1242 C1240 1.394 . S
C1242 C1243 1.369 . S
C1242 C1246 1.531 . S
C1243 C1242 1.369 . S
C1243 C1244 1.410 . S
C1243 C1251 1.503 . S
C1244 C1243 1.410 . S
C1244 C1245 1.392 . S
C1244 C1247 1.511 . S
C1245 C1241 1.376 . S
C1245 C1244 1.392 . S
C1245 H1257 0.929 . S
C1246 C1242 1.531 . S
C1246 H1258 0.960 . S
C1246 H1259 0.962 . S
C1246 H1260 0.960 . S
C1247 C1244 1.511 . S
C1247 H1261 0.961 . S
C1247 H1262 0.961 . S
C1247 H1263 0.961 . S
C1248 C1249 1.370 . S
C1248 C1250 1.363 . S
C1248 H1264 0.931 . S
C1249 C1248 1.370 . S
C1249 C1253 1.408 . S
C1250 C1248 1.363 . S
C1250 C1251 1.370 . S
C1250 C1254 1.524 . S
C1251 C1243 1.503 . S
C1251 C1250 1.370 . S
C1251 C1252 1.403 . S
C1252 C1251 1.403 . S
C1252 C1253 1.404 . S
C1252 C1255 1.539 . S
C1253 C1249 1.408 . S
C1253 C1252 1.404 . S
C1253 H1265 0.930 . S
C1254 C1250 1.524 . S
C1254 H1266 0.956 . S
C1254 H1267 0.961 . S
C1254 H1268 0.961 . S
C1255 C1252 1.539 . S
C1255 H1269 0.958 . S
C1255 H1270 0.961 . S
C1255 H1271 0.960 . S
H1256 C1240 0.931 . S
H1257 C1245 0.929 . S
H1258 C1246 0.960 . S
H1259 C1246 0.962 . S
H1260 C1246 0.960 . S
H1261 C1247 0.961 . S
H1262 C1247 0.961 . S
H1263 C1247 0.961 . S
H1264 C1248 0.931 . S
H1265 C1253 0.930 . S
H1266 C1254 0.956 . S
H1267 C1254 0.961 . S
H1268 C1254 0.961 . S
H1269 C1255 0.958 . S
H1270 C1255 0.961 . S
H1271 C1255 0.960 . S
C1272 C1273 1.391 . S
C1272 C1274 1.394 . S
C1272 H1288 0.931 . S
C1273 C1272 1.391 . S
C1273 C1277 1.376 . S
C1274 C1272 1.394 . S
C1274 C1275 1.369 . S
C1274 C1278 1.531 . S
C1275 C1274 1.369 . S
C1275 C1276 1.410 . S
C1275 C1283 1.503 . S
C1276 C1275 1.410 . S
C1276 C1277 1.392 . S
C1276 C1279 1.511 . S
C1277 C1273 1.376 . S
C1277 C1276 1.392 . S
C1277 H1289 0.929 . S
C1278 C1274 1.531 . S
C1278 H1290 0.960 . S
C1278 H1291 0.962 . S
C1278 H1292 0.960 . S
C1279 C1276 1.511 . S
C1279 H1293 0.961 . S
C1279 H1294 0.961 . S
C1279 H1295 0.961 . S
C1280 C1281 1.370 . S
C1280 C1282 1.363 . S
C1280 H1296 0.931 . S
C1281 C1280 1.370 . S
C1281 C1285 1.408 . S
C1282 C1280 1.363 . S
C1282 C1283 1.370 . S
C1282 C1286 1.524 . S
C1283 C1275 1.503 . S
C1283 C1282 1.370 . S
C1283 C1284 1.403 . S
C1284 C1283 1.403 . S
C1284 C1285 1.404 . S
C1284 C1287 1.539 . S
C1285 C1281 1.408 . S
C1285 C1284 1.404 . S
C1285 H1297 0.930 . S
C1286 C1282 1.524 . S
C1286 H1298 0.956 . S
C1286 H1299 0.961 . S
C1286 H1300 0.961 . S
C1287 C1284 1.539 . S
C1287 H1301 0.958 . S
C1287 H1302 0.961 . S
C1287 H1303 0.960 . S
H1288 C1272 0.931 . S
H1289 C1277 0.929 . S
H1290 C1278 0.960 . S
H1291 C1278 0.962 . S
H1292 C1278 0.960 . S
H1293 C1279 0.961 . S
H1294 C1279 0.961 . S
H1295 C1279 0.961 . S
H1296 C1280 0.931 . S
H1297 C1285 0.930 . S
H1298 C1286 0.956 . S
H1299 C1286 0.961 . S
H1300 C1286 0.961 . S
H1301 C1287 0.958 . S
H1302 C1287 0.961 . S
H1303 C1287 0.960 . S
C1304 C1305 1.391 . S
C1304 C1306 1.394 . S
C1304 H1320 0.931 . S
C1305 C1304 1.391 . S
C1305 C1309 1.376 . S
C1306 C1304 1.394 . S
C1306 C1307 1.369 . S
C1306 C1310 1.531 . S
C1307 C1306 1.369 . S
C1307 C1308 1.410 . S
C1307 C1315 1.503 . S
C1308 C1307 1.410 . S
C1308 C1309 1.392 . S
C1308 C1311 1.511 . S
C1309 C1305 1.376 . S
C1309 C1308 1.392 . S
C1309 H1321 0.929 . S
C1310 C1306 1.531 . S
C1310 H1322 0.960 . S
C1310 H1323 0.962 . S
C1310 H1324 0.960 . S
C1311 C1308 1.511 . S
C1311 H1325 0.961 . S
C1311 H1326 0.961 . S
C1311 H1327 0.961 . S
C1312 C1313 1.370 . S
C1312 C1314 1.363 . S
C1312 H1328 0.931 . S
C1313 C1312 1.370 . S
C1313 C1317 1.408 . S
C1314 C1312 1.363 . S
C1314 C1315 1.370 . S
C1314 C1318 1.524 . S
C1315 C1307 1.503 . S
C1315 C1314 1.370 . S
C1315 C1316 1.403 . S
C1316 C1315 1.403 . S
C1316 C1317 1.404 . S
C1316 C1319 1.539 . S
C1317 C1313 1.408 . S
C1317 C1316 1.404 . S
C1317 H1329 0.930 . S
C1318 C1314 1.524 . S
C1318 H1330 0.956 . S
C1318 H1331 0.961 . S
C1318 H1332 0.961 . S
C1319 C1316 1.539 . S
C1319 H1333 0.958 . S
C1319 H1334 0.961 . S
C1319 H1335 0.960 . S
H1320 C1304 0.931 . S
H1321 C1309 0.929 . S
H1322 C1310 0.960 . S
H1323 C1310 0.962 . S
H1324 C1310 0.960 . S
H1325 C1311 0.961 . S
H1326 C1311 0.961 . S
H1327 C1311 0.961 . S
H1328 C1312 0.931 . S
H1329 C1317 0.930 . S
H1330 C1318 0.956 . S
H1331 C1318 0.961 . S
H1332 C1318 0.961 . S
H1333 C1319 0.958 . S
H1334 C1319 0.961 . S
H1335 C1319 0.960 . S
C1336 C1337 1.391 . S
C1336 C1338 1.394 . S
C1336 H1352 0.931 . S
C1337 C1336 1.391 . S
C1337 C1341 1.376 . S
C1338 C1336 1.394 . S
C1338 C1339 1.369 . S
C1338 C1342 1.531 . S
C1339 C1338 1.369 . S
C1339 C1340 1.410 . S
C1339 C1347 1.503 . S
C1340 C1339 1.410 . S
C1340 C1341 1.392 . S
C1340 C1343 1.511 . S
C1341 C1337 1.376 . S
C1341 C1340 1.392 . S
C1341 H1353 0.929 . S
C1342 C1338 1.531 . S
C1342 H1354 0.960 . S
C1342 H1355 0.962 . S
C1342 H1356 0.960 . S
C1343 C1340 1.511 . S
C1343 H1357 0.961 . S
C1343 H1358 0.961 . S
C1343 H1359 0.961 . S
C1344 C1345 1.370 . S
C1344 C1346 1.363 . S
C1344 H1360 0.931 . S
C1345 C1344 1.370 . S
C1345 C1349 1.408 . S
C1346 C1344 1.363 . S
C1346 C1347 1.370 . S
C1346 C1350 1.524 . S
C1347 C1339 1.503 . S
C1347 C1346 1.370 . S
C1347 C1348 1.403 . S
C1348 C1347 1.403 . S
C1348 C1349 1.404 . S
C1348 C1351 1.539 . S
C1349 C1345 1.408 . S
C1349 C1348 1.404 . S
C1349 H1361 0.930 . S
C1350 C1346 1.524 . S
C1350 H1362 0.956 . S
C1350 H1363 0.961 . S
C1350 H1364 0.961 . S
C1351 C1348 1.539 . S
C1351 H1365 0.958 . S
C1351 H1366 0.961 . S
C1351 H1367 0.960 . S
H1352 C1336 0.931 . S
H1353 C1341 0.929 . S
H1354 C1342 0.960 . S
H1355 C1342 0.962 . S
H1356 C1342 0.960 . S
H1357 C1343 0.961 . S
H1358 C1343 0.961 . S
H1359 C1343 0.961 . S
H1360 C1344 0.931 . S
H1361 C1349 0.930 . S
H1362 C1350 0.956 . S
H1363 C1350 0.961 . S
H1364 C1350 0.961 . S
H1365 C1351 0.958 . S
H1366 C1351 0.961 . S
H1367 C1351 0.960 . S
C1368 C1369 1.391 . S
C1368 C1370 1.394 . S
C1368 H1384 0.931 . S
C1369 C1368 1.391 . S
C1369 C1373 1.376 . S
C1370 C1368 1.394 . S
C1370 C1371 1.369 . S
C1370 C1374 1.531 . S
C1371 C1370 1.369 . S
C1371 C1372 1.410 . S
C1371 C1379 1.503 . S
C1372 C1371 1.410 . S
C1372 C1373 1.392 . S
C1372 C1375 1.511 . S
C1373 C1369 1.376 . S
C1373 C1372 1.392 . S
C1373 H1385 0.929 . S
C1374 C1370 1.531 . S
C1374 H1386 0.960 . S
C1374 H1387 0.962 . S
C1374 H1388 0.960 . S
C1375 C1372 1.511 . S
C1375 H1389 0.961 . S
C1375 H1390 0.961 . S
C1375 H1391 0.961 . S
C1376 C1377 1.370 . S
C1376 C1378 1.363 . S
C1376 H1392 0.931 . S
C1377 C1376 1.370 . S
C1377 C1381 1.408 . S
C1378 C1376 1.363 . S
C1378 C1379 1.370 . S
C1378 C1382 1.524 . S
C1379 C1371 1.503 . S
C1379 C1378 1.370 . S
C1379 C1380 1.403 . S
C1380 C1379 1.403 . S
C1380 C1381 1.404 . S
C1380 C1383 1.539 . S
C1381 C1377 1.408 . S
C1381 C1380 1.404 . S
C1381 H1393 0.930 . S
C1382 C1378 1.524 . S
C1382 H1394 0.956 . S
C1382 H1395 0.961 . S
C1382 H1396 0.961 . S
C1383 C1380 1.539 . S
C1383 H1397 0.958 . S
C1383 H1398 0.961 . S
C1383 H1399 0.960 . S
H1384 C1368 0.931 . S
H1385 C1373 0.929 . S
H1386 C1374 0.960 . S
H1387 C1374 0.962 . S
H1388 C1374 0.960 . S
H1389 C1375 0.961 . S
H1390 C1375 0.961 . S
H1391 C1375 0.961 . S
H1392 C1376 0.931 . S
H1393 C1381 0.930 . S
H1394 C1382 0.956 . S
H1395 C1382 0.961 . S
H1396 C1382 0.961 . S
H1397 C1383 0.958 . S
H1398 C1383 0.961 . S
H1399 C1383 0.960 . S
C1400 C1401 1.391 . S
C1400 C1402 1.394 . S
C1400 H1416 0.931 . S
C1401 C1400 1.391 . S
C1401 C1405 1.376 . S
C1402 C1400 1.394 . S
C1402 C1403 1.369 . S
C1402 C1406 1.531 . S
C1403 C1402 1.369 . S
C1403 C1404 1.410 . S
C1403 C1411 1.503 . S
C1404 C1403 1.410 . S
C1404 C1405 1.392 . S
C1404 C1407 1.511 . S
C1405 C1401 1.376 . S
C1405 C1404 1.392 . S
C1405 H1417 0.929 . S
C1406 C1402 1.531 . S
C1406 H1418 0.960 . S
C1406 H1419 0.962 . S
C1406 H1420 0.960 . S
C1407 C1404 1.511 . S
C1407 H1421 0.961 . S
C1407 H1422 0.961 . S
C1407 H1423 0.961 . S
C1408 C1409 1.370 . S
C1408 C1410 1.363 . S
C1408 H1424 0.931 . S
C1409 C1408 1.370 . S
C1409 C1413 1.408 . S
C1410 C1408 1.363 . S
C1410 C1411 1.370 . S
C1410 C1414 1.524 . S
C1411 C1403 1.503 . S
C1411 C1410 1.370 . S
C1411 C1412 1.403 . S
C1412 C1411 1.403 . S
C1412 C1413 1.404 . S
C1412 C1415 1.539 . S
C1413 C1409 1.408 . S
C1413 C1412 1.404 . S
C1413 H1425 0.930 . S
C1414 C1410 1.524 . S
C1414 H1426 0.956 . S
C1414 H1427 0.961 . S
C1414 H1428 0.961 . S
C1415 C1412 1.539 . S
C1415 H1429 0.958 . S
C1415 H1430 0.961 . S
C1415 H1431 0.960 . S
H1416 C1400 0.931 . S
H1417 C1405 0.929 . S
H1418 C1406 0.960 . S
H1419 C1406 0.962 . S
H1420 C1406 0.960 . S
H1421 C1407 0.961 . S
H1422 C1407 0.961 . S
H1423 C1407 0.961 . S
H1424 C1408 0.931 . S
H1425 C1413 0.930 . S
H1426 C1414 0.956 . S
H1427 C1414 0.961 . S
H1428 C1414 0.961 . S
H1429 C1415 0.958 . S
H1430 C1415 0.961 . S
H1431 C1415 0.960 . S
C1432 C1433 1.391 . S
C1432 C1434 1.394 . S
C1432 H1448 0.931 . S
C1433 C1432 1.391 . S
C1433 C1437 1.376 . S
C1434 C1432 1.394 . S
C1434 C1435 1.369 . S
C1434 C1438 1.531 . S
C1435 C1434 1.369 . S
C1435 C1436 1.410 . S
C1435 C1443 1.503 . S
C1436 C1435 1.410 . S
C1436 C1437 1.392 . S
C1436 C1439 1.511 . S
C1437 C1433 1.376 . S
C1437 C1436 1.392 . S
C1437 H1449 0.929 . S
C1438 C1434 1.531 . S
C1438 H1450 0.960 . S
C1438 H1451 0.962 . S
C1438 H1452 0.960 . S
C1439 C1436 1.511 . S
C1439 H1453 0.961 . S
C1439 H1454 0.961 . S
C1439 H1455 0.961 . S
C1440 C1441 1.370 . S
C1440 C1442 1.363 . S
C1440 H1456 0.931 . S
C1441 C1440 1.370 . S
C1441 C1445 1.408 . S
C1442 C1440 1.363 . S
C1442 C1443 1.370 . S
C1442 C1446 1.524 . S
C1443 C1435 1.503 . S
C1443 C1442 1.370 . S
C1443 C1444 1.403 . S
C1444 C1443 1.403 . S
C1444 C1445 1.404 . S
C1444 C1447 1.539 . S
C1445 C1441 1.408 . S
C1445 C1444 1.404 . S
C1445 H1457 0.930 . S
C1446 C1442 1.524 . S
C1446 H1458 0.956 . S
C1446 H1459 0.961 . S
C1446 H1460 0.961 . S
C1447 C1444 1.539 . S
C1447 H1461 0.958 . S
C1447 H1462 0.961 . S
C1447 H1463 0.960 . S
H1448 C1432 0.931 . S
H1449 C1437 0.929 . S
H1450 C1438 0.960 . S
H1451 C1438 0.962 . S
H1452 C1438 0.960 . S
H1453 C1439 0.961 . S
H1454 C1439 0.961 . S
H1455 C1439 0.961 . S
H1456 C1440 0.931 . S
H1457 C1445 0.930 . S
H1458 C1446 0.956 . S
H1459 C1446 0.961 . S
H1460 C1446 0.961 . S
H1461 C1447 0.958 . S
H1462 C1447 0.961 . S
H1463 C1447 0.960 . S
C1464 C1465 1.391 . S
C1464 C1466 1.394 . S
C1464 H1480 0.931 . S
C1465 C1464 1.391 . S
C1465 C1469 1.376 . S
C1466 C1464 1.394 . S
C1466 C1467 1.369 . S
C1466 C1470 1.531 . S
C1467 C1466 1.369 . S
C1467 C1468 1.410 . S
C1467 C1475 1.503 . S
C1468 C1467 1.410 . S
C1468 C1469 1.392 . S
C1468 C1471 1.511 . S
C1469 C1465 1.376 . S
C1469 C1468 1.392 . S
C1469 H1481 0.929 . S
C1470 C1466 1.531 . S
C1470 H1482 0.960 . S
C1470 H1483 0.962 . S
C1470 H1484 0.960 . S
C1471 C1468 1.511 . S
C1471 H1485 0.961 . S
C1471 H1486 0.961 . S
C1471 H1487 0.961 . S
C1472 C1473 1.370 . S
C1472 C1474 1.363 . S
C1472 H1488 0.931 . S
C1473 C1472 1.370 . S
C1473 C1477 1.408 . S
C1474 C1472 1.363 . S
C1474 C1475 1.370 . S
C1474 C1478 1.524 . S
C1475 C1467 1.503 . S
C1475 C1474 1.370 . S
C1475 C1476 1.403 . S
C1476 C1475 1.403 . S
C1476 C1477 1.404 . S
C1476 C1479 1.539 . S
C1477 C1473 1.408 . S
C1477 C1476 1.404 . S
C1477 H1489 0.930 . S
C1478 C1474 1.524 . S
C1478 H1490 0.956 . S
C1478 H1491 0.961 . S
C1478 H1492 0.961 . S
C1479 C1476 1.539 . S
C1479 H1493 0.958 . S
C1479 H1494 0.961 . S
C1479 H1495 0.960 . S
H1480 C1464 0.931 . S
H1481 C1469 0.929 . S
H1482 C1470 0.960 . S
H1483 C1470 0.962 . S
H1484 C1470 0.960 . S
H1485 C1471 0.961 . S
H1486 C1471 0.961 . S
H1487 C1471 0.961 . S
H1488 C1472 0.931 . S
H1489 C1477 0.930 . S
H1490 C1478 0.956 . S
H1491 C1478 0.961 . S
H1492 C1478 0.961 . S
H1493 C1479 0.958 . S
H1494 C1479 0.961 . S
H1495 C1479 0.960 . S
C1496 C1497 1.391 . S
C1496 C1498 1.394 . S
C1496 H1512 0.931 . S
C1497 C1496 1.391 . S
C1497 C1501 1.376 . S
C1498 C1496 1.394 . S
C1498 C1499 1.369 . S
C1498 C1502 1.531 . S
C1499 C1498 1.369 . S
C1499 C1500 1.410 . S
C1499 C1507 1.503 . S
C1500 C1499 1.410 . S
C1500 C1501 1.392 . S
C1500 C1503 1.511 . S
C1501 C1497 1.376 . S
C1501 C1500 1.392 . S
C1501 H1513 0.929 . S
C1502 C1498 1.531 . S
C1502 H1514 0.960 . S
C1502 H1515 0.962 . S
C1502 H1516 0.960 . S
C1503 C1500 1.511 . S
C1503 H1517 0.961 . S
C1503 H1518 0.961 . S
C1503 H1519 0.961 . S
C1504 C1505 1.370 . S
C1504 C1506 1.363 . S
C1504 H1520 0.931 . S
C1505 C1504 1.370 . S
C1505 C1509 1.408 . S
C1506 C1504 1.363 . S
C1506 C1507 1.370 . S
C1506 C1510 1.524 . S
C1507 C1499 1.503 . S
C1507 C1506 1.370 . S
C1507 C1508 1.403 . S
C1508 C1507 1.403 . S
C1508 C1509 1.404 . S
C1508 C1511 1.539 . S
C1509 C1505 1.408 . S
C1509 C1508 1.404 . S
C1509 H1521 0.930 . S
C1510 C1506 1.524 . S
C1510 H1522 0.956 . S
C1510 H1523 0.961 . S
C1510 H1524 0.961 . S
C1511 C1508 1.539 . S
C1511 H1525 0.958 . S
C1511 H1526 0.961 . S
C1511 H1527 0.960 . S
H1512 C1496 0.931 . S
H1513 C1501 0.929 . S
H1514 C1502 0.960 . S
H1515 C1502 0.962 . S
H1516 C1502 0.960 . S
H1517 C1503 0.961 . S
H1518 C1503 0.961 . S
H1519 C1503 0.961 . S
H1520 C1504 0.931 . S
H1521 C1509 0.930 . S
H1522 C1510 0.956 . S
H1523 C1510 0.961 . S
H1524 C1510 0.961 . S
H1525 C1511 0.958 . S
H1526 C1511 0.961 . S
H1527 C1511 0.960 . S
C1528 C1529 1.391 . S
C1528 C1530 1.394 . S
C1528 H1544 0.931 . S
C1529 C1528 1.391 . S
C1529 C1533 1.376 . S
C1530 C1528 1.394 . S
C1530 C1531 1.369 . S
C1530 C1534 1.531 . S
C1531 C1530 1.369 . S
C1531 C1532 1.410 . S
C1531 C1539 1.503 . S
C1532 C1531 1.410 . S
C1532 C1533 1.392 . S
C1532 C1535 1.511 . S
C1533 C1529 1.376 . S
C1533 C1532 1.392 . S
C1533 H1545 0.929 . S
C1534 C1530 1.531 . S
C1534 H1546 0.960 . S
C1534 H1547 0.962 . S
C1534 H1548 0.960 . S
C1535 C1532 1.511 . S
C1535 H1549 0.961 . S
C1535 H1550 0.961 . S
C1535 H1551 0.961 . S
C1536 C1537 1.370 . S
C1536 C1538 1.363 . S
C1536 H1552 0.931 . S
C1537 C1536 1.370 . S
C1537 C1541 1.408 . S
C1538 C1536 1.363 . S
C1538 C1539 1.370 . S
C1538 C1542 1.524 . S
C1539 C1531 1.503 . S
C1539 C1538 1.370 . S
C1539 C1540 1.403 . S
C1540 C1539 1.403 . S
C1540 C1541 1.404 . S
C1540 C1543 1.539 . S
C1541 C1537 1.408 . S
C1541 C1540 1.404 . S
C1541 H1553 0.930 . S
C1542 C1538 1.524 . S
C1542 H1554 0.956 . S
C1542 H1555 0.961 . S
C1542 H1556 0.961 . S
C1543 C1540 1.539 . S
C1543 H1557 0.958 . S
C1543 H1558 0.961 . S
C1543 H1559 0.960 . S
H1544 C1528 0.931 . S
H1545 C1533 0.929 . S
H1546 C1534 0.960 . S
H1547 C1534 0.962 . S
H1548 C1534 0.960 . S
H1549 C1535 0.961 . S
H1550 C1535 0.961 . S
H1551 C1535 0.961 . S
H1552 C1536 0.931 . S
H1553 C1541 0.930 . S
H1554 C1542 0.956 . S
H1555 C1542 0.961 . S
H1556 C1542 0.961 . S
H1557 C1543 0.958 . S
H1558 C1543 0.961 . S
H1559 C1543 0.960 . S
C1560 C1561 1.391 . S
C1560 C1562 1.394 . S
C1560 H1576 0.931 . S
C1561 C1560 1.391 . S
C1561 C1565 1.376 . S
C1562 C1560 1.394 . S
C1562 C1563 1.369 . S
C1562 C1566 1.531 . S
C1563 C1562 1.369 . S
C1563 C1564 1.410 . S
C1563 C1571 1.503 . S
C1564 C1563 1.410 . S
C1564 C1565 1.392 . S
C1564 C1567 1.511 . S
C1565 C1561 1.376 . S
C1565 C1564 1.392 . S
C1565 H1577 0.929 . S
C1566 C1562 1.531 . S
C1566 H1578 0.960 . S
C1566 H1579 0.962 . S
C1566 H1580 0.960 . S
C1567 C1564 1.511 . S
C1567 H1581 0.961 . S
C1567 H1582 0.961 . S
C1567 H1583 0.961 . S
C1568 C1569 1.370 . S
C1568 C1570 1.363 . S
C1568 H1584 0.931 . S
C1569 C1568 1.370 . S
C1569 C1573 1.408 . S
C1570 C1568 1.363 . S
C1570 C1571 1.370 . S
C1570 C1574 1.524 . S
C1571 C1563 1.503 . S
C1571 C1570 1.370 . S
C1571 C1572 1.403 . S
C1572 C1571 1.403 . S
C1572 C1573 1.404 . S
C1572 C1575 1.539 . S
C1573 C1569 1.408 . S
C1573 C1572 1.404 . S
C1573 H1585 0.930 . S
C1574 C1570 1.524 . S
C1574 H1586 0.956 . S
C1574 H1587 0.961 . S
C1574 H1588 0.961 . S
C1575 C1572 1.539 . S
C1575 H1589 0.958 . S
C1575 H1590 0.961 . S
C1575 H1591 0.960 . S
H1576 C1560 0.931 . S
H1577 C1565 0.929 . S
H1578 C1566 0.960 . S
H1579 C1566 0.962 . S
H1580 C1566 0.960 . S
H1581 C1567 0.961 . S
H1582 C1567 0.961 . S
H1583 C1567 0.961 . S
H1584 C1568 0.931 . S
H1585 C1573 0.930 . S
H1586 C1574 0.956 . S
H1587 C1574 0.961 . S
H1588 C1574 0.961 . S
H1589 C1575 0.958 . S
H1590 C1575 0.961 . S
H1591 C1575 0.960 . S
C1592 C1593 1.391 . S
C1592 C1594 1.394 . S
C1592 H1608 0.931 . S
C1593 C1592 1.391 . S
C1593 C1597 1.376 . S
C1594 C1592 1.394 . S
C1594 C1595 1.369 . S
C1594 C1598 1.531 . S
C1595 C1594 1.369 . S
C1595 C1596 1.410 . S
C1595 C1603 1.503 . S
C1596 C1595 1.410 . S
C1596 C1597 1.392 . S
C1596 C1599 1.511 . S
C1597 C1593 1.376 . S
C1597 C1596 1.392 . S
C1597 H1609 0.929 . S
C1598 C1594 1.531 . S
C1598 H1610 0.960 . S
C1598 H1611 0.962 . S
C1598 H1612 0.960 . S
C1599 C1596 1.511 . S
C1599 H1613 0.961 . S
C1599 H1614 0.961 . S
C1599 H1615 0.961 . S
C1600 C1601 1.370 . S
C1600 C1602 1.363 . S
C1600 H1616 0.931 . S
C1601 C1600 1.370 . S
C1601 C1605 1.408 . S
C1602 C1600 1.363 . S
C1602 C1603 1.370 . S
C1602 C1606 1.524 . S
C1603 C1595 1.503 . S
C1603 C1602 1.370 . S
C1603 C1604 1.403 . S
C1604 C1603 1.403 . S
C1604 C1605 1.404 . S
C1604 C1607 1.539 . S
C1605 C1601 1.408 . S
C1605 C1604 1.404 . S
C1605 H1617 0.930 . S
C1606 C1602 1.524 . S
C1606 H1618 0.956 . S
C1606 H1619 0.961 . S
C1606 H1620 0.961 . S
C1607 C1604 1.539 . S
C1607 H1621 0.958 . S
C1607 H1622 0.961 . S
C1607 H1623 0.960 . S
H1608 C1592 0.931 . S
H1609 C1597 0.929 . S
H1610 C1598 0.960 . S
H1611 C1598 0.962 . S
H1612 C1598 0.960 . S
H1613 C1599 0.961 . S
H1614 C1599 0.961 . S
H1615 C1599 0.961 . S
H1616 C1600 0.931 . S
H1617 C1605 0.930 . S
H1618 C1606 0.956 . S
H1619 C1606 0.961 . S
H1620 C1606 0.961 . S
H1621 C1607 0.958 . S
H1622 C1607 0.961 . S
H1623 C1607 0.960 . S
C1624 C1625 1.391 . S
C1624 C1626 1.394 . S
C1624 H1640 0.931 . S
C1625 C1624 1.391 . S
C1625 C1629 1.376 . S
C1626 C1624 1.394 . S
C1626 C1627 1.369 . S
C1626 C1630 1.531 . S
C1627 C1626 1.369 . S
C1627 C1628 1.410 . S
C1627 C1635 1.503 . S
C1628 C1627 1.410 . S
C1628 C1629 1.392 . S
C1628 C1631 1.511 . S
C1629 C1625 1.376 . S
C1629 C1628 1.392 . S
C1629 H1641 0.929 . S
C1630 C1626 1.531 . S
C1630 H1642 0.960 . S
C1630 H1643 0.962 . S
C1630 H1644 0.960 . S
C1631 C1628 1.511 . S
C1631 H1645 0.961 . S
C1631 H1646 0.961 . S
C1631 H1647 0.961 . S
C1632 C1633 1.370 . S
C1632 C1634 1.363 . S
C1632 H1648 0.931 . S
C1633 C1632 1.370 . S
C1633 C1637 1.408 . S
C1634 C1632 1.363 . S
C1634 C1635 1.370 . S
C1634 C1638 1.524 . S
C1635 C1627 1.503 . S
C1635 C1634 1.370 . S
C1635 C1636 1.403 . S
C1636 C1635 1.403 . S
C1636 C1637 1.404 . S
C1636 C1639 1.539 . S
C1637 C1633 1.408 . S
C1637 C1636 1.404 . S
C1637 H1649 0.930 . S
C1638 C1634 1.524 . S
C1638 H1650 0.956 . S
C1638 H1651 0.961 . S
C1638 H1652 0.961 . S
C1639 C1636 1.539 . S
C1639 H1653 0.958 . S
C1639 H1654 0.961 . S
C1639 H1655 0.960 . S
H1640 C1624 0.931 . S
H1641 C1629 0.929 . S
H1642 C1630 0.960 . S
H1643 C1630 0.962 . S
H1644 C1630 0.960 . S
H1645 C1631 0.961 . S
H1646 C1631 0.961 . S
H1647 C1631 0.961 . S
H1648 C1632 0.931 . S
H1649 C1637 0.930 . S
H1650 C1638 0.956 . S
H1651 C1638 0.961 . S
H1652 C1638 0.961 . S
H1653 C1639 0.958 . S
H1654 C1639 0.961 . S
H1655 C1639 0.960 . S
C1656 C1657 1.391 . S
C1656 C1658 1.394 . S
C1656 H1672 0.931 . S
C1657 C1656 1.391 . S
C1657 C1661 1.376 . S
C1658 C1656 1.394 . S
C1658 C1659 1.369 . S
C1658 C1662 1.531 . S
C1659 C1658 1.369 . S
C1659 C1660 1.410 . S
C1659 C1667 1.503 . S
C1660 C1659 1.410 . S
C1660 C1661 1.392 . S
C1660 C1663 1.511 . S
C1661 C1657 1.376 . S
C1661 C1660 1.392 . S
C1661 H1673 0.929 . S
C1662 C1658 1.531 . S
C1662 H1674 0.960 . S
C1662 H1675 0.962 . S
C1662 H1676 0.960 . S
C1663 C1660 1.511 . S
C1663 H1677 0.961 . S
C1663 H1678 0.961 . S
C1663 H1679 0.961 . S
C1664 C1665 1.370 . S
C1664 C1666 1.363 . S
C1664 H1680 0.931 . S
C1665 C1664 1.370 . S
C1665 C1669 1.408 . S
C1666 C1664 1.363 . S
C1666 C1667 1.370 . S
C1666 C1670 1.524 . S
C1667 C1659 1.503 . S
C1667 C1666 1.370 . S
C1667 C1668 1.403 . S
C1668 C1667 1.403 . S
C1668 C1669 1.404 . S
C1668 C1671 1.539 . S
C1669 C1665 1.408 . S
C1669 C1668 1.404 . S
C1669 H1681 0.930 . S
C1670 C1666 1.524 . S
C1670 H1682 0.956 . S
C1670 H1683 0.961 . S
C1670 H1684 0.961 . S
C1671 C1668 1.539 . S
C1671 H1685 0.958 . S
C1671 H1686 0.961 . S
C1671 H1687 0.960 . S
H1672 C1656 0.931 . S
H1673 C1661 0.929 . S
H1674 C1662 0.960 . S
H1675 C1662 0.962 . S
H1676 C1662 0.960 . S
H1677 C1663 0.961 . S
H1678 C1663 0.961 . S
H1679 C1663 0.961 . S
H1680 C1664 0.931 . S
H1681 C1669 0.930 . S
H1682 C1670 0.956 . S
H1683 C1670 0.961 . S
H1684 C1670 0.961 . S
H1685 C1671 0.958 . S
H1686 C1671 0.961 . S
H1687 C1671 0.960 . S
C1688 C1689 1.391 . S
C1688 C1690 1.394 . S
C1688 H1704 0.931 . S
C1689 C1688 1.391 . S
C1689 C1693 1.376 . S
C1690 C1688 1.394 . S
C1690 C1691 1.369 . S
C1690 C1694 1.531 . S
C1691 C1690 1.369 . S
C1691 C1692 1.410 . S
C1691 C1699 1.503 . S
C1692 C1691 1.410 . S
C1692 C1693 1.392 . S
C1692 C1695 1.511 . S
C1693 C1689 1.376 . S
C1693 C1692 1.392 . S
C1693 H1705 0.929 . S
C1694 C1690 1.531 . S
C1694 H1706 0.960 . S
C1694 H1707 0.962 . S
C1694 H1708 0.960 . S
C1695 C1692 1.511 . S
C1695 H1709 0.961 . S
C1695 H1710 0.961 . S
C1695 H1711 0.961 . S
C1696 C1697 1.370 . S
C1696 C1698 1.363 . S
C1696 H1712 0.931 . S
C1697 C1696 1.370 . S
C1697 C1701 1.408 . S
C1698 C1696 1.363 . S
C1698 C1699 1.370 . S
C1698 C1702 1.524 . S
C1699 C1691 1.503 . S
C1699 C1698 1.370 . S
C1699 C1700 1.403 . S
C1700 C1699 1.403 . S
C1700 C1701 1.404 . S
C1700 C1703 1.539 . S
C1701 C1697 1.408 . S
C1701 C1700 1.404 . S
C1701 H1713 0.930 . S
C1702 C1698 1.524 . S
C1702 H1714 0.956 . S
C1702 H1715 0.961 . S
C1702 H1716 0.961 . S
C1703 C1700 1.539 . S
C1703 H1717 0.958 . S
C1703 H1718 0.961 . S
C1703 H1719 0.960 . S
H1704 C1688 0.931 . S
H1705 C1693 0.929 . S
H1706 C1694 0.960 . S
H1707 C1694 0.962 . S
H1708 C1694 0.960 . S
H1709 C1695 0.961 . S
H1710 C1695 0.961 . S
H1711 C1695 0.961 . S
H1712 C1696 0.931 . S
H1713 C1701 0.930 . S
H1714 C1702 0.956 . S
H1715 C1702 0.961 . S
H1716 C1702 0.961 . S
H1717 C1703 0.958 . S
H1718 C1703 0.961 . S
H1719 C1703 0.960 . S
C1720 C1721 1.391 . S
C1720 C1722 1.394 . S
C1720 H1736 0.931 . S
C1721 C1720 1.391 . S
C1721 C1725 1.376 . S
C1722 C1720 1.394 . S
C1722 C1723 1.369 . S
C1722 C1726 1.531 . S
C1723 C1722 1.369 . S
C1723 C1724 1.410 . S
C1723 C1731 1.503 . S
C1724 C1723 1.410 . S
C1724 C1725 1.392 . S
C1724 C1727 1.511 . S
C1725 C1721 1.376 . S
C1725 C1724 1.392 . S
C1725 H1737 0.929 . S
C1726 C1722 1.531 . S
C1726 H1738 0.960 . S
C1726 H1739 0.962 . S
C1726 H1740 0.960 . S
C1727 C1724 1.511 . S
C1727 H1741 0.961 . S
C1727 H1742 0.961 . S
C1727 H1743 0.961 . S
C1728 C1729 1.370 . S
C1728 C1730 1.363 . S
C1728 H1744 0.931 . S
C1729 C1728 1.370 . S
C1729 C1733 1.408 . S
C1730 C1728 1.363 . S
C1730 C1731 1.370 . S
C1730 C1734 1.524 . S
C1731 C1723 1.503 . S
C1731 C1730 1.370 . S
C1731 C1732 1.403 . S
C1732 C1731 1.403 . S
C1732 C1733 1.404 . S
C1732 C1735 1.539 . S
C1733 C1729 1.408 . S
C1733 C1732 1.404 . S
C1733 H1745 0.930 . S
C1734 C1730 1.524 . S
C1734 H1746 0.956 . S
C1734 H1747 0.961 . S
C1734 H1748 0.961 . S
C1735 C1732 1.539 . S
C1735 H1749 0.958 . S
C1735 H1750 0.961 . S
C1735 H1751 0.960 . S
H1736 C1720 0.931 . S
H1737 C1725 0.929 . S
H1738 C1726 0.960 . S
H1739 C1726 0.962 . S
H1740 C1726 0.960 . S
H1741 C1727 0.961 . S
H1742 C1727 0.961 . S
H1743 C1727 0.961 . S
H1744 C1728 0.931 . S
H1745 C1733 0.930 . S
H1746 C1734 0.956 . S
H1747 C1734 0.961 . S
H1748 C1734 0.961 . S
H1749 C1735 0.958 . S
H1750 C1735 0.961 . S
H1751 C1735 0.960 . S
C409 C6 0.983 . S
C417 C266 1.016 . S
C441 C40 0.993 . S
C449 C278 1.021 . S
C473 C334 1.041 . S
C481 C74 1.032 . S
C505 C130 0.986 . S
C513 C346 0.999 . S
C537 C142 0.978 . S
C545 C402 1.002 . S
C569 C232 1.001 . S
C577 C198 0.999 . S
C601 C355 0.505 . S
C609 C124 0.518 . S
C633 C151 0.627 . S
C641 C396 0.472 . S
C665 C192 0.416 . S
C673 C226 0.556 . S
C697 C15 0.626 . S
C705 C260 0.469 . S
C729 C287 0.419 . S
C737 C49 0.560 . S
C761 C328 0.427 . S
C769 C83 0.559 . S
C793 C119 1.176 1_556 S
C801 C17 1.165 1_556 S
C825 C51 1.177 1_556 S
C833 C153 1.164 1_556 S
C857 C187 1.154 1_556 S
C865 C85 1.173 1_556 S
C889 C221 1.161 . S
C897 C323 1.170 . S
C921 C255 1.156 . S
C929 C357 1.173 . S
C953 C391 1.158 . S
C961 C289 1.172 . S
C985 C22 0.507 . S
C993 C362 0.497 . S
C1017 C56 0.500 . S
C1025 C389 0.513 . S
C1049 C90 0.493 . S
C1057 C219 0.516 . S
C1081 C253 0.608 . S
C1089 C117 0.453 . S
C1113 C294 0.441 . S
C1121 C158 0.533 . S
C1145 C185 0.396 . S
C1153 C321 0.542 . S
C1177 C244 1.069 . S
C1185 C108 1.094 . S
C1209 C300 1.109 . S
C1217 C164 1.095 . S
C1241 C312 1.111 . S
C1249 C176 1.093 . S
C1273 C368 1.056 . S
C1281 C28 1.073 . S
C1305 C380 1.073 . S
C1313 C62 1.073 . S
C1337 C96 1.050 . S
C1345 C210 1.081 . S
C1369 C1 2.948 . S
C1377 C273 2.959 . S
C1401 C309 2.961 . S
C1409 C35 2.958 . S
C1433 C341 2.948 . S
C1441 C69 2.960 . S
C1465 C105 2.960 . S
C1473 C377 2.959 . S
C1497 C207 2.947 . S
C1505 C137 2.956 . S
C1529 C173 2.960 . S
C1537 C241 2.958 . S
C1561 C375 2.932 . S
C1569 C103 2.935 . S
C1593 C205 2.925 . S
C1601 C139 2.936 . S
C1625 C239 2.928 . S
C1633 C171 2.938 . S
C1657 C275 2.931 . S
C1665 C3 2.937 . S
C1689 C307 2.925 . S
C1697 C37 2.936 . S
C1721 C343 2.928 . S
C1729 C71 2.938 . S
