# Generated by pormake.
# Topology fne, (5)-cn, num edge types: 1
# Building blocks:
#     Node 0, Type 0, BuildingBlock: XOMCOT_clean_sbu_0, # of connection points: 5
#     Node 1, Type 0, BuildingBlock: XOMCOT_clean_sbu_0, # of connection points: 5
#     Node 2, Type 0, BuildingBlock: XOMCOT_clean_sbu_0, # of connection points: 5
#     Node 3, Type 0, BuildingBlock: XOMCOT_clean_sbu_0, # of connection points: 5
#     Node 4, Type 0, BuildingBlock: XOMCOT_clean_sbu_0, # of connection points: 5
#     Node 5, Type 0, BuildingBlock: XOMCOT_clean_sbu_0, # of connection points: 5
#     Edge 6, Type (0, 0), BuildingBlock: ZUJKAS_clean_linker_0, # of connection points: 2
#     Edge 7, Type (0, 0), BuildingBlock: ZUJKAS_clean_linker_0, # of connection points: 2
#     Edge 8, Type (0, 0), BuildingBlock: ZUJKAS_clean_linker_0, # of connection points: 2
#     Edge 9, Type (0, 0), BuildingBlock: ZUJKAS_clean_linker_0, # of connection points: 2
#     Edge 10, Type (0, 0), BuildingBlock: ZUJKAS_clean_linker_0, # of connection points: 2
#     Edge 11, Type (0, 0), BuildingBlock: ZUJKAS_clean_linker_0, # of connection points: 2
#     Edge 12, Type (0, 0), BuildingBlock: ZUJKAS_clean_linker_0, # of connection points: 2
#     Edge 13, Type (0, 0), BuildingBlock: ZUJKAS_clean_linker_0, # of connection points: 2
#     Edge 14, Type (0, 0), BuildingBlock: ZUJKAS_clean_linker_0, # of connection points: 2
#     Edge 15, Type (0, 0), BuildingBlock: ZUJKAS_clean_linker_0, # of connection points: 2
#     Edge 16, Type (0, 0), BuildingBlock: ZUJKAS_clean_linker_0, # of connection points: 2
#     Edge 17, Type (0, 0), BuildingBlock: ZUJKAS_clean_linker_0, # of connection points: 2
#     Edge 18, Type (0, 0), BuildingBlock: ZUJKAS_clean_linker_0, # of connection points: 2
#     Edge 19, Type (0, 0), BuildingBlock: ZUJKAS_clean_linker_0, # of connection points: 2
#     Edge 20, Type (0, 0), BuildingBlock: ZUJKAS_clean_linker_0, # of connection points: 2
# Relax obj value: 0.060
# Max RMSD: 0.096
# Mean RMSD: 0.096
data_MOF--net-fne--node1-XOMCOT_clean_sbu_0--edge1-ZUJKAS_clean_linker_0
_symmetry_space_group_name_H-M    P1
_symmetry_Int_Tables_number       1
_symmetry_cell_setting            triclinic
loop_
_symmetry_equiv_pos_as_xyz
'x, y, z'
_cell_length_a     59.391305
_cell_length_b     59.469818
_cell_length_c     21.93352
_cell_angle_alpha  89.872855
_cell_angle_beta   90.042284
_cell_angle_gamma 120.05952
loop_
_atom_site_label
_atom_site_type_symbol
_atom_site_fract_x
_atom_site_fract_y
_atom_site_fract_z
_atom_type_partial_charge
Co0 Co 0.35384 0.05864 0.07335 0.0
C1 C 0.34905 0.05006 0.20804 0.0
C2 C 0.31304 0.0264 0.16175 0.0
C3 C 0.30859 0.02291 0.22346 0.0
N4 N 0.33859 0.04289 0.15171 0.0
N5 N 0.33127 0.03788 0.2526 0.0
H6 H 0.36858 0.06551 0.21684 0.0
H7 H 0.29824 0.01846 0.1268 0.0
C8 C 0.32107 1.00212 0.04305 0.0
O9 O 0.3321 0.99694 0.08875 0.0
N10 N 0.36839 0.07452 0.99562 0.0
C11 C 0.39311 0.09326 0.98496 0.0
C12 C 0.39654 0.09728 0.92299 0.0
C13 C 0.35703 0.06751 0.94035 0.0
N14 N 0.37386 0.081 0.895 0.0
C15 C 0.39901 0.05899 0.12107 0.0
C16 C 0.40343 0.02926 0.0304 0.0
C17 C 0.42294 0.04039 0.07484 0.0
C18 C 0.42039 0.05524 0.12084 0.0
C19 C 0.38241 0.03368 0.03206 0.0
N20 N 0.37994 0.04786 0.07799 0.0
H21 H 0.39887 0.07232 0.15381 0.0
H22 H 0.36885 0.02675 0.9945 0.0
H23 H 0.40785 0.1027 0.01968 0.0
H24 H 0.33722 0.05209 0.93326 0.0
O25 O 0.37326 0.09207 0.11229 0.0
O26 O 0.33346 0.07587 0.07484 0.0
O27 O 0.32789 0.02567 0.03027 0.0
C28 C 0.35315 0.0948 0.10295 0.0
H29 H 0.2899 1.01092 0.24502 0.0
H30 H 0.41447 0.11089 0.90037 0.0
H31 H 0.40509 0.01835 0.99288 0.0
H32 H 0.43521 0.06456 0.15554 0.0
Co33 Co 0.32582 0.34482 0.40653 0.0
C34 C 0.32969 0.34024 0.54141 0.0
C35 C 0.3178 0.3044 0.49514 0.0
C36 C 0.31697 0.29995 0.5568 0.0
N37 N 0.32651 0.32985 0.48509 0.0
N38 N 0.32439 0.32252 0.58594 0.0
H39 H 0.33354 0.35967 0.55023 0.0
H40 H 0.31112 0.28964 0.46021 0.0
C41 C 0.35069 0.31301 0.37731 0.0
O42 O 0.36677 0.3244 0.42297 0.0
N43 N 0.32429 0.35909 0.32857 0.0
C44 C 0.32964 0.38359 0.31798 0.0
C45 C 0.32902 0.38703 0.25607 0.0
C46 C 0.32034 0.34788 0.27326 0.0
N47 N 0.3233 0.3646 0.22799 0.0
C48 C 0.37042 0.39024 0.45444 0.0
C49 C 0.40492 0.39491 0.36418 0.0
C50 C 0.41343 0.41402 0.40959 0.0
C51 C 0.39572 0.4114 0.45513 0.0
C52 C 0.37936 0.37405 0.36514 0.0
N53 N 0.3626 0.37137 0.41106 0.0
H54 H 0.35676 0.39006 0.48679 0.0
H55 H 0.37285 0.3606 0.32745 0.0
H56 H 0.33446 0.39817 0.35275 0.0
H57 H 0.31649 0.32827 0.2661 0.0
O58 O 0.3111 0.36382 0.44448 0.0
O59 O 0.28825 0.32374 0.40815 0.0
O60 O 0.33358 0.31929 0.36409 0.0
C61 C 0.2885 0.34336 0.4351 0.0
H62 H 0.3106 0.28133 0.57833 0.0
H63 H 0.33285 0.40481 0.23353 0.0
H64 H 0.41772 0.39623 0.32748 0.0
H65 H 0.40092 0.42624 0.48953 0.0
Co66 Co 1.01216 0.31804 0.74458 0.0
C67 C 0.02132 0.32145 0.87926 0.0
C68 C 0.03751 0.30112 0.83306 0.0
C69 C 0.04113 0.30005 0.89464 0.0
N70 N 0.02557 0.31501 0.82313 0.0
N71 N 0.03084 0.31276 0.92377 0.0
H72 H 1.0101 0.33075 0.88806 0.0
H73 H 0.04259 0.29174 0.79784 0.0
C74 C 0.06899 0.33866 0.72478 0.0
O75 O 0.07338 0.35112 0.77676 0.0
N76 N 0.99852 0.32021 0.66648 0.0
C77 C 0.9814 0.32834 0.65599 0.0
C78 C 0.97836 0.32924 0.59396 0.0
C79 C 1.00554 0.31607 0.6111 0.0
N80 N 0.99361 0.32158 0.56585 0.0
C81 C 1.01073 0.36177 0.79492 0.0
C82 C 0.04745 0.39902 0.71851 0.0
C83 C 0.03391 0.40633 0.75883 0.0
C84 C 1.01542 0.38721 0.79757 0.0
C85 C 0.04188 0.37322 0.71673 0.0
N86 N 0.02421 0.35497 0.75586 0.0
H87 H 0.99494 0.34725 0.82176 0.0
H88 H 0.05086 0.36787 0.6813 0.0
H89 H 0.97225 0.33383 0.69096 0.0
H90 H 0.01975 0.31001 0.60403 0.0
O91 O 0.97793 0.30368 0.77996 0.0
O92 O 0.99367 0.28042 0.73891 0.0
O93 O 0.04581 0.32532 0.70415 0.0
C94 C 0.97457 0.28091 0.76682 0.0
H95 H 0.05019 0.29019 0.91614 0.0
H96 H 0.966 0.33521 0.57137 0.0
H97 H 0.06176 0.41288 0.68716 0.0
H98 H 1.00356 0.39142 0.82764 0.0
Co99 Co 0.72426 1.00275 0.07137 0.0
C100 C 0.72914 1.01123 0.20609 0.0
C101 C 0.76507 0.035 0.15941 0.0
C102 C 0.76959 0.03851 0.22106 0.0
N103 N 0.73952 0.01842 0.14964 0.0
N104 N 0.74697 0.02348 0.25044 0.0
H105 H 0.70964 0.99575 0.21513 0.0
H106 H 0.77981 0.04301 0.12429 0.0
C107 C 0.75634 0.05939 0.04165 0.0
O108 O 0.74507 0.06405 0.0876 0.0
N109 N 0.70972 0.98695 0.99371 0.0
C110 C 0.68506 0.96806 0.98323 0.0
C111 C 0.68159 0.96413 0.92129 0.0
C112 C 0.721 0.99415 0.93835 0.0
N113 N 0.70417 0.98063 0.89313 0.0
C114 C 0.67886 1.00181 0.11968 0.0
C115 C 0.67415 0.03167 0.02942 0.0
C116 C 0.6548 0.02052 0.07429 0.0
C117 C 0.65747 1.00555 0.11999 0.0
C118 C 0.69519 0.02727 0.03057 0.0
N119 N 0.69785 0.01311 0.07641 0.0
H120 H 0.67912 0.98843 0.15225 0.0
H121 H 0.70865 0.03429 0.9928 0.0
H122 H 0.6704 0.95844 0.01808 0.0
H123 H 0.74074 1.00974 0.93111 0.0
O124 O 0.70522 0.96919 0.1103 0.0
O125 O 0.74501 0.98591 0.07238 0.0
O126 O 0.7499 0.03599 0.02834 0.0
C127 C 0.72549 0.96677 0.10058 0.0
H128 H 0.78829 0.05059 0.24241 0.0
H129 H 0.66368 0.95044 0.89879 0.0
H130 H 0.6724 0.04263 0.99205 0.0
H131 H 0.64277 0.99619 0.15499 0.0
Co132 Co 0.75198 0.71671 0.41119 0.0
C133 C 0.74734 0.72077 0.54559 0.0
C134 C 0.76036 0.75707 0.50005 0.0
C135 C 0.76091 0.76117 0.56182 0.0
N136 N 0.75112 0.73157 0.48952 0.0
N137 N 0.75282 0.73832 0.5904 0.0
H138 H 0.74227 0.70095 0.55405 0.0
H139 H 0.76774 0.77206 0.46545 0.0
C140 C 0.72832 0.74956 0.38082 0.0
O141 O 0.71205 0.73843 0.42638 0.0
N142 N 0.75371 0.70262 0.33346 0.0
C143 C 0.74736 0.67792 0.32176 0.0
C144 C 0.74866 0.67519 0.25973 0.0
C145 C 0.75892 0.71462 0.27888 0.0
N146 N 0.75578 0.69825 0.23284 0.0
C147 C 0.70669 0.67136 0.45728 0.0
C148 C 0.67286 0.66803 0.36662 0.0
C149 C 0.66385 0.64854 0.41138 0.0
C150 C 0.68123 0.65048 0.45711 0.0
C151 C 0.69858 0.68859 0.36842 0.0
N152 N 0.715 0.69063 0.41462 0.0
H153 H 0.72006 0.67095 0.48964 0.0
H154 H 0.70548 0.70226 0.33105 0.0
H155 H 0.74123 0.66275 0.35572 0.0
H156 H 0.76445 0.7348 0.27292 0.0
O157 O 0.76589 0.69717 0.45038 0.0
O158 O 0.78962 0.73708 0.41369 0.0
O159 O 0.74511 0.74281 0.36814 0.0
C160 C 0.78879 0.71733 0.44165 0.0
H161 H 0.76828 0.7798 0.584 0.0
H162 H 0.74358 0.65729 0.23616 0.0
H163 H 0.66036 0.66722 0.32973 0.0
H164 H 0.67566 0.63531 0.49096 0.0
Co165 Co 0.06619 0.74313 0.74562 0.0
C166 C 0.05561 0.73653 0.87949 0.0
C167 C 0.03769 0.75563 0.83492 0.0
C168 C 0.03372 0.75567 0.89662 0.0
N169 N 0.05107 0.74326 0.82393 0.0
N170 N 0.0451 0.74375 0.92473 0.0
H171 H 0.06725 0.72762 0.8873 0.0
H172 H 0.0323 0.76514 0.80055 0.0
C173 C 1.0092 0.71983 0.72088 0.0
O174 O 1.00456 0.70505 0.76925 0.0
N175 N 0.0814 0.74376 0.66759 0.0
C176 C 0.10138 0.73967 0.65705 0.0
C177 C 0.10515 0.74007 0.59505 0.0
C178 C 0.07328 0.74661 0.61225 0.0
N179 N 0.08737 0.74431 0.56682 0.0
C180 C 0.06989 0.69998 0.79134 0.0
C181 C 0.0354 0.66315 0.71079 0.0
C182 C 0.04931 0.65635 0.75111 0.0
C183 C 0.06665 0.67508 0.79183 0.0
C184 C 0.03958 0.68851 0.7111 0.0
N185 N 0.05603 0.70646 0.75249 0.0
H186 H 0.08483 0.71441 0.82002 0.0
H187 H 0.03059 0.69391 0.67567 0.0
H188 H 0.11212 0.73613 0.69193 0.0
H189 H 0.05689 0.7495 0.6054 0.0
O190 O 0.10007 0.75819 0.78325 0.0
O191 O 0.08309 0.78079 0.74453 0.0
O192 O 0.03263 0.73531 0.70412 0.0
C193 C 0.10246 0.78076 0.77236 0.0
H194 H 0.0245 0.76515 0.91908 0.0
H195 H 0.11981 0.73728 0.57279 0.0
H196 H 0.02252 0.64943 0.6771 0.0
H197 H 0.0782 0.67074 0.82276 0.0
H198 H 0.47334 0.0791 0.08775 0.0
H199 H 0.51264 0.07573 0.08276 0.0
H200 H 0.46577 0.99339 0.04954 0.0
H201 H 0.42631 0.99678 0.05332 0.0
H202 H 0.52754 0.04905 0.15376 0.0
H203 H 0.51892 0.0145 0.91569 0.0
H204 H 0.49898 0.02695 0.94535 0.0
H205 H 0.49091 0.99404 0.9613 0.0
C206 C 0.4714 0.06026 0.07943 0.0
C207 C 0.44673 0.03817 0.07108 0.0
C208 C 0.49389 0.05838 0.07635 0.0
C209 C 0.49225 0.03439 0.06491 0.0
C210 C 0.46761 0.01224 0.05684 0.0
H211 H 0.60425 0.98226 0.0897 0.0
H212 H 0.56522 0.98632 0.08641 0.0
C213 C 0.44507 0.01416 0.05932 0.0
C214 C 0.51631 0.03256 0.06387 0.0
H215 H 0.5514 0.01321 0.97721 0.0
C216 C 0.53281 0.04138 0.11494 0.0
C217 C 0.52328 0.02263 0.01311 0.0
C218 C 0.50724 0.01423 0.95552 0.0
C219 C 0.55579 0.04015 0.11699 0.0
C220 C 0.56244 0.02982 0.0668 0.0
C221 C 0.5461 0.02106 0.01565 0.0
C222 C 0.58611 0.02753 0.06737 0.0
C223 C 0.57273 0.04951 0.17307 0.0
C224 C 0.6107 0.04939 0.05729 0.0
C225 C 0.63306 0.04715 0.05904 0.0
C226 C 0.63116 0.02304 0.07145 0.0
C227 C 0.6064 1.00118 0.08102 0.0
C228 C 0.58408 1.0034 0.07875 0.0
H229 H 0.5637 0.0549 0.21038 0.0
H230 H 0.57668 0.03419 0.1899 0.0
H231 H 0.59172 0.06677 0.16121 0.0
H232 H 0.61256 0.06817 0.04832 0.0
H233 H 0.65186 0.06433 0.05169 0.0
H234 H 0.63086 0.62271 0.50641 0.0
H235 H 0.58862 0.5828 0.50244 0.0
H236 H 0.5935 0.58257 0.30632 0.0
H237 H 0.6363 0.62178 0.30996 0.0
H238 H 0.54302 0.572 0.44839 0.0
H239 H 0.57909 0.51024 0.34844 0.0
H240 H 0.60069 0.5422 0.37854 0.0
H241 H 0.58675 0.53853 0.30385 0.0
C242 C 0.62309 0.61407 0.4624 0.0
C243 C 0.63717 0.62541 0.40856 0.0
C244 C 0.59884 0.59133 0.46021 0.0
C245 C 0.58812 0.57938 0.40419 0.0
C246 C 0.60166 0.59109 0.35019 0.0
H247 H 0.4411 0.44194 0.30925 0.0
H248 H 0.48355 0.48177 0.30723 0.0
C249 C 0.62599 0.61377 0.35233 0.0
C250 C 0.56272 0.55476 0.40257 0.0
H251 H 0.53333 0.49124 0.35773 0.0
C252 C 0.54093 0.55434 0.42871 0.0
C253 C 0.56 0.53169 0.3769 0.0
C254 C 0.58291 0.53052 0.35085 0.0
C255 C 0.51649 0.53157 0.42941 0.0
C256 C 0.51382 0.50855 0.40383 0.0
C257 C 0.53548 0.50896 0.37721 0.0
C258 C 0.48868 0.48377 0.40505 0.0
C259 C 0.4936 0.53234 0.45687 0.0
C260 C 0.47784 0.47138 0.46065 0.0
C261 C 0.45373 0.44844 0.46199 0.0
C262 C 0.43995 0.43743 0.4077 0.0
C263 C 0.45125 0.44963 0.35189 0.0
C264 C 0.47544 0.47251 0.35062 0.0
H265 H 0.49753 0.55256 0.46232 0.0
H266 H 0.47597 0.52139 0.42821 0.0
H267 H 0.48938 0.52308 0.50259 0.0
H268 H 0.48801 0.47952 0.50308 0.0
H269 H 0.44588 0.43936 0.50566 0.0
H270 H 0.0443 0.43872 0.66 0.0
H271 H 0.04873 0.48172 0.65784 0.0
H272 H 0.03355 0.47673 0.85109 0.0
H273 H 0.03114 0.43464 0.85471 0.0
H274 H 1.01477 0.49615 0.68021 0.0
H275 H 0.09591 0.54719 0.84314 0.0
H276 H 0.08659 0.5154 0.81386 0.0
H277 H 0.0692 0.51897 0.87692 0.0
C278 C 0.04265 0.44699 0.70251 0.0
C279 C 0.03757 0.43309 0.75768 0.0
C280 C 0.04486 0.47153 0.70099 0.0
C281 C 0.04187 0.48274 0.75443 0.0
C282 C 0.03662 0.46888 0.80946 0.0
H283 H 1.00553 0.60837 0.75659 0.0
H284 H 1.00314 0.56596 0.75634 0.0
C285 C 0.03482 0.44453 0.81123 0.0
C286 C 0.04327 0.50843 0.75204 0.0
H287 H 0.07207 0.56844 0.81794 0.0
C288 C 0.02746 0.51203 0.71003 0.0
C289 C 0.06008 0.52933 0.79026 0.0
C290 C 0.07909 0.52764 0.83307 0.0
C291 C 0.02777 0.53577 0.70564 0.0
C292 C 0.04365 0.55624 0.74593 0.0
C293 C 0.05964 0.5527 0.78749 0.0
C294 C 0.04464 0.58176 0.74494 0.0
C295 C 1.01158 0.53878 0.65672 0.0
C296 C 0.06874 0.60483 0.74043 0.0
C297 C 0.07014 0.62896 0.74217 0.0
C298 C 0.04744 0.63058 0.74785 0.0
C299 C 0.02326 0.60758 0.75158 0.0
C300 C 0.0219 0.58337 0.75099 0.0
H301 H 1.00744 0.52497 0.61859 0.0
H302 H 0.99266 0.53455 0.67646 0.0
H303 H 0.02145 0.55882 0.63791 0.0
H304 H 0.08656 0.60417 0.7357 0.0
H305 H 0.08901 0.64643 0.73874 0.0
H306 H 0.2953 0.03073 0.33872 0.0
H307 H 0.30246 0.03819 0.44823 0.0
H308 H 0.3834 0.06199 0.42409 0.0
H309 H 0.3764 0.05424 0.31446 0.0
H310 H 0.32207 0.01552 0.53233 0.0
H311 H 0.38494 0.12281 0.51863 0.0
H312 H 0.36486 0.10358 0.4559 0.0
H313 H 0.39511 0.10475 0.4718 0.0
C314 C 0.3146 0.03733 0.35653 0.0
C315 C 0.33531 0.04198 0.31749 0.0
C316 C 0.31866 0.04172 0.4192 0.0
C317 C 0.34352 0.051 0.44407 0.0
C318 C 0.36417 0.05534 0.40558 0.0
H319 H 0.40938 0.09033 0.80637 0.0
H320 H 0.40126 0.0827 0.69716 0.0
C321 C 0.36013 0.05092 0.3429 0.0
C322 C 0.34774 0.05581 0.51047 0.0
H323 H 0.38077 0.10348 0.61562 0.0
C324 C 0.3348 0.03475 0.55068 0.0
C325 C 0.36437 0.08093 0.53407 0.0
C326 C 0.37798 0.1044 0.49302 0.0
C327 C 0.33849 0.03804 0.61399 0.0
C328 C 0.35516 0.06317 0.63763 0.0
C329 C 0.36801 0.08424 0.59736 0.0
C330 C 0.35986 0.06799 0.70399 0.0
C331 C 0.32504 0.01449 0.65485 0.0
C332 C 0.33933 0.06265 0.74401 0.0
C333 C 0.34393 0.06707 0.80658 0.0
C334 C 0.36919 0.07714 0.83027 0.0
C335 C 0.38976 0.08288 0.78976 0.0
C336 C 0.38513 0.07839 0.72729 0.0
H337 H 0.31852 0.99616 0.62915 0.0
H338 H 0.33808 0.01548 0.69235 0.0
H339 H 0.30761 0.01372 0.67547 0.0
H340 H 0.31977 0.05519 0.72681 0.0
H341 H 0.32773 0.06284 0.83629 0.0
H342 H 0.35268 0.36767 0.64779 0.0
H343 H 0.35226 0.37432 0.75775 0.0
H344 H 0.29606 0.29312 0.78172 0.0
H345 H 0.29602 0.28633 0.67208 0.0
H346 H 0.30836 0.36376 0.83166 0.0
H347 H 0.35424 0.30644 0.90462 0.0
H348 H 0.35593 0.31753 0.82714 0.0
H349 H 0.32676 0.28974 0.85467 0.0
C350 C 0.34013 0.35124 0.67633 0.0
C351 C 0.32446 0.32644 0.6509 0.0
C352 C 0.34002 0.35506 0.73919 0.0
C353 C 0.32441 0.33414 0.77786 0.0
C354 C 0.30866 0.30941 0.75277 0.0
H355 H 0.29634 0.31851 0.16896 0.0
H356 H 0.29595 0.31103 0.05913 0.0
C357 C 0.30871 0.30557 0.68997 0.0
C358 C 0.32398 0.33832 0.84427 0.0
H359 H 0.33743 0.32138 0.98268 0.0
C360 C 0.31481 0.3546 0.86475 0.0
C361 C 0.33227 0.32619 0.88718 0.0
C362 C 0.34307 0.30915 0.86751 0.0
C363 C 0.31336 0.35883 0.92719 0.0
C364 C 0.32182 0.34686 0.97015 0.0
C365 C 0.33092 0.33049 0.94964 0.0
C366 C 0.32185 0.35145 0.03655 0.0
C367 C 0.30227 0.37565 0.94662 0.0
C368 C 0.3368 0.37658 0.06029 0.0
C369 C 0.33708 0.3809 0.12291 0.0
C370 C 0.32258 0.36013 0.16322 0.0
C371 C 0.30784 0.3349 0.1393 0.0
C372 C 0.30752 0.33061 0.07655 0.0
H373 H 0.29015 0.37726 0.91016 0.0
H374 H 0.29024 0.36784 0.98841 0.0
H375 H 0.31847 0.3955 0.95669 0.0
H376 H 0.34854 0.39284 0.03043 0.0
H377 H 0.34911 0.40047 0.13978 0.0
H378 H 0.02397 0.34876 0.98416 0.0
H379 H 0.0186 0.35112 0.09407 0.0
H380 H 0.02739 0.28414 0.12146 0.0
H381 H 0.03218 0.28118 0.01188 0.0
H382 H 0.97932 0.30983 0.16976 0.0
H383 H 0.08028 0.33986 0.24165 0.0
H384 H 0.07214 0.34367 0.16437 0.0
H385 H 0.06518 0.31232 0.19148 0.0
C386 C 0.02464 0.33443 0.01338 0.0
C387 C 0.02853 0.31478 0.98882 0.0
C388 C 0.02172 0.33592 0.07624 0.0
C389 C 0.02292 0.318 0.11578 0.0
C390 C 0.02689 0.29845 0.09171 0.0
H391 H 1.00731 0.29039 0.50593 0.0
H392 H 1.01409 0.28954 0.39607 0.0
C393 C 0.02969 0.29685 0.0289 0.0
C394 C 0.01898 0.31906 0.18208 0.0
H395 H 0.04896 0.32839 0.32009 0.0
C396 C 0.99455 0.31404 0.20272 0.0
C397 C 0.03888 0.32436 0.22473 0.0
C398 C 0.06569 0.33057 0.20468 0.0
C399 C 0.98929 0.31369 0.26519 0.0
C400 C 1.00923 0.31913 0.30797 0.0
C401 C 0.03371 0.32421 0.28722 0.0
C402 C 1.00512 0.31972 0.37447 0.0
C403 C 0.96222 0.30682 0.2848 0.0
C404 C 0.9982 0.33721 0.39883 0.0
C405 C 0.99426 0.33769 0.46148 0.0
C406 C 0.99747 0.32089 0.50115 0.0
C407 C 1.00483 0.30368 0.47669 0.0
C408 C 1.00863 0.30311 0.41393 0.0
H409 H 0.94767 0.29622 0.24849 0.0
H410 H 0.95627 0.29467 0.32669 0.0
H411 H 0.96189 0.32494 0.29474 0.0
H412 H 0.99607 0.35068 0.36943 0.0
H413 H 0.98918 0.35158 0.47892 0.0
H414 H 0.75023 0.99908 0.83392 0.0
H415 H 0.75803 1.00715 0.7243 0.0
H416 H 0.67634 0.97885 0.69561 0.0
H417 H 0.66847 0.97132 0.80498 0.0
H418 H 0.73502 0.97071 0.62664 0.0
H419 H 0.71271 0.05078 0.61156 0.0
H420 H 0.71942 0.04017 0.68303 0.0
H421 H 0.68802 0.02171 0.64787 0.0
C422 C 0.73396 0.99478 0.80438 0.0
C423 C 0.70873 0.98461 0.82837 0.0
C424 C 0.73843 0.99927 0.74175 0.0
C425 C 0.71782 0.99392 0.70206 0.0
C426 C 0.69258 0.98347 0.72563 0.0
H427 H 0.70194 1.00716 0.31273 0.0
H428 H 0.69511 0.99943 0.42251 0.0
C429 C 0.68808 0.9789 0.78814 0.0
C430 C 0.72257 0.99886 0.63579 0.0
H431 H 0.71847 0.03431 0.51809 0.0
C432 C 0.73155 0.98471 0.60286 0.0
C433 C 0.71794 0.01709 0.60504 0.0
C434 C 0.7092 0.03351 0.63863 0.0
C435 C 0.73551 0.98789 0.53959 0.0
C436 C 0.73085 1.0061 0.50877 0.0
C437 C 0.72197 0.02033 0.54181 0.0
C438 C 0.73509 1.01071 0.44223 0.0
C439 C 0.74401 0.97125 0.50609 0.0
C440 C 0.7599 0.01993 0.41702 0.0
C441 C 0.76383 0.02417 0.35427 0.0
C442 C 0.74303 0.01945 0.3154 0.0
C443 C 0.71828 1.01059 0.34107 0.0
C444 C 0.71437 1.00632 0.40387 0.0
H445 H 0.74003 0.95378 0.53296 0.0
H446 H 0.73403 0.96487 0.46136 0.0
H447 H 0.76528 0.98275 0.49766 0.0
H448 H 0.77628 0.02393 0.44595 0.0
H449 H 0.7831 0.03081 0.33628 0.0
H450 H 0.76024 0.70214 0.64847 0.0
H451 H 0.76046 0.69565 0.75845 0.0
H452 H 0.74656 0.75922 0.78979 0.0
H453 H 0.74556 0.76539 0.67968 0.0
H454 H 0.79394 0.73213 0.84543 0.0
H455 H 0.69022 0.69981 0.893 0.0
H456 H 0.70218 0.70028 0.81707 0.0
H457 H 0.70752 0.7299 0.85177 0.0
C458 C 0.75677 0.71446 0.6786 0.0
C459 C 0.75267 0.73417 0.65522 0.0
C460 C 0.75713 0.71086 0.74148 0.0
C461 C 0.75321 0.72674 0.78215 0.0
C462 C 0.7492 0.74648 0.75911 0.0
H463 H 0.74864 0.73489 0.17627 0.0
H464 H 0.74964 0.74278 0.06677 0.0
C465 C 0.74889 0.75014 0.69623 0.0
C466 C 0.75404 0.72308 0.84873 0.0
H467 H 0.71756 0.7077 0.97854 0.0
C468 C 0.77724 0.7267 0.87459 0.0
C469 C 0.73221 0.71608 0.88651 0.0
C470 C 0.70653 0.71106 0.86078 0.0
C471 C 0.77933 0.72385 0.93754 0.0
C472 C 0.75747 0.71674 0.9753 0.0
C473 C 0.73429 0.71319 0.94943 0.0
C474 C 0.75811 0.71262 0.04175 0.0
C475 C 0.80506 0.72899 0.96321 0.0
C476 C 0.76249 0.69301 0.06398 0.0
C477 C 0.76215 0.68857 0.12666 0.0
C478 C 0.75725 0.70356 0.16832 0.0
C479 C 0.75293 0.72326 0.14574 0.0
C480 C 0.75328 0.72768 0.08307 0.0
H481 H 0.8214 0.7408 0.93151 0.0
H482 H 0.80913 0.73923 0.00763 0.0
H483 H 0.80438 0.7102 0.97075 0.0
H484 H 0.7658 0.68086 0.0328 0.0
H485 H 0.7657 0.67337 0.14246 0.0
H486 H 0.10443 0.72515 0.47648 0.0
H487 H 0.09702 0.72553 0.36742 0.0
H488 H 0.0521 0.76308 0.3998 0.0
H489 H 0.06054 0.76413 0.50865 0.0
H490 H 0.05181 0.70247 0.30493 0.0
H491 H 0.10151 0.80912 0.26938 0.0
H492 H 0.10497 0.79478 0.33875 0.0
H493 H 0.07661 0.79775 0.32661 0.0
C494 C 0.0934 0.73398 0.46069 0.0
C495 C 0.08326 0.74476 0.50197 0.0
C496 C 0.08898 0.73395 0.39813 0.0
C497 C 0.07433 0.74467 0.37535 0.0
C498 C 0.06395 0.75521 0.41621 0.0
H499 H 1.01437 0.74532 0.01433 0.0
H500 H 0.02073 0.74473 0.12438 0.0
C501 C 0.06854 0.75547 0.47875 0.0
C502 C 0.06936 0.74413 0.30897 0.0
H503 H 0.07646 0.7827 0.18638 0.0
C504 C 0.05731 0.72002 0.279 0.0
C505 C 0.0766 0.76708 0.27516 0.0
C506 C 0.09087 0.79367 0.30395 0.0
C507 C 0.0521 0.71826 0.21625 0.0
C508 C 0.05906 0.74114 0.18289 0.0
C509 C 0.07102 0.76521 0.21258 0.0
C510 C 0.0547 0.74053 0.11658 0.0
C511 C 0.03908 0.69204 0.18574 0.0
C512 C 0.07175 0.73836 0.07618 0.0
C513 C 0.06843 0.73903 0.01329 0.0
C514 C 0.04789 0.74182 0.98965 0.0
C515 C 0.0306 0.74355 0.0307 0.0
C516 C 0.03407 0.74306 0.0936 0.0
H517 H 0.03253 0.67587 0.2191 0.0
H518 H 0.02203 0.68935 0.15894 0.0
H519 H 0.05292 0.691 0.15347 0.0
H520 H 0.08791 0.7366 0.09339 0.0
H521 H 0.08241 0.73806 0.98353 0.0
H522 H 0.39011 0.1345 0.17057 0.0
H523 H 0.38857 0.17165 0.21292 0.0
H524 H 0.3134 0.14462 0.13064 0.0
H525 H 0.31475 0.10717 0.08782 0.0
H526 H 0.35186 0.20057 0.11632 0.0
H527 H 0.33941 0.16584 0.35598 0.0
H528 H 0.36569 0.16594 0.31515 0.0
H529 H 0.33273 0.14455 0.29154 0.0
C530 C 0.37326 0.13645 0.16121 0.0
C531 C 0.35249 0.11784 0.12598 0.0
C532 C 0.37238 0.15765 0.1857 0.0
C533 C 0.35074 0.16068 0.17552 0.0
C534 C 0.33022 0.14251 0.1392 0.0
H535 H 0.31695 0.28159 0.28913 0.0
H536 H 0.31662 0.24496 0.23792 0.0
C537 C 0.33101 0.12116 0.11485 0.0
C538 C 0.34966 0.18281 0.20333 0.0
H539 H 0.3481 0.20891 0.34061 0.0
C540 C 0.35084 0.20237 0.16531 0.0
C541 C 0.34842 0.18506 0.26722 0.0
C542 C 0.34627 0.16416 0.31001 0.0
C543 C 0.35161 0.2246 0.18968 0.0
C544 C 0.35057 0.22697 0.25372 0.0
C545 C 0.34902 0.20716 0.29157 0.0
C546 C 0.35127 0.24986 0.28277 0.0
C547 C 0.35436 0.24568 0.1467 0.0
C548 C 0.37057 0.26456 0.3259 0.0
C549 C 0.37065 0.28534 0.35583 0.0
C550 C 0.35138 0.29183 0.34331 0.0
C551 C 0.3322 0.27724 0.2996 0.0
C552 C 0.33206 0.25637 0.26994 0.0
H553 H 0.36212 0.24431 0.10164 0.0
H554 H 0.33496 0.24367 0.13916 0.0
H555 H 0.36744 0.26526 0.16599 0.0
H556 H 0.38554 0.25985 0.33671 0.0
H557 H 0.3857 0.29614 0.3892 0.0
H558 H 0.24445 0.30144 0.47851 0.0
H559 H 0.20627 0.30096 0.522 0.0
H560 H 0.23991 0.38252 0.47968 0.0
H561 H 0.27884 0.38333 0.44047 0.0
H562 H 0.22192 0.37582 0.58494 0.0
H563 H 0.14454 0.29744 0.4481 0.0
H564 H 0.16289 0.28559 0.48772 0.0
H565 H 0.1785 0.31063 0.43059 0.0
C566 C 0.24346 0.31914 0.47795 0.0
C567 C 0.26445 0.3424 0.45602 0.0
C568 C 0.22153 0.31884 0.50233 0.0
C569 C 0.21975 0.34157 0.50304 0.0
C570 C 0.24064 0.36468 0.47974 0.0
H571 H 0.07362 0.33545 0.60151 0.0
H572 H 0.11053 0.3378 0.54583 0.0
C573 C 0.26287 0.36515 0.45716 0.0
C574 C 0.19709 0.34181 0.53166 0.0
H575 H 0.13071 0.30892 0.54003 0.0
C576 C 0.20198 0.36134 0.57436 0.0
C577 C 0.17093 0.32329 0.51744 0.0
C578 C 0.16392 0.30328 0.46794 0.0
C579 C 0.18169 0.36262 0.60383 0.0
C580 C 0.15561 0.34297 0.59301 0.0
C581 C 0.15064 0.32377 0.54933 0.0
C582 C 0.13328 0.34188 0.62669 0.0
C583 C 0.1886 0.38549 0.64504 0.0
C584 C 0.13347 0.34305 0.69071 0.0
C585 C 0.11277 0.34249 0.72231 0.0
C586 C 0.09096 0.33974 0.69075 0.0
C587 C 0.09026 0.33764 0.62692 0.0
C588 C 0.11132 0.33894 0.59514 0.0
H589 H 0.20725 0.40274 0.63103 0.0
H590 H 0.17324 0.39093 0.64488 0.0
H591 H 0.19114 0.38046 0.69231 0.0
H592 H 0.14957 0.34423 0.71649 0.0
H593 H 0.11359 0.34362 0.77162 0.0
H594 H 0.78779 0.05729 0.95308 0.0
H595 H 0.82459 0.09381 0.9019 0.0
H596 H 0.80931 0.14745 1.00031 0.0
H597 H 0.7729 0.11117 0.05264 0.0
H598 H 0.82815 0.13295 0.82846 0.0
H599 H 0.88518 0.17419 0.03995 0.0
H600 H 0.85679 0.14218 0.03731 0.0
H601 H 0.85331 0.17046 0.04376 0.0
C602 C 0.79222 0.07686 0.96381 0.0
C603 C 0.77755 0.08131 0.00752 0.0
C604 C 0.81327 0.09771 0.93445 0.0
C605 C 0.82006 0.12339 0.94823 0.0
C606 C 0.80486 0.12783 0.99015 0.0
H607 H 0.93409 0.27736 0.83277 0.0
H608 H 0.89649 0.23816 0.87265 0.0
C609 C 0.78393 0.10704 0.01977 0.0
C610 C 0.84309 0.14555 0.9191 0.0
H611 H 0.90035 0.20083 0.95114 0.0
C612 C 0.84404 0.14769 0.85521 0.0
C613 C 0.86394 0.16468 0.95404 0.0
C614 C 0.86495 0.16268 0.02251 0.0
C615 C 0.86485 0.1689 0.82553 0.0
C616 C 0.88527 0.18832 0.86067 0.0
C617 C 0.88455 0.18596 0.92438 0.0
C618 C 0.90729 0.2117 0.83263 0.0
C619 C 0.86457 0.17082 0.75699 0.0
C620 C 0.92581 0.2098 0.79665 0.0
C621 C 0.94746 0.23225 0.77384 0.0
C622 C 0.95088 0.25693 0.7867 0.0
C623 C 0.93201 0.25866 0.82183 0.0
C624 C 0.91051 0.23628 0.84478 0.0
H625 H 0.84532 0.15673 0.7374 0.0
H626 H 0.86961 0.19075 0.74282 0.0
H627 H 0.87938 0.16675 0.73743 0.0
H628 H 0.92385 0.19101 0.78747 0.0
H629 H 0.96172 0.2303 0.74717 0.0
H630 H 0.68927 0.92695 0.16961 0.0
H631 H 0.6913 0.88982 0.2106 0.0
H632 H 0.76547 0.91692 0.12271 0.0
H633 H 0.76385 0.9546 0.08253 0.0
H634 H 0.69398 0.85064 0.15308 0.0
H635 H 0.78154 0.90717 0.29731 0.0
H636 H 0.76418 0.92157 0.26269 0.0
H637 H 0.78627 0.91597 0.21807 0.0
C638 C 0.70604 0.92505 0.15892 0.0
C639 C 0.72647 0.94379 0.12303 0.0
C640 C 0.70715 0.90378 0.18239 0.0
C641 C 0.72871 0.90076 0.17055 0.0
C642 C 0.74891 0.91914 0.1336 0.0
H643 H 0.76233 0.78038 0.29206 0.0
H644 H 0.76243 0.81632 0.23705 0.0
C645 C 0.74788 0.94057 0.11032 0.0
C646 C 0.72974 0.87825 0.19689 0.0
H647 H 0.7644 0.86173 0.29327 0.0
C648 C 0.70941 0.85308 0.18366 0.0
C649 C 0.74987 0.88144 0.23686 0.0
C650 C 0.77159 0.90798 0.25513 0.0
C651 C 0.70862 0.83104 0.20937 0.0
C652 C 0.72858 0.83427 0.24974 0.0
C653 C 0.74917 0.85936 0.26214 0.0
C654 C 0.72794 0.8119 0.2814 0.0
C655 C 0.6865 0.80445 0.19307 0.0
C656 C 0.70855 0.7976 0.32471 0.0
C657 C 0.70849 0.77715 0.35647 0.0
C658 C 0.72783 0.7706 0.34548 0.0
C659 C 0.74711 0.78485 0.30158 0.0
C660 C 0.74724 0.80542 0.27013 0.0
H661 H 0.67624 0.80492 0.15112 0.0
H662 H 0.69364 0.79059 0.1862 0.0
H663 H 0.67221 0.79704 0.23101 0.0
H664 H 0.69368 0.80254 0.33466 0.0
H665 H 0.69339 0.76664 0.38999 0.0
H666 H 0.95708 0.68617 0.73635 0.0
H667 H 0.92096 0.68602 0.68221 0.0
H668 H 0.97535 0.75141 0.57399 0.0
H669 H 1.01168 0.75172 0.62765 0.0
H670 H 0.93311 0.75575 0.63291 0.0
H671 H 0.89821 0.66466 0.50047 0.0
H672 H 0.90358 0.66253 0.58047 0.0
H673 H 0.93067 0.68249 0.53177 0.0
C674 C 0.96142 0.70042 0.70074 0.0
C675 C 0.9873 0.71894 0.68633 0.0
C676 C 0.94073 0.70023 0.6697 0.0
C677 C 0.94552 0.71856 0.6238 0.0
C678 C 0.97128 0.73703 0.60912 0.0
H679 H 0.83967 0.75464 0.42232 0.0
H680 H 0.8786 0.75571 0.46333 0.0
C681 C 0.992 0.73713 0.6398 0.0
C682 C 0.92357 0.71904 0.59284 0.0
H683 H 0.87142 0.68368 0.49991 0.0
C684 C 0.9197 0.74013 0.60341 0.0
C685 C 0.90612 0.69857 0.55467 0.0
C686 C 0.90985 0.67583 0.54059 0.0
C687 C 0.89833 0.74092 0.57827 0.0
C688 C 0.88075 0.72035 0.5402 0.0
C689 C 0.8849 0.69945 0.52899 0.0
C690 C 0.85737 0.7196 0.51347 0.0
C691 C 0.89427 0.76327 0.59463 0.0
C692 C 0.83255 0.69856 0.52625 0.0
C693 C 0.81035 0.69773 0.50222 0.0
C694 C 0.81251 0.71796 0.46486 0.0
C695 C 0.83738 0.73886 0.45129 0.0
C696 C 0.85963 0.73958 0.47505 0.0
H697 H 0.90524 0.7735 0.6363 0.0
H698 H 0.90128 0.77753 0.55663 0.0
H699 H 0.87334 0.75649 0.60219 0.0
H700 H 0.83031 0.68288 0.55559 0.0
H701 H 0.79147 0.68136 0.51363 0.0
H702 H 0.11416 0.83115 0.7539 0.0
H703 H 0.15257 0.87081 0.79053 0.0
H704 H 0.18106 0.82438 0.87539 0.0
H705 H 0.14324 0.78494 0.8381 0.0
H706 H 0.16868 0.88583 0.90778 0.0
H707 H 0.24456 0.87679 0.78231 0.0
H708 H 0.21045 0.85759 0.76366 0.0
H709 H 0.22382 0.84821 0.82588 0.0
C710 C 0.12876 0.82946 0.77984 0.0
C711 C 0.12577 0.80493 0.7927 0.0
C712 C 0.15067 0.85211 0.80079 0.0
C713 C 0.16996 0.85061 0.8347 0.0
C714 C 0.16683 0.8261 0.84791 0.0
H715 H 0.30325 0.94999 0.05347 0.0
H716 H 0.26679 0.91446 0.99929 0.0
C717 C 0.14507 0.80353 0.82685 0.0
C718 C 0.19281 0.87445 0.8589 0.0
H719 H 0.25922 0.90656 0.86629 0.0
C720 C 0.18848 0.89057 0.89804 0.0
C721 C 0.21867 0.88065 0.84614 0.0
C722 C 0.2247 0.86504 0.8017 0.0
C723 C 0.20927 0.91211 0.92659 0.0
C724 C 0.23503 0.91778 0.91526 0.0
C725 C 0.23941 0.90204 0.87512 0.0
C726 C 0.25763 0.93952 0.94618 0.0
C727 C 0.20353 0.92816 0.97029 0.0
C728 C 0.26482 0.96538 0.9334 0.0
C729 C 0.28573 0.98576 0.96407 0.0
C730 C 0.29979 0.98062 0.00822 0.0
C731 C 0.2928 0.95465 0.01998 0.0
C732 C 0.27199 0.93432 0.98903 0.0
H733 H 0.18255 0.91858 0.98222 0.0
H734 H 0.21498 0.93185 0.01287 0.0
H735 H 0.20925 0.94724 0.94903 0.0
H736 H 0.25418 0.9698 0.89988 0.0
H737 H 0.29063 1.00552 0.95372 0.0
loop_
_geom_bond_atom_site_label_1
_geom_bond_atom_site_label_2
_geom_bond_distance
_geom_bond_site_symmetry_2
_ccdc_geom_bond_type
Co0 N4 2.148 . S
Co0 N10 2.128 1_554 S
Co0 N20 2.194 . S
Co0 O25 2.351 . S
Co0 O26 2.155 . S
Co0 O27 2.096 1_545 S
C1 N4 1.301 . S
C1 N5 1.328 . S
C1 H6 0.930 . S
C2 C3 1.333 . S
C2 N4 1.317 1_565 S
C2 H7 0.930 . S
C3 C2 1.333 . S
C3 N5 1.350 1_565 S
C3 H29 0.931 . S
N4 Co0 2.148 . S
N4 C1 1.301 . S
N4 C2 1.317 1_545 S
N5 C1 1.328 . S
N5 C3 1.350 1_545 S
H6 C1 0.930 . S
H7 C2 0.930 . S
C8 O9 1.224 . S
C8 O27 1.247 . S
O9 C8 1.224 . S
N10 Co0 2.128 1_556 S
N10 C11 1.355 . S
N10 C13 1.311 . S
C11 N10 1.355 . S
C11 C12 1.363 . S
C11 H23 0.929 . S
C12 C11 1.363 . S
C12 N14 1.375 . S
C12 H30 0.931 . S
C13 N10 1.311 . S
C13 N14 1.347 . S
C13 H24 0.929 . S
N14 C12 1.375 . S
N14 C13 1.347 . S
C15 C18 1.365 . S
C15 N20 1.328 . S
C15 H21 0.929 . S
C16 C17 1.363 1_565 S
C16 C19 1.379 1_565 S
C16 H31 0.927 . S
C17 C16 1.363 1_545 S
C17 C18 1.366 . S
C18 C15 1.365 . S
C18 C17 1.366 . S
C18 H32 0.930 . S
C19 C16 1.379 1_545 S
C19 N20 1.315 . S
C19 H22 0.930 1_545 S
N20 Co0 2.194 . S
N20 C15 1.328 . S
N20 C19 1.315 . S
H21 C15 0.929 . S
H22 C19 0.930 1_565 S
H23 C11 0.929 . S
H24 C13 0.929 . S
O25 Co0 2.351 . S
O25 C28 1.244 . S
O26 Co0 2.155 . S
O26 C28 1.240 . S
O27 Co0 2.096 1_565 S
O27 C8 1.247 . S
C28 O25 1.244 . S
C28 O26 1.240 . S
H29 C3 0.931 . S
H30 C12 0.931 . S
H31 C16 0.927 . S
H32 C18 0.930 . S
Co33 N37 2.148 . S
Co33 N43 2.128 . S
Co33 N53 2.194 . S
Co33 O58 2.351 . S
Co33 O59 2.155 . S
Co33 O60 2.096 . S
C34 N37 1.301 . S
C34 N38 1.328 . S
C34 H39 0.930 . S
C35 C36 1.333 . S
C35 N37 1.317 . S
C35 H40 0.930 . S
C36 C35 1.333 . S
C36 N38 1.350 . S
C36 H62 0.931 . S
N37 Co33 2.148 . S
N37 C34 1.301 . S
N37 C35 1.317 . S
N38 C34 1.328 . S
N38 C36 1.350 . S
H39 C34 0.930 . S
H40 C35 0.930 . S
C41 O42 1.224 . S
C41 O60 1.247 . S
O42 C41 1.224 . S
N43 Co33 2.128 . S
N43 C44 1.355 . S
N43 C46 1.311 . S
C44 N43 1.355 . S
C44 C45 1.363 . S
C44 H56 0.929 . S
C45 C44 1.363 . S
C45 N47 1.375 . S
C45 H63 0.931 . S
C46 N43 1.311 . S
C46 N47 1.347 . S
C46 H57 0.929 . S
N47 C45 1.375 . S
N47 C46 1.347 . S
C48 C51 1.365 . S
C48 N53 1.328 . S
C48 H54 0.929 . S
C49 C50 1.362 . S
C49 C52 1.378 . S
C49 H64 0.929 . S
C50 C49 1.362 . S
C50 C51 1.366 . S
C51 C48 1.365 . S
C51 C50 1.366 . S
C51 H65 0.930 . S
C52 C49 1.378 . S
C52 N53 1.315 . S
C52 H55 0.930 . S
N53 Co33 2.194 . S
N53 C48 1.328 . S
N53 C52 1.315 . S
H54 C48 0.929 . S
H55 C52 0.930 . S
H56 C44 0.929 . S
H57 C46 0.929 . S
O58 Co33 2.351 . S
O58 C61 1.244 . S
O59 Co33 2.155 . S
O59 C61 1.240 . S
O60 Co33 2.096 . S
O60 C41 1.247 . S
C61 O58 1.244 . S
C61 O59 1.240 . S
H62 C36 0.931 . S
H63 C45 0.931 . S
H64 C49 0.929 . S
H65 C51 0.930 . S
Co66 N70 2.148 . S
Co66 N76 2.128 . S
Co66 N86 2.194 . S
Co66 O91 2.351 1_455 S
Co66 O92 2.155 1_455 S
Co66 O93 2.096 . S
C67 N70 1.301 . S
C67 N71 1.328 . S
C67 H72 0.930 . S
C68 C69 1.333 . S
C68 N70 1.317 . S
C68 H73 0.930 . S
C69 C68 1.333 . S
C69 N71 1.350 . S
C69 H95 0.931 . S
N70 Co66 2.148 . S
N70 C67 1.301 . S
N70 C68 1.317 . S
N71 C67 1.328 . S
N71 C69 1.350 . S
H72 C67 0.930 . S
H73 C68 0.930 . S
C74 O75 1.224 . S
C74 O93 1.247 . S
O75 C74 1.224 . S
N76 Co66 2.128 . S
N76 C77 1.355 1_455 S
N76 C79 1.311 . S
C77 N76 1.355 1_655 S
C77 C78 1.363 . S
C77 H89 0.929 . S
C78 C77 1.363 . S
C78 N80 1.375 1_655 S
C78 H96 0.931 . S
C79 N76 1.311 . S
C79 N80 1.347 . S
C79 H90 0.929 . S
N80 C78 1.375 1_455 S
N80 C79 1.347 . S
C81 C84 1.365 . S
C81 N86 1.302 1_655 S
C81 H87 0.943 . S
C82 C83 1.362 . S
C82 C85 1.378 . S
C82 H97 0.929 . S
C83 C82 1.362 . S
C83 C84 1.354 1_455 S
C84 C81 1.365 . S
C84 C83 1.354 1_655 S
C84 H98 0.957 . S
C85 C82 1.378 . S
C85 N86 1.315 . S
C85 H88 0.930 . S
N86 Co66 2.194 . S
N86 C81 1.302 1_455 S
N86 C85 1.315 . S
H87 C81 0.943 . S
H88 C85 0.930 . S
H89 C77 0.929 . S
H90 C79 0.929 . S
O91 Co66 2.351 1_655 S
O91 C94 1.244 . S
O92 Co66 2.155 1_655 S
O92 C94 1.240 . S
O93 Co66 2.096 . S
O93 C74 1.247 . S
C94 O91 1.244 . S
C94 O92 1.240 . S
H95 C69 0.931 . S
H96 C78 0.931 . S
H97 C82 0.929 . S
H98 C84 0.957 . S
Co99 N103 2.148 . S
Co99 N109 2.128 1_554 S
Co99 N119 2.194 . S
Co99 O124 2.351 1_545 S
Co99 O125 2.155 1_545 S
Co99 O126 2.096 . S
C100 N103 1.301 . S
C100 N104 1.328 . S
C100 H105 0.932 . S
C101 C102 1.333 . S
C101 N103 1.317 . S
C101 H106 0.930 . S
C102 C101 1.333 . S
C102 N104 1.350 . S
C102 H128 0.931 . S
N103 Co99 2.148 . S
N103 C100 1.301 . S
N103 C101 1.317 . S
N104 C100 1.328 . S
N104 C102 1.350 . S
H105 C100 0.932 . S
H106 C101 0.930 . S
C107 O108 1.224 . S
C107 O126 1.247 . S
O108 C107 1.224 . S
N109 Co99 2.128 1_556 S
N109 C110 1.355 1_545 S
N109 C112 1.311 . S
C110 N109 1.355 1_565 S
C110 C111 1.363 . S
C110 H122 0.929 . S
C111 C110 1.363 . S
C111 N113 1.375 1_565 S
C111 H129 0.931 . S
C112 N109 1.311 . S
C112 N113 1.347 . S
C112 H123 0.929 . S
N113 C111 1.375 1_545 S
N113 C112 1.347 . S
C114 C117 1.365 . S
C114 N119 1.328 1_565 S
C114 H120 0.929 . S
C115 C116 1.362 . S
C115 C118 1.378 . S
C115 H130 0.929 . S
C116 C115 1.362 . S
C116 C117 1.366 1_545 S
C117 C114 1.365 . S
C117 C116 1.366 1_565 S
C117 H131 0.930 . S
C118 C115 1.378 . S
C118 N119 1.315 . S
C118 H121 0.930 . S
N119 Co99 2.194 . S
N119 C114 1.328 1_545 S
N119 C118 1.315 . S
H120 C114 0.929 . S
H121 C118 0.930 . S
H122 C110 0.929 . S
H123 C112 0.929 . S
O124 Co99 2.351 1_565 S
O124 C127 1.244 . S
O125 Co99 2.155 1_565 S
O125 C127 1.240 . S
O126 Co99 2.096 . S
O126 C107 1.247 . S
C127 O124 1.244 . S
C127 O125 1.240 . S
H128 C102 0.931 . S
H129 C111 0.931 . S
H130 C115 0.929 . S
H131 C117 0.930 . S
Co132 N136 2.148 . S
Co132 N142 2.128 . S
Co132 N152 2.194 . S
Co132 O157 2.351 . S
Co132 O158 2.155 . S
Co132 O159 2.096 . S
C133 N136 1.301 . S
C133 N137 1.328 . S
C133 H138 0.930 . S
C134 C135 1.333 . S
C134 N136 1.317 . S
C134 H139 0.930 . S
C135 C134 1.333 . S
C135 N137 1.350 . S
C135 H161 0.931 . S
N136 Co132 2.148 . S
N136 C133 1.301 . S
N136 C134 1.317 . S
N137 C133 1.328 . S
N137 C135 1.350 . S
H138 C133 0.930 . S
H139 C134 0.930 . S
C140 O141 1.224 . S
C140 O159 1.247 . S
O141 C140 1.224 . S
N142 Co132 2.128 . S
N142 C143 1.355 . S
N142 C145 1.311 . S
C143 N142 1.355 . S
C143 C144 1.363 . S
C143 H155 0.929 . S
C144 C143 1.363 . S
C144 N146 1.375 . S
C144 H162 0.931 . S
C145 N142 1.311 . S
C145 N146 1.347 . S
C145 H156 0.929 . S
N146 C144 1.375 . S
N146 C145 1.347 . S
C147 C150 1.365 . S
C147 N152 1.328 . S
C147 H153 0.929 . S
C148 C149 1.362 . S
C148 C151 1.378 . S
C148 H163 0.929 . S
C149 C148 1.362 . S
C149 C150 1.366 . S
C150 C147 1.365 . S
C150 C149 1.366 . S
C150 H164 0.930 . S
C151 C148 1.378 . S
C151 N152 1.315 . S
C151 H154 0.930 . S
N152 Co132 2.194 . S
N152 C147 1.328 . S
N152 C151 1.315 . S
H153 C147 0.929 . S
H154 C151 0.930 . S
H155 C143 0.929 . S
H156 C145 0.929 . S
O157 Co132 2.351 . S
O157 C160 1.244 . S
O158 Co132 2.155 . S
O158 C160 1.240 . S
O159 Co132 2.096 . S
O159 C140 1.247 . S
C160 O157 1.244 . S
C160 O158 1.240 . S
H161 C135 0.931 . S
H162 C144 0.931 . S
H163 C148 0.929 . S
H164 C150 0.930 . S
Co165 N169 2.148 . S
Co165 N175 2.128 . S
Co165 N185 2.194 . S
Co165 O190 2.351 . S
Co165 O191 2.155 . S
Co165 O192 2.096 1_455 S
C166 N169 1.301 . S
C166 N170 1.328 . S
C166 H171 0.930 . S
C167 C168 1.333 . S
C167 N169 1.317 1_655 S
C167 H172 0.930 . S
C168 C167 1.333 . S
C168 N170 1.350 1_655 S
C168 H194 0.931 . S
N169 Co165 2.148 . S
N169 C166 1.301 . S
N169 C167 1.317 1_455 S
N170 C166 1.328 . S
N170 C168 1.350 1_455 S
H171 C166 0.930 . S
H172 C167 0.930 . S
C173 O174 1.224 . S
C173 O192 1.247 . S
O174 C173 1.224 . S
N175 Co165 2.128 . S
N175 C176 1.355 . S
N175 C178 1.311 . S
C176 N175 1.355 . S
C176 C177 1.363 . S
C176 H188 0.929 . S
C177 C176 1.363 . S
C177 N179 1.375 . S
C177 H195 0.931 . S
C178 N175 1.311 . S
C178 N179 1.347 . S
C178 H189 0.929 . S
N179 C177 1.375 . S
N179 C178 1.347 . S
C180 C183 1.365 . S
C180 N185 1.328 . S
C180 H186 0.929 . S
C181 C182 1.362 . S
C181 C184 1.378 . S
C181 H196 0.929 1_455 S
C182 C181 1.362 . S
C182 C183 1.366 . S
C183 C180 1.365 . S
C183 C182 1.366 . S
C183 H197 0.930 . S
C184 C181 1.378 . S
C184 N185 1.315 . S
C184 H187 0.930 1_455 S
N185 Co165 2.194 . S
N185 C180 1.328 . S
N185 C184 1.315 . S
H186 C180 0.929 . S
H187 C184 0.930 1_655 S
H188 C176 0.929 . S
H189 C178 0.929 . S
O190 Co165 2.351 . S
O190 C193 1.244 . S
O191 Co165 2.155 . S
O191 C193 1.240 . S
O192 Co165 2.096 1_655 S
O192 C173 1.247 . S
C193 O190 1.244 . S
C193 O191 1.240 . S
H194 C168 0.931 . S
H195 C177 0.931 . S
H196 C181 0.929 1_655 S
H197 C183 0.930 . S
H198 C206 0.929 . S
H199 C208 0.930 . S
H200 C210 0.933 1_565 S
H201 C213 0.937 . S
H202 C216 0.930 . S
H203 C218 0.960 . S
H204 C218 0.960 . S
H205 C218 0.960 . S
C206 H198 0.929 . S
C206 C207 1.377 . S
C206 C208 1.384 . S
C207 C206 1.377 . S
C207 C213 1.374 1_545 S
C208 H199 0.930 . S
C208 C206 1.384 . S
C208 C209 1.372 . S
C209 C208 1.372 . S
C209 C210 1.398 . S
C209 C214 1.490 . S
C210 H200 0.933 1_545 S
C210 C209 1.398 . S
C210 C213 1.392 1_545 S
H211 C227 0.930 . S
H212 C228 0.931 . S
C213 H201 0.937 . S
C213 C207 1.374 1_565 S
C213 C210 1.392 1_565 S
C214 C209 1.490 . S
C214 C216 1.395 . S
C214 C217 1.403 . S
H215 C221 0.930 1_556 S
C216 H202 0.930 . S
C216 C214 1.395 . S
C216 C219 1.403 . S
C217 C214 1.403 . S
C217 C218 1.524 1_554 S
C217 C221 1.400 . S
C218 H203 0.960 . S
C218 H204 0.960 . S
C218 H205 0.960 . S
C218 C217 1.524 1_556 S
C219 C216 1.403 . S
C219 C220 1.392 . S
C219 C223 1.495 . S
C220 C219 1.392 . S
C220 C221 1.385 . S
C220 C222 1.478 . S
C221 H215 0.930 1_554 S
C221 C217 1.400 . S
C221 C220 1.385 . S
C222 C220 1.478 . S
C222 C224 1.381 . S
C222 C228 1.383 1_545 S
C223 C219 1.495 . S
C223 H229 0.959 . S
C223 H230 0.961 . S
C223 H231 0.960 . S
C224 C222 1.381 . S
C224 C225 1.394 . S
C224 H232 0.930 . S
C225 C224 1.394 . S
C225 C226 1.383 . S
C225 H233 0.929 . S
C226 C225 1.383 . S
C226 C227 1.377 1_545 S
C227 H211 0.930 . S
C227 C226 1.377 1_565 S
C227 C228 1.379 . S
C228 H212 0.931 . S
C228 C222 1.383 1_565 S
C228 C227 1.379 . S
H229 C223 0.959 . S
H230 C223 0.961 . S
H231 C223 0.960 . S
H232 C224 0.930 . S
H233 C225 0.929 . S
H234 C242 0.929 . S
H235 C244 0.930 . S
H236 C246 0.930 . S
H237 C249 0.929 . S
H238 C252 0.930 . S
H239 C254 0.960 . S
H240 C254 0.960 . S
H241 C254 0.960 . S
C242 H234 0.929 . S
C242 C243 1.377 . S
C242 C244 1.384 . S
C243 C242 1.377 . S
C243 C249 1.390 . S
C244 H235 0.930 . S
C244 C242 1.384 . S
C244 C245 1.372 . S
C245 C244 1.372 . S
C245 C246 1.400 . S
C245 C250 1.490 . S
C246 H236 0.930 . S
C246 C245 1.400 . S
C246 C249 1.386 . S
H247 C263 0.930 . S
H248 C264 0.931 . S
C249 H237 0.929 . S
C249 C243 1.390 . S
C249 C246 1.386 . S
C250 C245 1.490 . S
C250 C252 1.395 . S
C250 C253 1.403 . S
H251 C257 0.930 . S
C252 H238 0.930 . S
C252 C250 1.395 . S
C252 C255 1.403 . S
C253 C250 1.403 . S
C253 C254 1.524 . S
C253 C257 1.400 . S
C254 H239 0.960 . S
C254 H240 0.960 . S
C254 H241 0.960 . S
C254 C253 1.524 . S
C255 C252 1.403 . S
C255 C256 1.392 . S
C255 C259 1.495 . S
C256 C255 1.392 . S
C256 C257 1.385 . S
C256 C258 1.478 . S
C257 H251 0.930 . S
C257 C253 1.400 . S
C257 C256 1.385 . S
C258 C256 1.478 . S
C258 C260 1.381 . S
C258 C264 1.383 . S
C259 C255 1.495 . S
C259 H265 0.959 . S
C259 H266 0.961 . S
C259 H267 0.960 . S
C260 C258 1.381 . S
C260 C261 1.394 . S
C260 H268 0.930 . S
C261 C260 1.394 . S
C261 C262 1.383 . S
C261 H269 0.929 . S
C262 C261 1.383 . S
C262 C263 1.377 . S
C263 H247 0.930 . S
C263 C262 1.377 . S
C263 C264 1.379 . S
C264 H248 0.931 . S
C264 C258 1.383 . S
C264 C263 1.379 . S
H265 C259 0.959 . S
H266 C259 0.961 . S
H267 C259 0.960 . S
H268 C260 0.930 . S
H269 C261 0.929 . S
H270 C278 0.929 . S
H271 C280 0.930 . S
H272 C282 0.930 1_655 S
H273 C285 0.929 1_655 S
H274 C288 0.930 . S
H275 C290 0.960 . S
H276 C290 0.960 . S
H277 C290 0.960 . S
C278 H270 0.929 . S
C278 C279 1.377 . S
C278 C280 1.384 . S
C279 C278 1.377 . S
C279 C285 1.390 . S
C280 H271 0.930 . S
C280 C278 1.384 . S
C280 C281 1.372 . S
C281 C280 1.372 . S
C281 C282 1.400 . S
C281 C286 1.490 . S
C282 H272 0.930 1_455 S
C282 C281 1.400 . S
C282 C285 1.386 . S
H283 C299 0.930 1_655 S
H284 C300 0.931 1_655 S
C285 H273 0.929 1_455 S
C285 C279 1.390 . S
C285 C282 1.386 . S
C286 C281 1.490 . S
C286 C288 1.395 . S
C286 C289 1.403 . S
H287 C293 0.930 . S
C288 H274 0.930 . S
C288 C286 1.395 . S
C288 C291 1.403 . S
C289 C286 1.403 . S
C289 C290 1.524 . S
C289 C293 1.400 . S
C290 H275 0.960 . S
C290 H276 0.960 . S
C290 H277 0.960 . S
C290 C289 1.524 . S
C291 C288 1.403 . S
C291 C292 1.392 . S
C291 C295 1.495 . S
C292 C291 1.392 . S
C292 C293 1.385 . S
C292 C294 1.478 . S
C293 H287 0.930 . S
C293 C289 1.400 . S
C293 C292 1.385 . S
C294 C292 1.478 . S
C294 C296 1.381 . S
C294 C300 1.383 . S
C295 C291 1.495 . S
C295 H301 0.959 . S
C295 H302 0.961 1_455 S
C295 H303 0.960 . S
C296 C294 1.381 . S
C296 C297 1.394 . S
C296 H304 0.930 . S
C297 C296 1.394 . S
C297 C298 1.383 . S
C297 H305 0.929 . S
C298 C297 1.383 . S
C298 C299 1.377 . S
C299 H283 0.930 1_455 S
C299 C298 1.377 . S
C299 C300 1.379 . S
C300 H284 0.931 1_455 S
C300 C294 1.383 . S
C300 C299 1.379 . S
H301 C295 0.959 . S
H302 C295 0.961 1_655 S
H303 C295 0.960 . S
H304 C296 0.930 . S
H305 C297 0.929 . S
H306 C314 0.929 1_565 S
H307 C316 0.930 1_565 S
H308 C318 0.930 . S
H309 C321 0.929 . S
H310 C324 0.930 . S
H311 C326 0.960 . S
H312 C326 0.960 . S
H313 C326 0.960 . S
C314 H306 0.929 1_545 S
C314 C315 1.378 . S
C314 C316 1.384 . S
C315 C314 1.378 . S
C315 C321 1.390 . S
C316 H307 0.930 1_545 S
C316 C314 1.384 . S
C316 C317 1.372 . S
C317 C316 1.372 . S
C317 C318 1.400 . S
C317 C322 1.490 . S
C318 H308 0.930 . S
C318 C317 1.400 . S
C318 C321 1.386 . S
H319 C335 0.930 . S
H320 C336 0.931 . S
C321 H309 0.929 . S
C321 C315 1.390 . S
C321 C318 1.386 . S
C322 C317 1.490 . S
C322 C324 1.395 1_545 S
C322 C325 1.403 . S
H323 C329 0.930 . S
C324 H310 0.930 . S
C324 C322 1.395 1_565 S
C324 C327 1.403 . S
C325 C322 1.403 . S
C325 C326 1.524 . S
C325 C329 1.400 . S
C326 H311 0.960 . S
C326 H312 0.960 . S
C326 H313 0.960 . S
C326 C325 1.524 . S
C327 C324 1.403 . S
C327 C328 1.392 1_565 S
C327 C331 1.495 . S
C328 C327 1.392 1_545 S
C328 C329 1.385 . S
C328 C330 1.478 . S
C329 H323 0.930 . S
C329 C325 1.400 . S
C329 C328 1.385 . S
C330 C328 1.478 . S
C330 C332 1.381 . S
C330 C336 1.383 . S
C331 C327 1.495 . S
C331 H337 0.959 . S
C331 H338 0.961 . S
C331 H339 0.960 . S
C332 C330 1.381 . S
C332 C333 1.394 . S
C332 H340 0.926 1_545 S
C333 C332 1.394 . S
C333 C334 1.383 . S
C333 H341 0.929 . S
C334 C333 1.383 . S
C334 C335 1.377 . S
C335 H319 0.930 . S
C335 C334 1.377 . S
C335 C336 1.379 . S
C336 H320 0.931 . S
C336 C330 1.383 . S
C336 C335 1.379 . S
H337 C331 0.959 . S
H338 C331 0.961 . S
H339 C331 0.960 . S
H340 C332 0.926 1_565 S
H341 C333 0.929 . S
H342 C350 0.929 . S
H343 C352 0.930 . S
H344 C354 0.930 . S
H345 C357 0.929 . S
H346 C360 0.930 . S
H347 C362 0.960 . S
H348 C362 0.960 . S
H349 C362 0.960 . S
C350 H342 0.929 . S
C350 C351 1.377 . S
C350 C352 1.384 . S
C351 C350 1.377 . S
C351 C357 1.390 . S
C352 H343 0.930 . S
C352 C350 1.384 . S
C352 C353 1.372 . S
C353 C352 1.372 . S
C353 C354 1.400 . S
C353 C358 1.490 . S
C354 H344 0.930 . S
C354 C353 1.400 . S
C354 C357 1.386 . S
H355 C371 0.930 . S
H356 C372 0.931 . S
C357 H345 0.929 . S
C357 C351 1.390 . S
C357 C354 1.386 . S
C358 C353 1.490 . S
C358 C360 1.395 . S
C358 C361 1.403 . S
H359 C365 0.930 . S
C360 H346 0.930 . S
C360 C358 1.395 . S
C360 C363 1.403 . S
C361 C358 1.403 . S
C361 C362 1.524 . S
C361 C365 1.400 . S
C362 H347 0.960 . S
C362 H348 0.960 . S
C362 H349 0.960 . S
C362 C361 1.524 . S
C363 C360 1.403 . S
C363 C364 1.392 . S
C363 C367 1.495 . S
C364 C363 1.392 . S
C364 C365 1.385 . S
C364 C366 1.478 1_556 S
C365 H359 0.930 . S
C365 C361 1.400 . S
C365 C364 1.385 . S
C366 C364 1.478 1_554 S
C366 C368 1.381 . S
C366 C372 1.383 . S
C367 C363 1.495 . S
C367 H373 0.959 . S
C367 H374 0.961 . S
C367 H375 0.960 . S
C368 C366 1.381 . S
C368 C369 1.394 . S
C368 H376 0.930 . S
C369 C368 1.394 . S
C369 C370 1.383 . S
C369 H377 0.929 . S
C370 C369 1.383 . S
C370 C371 1.377 . S
C371 H355 0.930 . S
C371 C370 1.377 . S
C371 C372 1.379 . S
C372 H356 0.931 . S
C372 C366 1.383 . S
C372 C371 1.379 . S
H373 C367 0.959 . S
H374 C367 0.961 . S
H375 C367 0.960 . S
H376 C368 0.930 . S
H377 C369 0.929 . S
H378 C386 0.929 1_556 S
H379 C388 0.930 . S
H380 C390 0.930 . S
H381 C393 0.929 1_556 S
H382 C396 0.960 . S
H383 C398 0.960 . S
H384 C398 0.960 . S
H385 C398 0.960 . S
C386 H378 0.929 1_554 S
C386 C387 1.377 1_554 S
C386 C388 1.384 . S
C387 C386 1.377 1_556 S
C387 C393 1.390 1_556 S
C388 H379 0.930 . S
C388 C386 1.384 . S
C388 C389 1.372 . S
C389 C388 1.372 . S
C389 C390 1.400 . S
C389 C394 1.490 . S
C390 H380 0.930 . S
C390 C389 1.400 . S
C390 C393 1.386 . S
H391 C407 0.930 . S
H392 C408 0.931 . S
C393 H381 0.929 1_554 S
C393 C387 1.390 1_554 S
C393 C390 1.386 . S
C394 C389 1.490 . S
C394 C396 1.360 1_455 S
C394 C397 1.403 . S
H395 C401 0.930 . S
C396 H382 0.960 . S
C396 C394 1.360 1_655 S
C396 C399 1.409 . S
C397 C394 1.403 . S
C397 C398 1.524 . S
C397 C401 1.400 . S
C398 H383 0.960 . S
C398 H384 0.960 . S
C398 H385 0.960 . S
C398 C397 1.524 . S
C399 C396 1.409 . S
C399 C400 1.392 1_655 S
C399 C403 1.495 . S
C400 C399 1.392 1_455 S
C400 C401 1.385 . S
C400 C402 1.478 . S
C401 H395 0.930 . S
C401 C397 1.400 . S
C401 C400 1.385 . S
C402 C400 1.478 . S
C402 C404 1.381 . S
C402 C408 1.383 . S
C403 C399 1.495 . S
C403 H409 0.959 . S
C403 H410 0.961 . S
C403 H411 0.960 . S
C404 C402 1.381 . S
C404 C405 1.394 . S
C404 H412 0.930 . S
C405 C404 1.394 . S
C405 C406 1.383 . S
C405 H413 0.929 . S
C406 C405 1.383 . S
C406 C407 1.377 . S
C407 H391 0.930 . S
C407 C406 1.377 . S
C407 C408 1.379 . S
C408 H392 0.931 . S
C408 C402 1.383 . S
C408 C407 1.379 . S
H409 C403 0.959 . S
H410 C403 0.961 . S
H411 C403 0.960 . S
H412 C404 0.930 . S
H413 C405 0.929 . S
H414 C422 0.929 . S
H415 C424 0.930 . S
H416 C426 0.930 . S
H417 C429 0.929 . S
H418 C432 0.930 . S
H419 C434 0.960 . S
H420 C434 0.960 . S
H421 C434 0.960 . S
C422 H414 0.929 . S
C422 C423 1.377 . S
C422 C424 1.384 . S
C423 C422 1.377 . S
C423 C429 1.390 . S
C424 H415 0.930 . S
C424 C422 1.384 . S
C424 C425 1.372 . S
C425 C424 1.372 . S
C425 C426 1.400 . S
C425 C430 1.490 . S
C426 H416 0.930 . S
C426 C425 1.400 . S
C426 C429 1.386 . S
H427 C443 0.930 . S
H428 C444 0.931 . S
C429 H417 0.929 . S
C429 C423 1.390 . S
C429 C426 1.386 . S
C430 C425 1.490 . S
C430 C432 1.395 1_545 S
C430 C433 1.403 . S
H431 C437 0.930 . S
C432 H418 0.930 . S
C432 C430 1.395 1_565 S
C432 C435 1.403 . S
C433 C430 1.403 . S
C433 C434 1.524 . S
C433 C437 1.400 . S
C434 H419 0.960 . S
C434 H420 0.960 . S
C434 H421 0.960 . S
C434 C433 1.524 . S
C435 C432 1.403 . S
C435 C436 1.392 1_565 S
C435 C439 1.495 . S
C436 C435 1.392 1_545 S
C436 C437 1.385 . S
C436 C438 1.478 . S
C437 H431 0.930 . S
C437 C433 1.400 . S
C437 C436 1.385 . S
C438 C436 1.478 . S
C438 C440 1.381 . S
C438 C444 1.383 . S
C439 C435 1.495 . S
C439 H445 0.959 . S
C439 H446 0.961 . S
C439 H447 0.960 . S
C440 C438 1.381 . S
C440 C441 1.394 . S
C440 H448 0.930 . S
C441 C440 1.394 . S
C441 C442 1.383 . S
C441 H449 0.929 . S
C442 C441 1.383 . S
C442 C443 1.377 . S
C443 H427 0.930 . S
C443 C442 1.377 . S
C443 C444 1.379 . S
C444 H428 0.931 . S
C444 C438 1.383 . S
C444 C443 1.379 . S
H445 C439 0.959 . S
H446 C439 0.961 . S
H447 C439 0.960 . S
H448 C440 0.930 . S
H449 C441 0.929 . S
H450 C458 0.929 . S
H451 C460 0.930 . S
H452 C462 0.930 . S
H453 C465 0.929 . S
H454 C468 0.930 . S
H455 C470 0.960 . S
H456 C470 0.960 . S
H457 C470 0.960 . S
C458 H450 0.929 . S
C458 C459 1.377 . S
C458 C460 1.384 . S
C459 C458 1.377 . S
C459 C465 1.390 . S
C460 H451 0.930 . S
C460 C458 1.384 . S
C460 C461 1.372 . S
C461 C460 1.372 . S
C461 C462 1.400 . S
C461 C466 1.490 . S
C462 H452 0.930 . S
C462 C461 1.400 . S
C462 C465 1.386 . S
H463 C479 0.930 . S
H464 C480 0.931 . S
C465 H453 0.929 . S
C465 C459 1.390 . S
C465 C462 1.386 . S
C466 C461 1.490 . S
C466 C468 1.395 . S
C466 C469 1.403 . S
H467 C473 0.930 . S
C468 H454 0.930 . S
C468 C466 1.395 . S
C468 C471 1.403 . S
C469 C466 1.403 . S
C469 C470 1.524 . S
C469 C473 1.400 . S
C470 H455 0.960 . S
C470 H456 0.960 . S
C470 H457 0.960 . S
C470 C469 1.524 . S
C471 C468 1.403 . S
C471 C472 1.392 . S
C471 C475 1.495 . S
C472 C471 1.392 . S
C472 C473 1.385 . S
C472 C474 1.478 1_556 S
C473 H467 0.930 . S
C473 C469 1.400 . S
C473 C472 1.385 . S
C474 C472 1.478 1_554 S
C474 C476 1.381 . S
C474 C480 1.383 . S
C475 C471 1.495 . S
C475 H481 0.959 . S
C475 H482 0.961 . S
C475 H483 0.960 . S
C476 C474 1.381 . S
C476 C477 1.394 . S
C476 H484 0.930 . S
C477 C476 1.394 . S
C477 C478 1.383 . S
C477 H485 0.929 . S
C478 C477 1.383 . S
C478 C479 1.377 . S
C479 H463 0.930 . S
C479 C478 1.377 . S
C479 C480 1.379 . S
C480 H464 0.931 . S
C480 C474 1.383 . S
C480 C479 1.379 . S
H481 C475 0.959 . S
H482 C475 0.961 . S
H483 C475 0.960 . S
H484 C476 0.930 . S
H485 C477 0.929 . S
H486 C494 0.929 . S
H487 C496 0.930 . S
H488 C498 0.930 . S
H489 C501 0.929 . S
H490 C504 0.930 . S
H491 C506 0.960 . S
H492 C506 0.960 . S
H493 C506 0.960 . S
C494 H486 0.929 . S
C494 C495 1.377 . S
C494 C496 1.384 . S
C495 C494 1.377 . S
C495 C501 1.390 . S
C496 H487 0.930 . S
C496 C494 1.384 . S
C496 C497 1.372 . S
C497 C496 1.372 . S
C497 C498 1.400 . S
C497 C502 1.490 . S
C498 H488 0.930 . S
C498 C497 1.400 . S
C498 C501 1.386 . S
H499 C515 0.930 1_556 S
H500 C516 0.941 . S
C501 H489 0.929 . S
C501 C495 1.390 . S
C501 C498 1.386 . S
C502 C497 1.490 . S
C502 C504 1.395 . S
C502 C505 1.403 . S
H503 C509 0.930 . S
C504 H490 0.930 . S
C504 C502 1.395 . S
C504 C507 1.403 . S
C505 C502 1.403 . S
C505 C506 1.524 . S
C505 C509 1.400 . S
C506 H491 0.960 . S
C506 H492 0.960 . S
C506 H493 0.960 . S
C506 C505 1.524 . S
C507 C504 1.403 . S
C507 C508 1.392 . S
C507 C511 1.495 . S
C508 C507 1.392 . S
C508 C509 1.385 . S
C508 C510 1.478 . S
C509 H503 0.930 . S
C509 C505 1.400 . S
C509 C508 1.385 . S
C510 C508 1.478 . S
C510 C512 1.381 . S
C510 C516 1.372 1_455 S
C511 C507 1.495 . S
C511 H517 0.959 . S
C511 H518 0.961 1_455 S
C511 H519 0.960 . S
C512 C510 1.381 . S
C512 C513 1.394 . S
C512 H520 0.930 . S
C513 C512 1.394 . S
C513 C514 1.383 1_554 S
C513 H521 0.929 1_554 S
C514 C513 1.383 1_556 S
C514 C515 1.377 1_456 S
C515 H499 0.930 1_554 S
C515 C514 1.377 1_654 S
C515 C516 1.380 . S
C516 H500 0.941 . S
C516 C510 1.372 1_655 S
C516 C515 1.380 . S
H517 C511 0.959 . S
H518 C511 0.961 1_655 S
H519 C511 0.960 . S
H520 C512 0.930 . S
H521 C513 0.929 1_556 S
H522 C530 0.929 . S
H523 C532 0.930 . S
H524 C534 0.930 . S
H525 C537 0.929 . S
H526 C540 0.930 . S
H527 C542 0.960 . S
H528 C542 0.960 . S
H529 C542 0.960 . S
C530 H522 0.929 . S
C530 C531 1.377 . S
C530 C532 1.384 . S
C531 C530 1.377 . S
C531 C537 1.390 . S
C532 H523 0.930 . S
C532 C530 1.384 . S
C532 C533 1.372 . S
C533 C532 1.372 . S
C533 C534 1.400 . S
C533 C538 1.490 . S
C534 H524 0.930 . S
C534 C533 1.400 . S
C534 C537 1.386 . S
H535 C551 0.930 . S
H536 C552 0.931 . S
C537 H525 0.929 . S
C537 C531 1.390 . S
C537 C534 1.386 . S
C538 C533 1.490 . S
C538 C540 1.395 . S
C538 C541 1.403 . S
H539 C545 0.930 . S
C540 H526 0.930 . S
C540 C538 1.395 . S
C540 C543 1.403 . S
C541 C538 1.403 . S
C541 C542 1.524 . S
C541 C545 1.400 . S
C542 H527 0.960 . S
C542 H528 0.960 . S
C542 H529 0.960 . S
C542 C541 1.524 . S
C543 C540 1.403 . S
C543 C544 1.392 . S
C543 C547 1.495 . S
C544 C543 1.392 . S
C544 C545 1.385 . S
C544 C546 1.478 . S
C545 H539 0.930 . S
C545 C541 1.400 . S
C545 C544 1.385 . S
C546 C544 1.478 . S
C546 C548 1.381 . S
C546 C552 1.383 . S
C547 C543 1.495 . S
C547 H553 0.959 . S
C547 H554 0.961 . S
C547 H555 0.960 . S
C548 C546 1.381 . S
C548 C549 1.394 . S
C548 H556 0.930 . S
C549 C548 1.394 . S
C549 C550 1.383 . S
C549 H557 0.929 . S
C550 C549 1.383 . S
C550 C551 1.377 . S
C551 H535 0.930 . S
C551 C550 1.377 . S
C551 C552 1.379 . S
C552 H536 0.931 . S
C552 C546 1.383 . S
C552 C551 1.379 . S
H553 C547 0.959 . S
H554 C547 0.961 . S
H555 C547 0.960 . S
H556 C548 0.930 . S
H557 C549 0.929 . S
H558 C566 0.929 . S
H559 C568 0.930 . S
H560 C570 0.930 . S
H561 C573 0.929 . S
H562 C576 0.930 . S
H563 C578 0.960 . S
H564 C578 0.960 . S
H565 C578 0.960 . S
C566 H558 0.929 . S
C566 C567 1.377 . S
C566 C568 1.384 . S
C567 C566 1.377 . S
C567 C573 1.390 . S
C568 H559 0.930 . S
C568 C566 1.384 . S
C568 C569 1.372 . S
C569 C568 1.372 . S
C569 C570 1.400 . S
C569 C574 1.490 . S
C570 H560 0.930 . S
C570 C569 1.400 . S
C570 C573 1.386 . S
H571 C587 0.930 . S
H572 C588 0.931 . S
C573 H561 0.929 . S
C573 C567 1.390 . S
C573 C570 1.386 . S
C574 C569 1.490 . S
C574 C576 1.395 . S
C574 C577 1.403 . S
H575 C581 0.930 . S
C576 H562 0.930 . S
C576 C574 1.395 . S
C576 C579 1.403 . S
C577 C574 1.403 . S
C577 C578 1.524 . S
C577 C581 1.400 . S
C578 H563 0.960 . S
C578 H564 0.960 . S
C578 H565 0.960 . S
C578 C577 1.524 . S
C579 C576 1.403 . S
C579 C580 1.392 . S
C579 C583 1.495 . S
C580 C579 1.392 . S
C580 C581 1.385 . S
C580 C582 1.478 . S
C581 H575 0.930 . S
C581 C577 1.400 . S
C581 C580 1.385 . S
C582 C580 1.478 . S
C582 C584 1.381 . S
C582 C588 1.383 . S
C583 C579 1.495 . S
C583 H589 0.959 . S
C583 H590 0.961 . S
C583 H591 0.960 . S
C584 C582 1.381 . S
C584 C585 1.394 . S
C584 H592 0.930 . S
C585 C584 1.394 . S
C585 C586 1.383 . S
C585 H593 0.929 . S
C586 C585 1.383 . S
C586 C587 1.377 . S
C587 H571 0.930 . S
C587 C586 1.377 . S
C587 C588 1.379 . S
C588 H572 0.931 . S
C588 C582 1.383 . S
C588 C587 1.379 . S
H589 C583 0.959 . S
H590 C583 0.961 . S
H591 C583 0.960 . S
H592 C584 0.930 . S
H593 C585 0.929 . S
H594 C602 0.929 . S
H595 C604 0.930 . S
H596 C606 0.930 . S
H597 C609 0.929 . S
H598 C612 0.930 . S
H599 C614 0.960 . S
H600 C614 0.960 . S
H601 C614 0.960 . S
C602 H594 0.929 . S
C602 C603 1.377 1_556 S
C602 C604 1.384 . S
C603 C602 1.377 1_554 S
C603 C609 1.390 . S
C604 H595 0.930 . S
C604 C602 1.384 . S
C604 C605 1.372 . S
C605 C604 1.372 . S
C605 C606 1.400 . S
C605 C610 1.490 . S
C606 H596 0.930 . S
C606 C605 1.400 . S
C606 C609 1.386 1_556 S
H607 C623 0.930 . S
H608 C624 0.931 . S
C609 H597 0.929 . S
C609 C603 1.390 . S
C609 C606 1.386 1_554 S
C610 C605 1.490 . S
C610 C612 1.395 . S
C610 C613 1.403 . S
H611 C617 0.930 . S
C612 H598 0.930 . S
C612 C610 1.395 . S
C612 C615 1.403 . S
C613 C610 1.403 . S
C613 C614 1.524 1_556 S
C613 C617 1.400 . S
C614 H599 0.960 . S
C614 H600 0.960 . S
C614 H601 0.960 . S
C614 C613 1.524 1_554 S
C615 C612 1.403 . S
C615 C616 1.392 . S
C615 C619 1.495 . S
C616 C615 1.392 . S
C616 C617 1.385 . S
C616 C618 1.478 . S
C617 H611 0.930 . S
C617 C613 1.400 . S
C617 C616 1.385 . S
C618 C616 1.478 . S
C618 C620 1.381 . S
C618 C624 1.383 . S
C619 C615 1.495 . S
C619 H625 0.959 . S
C619 H626 0.961 . S
C619 H627 0.960 . S
C620 C618 1.381 . S
C620 C621 1.394 . S
C620 H628 0.930 . S
C621 C620 1.394 . S
C621 C622 1.383 . S
C621 H629 0.929 . S
C622 C621 1.383 . S
C622 C623 1.377 . S
C623 H607 0.930 . S
C623 C622 1.377 . S
C623 C624 1.379 . S
C624 H608 0.931 . S
C624 C618 1.383 . S
C624 C623 1.379 . S
H625 C619 0.959 . S
H626 C619 0.961 . S
H627 C619 0.960 . S
H628 C620 0.930 . S
H629 C621 0.929 . S
H630 C638 0.929 . S
H631 C640 0.930 . S
H632 C642 0.930 . S
H633 C645 0.929 . S
H634 C648 0.930 . S
H635 C650 0.960 . S
H636 C650 0.960 . S
H637 C650 0.960 . S
C638 H630 0.929 . S
C638 C639 1.377 . S
C638 C640 1.384 . S
C639 C638 1.377 . S
C639 C645 1.390 . S
C640 H631 0.930 . S
C640 C638 1.384 . S
C640 C641 1.372 . S
C641 C640 1.372 . S
C641 C642 1.400 . S
C641 C646 1.490 . S
C642 H632 0.930 . S
C642 C641 1.400 . S
C642 C645 1.386 . S
H643 C659 0.930 . S
H644 C660 0.931 . S
C645 H633 0.929 . S
C645 C639 1.390 . S
C645 C642 1.386 . S
C646 C641 1.490 . S
C646 C648 1.395 . S
C646 C649 1.403 . S
H647 C653 0.930 . S
C648 H634 0.930 . S
C648 C646 1.395 . S
C648 C651 1.403 . S
C649 C646 1.403 . S
C649 C650 1.524 . S
C649 C653 1.400 . S
C650 H635 0.960 . S
C650 H636 0.960 . S
C650 H637 0.960 . S
C650 C649 1.524 . S
C651 C648 1.403 . S
C651 C652 1.392 . S
C651 C655 1.495 . S
C652 C651 1.392 . S
C652 C653 1.385 . S
C652 C654 1.478 . S
C653 H647 0.930 . S
C653 C649 1.400 . S
C653 C652 1.385 . S
C654 C652 1.478 . S
C654 C656 1.381 . S
C654 C660 1.383 . S
C655 C651 1.495 . S
C655 H661 0.959 . S
C655 H662 0.961 . S
C655 H663 0.960 . S
C656 C654 1.381 . S
C656 C657 1.394 . S
C656 H664 0.930 . S
C657 C656 1.394 . S
C657 C658 1.383 . S
C657 H665 0.929 . S
C658 C657 1.383 . S
C658 C659 1.377 . S
C659 H643 0.930 . S
C659 C658 1.377 . S
C659 C660 1.379 . S
C660 H644 0.931 . S
C660 C654 1.383 . S
C660 C659 1.379 . S
H661 C655 0.959 . S
H662 C655 0.961 . S
H663 C655 0.960 . S
H664 C656 0.930 . S
H665 C657 0.929 . S
H666 C674 0.929 . S
H667 C676 0.930 . S
H668 C678 0.930 . S
H669 C681 0.929 . S
H670 C684 0.930 . S
H671 C686 0.960 . S
H672 C686 0.960 . S
H673 C686 0.960 . S
C674 H666 0.929 . S
C674 C675 1.377 . S
C674 C676 1.384 . S
C675 C674 1.377 . S
C675 C681 1.390 . S
C676 H667 0.930 . S
C676 C674 1.384 . S
C676 C677 1.372 . S
C677 C676 1.372 . S
C677 C678 1.400 . S
C677 C682 1.490 . S
C678 H668 0.930 . S
C678 C677 1.400 . S
C678 C681 1.386 . S
H679 C695 0.930 . S
H680 C696 0.931 . S
C681 H669 0.929 . S
C681 C675 1.390 . S
C681 C678 1.386 . S
C682 C677 1.490 . S
C682 C684 1.395 . S
C682 C685 1.403 . S
H683 C689 0.930 . S
C684 H670 0.930 . S
C684 C682 1.395 . S
C684 C687 1.403 . S
C685 C682 1.403 . S
C685 C686 1.524 . S
C685 C689 1.400 . S
C686 H671 0.960 . S
C686 H672 0.960 . S
C686 H673 0.960 . S
C686 C685 1.524 . S
C687 C684 1.403 . S
C687 C688 1.392 . S
C687 C691 1.495 . S
C688 C687 1.392 . S
C688 C689 1.385 . S
C688 C690 1.478 . S
C689 H683 0.930 . S
C689 C685 1.400 . S
C689 C688 1.385 . S
C690 C688 1.478 . S
C690 C692 1.381 . S
C690 C696 1.383 . S
C691 C687 1.495 . S
C691 H697 0.959 . S
C691 H698 0.961 . S
C691 H699 0.960 . S
C692 C690 1.381 . S
C692 C693 1.394 . S
C692 H700 0.930 . S
C693 C692 1.394 . S
C693 C694 1.383 . S
C693 H701 0.929 . S
C694 C693 1.383 . S
C694 C695 1.377 . S
C695 H679 0.930 . S
C695 C694 1.377 . S
C695 C696 1.379 . S
C696 H680 0.931 . S
C696 C690 1.383 . S
C696 C695 1.379 . S
H697 C691 0.959 . S
H698 C691 0.961 . S
H699 C691 0.960 . S
H700 C692 0.930 . S
H701 C693 0.929 . S
H702 C710 0.929 . S
H703 C712 0.930 . S
H704 C714 0.930 . S
H705 C717 0.929 . S
H706 C720 0.930 . S
H707 C722 0.960 . S
H708 C722 0.960 . S
H709 C722 0.960 . S
C710 H702 0.929 . S
C710 C711 1.377 . S
C710 C712 1.384 . S
C711 C710 1.377 . S
C711 C717 1.390 . S
C712 H703 0.930 . S
C712 C710 1.384 . S
C712 C713 1.372 . S
C713 C712 1.372 . S
C713 C714 1.400 . S
C713 C718 1.490 . S
C714 H704 0.930 . S
C714 C713 1.400 . S
C714 C717 1.386 . S
H715 C731 0.930 . S
H716 C732 0.931 . S
C717 H705 0.929 . S
C717 C711 1.390 . S
C717 C714 1.386 . S
C718 C713 1.490 . S
C718 C720 1.395 . S
C718 C721 1.403 . S
H719 C725 0.930 . S
C720 H706 0.930 . S
C720 C718 1.395 . S
C720 C723 1.403 . S
C721 C718 1.403 . S
C721 C722 1.524 . S
C721 C725 1.400 . S
C722 H707 0.960 . S
C722 H708 0.960 . S
C722 H709 0.960 . S
C722 C721 1.524 . S
C723 C720 1.403 . S
C723 C724 1.392 . S
C723 C727 1.495 . S
C724 C723 1.392 . S
C724 C725 1.385 . S
C724 C726 1.478 . S
C725 H719 0.930 . S
C725 C721 1.400 . S
C725 C724 1.385 . S
C726 C724 1.478 . S
C726 C728 1.381 . S
C726 C732 1.383 1_556 S
C727 C723 1.495 . S
C727 H733 0.959 . S
C727 H734 0.961 . S
C727 H735 0.960 . S
C728 C726 1.381 . S
C728 C729 1.394 . S
C728 H736 0.930 . S
C729 C728 1.394 . S
C729 C730 1.383 1_556 S
C729 H737 0.929 . S
C730 C729 1.383 1_554 S
C730 C731 1.377 . S
C731 H715 0.930 . S
C731 C730 1.377 . S
C731 C732 1.379 . S
C732 H716 0.931 . S
C732 C726 1.383 1_554 S
C732 C731 1.379 . S
H733 C727 0.959 . S
H734 C727 0.961 . S
H735 C727 0.960 . S
H736 C728 0.930 . S
H737 C729 0.929 . S
C207 C17 1.618 . S
C226 C116 1.609 . S
C243 C149 1.617 . S
C262 C50 1.609 . S
C279 C83 1.617 . S
C298 C182 1.618 . S
C315 N5 1.127 . S
C334 N14 1.132 . S
C351 N38 1.128 . S
C370 N47 1.103 . S
C387 N71 1.128 . S
C406 N80 1.103 . S
C423 N113 1.129 . S
C442 N104 1.134 . S
C459 N137 1.132 . S
C478 N146 1.131 . S
C495 N179 1.122 . S
C514 N170 1.133 . S
C531 C28 1.492 . S
C550 C41 1.475 . S
C567 C61 1.491 . S
C586 C74 1.490 . S
C603 C107 1.489 . S
C622 C94 1.494 . S
C639 C127 1.491 . S
C658 C140 1.475 . S
C675 C173 1.489 . S
C694 C160 1.486 . S
C711 C193 1.492 . S
C730 C8 1.482 . S
