# Generated by pormake.
# Topology uoz, (4)-cn, num edge types: 1
# Building blocks:
#     Node 0, Type 0, BuildingBlock: GALJAG_clean_sbu_0, # of connection points: 4
#     Node 1, Type 0, BuildingBlock: GALJAG_clean_sbu_0, # of connection points: 4
#     Node 2, Type 0, BuildingBlock: GALJAG_clean_sbu_0, # of connection points: 4
#     Node 3, Type 0, BuildingBlock: GALJAG_clean_sbu_0, # of connection points: 4
#     Node 4, Type 0, BuildingBlock: GALJAG_clean_sbu_0, # of connection points: 4
#     Node 5, Type 0, BuildingBlock: GALJAG_clean_sbu_0, # of connection points: 4
#     Node 6, Type 0, BuildingBlock: GALJAG_clean_sbu_0, # of connection points: 4
#     Node 7, Type 0, BuildingBlock: GALJAG_clean_sbu_0, # of connection points: 4
#     Node 8, Type 0, BuildingBlock: GALJAG_clean_sbu_0, # of connection points: 4
#     Node 9, Type 0, BuildingBlock: GALJAG_clean_sbu_0, # of connection points: 4
#     Node 10, Type 0, BuildingBlock: GALJAG_clean_sbu_0, # of connection points: 4
#     Node 11, Type 0, BuildingBlock: GALJAG_clean_sbu_0, # of connection points: 4
#     Node 12, Type 0, BuildingBlock: GALJAG_clean_sbu_0, # of connection points: 4
#     Node 13, Type 0, BuildingBlock: GALJAG_clean_sbu_0, # of connection points: 4
#     Node 14, Type 0, BuildingBlock: GALJAG_clean_sbu_0, # of connection points: 4
#     Node 15, Type 0, BuildingBlock: GALJAG_clean_sbu_0, # of connection points: 4
#     Edge 16, Type (0, 0), BuildingBlock: XUDNAN_clean_linker_2, # of connection points: 2
#     Edge 17, Type (0, 0), BuildingBlock: XUDNAN_clean_linker_2, # of connection points: 2
#     Edge 18, Type (0, 0), BuildingBlock: XUDNAN_clean_linker_2, # of connection points: 2
#     Edge 19, Type (0, 0), BuildingBlock: XUDNAN_clean_linker_2, # of connection points: 2
#     Edge 20, Type (0, 0), BuildingBlock: XUDNAN_clean_linker_2, # of connection points: 2
#     Edge 21, Type (0, 0), BuildingBlock: XUDNAN_clean_linker_2, # of connection points: 2
#     Edge 22, Type (0, 0), BuildingBlock: XUDNAN_clean_linker_2, # of connection points: 2
#     Edge 23, Type (0, 0), BuildingBlock: XUDNAN_clean_linker_2, # of connection points: 2
#     Edge 24, Type (0, 0), BuildingBlock: XUDNAN_clean_linker_2, # of connection points: 2
#     Edge 25, Type (0, 0), BuildingBlock: XUDNAN_clean_linker_2, # of connection points: 2
#     Edge 26, Type (0, 0), BuildingBlock: XUDNAN_clean_linker_2, # of connection points: 2
#     Edge 27, Type (0, 0), BuildingBlock: XUDNAN_clean_linker_2, # of connection points: 2
#     Edge 28, Type (0, 0), BuildingBlock: XUDNAN_clean_linker_2, # of connection points: 2
#     Edge 29, Type (0, 0), BuildingBlock: XUDNAN_clean_linker_2, # of connection points: 2
#     Edge 30, Type (0, 0), BuildingBlock: XUDNAN_clean_linker_2, # of connection points: 2
#     Edge 31, Type (0, 0), BuildingBlock: XUDNAN_clean_linker_2, # of connection points: 2
#     Edge 32, Type (0, 0), BuildingBlock: XUDNAN_clean_linker_2, # of connection points: 2
#     Edge 33, Type (0, 0), BuildingBlock: XUDNAN_clean_linker_2, # of connection points: 2
#     Edge 34, Type (0, 0), BuildingBlock: XUDNAN_clean_linker_2, # of connection points: 2
#     Edge 35, Type (0, 0), BuildingBlock: XUDNAN_clean_linker_2, # of connection points: 2
#     Edge 36, Type (0, 0), BuildingBlock: XUDNAN_clean_linker_2, # of connection points: 2
#     Edge 37, Type (0, 0), BuildingBlock: XUDNAN_clean_linker_2, # of connection points: 2
#     Edge 38, Type (0, 0), BuildingBlock: XUDNAN_clean_linker_2, # of connection points: 2
#     Edge 39, Type (0, 0), BuildingBlock: XUDNAN_clean_linker_2, # of connection points: 2
#     Edge 40, Type (0, 0), BuildingBlock: XUDNAN_clean_linker_2, # of connection points: 2
#     Edge 41, Type (0, 0), BuildingBlock: XUDNAN_clean_linker_2, # of connection points: 2
#     Edge 42, Type (0, 0), BuildingBlock: XUDNAN_clean_linker_2, # of connection points: 2
#     Edge 43, Type (0, 0), BuildingBlock: XUDNAN_clean_linker_2, # of connection points: 2
#     Edge 44, Type (0, 0), BuildingBlock: XUDNAN_clean_linker_2, # of connection points: 2
#     Edge 45, Type (0, 0), BuildingBlock: XUDNAN_clean_linker_2, # of connection points: 2
#     Edge 46, Type (0, 0), BuildingBlock: XUDNAN_clean_linker_2, # of connection points: 2
#     Edge 47, Type (0, 0), BuildingBlock: XUDNAN_clean_linker_2, # of connection points: 2
# Relax obj value: 0.135
# Max RMSD: 0.159
# Mean RMSD: 0.159
data_MOF--net-uoz--node1-GALJAG_clean_sbu_0--edge1-XUDNAN_clean_linker_2
_symmetry_space_group_name_H-M    P1
_symmetry_Int_Tables_number       1
_symmetry_cell_setting            triclinic
loop_
_symmetry_equiv_pos_as_xyz
'x, y, z'
_cell_length_a     63.689208
_cell_length_b     63.743222
_cell_length_c     18.961887
_cell_angle_alpha  89.970666
_cell_angle_beta   90.014172
_cell_angle_gamma 90.060724
loop_
_atom_site_label
_atom_site_type_symbol
_atom_site_fract_x
_atom_site_fract_y
_atom_site_fract_z
_atom_type_partial_charge
In0 In 1.00125 0.58988 0.27654 0.0
O1 O 1.00253 0.56231 0.20338 0.0
O2 O 0.03175 0.57394 0.24333 0.0
C3 C 0.96396 0.60595 0.23449 0.0
C4 C 0.99608 0.56653 0.39562 0.0
C5 C 0.02544 0.62234 0.2337 0.0
O6 O 0.97326 0.5913 0.20256 0.0
O7 O 0.97269 0.61158 0.29144 0.0
O8 O 0.02712 0.6151 0.2959 0.0
O9 O 0.01179 0.61339 0.19625 0.0
C10 C 0.02227 0.56058 0.20589 0.0
O11 O 1.00136 0.58573 0.39892 0.0
O12 O 0.99271 0.55996 0.33419 0.0
In13 In 0.66514 0.74886 0.54721 0.0
O14 O 0.69354 0.73708 0.48808 0.0
O15 O 0.69253 0.76948 0.51638 0.0
C16 C 0.64235 0.71593 0.49836 0.0
C17 C 0.68305 0.74817 0.67758 0.0
C18 C 0.64177 0.7801 0.4901 0.0
O19 O 0.65883 0.72275 0.46981 0.0
O20 O 0.63758 0.725 0.55559 0.0
O21 O 0.63738 0.77242 0.54998 0.0
O22 O 0.65779 0.77234 0.46149 0.0
C23 C 0.70259 0.75473 0.48769 0.0
O24 O 0.67132 0.76293 0.65694 0.0
O25 O 0.6834 0.73265 0.63644 0.0
In26 In 0.50123 0.41318 0.77923 0.0
O27 O 0.51144 0.43687 0.6968 0.0
O28 O 0.48028 0.43879 0.7382 0.0
C29 C 0.53374 0.38632 0.77085 0.0
C30 C 0.50703 0.43855 0.89284 0.0
C31 C 0.47184 0.38703 0.72518 0.0
O32 O 0.53023 0.40023 0.72487 0.0
O33 O 0.52119 0.38632 0.82268 0.0
O34 O 0.47365 0.38934 0.79154 0.0
O35 O 0.4845 0.39779 0.68921 0.0
C36 C 0.49395 0.44628 0.6971 0.0
O37 O 0.48965 0.42931 0.88238 0.0
O38 O 0.52134 0.43343 0.85025 0.0
In39 In 0.84369 0.25579 0.06399 0.0
O40 O 0.81996 0.26516 0.9806 0.0
O41 O 0.8179 0.23451 0.02581 0.0
C42 C 0.87008 0.28853 0.04546 0.0
C43 C 0.81804 0.2623 0.17653 0.0
C44 C 0.86825 0.22434 0.01548 0.0
O45 O 0.8566 0.28309 1.00024 0.0
O46 O 0.87012 0.27767 0.10147 0.0
O47 O 0.8675 0.22824 0.08119 0.0
O48 O 0.85737 0.23639 0.97781 0.0
C49 C 0.81057 0.24766 0.98265 0.0
O50 O 0.82799 0.24523 0.16896 0.0
O51 O 0.82268 0.27619 0.13178 0.0
In52 In 1.00241 0.41763 0.82789 0.0
O53 O 0.00358 0.43279 0.71578 0.0
O54 O 0.985 0.44715 0.79472 0.0
C55 C 0.03107 0.38633 0.83213 0.0
C56 C 0.02381 0.44292 0.91471 0.0
C57 C 0.96772 0.397 0.87388 0.0
O58 O 0.02381 0.3929 0.77384 0.0
O59 O 0.02373 0.39537 0.88556 0.0
O60 O 0.97638 0.4119 0.90628 0.0
O61 O 0.97567 0.39309 0.8141 0.0
C62 C 0.99225 0.44829 0.73306 0.0
O63 O 0.00688 0.43394 0.93163 0.0
O64 O 0.03015 0.43922 0.85285 0.0
In65 In 0.84536 0.75085 0.05396 0.0
O66 O 0.82174 0.73859 0.1334 0.0
O67 O 0.83242 0.77005 0.14442 0.0
C68 C 0.86762 0.71488 0.06561 0.0
C69 C 0.81317 0.75522 0.95943 0.0
C70 C 0.87627 0.78016 0.05819 0.0
O71 O 0.85849 0.72373 0.11635 0.0
O72 O 0.86522 0.72388 0.0065 0.0
O73 O 0.86618 0.77636 0.00207 0.0
O74 O 0.87132 0.7687 0.10952 0.0
C75 C 0.82094 0.75552 0.16767 0.0
O76 O 0.82096 0.77015 0.99425 0.0
O77 O 0.82264 0.73798 0.96782 0.0
In78 In 0.49962 0.59685 0.28377 0.0
O79 O 0.51114 0.57304 0.36396 0.0
O80 O 0.47816 0.57638 0.34934 0.0
C81 C 0.53317 0.62174 0.31 0.0
C82 C 0.50441 0.56888 0.17563 0.0
C83 C 0.46906 0.6262 0.29661 0.0
O84 O 0.52429 0.61088 0.35691 0.0
O85 O 0.52533 0.61995 0.24893 0.0
O86 O 0.47522 0.62003 0.2365 0.0
O87 O 0.47826 0.61763 0.3477 0.0
C88 C 0.4929 0.56718 0.38102 0.0
O89 O 0.51939 0.57889 0.20324 0.0
O90 O 0.48655 0.57421 0.19831 0.0
In91 In 0.66085 0.24948 0.56667 0.0
O92 O 0.68318 0.23768 0.47925 0.0
O93 O 0.67586 0.27002 0.48069 0.0
C94 C 0.63127 0.21888 0.5724 0.0
C95 C 0.69247 0.24228 0.6556 0.0
C96 C 0.63746 0.28111 0.62085 0.0
O97 O 0.6346 0.22925 0.51647 0.0
O98 O 0.64314 0.22359 0.62294 0.0
O99 O 0.65048 0.27055 0.65595 0.0
O100 O 0.63645 0.27626 0.5562 0.0
C101 C 0.68683 0.25561 0.45386 0.0
O102 O 0.68686 0.26056 0.63828 0.0
O103 O 0.68204 0.22757 0.62805 0.0
In104 In 0.34185 0.24953 0.54814 0.0
O105 O 0.32014 0.26157 0.45792 0.0
O106 O 0.31928 0.22932 0.48412 0.0
C107 C 0.3708 0.28053 0.55942 0.0
C108 C 0.31414 0.25696 0.65076 0.0
C109 C 0.36752 0.21611 0.56404 0.0
O110 O 0.3646 0.274 0.49973 0.0
O111 O 0.36248 0.27142 0.61123 0.0
O112 O 0.35809 0.22475 0.61469 0.0
O113 O 0.36403 0.22425 0.50427 0.0
C114 C 0.3115 0.24395 0.44792 0.0
O115 O 0.32102 0.2388 0.63808 0.0
O116 O 0.3213 0.27131 0.61185 0.0
In117 In 0.16176 0.7518 0.05336 0.0
O118 O 0.18244 0.73117 0.98528 0.0
O119 O 0.17801 0.76246 0.94974 0.0
C120 C 0.1333 0.72068 0.06207 0.0
C121 C 0.19386 0.76036 0.13837 0.0
C122 C 0.13579 0.78136 0.1055 0.0
O123 O 0.1329 0.7343 0.01336 0.0
O124 O 0.14878 0.72208 0.10357 0.0
O125 O 0.14513 0.76777 0.14209 0.0
O126 O 0.13955 0.78044 0.03968 0.0
C127 C 0.18756 0.74519 0.94155 0.0
O128 O 0.18676 0.77343 0.0945 0.0
O129 O 0.1846 0.74277 0.13977 0.0
In130 In 0.15954 0.25207 0.04542 0.0
O131 O 0.17456 0.26443 0.14868 0.0
O132 O 0.1738 0.23161 0.13174 0.0
C133 C 0.13585 0.28291 0.98899 0.0
C134 C 0.19425 0.25783 0.96939 0.0
C135 C 0.13028 0.22263 0.01856 0.0
O136 O 0.13642 0.27994 0.05527 0.0
O137 O 0.14748 0.27087 0.95364 0.0
O138 O 0.14867 0.22156 0.99365 0.0
O139 O 0.12725 0.23757 0.06128 0.0
C140 C 0.18051 0.24652 0.16916 0.0
O141 O 0.18457 0.24048 0.96938 0.0
O142 O 0.18623 0.27202 0.00694 0.0
In143 In 0.34419 0.75742 0.55171 0.0
O144 O 0.32924 0.73643 0.63675 0.0
O145 O 0.32348 0.76894 0.64414 0.0
C146 C 0.36638 0.72745 0.48237 0.0
C147 C 0.31346 0.76464 0.45926 0.0
C148 C 0.37516 0.78656 0.55635 0.0
O149 O 0.36718 0.72943 0.54875 0.0
O150 O 0.35416 0.74013 0.45213 0.0
O151 O 0.35712 0.79039 0.53247 0.0
O152 O 0.377 0.76865 0.5842 0.0
C153 C 0.31922 0.75089 0.66711 0.0
O154 O 0.3259 0.77889 0.479 0.0
O155 O 0.31679 0.74673 0.48543 0.0
In156 In 0.49851 0.08422 0.7613 0.0
O157 O 0.50176 0.07168 0.8765 0.0
O158 O 0.4779 0.05937 0.80966 0.0
C159 C 0.52602 0.1139 0.71872 0.0
C160 C 0.51776 0.05283 0.69536 0.0
C161 C 0.46358 0.10496 0.72214 0.0
O162 O 0.52243 0.11126 0.78421 0.0
O163 O 0.51629 0.10154 0.67866 0.0
O164 O 0.47035 0.08884 0.69088 0.0
O165 O 0.47372 0.11004 0.77715 0.0
C166 C 0.48749 0.05793 0.86771 0.0
O167 O 0.50183 0.06193 0.66989 0.0
O168 O 0.52422 0.05976 0.75386 0.0
In169 In 1.00254 0.91655 0.26234 0.0
O170 O 0.98173 0.93604 0.3363 0.0
O171 O 0.01449 0.93837 0.35159 0.0
C172 C 0.96835 0.8928 0.23193 0.0
C173 C 0.00755 0.94159 0.14989 0.0
C174 C 0.03517 0.88933 0.2582 0.0
O175 O 0.982 0.88675 0.27602 0.0
O176 O 0.97124 0.91111 0.20892 0.0
O177 O 0.03094 0.90193 0.20915 0.0
O178 O 0.02339 0.89091 0.31168 0.0
C179 C 0.99655 0.94504 0.36844 0.0
O180 O 0.99773 0.92447 0.14763 0.0
O181 O 0.01574 0.94585 0.20879 0.0
In182 In 0.50583 0.90848 0.29554 0.0
O183 O 0.50158 0.91712 0.17721 0.0
O184 O 0.49584 0.94066 0.25365 0.0
C185 C 0.53878 0.88196 0.31003 0.0
C186 C 0.52005 0.93369 0.39657 0.0
C187 C 0.473 0.8825 0.32042 0.0
O188 O 0.53564 0.89179 0.25285 0.0
O189 O 0.52552 0.88563 0.35747 0.0
O190 O 0.474 0.90064 0.347 0.0
O191 O 0.48728 0.87853 0.27635 0.0
C192 C 0.49681 0.93606 0.18927 0.0
O193 O 0.50407 0.9222 0.40533 0.0
O194 O 0.52861 0.93274 0.33661 0.0
In195 In 1.00036 0.09904 0.7685 0.0
O196 O 0.01175 0.07804 0.85781 0.0
O197 O 0.98258 0.07086 0.80842 0.0
C198 C 0.03167 0.12766 0.78008 0.0
C199 C 1.00087 0.0759 0.64734 0.0
C200 C 0.96776 0.12295 0.81277 0.0
O201 O 0.03277 0.10965 0.80729 0.0
O202 O 0.01565 0.13057 0.74211 0.0
O203 O 0.97114 0.11883 0.74858 0.0
O204 O 0.98075 0.11489 0.8551 0.0
C205 C 0.99631 0.06569 0.85292 0.0
O206 O 0.98641 0.08861 0.66273 0.0
O207 O 0.01629 0.07654 0.68906 0.0
H208 H 0.12831 0.69311 0.17269 0.0
H209 H 0.09836 0.71515 0.98078 0.0
H210 H 0.06741 0.6932 0.00709 0.0
H211 H 0.10858 0.63939 0.16394 0.0
H212 H 0.10498 0.6373 0.25796 0.0
H213 H 0.12511 0.65422 0.22294 0.0
H214 H 0.10933 0.68547 0.29215 0.0
H215 H 0.08898 0.66871 0.32666 0.0
H216 H 0.08213 0.69228 0.27946 0.0
H217 H 0.03952 0.67009 0.05484 0.0
H218 H 0.01681 0.64495 0.11681 0.0
H219 H 0.06415 0.63734 0.27963 0.0
C220 C 0.11535 0.69309 0.13573 0.0
C221 C 0.11579 0.7058 0.07439 0.0
C222 C 0.09843 0.7055 0.0278 0.0
C223 C 0.08074 0.69315 0.04248 0.0
C224 C 0.08063 0.68117 0.104 0.0
C225 C 0.0975 0.68084 0.14966 0.0
C226 C 0.09318 0.66657 0.2123 0.0
C227 C 0.10889 0.64828 0.21438 0.0
C228 C 0.09342 0.67901 0.28175 0.0
C229 C 0.07119 0.65896 0.19467 0.0
C230 C 0.06434 0.66771 0.13199 0.0
C231 C 0.04473 0.66309 0.10383 0.0
C232 C 0.03193 0.6488 0.13963 0.0
C233 C 0.03867 0.63918 0.20316 0.0
C234 C 0.05848 0.6446 0.23164 0.0
H235 H 0.54524 0.85801 0.42697 0.0
H236 H 0.57215 0.87287 0.22271 0.0
H237 H 0.6018 0.84878 0.24793 0.0
H238 H 0.59358 0.85492 0.52313 0.0
H239 H 0.58504 0.83337 0.57766 0.0
H240 H 0.5661 0.85169 0.5433 0.0
H241 H 0.54536 0.82109 0.48633 0.0
H242 H 0.56417 0.80266 0.52071 0.0
H243 H 0.55867 0.80332 0.42749 0.0
H244 H 0.62849 0.82331 0.2966 0.0
H245 H 0.64976 0.79757 0.36196 0.0
H246 H 0.60506 0.79911 0.53466 0.0
C247 C 0.55736 0.85623 0.38736 0.0
C248 C 0.55644 0.86735 0.32277 0.0
C249 C 0.57256 0.8645 0.2724 0.0
C250 C 0.58944 0.8509 0.28641 0.0
C251 C 0.58987 0.84027 0.35089 0.0
C252 C 0.57419 0.84273 0.40038 0.0
C253 C 0.57817 0.82939 0.46528 0.0
C254 C 0.58089 0.84317 0.53123 0.0
C255 C 0.56055 0.81315 0.47552 0.0
C256 C 0.59862 0.81896 0.44479 0.0
C257 C 0.60511 0.82552 0.37869 0.0
C258 C 0.62352 0.81807 0.34829 0.0
C259 C 0.63551 0.80345 0.38602 0.0
C260 C 0.62909 0.79631 0.45357 0.0
C261 C 0.61041 0.8043 0.48333 0.0
H262 H 0.44464 0.3576 0.78417 0.0
H263 H 0.46476 0.38433 0.58458 0.0
H264 H 0.44117 0.36044 0.52097 0.0
H265 H 0.44091 0.3044 0.72309 0.0
H266 H 0.41778 0.29819 0.77376 0.0
H267 H 0.43585 0.31786 0.80493 0.0
H268 H 0.40557 0.34492 0.81131 0.0
H269 H 0.3874 0.32529 0.78039 0.0
H270 H 0.38986 0.34985 0.73397 0.0
H271 H 0.41609 0.3331 0.47729 0.0
H272 H 0.39045 0.30441 0.45818 0.0
H273 H 0.38628 0.29525 0.6846 0.0
C274 C 0.44393 0.3585 0.7272 0.0
C275 C 0.4566 0.37289 0.68959 0.0
C276 C 0.45528 0.37346 0.61486 0.0
C277 C 0.44189 0.35994 0.57797 0.0
C278 C 0.42979 0.34581 0.61623 0.0
C279 C 0.43057 0.34499 0.68915 0.0
C280 C 0.416 0.32806 0.71695 0.0
C281 C 0.42838 0.31113 0.75704 0.0
C282 C 0.39868 0.3376 0.7634 0.0
C283 C 0.40708 0.31955 0.64837 0.0
C284 C 0.41524 0.33001 0.59087 0.0
C285 C 0.40952 0.3248 0.52194 0.0
C286 C 0.39498 0.30848 0.51149 0.0
C287 C 0.38635 0.2976 0.56968 0.0
C288 C 0.39256 0.30328 0.63889 0.0
H289 H 0.90348 0.20218 0.06335 0.0
H290 H 0.85908 0.207 0.89016 0.0
H291 H 0.87871 0.18051 0.82401 0.0
H292 H 0.94894 0.19706 0.95661 0.0
H293 H 0.96208 0.17811 0.01167 0.0
H294 H 0.94373 0.19629 0.05003 0.0
H295 H 0.92235 0.16536 0.10197 0.0
H296 H 0.94073 0.14707 0.06405 0.0
H297 H 0.91314 0.14485 0.04426 0.0
H298 H 0.90394 0.15625 0.77104 0.0
H299 H 0.9334 0.13354 0.73594 0.0
H300 H 0.96212 0.14262 0.94137 0.0
C301 C 0.89775 0.1973 0.01216 0.0
C302 C 0.87973 0.20673 0.982 0.0
C303 C 0.87289 0.20015 0.91434 0.0
C304 C 0.88389 0.18503 0.8762 0.0
C305 C 0.9018 0.17641 0.90616 0.0
C306 C 0.90872 0.18207 0.97267 0.0
C307 C 0.92909 0.17076 0.99019 0.0
C308 C 0.94702 0.1865 0.00286 0.0
C309 C 0.92615 0.15614 0.05391 0.0
C310 C 0.93256 0.1583 0.92269 0.0
C311 C 0.91652 0.16185 0.87524 0.0
C312 C 0.9165 0.15308 0.80797 0.0
C313 C 0.93335 0.14027 0.78839 0.0
C314 C 0.94996 0.1362 0.83594 0.0
C315 C 0.94948 0.14525 0.90423 0.0
H316 H 0.0458 0.36961 0.95462 0.0
H317 H 0.05312 0.36592 0.72742 0.0
H318 H 0.08121 0.33939 0.74345 0.0
H319 H 0.10011 0.36505 0.99915 0.0
H320 H 0.09541 0.3494 0.07678 0.0
H321 H 0.07584 0.36779 0.04716 0.0
H322 H 0.0482 0.33797 0.04194 0.0
H323 H 0.06764 0.31951 0.07195 0.0
H324 H 0.05365 0.31476 0.99086 0.0
H325 H 0.10886 0.31381 0.7853 0.0
H326 H 0.13292 0.29001 0.8479 0.0
H327 H 0.10718 0.31029 0.04854 0.0
C328 C 0.05324 0.3632 0.90801 0.0
C329 C 0.04729 0.36983 0.83958 0.0
C330 C 0.05741 0.36103 0.7802 0.0
C331 C 0.07339 0.34602 0.78891 0.0
C332 C 0.07897 0.34 0.85729 0.0
C333 C 0.06909 0.34825 0.91577 0.0
C334 C 0.07787 0.33915 0.98357 0.0
C335 C 0.0879 0.35638 0.02935 0.0
C336 C 0.06082 0.32713 0.02447 0.0
C337 C 0.09432 0.32442 0.95432 0.0
C338 C 0.09473 0.32522 0.88137 0.0
C339 C 0.10862 0.31306 0.84231 0.0
C340 C 0.12227 0.2996 0.87855 0.0
C341 C 0.12197 0.29828 0.95328 0.0
C342 C 0.10784 0.31099 0.99153 0.0
H343 H 0.95707 0.85246 0.27138 0.0
H344 H 0.94384 0.90134 0.11822 0.0
H345 H 0.92054 0.87726 0.05361 0.0
H346 H 0.9575 0.80929 0.1517 0.0
H347 H 0.94428 0.79132 0.21023 0.0
H348 H 0.95993 0.81235 0.24587 0.0
H349 H 0.92807 0.82563 0.31806 0.0
H350 H 0.91244 0.80442 0.28357 0.0
H351 H 0.90368 0.83114 0.27346 0.0
H352 H 0.90017 0.84732 0.001 0.0
H353 H 0.87993 0.81507 0.97467 0.0
H354 H 0.9047 0.78614 0.16435 0.0
C355 C 0.94905 0.85814 0.22481 0.0
C356 C 0.95232 0.87881 0.19998 0.0
C357 C 0.94155 0.88563 0.13863 0.0
C358 C 0.92836 0.87201 0.10111 0.0
C359 C 0.92584 0.85162 0.12587 0.0
C360 C 0.93551 0.8448 0.18707 0.0
C361 C 0.92954 0.82226 0.20317 0.0
C362 C 0.94897 0.80796 0.2027 0.0
C363 C 0.91773 0.82078 0.27374 0.0
C364 C 0.91517 0.81752 0.1413 0.0
C365 C 0.91348 0.83457 0.0968 0.0
C366 C 0.90126 0.83388 0.03568 0.0
C367 C 0.88996 0.81546 0.02079 0.0
C368 C 0.89076 0.79813 0.06732 0.0
C369 C 0.9038 0.79914 0.1277 0.0
H370 H 0.39709 0.70092 0.53236 0.0
H371 H 0.3652 0.72002 0.34062 0.0
H372 H 0.3878 0.69629 0.27126 0.0
H373 H 0.44854 0.69778 0.45731 0.0
H374 H 0.4562 0.67514 0.50811 0.0
H375 H 0.4371 0.69319 0.54292 0.0
H376 H 0.41059 0.66268 0.55915 0.0
H377 H 0.42966 0.64453 0.52475 0.0
H378 H 0.40404 0.64632 0.48479 0.0
H379 H 0.41482 0.67083 0.22189 0.0
H380 H 0.44323 0.64512 0.19847 0.0
H381 H 0.45706 0.64291 0.42242 0.0
C382 C 0.39475 0.69997 0.47588 0.0
C383 C 0.37933 0.7123 0.442 0.0
C384 C 0.37689 0.71071 0.36783 0.0
C385 C 0.38967 0.69728 0.32789 0.0
C386 C 0.40488 0.6855 0.36275 0.0
C387 C 0.40741 0.68667 0.43514 0.0
C388 C 0.42507 0.67256 0.45969 0.0
C389 C 0.44277 0.68544 0.49402 0.0
C390 C 0.41684 0.65551 0.51006 0.0
C391 C 0.43203 0.66327 0.38998 0.0
C392 C 0.42028 0.67093 0.33451 0.0
C393 C 0.42409 0.66468 0.26503 0.0
C394 C 0.44026 0.65012 0.25211 0.0
C395 C 0.45233 0.64197 0.30847 0.0
C396 C 0.44808 0.64877 0.37808 0.0
H397 H 0.61939 0.19858 0.69339 0.0
H398 H 0.60467 0.20376 0.47052 0.0
H399 H 0.57588 0.17806 0.48588 0.0
H400 H 0.60933 0.14325 0.71095 0.0
H401 H 0.59784 0.14547 0.79751 0.0
H402 H 0.61731 0.16417 0.76907 0.0
H403 H 0.5915 0.19456 0.79507 0.0
H404 H 0.57191 0.17596 0.82334 0.0
H405 H 0.5659 0.1945 0.75446 0.0
H406 H 0.54928 0.15188 0.52461 0.0
H407 H 0.52615 0.12645 0.58282 0.0
H408 H 0.55718 0.13825 0.78297 0.0
C409 C 0.61016 0.19425 0.64768 0.0
C410 C 0.61432 0.20311 0.58049 0.0
C411 C 0.6018 0.19715 0.52226 0.0
C412 C 0.58542 0.1826 0.53059 0.0
C413 C 0.5817 0.17426 0.59756 0.0
C414 C 0.59367 0.17985 0.65517 0.0
C415 C 0.58628 0.1686 0.72143 0.0
C416 C 0.60373 0.15454 0.75149 0.0
C417 C 0.57843 0.18435 0.77685 0.0
C418 C 0.56831 0.15563 0.69197 0.0
C419 C 0.56604 0.15923 0.62036 0.0
C420 C 0.55089 0.14897 0.58058 0.0
C421 C 0.53783 0.13449 0.61441 0.0
C422 C 0.53981 0.13029 0.68766 0.0
C423 C 0.55518 0.1412 0.72714 0.0
H424 H 0.94266 0.36563 0.81632 0.0
H425 H 0.95696 0.39793 0.01211 0.0
H426 H 0.93362 0.37392 0.07656 0.0
H427 H 0.8869 0.3564 0.85879 0.0
H428 H 0.88638 0.33103 0.81687 0.0
H429 H 0.90396 0.35109 0.78509 0.0
H430 H 0.93538 0.32577 0.80131 0.0
H431 H 0.91793 0.30572 0.8337 0.0
H432 H 0.93999 0.314 0.88639 0.0
H433 H 0.9115 0.34452 0.12242 0.0
H434 H 0.88797 0.31422 0.1438 0.0
H435 H 0.8852 0.3025 0.91871 0.0
C436 C 0.94062 0.36779 0.87253 0.0
C437 C 0.95169 0.38369 0.90903 0.0
C438 C 0.94862 0.38597 0.98273 0.0
C439 C 0.93545 0.37233 0.02008 0.0
C440 C 0.92508 0.35661 0.98303 0.0
C441 C 0.92712 0.35449 0.91074 0.0
C442 C 0.91384 0.33636 0.88406 0.0
C443 C 0.89675 0.34419 0.83319 0.0
C444 C 0.92761 0.31947 0.84932 0.0
C445 C 0.90437 0.32851 0.95273 0.0
C446 C 0.91129 0.34028 0.00926 0.0
C447 C 0.90569 0.33537 0.07849 0.0
C448 C 0.89243 0.31811 0.09023 0.0
C449 C 0.88462 0.30624 0.03296 0.0
C450 C 0.89069 0.31155 0.96339 0.0
H451 H 0.44385 0.13965 0.77929 0.0
H452 H 0.44614 0.10054 0.59208 0.0
H453 H 0.42182 0.12456 0.53159 0.0
H454 H 0.38778 0.15299 0.76295 0.0
H455 H 0.39155 0.17937 0.79475 0.0
H456 H 0.40862 0.15864 0.82445 0.0
H457 H 0.44091 0.18005 0.78272 0.0
H458 H 0.42394 0.20073 0.75219 0.0
H459 H 0.44232 0.18872 0.69232 0.0
H460 H 0.39989 0.15448 0.48714 0.0
H461 H 0.37814 0.18612 0.46733 0.0
H462 H 0.38793 0.20466 0.68494 0.0
C463 C 0.43895 0.13599 0.726 0.0
C464 C 0.44691 0.11819 0.6905 0.0
C465 C 0.4402 0.114 0.6206 0.0
C466 C 0.42644 0.12761 0.58555 0.0
C467 C 0.41923 0.14524 0.62132 0.0
C468 C 0.42491 0.14928 0.69042 0.0
C469 C 0.41477 0.16934 0.71661 0.0
C470 C 0.39979 0.16481 0.77834 0.0
C471 C 0.43149 0.18567 0.73715 0.0
C472 C 0.40282 0.17604 0.65115 0.0
C473 C 0.40579 0.16203 0.59655 0.0
C474 C 0.39719 0.16542 0.5298 0.0
C475 C 0.38497 0.18346 0.51887 0.0
C476 C 0.38123 0.19768 0.57468 0.0
C477 C 0.39032 0.19388 0.64155 0.0
H478 H 0.54365 0.63938 0.4371 0.0
H479 H 0.56355 0.63507 0.21883 0.0
H480 H 0.59448 0.65718 0.24592 0.0
H481 H 0.55788 0.69377 0.45849 0.0
H482 H 0.5662 0.69079 0.5488 0.0
H483 H 0.54627 0.67375 0.51321 0.0
H484 H 0.56838 0.64134 0.54876 0.0
H485 H 0.58844 0.65829 0.58411 0.0
H486 H 0.59506 0.63911 0.51793 0.0
H487 H 0.62346 0.67876 0.2969 0.0
H488 H 0.64687 0.70198 0.36422 0.0
H489 H 0.60715 0.69488 0.54885 0.0
C490 C 0.55461 0.64303 0.39516 0.0
C491 C 0.55138 0.63538 0.3259 0.0
C492 C 0.56579 0.64076 0.27213 0.0
C493 C 0.58342 0.65321 0.28715 0.0
C494 C 0.58621 0.66043 0.35598 0.0
C495 C 0.57206 0.65583 0.40894 0.0
C496 C 0.57818 0.66657 0.47749 0.0
C497 C 0.56112 0.68215 0.50085 0.0
C498 C 0.58279 0.65036 0.53549 0.0
C499 C 0.59805 0.67789 0.45483 0.0
C500 C 0.60248 0.67382 0.38475 0.0
C501 C 0.62009 0.68215 0.35165 0.0
C502 C 0.63335 0.69529 0.39063 0.0
C503 C 0.62887 0.70031 0.46193 0.0
C504 C 0.611 0.69134 0.49453 0.0
H505 H 0.11446 0.81507 0.04574 0.0
H506 H 0.12482 0.78223 0.24346 0.0
H507 H 0.10134 0.8068 0.30417 0.0
H508 H 0.11257 0.86748 0.12181 0.0
H509 H 0.0921 0.87654 0.06367 0.0
H510 H 0.11004 0.85648 0.03463 0.0
H511 H 0.07869 0.83191 0.00663 0.0
H512 H 0.06068 0.85193 0.03536 0.0
H513 H 0.05974 0.82618 0.07463 0.0
H514 H 0.07592 0.83399 0.34407 0.0
H515 H 0.05016 0.86264 0.35964 0.0
H516 H 0.05663 0.87879 0.13829 0.0
C517 C 0.11179 0.81312 0.10175 0.0
C518 C 0.12153 0.79669 0.13966 0.0
C519 C 0.11762 0.79468 0.21305 0.0
C520 C 0.10428 0.80858 0.24827 0.0
C521 C 0.09495 0.82459 0.20972 0.0
C522 C 0.09851 0.82702 0.13818 0.0
C523 C 0.08625 0.84557 0.10962 0.0
C524 C 0.10113 0.86252 0.08074 0.0
C525 C 0.0704 0.83847 0.05323 0.0
C526 C 0.07521 0.85295 0.17611 0.0
C527 C 0.08046 0.8406 0.23323 0.0
C528 C 0.07178 0.8439 0.29987 0.0
C529 C 0.05718 0.8602 0.30829 0.0
C530 C 0.05153 0.87303 0.25048 0.0
C531 C 0.06084 0.8694 0.18376 0.0
H532 H 0.9411 0.63871 0.28989 0.0
H533 H 0.94811 0.6005 0.10208 0.0
H534 H 0.92339 0.62349 0.03848 0.0
H535 H 0.88456 0.65015 0.26419 0.0
H536 H 0.88718 0.67648 0.29774 0.0
H537 H 0.90422 0.65602 0.32972 0.0
H538 H 0.93662 0.67838 0.29509 0.0
H539 H 0.91972 0.69876 0.26219 0.0
H540 H 0.93935 0.68741 0.20543 0.0
H541 H 0.90104 0.65325 0.99095 0.0
H542 H 0.8795 0.68502 0.96856 0.0
H543 H 0.88554 0.70239 0.18873 0.0
C544 C 0.93704 0.6349 0.23592 0.0
C545 C 0.94652 0.61776 0.20112 0.0
C546 C 0.94097 0.61345 0.13013 0.0
C547 C 0.92699 0.62648 0.09334 0.0
C548 C 0.91841 0.64363 0.12847 0.0
C549 C 0.92289 0.64761 0.19861 0.0
C550 C 0.91189 0.6673 0.22368 0.0
C551 C 0.89602 0.66217 0.28229 0.0
C552 C 0.92785 0.68394 0.24801 0.0
C553 C 0.9009 0.67397 0.15642 0.0
C554 C 0.90493 0.66022 0.10185 0.0
C555 C 0.89747 0.66392 0.03364 0.0
C556 C 0.88536 0.68202 0.02123 0.0
C557 C 0.88067 0.69598 0.07698 0.0
C558 C 0.88857 0.6918 0.14526 0.0
H559 H 0.07237 0.12584 0.82966 0.0
H560 H 0.02101 0.16875 0.78783 0.0
H561 H 0.04033 0.19707 0.84823 0.0
H562 H 0.08633 0.1443 0.99816 0.0
H563 H 0.11433 0.14234 0.98622 0.0
H564 H 0.09701 0.12528 0.9377 0.0
H565 H 0.11319 0.13788 0.81974 0.0
H566 H 0.13088 0.15466 0.86797 0.0
H567 H 0.11419 0.16556 0.8005 0.0
H568 H 0.06293 0.2193 0.9257 0.0
H569 H 0.09111 0.2369 0.99269 0.0
H570 H 0.13008 0.18144 0.97324 0.0
C571 C 0.06545 0.14134 0.83194 0.0
C572 C 0.04521 0.14514 0.80395 0.0
C573 C 0.03658 0.16556 0.80814 0.0
C574 C 0.04734 0.1817 0.843 0.0
C575 C 0.06696 0.17731 0.8719 0.0
C576 C 0.07629 0.15787 0.86478 0.0
C577 C 0.09789 0.15766 0.89886 0.0
C578 C 0.09894 0.14143 0.95878 0.0
C579 C 0.11505 0.15371 0.84346 0.0
C580 C 0.099 0.17989 0.92743 0.0
C581 C 0.08076 0.19075 0.91245 0.0
C582 C 0.07743 0.21109 0.93672 0.0
C583 C 0.09342 0.22087 0.9754 0.0
C584 C 0.1127 0.21051 0.98808 0.0
C585 C 0.11548 0.1897 0.96408 0.0
H586 H 0.61201 0.31108 0.55857 0.0
H587 H 0.63178 0.28648 0.7615 0.0
H588 H 0.60804 0.3111 0.82172 0.0
H589 H 0.60815 0.36567 0.61624 0.0
H590 H 0.58543 0.37113 0.5626 0.0
H591 H 0.60415 0.35164 0.53478 0.0
H592 H 0.57437 0.32404 0.5265 0.0
H593 H 0.55557 0.34342 0.5544 0.0
H594 H 0.55804 0.31913 0.60242 0.0
H595 H 0.58053 0.3366 0.86031 0.0
H596 H 0.55283 0.36347 0.87453 0.0
H597 H 0.55237 0.37345 0.64822 0.0
C598 C 0.61139 0.31099 0.61563 0.0
C599 C 0.62373 0.29682 0.65528 0.0
C600 C 0.62253 0.29722 0.72993 0.0
C601 C 0.60905 0.31112 0.76475 0.0
C602 C 0.59701 0.32479 0.72436 0.0
C603 C 0.5982 0.32506 0.65152 0.0
C604 C 0.58361 0.34154 0.62102 0.0
C605 C 0.59609 0.3585 0.58132 0.0
C606 C 0.56691 0.33142 0.57327 0.0
C607 C 0.57391 0.35023 0.68802 0.0
C608 C 0.58176 0.34022 0.74699 0.0
C609 C 0.57445 0.34477 0.81462 0.0
C610 C 0.55871 0.35999 0.82223 0.0
C611 C 0.55069 0.37068 0.76268 0.0
C612 C 0.5585 0.36577 0.69483 0.0
H613 H 0.37578 0.82841 0.51997 0.0
H614 H 0.41561 0.77367 0.54381 0.0
H615 H 0.44452 0.79243 0.48446 0.0
H616 H 0.39249 0.84394 0.35335 0.0
H617 H 0.39266 0.87179 0.36988 0.0
H618 H 0.37529 0.85496 0.41911 0.0
H619 H 0.39096 0.86843 0.53671 0.0
H620 H 0.40804 0.8857 0.48793 0.0
H621 H 0.41895 0.86737 0.55038 0.0
H622 H 0.46685 0.81468 0.40674 0.0
H623 H 0.48492 0.84231 0.33902 0.0
H624 H 0.43275 0.88463 0.37573 0.0
C625 C 0.3908 0.82064 0.51454 0.0
C626 C 0.39349 0.79959 0.53673 0.0
C627 C 0.41328 0.78985 0.52811 0.0
C628 C 0.42973 0.80031 0.49378 0.0
C629 C 0.42632 0.8207 0.46996 0.0
C630 C 0.40764 0.83108 0.48202 0.0
C631 C 0.4083 0.85312 0.45138 0.0
C632 C 0.39117 0.85612 0.3951 0.0
C633 C 0.40646 0.86963 0.51011 0.0
C634 C 0.43004 0.85324 0.41855 0.0
C635 C 0.43994 0.83419 0.42895 0.0
C636 C 0.45946 0.82981 0.39951 0.0
C637 C 0.46948 0.84553 0.36037 0.0
C638 C 0.46023 0.86558 0.35214 0.0
C639 C 0.44019 0.86946 0.38144 0.0
H640 H 0.01243 0.52027 0.22298 0.0
H641 H 0.05483 0.56176 0.11211 0.0
H642 H 0.06677 0.532 0.03786 0.0
H643 H 0.04656 0.47041 0.20701 0.0
H644 H 0.0232 0.45475 0.1964 0.0
H645 H 0.02275 0.47764 0.25224 0.0
H646 H 0.99122 0.49219 0.18111 0.0
H647 H 0.99164 0.46962 0.12501 0.0
H648 H 0.99368 0.49547 0.08698 0.0
H649 H 0.06661 0.5007 0.95816 0.0
H650 H 0.05541 0.47081 0.88386 0.0
H651 H 0.01439 0.44942 0.05145 0.0
C652 C 0.02487 0.52276 0.1849 0.0
C653 C 0.03286 0.54294 0.17258 0.0
C654 C 0.04884 0.54614 0.12222 0.0
C655 C 0.0557 0.52935 0.08023 0.0
C656 C 0.04676 0.50959 0.09131 0.0
C657 C 0.03202 0.50617 0.14381 0.0
C658 C 0.0225 0.48455 0.13916 0.0
C659 C 0.02917 0.47104 0.20246 0.0
C660 C 0.99836 0.48555 0.13259 0.0
C661 C 0.03266 0.47698 0.07202 0.0
C662 C 0.04706 0.49131 0.04599 0.0
C663 C 0.05595 0.48903 0.97914 0.0
C664 C 0.04946 0.47208 0.93719 0.0
C665 C 0.03407 0.45793 0.96229 0.0
C666 C 0.02635 0.45994 0.03144 0.0
H667 H 0.79414 0.7268 0.22382 0.0
H668 H 0.81596 0.79097 0.24658 0.0
H669 H 0.79005 0.79672 0.34149 0.0
H670 H 0.74138 0.73749 0.24057 0.0
H671 H 0.73486 0.71408 0.28925 0.0
H672 H 0.75699 0.7141 0.23042 0.0
H673 H 0.78136 0.70233 0.33261 0.0
H674 H 0.75923 0.70215 0.39186 0.0
H675 H 0.7822 0.71747 0.41285 0.0
H676 H 0.75931 0.79666 0.42305 0.0
H677 H 0.72609 0.79058 0.4872 0.0
H678 H 0.72482 0.72638 0.4111 0.0
C679 C 0.79376 0.74192 0.24983 0.0
C680 C 0.80698 0.75843 0.2283 0.0
C681 C 0.80593 0.7781 0.26272 0.0
C682 C 0.79135 0.78149 0.31672 0.0
C683 C 0.77818 0.76498 0.33573 0.0
C684 C 0.77936 0.74554 0.30369 0.0
C685 C 0.76237 0.73094 0.32976 0.0
C686 C 0.74806 0.72375 0.26888 0.0
C687 C 0.77187 0.71211 0.36913 0.0
C688 C 0.75099 0.74544 0.37962 0.0
C689 C 0.76048 0.76493 0.38302 0.0
C690 C 0.75193 0.78137 0.42185 0.0
C691 C 0.73305 0.77781 0.45776 0.0
C692 C 0.72304 0.75801 0.45404 0.0
C693 C 0.7323 0.7416 0.41538 0.0
H694 H 0.5214 0.5395 0.43409 0.0
H695 H 0.45564 0.55712 0.4429 0.0
H696 H 0.44887 0.52825 0.52681 0.0
H697 H 0.51268 0.48427 0.43669 0.0
H698 H 0.53541 0.47858 0.49001 0.0
H699 H 0.53531 0.50125 0.43333 0.0
H700 H 0.54379 0.52515 0.54027 0.0
H701 H 0.544 0.50254 0.59726 0.0
H702 H 0.52703 0.52439 0.61686 0.0
H703 H 0.44922 0.49752 0.60806 0.0
H704 H 0.45648 0.46621 0.6806 0.0
H705 H 0.52183 0.46806 0.61562 0.0
C706 C 0.50563 0.53738 0.45424 0.0
C707 C 0.48904 0.5505 0.43262 0.0
C708 C 0.46854 0.54717 0.45913 0.0
C709 C 0.46456 0.53087 0.50674 0.0
C710 C 0.48124 0.51808 0.52661 0.0
C711 C 0.50135 0.52109 0.50115 0.0
C712 C 0.51633 0.50468 0.52905 0.0
C713 C 0.52546 0.49141 0.46867 0.0
C714 C 0.53381 0.5148 0.57352 0.0
C715 C 0.50148 0.49199 0.57428 0.0
C716 C 0.48135 0.50004 0.57237 0.0
C717 C 0.4649 0.49104 0.61004 0.0
C718 C 0.46918 0.47329 0.65097 0.0
C719 C 0.48969 0.46477 0.65335 0.0
C720 C 0.506 0.47423 0.61444 0.0
H721 H 0.78906 0.27439 0.89675 0.0
H722 H 0.79195 0.2095 0.96571 0.0
H723 H 0.76221 0.20078 0.88745 0.0
H724 H 0.73297 0.27754 0.88837 0.0
H725 H 0.73284 0.29412 0.81134 0.0
H726 H 0.75463 0.29509 0.87176 0.0
H727 H 0.7803 0.28709 0.76907 0.0
H728 H 0.75857 0.28605 0.70835 0.0
H729 H 0.77619 0.26405 0.71567 0.0
H730 H 0.73256 0.19911 0.80106 0.0
H731 H 0.70381 0.20502 0.71567 0.0
H732 H 0.72005 0.27113 0.70635 0.0
C733 C 0.78344 0.25835 0.89525 0.0
C734 C 0.79273 0.2426 0.93688 0.0
C735 C 0.78495 0.22179 0.93406 0.0
C736 C 0.76814 0.21668 0.88977 0.0
C737 C 0.75934 0.23259 0.84919 0.0
C738 C 0.76663 0.25301 0.85179 0.0
C739 C 0.75415 0.26725 0.80394 0.0
C740 C 0.74298 0.28451 0.84641 0.0
C741 C 0.76814 0.27665 0.74581 0.0
C742 C 0.73869 0.25163 0.7741 0.0
C743 C 0.74201 0.2317 0.80046 0.0
C744 C 0.72974 0.21465 0.7801 0.0
C745 C 0.71352 0.21814 0.73166 0.0
C746 C 0.70976 0.23852 0.70493 0.0
C747 C 0.72255 0.2554 0.72632 0.0
H748 H 0.21764 0.22893 0.89773 0.0
H749 H 0.21378 0.29525 0.94818 0.0
H750 H 0.24541 0.30199 0.87671 0.0
H751 H 0.27481 0.22567 0.90183 0.0
H752 H 0.27596 0.20742 0.82933 0.0
H753 H 0.25344 0.20765 0.88682 0.0
H754 H 0.22898 0.21313 0.779 0.0
H755 H 0.2514 0.21289 0.72125 0.0
H756 H 0.23367 0.23491 0.72037 0.0
H757 H 0.27568 0.30194 0.79402 0.0
H758 H 0.30372 0.2948 0.70729 0.0
H759 H 0.28871 0.22839 0.71475 0.0
C760 C 0.22354 0.24483 0.89397 0.0
C761 C 0.21334 0.26158 0.9281 0.0
C762 C 0.22146 0.2822 0.92231 0.0
C763 C 0.2394 0.28619 0.88202 0.0
C764 C 0.24906 0.26934 0.84869 0.0
C765 C 0.24154 0.24906 0.85454 0.0
C766 C 0.25464 0.23386 0.81217 0.0
C767 C 0.26535 0.2177 0.86044 0.0
C768 C 0.24138 0.22307 0.7548 0.0
C769 C 0.27043 0.24886 0.78054 0.0
C770 C 0.26694 0.26924 0.80233 0.0
C771 C 0.27878 0.28602 0.77718 0.0
C772 C 0.29458 0.28184 0.72795 0.0
C773 C 0.29836 0.26106 0.70512 0.0
C774 C 0.2863 0.24438 0.73232 0.0
H775 H 0.2838 0.73673 0.41647 0.0
H776 H 0.30456 0.80115 0.3899 0.0
H777 H 0.27559 0.80731 0.30557 0.0
H778 H 0.26937 0.72764 0.23738 0.0
H779 H 0.24681 0.71184 0.25938 0.0
H780 H 0.269 0.71271 0.31816 0.0
H781 H 0.24464 0.7244 0.42043 0.0
H782 H 0.22237 0.72359 0.36194 0.0
H783 H 0.2284 0.74732 0.40954 0.0
H784 H 0.24495 0.8061 0.22319 0.0
H785 H 0.21436 0.79778 0.14825 0.0
H786 H 0.2137 0.73421 0.23067 0.0
C787 C 0.28225 0.75214 0.39294 0.0
C788 C 0.29634 0.76848 0.40931 0.0
C789 C 0.29385 0.78845 0.37778 0.0
C790 C 0.27749 0.79208 0.33 0.0
C791 C 0.26385 0.77559 0.31495 0.0
C792 C 0.26604 0.75603 0.34554 0.0
C793 C 0.24937 0.74093 0.3203 0.0
C794 C 0.25923 0.72218 0.28149 0.0
C795 C 0.23537 0.73364 0.38172 0.0
C796 C 0.23752 0.75502 0.27025 0.0
C797 C 0.2461 0.77494 0.26795 0.0
C798 C 0.23802 0.7906 0.22466 0.0
C799 C 0.2207 0.78572 0.18237 0.0
C800 C 0.21174 0.76538 0.18402 0.0
C801 C 0.22022 0.74991 0.22869 0.0
H802 H 0.52617 0.97502 0.37834 0.0
H803 H 0.52779 0.92564 0.53493 0.0
H804 H 0.5356 0.95187 0.62779 0.0
H805 H 0.56461 0.01265 0.46297 0.0
H806 H 0.54849 0.03482 0.43962 0.0
H807 H 0.54913 0.01202 0.38337 0.0
H808 H 0.50861 0.00898 0.39167 0.0
H809 H 0.50784 0.03165 0.44765 0.0
H810 H 0.49639 0.00732 0.47727 0.0
H811 H 0.53868 0.98341 0.70435 0.0
H812 H 0.53111 0.0175 0.76118 0.0
H813 H 0.52309 0.04612 0.55573 0.0
C814 C 0.52904 0.96978 0.43187 0.0
C815 C 0.52699 0.94852 0.45012 0.0
C816 C 0.5297 0.94199 0.52064 0.0
C817 C 0.5343 0.95672 0.57326 0.0
C818 C 0.53572 0.97781 0.55412 0.0
C819 C 0.53288 0.98435 0.48511 0.0
C820 C 0.53087 0.00792 0.48018 0.0
C821 C 0.54938 0.01741 0.43911 0.0
C822 C 0.50967 0.01432 0.44732 0.0
C823 C 0.53201 0.01355 0.55743 0.0
C824 C 0.53573 0.99609 0.59898 0.0
C825 C 0.5361 0.99724 0.6724 0.0
C826 C 0.53183 0.0166 0.70417 0.0
C827 C 0.52664 0.03418 0.66229 0.0
C828 C 0.52724 0.03279 0.58834 0.0
H829 H 0.01801 0.05392 0.97116 0.0
H830 H 0.9732 0.03177 0.81542 0.0
H831 H 0.97406 0.99654 0.86885 0.0
H832 H 0.04879 0.00657 0.98443 0.0
H833 H 0.05225 0.00845 0.07856 0.0
H834 H 0.04899 0.03191 0.02664 0.0
H835 H 0.01735 0.04302 0.10411 0.0
H836 H 0.02075 0.01979 0.15686 0.0
H837 H 0.99575 0.02507 0.11603 0.0
H838 H 0.97999 0.964 0.9366 0.0
H839 H 0.9865 0.93688 0.02637 0.0
H840 H 0.02619 0.98028 0.14235 0.0
C841 C 0.00837 0.04162 0.94861 0.0
C842 C 0.99558 0.04542 0.8893 0.0
C843 C 0.98301 0.02912 0.86124 0.0
C844 C 0.98355 0.00904 0.8907 0.0
C845 C 0.99657 0.00568 0.94848 0.0
C846 C 0.00845 0.02155 0.9781 0.0
C847 C 0.02003 0.01397 0.04297 0.0
C848 C 0.04393 0.01531 0.03248 0.0
C849 C 0.01304 0.02619 0.10888 0.0
C850 C 0.01265 0.99141 0.04529 0.0
C851 C 0.99944 0.98691 0.98946 0.0
C852 C 0.99029 0.96728 0.98064 0.0
C853 C 0.99416 0.95198 0.03173 0.0
C854 C 0.00682 0.95656 0.09115 0.0
C855 C 0.01656 0.97636 0.09714 0.0
H856 H 1.00097 0.45479 0.59065 0.0
H857 H 0.97896 0.48632 0.77944 0.0
H858 H 0.97819 0.51992 0.71543 0.0
H859 H 0.03381 0.49613 0.52594 0.0
H860 H 0.02699 0.49244 0.4345 0.0
H861 H 0.02588 0.4706 0.49474 0.0
H862 H 0.98697 0.46414 0.46122 0.0
H863 H 0.98809 0.48585 0.40046 0.0
H864 H 0.96836 0.48532 0.46858 0.0
H865 H 0.98227 0.55099 0.63313 0.0
H866 H 0.98639 0.57601 0.53361 0.0
H867 H 1.00279 0.52429 0.39589 0.0
C868 C 0.99579 0.46873 0.6182 0.0
C869 C 0.99003 0.46781 0.69027 0.0
C870 C 0.98334 0.48648 0.72425 0.0
C871 C 0.98296 0.50575 0.68842 0.0
C872 C 0.98899 0.50623 0.61789 0.0
C873 C 0.99488 0.48815 0.58262 0.0
C874 C 1.00002 0.49301 0.5061 0.0
C875 C 0.02304 0.48773 0.48937 0.0
C876 C 0.98496 0.48139 0.45615 0.0
C877 C 0.99627 0.51656 0.50432 0.0
C878 C 0.99021 0.52395 0.56959 0.0
C879 C 0.98675 0.54533 0.58149 0.0
C880 C 0.98921 0.55946 0.5249 0.0
C881 C 0.99467 0.55211 0.45704 0.0
C882 C 0.99831 0.53036 0.44707 0.0
H883 H 0.79257 0.72619 0.87417 0.0
H884 H 0.78781 0.78951 0.95676 0.0
H885 H 0.75293 0.79322 0.90219 0.0
H886 H 0.76757 0.73784 0.706 0.0
H887 H 0.75431 0.71289 0.70075 0.0
H888 H 0.77883 0.71502 0.74756 0.0
H889 H 0.7611 0.69949 0.85893 0.0
H890 H 0.73644 0.69765 0.8127 0.0
H891 H 0.73802 0.71197 0.89448 0.0
H892 H 0.71818 0.79016 0.84094 0.0
H893 H 0.68794 0.78212 0.76415 0.0
H894 H 0.71495 0.72125 0.71682 0.0
C895 C 0.78423 0.74087 0.88031 0.0
C896 C 0.79303 0.75756 0.91999 0.0
C897 C 0.78155 0.7765 0.92658 0.0
C898 C 0.76159 0.77874 0.89612 0.0
C899 C 0.75321 0.76195 0.85848 0.0
C900 C 0.76426 0.74349 0.84936 0.0
C901 C 0.75186 0.72824 0.80377 0.0
C902 C 0.76386 0.72321 0.73547 0.0
C903 C 0.74654 0.70815 0.84495 0.0
C904 C 0.7322 0.74105 0.78879 0.0
C905 C 0.73324 0.76035 0.82168 0.0
C906 C 0.71719 0.77508 0.81493 0.0
C907 C 0.69995 0.77031 0.77152 0.0
C908 C 0.69887 0.751 0.73475 0.0
C909 C 0.71508 0.73603 0.74495 0.0
H910 H 0.47542 0.54015 0.12326 0.0
H911 H 0.54182 0.55561 0.12296 0.0
H912 H 0.54934 0.52319 0.05718 0.0
H913 H 0.48151 0.48455 0.14609 0.0
H914 H 0.46032 0.47733 0.08787 0.0
H915 H 0.45961 0.50207 0.13377 0.0
H916 H 0.45551 0.52181 0.0152 0.0
H917 H 0.45588 0.49711 0.96906 0.0
H918 H 0.47434 0.51741 0.94579 0.0
H919 H 0.55025 0.48878 0.99603 0.0
H920 H 0.54418 0.45605 0.93052 0.0
H921 H 0.4771 0.46197 0.96581 0.0
C922 C 0.49149 0.53684 0.10838 0.0
C923 C 0.50804 0.55057 0.12828 0.0
C924 C 0.52886 0.5455 0.10832 0.0
C925 C 0.53332 0.52701 0.0712 0.0
C926 C 0.51681 0.51361 0.05392 0.0
C927 C 0.49626 0.51835 0.07081 0.0
C928 C 0.48153 0.50115 0.04479 0.0
C929 C 0.47007 0.49066 0.10684 0.0
C930 C 0.46589 0.50989 0.99047 0.0
C931 C 0.49705 0.4861 0.0106 0.0
C932 C 0.51731 0.49361 0.01736 0.0
C933 C 0.53445 0.48277 0.99021 0.0
C934 C 0.53082 0.46408 0.95326 0.0
C935 C 0.51018 0.45627 0.94308 0.0
C936 C 0.49308 0.46731 0.97342 0.0
H937 H 0.79548 0.23214 0.25084 0.0
H938 H 0.79881 0.29903 0.20937 0.0
H939 H 0.76541 0.30417 0.27239 0.0
H940 H 0.74052 0.22686 0.22663 0.0
H941 H 0.7365 0.20824 0.29693 0.0
H942 H 0.76151 0.20955 0.25277 0.0
H943 H 0.78032 0.21563 0.3721 0.0
H944 H 0.75541 0.21395 0.41678 0.0
H945 H 0.77182 0.23674 0.42853 0.0
H946 H 0.73057 0.30211 0.3327 0.0
H947 H 0.69825 0.29343 0.39819 0.0
H948 H 0.71679 0.22794 0.40332 0.0
C949 C 0.78943 0.24792 0.25663 0.0
C950 C 0.79994 0.26522 0.22541 0.0
C951 C 0.7912 0.28554 0.23299 0.0
C952 C 0.77213 0.28863 0.26847 0.0
C953 C 0.76184 0.27125 0.29657 0.0
C954 C 0.77027 0.25132 0.29215 0.0
C955 C 0.75568 0.23537 0.32646 0.0
C956 C 0.74811 0.21904 0.27246 0.0
C957 C 0.76645 0.2248 0.38973 0.0
C958 C 0.73773 0.24946 0.35018 0.0
C959 C 0.74163 0.27008 0.33197 0.0
C960 C 0.7274 0.28603 0.34759 0.0
C961 C 0.70898 0.28091 0.38448 0.0
C962 C 0.70482 0.26 0.40574 0.0
C963 C 0.71935 0.24405 0.38732 0.0
H964 H 0.28712 0.27364 0.37793 0.0
H965 H 0.29164 0.20697 0.42218 0.0
H966 H 0.25771 0.20113 0.36321 0.0
H967 H 0.23139 0.27824 0.40449 0.0
H968 H 0.2272 0.29641 0.333 0.0
H969 H 0.25216 0.29576 0.37773 0.0
H970 H 0.27122 0.28942 0.25902 0.0
H971 H 0.24635 0.29041 0.21385 0.0
H972 H 0.26313 0.26786 0.20378 0.0
H973 H 0.22308 0.20218 0.30198 0.0
H974 H 0.19145 0.20964 0.23131 0.0
H975 H 0.20843 0.27555 0.22437 0.0
C976 C 0.28107 0.2578 0.37437 0.0
C977 C 0.29218 0.24075 0.40474 0.0
C978 C 0.28357 0.22029 0.39934 0.0
C979 C 0.26419 0.21681 0.3662 0.0
C980 C 0.25344 0.23391 0.33828 0.0
C981 C 0.26163 0.25399 0.34105 0.0
C982 C 0.24683 0.26947 0.30549 0.0
C983 C 0.23893 0.28595 0.35834 0.0
C984 C 0.25752 0.2799 0.24174 0.0
C985 C 0.22914 0.25493 0.28239 0.0
C986 C 0.23329 0.23452 0.30246 0.0
C987 C 0.21964 0.21812 0.28607 0.0
C988 C 0.20162 0.22253 0.24618 0.0
C989 C 0.19725 0.24319 0.22285 0.0
C990 C 0.21106 0.25967 0.24258 0.0
H991 H 0.29004 0.77884 0.72036 0.0
H992 H 0.30718 0.71297 0.72051 0.0
H993 H 0.27467 0.70453 0.78536 0.0
H994 H 0.26617 0.77921 0.89682 0.0
H995 H 0.24569 0.79721 0.8716 0.0
H996 H 0.27079 0.79816 0.82793 0.0
H997 H 0.25213 0.79373 0.70749 0.0
H998 H 0.22701 0.79237 0.7509 0.0
H999 H 0.23522 0.77144 0.6933 0.0
H1000 H 0.23967 0.7028 0.84496 0.0
H1001 H 0.20615 0.70824 0.90708 0.0
H1002 H 0.21097 0.77527 0.87025 0.0
C1003 C 0.28715 0.7627 0.7353 0.0
C1004 C 0.30132 0.74657 0.71561 0.0
C1005 C 0.29673 0.72562 0.7353 0.0
C1006 C 0.2782 0.72064 0.77181 0.0
C1007 C 0.26431 0.73678 0.78857 0.0
C1008 C 0.26865 0.75744 0.77195 0.0
C1009 C 0.25093 0.77172 0.79621 0.0
C1010 C 0.25887 0.78751 0.85143 0.0
C1011 C 0.24072 0.78298 0.7332 0.0
C1012 C 0.23594 0.75585 0.82883 0.0
C1013 C 0.244 0.73579 0.82331 0.0
C1014 C 0.23325 0.71845 0.84975 0.0
C1015 C 0.21412 0.7217 0.88468 0.0
C1016 C 0.20576 0.74215 0.89326 0.0
C1017 C 0.21672 0.75942 0.86368 0.0
H1018 H 0.50788 0.97767 0.19037 0.0
H1019 H 0.47755 0.93027 0.06186 0.0
H1020 H 0.46996 0.95712 0.97077 0.0
H1021 H 0.47468 0.02168 0.1461 0.0
H1022 H 0.49589 0.04038 0.14157 0.0
H1023 H 0.49795 0.01786 0.19867 0.0
H1024 H 0.53267 0.00712 0.13779 0.0
H1025 H 0.53083 0.02969 0.08093 0.0
H1026 H 0.53324 0.00383 0.04338 0.0
H1027 H 0.46434 0.9892 0.89677 0.0
H1028 H 0.4658 0.0228 0.83386 0.0
H1029 H 0.50325 0.04952 0.00296 0.0
C1030 C 0.49956 0.97302 0.14306 0.0
C1031 C 0.49302 0.95193 0.13333 0.0
C1032 C 0.4826 0.94631 0.0703 0.0
C1033 C 0.47815 0.96149 0.01858 0.0
C1034 C 0.48465 0.98216 0.02993 0.0
C1035 C 0.49556 0.98788 0.08984 0.0
C1036 C 0.50208 0.01086 0.08642 0.0
C1037 C 0.49205 0.02344 0.14679 0.0
C1038 C 0.52614 0.01299 0.08716 0.0
C1039 C 0.493 0.01724 0.01536 0.0
C1040 C 0.48267 1.00046 0.98465 0.0
C1041 C 0.47253 1.00237 0.92005 0.0
C1042 C 0.47338 0.02168 0.88486 0.0
C1043 C 0.48465 0.03898 0.91315 0.0
C1044 C 0.49446 0.0367 0.97988 0.0
H1045 H 0.02853 0.0443 0.60891 0.0
H1046 H 0.96584 0.06819 0.56895 0.0
H1047 H 0.9579 0.03691 0.49748 0.0
H1048 H 0.03595 0.02128 0.43176 0.0
H1049 H 0.05033 0.99904 0.46511 0.0
H1050 H 0.05141 0.02377 0.51098 0.0
H1051 H 0.03905 0.00527 0.6253 0.0
H1052 H 0.03756 0.98057 0.57948 0.0
H1053 H 0.01483 0.99062 0.62483 0.0
H1054 H 0.95545 1.00176 0.43929 0.0
H1055 H 0.96042 0.96747 0.38171 0.0
H1056 H 0.02529 0.96648 0.45178 0.0
C1057 C 0.0133 0.04316 0.58383 0.0
C1058 C 0.99783 0.05885 0.59453 0.0
C1059 C 0.97802 0.05656 0.56133 0.0
C1060 C 0.97328 0.03873 0.52095 0.0
C1061 C 0.98859 0.0233 0.51326 0.0
C1062 C 0.00836 0.02549 0.54235 0.0
C1063 C 0.02194 0.00654 0.52509 0.0
C1064 C 0.04104 0.01305 0.48057 0.0
C1065 C 0.02874 0.99508 0.59271 0.0
C1066 C 0.00663 0.99331 0.48239 0.0
C1067 C 0.98741 0.00322 0.47717 0.0
C1068 C 0.97051 0.99396 0.44235 0.0
C1069 C 0.97345 0.97435 0.41021 0.0
C1070 C 0.99323 0.9642 0.41206 0.0
C1071 C 0.00997 0.97379 0.44945 0.0
loop_
_geom_bond_atom_site_label_1
_geom_bond_atom_site_label_2
_geom_bond_distance
_geom_bond_site_symmetry_2
_ccdc_geom_bond_type
In0 O1 2.294 1_455 S
In0 O2 2.326 . S
In0 O6 2.266 1_455 S
In0 O7 2.326 1_455 S
In0 O8 2.266 . S
In0 O9 2.326 . S
In0 O11 2.294 . S
In0 O12 2.326 1_455 S
O1 In0 2.294 1_655 S
O1 C10 1.240 1_655 S
O2 In0 2.326 . S
O2 C10 1.252 . S
C3 O6 1.252 . S
C3 O7 1.260 . S
C4 O11 1.240 1_655 S
C4 O12 1.252 . S
C5 O8 1.252 . S
C5 O9 1.260 . S
O6 In0 2.266 1_655 S
O6 C3 1.252 . S
O7 In0 2.326 1_655 S
O7 C3 1.260 . S
O8 In0 2.266 . S
O8 C5 1.252 . S
O9 In0 2.326 . S
O9 C5 1.260 . S
C10 O1 1.240 1_455 S
C10 O2 1.252 . S
O11 In0 2.294 . S
O11 C4 1.240 1_455 S
O12 In0 2.326 1_655 S
O12 C4 1.252 . S
In13 O14 2.294 . S
In13 O15 2.326 . S
In13 O19 2.266 . S
In13 O20 2.326 . S
In13 O21 2.266 . S
In13 O22 2.326 . S
In13 O24 2.294 . S
In13 O25 2.326 . S
O14 In13 2.294 . S
O14 C23 1.240 . S
O15 In13 2.326 . S
O15 C23 1.252 . S
C16 O19 1.252 . S
C16 O20 1.260 . S
C17 O24 1.240 . S
C17 O25 1.252 . S
C18 O21 1.252 . S
C18 O22 1.260 . S
O19 In13 2.266 . S
O19 C16 1.252 . S
O20 In13 2.326 . S
O20 C16 1.260 . S
O21 In13 2.266 . S
O21 C18 1.252 . S
O22 In13 2.326 . S
O22 C18 1.260 . S
C23 O14 1.240 . S
C23 O15 1.252 . S
O24 In13 2.294 . S
O24 C17 1.240 . S
O25 In13 2.326 . S
O25 C17 1.252 . S
In26 O27 2.294 . S
In26 O28 2.326 . S
In26 O32 2.266 . S
In26 O33 2.326 . S
In26 O34 2.266 . S
In26 O35 2.326 . S
In26 O37 2.294 . S
In26 O38 2.326 . S
O27 In26 2.294 . S
O27 C36 1.240 . S
O28 In26 2.326 . S
O28 C36 1.252 . S
C29 O32 1.252 . S
C29 O33 1.260 . S
C30 O37 1.240 . S
C30 O38 1.252 . S
C31 O34 1.252 . S
C31 O35 1.260 . S
O32 In26 2.266 . S
O32 C29 1.252 . S
O33 In26 2.326 . S
O33 C29 1.260 . S
O34 In26 2.266 . S
O34 C31 1.252 . S
O35 In26 2.326 . S
O35 C31 1.260 . S
C36 O27 1.240 . S
C36 O28 1.252 . S
O37 In26 2.294 . S
O37 C30 1.240 . S
O38 In26 2.326 . S
O38 C30 1.252 . S
In39 O40 2.293 1_554 S
In39 O41 2.326 1_554 S
In39 O45 2.266 1_554 S
In39 O46 2.326 . S
In39 O47 2.266 . S
In39 O48 2.325 1_554 S
In39 O50 2.295 . S
In39 O51 2.327 . S
O40 In39 2.293 1_556 S
O40 C49 1.240 . S
O41 In39 2.326 1_556 S
O41 C49 1.252 . S
C42 O45 1.252 1_554 S
C42 O46 1.260 . S
C43 O50 1.240 . S
C43 O51 1.252 . S
C44 O47 1.252 1_556 S
C44 O48 1.260 . S
O45 In39 2.266 1_556 S
O45 C42 1.252 1_556 S
O46 In39 2.326 . S
O46 C42 1.260 . S
O47 In39 2.266 . S
O47 C44 1.252 1_554 S
O48 In39 2.325 1_556 S
O48 C44 1.260 . S
C49 O40 1.240 . S
C49 O41 1.252 . S
O50 In39 2.295 . S
O50 C43 1.240 . S
O51 In39 2.327 . S
O51 C43 1.252 . S
In52 O53 2.294 . S
In52 O54 2.326 1_455 S
In52 O58 2.266 . S
In52 O59 2.326 . S
In52 O60 2.266 1_455 S
In52 O61 2.326 1_455 S
In52 O63 2.294 1_455 S
In52 O64 2.326 . S
O53 In52 2.294 . S
O53 C62 1.240 1_455 S
O54 In52 2.326 1_655 S
O54 C62 1.252 . S
C55 O58 1.252 . S
C55 O59 1.260 . S
C56 O63 1.240 1_455 S
C56 O64 1.252 . S
C57 O60 1.252 . S
C57 O61 1.260 . S
O58 In52 2.266 . S
O58 C55 1.252 . S
O59 In52 2.326 . S
O59 C55 1.260 . S
O60 In52 2.266 1_655 S
O60 C57 1.252 . S
O61 In52 2.326 1_655 S
O61 C57 1.260 . S
C62 O53 1.240 1_655 S
C62 O54 1.252 . S
O63 In52 2.294 1_655 S
O63 C56 1.240 1_655 S
O64 In52 2.326 . S
O64 C56 1.252 . S
In65 O66 2.294 . S
In65 O67 2.326 . S
In65 O71 2.266 . S
In65 O72 2.326 . S
In65 O73 2.266 . S
In65 O74 2.326 . S
In65 O76 2.294 1_554 S
In65 O77 2.326 . S
O66 In65 2.294 . S
O66 C75 1.240 . S
O67 In65 2.326 . S
O67 C75 1.252 . S
C68 O71 1.252 . S
C68 O72 1.260 . S
C69 O76 1.240 . S
C69 O77 1.252 1_556 S
C70 O73 1.252 . S
C70 O74 1.260 . S
O71 In65 2.266 . S
O71 C68 1.252 . S
O72 In65 2.326 . S
O72 C68 1.260 . S
O73 In65 2.266 . S
O73 C70 1.252 . S
O74 In65 2.326 . S
O74 C70 1.260 . S
C75 O66 1.240 . S
C75 O67 1.252 . S
O76 In65 2.294 1_556 S
O76 C69 1.240 . S
O77 In65 2.326 . S
O77 C69 1.252 1_554 S
In78 O79 2.294 . S
In78 O80 2.326 . S
In78 O84 2.266 . S
In78 O85 2.326 . S
In78 O86 2.266 . S
In78 O87 2.326 . S
In78 O89 2.294 . S
In78 O90 2.326 . S
O79 In78 2.294 . S
O79 C88 1.240 . S
O80 In78 2.326 . S
O80 C88 1.252 . S
C81 O84 1.252 . S
C81 O85 1.260 . S
C82 O89 1.240 . S
C82 O90 1.252 . S
C83 O86 1.252 . S
C83 O87 1.260 . S
O84 In78 2.266 . S
O84 C81 1.252 . S
O85 In78 2.326 . S
O85 C81 1.260 . S
O86 In78 2.266 . S
O86 C83 1.252 . S
O87 In78 2.326 . S
O87 C83 1.260 . S
C88 O79 1.240 . S
C88 O80 1.252 . S
O89 In78 2.294 . S
O89 C82 1.240 . S
O90 In78 2.326 . S
O90 C82 1.252 . S
In91 O92 2.294 . S
In91 O93 2.326 . S
In91 O97 2.266 . S
In91 O98 2.326 . S
In91 O99 2.266 . S
In91 O100 2.326 . S
In91 O102 2.294 . S
In91 O103 2.326 . S
O92 In91 2.294 . S
O92 C101 1.240 . S
O93 In91 2.326 . S
O93 C101 1.252 . S
C94 O97 1.252 . S
C94 O98 1.260 . S
C95 O102 1.240 . S
C95 O103 1.252 . S
C96 O99 1.252 . S
C96 O100 1.260 . S
O97 In91 2.266 . S
O97 C94 1.252 . S
O98 In91 2.326 . S
O98 C94 1.260 . S
O99 In91 2.266 . S
O99 C96 1.252 . S
O100 In91 2.326 . S
O100 C96 1.260 . S
C101 O92 1.240 . S
C101 O93 1.252 . S
O102 In91 2.294 . S
O102 C95 1.240 . S
O103 In91 2.326 . S
O103 C95 1.252 . S
In104 O105 2.294 . S
In104 O106 2.326 . S
In104 O110 2.266 . S
In104 O111 2.326 . S
In104 O112 2.266 . S
In104 O113 2.326 . S
In104 O115 2.294 . S
In104 O116 2.326 . S
O105 In104 2.294 . S
O105 C114 1.240 . S
O106 In104 2.326 . S
O106 C114 1.252 . S
C107 O110 1.252 . S
C107 O111 1.260 . S
C108 O115 1.240 . S
C108 O116 1.252 . S
C109 O112 1.252 . S
C109 O113 1.260 . S
O110 In104 2.266 . S
O110 C107 1.252 . S
O111 In104 2.326 . S
O111 C107 1.260 . S
O112 In104 2.266 . S
O112 C109 1.252 . S
O113 In104 2.326 . S
O113 C109 1.260 . S
C114 O105 1.240 . S
C114 O106 1.252 . S
O115 In104 2.294 . S
O115 C108 1.240 . S
O116 In104 2.326 . S
O116 C108 1.252 . S
In117 O118 2.294 1_554 S
In117 O119 2.326 . S
In117 O123 2.266 . S
In117 O124 2.326 . S
In117 O125 2.266 . S
In117 O126 2.326 . S
In117 O128 2.294 . S
In117 O129 2.326 . S
O118 In117 2.294 1_556 S
O118 C127 1.240 . S
O119 In117 2.326 . S
O119 C127 1.252 1_554 S
C120 O123 1.252 . S
C120 O124 1.260 . S
C121 O128 1.240 . S
C121 O129 1.252 . S
C122 O125 1.252 . S
C122 O126 1.260 . S
O123 In117 2.266 . S
O123 C120 1.252 . S
O124 In117 2.326 . S
O124 C120 1.260 . S
O125 In117 2.266 . S
O125 C122 1.252 . S
O126 In117 2.326 . S
O126 C122 1.260 . S
C127 O118 1.240 . S
C127 O119 1.252 1_556 S
O128 In117 2.294 . S
O128 C121 1.240 . S
O129 In117 2.326 . S
O129 C121 1.252 . S
In130 O131 2.295 . S
In130 O132 2.327 . S
In130 O136 2.266 . S
In130 O137 2.325 1_554 S
In130 O138 2.266 1_554 S
In130 O139 2.326 . S
In130 O141 2.293 1_554 S
In130 O142 2.326 1_554 S
O131 In130 2.295 . S
O131 C140 1.240 . S
O132 In130 2.327 . S
O132 C140 1.252 . S
C133 O136 1.252 1_556 S
C133 O137 1.260 . S
C134 O141 1.240 . S
C134 O142 1.252 . S
C135 O138 1.252 1_554 S
C135 O139 1.260 . S
O136 In130 2.266 . S
O136 C133 1.252 1_554 S
O137 In130 2.325 1_556 S
O137 C133 1.260 . S
O138 In130 2.266 1_556 S
O138 C135 1.252 1_556 S
O139 In130 2.326 . S
O139 C135 1.260 . S
C140 O131 1.240 . S
C140 O132 1.252 . S
O141 In130 2.293 1_556 S
O141 C134 1.240 . S
O142 In130 2.326 1_556 S
O142 C134 1.252 . S
In143 O144 2.294 . S
In143 O145 2.326 . S
In143 O149 2.266 . S
In143 O150 2.326 . S
In143 O151 2.266 . S
In143 O152 2.326 . S
In143 O154 2.294 . S
In143 O155 2.326 . S
O144 In143 2.294 . S
O144 C153 1.240 . S
O145 In143 2.326 . S
O145 C153 1.252 . S
C146 O149 1.252 . S
C146 O150 1.260 . S
C147 O154 1.240 . S
C147 O155 1.252 . S
C148 O151 1.252 . S
C148 O152 1.260 . S
O149 In143 2.266 . S
O149 C146 1.252 . S
O150 In143 2.326 . S
O150 C146 1.260 . S
O151 In143 2.266 . S
O151 C148 1.252 . S
O152 In143 2.326 . S
O152 C148 1.260 . S
C153 O144 1.240 . S
C153 O145 1.252 . S
O154 In143 2.294 . S
O154 C147 1.240 . S
O155 In143 2.326 . S
O155 C147 1.252 . S
In156 O157 2.294 . S
In156 O158 2.326 . S
In156 O162 2.266 . S
In156 O163 2.326 . S
In156 O164 2.266 . S
In156 O165 2.326 . S
In156 O167 2.294 . S
In156 O168 2.326 . S
O157 In156 2.294 . S
O157 C166 1.240 . S
O158 In156 2.326 . S
O158 C166 1.252 . S
C159 O162 1.252 . S
C159 O163 1.260 . S
C160 O167 1.240 . S
C160 O168 1.252 . S
C161 O164 1.252 . S
C161 O165 1.260 . S
O162 In156 2.266 . S
O162 C159 1.252 . S
O163 In156 2.326 . S
O163 C159 1.260 . S
O164 In156 2.266 . S
O164 C161 1.252 . S
O165 In156 2.326 . S
O165 C161 1.260 . S
C166 O157 1.240 . S
C166 O158 1.252 . S
O167 In156 2.294 . S
O167 C160 1.240 . S
O168 In156 2.326 . S
O168 C160 1.252 . S
In169 O170 2.294 1_455 S
In169 O171 2.326 . S
In169 O175 2.266 1_455 S
In169 O176 2.326 1_455 S
In169 O177 2.266 . S
In169 O178 2.326 . S
In169 O180 2.294 . S
In169 O181 2.326 1_455 S
O170 In169 2.294 1_655 S
O170 C179 1.240 1_655 S
O171 In169 2.326 . S
O171 C179 1.252 . S
C172 O175 1.252 . S
C172 O176 1.260 . S
C173 O180 1.240 1_655 S
C173 O181 1.252 . S
C174 O177 1.252 . S
C174 O178 1.260 . S
O175 In169 2.266 1_655 S
O175 C172 1.252 . S
O176 In169 2.326 1_655 S
O176 C172 1.260 . S
O177 In169 2.266 . S
O177 C174 1.252 . S
O178 In169 2.326 . S
O178 C174 1.260 . S
C179 O170 1.240 1_455 S
C179 O171 1.252 . S
O180 In169 2.294 . S
O180 C173 1.240 1_455 S
O181 In169 2.326 1_655 S
O181 C173 1.252 . S
In182 O183 2.294 . S
In182 O184 2.326 . S
In182 O188 2.266 . S
In182 O189 2.326 . S
In182 O190 2.266 . S
In182 O191 2.326 . S
In182 O193 2.294 . S
In182 O194 2.326 . S
O183 In182 2.294 . S
O183 C192 1.240 . S
O184 In182 2.326 . S
O184 C192 1.252 . S
C185 O188 1.252 . S
C185 O189 1.260 . S
C186 O193 1.240 . S
C186 O194 1.252 . S
C187 O190 1.252 . S
C187 O191 1.260 . S
O188 In182 2.266 . S
O188 C185 1.252 . S
O189 In182 2.326 . S
O189 C185 1.260 . S
O190 In182 2.266 . S
O190 C187 1.252 . S
O191 In182 2.326 . S
O191 C187 1.260 . S
C192 O183 1.240 . S
C192 O184 1.252 . S
O193 In182 2.294 . S
O193 C186 1.240 . S
O194 In182 2.326 . S
O194 C186 1.252 . S
In195 O196 2.294 . S
In195 O197 2.326 1_455 S
In195 O201 2.266 . S
In195 O202 2.326 . S
In195 O203 2.266 1_455 S
In195 O204 2.326 1_455 S
In195 O206 2.294 1_455 S
In195 O207 2.326 . S
O196 In195 2.294 . S
O196 C205 1.240 1_455 S
O197 In195 2.326 1_655 S
O197 C205 1.252 . S
C198 O201 1.252 . S
C198 O202 1.260 . S
C199 O206 1.240 1_455 S
C199 O207 1.252 . S
C200 O203 1.252 . S
C200 O204 1.260 . S
O201 In195 2.266 . S
O201 C198 1.252 . S
O202 In195 2.326 . S
O202 C198 1.260 . S
O203 In195 2.266 1_655 S
O203 C200 1.252 . S
O204 In195 2.326 1_655 S
O204 C200 1.260 . S
C205 O196 1.240 1_655 S
C205 O197 1.252 . S
O206 In195 2.294 1_655 S
O206 C199 1.240 1_655 S
O207 In195 2.326 . S
O207 C199 1.252 . S
H208 C220 0.930 . S
H209 C222 0.930 . S
H210 C223 0.930 . S
H211 C227 0.959 . S
H212 C227 0.959 . S
H213 C227 0.961 . S
H214 C228 0.960 . S
H215 C228 0.961 . S
H216 C228 0.959 . S
H217 C231 0.929 . S
H218 C232 0.931 . S
H219 C234 0.930 . S
C220 H208 0.930 . S
C220 C221 1.399 . S
C220 C225 1.399 . S
C221 C220 1.399 . S
C221 C222 1.376 . S
C222 H209 0.930 . S
C222 C221 1.376 . S
C222 C223 1.388 . S
C223 H210 0.930 . S
C223 C222 1.388 . S
C223 C224 1.390 . S
C224 C223 1.390 . S
C224 C225 1.394 . S
C224 C230 1.465 . S
C225 C220 1.399 . S
C225 C224 1.394 . S
C225 C226 1.516 . S
C226 C225 1.516 . S
C226 C227 1.502 . S
C226 C228 1.561 . S
C226 C229 1.526 . S
C227 H211 0.959 . S
C227 H212 0.959 . S
C227 H213 0.961 . S
C227 C226 1.502 . S
C228 H214 0.960 . S
C228 H215 0.961 . S
C228 H216 0.959 . S
C228 C226 1.561 . S
C229 C226 1.526 . S
C229 C230 1.396 . S
C229 C234 1.390 . S
C230 C224 1.465 . S
C230 C229 1.396 . S
C230 C231 1.399 . S
C231 H217 0.929 . S
C231 C230 1.399 . S
C231 C232 1.385 . S
C232 H218 0.931 . S
C232 C231 1.385 . S
C232 C233 1.389 . S
C233 C232 1.389 . S
C233 C234 1.387 . S
C234 H219 0.930 . S
C234 C229 1.390 . S
C234 C233 1.387 . S
H235 C247 0.930 . S
H236 C249 0.930 . S
H237 C250 0.930 . S
H238 C254 0.959 . S
H239 C254 0.959 . S
H240 C254 0.961 . S
H241 C255 0.960 . S
H242 C255 0.961 . S
H243 C255 0.959 . S
H244 C258 0.929 . S
H245 C259 0.931 . S
H246 C261 0.930 . S
C247 H235 0.930 . S
C247 C248 1.399 . S
C247 C252 1.399 . S
C248 C247 1.399 . S
C248 C249 1.376 . S
C249 H236 0.930 . S
C249 C248 1.376 . S
C249 C250 1.388 . S
C250 H237 0.930 . S
C250 C249 1.388 . S
C250 C251 1.390 . S
C251 C250 1.390 . S
C251 C252 1.394 . S
C251 C257 1.465 . S
C252 C247 1.399 . S
C252 C251 1.394 . S
C252 C253 1.516 . S
C253 C252 1.516 . S
C253 C254 1.502 . S
C253 C255 1.561 . S
C253 C256 1.526 . S
C254 H238 0.959 . S
C254 H239 0.959 . S
C254 H240 0.961 . S
C254 C253 1.502 . S
C255 H241 0.960 . S
C255 H242 0.961 . S
C255 H243 0.959 . S
C255 C253 1.561 . S
C256 C253 1.526 . S
C256 C257 1.396 . S
C256 C261 1.390 . S
C257 C251 1.465 . S
C257 C256 1.396 . S
C257 C258 1.399 . S
C258 H244 0.929 . S
C258 C257 1.399 . S
C258 C259 1.385 . S
C259 H245 0.931 . S
C259 C258 1.385 . S
C259 C260 1.389 . S
C260 C259 1.389 . S
C260 C261 1.387 . S
C261 H246 0.930 . S
C261 C256 1.390 . S
C261 C260 1.387 . S
H262 C274 0.930 . S
H263 C276 0.930 . S
H264 C277 0.930 . S
H265 C281 0.959 . S
H266 C281 0.959 . S
H267 C281 0.961 . S
H268 C282 0.960 . S
H269 C282 0.961 . S
H270 C282 0.959 . S
H271 C285 0.929 . S
H272 C286 0.931 . S
H273 C288 0.930 . S
C274 H262 0.930 . S
C274 C275 1.399 . S
C274 C279 1.399 . S
C275 C274 1.399 . S
C275 C276 1.376 . S
C276 H263 0.930 . S
C276 C275 1.376 . S
C276 C277 1.388 . S
C277 H264 0.930 . S
C277 C276 1.388 . S
C277 C278 1.390 . S
C278 C277 1.390 . S
C278 C279 1.394 . S
C278 C284 1.465 . S
C279 C274 1.399 . S
C279 C278 1.394 . S
C279 C280 1.516 . S
C280 C279 1.516 . S
C280 C281 1.502 . S
C280 C282 1.561 . S
C280 C283 1.526 . S
C281 H265 0.959 . S
C281 H266 0.959 . S
C281 H267 0.961 . S
C281 C280 1.502 . S
C282 H268 0.960 . S
C282 H269 0.961 . S
C282 H270 0.959 . S
C282 C280 1.561 . S
C283 C280 1.526 . S
C283 C284 1.396 . S
C283 C288 1.390 . S
C284 C278 1.465 . S
C284 C283 1.396 . S
C284 C285 1.399 . S
C285 H271 0.929 . S
C285 C284 1.399 . S
C285 C286 1.385 . S
C286 H272 0.931 . S
C286 C285 1.385 . S
C286 C287 1.389 . S
C287 C286 1.389 . S
C287 C288 1.387 . S
C288 H273 0.930 . S
C288 C283 1.390 . S
C288 C287 1.387 . S
H289 C301 0.930 1_554 S
H290 C303 0.930 . S
H291 C304 0.930 . S
H292 C308 0.959 1_556 S
H293 C308 0.959 . S
H294 C308 0.961 . S
H295 C309 0.960 . S
H296 C309 0.961 . S
H297 C309 0.959 . S
H298 C312 0.929 . S
H299 C313 0.931 . S
H300 C315 0.930 . S
C301 H289 0.930 1_556 S
C301 C302 1.399 . S
C301 C306 1.399 . S
C302 C301 1.399 . S
C302 C303 1.376 . S
C303 H290 0.930 . S
C303 C302 1.376 . S
C303 C304 1.388 . S
C304 H291 0.930 . S
C304 C303 1.388 . S
C304 C305 1.390 . S
C305 C304 1.390 . S
C305 C306 1.394 . S
C305 C311 1.465 . S
C306 C301 1.399 . S
C306 C305 1.394 . S
C306 C307 1.516 . S
C307 C306 1.516 . S
C307 C308 1.502 1_556 S
C307 C309 1.561 1_556 S
C307 C310 1.526 . S
C308 H292 0.959 1_554 S
C308 H293 0.959 . S
C308 H294 0.961 . S
C308 C307 1.502 1_554 S
C309 H295 0.960 . S
C309 H296 0.961 . S
C309 H297 0.959 . S
C309 C307 1.561 1_554 S
C310 C307 1.526 . S
C310 C311 1.396 . S
C310 C315 1.390 . S
C311 C305 1.465 . S
C311 C310 1.396 . S
C311 C312 1.399 . S
C312 H298 0.929 . S
C312 C311 1.399 . S
C312 C313 1.385 . S
C313 H299 0.931 . S
C313 C312 1.385 . S
C313 C314 1.389 . S
C314 C313 1.389 . S
C314 C315 1.387 . S
C315 H300 0.930 . S
C315 C310 1.390 . S
C315 C314 1.387 . S
H316 C328 0.930 . S
H317 C330 0.930 . S
H318 C331 0.930 . S
H319 C335 0.959 1_556 S
H320 C335 0.959 . S
H321 C335 0.961 . S
H322 C336 0.960 . S
H323 C336 0.961 . S
H324 C336 0.959 . S
H325 C339 0.929 . S
H326 C340 0.931 . S
H327 C342 0.930 1_554 S
C328 H316 0.930 . S
C328 C329 1.399 . S
C328 C333 1.399 . S
C329 C328 1.399 . S
C329 C330 1.376 . S
C330 H317 0.930 . S
C330 C329 1.376 . S
C330 C331 1.388 . S
C331 H318 0.930 . S
C331 C330 1.388 . S
C331 C332 1.390 . S
C332 C331 1.390 . S
C332 C333 1.394 . S
C332 C338 1.465 . S
C333 C328 1.399 . S
C333 C332 1.394 . S
C333 C334 1.516 . S
C334 C333 1.516 . S
C334 C335 1.502 1_556 S
C334 C336 1.561 1_556 S
C334 C337 1.526 . S
C335 H319 0.959 1_554 S
C335 H320 0.959 . S
C335 H321 0.961 . S
C335 C334 1.502 1_554 S
C336 H322 0.960 . S
C336 H323 0.961 . S
C336 H324 0.959 . S
C336 C334 1.561 1_554 S
C337 C334 1.526 . S
C337 C338 1.396 . S
C337 C342 1.390 . S
C338 C332 1.465 . S
C338 C337 1.396 . S
C338 C339 1.399 . S
C339 H325 0.929 . S
C339 C338 1.399 . S
C339 C340 1.385 . S
C340 H326 0.931 . S
C340 C339 1.385 . S
C340 C341 1.389 . S
C341 C340 1.389 . S
C341 C342 1.387 . S
C342 H327 0.930 1_556 S
C342 C337 1.390 . S
C342 C341 1.387 . S
H343 C355 0.930 . S
H344 C357 0.930 . S
H345 C358 0.930 . S
H346 C362 0.959 . S
H347 C362 0.959 . S
H348 C362 0.961 . S
H349 C363 0.960 . S
H350 C363 0.961 . S
H351 C363 0.959 . S
H352 C366 0.929 . S
H353 C367 0.931 . S
H354 C369 0.930 . S
C355 H343 0.930 . S
C355 C356 1.399 . S
C355 C360 1.399 . S
C356 C355 1.399 . S
C356 C357 1.376 . S
C357 H344 0.930 . S
C357 C356 1.376 . S
C357 C358 1.388 . S
C358 H345 0.930 . S
C358 C357 1.388 . S
C358 C359 1.390 . S
C359 C358 1.390 . S
C359 C360 1.394 . S
C359 C365 1.465 . S
C360 C355 1.399 . S
C360 C359 1.394 . S
C360 C361 1.516 . S
C361 C360 1.516 . S
C361 C362 1.502 . S
C361 C363 1.561 . S
C361 C364 1.526 . S
C362 H346 0.959 . S
C362 H347 0.959 . S
C362 H348 0.961 . S
C362 C361 1.502 . S
C363 H349 0.960 . S
C363 H350 0.961 . S
C363 H351 0.959 . S
C363 C361 1.561 . S
C364 C361 1.526 . S
C364 C365 1.396 . S
C364 C369 1.390 . S
C365 C359 1.465 . S
C365 C364 1.396 . S
C365 C366 1.399 . S
C366 H352 0.929 . S
C366 C365 1.399 . S
C366 C367 1.385 . S
C367 H353 0.931 . S
C367 C366 1.385 . S
C367 C368 1.389 . S
C368 C367 1.389 . S
C368 C369 1.387 . S
C369 H354 0.930 . S
C369 C364 1.390 . S
C369 C368 1.387 . S
H370 C382 0.930 . S
H371 C384 0.930 . S
H372 C385 0.930 . S
H373 C389 0.959 . S
H374 C389 0.959 . S
H375 C389 0.961 . S
H376 C390 0.960 . S
H377 C390 0.961 . S
H378 C390 0.959 . S
H379 C393 0.929 . S
H380 C394 0.931 . S
H381 C396 0.930 . S
C382 H370 0.930 . S
C382 C383 1.399 . S
C382 C387 1.399 . S
C383 C382 1.399 . S
C383 C384 1.376 . S
C384 H371 0.930 . S
C384 C383 1.376 . S
C384 C385 1.388 . S
C385 H372 0.930 . S
C385 C384 1.388 . S
C385 C386 1.390 . S
C386 C385 1.390 . S
C386 C387 1.394 . S
C386 C392 1.465 . S
C387 C382 1.399 . S
C387 C386 1.394 . S
C387 C388 1.516 . S
C388 C387 1.516 . S
C388 C389 1.502 . S
C388 C390 1.561 . S
C388 C391 1.526 . S
C389 H373 0.959 . S
C389 H374 0.959 . S
C389 H375 0.961 . S
C389 C388 1.502 . S
C390 H376 0.960 . S
C390 H377 0.961 . S
C390 H378 0.959 . S
C390 C388 1.561 . S
C391 C388 1.526 . S
C391 C392 1.396 . S
C391 C396 1.390 . S
C392 C386 1.465 . S
C392 C391 1.396 . S
C392 C393 1.399 . S
C393 H379 0.929 . S
C393 C392 1.399 . S
C393 C394 1.385 . S
C394 H380 0.931 . S
C394 C393 1.385 . S
C394 C395 1.389 . S
C395 C394 1.389 . S
C395 C396 1.387 . S
C396 H381 0.930 . S
C396 C391 1.390 . S
C396 C395 1.387 . S
H397 C409 0.930 . S
H398 C411 0.930 . S
H399 C412 0.930 . S
H400 C416 0.959 . S
H401 C416 0.959 . S
H402 C416 0.961 . S
H403 C417 0.960 . S
H404 C417 0.961 . S
H405 C417 0.959 . S
H406 C420 0.929 . S
H407 C421 0.931 . S
H408 C423 0.930 . S
C409 H397 0.930 . S
C409 C410 1.399 . S
C409 C414 1.399 . S
C410 C409 1.399 . S
C410 C411 1.376 . S
C411 H398 0.930 . S
C411 C410 1.376 . S
C411 C412 1.388 . S
C412 H399 0.930 . S
C412 C411 1.388 . S
C412 C413 1.390 . S
C413 C412 1.390 . S
C413 C414 1.394 . S
C413 C419 1.465 . S
C414 C409 1.399 . S
C414 C413 1.394 . S
C414 C415 1.516 . S
C415 C414 1.516 . S
C415 C416 1.502 . S
C415 C417 1.561 . S
C415 C418 1.526 . S
C416 H400 0.959 . S
C416 H401 0.959 . S
C416 H402 0.961 . S
C416 C415 1.502 . S
C417 H403 0.960 . S
C417 H404 0.961 . S
C417 H405 0.959 . S
C417 C415 1.561 . S
C418 C415 1.526 . S
C418 C419 1.396 . S
C418 C423 1.390 . S
C419 C413 1.465 . S
C419 C418 1.396 . S
C419 C420 1.399 . S
C420 H406 0.929 . S
C420 C419 1.399 . S
C420 C421 1.385 . S
C421 H407 0.931 . S
C421 C420 1.385 . S
C421 C422 1.389 . S
C422 C421 1.389 . S
C422 C423 1.387 . S
C423 H408 0.930 . S
C423 C418 1.390 . S
C423 C422 1.387 . S
H424 C436 0.930 . S
H425 C438 0.930 . S
H426 C439 0.930 1_554 S
H427 C443 0.959 . S
H428 C443 0.959 . S
H429 C443 0.961 . S
H430 C444 0.960 . S
H431 C444 0.961 . S
H432 C444 0.959 . S
H433 C447 0.929 . S
H434 C448 0.931 . S
H435 C450 0.930 . S
C436 H424 0.930 . S
C436 C437 1.399 . S
C436 C441 1.399 . S
C437 C436 1.399 . S
C437 C438 1.376 . S
C438 H425 0.930 . S
C438 C437 1.376 . S
C438 C439 1.388 . S
C439 H426 0.930 1_556 S
C439 C438 1.388 . S
C439 C440 1.390 . S
C440 C439 1.390 . S
C440 C441 1.394 . S
C440 C446 1.465 . S
C441 C436 1.399 . S
C441 C440 1.394 . S
C441 C442 1.516 . S
C442 C441 1.516 . S
C442 C443 1.502 . S
C442 C444 1.561 . S
C442 C445 1.526 . S
C443 H427 0.959 . S
C443 H428 0.959 . S
C443 H429 0.961 . S
C443 C442 1.502 . S
C444 H430 0.960 . S
C444 H431 0.961 . S
C444 H432 0.959 . S
C444 C442 1.561 . S
C445 C442 1.526 . S
C445 C446 1.396 . S
C445 C450 1.390 . S
C446 C440 1.465 . S
C446 C445 1.396 . S
C446 C447 1.399 1_556 S
C447 H433 0.929 . S
C447 C446 1.399 1_554 S
C447 C448 1.385 . S
C448 H434 0.931 . S
C448 C447 1.385 . S
C448 C449 1.389 1_554 S
C449 C448 1.389 1_556 S
C449 C450 1.387 . S
C450 H435 0.930 . S
C450 C445 1.390 . S
C450 C449 1.387 . S
H451 C463 0.930 . S
H452 C465 0.930 . S
H453 C466 0.930 . S
H454 C470 0.959 . S
H455 C470 0.959 . S
H456 C470 0.961 . S
H457 C471 0.960 . S
H458 C471 0.961 . S
H459 C471 0.959 . S
H460 C474 0.929 . S
H461 C475 0.931 . S
H462 C477 0.930 . S
C463 H451 0.930 . S
C463 C464 1.399 . S
C463 C468 1.399 . S
C464 C463 1.399 . S
C464 C465 1.376 . S
C465 H452 0.930 . S
C465 C464 1.376 . S
C465 C466 1.388 . S
C466 H453 0.930 . S
C466 C465 1.388 . S
C466 C467 1.390 . S
C467 C466 1.390 . S
C467 C468 1.394 . S
C467 C473 1.465 . S
C468 C463 1.399 . S
C468 C467 1.394 . S
C468 C469 1.516 . S
C469 C468 1.516 . S
C469 C470 1.502 . S
C469 C471 1.561 . S
C469 C472 1.526 . S
C470 H454 0.959 . S
C470 H455 0.959 . S
C470 H456 0.961 . S
C470 C469 1.502 . S
C471 H457 0.960 . S
C471 H458 0.961 . S
C471 H459 0.959 . S
C471 C469 1.561 . S
C472 C469 1.526 . S
C472 C473 1.396 . S
C472 C477 1.390 . S
C473 C467 1.465 . S
C473 C472 1.396 . S
C473 C474 1.399 . S
C474 H460 0.929 . S
C474 C473 1.399 . S
C474 C475 1.385 . S
C475 H461 0.931 . S
C475 C474 1.385 . S
C475 C476 1.389 . S
C476 C475 1.389 . S
C476 C477 1.387 . S
C477 H462 0.930 . S
C477 C472 1.390 . S
C477 C476 1.387 . S
H478 C490 0.930 . S
H479 C492 0.930 . S
H480 C493 0.930 . S
H481 C497 0.959 . S
H482 C497 0.959 . S
H483 C497 0.961 . S
H484 C498 0.960 . S
H485 C498 0.961 . S
H486 C498 0.959 . S
H487 C501 0.929 . S
H488 C502 0.931 . S
H489 C504 0.930 . S
C490 H478 0.930 . S
C490 C491 1.399 . S
C490 C495 1.399 . S
C491 C490 1.399 . S
C491 C492 1.376 . S
C492 H479 0.930 . S
C492 C491 1.376 . S
C492 C493 1.388 . S
C493 H480 0.930 . S
C493 C492 1.388 . S
C493 C494 1.390 . S
C494 C493 1.390 . S
C494 C495 1.394 . S
C494 C500 1.465 . S
C495 C490 1.399 . S
C495 C494 1.394 . S
C495 C496 1.516 . S
C496 C495 1.516 . S
C496 C497 1.502 . S
C496 C498 1.561 . S
C496 C499 1.526 . S
C497 H481 0.959 . S
C497 H482 0.959 . S
C497 H483 0.961 . S
C497 C496 1.502 . S
C498 H484 0.960 . S
C498 H485 0.961 . S
C498 H486 0.959 . S
C498 C496 1.561 . S
C499 C496 1.526 . S
C499 C500 1.396 . S
C499 C504 1.390 . S
C500 C494 1.465 . S
C500 C499 1.396 . S
C500 C501 1.399 . S
C501 H487 0.929 . S
C501 C500 1.399 . S
C501 C502 1.385 . S
C502 H488 0.931 . S
C502 C501 1.385 . S
C502 C503 1.389 . S
C503 C502 1.389 . S
C503 C504 1.387 . S
C504 H489 0.930 . S
C504 C499 1.390 . S
C504 C503 1.387 . S
H505 C517 0.930 . S
H506 C519 0.930 . S
H507 C520 0.930 . S
H508 C524 0.959 . S
H509 C524 0.959 . S
H510 C524 0.961 . S
H511 C525 0.960 1_556 S
H512 C525 0.961 . S
H513 C525 0.959 . S
H514 C528 0.929 . S
H515 C529 0.931 . S
H516 C531 0.930 . S
C517 H505 0.930 . S
C517 C518 1.399 . S
C517 C522 1.399 . S
C518 C517 1.399 . S
C518 C519 1.376 . S
C519 H506 0.930 . S
C519 C518 1.376 . S
C519 C520 1.388 . S
C520 H507 0.930 . S
C520 C519 1.388 . S
C520 C521 1.390 . S
C521 C520 1.390 . S
C521 C522 1.394 . S
C521 C527 1.465 . S
C522 C517 1.399 . S
C522 C521 1.394 . S
C522 C523 1.516 . S
C523 C522 1.516 . S
C523 C524 1.502 . S
C523 C525 1.561 . S
C523 C526 1.526 . S
C524 H508 0.959 . S
C524 H509 0.959 . S
C524 H510 0.961 . S
C524 C523 1.502 . S
C525 H511 0.960 1_554 S
C525 H512 0.961 . S
C525 H513 0.959 . S
C525 C523 1.561 . S
C526 C523 1.526 . S
C526 C527 1.396 . S
C526 C531 1.390 . S
C527 C521 1.465 . S
C527 C526 1.396 . S
C527 C528 1.399 . S
C528 H514 0.929 . S
C528 C527 1.399 . S
C528 C529 1.385 . S
C529 H515 0.931 . S
C529 C528 1.385 . S
C529 C530 1.389 . S
C530 C529 1.389 . S
C530 C531 1.387 . S
C531 H516 0.930 . S
C531 C526 1.390 . S
C531 C530 1.387 . S
H532 C544 0.930 . S
H533 C546 0.930 . S
H534 C547 0.930 . S
H535 C551 0.959 . S
H536 C551 0.959 . S
H537 C551 0.961 . S
H538 C552 0.960 . S
H539 C552 0.961 . S
H540 C552 0.959 . S
H541 C555 0.929 . S
H542 C556 0.931 1_556 S
H543 C558 0.930 . S
C544 H532 0.930 . S
C544 C545 1.399 . S
C544 C549 1.399 . S
C545 C544 1.399 . S
C545 C546 1.376 . S
C546 H533 0.930 . S
C546 C545 1.376 . S
C546 C547 1.388 . S
C547 H534 0.930 . S
C547 C546 1.388 . S
C547 C548 1.390 . S
C548 C547 1.390 . S
C548 C549 1.394 . S
C548 C554 1.465 . S
C549 C544 1.399 . S
C549 C548 1.394 . S
C549 C550 1.516 . S
C550 C549 1.516 . S
C550 C551 1.502 . S
C550 C552 1.561 . S
C550 C553 1.526 . S
C551 H535 0.959 . S
C551 H536 0.959 . S
C551 H537 0.961 . S
C551 C550 1.502 . S
C552 H538 0.960 . S
C552 H539 0.961 . S
C552 H540 0.959 . S
C552 C550 1.561 . S
C553 C550 1.526 . S
C553 C554 1.396 . S
C553 C558 1.390 . S
C554 C548 1.465 . S
C554 C553 1.396 . S
C554 C555 1.399 . S
C555 H541 0.929 . S
C555 C554 1.399 . S
C555 C556 1.385 . S
C556 H542 0.931 1_554 S
C556 C555 1.385 . S
C556 C557 1.389 . S
C557 C556 1.389 . S
C557 C558 1.387 . S
C558 H543 0.930 . S
C558 C553 1.390 . S
C558 C557 1.387 . S
H559 C571 0.930 . S
H560 C573 0.930 . S
H561 C574 0.930 . S
H562 C578 0.959 . S
H563 C578 0.959 . S
H564 C578 0.961 1_556 S
H565 C579 0.960 . S
H566 C579 0.961 . S
H567 C579 0.959 . S
H568 C582 0.929 . S
H569 C583 0.931 . S
H570 C585 0.930 1_554 S
C571 H559 0.930 . S
C571 C572 1.399 . S
C571 C576 1.399 . S
C572 C571 1.399 . S
C572 C573 1.376 . S
C573 H560 0.930 . S
C573 C572 1.376 . S
C573 C574 1.388 . S
C574 H561 0.930 . S
C574 C573 1.388 . S
C574 C575 1.390 . S
C575 C574 1.390 . S
C575 C576 1.394 . S
C575 C581 1.465 . S
C576 C571 1.399 . S
C576 C575 1.394 . S
C576 C577 1.516 . S
C577 C576 1.516 . S
C577 C578 1.502 1_556 S
C577 C579 1.561 . S
C577 C580 1.526 . S
C578 H562 0.959 . S
C578 H563 0.959 . S
C578 H564 0.961 1_554 S
C578 C577 1.502 1_554 S
C579 H565 0.960 . S
C579 H566 0.961 . S
C579 H567 0.959 . S
C579 C577 1.561 . S
C580 C577 1.526 . S
C580 C581 1.396 . S
C580 C585 1.390 . S
C581 C575 1.465 . S
C581 C580 1.396 . S
C581 C582 1.399 . S
C582 H568 0.929 . S
C582 C581 1.399 . S
C582 C583 1.385 . S
C583 H569 0.931 . S
C583 C582 1.385 . S
C583 C584 1.389 . S
C584 C583 1.389 . S
C584 C585 1.387 . S
C585 H570 0.930 1_556 S
C585 C580 1.390 . S
C585 C584 1.387 . S
H586 C598 0.930 . S
H587 C600 0.930 . S
H588 C601 0.930 . S
H589 C605 0.959 . S
H590 C605 0.959 . S
H591 C605 0.961 . S
H592 C606 0.960 . S
H593 C606 0.961 . S
H594 C606 0.959 . S
H595 C609 0.929 . S
H596 C610 0.931 . S
H597 C612 0.930 . S
C598 H586 0.930 . S
C598 C599 1.399 . S
C598 C603 1.399 . S
C599 C598 1.399 . S
C599 C600 1.376 . S
C600 H587 0.930 . S
C600 C599 1.376 . S
C600 C601 1.388 . S
C601 H588 0.930 . S
C601 C600 1.388 . S
C601 C602 1.390 . S
C602 C601 1.390 . S
C602 C603 1.394 . S
C602 C608 1.465 . S
C603 C598 1.399 . S
C603 C602 1.394 . S
C603 C604 1.516 . S
C604 C603 1.516 . S
C604 C605 1.502 . S
C604 C606 1.561 . S
C604 C607 1.526 . S
C605 H589 0.959 . S
C605 H590 0.959 . S
C605 H591 0.961 . S
C605 C604 1.502 . S
C606 H592 0.960 . S
C606 H593 0.961 . S
C606 H594 0.959 . S
C606 C604 1.561 . S
C607 C604 1.526 . S
C607 C608 1.396 . S
C607 C612 1.390 . S
C608 C602 1.465 . S
C608 C607 1.396 . S
C608 C609 1.399 . S
C609 H595 0.929 . S
C609 C608 1.399 . S
C609 C610 1.385 . S
C610 H596 0.931 . S
C610 C609 1.385 . S
C610 C611 1.389 . S
C611 C610 1.389 . S
C611 C612 1.387 . S
C612 H597 0.930 . S
C612 C607 1.390 . S
C612 C611 1.387 . S
H613 C625 0.930 . S
H614 C627 0.930 . S
H615 C628 0.930 . S
H616 C632 0.959 . S
H617 C632 0.959 . S
H618 C632 0.961 . S
H619 C633 0.960 . S
H620 C633 0.961 . S
H621 C633 0.959 . S
H622 C636 0.929 . S
H623 C637 0.931 . S
H624 C639 0.930 . S
C625 H613 0.930 . S
C625 C626 1.399 . S
C625 C630 1.399 . S
C626 C625 1.399 . S
C626 C627 1.376 . S
C627 H614 0.930 . S
C627 C626 1.376 . S
C627 C628 1.388 . S
C628 H615 0.930 . S
C628 C627 1.388 . S
C628 C629 1.390 . S
C629 C628 1.390 . S
C629 C630 1.394 . S
C629 C635 1.465 . S
C630 C625 1.399 . S
C630 C629 1.394 . S
C630 C631 1.516 . S
C631 C630 1.516 . S
C631 C632 1.502 . S
C631 C633 1.561 . S
C631 C634 1.526 . S
C632 H616 0.959 . S
C632 H617 0.959 . S
C632 H618 0.961 . S
C632 C631 1.502 . S
C633 H619 0.960 . S
C633 H620 0.961 . S
C633 H621 0.959 . S
C633 C631 1.561 . S
C634 C631 1.526 . S
C634 C635 1.396 . S
C634 C639 1.390 . S
C635 C629 1.465 . S
C635 C634 1.396 . S
C635 C636 1.399 . S
C636 H622 0.929 . S
C636 C635 1.399 . S
C636 C637 1.385 . S
C637 H623 0.931 . S
C637 C636 1.385 . S
C637 C638 1.389 . S
C638 C637 1.389 . S
C638 C639 1.387 . S
C639 H624 0.930 . S
C639 C634 1.390 . S
C639 C638 1.387 . S
H640 C652 0.930 . S
H641 C654 0.930 . S
H642 C655 0.930 1_556 S
H643 C659 0.959 . S
H644 C659 0.959 . S
H645 C659 0.961 . S
H646 C660 0.966 . S
H647 C660 0.955 1_455 S
H648 C660 0.959 . S
H649 C663 0.929 . S
H650 C664 0.932 . S
H651 C666 0.930 1_554 S
C652 H640 0.930 . S
C652 C653 1.399 . S
C652 C657 1.399 . S
C653 C652 1.399 . S
C653 C654 1.376 1_455 S
C654 H641 0.930 . S
C654 C653 1.376 1_655 S
C654 C655 1.388 . S
C655 H642 0.930 1_554 S
C655 C654 1.388 . S
C655 C656 1.390 1_655 S
C656 C655 1.390 1_455 S
C656 C657 1.394 . S
C656 C662 1.465 1_554 S
C657 C652 1.399 . S
C657 C656 1.394 . S
C657 C658 1.516 . S
C658 C657 1.516 . S
C658 C659 1.502 . S
C658 C660 1.561 1_455 S
C658 C661 1.526 . S
C659 H643 0.959 . S
C659 H644 0.959 . S
C659 H645 0.961 . S
C659 C658 1.502 . S
C660 H646 0.966 . S
C660 H647 0.955 1_655 S
C660 H648 0.959 . S
C660 C658 1.561 1_655 S
C661 C658 1.526 . S
C661 C662 1.396 1_554 S
C661 C666 1.390 1_554 S
C662 C656 1.465 1_556 S
C662 C661 1.396 1_556 S
C662 C663 1.399 1_455 S
C663 H649 0.929 . S
C663 C662 1.399 1_655 S
C663 C664 1.386 . S
C664 H650 0.932 . S
C664 C663 1.386 . S
C664 C665 1.387 1_655 S
C665 C664 1.387 1_455 S
C665 C666 1.387 . S
C666 H651 0.930 1_556 S
C666 C661 1.390 1_556 S
C666 C665 1.387 . S
H667 C679 0.930 . S
H668 C681 0.930 . S
H669 C682 0.930 . S
H670 C686 0.959 . S
H671 C686 0.959 . S
H672 C686 0.961 . S
H673 C687 0.960 . S
H674 C687 0.961 . S
H675 C687 0.959 . S
H676 C690 0.929 . S
H677 C691 0.931 . S
H678 C693 0.930 . S
C679 H667 0.930 . S
C679 C680 1.399 . S
C679 C684 1.399 . S
C680 C679 1.399 . S
C680 C681 1.376 . S
C681 H668 0.930 . S
C681 C680 1.376 . S
C681 C682 1.388 . S
C682 H669 0.930 . S
C682 C681 1.388 . S
C682 C683 1.390 . S
C683 C682 1.390 . S
C683 C684 1.394 . S
C683 C689 1.465 . S
C684 C679 1.399 . S
C684 C683 1.394 . S
C684 C685 1.516 . S
C685 C684 1.516 . S
C685 C686 1.502 . S
C685 C687 1.561 . S
C685 C688 1.526 . S
C686 H670 0.959 . S
C686 H671 0.959 . S
C686 H672 0.961 . S
C686 C685 1.502 . S
C687 H673 0.960 . S
C687 H674 0.961 . S
C687 H675 0.959 . S
C687 C685 1.561 . S
C688 C685 1.526 . S
C688 C689 1.396 . S
C688 C693 1.390 . S
C689 C683 1.465 . S
C689 C688 1.396 . S
C689 C690 1.399 . S
C690 H676 0.929 . S
C690 C689 1.399 . S
C690 C691 1.385 . S
C691 H677 0.931 . S
C691 C690 1.385 . S
C691 C692 1.389 . S
C692 C691 1.389 . S
C692 C693 1.387 . S
C693 H678 0.930 . S
C693 C688 1.390 . S
C693 C692 1.387 . S
H694 C706 0.930 . S
H695 C708 0.930 . S
H696 C709 0.930 . S
H697 C713 0.959 . S
H698 C713 0.959 . S
H699 C713 0.961 . S
H700 C714 0.960 . S
H701 C714 0.961 . S
H702 C714 0.959 . S
H703 C717 0.929 . S
H704 C718 0.931 . S
H705 C720 0.930 . S
C706 H694 0.930 . S
C706 C707 1.399 . S
C706 C711 1.399 . S
C707 C706 1.399 . S
C707 C708 1.376 . S
C708 H695 0.930 . S
C708 C707 1.376 . S
C708 C709 1.388 . S
C709 H696 0.930 . S
C709 C708 1.388 . S
C709 C710 1.390 . S
C710 C709 1.390 . S
C710 C711 1.394 . S
C710 C716 1.465 . S
C711 C706 1.399 . S
C711 C710 1.394 . S
C711 C712 1.516 . S
C712 C711 1.516 . S
C712 C713 1.502 . S
C712 C714 1.561 . S
C712 C715 1.526 . S
C713 H697 0.959 . S
C713 H698 0.959 . S
C713 H699 0.961 . S
C713 C712 1.502 . S
C714 H700 0.960 . S
C714 H701 0.961 . S
C714 H702 0.959 . S
C714 C712 1.561 . S
C715 C712 1.526 . S
C715 C716 1.396 . S
C715 C720 1.390 . S
C716 C710 1.465 . S
C716 C715 1.396 . S
C716 C717 1.399 . S
C717 H703 0.929 . S
C717 C716 1.399 . S
C717 C718 1.385 . S
C718 H704 0.931 . S
C718 C717 1.385 . S
C718 C719 1.389 . S
C719 C718 1.389 . S
C719 C720 1.387 . S
C720 H705 0.930 . S
C720 C715 1.390 . S
C720 C719 1.387 . S
H721 C733 0.930 . S
H722 C735 0.930 . S
H723 C736 0.930 . S
H724 C740 0.959 . S
H725 C740 0.959 . S
H726 C740 0.961 . S
H727 C741 0.960 . S
H728 C741 0.961 . S
H729 C741 0.959 . S
H730 C744 0.929 . S
H731 C745 0.931 . S
H732 C747 0.930 . S
C733 H721 0.930 . S
C733 C734 1.399 . S
C733 C738 1.399 . S
C734 C733 1.399 . S
C734 C735 1.376 . S
C735 H722 0.930 . S
C735 C734 1.376 . S
C735 C736 1.388 . S
C736 H723 0.930 . S
C736 C735 1.388 . S
C736 C737 1.390 . S
C737 C736 1.390 . S
C737 C738 1.394 . S
C737 C743 1.465 . S
C738 C733 1.399 . S
C738 C737 1.394 . S
C738 C739 1.516 . S
C739 C738 1.516 . S
C739 C740 1.502 . S
C739 C741 1.561 . S
C739 C742 1.526 . S
C740 H724 0.959 . S
C740 H725 0.959 . S
C740 H726 0.961 . S
C740 C739 1.502 . S
C741 H727 0.960 . S
C741 H728 0.961 . S
C741 H729 0.959 . S
C741 C739 1.561 . S
C742 C739 1.526 . S
C742 C743 1.396 . S
C742 C747 1.390 . S
C743 C737 1.465 . S
C743 C742 1.396 . S
C743 C744 1.399 . S
C744 H730 0.929 . S
C744 C743 1.399 . S
C744 C745 1.385 . S
C745 H731 0.931 . S
C745 C744 1.385 . S
C745 C746 1.389 . S
C746 C745 1.389 . S
C746 C747 1.387 . S
C747 H732 0.930 . S
C747 C742 1.390 . S
C747 C746 1.387 . S
H748 C760 0.930 . S
H749 C762 0.930 . S
H750 C763 0.930 . S
H751 C767 0.959 . S
H752 C767 0.959 . S
H753 C767 0.961 . S
H754 C768 0.960 . S
H755 C768 0.961 . S
H756 C768 0.959 . S
H757 C771 0.929 . S
H758 C772 0.931 . S
H759 C774 0.930 . S
C760 H748 0.930 . S
C760 C761 1.399 . S
C760 C765 1.399 . S
C761 C760 1.399 . S
C761 C762 1.376 . S
C762 H749 0.930 . S
C762 C761 1.376 . S
C762 C763 1.388 . S
C763 H750 0.930 . S
C763 C762 1.388 . S
C763 C764 1.390 . S
C764 C763 1.390 . S
C764 C765 1.394 . S
C764 C770 1.465 . S
C765 C760 1.399 . S
C765 C764 1.394 . S
C765 C766 1.516 . S
C766 C765 1.516 . S
C766 C767 1.502 . S
C766 C768 1.561 . S
C766 C769 1.526 . S
C767 H751 0.959 . S
C767 H752 0.959 . S
C767 H753 0.961 . S
C767 C766 1.502 . S
C768 H754 0.960 . S
C768 H755 0.961 . S
C768 H756 0.959 . S
C768 C766 1.561 . S
C769 C766 1.526 . S
C769 C770 1.396 . S
C769 C774 1.390 . S
C770 C764 1.465 . S
C770 C769 1.396 . S
C770 C771 1.399 . S
C771 H757 0.929 . S
C771 C770 1.399 . S
C771 C772 1.385 . S
C772 H758 0.931 . S
C772 C771 1.385 . S
C772 C773 1.389 . S
C773 C772 1.389 . S
C773 C774 1.387 . S
C774 H759 0.930 . S
C774 C769 1.390 . S
C774 C773 1.387 . S
H775 C787 0.930 . S
H776 C789 0.930 . S
H777 C790 0.930 . S
H778 C794 0.959 . S
H779 C794 0.959 . S
H780 C794 0.961 . S
H781 C795 0.960 . S
H782 C795 0.961 . S
H783 C795 0.959 . S
H784 C798 0.929 . S
H785 C799 0.931 . S
H786 C801 0.930 . S
C787 H775 0.930 . S
C787 C788 1.399 . S
C787 C792 1.399 . S
C788 C787 1.399 . S
C788 C789 1.376 . S
C789 H776 0.930 . S
C789 C788 1.376 . S
C789 C790 1.388 . S
C790 H777 0.930 . S
C790 C789 1.388 . S
C790 C791 1.390 . S
C791 C790 1.390 . S
C791 C792 1.394 . S
C791 C797 1.465 . S
C792 C787 1.399 . S
C792 C791 1.394 . S
C792 C793 1.516 . S
C793 C792 1.516 . S
C793 C794 1.502 . S
C793 C795 1.561 . S
C793 C796 1.526 . S
C794 H778 0.959 . S
C794 H779 0.959 . S
C794 H780 0.961 . S
C794 C793 1.502 . S
C795 H781 0.960 . S
C795 H782 0.961 . S
C795 H783 0.959 . S
C795 C793 1.561 . S
C796 C793 1.526 . S
C796 C797 1.396 . S
C796 C801 1.390 . S
C797 C791 1.465 . S
C797 C796 1.396 . S
C797 C798 1.399 . S
C798 H784 0.929 . S
C798 C797 1.399 . S
C798 C799 1.385 . S
C799 H785 0.931 . S
C799 C798 1.385 . S
C799 C800 1.389 . S
C800 C799 1.389 . S
C800 C801 1.387 . S
C801 H786 0.930 . S
C801 C796 1.390 . S
C801 C800 1.387 . S
H802 C814 0.930 . S
H803 C816 0.930 . S
H804 C817 0.930 . S
H805 C821 0.959 . S
H806 C821 0.959 . S
H807 C821 0.961 . S
H808 C822 0.960 . S
H809 C822 0.961 . S
H810 C822 0.959 . S
H811 C825 0.929 1_565 S
H812 C826 0.931 . S
H813 C828 0.930 . S
C814 H802 0.930 . S
C814 C815 1.399 . S
C814 C819 1.399 . S
C815 C814 1.399 . S
C815 C816 1.376 . S
C816 H803 0.930 . S
C816 C815 1.376 . S
C816 C817 1.388 . S
C817 H804 0.930 . S
C817 C816 1.388 . S
C817 C818 1.390 . S
C818 C817 1.390 . S
C818 C819 1.394 . S
C818 C824 1.465 1_565 S
C819 C814 1.399 . S
C819 C818 1.394 . S
C819 C820 1.516 1_565 S
C820 C819 1.516 1_545 S
C820 C821 1.502 . S
C820 C822 1.561 . S
C820 C823 1.526 . S
C821 H805 0.959 . S
C821 H806 0.959 . S
C821 H807 0.961 . S
C821 C820 1.502 . S
C822 H808 0.960 . S
C822 H809 0.961 . S
C822 H810 0.959 . S
C822 C820 1.561 . S
C823 C820 1.526 . S
C823 C824 1.396 . S
C823 C828 1.390 . S
C824 C818 1.465 1_545 S
C824 C823 1.396 . S
C824 C825 1.399 . S
C825 H811 0.929 1_545 S
C825 C824 1.399 . S
C825 C826 1.385 . S
C826 H812 0.931 . S
C826 C825 1.385 . S
C826 C827 1.389 . S
C827 C826 1.389 . S
C827 C828 1.387 . S
C828 H813 0.930 . S
C828 C823 1.390 . S
C828 C827 1.387 . S
H829 C841 0.935 . S
H830 C843 0.930 . S
H831 C844 0.930 1_565 S
H832 C848 0.959 . S
H833 C848 0.959 . S
H834 C848 0.961 . S
H835 C849 0.960 . S
H836 C849 0.961 . S
H837 C849 0.959 . S
H838 C852 0.929 1_556 S
H839 C853 0.931 . S
H840 C855 0.930 . S
C841 H829 0.935 . S
C841 C842 1.397 1_554 S
C841 C846 1.400 . S
C842 C841 1.397 1_556 S
C842 C843 1.376 . S
C843 H830 0.930 . S
C843 C842 1.376 . S
C843 C844 1.388 . S
C844 H831 0.930 1_545 S
C844 C843 1.388 . S
C844 C845 1.390 . S
C845 C844 1.390 . S
C845 C846 1.394 1_556 S
C845 C851 1.465 1_546 S
C846 C841 1.400 . S
C846 C845 1.394 1_554 S
C846 C847 1.516 . S
C847 C846 1.516 . S
C847 C848 1.502 1_655 S
C847 C849 1.561 . S
C847 C850 1.526 1_545 S
C848 H832 0.959 . S
C848 H833 0.959 . S
C848 H834 0.961 . S
C848 C847 1.502 1_455 S
C849 H835 0.960 . S
C849 H836 0.961 . S
C849 H837 0.959 . S
C849 C847 1.561 . S
C850 C847 1.526 1_565 S
C850 C851 1.396 . S
C850 C855 1.390 . S
C851 C845 1.465 1_564 S
C851 C850 1.396 . S
C851 C852 1.399 . S
C852 H838 0.929 1_554 S
C852 C851 1.399 . S
C852 C853 1.385 . S
C853 H839 0.931 . S
C853 C852 1.385 . S
C853 C854 1.389 . S
C854 C853 1.389 . S
C854 C855 1.387 . S
C855 H840 0.930 . S
C855 C850 1.390 . S
C855 C854 1.387 . S
H856 C868 0.930 . S
H857 C870 0.930 . S
H858 C871 0.930 . S
H859 C875 0.959 . S
H860 C875 0.959 . S
H861 C875 0.961 . S
H862 C876 0.960 . S
H863 C876 0.961 . S
H864 C876 0.959 . S
H865 C879 0.929 . S
H866 C880 0.931 . S
H867 C882 0.930 . S
C868 H856 0.930 . S
C868 C869 1.399 . S
C868 C873 1.399 . S
C869 C868 1.399 . S
C869 C870 1.376 . S
C870 H857 0.930 . S
C870 C869 1.376 . S
C870 C871 1.388 . S
C871 H858 0.930 . S
C871 C870 1.388 . S
C871 C872 1.390 . S
C872 C871 1.390 . S
C872 C873 1.394 . S
C872 C878 1.465 . S
C873 C868 1.399 . S
C873 C872 1.394 . S
C873 C874 1.516 . S
C874 C873 1.516 . S
C874 C875 1.502 1_655 S
C874 C876 1.561 . S
C874 C877 1.526 . S
C875 H859 0.959 . S
C875 H860 0.959 . S
C875 H861 0.961 . S
C875 C874 1.502 1_455 S
C876 H862 0.960 . S
C876 H863 0.961 . S
C876 H864 0.959 . S
C876 C874 1.561 . S
C877 C874 1.526 . S
C877 C878 1.396 . S
C877 C882 1.390 . S
C878 C872 1.465 . S
C878 C877 1.396 . S
C878 C879 1.399 . S
C879 H865 0.929 . S
C879 C878 1.399 . S
C879 C880 1.385 . S
C880 H866 0.931 . S
C880 C879 1.385 . S
C880 C881 1.389 . S
C881 C880 1.389 . S
C881 C882 1.387 . S
C882 H867 0.930 . S
C882 C877 1.390 . S
C882 C881 1.387 . S
H883 C895 0.930 . S
H884 C897 0.930 . S
H885 C898 0.930 . S
H886 C902 0.959 . S
H887 C902 0.959 . S
H888 C902 0.961 . S
H889 C903 0.960 . S
H890 C903 0.961 . S
H891 C903 0.959 . S
H892 C906 0.929 . S
H893 C907 0.931 . S
H894 C909 0.930 . S
C895 H883 0.930 . S
C895 C896 1.399 . S
C895 C900 1.399 . S
C896 C895 1.399 . S
C896 C897 1.376 . S
C897 H884 0.930 . S
C897 C896 1.376 . S
C897 C898 1.388 . S
C898 H885 0.930 . S
C898 C897 1.388 . S
C898 C899 1.390 . S
C899 C898 1.390 . S
C899 C900 1.394 . S
C899 C905 1.465 . S
C900 C895 1.399 . S
C900 C899 1.394 . S
C900 C901 1.516 . S
C901 C900 1.516 . S
C901 C902 1.502 . S
C901 C903 1.561 . S
C901 C904 1.526 . S
C902 H886 0.959 . S
C902 H887 0.959 . S
C902 H888 0.961 . S
C902 C901 1.502 . S
C903 H889 0.960 . S
C903 H890 0.961 . S
C903 H891 0.959 . S
C903 C901 1.561 . S
C904 C901 1.526 . S
C904 C905 1.396 . S
C904 C909 1.390 . S
C905 C899 1.465 . S
C905 C904 1.396 . S
C905 C906 1.399 . S
C906 H892 0.929 . S
C906 C905 1.399 . S
C906 C907 1.385 . S
C907 H893 0.931 . S
C907 C906 1.385 . S
C907 C908 1.389 . S
C908 C907 1.389 . S
C908 C909 1.387 . S
C909 H894 0.930 . S
C909 C904 1.390 . S
C909 C908 1.387 . S
H910 C922 0.930 . S
H911 C924 0.930 . S
H912 C925 0.930 1_556 S
H913 C929 0.959 . S
H914 C929 0.959 . S
H915 C929 0.961 . S
H916 C930 0.960 . S
H917 C930 0.961 . S
H918 C930 0.959 . S
H919 C933 0.929 . S
H920 C934 0.931 . S
H921 C936 0.930 1_554 S
C922 H910 0.930 . S
C922 C923 1.399 . S
C922 C927 1.399 . S
C923 C922 1.399 . S
C923 C924 1.376 . S
C924 H911 0.930 . S
C924 C923 1.376 . S
C924 C925 1.388 . S
C925 H912 0.930 1_554 S
C925 C924 1.388 . S
C925 C926 1.390 . S
C926 C925 1.390 . S
C926 C927 1.394 . S
C926 C932 1.465 1_554 S
C927 C922 1.399 . S
C927 C926 1.394 . S
C927 C928 1.516 . S
C928 C927 1.516 . S
C928 C929 1.502 . S
C928 C930 1.561 . S
C928 C931 1.526 . S
C929 H913 0.959 . S
C929 H914 0.959 . S
C929 H915 0.961 . S
C929 C928 1.502 . S
C930 H916 0.960 . S
C930 H917 0.961 . S
C930 H918 0.959 . S
C930 C928 1.561 . S
C931 C928 1.526 . S
C931 C932 1.396 1_554 S
C931 C936 1.390 1_554 S
C932 C926 1.465 1_556 S
C932 C931 1.396 1_556 S
C932 C933 1.399 . S
C933 H919 0.929 . S
C933 C932 1.399 . S
C933 C934 1.385 . S
C934 H920 0.931 . S
C934 C933 1.385 . S
C934 C935 1.389 . S
C935 C934 1.389 . S
C935 C936 1.387 . S
C936 H921 0.930 1_556 S
C936 C931 1.390 1_556 S
C936 C935 1.387 . S
H937 C949 0.930 . S
H938 C951 0.930 . S
H939 C952 0.930 . S
H940 C956 0.959 . S
H941 C956 0.959 . S
H942 C956 0.961 . S
H943 C957 0.960 . S
H944 C957 0.961 . S
H945 C957 0.959 . S
H946 C960 0.929 . S
H947 C961 0.931 . S
H948 C963 0.930 . S
C949 H937 0.930 . S
C949 C950 1.399 . S
C949 C954 1.399 . S
C950 C949 1.399 . S
C950 C951 1.376 . S
C951 H938 0.930 . S
C951 C950 1.376 . S
C951 C952 1.388 . S
C952 H939 0.930 . S
C952 C951 1.388 . S
C952 C953 1.390 . S
C953 C952 1.390 . S
C953 C954 1.394 . S
C953 C959 1.465 . S
C954 C949 1.399 . S
C954 C953 1.394 . S
C954 C955 1.516 . S
C955 C954 1.516 . S
C955 C956 1.502 . S
C955 C957 1.561 . S
C955 C958 1.526 . S
C956 H940 0.959 . S
C956 H941 0.959 . S
C956 H942 0.961 . S
C956 C955 1.502 . S
C957 H943 0.960 . S
C957 H944 0.961 . S
C957 H945 0.959 . S
C957 C955 1.561 . S
C958 C955 1.526 . S
C958 C959 1.396 . S
C958 C963 1.390 . S
C959 C953 1.465 . S
C959 C958 1.396 . S
C959 C960 1.399 . S
C960 H946 0.929 . S
C960 C959 1.399 . S
C960 C961 1.385 . S
C961 H947 0.931 . S
C961 C960 1.385 . S
C961 C962 1.389 . S
C962 C961 1.389 . S
C962 C963 1.387 . S
C963 H948 0.930 . S
C963 C958 1.390 . S
C963 C962 1.387 . S
H964 C976 0.930 . S
H965 C978 0.930 . S
H966 C979 0.930 . S
H967 C983 0.959 . S
H968 C983 0.959 . S
H969 C983 0.961 . S
H970 C984 0.960 . S
H971 C984 0.961 . S
H972 C984 0.959 . S
H973 C987 0.929 . S
H974 C988 0.931 . S
H975 C990 0.930 . S
C976 H964 0.930 . S
C976 C977 1.399 . S
C976 C981 1.399 . S
C977 C976 1.399 . S
C977 C978 1.376 . S
C978 H965 0.930 . S
C978 C977 1.376 . S
C978 C979 1.388 . S
C979 H966 0.930 . S
C979 C978 1.388 . S
C979 C980 1.390 . S
C980 C979 1.390 . S
C980 C981 1.394 . S
C980 C986 1.465 . S
C981 C976 1.399 . S
C981 C980 1.394 . S
C981 C982 1.516 . S
C982 C981 1.516 . S
C982 C983 1.502 . S
C982 C984 1.561 . S
C982 C985 1.526 . S
C983 H967 0.959 . S
C983 H968 0.959 . S
C983 H969 0.961 . S
C983 C982 1.502 . S
C984 H970 0.960 . S
C984 H971 0.961 . S
C984 H972 0.959 . S
C984 C982 1.561 . S
C985 C982 1.526 . S
C985 C986 1.396 . S
C985 C990 1.390 . S
C986 C980 1.465 . S
C986 C985 1.396 . S
C986 C987 1.399 . S
C987 H973 0.929 . S
C987 C986 1.399 . S
C987 C988 1.385 . S
C988 H974 0.931 . S
C988 C987 1.385 . S
C988 C989 1.389 . S
C989 C988 1.389 . S
C989 C990 1.387 . S
C990 H975 0.930 . S
C990 C985 1.390 . S
C990 C989 1.387 . S
H991 C1003 0.930 . S
H992 C1005 0.930 . S
H993 C1006 0.930 . S
H994 C1010 0.959 . S
H995 C1010 0.959 . S
H996 C1010 0.961 . S
H997 C1011 0.960 . S
H998 C1011 0.961 . S
H999 C1011 0.959 . S
H1000 C1014 0.929 . S
H1001 C1015 0.931 . S
H1002 C1017 0.930 . S
C1003 H991 0.930 . S
C1003 C1004 1.399 . S
C1003 C1008 1.399 . S
C1004 C1003 1.399 . S
C1004 C1005 1.376 . S
C1005 H992 0.930 . S
C1005 C1004 1.376 . S
C1005 C1006 1.388 . S
C1006 H993 0.930 . S
C1006 C1005 1.388 . S
C1006 C1007 1.390 . S
C1007 C1006 1.390 . S
C1007 C1008 1.394 . S
C1007 C1013 1.465 . S
C1008 C1003 1.399 . S
C1008 C1007 1.394 . S
C1008 C1009 1.516 . S
C1009 C1008 1.516 . S
C1009 C1010 1.502 . S
C1009 C1011 1.561 . S
C1009 C1012 1.526 . S
C1010 H994 0.959 . S
C1010 H995 0.959 . S
C1010 H996 0.961 . S
C1010 C1009 1.502 . S
C1011 H997 0.960 . S
C1011 H998 0.961 . S
C1011 H999 0.959 . S
C1011 C1009 1.561 . S
C1012 C1009 1.526 . S
C1012 C1013 1.396 . S
C1012 C1017 1.390 . S
C1013 C1007 1.465 . S
C1013 C1012 1.396 . S
C1013 C1014 1.399 . S
C1014 H1000 0.929 . S
C1014 C1013 1.399 . S
C1014 C1015 1.385 . S
C1015 H1001 0.931 . S
C1015 C1014 1.385 . S
C1015 C1016 1.389 . S
C1016 C1015 1.389 . S
C1016 C1017 1.387 . S
C1017 H1002 0.930 . S
C1017 C1012 1.390 . S
C1017 C1016 1.387 . S
H1018 C1030 0.930 . S
H1019 C1032 0.930 . S
H1020 C1033 0.930 1_556 S
H1021 C1037 0.959 . S
H1022 C1037 0.959 . S
H1023 C1037 0.961 . S
H1024 C1038 0.960 . S
H1025 C1038 0.961 . S
H1026 C1038 0.959 . S
H1027 C1041 0.929 1_565 S
H1028 C1042 0.931 . S
H1029 C1044 0.930 1_554 S
C1030 H1018 0.930 . S
C1030 C1031 1.399 . S
C1030 C1035 1.399 . S
C1031 C1030 1.399 . S
C1031 C1032 1.376 . S
C1032 H1019 0.930 . S
C1032 C1031 1.376 . S
C1032 C1033 1.388 . S
C1033 H1020 0.930 1_554 S
C1033 C1032 1.388 . S
C1033 C1034 1.390 . S
C1034 C1033 1.390 . S
C1034 C1035 1.394 . S
C1034 C1040 1.465 1_564 S
C1035 C1030 1.399 . S
C1035 C1034 1.394 . S
C1035 C1036 1.516 1_565 S
C1036 C1035 1.516 1_545 S
C1036 C1037 1.502 . S
C1036 C1038 1.561 . S
C1036 C1039 1.526 . S
C1037 H1021 0.959 . S
C1037 H1022 0.959 . S
C1037 H1023 0.961 . S
C1037 C1036 1.502 . S
C1038 H1024 0.960 . S
C1038 H1025 0.961 . S
C1038 H1026 0.959 . S
C1038 C1036 1.561 . S
C1039 C1036 1.526 . S
C1039 C1040 1.396 1_554 S
C1039 C1044 1.390 1_554 S
C1040 C1034 1.465 1_546 S
C1040 C1039 1.396 1_556 S
C1040 C1041 1.399 . S
C1041 H1027 0.929 1_545 S
C1041 C1040 1.399 . S
C1041 C1042 1.385 . S
C1042 H1028 0.931 . S
C1042 C1041 1.385 . S
C1042 C1043 1.389 . S
C1043 C1042 1.389 . S
C1043 C1044 1.387 . S
C1044 H1029 0.930 1_556 S
C1044 C1039 1.390 1_556 S
C1044 C1043 1.387 . S
H1045 C1057 0.930 . S
H1046 C1059 0.930 . S
H1047 C1060 0.930 . S
H1048 C1064 0.976 . S
H1049 C1064 0.959 . S
H1050 C1064 0.961 . S
H1051 C1065 0.960 . S
H1052 C1065 0.961 . S
H1053 C1065 0.959 . S
H1054 C1068 0.929 . S
H1055 C1069 0.931 . S
H1056 C1071 0.930 . S
C1057 H1045 0.930 . S
C1057 C1058 1.399 . S
C1057 C1062 1.399 . S
C1058 C1057 1.399 . S
C1058 C1059 1.376 1_455 S
C1059 H1046 0.930 . S
C1059 C1058 1.376 1_655 S
C1059 C1060 1.388 . S
C1060 H1047 0.930 . S
C1060 C1059 1.388 . S
C1060 C1061 1.390 . S
C1061 C1060 1.390 . S
C1061 C1062 1.394 1_655 S
C1061 C1067 1.465 1_545 S
C1062 C1057 1.399 . S
C1062 C1061 1.394 1_455 S
C1062 C1063 1.516 1_545 S
C1063 C1062 1.516 1_565 S
C1063 C1064 1.502 . S
C1063 C1065 1.561 . S
C1063 C1066 1.526 . S
C1064 H1048 0.976 . S
C1064 H1049 0.959 . S
C1064 H1050 0.961 . S
C1064 C1063 1.502 . S
C1065 H1051 0.960 . S
C1065 H1052 0.961 . S
C1065 H1053 0.959 . S
C1065 C1063 1.561 . S
C1066 C1063 1.526 . S
C1066 C1067 1.396 1_455 S
C1066 C1071 1.390 . S
C1067 C1061 1.465 1_565 S
C1067 C1066 1.396 1_655 S
C1067 C1068 1.399 . S
C1068 H1054 0.929 . S
C1068 C1067 1.399 . S
C1068 C1069 1.385 . S
C1069 H1055 0.931 . S
C1069 C1068 1.385 . S
C1069 C1070 1.389 1_655 S
C1070 C1069 1.389 1_455 S
C1070 C1071 1.387 . S
C1071 H1056 0.930 . S
C1071 C1066 1.390 . S
C1071 C1070 1.387 . S
C221 C120 1.482 . S
C233 C5 1.484 . S
C248 C185 1.481 . S
C260 C18 1.490 . S
C275 C31 1.490 . S
C287 C107 1.483 . S
C302 C44 1.489 . S
C314 C200 1.487 . S
C329 C55 1.481 . S
C341 C133 1.486 . S
C356 C172 1.489 . S
C368 C70 1.488 . S
C383 C146 1.486 . S
C395 C83 1.487 . S
C410 C94 1.481 . S
C422 C159 1.489 . S
C437 C57 1.600 . S
C449 C42 1.652 1_556 S
C464 C161 1.597 . S
C476 C109 1.649 . S
C491 C81 1.647 . S
C503 C16 1.596 . S
C518 C122 1.615 . S
C530 C174 1.634 . S
C545 C3 1.596 . S
C557 C68 1.652 . S
C572 C198 1.642 . S
C584 C135 1.607 1_556 S
C599 C96 1.607 . S
C611 C29 1.644 . S
C626 C148 1.629 . S
C638 C187 1.625 . S
C653 C10 0.736 . S
C665 C56 0.738 . S
C680 C75 0.774 . S
C692 C23 0.774 . S
C707 C88 0.741 . S
C719 C36 0.742 . S
C734 C49 0.775 . S
C746 C95 0.776 . S
C761 C134 0.776 . S
C773 C108 0.777 . S
C788 C147 0.734 . S
C800 C121 0.736 . S
C815 C186 0.743 . S
C827 C160 0.744 . S
C842 C205 0.766 . S
C854 C173 0.764 . S
C869 C62 1.774 . S
C881 C4 1.803 . S
C896 C69 1.767 . S
C908 C17 1.782 . S
C923 C82 1.794 . S
C935 C30 1.767 . S
C950 C43 1.801 . S
C962 C101 1.794 . S
C977 C114 1.805 . S
C989 C140 1.784 . S
C1004 C153 1.767 . S
C1016 C127 1.783 . S
C1031 C192 1.802 . S
C1043 C166 1.772 . S
C1058 C199 1.779 . S
C1070 C179 1.768 . S
