# Generated by pormake.
# Topology ict, (4)-cn, num edge types: 1
# Building blocks:
#     Node 0, Type 0, BuildingBlock: KUFVIS_clean_sbu_0, # of connection points: 4
#     Node 1, Type 0, BuildingBlock: KUFVIS_clean_sbu_0, # of connection points: 4
#     Node 2, Type 0, BuildingBlock: KUFVIS_clean_sbu_0, # of connection points: 4
#     Node 3, Type 0, BuildingBlock: KUFVIS_clean_sbu_0, # of connection points: 4
#     Node 4, Type 0, BuildingBlock: KUFVIS_clean_sbu_0, # of connection points: 4
#     Node 5, Type 0, BuildingBlock: KUFVIS_clean_sbu_0, # of connection points: 4
#     Node 6, Type 0, BuildingBlock: KUFVIS_clean_sbu_0, # of connection points: 4
#     Node 7, Type 0, BuildingBlock: KUFVIS_clean_sbu_0, # of connection points: 4
#     Node 8, Type 0, BuildingBlock: KUFVIS_clean_sbu_0, # of connection points: 4
#     Node 9, Type 0, BuildingBlock: KUFVIS_clean_sbu_0, # of connection points: 4
#     Node 10, Type 0, BuildingBlock: KUFVIS_clean_sbu_0, # of connection points: 4
#     Node 11, Type 0, BuildingBlock: KUFVIS_clean_sbu_0, # of connection points: 4
#     Node 12, Type 0, BuildingBlock: KUFVIS_clean_sbu_0, # of connection points: 4
#     Node 13, Type 0, BuildingBlock: KUFVIS_clean_sbu_0, # of connection points: 4
#     Node 14, Type 0, BuildingBlock: KUFVIS_clean_sbu_0, # of connection points: 4
#     Node 15, Type 0, BuildingBlock: KUFVIS_clean_sbu_0, # of connection points: 4
#     Node 16, Type 0, BuildingBlock: KUFVIS_clean_sbu_0, # of connection points: 4
#     Node 17, Type 0, BuildingBlock: KUFVIS_clean_sbu_0, # of connection points: 4
#     Node 18, Type 0, BuildingBlock: KUFVIS_clean_sbu_0, # of connection points: 4
#     Node 19, Type 0, BuildingBlock: KUFVIS_clean_sbu_0, # of connection points: 4
#     Node 20, Type 0, BuildingBlock: KUFVIS_clean_sbu_0, # of connection points: 4
#     Node 21, Type 0, BuildingBlock: KUFVIS_clean_sbu_0, # of connection points: 4
#     Node 22, Type 0, BuildingBlock: KUFVIS_clean_sbu_0, # of connection points: 4
#     Node 23, Type 0, BuildingBlock: KUFVIS_clean_sbu_0, # of connection points: 4
#     Node 24, Type 0, BuildingBlock: KUFVIS_clean_sbu_0, # of connection points: 4
#     Node 25, Type 0, BuildingBlock: KUFVIS_clean_sbu_0, # of connection points: 4
#     Node 26, Type 0, BuildingBlock: KUFVIS_clean_sbu_0, # of connection points: 4
#     Node 27, Type 0, BuildingBlock: KUFVIS_clean_sbu_0, # of connection points: 4
#     Node 28, Type 0, BuildingBlock: KUFVIS_clean_sbu_0, # of connection points: 4
#     Node 29, Type 0, BuildingBlock: KUFVIS_clean_sbu_0, # of connection points: 4
#     Node 30, Type 0, BuildingBlock: KUFVIS_clean_sbu_0, # of connection points: 4
#     Node 31, Type 0, BuildingBlock: KUFVIS_clean_sbu_0, # of connection points: 4
#     Node 32, Type 0, BuildingBlock: KUFVIS_clean_sbu_0, # of connection points: 4
#     Node 33, Type 0, BuildingBlock: KUFVIS_clean_sbu_0, # of connection points: 4
#     Node 34, Type 0, BuildingBlock: KUFVIS_clean_sbu_0, # of connection points: 4
#     Node 35, Type 0, BuildingBlock: KUFVIS_clean_sbu_0, # of connection points: 4
#     Edge 36, Type (0, 0), BuildingBlock: KIFKEQ_clean_linker_1, # of connection points: 2
#     Edge 37, Type (0, 0), BuildingBlock: KIFKEQ_clean_linker_1, # of connection points: 2
#     Edge 38, Type (0, 0), BuildingBlock: KIFKEQ_clean_linker_1, # of connection points: 2
#     Edge 39, Type (0, 0), BuildingBlock: KIFKEQ_clean_linker_1, # of connection points: 2
#     Edge 40, Type (0, 0), BuildingBlock: KIFKEQ_clean_linker_1, # of connection points: 2
#     Edge 41, Type (0, 0), BuildingBlock: KIFKEQ_clean_linker_1, # of connection points: 2
#     Edge 42, Type (0, 0), BuildingBlock: KIFKEQ_clean_linker_1, # of connection points: 2
#     Edge 43, Type (0, 0), BuildingBlock: KIFKEQ_clean_linker_1, # of connection points: 2
#     Edge 44, Type (0, 0), BuildingBlock: KIFKEQ_clean_linker_1, # of connection points: 2
#     Edge 45, Type (0, 0), BuildingBlock: KIFKEQ_clean_linker_1, # of connection points: 2
#     Edge 46, Type (0, 0), BuildingBlock: KIFKEQ_clean_linker_1, # of connection points: 2
#     Edge 47, Type (0, 0), BuildingBlock: KIFKEQ_clean_linker_1, # of connection points: 2
#     Edge 48, Type (0, 0), BuildingBlock: KIFKEQ_clean_linker_1, # of connection points: 2
#     Edge 49, Type (0, 0), BuildingBlock: KIFKEQ_clean_linker_1, # of connection points: 2
#     Edge 50, Type (0, 0), BuildingBlock: KIFKEQ_clean_linker_1, # of connection points: 2
#     Edge 51, Type (0, 0), BuildingBlock: KIFKEQ_clean_linker_1, # of connection points: 2
#     Edge 52, Type (0, 0), BuildingBlock: KIFKEQ_clean_linker_1, # of connection points: 2
#     Edge 53, Type (0, 0), BuildingBlock: KIFKEQ_clean_linker_1, # of connection points: 2
#     Edge 54, Type (0, 0), BuildingBlock: KIFKEQ_clean_linker_1, # of connection points: 2
#     Edge 55, Type (0, 0), BuildingBlock: KIFKEQ_clean_linker_1, # of connection points: 2
#     Edge 56, Type (0, 0), BuildingBlock: KIFKEQ_clean_linker_1, # of connection points: 2
#     Edge 57, Type (0, 0), BuildingBlock: KIFKEQ_clean_linker_1, # of connection points: 2
#     Edge 58, Type (0, 0), BuildingBlock: KIFKEQ_clean_linker_1, # of connection points: 2
#     Edge 59, Type (0, 0), BuildingBlock: KIFKEQ_clean_linker_1, # of connection points: 2
#     Edge 60, Type (0, 0), BuildingBlock: KIFKEQ_clean_linker_1, # of connection points: 2
#     Edge 61, Type (0, 0), BuildingBlock: KIFKEQ_clean_linker_1, # of connection points: 2
#     Edge 62, Type (0, 0), BuildingBlock: KIFKEQ_clean_linker_1, # of connection points: 2
#     Edge 63, Type (0, 0), BuildingBlock: KIFKEQ_clean_linker_1, # of connection points: 2
#     Edge 64, Type (0, 0), BuildingBlock: KIFKEQ_clean_linker_1, # of connection points: 2
#     Edge 65, Type (0, 0), BuildingBlock: KIFKEQ_clean_linker_1, # of connection points: 2
#     Edge 66, Type (0, 0), BuildingBlock: KIFKEQ_clean_linker_1, # of connection points: 2
#     Edge 67, Type (0, 0), BuildingBlock: KIFKEQ_clean_linker_1, # of connection points: 2
#     Edge 68, Type (0, 0), BuildingBlock: KIFKEQ_clean_linker_1, # of connection points: 2
#     Edge 69, Type (0, 0), BuildingBlock: KIFKEQ_clean_linker_1, # of connection points: 2
#     Edge 70, Type (0, 0), BuildingBlock: KIFKEQ_clean_linker_1, # of connection points: 2
#     Edge 71, Type (0, 0), BuildingBlock: KIFKEQ_clean_linker_1, # of connection points: 2
#     Edge 72, Type (0, 0), BuildingBlock: KIFKEQ_clean_linker_1, # of connection points: 2
#     Edge 73, Type (0, 0), BuildingBlock: KIFKEQ_clean_linker_1, # of connection points: 2
#     Edge 74, Type (0, 0), BuildingBlock: KIFKEQ_clean_linker_1, # of connection points: 2
#     Edge 75, Type (0, 0), BuildingBlock: KIFKEQ_clean_linker_1, # of connection points: 2
#     Edge 76, Type (0, 0), BuildingBlock: KIFKEQ_clean_linker_1, # of connection points: 2
#     Edge 77, Type (0, 0), BuildingBlock: KIFKEQ_clean_linker_1, # of connection points: 2
#     Edge 78, Type (0, 0), BuildingBlock: KIFKEQ_clean_linker_1, # of connection points: 2
#     Edge 79, Type (0, 0), BuildingBlock: KIFKEQ_clean_linker_1, # of connection points: 2
#     Edge 80, Type (0, 0), BuildingBlock: KIFKEQ_clean_linker_1, # of connection points: 2
#     Edge 81, Type (0, 0), BuildingBlock: KIFKEQ_clean_linker_1, # of connection points: 2
#     Edge 82, Type (0, 0), BuildingBlock: KIFKEQ_clean_linker_1, # of connection points: 2
#     Edge 83, Type (0, 0), BuildingBlock: KIFKEQ_clean_linker_1, # of connection points: 2
#     Edge 84, Type (0, 0), BuildingBlock: KIFKEQ_clean_linker_1, # of connection points: 2
#     Edge 85, Type (0, 0), BuildingBlock: KIFKEQ_clean_linker_1, # of connection points: 2
#     Edge 86, Type (0, 0), BuildingBlock: KIFKEQ_clean_linker_1, # of connection points: 2
#     Edge 87, Type (0, 0), BuildingBlock: KIFKEQ_clean_linker_1, # of connection points: 2
#     Edge 88, Type (0, 0), BuildingBlock: KIFKEQ_clean_linker_1, # of connection points: 2
#     Edge 89, Type (0, 0), BuildingBlock: KIFKEQ_clean_linker_1, # of connection points: 2
#     Edge 90, Type (0, 0), BuildingBlock: KIFKEQ_clean_linker_1, # of connection points: 2
#     Edge 91, Type (0, 0), BuildingBlock: KIFKEQ_clean_linker_1, # of connection points: 2
#     Edge 92, Type (0, 0), BuildingBlock: KIFKEQ_clean_linker_1, # of connection points: 2
#     Edge 93, Type (0, 0), BuildingBlock: KIFKEQ_clean_linker_1, # of connection points: 2
#     Edge 94, Type (0, 0), BuildingBlock: KIFKEQ_clean_linker_1, # of connection points: 2
#     Edge 95, Type (0, 0), BuildingBlock: KIFKEQ_clean_linker_1, # of connection points: 2
#     Edge 96, Type (0, 0), BuildingBlock: KIFKEQ_clean_linker_1, # of connection points: 2
#     Edge 97, Type (0, 0), BuildingBlock: KIFKEQ_clean_linker_1, # of connection points: 2
#     Edge 98, Type (0, 0), BuildingBlock: KIFKEQ_clean_linker_1, # of connection points: 2
#     Edge 99, Type (0, 0), BuildingBlock: KIFKEQ_clean_linker_1, # of connection points: 2
#     Edge 100, Type (0, 0), BuildingBlock: KIFKEQ_clean_linker_1, # of connection points: 2
#     Edge 101, Type (0, 0), BuildingBlock: KIFKEQ_clean_linker_1, # of connection points: 2
#     Edge 102, Type (0, 0), BuildingBlock: KIFKEQ_clean_linker_1, # of connection points: 2
#     Edge 103, Type (0, 0), BuildingBlock: KIFKEQ_clean_linker_1, # of connection points: 2
#     Edge 104, Type (0, 0), BuildingBlock: KIFKEQ_clean_linker_1, # of connection points: 2
#     Edge 105, Type (0, 0), BuildingBlock: KIFKEQ_clean_linker_1, # of connection points: 2
#     Edge 106, Type (0, 0), BuildingBlock: KIFKEQ_clean_linker_1, # of connection points: 2
#     Edge 107, Type (0, 0), BuildingBlock: KIFKEQ_clean_linker_1, # of connection points: 2
# Relax obj value: 0.086
# Max RMSD: 0.111
# Mean RMSD: 0.111
data_MOF--net-ict--node1-KUFVIS_clean_sbu_0--edge1-KIFKEQ_clean_linker_1
_symmetry_space_group_name_H-M    P1
_symmetry_Int_Tables_number       1
_symmetry_cell_setting            triclinic
loop_
_symmetry_equiv_pos_as_xyz
'x, y, z'
_cell_length_a     65.350204
_cell_length_b     65.353293
_cell_length_c     37.314111
_cell_angle_alpha  89.961234
_cell_angle_beta   90.020769
_cell_angle_gamma 120.00101
loop_
_atom_site_label
_atom_site_type_symbol
_atom_site_fract_x
_atom_site_fract_y
_atom_site_fract_z
_atom_type_partial_charge
Mn0 Mn 0.23217 0.22102 0.06287 0.0
Mn1 Mn 0.20885 0.20107 0.98063 0.0
C2 C 0.20535 0.23062 0.0378 0.0
C3 C 0.2313 0.21771 0.12568 0.0
C4 C 0.25894 0.24101 0.99194 0.0
O5 O 0.23872 0.19363 0.05519 0.0
O6 O 0.22183 0.18193 1.00071 0.0
C7 C 0.16882 0.1547 1.00246 0.0
N8 N 0.17702 0.17589 0.98567 0.0
C9 C 0.13788 0.16552 0.96633 0.0
C10 C 0.129 0.14354 0.9833 0.0
C11 C 0.14453 0.13815 1.00157 0.0
C12 C 0.16221 0.18135 0.96836 0.0
H13 H 0.18073 0.15046 0.01635 0.0
C14 C 0.23297 0.18014 0.02767 0.0
O15 O 0.2508 0.23099 0.10844 0.0
O16 O 0.21251 0.20556 0.10635 0.0
N17 N 0.19555 0.218 0.95795 0.0
C18 C 0.20686 0.24025 0.94402 0.0
C19 C 0.19378 0.24861 0.92551 0.0
C20 C 0.16929 0.23389 0.92107 0.0
C21 C 0.15811 0.21093 0.93517 0.0
C22 C 0.17205 0.20359 0.95343 0.0
H23 H 0.22571 0.25155 0.94708 0.0
O24 O 0.21989 0.24384 0.06256 0.0
O25 O 0.20711 0.21249 0.02831 0.0
O26 O 0.25808 0.24109 0.02615 0.0
O27 O 0.2414 0.22701 0.97248 0.0
C28 C 0.13367 0.19506 0.93199 0.0
C29 C 0.12354 0.17241 0.9477 0.0
H30 H 0.1103 0.13071 0.9826 0.0
H31 H 0.13781 0.12125 0.01481 0.0
H32 H 0.20255 0.26634 0.91462 0.0
H33 H 0.15925 0.24042 0.90685 0.0
H34 H 0.12244 0.20022 0.91796 0.0
H35 H 0.10467 0.1605 0.94553 0.0
Mn36 Mn 0.78423 0.01191 0.06342 0.0
Mn37 Mn 0.80219 0.00738 0.98019 0.0
C38 C 0.7736 0.97514 0.03869 0.0
C39 C 0.78837 0.01466 0.12616 0.0
C40 C 0.76291 0.01808 0.99331 0.0
O41 O 0.81195 0.04549 0.05485 0.0
O42 O 0.82166 0.03978 0.99923 0.0
C43 C 0.84913 0.01429 0.9999 0.0
N44 N 0.82763 1.00101 0.98412 0.0
C45 C 0.83795 0.97234 0.96415 0.0
C46 C 0.86024 0.98574 0.98008 0.0
C47 C 0.86581 0.00675 0.99816 0.0
C48 C 0.822 0.98065 0.967 0.0
H49 H 0.85352 0.03052 1.01362 0.0
C50 C 0.82454 0.05294 0.02639 0.0
O51 O 0.77522 0.0212 0.10927 0.0
O52 O 0.79995 0.00751 0.10649 0.0
N53 N 0.78498 0.97686 0.95846 0.0
C54 C 0.7624 0.96555 0.94581 0.0
C55 C 0.75383 0.94395 0.92772 0.0
C56 C 0.76867 0.93441 0.92236 0.0
C57 C 0.79195 0.94655 0.9352 0.0
C58 C 0.79947 0.96795 0.95315 0.0
H59 H 0.75099 0.9729 0.94963 0.0
O60 O 0.76087 0.97694 0.06381 0.0
O61 O 0.79179 0.99478 0.02848 0.0
O62 O 0.76409 0.01823 0.02748 0.0
O63 O 0.77588 0.01357 0.97306 0.0
C64 C 0.80794 0.93821 0.93109 0.0
C65 C 0.83088 0.95101 0.94575 0.0
H66 H 0.87318 0.98002 0.97871 0.0
H67 H 0.88296 0.01716 1.01059 0.0
H68 H 0.73586 0.9347 0.91785 0.0
H69 H 0.76199 0.91772 0.90846 0.0
H70 H 0.80266 0.92176 0.91718 0.0
H71 H 0.84287 0.94419 0.94294 0.0
Mn72 Mn 0.99407 0.77714 0.07039 0.0
Mn73 Mn 0.99686 0.79978 0.98769 0.0
C74 C 0.03035 0.80337 0.04423 0.0
C75 C 0.99239 0.77878 0.13336 0.0
C76 C 0.98629 0.74962 0.99989 0.0
O77 O 0.96014 0.77086 0.0633 0.0
O78 O 0.96503 0.78726 1.00849 0.0
C79 C 0.99125 0.84031 1.00902 0.0
N80 N 0.00385 0.83174 0.99206 0.0
C81 C 0.03238 0.87049 0.97094 0.0
C82 C 0.01968 0.87975 0.98808 0.0
C83 C 0.99908 0.8646 1.00735 0.0
C84 C 0.02383 0.84619 0.97382 0.0
H85 H 0.97533 0.82868 0.02363 0.0
C86 C 0.95226 0.77643 0.03572 0.0
O87 O 0.98575 0.75905 0.11656 0.0
O88 O 0.99899 0.79736 0.11352 0.0
N89 N 0.02677 0.81258 0.96415 0.0
C90 C 0.03734 0.80094 0.95013 0.0
C91 C 0.05843 0.81362 0.93066 0.0
C92 C 0.0682 0.83803 0.9253 0.0
C93 C 0.05677 0.84954 0.93948 0.0
C94 C 0.03586 0.83601 0.95878 0.0
H95 H 0.02974 0.78213 0.95383 0.0
O96 O 0.0291 0.78903 0.0693 0.0
O97 O 0.01049 0.80182 0.03511 0.0
O98 O 0.9875 0.7507 0.03411 0.0
O99 O 0.98989 0.76709 0.98021 0.0
C100 C 0.06534 0.87392 0.93534 0.0
C101 C 0.05323 0.88442 0.95125 0.0
H102 H 0.02561 0.89845 0.98674 0.0
H103 H 0.98921 0.87161 0.02071 0.0
H104 H 0.0671 0.80459 0.9197 0.0
H105 H 0.08448 0.84776 0.91031 0.0
H106 H 0.08142 0.88484 0.92043 0.0
H107 H 0.06022 0.90326 0.94837 0.0
Mn108 Mn 0.22356 0.22948 0.45926 0.0
Mn109 Mn 0.19918 0.20523 0.53929 0.0
C110 C 0.23331 0.20389 0.48799 0.0
C111 C 0.22231 0.22799 0.39626 0.0
C112 C 0.23792 0.25648 0.53031 0.0
O113 O 0.19529 0.23486 0.46263 0.0
O114 O 0.17862 0.21483 0.51387 0.0
C115 C 0.15659 0.16207 0.51373 0.0
N116 N 0.17685 0.17238 0.53339 0.0
C117 C 0.17032 0.13451 0.55318 0.0
C118 C 0.14928 0.1235 0.53335 0.0
C119 C 0.14242 0.13734 0.51348 0.0
C120 C 0.18366 0.15923 0.55253 0.0
H121 H 0.15133 0.17263 0.49828 0.0
C122 C 0.17889 0.22662 0.48625 0.0
O123 O 0.2347 0.24777 0.41336 0.0
O124 O 0.21015 0.2093 0.41575 0.0
N125 N 0.21729 0.19494 0.56635 0.0
C126 C 0.23868 0.20824 0.58249 0.0
C127 C 0.2484 0.19703 0.6027 0.0
C128 C 0.23599 0.17232 0.60627 0.0
C129 C 0.21392 0.15903 0.58967 0.0
C130 C 0.20502 0.17119 0.57014 0.0
H131 H 0.24829 0.22723 0.57985 0.0
O132 O 0.24722 0.21843 0.46374 0.0
O133 O 0.21428 0.20479 0.49439 0.0
O134 O 0.24127 0.25549 0.49677 0.0
O135 O 0.22229 0.23892 0.54825 0.0
C136 C 0.20058 0.13418 0.59126 0.0
C137 C 0.17882 0.12192 0.57296 0.0
H138 H 0.13837 0.10443 0.53292 0.0
H139 H 0.12628 0.12897 0.49793 0.0
H140 H 0.26545 0.20741 0.61541 0.0
H141 H 0.24365 0.16372 0.62158 0.0
H142 H 0.20703 0.12429 0.60609 0.0
H143 H 0.1689 0.1028 0.57393 0.0
Mn144 Mn 0.77719 0.99567 0.45997 0.0
Mn145 Mn 0.80017 0.99438 0.54063 0.0
C146 C 0.80328 0.03071 0.4891 0.0
C147 C 0.77899 0.99608 0.39694 0.0
C148 C 0.74935 0.98297 0.53028 0.0
O149 O 0.77097 0.96168 0.46321 0.0
O150 O 0.79042 0.96438 0.5148 0.0
C151 C 0.84328 0.99399 0.51738 0.0
N152 N 0.83292 0.0041 0.53652 0.0
C153 C 0.87036 0.03327 0.56096 0.0
C154 C 0.88142 0.02309 0.54167 0.0
C155 C 0.86783 0.00342 0.51966 0.0
C156 C 0.84585 0.02313 0.55756 0.0
H157 H 0.83287 0.97886 0.50053 0.0
C158 C 0.77874 0.95314 0.48696 0.0
O159 O 0.75922 0.98907 0.41388 0.0
O160 O 0.79754 1.00218 0.41659 0.0
N161 N 0.81047 0.02254 0.56819 0.0
C162 C 0.79732 0.03126 0.58293 0.0
C163 C 0.80842 0.05158 0.60444 0.0
C164 C 0.83283 0.06254 0.61092 0.0
C165 C 0.84595 0.05311 0.59569 0.0
C166 C 0.83395 0.03288 0.57439 0.0
H167 H 0.77853 0.02282 0.57822 0.0
O168 O 0.78903 0.03052 0.4647 0.0
O169 O 0.80179 0.01051 0.49562 0.0
O170 O 0.7508 0.98767 0.49683 0.0
O171 O 0.76659 0.98441 0.54845 0.0
C172 C 0.8705 0.06317 0.60042 0.0
C173 C 0.88272 0.05331 0.58298 0.0
H174 H 0.90036 0.03033 0.54333 0.0
H175 H 0.87625 0.99553 0.50456 0.0
H176 H 0.79817 0.05876 0.61607 0.0
H177 H 0.84134 0.07825 0.62744 0.0
H178 H 0.88025 0.07877 0.61689 0.0
H179 H 0.90167 0.06148 0.58628 0.0
Mn180 Mn 0.01116 0.78467 0.46689 0.0
Mn181 Mn 0.00802 0.80363 0.55009 0.0
C182 C 0.97478 0.77457 0.49271 0.0
C183 C 0.01323 0.78861 0.404 0.0
C184 C 0.01821 0.76391 0.53689 0.0
O185 O 0.04515 0.81203 0.47476 0.0
O186 O 0.04001 0.82294 0.52984 0.0
C187 C 0.01427 0.85023 0.53001 0.0
N188 N 1.00142 0.8289 0.54645 0.0
C189 C 0.97328 0.8394 0.56836 0.0
C190 C 0.98623 0.86153 0.55176 0.0
C191 C 0.00676 0.86692 0.53235 0.0
C192 C 0.9815 0.82342 0.5648 0.0
H193 H 0.03016 0.85449 0.51533 0.0
C194 C 0.05294 0.82511 0.50272 0.0
O195 O 0.01964 0.77525 0.4206 0.0
O196 O 0.00666 0.80052 0.42403 0.0
N197 N 0.97797 0.78651 0.57319 0.0
C198 C 0.96705 0.76407 0.58644 0.0
C199 C 0.94592 0.75566 0.60583 0.0
C200 C 0.93651 0.77053 0.61196 0.0
C201 C 0.9483 0.79368 0.59856 0.0
C202 C 0.96918 0.80103 0.57923 0.0
H203 H 0.97439 0.75268 0.58218 0.0
O204 O 0.97609 0.76172 0.46734 0.0
O205 O 0.99464 0.79271 0.50233 0.0
O206 O 0.01727 0.76425 0.50269 0.0
O207 O 0.01461 0.77761 0.55693 0.0
C208 C 0.9401 0.80974 0.6035 0.0
C209 C 0.95247 0.83251 0.58817 0.0
H210 H 0.98055 0.87447 0.55363 0.0
H211 H 0.01683 0.88394 0.5194 0.0
H212 H 0.93698 0.73779 0.61617 0.0
H213 H 0.92022 0.76399 0.62692 0.0
H214 H 0.92408 0.80461 0.61855 0.0
H215 H 0.94574 0.84454 0.5916 0.0
Mn216 Mn 0.77256 0.78062 0.96706 0.0
Mn217 Mn 0.79716 0.80486 0.04705 0.0
C218 C 0.79855 0.77109 0.99505 0.0
C219 C 0.77343 0.78198 0.90398 0.0
C220 C 0.74607 0.76575 0.0387 0.0
O221 O 0.76697 0.80872 0.97095 0.0
O222 O 0.78673 0.82502 0.02249 0.0
C223 C 0.83957 0.84798 0.02091 0.0
N224 N 0.8298 0.82769 0.04053 0.0
C225 C 0.86813 0.83507 0.05939 0.0
C226 C 0.87859 0.85614 0.03959 0.0
C227 C 0.86424 0.86258 0.0202 0.0
C228 C 0.84344 0.82128 0.05917 0.0
H229 H 0.82861 0.85294 1.00587 0.0
C230 C 0.77487 0.82481 0.99503 0.0
O231 O 0.75386 0.76944 0.92152 0.0
O232 O 0.79231 0.79416 0.92308 0.0
N233 N 0.80824 0.78717 0.07345 0.0
C234 C 0.79544 0.76576 0.08975 0.0
C235 C 0.80718 0.75646 0.10961 0.0
C236 C 0.83192 0.76932 0.1127 0.0
C237 C 0.84469 0.79143 0.09599 0.0
C238 C 0.83201 0.79988 0.07679 0.0
H239 H 0.77642 0.75581 0.08751 0.0
O240 O 0.7839 0.75716 0.97093 0.0
O241 O 0.79754 0.79002 1.00178 0.0
O242 O 0.74685 0.76275 1.00498 0.0
O243 O 0.76372 0.78125 0.05661 0.0
C244 C 0.86952 0.80525 0.09718 0.0
C245 C 0.88124 0.82701 0.07879 0.0
H246 H 0.89762 0.86739 0.03883 0.0
H247 H 0.87219 0.87875 1.00469 0.0
H248 H 0.7972 0.73938 0.12243 0.0
H249 H 0.84093 0.762 0.12777 0.0
H250 H 0.8798 0.79917 0.11179 0.0
H251 H 0.90035 0.83731 0.07946 0.0
Mn252 Mn 0.22498 0.99442 0.96205 0.0
Mn253 Mn 0.20181 0.99596 0.0424 0.0
C254 C 0.23575 0.03031 0.9898 0.0
C255 C 0.22324 0.99413 0.89898 0.0
C256 C 0.23962 0.98218 0.03336 0.0
O257 O 0.19623 0.96109 0.96653 0.0
O258 O 0.18067 0.96553 0.01818 0.0
C259 C 0.15934 0.99689 0.01711 0.0
N260 N 0.17979 0.00686 0.03632 0.0
C261 C 0.174 0.0388 0.05526 0.0
C262 C 0.15277 0.02877 0.0359 0.0
C263 C 0.14545 0.00775 0.01667 0.0
C264 C 0.18705 0.02713 0.0548 0.0
H265 H 0.15373 0.98083 1.00217 0.0
C266 C 0.18027 0.9535 0.99083 0.0
O267 O 0.2354 0.98645 0.9161 0.0
O268 O 0.21154 1.00117 0.91849 0.0
N269 N 0.22052 0.02468 0.06839 0.0
C270 C 0.24201 0.0327 0.08415 0.0
C271 C 0.25217 0.05389 0.10372 0.0
C272 C 0.24008 0.06652 0.10706 0.0
C273 C 0.21789 0.05781 0.09088 0.0
C274 C 0.20857 0.0365 0.07195 0.0
H275 H 0.25137 0.02305 0.0817 0.0
O276 O 0.24926 0.02902 0.9655 0.0
O277 O 0.21656 0.01069 0.9969 0.0
O278 O 0.24255 0.98589 0.99961 0.0
O279 O 0.22461 0.98502 0.05148 0.0
C280 C 0.20482 0.0696 0.09233 0.0
C281 C 0.18293 0.06015 0.07443 0.0
H282 H 0.14207 0.03716 0.03534 0.0
H283 H 0.12917 0.99997 1.00148 0.0
H284 H 0.26931 0.0605 0.11611 0.0
H285 H 0.24807 0.08296 0.1219 0.0
H286 H 0.21157 0.08611 0.10676 0.0
H287 H 0.17322 0.06958 0.07528 0.0
Mn288 Mn 0.01169 0.23068 0.96229 0.0
Mn289 Mn 0.00945 0.20521 0.0422 0.0
C290 C 0.97555 0.2051 0.98887 0.0
C291 C 0.01308 0.23011 0.89937 0.0
C292 C 0.02287 0.25676 0.03403 0.0
O293 O 0.04507 0.23558 0.96765 0.0
O294 O 0.04015 0.21475 0.01856 0.0
C295 C 0.00881 0.16206 0.01643 0.0
N296 N 0.99864 0.17235 0.0356 0.0
C297 C 0.96652 0.13443 0.05354 0.0
C298 C 0.97676 0.12344 0.03421 0.0
C299 C 0.99797 0.13732 0.0155 0.0
C300 C 0.97819 0.15916 0.05358 0.0
H301 H 0.02502 0.17266 1.00186 0.0
C302 C 0.05246 0.22686 0.9917 0.0
O303 O 0.02026 0.24967 0.91697 0.0
O304 O 0.0058 0.21108 0.91834 0.0
N305 N 0.98046 0.19493 0.06761 0.0
C306 C 0.97227 0.20824 0.0834 0.0
C307 C 0.95088 0.19701 0.10249 0.0
C308 C 0.93823 0.17226 0.10531 0.0
C309 C 0.94712 0.15895 0.08911 0.0
C310 C 0.96862 0.17112 0.0707 0.0
H311 H 0.98193 0.22726 0.08136 0.0
O312 O 0.97701 0.22005 0.9647 0.0
O313 O 0.99514 0.20558 0.99644 0.0
O314 O 0.01937 0.25622 1.00027 0.0
O315 O 0.02023 0.23887 0.05186 0.0
C316 C 0.93531 0.13407 0.09003 0.0
C317 C 0.94496 0.12182 0.07217 0.0
H318 H 0.96839 0.10435 0.03327 0.0
H319 H 0.00591 0.12897 1.00033 0.0
H320 H 0.94413 0.2074 0.1149 0.0
H321 H 0.92163 0.16365 0.11976 0.0
H322 H 0.91864 0.12417 0.10403 0.0
H323 H 0.93553 0.10268 0.0726 0.0
Mn324 Mn 0.78141 0.7742 0.56947 0.0
Mn325 Mn 0.80668 0.79769 0.48943 0.0
C326 C 0.77337 0.80097 0.54034 0.0
C327 C 0.78203 0.77515 0.63256 0.0
C328 C 0.76653 0.74717 0.49834 0.0
O329 O 0.8089 0.76754 0.56681 0.0
O330 O 0.82596 0.78675 0.5152 0.0
C331 C 0.85053 0.83968 0.51457 0.0
N332 N 0.8303 0.83014 0.49486 0.0
C333 C 0.83995 0.86826 0.47158 0.0
C334 C 0.86096 0.87851 0.4915 0.0
C335 C 0.86621 0.86416 0.51322 0.0
C336 C 0.82495 0.8438 0.47417 0.0
H337 H 0.85466 0.82869 0.53113 0.0
C338 C 0.82518 0.77492 0.54303 0.0
O339 O 0.76925 0.75568 0.61495 0.0
O340 O 0.79488 0.79393 0.61354 0.0
N341 N 0.78984 0.80914 0.46176 0.0
C342 C 0.76828 0.79666 0.44576 0.0
C343 C 0.75996 0.80852 0.42407 0.0
C344 C 0.774 0.833 0.41867 0.0
C345 C 0.79623 0.84541 0.4351 0.0
C346 C 0.80356 0.83266 0.45652 0.0
H347 H 0.75751 0.77781 0.44958 0.0
O348 O 0.75888 0.78665 0.5643 0.0
O349 O 0.79193 0.79915 0.53426 0.0
O350 O 0.76324 0.74833 0.53185 0.0
O351 O 0.78249 0.76447 0.48049 0.0
C352 C 0.81134 0.86996 0.4313 0.0
C353 C 0.83317 0.88138 0.44957 0.0
H354 H 0.87311 0.89738 0.49049 0.0
H355 H 0.88235 0.87194 0.52878 0.0
H356 H 0.74279 0.79881 0.41146 0.0
H357 H 0.76751 0.8421 0.40198 0.0
H358 H 0.80619 0.88029 0.41483 0.0
H359 H 0.84446 0.90032 0.44687 0.0
Mn360 Mn 0.23218 0.01088 0.56525 0.0
Mn361 Mn 0.20753 0.00588 0.48357 0.0
C362 C 0.20669 0.97394 0.5405 0.0
C363 C 0.23147 0.01326 0.62815 0.0
C364 C 0.25855 0.01871 0.49363 0.0
O365 O 0.23688 0.04415 0.55749 0.0
O366 O 0.2194 0.0379 0.50331 0.0
C367 C 0.16645 0.00992 0.50716 0.0
N368 N 0.17529 0.99765 0.48991 0.0
C369 C 0.13626 0.96676 0.47386 0.0
C370 C 0.12674 0.97912 0.49129 0.0
C371 C 0.1419 1.00076 0.50809 0.0
C372 C 0.16086 0.97676 0.47383 0.0
H373 H 0.17805 0.02654 0.52013 0.0
C374 C 0.23038 0.05123 0.52999 0.0
O375 O 0.25108 0.02044 0.61067 0.0
O376 O 0.21247 0.00572 0.60901 0.0
N377 N 0.19515 0.97562 0.46126 0.0
C378 C 0.20715 0.96563 0.4465 0.0
C379 C 0.19455 0.94377 0.42894 0.0
C380 C 0.16981 0.93254 0.42645 0.0
C381 C 0.15789 0.94332 0.44143 0.0
C382 C 0.1714 0.96519 0.45837 0.0
H383 H 0.22617 0.97426 0.4482 0.0
O384 O 0.22171 0.97616 0.56506 0.0
O385 O 0.20716 0.99327 0.53115 0.0
O386 O 0.25809 0.01799 0.52788 0.0
O387 O 0.2405 0.01404 0.4745 0.0
C388 C 0.13312 0.93313 0.44054 0.0
C389 C 0.12231 0.94479 0.45689 0.0
H390 H 0.10782 0.97209 0.49214 0.0
H391 H 0.13468 0.01036 0.52173 0.0
H392 H 0.20388 0.93558 0.41739 0.0
H393 H 0.16015 0.9156 0.41311 0.0
H394 H 0.1222 0.91623 0.42764 0.0
H395 H 0.10324 0.93662 0.45644 0.0
Mn396 Mn 0.99644 0.22315 0.56542 0.0
Mn397 Mn 0.99488 0.19923 0.48426 0.0
C398 C 0.03123 0.23134 0.53633 0.0
C399 C 0.99683 0.22208 0.62838 0.0
C400 C 0.98581 0.24 0.49454 0.0
O401 O 0.96237 0.19576 0.56257 0.0
O402 O 0.96394 0.18062 0.50879 0.0
C403 C 0.99029 0.154 0.50869 0.0
N404 N 1.00209 0.17443 0.4896 0.0
C405 C 0.03005 0.16358 0.46797 0.0
C406 C 0.01812 0.14236 0.48725 0.0
C407 C 0.99821 0.1376 0.50781 0.0
C408 C 0.02138 0.17927 0.46997 0.0
H409 H 0.97496 0.15026 0.52444 0.0
C410 C 0.95306 0.18061 0.53735 0.0
O411 O 0.99011 0.23497 0.61116 0.0
O412 O 1.00271 0.20932 0.60905 0.0
N413 N 0.02376 0.21532 0.45771 0.0
C414 C 0.034 0.23713 0.44227 0.0
C415 C 0.05451 0.24491 0.42156 0.0
C416 C 0.06415 0.23012 0.41665 0.0
C417 C 0.05318 0.20768 0.43255 0.0
C418 C 0.03276 0.20087 0.45288 0.0
H419 H 0.02666 0.24855 0.44593 0.0
O420 O 0.03137 0.24568 0.56051 0.0
O421 O 0.01085 0.21289 0.52977 0.0
O422 O 0.98874 0.2417 0.52847 0.0
O423 O 0.98774 0.22481 0.47556 0.0
C424 C 0.06186 0.1919 0.42938 0.0
C425 C 0.05036 0.1699 0.44719 0.0
H426 H 0.02418 0.12967 0.48665 0.0
H427 H 0.98895 0.12131 0.52288 0.0
H428 H 0.0629 0.26228 0.40942 0.0
H429 H 0.08004 0.23623 0.4008 0.0
H430 H 0.07759 0.19666 0.41377 0.0
H431 H 0.05744 0.15809 0.44503 0.0
Mn432 Mn 0.9009 0.55855 0.40205 0.0
Mn433 Mn 0.87708 0.53375 0.32196 0.0
C434 C 0.87404 0.56676 0.37372 0.0
C435 C 0.90011 0.55767 0.46513 0.0
C436 C 0.92761 0.57387 0.3306 0.0
O437 O 0.90747 0.53102 0.39875 0.0
O438 O 0.88842 0.5145 0.34683 0.0
C439 C 0.83546 0.48961 0.34725 0.0
N440 N 0.84473 0.50995 0.32781 0.0
C441 C 0.8063 0.50031 0.30593 0.0
C442 C 0.79634 0.47919 0.32558 0.0
C443 C 0.81098 0.47388 0.34646 0.0
C444 C 0.83078 0.51534 0.30791 0.0
H445 H 0.84668 0.48544 0.36319 0.0
C446 C 0.90024 0.51505 0.37453 0.0
O447 O 0.91956 0.57047 0.44747 0.0
O448 O 0.88129 0.54491 0.44617 0.0
N449 N 0.86523 0.55059 0.29515 0.0
C450 C 0.87748 0.57222 0.27932 0.0
C451 C 0.86532 0.58059 0.25842 0.0
C452 C 0.84078 0.56652 0.25366 0.0
C453 C 0.82861 0.54421 0.2699 0.0
C454 C 0.84166 0.53683 0.29048 0.0
H455 H 0.89636 0.58303 0.28268 0.0
O456 O 0.88853 0.58115 0.39759 0.0
O457 O 0.8758 0.54821 0.36718 0.0
O458 O 0.92666 0.57683 0.36427 0.0
O459 O 0.91018 0.55815 0.31268 0.0
C460 C 0.80403 0.52908 0.26675 0.0
C461 C 0.79287 0.50716 0.2848 0.0
H462 H 0.77747 0.46701 0.32502 0.0
H463 H 0.80343 0.45766 0.3618 0.0
H464 H 0.87484 0.59783 0.24596 0.0
H465 H 0.83145 0.57307 0.23761 0.0
H466 H 0.79347 0.53429 0.25095 0.0
H467 H 0.7739 0.49585 0.28262 0.0
Mn468 Mn 0.44958 0.34386 0.39726 0.0
Mn469 Mn 0.47548 0.34564 0.31799 0.0
C470 C 0.4421 0.30904 0.36907 0.0
C471 C 0.45015 0.34414 0.46011 0.0
C472 C 0.43487 0.3555 0.32572 0.0
O473 O 0.47666 0.37819 0.3942 0.0
O474 O 0.49474 0.37587 0.34388 0.0
C475 C 0.51913 0.34736 0.3439 0.0
N476 N 0.49897 0.33668 0.32402 0.0
C477 C 0.50824 0.3076 0.30226 0.0
C478 C 0.52917 0.31837 0.32236 0.0
C479 C 0.53459 0.33828 0.34338 0.0
C480 C 0.4935 0.31741 0.30391 0.0
H481 H 0.52336 0.36268 0.36001 0.0
C482 C 0.49344 0.38699 0.37123 0.0
O483 O 0.43687 0.35005 0.44216 0.0
O484 O 0.46349 0.33859 0.44164 0.0
N485 N 0.45865 0.31727 0.29051 0.0
C486 C 0.43715 0.3082 0.27433 0.0
C487 C 0.42869 0.28774 0.25327 0.0
C488 C 0.44251 0.27698 0.24877 0.0
C489 C 0.46467 0.28677 0.2654 0.0
C490 C 0.47218 0.30718 0.28605 0.0
H491 H 0.42651 0.31646 0.27755 0.0
O492 O 0.42751 0.30882 0.39284 0.0
O493 O 0.46054 0.32949 0.36277 0.0
O494 O 0.43112 0.35068 0.35907 0.0
O495 O 0.45137 0.35478 0.30842 0.0
C496 C 0.47949 0.27693 0.26264 0.0
C497 C 0.50125 0.28733 0.28108 0.0
H498 H 0.54112 0.3114 0.32207 0.0
H499 H 0.55066 0.34663 0.35909 0.0
H500 H 0.41156 0.28029 0.24053 0.0
H501 H 0.43587 0.26114 0.23264 0.0
H502 H 0.47416 0.26116 0.24684 0.0
H503 H 0.51232 0.27938 0.27919 0.0
Mn504 Mn 0.66144 0.1078 0.3965 0.0
Mn505 Mn 0.66752 0.13277 0.3148 0.0
C506 C 0.69869 0.1336 0.37311 0.0
C507 C 0.65789 0.10829 0.45924 0.0
C508 C 0.65509 0.08184 0.32493 0.0
O509 O 0.62819 0.10278 0.38725 0.0
O510 O 0.63521 0.12085 0.33346 0.0
C511 C 0.66315 0.17377 0.3377 0.0
N512 N 0.67566 0.16499 0.32105 0.0
C513 C 0.70683 0.20407 0.30583 0.0
C514 C 0.69421 0.21353 0.32265 0.0
C515 C 0.67231 0.19831 0.33873 0.0
C516 C 0.69681 0.17947 0.30567 0.0
H517 H 0.64632 0.16213 0.35013 0.0
C518 C 0.6215 0.10959 0.35967 0.0
O519 O 0.65124 0.08877 0.44181 0.0
O520 O 0.66559 0.12731 0.44009 0.0
N521 N 0.69812 0.14522 0.29355 0.0
C522 C 0.70832 0.13327 0.27934 0.0
C523 C 0.73045 0.14593 0.26254 0.0
C524 C 0.74174 0.17068 0.26022 0.0
C525 C 0.73074 0.18255 0.27463 0.0
C526 C 0.7086 0.16898 0.29081 0.0
H527 H 0.69966 0.11425 0.28091 0.0
O528 O 0.69621 0.11859 0.39787 0.0
O529 O 0.67945 0.13298 0.36287 0.0
O530 O 0.65541 0.08215 0.3592 0.0
O531 O 0.65954 0.09983 0.30583 0.0
C532 C 0.74097 0.20732 0.2739 0.0
C533 C 0.72908 0.21808 0.28964 0.0
H534 H 0.70125 0.23245 0.32358 0.0
H535 H 0.66251 0.20549 0.35189 0.0
H536 H 0.73881 0.13664 0.25143 0.0
H537 H 0.75888 0.18038 0.24746 0.0
H538 H 0.75809 0.21829 0.26164 0.0
H539 H 0.73727 0.23715 0.28933 0.0
Mn540 Mn 0.89337 0.56662 0.79954 0.0
Mn541 Mn 0.8681 0.54165 0.87884 0.0
C542 C 0.90224 0.5402 0.82767 0.0
C543 C 0.89253 0.56599 0.73646 0.0
C544 C 0.90754 0.59273 0.87142 0.0
O545 O 0.86541 0.57251 0.80284 0.0
O546 O 0.84816 0.55206 0.85354 0.0
C547 C 0.82528 0.49924 0.85195 0.0
N548 N 0.84538 0.509 0.87198 0.0
C549 C 0.83793 0.47066 0.89089 0.0
C550 C 0.81705 0.46021 0.87066 0.0
C551 C 0.81073 0.47457 0.85104 0.0
C552 C 0.85167 0.49535 0.89087 0.0
H553 H 0.82043 0.51021 0.83672 0.0
C554 C 0.84885 0.56425 0.82618 0.0
O555 O 0.9051 0.58548 0.75417 0.0
O556 O 0.88005 0.54709 0.75537 0.0
N557 N 0.88559 0.53056 0.90574 0.0
C558 C 0.90689 0.54334 0.92235 0.0
C559 C 0.91608 0.53158 0.94241 0.0
C560 C 0.90323 0.50684 0.94536 0.0
C561 C 0.88126 0.49408 0.92829 0.0
C562 C 0.87291 0.50677 0.9089 0.0
H563 H 0.91683 0.56236 0.92021 0.0
O564 O 0.91651 0.55489 0.80388 0.0
O565 O 0.8834 0.54144 0.834 0.0
O566 O 0.91111 0.59206 0.83787 0.0
O567 O 0.89157 0.57509 0.88881 0.0
C568 C 0.86749 0.46924 0.92927 0.0
C569 C 0.84588 0.45753 0.9105 0.0
H570 H 0.80585 0.44118 0.86974 0.0
H571 H 0.79472 0.46664 0.83519 0.0
H572 H 0.93306 0.54156 0.95549 0.0
H573 H 0.91048 0.49782 0.96058 0.0
H574 H 0.8735 0.45894 0.94401 0.0
H575 H 0.83564 0.43841 0.91101 0.0
Mn576 Mn 0.44283 0.32985 0.79437 0.0
Mn577 Mn 0.46645 0.32769 0.87396 0.0
C578 C 0.47037 0.36455 0.82265 0.0
C579 C 0.44315 0.32953 0.73152 0.0
C580 C 0.41622 0.31843 0.86555 0.0
O581 O 0.43513 0.29537 0.79761 0.0
O582 O 0.45543 0.2975 0.84798 0.0
C583 C 0.50836 0.32562 0.84895 0.0
N584 N 0.49887 0.33636 0.86864 0.0
C585 C 0.53707 0.36488 0.89161 0.0
C586 C 0.54725 0.35404 0.87173 0.0
C587 C 0.53283 0.33438 0.85019 0.0
C588 C 0.51259 0.35538 0.88925 0.0
H589 H 0.49732 0.31048 0.83247 0.0
C590 C 0.44297 0.28644 0.82061 0.0
O591 O 0.42402 0.32384 0.74944 0.0
O592 O 0.46199 0.33486 0.75002 0.0
N593 N 0.47801 0.35601 0.90157 0.0
C594 C 0.46564 0.36532 0.91719 0.0
C595 C 0.47759 0.38565 0.93853 0.0
C596 C 0.50207 0.39601 0.9439 0.0
C597 C 0.51437 0.38598 0.92781 0.0
C598 C 0.50153 0.36575 0.90679 0.0
H599 H 0.44681 0.35734 0.91332 0.0
O600 O 0.45616 0.36493 0.7987 0.0
O601 O 0.46813 0.34401 0.82907 0.0
O602 O 0.41753 0.32342 0.83226 0.0
O603 O 0.43321 0.31879 0.883 0.0
C604 C 0.53893 0.39544 0.93142 0.0
C605 C 0.55029 0.38494 0.91325 0.0
H606 H 0.56613 0.36077 0.87258 0.0
H607 H 0.54056 0.32598 0.83465 0.0
H608 H 0.46797 0.39329 0.95084 0.0
H609 H 0.51124 0.41174 0.96027 0.0
H610 H 0.54933 0.41104 0.94761 0.0
H611 H 0.56925 0.39264 0.91571 0.0
Mn612 Mn 0.6748 0.11406 0.79336 0.0
Mn613 Mn 0.67506 0.13611 0.87565 0.0
C614 C 0.63956 0.10501 0.82188 0.0
C615 C 0.67483 0.1161 0.73034 0.0
C616 C 0.68466 0.09587 0.86369 0.0
O617 O 0.70871 0.14168 0.79755 0.0
O618 O 0.70638 0.15513 0.85241 0.0
C619 C 0.68017 0.18191 0.85324 0.0
N620 N 0.66805 0.16109 0.8713 0.0
C621 C 0.64002 0.17171 0.89339 0.0
C622 C 0.65227 0.19332 0.87516 0.0
C623 C 0.67238 0.19839 0.85488 0.0
C624 C 0.64857 0.15595 0.89065 0.0
H625 H 0.69567 0.1859 0.83773 0.0
C626 C 0.71767 0.15601 0.82386 0.0
O627 O 0.68171 0.10318 0.74712 0.0
O628 O 0.66868 0.12844 0.75015 0.0
N629 N 0.64581 0.11955 0.90113 0.0
C630 C 0.63525 0.09739 0.9154 0.0
C631 C 0.61448 0.08926 0.93562 0.0
C632 C 0.60495 0.10407 0.94127 0.0
C633 C 0.61625 0.12688 0.92658 0.0
C634 C 0.63687 0.134 0.90664 0.0
H635 H 0.64253 0.08597 0.91119 0.0
O636 O 0.63989 0.09117 0.79724 0.0
O637 O 0.65978 0.12345 0.82935 0.0
O638 O 0.68248 0.09506 0.82961 0.0
O639 O 0.682 0.11034 0.88334 0.0
C640 C 0.60771 0.14272 0.93058 0.0
C641 C 0.61951 0.16508 0.91385 0.0
H642 H 0.64632 0.20608 0.87637 0.0
H643 H 0.68189 0.215 0.84063 0.0
H644 H 0.60585 0.07162 0.94682 0.0
H645 H 0.58887 0.09771 0.95676 0.0
H646 H 0.59185 0.13773 0.94598 0.0
H647 H 0.61253 0.17693 0.9166 0.0
Mn648 Mn 0.44172 0.11544 0.29344 0.0
Mn649 Mn 0.46689 0.13943 0.37313 0.0
C650 C 0.46775 0.10565 0.32055 0.0
C651 C 0.4422 0.11706 0.23052 0.0
C652 C 0.4155 0.10082 0.365 0.0
O653 O 0.43636 0.14369 0.29813 0.0
O654 O 0.45747 0.16041 0.34854 0.0
C655 C 0.51017 0.18189 0.34748 0.0
N656 N 0.49978 0.1615 0.36685 0.0
C657 C 0.53762 0.16746 0.38566 0.0
C658 C 0.5487 0.18863 0.36614 0.0
C659 C 0.53491 0.19584 0.3469 0.0
C660 C 0.51288 0.15436 0.38538 0.0
H661 H 0.49965 0.18741 0.33251 0.0
C662 C 0.44523 0.16019 0.32154 0.0
O663 O 0.42271 0.10453 0.24825 0.0
O664 O 0.46123 0.12913 0.24937 0.0
N665 N 0.47706 0.12086 0.39924 0.0
C666 C 0.46369 0.09935 0.415 0.0
C667 C 0.47483 0.08926 0.43449 0.0
C668 C 0.49956 0.10142 0.43771 0.0
C669 C 0.51294 0.12361 0.42147 0.0
C670 C 0.50084 0.13288 0.40266 0.0
H671 H 0.44468 0.08991 0.41264 0.0
O672 O 0.45294 0.09185 0.29648 0.0
O673 O 0.46683 0.12457 0.32771 0.0
O674 O 0.41625 0.09744 0.33144 0.0
O675 O 0.43316 0.11655 0.38264 0.0
C676 C 0.53781 0.13671 0.4227 0.0
C677 C 0.55014 0.15859 0.40474 0.0
H678 H 0.56779 0.19935 0.36543 0.0
H679 H 0.54334 0.21207 0.33157 0.0
H680 H 0.46439 0.07211 0.4469 0.0
H681 H 0.5081 0.09348 0.45246 0.0
H682 H 0.54764 0.12997 0.43697 0.0
H683 H 0.56928 0.16832 0.40541 0.0
Mn684 Mn 0.88829 0.32814 0.29839 0.0
Mn685 Mn 0.87197 0.33254 0.38291 0.0
C686 C 0.89957 0.36489 0.32391 0.0
C687 C 0.88319 0.32565 0.23572 0.0
C688 C 0.91078 0.32163 0.36697 0.0
O689 O 0.86064 0.29455 0.30741 0.0
O690 O 0.85216 0.30025 0.36382 0.0
C691 C 0.82472 0.32577 0.36587 0.0
N692 N 0.84649 0.33893 0.3809 0.0
C693 C 0.83639 0.36721 0.40353 0.0
C694 C 0.81382 0.35393 0.38839 0.0
C695 C 0.80801 0.33318 0.36932 0.0
C696 C 0.85236 0.35906 0.3989 0.0
H697 H 0.82013 0.30971 0.35147 0.0
C698 C 0.84866 0.28708 0.33645 0.0
O699 O 0.89647 0.31894 0.25173 0.0
O700 O 0.87197 0.33281 0.25625 0.0
N701 N 0.88958 0.36293 0.40487 0.0
C702 C 0.91239 0.37419 0.41654 0.0
C703 C 0.92122 0.39556 0.43537 0.0
C704 C 0.9064 0.40489 0.44255 0.0
C705 C 0.88288 0.3928 0.43072 0.0
C706 C 0.87513 0.37167 0.41187 0.0
H707 H 0.92377 0.36696 0.41138 0.0
O708 O 0.91179 0.36309 0.29797 0.0
O709 O 0.88149 0.34528 0.33445 0.0
O710 O 0.90891 0.32149 0.33289 0.0
O711 O 0.89835 0.3263 0.38816 0.0
C712 C 0.86687 0.40091 0.43675 0.0
C713 C 0.84369 0.38824 0.42291 0.0
H714 H 0.80085 0.35953 0.39112 0.0
H715 H 0.79065 0.32286 0.3575 0.0
H716 H 0.93938 0.40477 0.44446 0.0
H717 H 0.91326 0.42138 0.45708 0.0
H718 H 0.87231 0.41711 0.45148 0.0
H719 H 0.83168 0.39491 0.42715 0.0
Mn720 Mn 0.6789 0.56344 0.29829 0.0
Mn721 Mn 0.67948 0.53973 0.37861 0.0
C722 C 0.64362 0.53709 0.32652 0.0
C723 C 0.67934 0.56237 0.23535 0.0
C724 C 0.69074 0.59055 0.36912 0.0
O725 O 0.71288 0.56972 0.30218 0.0
O726 O 0.70974 0.54972 0.35334 0.0
C727 C 0.68007 0.49687 0.35459 0.0
N728 N 0.66977 0.50702 0.37378 0.0
C729 C 0.64021 0.46929 0.39685 0.0
C730 C 0.65059 0.45844 0.37752 0.0
C731 C 0.67055 0.47229 0.35617 0.0
C732 C 0.65045 0.49385 0.39416 0.0
H733 H 0.69542 0.50747 0.33824 0.0
C734 C 0.72123 0.5617 0.32583 0.0
O735 O 0.68604 0.58193 0.25271 0.0
O736 O 0.67298 0.54358 0.25456 0.0
N737 N 0.65105 0.52913 0.40563 0.0
C738 C 0.64226 0.54214 0.42067 0.0
C739 C 0.62171 0.53082 0.44168 0.0
C740 C 0.61058 0.50631 0.44734 0.0
C741 C 0.62007 0.49334 0.43184 0.0
C742 C 0.64056 0.50557 0.41111 0.0
H743 H 0.65083 0.561 0.4166 0.0
O744 O 0.644 0.5515 0.30221 0.0
O745 O 0.66376 0.53853 0.33337 0.0
O746 O 0.68632 0.58934 0.3356 0.0
O747 O 0.68934 0.57325 0.38708 0.0
C748 C 0.60986 0.4687 0.43579 0.0
C749 C 0.61989 0.45668 0.41825 0.0
H750 H 0.64328 0.43948 0.37864 0.0
H751 H 0.6786 0.46403 0.34103 0.0
H752 H 0.61448 0.54095 0.45354 0.0
H753 H 0.59468 0.49762 0.46346 0.0
H754 H 0.59405 0.45877 0.45176 0.0
H755 H 0.61163 0.43768 0.42098 0.0
Mn756 Mn 0.44767 0.10807 0.89643 0.0
Mn757 Mn 0.47236 0.13106 0.81598 0.0
C758 C 0.4395 0.13475 0.86752 0.0
C759 C 0.44887 0.10929 0.95936 0.0
C760 C 0.43205 0.08068 0.82576 0.0
O761 O 0.47499 0.1012 0.89327 0.0
O762 O 0.49189 0.12027 0.84152 0.0
C763 C 0.51646 0.17318 0.84011 0.0
N764 N 0.49605 0.16354 0.82083 0.0
C765 C 0.50532 0.2016 0.79774 0.0
C766 C 0.52652 0.21194 0.81721 0.0
C767 C 0.53206 0.19767 0.8386 0.0
C768 C 0.49046 0.17712 0.80037 0.0
H769 H 0.5208 0.16226 0.85648 0.0
C770 C 0.4912 0.10851 0.86941 0.0
O771 O 0.43584 0.08975 0.94206 0.0
O772 O 0.46164 0.12797 0.94011 0.0
N773 N 0.45527 0.14238 0.78864 0.0
C774 C 0.43349 0.12984 0.77333 0.0
C775 C 0.42485 0.14164 0.75213 0.0
C776 C 0.43879 0.16611 0.74657 0.0
C777 C 0.46123 0.17858 0.76233 0.0
C778 C 0.46889 0.1659 0.78323 0.0
H779 H 0.42277 0.11101 0.77735 0.0
O780 O 0.42521 0.12057 0.89179 0.0
O781 O 0.458 0.13287 0.86104 0.0
O782 O 0.429 0.08211 0.85926 0.0
O783 O 0.44804 0.09776 0.80759 0.0
C784 C 0.47619 0.20315 0.75848 0.0
C785 C 0.4982 0.21466 0.77624 0.0
H786 H 0.53858 0.23083 0.81614 0.0
H787 H 0.54833 0.20553 0.85382 0.0
H788 H 0.40751 0.13188 0.74007 0.0
H789 H 0.43203 0.17516 0.73031 0.0
H790 H 0.47077 0.21342 0.7424 0.0
H791 H 0.50936 0.23362 0.77356 0.0
Mn792 Mn 0.89294 0.34298 0.90207 0.0
Mn793 Mn 0.871 0.34025 0.81885 0.0
C794 C 0.86671 0.3067 0.87593 0.0
C795 C 0.89117 0.34489 0.96497 0.0
C796 C 0.92094 0.35052 0.83215 0.0
O797 O 0.89944 0.37695 0.89466 0.0
O798 O 0.88349 0.37212 0.83953 0.0
C799 C 0.83045 0.34624 0.83868 0.0
N800 N 0.83908 0.33355 0.82217 0.0
C801 C 0.80063 0.30562 0.79932 0.0
C802 C 0.79131 0.31842 0.81599 0.0
C803 C 0.80628 0.33875 0.8359 0.0
C804 C 0.82481 0.31383 0.8033 0.0
H805 H 0.84196 0.36199 0.85374 0.0
C806 C 0.89413 0.38487 0.86687 0.0
O807 O 0.9109 0.35136 0.94827 0.0
O808 O 0.87261 0.33827 0.94506 0.0
N809 N 0.85824 0.31034 0.79542 0.0
C810 C 0.86982 0.2994 0.78252 0.0
C811 C 0.85725 0.27838 0.76287 0.0
C812 C 0.83304 0.26909 0.75613 0.0
C813 C 0.82161 0.28086 0.76923 0.0
C814 C 0.835 0.30162 0.78889 0.0
H815 H 0.8885 0.30666 0.78726 0.0
O816 O 0.88092 0.30795 0.90122 0.0
O817 O 0.86838 0.32658 0.8665 0.0
O818 O 0.91959 0.34938 0.86633 0.0
O819 O 0.90365 0.34698 0.81212 0.0
C820 C 0.79742 0.27275 0.76376 0.0
C821 C 0.78688 0.285 0.77906 0.0
H822 H 0.7727 0.31275 0.81379 0.0
H823 H 0.79921 0.3487 0.8489 0.0
H824 H 0.86622 0.26942 0.75279 0.0
H825 H 0.8234 0.25287 0.74095 0.0
H826 H 0.78666 0.25687 0.74834 0.0
H827 H 0.76816 0.2783 0.77526 0.0
Mn828 Mn 0.66396 0.55643 0.90139 0.0
Mn829 Mn 0.66375 0.53345 0.81998 0.0
C830 C 0.69927 0.56562 0.87302 0.0
C831 C 0.66368 0.55472 0.96432 0.0
C832 C 0.65319 0.57325 0.83071 0.0
O833 O 0.63015 0.52863 0.89752 0.0
O834 O 0.6328 0.51378 0.84405 0.0
C835 C 0.66065 0.48868 0.84337 0.0
N836 N 0.672 0.50936 0.82478 0.0
C837 C 0.70086 0.4999 0.80266 0.0
C838 C 0.68941 0.47843 0.82141 0.0
C839 C 0.66927 0.47285 0.84198 0.0
C840 C 0.69149 0.51499 0.80515 0.0
H841 H 0.64515 0.48431 0.8591 0.0
C842 C 0.62148 0.51338 0.87231 0.0
O843 O 0.65678 0.56748 0.94716 0.0
O844 O 0.67014 0.54245 0.94491 0.0
N845 N 0.69272 0.55061 0.79396 0.0
C846 C 0.70254 0.57263 0.77934 0.0
C847 C 0.72328 0.58128 0.7589 0.0
C848 C 0.73357 0.56712 0.75343 0.0
C849 C 0.72306 0.54445 0.76855 0.0
C850 C 0.70241 0.53679 0.78867 0.0
H851 H 0.6947 0.58358 0.78344 0.0
O852 O 0.69881 0.57955 0.89741 0.0
O853 O 0.67914 0.54698 0.86587 0.0
O854 O 0.65612 0.57496 0.86463 0.0
O855 O 0.65552 0.55833 0.81167 0.0
C856 C 0.73241 0.52927 0.76481 0.0
C857 C 0.72137 0.50704 0.78196 0.0
H858 H 0.69601 0.46619 0.82041 0.0
H859 H 0.66038 0.45637 0.85665 0.0
H860 H 0.73132 0.59881 0.7474 0.0
H861 H 0.74963 0.57388 0.73779 0.0
H862 H 0.74833 0.53469 0.74932 0.0
H863 H 0.72898 0.49571 0.77941 0.0
Mn864 Mn 0.56595 0.88983 0.73162 0.0
Mn865 Mn 0.54123 0.86626 0.65141 0.0
C866 C 0.54023 0.89988 0.70405 0.0
C867 C 0.56475 0.88811 0.79472 0.0
C868 C 0.5925 0.90493 0.65999 0.0
O869 O 0.57117 0.8615 0.72717 0.0
O870 O 0.55143 0.84573 0.67542 0.0
C871 C 0.49861 0.82317 0.67714 0.0
N872 N 0.50852 0.84361 0.65788 0.0
C873 C 0.47029 0.83683 0.63964 0.0
C874 C 0.45968 0.81562 0.65908 0.0
C875 C 0.47391 0.80879 0.67797 0.0
C876 C 0.495 0.85038 0.63969 0.0
H877 H 0.50947 0.81793 0.69182 0.0
C878 C 0.5632 0.84561 0.70279 0.0
O879 O 0.58446 0.90055 0.77746 0.0
O880 O 0.54598 0.87614 0.77534 0.0
N881 N 0.53037 0.88435 0.62559 0.0
C882 C 0.54331 0.90586 0.60964 0.0
C883 C 0.53171 0.91553 0.59031 0.0
C884 C 0.50696 0.90294 0.58742 0.0
C885 C 0.49403 0.88073 0.60378 0.0
C886 C 0.50658 0.8719 0.62242 0.0
H887 H 0.56234 0.91561 0.61176 0.0
O888 O 0.55498 0.91359 0.72823 0.0
O889 O 0.54104 0.88089 0.69694 0.0
O890 O 0.59181 0.90773 0.6938 0.0
O891 O 0.57472 0.88971 0.64198 0.0
C892 C 0.46918 0.86718 0.6028 0.0
C893 C 0.45731 0.84528 0.62081 0.0
H894 H 0.44064 0.80454 0.65995 0.0
H895 H 0.46585 0.79252 0.6932 0.0
H896 H 0.54181 0.93269 0.57778 0.0
H897 H 0.49806 0.91056 0.57279 0.0
H898 H 0.459 0.87357 0.58866 0.0
H899 H 0.43818 0.83519 0.6203 0.0
Mn900 Mn 0.11507 0.67532 0.73145 0.0
Mn901 Mn 0.13838 0.67512 0.65059 0.0
C902 C 0.1059 0.6398 0.70392 0.0
C903 C 0.11719 0.67627 0.79438 0.0
C904 C 0.09879 0.68622 0.66063 0.0
O905 O 0.14272 0.70926 0.72662 0.0
O906 O 0.15871 0.70579 0.67477 0.0
C907 C 0.1824 0.6766 0.67394 0.0
N908 N 0.16169 0.66582 0.65537 0.0
C909 C 0.1699 0.6361 0.6332 0.0
C910 C 0.19138 0.64696 0.65193 0.0
C911 C 0.19761 0.66725 0.67251 0.0
C912 C 0.15545 0.6462 0.63571 0.0
H913 H 0.18725 0.69222 0.68968 0.0
C914 C 0.15861 0.71749 0.70222 0.0
O915 O 0.10417 0.68284 0.77715 0.0
O916 O 0.12947 0.66981 0.77503 0.0
N917 N 0.12047 0.64629 0.62454 0.0
C918 C 0.09851 0.63715 0.60992 0.0
C919 C 0.08921 0.6163 0.58962 0.0
C920 C 0.10267 0.60524 0.58424 0.0
C921 C 0.12531 0.61511 0.59928 0.0
C922 C 0.13364 0.63589 0.61929 0.0
H923 H 0.08814 0.64565 0.61381 0.0
O924 O 0.09212 0.6404 0.72841 0.0
O925 O 0.1245 0.65989 0.69641 0.0
O926 O 0.09613 0.68233 0.69432 0.0
O927 O 0.11439 0.68456 0.64229 0.0
C928 C 0.13984 0.605 0.59556 0.0
C929 C 0.1621 0.61546 0.61257 0.0
H930 H 0.20314 0.63978 0.65093 0.0
H931 H 0.21411 0.67567 0.68716 0.0
H932 H 0.07171 0.60879 0.57811 0.0
H933 H 0.0954 0.58912 0.56868 0.0
H934 H 0.1339 0.58896 0.58017 0.0
H935 H 0.17293 0.60729 0.61001 0.0
Mn936 Mn 0.32603 0.43989 0.73021 0.0
Mn937 Mn 0.33253 0.46515 0.64869 0.0
C938 C 0.36343 0.46492 0.70656 0.0
C939 C 0.32278 0.44045 0.79294 0.0
C940 C 0.31831 0.41367 0.65859 0.0
O941 O 0.2932 0.43601 0.72139 0.0
O942 O 0.30052 0.45438 0.66782 0.0
C943 C 0.33008 0.50719 0.67181 0.0
N944 N 0.34189 0.49769 0.655 0.0
C945 C 0.37399 0.53624 0.63965 0.0
C946 C 0.36212 0.54644 0.65664 0.0
C947 C 0.3401 0.53185 0.67286 0.0
C948 C 0.36314 0.51156 0.63946 0.0
H949 H 0.31317 0.49603 0.68435 0.0
C950 C 0.28679 0.44339 0.69415 0.0
O951 O 0.31551 0.42084 0.77545 0.0
O952 O 0.33097 0.45955 0.77388 0.0
N953 N 0.36291 0.47655 0.62718 0.0
C954 C 0.37239 0.46393 0.61299 0.0
C955 C 0.39457 0.47591 0.59615 0.0
C956 C 0.40664 0.50068 0.59381 0.0
C957 C 0.39639 0.51326 0.60823 0.0
C958 C 0.37418 0.50036 0.62446 0.0
H959 H 0.36313 0.44488 0.61461 0.0
O960 O 0.36059 0.44968 0.73115 0.0
O961 O 0.34443 0.46488 0.69657 0.0
O962 O 0.31896 0.41402 0.69284 0.0
O963 O 0.32326 0.43185 0.63958 0.0
C964 C 0.40745 0.53811 0.6075 0.0
C965 C 0.39631 0.54959 0.62334 0.0
H966 H 0.36981 0.56546 0.65759 0.0
H967 H 0.33087 0.53959 0.68615 0.0
H968 H 0.40235 0.46607 0.58505 0.0
H969 H 0.42382 0.50986 0.58104 0.0
H970 H 0.42463 0.54857 0.59515 0.0
H971 H 0.40513 0.56871 0.62305 0.0
Mn972 Mn 0.55656 0.89733 0.12877 0.0
Mn973 Mn 0.53487 0.87474 0.21087 0.0
C974 C 0.565 0.87017 0.15568 0.0
C975 C 0.55429 0.89631 0.06573 0.0
C976 C 0.57584 0.92428 0.19982 0.0
O977 O 0.52955 0.90467 0.13449 0.0
O978 O 0.51682 0.88841 0.18914 0.0
C979 C 0.48839 0.8354 0.18792 0.0
N980 N 0.50916 0.84319 0.20576 0.0
C981 C 0.49714 0.80402 0.22702 0.0
C982 C 0.47557 0.79556 0.20897 0.0
C983 C 0.47123 0.81131 0.18919 0.0
C984 C 0.51363 0.82815 0.2245 0.0
H985 H 0.48494 0.8475 0.17292 0.0
C986 C 0.51579 0.89953 0.16157 0.0
O987 O 0.56762 0.91575 0.08305 0.0
O988 O 0.54157 0.87764 0.08506 0.0
N989 N 0.55066 0.86085 0.23532 0.0
C990 C 0.57265 0.87174 0.25018 0.0
C991 C 0.58 0.85837 0.27024 0.0
C992 C 0.56453 0.83408 0.27535 0.0
C993 C 0.54183 0.82337 0.26031 0.0
C994 C 0.53554 0.83755 0.24043 0.0
H995 H 0.58449 0.89046 0.24668 0.0
O996 O 0.57878 0.88439 0.13102 0.0
O997 O 0.54692 0.87234 0.16396 0.0
O998 O 0.57642 0.92328 0.16565 0.0
O999 O 0.56126 0.90697 0.21914 0.0
C1000 C 0.52524 0.79916 0.26413 0.0
C1001 C 0.50297 0.78945 0.24728 0.0
H1002 H 0.46225 0.77701 0.21 0.0
H1003 H 0.45464 0.80491 0.17513 0.0
H1004 H 0.59752 0.86679 0.28185 0.0
H1005 H 0.57027 0.82382 0.2908 0.0
H1006 H 0.52956 0.78776 0.27952 0.0
H1007 H 0.49053 0.77072 0.24991 0.0
Mn1008 Mn 0.11045 0.66094 0.12858 0.0
Mn1009 Mn 0.13433 0.65934 0.20826 0.0
C1010 C 0.13728 0.69583 0.1573 0.0
C1011 C 0.1112 0.66102 0.06558 0.0
C1012 C 0.08369 0.64883 0.19981 0.0
O1013 O 0.10376 0.62677 0.13151 0.0
O1014 O 0.12382 0.62924 0.18231 0.0
C1015 C 0.17671 0.65829 0.18287 0.0
N1016 N 0.16691 0.66868 0.20269 0.0
C1017 C 0.20494 0.69773 0.22549 0.0
C1018 C 0.21544 0.68726 0.20549 0.0
C1019 C 0.20126 0.66751 0.18396 0.0
C1020 C 0.1804 0.68782 0.22321 0.0
H1021 H 0.16586 0.6431 0.16639 0.0
C1022 C 0.11171 0.61808 0.15473 0.0
O1023 O 0.09178 0.65441 0.08328 0.0
O1024 O 0.13004 0.667 0.08446 0.0
N1025 N 0.14544 0.68759 0.23593 0.0
C1026 C 0.13272 0.69637 0.25197 0.0
C1027 C 0.14439 0.71667 0.27345 0.0
C1028 C 0.16893 0.72754 0.27855 0.0
C1029 C 0.18159 0.71802 0.26206 0.0
C1030 C 0.16902 0.69779 0.24092 0.0
H1031 H 0.11383 0.688 0.24835 0.0
O1032 O 0.1229 0.69592 0.13337 0.0
O1033 O 0.13551 0.67549 0.1635 0.0
O1034 O 0.08481 0.65351 0.16639 0.0
O1035 O 0.10095 0.64984 0.21738 0.0
C1036 C 0.20622 0.72794 0.26549 0.0
C1037 C 0.21789 0.71781 0.24721 0.0
H1038 H 0.23437 0.69433 0.20626 0.0
H1039 H 0.20923 0.65939 0.16831 0.0
H1040 H 0.13448 0.7239 0.2861 0.0
H1041 H 0.17787 0.74323 0.29504 0.0
H1042 H 0.21642 0.74357 0.2817 0.0
H1043 H 0.23689 0.7258 0.24964 0.0
Mn1044 Mn 0.34177 0.44755 0.12678 0.0
Mn1045 Mn 0.34435 0.47252 0.20734 0.0
C1046 C 0.30724 0.43886 0.15727 0.0
C1047 C 0.34045 0.44833 0.06379 0.0
C1048 C 0.35524 0.43281 0.19691 0.0
O1049 O 0.37579 0.47537 0.12857 0.0
O1050 O 0.3741 0.49222 0.18063 0.0
C1051 C 0.34507 0.51605 0.18331 0.0
N1052 N 0.33498 0.4958 0.20302 0.0
C1053 C 0.30644 0.50482 0.22789 0.0
C1054 C 0.31661 0.52585 0.208 0.0
C1055 C 0.33595 0.53143 0.18549 0.0
C1056 C 0.31624 0.49016 0.22451 0.0
H1057 H 0.35998 0.52042 0.16612 0.0
C1058 C 0.38483 0.49167 0.15226 0.0
O1059 O 0.34768 0.43572 0.08064 0.0
O1060 O 0.33458 0.46094 0.08349 0.0
N1061 N 0.31653 0.45529 0.23589 0.0
C1062 C 0.30791 0.43368 0.25155 0.0
C1063 C 0.28799 0.42501 0.27387 0.0
C1064 C 0.27735 0.43877 0.28023 0.0
C1065 C 0.2867 0.46106 0.26411 0.0
C1066 C 0.30652 0.46873 0.24203 0.0
H1067 H 0.31614 0.42312 0.24697 0.0
O1068 O 0.30701 0.42458 0.13291 0.0
O1069 O 0.32753 0.45765 0.16293 0.0
O1070 O 0.35037 0.42955 0.16351 0.0
O1071 O 0.35395 0.44864 0.21519 0.0
C1072 C 0.27698 0.47585 0.26877 0.0
C1073 C 0.28679 0.49769 0.25059 0.0
H1074 H 0.30962 0.53776 0.20962 0.0
H1075 H 0.34383 0.54758 0.16995 0.0
H1076 H 0.28089 0.4078 0.28622 0.0
H1077 H 0.26195 0.432 0.29739 0.0
H1078 H 0.26169 0.47043 0.2858 0.0
H1079 H 0.27889 0.50871 0.25388 0.0
Mn1080 Mn 0.10372 0.44501 0.63296 0.0
Mn1081 Mn 0.12898 0.47016 0.71207 0.0
C1082 C 0.13111 0.43698 0.65962 0.0
C1083 C 0.10367 0.44619 0.5701 0.0
C1084 C 0.07817 0.43003 0.70506 0.0
O1085 O 0.09693 0.47233 0.63747 0.0
O1086 O 0.11813 0.48999 0.68746 0.0
C1087 C 0.17101 0.51358 0.68575 0.0
N1088 N 0.16152 0.49324 0.7052 0.0
C1089 C 0.2001 0.50087 0.72312 0.0
C1090 C 0.21027 0.52198 0.70345 0.0
C1091 C 0.19565 0.52834 0.68464 0.0
C1092 C 0.17542 0.48695 0.72341 0.0
H1093 H 0.15985 0.51847 0.67113 0.0
C1094 C 0.10542 0.489 0.66064 0.0
O1095 O 0.08452 0.43289 0.58811 0.0
O1096 O 0.12266 0.45924 0.58852 0.0
N1097 N 0.14047 0.45266 0.73804 0.0
C1098 C 0.12796 0.43108 0.75394 0.0
C1099 C 0.14 0.42178 0.773 0.0
C1100 C 0.16475 0.43478 0.77562 0.0
C1101 C 0.17724 0.45703 0.75925 0.0
C1102 C 0.16427 0.46549 0.7409 0.0
H1103 H 0.10894 0.42098 0.75197 0.0
O1104 O 0.11641 0.42264 0.63594 0.0
O1105 O 0.1293 0.45543 0.66671 0.0
O1106 O 0.07882 0.42644 0.67154 0.0
O1107 O 0.09565 0.44634 0.72223 0.0
C1108 C 0.20208 0.47092 0.75982 0.0
C1109 C 0.2135 0.49282 0.74174 0.0
H1110 H 0.22927 0.53332 0.70232 0.0
H1111 H 0.20336 0.54454 0.66924 0.0
H1112 H 0.13024 0.40457 0.78552 0.0
H1113 H 0.174 0.42744 0.79002 0.0
H1114 H 0.21258 0.46478 0.77364 0.0
H1115 H 0.23262 0.50317 0.74191 0.0
Mn1116 Mn 0.55405 0.65858 0.63259 0.0
Mn1117 Mn 0.53721 0.66369 0.71637 0.0
C1118 C 0.56492 0.69552 0.65697 0.0
C1119 C 0.54922 0.65542 0.56994 0.0
C1120 C 0.57622 0.65277 0.70203 0.0
O1121 O 0.52649 0.62501 0.6421 0.0
O1122 O 0.51748 0.63118 0.69792 0.0
C1123 C 0.49005 0.65673 0.69816 0.0
N1124 N 0.51177 0.67009 0.71324 0.0
C1125 C 0.50178 0.69893 0.73358 0.0
C1126 C 0.47926 0.68545 0.71837 0.0
C1127 C 0.47342 0.66431 0.70045 0.0
C1128 C 0.51767 0.69058 0.73019 0.0
H1129 H 0.48545 0.6404 0.68458 0.0
C1130 C 0.51425 0.61778 0.67095 0.0
O1131 O 0.56254 0.649 0.58656 0.0
O1132 O 0.53782 0.66266 0.58986 0.0
N1133 N 0.55476 0.69435 0.73755 0.0
C1134 C 0.5775 0.70569 0.74954 0.0
C1135 C 0.58634 0.72741 0.76741 0.0
C1136 C 0.57161 0.73702 0.77322 0.0
C1137 C 0.54817 0.72484 0.76107 0.0
C1138 C 0.54038 0.70334 0.74332 0.0
H1139 H 0.58882 0.69828 0.74538 0.0
O1140 O 0.57735 0.69359 0.6315 0.0
O1141 O 0.54692 0.67593 0.66774 0.0
O1142 O 0.57463 0.65248 0.66791 0.0
O1143 O 0.56357 0.65746 0.7227 0.0
C1144 C 0.53227 0.73325 0.7657 0.0
C1145 C 0.50913 0.72038 0.75179 0.0
H1146 H 0.46636 0.6912 0.72018 0.0
H1147 H 0.4561 0.65383 0.68857 0.0
H1148 H 0.60444 0.73668 0.77675 0.0
H1149 H 0.5785 0.75379 0.78695 0.0
H1150 H 0.53777 0.7498 0.77945 0.0
H1151 H 0.49719 0.72723 0.75501 0.0
Mn1152 Mn 0.34529 0.89553 0.6312 0.0
Mn1153 Mn 0.34171 0.87234 0.71367 0.0
C1154 C 0.30877 0.86892 0.65624 0.0
C1155 C 0.34792 0.89476 0.56839 0.0
C1156 C 0.35223 0.92251 0.7019 0.0
O1157 O 0.37915 0.90186 0.63912 0.0
O1158 O 0.37377 0.88492 0.69361 0.0
C1159 C 0.34755 0.83191 0.69255 0.0
N1160 N 0.33475 0.84039 0.70914 0.0
C1161 C 0.30597 0.80153 0.72951 0.0
C1162 C 0.31887 0.79236 0.71275 0.0
C1163 C 0.33969 0.80761 0.69404 0.0
C1164 C 0.31457 0.82585 0.72687 0.0
H1165 H 0.36364 0.84361 0.67837 0.0
C1166 C 0.38677 0.89597 0.66666 0.0
O1167 O 0.35418 0.91423 0.58571 0.0
O1168 O 0.34107 0.87589 0.58765 0.0
N1169 N 0.31152 0.85941 0.73636 0.0
C1170 C 0.30069 0.87096 0.7498 0.0
C1171 C 0.27929 0.85815 0.76851 0.0
C1172 C 0.26948 0.83372 0.77369 0.0
C1173 C 0.28115 0.82231 0.76007 0.0
C1174 C 0.30235 0.83596 0.74151 0.0
H1175 H 0.3083 0.88978 0.74619 0.0
O1176 O 0.31023 0.88347 0.63135 0.0
O1177 O 0.32857 0.87052 0.66587 0.0
O1178 O 0.35122 0.92154 0.66772 0.0
O1179 O 0.34865 0.90501 0.7215 0.0
C1180 C 0.27252 0.7979 0.76399 0.0
C1181 C 0.28485 0.78749 0.74856 0.0
H1182 H 0.3129 0.77364 0.71393 0.0
H1183 H 0.34971 0.80066 0.68096 0.0
H1184 H 0.27042 0.8671 0.77901 0.0
H1185 H 0.25296 0.82389 0.78809 0.0
H1186 H 0.25622 0.7869 0.77836 0.0
H1187 H 0.27781 0.76863 0.75123 0.0
Mn1188 Mn 0.11501 0.43945 0.23619 0.0
Mn1189 Mn 0.1416 0.46336 0.15712 0.0
C1190 C 0.10776 0.46671 0.20699 0.0
C1191 C 0.11472 0.43975 0.29907 0.0
C1192 C 0.10102 0.4129 0.16488 0.0
O1193 O 0.14217 0.43222 0.23419 0.0
O1194 O 0.16061 0.45252 0.18393 0.0
C1195 C 0.18503 0.50544 0.18322 0.0
N1196 N 0.16506 0.49584 0.16288 0.0
C1197 C 0.17483 0.53397 0.13944 0.0
C1198 C 0.19558 0.54426 0.15999 0.0
C1199 C 0.20064 0.52994 0.1821 0.0
C1200 C 0.15992 0.50948 0.14177 0.0
H1201 H 0.189 0.49447 0.20011 0.0
C1202 C 0.15912 0.44016 0.21149 0.0
O1203 O 0.10177 0.42056 0.28097 0.0
O1204 O 0.12832 0.45865 0.28076 0.0
N1205 N 0.12502 0.47476 0.12866 0.0
C1206 C 0.10362 0.46225 0.11225 0.0
C1207 C 0.09545 0.47409 0.0902 0.0
C1208 C 0.10949 0.49858 0.08491 0.0
C1209 C 0.13156 0.51102 0.1018 0.0
C1210 C 0.13874 0.49829 0.12354 0.0
H1211 H 0.09283 0.4434 0.11601 0.0
O1212 O 0.09295 0.45238 0.23061 0.0
O1213 O 0.12629 0.46474 0.20142 0.0
O1214 O 0.09697 0.41405 0.19806 0.0
O1215 O 0.11761 0.43009 0.14769 0.0
C1216 C 0.1466 0.5356 0.09823 0.0
C1217 C 0.1682 0.54707 0.1171 0.0
H1218 H 0.20765 0.56315 0.1592 0.0
H1219 H 0.21657 0.53776 0.19815 0.0
H1220 H 0.0784 0.46436 0.07725 0.0
H1221 H 0.1031 0.50767 0.06796 0.0
H1222 H 0.14156 0.54591 0.08151 0.0
H1223 H 0.17943 0.56603 0.11462 0.0
Mn1224 Mn 0.56035 0.67495 0.23611 0.0
Mn1225 Mn 0.53803 0.67682 0.15507 0.0
C1226 C 0.53433 0.64016 0.20635 0.0
C1227 C 0.55829 0.67427 0.29914 0.0
C1228 C 0.58856 0.68762 0.16607 0.0
O1229 O 0.56683 0.70905 0.23315 0.0
O1230 O 0.54815 0.70684 0.18097 0.0
C1231 C 0.49526 0.67789 0.17827 0.0
N1232 N 0.50539 0.66756 0.15908 0.0
C1233 C 0.46782 0.63885 0.13444 0.0
C1234 C 0.45699 0.64925 0.15379 0.0
C1235 C 0.47076 0.66879 0.17592 0.0
C1236 C 0.49228 0.64863 0.13797 0.0
H1237 H 0.50581 0.69294 0.19518 0.0
C1238 C 0.55957 0.71788 0.20907 0.0
O1239 O 0.57809 0.68123 0.28235 0.0
O1240 O 0.53983 0.66835 0.27935 0.0
N1241 N 0.52739 0.64871 0.12725 0.0
C1242 C 0.54036 0.63993 0.11207 0.0
C1243 C 0.52909 0.61981 0.09015 0.0
C1244 C 0.5047 0.60914 0.08371 0.0
C1245 C 0.49178 0.61866 0.09933 0.0
C1246 C 0.50395 0.63869 0.12099 0.0
H1247 H 0.55915 0.64817 0.11671 0.0
O1248 O 0.54831 0.64008 0.23098 0.0
O1249 O 0.53599 0.66045 0.20002 0.0
O1250 O 0.5869 0.68297 0.19956 0.0
O1251 O 0.5715 0.68628 0.14755 0.0
C1252 C 0.46727 0.60894 0.09454 0.0
C1253 C 0.45528 0.61898 0.11216 0.0
H1254 H 0.4381 0.64228 0.15205 0.0
H1255 H 0.46252 0.67686 0.19106 0.0
H1256 H 0.53919 0.61257 0.07819 0.0
H1257 H 0.49605 0.59359 0.06688 0.0
H1258 H 0.45738 0.59349 0.07784 0.0
H1259 H 0.43636 0.61109 0.10876 0.0
Mn1260 Mn 0.33055 0.88894 0.23435 0.0
Mn1261 Mn 0.33055 0.86461 0.15435 0.0
C1262 C 0.36594 0.89945 0.20517 0.0
C1263 C 0.33095 0.88769 0.29737 0.0
C1264 C 0.31714 0.90271 0.16333 0.0
O1265 O 0.29713 0.86028 0.23135 0.0
O1266 O 0.30065 0.84376 0.18015 0.0
C1267 C 0.33215 0.82261 0.18027 0.0
N1268 N 0.3416 0.8427 0.16021 0.0
C1269 C 0.37289 0.83643 0.13942 0.0
C1270 C 0.36336 0.81555 0.1596 0.0
C1271 C 0.34294 0.80866 0.18021 0.0
C1272 C 0.36132 0.84958 0.14046 0.0
H1273 H 0.31655 0.81733 0.19626 0.0
C1274 C 0.28912 0.84385 0.20784 0.0
O1275 O 0.3232 0.89981 0.28033 0.0
O1276 O 0.33785 0.87588 0.27783 0.0
N1277 N 0.35865 0.88291 0.12676 0.0
C1278 C 0.3663 0.90415 0.11035 0.0
C1279 C 0.38693 0.91391 0.08946 0.0
C1280 C 0.39937 0.90167 0.08543 0.0
C1281 C 0.39102 0.87973 0.10228 0.0
C1282 C 0.37028 0.87081 0.12258 0.0
H1283 H 0.35677 0.9136 0.11326 0.0
O1284 O 0.36506 0.91315 0.22953 0.0
O1285 O 0.34625 0.8801 0.199 0.0
O1286 O 0.32155 0.90616 0.19686 0.0
O1287 O 0.3194 0.88728 0.14541 0.0
C1288 C 0.40264 0.86651 0.10013 0.0
C1289 C 0.39364 0.84493 0.11881 0.0
H1290 H 0.37169 0.8048 0.15975 0.0
H1291 H 0.33556 0.79265 0.19605 0.0
H1292 H 0.39326 0.93086 0.07654 0.0
H1293 H 0.41538 0.90935 0.06954 0.0
H1294 H 0.41865 0.87289 0.08451 0.0
H1295 H 0.40295 0.83512 0.11742 0.0
H1296 H 0.40525 0.30264 0.93468 0.0
H1297 H 0.37597 0.3172 0.84067 0.0
H1298 H 0.36762 0.2873 0.96513 0.0
H1299 H 0.33836 0.30252 0.87176 0.0
H1300 H 0.26836 0.24404 0.92006 0.0
H1301 H 0.30638 0.26557 0.89052 0.0
H1302 H 0.33961 0.29563 0.99208 0.0
H1303 H 0.30149 0.27333 0.02204 0.0
C1304 C 0.3909 0.3029 0.92059 0.0
C1305 C 0.39369 0.31099 0.88497 0.0
C1306 C 0.36927 0.29425 0.93827 0.0
C1307 C 0.34982 0.29356 0.92098 0.0
C1308 C 0.35282 0.3024 0.88576 0.0
C1309 C 0.37445 0.31094 0.86795 0.0
C1310 C 0.28368 0.2554 0.9362 0.0
C1311 C 0.28178 0.25668 0.97362 0.0
C1312 C 0.30557 0.26794 0.9191 0.0
C1313 C 0.32621 0.28227 0.93885 0.0
C1314 C 0.32418 0.28442 0.97607 0.0
C1315 C 0.30225 0.27175 0.99325 0.0
H1316 H 0.71013 0.07684 0.83559 0.0
H1317 H 0.67596 0.07994 0.93275 0.0
H1318 H 0.72631 0.05557 0.8674 0.0
H1319 H 0.69086 0.05747 0.96418 0.0
H1320 H 0.74669 0.04617 0.02044 0.0
H1321 H 0.72542 0.06233 0.98881 0.0
H1322 H 0.7212 0.02156 0.89496 0.0
H1323 H 0.74369 0.00652 0.92615 0.0
C1324 C 0.70559 0.07245 0.86355 0.0
C1325 C 0.69189 0.08021 0.88166 0.0
C1326 C 0.71479 0.06012 0.88189 0.0
C1327 C 0.71014 0.05484 0.91868 0.0
C1328 C 0.69542 0.06167 0.93621 0.0
C1329 C 0.68665 0.0744 0.91806 0.0
C1330 C 0.74093 0.04042 0.99322 0.0
C1331 C 0.747 0.02516 0.9758 0.0
C1332 C 0.72859 0.04962 0.97498 0.0
C1333 C 0.72159 0.04347 0.939 0.0
C1334 C 0.72673 0.02726 0.92224 0.0
C1335 C 0.73946 0.01841 0.94027 0.0
H1336 H 0.9747 0.70664 0.03018 0.0
H1337 H 0.98059 0.74038 0.92799 0.0
H1338 H 0.95879 0.66856 0.99996 0.0
H1339 H 0.964 0.70249 0.89823 0.0
H1340 H 0.94664 0.63336 0.84788 0.0
H1341 H 0.96897 0.67069 0.87978 0.0
H1342 H 0.9231 0.64059 0.97152 0.0
H1343 H 0.90139 0.60316 0.94025 0.0
C1344 C 0.97277 0.70602 1.00131 0.0
C1345 C 0.97883 0.72667 0.98168 0.0
C1346 C 0.96346 0.68412 0.98396 0.0
C1347 C 0.95988 0.68231 0.94658 0.0
C1348 C 0.96673 0.7031 0.92692 0.0
C1349 C 0.97613 0.72493 0.94416 0.0
C1350 C 0.94143 0.63464 0.87496 0.0
C1351 C 0.92207 0.61521 0.8913 0.0
C1352 C 0.95419 0.65612 0.89326 0.0
C1353 C 0.94781 0.65882 0.92826 0.0
C1354 C 0.92881 0.63919 0.94486 0.0
C1355 C 0.91619 0.61768 0.92671 0.0
H1356 H 0.31013 0.40471 0.58676 0.0
H1357 H 0.30755 0.37066 0.68737 0.0
H1358 H 0.29286 0.36685 0.55645 0.0
H1359 H 0.29097 0.33276 0.65665 0.0
H1360 H 0.23286 0.26707 0.59954 0.0
H1361 H 0.25453 0.30473 0.63015 0.0
H1362 H 0.29794 0.33524 0.53613 0.0
H1363 H 0.27565 0.29761 0.50492 0.0
C1364 C 0.30624 0.38921 0.60242 0.0
C1365 C 0.31009 0.39082 0.63969 0.0
C1366 C 0.29644 0.36743 0.58488 0.0
C1367 C 0.29034 0.34661 0.60403 0.0
C1368 C 0.295 0.34832 0.6411 0.0
C1369 C 0.30469 0.37013 0.65872 0.0
C1370 C 0.24709 0.28173 0.58533 0.0
C1371 C 0.25233 0.27924 0.54956 0.0
C1372 C 0.2597 0.30337 0.60309 0.0
C1373 C 0.27804 0.32315 0.58571 0.0
C1374 C 0.28369 0.32053 0.55022 0.0
C1375 C 0.27097 0.29887 0.53234 0.0
H1376 H 0.60175 0.90222 0.58909 0.0
H1377 H 0.63484 0.94031 0.68643 0.0
H1378 H 0.63933 0.92326 0.55803 0.0
H1379 H 0.67242 0.96196 0.65487 0.0
H1380 H 0.73958 0.97086 0.60096 0.0
H1381 H 0.7019 0.95442 0.63148 0.0
H1382 H 0.66932 0.9601 0.53406 0.0
H1383 H 0.70712 0.97599 0.50295 0.0
C1384 C 0.61696 0.9153 0.60384 0.0
C1385 C 0.61519 0.91934 0.64049 0.0
C1386 C 0.63857 0.92755 0.58584 0.0
C1387 C 0.65904 0.9443 0.60387 0.0
C1388 C 0.65713 0.9489 0.64023 0.0
C1389 C 0.63551 0.93656 0.65832 0.0
C1390 C 0.72447 0.96876 0.58591 0.0
C1391 C 0.72648 0.97464 0.54927 0.0
C1392 C 0.7028 0.95947 0.60363 0.0
C1393 C 0.68245 0.95585 0.58534 0.0
C1394 C 0.68453 0.96231 0.54891 0.0
C1395 C 0.70627 0.97157 0.53109 0.0
H1396 H 0.02869 0.73199 0.50581 0.0
H1397 H 0.0246 0.76028 0.60855 0.0
H1398 H 0.04467 0.70958 0.5351 0.0
H1399 H 0.04131 0.73877 0.63738 0.0
H1400 H 0.06004 0.68761 0.68633 0.0
H1401 H 0.03687 0.7022 0.65573 0.0
H1402 H 0.0808 0.71747 0.56173 0.0
H1403 H 0.10327 0.70214 0.59167 0.0
C1404 C 0.03102 0.73334 0.53461 0.0
C1405 C 0.0255 0.74815 0.55466 0.0
C1406 C 0.04037 0.72061 0.55143 0.0
C1407 C 0.04455 0.72248 0.58866 0.0
C1408 C 0.03812 0.73657 0.60878 0.0
C1409 C 0.02866 0.74912 0.59208 0.0
C1410 C 0.06461 0.69388 0.65903 0.0
C1411 C 0.08367 0.69381 0.64165 0.0
C1412 C 0.05138 0.70237 0.64148 0.0
C1413 C 0.05698 0.71119 0.60622 0.0
C1414 C 0.07565 0.71052 0.58861 0.0
C1415 C 0.08873 0.70187 0.606 0.0
H1416 H 0.63064 0.69495 0.19451 0.0
H1417 H 0.59873 0.69911 0.09529 0.0
H1418 H 0.66868 0.71084 0.16413 0.0
H1419 H 0.63664 0.71554 0.06547 0.0
H1420 H 0.70416 0.72972 1.01232 0.0
H1421 H 0.66645 0.70796 0.04346 0.0
H1422 H 0.69861 0.74775 0.13988 0.0
H1423 H 0.73636 0.76894 0.10924 0.0
C1424 C 0.63166 0.69914 0.16625 0.0
C1425 C 0.61154 0.69582 0.14752 0.0
C1426 C 0.65353 0.7084 0.14885 0.0
C1427 C 0.65583 0.71459 0.1123 0.0
C1428 C 0.63557 0.7107 0.09345 0.0
C1429 C 0.61376 0.70141 0.11075 0.0
C1430 C 0.70327 0.73369 0.04026 0.0
C1431 C 0.72337 0.75126 0.05809 0.0
C1432 C 0.68157 0.72128 0.0581 0.0
C1433 C 0.67936 0.72618 0.09419 0.0
C1434 C 0.69962 0.74325 0.11227 0.0
C1435 C 0.72132 0.75557 0.09451 0.0
H1436 H 0.31053 0.93831 0.1897 0.0
H1437 H 0.30371 0.89898 0.093 0.0
H1438 H 0.29447 0.95992 0.1583 0.0
H1439 H 0.28708 0.92002 0.06212 0.0
H1440 H 0.27392 0.97376 1.00637 0.0
H1441 H 0.295 0.9571 0.03772 0.0
H1442 H 0.25748 0.95311 0.13516 0.0
H1443 H 0.237 0.97034 0.10431 0.0
C1444 C 0.30565 0.93426 0.16179 0.0
C1445 C 0.30836 0.91677 0.14405 0.0
C1446 C 0.2963 0.94658 0.14379 0.0
C1447 C 0.28935 0.9417 0.10763 0.0
C1448 C 0.29252 0.92454 0.08976 0.0
C1449 C 0.30192 0.91231 0.10766 0.0
C1450 C 0.27031 0.96953 0.03456 0.0
C1451 C 0.25361 0.97333 0.05265 0.0
C1452 C 0.28231 0.95982 0.05252 0.0
C1453 C 0.2779 0.95361 0.089 0.0
C1454 C 0.26162 0.95794 0.10724 0.0
C1455 C 0.2497 0.9677 0.08936 0.0
H1456 H 0.06486 0.37087 0.19089 0.0
H1457 H 0.10444 0.40352 0.09436 0.0
H1458 H 0.04324 0.33326 0.15933 0.0
H1459 H 0.08338 0.36596 0.06335 0.0
H1460 H 0.03035 0.2992 1.00743 0.0
H1461 H 0.04622 0.33673 0.039 0.0
H1462 H 0.05079 0.30335 0.13628 0.0
H1463 H 0.03436 0.26577 0.10513 0.0
C1464 C 0.06891 0.37011 0.16295 0.0
C1465 C 0.08654 0.39029 0.14533 0.0
C1466 C 0.0566 0.34848 0.1449 0.0
C1467 C 0.06162 0.34649 0.10879 0.0
C1468 C 0.07879 0.36682 0.09097 0.0
C1469 C 0.09103 0.38841 0.10894 0.0
C1470 C 0.03454 0.29979 0.03563 0.0
C1471 C 0.03118 0.2794 0.05358 0.0
C1472 C 0.04377 0.32138 0.05372 0.0
C1473 C 0.04995 0.32316 0.09019 0.0
C1474 C 0.04599 0.30263 0.10834 0.0
C1475 C 0.0367 0.28105 0.09032 0.0
H1476 H 0.70322 0.60041 0.4397 0.0
H1477 H 0.69606 0.6322 0.34235 0.0
H1478 H 0.71874 0.63799 0.47042 0.0
H1479 H 0.71101 0.66979 0.37359 0.0
H1480 H 0.76856 0.73792 0.42733 0.0
H1481 H 0.74786 0.70023 0.39668 0.0
H1482 H 0.71028 0.66696 0.49424 0.0
H1483 H 0.73163 0.70474 0.52545 0.0
C1484 C 0.70467 0.61533 0.42487 0.0
C1485 C 0.69855 0.61322 0.38833 0.0
C1486 C 0.71342 0.63692 0.44268 0.0
C1487 C 0.71622 0.65702 0.42456 0.0
C1488 C 0.70944 0.65478 0.38829 0.0
C1489 C 0.70075 0.63316 0.37038 0.0
C1490 C 0.75578 0.72266 0.44235 0.0
C1491 C 0.75199 0.72444 0.47909 0.0
C1492 C 0.74372 0.70098 0.42457 0.0
C1493 C 0.72742 0.68044 0.44293 0.0
C1494 C 0.72299 0.68233 0.47937 0.0
C1495 C 0.73514 0.70406 0.49724 0.0
H1496 H 0.26749 0.0261 0.4217 0.0
H1497 H 0.30173 0.03038 0.52281 0.0
H1498 H 0.3054 0.04383 0.39155 0.0
H1499 H 0.33975 0.04746 0.49223 0.0
H1500 H 0.4048 0.10621 0.43407 0.0
H1501 H 0.36727 0.08398 0.46502 0.0
H1502 H 0.33748 0.03942 0.37194 0.0
H1503 H 0.3749 0.06221 0.34044 0.0
C1504 C 0.28304 0.03044 0.43751 0.0
C1505 C 0.28146 0.02694 0.47487 0.0
C1506 C 0.30487 0.04052 0.42006 0.0
C1507 C 0.32577 0.04726 0.43938 0.0
C1508 C 0.32411 0.04292 0.47654 0.0
C1509 C 0.30224 0.03293 0.49408 0.0
C1510 C 0.39032 0.0916 0.42017 0.0
C1511 C 0.39291 0.08618 0.38456 0.0
C1512 C 0.36876 0.07869 0.43811 0.0
C1513 C 0.34921 0.05987 0.42105 0.0
C1514 C 0.352 0.05403 0.38576 0.0
C1515 C 0.37353 0.06706 0.36771 0.0
H1516 H 0.92424 0.29153 0.33911 0.0
H1517 H 0.93247 0.33407 0.43231 0.0
H1518 H 0.94473 0.27416 0.36979 0.0
H1519 H 0.95425 0.31784 0.46242 0.0
H1520 H 0.96281 0.26159 0.52279 0.0
H1521 H 0.94762 0.2837 0.49101 0.0
H1522 H 0.9788 0.2769 0.3927 0.0
H1523 H 0.99266 0.25356 0.42423 0.0
C1524 C 0.93105 0.29767 0.36582 0.0
C1525 C 0.92661 0.31407 0.38332 0.0
C1526 C 0.94292 0.28775 0.38351 0.0
C1527 C 0.95108 0.29433 0.41895 0.0
C1528 C 0.94773 0.31177 0.43561 0.0
C1529 C 0.93544 0.32131 0.41818 0.0
C1530 C 0.9666 0.26502 0.49446 0.0
C1531 C 0.97883 0.25569 0.47605 0.0
C1532 C 0.95799 0.27787 0.47613 0.0
C1533 C 0.9618 0.28214 0.439 0.0
C1534 C 0.97494 0.27358 0.421 0.0
C1535 C 0.98311 0.26033 0.43919 0.0
H1536 H 0.04225 0.64454 0.17399 0.0
H1537 H 0.0739 0.63568 0.27021 0.0
H1538 H 0.00486 0.62988 0.2057 0.0
H1539 H 0.0365 0.62045 0.30138 0.0
H1540 H 0.97036 0.6081 0.35777 0.0
H1541 H 0.00806 0.6293 0.3263 0.0
H1542 H 0.97405 0.59308 0.22827 0.0
H1543 H 0.93644 0.57255 0.25921 0.0
C1544 C 0.0413 0.63954 0.20188 0.0
C1545 C 0.06115 0.64118 0.21936 0.0
C1546 C 0.01979 0.63101 0.22005 0.0
C1547 C 0.01755 0.62385 0.25613 0.0
C1548 C 0.03757 0.62608 0.27381 0.0
C1549 C 0.05906 0.63467 0.25573 0.0
C1550 C 0.97086 0.60488 0.32941 0.0
C1551 C 0.95029 0.58844 0.3112 0.0
C1552 C 0.99254 0.61693 0.31138 0.0
C1553 C 0.99421 0.61281 0.27473 0.0
C1554 C 0.97348 0.59697 0.25634 0.0
C1555 C 0.95185 0.585 0.27427 0.0
H1556 H 0.39788 0.36005 0.3514 0.0
H1557 H 0.43832 0.36864 0.25526 0.0
H1558 H 0.37572 0.37544 0.31988 0.0
H1559 H 0.41669 0.38459 0.22425 0.0
H1560 H 0.36338 0.39856 0.16868 0.0
H1561 H 0.37956 0.37676 0.19938 0.0
H1562 H 0.38293 0.41288 0.29805 0.0
H1563 H 0.36625 0.43405 0.26789 0.0
C1564 C 0.40201 0.36511 0.32355 0.0
C1565 C 0.42007 0.36323 0.30606 0.0
C1566 C 0.38938 0.37408 0.30549 0.0
C1567 C 0.39449 0.38145 0.26953 0.0
C1568 C 0.41203 0.37886 0.25176 0.0
C1569 C 0.4246 0.36985 0.26974 0.0
C1570 C 0.36734 0.40167 0.19701 0.0
C1571 C 0.3636 0.41822 0.21564 0.0
C1572 C 0.37676 0.38926 0.21459 0.0
C1573 C 0.38267 0.3931 0.25123 0.0
C1574 C 0.37832 0.40918 0.26999 0.0
C1575 C 0.3689 0.42151 0.2525 0.0
H1576 H 0.61127 0.96577 0.1709 0.0
H1577 H 0.57609 0.93447 0.27091 0.0
H1578 H 0.63431 0.00378 0.20093 0.0
H1579 H 0.59823 0.97236 0.30032 0.0
H1580 H 0.64941 0.04036 0.35294 0.0
H1581 H 0.63446 0.00253 0.32252 0.0
H1582 H 0.62841 0.034 0.22406 0.0
H1583 H 0.64421 0.07184 0.25395 0.0
C1584 C 0.60851 0.96692 0.19927 0.0
C1585 C 0.59165 0.947 0.21831 0.0
C1586 C 0.62162 0.98879 0.21649 0.0
C1587 C 0.61807 0.99133 0.25311 0.0
C1588 C 0.6018 0.97118 0.2723 0.0
C1589 C 0.58889 0.94935 0.25523 0.0
C1590 C 0.64515 0.03927 0.3247 0.0
C1591 C 0.64788 0.05918 0.30606 0.0
C1592 C 0.63643 0.0175 0.30724 0.0
C1593 C 0.62996 0.01502 0.27079 0.0
C1594 C 0.63346 0.03517 0.25195 0.0
C1595 C 0.6424 0.05694 0.26927 0.0
H1596 H 0.36157 0.96473 0.67157 0.0
H1597 H 0.35969 0.93241 0.77356 0.0
H1598 H 0.37737 0.00298 0.70109 0.0
H1599 H 0.37619 0.97057 0.80264 0.0
H1600 H 0.3939 0.04021 0.85206 0.0
H1601 H 0.37102 0.00231 0.82173 0.0
H1602 H 0.41384 0.03152 0.72681 0.0
H1603 H 0.43607 0.06942 0.7565 0.0
C1604 C 0.36436 0.9657 0.70028 0.0
C1605 C 0.35949 0.94542 0.72003 0.0
C1606 C 0.3736 0.9877 0.71721 0.0
C1607 C 0.37832 0.99 0.75428 0.0
C1608 C 0.37257 0.96954 0.77417 0.0
C1609 C 0.36322 0.94758 0.75734 0.0
C1610 C 0.39829 0.03861 0.8246 0.0
C1611 C 0.41698 0.05792 0.80691 0.0
C1612 C 0.38522 0.01681 0.80723 0.0
C1613 C 0.3906 0.01372 0.7718 0.0
C1614 C 0.40888 0.03323 0.75386 0.0
C1615 C 0.42182 0.05501 0.7711 0.0
H1616 H 0.03813 0.39014 0.68204 0.0
H1617 H 0.06741 0.43629 0.77365 0.0
H1618 H 1.00081 0.36749 0.71385 0.0
H1619 H 0.02996 0.41425 0.80482 0.0
H1620 H 0.96382 0.36267 0.86333 0.0
H1621 H 1.00211 0.37864 0.8337 0.0
H1622 H 0.96863 0.37212 0.73115 0.0
H1623 H 0.93055 0.35548 0.76034 0.0
C1624 C 0.03666 0.39547 0.70895 0.0
C1625 C 0.05581 0.4152 0.72508 0.0
C1626 C 0.01517 0.38253 0.72719 0.0
C1627 C 0.01219 0.38908 0.76191 0.0
C1628 C 0.03158 0.4084 0.77837 0.0
C1629 C 0.0531 0.42121 0.76028 0.0
C1630 C 0.96459 0.36431 0.83442 0.0
C1631 C 0.94401 0.3579 0.81438 0.0
C1632 C 0.98661 0.37366 0.8174 0.0
C1633 C 0.98861 0.3769 0.77995 0.0
C1634 C 0.96788 0.36966 0.75991 0.0
C1635 C 0.94594 0.36023 0.77682 0.0
H1636 H 0.66023 0.58726 0.76062 0.0
H1637 H 0.62903 0.59367 0.85888 0.0
H1638 H 0.64574 0.61006 0.72913 0.0
H1639 H 0.61319 0.61521 0.82708 0.0
H1640 H 0.59686 0.66487 0.76821 0.0
H1641 H 0.61895 0.64914 0.79881 0.0
H1642 H 0.61153 0.60653 0.7057 0.0
H1643 H 0.59075 0.62341 0.67462 0.0
C1644 C 0.65024 0.59355 0.77552 0.0
C1645 C 0.64577 0.58862 0.81228 0.0
C1646 C 0.6417 0.60649 0.75735 0.0
C1647 C 0.62798 0.61441 0.77524 0.0
C1648 C 0.62398 0.60987 0.81229 0.0
C1649 C 0.63297 0.59734 0.83062 0.0
C1650 C 0.60034 0.65244 0.75412 0.0
C1651 C 0.59205 0.64539 0.71897 0.0
C1652 C 0.61281 0.64319 0.77181 0.0
C1653 C 0.61689 0.62623 0.75511 0.0
C1654 C 0.60918 0.61978 0.71947 0.0
C1655 C 0.59713 0.62942 0.70154 0.0
H1656 H 0.27344 0.06883 0.02102 0.0
H1657 H 0.20371 0.04363 0.97757 0.0
H1658 H 0.27645 0.10728 0.03456 0.0
H1659 H 0.20676 0.08165 0.99053 0.0
H1660 H 0.23683 0.15958 0.96717 0.0
H1661 H 0.24041 0.1246 0.96146 0.0
H1662 H 0.24689 0.12203 0.07614 0.0
H1663 H 0.24281 0.15745 0.08237 0.0
C1664 C 0.2588 0.07153 0.01464 0.0
C1665 C 0.23814 0.05328 0.99904 0.0
C1666 C 0.26044 0.09333 0.02255 0.0
C1667 C 0.24173 0.09721 1.01383 0.0
C1668 C 0.22134 0.079 0.99768 0.0
C1669 C 0.21959 0.0573 0.99033 0.0
C1670 C 0.23918 0.15182 0.99138 0.0
C1671 C 0.23901 0.16108 0.02537 0.0
C1672 C 0.24135 0.13182 0.98796 0.0
C1673 C 0.24363 0.12057 0.01833 0.0
C1674 C 0.24511 0.13051 0.05234 0.0
C1675 C 0.24278 0.1507 0.05587 0.0
H1676 H 0.93688 0.20412 0.01968 0.0
H1677 H 0.96224 0.15979 0.97603 0.0
H1678 H 0.89833 0.16865 0.03255 0.0
H1679 H 0.92411 0.12478 0.98828 0.0
H1680 H 0.8471 0.08613 0.08024 0.0
H1681 H 0.88287 0.12528 0.0736 0.0
H1682 H 0.88168 0.11451 0.95947 0.0
H1683 H 0.84638 0.07627 0.96551 0.0
C1684 C 0.93418 0.1868 1.01308 0.0
C1685 C 0.95251 0.18446 0.99766 0.0
C1686 C 0.91232 0.16663 0.0206 0.0
C1687 C 0.90844 0.14408 1.0116 0.0
C1688 C 0.92672 0.14197 0.99558 0.0
C1689 C 0.9485 0.16194 0.98865 0.0
C1690 C 0.85426 0.09237 0.05373 0.0
C1691 C 0.84408 0.07782 0.02354 0.0
C1692 C 0.87465 0.11471 0.04997 0.0
C1693 C 0.88506 0.12261 0.01606 0.0
C1694 C 0.87412 0.10866 0.98592 0.0
C1695 C 0.85389 0.08666 0.98954 0.0
H1696 H 0.84381 0.80373 0.98315 0.0
H1697 H 0.80005 0.73401 0.02719 0.0
H1698 H 0.87915 0.80153 0.99715 0.0
H1699 H 0.83585 0.73187 0.04178 0.0
H1700 H 0.91989 0.76731 0.09045 0.0
H1701 H 0.88022 0.76282 0.08379 0.0
H1702 H 0.88889 0.76762 0.96902 0.0
H1703 H 0.92759 0.7716 0.97514 0.0
C1704 C 0.84184 0.78804 0.99628 0.0
C1705 C 0.81938 0.76925 1.00486 0.0
C1706 C 0.862 0.78678 1.00425 0.0
C1707 C 0.86013 0.76666 0.02092 0.0
C1708 C 0.83766 0.7477 0.02945 0.0
C1709 C 0.81731 0.74885 0.02092 0.0
C1710 C 0.91306 0.76691 0.06386 0.0
C1711 C 0.92713 0.77031 0.03342 0.0
C1712 C 0.89044 0.76434 0.06008 0.0
C1713 C 0.8818 0.76519 0.02589 0.0
C1714 C 0.8953 0.76716 0.99564 0.0
C1715 C 0.91755 0.76957 0.9993 0.0
H1716 H 0.17742 0.26677 0.49973 0.0
H1717 H 0.13459 0.19418 0.46703 0.0
H1718 H 0.14171 0.26944 0.50912 0.0
H1719 H 0.09904 0.19667 0.47567 0.0
H1720 H 0.04216 0.19701 0.54376 0.0
H1721 H 0.07829 0.19764 0.5263 0.0
H1722 H 0.10694 0.2692 0.48747 0.0
H1723 H 0.07062 0.26858 0.50646 0.0
C1724 C 0.16036 0.2517 0.49325 0.0
C1725 C 0.15861 0.23034 0.48239 0.0
C1726 C 0.13988 0.25315 0.49873 0.0
C1727 C 0.11735 0.23318 0.49361 0.0
C1728 C 0.11595 0.21231 0.48047 0.0
C1729 C 0.13633 0.21088 0.47514 0.0
C1730 C 0.05616 0.2128 0.53125 0.0
C1731 C 0.05345 0.23249 0.5254 0.0
C1732 C 0.07685 0.21317 0.52102 0.0
C1733 C 0.09545 0.2333 0.50463 0.0
C1734 C 0.09301 0.25338 0.49992 0.0
C1735 C 0.07225 0.25305 0.51062 0.0
H1736 H 0.73651 0.8028 0.50828 0.0
H1737 H 0.80714 0.84631 0.54893 0.0
H1738 H 0.73595 0.8384 0.48834 0.0
H1739 H 0.80655 0.88166 0.53045 0.0
H1740 H 0.81115 0.94107 0.46891 0.0
H1741 H 0.80844 0.90306 0.47867 0.0
H1742 H 0.73517 0.87308 0.50925 0.0
H1743 H 0.73814 0.91156 0.49909 0.0
C1744 C 0.75184 0.82002 0.51299 0.0
C1745 C 0.77215 0.82194 0.52901 0.0
C1746 C 0.75154 0.84038 0.50173 0.0
C1747 C 0.7714 0.86297 0.50705 0.0
C1748 C 0.79122 0.86464 0.5247 0.0
C1749 C 0.79156 0.8444 0.53552 0.0
C1750 C 0.79429 0.92614 0.47659 0.0
C1751 C 0.77481 0.92907 0.48291 0.0
C1752 C 0.79273 0.90434 0.48253 0.0
C1753 C 0.77166 0.88493 0.49523 0.0
C1754 C 0.75163 0.88753 0.49925 0.0
C1755 C 0.75324 0.90949 0.49327 0.0
H1756 H 0.07675 0.84565 0.56374 0.0
H1757 H 0.08634 0.84735 0.44884 0.0
H1758 H 0.11561 0.88003 0.57028 0.0
H1759 H 0.12619 0.88213 0.45602 0.0
H1760 H 0.20552 0.93411 0.51395 0.0
H1761 H 0.16984 0.89572 0.50094 0.0
H1762 H 0.12616 0.92342 0.53894 0.0
H1763 H 0.16136 0.9614 0.55128 0.0
C1764 C 0.08722 0.85318 0.53976 0.0
C1765 C 0.07811 0.84398 0.50558 0.0
C1766 C 0.10959 0.87282 0.5437 0.0
C1767 C 0.12368 0.88376 0.51369 0.0
C1768 C 0.1155 0.87388 0.47955 0.0
C1769 C 0.09277 0.85407 0.47548 0.0
C1770 C 0.18822 0.93184 0.51926 0.0
C1771 C 0.18599 0.95069 0.53281 0.0
C1772 C 0.16794 0.91009 0.51161 0.0
C1773 C 0.14538 0.90687 0.51856 0.0
C1774 C 0.14337 0.92558 0.53307 0.0
C1775 C 0.16345 0.94725 0.54012 0.0
H1776 H 0.7345 0.93422 0.01642 0.0
H1777 H 0.808 0.96419 0.04413 0.0
H1778 H 0.73272 0.89693 1.0001 0.0
H1779 H 0.80627 0.92715 0.02948 0.0
H1780 H 0.8063 0.86836 0.97162 0.0
H1781 H 0.80453 0.90427 0.98032 0.0
H1782 H 0.73374 0.86309 0.02275 0.0
H1783 H 0.73578 0.82699 1.01369 0.0
C1784 C 0.75018 0.93269 0.0192 0.0
C1785 C 0.77157 0.95215 0.03037 0.0
C1786 C 0.7492 0.91138 1.01001 0.0
C1787 C 0.76949 0.90909 1.01269 0.0
C1788 C 0.79049 0.92838 0.02578 0.0
C1789 C 0.79149 0.94961 0.03444 0.0
C1790 C 0.79012 0.867 0.98173 0.0
C1791 C 0.77106 0.84504 0.99152 0.0
C1792 C 0.78912 0.88761 0.98707 0.0
C1793 C 0.76905 0.88676 1.00255 0.0
C1794 C 0.7494 0.86449 1.01046 0.0
C1795 C 0.75047 0.84379 1.00515 0.0
H1796 H 0.136 0.94212 0.97242 0.0
H1797 H 0.17805 0.91177 1.00649 0.0
H1798 H 0.10016 0.90485 0.98354 0.0
H1799 H 0.14202 0.87405 0.01815 0.0
H1800 H 0.07012 0.80446 0.01801 0.0
H1801 H 0.10701 0.83953 0.99913 0.0
H1802 H 0.07894 0.88386 0.03345 0.0
H1803 H 0.04217 0.84894 0.05038 0.0
C1804 C 0.13748 0.92713 0.98131 0.0
C1805 C 0.15966 0.92961 0.98816 0.0
C1806 C 0.11691 0.90574 0.98808 0.0
C1807 C 0.11799 0.88629 1.00217 0.0
C1808 C 0.14039 0.88847 1.00702 0.0
C1809 C 0.16106 0.91 1.00019 0.0
C1810 C 0.07203 0.8218 0.0213 0.0
C1811 C 0.05319 0.8241 0.0345 0.0
C1812 C 0.09314 0.84189 1.01067 0.0
C1813 C 0.09591 0.86465 1.01396 0.0
C1814 C 0.07731 0.86673 0.02916 0.0
C1815 C 0.05624 0.84672 0.03918 0.0
H1816 H 0.16027 0.19622 0.04623 0.0
H1817 H 0.20271 0.2686 1.01214 0.0
H1818 H 0.12451 0.19709 0.03169 0.0
H1819 H 0.16675 0.2694 0.9955 0.0
H1820 H 0.09414 0.26683 1.006 0.0
H1821 H 0.13239 0.26933 0.01609 0.0
H1822 H 0.10198 0.19633 0.98348 0.0
H1823 H 0.06414 0.19404 0.97426 0.0
C1824 C 0.16184 0.21228 0.03514 0.0
C1825 C 0.18412 0.23212 0.02931 0.0
C1826 C 0.14135 0.21278 0.02649 0.0
C1827 C 0.14258 0.23314 1.01146 0.0
C1828 C 0.16503 0.2534 1.00698 0.0
C1829 C 0.18563 0.25297 0.0163 0.0
C1830 C 0.09605 0.25164 0.99998 0.0
C1831 C 0.07641 0.2303 0.98911 0.0
C1832 C 0.1179 0.25299 1.00586 0.0
C1833 C 0.12039 0.23295 1.00103 0.0
C1834 C 0.10084 0.21205 0.98812 0.0
C1835 C 0.07912 0.21072 0.98245 0.0
H1836 H 0.93468 0.73527 0.51656 0.0
H1837 H 0.96323 0.80864 0.48921 0.0
H1838 H 0.89752 0.73298 0.53531 0.0
H1839 H 0.92632 0.80644 0.50651 0.0
H1840 H 0.86846 0.80566 0.56791 0.0
H1841 H 0.90435 0.8041 0.55775 0.0
H1842 H 0.86306 0.73382 0.51377 0.0
H1843 H 0.82699 0.73572 0.52393 0.0
C1844 C 0.93287 0.75082 0.51443 0.0
C1845 C 0.95192 0.77232 0.50263 0.0
C1846 C 0.91165 0.74955 0.52503 0.0
C1847 C 0.90903 0.76967 0.52322 0.0
C1848 C 0.92787 0.79079 0.50954 0.0
C1849 C 0.94901 0.79207 0.49939 0.0
C1850 C 0.86706 0.78957 0.55732 0.0
C1851 C 0.84507 0.77067 0.54726 0.0
C1852 C 0.88766 0.7887 0.55114 0.0
C1853 C 0.88677 0.76889 0.53468 0.0
C1854 C 0.86448 0.74928 0.52679 0.0
C1855 C 0.84379 0.75025 0.5328 0.0
H1856 H 0.20083 0.15863 0.47613 0.0
H1857 H 0.27034 0.20258 0.52065 0.0
H1858 H 0.20315 0.12339 0.49025 0.0
H1859 H 0.27264 0.16689 0.5353 0.0
H1860 H 0.24057 0.0844 0.58383 0.0
H1861 H 0.24406 0.12362 0.57674 0.0
H1862 H 0.23519 0.1127 0.46254 0.0
H1863 H 0.23205 0.07443 0.46907 0.0
C1864 C 0.2165 0.16065 0.48938 0.0
C1865 C 0.2352 0.18314 0.49805 0.0
C1866 C 0.21784 0.14055 0.4974 0.0
C1867 C 0.23798 0.1425 0.51414 0.0
C1868 C 0.25682 0.16501 0.52285 0.0
C1869 C 0.25558 0.1853 0.5143 0.0
C1870 C 0.23979 0.09062 0.55724 0.0
C1871 C 0.23555 0.07604 0.52715 0.0
C1872 C 0.24181 0.113 0.55322 0.0
C1873 C 0.23958 0.12089 0.51912 0.0
C1874 C 0.23667 0.10686 0.48912 0.0
C1875 C 0.23477 0.08484 0.49302 0.0
H1876 H 0.91228 0.17785 0.51426 0.0
H1877 H 0.94021 0.13815 0.56631 0.0
H1878 H 0.87407 0.14148 0.50662 0.0
H1879 H 0.90253 0.10189 0.55812 0.0
H1880 H 0.8491 0.04282 0.48474 0.0
H1881 H 0.88367 0.07969 0.50303 0.0
H1882 H 0.83851 0.10708 0.53544 0.0
H1883 H 0.80366 0.06969 0.51701 0.0
C1884 C 0.90988 0.16143 0.52522 0.0
C1885 C 0.9289 0.16069 0.54136 0.0
C1886 C 0.88811 0.14063 0.52073 0.0
C1887 C 0.88526 0.11873 0.53164 0.0
C1888 C 0.90407 0.11838 0.54942 0.0
C1889 C 0.92563 0.13915 0.55434 0.0
C1890 C 0.84656 0.05659 0.49634 0.0
C1891 C 0.82378 0.05321 0.50072 0.0
C1892 C 0.86634 0.07771 0.50683 0.0
C1893 C 0.86383 0.09618 0.52137 0.0
C1894 C 0.84099 0.09311 0.52456 0.0
C1895 C 0.8211 0.0718 0.51411 0.0
H1896 H 0.8703 0.47201 0.40115 0.0
H1897 H 0.93879 0.51304 0.35229 0.0
H1898 H 0.87168 0.43605 0.39065 0.0
H1899 H 0.94054 0.47692 0.34182 0.0
H1900 H 0.93954 0.40548 0.34481 0.0
H1901 H 0.94222 0.44286 0.3633 0.0
H1902 H 0.86796 0.41342 0.33957 0.0
H1903 H 0.8654 0.37634 0.32248 0.0
C1904 C 0.88608 0.47332 0.38942 0.0
C1905 C 0.90462 0.4952 0.37813 0.0
C1906 C 0.88684 0.45268 0.38304 0.0
C1907 C 0.90619 0.45342 0.36519 0.0
C1908 C 0.92547 0.47563 0.35595 0.0
C1909 C 0.92459 0.49634 0.36212 0.0
C1910 C 0.92391 0.4072 0.34369 0.0
C1911 C 0.90211 0.38794 0.3334 0.0
C1912 C 0.9254 0.42855 0.35417 0.0
C1913 C 0.90519 0.43106 0.35374 0.0
C1914 C 0.88372 0.41198 0.34153 0.0
C1915 C 0.88224 0.39074 0.33149 0.0
H1916 H 0.63131 0.49138 0.32005 0.0
H1917 H 0.60475 0.53648 0.35543 0.0
H1918 H 0.59435 0.45663 0.33728 0.0
H1919 H 0.56739 0.50147 0.37342 0.0
H1920 H 0.49602 0.42873 0.354 0.0
H1921 H 0.53247 0.46693 0.34695 0.0
H1922 H 0.57251 0.43631 0.3901 0.0
H1923 H 0.53627 0.39859 0.39712 0.0
C1924 C 0.61757 0.49378 0.3321 0.0
C1925 C 0.62105 0.5165 0.33758 0.0
C1926 C 0.5964 0.4739 0.34208 0.0
C1927 C 0.57802 0.47623 0.35747 0.0
C1928 C 0.58122 0.49906 0.36181 0.0
C1929 C 0.60254 0.51906 0.35165 0.0
C1930 C 0.5126 0.43061 0.36324 0.0
C1931 C 0.51348 0.41096 0.37643 0.0
C1932 C 0.53347 0.45239 0.35908 0.0
C1933 C 0.55551 0.45467 0.36763 0.0
C1934 C 0.55597 0.43522 0.38295 0.0
C1935 C 0.53519 0.41362 0.38724 0.0
H1936 H 0.51271 0.1384 0.30732 0.0
H1937 H 0.46993 0.06873 0.35203 0.0
H1938 H 0.54835 0.13656 0.3199 0.0
H1939 H 0.50604 0.06686 0.36508 0.0
H1940 H 0.58711 0.09668 0.41238 0.0
H1941 H 0.54786 0.09304 0.40521 0.0
H1942 H 0.56129 0.10775 0.2923 0.0
H1943 H 0.59964 0.11114 0.29891 0.0
C1944 C 0.51103 0.12277 0.3202 0.0
C1945 C 0.48876 0.10391 0.32942 0.0
C1946 C 0.53137 0.12167 0.32729 0.0
C1947 C 0.52991 0.10162 0.34363 0.0
C1948 C 0.50759 0.08261 0.35285 0.0
C1949 C 0.48705 0.0836 0.34523 0.0
C1950 C 0.58147 0.09878 0.38602 0.0
C1951 C 0.59676 0.10465 0.35641 0.0
C1952 C 0.55906 0.09666 0.38194 0.0
C1953 C 0.55181 0.10045 0.34827 0.0
C1954 C 0.56661 0.1051 0.31862 0.0
C1955 C 0.58868 0.1071 0.32257 0.0
H1956 H 0.84662 0.60367 0.84246 0.0
H1957 H 0.80531 0.53242 0.80316 0.0
H1958 H 0.81043 0.60569 0.85079 0.0
H1959 H 0.76932 0.53421 0.81112 0.0
H1960 H 0.71092 0.53175 0.87942 0.0
H1961 H 0.74764 0.53342 0.86247 0.0
H1962 H 0.77572 0.60555 0.82687 0.0
H1963 H 0.7387 0.60381 0.84502 0.0
C1964 C 0.82983 0.58881 0.83434 0.0
C1965 C 0.82861 0.56798 0.82186 0.0
C1966 C 0.8091 0.58987 0.83922 0.0
C1967 C 0.78684 0.57001 0.832 0.0
C1968 C 0.78601 0.54975 0.81739 0.0
C1969 C 0.80665 0.54874 0.81251 0.0
C1970 C 0.72489 0.54788 0.86767 0.0
C1971 C 0.72182 0.5674 0.86242 0.0
C1972 C 0.74593 0.54885 0.85778 0.0
C1973 C 0.76455 0.56946 0.8425 0.0
C1974 C 0.76175 0.58937 0.83843 0.0
C1975 C 0.7406 0.5884 0.84867 0.0
H1976 H 0.40188 0.13623 0.83783 0.0
H1977 H 0.47355 0.18022 0.87407 0.0
H1978 H 0.40049 0.17165 0.81924 0.0
H1979 H 0.47228 0.2154 0.85637 0.0
H1980 H 0.47405 0.27417 0.79625 0.0
H1981 H 0.47174 0.2361 0.80376 0.0
H1982 H 0.40059 0.2065 0.84445 0.0
H1983 H 0.40314 0.24501 0.83676 0.0
C1984 C 0.4173 0.1535 0.84169 0.0
C1985 C 0.43809 0.15561 0.85617 0.0
C1986 C 0.41653 0.17374 0.83119 0.0
C1987 C 0.43644 0.19639 0.83562 0.0
C1988 C 0.45686 0.19829 0.85146 0.0
C1989 C 0.45761 0.17816 0.86173 0.0
C1990 C 0.45767 0.2593 0.80568 0.0
C1991 C 0.4387 0.26233 0.81558 0.0
C1992 C 0.45636 0.23749 0.81028 0.0
C1993 C 0.43607 0.21821 0.82509 0.0
C1994 C 0.41642 0.22088 0.83273 0.0
C1995 C 0.41779 0.24285 0.8282 0.0
H1996 H 0.73124 0.19871 0.79528 0.0
H1997 H 0.75769 0.15872 0.85037 0.0
H1998 H 0.76841 0.23495 0.8062 0.0
H1999 H 0.79548 0.19506 0.86063 0.0
H2000 H 0.86628 0.26644 0.854 0.0
H2001 H 0.83166 0.22891 0.83568 0.0
H2002 H 0.78651 0.25794 0.85928 0.0
H2003 H 0.82093 0.29508 0.87698 0.0
C2004 C 0.74547 0.19766 0.80844 0.0
C2005 C 0.7419 0.17601 0.82138 0.0
C2006 C 0.76675 0.21844 0.81496 0.0
C2007 C 0.78505 0.21802 0.83427 0.0
C2008 C 0.78191 0.19603 0.84533 0.0
C2009 C 0.76038 0.17522 0.83931 0.0
C2010 C 0.84888 0.26463 0.85511 0.0
C2011 C 0.84623 0.28378 0.86566 0.0
C2012 C 0.8291 0.24322 0.84472 0.0
C2013 C 0.80633 0.24055 0.84529 0.0
C2014 C 0.80379 0.25954 0.85742 0.0
C2015 C 0.82348 0.28082 0.86766 0.0
H2016 H 0.47849 0.20444 0.30358 0.0
H2017 H 0.40525 0.1624 0.33358 0.0
H2018 H 0.4765 0.24031 0.31141 0.0
H2019 H 0.40308 0.19849 0.34213 0.0
H2020 H 0.40538 0.2703 0.33721 0.0
H2021 H 0.40448 0.23371 0.31907 0.0
H2022 H 0.47492 0.26106 0.36189 0.0
H2023 H 0.47584 0.29746 0.3786 0.0
C2024 C 0.46179 0.20295 0.31107 0.0
C2025 C 0.44201 0.18079 0.31781 0.0
C2026 C 0.46064 0.22352 0.31587 0.0
C2027 C 0.43972 0.22243 0.32795 0.0
C2028 C 0.41945 0.20005 0.33259 0.0
C2029 C 0.42061 0.17937 0.32761 0.0
C2030 C 0.42062 0.26835 0.34239 0.0
C2031 C 0.44097 0.28684 0.35814 0.0
C2032 C 0.42012 0.24742 0.3322 0.0
C2033 C 0.4398 0.24453 0.33835 0.0
C2034 C 0.45972 0.26285 0.35557 0.0
C2035 C 0.46026 0.28371 0.36534 0.0
H2036 H 0.82709 0.25269 0.28378 0.0
H2037 H 0.82606 0.26478 0.39763 0.0
H2038 H 0.79198 0.21318 0.29131 0.0
H2039 H 0.7914 0.22621 0.40443 0.0
H2040 H 0.71088 0.1788 0.38406 0.0
H2041 H 0.74893 0.21415 0.37275 0.0
H2042 H 0.77738 0.17086 0.33587 0.0
H2043 H 0.73891 0.13504 0.34788 0.0
C2044 C 0.81968 0.24692 0.31029 0.0
C2045 C 0.82922 0.26217 0.33991 0.0
C2046 C 0.79968 0.22435 0.31456 0.0
C2047 C 0.78899 0.21692 0.3484 0.0
C2048 C 0.79923 0.23165 0.37805 0.0
C2049 C 0.81908 0.25386 0.37394 0.0
C2050 C 0.72523 0.17684 0.37341 0.0
C2051 C 0.72198 0.15438 0.36608 0.0
C2052 C 0.74695 0.197 0.36699 0.0
C2053 C 0.7659 0.19514 0.35308 0.0
C2054 C 0.76285 0.17265 0.34612 0.0
C2055 C 0.74105 0.1523 0.35318 0.0
H2056 H 0.82883 0.53282 0.38297 0.0
H2057 H 0.87176 0.60373 0.34297 0.0
H2058 H 0.79322 0.53345 0.36616 0.0
H2059 H 0.8359 0.60434 0.32472 0.0
H2060 H 0.76293 0.60208 0.33852 0.0
H2061 H 0.80147 0.60493 0.3474 0.0
H2062 H 0.7712 0.53191 0.3153 0.0
H2063 H 0.73311 0.52929 0.30689 0.0
C2064 C 0.83055 0.54846 0.37005 0.0
C2065 C 0.85292 0.56795 0.36322 0.0
C2066 C 0.81016 0.54883 0.3602 0.0
C2067 C 0.81159 0.56876 0.34326 0.0
C2068 C 0.8341 0.58868 0.33761 0.0
C2069 C 0.85461 0.58834 0.34788 0.0
C2070 C 0.76492 0.58699 0.3322 0.0
C2071 C 0.74525 0.56552 0.3218 0.0
C2072 C 0.78693 0.58854 0.3374 0.0
C2073 C 0.78949 0.56855 0.3325 0.0
C2074 C 0.76995 0.54757 0.31985 0.0
C2075 C 0.7481 0.54606 0.31472 0.0
H2076 H 0.5996 0.06678 0.84857 0.0
H2077 H 0.62869 0.13953 0.8169 0.0
H2078 H 0.56281 0.06545 0.86693 0.0
H2079 H 0.59221 0.13829 0.83413 0.0
H2080 H 0.53466 0.13935 0.89388 0.0
H2081 H 0.57036 0.13702 0.88568 0.0
H2082 H 0.52863 0.06642 0.843 0.0
H2083 H 0.49278 0.069 0.85149 0.0
C2084 C 0.59804 0.08243 0.84556 0.0
C2085 C 0.61712 0.10348 0.83252 0.0
C2086 C 0.57703 0.0817 0.85593 0.0
C2087 C 0.57467 0.10191 0.85273 0.0
C2088 C 0.59358 0.1226 0.83815 0.0
C2089 C 0.61448 0.12333 0.8281 0.0
C2090 C 0.53311 0.12307 0.8839 0.0
C2091 C 0.51108 0.10424 0.87377 0.0
C2092 C 0.55358 0.12176 0.87886 0.0
C2093 C 0.5525 0.10161 0.86334 0.0
C2094 C 0.53016 0.08213 0.8553 0.0
C2095 C 0.50961 0.08351 0.86028 0.0
H2096 H 0.93847 0.53753 0.86069 0.0
H2097 H 0.86923 0.49534 0.81429 0.0
H2098 H 0.93967 0.50116 0.87466 0.0
H2099 H 0.87048 0.45944 0.82771 0.0
H2100 H 0.89794 0.40929 0.80631 0.0
H2101 H 0.90248 0.44819 0.80041 0.0
H2102 H 0.90937 0.45745 0.91502 0.0
H2103 H 0.90437 0.41757 0.92148 0.0
C2104 C 0.92354 0.52049 0.85375 0.0
C2105 C 0.90354 0.51902 0.83718 0.0
C2106 C 0.92415 0.49981 0.86192 0.0
C2107 C 0.90506 0.4776 0.85251 0.0
C2108 C 0.88534 0.47636 0.8354 0.0
C2109 C 0.88461 0.49683 0.82778 0.0
C2110 C 0.90053 0.41947 0.83049 0.0
C2111 C 0.90027 0.41001 0.86452 0.0
C2112 C 0.90324 0.44185 0.82695 0.0
C2113 C 0.90598 0.4556 0.85723 0.0
C2114 C 0.90724 0.44704 0.89128 0.0
C2115 C 0.90437 0.42429 0.89495 0.0
H2116 H 0.60929 0.46992 0.89645 0.0
H2117 H 0.58023 0.51108 0.85305 0.0
H2118 H 0.57151 0.43389 0.8878 0.0
H2119 H 0.54201 0.47491 0.84456 0.0
H2120 H 0.47181 0.4035 0.85247 0.0
H2121 H 0.50717 0.44032 0.87105 0.0
H2122 H 0.55107 0.41237 0.83445 0.0
H2123 H 0.51591 0.37589 0.8165 0.0
C2124 C 0.59449 0.47123 0.8861 0.0
C2125 C 0.59744 0.49314 0.87577 0.0
C2126 C 0.57287 0.45059 0.88089 0.0
C2127 C 0.55369 0.45142 0.86527 0.0
C2128 C 0.55631 0.47363 0.85695 0.0
C2129 C 0.57811 0.49433 0.86191 0.0
C2130 C 0.4891 0.40536 0.84872 0.0
C2131 C 0.49125 0.3867 0.83429 0.0
C2132 C 0.5093 0.42637 0.85921 0.0
C2133 C 0.53196 0.42915 0.85485 0.0
C2134 C 0.53392 0.41063 0.8392 0.0
C2135 C 0.51382 0.38974 0.82885 0.0
H2136 H 0.53035 0.70625 0.65191 0.0
H2137 H 0.60404 0.73667 0.67864 0.0
H2138 H 0.53191 0.74319 0.66662 0.0
H2139 H 0.60564 0.77383 0.69521 0.0
H2140 H 0.60236 0.8436 0.68395 0.0
H2141 H 0.60447 0.80765 0.67392 0.0
H2142 H 0.53347 0.76595 0.71538 0.0
H2143 H 0.53161 0.80174 0.7249 0.0
C2144 C 0.54687 0.72092 0.66138 0.0
C2145 C 0.5669 0.71852 0.66515 0.0
C2146 C 0.54777 0.74209 0.67011 0.0
C2147 C 0.56876 0.76147 0.68306 0.0
C2148 C 0.58916 0.75933 0.68539 0.0
C2149 C 0.58829 0.73809 0.67607 0.0
C2150 C 0.58762 0.82671 0.69203 0.0
C2151 C 0.56695 0.82531 0.70565 0.0
C2152 C 0.58873 0.80608 0.68617 0.0
C2153 C 0.56907 0.7837 0.69354 0.0
C2154 C 0.5489 0.78269 0.70897 0.0
C2155 C 0.54784 0.80322 0.71482 0.0
H2156 H 0.16074 0.75888 0.68415 0.0
H2157 H 0.20232 0.72951 0.72456 0.0
H2158 H 0.19684 0.79697 0.67466 0.0
H2159 H 0.23822 0.76711 0.7153 0.0
H2160 H 0.29756 0.82351 0.65022 0.0
H2161 H 0.2606 0.78824 0.66553 0.0
H2162 H 0.23106 0.83176 0.69719 0.0
H2163 H 0.26826 0.86721 0.68031 0.0
C2164 C 0.17759 0.76092 0.69223 0.0
C2165 C 0.17889 0.74152 0.70553 0.0
C2166 C 0.19829 0.78266 0.68666 0.0
C2167 C 0.22061 0.78521 0.69393 0.0
C2168 C 0.22152 0.76593 0.70906 0.0
C2169 C 0.20092 0.74436 0.71471 0.0
C2170 C 0.28316 0.82548 0.66059 0.0
C2171 C 0.28587 0.84798 0.66514 0.0
C2172 C 0.26197 0.80529 0.6696 0.0
C2173 C 0.24289 0.80706 0.68349 0.0
C2174 C 0.24534 0.82968 0.68667 0.0
C2175 C 0.26661 0.84998 0.67717 0.0
H2176 H 0.25191 0.42827 0.74649 0.0
H2177 H 0.26601 0.44926 0.63515 0.0
H2178 H 0.21274 0.42491 0.74057 0.0
H2179 H 0.22766 0.44589 0.62968 0.0
H2180 H 0.1755 0.47114 0.64612 0.0
H2181 H 0.21207 0.4709 0.6577 0.0
H2182 H 0.17223 0.40063 0.7021 0.0
H2183 H 0.13522 0.40099 0.69032 0.0
C2184 C 0.24668 0.43195 0.72084 0.0
C2185 C 0.26234 0.43939 0.69151 0.0
C2186 C 0.22429 0.42995 0.71745 0.0
C2187 C 0.21738 0.43544 0.68476 0.0
C2188 C 0.23269 0.44197 0.65535 0.0
C2189 C 0.25476 0.44389 0.65862 0.0
C2190 C 0.17458 0.45574 0.65869 0.0
C2191 C 0.15274 0.4363 0.6681 0.0
C2192 C 0.19545 0.45554 0.66516 0.0
C2193 C 0.19497 0.43577 0.6809 0.0
C2194 C 0.17307 0.41619 0.69033 0.0
C2195 C 0.152 0.41632 0.68343 0.0
H2196 H 0.38085 0.86827 0.21443 0.0
H2197 H 0.40287 0.93777 0.1725 0.0
H2198 H 0.41914 0.87274 0.19841 0.0
H2199 H 0.44154 0.94222 0.15607 0.0
H2200 H 0.48999 0.90363 0.10583 0.0
H2201 H 0.45436 0.90737 0.11209 0.0
H2202 H 0.46432 0.91376 0.22657 0.0
H2203 H 0.49963 0.91056 0.22066 0.0
C2204 C 0.39382 0.88435 0.20123 0.0
C2205 C 0.38885 0.90245 0.19383 0.0
C2206 C 0.41564 0.8869 0.19209 0.0
C2207 C 0.43298 0.90764 0.17551 0.0
C2208 C 0.42819 0.92591 0.16823 0.0
C2209 C 0.40628 0.92344 0.1778 0.0
C2210 C 0.4849 0.90654 0.13212 0.0
C2211 C 0.49735 0.90639 0.16279 0.0
C2212 C 0.46457 0.90861 0.13568 0.0
C2213 C 0.45666 0.9106 0.16986 0.0
C2214 C 0.47008 0.91216 0.20001 0.0
C2215 C 0.49021 0.91019 0.19653 0.0
H2216 H 0.14367 0.60608 0.13376 0.0
H2217 H 0.07147 0.57647 0.16848 0.0
H2218 H 0.14136 0.56816 0.14284 0.0
H2219 H 0.06889 0.53807 0.1777 0.0
H2220 H 0.0708 0.46807 0.17462 0.0
H2221 H 0.06974 0.5034 0.15465 0.0
H2222 H 0.14046 0.54735 0.19581 0.0
H2223 H 0.14146 0.51224 0.21473 0.0
C2224 C 0.12704 0.59114 0.14225 0.0
C2225 C 0.10769 0.59403 0.15012 0.0
C2226 C 0.12572 0.56941 0.14775 0.0
C2227 C 0.10503 0.55003 0.16142 0.0
C2228 C 0.08506 0.55253 0.16692 0.0
C2229 C 0.08644 0.57444 0.16148 0.0
C2230 C 0.08606 0.48537 0.17908 0.0
C2231 C 0.10651 0.48755 0.19503 0.0
C2232 C 0.08547 0.50557 0.1678 0.0
C2233 C 0.10519 0.52825 0.17294 0.0
C2234 C 0.12522 0.53022 0.19031 0.0
C2235 C 0.12581 0.51012 0.2013 0.0
H2236 H 0.53403 0.60187 0.17574 0.0
H2237 H 0.48856 0.62787 0.21165 0.0
H2238 H 0.49929 0.56522 0.15499 0.0
H2239 H 0.45404 0.59152 0.19194 0.0
H2240 H 0.39663 0.53521 0.12921 0.0
H2241 H 0.43427 0.57115 0.1386 0.0
H2242 H 0.46444 0.5297 0.17754 0.0
H2243 H 0.42638 0.49358 0.168 0.0
C2244 C 0.51658 0.59967 0.17912 0.0
C2245 C 0.51387 0.61786 0.19412 0.0
C2246 C 0.49672 0.57874 0.16738 0.0
C2247 C 0.47385 0.57557 0.17108 0.0
C2248 C 0.47134 0.59357 0.18753 0.0
C2249 C 0.4911 0.61438 0.19899 0.0
C2250 C 0.41158 0.53379 0.13852 0.0
C2251 C 0.40882 0.51174 0.14743 0.0
C2252 C 0.43314 0.5544 0.14425 0.0
C2253 C 0.45242 0.55344 0.1592 0.0
C2254 C 0.45007 0.53113 0.16574 0.0
C2255 C 0.42835 0.51043 0.1601 0.0
H2256 H 0.1395 0.62776 0.71053 0.0
H2257 H 0.06751 0.60054 0.67617 0.0
H2258 H 0.13729 0.59066 0.69434 0.0
H2259 H 0.06519 0.56308 0.65906 0.0
H2260 H 0.06649 0.4919 0.67828 0.0
H2261 H 0.06491 0.52844 0.6854 0.0
H2262 H 0.13568 0.56832 0.6426 0.0
H2263 H 0.13701 0.53201 0.63566 0.0
C2264 C 0.12328 0.61383 0.69892 0.0
C2265 C 0.10394 0.61716 0.69344 0.0
C2266 C 0.12199 0.59257 0.68953 0.0
C2267 C 0.1012 0.57398 0.67465 0.0
C2268 C 0.08149 0.57705 0.67031 0.0
C2269 C 0.0828 0.59844 0.67995 0.0
C2270 C 0.08127 0.50848 0.66925 0.0
C2271 C 0.10179 0.50929 0.65616 0.0
C2272 C 0.08046 0.5294 0.67342 0.0
C2273 C 0.10028 0.55141 0.66492 0.0
C2274 C 0.12019 0.55181 0.64979 0.0
C2275 C 0.12095 0.53099 0.64555 0.0
H2276 H 0.37627 0.51017 0.71855 0.0
H2277 H 0.40343 0.46594 0.68105 0.0
H2278 H 0.41458 0.54527 0.70781 0.0
H2279 H 0.4422 0.50153 0.66965 0.0
H2280 H 0.49304 0.58307 0.61864 0.0
H2281 H 0.45781 0.54365 0.6262 0.0
H2282 H 0.45652 0.55732 0.73894 0.0
H2283 H 0.49129 0.59581 0.7321 0.0
C2284 C 0.3905 0.50805 0.70777 0.0
C2285 C 0.38692 0.48553 0.6999 0.0
C2286 C 0.41237 0.52808 0.70169 0.0
C2287 C 0.43119 0.52604 0.68762 0.0
C2288 C 0.42781 0.50348 0.6801 0.0
C2289 C 0.40583 0.48325 0.6868 0.0
C2290 C 0.48545 0.57746 0.64509 0.0
C2291 C 0.49481 0.59288 0.67456 0.0
C2292 C 0.46538 0.55494 0.64938 0.0
C2293 C 0.45442 0.54772 0.68309 0.0
C2294 C 0.46452 0.5626 0.71264 0.0
C2295 C 0.48445 0.58476 0.70852 0.0
H2296 H 0.41953 0.9064 0.61212 0.0
H2297 H 0.41081 0.89861 0.72713 0.0
H2298 H 0.45901 0.91041 0.61829 0.0
H2299 H 0.44936 0.90219 0.73274 0.0
H2300 H 0.49504 0.8673 0.71643 0.0
H2301 H 0.45969 0.86973 0.70369 0.0
H2302 H 0.50283 0.93958 0.65957 0.0
H2303 H 0.53865 0.93719 0.67289 0.0
C2304 C 0.4261 0.90593 0.63857 0.0
C2305 C 0.41179 0.90172 0.66901 0.0
C2306 C 0.44862 0.90823 0.64207 0.0
C2307 C 0.45694 0.9063 0.67597 0.0
C2308 C 0.4432 0.90347 0.70632 0.0
C2309 C 0.42103 0.90132 0.70294 0.0
C2310 C 0.49696 0.88308 0.7037 0.0
C2311 C 0.51939 0.90185 0.69489 0.0
C2312 C 0.4768 0.88448 0.69647 0.0
C2313 C 0.47861 0.90474 0.68035 0.0
C2314 C 0.50105 0.92367 0.67155 0.0
C2315 C 0.52142 0.92237 0.67934 0.0
H2316 H 0.2025 0.47138 0.23554 0.0
H2317 H 0.16072 0.40032 0.1957 0.0
H2318 H 0.23835 0.46953 0.22626 0.0
H2319 H 0.19679 0.3982 0.18641 0.0
H2320 H 0.26921 0.4009 0.18853 0.0
H2321 H 0.23252 0.39884 0.2095 0.0
H2322 H 0.25841 0.47025 0.17208 0.0
H2323 H 0.29473 0.47218 0.15198 0.0
C2324 C 0.20102 0.45503 0.22605 0.0
C2325 C 0.17896 0.43591 0.21672 0.0
C2326 C 0.22158 0.45399 0.22042 0.0
C2327 C 0.22056 0.4338 0.20521 0.0
C2328 C 0.19824 0.41395 0.19839 0.0
C2329 C 0.17757 0.41507 0.2039 0.0
C2330 C 0.26691 0.41608 0.1851 0.0
C2331 C 0.28498 0.43697 0.16984 0.0
C2332 C 0.24597 0.41493 0.19697 0.0
C2333 C 0.24269 0.43456 0.1932 0.0
C2334 C 0.26056 0.45505 0.17654 0.0
C2335 C 0.28137 0.45618 0.16488 0.0
H2336 H 0.60285 0.86803 0.18304 0.0
H2337 H 0.53039 0.8249 0.14975 0.0
H2338 H 0.60353 0.83246 0.20258 0.0
H2339 H 0.53108 0.78949 0.16758 0.0
H2340 H 0.52801 0.73062 0.22914 0.0
H2341 H 0.53071 0.76853 0.21842 0.0
H2342 H 0.60293 0.79729 0.18289 0.0
H2343 H 0.59994 0.75892 0.19395 0.0
C2344 C 0.58717 0.85088 0.17975 0.0
C2345 C 0.56634 0.84911 0.16605 0.0
C2346 C 0.58752 0.83052 0.19078 0.0
C2347 C 0.56719 0.80802 0.18746 0.0
C2348 C 0.54682 0.80644 0.17186 0.0
C2349 C 0.54642 0.82672 0.16136 0.0
C2350 C 0.54469 0.74532 0.22027 0.0
C2351 C 0.56387 0.74207 0.21289 0.0
C2352 C 0.54624 0.76706 0.21372 0.0
C2353 C 0.56699 0.7861 0.19941 0.0
C2354 C 0.58674 0.78318 0.1942 0.0
C2355 C 0.58513 0.76128 0.20073 0.0
H2356 H 0.1826 0.70765 0.14771 0.0
H2357 H 0.13909 0.73436 0.18975 0.0
H2358 H 0.21798 0.74382 0.16534 0.0
H2359 H 0.1747 0.7707 0.20897 0.0
H2360 H 0.24705 0.84206 0.19708 0.0
H2361 H 0.20874 0.80622 0.18768 0.0
H2362 H 0.24007 0.76377 0.21611 0.0
H2363 H 0.27797 0.79941 0.22481 0.0
C2364 C 0.1807 0.72127 0.16127 0.0
C2365 C 0.15825 0.71806 0.16838 0.0
C2366 C 0.20096 0.74199 0.17162 0.0
C2367 C 0.1993 0.76009 0.18942 0.0
C2368 C 0.17669 0.75716 0.19541 0.0
C2369 C 0.15631 0.73638 0.18459 0.0
C2370 C 0.24535 0.82499 0.20248 0.0
C2371 C 0.26527 0.82335 0.21186 0.0
C2372 C 0.22347 0.80444 0.19697 0.0
C2373 C 0.22128 0.78197 0.20063 0.0
C2374 C 0.24105 0.78063 0.21242 0.0
C2375 C 0.26279 0.80107 0.21775 0.0
H2376 H 0.19255 0.19307 0.16866 0.0
H2377 H 0.26739 0.24306 0.17296 0.0
H2378 H 0.19003 0.19568 0.23355 0.0
H2379 H 0.26498 0.24536 0.23798 0.0
H2380 H 0.19861 0.18868 0.35426 0.0
H2381 H 0.20107 0.18554 0.28951 0.0
H2382 H 0.24969 0.26068 0.28321 0.0
H2383 H 0.24756 0.26371 0.3482 0.0
C2384 C 0.20853 0.20441 0.18349 0.0
C2385 C 0.23017 0.21784 0.16552 0.0
C2386 C 0.20711 0.20588 0.2208 0.0
C2387 C 0.22728 0.22083 0.24119 0.0
C2388 C 0.249 0.23395 0.2232 0.0
C2389 C 0.25043 0.23246 0.18588 0.0
C2390 C 0.20975 0.20457 0.33908 0.0
C2391 C 0.22288 0.22646 0.35651 0.0
C2392 C 0.2111 0.20278 0.30183 0.0
C2393 C 0.22563 0.22283 0.28094 0.0
C2394 C 0.23859 0.24478 0.29839 0.0
C2395 C 0.23722 0.24657 0.33568 0.0
H2396 H 0.81274 0.99995 0.16875 0.0
H2397 H 0.76421 0.02656 0.1739 0.0
H2398 H 0.81056 0.99512 0.23377 0.0
H2399 H 0.76233 0.02214 0.23893 0.0
H2400 H 0.74349 0.98638 0.34897 0.0
H2401 H 0.7465 0.99145 0.28401 0.0
H2402 H 0.82135 0.01636 0.28993 0.0
H2403 H 0.81821 0.01087 0.35479 0.0
C2404 C 0.80182 0.00504 0.18378 0.0
C2405 C 0.78865 0.01364 0.16602 0.0
C2406 C 0.80061 0.00232 0.22115 0.0
C2407 C 0.78614 0.00808 0.24178 0.0
C2408 C 0.77334 0.01712 0.22398 0.0
C2409 C 0.77459 0.01987 0.18664 0.0
C2410 C 0.76056 0.99281 0.3364 0.0
C2411 C 0.78059 0.99818 0.35717 0.0
C2412 C 0.76235 0.99592 0.29911 0.0
C2413 C 0.78421 0.00446 0.28155 0.0
C2414 C 0.80418 0.00953 0.30236 0.0
C2415 C 0.80239 0.00646 0.33965 0.0
H2416 H 0.99862 0.81341 0.36213 0.0
H2417 H 0.02372 0.7637 0.35553 0.0
H2418 H 0.99286 0.81107 0.29729 0.0
H2419 H 0.01838 0.76167 0.29066 0.0
H2420 H 0.98189 0.74319 0.18155 0.0
H2421 H 0.9873 0.74625 0.24642 0.0
H2422 H 0.01309 0.82126 0.24033 0.0
H2423 H 0.00726 0.81807 0.17551 0.0
C2424 C 1.00318 0.80218 0.34682 0.0
C2425 C 0.01164 0.78875 0.36415 0.0
C2426 C 0.99992 0.80088 0.30953 0.0
C2427 C 0.00498 0.78605 0.28853 0.0
C2428 C 0.01387 0.77296 0.30589 0.0
C2429 C 0.01716 0.7743 0.34314 0.0
C2430 C 0.98853 0.76031 0.19406 0.0
C2431 C 0.9941 0.78037 0.17321 0.0
C2432 C 0.99186 0.76212 0.23131 0.0
C2433 C 1.00083 0.78405 0.24882 0.0
C2434 C 0.00595 0.80403 0.22798 0.0
C2435 C 1.00266 0.80222 0.1907 0.0
H2436 H 0.81221 0.80599 0.86094 0.0
H2437 H 0.73712 0.75708 0.85666 0.0
H2438 H 0.81449 0.80417 0.79592 0.0
H2439 H 0.73928 0.75559 0.79143 0.0
H2440 H 0.80618 0.81369 0.67607 0.0
H2441 H 0.80376 0.81572 0.74108 0.0
H2442 H 0.75385 0.74079 0.74447 0.0
H2443 H 0.75595 0.73889 0.67932 0.0
C2444 C 0.79612 0.79498 0.84611 0.0
C2445 C 0.77447 0.78169 0.86412 0.0
C2446 C 0.79741 0.79401 0.8087 0.0
C2447 C 0.77708 0.77969 0.7882 0.0
C2448 C 0.75538 0.76655 0.80626 0.0
C2449 C 0.75409 0.76754 0.84371 0.0
C2450 C 0.79475 0.79762 0.69068 0.0
C2451 C 0.78128 0.77612 0.67239 0.0
C2452 C 0.79342 0.79876 0.72807 0.0
C2453 C 0.77857 0.77843 0.74825 0.0
C2454 C 0.76522 0.75689 0.7299 0.0
C2455 C 0.76656 0.75575 0.69249 0.0
H2456 H 0.26783 0.0245 0.67527 0.0
H2457 H 0.19276 0.9985 0.6714 0.0
H2458 H 0.26561 0.01972 0.74035 0.0
H2459 H 0.19045 0.99336 0.73629 0.0
H2460 H 0.1992 0.00934 0.85691 0.0
H2461 H 0.2015 0.01484 0.79213 0.0
H2462 H 0.2506 0.98894 0.7858 0.0
H2463 H 0.24857 0.98379 0.85085 0.0
C2464 C 0.25086 0.01788 0.6883 0.0
C2465 C 0.23049 0.01195 0.66803 0.0
C2466 C 0.24954 0.01492 0.72564 0.0
C2467 C 0.22782 0.00601 0.74375 0.0
C2468 C 0.20753 1.00048 0.72345 0.0
C2469 C 0.20884 0.00338 0.68613 0.0
C2470 C 0.2104 0.00469 0.84172 0.0
C2471 C 0.22368 0.99609 0.85918 0.0
C2472 C 0.21166 0.00778 0.80446 0.0
C2473 C 0.22629 0.00242 0.78353 0.0
C2474 C 0.23941 0.99359 0.801 0.0
C2475 C 0.23809 0.99044 0.83832 0.0
H2476 H 0.01133 0.1977 0.67124 0.0
H2477 H 0.98696 0.24807 0.67561 0.0
H2478 H 0.01621 0.20004 0.73619 0.0
H2479 H 0.9914 0.25009 0.74068 0.0
H2480 H 0.0251 0.26664 0.85224 0.0
H2481 H 0.02135 0.2646 0.78701 0.0
H2482 H 0.99398 0.18926 0.79126 0.0
H2483 H 0.99816 0.1914 0.85626 0.0
C2484 C 0.00683 0.20915 0.68608 0.0
C2485 C 0.99873 0.22268 0.66815 0.0
C2486 C 0.00955 0.21043 0.72342 0.0
C2487 C 0.00426 0.2253 0.74385 0.0
C2488 C 0.996 0.23871 0.72586 0.0
C2489 C 0.99325 0.23741 0.68852 0.0
C2490 C 0.01844 0.24967 0.83922 0.0
C2491 C 0.01197 0.2292 0.85954 0.0
C2492 C 0.0161 0.24846 0.80179 0.0
C2493 C 0.00725 0.22674 0.78371 0.0
C2494 C 1.00111 0.20634 0.80409 0.0
C2495 C 0.00342 0.20755 0.84147 0.0
H2496 H 0.93641 0.58354 0.51196 0.0
H2497 H 0.86154 0.53361 0.50857 0.0
H2498 H 0.93444 0.58561 0.57713 0.0
H2499 H 0.85943 0.53602 0.57353 0.0
H2500 H 0.8686 0.52734 0.69327 0.0
H2501 H 0.87073 0.52513 0.62831 0.0
H2502 H 0.91972 0.60026 0.62412 0.0
H2503 H 0.91794 0.60235 0.68934 0.0
C2504 C 0.91952 0.57299 0.5251 0.0
C2505 C 0.89915 0.55836 0.50496 0.0
C2506 C 0.91834 0.57432 0.56251 0.0
C2507 C 0.89675 0.56104 0.5808 0.0
C2508 C 0.87643 0.54629 0.56057 0.0
C2509 C 0.87761 0.54497 0.5232 0.0
C2510 C 0.87977 0.54343 0.67852 0.0
C2511 C 0.89308 0.56503 0.69661 0.0
C2512 C 0.88091 0.54218 0.64114 0.0
C2513 C 0.89541 0.5625 0.62074 0.0
C2514 C 0.90861 0.58416 0.63887 0.0
C2515 C 0.90745 0.58541 0.67631 0.0
H2516 H 0.48559 0.35087 0.50587 0.0
H2517 H 0.41284 0.33394 0.50375 0.0
H2518 H 0.48421 0.34812 0.57095 0.0
H2519 H 0.41051 0.32907 0.56843 0.0
H2520 H 0.41624 0.34012 0.68812 0.0
H2521 H 0.41863 0.34501 0.62346 0.0
H2522 H 0.47282 0.32534 0.62044 0.0
H2523 H 0.47161 0.32257 0.68553 0.0
C2524 C 0.4692 0.34631 0.51945 0.0
C2525 C 0.44938 0.34277 0.49978 0.0
C2526 C 0.46824 0.34443 0.55691 0.0
C2527 C 0.44717 0.3382 0.57573 0.0
C2528 C 0.42729 0.33447 0.55562 0.0
C2529 C 0.42851 0.33709 0.51828 0.0
C2530 C 0.42863 0.33685 0.67349 0.0
C2531 C 0.44373 0.33097 0.69185 0.0
C2532 C 0.42994 0.33947 0.63616 0.0
C2533 C 0.44592 0.33557 0.61591 0.0
C2534 C 0.46068 0.32916 0.63459 0.0
C2535 C 0.45985 0.32727 0.67206 0.0
H2536 H 0.68475 0.09054 0.6823 0.0
H2537 H 0.66007 0.14062 0.68817 0.0
H2538 H 0.67985 0.08864 0.61734 0.0
H2539 H 0.65475 0.13841 0.62325 0.0
H2540 H 0.67202 0.14695 0.50238 0.0
H2541 H 0.67629 0.14917 0.56742 0.0
H2542 H 0.6495 0.07394 0.57173 0.0
H2543 H 0.64563 0.07182 0.50654 0.0
C2544 C 0.67831 0.10119 0.66974 0.0
C2545 C 0.67286 0.11577 0.69054 0.0
C2546 C 0.67529 0.09994 0.63244 0.0
C2547 C 0.66676 0.11326 0.61486 0.0
C2548 C 0.66158 0.12806 0.63569 0.0
C2549 C 0.66456 0.12928 0.67301 0.0
C2550 C 0.66685 0.13084 0.5172 0.0
C2551 C 0.65849 0.10921 0.49914 0.0
C2552 C 0.66924 0.1321 0.55461 0.0
C2553 C 0.66338 0.11177 0.57502 0.0
C2554 C 0.65457 0.09005 0.55694 0.0
C2555 C 0.65214 0.08878 0.51953 0.0
H2556 H 0.48076 0.14085 0.18704 0.0
H2557 H 0.40552 0.09241 0.18378 0.0
H2558 H 0.4826 0.13884 0.12199 0.0
H2559 H 0.40726 0.09074 0.11854 0.0
H2560 H 0.42314 0.07326 1.00656 0.0
H2561 H 0.42153 0.07548 0.07172 0.0
H2562 H 0.47152 0.15036 0.06732 0.0
H2563 H 0.47347 0.14802 1.00229 0.0
C2564 C 0.46455 0.12992 0.17242 0.0
C2565 C 0.44298 0.11679 0.1907 0.0
C2566 C 0.46559 0.12884 0.13502 0.0
C2567 C 0.4451 0.11458 0.11483 0.0
C2568 C 0.42347 0.10164 0.13315 0.0
C2569 C 0.42243 0.10274 0.17059 0.0
C2570 C 0.43388 0.09018 0.01951 0.0
C2571 C 0.44847 0.11044 0.99915 0.0
C2572 C 0.43281 0.0915 0.0569 0.0
C2573 C 0.44632 0.11312 0.07494 0.0
C2574 C 0.46107 0.13335 0.0545 0.0
C2575 C 0.46212 0.13203 0.01713 0.0
H2576 H 0.90674 0.31397 0.18662 0.0
H2577 H 0.85839 0.34069 0.19451 0.0
H2578 H 0.90814 0.31892 0.12175 0.0
H2579 H 0.86005 0.34599 0.12951 0.0
H2580 H 0.85201 0.33063 1.0074 0.0
H2581 H 0.84905 0.32521 0.07239 0.0
H2582 H 0.92394 0.35034 0.0778 0.0
H2583 H 0.9268 0.3554 1.01291 0.0
C2584 C 0.89629 0.32079 0.17452 0.0
C2585 C 0.88246 0.32693 0.19589 0.0
C2586 C 0.89726 0.32385 0.13725 0.0
C2587 C 0.8844 0.33309 0.12022 0.0
C2588 C 0.87008 0.33868 0.14155 0.0
C2589 C 0.86917 0.33568 0.17889 0.0
C2590 C 0.86788 0.33517 0.02249 0.0
C2591 C 0.88964 0.34343 1.00483 0.0
C2592 C 0.8662 0.33211 0.05984 0.0
C2593 C 0.88621 0.33713 0.08051 0.0
C2594 C 0.90805 0.34585 0.06282 0.0
C2595 C 0.90974 0.34897 0.02555 0.0
H2596 H 0.6902 0.59854 0.18817 0.0
H2597 H 0.66501 0.52363 0.19236 0.0
H2598 H 0.68634 0.59638 0.12301 0.0
H2599 H 0.66071 0.52135 0.12732 0.0
H2600 H 0.65247 0.57961 1.01165 0.0
H2601 H 0.65644 0.58129 0.07677 0.0
H2602 H 0.683 0.53267 0.07218 0.0
H2603 H 0.67859 0.53066 1.00713 0.0
C2604 C 0.68386 0.58161 0.1752 0.0
C2605 C 0.67794 0.56127 0.19555 0.0
C2606 C 0.68147 0.58032 0.1378 0.0
C2607 C 0.6731 0.55866 0.11975 0.0
C2608 C 0.66745 0.53838 0.14015 0.0
C2609 C 0.66983 0.53967 0.17754 0.0
C2610 C 0.65904 0.56918 0.02454 0.0
C2611 C 0.66518 0.55498 1.00411 0.0
C2612 C 0.6615 0.57029 0.06192 0.0
C2613 C 0.67016 0.55721 0.07989 0.0
C2614 C 0.67604 0.54279 0.05941 0.0
C2615 C 0.67359 0.5417 0.02203 0.0
H2616 H 0.5804 0.93228 0.0186 0.0
H2617 H 0.52967 0.85764 0.02253 0.0
H2618 H 0.58288 0.92997 0.9536 0.0
H2619 H 0.53247 0.85519 0.95763 0.0
H2620 H 0.60065 0.91294 0.84277 0.0
H2621 H 0.59779 0.91475 0.90786 0.0
H2622 H 0.52258 0.86643 0.90181 0.0
H2623 H 0.52556 0.86428 0.83698 0.0
C2624 C 0.56971 0.91537 1.0056 0.0
C2625 C 0.55478 0.89516 0.02588 0.0
C2626 C 0.5713 0.91399 0.96828 0.0
C2627 C 0.55798 0.89236 0.95015 0.0
C2628 C 0.54281 0.87222 0.97047 0.0
C2629 C 0.54125 0.8736 1.00779 0.0
C2630 C 0.58353 0.90258 0.85536 0.0
C2631 C 0.56336 0.88843 0.83456 0.0
C2632 C 0.58184 0.90377 0.89273 0.0
C2633 C 0.55992 0.89082 0.91031 0.0
C2634 C 0.53981 0.87645 0.88943 0.0
C2635 C 0.5415 0.87529 0.85212 0.0
H2636 H 0.07478 0.65045 0.01902 0.0
H2637 H 0.1497 0.67557 0.02196 0.0
H2638 H 0.07656 0.65441 0.95386 0.0
H2639 H 0.15161 0.68 0.95695 0.0
H2640 H 0.1417 0.66187 0.83705 0.0
H2641 H 0.1401 0.65775 0.90209 0.0
H2642 H 0.09116 0.68392 0.90714 0.0
H2643 H 0.09241 0.68756 0.84195 0.0
C2644 C 0.09164 0.65681 1.00577 0.0
C2645 C 0.11208 0.66264 0.02578 0.0
C2646 C 0.09271 0.65927 0.96838 0.0
C2647 C 0.11425 0.66762 0.94996 0.0
C2648 C 0.13465 0.67325 0.97004 0.0
C2649 C 0.13358 0.6708 1.00742 0.0
C2650 C 0.13068 0.66686 0.85203 0.0
C2651 C 0.11718 0.67505 0.8342 0.0
C2652 C 0.12983 0.66458 0.88942 0.0
C2653 C 0.11545 0.67043 0.91006 0.0
C2654 C 0.10215 0.67889 0.89219 0.0
C2655 C 0.10301 0.68117 0.85477 0.0
H2656 H 0.32569 0.47284 0.02173 0.0
H2657 H 0.34948 0.42206 0.01583 0.0
H2658 H 0.32015 0.47054 0.95688 0.0
H2659 H 0.34432 0.42004 0.95087 0.0
H2660 H 0.33771 0.47916 0.83618 0.0
H2661 H 0.34198 0.4812 0.90122 0.0
H2662 H 0.31379 0.40573 0.90526 0.0
H2663 H 0.30988 0.40377 0.84007 0.0
C2664 C 0.3299 0.4613 1.00658 0.0
C2665 C 0.33805 0.44765 0.02406 0.0
C2666 C 0.3268 0.46004 0.9693 0.0
C2667 C 0.33171 0.44505 0.94847 0.0
C2668 C 0.34 0.4315 0.96601 0.0
C2669 C 0.34316 0.43281 1.00328 0.0
C2670 C 0.33223 0.46296 0.85094 0.0
C2671 C 0.32345 0.4413 0.83282 0.0
C2672 C 0.33462 0.46412 0.88834 0.0
C2673 C 0.32835 0.44366 0.90866 0.0
C2674 C 0.31915 0.42192 0.89052 0.0
C2675 C 0.31671 0.42075 0.85312 0.0
H2676 H 0.07669 0.40907 0.52598 0.0
H2677 H 0.13236 0.48188 0.52476 0.0
H2678 H 0.07988 0.40692 0.46139 0.0
H2679 H 0.13438 0.4807 0.45976 0.0
H2680 H 0.14925 0.46841 0.34616 0.0
H2681 H 0.1466 0.46956 0.41109 0.0
H2682 H 0.07298 0.41489 0.40569 0.0
H2683 H 0.07659 0.41256 0.34124 0.0
C2684 C 0.08928 0.42481 0.51166 0.0
C2685 C 0.10428 0.44563 0.5304 0.0
C2686 C 0.09107 0.42369 0.47436 0.0
C2687 C 0.10745 0.44362 0.45453 0.0
C2688 C 0.12197 0.46468 0.47358 0.0
C2689 C 0.12066 0.46553 0.511 0.0
C2690 C 0.1326 0.45653 0.35908 0.0
C2691 C 0.11319 0.4403 0.33868 0.0
C2692 C 0.1309 0.45733 0.39646 0.0
C2693 C 0.10947 0.44242 0.41444 0.0
C2694 C 0.09 0.42633 0.39357 0.0
C2695 C 0.09196 0.42505 0.35635 0.0
H2696 H 0.59364 0.68367 0.34718 0.0
H2697 H 0.519 0.65955 0.34125 0.0
H2698 H 0.59055 0.67844 0.41208 0.0
H2699 H 0.51579 0.65392 0.40613 0.0
H2700 H 0.52471 0.67019 0.52765 0.0
H2701 H 0.52667 0.67498 0.4626 0.0
H2702 H 0.57458 0.6476 0.45684 0.0
H2703 H 0.57291 0.6432 0.52185 0.0
C2704 C 0.57656 0.67728 0.35971 0.0
C2705 C 0.55659 0.67206 0.33891 0.0
C2706 C 0.57473 0.67408 0.39698 0.0
C2707 C 0.55288 0.66559 0.41453 0.0
C2708 C 0.53296 0.66069 0.39371 0.0
C2709 C 0.53478 0.66384 0.35642 0.0
C2710 C 0.5355 0.665 0.51248 0.0
C2711 C 0.54867 0.65633 0.53008 0.0
C2712 C 0.53659 0.6677 0.47509 0.0
C2713 C 0.55093 0.66186 0.45429 0.0
C2714 C 0.56368 0.6527 0.47192 0.0
C2715 C 0.56255 0.64996 0.50926 0.0
H2716 H 0.31995 0.91246 0.34552 0.0
H2717 H 0.34652 0.86391 0.3394 0.0
H2718 H 0.32452 0.91406 0.41062 0.0
H2719 H 0.35148 0.86581 0.4043 0.0
H2720 H 0.33411 0.85623 0.52494 0.0
H2721 H 0.32959 0.85418 0.45988 0.0
H2722 H 0.35489 0.92915 0.45639 0.0
H2723 H 0.35902 0.9311 0.52149 0.0
C2724 C 0.32674 0.9021 0.35805 0.0
C2725 C 0.33283 0.88804 0.33716 0.0
C2726 C 0.32955 0.90316 0.3954 0.0
C2727 C 0.33848 0.89014 0.41288 0.0
C2728 C 0.34431 0.87588 0.39194 0.0
C2729 C 0.34155 0.87487 0.35461 0.0
C2730 C 0.33888 0.87232 0.51028 0.0
C2731 C 0.34694 0.89383 0.52852 0.0
C2732 C 0.33634 0.87116 0.47289 0.0
C2733 C 0.34175 0.89147 0.45271 0.0
C2734 C 0.35017 0.91306 0.47099 0.0
C2735 C 0.35275 0.91422 0.50836 0.0
loop_
_geom_bond_atom_site_label_1
_geom_bond_atom_site_label_2
_geom_bond_distance
_geom_bond_site_symmetry_2
_ccdc_geom_bond_type
Mn0 O5 2.095 . S
Mn0 O15 2.162 . S
Mn0 O16 2.297 . S
Mn0 O24 2.385 . S
Mn0 O25 2.209 . S
Mn0 O26 2.094 . S
Mn1 O6 2.105 1_556 S
Mn1 N8 2.257 . S
Mn1 N17 2.282 . S
Mn1 O25 2.215 1_556 S
Mn1 O27 2.117 . S
C2 O24 1.234 . S
C2 O25 1.283 . S
C3 O15 1.281 . S
C3 O16 1.236 . S
C4 O26 1.240 1_556 S
C4 O27 1.264 . S
O5 Mn0 2.095 . S
O5 C14 1.250 . S
O6 Mn1 2.105 1_554 S
O6 C14 1.284 . S
C7 N8 1.326 . S
C7 C11 1.460 . S
C7 H13 0.929 . S
N8 Mn1 2.257 . S
N8 C7 1.326 . S
N8 C12 1.362 . S
C9 C10 1.258 . S
C9 C12 1.431 . S
C9 C29 1.449 . S
C10 C9 1.258 . S
C10 C11 1.477 . S
C10 H30 0.931 . S
C11 C7 1.460 . S
C11 C10 1.477 . S
C11 H31 0.930 . S
C12 N8 1.362 . S
C12 C9 1.431 . S
C12 C22 1.476 . S
H13 C7 0.929 . S
C14 O5 1.250 . S
C14 O6 1.284 . S
O15 Mn0 2.162 . S
O15 C3 1.281 . S
O16 Mn0 2.297 . S
O16 C3 1.236 . S
N17 Mn1 2.282 . S
N17 C18 1.328 . S
N17 C22 1.318 . S
C18 N17 1.328 . S
C18 C19 1.457 . S
C18 H23 0.929 . S
C19 C18 1.457 . S
C19 C20 1.291 . S
C19 H32 0.931 . S
C20 C19 1.291 . S
C20 C21 1.373 . S
C20 H33 0.929 . S
C21 C20 1.373 . S
C21 C22 1.396 . S
C21 C28 1.403 . S
C22 C12 1.476 . S
C22 N17 1.318 . S
C22 C21 1.396 . S
H23 C18 0.929 . S
O24 Mn0 2.385 . S
O24 C2 1.234 . S
O25 Mn0 2.209 . S
O25 Mn1 2.215 1_554 S
O25 C2 1.283 . S
O26 Mn0 2.094 . S
O26 C4 1.240 1_554 S
O27 Mn1 2.117 . S
O27 C4 1.264 . S
C28 C21 1.403 . S
C28 C29 1.399 . S
C28 H34 0.929 . S
C29 C9 1.449 . S
C29 C28 1.399 . S
C29 H35 0.930 . S
H30 C10 0.931 . S
H31 C11 0.930 . S
H32 C19 0.931 . S
H33 C20 0.929 . S
H34 C28 0.929 . S
H35 C29 0.930 . S
Mn36 O41 2.095 . S
Mn36 O51 2.162 . S
Mn36 O52 2.297 . S
Mn36 O60 2.385 1_545 S
Mn36 O61 2.240 . S
Mn36 O62 2.094 . S
Mn37 O42 2.105 1_556 S
Mn37 N44 2.257 . S
Mn37 N53 2.282 1_545 S
Mn37 O61 2.233 1_556 S
Mn37 O63 2.117 . S
C38 O60 1.234 . S
C38 O61 1.260 1_565 S
C39 O51 1.281 . S
C39 O52 1.236 . S
C40 O62 1.240 1_556 S
C40 O63 1.264 . S
O41 Mn36 2.095 . S
O41 C50 1.250 . S
O42 Mn37 2.105 1_554 S
O42 C50 1.284 . S
C43 N44 1.326 . S
C43 C47 1.460 . S
C43 H49 0.929 . S
N44 Mn37 2.257 . S
N44 C43 1.326 . S
N44 C48 1.362 1_545 S
C45 C46 1.258 . S
C45 C48 1.431 . S
C45 C65 1.449 . S
C46 C45 1.258 . S
C46 C47 1.477 1_565 S
C46 H66 0.931 . S
C47 C43 1.460 . S
C47 C46 1.477 1_545 S
C47 H67 0.930 . S
C48 N44 1.362 1_565 S
C48 C45 1.431 . S
C48 C58 1.476 . S
H49 C43 0.929 . S
C50 O41 1.250 . S
C50 O42 1.284 . S
O51 Mn36 2.162 . S
O51 C39 1.281 . S
O52 Mn36 2.297 . S
O52 C39 1.236 . S
N53 Mn37 2.282 1_565 S
N53 C54 1.328 . S
N53 C58 1.318 . S
C54 N53 1.328 . S
C54 C55 1.457 . S
C54 H59 0.929 . S
C55 C54 1.457 . S
C55 C56 1.291 . S
C55 H68 0.931 . S
C56 C55 1.291 . S
C56 C57 1.373 . S
C56 H69 0.929 . S
C57 C56 1.373 . S
C57 C58 1.396 . S
C57 C64 1.403 . S
C58 C48 1.476 . S
C58 N53 1.318 . S
C58 C57 1.396 . S
H59 C54 0.929 . S
O60 Mn36 2.385 1_565 S
O60 C38 1.234 . S
O61 Mn36 2.240 . S
O61 Mn37 2.233 1_554 S
O61 C38 1.260 1_545 S
O62 Mn36 2.094 . S
O62 C40 1.240 1_554 S
O63 Mn37 2.117 . S
O63 C40 1.264 . S
C64 C57 1.403 . S
C64 C65 1.399 . S
C64 H70 0.929 . S
C65 C45 1.449 . S
C65 C64 1.399 . S
C65 H71 0.930 . S
H66 C46 0.931 . S
H67 C47 0.930 . S
H68 C55 0.931 . S
H69 C56 0.929 . S
H70 C64 0.929 . S
H71 C65 0.930 . S
Mn72 O77 2.095 . S
Mn72 O87 2.162 . S
Mn72 O88 2.297 . S
Mn72 O96 2.385 1_655 S
Mn72 O97 2.213 . S
Mn72 O98 2.094 . S
Mn73 O78 2.105 1_556 S
Mn73 N80 2.257 . S
Mn73 N89 2.282 1_655 S
Mn73 O97 2.233 1_556 S
Mn73 O99 2.117 . S
C74 O96 1.234 . S
C74 O97 1.244 1_455 S
C75 O87 1.281 . S
C75 O88 1.236 . S
C76 O98 1.240 1_556 S
C76 O99 1.264 . S
O77 Mn72 2.095 . S
O77 C86 1.250 . S
O78 Mn73 2.105 1_554 S
O78 C86 1.284 . S
C79 N80 1.326 . S
C79 C83 1.460 . S
C79 H85 0.929 . S
N80 Mn73 2.257 . S
N80 C79 1.326 . S
N80 C84 1.362 1_655 S
C81 C82 1.258 . S
C81 C84 1.431 . S
C81 C101 1.449 . S
C82 C81 1.258 . S
C82 C83 1.477 1_455 S
C82 H102 0.931 . S
C83 C79 1.460 . S
C83 C82 1.477 1_655 S
C83 H103 0.930 . S
C84 N80 1.362 1_455 S
C84 C81 1.431 . S
C84 C94 1.476 . S
H85 C79 0.929 . S
C86 O77 1.250 . S
C86 O78 1.284 . S
O87 Mn72 2.162 . S
O87 C75 1.281 . S
O88 Mn72 2.297 . S
O88 C75 1.236 . S
N89 Mn73 2.282 1_455 S
N89 C90 1.328 . S
N89 C94 1.318 . S
C90 N89 1.328 . S
C90 C91 1.457 . S
C90 H95 0.929 . S
C91 C90 1.457 . S
C91 C92 1.291 . S
C91 H104 0.931 . S
C92 C91 1.291 . S
C92 C93 1.373 . S
C92 H105 0.929 . S
C93 C92 1.373 . S
C93 C94 1.396 . S
C93 C100 1.403 . S
C94 C84 1.476 . S
C94 N89 1.318 . S
C94 C93 1.396 . S
H95 C90 0.929 . S
O96 Mn72 2.385 1_455 S
O96 C74 1.234 . S
O97 Mn72 2.213 . S
O97 Mn73 2.233 1_554 S
O97 C74 1.244 1_655 S
O98 Mn72 2.094 . S
O98 C76 1.240 1_554 S
O99 Mn73 2.117 . S
O99 C76 1.264 . S
C100 C93 1.403 . S
C100 C101 1.399 . S
C100 H106 0.929 . S
C101 C81 1.449 . S
C101 C100 1.399 . S
C101 H107 0.930 . S
H102 C82 0.931 . S
H103 C83 0.930 . S
H104 C91 0.931 . S
H105 C92 0.929 . S
H106 C100 0.929 . S
H107 C101 0.930 . S
Mn108 O113 2.095 . S
Mn108 O123 2.162 . S
Mn108 O124 2.297 . S
Mn108 O132 2.385 . S
Mn108 O133 2.209 . S
Mn108 O134 2.094 . S
Mn109 O114 2.121 . S
Mn109 N116 2.257 . S
Mn109 N125 2.282 . S
Mn109 O133 2.215 . S
Mn109 O135 2.117 . S
C110 O132 1.234 . S
C110 O133 1.283 . S
C111 O123 1.281 . S
C111 O124 1.236 . S
C112 O134 1.240 . S
C112 O135 1.264 . S
O113 Mn108 2.095 . S
O113 C122 1.250 . S
O114 Mn109 2.121 . S
O114 C122 1.258 . S
C115 N116 1.326 . S
C115 C119 1.460 . S
C115 H121 0.929 . S
N116 Mn109 2.257 . S
N116 C115 1.326 . S
N116 C120 1.362 . S
C117 C118 1.258 . S
C117 C120 1.431 . S
C117 C137 1.449 . S
C118 C117 1.258 . S
C118 C119 1.477 . S
C118 H138 0.931 . S
C119 C115 1.460 . S
C119 C118 1.477 . S
C119 H139 0.930 . S
C120 N116 1.362 . S
C120 C117 1.431 . S
C120 C130 1.476 . S
H121 C115 0.929 . S
C122 O113 1.250 . S
C122 O114 1.258 . S
O123 Mn108 2.162 . S
O123 C111 1.281 . S
O124 Mn108 2.297 . S
O124 C111 1.236 . S
N125 Mn109 2.282 . S
N125 C126 1.328 . S
N125 C130 1.318 . S
C126 N125 1.328 . S
C126 C127 1.457 . S
C126 H131 0.929 . S
C127 C126 1.457 . S
C127 C128 1.291 . S
C127 H140 0.931 . S
C128 C127 1.291 . S
C128 C129 1.373 . S
C128 H141 0.929 . S
C129 C128 1.373 . S
C129 C130 1.396 . S
C129 C136 1.403 . S
C130 C120 1.476 . S
C130 N125 1.318 . S
C130 C129 1.396 . S
H131 C126 0.929 . S
O132 Mn108 2.385 . S
O132 C110 1.234 . S
O133 Mn108 2.209 . S
O133 Mn109 2.215 . S
O133 C110 1.283 . S
O134 Mn108 2.094 . S
O134 C112 1.240 . S
O135 Mn109 2.117 . S
O135 C112 1.264 . S
C136 C129 1.403 . S
C136 C137 1.399 . S
C136 H142 0.929 . S
C137 C117 1.449 . S
C137 C136 1.399 . S
C137 H143 0.930 . S
H138 C118 0.931 . S
H139 C119 0.930 . S
H140 C127 0.931 . S
H141 C128 0.929 . S
H142 C136 0.929 . S
H143 C137 0.930 . S
Mn144 O149 2.095 . S
Mn144 O159 2.162 . S
Mn144 O160 2.297 . S
Mn144 O168 2.385 1_565 S
Mn144 O169 2.213 . S
Mn144 O170 2.094 . S
Mn145 O150 2.121 . S
Mn145 N152 2.257 . S
Mn145 N161 2.282 1_565 S
Mn145 O169 2.233 . S
Mn145 O171 2.117 . S
C146 O168 1.234 . S
C146 O169 1.244 1_545 S
C147 O159 1.281 . S
C147 O160 1.236 . S
C148 O170 1.240 . S
C148 O171 1.264 . S
O149 Mn144 2.095 . S
O149 C158 1.250 . S
O150 Mn145 2.121 . S
O150 C158 1.258 . S
C151 N152 1.326 . S
C151 C155 1.460 . S
C151 H157 0.929 . S
N152 Mn145 2.257 . S
N152 C151 1.326 . S
N152 C156 1.362 1_565 S
C153 C154 1.258 . S
C153 C156 1.431 . S
C153 C173 1.449 . S
C154 C153 1.258 . S
C154 C155 1.477 1_545 S
C154 H174 0.931 . S
C155 C151 1.460 . S
C155 C154 1.477 1_565 S
C155 H175 0.930 . S
C156 N152 1.362 1_545 S
C156 C153 1.431 . S
C156 C166 1.476 . S
H157 C151 0.929 . S
C158 O149 1.250 . S
C158 O150 1.258 . S
O159 Mn144 2.162 . S
O159 C147 1.281 . S
O160 Mn144 2.297 . S
O160 C147 1.236 . S
N161 Mn145 2.282 1_545 S
N161 C162 1.328 . S
N161 C166 1.318 . S
C162 N161 1.328 . S
C162 C163 1.457 . S
C162 H167 0.929 . S
C163 C162 1.457 . S
C163 C164 1.291 . S
C163 H176 0.931 . S
C164 C163 1.291 . S
C164 C165 1.373 . S
C164 H177 0.929 . S
C165 C164 1.373 . S
C165 C166 1.396 . S
C165 C172 1.403 . S
C166 C156 1.476 . S
C166 N161 1.318 . S
C166 C165 1.396 . S
H167 C162 0.929 . S
O168 Mn144 2.385 1_545 S
O168 C146 1.234 . S
O169 Mn144 2.213 . S
O169 Mn145 2.233 . S
O169 C146 1.244 1_565 S
O170 Mn144 2.094 . S
O170 C148 1.240 . S
O171 Mn145 2.117 . S
O171 C148 1.264 . S
C172 C165 1.403 . S
C172 C173 1.399 . S
C172 H178 0.929 . S
C173 C153 1.449 . S
C173 C172 1.399 . S
C173 H179 0.930 . S
H174 C154 0.931 . S
H175 C155 0.930 . S
H176 C163 0.931 . S
H177 C164 0.929 . S
H178 C172 0.929 . S
H179 C173 0.930 . S
Mn180 O185 2.095 . S
Mn180 O195 2.162 . S
Mn180 O196 2.297 . S
Mn180 O204 2.385 1_455 S
Mn180 O205 2.240 . S
Mn180 O206 2.094 . S
Mn181 O186 2.121 . S
Mn181 N188 2.257 . S
Mn181 N197 2.282 1_455 S
Mn181 O205 2.233 . S
Mn181 O207 2.117 . S
C182 O204 1.234 . S
C182 O205 1.260 1_655 S
C183 O195 1.281 . S
C183 O196 1.236 . S
C184 O206 1.240 . S
C184 O207 1.264 . S
O185 Mn180 2.095 . S
O185 C194 1.250 . S
O186 Mn181 2.121 . S
O186 C194 1.258 . S
C187 N188 1.326 . S
C187 C191 1.460 . S
C187 H193 0.929 . S
N188 Mn181 2.257 . S
N188 C187 1.326 . S
N188 C192 1.362 1_455 S
C189 C190 1.258 . S
C189 C192 1.431 . S
C189 C209 1.449 . S
C190 C189 1.258 . S
C190 C191 1.477 1_655 S
C190 H210 0.931 . S
C191 C187 1.460 . S
C191 C190 1.477 1_455 S
C191 H211 0.930 . S
C192 N188 1.362 1_655 S
C192 C189 1.431 . S
C192 C202 1.476 . S
H193 C187 0.929 . S
C194 O185 1.250 . S
C194 O186 1.258 . S
O195 Mn180 2.162 . S
O195 C183 1.281 . S
O196 Mn180 2.297 . S
O196 C183 1.236 . S
N197 Mn181 2.282 1_655 S
N197 C198 1.328 . S
N197 C202 1.318 . S
C198 N197 1.328 . S
C198 C199 1.457 . S
C198 H203 0.929 . S
C199 C198 1.457 . S
C199 C200 1.291 . S
C199 H212 0.931 . S
C200 C199 1.291 . S
C200 C201 1.373 . S
C200 H213 0.929 . S
C201 C200 1.373 . S
C201 C202 1.396 . S
C201 C208 1.403 . S
C202 C192 1.476 . S
C202 N197 1.318 . S
C202 C201 1.396 . S
H203 C198 0.929 . S
O204 Mn180 2.385 1_655 S
O204 C182 1.234 . S
O205 Mn180 2.240 . S
O205 Mn181 2.233 . S
O205 C182 1.260 1_455 S
O206 Mn180 2.094 . S
O206 C184 1.240 . S
O207 Mn181 2.117 . S
O207 C184 1.264 . S
C208 C201 1.403 . S
C208 C209 1.399 . S
C208 H214 0.929 . S
C209 C189 1.449 . S
C209 C208 1.399 . S
C209 H215 0.930 . S
H210 C190 0.931 . S
H211 C191 0.930 . S
H212 C199 0.931 . S
H213 C200 0.929 . S
H214 C208 0.929 . S
H215 C209 0.930 . S
Mn216 O221 2.095 . S
Mn216 O231 2.162 . S
Mn216 O232 2.297 . S
Mn216 O240 2.385 . S
Mn216 O241 2.209 . S
Mn216 O242 2.094 . S
Mn217 O222 2.105 1_554 S
Mn217 N224 2.257 . S
Mn217 N233 2.282 . S
Mn217 O241 2.215 1_554 S
Mn217 O243 2.117 . S
C218 O240 1.234 . S
C218 O241 1.283 . S
C219 O231 1.281 . S
C219 O232 1.236 . S
C220 O242 1.240 1_554 S
C220 O243 1.264 . S
O221 Mn216 2.095 . S
O221 C230 1.250 . S
O222 Mn217 2.105 1_556 S
O222 C230 1.284 . S
C223 N224 1.326 . S
C223 C227 1.460 . S
C223 H229 0.929 . S
N224 Mn217 2.257 . S
N224 C223 1.326 . S
N224 C228 1.362 . S
C225 C226 1.258 . S
C225 C228 1.431 . S
C225 C245 1.449 . S
C226 C225 1.258 . S
C226 C227 1.477 . S
C226 H246 0.931 . S
C227 C223 1.460 . S
C227 C226 1.477 . S
C227 H247 0.930 . S
C228 N224 1.362 . S
C228 C225 1.431 . S
C228 C238 1.476 . S
H229 C223 0.929 . S
C230 O221 1.250 . S
C230 O222 1.284 . S
O231 Mn216 2.162 . S
O231 C219 1.281 . S
O232 Mn216 2.297 . S
O232 C219 1.236 . S
N233 Mn217 2.282 . S
N233 C234 1.328 . S
N233 C238 1.318 . S
C234 N233 1.328 . S
C234 C235 1.457 . S
C234 H239 0.929 . S
C235 C234 1.457 . S
C235 C236 1.291 . S
C235 H248 0.931 . S
C236 C235 1.291 . S
C236 C237 1.373 . S
C236 H249 0.929 . S
C237 C236 1.373 . S
C237 C238 1.396 . S
C237 C244 1.403 . S
C238 C228 1.476 . S
C238 N233 1.318 . S
C238 C237 1.396 . S
H239 C234 0.929 . S
O240 Mn216 2.385 . S
O240 C218 1.234 . S
O241 Mn216 2.209 . S
O241 Mn217 2.215 1_556 S
O241 C218 1.283 . S
O242 Mn216 2.094 . S
O242 C220 1.240 1_556 S
O243 Mn217 2.117 . S
O243 C220 1.264 . S
C244 C237 1.403 . S
C244 C245 1.399 . S
C244 H250 0.929 . S
C245 C225 1.449 . S
C245 C244 1.399 . S
C245 H251 0.930 . S
H246 C226 0.931 . S
H247 C227 0.930 . S
H248 C235 0.931 . S
H249 C236 0.929 . S
H250 C244 0.929 . S
H251 C245 0.930 . S
Mn252 O257 2.095 . S
Mn252 O267 2.162 . S
Mn252 O268 2.297 . S
Mn252 O276 2.385 1_565 S
Mn252 O277 2.240 . S
Mn252 O278 2.094 . S
Mn253 O258 2.105 1_554 S
Mn253 N260 2.257 . S
Mn253 N269 2.282 1_565 S
Mn253 O277 2.233 1_554 S
Mn253 O279 2.117 . S
C254 O276 1.234 . S
C254 O277 1.260 1_545 S
C255 O267 1.281 . S
C255 O268 1.236 . S
C256 O278 1.240 1_554 S
C256 O279 1.264 . S
O257 Mn252 2.095 . S
O257 C266 1.250 . S
O258 Mn253 2.105 1_556 S
O258 C266 1.284 . S
C259 N260 1.326 . S
C259 C263 1.460 . S
C259 H265 0.929 . S
N260 Mn253 2.257 . S
N260 C259 1.326 . S
N260 C264 1.362 1_565 S
C261 C262 1.258 . S
C261 C264 1.431 . S
C261 C281 1.449 . S
C262 C261 1.258 . S
C262 C263 1.477 1_545 S
C262 H282 0.931 . S
C263 C259 1.460 . S
C263 C262 1.477 1_565 S
C263 H283 0.930 . S
C264 N260 1.362 1_545 S
C264 C261 1.431 . S
C264 C274 1.476 . S
H265 C259 0.929 . S
C266 O257 1.250 . S
C266 O258 1.284 . S
O267 Mn252 2.162 . S
O267 C255 1.281 . S
O268 Mn252 2.297 . S
O268 C255 1.236 . S
N269 Mn253 2.282 1_545 S
N269 C270 1.328 . S
N269 C274 1.318 . S
C270 N269 1.328 . S
C270 C271 1.457 . S
C270 H275 0.929 . S
C271 C270 1.457 . S
C271 C272 1.291 . S
C271 H284 0.931 . S
C272 C271 1.291 . S
C272 C273 1.373 . S
C272 H285 0.929 . S
C273 C272 1.373 . S
C273 C274 1.396 . S
C273 C280 1.403 . S
C274 C264 1.476 . S
C274 N269 1.318 . S
C274 C273 1.396 . S
H275 C270 0.929 . S
O276 Mn252 2.385 1_545 S
O276 C254 1.234 . S
O277 Mn252 2.240 . S
O277 Mn253 2.233 1_556 S
O277 C254 1.260 1_565 S
O278 Mn252 2.094 . S
O278 C256 1.240 1_556 S
O279 Mn253 2.117 . S
O279 C256 1.264 . S
C280 C273 1.403 . S
C280 C281 1.399 . S
C280 H286 0.929 . S
C281 C261 1.449 . S
C281 C280 1.399 . S
C281 H287 0.930 . S
H282 C262 0.931 . S
H283 C263 0.930 . S
H284 C271 0.931 . S
H285 C272 0.929 . S
H286 C280 0.929 . S
H287 C281 0.930 . S
Mn288 O293 2.095 . S
Mn288 O303 2.162 . S
Mn288 O304 2.297 . S
Mn288 O312 2.385 1_455 S
Mn288 O313 2.213 . S
Mn288 O314 2.094 . S
Mn289 O294 2.105 1_554 S
Mn289 N296 2.257 . S
Mn289 N305 2.282 1_455 S
Mn289 O313 2.233 1_554 S
Mn289 O315 2.117 . S
C290 O312 1.234 . S
C290 O313 1.244 1_655 S
C291 O303 1.281 . S
C291 O304 1.236 . S
C292 O314 1.240 1_554 S
C292 O315 1.264 . S
O293 Mn288 2.095 . S
O293 C302 1.250 . S
O294 Mn289 2.105 1_556 S
O294 C302 1.284 . S
C295 N296 1.326 . S
C295 C299 1.460 . S
C295 H301 0.929 . S
N296 Mn289 2.257 . S
N296 C295 1.326 . S
N296 C300 1.362 1_455 S
C297 C298 1.258 . S
C297 C300 1.431 . S
C297 C317 1.449 . S
C298 C297 1.258 . S
C298 C299 1.477 1_655 S
C298 H318 0.931 . S
C299 C295 1.460 . S
C299 C298 1.477 1_455 S
C299 H319 0.930 . S
C300 N296 1.362 1_655 S
C300 C297 1.431 . S
C300 C310 1.476 . S
H301 C295 0.929 . S
C302 O293 1.250 . S
C302 O294 1.284 . S
O303 Mn288 2.162 . S
O303 C291 1.281 . S
O304 Mn288 2.297 . S
O304 C291 1.236 . S
N305 Mn289 2.282 1_655 S
N305 C306 1.328 . S
N305 C310 1.318 . S
C306 N305 1.328 . S
C306 C307 1.457 . S
C306 H311 0.929 . S
C307 C306 1.457 . S
C307 C308 1.291 . S
C307 H320 0.931 . S
C308 C307 1.291 . S
C308 C309 1.373 . S
C308 H321 0.929 . S
C309 C308 1.373 . S
C309 C310 1.396 . S
C309 C316 1.403 . S
C310 C300 1.476 . S
C310 N305 1.318 . S
C310 C309 1.396 . S
H311 C306 0.929 . S
O312 Mn288 2.385 1_655 S
O312 C290 1.234 . S
O313 Mn288 2.213 . S
O313 Mn289 2.233 1_556 S
O313 C290 1.244 1_455 S
O314 Mn288 2.094 . S
O314 C292 1.240 1_556 S
O315 Mn289 2.117 . S
O315 C292 1.264 . S
C316 C309 1.403 . S
C316 C317 1.399 . S
C316 H322 0.929 . S
C317 C297 1.449 . S
C317 C316 1.399 . S
C317 H323 0.930 . S
H318 C298 0.931 . S
H319 C299 0.930 . S
H320 C307 0.931 . S
H321 C308 0.929 . S
H322 C316 0.929 . S
H323 C317 0.930 . S
Mn324 O329 2.095 . S
Mn324 O339 2.162 . S
Mn324 O340 2.297 . S
Mn324 O348 2.385 . S
Mn324 O349 2.209 . S
Mn324 O350 2.094 . S
Mn325 O330 2.121 . S
Mn325 N332 2.257 . S
Mn325 N341 2.282 . S
Mn325 O349 2.215 . S
Mn325 O351 2.117 . S
C326 O348 1.234 . S
C326 O349 1.283 . S
C327 O339 1.281 . S
C327 O340 1.236 . S
C328 O350 1.240 . S
C328 O351 1.264 . S
O329 Mn324 2.095 . S
O329 C338 1.250 . S
O330 Mn325 2.121 . S
O330 C338 1.258 . S
C331 N332 1.326 . S
C331 C335 1.460 . S
C331 H337 0.929 . S
N332 Mn325 2.257 . S
N332 C331 1.326 . S
N332 C336 1.362 . S
C333 C334 1.258 . S
C333 C336 1.431 . S
C333 C353 1.449 . S
C334 C333 1.258 . S
C334 C335 1.477 . S
C334 H354 0.931 . S
C335 C331 1.460 . S
C335 C334 1.477 . S
C335 H355 0.930 . S
C336 N332 1.362 . S
C336 C333 1.431 . S
C336 C346 1.476 . S
H337 C331 0.929 . S
C338 O329 1.250 . S
C338 O330 1.258 . S
O339 Mn324 2.162 . S
O339 C327 1.281 . S
O340 Mn324 2.297 . S
O340 C327 1.236 . S
N341 Mn325 2.282 . S
N341 C342 1.328 . S
N341 C346 1.318 . S
C342 N341 1.328 . S
C342 C343 1.457 . S
C342 H347 0.929 . S
C343 C342 1.457 . S
C343 C344 1.291 . S
C343 H356 0.931 . S
C344 C343 1.291 . S
C344 C345 1.373 . S
C344 H357 0.929 . S
C345 C344 1.373 . S
C345 C346 1.396 . S
C345 C352 1.403 . S
C346 C336 1.476 . S
C346 N341 1.318 . S
C346 C345 1.396 . S
H347 C342 0.929 . S
O348 Mn324 2.385 . S
O348 C326 1.234 . S
O349 Mn324 2.209 . S
O349 Mn325 2.215 . S
O349 C326 1.283 . S
O350 Mn324 2.094 . S
O350 C328 1.240 . S
O351 Mn325 2.117 . S
O351 C328 1.264 . S
C352 C345 1.403 . S
C352 C353 1.399 . S
C352 H358 0.929 . S
C353 C333 1.449 . S
C353 C352 1.399 . S
C353 H359 0.930 . S
H354 C334 0.931 . S
H355 C335 0.930 . S
H356 C343 0.931 . S
H357 C344 0.929 . S
H358 C352 0.929 . S
H359 C353 0.930 . S
Mn360 O365 2.095 . S
Mn360 O375 2.162 . S
Mn360 O376 2.297 . S
Mn360 O384 2.385 1_545 S
Mn360 O385 2.213 . S
Mn360 O386 2.094 . S
Mn361 O366 2.121 . S
Mn361 N368 2.257 . S
Mn361 N377 2.282 1_545 S
Mn361 O385 2.233 . S
Mn361 O387 2.117 . S
C362 O384 1.234 . S
C362 O385 1.244 1_565 S
C363 O375 1.281 . S
C363 O376 1.236 . S
C364 O386 1.240 . S
C364 O387 1.264 . S
O365 Mn360 2.095 . S
O365 C374 1.250 . S
O366 Mn361 2.121 . S
O366 C374 1.258 . S
C367 N368 1.326 . S
C367 C371 1.460 . S
C367 H373 0.929 . S
N368 Mn361 2.257 . S
N368 C367 1.326 . S
N368 C372 1.362 1_545 S
C369 C370 1.258 . S
C369 C372 1.431 . S
C369 C389 1.449 . S
C370 C369 1.258 . S
C370 C371 1.477 1_565 S
C370 H390 0.931 . S
C371 C367 1.460 . S
C371 C370 1.477 1_545 S
C371 H391 0.930 . S
C372 N368 1.362 1_565 S
C372 C369 1.431 . S
C372 C382 1.476 . S
H373 C367 0.929 . S
C374 O365 1.250 . S
C374 O366 1.258 . S
O375 Mn360 2.162 . S
O375 C363 1.281 . S
O376 Mn360 2.297 . S
O376 C363 1.236 . S
N377 Mn361 2.282 1_565 S
N377 C378 1.328 . S
N377 C382 1.318 . S
C378 N377 1.328 . S
C378 C379 1.457 . S
C378 H383 0.929 . S
C379 C378 1.457 . S
C379 C380 1.291 . S
C379 H392 0.931 . S
C380 C379 1.291 . S
C380 C381 1.373 . S
C380 H393 0.929 . S
C381 C380 1.373 . S
C381 C382 1.396 . S
C381 C388 1.403 . S
C382 C372 1.476 . S
C382 N377 1.318 . S
C382 C381 1.396 . S
H383 C378 0.929 . S
O384 Mn360 2.385 1_565 S
O384 C362 1.234 . S
O385 Mn360 2.213 . S
O385 Mn361 2.233 . S
O385 C362 1.244 1_545 S
O386 Mn360 2.094 . S
O386 C364 1.240 . S
O387 Mn361 2.117 . S
O387 C364 1.264 . S
C388 C381 1.403 . S
C388 C389 1.399 . S
C388 H394 0.929 . S
C389 C369 1.449 . S
C389 C388 1.399 . S
C389 H395 0.930 . S
H390 C370 0.931 . S
H391 C371 0.930 . S
H392 C379 0.931 . S
H393 C380 0.929 . S
H394 C388 0.929 . S
H395 C389 0.930 . S
Mn396 O401 2.095 . S
Mn396 O411 2.162 . S
Mn396 O412 2.297 . S
Mn396 O420 2.385 1_655 S
Mn396 O421 2.240 . S
Mn396 O422 2.094 . S
Mn397 O402 2.121 . S
Mn397 N404 2.257 . S
Mn397 N413 2.282 1_655 S
Mn397 O421 2.233 . S
Mn397 O423 2.117 . S
C398 O420 1.234 . S
C398 O421 1.260 1_455 S
C399 O411 1.281 . S
C399 O412 1.236 . S
C400 O422 1.240 . S
C400 O423 1.264 . S
O401 Mn396 2.095 . S
O401 C410 1.250 . S
O402 Mn397 2.121 . S
O402 C410 1.258 . S
C403 N404 1.326 . S
C403 C407 1.460 . S
C403 H409 0.929 . S
N404 Mn397 2.257 . S
N404 C403 1.326 . S
N404 C408 1.362 1_655 S
C405 C406 1.258 . S
C405 C408 1.431 . S
C405 C425 1.449 . S
C406 C405 1.258 . S
C406 C407 1.477 1_455 S
C406 H426 0.931 . S
C407 C403 1.460 . S
C407 C406 1.477 1_655 S
C407 H427 0.930 . S
C408 N404 1.362 1_455 S
C408 C405 1.431 . S
C408 C418 1.476 . S
H409 C403 0.929 . S
C410 O401 1.250 . S
C410 O402 1.258 . S
O411 Mn396 2.162 . S
O411 C399 1.281 . S
O412 Mn396 2.297 . S
O412 C399 1.236 . S
N413 Mn397 2.282 1_455 S
N413 C414 1.328 . S
N413 C418 1.318 . S
C414 N413 1.328 . S
C414 C415 1.457 . S
C414 H419 0.929 . S
C415 C414 1.457 . S
C415 C416 1.291 . S
C415 H428 0.931 . S
C416 C415 1.291 . S
C416 C417 1.373 . S
C416 H429 0.929 . S
C417 C416 1.373 . S
C417 C418 1.396 . S
C417 C424 1.403 . S
C418 C408 1.476 . S
C418 N413 1.318 . S
C418 C417 1.396 . S
H419 C414 0.929 . S
O420 Mn396 2.385 1_455 S
O420 C398 1.234 . S
O421 Mn396 2.240 . S
O421 Mn397 2.233 . S
O421 C398 1.260 1_655 S
O422 Mn396 2.094 . S
O422 C400 1.240 . S
O423 Mn397 2.117 . S
O423 C400 1.264 . S
C424 C417 1.403 . S
C424 C425 1.399 . S
C424 H430 0.929 . S
C425 C405 1.449 . S
C425 C424 1.399 . S
C425 H431 0.930 . S
H426 C406 0.931 . S
H427 C407 0.930 . S
H428 C415 0.931 . S
H429 C416 0.929 . S
H430 C424 0.929 . S
H431 C425 0.930 . S
Mn432 O437 2.095 . S
Mn432 O447 2.162 . S
Mn432 O448 2.297 . S
Mn432 O456 2.385 . S
Mn432 O457 2.209 . S
Mn432 O458 2.094 . S
Mn433 O438 2.121 . S
Mn433 N440 2.257 . S
Mn433 N449 2.282 . S
Mn433 O457 2.215 . S
Mn433 O459 2.117 . S
C434 O456 1.234 . S
C434 O457 1.283 . S
C435 O447 1.281 . S
C435 O448 1.236 . S
C436 O458 1.240 . S
C436 O459 1.264 . S
O437 Mn432 2.095 . S
O437 C446 1.250 . S
O438 Mn433 2.121 . S
O438 C446 1.258 . S
C439 N440 1.326 . S
C439 C443 1.460 . S
C439 H445 0.929 . S
N440 Mn433 2.257 . S
N440 C439 1.326 . S
N440 C444 1.362 . S
C441 C442 1.258 . S
C441 C444 1.431 . S
C441 C461 1.449 . S
C442 C441 1.258 . S
C442 C443 1.477 . S
C442 H462 0.931 . S
C443 C439 1.460 . S
C443 C442 1.477 . S
C443 H463 0.930 . S
C444 N440 1.362 . S
C444 C441 1.431 . S
C444 C454 1.476 . S
H445 C439 0.929 . S
C446 O437 1.250 . S
C446 O438 1.258 . S
O447 Mn432 2.162 . S
O447 C435 1.281 . S
O448 Mn432 2.297 . S
O448 C435 1.236 . S
N449 Mn433 2.282 . S
N449 C450 1.328 . S
N449 C454 1.318 . S
C450 N449 1.328 . S
C450 C451 1.457 . S
C450 H455 0.929 . S
C451 C450 1.457 . S
C451 C452 1.291 . S
C451 H464 0.931 . S
C452 C451 1.291 . S
C452 C453 1.373 . S
C452 H465 0.929 . S
C453 C452 1.373 . S
C453 C454 1.396 . S
C453 C460 1.403 . S
C454 C444 1.476 . S
C454 N449 1.318 . S
C454 C453 1.396 . S
H455 C450 0.929 . S
O456 Mn432 2.385 . S
O456 C434 1.234 . S
O457 Mn432 2.209 . S
O457 Mn433 2.215 . S
O457 C434 1.283 . S
O458 Mn432 2.094 . S
O458 C436 1.240 . S
O459 Mn433 2.117 . S
O459 C436 1.264 . S
C460 C453 1.403 . S
C460 C461 1.399 . S
C460 H466 0.929 . S
C461 C441 1.449 . S
C461 C460 1.399 . S
C461 H467 0.930 . S
H462 C442 0.931 . S
H463 C443 0.930 . S
H464 C451 0.931 . S
H465 C452 0.929 . S
H466 C460 0.929 . S
H467 C461 0.930 . S
Mn468 O473 2.095 . S
Mn468 O483 2.162 . S
Mn468 O484 2.297 . S
Mn468 O492 2.385 . S
Mn468 O493 2.209 . S
Mn468 O494 2.094 . S
Mn469 O474 2.121 . S
Mn469 N476 2.257 . S
Mn469 N485 2.282 . S
Mn469 O493 2.215 . S
Mn469 O495 2.117 . S
C470 O492 1.234 . S
C470 O493 1.283 . S
C471 O483 1.281 . S
C471 O484 1.236 . S
C472 O494 1.240 . S
C472 O495 1.264 . S
O473 Mn468 2.095 . S
O473 C482 1.250 . S
O474 Mn469 2.121 . S
O474 C482 1.258 . S
C475 N476 1.326 . S
C475 C479 1.460 . S
C475 H481 0.929 . S
N476 Mn469 2.257 . S
N476 C475 1.326 . S
N476 C480 1.362 . S
C477 C478 1.258 . S
C477 C480 1.431 . S
C477 C497 1.449 . S
C478 C477 1.258 . S
C478 C479 1.477 . S
C478 H498 0.931 . S
C479 C475 1.460 . S
C479 C478 1.477 . S
C479 H499 0.930 . S
C480 N476 1.362 . S
C480 C477 1.431 . S
C480 C490 1.476 . S
H481 C475 0.929 . S
C482 O473 1.250 . S
C482 O474 1.258 . S
O483 Mn468 2.162 . S
O483 C471 1.281 . S
O484 Mn468 2.297 . S
O484 C471 1.236 . S
N485 Mn469 2.282 . S
N485 C486 1.328 . S
N485 C490 1.318 . S
C486 N485 1.328 . S
C486 C487 1.457 . S
C486 H491 0.929 . S
C487 C486 1.457 . S
C487 C488 1.291 . S
C487 H500 0.931 . S
C488 C487 1.291 . S
C488 C489 1.373 . S
C488 H501 0.929 . S
C489 C488 1.373 . S
C489 C490 1.396 . S
C489 C496 1.403 . S
C490 C480 1.476 . S
C490 N485 1.318 . S
C490 C489 1.396 . S
H491 C486 0.929 . S
O492 Mn468 2.385 . S
O492 C470 1.234 . S
O493 Mn468 2.209 . S
O493 Mn469 2.215 . S
O493 C470 1.283 . S
O494 Mn468 2.094 . S
O494 C472 1.240 . S
O495 Mn469 2.117 . S
O495 C472 1.264 . S
C496 C489 1.403 . S
C496 C497 1.399 . S
C496 H502 0.929 . S
C497 C477 1.449 . S
C497 C496 1.399 . S
C497 H503 0.930 . S
H498 C478 0.931 . S
H499 C479 0.930 . S
H500 C487 0.931 . S
H501 C488 0.929 . S
H502 C496 0.929 . S
H503 C497 0.930 . S
Mn504 O509 2.095 . S
Mn504 O519 2.162 . S
Mn504 O520 2.297 . S
Mn504 O528 2.385 . S
Mn504 O529 2.209 . S
Mn504 O530 2.094 . S
Mn505 O510 2.121 . S
Mn505 N512 2.257 . S
Mn505 N521 2.282 . S
Mn505 O529 2.215 . S
Mn505 O531 2.117 . S
C506 O528 1.234 . S
C506 O529 1.283 . S
C507 O519 1.281 . S
C507 O520 1.236 . S
C508 O530 1.240 . S
C508 O531 1.264 . S
O509 Mn504 2.095 . S
O509 C518 1.250 . S
O510 Mn505 2.121 . S
O510 C518 1.258 . S
C511 N512 1.326 . S
C511 C515 1.460 . S
C511 H517 0.929 . S
N512 Mn505 2.257 . S
N512 C511 1.326 . S
N512 C516 1.362 . S
C513 C514 1.258 . S
C513 C516 1.431 . S
C513 C533 1.449 . S
C514 C513 1.258 . S
C514 C515 1.477 . S
C514 H534 0.931 . S
C515 C511 1.460 . S
C515 C514 1.477 . S
C515 H535 0.930 . S
C516 N512 1.362 . S
C516 C513 1.431 . S
C516 C526 1.476 . S
H517 C511 0.929 . S
C518 O509 1.250 . S
C518 O510 1.258 . S
O519 Mn504 2.162 . S
O519 C507 1.281 . S
O520 Mn504 2.297 . S
O520 C507 1.236 . S
N521 Mn505 2.282 . S
N521 C522 1.328 . S
N521 C526 1.318 . S
C522 N521 1.328 . S
C522 C523 1.457 . S
C522 H527 0.929 . S
C523 C522 1.457 . S
C523 C524 1.291 . S
C523 H536 0.931 . S
C524 C523 1.291 . S
C524 C525 1.373 . S
C524 H537 0.929 . S
C525 C524 1.373 . S
C525 C526 1.396 . S
C525 C532 1.403 . S
C526 C516 1.476 . S
C526 N521 1.318 . S
C526 C525 1.396 . S
H527 C522 0.929 . S
O528 Mn504 2.385 . S
O528 C506 1.234 . S
O529 Mn504 2.209 . S
O529 Mn505 2.215 . S
O529 C506 1.283 . S
O530 Mn504 2.094 . S
O530 C508 1.240 . S
O531 Mn505 2.117 . S
O531 C508 1.264 . S
C532 C525 1.403 . S
C532 C533 1.399 . S
C532 H538 0.929 . S
C533 C513 1.449 . S
C533 C532 1.399 . S
C533 H539 0.930 . S
H534 C514 0.931 . S
H535 C515 0.930 . S
H536 C523 0.931 . S
H537 C524 0.929 . S
H538 C532 0.929 . S
H539 C533 0.930 . S
Mn540 O545 2.095 . S
Mn540 O555 2.162 . S
Mn540 O556 2.297 . S
Mn540 O564 2.385 . S
Mn540 O565 2.209 . S
Mn540 O566 2.094 . S
Mn541 O546 2.121 . S
Mn541 N548 2.257 . S
Mn541 N557 2.282 . S
Mn541 O565 2.215 . S
Mn541 O567 2.117 . S
C542 O564 1.234 . S
C542 O565 1.283 . S
C543 O555 1.281 . S
C543 O556 1.236 . S
C544 O566 1.240 . S
C544 O567 1.264 . S
O545 Mn540 2.095 . S
O545 C554 1.250 . S
O546 Mn541 2.121 . S
O546 C554 1.258 . S
C547 N548 1.326 . S
C547 C551 1.460 . S
C547 H553 0.929 . S
N548 Mn541 2.257 . S
N548 C547 1.326 . S
N548 C552 1.362 . S
C549 C550 1.258 . S
C549 C552 1.431 . S
C549 C569 1.449 . S
C550 C549 1.258 . S
C550 C551 1.477 . S
C550 H570 0.931 . S
C551 C547 1.460 . S
C551 C550 1.477 . S
C551 H571 0.930 . S
C552 N548 1.362 . S
C552 C549 1.431 . S
C552 C562 1.476 . S
H553 C547 0.929 . S
C554 O545 1.250 . S
C554 O546 1.258 . S
O555 Mn540 2.162 . S
O555 C543 1.281 . S
O556 Mn540 2.297 . S
O556 C543 1.236 . S
N557 Mn541 2.282 . S
N557 C558 1.328 . S
N557 C562 1.318 . S
C558 N557 1.328 . S
C558 C559 1.457 . S
C558 H563 0.929 . S
C559 C558 1.457 . S
C559 C560 1.291 . S
C559 H572 0.931 . S
C560 C559 1.291 . S
C560 C561 1.373 . S
C560 H573 0.929 . S
C561 C560 1.373 . S
C561 C562 1.396 . S
C561 C568 1.403 . S
C562 C552 1.476 . S
C562 N557 1.318 . S
C562 C561 1.396 . S
H563 C558 0.929 . S
O564 Mn540 2.385 . S
O564 C542 1.234 . S
O565 Mn540 2.209 . S
O565 Mn541 2.215 . S
O565 C542 1.283 . S
O566 Mn540 2.094 . S
O566 C544 1.240 . S
O567 Mn541 2.117 . S
O567 C544 1.264 . S
C568 C561 1.403 . S
C568 C569 1.399 . S
C568 H574 0.929 . S
C569 C549 1.449 . S
C569 C568 1.399 . S
C569 H575 0.930 . S
H570 C550 0.931 . S
H571 C551 0.930 . S
H572 C559 0.931 . S
H573 C560 0.929 . S
H574 C568 0.929 . S
H575 C569 0.930 . S
Mn576 O581 2.095 . S
Mn576 O591 2.162 . S
Mn576 O592 2.297 . S
Mn576 O600 2.385 . S
Mn576 O601 2.209 . S
Mn576 O602 2.094 . S
Mn577 O582 2.121 . S
Mn577 N584 2.257 . S
Mn577 N593 2.282 . S
Mn577 O601 2.215 . S
Mn577 O603 2.117 . S
C578 O600 1.234 . S
C578 O601 1.283 . S
C579 O591 1.281 . S
C579 O592 1.236 . S
C580 O602 1.240 . S
C580 O603 1.264 . S
O581 Mn576 2.095 . S
O581 C590 1.250 . S
O582 Mn577 2.121 . S
O582 C590 1.258 . S
C583 N584 1.326 . S
C583 C587 1.460 . S
C583 H589 0.929 . S
N584 Mn577 2.257 . S
N584 C583 1.326 . S
N584 C588 1.362 . S
C585 C586 1.258 . S
C585 C588 1.431 . S
C585 C605 1.449 . S
C586 C585 1.258 . S
C586 C587 1.477 . S
C586 H606 0.931 . S
C587 C583 1.460 . S
C587 C586 1.477 . S
C587 H607 0.930 . S
C588 N584 1.362 . S
C588 C585 1.431 . S
C588 C598 1.476 . S
H589 C583 0.929 . S
C590 O581 1.250 . S
C590 O582 1.258 . S
O591 Mn576 2.162 . S
O591 C579 1.281 . S
O592 Mn576 2.297 . S
O592 C579 1.236 . S
N593 Mn577 2.282 . S
N593 C594 1.328 . S
N593 C598 1.318 . S
C594 N593 1.328 . S
C594 C595 1.457 . S
C594 H599 0.929 . S
C595 C594 1.457 . S
C595 C596 1.291 . S
C595 H608 0.931 . S
C596 C595 1.291 . S
C596 C597 1.373 . S
C596 H609 0.929 . S
C597 C596 1.373 . S
C597 C598 1.396 . S
C597 C604 1.403 . S
C598 C588 1.476 . S
C598 N593 1.318 . S
C598 C597 1.396 . S
H599 C594 0.929 . S
O600 Mn576 2.385 . S
O600 C578 1.234 . S
O601 Mn576 2.209 . S
O601 Mn577 2.215 . S
O601 C578 1.283 . S
O602 Mn576 2.094 . S
O602 C580 1.240 . S
O603 Mn577 2.117 . S
O603 C580 1.264 . S
C604 C597 1.403 . S
C604 C605 1.399 . S
C604 H610 0.929 . S
C605 C585 1.449 . S
C605 C604 1.399 . S
C605 H611 0.930 . S
H606 C586 0.931 . S
H607 C587 0.930 . S
H608 C595 0.931 . S
H609 C596 0.929 . S
H610 C604 0.929 . S
H611 C605 0.930 . S
Mn612 O617 2.095 . S
Mn612 O627 2.162 . S
Mn612 O628 2.297 . S
Mn612 O636 2.385 . S
Mn612 O637 2.209 . S
Mn612 O638 2.094 . S
Mn613 O618 2.121 . S
Mn613 N620 2.257 . S
Mn613 N629 2.282 . S
Mn613 O637 2.215 . S
Mn613 O639 2.117 . S
C614 O636 1.234 . S
C614 O637 1.283 . S
C615 O627 1.281 . S
C615 O628 1.236 . S
C616 O638 1.240 . S
C616 O639 1.264 . S
O617 Mn612 2.095 . S
O617 C626 1.250 . S
O618 Mn613 2.121 . S
O618 C626 1.258 . S
C619 N620 1.326 . S
C619 C623 1.460 . S
C619 H625 0.929 . S
N620 Mn613 2.257 . S
N620 C619 1.326 . S
N620 C624 1.362 . S
C621 C622 1.258 . S
C621 C624 1.431 . S
C621 C641 1.449 . S
C622 C621 1.258 . S
C622 C623 1.477 . S
C622 H642 0.931 . S
C623 C619 1.460 . S
C623 C622 1.477 . S
C623 H643 0.930 . S
C624 N620 1.362 . S
C624 C621 1.431 . S
C624 C634 1.476 . S
H625 C619 0.929 . S
C626 O617 1.250 . S
C626 O618 1.258 . S
O627 Mn612 2.162 . S
O627 C615 1.281 . S
O628 Mn612 2.297 . S
O628 C615 1.236 . S
N629 Mn613 2.282 . S
N629 C630 1.328 . S
N629 C634 1.318 . S
C630 N629 1.328 . S
C630 C631 1.457 . S
C630 H635 0.929 . S
C631 C630 1.457 . S
C631 C632 1.291 . S
C631 H644 0.931 . S
C632 C631 1.291 . S
C632 C633 1.373 . S
C632 H645 0.929 . S
C633 C632 1.373 . S
C633 C634 1.396 . S
C633 C640 1.403 . S
C634 C624 1.476 . S
C634 N629 1.318 . S
C634 C633 1.396 . S
H635 C630 0.929 . S
O636 Mn612 2.385 . S
O636 C614 1.234 . S
O637 Mn612 2.209 . S
O637 Mn613 2.215 . S
O637 C614 1.283 . S
O638 Mn612 2.094 . S
O638 C616 1.240 . S
O639 Mn613 2.117 . S
O639 C616 1.264 . S
C640 C633 1.403 . S
C640 C641 1.399 . S
C640 H646 0.929 . S
C641 C621 1.449 . S
C641 C640 1.399 . S
C641 H647 0.930 . S
H642 C622 0.931 . S
H643 C623 0.930 . S
H644 C631 0.931 . S
H645 C632 0.929 . S
H646 C640 0.929 . S
H647 C641 0.930 . S
Mn648 O653 2.095 . S
Mn648 O663 2.162 . S
Mn648 O664 2.297 . S
Mn648 O672 2.385 . S
Mn648 O673 2.209 . S
Mn648 O674 2.094 . S
Mn649 O654 2.121 . S
Mn649 N656 2.257 . S
Mn649 N665 2.282 . S
Mn649 O673 2.215 . S
Mn649 O675 2.117 . S
C650 O672 1.234 . S
C650 O673 1.283 . S
C651 O663 1.281 . S
C651 O664 1.236 . S
C652 O674 1.240 . S
C652 O675 1.264 . S
O653 Mn648 2.095 . S
O653 C662 1.250 . S
O654 Mn649 2.121 . S
O654 C662 1.258 . S
C655 N656 1.326 . S
C655 C659 1.460 . S
C655 H661 0.929 . S
N656 Mn649 2.257 . S
N656 C655 1.326 . S
N656 C660 1.362 . S
C657 C658 1.258 . S
C657 C660 1.431 . S
C657 C677 1.449 . S
C658 C657 1.258 . S
C658 C659 1.477 . S
C658 H678 0.931 . S
C659 C655 1.460 . S
C659 C658 1.477 . S
C659 H679 0.930 . S
C660 N656 1.362 . S
C660 C657 1.431 . S
C660 C670 1.476 . S
H661 C655 0.929 . S
C662 O653 1.250 . S
C662 O654 1.258 . S
O663 Mn648 2.162 . S
O663 C651 1.281 . S
O664 Mn648 2.297 . S
O664 C651 1.236 . S
N665 Mn649 2.282 . S
N665 C666 1.328 . S
N665 C670 1.318 . S
C666 N665 1.328 . S
C666 C667 1.457 . S
C666 H671 0.929 . S
C667 C666 1.457 . S
C667 C668 1.291 . S
C667 H680 0.931 . S
C668 C667 1.291 . S
C668 C669 1.373 . S
C668 H681 0.929 . S
C669 C668 1.373 . S
C669 C670 1.396 . S
C669 C676 1.403 . S
C670 C660 1.476 . S
C670 N665 1.318 . S
C670 C669 1.396 . S
H671 C666 0.929 . S
O672 Mn648 2.385 . S
O672 C650 1.234 . S
O673 Mn648 2.209 . S
O673 Mn649 2.215 . S
O673 C650 1.283 . S
O674 Mn648 2.094 . S
O674 C652 1.240 . S
O675 Mn649 2.117 . S
O675 C652 1.264 . S
C676 C669 1.403 . S
C676 C677 1.399 . S
C676 H682 0.929 . S
C677 C657 1.449 . S
C677 C676 1.399 . S
C677 H683 0.930 . S
H678 C658 0.931 . S
H679 C659 0.930 . S
H680 C667 0.931 . S
H681 C668 0.929 . S
H682 C676 0.929 . S
H683 C677 0.930 . S
Mn684 O689 2.095 . S
Mn684 O699 2.162 . S
Mn684 O700 2.297 . S
Mn684 O708 2.385 . S
Mn684 O709 2.209 . S
Mn684 O710 2.094 . S
Mn685 O690 2.121 . S
Mn685 N692 2.257 . S
Mn685 N701 2.282 . S
Mn685 O709 2.215 . S
Mn685 O711 2.117 . S
C686 O708 1.234 . S
C686 O709 1.283 . S
C687 O699 1.281 . S
C687 O700 1.236 . S
C688 O710 1.240 . S
C688 O711 1.264 . S
O689 Mn684 2.095 . S
O689 C698 1.250 . S
O690 Mn685 2.121 . S
O690 C698 1.258 . S
C691 N692 1.326 . S
C691 C695 1.460 . S
C691 H697 0.929 . S
N692 Mn685 2.257 . S
N692 C691 1.326 . S
N692 C696 1.362 . S
C693 C694 1.258 . S
C693 C696 1.431 . S
C693 C713 1.449 . S
C694 C693 1.258 . S
C694 C695 1.477 . S
C694 H714 0.931 . S
C695 C691 1.460 . S
C695 C694 1.477 . S
C695 H715 0.930 . S
C696 N692 1.362 . S
C696 C693 1.431 . S
C696 C706 1.476 . S
H697 C691 0.929 . S
C698 O689 1.250 . S
C698 O690 1.258 . S
O699 Mn684 2.162 . S
O699 C687 1.281 . S
O700 Mn684 2.297 . S
O700 C687 1.236 . S
N701 Mn685 2.282 . S
N701 C702 1.328 . S
N701 C706 1.318 . S
C702 N701 1.328 . S
C702 C703 1.457 . S
C702 H707 0.929 . S
C703 C702 1.457 . S
C703 C704 1.291 . S
C703 H716 0.931 . S
C704 C703 1.291 . S
C704 C705 1.373 . S
C704 H717 0.929 . S
C705 C704 1.373 . S
C705 C706 1.396 . S
C705 C712 1.403 . S
C706 C696 1.476 . S
C706 N701 1.318 . S
C706 C705 1.396 . S
H707 C702 0.929 . S
O708 Mn684 2.385 . S
O708 C686 1.234 . S
O709 Mn684 2.209 . S
O709 Mn685 2.215 . S
O709 C686 1.283 . S
O710 Mn684 2.094 . S
O710 C688 1.240 . S
O711 Mn685 2.117 . S
O711 C688 1.264 . S
C712 C705 1.403 . S
C712 C713 1.399 . S
C712 H718 0.929 . S
C713 C693 1.449 . S
C713 C712 1.399 . S
C713 H719 0.930 . S
H714 C694 0.931 . S
H715 C695 0.930 . S
H716 C703 0.931 . S
H717 C704 0.929 . S
H718 C712 0.929 . S
H719 C713 0.930 . S
Mn720 O725 2.095 . S
Mn720 O735 2.162 . S
Mn720 O736 2.297 . S
Mn720 O744 2.385 . S
Mn720 O745 2.209 . S
Mn720 O746 2.094 . S
Mn721 O726 2.121 . S
Mn721 N728 2.257 . S
Mn721 N737 2.282 . S
Mn721 O745 2.215 . S
Mn721 O747 2.117 . S
C722 O744 1.234 . S
C722 O745 1.283 . S
C723 O735 1.281 . S
C723 O736 1.236 . S
C724 O746 1.240 . S
C724 O747 1.264 . S
O725 Mn720 2.095 . S
O725 C734 1.250 . S
O726 Mn721 2.121 . S
O726 C734 1.258 . S
C727 N728 1.326 . S
C727 C731 1.460 . S
C727 H733 0.929 . S
N728 Mn721 2.257 . S
N728 C727 1.326 . S
N728 C732 1.362 . S
C729 C730 1.258 . S
C729 C732 1.431 . S
C729 C749 1.449 . S
C730 C729 1.258 . S
C730 C731 1.477 . S
C730 H750 0.931 . S
C731 C727 1.460 . S
C731 C730 1.477 . S
C731 H751 0.930 . S
C732 N728 1.362 . S
C732 C729 1.431 . S
C732 C742 1.476 . S
H733 C727 0.929 . S
C734 O725 1.250 . S
C734 O726 1.258 . S
O735 Mn720 2.162 . S
O735 C723 1.281 . S
O736 Mn720 2.297 . S
O736 C723 1.236 . S
N737 Mn721 2.282 . S
N737 C738 1.328 . S
N737 C742 1.318 . S
C738 N737 1.328 . S
C738 C739 1.457 . S
C738 H743 0.929 . S
C739 C738 1.457 . S
C739 C740 1.291 . S
C739 H752 0.931 . S
C740 C739 1.291 . S
C740 C741 1.373 . S
C740 H753 0.929 . S
C741 C740 1.373 . S
C741 C742 1.396 . S
C741 C748 1.403 . S
C742 C732 1.476 . S
C742 N737 1.318 . S
C742 C741 1.396 . S
H743 C738 0.929 . S
O744 Mn720 2.385 . S
O744 C722 1.234 . S
O745 Mn720 2.209 . S
O745 Mn721 2.215 . S
O745 C722 1.283 . S
O746 Mn720 2.094 . S
O746 C724 1.240 . S
O747 Mn721 2.117 . S
O747 C724 1.264 . S
C748 C741 1.403 . S
C748 C749 1.399 . S
C748 H754 0.929 . S
C749 C729 1.449 . S
C749 C748 1.399 . S
C749 H755 0.930 . S
H750 C730 0.931 . S
H751 C731 0.930 . S
H752 C739 0.931 . S
H753 C740 0.929 . S
H754 C748 0.929 . S
H755 C749 0.930 . S
Mn756 O761 2.095 . S
Mn756 O771 2.162 . S
Mn756 O772 2.297 . S
Mn756 O780 2.385 . S
Mn756 O781 2.209 . S
Mn756 O782 2.094 . S
Mn757 O762 2.121 . S
Mn757 N764 2.257 . S
Mn757 N773 2.282 . S
Mn757 O781 2.215 . S
Mn757 O783 2.117 . S
C758 O780 1.234 . S
C758 O781 1.283 . S
C759 O771 1.281 . S
C759 O772 1.236 . S
C760 O782 1.240 . S
C760 O783 1.264 . S
O761 Mn756 2.095 . S
O761 C770 1.250 . S
O762 Mn757 2.121 . S
O762 C770 1.258 . S
C763 N764 1.326 . S
C763 C767 1.460 . S
C763 H769 0.929 . S
N764 Mn757 2.257 . S
N764 C763 1.326 . S
N764 C768 1.362 . S
C765 C766 1.258 . S
C765 C768 1.431 . S
C765 C785 1.449 . S
C766 C765 1.258 . S
C766 C767 1.477 . S
C766 H786 0.931 . S
C767 C763 1.460 . S
C767 C766 1.477 . S
C767 H787 0.930 . S
C768 N764 1.362 . S
C768 C765 1.431 . S
C768 C778 1.476 . S
H769 C763 0.929 . S
C770 O761 1.250 . S
C770 O762 1.258 . S
O771 Mn756 2.162 . S
O771 C759 1.281 . S
O772 Mn756 2.297 . S
O772 C759 1.236 . S
N773 Mn757 2.282 . S
N773 C774 1.328 . S
N773 C778 1.318 . S
C774 N773 1.328 . S
C774 C775 1.457 . S
C774 H779 0.929 . S
C775 C774 1.457 . S
C775 C776 1.291 . S
C775 H788 0.931 . S
C776 C775 1.291 . S
C776 C777 1.373 . S
C776 H789 0.929 . S
C777 C776 1.373 . S
C777 C778 1.396 . S
C777 C784 1.403 . S
C778 C768 1.476 . S
C778 N773 1.318 . S
C778 C777 1.396 . S
H779 C774 0.929 . S
O780 Mn756 2.385 . S
O780 C758 1.234 . S
O781 Mn756 2.209 . S
O781 Mn757 2.215 . S
O781 C758 1.283 . S
O782 Mn756 2.094 . S
O782 C760 1.240 . S
O783 Mn757 2.117 . S
O783 C760 1.264 . S
C784 C777 1.403 . S
C784 C785 1.399 . S
C784 H790 0.929 . S
C785 C765 1.449 . S
C785 C784 1.399 . S
C785 H791 0.930 . S
H786 C766 0.931 . S
H787 C767 0.930 . S
H788 C775 0.931 . S
H789 C776 0.929 . S
H790 C784 0.929 . S
H791 C785 0.930 . S
Mn792 O797 2.095 . S
Mn792 O807 2.162 . S
Mn792 O808 2.297 . S
Mn792 O816 2.385 . S
Mn792 O817 2.209 . S
Mn792 O818 2.094 . S
Mn793 O798 2.121 . S
Mn793 N800 2.257 . S
Mn793 N809 2.282 . S
Mn793 O817 2.215 . S
Mn793 O819 2.117 . S
C794 O816 1.234 . S
C794 O817 1.283 . S
C795 O807 1.281 . S
C795 O808 1.236 . S
C796 O818 1.240 . S
C796 O819 1.264 . S
O797 Mn792 2.095 . S
O797 C806 1.250 . S
O798 Mn793 2.121 . S
O798 C806 1.258 . S
C799 N800 1.326 . S
C799 C803 1.460 . S
C799 H805 0.929 . S
N800 Mn793 2.257 . S
N800 C799 1.326 . S
N800 C804 1.362 . S
C801 C802 1.258 . S
C801 C804 1.431 . S
C801 C821 1.449 . S
C802 C801 1.258 . S
C802 C803 1.477 . S
C802 H822 0.931 . S
C803 C799 1.460 . S
C803 C802 1.477 . S
C803 H823 0.930 . S
C804 N800 1.362 . S
C804 C801 1.431 . S
C804 C814 1.476 . S
H805 C799 0.929 . S
C806 O797 1.250 . S
C806 O798 1.258 . S
O807 Mn792 2.162 . S
O807 C795 1.281 . S
O808 Mn792 2.297 . S
O808 C795 1.236 . S
N809 Mn793 2.282 . S
N809 C810 1.328 . S
N809 C814 1.318 . S
C810 N809 1.328 . S
C810 C811 1.457 . S
C810 H815 0.929 . S
C811 C810 1.457 . S
C811 C812 1.291 . S
C811 H824 0.931 . S
C812 C811 1.291 . S
C812 C813 1.373 . S
C812 H825 0.929 . S
C813 C812 1.373 . S
C813 C814 1.396 . S
C813 C820 1.403 . S
C814 C804 1.476 . S
C814 N809 1.318 . S
C814 C813 1.396 . S
H815 C810 0.929 . S
O816 Mn792 2.385 . S
O816 C794 1.234 . S
O817 Mn792 2.209 . S
O817 Mn793 2.215 . S
O817 C794 1.283 . S
O818 Mn792 2.094 . S
O818 C796 1.240 . S
O819 Mn793 2.117 . S
O819 C796 1.264 . S
C820 C813 1.403 . S
C820 C821 1.399 . S
C820 H826 0.929 . S
C821 C801 1.449 . S
C821 C820 1.399 . S
C821 H827 0.930 . S
H822 C802 0.931 . S
H823 C803 0.930 . S
H824 C811 0.931 . S
H825 C812 0.929 . S
H826 C820 0.929 . S
H827 C821 0.930 . S
Mn828 O833 2.095 . S
Mn828 O843 2.162 . S
Mn828 O844 2.297 . S
Mn828 O852 2.385 . S
Mn828 O853 2.209 . S
Mn828 O854 2.094 . S
Mn829 O834 2.121 . S
Mn829 N836 2.257 . S
Mn829 N845 2.282 . S
Mn829 O853 2.215 . S
Mn829 O855 2.117 . S
C830 O852 1.234 . S
C830 O853 1.283 . S
C831 O843 1.281 . S
C831 O844 1.236 . S
C832 O854 1.240 . S
C832 O855 1.264 . S
O833 Mn828 2.095 . S
O833 C842 1.250 . S
O834 Mn829 2.121 . S
O834 C842 1.258 . S
C835 N836 1.326 . S
C835 C839 1.460 . S
C835 H841 0.929 . S
N836 Mn829 2.257 . S
N836 C835 1.326 . S
N836 C840 1.362 . S
C837 C838 1.258 . S
C837 C840 1.431 . S
C837 C857 1.449 . S
C838 C837 1.258 . S
C838 C839 1.477 . S
C838 H858 0.931 . S
C839 C835 1.460 . S
C839 C838 1.477 . S
C839 H859 0.930 . S
C840 N836 1.362 . S
C840 C837 1.431 . S
C840 C850 1.476 . S
H841 C835 0.929 . S
C842 O833 1.250 . S
C842 O834 1.258 . S
O843 Mn828 2.162 . S
O843 C831 1.281 . S
O844 Mn828 2.297 . S
O844 C831 1.236 . S
N845 Mn829 2.282 . S
N845 C846 1.328 . S
N845 C850 1.318 . S
C846 N845 1.328 . S
C846 C847 1.457 . S
C846 H851 0.929 . S
C847 C846 1.457 . S
C847 C848 1.291 . S
C847 H860 0.931 . S
C848 C847 1.291 . S
C848 C849 1.373 . S
C848 H861 0.929 . S
C849 C848 1.373 . S
C849 C850 1.396 . S
C849 C856 1.403 . S
C850 C840 1.476 . S
C850 N845 1.318 . S
C850 C849 1.396 . S
H851 C846 0.929 . S
O852 Mn828 2.385 . S
O852 C830 1.234 . S
O853 Mn828 2.209 . S
O853 Mn829 2.215 . S
O853 C830 1.283 . S
O854 Mn828 2.094 . S
O854 C832 1.240 . S
O855 Mn829 2.117 . S
O855 C832 1.264 . S
C856 C849 1.403 . S
C856 C857 1.399 . S
C856 H862 0.929 . S
C857 C837 1.449 . S
C857 C856 1.399 . S
C857 H863 0.930 . S
H858 C838 0.931 . S
H859 C839 0.930 . S
H860 C847 0.931 . S
H861 C848 0.929 . S
H862 C856 0.929 . S
H863 C857 0.930 . S
Mn864 O869 2.095 . S
Mn864 O879 2.162 . S
Mn864 O880 2.297 . S
Mn864 O888 2.385 . S
Mn864 O889 2.209 . S
Mn864 O890 2.094 . S
Mn865 O870 2.121 . S
Mn865 N872 2.257 . S
Mn865 N881 2.282 . S
Mn865 O889 2.215 . S
Mn865 O891 2.117 . S
C866 O888 1.234 . S
C866 O889 1.283 . S
C867 O879 1.281 . S
C867 O880 1.236 . S
C868 O890 1.240 . S
C868 O891 1.264 . S
O869 Mn864 2.095 . S
O869 C878 1.250 . S
O870 Mn865 2.121 . S
O870 C878 1.258 . S
C871 N872 1.326 . S
C871 C875 1.460 . S
C871 H877 0.929 . S
N872 Mn865 2.257 . S
N872 C871 1.326 . S
N872 C876 1.362 . S
C873 C874 1.258 . S
C873 C876 1.431 . S
C873 C893 1.449 . S
C874 C873 1.258 . S
C874 C875 1.477 . S
C874 H894 0.931 . S
C875 C871 1.460 . S
C875 C874 1.477 . S
C875 H895 0.930 . S
C876 N872 1.362 . S
C876 C873 1.431 . S
C876 C886 1.476 . S
H877 C871 0.929 . S
C878 O869 1.250 . S
C878 O870 1.258 . S
O879 Mn864 2.162 . S
O879 C867 1.281 . S
O880 Mn864 2.297 . S
O880 C867 1.236 . S
N881 Mn865 2.282 . S
N881 C882 1.328 . S
N881 C886 1.318 . S
C882 N881 1.328 . S
C882 C883 1.457 . S
C882 H887 0.929 . S
C883 C882 1.457 . S
C883 C884 1.291 . S
C883 H896 0.931 . S
C884 C883 1.291 . S
C884 C885 1.373 . S
C884 H897 0.929 . S
C885 C884 1.373 . S
C885 C886 1.396 . S
C885 C892 1.403 . S
C886 C876 1.476 . S
C886 N881 1.318 . S
C886 C885 1.396 . S
H887 C882 0.929 . S
O888 Mn864 2.385 . S
O888 C866 1.234 . S
O889 Mn864 2.209 . S
O889 Mn865 2.215 . S
O889 C866 1.283 . S
O890 Mn864 2.094 . S
O890 C868 1.240 . S
O891 Mn865 2.117 . S
O891 C868 1.264 . S
C892 C885 1.403 . S
C892 C893 1.399 . S
C892 H898 0.929 . S
C893 C873 1.449 . S
C893 C892 1.399 . S
C893 H899 0.930 . S
H894 C874 0.931 . S
H895 C875 0.930 . S
H896 C883 0.931 . S
H897 C884 0.929 . S
H898 C892 0.929 . S
H899 C893 0.930 . S
Mn900 O905 2.095 . S
Mn900 O915 2.162 . S
Mn900 O916 2.297 . S
Mn900 O924 2.385 . S
Mn900 O925 2.209 . S
Mn900 O926 2.094 . S
Mn901 O906 2.121 . S
Mn901 N908 2.257 . S
Mn901 N917 2.282 . S
Mn901 O925 2.215 . S
Mn901 O927 2.117 . S
C902 O924 1.234 . S
C902 O925 1.283 . S
C903 O915 1.281 . S
C903 O916 1.236 . S
C904 O926 1.240 . S
C904 O927 1.264 . S
O905 Mn900 2.095 . S
O905 C914 1.250 . S
O906 Mn901 2.121 . S
O906 C914 1.258 . S
C907 N908 1.326 . S
C907 C911 1.460 . S
C907 H913 0.929 . S
N908 Mn901 2.257 . S
N908 C907 1.326 . S
N908 C912 1.362 . S
C909 C910 1.258 . S
C909 C912 1.431 . S
C909 C929 1.449 . S
C910 C909 1.258 . S
C910 C911 1.477 . S
C910 H930 0.931 . S
C911 C907 1.460 . S
C911 C910 1.477 . S
C911 H931 0.930 . S
C912 N908 1.362 . S
C912 C909 1.431 . S
C912 C922 1.476 . S
H913 C907 0.929 . S
C914 O905 1.250 . S
C914 O906 1.258 . S
O915 Mn900 2.162 . S
O915 C903 1.281 . S
O916 Mn900 2.297 . S
O916 C903 1.236 . S
N917 Mn901 2.282 . S
N917 C918 1.328 . S
N917 C922 1.318 . S
C918 N917 1.328 . S
C918 C919 1.457 . S
C918 H923 0.929 . S
C919 C918 1.457 . S
C919 C920 1.291 . S
C919 H932 0.931 . S
C920 C919 1.291 . S
C920 C921 1.373 . S
C920 H933 0.929 . S
C921 C920 1.373 . S
C921 C922 1.396 . S
C921 C928 1.403 . S
C922 C912 1.476 . S
C922 N917 1.318 . S
C922 C921 1.396 . S
H923 C918 0.929 . S
O924 Mn900 2.385 . S
O924 C902 1.234 . S
O925 Mn900 2.209 . S
O925 Mn901 2.215 . S
O925 C902 1.283 . S
O926 Mn900 2.094 . S
O926 C904 1.240 . S
O927 Mn901 2.117 . S
O927 C904 1.264 . S
C928 C921 1.403 . S
C928 C929 1.399 . S
C928 H934 0.929 . S
C929 C909 1.449 . S
C929 C928 1.399 . S
C929 H935 0.930 . S
H930 C910 0.931 . S
H931 C911 0.930 . S
H932 C919 0.931 . S
H933 C920 0.929 . S
H934 C928 0.929 . S
H935 C929 0.930 . S
Mn936 O941 2.095 . S
Mn936 O951 2.162 . S
Mn936 O952 2.297 . S
Mn936 O960 2.385 . S
Mn936 O961 2.209 . S
Mn936 O962 2.094 . S
Mn937 O942 2.121 . S
Mn937 N944 2.257 . S
Mn937 N953 2.282 . S
Mn937 O961 2.215 . S
Mn937 O963 2.117 . S
C938 O960 1.234 . S
C938 O961 1.283 . S
C939 O951 1.281 . S
C939 O952 1.236 . S
C940 O962 1.240 . S
C940 O963 1.264 . S
O941 Mn936 2.095 . S
O941 C950 1.250 . S
O942 Mn937 2.121 . S
O942 C950 1.258 . S
C943 N944 1.326 . S
C943 C947 1.460 . S
C943 H949 0.929 . S
N944 Mn937 2.257 . S
N944 C943 1.326 . S
N944 C948 1.362 . S
C945 C946 1.258 . S
C945 C948 1.431 . S
C945 C965 1.449 . S
C946 C945 1.258 . S
C946 C947 1.477 . S
C946 H966 0.931 . S
C947 C943 1.460 . S
C947 C946 1.477 . S
C947 H967 0.930 . S
C948 N944 1.362 . S
C948 C945 1.431 . S
C948 C958 1.476 . S
H949 C943 0.929 . S
C950 O941 1.250 . S
C950 O942 1.258 . S
O951 Mn936 2.162 . S
O951 C939 1.281 . S
O952 Mn936 2.297 . S
O952 C939 1.236 . S
N953 Mn937 2.282 . S
N953 C954 1.328 . S
N953 C958 1.318 . S
C954 N953 1.328 . S
C954 C955 1.457 . S
C954 H959 0.929 . S
C955 C954 1.457 . S
C955 C956 1.291 . S
C955 H968 0.931 . S
C956 C955 1.291 . S
C956 C957 1.373 . S
C956 H969 0.929 . S
C957 C956 1.373 . S
C957 C958 1.396 . S
C957 C964 1.403 . S
C958 C948 1.476 . S
C958 N953 1.318 . S
C958 C957 1.396 . S
H959 C954 0.929 . S
O960 Mn936 2.385 . S
O960 C938 1.234 . S
O961 Mn936 2.209 . S
O961 Mn937 2.215 . S
O961 C938 1.283 . S
O962 Mn936 2.094 . S
O962 C940 1.240 . S
O963 Mn937 2.117 . S
O963 C940 1.264 . S
C964 C957 1.403 . S
C964 C965 1.399 . S
C964 H970 0.929 . S
C965 C945 1.449 . S
C965 C964 1.399 . S
C965 H971 0.930 . S
H966 C946 0.931 . S
H967 C947 0.930 . S
H968 C955 0.931 . S
H969 C956 0.929 . S
H970 C964 0.929 . S
H971 C965 0.930 . S
Mn972 O977 2.095 . S
Mn972 O987 2.162 . S
Mn972 O988 2.297 . S
Mn972 O996 2.385 . S
Mn972 O997 2.209 . S
Mn972 O998 2.094 . S
Mn973 O978 2.121 . S
Mn973 N980 2.257 . S
Mn973 N989 2.282 . S
Mn973 O997 2.215 . S
Mn973 O999 2.117 . S
C974 O996 1.234 . S
C974 O997 1.283 . S
C975 O987 1.281 . S
C975 O988 1.236 . S
C976 O998 1.240 . S
C976 O999 1.264 . S
O977 Mn972 2.095 . S
O977 C986 1.250 . S
O978 Mn973 2.121 . S
O978 C986 1.258 . S
C979 N980 1.326 . S
C979 C983 1.460 . S
C979 H985 0.929 . S
N980 Mn973 2.257 . S
N980 C979 1.326 . S
N980 C984 1.362 . S
C981 C982 1.258 . S
C981 C984 1.431 . S
C981 C1001 1.449 . S
C982 C981 1.258 . S
C982 C983 1.477 . S
C982 H1002 0.931 . S
C983 C979 1.460 . S
C983 C982 1.477 . S
C983 H1003 0.930 . S
C984 N980 1.362 . S
C984 C981 1.431 . S
C984 C994 1.476 . S
H985 C979 0.929 . S
C986 O977 1.250 . S
C986 O978 1.258 . S
O987 Mn972 2.162 . S
O987 C975 1.281 . S
O988 Mn972 2.297 . S
O988 C975 1.236 . S
N989 Mn973 2.282 . S
N989 C990 1.328 . S
N989 C994 1.318 . S
C990 N989 1.328 . S
C990 C991 1.457 . S
C990 H995 0.929 . S
C991 C990 1.457 . S
C991 C992 1.291 . S
C991 H1004 0.931 . S
C992 C991 1.291 . S
C992 C993 1.373 . S
C992 H1005 0.929 . S
C993 C992 1.373 . S
C993 C994 1.396 . S
C993 C1000 1.403 . S
C994 C984 1.476 . S
C994 N989 1.318 . S
C994 C993 1.396 . S
H995 C990 0.929 . S
O996 Mn972 2.385 . S
O996 C974 1.234 . S
O997 Mn972 2.209 . S
O997 Mn973 2.215 . S
O997 C974 1.283 . S
O998 Mn972 2.094 . S
O998 C976 1.240 . S
O999 Mn973 2.117 . S
O999 C976 1.264 . S
C1000 C993 1.403 . S
C1000 C1001 1.399 . S
C1000 H1006 0.929 . S
C1001 C981 1.449 . S
C1001 C1000 1.399 . S
C1001 H1007 0.930 . S
H1002 C982 0.931 . S
H1003 C983 0.930 . S
H1004 C991 0.931 . S
H1005 C992 0.929 . S
H1006 C1000 0.929 . S
H1007 C1001 0.930 . S
Mn1008 O1013 2.095 . S
Mn1008 O1023 2.162 . S
Mn1008 O1024 2.297 . S
Mn1008 O1032 2.385 . S
Mn1008 O1033 2.209 . S
Mn1008 O1034 2.094 . S
Mn1009 O1014 2.121 . S
Mn1009 N1016 2.257 . S
Mn1009 N1025 2.282 . S
Mn1009 O1033 2.215 . S
Mn1009 O1035 2.117 . S
C1010 O1032 1.234 . S
C1010 O1033 1.283 . S
C1011 O1023 1.281 . S
C1011 O1024 1.236 . S
C1012 O1034 1.240 . S
C1012 O1035 1.264 . S
O1013 Mn1008 2.095 . S
O1013 C1022 1.250 . S
O1014 Mn1009 2.121 . S
O1014 C1022 1.258 . S
C1015 N1016 1.326 . S
C1015 C1019 1.460 . S
C1015 H1021 0.929 . S
N1016 Mn1009 2.257 . S
N1016 C1015 1.326 . S
N1016 C1020 1.362 . S
C1017 C1018 1.258 . S
C1017 C1020 1.431 . S
C1017 C1037 1.449 . S
C1018 C1017 1.258 . S
C1018 C1019 1.477 . S
C1018 H1038 0.931 . S
C1019 C1015 1.460 . S
C1019 C1018 1.477 . S
C1019 H1039 0.930 . S
C1020 N1016 1.362 . S
C1020 C1017 1.431 . S
C1020 C1030 1.476 . S
H1021 C1015 0.929 . S
C1022 O1013 1.250 . S
C1022 O1014 1.258 . S
O1023 Mn1008 2.162 . S
O1023 C1011 1.281 . S
O1024 Mn1008 2.297 . S
O1024 C1011 1.236 . S
N1025 Mn1009 2.282 . S
N1025 C1026 1.328 . S
N1025 C1030 1.318 . S
C1026 N1025 1.328 . S
C1026 C1027 1.457 . S
C1026 H1031 0.929 . S
C1027 C1026 1.457 . S
C1027 C1028 1.291 . S
C1027 H1040 0.931 . S
C1028 C1027 1.291 . S
C1028 C1029 1.373 . S
C1028 H1041 0.929 . S
C1029 C1028 1.373 . S
C1029 C1030 1.396 . S
C1029 C1036 1.403 . S
C1030 C1020 1.476 . S
C1030 N1025 1.318 . S
C1030 C1029 1.396 . S
H1031 C1026 0.929 . S
O1032 Mn1008 2.385 . S
O1032 C1010 1.234 . S
O1033 Mn1008 2.209 . S
O1033 Mn1009 2.215 . S
O1033 C1010 1.283 . S
O1034 Mn1008 2.094 . S
O1034 C1012 1.240 . S
O1035 Mn1009 2.117 . S
O1035 C1012 1.264 . S
C1036 C1029 1.403 . S
C1036 C1037 1.399 . S
C1036 H1042 0.929 . S
C1037 C1017 1.449 . S
C1037 C1036 1.399 . S
C1037 H1043 0.930 . S
H1038 C1018 0.931 . S
H1039 C1019 0.930 . S
H1040 C1027 0.931 . S
H1041 C1028 0.929 . S
H1042 C1036 0.929 . S
H1043 C1037 0.930 . S
Mn1044 O1049 2.095 . S
Mn1044 O1059 2.162 . S
Mn1044 O1060 2.297 . S
Mn1044 O1068 2.385 . S
Mn1044 O1069 2.209 . S
Mn1044 O1070 2.094 . S
Mn1045 O1050 2.121 . S
Mn1045 N1052 2.257 . S
Mn1045 N1061 2.282 . S
Mn1045 O1069 2.215 . S
Mn1045 O1071 2.117 . S
C1046 O1068 1.234 . S
C1046 O1069 1.283 . S
C1047 O1059 1.281 . S
C1047 O1060 1.236 . S
C1048 O1070 1.240 . S
C1048 O1071 1.264 . S
O1049 Mn1044 2.095 . S
O1049 C1058 1.250 . S
O1050 Mn1045 2.121 . S
O1050 C1058 1.258 . S
C1051 N1052 1.326 . S
C1051 C1055 1.460 . S
C1051 H1057 0.929 . S
N1052 Mn1045 2.257 . S
N1052 C1051 1.326 . S
N1052 C1056 1.362 . S
C1053 C1054 1.258 . S
C1053 C1056 1.431 . S
C1053 C1073 1.449 . S
C1054 C1053 1.258 . S
C1054 C1055 1.477 . S
C1054 H1074 0.931 . S
C1055 C1051 1.460 . S
C1055 C1054 1.477 . S
C1055 H1075 0.930 . S
C1056 N1052 1.362 . S
C1056 C1053 1.431 . S
C1056 C1066 1.476 . S
H1057 C1051 0.929 . S
C1058 O1049 1.250 . S
C1058 O1050 1.258 . S
O1059 Mn1044 2.162 . S
O1059 C1047 1.281 . S
O1060 Mn1044 2.297 . S
O1060 C1047 1.236 . S
N1061 Mn1045 2.282 . S
N1061 C1062 1.328 . S
N1061 C1066 1.318 . S
C1062 N1061 1.328 . S
C1062 C1063 1.457 . S
C1062 H1067 0.929 . S
C1063 C1062 1.457 . S
C1063 C1064 1.291 . S
C1063 H1076 0.931 . S
C1064 C1063 1.291 . S
C1064 C1065 1.373 . S
C1064 H1077 0.929 . S
C1065 C1064 1.373 . S
C1065 C1066 1.396 . S
C1065 C1072 1.403 . S
C1066 C1056 1.476 . S
C1066 N1061 1.318 . S
C1066 C1065 1.396 . S
H1067 C1062 0.929 . S
O1068 Mn1044 2.385 . S
O1068 C1046 1.234 . S
O1069 Mn1044 2.209 . S
O1069 Mn1045 2.215 . S
O1069 C1046 1.283 . S
O1070 Mn1044 2.094 . S
O1070 C1048 1.240 . S
O1071 Mn1045 2.117 . S
O1071 C1048 1.264 . S
C1072 C1065 1.403 . S
C1072 C1073 1.399 . S
C1072 H1078 0.929 . S
C1073 C1053 1.449 . S
C1073 C1072 1.399 . S
C1073 H1079 0.930 . S
H1074 C1054 0.931 . S
H1075 C1055 0.930 . S
H1076 C1063 0.931 . S
H1077 C1064 0.929 . S
H1078 C1072 0.929 . S
H1079 C1073 0.930 . S
Mn1080 O1085 2.095 . S
Mn1080 O1095 2.162 . S
Mn1080 O1096 2.297 . S
Mn1080 O1104 2.385 . S
Mn1080 O1105 2.209 . S
Mn1080 O1106 2.094 . S
Mn1081 O1086 2.121 . S
Mn1081 N1088 2.257 . S
Mn1081 N1097 2.282 . S
Mn1081 O1105 2.215 . S
Mn1081 O1107 2.117 . S
C1082 O1104 1.234 . S
C1082 O1105 1.283 . S
C1083 O1095 1.281 . S
C1083 O1096 1.236 . S
C1084 O1106 1.240 . S
C1084 O1107 1.264 . S
O1085 Mn1080 2.095 . S
O1085 C1094 1.250 . S
O1086 Mn1081 2.121 . S
O1086 C1094 1.258 . S
C1087 N1088 1.326 . S
C1087 C1091 1.460 . S
C1087 H1093 0.929 . S
N1088 Mn1081 2.257 . S
N1088 C1087 1.326 . S
N1088 C1092 1.362 . S
C1089 C1090 1.258 . S
C1089 C1092 1.431 . S
C1089 C1109 1.449 . S
C1090 C1089 1.258 . S
C1090 C1091 1.477 . S
C1090 H1110 0.931 . S
C1091 C1087 1.460 . S
C1091 C1090 1.477 . S
C1091 H1111 0.930 . S
C1092 N1088 1.362 . S
C1092 C1089 1.431 . S
C1092 C1102 1.476 . S
H1093 C1087 0.929 . S
C1094 O1085 1.250 . S
C1094 O1086 1.258 . S
O1095 Mn1080 2.162 . S
O1095 C1083 1.281 . S
O1096 Mn1080 2.297 . S
O1096 C1083 1.236 . S
N1097 Mn1081 2.282 . S
N1097 C1098 1.328 . S
N1097 C1102 1.318 . S
C1098 N1097 1.328 . S
C1098 C1099 1.457 . S
C1098 H1103 0.929 . S
C1099 C1098 1.457 . S
C1099 C1100 1.291 . S
C1099 H1112 0.931 . S
C1100 C1099 1.291 . S
C1100 C1101 1.373 . S
C1100 H1113 0.929 . S
C1101 C1100 1.373 . S
C1101 C1102 1.396 . S
C1101 C1108 1.403 . S
C1102 C1092 1.476 . S
C1102 N1097 1.318 . S
C1102 C1101 1.396 . S
H1103 C1098 0.929 . S
O1104 Mn1080 2.385 . S
O1104 C1082 1.234 . S
O1105 Mn1080 2.209 . S
O1105 Mn1081 2.215 . S
O1105 C1082 1.283 . S
O1106 Mn1080 2.094 . S
O1106 C1084 1.240 . S
O1107 Mn1081 2.117 . S
O1107 C1084 1.264 . S
C1108 C1101 1.403 . S
C1108 C1109 1.399 . S
C1108 H1114 0.929 . S
C1109 C1089 1.449 . S
C1109 C1108 1.399 . S
C1109 H1115 0.930 . S
H1110 C1090 0.931 . S
H1111 C1091 0.930 . S
H1112 C1099 0.931 . S
H1113 C1100 0.929 . S
H1114 C1108 0.929 . S
H1115 C1109 0.930 . S
Mn1116 O1121 2.095 . S
Mn1116 O1131 2.162 . S
Mn1116 O1132 2.297 . S
Mn1116 O1140 2.385 . S
Mn1116 O1141 2.209 . S
Mn1116 O1142 2.094 . S
Mn1117 O1122 2.121 . S
Mn1117 N1124 2.257 . S
Mn1117 N1133 2.282 . S
Mn1117 O1141 2.215 . S
Mn1117 O1143 2.117 . S
C1118 O1140 1.234 . S
C1118 O1141 1.283 . S
C1119 O1131 1.281 . S
C1119 O1132 1.236 . S
C1120 O1142 1.240 . S
C1120 O1143 1.264 . S
O1121 Mn1116 2.095 . S
O1121 C1130 1.250 . S
O1122 Mn1117 2.121 . S
O1122 C1130 1.258 . S
C1123 N1124 1.326 . S
C1123 C1127 1.460 . S
C1123 H1129 0.929 . S
N1124 Mn1117 2.257 . S
N1124 C1123 1.326 . S
N1124 C1128 1.362 . S
C1125 C1126 1.258 . S
C1125 C1128 1.431 . S
C1125 C1145 1.449 . S
C1126 C1125 1.258 . S
C1126 C1127 1.477 . S
C1126 H1146 0.931 . S
C1127 C1123 1.460 . S
C1127 C1126 1.477 . S
C1127 H1147 0.930 . S
C1128 N1124 1.362 . S
C1128 C1125 1.431 . S
C1128 C1138 1.476 . S
H1129 C1123 0.929 . S
C1130 O1121 1.250 . S
C1130 O1122 1.258 . S
O1131 Mn1116 2.162 . S
O1131 C1119 1.281 . S
O1132 Mn1116 2.297 . S
O1132 C1119 1.236 . S
N1133 Mn1117 2.282 . S
N1133 C1134 1.328 . S
N1133 C1138 1.318 . S
C1134 N1133 1.328 . S
C1134 C1135 1.457 . S
C1134 H1139 0.929 . S
C1135 C1134 1.457 . S
C1135 C1136 1.291 . S
C1135 H1148 0.931 . S
C1136 C1135 1.291 . S
C1136 C1137 1.373 . S
C1136 H1149 0.929 . S
C1137 C1136 1.373 . S
C1137 C1138 1.396 . S
C1137 C1144 1.403 . S
C1138 C1128 1.476 . S
C1138 N1133 1.318 . S
C1138 C1137 1.396 . S
H1139 C1134 0.929 . S
O1140 Mn1116 2.385 . S
O1140 C1118 1.234 . S
O1141 Mn1116 2.209 . S
O1141 Mn1117 2.215 . S
O1141 C1118 1.283 . S
O1142 Mn1116 2.094 . S
O1142 C1120 1.240 . S
O1143 Mn1117 2.117 . S
O1143 C1120 1.264 . S
C1144 C1137 1.403 . S
C1144 C1145 1.399 . S
C1144 H1150 0.929 . S
C1145 C1125 1.449 . S
C1145 C1144 1.399 . S
C1145 H1151 0.930 . S
H1146 C1126 0.931 . S
H1147 C1127 0.930 . S
H1148 C1135 0.931 . S
H1149 C1136 0.929 . S
H1150 C1144 0.929 . S
H1151 C1145 0.930 . S
Mn1152 O1157 2.095 . S
Mn1152 O1167 2.162 . S
Mn1152 O1168 2.297 . S
Mn1152 O1176 2.385 . S
Mn1152 O1177 2.209 . S
Mn1152 O1178 2.094 . S
Mn1153 O1158 2.121 . S
Mn1153 N1160 2.257 . S
Mn1153 N1169 2.282 . S
Mn1153 O1177 2.215 . S
Mn1153 O1179 2.117 . S
C1154 O1176 1.234 . S
C1154 O1177 1.283 . S
C1155 O1167 1.281 . S
C1155 O1168 1.236 . S
C1156 O1178 1.240 . S
C1156 O1179 1.264 . S
O1157 Mn1152 2.095 . S
O1157 C1166 1.250 . S
O1158 Mn1153 2.121 . S
O1158 C1166 1.258 . S
C1159 N1160 1.326 . S
C1159 C1163 1.460 . S
C1159 H1165 0.929 . S
N1160 Mn1153 2.257 . S
N1160 C1159 1.326 . S
N1160 C1164 1.362 . S
C1161 C1162 1.258 . S
C1161 C1164 1.431 . S
C1161 C1181 1.449 . S
C1162 C1161 1.258 . S
C1162 C1163 1.477 . S
C1162 H1182 0.931 . S
C1163 C1159 1.460 . S
C1163 C1162 1.477 . S
C1163 H1183 0.930 . S
C1164 N1160 1.362 . S
C1164 C1161 1.431 . S
C1164 C1174 1.476 . S
H1165 C1159 0.929 . S
C1166 O1157 1.250 . S
C1166 O1158 1.258 . S
O1167 Mn1152 2.162 . S
O1167 C1155 1.281 . S
O1168 Mn1152 2.297 . S
O1168 C1155 1.236 . S
N1169 Mn1153 2.282 . S
N1169 C1170 1.328 . S
N1169 C1174 1.318 . S
C1170 N1169 1.328 . S
C1170 C1171 1.457 . S
C1170 H1175 0.929 . S
C1171 C1170 1.457 . S
C1171 C1172 1.291 . S
C1171 H1184 0.931 . S
C1172 C1171 1.291 . S
C1172 C1173 1.373 . S
C1172 H1185 0.929 . S
C1173 C1172 1.373 . S
C1173 C1174 1.396 . S
C1173 C1180 1.403 . S
C1174 C1164 1.476 . S
C1174 N1169 1.318 . S
C1174 C1173 1.396 . S
H1175 C1170 0.929 . S
O1176 Mn1152 2.385 . S
O1176 C1154 1.234 . S
O1177 Mn1152 2.209 . S
O1177 Mn1153 2.215 . S
O1177 C1154 1.283 . S
O1178 Mn1152 2.094 . S
O1178 C1156 1.240 . S
O1179 Mn1153 2.117 . S
O1179 C1156 1.264 . S
C1180 C1173 1.403 . S
C1180 C1181 1.399 . S
C1180 H1186 0.929 . S
C1181 C1161 1.449 . S
C1181 C1180 1.399 . S
C1181 H1187 0.930 . S
H1182 C1162 0.931 . S
H1183 C1163 0.930 . S
H1184 C1171 0.931 . S
H1185 C1172 0.929 . S
H1186 C1180 0.929 . S
H1187 C1181 0.930 . S
Mn1188 O1193 2.095 . S
Mn1188 O1203 2.162 . S
Mn1188 O1204 2.297 . S
Mn1188 O1212 2.385 . S
Mn1188 O1213 2.209 . S
Mn1188 O1214 2.094 . S
Mn1189 O1194 2.121 . S
Mn1189 N1196 2.257 . S
Mn1189 N1205 2.282 . S
Mn1189 O1213 2.215 . S
Mn1189 O1215 2.117 . S
C1190 O1212 1.234 . S
C1190 O1213 1.283 . S
C1191 O1203 1.281 . S
C1191 O1204 1.236 . S
C1192 O1214 1.240 . S
C1192 O1215 1.264 . S
O1193 Mn1188 2.095 . S
O1193 C1202 1.250 . S
O1194 Mn1189 2.121 . S
O1194 C1202 1.258 . S
C1195 N1196 1.326 . S
C1195 C1199 1.460 . S
C1195 H1201 0.929 . S
N1196 Mn1189 2.257 . S
N1196 C1195 1.326 . S
N1196 C1200 1.362 . S
C1197 C1198 1.258 . S
C1197 C1200 1.431 . S
C1197 C1217 1.449 . S
C1198 C1197 1.258 . S
C1198 C1199 1.477 . S
C1198 H1218 0.931 . S
C1199 C1195 1.460 . S
C1199 C1198 1.477 . S
C1199 H1219 0.930 . S
C1200 N1196 1.362 . S
C1200 C1197 1.431 . S
C1200 C1210 1.476 . S
H1201 C1195 0.929 . S
C1202 O1193 1.250 . S
C1202 O1194 1.258 . S
O1203 Mn1188 2.162 . S
O1203 C1191 1.281 . S
O1204 Mn1188 2.297 . S
O1204 C1191 1.236 . S
N1205 Mn1189 2.282 . S
N1205 C1206 1.328 . S
N1205 C1210 1.318 . S
C1206 N1205 1.328 . S
C1206 C1207 1.457 . S
C1206 H1211 0.929 . S
C1207 C1206 1.457 . S
C1207 C1208 1.291 . S
C1207 H1220 0.931 . S
C1208 C1207 1.291 . S
C1208 C1209 1.373 . S
C1208 H1221 0.929 . S
C1209 C1208 1.373 . S
C1209 C1210 1.396 . S
C1209 C1216 1.403 . S
C1210 C1200 1.476 . S
C1210 N1205 1.318 . S
C1210 C1209 1.396 . S
H1211 C1206 0.929 . S
O1212 Mn1188 2.385 . S
O1212 C1190 1.234 . S
O1213 Mn1188 2.209 . S
O1213 Mn1189 2.215 . S
O1213 C1190 1.283 . S
O1214 Mn1188 2.094 . S
O1214 C1192 1.240 . S
O1215 Mn1189 2.117 . S
O1215 C1192 1.264 . S
C1216 C1209 1.403 . S
C1216 C1217 1.399 . S
C1216 H1222 0.929 . S
C1217 C1197 1.449 . S
C1217 C1216 1.399 . S
C1217 H1223 0.930 . S
H1218 C1198 0.931 . S
H1219 C1199 0.930 . S
H1220 C1207 0.931 . S
H1221 C1208 0.929 . S
H1222 C1216 0.929 . S
H1223 C1217 0.930 . S
Mn1224 O1229 2.095 . S
Mn1224 O1239 2.162 . S
Mn1224 O1240 2.297 . S
Mn1224 O1248 2.385 . S
Mn1224 O1249 2.209 . S
Mn1224 O1250 2.094 . S
Mn1225 O1230 2.121 . S
Mn1225 N1232 2.257 . S
Mn1225 N1241 2.282 . S
Mn1225 O1249 2.215 . S
Mn1225 O1251 2.117 . S
C1226 O1248 1.234 . S
C1226 O1249 1.283 . S
C1227 O1239 1.281 . S
C1227 O1240 1.236 . S
C1228 O1250 1.240 . S
C1228 O1251 1.264 . S
O1229 Mn1224 2.095 . S
O1229 C1238 1.250 . S
O1230 Mn1225 2.121 . S
O1230 C1238 1.258 . S
C1231 N1232 1.326 . S
C1231 C1235 1.460 . S
C1231 H1237 0.929 . S
N1232 Mn1225 2.257 . S
N1232 C1231 1.326 . S
N1232 C1236 1.362 . S
C1233 C1234 1.258 . S
C1233 C1236 1.431 . S
C1233 C1253 1.449 . S
C1234 C1233 1.258 . S
C1234 C1235 1.477 . S
C1234 H1254 0.931 . S
C1235 C1231 1.460 . S
C1235 C1234 1.477 . S
C1235 H1255 0.930 . S
C1236 N1232 1.362 . S
C1236 C1233 1.431 . S
C1236 C1246 1.476 . S
H1237 C1231 0.929 . S
C1238 O1229 1.250 . S
C1238 O1230 1.258 . S
O1239 Mn1224 2.162 . S
O1239 C1227 1.281 . S
O1240 Mn1224 2.297 . S
O1240 C1227 1.236 . S
N1241 Mn1225 2.282 . S
N1241 C1242 1.328 . S
N1241 C1246 1.318 . S
C1242 N1241 1.328 . S
C1242 C1243 1.457 . S
C1242 H1247 0.929 . S
C1243 C1242 1.457 . S
C1243 C1244 1.291 . S
C1243 H1256 0.931 . S
C1244 C1243 1.291 . S
C1244 C1245 1.373 . S
C1244 H1257 0.929 . S
C1245 C1244 1.373 . S
C1245 C1246 1.396 . S
C1245 C1252 1.403 . S
C1246 C1236 1.476 . S
C1246 N1241 1.318 . S
C1246 C1245 1.396 . S
H1247 C1242 0.929 . S
O1248 Mn1224 2.385 . S
O1248 C1226 1.234 . S
O1249 Mn1224 2.209 . S
O1249 Mn1225 2.215 . S
O1249 C1226 1.283 . S
O1250 Mn1224 2.094 . S
O1250 C1228 1.240 . S
O1251 Mn1225 2.117 . S
O1251 C1228 1.264 . S
C1252 C1245 1.403 . S
C1252 C1253 1.399 . S
C1252 H1258 0.929 . S
C1253 C1233 1.449 . S
C1253 C1252 1.399 . S
C1253 H1259 0.930 . S
H1254 C1234 0.931 . S
H1255 C1235 0.930 . S
H1256 C1243 0.931 . S
H1257 C1244 0.929 . S
H1258 C1252 0.929 . S
H1259 C1253 0.930 . S
Mn1260 O1265 2.095 . S
Mn1260 O1275 2.162 . S
Mn1260 O1276 2.297 . S
Mn1260 O1284 2.385 . S
Mn1260 O1285 2.209 . S
Mn1260 O1286 2.094 . S
Mn1261 O1266 2.121 . S
Mn1261 N1268 2.257 . S
Mn1261 N1277 2.282 . S
Mn1261 O1285 2.215 . S
Mn1261 O1287 2.117 . S
C1262 O1284 1.234 . S
C1262 O1285 1.283 . S
C1263 O1275 1.281 . S
C1263 O1276 1.236 . S
C1264 O1286 1.240 . S
C1264 O1287 1.264 . S
O1265 Mn1260 2.095 . S
O1265 C1274 1.250 . S
O1266 Mn1261 2.121 . S
O1266 C1274 1.258 . S
C1267 N1268 1.326 . S
C1267 C1271 1.460 . S
C1267 H1273 0.929 . S
N1268 Mn1261 2.257 . S
N1268 C1267 1.326 . S
N1268 C1272 1.362 . S
C1269 C1270 1.258 . S
C1269 C1272 1.431 . S
C1269 C1289 1.449 . S
C1270 C1269 1.258 . S
C1270 C1271 1.477 . S
C1270 H1290 0.931 . S
C1271 C1267 1.460 . S
C1271 C1270 1.477 . S
C1271 H1291 0.930 . S
C1272 N1268 1.362 . S
C1272 C1269 1.431 . S
C1272 C1282 1.476 . S
H1273 C1267 0.929 . S
C1274 O1265 1.250 . S
C1274 O1266 1.258 . S
O1275 Mn1260 2.162 . S
O1275 C1263 1.281 . S
O1276 Mn1260 2.297 . S
O1276 C1263 1.236 . S
N1277 Mn1261 2.282 . S
N1277 C1278 1.328 . S
N1277 C1282 1.318 . S
C1278 N1277 1.328 . S
C1278 C1279 1.457 . S
C1278 H1283 0.929 . S
C1279 C1278 1.457 . S
C1279 C1280 1.291 . S
C1279 H1292 0.931 . S
C1280 C1279 1.291 . S
C1280 C1281 1.373 . S
C1280 H1293 0.929 . S
C1281 C1280 1.373 . S
C1281 C1282 1.396 . S
C1281 C1288 1.403 . S
C1282 C1272 1.476 . S
C1282 N1277 1.318 . S
C1282 C1281 1.396 . S
H1283 C1278 0.929 . S
O1284 Mn1260 2.385 . S
O1284 C1262 1.234 . S
O1285 Mn1260 2.209 . S
O1285 Mn1261 2.215 . S
O1285 C1262 1.283 . S
O1286 Mn1260 2.094 . S
O1286 C1264 1.240 . S
O1287 Mn1261 2.117 . S
O1287 C1264 1.264 . S
C1288 C1281 1.403 . S
C1288 C1289 1.399 . S
C1288 H1294 0.929 . S
C1289 C1269 1.449 . S
C1289 C1288 1.399 . S
C1289 H1295 0.930 . S
H1290 C1270 0.931 . S
H1291 C1271 0.930 . S
H1292 C1279 0.931 . S
H1293 C1280 0.929 . S
H1294 C1288 0.929 . S
H1295 C1289 0.930 . S
H1296 C1304 0.950 . S
H1297 C1309 0.950 . S
H1298 C1306 0.950 . S
H1299 C1308 0.950 . S
H1300 C1310 0.950 . S
H1301 C1312 0.950 . S
H1302 C1314 0.950 . S
H1303 C1315 0.950 1_554 S
C1304 H1296 0.950 . S
C1304 C1305 1.386 . S
C1304 C1306 1.391 . S
C1305 C1304 1.386 . S
C1305 C1309 1.393 . S
C1306 H1298 0.950 . S
C1306 C1304 1.391 . S
C1306 C1307 1.400 . S
C1307 C1306 1.400 . S
C1307 C1308 1.398 . S
C1307 C1313 1.491 . S
C1308 H1299 0.950 . S
C1308 C1307 1.398 . S
C1308 C1309 1.391 . S
C1309 H1297 0.950 . S
C1309 C1305 1.393 . S
C1309 C1308 1.391 . S
C1310 H1300 0.950 . S
C1310 C1311 1.386 . S
C1310 C1312 1.391 . S
C1311 C1310 1.386 . S
C1311 C1315 1.393 . S
C1312 H1301 0.950 . S
C1312 C1310 1.391 . S
C1312 C1313 1.400 . S
C1313 C1307 1.491 . S
C1313 C1312 1.400 . S
C1313 C1314 1.398 . S
C1314 H1302 0.950 . S
C1314 C1313 1.398 . S
C1314 C1315 1.391 . S
C1315 H1303 0.950 1_556 S
C1315 C1311 1.393 . S
C1315 C1314 1.391 . S
H1316 C1324 0.950 . S
H1317 C1329 0.950 . S
H1318 C1326 0.950 . S
H1319 C1328 0.950 . S
H1320 C1330 0.950 1_554 S
H1321 C1332 0.950 . S
H1322 C1334 0.950 . S
H1323 C1335 0.950 . S
C1324 H1316 0.950 . S
C1324 C1325 1.386 . S
C1324 C1326 1.391 . S
C1325 C1324 1.386 . S
C1325 C1329 1.393 . S
C1326 H1318 0.950 . S
C1326 C1324 1.391 . S
C1326 C1327 1.400 . S
C1327 C1326 1.400 . S
C1327 C1328 1.398 . S
C1327 C1333 1.491 . S
C1328 H1319 0.950 . S
C1328 C1327 1.398 . S
C1328 C1329 1.391 . S
C1329 H1317 0.950 . S
C1329 C1325 1.393 . S
C1329 C1328 1.391 . S
C1330 H1320 0.950 1_556 S
C1330 C1331 1.386 . S
C1330 C1332 1.391 . S
C1331 C1330 1.386 . S
C1331 C1335 1.393 . S
C1332 H1321 0.950 . S
C1332 C1330 1.391 . S
C1332 C1333 1.400 . S
C1333 C1327 1.491 . S
C1333 C1332 1.400 . S
C1333 C1334 1.398 . S
C1334 H1322 0.950 . S
C1334 C1333 1.398 . S
C1334 C1335 1.391 . S
C1335 H1323 0.950 . S
C1335 C1331 1.393 . S
C1335 C1334 1.391 . S
H1336 C1344 0.935 1_554 S
H1337 C1349 0.950 . S
H1338 C1346 0.950 . S
H1339 C1348 0.950 . S
H1340 C1350 0.950 . S
H1341 C1352 0.950 . S
H1342 C1354 0.950 . S
H1343 C1355 0.950 . S
C1344 H1336 0.935 1_556 S
C1344 C1345 1.386 . S
C1344 C1346 1.391 . S
C1345 C1344 1.386 . S
C1345 C1349 1.393 . S
C1346 H1338 0.950 . S
C1346 C1344 1.391 . S
C1346 C1347 1.400 . S
C1347 C1346 1.400 . S
C1347 C1348 1.398 . S
C1347 C1353 1.491 . S
C1348 H1339 0.950 . S
C1348 C1347 1.398 . S
C1348 C1349 1.391 . S
C1349 H1337 0.950 . S
C1349 C1345 1.393 . S
C1349 C1348 1.391 . S
C1350 H1340 0.950 . S
C1350 C1351 1.386 . S
C1350 C1352 1.391 . S
C1351 C1350 1.386 . S
C1351 C1355 1.393 . S
C1352 H1341 0.950 . S
C1352 C1350 1.391 . S
C1352 C1353 1.400 . S
C1353 C1347 1.491 . S
C1353 C1352 1.400 . S
C1353 C1354 1.398 . S
C1354 H1342 0.950 . S
C1354 C1353 1.398 . S
C1354 C1355 1.391 . S
C1355 H1343 0.950 . S
C1355 C1351 1.393 . S
C1355 C1354 1.391 . S
H1356 C1364 0.950 . S
H1357 C1369 0.950 . S
H1358 C1366 0.950 . S
H1359 C1368 0.950 . S
H1360 C1370 0.950 . S
H1361 C1372 0.950 . S
H1362 C1374 0.950 . S
H1363 C1375 0.950 . S
C1364 H1356 0.950 . S
C1364 C1365 1.386 . S
C1364 C1366 1.391 . S
C1365 C1364 1.386 . S
C1365 C1369 1.393 . S
C1366 H1358 0.950 . S
C1366 C1364 1.391 . S
C1366 C1367 1.400 . S
C1367 C1366 1.400 . S
C1367 C1368 1.398 . S
C1367 C1373 1.491 . S
C1368 H1359 0.950 . S
C1368 C1367 1.398 . S
C1368 C1369 1.391 . S
C1369 H1357 0.950 . S
C1369 C1365 1.393 . S
C1369 C1368 1.391 . S
C1370 H1360 0.950 . S
C1370 C1371 1.386 . S
C1370 C1372 1.391 . S
C1371 C1370 1.386 . S
C1371 C1375 1.393 . S
C1372 H1361 0.950 . S
C1372 C1370 1.391 . S
C1372 C1373 1.400 . S
C1373 C1367 1.491 . S
C1373 C1372 1.400 . S
C1373 C1374 1.398 . S
C1374 H1362 0.950 . S
C1374 C1373 1.398 . S
C1374 C1375 1.391 . S
C1375 H1363 0.950 . S
C1375 C1371 1.393 . S
C1375 C1374 1.391 . S
H1376 C1384 0.950 . S
H1377 C1389 0.950 . S
H1378 C1386 0.950 . S
H1379 C1388 0.950 . S
H1380 C1390 0.950 . S
H1381 C1392 0.950 . S
H1382 C1394 0.950 . S
H1383 C1395 0.950 . S
C1384 H1376 0.950 . S
C1384 C1385 1.386 . S
C1384 C1386 1.391 . S
C1385 C1384 1.386 . S
C1385 C1389 1.393 . S
C1386 H1378 0.950 . S
C1386 C1384 1.391 . S
C1386 C1387 1.400 . S
C1387 C1386 1.400 . S
C1387 C1388 1.398 . S
C1387 C1393 1.491 . S
C1388 H1379 0.950 . S
C1388 C1387 1.398 . S
C1388 C1389 1.391 . S
C1389 H1377 0.950 . S
C1389 C1385 1.393 . S
C1389 C1388 1.391 . S
C1390 H1380 0.950 . S
C1390 C1391 1.386 . S
C1390 C1392 1.391 . S
C1391 C1390 1.386 . S
C1391 C1395 1.393 . S
C1392 H1381 0.950 . S
C1392 C1390 1.391 . S
C1392 C1393 1.400 . S
C1393 C1387 1.491 . S
C1393 C1392 1.400 . S
C1393 C1394 1.398 . S
C1394 H1382 0.950 . S
C1394 C1393 1.398 . S
C1394 C1395 1.391 . S
C1395 H1383 0.950 . S
C1395 C1391 1.393 . S
C1395 C1394 1.391 . S
H1396 C1404 0.950 . S
H1397 C1409 0.950 . S
H1398 C1406 0.950 . S
H1399 C1408 0.950 . S
H1400 C1410 0.950 . S
H1401 C1412 0.950 . S
H1402 C1414 0.950 . S
H1403 C1415 0.950 . S
C1404 H1396 0.950 . S
C1404 C1405 1.386 . S
C1404 C1406 1.391 . S
C1405 C1404 1.386 . S
C1405 C1409 1.393 . S
C1406 H1398 0.950 . S
C1406 C1404 1.391 . S
C1406 C1407 1.400 . S
C1407 C1406 1.400 . S
C1407 C1408 1.398 . S
C1407 C1413 1.491 . S
C1408 H1399 0.950 . S
C1408 C1407 1.398 . S
C1408 C1409 1.391 . S
C1409 H1397 0.950 . S
C1409 C1405 1.393 . S
C1409 C1408 1.391 . S
C1410 H1400 0.950 . S
C1410 C1411 1.386 . S
C1410 C1412 1.391 . S
C1411 C1410 1.386 . S
C1411 C1415 1.393 . S
C1412 H1401 0.950 . S
C1412 C1410 1.391 . S
C1412 C1413 1.400 . S
C1413 C1407 1.491 . S
C1413 C1412 1.400 . S
C1413 C1414 1.398 . S
C1414 H1402 0.950 . S
C1414 C1413 1.398 . S
C1414 C1415 1.391 . S
C1415 H1403 0.950 . S
C1415 C1411 1.393 . S
C1415 C1414 1.391 . S
H1416 C1424 0.950 . S
H1417 C1429 0.950 . S
H1418 C1426 0.950 . S
H1419 C1428 0.950 . S
H1420 C1430 0.950 1_556 S
H1421 C1432 0.950 . S
H1422 C1434 0.950 . S
H1423 C1435 0.950 . S
C1424 H1416 0.950 . S
C1424 C1425 1.386 . S
C1424 C1426 1.391 . S
C1425 C1424 1.386 . S
C1425 C1429 1.393 . S
C1426 H1418 0.950 . S
C1426 C1424 1.391 . S
C1426 C1427 1.400 . S
C1427 C1426 1.400 . S
C1427 C1428 1.398 . S
C1427 C1433 1.491 . S
C1428 H1419 0.950 . S
C1428 C1427 1.398 . S
C1428 C1429 1.391 . S
C1429 H1417 0.950 . S
C1429 C1425 1.393 . S
C1429 C1428 1.391 . S
C1430 H1420 0.950 1_554 S
C1430 C1431 1.386 . S
C1430 C1432 1.391 . S
C1431 C1430 1.386 . S
C1431 C1435 1.393 . S
C1432 H1421 0.950 . S
C1432 C1430 1.391 . S
C1432 C1433 1.400 . S
C1433 C1427 1.491 . S
C1433 C1432 1.400 . S
C1433 C1434 1.398 . S
C1434 H1422 0.950 . S
C1434 C1433 1.398 . S
C1434 C1435 1.391 . S
C1435 H1423 0.950 . S
C1435 C1431 1.393 . S
C1435 C1434 1.391 . S
H1436 C1444 0.950 . S
H1437 C1449 0.950 . S
H1438 C1446 0.950 . S
H1439 C1448 0.950 . S
H1440 C1450 0.950 . S
H1441 C1452 0.950 . S
H1442 C1454 0.950 . S
H1443 C1455 0.950 . S
C1444 H1436 0.950 . S
C1444 C1445 1.386 . S
C1444 C1446 1.391 . S
C1445 C1444 1.386 . S
C1445 C1449 1.393 . S
C1446 H1438 0.950 . S
C1446 C1444 1.391 . S
C1446 C1447 1.400 . S
C1447 C1446 1.400 . S
C1447 C1448 1.398 . S
C1447 C1453 1.491 . S
C1448 H1439 0.950 . S
C1448 C1447 1.398 . S
C1448 C1449 1.391 . S
C1449 H1437 0.950 . S
C1449 C1445 1.393 . S
C1449 C1448 1.391 . S
C1450 H1440 0.950 . S
C1450 C1451 1.386 . S
C1450 C1452 1.391 . S
C1451 C1450 1.386 . S
C1451 C1455 1.393 . S
C1452 H1441 0.950 . S
C1452 C1450 1.391 . S
C1452 C1453 1.400 . S
C1453 C1447 1.491 . S
C1453 C1452 1.400 . S
C1453 C1454 1.398 . S
C1454 H1442 0.950 . S
C1454 C1453 1.398 . S
C1454 C1455 1.391 . S
C1455 H1443 0.950 . S
C1455 C1451 1.393 . S
C1455 C1454 1.391 . S
H1456 C1464 0.950 . S
H1457 C1469 0.950 . S
H1458 C1466 0.950 . S
H1459 C1468 0.950 . S
H1460 C1470 0.950 1_556 S
H1461 C1472 0.950 . S
H1462 C1474 0.950 . S
H1463 C1475 0.950 . S
C1464 H1456 0.950 . S
C1464 C1465 1.386 . S
C1464 C1466 1.391 . S
C1465 C1464 1.386 . S
C1465 C1469 1.393 . S
C1466 H1458 0.950 . S
C1466 C1464 1.391 . S
C1466 C1467 1.400 . S
C1467 C1466 1.400 . S
C1467 C1468 1.398 . S
C1467 C1473 1.491 . S
C1468 H1459 0.950 . S
C1468 C1467 1.398 . S
C1468 C1469 1.391 . S
C1469 H1457 0.950 . S
C1469 C1465 1.393 . S
C1469 C1468 1.391 . S
C1470 H1460 0.950 1_554 S
C1470 C1471 1.386 . S
C1470 C1472 1.391 . S
C1471 C1470 1.386 . S
C1471 C1475 1.393 . S
C1472 H1461 0.950 . S
C1472 C1470 1.391 . S
C1472 C1473 1.400 . S
C1473 C1467 1.491 . S
C1473 C1472 1.400 . S
C1473 C1474 1.398 . S
C1474 H1462 0.950 . S
C1474 C1473 1.398 . S
C1474 C1475 1.391 . S
C1475 H1463 0.950 . S
C1475 C1471 1.393 . S
C1475 C1474 1.391 . S
H1476 C1484 0.950 . S
H1477 C1489 0.950 . S
H1478 C1486 0.950 . S
H1479 C1488 0.950 . S
H1480 C1490 0.950 . S
H1481 C1492 0.950 . S
H1482 C1494 0.950 . S
H1483 C1495 0.950 . S
C1484 H1476 0.950 . S
C1484 C1485 1.386 . S
C1484 C1486 1.391 . S
C1485 C1484 1.386 . S
C1485 C1489 1.393 . S
C1486 H1478 0.950 . S
C1486 C1484 1.391 . S
C1486 C1487 1.400 . S
C1487 C1486 1.400 . S
C1487 C1488 1.398 . S
C1487 C1493 1.491 . S
C1488 H1479 0.950 . S
C1488 C1487 1.398 . S
C1488 C1489 1.391 . S
C1489 H1477 0.950 . S
C1489 C1485 1.393 . S
C1489 C1488 1.391 . S
C1490 H1480 0.950 . S
C1490 C1491 1.386 . S
C1490 C1492 1.391 . S
C1491 C1490 1.386 . S
C1491 C1495 1.393 . S
C1492 H1481 0.950 . S
C1492 C1490 1.391 . S
C1492 C1493 1.400 . S
C1493 C1487 1.491 . S
C1493 C1492 1.400 . S
C1493 C1494 1.398 . S
C1494 H1482 0.950 . S
C1494 C1493 1.398 . S
C1494 C1495 1.391 . S
C1495 H1483 0.950 . S
C1495 C1491 1.393 . S
C1495 C1494 1.391 . S
H1496 C1504 0.950 . S
H1497 C1509 0.950 . S
H1498 C1506 0.950 . S
H1499 C1508 0.950 . S
H1500 C1510 0.950 . S
H1501 C1512 0.950 . S
H1502 C1514 0.950 . S
H1503 C1515 0.950 . S
C1504 H1496 0.950 . S
C1504 C1505 1.386 . S
C1504 C1506 1.391 . S
C1505 C1504 1.386 . S
C1505 C1509 1.393 . S
C1506 H1498 0.950 . S
C1506 C1504 1.391 . S
C1506 C1507 1.400 . S
C1507 C1506 1.400 . S
C1507 C1508 1.398 . S
C1507 C1513 1.491 . S
C1508 H1499 0.950 . S
C1508 C1507 1.398 . S
C1508 C1509 1.391 . S
C1509 H1497 0.950 . S
C1509 C1505 1.393 . S
C1509 C1508 1.391 . S
C1510 H1500 0.950 . S
C1510 C1511 1.386 . S
C1510 C1512 1.391 . S
C1511 C1510 1.386 . S
C1511 C1515 1.393 . S
C1512 H1501 0.950 . S
C1512 C1510 1.391 . S
C1512 C1513 1.400 . S
C1513 C1507 1.491 . S
C1513 C1512 1.400 . S
C1513 C1514 1.398 . S
C1514 H1502 0.950 . S
C1514 C1513 1.398 . S
C1514 C1515 1.391 . S
C1515 H1503 0.950 . S
C1515 C1511 1.393 . S
C1515 C1514 1.391 . S
H1516 C1524 0.950 . S
H1517 C1529 0.950 . S
H1518 C1526 0.950 . S
H1519 C1528 0.950 . S
H1520 C1530 0.950 . S
H1521 C1532 0.950 . S
H1522 C1534 0.950 . S
H1523 C1535 0.950 . S
C1524 H1516 0.950 . S
C1524 C1525 1.386 . S
C1524 C1526 1.391 . S
C1525 C1524 1.386 . S
C1525 C1529 1.393 . S
C1526 H1518 0.950 . S
C1526 C1524 1.391 . S
C1526 C1527 1.400 . S
C1527 C1526 1.400 . S
C1527 C1528 1.398 . S
C1527 C1533 1.491 . S
C1528 H1519 0.950 . S
C1528 C1527 1.398 . S
C1528 C1529 1.391 . S
C1529 H1517 0.950 . S
C1529 C1525 1.393 . S
C1529 C1528 1.391 . S
C1530 H1520 0.950 . S
C1530 C1531 1.386 . S
C1530 C1532 1.391 . S
C1531 C1530 1.386 . S
C1531 C1535 1.393 . S
C1532 H1521 0.950 . S
C1532 C1530 1.391 . S
C1532 C1533 1.400 . S
C1533 C1527 1.491 . S
C1533 C1532 1.400 . S
C1533 C1534 1.398 . S
C1534 H1522 0.950 . S
C1534 C1533 1.398 . S
C1534 C1535 1.391 . S
C1535 H1523 0.950 . S
C1535 C1531 1.393 . S
C1535 C1534 1.391 . S
H1536 C1544 0.950 . S
H1537 C1549 0.950 . S
H1538 C1546 0.950 . S
H1539 C1548 0.950 . S
H1540 C1550 0.950 . S
H1541 C1552 0.950 . S
H1542 C1554 0.950 . S
H1543 C1555 0.950 . S
C1544 H1536 0.950 . S
C1544 C1545 1.386 . S
C1544 C1546 1.391 . S
C1545 C1544 1.386 . S
C1545 C1549 1.393 . S
C1546 H1538 0.950 . S
C1546 C1544 1.391 . S
C1546 C1547 1.400 . S
C1547 C1546 1.400 . S
C1547 C1548 1.398 . S
C1547 C1553 1.491 1_455 S
C1548 H1539 0.950 . S
C1548 C1547 1.398 . S
C1548 C1549 1.391 . S
C1549 H1537 0.950 . S
C1549 C1545 1.393 . S
C1549 C1548 1.391 . S
C1550 H1540 0.950 . S
C1550 C1551 1.386 . S
C1550 C1552 1.391 . S
C1551 C1550 1.386 . S
C1551 C1555 1.393 . S
C1552 H1541 0.950 . S
C1552 C1550 1.391 . S
C1552 C1553 1.400 . S
C1553 C1547 1.491 1_655 S
C1553 C1552 1.400 . S
C1553 C1554 1.398 . S
C1554 H1542 0.950 . S
C1554 C1553 1.398 . S
C1554 C1555 1.391 . S
C1555 H1543 0.950 . S
C1555 C1551 1.393 . S
C1555 C1554 1.391 . S
H1556 C1564 0.950 . S
H1557 C1569 0.950 . S
H1558 C1566 0.950 . S
H1559 C1568 0.950 . S
H1560 C1570 0.950 . S
H1561 C1572 0.950 . S
H1562 C1574 0.950 . S
H1563 C1575 0.950 . S
C1564 H1556 0.950 . S
C1564 C1565 1.386 . S
C1564 C1566 1.391 . S
C1565 C1564 1.386 . S
C1565 C1569 1.393 . S
C1566 H1558 0.950 . S
C1566 C1564 1.391 . S
C1566 C1567 1.400 . S
C1567 C1566 1.400 . S
C1567 C1568 1.398 . S
C1567 C1573 1.491 . S
C1568 H1559 0.950 . S
C1568 C1567 1.398 . S
C1568 C1569 1.391 . S
C1569 H1557 0.950 . S
C1569 C1565 1.393 . S
C1569 C1568 1.391 . S
C1570 H1560 0.950 . S
C1570 C1571 1.386 . S
C1570 C1572 1.391 . S
C1571 C1570 1.386 . S
C1571 C1575 1.393 . S
C1572 H1561 0.950 . S
C1572 C1570 1.391 . S
C1572 C1573 1.400 . S
C1573 C1567 1.491 . S
C1573 C1572 1.400 . S
C1573 C1574 1.398 . S
C1574 H1562 0.950 . S
C1574 C1573 1.398 . S
C1574 C1575 1.391 . S
C1575 H1563 0.950 . S
C1575 C1571 1.393 . S
C1575 C1574 1.391 . S
H1576 C1584 0.950 . S
H1577 C1589 0.950 . S
H1578 C1586 0.950 . S
H1579 C1588 0.950 . S
H1580 C1590 0.950 . S
H1581 C1592 0.950 . S
H1582 C1594 0.950 . S
H1583 C1595 0.950 . S
C1584 H1576 0.950 . S
C1584 C1585 1.386 . S
C1584 C1586 1.391 . S
C1585 C1584 1.386 . S
C1585 C1589 1.393 . S
C1586 H1578 0.950 . S
C1586 C1584 1.391 . S
C1586 C1587 1.400 . S
C1587 C1586 1.400 . S
C1587 C1588 1.398 . S
C1587 C1593 1.491 1_565 S
C1588 H1579 0.950 . S
C1588 C1587 1.398 . S
C1588 C1589 1.391 . S
C1589 H1577 0.950 . S
C1589 C1585 1.393 . S
C1589 C1588 1.391 . S
C1590 H1580 0.950 . S
C1590 C1591 1.386 . S
C1590 C1592 1.391 . S
C1591 C1590 1.386 . S
C1591 C1595 1.393 . S
C1592 H1581 0.950 . S
C1592 C1590 1.391 . S
C1592 C1593 1.400 . S
C1593 C1587 1.491 1_545 S
C1593 C1592 1.400 . S
C1593 C1594 1.398 . S
C1594 H1582 0.950 . S
C1594 C1593 1.398 . S
C1594 C1595 1.391 . S
C1595 H1583 0.950 . S
C1595 C1591 1.393 . S
C1595 C1594 1.391 . S
H1596 C1604 0.950 . S
H1597 C1609 0.950 . S
H1598 C1606 0.950 . S
H1599 C1608 0.950 . S
H1600 C1610 0.950 . S
H1601 C1612 0.950 . S
H1602 C1614 0.950 . S
H1603 C1615 0.950 . S
C1604 H1596 0.950 . S
C1604 C1605 1.386 . S
C1604 C1606 1.391 . S
C1605 C1604 1.386 . S
C1605 C1609 1.393 . S
C1606 H1598 0.950 . S
C1606 C1604 1.391 . S
C1606 C1607 1.400 . S
C1607 C1606 1.400 . S
C1607 C1608 1.398 . S
C1607 C1613 1.491 1_565 S
C1608 H1599 0.950 . S
C1608 C1607 1.398 . S
C1608 C1609 1.391 . S
C1609 H1597 0.950 . S
C1609 C1605 1.393 . S
C1609 C1608 1.391 . S
C1610 H1600 0.950 . S
C1610 C1611 1.386 . S
C1610 C1612 1.391 . S
C1611 C1610 1.386 . S
C1611 C1615 1.393 . S
C1612 H1601 0.950 . S
C1612 C1610 1.391 . S
C1612 C1613 1.400 . S
C1613 C1607 1.491 1_545 S
C1613 C1612 1.400 . S
C1613 C1614 1.398 . S
C1614 H1602 0.950 . S
C1614 C1613 1.398 . S
C1614 C1615 1.391 . S
C1615 H1603 0.950 . S
C1615 C1611 1.393 . S
C1615 C1614 1.391 . S
H1616 C1624 0.950 . S
H1617 C1629 0.950 . S
H1618 C1626 0.950 1_655 S
H1619 C1628 0.950 . S
H1620 C1630 0.950 . S
H1621 C1632 0.950 1_455 S
H1622 C1634 0.950 . S
H1623 C1635 0.950 . S
C1624 H1616 0.950 . S
C1624 C1625 1.386 . S
C1624 C1626 1.391 . S
C1625 C1624 1.386 . S
C1625 C1629 1.393 . S
C1626 H1618 0.950 1_455 S
C1626 C1624 1.391 . S
C1626 C1627 1.400 . S
C1627 C1626 1.400 . S
C1627 C1628 1.398 . S
C1627 C1633 1.491 1_455 S
C1628 H1619 0.950 . S
C1628 C1627 1.398 . S
C1628 C1629 1.391 . S
C1629 H1617 0.950 . S
C1629 C1625 1.393 . S
C1629 C1628 1.391 . S
C1630 H1620 0.950 . S
C1630 C1631 1.386 . S
C1630 C1632 1.391 . S
C1631 C1630 1.386 . S
C1631 C1635 1.393 . S
C1632 H1621 0.950 1_655 S
C1632 C1630 1.391 . S
C1632 C1633 1.400 . S
C1633 C1627 1.491 1_655 S
C1633 C1632 1.400 . S
C1633 C1634 1.398 . S
C1634 H1622 0.950 . S
C1634 C1633 1.398 . S
C1634 C1635 1.391 . S
C1635 H1623 0.950 . S
C1635 C1631 1.393 . S
C1635 C1634 1.391 . S
H1636 C1644 0.950 . S
H1637 C1649 0.950 . S
H1638 C1646 0.950 . S
H1639 C1648 0.950 . S
H1640 C1650 0.950 . S
H1641 C1652 0.950 . S
H1642 C1654 0.950 . S
H1643 C1655 0.950 . S
C1644 H1636 0.950 . S
C1644 C1645 1.386 . S
C1644 C1646 1.391 . S
C1645 C1644 1.386 . S
C1645 C1649 1.393 . S
C1646 H1638 0.950 . S
C1646 C1644 1.391 . S
C1646 C1647 1.400 . S
C1647 C1646 1.400 . S
C1647 C1648 1.398 . S
C1647 C1653 1.491 . S
C1648 H1639 0.950 . S
C1648 C1647 1.398 . S
C1648 C1649 1.391 . S
C1649 H1637 0.950 . S
C1649 C1645 1.393 . S
C1649 C1648 1.391 . S
C1650 H1640 0.950 . S
C1650 C1651 1.386 . S
C1650 C1652 1.391 . S
C1651 C1650 1.386 . S
C1651 C1655 1.393 . S
C1652 H1641 0.950 . S
C1652 C1650 1.391 . S
C1652 C1653 1.400 . S
C1653 C1647 1.491 . S
C1653 C1652 1.400 . S
C1653 C1654 1.398 . S
C1654 H1642 0.950 . S
C1654 C1653 1.398 . S
C1654 C1655 1.391 . S
C1655 H1643 0.950 . S
C1655 C1651 1.393 . S
C1655 C1654 1.391 . S
H1656 C1664 0.950 . S
H1657 C1669 0.950 . S
H1658 C1666 0.950 . S
H1659 C1668 0.950 . S
H1660 C1670 0.950 . S
H1661 C1672 0.950 . S
H1662 C1674 0.950 . S
H1663 C1675 0.950 . S
C1664 H1656 0.950 . S
C1664 C1665 1.386 1_554 S
C1664 C1666 1.391 . S
C1665 C1664 1.386 1_556 S
C1665 C1669 1.393 . S
C1666 H1658 0.950 . S
C1666 C1664 1.391 . S
C1666 C1667 1.400 . S
C1667 C1666 1.400 . S
C1667 C1668 1.398 1_554 S
C1667 C1673 1.491 . S
C1668 H1659 0.950 . S
C1668 C1667 1.398 1_556 S
C1668 C1669 1.391 . S
C1669 H1657 0.950 . S
C1669 C1665 1.393 . S
C1669 C1668 1.391 . S
C1670 H1660 0.950 . S
C1670 C1671 1.386 1_556 S
C1670 C1672 1.391 . S
C1671 C1670 1.386 1_554 S
C1671 C1675 1.393 . S
C1672 H1661 0.950 . S
C1672 C1670 1.391 . S
C1672 C1673 1.400 1_556 S
C1673 C1667 1.491 . S
C1673 C1672 1.400 1_554 S
C1673 C1674 1.398 . S
C1674 H1662 0.950 . S
C1674 C1673 1.398 . S
C1674 C1675 1.391 . S
C1675 H1663 0.950 . S
C1675 C1671 1.393 . S
C1675 C1674 1.391 . S
H1676 C1684 0.950 . S
H1677 C1689 0.950 . S
H1678 C1686 0.950 . S
H1679 C1688 0.950 . S
H1680 C1690 0.950 . S
H1681 C1692 0.950 . S
H1682 C1694 0.950 . S
H1683 C1695 0.950 . S
C1684 H1676 0.950 . S
C1684 C1685 1.386 . S
C1684 C1686 1.391 . S
C1685 C1684 1.386 . S
C1685 C1689 1.393 1_556 S
C1686 H1678 0.950 . S
C1686 C1684 1.391 . S
C1686 C1687 1.400 1_556 S
C1687 C1686 1.400 1_554 S
C1687 C1688 1.398 . S
C1687 C1693 1.491 . S
C1688 H1679 0.950 . S
C1688 C1687 1.398 . S
C1688 C1689 1.391 . S
C1689 H1677 0.950 . S
C1689 C1685 1.393 1_554 S
C1689 C1688 1.391 . S
C1690 H1680 0.950 . S
C1690 C1691 1.386 . S
C1690 C1692 1.391 . S
C1691 C1690 1.386 . S
C1691 C1695 1.393 1_554 S
C1692 H1681 0.950 . S
C1692 C1690 1.391 . S
C1692 C1693 1.400 . S
C1693 C1687 1.491 . S
C1693 C1692 1.400 . S
C1693 C1694 1.398 1_554 S
C1694 H1682 0.950 . S
C1694 C1693 1.398 1_556 S
C1694 C1695 1.391 . S
C1695 H1683 0.950 . S
C1695 C1691 1.393 1_556 S
C1695 C1694 1.391 . S
H1696 C1704 0.950 . S
H1697 C1709 0.950 . S
H1698 C1706 0.950 . S
H1699 C1708 0.950 . S
H1700 C1710 0.950 . S
H1701 C1712 0.950 . S
H1702 C1714 0.950 . S
H1703 C1715 0.949 . S
C1704 H1696 0.950 . S
C1704 C1705 1.386 . S
C1704 C1706 1.391 . S
C1705 C1704 1.386 . S
C1705 C1709 1.393 1_556 S
C1706 H1698 0.950 . S
C1706 C1704 1.391 . S
C1706 C1707 1.400 1_556 S
C1707 C1706 1.400 1_554 S
C1707 C1708 1.398 . S
C1707 C1713 1.491 . S
C1708 H1699 0.950 . S
C1708 C1707 1.398 . S
C1708 C1709 1.391 . S
C1709 H1697 0.950 . S
C1709 C1705 1.393 1_554 S
C1709 C1708 1.391 . S
C1710 H1700 0.950 . S
C1710 C1711 1.386 . S
C1710 C1712 1.391 . S
C1711 C1710 1.386 . S
C1711 C1715 1.394 1_554 S
C1712 H1701 0.950 . S
C1712 C1710 1.391 . S
C1712 C1713 1.400 . S
C1713 C1707 1.491 . S
C1713 C1712 1.400 . S
C1713 C1714 1.398 1_554 S
C1714 H1702 0.950 . S
C1714 C1713 1.398 1_556 S
C1714 C1715 1.390 . S
C1715 H1703 0.949 . S
C1715 C1711 1.394 1_556 S
C1715 C1714 1.390 . S
H1716 C1724 0.950 . S
H1717 C1729 0.950 . S
H1718 C1726 0.950 . S
H1719 C1728 0.950 . S
H1720 C1730 0.950 . S
H1721 C1732 0.950 . S
H1722 C1734 0.950 . S
H1723 C1735 0.950 . S
C1724 H1716 0.950 . S
C1724 C1725 1.386 . S
C1724 C1726 1.391 . S
C1725 C1724 1.386 . S
C1725 C1729 1.393 . S
C1726 H1718 0.950 . S
C1726 C1724 1.391 . S
C1726 C1727 1.400 . S
C1727 C1726 1.400 . S
C1727 C1728 1.398 . S
C1727 C1733 1.491 . S
C1728 H1719 0.950 . S
C1728 C1727 1.398 . S
C1728 C1729 1.391 . S
C1729 H1717 0.950 . S
C1729 C1725 1.393 . S
C1729 C1728 1.391 . S
C1730 H1720 0.950 . S
C1730 C1731 1.386 . S
C1730 C1732 1.391 . S
C1731 C1730 1.386 . S
C1731 C1735 1.393 . S
C1732 H1721 0.950 . S
C1732 C1730 1.391 . S
C1732 C1733 1.400 . S
C1733 C1727 1.491 . S
C1733 C1732 1.400 . S
C1733 C1734 1.398 . S
C1734 H1722 0.950 . S
C1734 C1733 1.398 . S
C1734 C1735 1.391 . S
C1735 H1723 0.950 . S
C1735 C1731 1.393 . S
C1735 C1734 1.391 . S
H1736 C1744 0.950 . S
H1737 C1749 0.950 . S
H1738 C1746 0.950 . S
H1739 C1748 0.950 . S
H1740 C1750 0.950 . S
H1741 C1752 0.950 . S
H1742 C1754 0.950 . S
H1743 C1755 0.950 . S
C1744 H1736 0.950 . S
C1744 C1745 1.386 . S
C1744 C1746 1.391 . S
C1745 C1744 1.386 . S
C1745 C1749 1.393 . S
C1746 H1738 0.950 . S
C1746 C1744 1.391 . S
C1746 C1747 1.400 . S
C1747 C1746 1.400 . S
C1747 C1748 1.398 . S
C1747 C1753 1.491 . S
C1748 H1739 0.950 . S
C1748 C1747 1.398 . S
C1748 C1749 1.391 . S
C1749 H1737 0.950 . S
C1749 C1745 1.393 . S
C1749 C1748 1.391 . S
C1750 H1740 0.950 . S
C1750 C1751 1.386 . S
C1750 C1752 1.391 . S
C1751 C1750 1.386 . S
C1751 C1755 1.393 . S
C1752 H1741 0.950 . S
C1752 C1750 1.391 . S
C1752 C1753 1.400 . S
C1753 C1747 1.491 . S
C1753 C1752 1.400 . S
C1753 C1754 1.398 . S
C1754 H1742 0.950 . S
C1754 C1753 1.398 . S
C1754 C1755 1.391 . S
C1755 H1743 0.950 . S
C1755 C1751 1.393 . S
C1755 C1754 1.391 . S
H1756 C1764 0.950 . S
H1757 C1769 0.950 . S
H1758 C1766 0.950 . S
H1759 C1768 0.950 . S
H1760 C1770 0.950 . S
H1761 C1772 0.950 . S
H1762 C1774 0.950 . S
H1763 C1775 0.950 . S
C1764 H1756 0.950 . S
C1764 C1765 1.386 . S
C1764 C1766 1.391 . S
C1765 C1764 1.386 . S
C1765 C1769 1.393 . S
C1766 H1758 0.950 . S
C1766 C1764 1.391 . S
C1766 C1767 1.400 . S
C1767 C1766 1.400 . S
C1767 C1768 1.398 . S
C1767 C1773 1.491 . S
C1768 H1759 0.950 . S
C1768 C1767 1.398 . S
C1768 C1769 1.391 . S
C1769 H1757 0.950 . S
C1769 C1765 1.393 . S
C1769 C1768 1.391 . S
C1770 H1760 0.950 . S
C1770 C1771 1.386 . S
C1770 C1772 1.391 . S
C1771 C1770 1.386 . S
C1771 C1775 1.393 . S
C1772 H1761 0.950 . S
C1772 C1770 1.391 . S
C1772 C1773 1.400 . S
C1773 C1767 1.491 . S
C1773 C1772 1.400 . S
C1773 C1774 1.398 . S
C1774 H1762 0.950 . S
C1774 C1773 1.398 . S
C1774 C1775 1.391 . S
C1775 H1763 0.950 . S
C1775 C1771 1.393 . S
C1775 C1774 1.391 . S
H1776 C1784 0.950 . S
H1777 C1789 0.950 . S
H1778 C1786 0.950 . S
H1779 C1788 0.950 . S
H1780 C1790 0.950 . S
H1781 C1792 0.950 . S
H1782 C1794 0.950 . S
H1783 C1795 0.950 . S
C1784 H1776 0.950 . S
C1784 C1785 1.386 . S
C1784 C1786 1.391 . S
C1785 C1784 1.386 . S
C1785 C1789 1.393 1_554 S
C1786 H1778 0.950 . S
C1786 C1784 1.391 . S
C1786 C1787 1.400 1_554 S
C1787 C1786 1.400 1_556 S
C1787 C1788 1.398 . S
C1787 C1793 1.491 . S
C1788 H1779 0.950 . S
C1788 C1787 1.398 . S
C1788 C1789 1.391 . S
C1789 H1777 0.950 . S
C1789 C1785 1.393 1_556 S
C1789 C1788 1.391 . S
C1790 H1780 0.950 . S
C1790 C1791 1.386 . S
C1790 C1792 1.391 . S
C1791 C1790 1.386 . S
C1791 C1795 1.393 1_556 S
C1792 H1781 0.950 . S
C1792 C1790 1.391 . S
C1792 C1793 1.400 . S
C1793 C1787 1.491 . S
C1793 C1792 1.400 . S
C1793 C1794 1.398 1_556 S
C1794 H1782 0.950 . S
C1794 C1793 1.398 1_554 S
C1794 C1795 1.391 . S
C1795 H1783 0.950 . S
C1795 C1791 1.393 1_554 S
C1795 C1794 1.391 . S
H1796 C1804 0.950 . S
H1797 C1809 0.950 1_554 S
H1798 C1806 0.950 . S
H1799 C1808 0.950 . S
H1800 C1810 0.950 . S
H1801 C1812 0.950 . S
H1802 C1814 0.950 . S
H1803 C1815 0.950 . S
C1804 H1796 0.950 . S
C1804 C1805 1.386 . S
C1804 C1806 1.391 . S
C1805 C1804 1.386 . S
C1805 C1809 1.393 . S
C1806 H1798 0.950 . S
C1806 C1804 1.391 . S
C1806 C1807 1.400 . S
C1807 C1806 1.400 . S
C1807 C1808 1.398 1_556 S
C1807 C1813 1.500 . S
C1808 H1799 0.950 . S
C1808 C1807 1.398 1_554 S
C1808 C1809 1.391 1_554 S
C1809 H1797 0.950 1_556 S
C1809 C1805 1.393 . S
C1809 C1808 1.391 1_556 S
C1810 H1800 0.950 . S
C1810 C1811 1.386 . S
C1810 C1812 1.391 . S
C1811 C1810 1.386 . S
C1811 C1815 1.393 1_554 S
C1812 H1801 0.950 . S
C1812 C1810 1.391 . S
C1812 C1813 1.376 1_554 S
C1813 C1807 1.500 . S
C1813 C1812 1.376 1_556 S
C1813 C1814 1.413 . S
C1814 H1802 0.950 . S
C1814 C1813 1.413 . S
C1814 C1815 1.391 . S
C1815 H1803 0.950 . S
C1815 C1811 1.393 1_556 S
C1815 C1814 1.391 . S
H1816 C1824 0.950 . S
H1817 C1829 0.950 . S
H1818 C1826 0.950 . S
H1819 C1828 0.950 . S
H1820 C1830 0.950 1_554 S
H1821 C1832 0.950 . S
H1822 C1834 0.950 . S
H1823 C1835 0.950 . S
C1824 H1816 0.950 . S
C1824 C1825 1.386 1_556 S
C1824 C1826 1.391 . S
C1825 C1824 1.386 1_554 S
C1825 C1829 1.393 . S
C1826 H1818 0.950 . S
C1826 C1824 1.391 . S
C1826 C1827 1.413 . S
C1827 C1826 1.413 . S
C1827 C1828 1.377 1_556 S
C1827 C1833 1.499 . S
C1828 H1819 0.950 . S
C1828 C1827 1.377 1_554 S
C1828 C1829 1.391 . S
C1829 H1817 0.950 . S
C1829 C1825 1.393 . S
C1829 C1828 1.391 . S
C1830 H1820 0.950 1_556 S
C1830 C1831 1.386 . S
C1830 C1832 1.391 1_556 S
C1831 C1830 1.386 . S
C1831 C1835 1.393 . S
C1832 H1821 0.950 . S
C1832 C1830 1.391 1_554 S
C1832 C1833 1.400 1_554 S
C1833 C1827 1.499 . S
C1833 C1832 1.400 1_556 S
C1833 C1834 1.398 . S
C1834 H1822 0.950 . S
C1834 C1833 1.398 . S
C1834 C1835 1.391 . S
C1835 H1823 0.950 . S
C1835 C1831 1.393 . S
C1835 C1834 1.391 . S
H1836 C1844 0.950 . S
H1837 C1849 0.950 . S
H1838 C1846 0.950 . S
H1839 C1848 0.950 . S
H1840 C1850 0.950 . S
H1841 C1852 0.950 . S
H1842 C1854 0.950 . S
H1843 C1855 0.950 . S
C1844 H1836 0.950 . S
C1844 C1845 1.386 . S
C1844 C1846 1.391 . S
C1845 C1844 1.386 . S
C1845 C1849 1.393 . S
C1846 H1838 0.950 . S
C1846 C1844 1.391 . S
C1846 C1847 1.400 . S
C1847 C1846 1.400 . S
C1847 C1848 1.398 . S
C1847 C1853 1.491 . S
C1848 H1839 0.950 . S
C1848 C1847 1.398 . S
C1848 C1849 1.391 . S
C1849 H1837 0.950 . S
C1849 C1845 1.393 . S
C1849 C1848 1.391 . S
C1850 H1840 0.950 . S
C1850 C1851 1.386 . S
C1850 C1852 1.391 . S
C1851 C1850 1.386 . S
C1851 C1855 1.393 . S
C1852 H1841 0.950 . S
C1852 C1850 1.391 . S
C1852 C1853 1.400 . S
C1853 C1847 1.491 . S
C1853 C1852 1.400 . S
C1853 C1854 1.398 . S
C1854 H1842 0.950 . S
C1854 C1853 1.398 . S
C1854 C1855 1.391 . S
C1855 H1843 0.950 . S
C1855 C1851 1.393 . S
C1855 C1854 1.391 . S
H1856 C1864 0.950 . S
H1857 C1869 0.950 . S
H1858 C1866 0.950 . S
H1859 C1868 0.950 . S
H1860 C1870 0.950 . S
H1861 C1872 0.950 . S
H1862 C1874 0.950 . S
H1863 C1875 0.950 . S
C1864 H1856 0.950 . S
C1864 C1865 1.386 . S
C1864 C1866 1.391 . S
C1865 C1864 1.386 . S
C1865 C1869 1.393 . S
C1866 H1858 0.950 . S
C1866 C1864 1.391 . S
C1866 C1867 1.400 . S
C1867 C1866 1.400 . S
C1867 C1868 1.398 . S
C1867 C1873 1.491 . S
C1868 H1859 0.950 . S
C1868 C1867 1.398 . S
C1868 C1869 1.391 . S
C1869 H1857 0.950 . S
C1869 C1865 1.393 . S
C1869 C1868 1.391 . S
C1870 H1860 0.950 . S
C1870 C1871 1.386 . S
C1870 C1872 1.391 . S
C1871 C1870 1.386 . S
C1871 C1875 1.393 . S
C1872 H1861 0.950 . S
C1872 C1870 1.391 . S
C1872 C1873 1.400 . S
C1873 C1867 1.491 . S
C1873 C1872 1.400 . S
C1873 C1874 1.398 . S
C1874 H1862 0.950 . S
C1874 C1873 1.398 . S
C1874 C1875 1.391 . S
C1875 H1863 0.950 . S
C1875 C1871 1.393 . S
C1875 C1874 1.391 . S
H1876 C1884 0.950 . S
H1877 C1889 0.950 . S
H1878 C1886 0.950 . S
H1879 C1888 0.950 . S
H1880 C1890 0.950 . S
H1881 C1892 0.950 . S
H1882 C1894 0.950 . S
H1883 C1895 0.950 . S
C1884 H1876 0.950 . S
C1884 C1885 1.386 . S
C1884 C1886 1.391 . S
C1885 C1884 1.386 . S
C1885 C1889 1.393 . S
C1886 H1878 0.950 . S
C1886 C1884 1.391 . S
C1886 C1887 1.400 . S
C1887 C1886 1.400 . S
C1887 C1888 1.398 . S
C1887 C1893 1.491 . S
C1888 H1879 0.950 . S
C1888 C1887 1.398 . S
C1888 C1889 1.391 . S
C1889 H1877 0.950 . S
C1889 C1885 1.393 . S
C1889 C1888 1.391 . S
C1890 H1880 0.950 . S
C1890 C1891 1.386 . S
C1890 C1892 1.391 . S
C1891 C1890 1.386 . S
C1891 C1895 1.393 . S
C1892 H1881 0.950 . S
C1892 C1890 1.391 . S
C1892 C1893 1.400 . S
C1893 C1887 1.491 . S
C1893 C1892 1.400 . S
C1893 C1894 1.398 . S
C1894 H1882 0.950 . S
C1894 C1893 1.398 . S
C1894 C1895 1.391 . S
C1895 H1883 0.950 . S
C1895 C1891 1.393 . S
C1895 C1894 1.391 . S
H1896 C1904 0.950 . S
H1897 C1909 0.950 . S
H1898 C1906 0.950 . S
H1899 C1908 0.950 . S
H1900 C1910 0.950 . S
H1901 C1912 0.950 . S
H1902 C1914 0.950 . S
H1903 C1915 0.950 . S
C1904 H1896 0.950 . S
C1904 C1905 1.386 . S
C1904 C1906 1.391 . S
C1905 C1904 1.386 . S
C1905 C1909 1.393 . S
C1906 H1898 0.950 . S
C1906 C1904 1.391 . S
C1906 C1907 1.400 . S
C1907 C1906 1.400 . S
C1907 C1908 1.398 . S
C1907 C1913 1.491 . S
C1908 H1899 0.950 . S
C1908 C1907 1.398 . S
C1908 C1909 1.391 . S
C1909 H1897 0.950 . S
C1909 C1905 1.393 . S
C1909 C1908 1.391 . S
C1910 H1900 0.950 . S
C1910 C1911 1.386 . S
C1910 C1912 1.391 . S
C1911 C1910 1.386 . S
C1911 C1915 1.393 . S
C1912 H1901 0.950 . S
C1912 C1910 1.391 . S
C1912 C1913 1.400 . S
C1913 C1907 1.491 . S
C1913 C1912 1.400 . S
C1913 C1914 1.398 . S
C1914 H1902 0.950 . S
C1914 C1913 1.398 . S
C1914 C1915 1.391 . S
C1915 H1903 0.950 . S
C1915 C1911 1.393 . S
C1915 C1914 1.391 . S
H1916 C1924 0.950 . S
H1917 C1929 0.950 . S
H1918 C1926 0.950 . S
H1919 C1928 0.950 . S
H1920 C1930 0.950 . S
H1921 C1932 0.950 . S
H1922 C1934 0.950 . S
H1923 C1935 0.950 . S
C1924 H1916 0.950 . S
C1924 C1925 1.386 . S
C1924 C1926 1.391 . S
C1925 C1924 1.386 . S
C1925 C1929 1.393 . S
C1926 H1918 0.950 . S
C1926 C1924 1.391 . S
C1926 C1927 1.400 . S
C1927 C1926 1.400 . S
C1927 C1928 1.398 . S
C1927 C1933 1.491 . S
C1928 H1919 0.950 . S
C1928 C1927 1.398 . S
C1928 C1929 1.391 . S
C1929 H1917 0.950 . S
C1929 C1925 1.393 . S
C1929 C1928 1.391 . S
C1930 H1920 0.950 . S
C1930 C1931 1.386 . S
C1930 C1932 1.391 . S
C1931 C1930 1.386 . S
C1931 C1935 1.393 . S
C1932 H1921 0.950 . S
C1932 C1930 1.391 . S
C1932 C1933 1.400 . S
C1933 C1927 1.491 . S
C1933 C1932 1.400 . S
C1933 C1934 1.398 . S
C1934 H1922 0.950 . S
C1934 C1933 1.398 . S
C1934 C1935 1.391 . S
C1935 H1923 0.950 . S
C1935 C1931 1.393 . S
C1935 C1934 1.391 . S
H1936 C1944 0.950 . S
H1937 C1949 0.950 . S
H1938 C1946 0.950 . S
H1939 C1948 0.950 . S
H1940 C1950 0.950 . S
H1941 C1952 0.950 . S
H1942 C1954 0.950 . S
H1943 C1955 0.950 . S
C1944 H1936 0.950 . S
C1944 C1945 1.386 . S
C1944 C1946 1.391 . S
C1945 C1944 1.386 . S
C1945 C1949 1.393 . S
C1946 H1938 0.950 . S
C1946 C1944 1.391 . S
C1946 C1947 1.400 . S
C1947 C1946 1.400 . S
C1947 C1948 1.398 . S
C1947 C1953 1.491 . S
C1948 H1939 0.950 . S
C1948 C1947 1.398 . S
C1948 C1949 1.391 . S
C1949 H1937 0.950 . S
C1949 C1945 1.393 . S
C1949 C1948 1.391 . S
C1950 H1940 0.950 . S
C1950 C1951 1.386 . S
C1950 C1952 1.391 . S
C1951 C1950 1.386 . S
C1951 C1955 1.393 . S
C1952 H1941 0.950 . S
C1952 C1950 1.391 . S
C1952 C1953 1.400 . S
C1953 C1947 1.491 . S
C1953 C1952 1.400 . S
C1953 C1954 1.398 . S
C1954 H1942 0.950 . S
C1954 C1953 1.398 . S
C1954 C1955 1.391 . S
C1955 H1943 0.950 . S
C1955 C1951 1.393 . S
C1955 C1954 1.391 . S
H1956 C1964 0.950 . S
H1957 C1969 0.950 . S
H1958 C1966 0.950 . S
H1959 C1968 0.950 . S
H1960 C1970 0.950 . S
H1961 C1972 0.950 . S
H1962 C1974 0.950 . S
H1963 C1975 0.950 . S
C1964 H1956 0.950 . S
C1964 C1965 1.386 . S
C1964 C1966 1.391 . S
C1965 C1964 1.386 . S
C1965 C1969 1.393 . S
C1966 H1958 0.950 . S
C1966 C1964 1.391 . S
C1966 C1967 1.400 . S
C1967 C1966 1.400 . S
C1967 C1968 1.398 . S
C1967 C1973 1.491 . S
C1968 H1959 0.950 . S
C1968 C1967 1.398 . S
C1968 C1969 1.391 . S
C1969 H1957 0.950 . S
C1969 C1965 1.393 . S
C1969 C1968 1.391 . S
C1970 H1960 0.950 . S
C1970 C1971 1.386 . S
C1970 C1972 1.391 . S
C1971 C1970 1.386 . S
C1971 C1975 1.393 . S
C1972 H1961 0.950 . S
C1972 C1970 1.391 . S
C1972 C1973 1.400 . S
C1973 C1967 1.491 . S
C1973 C1972 1.400 . S
C1973 C1974 1.398 . S
C1974 H1962 0.950 . S
C1974 C1973 1.398 . S
C1974 C1975 1.391 . S
C1975 H1963 0.950 . S
C1975 C1971 1.393 . S
C1975 C1974 1.391 . S
H1976 C1984 0.950 . S
H1977 C1989 0.950 . S
H1978 C1986 0.950 . S
H1979 C1988 0.950 . S
H1980 C1990 0.950 . S
H1981 C1992 0.950 . S
H1982 C1994 0.950 . S
H1983 C1995 0.950 . S
C1984 H1976 0.950 . S
C1984 C1985 1.386 . S
C1984 C1986 1.391 . S
C1985 C1984 1.386 . S
C1985 C1989 1.393 . S
C1986 H1978 0.950 . S
C1986 C1984 1.391 . S
C1986 C1987 1.400 . S
C1987 C1986 1.400 . S
C1987 C1988 1.398 . S
C1987 C1993 1.491 . S
C1988 H1979 0.950 . S
C1988 C1987 1.398 . S
C1988 C1989 1.391 . S
C1989 H1977 0.950 . S
C1989 C1985 1.393 . S
C1989 C1988 1.391 . S
C1990 H1980 0.950 . S
C1990 C1991 1.386 . S
C1990 C1992 1.391 . S
C1991 C1990 1.386 . S
C1991 C1995 1.393 . S
C1992 H1981 0.950 . S
C1992 C1990 1.391 . S
C1992 C1993 1.400 . S
C1993 C1987 1.491 . S
C1993 C1992 1.400 . S
C1993 C1994 1.398 . S
C1994 H1982 0.950 . S
C1994 C1993 1.398 . S
C1994 C1995 1.391 . S
C1995 H1983 0.950 . S
C1995 C1991 1.393 . S
C1995 C1994 1.391 . S
H1996 C2004 0.950 . S
H1997 C2009 0.950 . S
H1998 C2006 0.950 . S
H1999 C2008 0.950 . S
H2000 C2010 0.950 . S
H2001 C2012 0.950 . S
H2002 C2014 0.950 . S
H2003 C2015 0.950 . S
C2004 H1996 0.950 . S
C2004 C2005 1.386 . S
C2004 C2006 1.391 . S
C2005 C2004 1.386 . S
C2005 C2009 1.393 . S
C2006 H1998 0.950 . S
C2006 C2004 1.391 . S
C2006 C2007 1.400 . S
C2007 C2006 1.400 . S
C2007 C2008 1.398 . S
C2007 C2013 1.491 . S
C2008 H1999 0.950 . S
C2008 C2007 1.398 . S
C2008 C2009 1.391 . S
C2009 H1997 0.950 . S
C2009 C2005 1.393 . S
C2009 C2008 1.391 . S
C2010 H2000 0.950 . S
C2010 C2011 1.386 . S
C2010 C2012 1.391 . S
C2011 C2010 1.386 . S
C2011 C2015 1.393 . S
C2012 H2001 0.950 . S
C2012 C2010 1.391 . S
C2012 C2013 1.400 . S
C2013 C2007 1.491 . S
C2013 C2012 1.400 . S
C2013 C2014 1.398 . S
C2014 H2002 0.950 . S
C2014 C2013 1.398 . S
C2014 C2015 1.391 . S
C2015 H2003 0.950 . S
C2015 C2011 1.393 . S
C2015 C2014 1.391 . S
H2016 C2024 0.950 . S
H2017 C2029 0.950 . S
H2018 C2026 0.950 . S
H2019 C2028 0.950 . S
H2020 C2030 0.950 . S
H2021 C2032 0.950 . S
H2022 C2034 0.950 . S
H2023 C2035 0.950 . S
C2024 H2016 0.950 . S
C2024 C2025 1.386 . S
C2024 C2026 1.391 . S
C2025 C2024 1.386 . S
C2025 C2029 1.393 . S
C2026 H2018 0.950 . S
C2026 C2024 1.391 . S
C2026 C2027 1.400 . S
C2027 C2026 1.400 . S
C2027 C2028 1.398 . S
C2027 C2033 1.491 . S
C2028 H2019 0.950 . S
C2028 C2027 1.398 . S
C2028 C2029 1.391 . S
C2029 H2017 0.950 . S
C2029 C2025 1.393 . S
C2029 C2028 1.391 . S
C2030 H2020 0.950 . S
C2030 C2031 1.386 . S
C2030 C2032 1.391 . S
C2031 C2030 1.386 . S
C2031 C2035 1.393 . S
C2032 H2021 0.950 . S
C2032 C2030 1.391 . S
C2032 C2033 1.400 . S
C2033 C2027 1.491 . S
C2033 C2032 1.400 . S
C2033 C2034 1.398 . S
C2034 H2022 0.950 . S
C2034 C2033 1.398 . S
C2034 C2035 1.391 . S
C2035 H2023 0.950 . S
C2035 C2031 1.393 . S
C2035 C2034 1.391 . S
H2036 C2044 0.950 . S
H2037 C2049 0.950 . S
H2038 C2046 0.950 . S
H2039 C2048 0.950 . S
H2040 C2050 0.950 . S
H2041 C2052 0.950 . S
H2042 C2054 0.950 . S
H2043 C2055 0.950 . S
C2044 H2036 0.950 . S
C2044 C2045 1.386 . S
C2044 C2046 1.391 . S
C2045 C2044 1.386 . S
C2045 C2049 1.393 . S
C2046 H2038 0.950 . S
C2046 C2044 1.391 . S
C2046 C2047 1.400 . S
C2047 C2046 1.400 . S
C2047 C2048 1.398 . S
C2047 C2053 1.491 . S
C2048 H2039 0.950 . S
C2048 C2047 1.398 . S
C2048 C2049 1.391 . S
C2049 H2037 0.950 . S
C2049 C2045 1.393 . S
C2049 C2048 1.391 . S
C2050 H2040 0.950 . S
C2050 C2051 1.386 . S
C2050 C2052 1.391 . S
C2051 C2050 1.386 . S
C2051 C2055 1.393 . S
C2052 H2041 0.950 . S
C2052 C2050 1.391 . S
C2052 C2053 1.400 . S
C2053 C2047 1.491 . S
C2053 C2052 1.400 . S
C2053 C2054 1.398 . S
C2054 H2042 0.950 . S
C2054 C2053 1.398 . S
C2054 C2055 1.391 . S
C2055 H2043 0.950 . S
C2055 C2051 1.393 . S
C2055 C2054 1.391 . S
H2056 C2064 0.950 . S
H2057 C2069 0.950 . S
H2058 C2066 0.950 . S
H2059 C2068 0.950 . S
H2060 C2070 0.950 . S
H2061 C2072 0.950 . S
H2062 C2074 0.950 . S
H2063 C2075 0.950 . S
C2064 H2056 0.950 . S
C2064 C2065 1.386 . S
C2064 C2066 1.391 . S
C2065 C2064 1.386 . S
C2065 C2069 1.393 . S
C2066 H2058 0.950 . S
C2066 C2064 1.391 . S
C2066 C2067 1.400 . S
C2067 C2066 1.400 . S
C2067 C2068 1.398 . S
C2067 C2073 1.491 . S
C2068 H2059 0.950 . S
C2068 C2067 1.398 . S
C2068 C2069 1.391 . S
C2069 H2057 0.950 . S
C2069 C2065 1.393 . S
C2069 C2068 1.391 . S
C2070 H2060 0.950 . S
C2070 C2071 1.386 . S
C2070 C2072 1.391 . S
C2071 C2070 1.386 . S
C2071 C2075 1.393 . S
C2072 H2061 0.950 . S
C2072 C2070 1.391 . S
C2072 C2073 1.400 . S
C2073 C2067 1.491 . S
C2073 C2072 1.400 . S
C2073 C2074 1.398 . S
C2074 H2062 0.950 . S
C2074 C2073 1.398 . S
C2074 C2075 1.391 . S
C2075 H2063 0.950 . S
C2075 C2071 1.393 . S
C2075 C2074 1.391 . S
H2076 C2084 0.950 . S
H2077 C2089 0.950 . S
H2078 C2086 0.950 . S
H2079 C2088 0.950 . S
H2080 C2090 0.950 . S
H2081 C2092 0.950 . S
H2082 C2094 0.950 . S
H2083 C2095 0.950 . S
C2084 H2076 0.950 . S
C2084 C2085 1.386 . S
C2084 C2086 1.391 . S
C2085 C2084 1.386 . S
C2085 C2089 1.393 . S
C2086 H2078 0.950 . S
C2086 C2084 1.391 . S
C2086 C2087 1.400 . S
C2087 C2086 1.400 . S
C2087 C2088 1.398 . S
C2087 C2093 1.491 . S
C2088 H2079 0.950 . S
C2088 C2087 1.398 . S
C2088 C2089 1.391 . S
C2089 H2077 0.950 . S
C2089 C2085 1.393 . S
C2089 C2088 1.391 . S
C2090 H2080 0.950 . S
C2090 C2091 1.386 . S
C2090 C2092 1.391 . S
C2091 C2090 1.386 . S
C2091 C2095 1.393 . S
C2092 H2081 0.950 . S
C2092 C2090 1.391 . S
C2092 C2093 1.400 . S
C2093 C2087 1.491 . S
C2093 C2092 1.400 . S
C2093 C2094 1.398 . S
C2094 H2082 0.950 . S
C2094 C2093 1.398 . S
C2094 C2095 1.391 . S
C2095 H2083 0.950 . S
C2095 C2091 1.393 . S
C2095 C2094 1.391 . S
H2096 C2104 0.950 . S
H2097 C2109 0.950 . S
H2098 C2106 0.950 . S
H2099 C2108 0.950 . S
H2100 C2110 0.950 . S
H2101 C2112 0.950 . S
H2102 C2114 0.950 . S
H2103 C2115 0.950 . S
C2104 H2096 0.950 . S
C2104 C2105 1.386 . S
C2104 C2106 1.391 . S
C2105 C2104 1.386 . S
C2105 C2109 1.393 . S
C2106 H2098 0.950 . S
C2106 C2104 1.391 . S
C2106 C2107 1.400 . S
C2107 C2106 1.400 . S
C2107 C2108 1.398 . S
C2107 C2113 1.491 . S
C2108 H2099 0.950 . S
C2108 C2107 1.398 . S
C2108 C2109 1.391 . S
C2109 H2097 0.950 . S
C2109 C2105 1.393 . S
C2109 C2108 1.391 . S
C2110 H2100 0.950 . S
C2110 C2111 1.386 . S
C2110 C2112 1.391 . S
C2111 C2110 1.386 . S
C2111 C2115 1.393 . S
C2112 H2101 0.950 . S
C2112 C2110 1.391 . S
C2112 C2113 1.400 . S
C2113 C2107 1.491 . S
C2113 C2112 1.400 . S
C2113 C2114 1.398 . S
C2114 H2102 0.950 . S
C2114 C2113 1.398 . S
C2114 C2115 1.391 . S
C2115 H2103 0.950 . S
C2115 C2111 1.393 . S
C2115 C2114 1.391 . S
H2116 C2124 0.950 . S
H2117 C2129 0.950 . S
H2118 C2126 0.950 . S
H2119 C2128 0.950 . S
H2120 C2130 0.950 . S
H2121 C2132 0.950 . S
H2122 C2134 0.950 . S
H2123 C2135 0.950 . S
C2124 H2116 0.950 . S
C2124 C2125 1.386 . S
C2124 C2126 1.391 . S
C2125 C2124 1.386 . S
C2125 C2129 1.393 . S
C2126 H2118 0.950 . S
C2126 C2124 1.391 . S
C2126 C2127 1.400 . S
C2127 C2126 1.400 . S
C2127 C2128 1.398 . S
C2127 C2133 1.491 . S
C2128 H2119 0.950 . S
C2128 C2127 1.398 . S
C2128 C2129 1.391 . S
C2129 H2117 0.950 . S
C2129 C2125 1.393 . S
C2129 C2128 1.391 . S
C2130 H2120 0.950 . S
C2130 C2131 1.386 . S
C2130 C2132 1.391 . S
C2131 C2130 1.386 . S
C2131 C2135 1.393 . S
C2132 H2121 0.950 . S
C2132 C2130 1.391 . S
C2132 C2133 1.400 . S
C2133 C2127 1.491 . S
C2133 C2132 1.400 . S
C2133 C2134 1.398 . S
C2134 H2122 0.950 . S
C2134 C2133 1.398 . S
C2134 C2135 1.391 . S
C2135 H2123 0.950 . S
C2135 C2131 1.393 . S
C2135 C2134 1.391 . S
H2136 C2144 0.950 . S
H2137 C2149 0.950 . S
H2138 C2146 0.950 . S
H2139 C2148 0.950 . S
H2140 C2150 0.950 . S
H2141 C2152 0.950 . S
H2142 C2154 0.950 . S
H2143 C2155 0.950 . S
C2144 H2136 0.950 . S
C2144 C2145 1.386 . S
C2144 C2146 1.391 . S
C2145 C2144 1.386 . S
C2145 C2149 1.393 . S
C2146 H2138 0.950 . S
C2146 C2144 1.391 . S
C2146 C2147 1.400 . S
C2147 C2146 1.400 . S
C2147 C2148 1.398 . S
C2147 C2153 1.491 . S
C2148 H2139 0.950 . S
C2148 C2147 1.398 . S
C2148 C2149 1.391 . S
C2149 H2137 0.950 . S
C2149 C2145 1.393 . S
C2149 C2148 1.391 . S
C2150 H2140 0.950 . S
C2150 C2151 1.386 . S
C2150 C2152 1.391 . S
C2151 C2150 1.386 . S
C2151 C2155 1.393 . S
C2152 H2141 0.950 . S
C2152 C2150 1.391 . S
C2152 C2153 1.400 . S
C2153 C2147 1.491 . S
C2153 C2152 1.400 . S
C2153 C2154 1.398 . S
C2154 H2142 0.950 . S
C2154 C2153 1.398 . S
C2154 C2155 1.391 . S
C2155 H2143 0.950 . S
C2155 C2151 1.393 . S
C2155 C2154 1.391 . S
H2156 C2164 0.950 . S
H2157 C2169 0.950 . S
H2158 C2166 0.950 . S
H2159 C2168 0.950 . S
H2160 C2170 0.950 . S
H2161 C2172 0.950 . S
H2162 C2174 0.950 . S
H2163 C2175 0.950 . S
C2164 H2156 0.950 . S
C2164 C2165 1.386 . S
C2164 C2166 1.391 . S
C2165 C2164 1.386 . S
C2165 C2169 1.393 . S
C2166 H2158 0.950 . S
C2166 C2164 1.391 . S
C2166 C2167 1.400 . S
C2167 C2166 1.400 . S
C2167 C2168 1.398 . S
C2167 C2173 1.491 . S
C2168 H2159 0.950 . S
C2168 C2167 1.398 . S
C2168 C2169 1.391 . S
C2169 H2157 0.950 . S
C2169 C2165 1.393 . S
C2169 C2168 1.391 . S
C2170 H2160 0.950 . S
C2170 C2171 1.386 . S
C2170 C2172 1.391 . S
C2171 C2170 1.386 . S
C2171 C2175 1.393 . S
C2172 H2161 0.950 . S
C2172 C2170 1.391 . S
C2172 C2173 1.400 . S
C2173 C2167 1.491 . S
C2173 C2172 1.400 . S
C2173 C2174 1.398 . S
C2174 H2162 0.950 . S
C2174 C2173 1.398 . S
C2174 C2175 1.391 . S
C2175 H2163 0.950 . S
C2175 C2171 1.393 . S
C2175 C2174 1.391 . S
H2176 C2184 0.950 . S
H2177 C2189 0.950 . S
H2178 C2186 0.950 . S
H2179 C2188 0.950 . S
H2180 C2190 0.950 . S
H2181 C2192 0.950 . S
H2182 C2194 0.950 . S
H2183 C2195 0.950 . S
C2184 H2176 0.950 . S
C2184 C2185 1.386 . S
C2184 C2186 1.391 . S
C2185 C2184 1.386 . S
C2185 C2189 1.393 . S
C2186 H2178 0.950 . S
C2186 C2184 1.391 . S
C2186 C2187 1.400 . S
C2187 C2186 1.400 . S
C2187 C2188 1.398 . S
C2187 C2193 1.491 . S
C2188 H2179 0.950 . S
C2188 C2187 1.398 . S
C2188 C2189 1.391 . S
C2189 H2177 0.950 . S
C2189 C2185 1.393 . S
C2189 C2188 1.391 . S
C2190 H2180 0.950 . S
C2190 C2191 1.386 . S
C2190 C2192 1.391 . S
C2191 C2190 1.386 . S
C2191 C2195 1.393 . S
C2192 H2181 0.950 . S
C2192 C2190 1.391 . S
C2192 C2193 1.400 . S
C2193 C2187 1.491 . S
C2193 C2192 1.400 . S
C2193 C2194 1.398 . S
C2194 H2182 0.950 . S
C2194 C2193 1.398 . S
C2194 C2195 1.391 . S
C2195 H2183 0.950 . S
C2195 C2191 1.393 . S
C2195 C2194 1.391 . S
H2196 C2204 0.950 . S
H2197 C2209 0.950 . S
H2198 C2206 0.950 . S
H2199 C2208 0.950 . S
H2200 C2210 0.950 . S
H2201 C2212 0.950 . S
H2202 C2214 0.950 . S
H2203 C2215 0.950 . S
C2204 H2196 0.950 . S
C2204 C2205 1.386 . S
C2204 C2206 1.391 . S
C2205 C2204 1.386 . S
C2205 C2209 1.393 . S
C2206 H2198 0.950 . S
C2206 C2204 1.391 . S
C2206 C2207 1.400 . S
C2207 C2206 1.400 . S
C2207 C2208 1.398 . S
C2207 C2213 1.491 . S
C2208 H2199 0.950 . S
C2208 C2207 1.398 . S
C2208 C2209 1.391 . S
C2209 H2197 0.950 . S
C2209 C2205 1.393 . S
C2209 C2208 1.391 . S
C2210 H2200 0.950 . S
C2210 C2211 1.386 . S
C2210 C2212 1.391 . S
C2211 C2210 1.386 . S
C2211 C2215 1.393 . S
C2212 H2201 0.950 . S
C2212 C2210 1.391 . S
C2212 C2213 1.400 . S
C2213 C2207 1.491 . S
C2213 C2212 1.400 . S
C2213 C2214 1.398 . S
C2214 H2202 0.950 . S
C2214 C2213 1.398 . S
C2214 C2215 1.391 . S
C2215 H2203 0.950 . S
C2215 C2211 1.393 . S
C2215 C2214 1.391 . S
H2216 C2224 0.950 . S
H2217 C2229 0.950 . S
H2218 C2226 0.950 . S
H2219 C2228 0.950 . S
H2220 C2230 0.950 . S
H2221 C2232 0.950 . S
H2222 C2234 0.950 . S
H2223 C2235 0.950 . S
C2224 H2216 0.950 . S
C2224 C2225 1.386 . S
C2224 C2226 1.391 . S
C2225 C2224 1.386 . S
C2225 C2229 1.393 . S
C2226 H2218 0.950 . S
C2226 C2224 1.391 . S
C2226 C2227 1.400 . S
C2227 C2226 1.400 . S
C2227 C2228 1.398 . S
C2227 C2233 1.491 . S
C2228 H2219 0.950 . S
C2228 C2227 1.398 . S
C2228 C2229 1.391 . S
C2229 H2217 0.950 . S
C2229 C2225 1.393 . S
C2229 C2228 1.391 . S
C2230 H2220 0.950 . S
C2230 C2231 1.386 . S
C2230 C2232 1.391 . S
C2231 C2230 1.386 . S
C2231 C2235 1.393 . S
C2232 H2221 0.950 . S
C2232 C2230 1.391 . S
C2232 C2233 1.400 . S
C2233 C2227 1.491 . S
C2233 C2232 1.400 . S
C2233 C2234 1.398 . S
C2234 H2222 0.950 . S
C2234 C2233 1.398 . S
C2234 C2235 1.391 . S
C2235 H2223 0.950 . S
C2235 C2231 1.393 . S
C2235 C2234 1.391 . S
H2236 C2244 0.950 . S
H2237 C2249 0.950 . S
H2238 C2246 0.950 . S
H2239 C2248 0.950 . S
H2240 C2250 0.950 . S
H2241 C2252 0.950 . S
H2242 C2254 0.950 . S
H2243 C2255 0.950 . S
C2244 H2236 0.950 . S
C2244 C2245 1.386 . S
C2244 C2246 1.391 . S
C2245 C2244 1.386 . S
C2245 C2249 1.393 . S
C2246 H2238 0.950 . S
C2246 C2244 1.391 . S
C2246 C2247 1.400 . S
C2247 C2246 1.400 . S
C2247 C2248 1.398 . S
C2247 C2253 1.491 . S
C2248 H2239 0.950 . S
C2248 C2247 1.398 . S
C2248 C2249 1.391 . S
C2249 H2237 0.950 . S
C2249 C2245 1.393 . S
C2249 C2248 1.391 . S
C2250 H2240 0.950 . S
C2250 C2251 1.386 . S
C2250 C2252 1.391 . S
C2251 C2250 1.386 . S
C2251 C2255 1.393 . S
C2252 H2241 0.950 . S
C2252 C2250 1.391 . S
C2252 C2253 1.400 . S
C2253 C2247 1.491 . S
C2253 C2252 1.400 . S
C2253 C2254 1.398 . S
C2254 H2242 0.950 . S
C2254 C2253 1.398 . S
C2254 C2255 1.391 . S
C2255 H2243 0.950 . S
C2255 C2251 1.393 . S
C2255 C2254 1.391 . S
H2256 C2264 0.950 . S
H2257 C2269 0.950 . S
H2258 C2266 0.950 . S
H2259 C2268 0.950 . S
H2260 C2270 0.950 . S
H2261 C2272 0.950 . S
H2262 C2274 0.950 . S
H2263 C2275 0.950 . S
C2264 H2256 0.950 . S
C2264 C2265 1.386 . S
C2264 C2266 1.391 . S
C2265 C2264 1.386 . S
C2265 C2269 1.393 . S
C2266 H2258 0.950 . S
C2266 C2264 1.391 . S
C2266 C2267 1.400 . S
C2267 C2266 1.400 . S
C2267 C2268 1.398 . S
C2267 C2273 1.491 . S
C2268 H2259 0.950 . S
C2268 C2267 1.398 . S
C2268 C2269 1.391 . S
C2269 H2257 0.950 . S
C2269 C2265 1.393 . S
C2269 C2268 1.391 . S
C2270 H2260 0.950 . S
C2270 C2271 1.386 . S
C2270 C2272 1.391 . S
C2271 C2270 1.386 . S
C2271 C2275 1.393 . S
C2272 H2261 0.950 . S
C2272 C2270 1.391 . S
C2272 C2273 1.400 . S
C2273 C2267 1.491 . S
C2273 C2272 1.400 . S
C2273 C2274 1.398 . S
C2274 H2262 0.950 . S
C2274 C2273 1.398 . S
C2274 C2275 1.391 . S
C2275 H2263 0.950 . S
C2275 C2271 1.393 . S
C2275 C2274 1.391 . S
H2276 C2284 0.950 . S
H2277 C2289 0.950 . S
H2278 C2286 0.950 . S
H2279 C2288 0.950 . S
H2280 C2290 0.950 . S
H2281 C2292 0.950 . S
H2282 C2294 0.950 . S
H2283 C2295 0.950 . S
C2284 H2276 0.950 . S
C2284 C2285 1.386 . S
C2284 C2286 1.391 . S
C2285 C2284 1.386 . S
C2285 C2289 1.393 . S
C2286 H2278 0.950 . S
C2286 C2284 1.391 . S
C2286 C2287 1.400 . S
C2287 C2286 1.400 . S
C2287 C2288 1.398 . S
C2287 C2293 1.491 . S
C2288 H2279 0.950 . S
C2288 C2287 1.398 . S
C2288 C2289 1.391 . S
C2289 H2277 0.950 . S
C2289 C2285 1.393 . S
C2289 C2288 1.391 . S
C2290 H2280 0.950 . S
C2290 C2291 1.386 . S
C2290 C2292 1.391 . S
C2291 C2290 1.386 . S
C2291 C2295 1.393 . S
C2292 H2281 0.950 . S
C2292 C2290 1.391 . S
C2292 C2293 1.400 . S
C2293 C2287 1.491 . S
C2293 C2292 1.400 . S
C2293 C2294 1.398 . S
C2294 H2282 0.950 . S
C2294 C2293 1.398 . S
C2294 C2295 1.391 . S
C2295 H2283 0.950 . S
C2295 C2291 1.393 . S
C2295 C2294 1.391 . S
H2296 C2304 0.950 . S
H2297 C2309 0.950 . S
H2298 C2306 0.950 . S
H2299 C2308 0.950 . S
H2300 C2310 0.950 . S
H2301 C2312 0.950 . S
H2302 C2314 0.950 . S
H2303 C2315 0.950 . S
C2304 H2296 0.950 . S
C2304 C2305 1.386 . S
C2304 C2306 1.391 . S
C2305 C2304 1.386 . S
C2305 C2309 1.393 . S
C2306 H2298 0.950 . S
C2306 C2304 1.391 . S
C2306 C2307 1.400 . S
C2307 C2306 1.400 . S
C2307 C2308 1.398 . S
C2307 C2313 1.491 . S
C2308 H2299 0.950 . S
C2308 C2307 1.398 . S
C2308 C2309 1.391 . S
C2309 H2297 0.950 . S
C2309 C2305 1.393 . S
C2309 C2308 1.391 . S
C2310 H2300 0.950 . S
C2310 C2311 1.386 . S
C2310 C2312 1.391 . S
C2311 C2310 1.386 . S
C2311 C2315 1.393 . S
C2312 H2301 0.950 . S
C2312 C2310 1.391 . S
C2312 C2313 1.400 . S
C2313 C2307 1.491 . S
C2313 C2312 1.400 . S
C2313 C2314 1.398 . S
C2314 H2302 0.950 . S
C2314 C2313 1.398 . S
C2314 C2315 1.391 . S
C2315 H2303 0.950 . S
C2315 C2311 1.393 . S
C2315 C2314 1.391 . S
H2316 C2324 0.950 . S
H2317 C2329 0.950 . S
H2318 C2326 0.950 . S
H2319 C2328 0.950 . S
H2320 C2330 0.950 . S
H2321 C2332 0.950 . S
H2322 C2334 0.950 . S
H2323 C2335 0.950 . S
C2324 H2316 0.950 . S
C2324 C2325 1.386 . S
C2324 C2326 1.391 . S
C2325 C2324 1.386 . S
C2325 C2329 1.393 . S
C2326 H2318 0.950 . S
C2326 C2324 1.391 . S
C2326 C2327 1.400 . S
C2327 C2326 1.400 . S
C2327 C2328 1.398 . S
C2327 C2333 1.491 . S
C2328 H2319 0.950 . S
C2328 C2327 1.398 . S
C2328 C2329 1.391 . S
C2329 H2317 0.950 . S
C2329 C2325 1.393 . S
C2329 C2328 1.391 . S
C2330 H2320 0.950 . S
C2330 C2331 1.386 . S
C2330 C2332 1.391 . S
C2331 C2330 1.386 . S
C2331 C2335 1.393 . S
C2332 H2321 0.950 . S
C2332 C2330 1.391 . S
C2332 C2333 1.400 . S
C2333 C2327 1.491 . S
C2333 C2332 1.400 . S
C2333 C2334 1.398 . S
C2334 H2322 0.950 . S
C2334 C2333 1.398 . S
C2334 C2335 1.391 . S
C2335 H2323 0.950 . S
C2335 C2331 1.393 . S
C2335 C2334 1.391 . S
H2336 C2344 0.950 . S
H2337 C2349 0.950 . S
H2338 C2346 0.950 . S
H2339 C2348 0.950 . S
H2340 C2350 0.950 . S
H2341 C2352 0.950 . S
H2342 C2354 0.950 . S
H2343 C2355 0.950 . S
C2344 H2336 0.950 . S
C2344 C2345 1.386 . S
C2344 C2346 1.391 . S
C2345 C2344 1.386 . S
C2345 C2349 1.393 . S
C2346 H2338 0.950 . S
C2346 C2344 1.391 . S
C2346 C2347 1.400 . S
C2347 C2346 1.400 . S
C2347 C2348 1.398 . S
C2347 C2353 1.491 . S
C2348 H2339 0.950 . S
C2348 C2347 1.398 . S
C2348 C2349 1.391 . S
C2349 H2337 0.950 . S
C2349 C2345 1.393 . S
C2349 C2348 1.391 . S
C2350 H2340 0.950 . S
C2350 C2351 1.386 . S
C2350 C2352 1.391 . S
C2351 C2350 1.386 . S
C2351 C2355 1.393 . S
C2352 H2341 0.950 . S
C2352 C2350 1.391 . S
C2352 C2353 1.400 . S
C2353 C2347 1.491 . S
C2353 C2352 1.400 . S
C2353 C2354 1.398 . S
C2354 H2342 0.950 . S
C2354 C2353 1.398 . S
C2354 C2355 1.391 . S
C2355 H2343 0.950 . S
C2355 C2351 1.393 . S
C2355 C2354 1.391 . S
H2356 C2364 0.950 . S
H2357 C2369 0.950 . S
H2358 C2366 0.950 . S
H2359 C2368 0.950 . S
H2360 C2370 0.950 . S
H2361 C2372 0.950 . S
H2362 C2374 0.950 . S
H2363 C2375 0.950 . S
C2364 H2356 0.950 . S
C2364 C2365 1.386 . S
C2364 C2366 1.391 . S
C2365 C2364 1.386 . S
C2365 C2369 1.393 . S
C2366 H2358 0.950 . S
C2366 C2364 1.391 . S
C2366 C2367 1.400 . S
C2367 C2366 1.400 . S
C2367 C2368 1.398 . S
C2367 C2373 1.491 . S
C2368 H2359 0.950 . S
C2368 C2367 1.398 . S
C2368 C2369 1.391 . S
C2369 H2357 0.950 . S
C2369 C2365 1.393 . S
C2369 C2368 1.391 . S
C2370 H2360 0.950 . S
C2370 C2371 1.386 . S
C2370 C2372 1.391 . S
C2371 C2370 1.386 . S
C2371 C2375 1.393 . S
C2372 H2361 0.950 . S
C2372 C2370 1.391 . S
C2372 C2373 1.400 . S
C2373 C2367 1.491 . S
C2373 C2372 1.400 . S
C2373 C2374 1.398 . S
C2374 H2362 0.950 . S
C2374 C2373 1.398 . S
C2374 C2375 1.391 . S
C2375 H2363 0.950 . S
C2375 C2371 1.393 . S
C2375 C2374 1.391 . S
H2376 C2384 0.950 . S
H2377 C2389 0.950 . S
H2378 C2386 0.950 . S
H2379 C2388 0.950 . S
H2380 C2390 0.950 . S
H2381 C2392 0.950 . S
H2382 C2394 0.950 . S
H2383 C2395 0.950 . S
C2384 H2376 0.950 . S
C2384 C2385 1.386 . S
C2384 C2386 1.391 . S
C2385 C2384 1.386 . S
C2385 C2389 1.393 . S
C2386 H2378 0.950 . S
C2386 C2384 1.391 . S
C2386 C2387 1.400 . S
C2387 C2386 1.400 . S
C2387 C2388 1.398 . S
C2387 C2393 1.491 . S
C2388 H2379 0.950 . S
C2388 C2387 1.398 . S
C2388 C2389 1.391 . S
C2389 H2377 0.950 . S
C2389 C2385 1.393 . S
C2389 C2388 1.391 . S
C2390 H2380 0.950 . S
C2390 C2391 1.386 . S
C2390 C2392 1.391 . S
C2391 C2390 1.386 . S
C2391 C2395 1.393 . S
C2392 H2381 0.950 . S
C2392 C2390 1.391 . S
C2392 C2393 1.400 . S
C2393 C2387 1.491 . S
C2393 C2392 1.400 . S
C2393 C2394 1.398 . S
C2394 H2382 0.950 . S
C2394 C2393 1.398 . S
C2394 C2395 1.391 . S
C2395 H2383 0.950 . S
C2395 C2391 1.393 . S
C2395 C2394 1.391 . S
H2396 C2404 0.950 . S
H2397 C2409 0.959 1_565 S
H2398 C2406 0.950 . S
H2399 C2408 0.950 . S
H2400 C2410 0.950 . S
H2401 C2412 0.950 . S
H2402 C2414 0.950 . S
H2403 C2415 0.959 1_545 S
C2404 H2396 0.950 . S
C2404 C2405 1.386 . S
C2404 C2406 1.391 . S
C2405 C2404 1.386 . S
C2405 C2409 1.393 . S
C2406 H2398 0.950 . S
C2406 C2404 1.391 . S
C2406 C2407 1.400 . S
C2407 C2406 1.400 . S
C2407 C2408 1.398 1_545 S
C2407 C2413 1.491 1_545 S
C2408 H2399 0.950 . S
C2408 C2407 1.398 1_565 S
C2408 C2409 1.391 1_565 S
C2409 H2397 0.959 1_545 S
C2409 C2405 1.393 . S
C2409 C2408 1.391 1_545 S
C2410 H2400 0.950 . S
C2410 C2411 1.386 . S
C2410 C2412 1.391 . S
C2411 C2410 1.386 . S
C2411 C2415 1.393 . S
C2412 H2401 0.950 . S
C2412 C2410 1.391 . S
C2412 C2413 1.400 . S
C2413 C2407 1.491 1_565 S
C2413 C2412 1.400 . S
C2413 C2414 1.398 1_565 S
C2414 H2402 0.950 . S
C2414 C2413 1.398 1_545 S
C2414 C2415 1.391 1_545 S
C2415 H2403 0.959 1_565 S
C2415 C2411 1.393 . S
C2415 C2414 1.391 1_565 S
H2416 C2424 0.950 . S
H2417 C2429 0.950 . S
H2418 C2426 0.982 . S
H2419 C2428 0.950 . S
H2420 C2430 0.950 . S
H2421 C2432 0.983 . S
H2422 C2434 0.950 . S
H2423 C2435 0.950 . S
C2424 H2416 0.950 . S
C2424 C2425 1.386 . S
C2424 C2426 1.385 1_455 S
C2425 C2424 1.386 . S
C2425 C2429 1.393 . S
C2426 H2418 0.982 . S
C2426 C2424 1.385 1_655 S
C2426 C2427 1.376 1_655 S
C2427 C2426 1.376 1_455 S
C2427 C2428 1.398 . S
C2427 C2433 1.491 1_455 S
C2428 H2419 0.950 . S
C2428 C2427 1.398 . S
C2428 C2429 1.391 . S
C2429 H2417 0.950 . S
C2429 C2425 1.393 . S
C2429 C2428 1.391 . S
C2430 H2420 0.950 . S
C2430 C2431 1.386 . S
C2430 C2432 1.385 1_655 S
C2431 C2430 1.386 . S
C2431 C2435 1.393 . S
C2432 H2421 0.983 . S
C2432 C2430 1.385 1_455 S
C2432 C2433 1.376 1_455 S
C2433 C2427 1.491 1_655 S
C2433 C2432 1.376 1_655 S
C2433 C2434 1.398 . S
C2434 H2422 0.950 . S
C2434 C2433 1.398 . S
C2434 C2435 1.391 . S
C2435 H2423 0.950 . S
C2435 C2431 1.393 . S
C2435 C2434 1.391 . S
H2436 C2444 0.950 . S
H2437 C2449 0.950 . S
H2438 C2446 0.950 . S
H2439 C2448 0.950 . S
H2440 C2450 0.950 . S
H2441 C2452 0.950 . S
H2442 C2454 0.950 . S
H2443 C2455 0.950 . S
C2444 H2436 0.950 . S
C2444 C2445 1.386 . S
C2444 C2446 1.391 . S
C2445 C2444 1.386 . S
C2445 C2449 1.393 . S
C2446 H2438 0.950 . S
C2446 C2444 1.391 . S
C2446 C2447 1.400 . S
C2447 C2446 1.400 . S
C2447 C2448 1.398 . S
C2447 C2453 1.491 . S
C2448 H2439 0.950 . S
C2448 C2447 1.398 . S
C2448 C2449 1.391 . S
C2449 H2437 0.950 . S
C2449 C2445 1.393 . S
C2449 C2448 1.391 . S
C2450 H2440 0.950 . S
C2450 C2451 1.386 . S
C2450 C2452 1.391 . S
C2451 C2450 1.386 . S
C2451 C2455 1.393 . S
C2452 H2441 0.950 . S
C2452 C2450 1.391 . S
C2452 C2453 1.400 . S
C2453 C2447 1.491 . S
C2453 C2452 1.400 . S
C2453 C2454 1.398 . S
C2454 H2442 0.950 . S
C2454 C2453 1.398 . S
C2454 C2455 1.391 . S
C2455 H2443 0.950 . S
C2455 C2451 1.393 . S
C2455 C2454 1.391 . S
H2456 C2464 0.950 . S
H2457 C2469 0.950 . S
H2458 C2466 0.950 . S
H2459 C2468 0.950 . S
H2460 C2470 0.950 . S
H2461 C2472 0.950 . S
H2462 C2474 0.950 . S
H2463 C2475 0.950 . S
C2464 H2456 0.950 . S
C2464 C2465 1.386 1_565 S
C2464 C2466 1.391 . S
C2465 C2464 1.386 1_545 S
C2465 C2469 1.393 . S
C2466 H2458 0.950 . S
C2466 C2464 1.391 . S
C2466 C2467 1.400 1_565 S
C2467 C2466 1.400 1_545 S
C2467 C2468 1.398 . S
C2467 C2473 1.491 1_545 S
C2468 H2459 0.950 . S
C2468 C2467 1.398 . S
C2468 C2469 1.391 . S
C2469 H2457 0.950 . S
C2469 C2465 1.393 . S
C2469 C2468 1.391 . S
C2470 H2460 0.950 . S
C2470 C2471 1.386 1_545 S
C2470 C2472 1.391 . S
C2471 C2470 1.386 1_565 S
C2471 C2475 1.393 . S
C2472 H2461 0.950 . S
C2472 C2470 1.391 . S
C2472 C2473 1.400 1_545 S
C2473 C2467 1.491 1_565 S
C2473 C2472 1.400 1_565 S
C2473 C2474 1.398 . S
C2474 H2462 0.950 . S
C2474 C2473 1.398 . S
C2474 C2475 1.391 . S
C2475 H2463 0.950 . S
C2475 C2471 1.393 . S
C2475 C2474 1.391 . S
H2476 C2484 0.956 . S
H2477 C2489 0.950 . S
H2478 C2486 0.950 . S
H2479 C2488 0.950 . S
H2480 C2490 0.957 . S
H2481 C2492 0.950 . S
H2482 C2494 0.950 . S
H2483 C2495 0.950 . S
C2484 H2476 0.956 . S
C2484 C2485 1.378 1_455 S
C2484 C2486 1.393 . S
C2485 C2484 1.378 1_655 S
C2485 C2489 1.393 . S
C2486 H2478 0.950 . S
C2486 C2484 1.393 . S
C2486 C2487 1.400 1_455 S
C2487 C2486 1.400 1_655 S
C2487 C2488 1.398 . S
C2487 C2493 1.491 1_655 S
C2488 H2479 0.950 . S
C2488 C2487 1.398 . S
C2488 C2489 1.391 . S
C2489 H2477 0.950 . S
C2489 C2485 1.393 . S
C2489 C2488 1.391 . S
C2490 H2480 0.957 . S
C2490 C2491 1.377 1_655 S
C2490 C2492 1.393 . S
C2491 C2490 1.377 1_455 S
C2491 C2495 1.393 . S
C2492 H2481 0.950 . S
C2492 C2490 1.393 . S
C2492 C2493 1.400 1_655 S
C2493 C2487 1.491 1_455 S
C2493 C2492 1.400 1_455 S
C2493 C2494 1.398 . S
C2494 H2482 0.950 . S
C2494 C2493 1.398 . S
C2494 C2495 1.391 . S
C2495 H2483 0.950 . S
C2495 C2491 1.393 . S
C2495 C2494 1.391 . S
H2496 C2504 0.950 . S
H2497 C2509 0.950 . S
H2498 C2506 0.950 . S
H2499 C2508 0.950 . S
H2500 C2510 0.950 . S
H2501 C2512 0.950 . S
H2502 C2514 0.950 . S
H2503 C2515 0.950 . S
C2504 H2496 0.950 . S
C2504 C2505 1.386 . S
C2504 C2506 1.391 . S
C2505 C2504 1.386 . S
C2505 C2509 1.393 . S
C2506 H2498 0.950 . S
C2506 C2504 1.391 . S
C2506 C2507 1.400 . S
C2507 C2506 1.400 . S
C2507 C2508 1.398 . S
C2507 C2513 1.491 . S
C2508 H2499 0.950 . S
C2508 C2507 1.398 . S
C2508 C2509 1.391 . S
C2509 H2497 0.950 . S
C2509 C2505 1.393 . S
C2509 C2508 1.391 . S
C2510 H2500 0.950 . S
C2510 C2511 1.386 . S
C2510 C2512 1.391 . S
C2511 C2510 1.386 . S
C2511 C2515 1.393 . S
C2512 H2501 0.950 . S
C2512 C2510 1.391 . S
C2512 C2513 1.400 . S
C2513 C2507 1.491 . S
C2513 C2512 1.400 . S
C2513 C2514 1.398 . S
C2514 H2502 0.950 . S
C2514 C2513 1.398 . S
C2514 C2515 1.391 . S
C2515 H2503 0.950 . S
C2515 C2511 1.393 . S
C2515 C2514 1.391 . S
H2516 C2524 0.950 . S
H2517 C2529 0.950 . S
H2518 C2526 0.950 . S
H2519 C2528 0.950 . S
H2520 C2530 0.950 . S
H2521 C2532 0.950 . S
H2522 C2534 0.950 . S
H2523 C2535 0.950 . S
C2524 H2516 0.950 . S
C2524 C2525 1.386 . S
C2524 C2526 1.391 . S
C2525 C2524 1.386 . S
C2525 C2529 1.393 . S
C2526 H2518 0.950 . S
C2526 C2524 1.391 . S
C2526 C2527 1.400 . S
C2527 C2526 1.400 . S
C2527 C2528 1.398 . S
C2527 C2533 1.491 . S
C2528 H2519 0.950 . S
C2528 C2527 1.398 . S
C2528 C2529 1.391 . S
C2529 H2517 0.950 . S
C2529 C2525 1.393 . S
C2529 C2528 1.391 . S
C2530 H2520 0.950 . S
C2530 C2531 1.386 . S
C2530 C2532 1.391 . S
C2531 C2530 1.386 . S
C2531 C2535 1.393 . S
C2532 H2521 0.950 . S
C2532 C2530 1.391 . S
C2532 C2533 1.400 . S
C2533 C2527 1.491 . S
C2533 C2532 1.400 . S
C2533 C2534 1.398 . S
C2534 H2522 0.950 . S
C2534 C2533 1.398 . S
C2534 C2535 1.391 . S
C2535 H2523 0.950 . S
C2535 C2531 1.393 . S
C2535 C2534 1.391 . S
H2536 C2544 0.950 . S
H2537 C2549 0.950 . S
H2538 C2546 0.950 . S
H2539 C2548 0.950 . S
H2540 C2550 0.950 . S
H2541 C2552 0.950 . S
H2542 C2554 0.950 . S
H2543 C2555 0.950 . S
C2544 H2536 0.950 . S
C2544 C2545 1.386 . S
C2544 C2546 1.391 . S
C2545 C2544 1.386 . S
C2545 C2549 1.393 . S
C2546 H2538 0.950 . S
C2546 C2544 1.391 . S
C2546 C2547 1.400 . S
C2547 C2546 1.400 . S
C2547 C2548 1.398 . S
C2547 C2553 1.491 . S
C2548 H2539 0.950 . S
C2548 C2547 1.398 . S
C2548 C2549 1.391 . S
C2549 H2537 0.950 . S
C2549 C2545 1.393 . S
C2549 C2548 1.391 . S
C2550 H2540 0.950 . S
C2550 C2551 1.386 . S
C2550 C2552 1.391 . S
C2551 C2550 1.386 . S
C2551 C2555 1.393 . S
C2552 H2541 0.950 . S
C2552 C2550 1.391 . S
C2552 C2553 1.400 . S
C2553 C2547 1.491 . S
C2553 C2552 1.400 . S
C2553 C2554 1.398 . S
C2554 H2542 0.950 . S
C2554 C2553 1.398 . S
C2554 C2555 1.391 . S
C2555 H2543 0.950 . S
C2555 C2551 1.393 . S
C2555 C2554 1.391 . S
H2556 C2564 0.950 . S
H2557 C2569 0.950 . S
H2558 C2566 0.950 . S
H2559 C2568 0.950 . S
H2560 C2570 0.950 . S
H2561 C2572 0.950 . S
H2562 C2574 0.950 . S
H2563 C2575 0.950 1_556 S
C2564 H2556 0.950 . S
C2564 C2565 1.386 . S
C2564 C2566 1.391 . S
C2565 C2564 1.386 . S
C2565 C2569 1.393 . S
C2566 H2558 0.950 . S
C2566 C2564 1.391 . S
C2566 C2567 1.400 . S
C2567 C2566 1.400 . S
C2567 C2568 1.398 . S
C2567 C2573 1.491 . S
C2568 H2559 0.950 . S
C2568 C2567 1.398 . S
C2568 C2569 1.391 . S
C2569 H2557 0.950 . S
C2569 C2565 1.393 . S
C2569 C2568 1.391 . S
C2570 H2560 0.950 . S
C2570 C2571 1.386 1_554 S
C2570 C2572 1.391 . S
C2571 C2570 1.386 1_556 S
C2571 C2575 1.393 1_556 S
C2572 H2561 0.950 . S
C2572 C2570 1.391 . S
C2572 C2573 1.400 . S
C2573 C2567 1.491 . S
C2573 C2572 1.400 . S
C2573 C2574 1.398 . S
C2574 H2562 0.950 . S
C2574 C2573 1.398 . S
C2574 C2575 1.391 . S
C2575 H2563 0.950 1_554 S
C2575 C2571 1.393 1_554 S
C2575 C2574 1.391 . S
H2576 C2584 0.950 . S
H2577 C2589 0.950 . S
H2578 C2586 0.950 . S
H2579 C2588 0.950 . S
H2580 C2590 0.950 . S
H2581 C2592 0.950 . S
H2582 C2594 0.950 . S
H2583 C2595 0.950 1_556 S
C2584 H2576 0.950 . S
C2584 C2585 1.386 . S
C2584 C2586 1.391 . S
C2585 C2584 1.386 . S
C2585 C2589 1.393 . S
C2586 H2578 0.950 . S
C2586 C2584 1.391 . S
C2586 C2587 1.400 . S
C2587 C2586 1.400 . S
C2587 C2588 1.398 . S
C2587 C2593 1.491 . S
C2588 H2579 0.950 . S
C2588 C2587 1.398 . S
C2588 C2589 1.391 . S
C2589 H2577 0.950 . S
C2589 C2585 1.393 . S
C2589 C2588 1.391 . S
C2590 H2580 0.950 . S
C2590 C2591 1.386 1_554 S
C2590 C2592 1.391 . S
C2591 C2590 1.386 1_556 S
C2591 C2595 1.393 1_556 S
C2592 H2581 0.950 . S
C2592 C2590 1.391 . S
C2592 C2593 1.400 . S
C2593 C2587 1.491 . S
C2593 C2592 1.400 . S
C2593 C2594 1.398 . S
C2594 H2582 0.950 . S
C2594 C2593 1.398 . S
C2594 C2595 1.391 . S
C2595 H2583 0.950 1_554 S
C2595 C2591 1.393 1_554 S
C2595 C2594 1.391 . S
H2596 C2604 0.950 . S
H2597 C2609 0.950 . S
H2598 C2606 0.950 . S
H2599 C2608 0.950 . S
H2600 C2610 0.950 . S
H2601 C2612 0.950 . S
H2602 C2614 0.950 . S
H2603 C2615 0.950 1_556 S
C2604 H2596 0.950 . S
C2604 C2605 1.386 . S
C2604 C2606 1.391 . S
C2605 C2604 1.386 . S
C2605 C2609 1.393 . S
C2606 H2598 0.950 . S
C2606 C2604 1.391 . S
C2606 C2607 1.400 . S
C2607 C2606 1.400 . S
C2607 C2608 1.398 . S
C2607 C2613 1.491 . S
C2608 H2599 0.950 . S
C2608 C2607 1.398 . S
C2608 C2609 1.391 . S
C2609 H2597 0.950 . S
C2609 C2605 1.393 . S
C2609 C2608 1.391 . S
C2610 H2600 0.950 . S
C2610 C2611 1.386 1_554 S
C2610 C2612 1.391 . S
C2611 C2610 1.386 1_556 S
C2611 C2615 1.393 1_556 S
C2612 H2601 0.950 . S
C2612 C2610 1.391 . S
C2612 C2613 1.400 . S
C2613 C2607 1.491 . S
C2613 C2612 1.400 . S
C2613 C2614 1.398 . S
C2614 H2602 0.950 . S
C2614 C2613 1.398 . S
C2614 C2615 1.391 . S
C2615 H2603 0.950 1_554 S
C2615 C2611 1.393 1_554 S
C2615 C2614 1.391 . S
H2616 C2624 0.950 . S
H2617 C2629 0.950 1_554 S
H2618 C2626 0.950 . S
H2619 C2628 0.950 . S
H2620 C2630 0.950 . S
H2621 C2632 0.950 . S
H2622 C2634 0.950 . S
H2623 C2635 0.950 . S
C2624 H2616 0.950 . S
C2624 C2625 1.386 1_556 S
C2624 C2626 1.391 . S
C2625 C2624 1.386 1_554 S
C2625 C2629 1.393 1_554 S
C2626 H2618 0.950 . S
C2626 C2624 1.391 . S
C2626 C2627 1.400 . S
C2627 C2626 1.400 . S
C2627 C2628 1.398 . S
C2627 C2633 1.491 . S
C2628 H2619 0.950 . S
C2628 C2627 1.398 . S
C2628 C2629 1.391 . S
C2629 H2617 0.950 1_556 S
C2629 C2625 1.393 1_556 S
C2629 C2628 1.391 . S
C2630 H2620 0.950 . S
C2630 C2631 1.386 . S
C2630 C2632 1.391 . S
C2631 C2630 1.386 . S
C2631 C2635 1.393 . S
C2632 H2621 0.950 . S
C2632 C2630 1.391 . S
C2632 C2633 1.400 . S
C2633 C2627 1.491 . S
C2633 C2632 1.400 . S
C2633 C2634 1.398 . S
C2634 H2622 0.950 . S
C2634 C2633 1.398 . S
C2634 C2635 1.391 . S
C2635 H2623 0.950 . S
C2635 C2631 1.393 . S
C2635 C2634 1.391 . S
H2636 C2644 0.950 1_554 S
H2637 C2649 0.950 1_554 S
H2638 C2646 0.950 . S
H2639 C2648 0.950 . S
H2640 C2650 0.950 . S
H2641 C2652 0.950 . S
H2642 C2654 0.950 . S
H2643 C2655 0.950 . S
C2644 H2636 0.950 1_556 S
C2644 C2645 1.386 1_556 S
C2644 C2646 1.391 . S
C2645 C2644 1.386 1_554 S
C2645 C2649 1.393 1_554 S
C2646 H2638 0.950 . S
C2646 C2644 1.391 . S
C2646 C2647 1.400 . S
C2647 C2646 1.400 . S
C2647 C2648 1.398 . S
C2647 C2653 1.491 . S
C2648 H2639 0.950 . S
C2648 C2647 1.398 . S
C2648 C2649 1.391 . S
C2649 H2637 0.950 1_556 S
C2649 C2645 1.393 1_556 S
C2649 C2648 1.391 . S
C2650 H2640 0.950 . S
C2650 C2651 1.386 . S
C2650 C2652 1.391 . S
C2651 C2650 1.386 . S
C2651 C2655 1.393 . S
C2652 H2641 0.950 . S
C2652 C2650 1.391 . S
C2652 C2653 1.400 . S
C2653 C2647 1.491 . S
C2653 C2652 1.400 . S
C2653 C2654 1.398 . S
C2654 H2642 0.950 . S
C2654 C2653 1.398 . S
C2654 C2655 1.391 . S
C2655 H2643 0.950 . S
C2655 C2651 1.393 . S
C2655 C2654 1.391 . S
H2656 C2664 0.950 1_554 S
H2657 C2669 0.950 . S
H2658 C2666 0.950 . S
H2659 C2668 0.950 . S
H2660 C2670 0.950 . S
H2661 C2672 0.950 . S
H2662 C2674 0.950 . S
H2663 C2675 0.950 . S
C2664 H2656 0.950 1_556 S
C2664 C2665 1.386 1_556 S
C2664 C2666 1.391 . S
C2665 C2664 1.386 1_554 S
C2665 C2669 1.393 1_554 S
C2666 H2658 0.950 . S
C2666 C2664 1.391 . S
C2666 C2667 1.400 . S
C2667 C2666 1.400 . S
C2667 C2668 1.398 . S
C2667 C2673 1.491 . S
C2668 H2659 0.950 . S
C2668 C2667 1.398 . S
C2668 C2669 1.391 . S
C2669 H2657 0.950 . S
C2669 C2665 1.393 1_556 S
C2669 C2668 1.391 . S
C2670 H2660 0.950 . S
C2670 C2671 1.386 . S
C2670 C2672 1.391 . S
C2671 C2670 1.386 . S
C2671 C2675 1.393 . S
C2672 H2661 0.950 . S
C2672 C2670 1.391 . S
C2672 C2673 1.400 . S
C2673 C2667 1.491 . S
C2673 C2672 1.400 . S
C2673 C2674 1.398 . S
C2674 H2662 0.950 . S
C2674 C2673 1.398 . S
C2674 C2675 1.391 . S
C2675 H2663 0.950 . S
C2675 C2671 1.393 . S
C2675 C2674 1.391 . S
H2676 C2684 0.950 . S
H2677 C2689 0.950 . S
H2678 C2686 0.950 . S
H2679 C2688 0.950 . S
H2680 C2690 0.950 . S
H2681 C2692 0.950 . S
H2682 C2694 0.950 . S
H2683 C2695 0.950 . S
C2684 H2676 0.950 . S
C2684 C2685 1.386 . S
C2684 C2686 1.391 . S
C2685 C2684 1.386 . S
C2685 C2689 1.393 . S
C2686 H2678 0.950 . S
C2686 C2684 1.391 . S
C2686 C2687 1.400 . S
C2687 C2686 1.400 . S
C2687 C2688 1.398 . S
C2687 C2693 1.491 . S
C2688 H2679 0.950 . S
C2688 C2687 1.398 . S
C2688 C2689 1.391 . S
C2689 H2677 0.950 . S
C2689 C2685 1.393 . S
C2689 C2688 1.391 . S
C2690 H2680 0.950 . S
C2690 C2691 1.386 . S
C2690 C2692 1.391 . S
C2691 C2690 1.386 . S
C2691 C2695 1.393 . S
C2692 H2681 0.950 . S
C2692 C2690 1.391 . S
C2692 C2693 1.400 . S
C2693 C2687 1.491 . S
C2693 C2692 1.400 . S
C2693 C2694 1.398 . S
C2694 H2682 0.950 . S
C2694 C2693 1.398 . S
C2694 C2695 1.391 . S
C2695 H2683 0.950 . S
C2695 C2691 1.393 . S
C2695 C2694 1.391 . S
H2696 C2704 0.950 . S
H2697 C2709 0.950 . S
H2698 C2706 0.950 . S
H2699 C2708 0.950 . S
H2700 C2710 0.950 . S
H2701 C2712 0.950 . S
H2702 C2714 0.950 . S
H2703 C2715 0.950 . S
C2704 H2696 0.950 . S
C2704 C2705 1.386 . S
C2704 C2706 1.391 . S
C2705 C2704 1.386 . S
C2705 C2709 1.393 . S
C2706 H2698 0.950 . S
C2706 C2704 1.391 . S
C2706 C2707 1.400 . S
C2707 C2706 1.400 . S
C2707 C2708 1.398 . S
C2707 C2713 1.491 . S
C2708 H2699 0.950 . S
C2708 C2707 1.398 . S
C2708 C2709 1.391 . S
C2709 H2697 0.950 . S
C2709 C2705 1.393 . S
C2709 C2708 1.391 . S
C2710 H2700 0.950 . S
C2710 C2711 1.386 . S
C2710 C2712 1.391 . S
C2711 C2710 1.386 . S
C2711 C2715 1.393 . S
C2712 H2701 0.950 . S
C2712 C2710 1.391 . S
C2712 C2713 1.400 . S
C2713 C2707 1.491 . S
C2713 C2712 1.400 . S
C2713 C2714 1.398 . S
C2714 H2702 0.950 . S
C2714 C2713 1.398 . S
C2714 C2715 1.391 . S
C2715 H2703 0.950 . S
C2715 C2711 1.393 . S
C2715 C2714 1.391 . S
H2716 C2724 0.950 . S
H2717 C2729 0.950 . S
H2718 C2726 0.950 . S
H2719 C2728 0.950 . S
H2720 C2730 0.950 . S
H2721 C2732 0.950 . S
H2722 C2734 0.950 . S
H2723 C2735 0.950 . S
C2724 H2716 0.950 . S
C2724 C2725 1.386 . S
C2724 C2726 1.391 . S
C2725 C2724 1.386 . S
C2725 C2729 1.393 . S
C2726 H2718 0.950 . S
C2726 C2724 1.391 . S
C2726 C2727 1.400 . S
C2727 C2726 1.400 . S
C2727 C2728 1.398 . S
C2727 C2733 1.491 . S
C2728 H2719 0.950 . S
C2728 C2727 1.398 . S
C2728 C2729 1.391 . S
C2729 H2717 0.950 . S
C2729 C2725 1.393 . S
C2729 C2728 1.391 . S
C2730 H2720 0.950 . S
C2730 C2731 1.386 . S
C2730 C2732 1.391 . S
C2731 C2730 1.386 . S
C2731 C2735 1.393 . S
C2732 H2721 0.950 . S
C2732 C2730 1.391 . S
C2732 C2733 1.400 . S
C2733 C2727 1.491 . S
C2733 C2732 1.400 . S
C2733 C2734 1.398 . S
C2734 H2722 0.950 . S
C2734 C2733 1.398 . S
C2734 C2735 1.391 . S
C2735 H2723 0.950 . S
C2735 C2731 1.393 . S
C2735 C2734 1.391 . S
C1305 C580 1.173 . S
C1311 C4 1.163 . S
C1325 C616 1.159 . S
C1331 C40 1.171 . S
C1345 C76 1.163 . S
C1351 C544 1.173 . S
C1365 C940 1.173 . S
C1371 C112 1.165 . S
C1385 C868 1.162 . S
C1391 C148 1.156 . S
C1405 C184 1.156 . S
C1411 C904 1.162 . S
C1425 C1228 1.165 . S
C1431 C220 1.156 . S
C1445 C1264 1.158 . S
C1451 C256 1.158 . S
C1465 C1192 1.173 . S
C1471 C292 1.161 . S
C1485 C724 1.166 . S
C1491 C328 1.173 . S
C1505 C364 1.158 . S
C1511 C652 1.160 . S
C1525 C688 1.170 . S
C1531 C400 1.158 . S
C1545 C1012 1.165 . S
C1551 C436 1.173 . S
C1565 C472 1.163 . S
C1571 C1048 1.173 . S
C1585 C976 1.166 . S
C1591 C508 1.172 . S
C1605 C1156 1.161 . S
C1611 C760 1.156 . S
C1625 C1084 1.164 . S
C1631 C796 1.156 . S
C1645 C832 1.158 . S
C1651 C1120 1.171 . S
C1665 C254 1.483 . S
C1671 C14 1.410 . S
C1685 C290 1.485 . S
C1691 C50 1.406 . S
C1705 C218 1.486 . S
C1711 C86 1.395 . S
C1725 C122 1.422 . S
C1731 C398 1.483 . S
C1745 C326 1.482 . S
C1751 C158 1.422 . S
C1765 C194 1.399 . S
C1771 C362 1.486 . S
C1785 C38 1.484 . S
C1791 C230 1.403 . S
C1805 C266 1.416 . S
C1811 C74 1.483 . S
C1825 C2 1.483 . S
C1831 C302 1.419 . S
C1845 C182 1.485 . S
C1851 C338 1.395 . S
C1865 C110 1.482 . S
C1871 C374 1.415 . S
C1885 C410 1.400 . S
C1891 C146 1.485 . S
C1905 C446 1.394 . S
C1911 C686 1.485 . S
C1925 C722 1.486 . S
C1931 C482 1.393 . S
C1945 C650 1.486 . S
C1951 C518 1.395 . S
C1965 C554 1.414 . S
C1971 C830 1.483 . S
C1985 C758 1.482 . S
C1991 C590 1.420 . S
C2005 C626 1.391 . S
C2011 C794 1.486 . S
C2025 C662 1.422 . S
C2031 C470 1.482 . S
C2045 C698 1.404 . S
C2051 C506 1.485 . S
C2065 C434 1.482 . S
C2071 C734 1.421 . S
C2085 C614 1.485 . S
C2091 C770 1.396 . S
C2105 C542 1.486 . S
C2111 C806 1.395 . S
C2125 C842 1.417 . S
C2131 C578 1.483 . S
C2145 C1118 1.486 . S
C2151 C878 1.391 . S
C2165 C914 1.421 . S
C2171 C1154 1.482 . S
C2185 C950 1.418 . S
C2191 C1082 1.482 . S
C2205 C1262 1.486 . S
C2211 C986 1.397 . S
C2225 C1022 1.393 . S
C2231 C1190 1.486 . S
C2245 C1226 1.482 . S
C2251 C1058 1.423 . S
C2265 C902 1.482 . S
C2271 C1094 1.421 . S
C2285 C938 1.483 . S
C2291 C1130 1.414 . S
C2305 C1166 1.396 . S
C2311 C866 1.485 . S
C2325 C1202 1.422 . S
C2331 C1046 1.482 . S
C2345 C974 1.486 . S
C2351 C1238 1.392 . S
C2365 C1010 1.484 . S
C2371 C1274 1.414 . S
C2385 C3 1.509 . S
C2391 C111 1.509 . S
C2405 C39 1.508 . S
C2411 C147 1.509 . S
C2425 C183 1.508 . S
C2431 C75 1.508 . S
C2445 C219 1.509 . S
C2451 C327 1.509 . S
C2465 C363 1.509 . S
C2471 C255 1.509 . S
C2485 C399 1.509 . S
C2491 C291 1.509 . S
C2505 C435 1.509 . S
C2511 C543 1.509 . S
C2525 C471 1.509 . S
C2531 C579 1.509 . S
C2545 C615 1.509 . S
C2551 C507 1.509 . S
C2565 C651 1.509 . S
C2571 C759 1.509 . S
C2585 C687 1.509 . S
C2591 C795 1.508 . S
C2605 C723 1.509 . S
C2611 C831 1.509 . S
C2625 C975 1.509 . S
C2631 C867 1.509 . S
C2645 C1011 1.509 . S
C2651 C903 1.509 . S
C2665 C1047 1.509 . S
C2671 C939 1.509 . S
C2685 C1083 1.509 . S
C2691 C1191 1.509 . S
C2705 C1227 1.509 . S
C2711 C1119 1.509 . S
C2725 C1263 1.508 . S
C2731 C1155 1.508 . S
