# Generated by pormake.
# Topology wme, (6)-cn, num edge types: 1
# Building blocks:
#     Node 0, Type 0, BuildingBlock: PAMTUU_clean_sbu_0, # of connection points: 6
#     Node 1, Type 0, BuildingBlock: PAMTUU_clean_sbu_0, # of connection points: 6
#     Node 2, Type 0, BuildingBlock: PAMTUU_clean_sbu_0, # of connection points: 6
#     Node 3, Type 0, BuildingBlock: PAMTUU_clean_sbu_0, # of connection points: 6
#     Node 4, Type 0, BuildingBlock: PAMTUU_clean_sbu_0, # of connection points: 6
#     Node 5, Type 0, BuildingBlock: PAMTUU_clean_sbu_0, # of connection points: 6
#     Node 6, Type 0, BuildingBlock: PAMTUU_clean_sbu_0, # of connection points: 6
#     Node 7, Type 0, BuildingBlock: PAMTUU_clean_sbu_0, # of connection points: 6
#     Node 8, Type 0, BuildingBlock: PAMTUU_clean_sbu_0, # of connection points: 6
#     Node 9, Type 0, BuildingBlock: PAMTUU_clean_sbu_0, # of connection points: 6
#     Node 10, Type 0, BuildingBlock: PAMTUU_clean_sbu_0, # of connection points: 6
#     Node 11, Type 0, BuildingBlock: PAMTUU_clean_sbu_0, # of connection points: 6
#     Edge 12, Type (0, 0), BuildingBlock: AJUNOK_clean_linker_0, # of connection points: 2
#     Edge 13, Type (0, 0), BuildingBlock: AJUNOK_clean_linker_0, # of connection points: 2
#     Edge 14, Type (0, 0), BuildingBlock: AJUNOK_clean_linker_0, # of connection points: 2
#     Edge 15, Type (0, 0), BuildingBlock: AJUNOK_clean_linker_0, # of connection points: 2
#     Edge 16, Type (0, 0), BuildingBlock: AJUNOK_clean_linker_0, # of connection points: 2
#     Edge 17, Type (0, 0), BuildingBlock: AJUNOK_clean_linker_0, # of connection points: 2
#     Edge 18, Type (0, 0), BuildingBlock: AJUNOK_clean_linker_0, # of connection points: 2
#     Edge 19, Type (0, 0), BuildingBlock: AJUNOK_clean_linker_0, # of connection points: 2
#     Edge 20, Type (0, 0), BuildingBlock: AJUNOK_clean_linker_0, # of connection points: 2
#     Edge 21, Type (0, 0), BuildingBlock: AJUNOK_clean_linker_0, # of connection points: 2
#     Edge 22, Type (0, 0), BuildingBlock: AJUNOK_clean_linker_0, # of connection points: 2
#     Edge 23, Type (0, 0), BuildingBlock: AJUNOK_clean_linker_0, # of connection points: 2
#     Edge 24, Type (0, 0), BuildingBlock: AJUNOK_clean_linker_0, # of connection points: 2
#     Edge 25, Type (0, 0), BuildingBlock: AJUNOK_clean_linker_0, # of connection points: 2
#     Edge 26, Type (0, 0), BuildingBlock: AJUNOK_clean_linker_0, # of connection points: 2
#     Edge 27, Type (0, 0), BuildingBlock: AJUNOK_clean_linker_0, # of connection points: 2
#     Edge 28, Type (0, 0), BuildingBlock: AJUNOK_clean_linker_0, # of connection points: 2
#     Edge 29, Type (0, 0), BuildingBlock: AJUNOK_clean_linker_0, # of connection points: 2
#     Edge 30, Type (0, 0), BuildingBlock: AJUNOK_clean_linker_0, # of connection points: 2
#     Edge 31, Type (0, 0), BuildingBlock: AJUNOK_clean_linker_0, # of connection points: 2
#     Edge 32, Type (0, 0), BuildingBlock: AJUNOK_clean_linker_0, # of connection points: 2
#     Edge 33, Type (0, 0), BuildingBlock: AJUNOK_clean_linker_0, # of connection points: 2
#     Edge 34, Type (0, 0), BuildingBlock: AJUNOK_clean_linker_0, # of connection points: 2
#     Edge 35, Type (0, 0), BuildingBlock: AJUNOK_clean_linker_0, # of connection points: 2
#     Edge 36, Type (0, 0), BuildingBlock: AJUNOK_clean_linker_0, # of connection points: 2
#     Edge 37, Type (0, 0), BuildingBlock: AJUNOK_clean_linker_0, # of connection points: 2
#     Edge 38, Type (0, 0), BuildingBlock: AJUNOK_clean_linker_0, # of connection points: 2
#     Edge 39, Type (0, 0), BuildingBlock: AJUNOK_clean_linker_0, # of connection points: 2
#     Edge 40, Type (0, 0), BuildingBlock: AJUNOK_clean_linker_0, # of connection points: 2
#     Edge 41, Type (0, 0), BuildingBlock: AJUNOK_clean_linker_0, # of connection points: 2
#     Edge 42, Type (0, 0), BuildingBlock: AJUNOK_clean_linker_0, # of connection points: 2
#     Edge 43, Type (0, 0), BuildingBlock: AJUNOK_clean_linker_0, # of connection points: 2
#     Edge 44, Type (0, 0), BuildingBlock: AJUNOK_clean_linker_0, # of connection points: 2
#     Edge 45, Type (0, 0), BuildingBlock: AJUNOK_clean_linker_0, # of connection points: 2
#     Edge 46, Type (0, 0), BuildingBlock: AJUNOK_clean_linker_0, # of connection points: 2
#     Edge 47, Type (0, 0), BuildingBlock: AJUNOK_clean_linker_0, # of connection points: 2
# Relax obj value: 0.095
# Max RMSD: 0.222
# Mean RMSD: 0.222
data_MOF--net-wme--node1-PAMTUU_clean_sbu_0--edge1-AJUNOK_clean_linker_0
_symmetry_space_group_name_H-M    P1
_symmetry_Int_Tables_number       1
_symmetry_cell_setting            triclinic
loop_
_symmetry_equiv_pos_as_xyz
'x, y, z'
_cell_length_a     31.585944
_cell_length_b     31.685049
_cell_length_c     38.295375
_cell_angle_alpha  90.149198
_cell_angle_beta   89.767204
_cell_angle_gamma 119.86183
loop_
_atom_site_label
_atom_site_type_symbol
_atom_site_fract_x
_atom_site_fract_y
_atom_site_fract_z
_atom_type_partial_charge
Tb0 Tb 0.28489 0.32926 0.13373 0.0
Tb1 Tb 0.24229 0.39427 0.09529 0.0
C2 C 0.25917 0.39518 0.17749 0.0
C3 C 0.29019 0.21811 0.1545 0.0
C4 C 0.25414 0.1175 0.14338 0.0
C5 C 0.30385 0.14911 0.15066 0.0
C6 C 0.32165 0.19889 0.15615 0.0
C7 C 0.24035 0.18654 0.14769 0.0
C8 C 0.22245 0.13665 0.14245 0.0
C9 C 0.31001 0.27117 0.15849 0.0
O10 O 0.20556 0.29219 0.14055 0.0
O11 O 0.18746 0.31807 0.09031 0.0
O12 O 0.27915 0.37368 0.05526 0.0
O13 O 0.26392 0.30267 0.08128 0.0
O14 O 0.18064 0.40167 0.08706 0.0
O15 O 0.24947 0.45164 0.06319 0.0
O16 O 0.31389 0.4476 0.11341 0.0
O17 O 0.34906 0.39889 0.118 0.0
O18 O 0.29146 0.38124 0.17267 0.0
O19 O 0.23092 0.39445 0.15187 0.0
C20 C 0.17394 0.28743 0.11646 0.0
O21 O 0.32939 0.29727 0.13051 0.0
O22 O 0.28247 0.28461 0.17505 0.0
C23 C 0.27779 0.33141 0.05423 0.0
C24 C 0.19596 0.48184 0.07779 0.0
C25 C 0.17514 0.55708 0.09424 0.0
C26 C 0.17092 0.53991 0.05978 0.0
C27 C 0.18108 0.50265 0.05171 0.0
C28 C 0.20043 0.49886 0.11224 0.0
C29 C 0.19024 0.53616 0.12036 0.0
C30 C 0.2045 0.44121 0.06865 0.0
C31 C 0.35231 0.44207 0.1151 0.0
H32 H 0.32901 0.13528 0.15202 0.0
H33 H 0.36017 0.2225 0.16132 0.0
H34 H 0.21534 0.20054 0.14599 0.0
H35 H 0.18406 0.11322 0.13679 0.0
H36 H 0.16074 0.55596 0.03883 0.0
H37 H 0.17734 0.49007 0.02496 0.0
H38 H 0.21164 0.4832 0.13285 0.0
H39 H 0.19401 0.54858 0.14715 0.0
Tb40 Tb 0.98518 0.26475 0.63274 0.0
Tb41 Tb 0.87821 0.22207 0.59508 0.0
C42 C 0.89336 0.2348 0.67756 0.0
C43 C 0.10054 0.2687 0.65112 0.0
C44 C 0.1613 0.22819 0.6391 0.0
C45 C 0.18093 0.27624 0.65139 0.0
C46 C 0.15079 0.29626 0.65742 0.0
C47 C 0.08076 0.22073 0.63875 0.0
C48 C 0.11084 0.2006 0.63289 0.0
C49 C 0.0691 0.29044 0.65612 0.0
O50 O 0.94473 0.18569 0.63941 0.0
O51 O 0.899 0.16661 0.58987 0.0
O52 O 0.93602 0.26061 0.55547 0.0
O53 O 0.98956 0.24189 0.58059 0.0
O54 O 0.82848 0.23081 0.56343 0.0
O55 O 0.80933 0.16121 0.58585 0.0
O56 O 0.89443 0.29105 0.61746 0.0
O57 O 0.97817 0.3281 0.61712 0.0
O58 O 0.93925 0.26808 0.67304 0.0
O59 O 0.86617 0.20787 0.65136 0.0
C60 C 0.9174 0.1538 0.61564 0.0
O61 O 0.06136 0.30912 0.62821 0.0
O62 O 1.02889 0.26417 0.67369 0.0
C63 C 0.97619 0.25769 0.55385 0.0
C64 C 0.74444 0.17699 0.57654 0.0
C65 C 0.64771 0.15619 0.59086 0.0
C66 C 0.66318 0.15568 0.55642 0.0
C67 C 0.71087 0.16586 0.5494 0.0
C68 C 0.72933 0.17734 0.6111 0.0
C69 C 0.68135 0.16702 0.6182 0.0
C70 C 0.79398 0.18584 0.56799 0.0
C71 C 0.93751 0.33051 0.61732 0.0
H72 H 0.2197 0.29832 0.65641 0.0
H73 H 0.16677 0.33338 0.66674 0.0
H74 H 1.04209 0.199 0.63326 0.0
H75 H 0.09482 0.16386 0.62281 0.0
H76 H 0.63826 0.1474 0.53479 0.0
H77 H 0.72153 0.16491 0.5226 0.0
H78 H 0.7546 0.18569 0.63252 0.0
H79 H 0.67093 0.16861 0.64494 0.0
Tb80 Tb 0.75423 0.97119 0.1352 0.0
Tb81 Tb 0.68903 0.86252 0.10002 0.0
C82 C 0.6904 0.88233 0.18201 0.0
C83 C 0.86538 0.08844 0.14963 0.0
C84 C 0.96659 0.14921 0.13771 0.0
C85 C 0.94391 0.15635 0.16707 0.0
C86 C 0.89371 0.12628 0.17292 0.0
C87 C 0.88811 0.0806 0.12068 0.0
C88 C 0.93817 0.11071 0.11475 0.0
C89 C 0.81262 0.05639 0.15605 0.0
O90 O 0.79225 0.93045 0.14453 0.0
O91 O 0.76495 0.88124 0.09661 0.0
O92 O 0.70847 0.91845 0.05928 0.0
O93 O 0.78123 0.97127 0.08359 0.0
O94 O 0.63059 0.81223 0.06884 0.0
O95 O 0.68098 0.79329 0.09198 0.0
O96 O 0.63658 0.88037 0.12105 0.0
O97 O 0.68369 0.96375 0.11882 0.0
O98 O 0.7051 0.92843 0.17638 0.0
O99 O 0.68924 0.85316 0.1568 0.0
C100 C 0.79594 0.9006 0.12244 0.0
O101 O 0.78432 0.04661 0.12891 0.0
O102 O 0.80083 1.01746 0.17441 0.0
C103 C 0.75194 0.95756 0.05695 0.0
C104 C 0.60096 0.72854 0.08199 0.0
C105 C 0.52518 0.63238 0.09617 0.0
C106 C 0.55514 0.64268 0.0665 0.0
C107 C 0.59255 0.69012 0.05956 0.0
C108 C 0.57165 0.71868 0.11193 0.0
C109 C 0.53397 0.67098 0.11892 0.0
C110 C 0.64133 0.7779 0.0737 0.0
C111 C 0.6405 0.92352 0.11968 0.0
H112 H 0.96489 0.1857 0.18521 0.0
H113 H 0.87701 0.13263 0.19559 0.0
H114 H 0.86715 0.05113 0.10264 0.0
H115 H 0.95474 0.10365 0.09233 0.0
H116 H 0.54961 0.61391 0.04854 0.0
H117 H 0.615 0.69684 0.03648 0.0
H118 H 0.5777 0.74781 0.12971 0.0
H119 H 0.51104 0.66456 0.14164 0.0
Tb120 Tb 0.81022 0.7323 0.63324 0.0
Tb121 Tb 0.85412 0.66702 0.5982 0.0
C122 C 0.83788 0.66762 0.68047 0.0
C123 C 0.80877 0.84664 0.64754 0.0
C124 C 0.85048 0.94773 0.63656 0.0
C125 C 0.81727 0.92458 0.6641 0.0
C126 C 0.7965 0.87442 0.66948 0.0
C127 C 0.84278 0.86981 0.6205 0.0
C128 C 0.86345 0.9199 0.61505 0.0
C129 C 0.78599 0.79368 0.65281 0.0
O130 O 0.88617 0.78073 0.61599 0.0
O131 O 0.9129 0.72726 0.62496 0.0
O132 O 0.84702 0.71366 0.55833 0.0
O133 O 0.77886 0.70627 0.58285 0.0
O134 O 0.91576 0.66105 0.58505 0.0
O135 O 0.84441 0.60797 0.56708 0.0
O136 O 0.77693 0.61656 0.60527 0.0
O137 O 0.74975 0.65768 0.6411 0.0
O138 O 0.82846 0.70344 0.67776 0.0
O139 O 0.84587 0.64646 0.65343 0.0
C140 C 0.92208 0.77202 0.62219 0.0
O141 O 0.76948 0.76718 0.62476 0.0
O142 O 0.8101 0.77927 0.67225 0.0
C143 C 0.80699 0.71661 0.55578 0.0
C144 C 0.89962 0.57915 0.58007 0.0
C145 C 0.91935 0.50309 0.5962 0.0
C146 C 0.87437 0.49283 0.58162 0.0
C147 C 0.8647 0.53027 0.57356 0.0
C148 C 0.94474 0.58954 0.5946 0.0
C149 C 0.95441 0.55196 0.6027 0.0
C150 C 0.88986 0.61894 0.57001 0.0
C151 C 0.74358 0.61779 0.62527 0.0
H152 H 0.80659 0.94515 0.68102 0.0
H153 H 0.77051 0.85724 0.69056 0.0
H154 H 0.85309 0.84907 0.60342 0.0
H155 H 0.88961 0.93689 0.59405 0.0
H156 H 0.84669 0.45565 0.57597 0.0
H157 H 0.82987 0.52083 0.56194 0.0
H158 H 0.97272 0.62679 0.59966 0.0
H159 H 0.98912 0.56115 0.61438 0.0
Tb160 Tb 0.11474 0.79937 0.1338 0.0
Tb161 Tb 0.22104 0.84107 0.09495 0.0
C162 C 0.20611 0.82451 0.17722 0.0
C163 C 0.9973 0.79281 0.15295 0.0
C164 C 0.93531 0.83254 0.14358 0.0
C165 C 0.94444 0.82117 0.17721 0.0
C166 C 0.97516 0.8015 0.18182 0.0
C167 C 0.98831 0.80432 0.11934 0.0
C168 C 0.95745 0.8237 0.11472 0.0
C169 C 1.03111 0.77371 0.15826 0.0
O170 O 0.1564 0.87856 0.1415 0.0
O171 O 0.20091 0.89703 0.09133 0.0
O172 O 0.16289 0.80288 0.05582 0.0
O173 O 0.11018 0.82218 0.08187 0.0
O174 O 0.28919 0.9026 0.08492 0.0
O175 O 0.27107 0.83303 0.06288 0.0
O176 O 0.20459 0.77123 0.11556 0.0
O177 O 0.12089 0.73563 0.11697 0.0
O178 O 0.15977 0.79287 0.17288 0.0
O179 O 0.23347 0.85273 0.15146 0.0
C180 C 0.18482 0.91075 0.11814 0.0
O181 O 1.03885 0.75295 0.13139 0.0
O182 O 0.07155 0.80259 0.17461 0.0
C183 C 0.12241 0.80529 0.05497 0.0
C184 C 0.35491 0.88691 0.07805 0.0
C185 C 0.45042 0.90609 0.09481 0.0
C186 C 0.41581 0.86113 0.08028 0.0
C187 C 0.36877 0.85171 0.0719 0.0
C188 C 0.38961 0.93202 0.09241 0.0
C189 C 0.43669 0.9414 0.10085 0.0
C190 C 0.30557 0.87791 0.06803 0.0
C191 C 0.16111 0.73235 0.11592 0.0
H192 H 0.92725 0.82679 0.1999 0.0
H193 H 0.9817 0.79314 0.20798 0.0
H194 H 1.00528 0.79858 0.09658 0.0
H195 H 0.95124 0.83222 0.08852 0.0
H196 H 0.42533 0.83327 0.075 0.0
H197 H 0.34337 0.81689 0.06042 0.0
H198 H 0.38043 0.96024 0.09713 0.0
H199 H 0.46209 0.97607 0.1125 0.0
Tb200 Tb 0.34327 0.09189 0.63243 0.0
Tb201 Tb 0.40751 0.20085 0.59647 0.0
C202 C 0.40737 0.18121 0.67797 0.0
C203 C 0.23025 0.97782 0.65184 0.0
C204 C 0.12811 0.91742 0.64313 0.0
C205 C 0.15404 0.90528 0.66718 0.0
C206 C 0.2045 0.93514 0.67148 0.0
C207 C 0.20452 0.99085 0.62838 0.0
C208 C 0.15394 0.9609 0.62401 0.0
C209 C 0.28368 1.00862 0.65605 0.0
O210 O 0.30439 0.13238 0.63934 0.0
O211 O 0.33124 0.17893 0.59021 0.0
O212 O 0.38968 0.14639 0.55488 0.0
O213 O 0.31857 0.08812 0.5797 0.0
O214 O 0.4143 0.26984 0.59071 0.0
O215 O 0.4657 0.25327 0.566 0.0
O216 O 0.46096 0.18267 0.61446 0.0
O217 O 0.41403 0.09879 0.61666 0.0
O218 O 0.39432 0.13559 0.67224 0.0
O219 O 0.4053 0.20902 0.6532 0.0
C220 C 0.29956 0.15967 0.6157 0.0
O221 O 0.30994 1.0158 0.62793 0.0
O222 O 0.29815 0.04888 0.67349 0.0
C223 C 0.34822 0.10482 0.55309 0.0
C224 C 0.49629 0.33506 0.58633 0.0
C225 C 0.57355 0.42744 0.60765 0.0
C226 C 0.58292 0.39574 0.58746 0.0
C227 C 0.54486 0.35021 0.57696 0.0
C228 C 0.4868 0.36706 0.60612 0.0
C229 C 0.52496 0.41267 0.61663 0.0
C230 C 0.45562 0.28743 0.57392 0.0
C231 C 0.45688 0.13939 0.61417 0.0
H232 H 0.13525 0.87226 0.68252 0.0
H233 H 0.22349 0.92464 0.68993 0.0
H234 H 0.22369 1.02387 0.61309 0.0
H235 H 0.13539 0.97102 0.60492 0.0
H236 H 0.61975 0.40653 0.57916 0.0
H237 H 0.55349 0.32709 0.56114 0.0
H238 H 0.44978 0.35703 0.61335 0.0
H239 H 0.51648 0.43633 0.63194 0.0
Tb240 Tb 0.75301 0.80215 0.3693 0.0
Tb241 Tb 0.69062 0.84673 0.40844 0.0
C242 C 0.68818 0.82975 0.32624 0.0
C243 C 0.86222 0.79285 0.34913 0.0
C244 C 0.964 0.83138 0.35777 0.0
C245 C 0.94399 0.82695 0.32429 0.0
C246 C 0.89363 0.8079 0.32004 0.0
C247 C 0.88224 0.79715 0.38258 0.0
C248 C 0.93246 0.81606 0.3868 0.0
C249 C 0.80926 0.77456 0.34442 0.0
O250 O 0.79149 0.881 0.36116 0.0
O251 O 0.76684 0.90264 0.41082 0.0
O252 O 0.71252 0.80997 0.44745 0.0
O253 O 0.78327 0.82711 0.42035 0.0
O254 O 0.68307 0.90786 0.4183 0.0
O255 O 0.63315 0.83858 0.44129 0.0
O256 O 0.63651 0.77703 0.38799 0.0
O257 O 0.6831 0.73982 0.38718 0.0
O258 O 0.70164 0.79711 0.33051 0.0
O259 O 0.68984 0.85839 0.35199 0.0
C260 C 0.79683 0.91416 0.38419 0.0
O261 O 0.78111 0.75452 0.37155 0.0
O262 O 0.79789 0.80354 0.32798 0.0
C263 C 0.75557 0.81258 0.448 0.0
C264 C 0.60213 0.89111 0.42692 0.0
C265 C 0.5261 0.9102 0.40921 0.0
C266 C 0.54408 0.91714 0.44357 0.0
C267 C 0.58175 0.90783 0.45226 0.0
C268 C 0.58425 0.88385 0.39262 0.0
C269 C 0.54658 0.8932 0.38388 0.0
C270 C 0.64315 0.88335 0.43641 0.0
C271 C 0.64008 0.73754 0.388 0.0
H272 H 0.96714 0.83748 0.30133 0.0
H273 H 0.87918 0.80501 0.29398 0.0
H274 H 0.85919 0.78611 0.4056 0.0
H275 H 0.94675 0.81904 0.41291 0.0
H276 H 0.52837 0.92886 0.46396 0.0
H277 H 0.59499 0.91368 0.47889 0.0
H278 H 0.59957 0.87115 0.37258 0.0
H279 H 0.53356 0.88733 0.35721 0.0
Tb280 Tb 0.9836 0.7292 0.86659 0.0
Tb281 Tb 0.87669 0.66538 0.90592 0.0
C282 C 0.89068 0.6669 0.82332 0.0
C283 C 0.09925 0.83991 0.84479 0.0
C284 C 0.16251 0.94109 0.8542 0.0
C285 C 0.18119 0.91028 0.84552 0.0
C286 C 0.14984 0.86022 0.84075 0.0
C287 C 0.08043 0.87055 0.85354 0.0
C288 C 0.11174 0.92066 0.85807 0.0
C289 C 0.06655 0.78679 0.841 0.0
O290 O 0.94331 0.76878 0.86261 0.0
O291 O 0.89934 0.74145 0.91295 0.0
O292 O 0.93428 0.68302 0.945 0.0
O293 O 0.99088 0.75429 0.91965 0.0
O294 O 0.80748 0.65757 0.91508 0.0
O295 O 0.82723 0.6078 0.93812 0.0
O296 O 0.89241 0.61264 0.883 0.0
O297 O 0.97624 0.65814 0.88078 0.0
O298 O 0.93682 0.67982 0.82694 0.0
O299 O 0.86437 0.66807 0.84981 0.0
C300 C 0.91655 0.77292 0.88734 0.0
O301 O 0.06008 0.76086 0.869 0.0
O302 O 1.02547 0.77315 0.8248 0.0
C303 C 0.97572 0.72471 0.94623 0.0
C304 C 0.74295 0.57585 0.92282 0.0
C305 C 0.64759 0.49776 0.90803 0.0
C306 C 0.68395 0.48887 0.92132 0.0
C307 C 0.73088 0.52733 0.92873 0.0
C308 C 0.70662 0.58479 0.90948 0.0
C309 C 0.65964 0.54626 0.90205 0.0
C310 C 0.79196 0.61714 0.93244 0.0
C311 C 0.93526 0.61555 0.88165 0.0
H312 H 0.22014 0.92498 0.84238 0.0
H313 H 0.16516 0.83728 0.83419 0.0
H314 H 1.04154 0.85567 0.85724 0.0
H315 H 0.09632 0.94325 0.86538 0.0
H316 H 0.67587 0.45199 0.92649 0.0
H317 H 0.75754 0.51895 0.93941 0.0
H318 H 0.71441 0.62171 0.90493 0.0
H319 H 0.63289 0.55446 0.89129 0.0
Tb320 Tb 0.28379 0.96927 0.36535 0.0
Tb321 Tb 0.24113 0.86244 0.40332 0.0
C322 C 0.25876 0.87848 0.32094 0.0
C323 C 0.29075 0.0872 0.34891 0.0
C324 C 0.25109 0.14928 0.35959 0.0
C325 C 0.25442 0.13358 0.3258 0.0
C326 C 0.27404 0.10289 0.32054 0.0
C327 C 0.28737 0.10288 0.38272 0.0
C328 C 0.26796 0.13365 0.38794 0.0
C329 C 0.3103 0.05368 0.34305 0.0
O330 O 0.20489 0.92803 0.35623 0.0
O331 O 0.18285 0.87975 0.40477 0.0
O332 O 0.27643 0.92055 0.44298 0.0
O333 O 0.2557 0.97105 0.41601 0.0
O334 O 0.18038 0.79392 0.41355 0.0
O335 O 0.25065 0.81326 0.43498 0.0
O336 O 0.31151 0.87979 0.38264 0.0
O337 O 0.34695 0.96305 0.3836 0.0
O338 O 0.29033 0.92476 0.32563 0.0
O339 O 0.23096 0.85057 0.34669 0.0
C340 C 0.17135 0.89844 0.37843 0.0
O341 O 0.33012 0.04477 0.36984 0.0
O342 O 0.28251 1.01417 0.32535 0.0
C343 C 0.27152 0.9595 0.44359 0.0
C344 C 0.19748 0.72991 0.42078 0.0
C345 C 0.17775 0.63489 0.40292 0.0
C346 C 0.17906 0.64852 0.43808 0.0
C347 C 0.18883 0.69551 0.44688 0.0
C348 C 0.19584 0.71644 0.38562 0.0
C349 C 0.18588 0.66937 0.37677 0.0
C350 C 0.20563 0.7786 0.43069 0.0
C351 C 0.35045 0.92308 0.3838 0.0
H352 H 0.24268 0.14572 0.30332 0.0
H353 H 0.2762 0.09142 0.29423 0.0
H354 H 0.29958 0.09133 0.40526 0.0
H355 H 0.26585 0.14503 0.41427 0.0
H356 H 0.17333 0.62306 0.45885 0.0
H357 H 0.18956 0.70498 0.47416 0.0
H358 H 0.20194 0.74223 0.36501 0.0
H359 H 0.18429 0.6599 0.34943 0.0
Tb360 Tb 0.34408 0.25991 0.86806 0.0
Tb361 Tb 0.40688 0.21459 0.90469 0.0
C362 C 0.40803 0.23283 0.82266 0.0
C363 C 0.23476 0.26874 0.84987 0.0
C364 C 0.13328 0.23012 0.85908 0.0
C365 C 0.16363 0.27932 0.85008 0.0
C366 C 0.21393 0.2984 0.84536 0.0
C367 C 0.20463 0.21971 0.85923 0.0
C368 C 0.1543 0.20048 0.86357 0.0
C369 C 0.28796 0.28923 0.84607 0.0
O370 O 0.30495 0.18134 0.85813 0.0
O371 O 0.33069 0.15799 0.90622 0.0
O372 O 0.38672 0.25172 0.94482 0.0
O373 O 0.31511 0.23259 0.91908 0.0
O374 O 0.46455 0.22184 0.9365 0.0
O375 O 0.4137 0.1529 0.91357 0.0
O376 O 0.46077 0.28452 0.88437 0.0
O377 O 0.4143 0.32184 0.88578 0.0
O378 O 0.39452 0.26532 0.82803 0.0
O379 O 0.40793 0.20456 0.84803 0.0
C380 C 0.30064 0.14725 0.87982 0.0
O381 O 0.31309 0.30476 0.87485 0.0
O382 O 0.3017 0.26365 0.82737 0.0
C383 C 0.34365 0.24878 0.94611 0.0
C384 C 0.49405 0.1681 0.92175 0.0
C385 C 0.56954 0.14819 0.9039 0.0
C386 C 0.54829 0.13721 0.9374 0.0
C387 C 0.5109 0.14699 0.94616 0.0
C388 C 0.51488 0.179 0.8882 0.0
C389 C 0.55238 0.16927 0.8794 0.0
C390 C 0.45371 0.17684 0.93148 0.0
C391 C 0.45731 0.32407 0.88567 0.0
H392 H 0.14834 0.30296 0.84654 0.0
H393 H 0.23659 0.33639 0.83844 0.0
H394 H 0.22014 0.19642 0.86351 0.0
H395 H 0.13196 0.1627 0.87111 0.0
H396 H 0.56138 0.12215 0.95717 0.0
H397 H 0.49524 0.13821 0.97216 0.0
H398 H 0.50217 0.19502 0.86887 0.0
H399 H 0.56801 0.17826 0.85341 0.0
Tb400 Tb 0.11417 0.33187 0.36699 0.0
Tb401 Tb 0.22177 0.3965 0.40396 0.0
C402 C 0.20526 0.39575 0.32161 0.0
C403 C 0.99639 0.22166 0.35091 0.0
C404 C 0.93575 0.12044 0.36168 0.0
C405 C 0.94134 0.14063 0.32814 0.0
C406 C 0.97138 0.19077 0.32283 0.0
C407 C 0.99102 0.20147 0.38443 0.0
C408 C 0.96077 0.15146 0.38977 0.0
C409 C 1.02955 0.27426 0.34475 0.0
O410 O 0.15479 0.29332 0.35875 0.0
O411 O 0.20369 0.32094 0.40691 0.0
O412 O 0.16383 0.37637 0.44366 0.0
O413 O 0.11155 0.30406 0.41854 0.0
O414 O 0.29128 0.40555 0.41315 0.0
O415 O 0.27027 0.45436 0.43641 0.0
O416 O 0.20513 0.44916 0.38217 0.0
O417 O 0.1214 0.40235 0.38306 0.0
O418 O 0.15875 0.38072 0.3263 0.0
O419 O 0.23356 0.39667 0.34733 0.0
C420 C 0.18436 0.28978 0.38112 0.0
O421 O 1.03844 0.30308 0.37153 0.0
O422 O 0.06921 0.28545 0.32715 0.0
C423 C 0.12459 0.33295 0.44541 0.0
C424 C 0.35445 0.48619 0.42307 0.0
C425 C 0.45006 0.56255 0.40757 0.0
C426 C 0.43767 0.54289 0.44143 0.0
C427 C 0.39045 0.50508 0.44903 0.0
C428 C 0.36636 0.50577 0.38924 0.0
C429 C 0.41368 0.54369 0.3816 0.0
C430 C 0.3056 0.44488 0.43162 0.0
C431 C 0.16184 0.44529 0.3821 0.0
H432 H 0.9219 0.11775 0.3061 0.0
H433 H 0.97518 0.20543 0.29675 0.0
H434 H 1.01035 0.22426 0.40655 0.0
H435 H 0.95727 0.13693 0.41586 0.0
H436 H 0.46423 0.55735 0.46229 0.0
H437 H 0.38202 0.4905 0.4753 0.0
H438 H 0.33918 0.4916 0.36876 0.0
H439 H 0.42193 0.55812 0.3553 0.0
Tb440 Tb 0.81311 0.08841 0.86827 0.0
Tb441 Tb 0.85567 0.19656 0.90357 0.0
C442 C 0.83949 0.17765 0.82151 0.0
C443 C 0.807 0.9711 0.85316 0.0
C444 C 0.84645 0.91001 0.86659 0.0
C445 C 0.79594 0.89022 0.86168 0.0
C446 C 0.77642 0.92052 0.85494 0.0
C447 C 0.85747 0.99095 0.85821 0.0
C448 C 0.87711 0.96064 0.86447 0.0
C449 C 0.78591 1.00301 0.84772 0.0
O450 O 0.89211 0.12879 0.85927 0.0
O451 O 0.91322 0.17838 0.90701 0.0
O452 O 0.81876 0.14065 0.94422 0.0
O453 O 0.83931 0.088 0.91995 0.0
O454 O 0.91663 0.26537 0.91246 0.0
O455 O 0.84652 0.24687 0.93431 0.0
O456 O 0.78577 0.17898 0.88211 0.0
O457 O 0.74962 0.09572 0.88419 0.0
O458 O 0.80804 0.13148 0.82679 0.0
O459 O 0.86694 0.20649 0.84694 0.0
C460 C 0.92535 0.15915 0.88121 0.0
O461 O 0.76869 1.01292 0.87565 0.0
O462 O 0.81165 0.04172 0.82869 0.0
C463 C 0.82349 0.10178 0.94659 0.0
C464 C 0.89929 0.33014 0.91825 0.0
C465 C 0.91738 0.42502 0.90193 0.0
C466 C 0.87821 0.3941 0.9238 0.0
C467 C 0.86945 0.3474 0.93201 0.0
C468 C 0.93845 0.36104 0.89622 0.0
C469 C 0.94734 0.40793 0.88814 0.0
C470 C 0.89133 0.28154 0.92883 0.0
C471 C 0.74652 0.13586 0.88322 0.0
H472 H 0.7716 0.85123 0.86291 0.0
H473 H 0.73738 0.90449 0.85141 0.0
H474 H 0.88164 1.02994 0.85766 0.0
H475 H 0.91609 0.97677 0.86835 0.0
H476 H 0.85463 0.40636 0.93499 0.0
H477 H 0.83952 0.32493 0.94944 0.0
H478 H 0.96252 0.34921 0.88535 0.0
H479 H 0.97733 0.43061 0.87083 0.0
C480 C 0.17907 0.97871 0.14829 0.0
C481 C 0.20132 0.96356 0.12301 0.0
C482 C 0.19571 1.0284 0.15438 0.0
C483 C 0.23577 0.06496 0.13587 0.0
H484 H 0.14865 0.95203 0.16365 0.0
H485 H 0.17771 0.03831 0.17425 0.0
S486 S 0.30604 0.04549 0.06609 0.0
N487 N 0.26507 0.99009 0.07862 0.0
N488 N 0.29606 0.08278 0.09038 0.0
C489 C 0.25794 0.05046 0.11029 0.0
C490 C 0.24079 1.00002 0.10377 0.0
C491 C 0.26905 0.21778 0.60535 0.0
C492 C 0.26146 0.17376 0.6199 0.0
C493 C 0.2362 0.23463 0.6114 0.0
C494 C 0.19399 0.20787 0.63182 0.0
H495 H 0.30145 0.24033 0.58997 0.0
H496 H 0.24406 0.26912 0.60011 0.0
S497 S 0.15501 0.08843 0.67367 0.0
N498 N 0.20712 0.10239 0.65418 0.0
N499 N 0.1451 0.13392 0.66531 0.0
C500 C 0.18491 0.16289 0.64549 0.0
C501 C 0.21874 0.14595 0.63965 0.0
C502 C 0.05391 0.19271 0.15771 0.0
C503 C 1.01964 0.18229 0.13097 0.0
C504 C 0.10387 0.22536 0.15239 0.0
C505 C 0.12156 0.24944 0.12022 0.0
H506 H 1.04198 0.17559 0.18304 0.0
H507 H 0.12855 0.23265 0.17403 0.0
S508 S 1.04675 0.23368 0.04138 0.0
N509 N 1.00691 0.19782 0.07092 0.0
N510 N 0.10048 0.25891 0.06075 0.0
C511 C 0.08767 0.23849 0.09301 0.0
C512 C 1.03688 0.20501 0.09841 0.0
C513 C 0.8913 0.03434 0.65738 0.0
C514 C 0.87051 1.00058 0.62995 0.0
C515 C 0.90805 0.08405 0.65217 0.0
C516 C 0.904 0.10189 0.61942 0.0
H517 H 0.89435 1.02215 0.68317 0.0
H518 H 0.92293 0.10838 0.67431 0.0
S519 S 0.85359 1.02847 0.53875 0.0
N520 N 0.84787 0.98851 0.56865 0.0
N521 N 0.87917 0.08171 0.55876 0.0
C522 C 0.88419 0.06856 0.59157 0.0
C523 C 0.86754 1.01803 0.59684 0.0
C524 C 0.86397 0.83017 0.11337 0.0
C525 C 0.90143 0.85192 0.13826 0.0
C526 C 0.83082 0.84679 0.10813 0.0
C527 C 0.83366 0.88601 0.12752 0.0
H528 H 0.85963 0.79935 0.09821 0.0
H529 H 0.80219 0.828 0.08905 0.0
S530 S 0.9277 0.9581 0.19406 0.0
N531 N 0.94132 0.91648 0.18117 0.0
N532 N 0.87898 0.94776 0.17153 0.0
C533 C 0.87167 0.9088 0.15205 0.0
C534 C 0.90547 0.89173 0.15739 0.0
C535 C 1.01077 0.79846 0.62663 0.0
C536 C 0.97409 0.81152 0.62574 0.0
C537 C 0.05991 0.83299 0.63184 0.0
C538 C 0.07523 0.88255 0.63646 0.0
H539 H 1.00165 0.76089 0.62345 0.0
H540 H 0.08627 0.82059 0.6322 0.0
S541 S 0.99469 0.93691 0.63589 0.0
N542 N 0.95701 0.87826 0.62933 0.0
N543 N 0.04978 0.94343 0.63937 0.0
C544 C 1.03937 0.89668 0.63495 0.0
C545 C 0.98883 0.86119 0.62959 0.0
C546 C 0.08256 0.84093 0.3893 0.0
C547 C 0.11906 0.88355 0.37311 0.0
C548 C 1.03285 0.82458 0.38414 0.0
C549 C 1.01729 0.85013 0.36263 0.0
H550 H 0.09232 0.81935 0.40575 0.0
H551 H 1.00633 0.79114 0.39677 0.0
S552 S 0.09778 0.96592 0.31628 0.0
N553 N 0.13596 0.95226 0.33579 0.0
N554 N 1.04241 0.92176 0.32647 0.0
C555 C 0.05326 0.89324 0.34666 0.0
C556 C 0.10408 0.90988 0.35182 0.0
C557 C 0.23581 1.00879 0.88356 0.0
C558 C 0.19627 0.994 0.86059 0.0
C559 C 0.26843 0.05822 0.89008 0.0
C560 C 0.2634 0.0952 0.87357 0.0
H561 H 0.24147 0.98185 0.89683 0.0
H562 H 0.2984 0.06736 0.90783 0.0
S563 S 0.16583 0.07571 0.81084 0.0
N564 N 0.15362 1.0202 0.82129 0.0
N565 N 0.21516 0.11311 0.83313 0.0
C566 C 0.22385 0.08088 0.85051 0.0
C567 C 0.19024 1.03038 0.8442 0.0
C568 C 0.242 0.25839 0.39176 0.0
C569 C 0.19881 0.25196 0.37624 0.0
C570 C 0.25825 0.22494 0.38638 0.0
C571 C 0.232 0.18344 0.36533 0.0
H572 H 0.26421 0.29013 0.40768 0.0
H573 H 0.29226 0.23219 0.39833 0.0
S574 S 0.11412 0.14689 0.32139 0.0
N575 N 0.1285 0.19913 0.34048 0.0
N576 N 0.1588 0.13601 0.33076 0.0
C577 C 0.18813 0.17584 0.35029 0.0
C578 C 0.1716 0.21008 0.35566 0.0
C579 C 0.06386 0.23371 0.88797 0.0
C580 C 0.08005 0.21028 0.86474 0.0
C581 C 1.01392 0.21613 0.89363 0.0
C582 C 0.97793 0.17472 0.87592 0.0
H583 H 0.09007 0.26584 0.90204 0.0
H584 H 1.00361 0.23588 0.91166 0.0
S585 S 1.0016 0.10042 0.81197 0.0
N586 N 0.05651 0.14348 0.82396 0.0
N587 N 0.96264 0.11081 0.83399 0.0
C588 C 0.99377 0.15091 0.85258 0.0
C589 C 1.04475 0.16852 0.8472 0.0
C590 C 0.86712 0.05199 0.39435 0.0
C591 C 0.90251 0.06745 0.36773 0.0
C592 C 0.83403 1.00245 0.39987 0.0
C593 C 0.8349 0.96612 0.37905 0.0
H594 H 0.86422 0.07849 0.41059 0.0
H595 H 0.80689 0.9928 0.42027 0.0
S596 S 0.92393 0.98747 0.30804 0.0
N597 N 0.9389 0.04257 0.32188 0.0
N598 N 0.87672 0.94943 0.33207 0.0
C599 C 0.87117 0.98109 0.35295 0.0
C600 C 0.90486 0.03169 0.34731 0.0
C601 C 0.91997 0.84512 0.8573 0.0
C602 C 0.90183 0.81082 0.88467 0.0
C603 C 0.90301 0.8781 0.8522 0.0
C604 C 0.86689 0.87769 0.87402 0.0
H605 H 0.94677 0.84595 0.83916 0.0
H606 H 0.91714 0.90308 0.83036 0.0
S607 S 0.81089 0.79937 0.95157 0.0
N608 N 0.84819 0.78168 0.93562 0.0
N609 N 0.81637 0.84326 0.92553 0.0
C610 C 0.8498 0.8451 0.9022 0.0
C611 C 0.86729 0.81184 0.90768 0.0
C612 C 0.19836 0.68024 0.12755 0.0
C613 C 0.15921 0.68444 0.11394 0.0
C614 C 0.20207 0.63838 0.12213 0.0
C615 C 0.16711 0.59887 0.10245 0.0
H616 H 0.22722 0.71018 0.14192 0.0
H617 H 0.23375 0.63784 0.13231 0.0
S618 S 0.05581 0.59006 0.06275 0.0
N619 N 0.08345 0.64439 0.08124 0.0
N620 N 0.09023 0.56554 0.07101 0.0
C621 C 0.1268 0.60182 0.08965 0.0
C622 C 0.12281 0.64449 0.09549 0.0
C623 C 0.58166 0.17531 0.57723 0.0
C624 C 0.59776 0.14895 0.59734 0.0
C625 C 0.53557 0.1705 0.58252 0.0
C626 C 0.50292 0.13858 0.60781 0.0
H627 H 0.60539 0.20082 0.55763 0.0
H628 H 0.52551 0.19246 0.56672 0.0
S629 S 0.52641 0.06049 0.66722 0.0
N630 N 0.57685 0.08915 0.64358 0.0
N631 N 0.48963 0.07988 0.65318 0.0
C632 C 0.51786 0.11124 0.6278 0.0
C633 C 0.56544 0.11664 0.62275 0.0
C634 C 0.45198 0.55693 0.07366 0.0
C635 C 0.48328 0.58198 0.10175 0.0
C636 C 0.41108 0.51048 0.07803 0.0
C637 C 0.40015 0.48668 0.11047 0.0
H638 H 0.45818 0.57403 0.04826 0.0
H639 H 0.38699 0.4935 0.05601 0.0
S640 S 0.47062 0.53479 0.19212 0.0
N641 N 0.50087 0.57829 0.16314 0.0
N642 N 0.42373 0.49081 0.1711 0.0
C643 C 0.43143 0.51045 0.13862 0.0
C644 C 0.473 0.55813 0.13432 0.0
C645 C 0.89198 0.42086 0.62204 0.0
C646 C 0.92851 0.46231 0.60488 0.0
C647 C 0.89673 0.37971 0.62746 0.0
C648 C 0.93831 0.37793 0.61606 0.0
H649 H 0.85881 0.41979 0.63082 0.0
H650 H 0.86673 0.34843 0.63999 0.0
S651 S 1.046 0.47781 0.57149 0.0
N652 N 1.00892 0.49987 0.57776 0.0
N653 N 1.01803 0.42249 0.58835 0.0
C654 C 0.9763 0.41993 0.60037 0.0
C655 C 0.97136 0.46205 0.59468 0.0
C656 C 0.55037 0.88344 0.12849 0.0
C657 C 0.59398 0.92465 0.11743 0.0
C658 C 0.50462 0.87873 0.12203 0.0
C659 C 0.50011 0.91498 0.10418 0.0
H660 H 0.55135 0.85364 0.14156 0.0
H661 H 0.47234 0.84585 0.1306 0.0
S662 S 0.60272 0.03173 0.0716 0.0
N663 N 0.62973 1.0039 0.08946 0.0
N664 N 0.54347 0.99488 0.07695 0.0
C665 C 0.54338 0.95753 0.09435 0.0
C666 C 0.59031 0.96242 0.10108 0.0
C667 C 0.6529 0.56551 0.61751 0.0
C668 C 0.69754 0.57086 0.62896 0.0
C669 C 0.61198 0.5189 0.61227 0.0
C670 C 0.6145 0.47623 0.61823 0.0
H671 H 0.65049 0.59731 0.61037 0.0
H672 H 0.57905 0.51633 0.60163 0.0
S673 S 0.72117 0.47141 0.65371 0.0
N674 N 0.74044 0.5301 0.64963 0.0
N675 N 0.6638 0.44304 0.64058 0.0
C676 C 0.65805 0.48151 0.6321 0.0
C677 C 0.69946 0.52867 0.63724 0.0
C678 C 0.40246 0.88484 0.37511 0.0
C679 C 0.39839 0.92488 0.38693 0.0
C680 C 0.44431 0.88134 0.3815 0.0
C681 C 0.48405 0.91751 0.40029 0.0
H682 H 0.37247 0.85512 0.36137 0.0
H683 H 0.44469 0.84901 0.37269 0.0
S684 S 0.49363 0.03155 0.43505 0.0
N685 N 0.43901 1.00278 0.41692 0.0
N686 N 0.51792 0.99644 0.42883 0.0
C687 C 0.48131 0.95866 0.41128 0.0
C688 C 0.43859 0.96237 0.40452 0.0
C689 C 0.59322 0.41531 0.88201 0.0
C690 C 0.59778 0.45611 0.90002 0.0
C691 C 0.5475 0.37399 0.87628 0.0
C692 C 0.50395 0.37138 0.88819 0.0
H693 H 0.62545 0.415 0.87257 0.0
H694 H 0.54646 0.34333 0.86288 0.0
S695 S 0.49526 0.46851 0.93638 0.0
N696 N 0.55437 0.49158 0.92938 0.0
N697 N 0.46832 0.41392 0.91827 0.0
C698 C 0.50763 0.41248 0.90523 0.0
C699 C 0.55448 0.45475 0.91122 0.0
C700 C 0.13248 0.54334 0.4101 0.0
C701 C 0.16999 0.58552 0.39392 0.0
C702 C 0.12757 0.49712 0.40436 0.0
C703 C 0.16045 0.49152 0.38262 0.0
H704 H 0.10732 0.54623 0.42791 0.0
H705 H 0.09947 0.46611 0.41841 0.0
S706 S 0.26307 0.58943 0.33245 0.0
N707 N 0.23909 0.61774 0.35396 0.0
N708 N 0.22975 0.53145 0.34311 0.0
C709 C 0.19677 0.53301 0.36523 0.0
C710 C 0.20156 0.5798 0.37086 0.0
C711 C 0.69649 0.17641 0.87538 0.0
C712 C 0.69857 0.13445 0.88486 0.0
C713 C 0.65422 0.17964 0.88047 0.0
C714 C 0.61194 0.1412 0.89548 0.0
H715 H 0.7283 0.20782 0.8646 0.0
H716 H 0.65538 0.21341 0.87379 0.0
S717 S 0.59585 1.02127 0.92162 0.0
N718 N 0.6529 0.05203 0.90764 0.0
N719 N 0.57329 0.0581 0.91718 0.0
C720 C 0.61258 0.09815 0.90374 0.0
C721 C 0.65577 0.09471 0.89832 0.0
C722 C 0.50442 0.64572 0.38258 0.0
C723 C 0.49981 0.60458 0.39995 0.0
C724 C 0.55014 0.68754 0.37776 0.0
C725 C 0.59353 0.69011 0.38975 0.0
H726 H 0.47222 0.64636 0.37372 0.0
H727 H 0.55127 0.71861 0.36506 0.0
S728 S 0.60214 0.59097 0.43446 0.0
N729 N 0.54312 0.5679 0.42732 0.0
N730 N 0.62905 0.64669 0.4183 0.0
C731 C 0.58979 0.64857 0.40589 0.0
C732 C 0.54301 0.60591 0.41108 0.0
C733 C 0.89062 0.52496 0.8765 0.0
C734 C 0.93512 0.56838 0.88239 0.0
C735 C 0.88592 0.47917 0.88187 0.0
C736 C 0.92552 0.47436 0.89314 0.0
H737 H 0.85833 0.52608 0.86851 0.0
H738 H 0.85056 0.44714 0.87772 0.0
S739 S 0.05105 0.57571 0.90999 0.0
N740 N 1.02053 0.60319 0.8983 0.0
N741 N 1.01166 0.51671 0.90829 0.0
C742 C 0.97096 0.51712 0.8975 0.0
C743 C 0.97577 0.56416 0.89213 0.0
C744 C 0.2652 0.40197 0.27634 0.0
C745 C 0.22434 0.40615 0.28536 0.0
C746 C 0.27802 0.40161 0.24134 0.0
C747 C 0.25041 0.40545 0.21388 0.0
H748 H 0.28594 0.39603 0.29632 0.0
H749 H 0.30838 0.39585 0.23589 0.0
S750 S 0.14605 0.42747 0.22398 0.0
N751 N 0.16084 0.4219 0.26432 0.0
N752 N 0.18467 0.42092 0.19852 0.0
C753 C 0.21212 0.41404 0.22269 0.0
C754 C 0.19904 0.41443 0.25839 0.0
C755 C 0.90487 0.25193 0.74163 0.0
C756 C 0.87437 0.2241 0.71393 0.0
C757 C 0.89192 0.23825 0.77648 0.0
C758 C 0.84797 0.1961 0.78514 0.0
H759 H 0.94017 0.28355 0.7365 0.0
H760 H 0.91786 0.25964 0.79661 0.0
S761 S 0.75115 0.11526 0.72293 0.0
N762 N 0.79526 0.15578 0.69789 0.0
N763 N 0.77082 0.13012 0.76342 0.0
C764 C 0.81537 0.16995 0.75791 0.0
C765 C 0.82857 0.18398 0.72233 0.0
C766 C 0.68816 0.89821 0.2458 0.0
C767 C 0.68001 0.8648 0.21866 0.0
C768 C 0.68711 0.88545 0.28088 0.0
C769 C 0.67798 0.83885 0.29022 0.0
H770 H 0.69789 0.9354 0.24005 0.0
H771 H 0.69654 0.91334 0.30058 0.0
S772 S 0.64422 0.73488 0.22996 0.0
N773 N 0.6551 0.7808 0.20407 0.0
N774 N 0.65314 0.75686 0.27007 0.0
C775 C 0.66552 0.8038 0.26366 0.0
C776 C 0.66651 0.81678 0.22787 0.0
C777 C 0.88314 0.64865 0.72512 0.0
C778 C 0.84315 0.65423 0.71635 0.0
C779 C 0.89647 0.64966 0.76013 0.0
C780 C 0.87005 0.65596 0.78754 0.0
H781 H 0.90641 0.64721 0.70482 0.0
H782 H 0.92921 0.64797 0.76557 0.0
S783 S 0.7568 0.66297 0.77789 0.0
N784 N 0.77323 0.6594 0.7375 0.0
N785 N 0.79793 0.66106 0.80325 0.0
C786 C 0.82726 0.65691 0.77905 0.0
C787 C 0.81394 0.65616 0.74344 0.0
C788 C 0.26552 0.87832 0.22218 0.0
C789 C 0.22546 0.83303 0.21325 0.0
C790 C 0.27795 0.89136 0.25714 0.0
C791 C 0.25082 0.85964 0.28461 0.0
H792 H 0.28567 0.90517 0.20222 0.0
H793 H 0.30762 0.92772 0.26253 0.0
S794 S 0.1491 0.73268 0.27463 0.0
N795 N 0.16359 0.75328 0.23429 0.0
N796 N 0.18672 0.77799 0.30005 0.0
C797 C 0.21351 0.81252 0.27588 0.0
C798 C 0.20088 0.7992 0.2402 0.0
C799 C 0.41282 0.25186 0.75903 0.0
C800 C 0.41781 0.22449 0.78608 0.0
C801 C 0.41272 0.23949 0.72395 0.0
C802 C 0.41754 0.1993 0.71439 0.0
H803 H 0.40654 0.2817 0.76487 0.0
H804 H 0.40605 0.26015 0.70435 0.0
S805 S 0.44183 0.12192 0.77448 0.0
N806 N 0.43503 0.15976 0.80048 0.0
N807 N 0.43499 0.13664 0.7344 0.0
C808 C 0.42685 0.17417 0.7409 0.0
C809 C 0.42697 0.18685 0.77674 0.0
C810 C 0.27849 0.25246 0.98074 0.0
C811 C 0.32868 0.27024 0.97483 0.0
C812 C 0.26221 0.27435 0.00515 0.0
C813 C 0.29536 0.31583 0.02383 0.0
H814 H 0.2514 0.22094 0.96657 0.0
H815 H 0.22335 0.25817 0.0099 0.0
S816 S 0.43033 0.37769 0.01801 0.0
N817 N 0.41142 0.33239 0.98975 0.0
N818 N 0.38053 0.37386 0.03536 0.0
C819 C 0.34555 0.3345 0.01804 0.0
C820 C 0.36229 0.31165 0.99361 0.0
C821 C 0.07237 0.27031 0.4889 0.0
C822 C 0.09 0.31721 0.4751 0.0
C823 C 1.0342 0.25079 0.51337 0.0
C824 C 1.01073 0.27656 0.52403 0.0
H825 H 0.08824 0.24846 0.48061 0.0
H826 H 1.02293 0.21512 0.52413 0.0
S827 S 1.04139 0.39986 0.49426 0.0
N828 N 0.08044 0.38861 0.47312 0.0
N829 N 1.00761 0.35135 0.51858 0.0
C830 C 1.02727 0.32314 0.50991 0.0
C831 C 0.06718 0.34361 0.4856 0.0
C832 C 0.81642 1.01395 0.01592 0.0
C833 C 0.76736 0.99122 0.02685 0.0
C834 C 0.83469 0.05111 0.99086 0.0
C835 C 0.80518 0.06839 0.97676 0.0
H836 H 0.84096 1.00287 0.02688 0.0
H837 H 0.87227 0.06643 0.98236 0.0
S838 S 0.67449 1.02193 0.99694 0.0
N839 N 0.68951 0.98872 0.02164 0.0
N840 N 0.72439 0.05974 0.97512 0.0
C841 C 0.75622 0.04649 0.98768 0.0
C842 C 0.73716 1.00759 0.01257 0.0
C843 C 0.74666 0.72696 0.52047 0.0
C844 C 0.79565 0.73908 0.52589 0.0
C845 C 0.7341 0.75214 0.49636 0.0
C846 C 0.77002 0.79065 0.47658 0.0
H847 H 0.71755 0.69786 0.53535 0.0
H848 H 0.69586 0.74061 0.49272 0.0
S849 S 0.90393 0.83905 0.48226 0.0
N850 N 0.88036 0.79348 0.51035 0.0
N851 N 0.85713 0.84101 0.46493 0.0
C852 C 0.81927 0.80341 0.48182 0.0
C853 C 0.83199 0.77755 0.50638 0.0
C854 C 1.01475 0.77894 0.99697 0.0
C855 C 1.0084 0.73932 0.97669 0.0
C856 C 0.05247 0.8005 0.02152 0.0
C857 C 0.08625 0.78414 0.0262 0.0
H858 H 0.99094 0.79406 0.99329 0.0
H859 H 0.05545 0.83072 0.03676 0.0
S860 S 0.08579 0.68179 0.97859 0.0
N861 N 1.03895 0.68467 0.96221 0.0
N862 N 0.11026 0.72531 0.00832 0.0
C863 C 0.08039 0.74455 0.00585 0.0
C864 C 1.04138 0.72213 0.98112 0.0
C865 C 0.33143 1.00388 0.4919 0.0
C866 C 0.2903 0.99567 0.47242 0.0
C867 C 0.3528 0.04223 0.51629 0.0
C868 C 0.33382 0.07359 0.52187 0.0
H869 H 0.34757 0.98103 0.48797 0.0
H870 H 0.38333 0.04639 0.53173 0.0
S871 S 0.22622 0.06707 0.47859 0.0
N872 N 0.23131 1.02218 0.46096 0.0
N873 N 0.2713 0.09332 0.50693 0.0
C874 C 0.29289 0.06572 0.50273 0.0
C875 C 0.27124 1.02707 0.47794 0.0
loop_
_geom_bond_atom_site_label_1
_geom_bond_atom_site_label_2
_geom_bond_distance
_geom_bond_site_symmetry_2
_ccdc_geom_bond_type
Tb0 C9 2.764 . S
Tb0 O10 2.325 . S
Tb0 O13 2.303 . S
Tb0 O17 2.322 . S
Tb0 O18 2.349 . S
Tb0 O21 2.415 . S
Tb0 O22 2.399 . S
Tb1 O11 2.322 . S
Tb1 O12 2.349 . S
Tb1 O14 2.415 . S
Tb1 O15 2.399 . S
Tb1 O16 2.325 . S
Tb1 O19 2.303 . S
Tb1 C30 2.764 . S
C2 O18 1.261 . S
C2 O19 1.257 . S
C3 C6 1.358 . S
C3 C7 1.332 . S
C3 C9 1.504 . S
C4 C5 1.373 . S
C4 C8 1.308 . S
C5 C4 1.373 . S
C5 C6 1.429 . S
C5 H32 0.932 . S
C6 C3 1.358 . S
C6 C5 1.429 . S
C6 H33 0.930 . S
C7 C3 1.332 . S
C7 C8 1.394 . S
C7 H34 0.932 . S
C8 C4 1.308 . S
C8 C7 1.394 . S
C8 H35 0.929 . S
C9 Tb0 2.764 . S
C9 C3 1.504 . S
C9 O21 1.239 . S
C9 O22 1.263 . S
O10 Tb0 2.325 . S
O10 C20 1.236 . S
O11 Tb1 2.322 . S
O11 C20 1.257 . S
O12 Tb1 2.349 . S
O12 C23 1.261 . S
O13 Tb0 2.303 . S
O13 C23 1.257 . S
O14 Tb1 2.415 . S
O14 C30 1.239 . S
O15 Tb1 2.399 . S
O15 C30 1.263 . S
O16 Tb1 2.325 . S
O16 C31 1.236 . S
O17 Tb0 2.322 . S
O17 C31 1.257 . S
O18 Tb0 2.349 . S
O18 C2 1.261 . S
O19 Tb1 2.303 . S
O19 C2 1.257 . S
C20 O10 1.236 . S
C20 O11 1.257 . S
O21 Tb0 2.415 . S
O21 C9 1.239 . S
O22 Tb0 2.399 . S
O22 C9 1.263 . S
C23 O12 1.261 . S
C23 O13 1.257 . S
C24 C27 1.358 . S
C24 C28 1.332 . S
C24 C30 1.504 . S
C25 C26 1.373 . S
C25 C29 1.308 . S
C26 C25 1.373 . S
C26 C27 1.429 . S
C26 H36 0.932 . S
C27 C24 1.358 . S
C27 C26 1.429 . S
C27 H37 0.930 . S
C28 C24 1.332 . S
C28 C29 1.394 . S
C28 H38 0.932 . S
C29 C25 1.308 . S
C29 C28 1.394 . S
C29 H39 0.929 . S
C30 Tb1 2.764 . S
C30 O14 1.239 . S
C30 O15 1.263 . S
C30 C24 1.504 . S
C31 O16 1.236 . S
C31 O17 1.257 . S
H32 C5 0.932 . S
H33 C6 0.930 . S
H34 C7 0.932 . S
H35 C8 0.929 . S
H36 C26 0.932 . S
H37 C27 0.930 . S
H38 C28 0.932 . S
H39 C29 0.929 . S
Tb40 C49 2.764 . S
Tb40 O50 2.325 . S
Tb40 O53 2.303 . S
Tb40 O57 2.322 . S
Tb40 O58 2.349 . S
Tb40 O61 2.415 . S
Tb40 O62 2.399 . S
Tb41 O51 2.322 . S
Tb41 O52 2.349 . S
Tb41 O54 2.415 . S
Tb41 O55 2.399 . S
Tb41 O56 2.325 . S
Tb41 O59 2.303 . S
Tb41 C70 2.764 . S
C42 O58 1.261 . S
C42 O59 1.257 . S
C43 C46 1.358 . S
C43 C47 1.332 . S
C43 C49 1.504 1_455 S
C44 C45 1.373 . S
C44 C48 1.308 . S
C45 C44 1.373 . S
C45 C46 1.429 . S
C45 H72 0.932 . S
C46 C43 1.358 . S
C46 C45 1.429 . S
C46 H73 0.930 . S
C47 C43 1.332 . S
C47 C48 1.394 . S
C47 H74 0.932 . S
C48 C44 1.308 . S
C48 C47 1.394 . S
C48 H75 0.929 . S
C49 Tb40 2.764 . S
C49 C43 1.504 1_655 S
C49 O61 1.239 . S
C49 O62 1.263 . S
O50 Tb40 2.325 . S
O50 C60 1.236 . S
O51 Tb41 2.322 . S
O51 C60 1.257 . S
O52 Tb41 2.349 . S
O52 C63 1.261 . S
O53 Tb40 2.303 . S
O53 C63 1.257 . S
O54 Tb41 2.415 . S
O54 C70 1.239 . S
O55 Tb41 2.399 . S
O55 C70 1.263 . S
O56 Tb41 2.325 . S
O56 C71 1.236 . S
O57 Tb40 2.322 . S
O57 C71 1.257 . S
O58 Tb40 2.349 . S
O58 C42 1.261 . S
O59 Tb41 2.303 . S
O59 C42 1.257 . S
C60 O50 1.236 . S
C60 O51 1.257 . S
O61 Tb40 2.415 . S
O61 C49 1.239 . S
O62 Tb40 2.399 . S
O62 C49 1.263 . S
C63 O52 1.261 . S
C63 O53 1.257 . S
C64 C67 1.358 . S
C64 C68 1.332 . S
C64 C70 1.504 . S
C65 C66 1.373 . S
C65 C69 1.308 . S
C66 C65 1.373 . S
C66 C67 1.429 . S
C66 H76 0.932 . S
C67 C64 1.358 . S
C67 C66 1.429 . S
C67 H77 0.930 . S
C68 C64 1.332 . S
C68 C69 1.394 . S
C68 H78 0.932 . S
C69 C65 1.308 . S
C69 C68 1.394 . S
C69 H79 0.929 . S
C70 Tb41 2.764 . S
C70 O54 1.239 . S
C70 O55 1.263 . S
C70 C64 1.504 . S
C71 O56 1.236 . S
C71 O57 1.257 . S
H72 C45 0.932 . S
H73 C46 0.930 . S
H74 C47 0.932 . S
H75 C48 0.929 . S
H76 C66 0.932 . S
H77 C67 0.930 . S
H78 C68 0.932 . S
H79 C69 0.929 . S
Tb80 C89 2.764 . S
Tb80 O90 2.325 . S
Tb80 O93 2.303 . S
Tb80 O97 2.322 . S
Tb80 O98 2.349 . S
Tb80 O101 2.415 . S
Tb80 O102 2.399 . S
Tb81 O91 2.322 . S
Tb81 O92 2.349 . S
Tb81 O94 2.415 . S
Tb81 O95 2.399 . S
Tb81 O96 2.325 . S
Tb81 O99 2.303 . S
Tb81 C110 2.764 . S
C82 O98 1.261 . S
C82 O99 1.257 . S
C83 C86 1.358 . S
C83 C87 1.332 . S
C83 C89 1.504 1_545 S
C84 C85 1.373 . S
C84 C88 1.308 . S
C85 C84 1.373 . S
C85 C86 1.429 . S
C85 H112 0.932 . S
C86 C83 1.358 . S
C86 C85 1.429 . S
C86 H113 0.930 . S
C87 C83 1.332 . S
C87 C88 1.394 . S
C87 H114 0.932 . S
C88 C84 1.308 . S
C88 C87 1.394 . S
C88 H115 0.929 . S
C89 Tb80 2.764 . S
C89 C83 1.504 1_565 S
C89 O101 1.239 . S
C89 O102 1.263 . S
O90 Tb80 2.325 . S
O90 C100 1.236 . S
O91 Tb81 2.322 . S
O91 C100 1.257 . S
O92 Tb81 2.349 . S
O92 C103 1.261 . S
O93 Tb80 2.303 . S
O93 C103 1.257 . S
O94 Tb81 2.415 . S
O94 C110 1.239 . S
O95 Tb81 2.399 . S
O95 C110 1.263 . S
O96 Tb81 2.325 . S
O96 C111 1.236 . S
O97 Tb80 2.322 . S
O97 C111 1.257 . S
O98 Tb80 2.349 . S
O98 C82 1.261 . S
O99 Tb81 2.303 . S
O99 C82 1.257 . S
C100 O90 1.236 . S
C100 O91 1.257 . S
O101 Tb80 2.415 . S
O101 C89 1.239 . S
O102 Tb80 2.399 . S
O102 C89 1.263 . S
C103 O92 1.261 . S
C103 O93 1.257 . S
C104 C107 1.358 . S
C104 C108 1.332 . S
C104 C110 1.504 . S
C105 C106 1.373 . S
C105 C109 1.308 . S
C106 C105 1.373 . S
C106 C107 1.429 . S
C106 H116 0.932 . S
C107 C104 1.358 . S
C107 C106 1.429 . S
C107 H117 0.930 . S
C108 C104 1.332 . S
C108 C109 1.394 . S
C108 H118 0.932 . S
C109 C105 1.308 . S
C109 C108 1.394 . S
C109 H119 0.929 . S
C110 Tb81 2.764 . S
C110 O94 1.239 . S
C110 O95 1.263 . S
C110 C104 1.504 . S
C111 O96 1.236 . S
C111 O97 1.257 . S
H112 C85 0.932 . S
H113 C86 0.930 . S
H114 C87 0.932 . S
H115 C88 0.929 . S
H116 C106 0.932 . S
H117 C107 0.930 . S
H118 C108 0.932 . S
H119 C109 0.929 . S
Tb120 C129 2.764 . S
Tb120 O130 2.325 . S
Tb120 O133 2.303 . S
Tb120 O137 2.322 . S
Tb120 O138 2.349 . S
Tb120 O141 2.415 . S
Tb120 O142 2.399 . S
Tb121 O131 2.322 . S
Tb121 O132 2.349 . S
Tb121 O134 2.415 . S
Tb121 O135 2.399 . S
Tb121 O136 2.325 . S
Tb121 O139 2.303 . S
Tb121 C150 2.764 . S
C122 O138 1.261 . S
C122 O139 1.257 . S
C123 C126 1.358 . S
C123 C127 1.332 . S
C123 C129 1.504 . S
C124 C125 1.373 . S
C124 C128 1.308 . S
C125 C124 1.373 . S
C125 C126 1.429 . S
C125 H152 0.932 . S
C126 C123 1.358 . S
C126 C125 1.429 . S
C126 H153 0.930 . S
C127 C123 1.332 . S
C127 C128 1.394 . S
C127 H154 0.932 . S
C128 C124 1.308 . S
C128 C127 1.394 . S
C128 H155 0.929 . S
C129 Tb120 2.764 . S
C129 C123 1.504 . S
C129 O141 1.239 . S
C129 O142 1.263 . S
O130 Tb120 2.325 . S
O130 C140 1.236 . S
O131 Tb121 2.322 . S
O131 C140 1.257 . S
O132 Tb121 2.349 . S
O132 C143 1.261 . S
O133 Tb120 2.303 . S
O133 C143 1.257 . S
O134 Tb121 2.415 . S
O134 C150 1.239 . S
O135 Tb121 2.399 . S
O135 C150 1.263 . S
O136 Tb121 2.325 . S
O136 C151 1.236 . S
O137 Tb120 2.322 . S
O137 C151 1.257 . S
O138 Tb120 2.349 . S
O138 C122 1.261 . S
O139 Tb121 2.303 . S
O139 C122 1.257 . S
C140 O130 1.236 . S
C140 O131 1.257 . S
O141 Tb120 2.415 . S
O141 C129 1.239 . S
O142 Tb120 2.399 . S
O142 C129 1.263 . S
C143 O132 1.261 . S
C143 O133 1.257 . S
C144 C147 1.358 . S
C144 C148 1.332 . S
C144 C150 1.504 . S
C145 C146 1.373 . S
C145 C149 1.308 . S
C146 C145 1.373 . S
C146 C147 1.429 . S
C146 H156 0.932 . S
C147 C144 1.358 . S
C147 C146 1.429 . S
C147 H157 0.930 . S
C148 C144 1.332 . S
C148 C149 1.394 . S
C148 H158 0.932 . S
C149 C145 1.308 . S
C149 C148 1.394 . S
C149 H159 0.929 . S
C150 Tb121 2.764 . S
C150 O134 1.239 . S
C150 O135 1.263 . S
C150 C144 1.504 . S
C151 O136 1.236 . S
C151 O137 1.257 . S
H152 C125 0.932 . S
H153 C126 0.930 . S
H154 C127 0.932 . S
H155 C128 0.929 . S
H156 C146 0.932 . S
H157 C147 0.930 . S
H158 C148 0.932 . S
H159 C149 0.929 . S
Tb160 C169 2.764 . S
Tb160 O170 2.325 . S
Tb160 O173 2.303 . S
Tb160 O177 2.322 . S
Tb160 O178 2.349 . S
Tb160 O181 2.415 . S
Tb160 O182 2.399 . S
Tb161 O171 2.322 . S
Tb161 O172 2.349 . S
Tb161 O174 2.415 . S
Tb161 O175 2.399 . S
Tb161 O176 2.325 . S
Tb161 O179 2.303 . S
Tb161 C190 2.764 . S
C162 O178 1.261 . S
C162 O179 1.257 . S
C163 C166 1.358 . S
C163 C167 1.332 . S
C163 C169 1.504 1_655 S
C164 C165 1.373 . S
C164 C168 1.308 . S
C165 C164 1.373 . S
C165 C166 1.429 . S
C165 H192 0.932 . S
C166 C163 1.358 . S
C166 C165 1.429 . S
C166 H193 0.930 . S
C167 C163 1.332 . S
C167 C168 1.394 . S
C167 H194 0.932 . S
C168 C164 1.308 . S
C168 C167 1.394 . S
C168 H195 0.929 . S
C169 Tb160 2.764 . S
C169 C163 1.504 1_455 S
C169 O181 1.239 . S
C169 O182 1.263 . S
O170 Tb160 2.325 . S
O170 C180 1.236 . S
O171 Tb161 2.322 . S
O171 C180 1.257 . S
O172 Tb161 2.349 . S
O172 C183 1.261 . S
O173 Tb160 2.303 . S
O173 C183 1.257 . S
O174 Tb161 2.415 . S
O174 C190 1.239 . S
O175 Tb161 2.399 . S
O175 C190 1.263 . S
O176 Tb161 2.325 . S
O176 C191 1.236 . S
O177 Tb160 2.322 . S
O177 C191 1.257 . S
O178 Tb160 2.349 . S
O178 C162 1.261 . S
O179 Tb161 2.303 . S
O179 C162 1.257 . S
C180 O170 1.236 . S
C180 O171 1.257 . S
O181 Tb160 2.415 . S
O181 C169 1.239 . S
O182 Tb160 2.399 . S
O182 C169 1.263 . S
C183 O172 1.261 . S
C183 O173 1.257 . S
C184 C187 1.358 . S
C184 C188 1.332 . S
C184 C190 1.504 . S
C185 C186 1.373 . S
C185 C189 1.308 . S
C186 C185 1.373 . S
C186 C187 1.429 . S
C186 H196 0.932 . S
C187 C184 1.358 . S
C187 C186 1.429 . S
C187 H197 0.930 . S
C188 C184 1.332 . S
C188 C189 1.394 . S
C188 H198 0.932 . S
C189 C185 1.308 . S
C189 C188 1.394 . S
C189 H199 0.929 . S
C190 Tb161 2.764 . S
C190 O174 1.239 . S
C190 O175 1.263 . S
C190 C184 1.504 . S
C191 O176 1.236 . S
C191 O177 1.257 . S
H192 C165 0.932 . S
H193 C166 0.930 . S
H194 C167 0.932 . S
H195 C168 0.929 . S
H196 C186 0.932 . S
H197 C187 0.930 . S
H198 C188 0.932 . S
H199 C189 0.929 . S
Tb200 C209 2.764 . S
Tb200 O210 2.325 . S
Tb200 O213 2.303 . S
Tb200 O217 2.322 . S
Tb200 O218 2.349 . S
Tb200 O221 2.415 . S
Tb200 O222 2.399 . S
Tb201 O211 2.322 . S
Tb201 O212 2.349 . S
Tb201 O214 2.415 . S
Tb201 O215 2.399 . S
Tb201 O216 2.325 . S
Tb201 O219 2.303 . S
Tb201 C230 2.764 . S
C202 O218 1.261 . S
C202 O219 1.257 . S
C203 C206 1.358 . S
C203 C207 1.332 . S
C203 C209 1.504 1_565 S
C204 C205 1.373 . S
C204 C208 1.308 . S
C205 C204 1.373 . S
C205 C206 1.429 . S
C205 H232 0.932 . S
C206 C203 1.358 . S
C206 C205 1.429 . S
C206 H233 0.930 . S
C207 C203 1.332 . S
C207 C208 1.394 . S
C207 H234 0.932 . S
C208 C204 1.308 . S
C208 C207 1.394 . S
C208 H235 0.929 . S
C209 Tb200 2.764 . S
C209 C203 1.504 1_545 S
C209 O221 1.239 . S
C209 O222 1.263 . S
O210 Tb200 2.325 . S
O210 C220 1.236 . S
O211 Tb201 2.322 . S
O211 C220 1.257 . S
O212 Tb201 2.349 . S
O212 C223 1.261 . S
O213 Tb200 2.303 . S
O213 C223 1.257 . S
O214 Tb201 2.415 . S
O214 C230 1.239 . S
O215 Tb201 2.399 . S
O215 C230 1.263 . S
O216 Tb201 2.325 . S
O216 C231 1.236 . S
O217 Tb200 2.322 . S
O217 C231 1.257 . S
O218 Tb200 2.349 . S
O218 C202 1.261 . S
O219 Tb201 2.303 . S
O219 C202 1.257 . S
C220 O210 1.236 . S
C220 O211 1.257 . S
O221 Tb200 2.415 . S
O221 C209 1.239 . S
O222 Tb200 2.399 . S
O222 C209 1.263 . S
C223 O212 1.261 . S
C223 O213 1.257 . S
C224 C227 1.358 . S
C224 C228 1.332 . S
C224 C230 1.504 . S
C225 C226 1.373 . S
C225 C229 1.308 . S
C226 C225 1.373 . S
C226 C227 1.429 . S
C226 H236 0.932 . S
C227 C224 1.358 . S
C227 C226 1.429 . S
C227 H237 0.930 . S
C228 C224 1.332 . S
C228 C229 1.394 . S
C228 H238 0.932 . S
C229 C225 1.308 . S
C229 C228 1.394 . S
C229 H239 0.929 . S
C230 Tb201 2.764 . S
C230 O214 1.239 . S
C230 O215 1.263 . S
C230 C224 1.504 . S
C231 O216 1.236 . S
C231 O217 1.257 . S
H232 C205 0.932 . S
H233 C206 0.930 . S
H234 C207 0.932 . S
H235 C208 0.929 . S
H236 C226 0.932 . S
H237 C227 0.930 . S
H238 C228 0.932 . S
H239 C229 0.929 . S
Tb240 C249 2.764 . S
Tb240 O250 2.325 . S
Tb240 O253 2.303 . S
Tb240 O257 2.322 . S
Tb240 O258 2.349 . S
Tb240 O261 2.415 . S
Tb240 O262 2.399 . S
Tb241 O251 2.322 . S
Tb241 O252 2.349 . S
Tb241 O254 2.415 . S
Tb241 O255 2.399 . S
Tb241 O256 2.325 . S
Tb241 O259 2.303 . S
Tb241 C270 2.764 . S
C242 O258 1.261 . S
C242 O259 1.257 . S
C243 C246 1.358 . S
C243 C247 1.332 . S
C243 C249 1.504 . S
C244 C245 1.373 . S
C244 C248 1.308 . S
C245 C244 1.373 . S
C245 C246 1.429 . S
C245 H272 0.932 . S
C246 C243 1.358 . S
C246 C245 1.429 . S
C246 H273 0.930 . S
C247 C243 1.332 . S
C247 C248 1.394 . S
C247 H274 0.932 . S
C248 C244 1.308 . S
C248 C247 1.394 . S
C248 H275 0.929 . S
C249 Tb240 2.764 . S
C249 C243 1.504 . S
C249 O261 1.239 . S
C249 O262 1.263 . S
O250 Tb240 2.325 . S
O250 C260 1.236 . S
O251 Tb241 2.322 . S
O251 C260 1.257 . S
O252 Tb241 2.349 . S
O252 C263 1.261 . S
O253 Tb240 2.303 . S
O253 C263 1.257 . S
O254 Tb241 2.415 . S
O254 C270 1.239 . S
O255 Tb241 2.399 . S
O255 C270 1.263 . S
O256 Tb241 2.325 . S
O256 C271 1.236 . S
O257 Tb240 2.322 . S
O257 C271 1.257 . S
O258 Tb240 2.349 . S
O258 C242 1.261 . S
O259 Tb241 2.303 . S
O259 C242 1.257 . S
C260 O250 1.236 . S
C260 O251 1.257 . S
O261 Tb240 2.415 . S
O261 C249 1.239 . S
O262 Tb240 2.399 . S
O262 C249 1.263 . S
C263 O252 1.261 . S
C263 O253 1.257 . S
C264 C267 1.358 . S
C264 C268 1.332 . S
C264 C270 1.504 . S
C265 C266 1.373 . S
C265 C269 1.308 . S
C266 C265 1.373 . S
C266 C267 1.429 . S
C266 H276 0.932 . S
C267 C264 1.358 . S
C267 C266 1.429 . S
C267 H277 0.930 . S
C268 C264 1.332 . S
C268 C269 1.394 . S
C268 H278 0.932 . S
C269 C265 1.308 . S
C269 C268 1.394 . S
C269 H279 0.929 . S
C270 Tb241 2.764 . S
C270 O254 1.239 . S
C270 O255 1.263 . S
C270 C264 1.504 . S
C271 O256 1.236 . S
C271 O257 1.257 . S
H272 C245 0.932 . S
H273 C246 0.930 . S
H274 C247 0.932 . S
H275 C248 0.929 . S
H276 C266 0.932 . S
H277 C267 0.930 . S
H278 C268 0.932 . S
H279 C269 0.929 . S
Tb280 C289 2.764 . S
Tb280 O290 2.325 . S
Tb280 O293 2.303 . S
Tb280 O297 2.322 . S
Tb280 O298 2.349 . S
Tb280 O301 2.415 . S
Tb280 O302 2.399 . S
Tb281 O291 2.322 . S
Tb281 O292 2.349 . S
Tb281 O294 2.415 . S
Tb281 O295 2.399 . S
Tb281 O296 2.325 . S
Tb281 O299 2.303 . S
Tb281 C310 2.764 . S
C282 O298 1.261 . S
C282 O299 1.257 . S
C283 C286 1.358 . S
C283 C287 1.332 . S
C283 C289 1.504 1_455 S
C284 C285 1.373 . S
C284 C288 1.308 . S
C285 C284 1.373 . S
C285 C286 1.429 . S
C285 H312 0.932 . S
C286 C283 1.358 . S
C286 C285 1.429 . S
C286 H313 0.930 . S
C287 C283 1.332 . S
C287 C288 1.394 . S
C287 H314 0.932 . S
C288 C284 1.308 . S
C288 C287 1.394 . S
C288 H315 0.929 . S
C289 Tb280 2.764 . S
C289 C283 1.504 1_655 S
C289 O301 1.239 . S
C289 O302 1.263 . S
O290 Tb280 2.325 . S
O290 C300 1.236 . S
O291 Tb281 2.322 . S
O291 C300 1.257 . S
O292 Tb281 2.349 . S
O292 C303 1.261 . S
O293 Tb280 2.303 . S
O293 C303 1.257 . S
O294 Tb281 2.415 . S
O294 C310 1.239 . S
O295 Tb281 2.399 . S
O295 C310 1.263 . S
O296 Tb281 2.325 . S
O296 C311 1.236 . S
O297 Tb280 2.322 . S
O297 C311 1.257 . S
O298 Tb280 2.349 . S
O298 C282 1.261 . S
O299 Tb281 2.303 . S
O299 C282 1.257 . S
C300 O290 1.236 . S
C300 O291 1.257 . S
O301 Tb280 2.415 . S
O301 C289 1.239 . S
O302 Tb280 2.399 . S
O302 C289 1.263 . S
C303 O292 1.261 . S
C303 O293 1.257 . S
C304 C307 1.358 . S
C304 C308 1.332 . S
C304 C310 1.504 . S
C305 C306 1.373 . S
C305 C309 1.308 . S
C306 C305 1.373 . S
C306 C307 1.429 . S
C306 H316 0.932 . S
C307 C304 1.358 . S
C307 C306 1.429 . S
C307 H317 0.930 . S
C308 C304 1.332 . S
C308 C309 1.394 . S
C308 H318 0.932 . S
C309 C305 1.308 . S
C309 C308 1.394 . S
C309 H319 0.929 . S
C310 Tb281 2.764 . S
C310 O294 1.239 . S
C310 O295 1.263 . S
C310 C304 1.504 . S
C311 O296 1.236 . S
C311 O297 1.257 . S
H312 C285 0.932 . S
H313 C286 0.930 . S
H314 C287 0.932 . S
H315 C288 0.929 . S
H316 C306 0.932 . S
H317 C307 0.930 . S
H318 C308 0.932 . S
H319 C309 0.929 . S
Tb320 C329 2.764 . S
Tb320 O330 2.325 . S
Tb320 O333 2.303 . S
Tb320 O337 2.322 . S
Tb320 O338 2.349 . S
Tb320 O341 2.415 . S
Tb320 O342 2.399 . S
Tb321 O331 2.322 . S
Tb321 O332 2.349 . S
Tb321 O334 2.415 . S
Tb321 O335 2.399 . S
Tb321 O336 2.325 . S
Tb321 O339 2.303 . S
Tb321 C350 2.764 . S
C322 O338 1.261 . S
C322 O339 1.257 . S
C323 C326 1.358 . S
C323 C327 1.332 . S
C323 C329 1.504 1_545 S
C324 C325 1.373 . S
C324 C328 1.308 . S
C325 C324 1.373 . S
C325 C326 1.429 . S
C325 H352 0.932 . S
C326 C323 1.358 . S
C326 C325 1.429 . S
C326 H353 0.930 . S
C327 C323 1.332 . S
C327 C328 1.394 . S
C327 H354 0.932 . S
C328 C324 1.308 . S
C328 C327 1.394 . S
C328 H355 0.929 . S
C329 Tb320 2.764 . S
C329 C323 1.504 1_565 S
C329 O341 1.239 . S
C329 O342 1.263 . S
O330 Tb320 2.325 . S
O330 C340 1.236 . S
O331 Tb321 2.322 . S
O331 C340 1.257 . S
O332 Tb321 2.349 . S
O332 C343 1.261 . S
O333 Tb320 2.303 . S
O333 C343 1.257 . S
O334 Tb321 2.415 . S
O334 C350 1.239 . S
O335 Tb321 2.399 . S
O335 C350 1.263 . S
O336 Tb321 2.325 . S
O336 C351 1.236 . S
O337 Tb320 2.322 . S
O337 C351 1.257 . S
O338 Tb320 2.349 . S
O338 C322 1.261 . S
O339 Tb321 2.303 . S
O339 C322 1.257 . S
C340 O330 1.236 . S
C340 O331 1.257 . S
O341 Tb320 2.415 . S
O341 C329 1.239 . S
O342 Tb320 2.399 . S
O342 C329 1.263 . S
C343 O332 1.261 . S
C343 O333 1.257 . S
C344 C347 1.358 . S
C344 C348 1.332 . S
C344 C350 1.504 . S
C345 C346 1.373 . S
C345 C349 1.308 . S
C346 C345 1.373 . S
C346 C347 1.429 . S
C346 H356 0.932 . S
C347 C344 1.358 . S
C347 C346 1.429 . S
C347 H357 0.930 . S
C348 C344 1.332 . S
C348 C349 1.394 . S
C348 H358 0.932 . S
C349 C345 1.308 . S
C349 C348 1.394 . S
C349 H359 0.929 . S
C350 Tb321 2.764 . S
C350 O334 1.239 . S
C350 O335 1.263 . S
C350 C344 1.504 . S
C351 O336 1.236 . S
C351 O337 1.257 . S
H352 C325 0.932 . S
H353 C326 0.930 . S
H354 C327 0.932 . S
H355 C328 0.929 . S
H356 C346 0.932 . S
H357 C347 0.930 . S
H358 C348 0.932 . S
H359 C349 0.929 . S
Tb360 C369 2.764 . S
Tb360 O370 2.325 . S
Tb360 O373 2.303 . S
Tb360 O377 2.322 . S
Tb360 O378 2.349 . S
Tb360 O381 2.415 . S
Tb360 O382 2.399 . S
Tb361 O371 2.322 . S
Tb361 O372 2.349 . S
Tb361 O374 2.415 . S
Tb361 O375 2.399 . S
Tb361 O376 2.325 . S
Tb361 O379 2.303 . S
Tb361 C390 2.764 . S
C362 O378 1.261 . S
C362 O379 1.257 . S
C363 C366 1.358 . S
C363 C367 1.332 . S
C363 C369 1.504 . S
C364 C365 1.373 . S
C364 C368 1.308 . S
C365 C364 1.373 . S
C365 C366 1.429 . S
C365 H392 0.932 . S
C366 C363 1.358 . S
C366 C365 1.429 . S
C366 H393 0.930 . S
C367 C363 1.332 . S
C367 C368 1.394 . S
C367 H394 0.932 . S
C368 C364 1.308 . S
C368 C367 1.394 . S
C368 H395 0.929 . S
C369 Tb360 2.764 . S
C369 C363 1.504 . S
C369 O381 1.239 . S
C369 O382 1.263 . S
O370 Tb360 2.325 . S
O370 C380 1.236 . S
O371 Tb361 2.322 . S
O371 C380 1.257 . S
O372 Tb361 2.349 . S
O372 C383 1.261 . S
O373 Tb360 2.303 . S
O373 C383 1.257 . S
O374 Tb361 2.415 . S
O374 C390 1.239 . S
O375 Tb361 2.399 . S
O375 C390 1.263 . S
O376 Tb361 2.325 . S
O376 C391 1.236 . S
O377 Tb360 2.322 . S
O377 C391 1.257 . S
O378 Tb360 2.349 . S
O378 C362 1.261 . S
O379 Tb361 2.303 . S
O379 C362 1.257 . S
C380 O370 1.236 . S
C380 O371 1.257 . S
O381 Tb360 2.415 . S
O381 C369 1.239 . S
O382 Tb360 2.399 . S
O382 C369 1.263 . S
C383 O372 1.261 . S
C383 O373 1.257 . S
C384 C387 1.358 . S
C384 C388 1.332 . S
C384 C390 1.504 . S
C385 C386 1.373 . S
C385 C389 1.308 . S
C386 C385 1.373 . S
C386 C387 1.429 . S
C386 H396 0.932 . S
C387 C384 1.358 . S
C387 C386 1.429 . S
C387 H397 0.930 . S
C388 C384 1.332 . S
C388 C389 1.394 . S
C388 H398 0.932 . S
C389 C385 1.308 . S
C389 C388 1.394 . S
C389 H399 0.929 . S
C390 Tb361 2.764 . S
C390 O374 1.239 . S
C390 O375 1.263 . S
C390 C384 1.504 . S
C391 O376 1.236 . S
C391 O377 1.257 . S
H392 C365 0.932 . S
H393 C366 0.930 . S
H394 C367 0.932 . S
H395 C368 0.929 . S
H396 C386 0.932 . S
H397 C387 0.930 . S
H398 C388 0.932 . S
H399 C389 0.929 . S
Tb400 C409 2.764 . S
Tb400 O410 2.325 . S
Tb400 O413 2.303 . S
Tb400 O417 2.322 . S
Tb400 O418 2.349 . S
Tb400 O421 2.415 . S
Tb400 O422 2.399 . S
Tb401 O411 2.322 . S
Tb401 O412 2.349 . S
Tb401 O414 2.415 . S
Tb401 O415 2.399 . S
Tb401 O416 2.325 . S
Tb401 O419 2.303 . S
Tb401 C430 2.764 . S
C402 O418 1.261 . S
C402 O419 1.257 . S
C403 C406 1.358 . S
C403 C407 1.332 . S
C403 C409 1.504 1_655 S
C404 C405 1.373 . S
C404 C408 1.308 . S
C405 C404 1.373 . S
C405 C406 1.429 . S
C405 H432 0.932 . S
C406 C403 1.358 . S
C406 C405 1.429 . S
C406 H433 0.930 . S
C407 C403 1.332 . S
C407 C408 1.394 . S
C407 H434 0.932 . S
C408 C404 1.308 . S
C408 C407 1.394 . S
C408 H435 0.929 . S
C409 Tb400 2.764 . S
C409 C403 1.504 1_455 S
C409 O421 1.239 . S
C409 O422 1.263 . S
O410 Tb400 2.325 . S
O410 C420 1.236 . S
O411 Tb401 2.322 . S
O411 C420 1.257 . S
O412 Tb401 2.349 . S
O412 C423 1.261 . S
O413 Tb400 2.303 . S
O413 C423 1.257 . S
O414 Tb401 2.415 . S
O414 C430 1.239 . S
O415 Tb401 2.399 . S
O415 C430 1.263 . S
O416 Tb401 2.325 . S
O416 C431 1.236 . S
O417 Tb400 2.322 . S
O417 C431 1.257 . S
O418 Tb400 2.349 . S
O418 C402 1.261 . S
O419 Tb401 2.303 . S
O419 C402 1.257 . S
C420 O410 1.236 . S
C420 O411 1.257 . S
O421 Tb400 2.415 . S
O421 C409 1.239 . S
O422 Tb400 2.399 . S
O422 C409 1.263 . S
C423 O412 1.261 . S
C423 O413 1.257 . S
C424 C427 1.358 . S
C424 C428 1.332 . S
C424 C430 1.504 . S
C425 C426 1.373 . S
C425 C429 1.308 . S
C426 C425 1.373 . S
C426 C427 1.429 . S
C426 H436 0.932 . S
C427 C424 1.358 . S
C427 C426 1.429 . S
C427 H437 0.930 . S
C428 C424 1.332 . S
C428 C429 1.394 . S
C428 H438 0.932 . S
C429 C425 1.308 . S
C429 C428 1.394 . S
C429 H439 0.929 . S
C430 Tb401 2.764 . S
C430 O414 1.239 . S
C430 O415 1.263 . S
C430 C424 1.504 . S
C431 O416 1.236 . S
C431 O417 1.257 . S
H432 C405 0.932 . S
H433 C406 0.930 . S
H434 C407 0.932 . S
H435 C408 0.929 . S
H436 C426 0.932 . S
H437 C427 0.930 . S
H438 C428 0.932 . S
H439 C429 0.929 . S
Tb440 C449 2.764 . S
Tb440 O450 2.325 . S
Tb440 O453 2.303 . S
Tb440 O457 2.322 . S
Tb440 O458 2.349 . S
Tb440 O461 2.415 . S
Tb440 O462 2.399 . S
Tb441 O451 2.322 . S
Tb441 O452 2.349 . S
Tb441 O454 2.415 . S
Tb441 O455 2.399 . S
Tb441 O456 2.325 . S
Tb441 O459 2.303 . S
Tb441 C470 2.764 . S
C442 O458 1.261 . S
C442 O459 1.257 . S
C443 C446 1.358 . S
C443 C447 1.332 . S
C443 C449 1.504 1_565 S
C444 C445 1.373 . S
C444 C448 1.308 . S
C445 C444 1.373 . S
C445 C446 1.429 . S
C445 H472 0.932 . S
C446 C443 1.358 . S
C446 C445 1.429 . S
C446 H473 0.930 . S
C447 C443 1.332 . S
C447 C448 1.394 . S
C447 H474 0.932 . S
C448 C444 1.308 . S
C448 C447 1.394 . S
C448 H475 0.929 . S
C449 Tb440 2.764 . S
C449 C443 1.504 1_545 S
C449 O461 1.239 . S
C449 O462 1.263 . S
O450 Tb440 2.325 . S
O450 C460 1.236 . S
O451 Tb441 2.322 . S
O451 C460 1.257 . S
O452 Tb441 2.349 . S
O452 C463 1.261 . S
O453 Tb440 2.303 . S
O453 C463 1.257 . S
O454 Tb441 2.415 . S
O454 C470 1.239 . S
O455 Tb441 2.399 . S
O455 C470 1.263 . S
O456 Tb441 2.325 . S
O456 C471 1.236 . S
O457 Tb440 2.322 . S
O457 C471 1.257 . S
O458 Tb440 2.349 . S
O458 C442 1.261 . S
O459 Tb441 2.303 . S
O459 C442 1.257 . S
C460 O450 1.236 . S
C460 O451 1.257 . S
O461 Tb440 2.415 . S
O461 C449 1.239 . S
O462 Tb440 2.399 . S
O462 C449 1.263 . S
C463 O452 1.261 . S
C463 O453 1.257 . S
C464 C467 1.358 . S
C464 C468 1.332 . S
C464 C470 1.504 . S
C465 C466 1.373 . S
C465 C469 1.308 . S
C466 C465 1.373 . S
C466 C467 1.429 . S
C466 H476 0.932 . S
C467 C464 1.358 . S
C467 C466 1.429 . S
C467 H477 0.930 . S
C468 C464 1.332 . S
C468 C469 1.394 . S
C468 H478 0.932 . S
C469 C465 1.308 . S
C469 C468 1.394 . S
C469 H479 0.929 . S
C470 Tb441 2.764 . S
C470 O454 1.239 . S
C470 O455 1.263 . S
C470 C464 1.504 . S
C471 O456 1.236 . S
C471 O457 1.257 . S
H472 C445 0.932 . S
H473 C446 0.930 . S
H474 C447 0.932 . S
H475 C448 0.929 . S
H476 C466 0.932 . S
H477 C467 0.930 . S
H478 C468 0.932 . S
H479 C469 0.929 . S
C480 C481 1.369 . S
C480 C482 1.419 1_565 S
C480 H484 0.930 . S
C481 C480 1.369 . S
C481 C490 1.429 . S
C482 C480 1.419 1_545 S
C482 C483 1.363 . S
C482 H485 0.929 . S
C483 C482 1.363 . S
C483 C489 1.428 1_545 S
H484 C480 0.930 . S
H485 C482 0.929 . S
S486 N487 1.613 . S
S486 N488 1.590 1_565 S
N487 S486 1.613 . S
N487 C490 1.350 . S
N488 S486 1.590 1_545 S
N488 C489 1.353 1_545 S
C489 C483 1.428 1_565 S
C489 N488 1.353 1_565 S
C489 C490 1.434 . S
C490 C481 1.429 . S
C490 N487 1.350 . S
C490 C489 1.434 . S
C491 C492 1.369 . S
C491 C493 1.419 . S
C491 H495 0.930 . S
C492 C491 1.369 . S
C492 C501 1.429 . S
C493 C491 1.419 . S
C493 C494 1.363 . S
C493 H496 0.929 . S
C494 C493 1.363 . S
C494 C500 1.428 . S
H495 C491 0.930 . S
H496 C493 0.929 . S
S497 N498 1.613 . S
S497 N499 1.610 . S
N498 S497 1.613 . S
N498 C501 1.350 . S
N499 S497 1.610 . S
N499 C500 1.351 . S
C500 C494 1.428 . S
C500 N499 1.351 . S
C500 C501 1.434 . S
C501 C492 1.429 . S
C501 N498 1.350 . S
C501 C500 1.434 . S
C502 C503 1.369 1_455 S
C502 C504 1.419 . S
C502 H506 0.930 . S
C503 C502 1.369 1_655 S
C503 C512 1.429 . S
C504 C502 1.419 . S
C504 C505 1.363 . S
C504 H507 0.929 . S
C505 C504 1.363 . S
C505 C511 1.428 . S
H506 C502 0.930 . S
H507 C504 0.929 . S
S508 N509 1.613 . S
S508 N510 1.610 1_655 S
N509 S508 1.613 . S
N509 C512 1.350 . S
N510 S508 1.610 1_455 S
N510 C511 1.351 . S
C511 C505 1.428 . S
C511 N510 1.351 . S
C511 C512 1.434 1_455 S
C512 C503 1.429 . S
C512 N509 1.350 . S
C512 C511 1.434 1_655 S
C513 C514 1.369 1_545 S
C513 C515 1.419 . S
C513 H517 0.930 . S
C514 C513 1.369 1_565 S
C514 C523 1.429 . S
C515 C513 1.419 . S
C515 C516 1.363 . S
C515 H518 0.929 . S
C516 C515 1.363 . S
C516 C522 1.428 . S
H517 C513 0.930 . S
H518 C515 0.929 . S
S519 N520 1.613 . S
S519 N521 1.610 1_565 S
N520 S519 1.613 . S
N520 C523 1.350 . S
N521 S519 1.610 1_545 S
N521 C522 1.351 . S
C522 C516 1.428 . S
C522 N521 1.351 . S
C522 C523 1.434 1_545 S
C523 C514 1.429 . S
C523 N520 1.350 . S
C523 C522 1.434 1_565 S
C524 C525 1.369 . S
C524 C526 1.419 . S
C524 H528 0.930 . S
C525 C524 1.369 . S
C525 C534 1.429 . S
C526 C524 1.419 . S
C526 C527 1.363 . S
C526 H529 0.929 . S
C527 C526 1.363 . S
C527 C533 1.428 . S
H528 C524 0.930 . S
H529 C526 0.929 . S
S530 N531 1.613 . S
S530 N532 1.610 . S
N531 S530 1.613 . S
N531 C534 1.350 . S
N532 S530 1.610 . S
N532 C533 1.351 . S
C533 C527 1.428 . S
C533 N532 1.351 . S
C533 C534 1.434 . S
C534 C525 1.429 . S
C534 N531 1.350 . S
C534 C533 1.434 . S
C535 C536 1.369 . S
C535 C537 1.419 . S
C535 H539 0.930 . S
C536 C535 1.369 . S
C536 C545 1.429 . S
C537 C535 1.419 . S
C537 C538 1.363 1_655 S
C537 H540 0.929 . S
C538 C537 1.363 1_455 S
C538 C544 1.428 . S
H539 C535 0.930 . S
H540 C537 0.929 . S
S541 N542 1.613 1_455 S
S541 N543 1.610 . S
N542 S541 1.613 1_655 S
N542 C545 1.350 . S
N543 S541 1.610 . S
N543 C544 1.351 . S
C544 C538 1.428 . S
C544 N543 1.351 . S
C544 C545 1.434 1_455 S
C545 C536 1.429 . S
C545 N542 1.350 . S
C545 C544 1.434 1_655 S
C546 C547 1.369 . S
C546 C548 1.419 1_455 S
C546 H550 0.930 . S
C547 C546 1.369 . S
C547 C556 1.429 . S
C548 C546 1.419 1_655 S
C548 C549 1.363 . S
C548 H551 0.929 . S
C549 C548 1.363 . S
C549 C555 1.428 1_655 S
H550 C546 0.930 . S
H551 C548 0.929 . S
S552 N553 1.613 . S
S552 N554 1.610 . S
N553 S552 1.613 . S
N553 C556 1.350 . S
N554 S552 1.610 . S
N554 C555 1.351 . S
C555 C549 1.428 1_455 S
C555 N554 1.351 . S
C555 C556 1.434 . S
C556 C547 1.429 . S
C556 N553 1.350 . S
C556 C555 1.434 . S
C557 C558 1.369 . S
C557 C559 1.419 1_565 S
C557 H561 0.930 . S
C558 C557 1.369 . S
C558 C567 1.429 1_565 S
C559 C557 1.419 1_545 S
C559 C560 1.363 . S
C559 H562 0.929 . S
C560 C559 1.363 . S
C560 C566 1.428 . S
H561 C557 0.930 . S
H562 C559 0.929 . S
S563 N564 1.612 . S
S563 N565 1.610 . S
N564 S563 1.612 . S
N564 C567 1.350 . S
N565 S563 1.610 . S
N565 C566 1.351 . S
C566 C560 1.428 . S
C566 N565 1.351 . S
C566 C567 1.434 . S
C567 C558 1.429 1_545 S
C567 N564 1.350 . S
C567 C566 1.434 . S
C568 C569 1.369 . S
C568 C570 1.419 . S
C568 H572 0.930 . S
C569 C568 1.369 . S
C569 C578 1.429 . S
C570 C568 1.419 . S
C570 C571 1.363 . S
C570 H573 0.929 . S
C571 C570 1.363 . S
C571 C577 1.428 . S
H572 C568 0.930 . S
H573 C570 0.929 . S
S574 N575 1.613 . S
S574 N576 1.610 . S
N575 S574 1.613 . S
N575 C578 1.350 . S
N576 S574 1.610 . S
N576 C577 1.351 . S
C577 C571 1.428 . S
C577 N576 1.351 . S
C577 C578 1.434 . S
C578 C569 1.429 . S
C578 N575 1.350 . S
C578 C577 1.434 . S
C579 C580 1.369 1_655 S
C579 C581 1.419 . S
C579 H583 0.930 1_655 S
C580 C579 1.369 1_455 S
C580 C589 1.429 . S
C581 C579 1.419 . S
C581 C582 1.363 . S
C581 H584 0.929 . S
C582 C581 1.363 . S
C582 C588 1.428 . S
H583 C579 0.930 1_455 S
H584 C581 0.929 . S
S585 N586 1.613 . S
S585 N587 1.610 1_455 S
N586 S585 1.613 . S
N586 C589 1.350 . S
N587 S585 1.610 1_655 S
N587 C588 1.351 . S
C588 C582 1.428 . S
C588 N587 1.351 . S
C588 C589 1.434 1_655 S
C589 C580 1.429 . S
C589 N586 1.350 . S
C589 C588 1.434 1_455 S
C590 C591 1.369 . S
C590 C592 1.419 1_545 S
C590 H594 0.930 . S
C591 C590 1.369 . S
C591 C600 1.429 1_545 S
C592 C590 1.419 1_565 S
C592 C593 1.363 . S
C592 H595 0.929 . S
C593 C592 1.363 . S
C593 C599 1.428 . S
H594 C590 0.930 . S
H595 C592 0.929 . S
S596 N597 1.613 . S
S596 N598 1.610 . S
N597 S596 1.613 . S
N597 C600 1.350 . S
N598 S596 1.610 . S
N598 C599 1.351 . S
C599 C593 1.428 . S
C599 N598 1.351 . S
C599 C600 1.434 . S
C600 C591 1.429 1_565 S
C600 N597 1.350 . S
C600 C599 1.434 . S
C601 C602 1.369 . S
C601 C603 1.419 . S
C601 H605 0.930 . S
C602 C601 1.369 . S
C602 C611 1.429 . S
C603 C601 1.419 . S
C603 C604 1.363 . S
C603 H606 0.929 . S
C604 C603 1.363 . S
C604 C610 1.428 . S
H605 C601 0.930 . S
H606 C603 0.929 . S
S607 N608 1.613 . S
S607 N609 1.610 . S
N608 S607 1.613 . S
N608 C611 1.350 . S
N609 S607 1.610 . S
N609 C610 1.351 . S
C610 C604 1.428 . S
C610 N609 1.351 . S
C610 C611 1.434 . S
C611 C602 1.429 . S
C611 N608 1.350 . S
C611 C610 1.434 . S
C612 C613 1.369 . S
C612 C614 1.419 . S
C612 H616 0.930 . S
C613 C612 1.369 . S
C613 C622 1.429 . S
C614 C612 1.419 . S
C614 C615 1.363 . S
C614 H617 0.929 . S
C615 C614 1.363 . S
C615 C621 1.428 . S
H616 C612 0.930 . S
H617 C614 0.929 . S
S618 N619 1.613 . S
S618 N620 1.610 . S
N619 S618 1.613 . S
N619 C622 1.350 . S
N620 S618 1.610 . S
N620 C621 1.351 . S
C621 C615 1.428 . S
C621 N620 1.351 . S
C621 C622 1.434 . S
C622 C613 1.429 . S
C622 N619 1.350 . S
C622 C621 1.434 . S
C623 C624 1.369 . S
C623 C625 1.419 . S
C623 H627 0.930 . S
C624 C623 1.369 . S
C624 C633 1.429 . S
C625 C623 1.419 . S
C625 C626 1.363 . S
C625 H628 0.929 . S
C626 C625 1.363 . S
C626 C632 1.428 . S
H627 C623 0.930 . S
H628 C625 0.929 . S
S629 N630 1.613 . S
S629 N631 1.610 . S
N630 S629 1.613 . S
N630 C633 1.350 . S
N631 S629 1.610 . S
N631 C632 1.351 . S
C632 C626 1.428 . S
C632 N631 1.351 . S
C632 C633 1.434 . S
C633 C624 1.429 . S
C633 N630 1.350 . S
C633 C632 1.434 . S
C634 C635 1.369 . S
C634 C636 1.419 . S
C634 H638 0.930 . S
C635 C634 1.369 . S
C635 C644 1.429 . S
C636 C634 1.419 . S
C636 C637 1.363 . S
C636 H639 0.929 . S
C637 C636 1.363 . S
C637 C643 1.428 . S
H638 C634 0.930 . S
H639 C636 0.929 . S
S640 N641 1.613 . S
S640 N642 1.610 . S
N641 S640 1.613 . S
N641 C644 1.350 . S
N642 S640 1.610 . S
N642 C643 1.351 . S
C643 C637 1.428 . S
C643 N642 1.351 . S
C643 C644 1.434 . S
C644 C635 1.429 . S
C644 N641 1.350 . S
C644 C643 1.434 . S
C645 C646 1.369 . S
C645 C647 1.419 . S
C645 H649 0.930 . S
C646 C645 1.369 . S
C646 C655 1.429 . S
C647 C645 1.419 . S
C647 C648 1.363 . S
C647 H650 0.929 . S
C648 C647 1.363 . S
C648 C654 1.428 . S
H649 C645 0.930 . S
H650 C647 0.929 . S
S651 N652 1.613 . S
S651 N653 1.610 . S
N652 S651 1.613 . S
N652 C655 1.350 . S
N653 S651 1.610 . S
N653 C654 1.351 . S
C654 C648 1.428 . S
C654 N653 1.351 . S
C654 C655 1.434 . S
C655 C646 1.429 . S
C655 N652 1.350 . S
C655 C654 1.434 . S
C656 C657 1.369 . S
C656 C658 1.419 . S
C656 H660 0.930 . S
C657 C656 1.369 . S
C657 C666 1.429 . S
C658 C656 1.419 . S
C658 C659 1.363 . S
C658 H661 0.929 . S
C659 C658 1.363 . S
C659 C665 1.428 . S
H660 C656 0.930 . S
H661 C658 0.929 . S
S662 N663 1.613 . S
S662 N664 1.610 . S
N663 S662 1.613 . S
N663 C666 1.350 . S
N664 S662 1.610 . S
N664 C665 1.351 . S
C665 C659 1.428 . S
C665 N664 1.351 . S
C665 C666 1.434 . S
C666 C657 1.429 . S
C666 N663 1.350 . S
C666 C665 1.434 . S
C667 C668 1.369 . S
C667 C669 1.419 . S
C667 H671 0.930 . S
C668 C667 1.369 . S
C668 C677 1.429 . S
C669 C667 1.419 . S
C669 C670 1.363 . S
C669 H672 0.929 . S
C670 C669 1.363 . S
C670 C676 1.428 . S
H671 C667 0.930 . S
H672 C669 0.929 . S
S673 N674 1.613 . S
S673 N675 1.610 . S
N674 S673 1.613 . S
N674 C677 1.350 . S
N675 S673 1.610 . S
N675 C676 1.351 . S
C676 C670 1.428 . S
C676 N675 1.351 . S
C676 C677 1.434 . S
C677 C668 1.429 . S
C677 N674 1.350 . S
C677 C676 1.434 . S
C678 C679 1.369 . S
C678 C680 1.419 . S
C678 H682 0.930 . S
C679 C678 1.369 . S
C679 C688 1.429 . S
C680 C678 1.419 . S
C680 C681 1.363 . S
C680 H683 0.929 . S
C681 C680 1.363 . S
C681 C687 1.428 . S
H682 C678 0.930 . S
H683 C680 0.929 . S
S684 N685 1.613 . S
S684 N686 1.610 . S
N685 S684 1.613 . S
N685 C688 1.350 . S
N686 S684 1.610 . S
N686 C687 1.351 . S
C687 C681 1.428 . S
C687 N686 1.351 . S
C687 C688 1.434 . S
C688 C679 1.429 . S
C688 N685 1.350 . S
C688 C687 1.434 . S
C689 C690 1.369 . S
C689 C691 1.419 . S
C689 H693 0.930 . S
C690 C689 1.369 . S
C690 C699 1.429 . S
C691 C689 1.419 . S
C691 C692 1.363 . S
C691 H694 0.929 . S
C692 C691 1.363 . S
C692 C698 1.428 . S
H693 C689 0.930 . S
H694 C691 0.929 . S
S695 N696 1.613 . S
S695 N697 1.610 . S
N696 S695 1.613 . S
N696 C699 1.350 . S
N697 S695 1.610 . S
N697 C698 1.351 . S
C698 C692 1.428 . S
C698 N697 1.351 . S
C698 C699 1.434 . S
C699 C690 1.429 . S
C699 N696 1.350 . S
C699 C698 1.434 . S
C700 C701 1.369 . S
C700 C702 1.419 . S
C700 H704 0.930 . S
C701 C700 1.369 . S
C701 C710 1.429 . S
C702 C700 1.419 . S
C702 C703 1.363 . S
C702 H705 0.929 . S
C703 C702 1.363 . S
C703 C709 1.428 . S
H704 C700 0.930 . S
H705 C702 0.929 . S
S706 N707 1.613 . S
S706 N708 1.610 . S
N707 S706 1.613 . S
N707 C710 1.350 . S
N708 S706 1.610 . S
N708 C709 1.351 . S
C709 C703 1.428 . S
C709 N708 1.351 . S
C709 C710 1.434 . S
C710 C701 1.429 . S
C710 N707 1.350 . S
C710 C709 1.434 . S
C711 C712 1.369 . S
C711 C713 1.419 . S
C711 H715 0.930 . S
C712 C711 1.369 . S
C712 C721 1.429 . S
C713 C711 1.419 . S
C713 C714 1.363 . S
C713 H716 0.929 . S
C714 C713 1.363 . S
C714 C720 1.428 . S
H715 C711 0.930 . S
H716 C713 0.929 . S
S717 N718 1.613 . S
S717 N719 1.610 . S
N718 S717 1.613 . S
N718 C721 1.350 . S
N719 S717 1.610 . S
N719 C720 1.351 . S
C720 C714 1.428 . S
C720 N719 1.351 . S
C720 C721 1.434 . S
C721 C712 1.429 . S
C721 N718 1.350 . S
C721 C720 1.434 . S
C722 C723 1.369 . S
C722 C724 1.419 . S
C722 H726 0.930 . S
C723 C722 1.369 . S
C723 C732 1.429 . S
C724 C722 1.419 . S
C724 C725 1.363 . S
C724 H727 0.929 . S
C725 C724 1.363 . S
C725 C731 1.428 . S
H726 C722 0.930 . S
H727 C724 0.929 . S
S728 N729 1.613 . S
S728 N730 1.610 . S
N729 S728 1.613 . S
N729 C732 1.350 . S
N730 S728 1.610 . S
N730 C731 1.351 . S
C731 C725 1.428 . S
C731 N730 1.351 . S
C731 C732 1.434 . S
C732 C723 1.429 . S
C732 N729 1.350 . S
C732 C731 1.434 . S
C733 C734 1.369 . S
C733 C735 1.419 . S
C733 H737 0.930 . S
C734 C733 1.369 . S
C734 C743 1.429 . S
C735 C733 1.419 . S
C735 C736 1.363 . S
C735 H738 0.929 . S
C736 C735 1.363 . S
C736 C742 1.428 . S
H737 C733 0.930 . S
H738 C735 0.929 . S
S739 N740 1.613 . S
S739 N741 1.610 . S
N740 S739 1.613 . S
N740 C743 1.350 . S
N741 S739 1.610 . S
N741 C742 1.351 . S
C742 C736 1.428 . S
C742 N741 1.351 . S
C742 C743 1.434 . S
C743 C734 1.429 . S
C743 N740 1.350 . S
C743 C742 1.434 . S
C744 C745 1.369 . S
C744 C746 1.419 . S
C744 H748 0.930 . S
C745 C744 1.369 . S
C745 C754 1.429 . S
C746 C744 1.419 . S
C746 C747 1.363 . S
C746 H749 0.929 . S
C747 C746 1.363 . S
C747 C753 1.428 . S
H748 C744 0.930 . S
H749 C746 0.929 . S
S750 N751 1.613 . S
S750 N752 1.610 . S
N751 S750 1.613 . S
N751 C754 1.350 . S
N752 S750 1.610 . S
N752 C753 1.351 . S
C753 C747 1.428 . S
C753 N752 1.351 . S
C753 C754 1.434 . S
C754 C745 1.429 . S
C754 N751 1.350 . S
C754 C753 1.434 . S
C755 C756 1.369 . S
C755 C757 1.419 . S
C755 H759 0.930 . S
C756 C755 1.369 . S
C756 C765 1.429 . S
C757 C755 1.419 . S
C757 C758 1.363 . S
C757 H760 0.929 . S
C758 C757 1.363 . S
C758 C764 1.428 . S
H759 C755 0.930 . S
H760 C757 0.929 . S
S761 N762 1.613 . S
S761 N763 1.610 . S
N762 S761 1.613 . S
N762 C765 1.350 . S
N763 S761 1.610 . S
N763 C764 1.351 . S
C764 C758 1.428 . S
C764 N763 1.351 . S
C764 C765 1.434 . S
C765 C756 1.429 . S
C765 N762 1.350 . S
C765 C764 1.434 . S
C766 C767 1.369 . S
C766 C768 1.419 . S
C766 H770 0.930 . S
C767 C766 1.369 . S
C767 C776 1.429 . S
C768 C766 1.419 . S
C768 C769 1.363 . S
C768 H771 0.929 . S
C769 C768 1.363 . S
C769 C775 1.428 . S
H770 C766 0.930 . S
H771 C768 0.929 . S
S772 N773 1.613 . S
S772 N774 1.610 . S
N773 S772 1.613 . S
N773 C776 1.350 . S
N774 S772 1.610 . S
N774 C775 1.351 . S
C775 C769 1.428 . S
C775 N774 1.351 . S
C775 C776 1.434 . S
C776 C767 1.429 . S
C776 N773 1.350 . S
C776 C775 1.434 . S
C777 C778 1.369 . S
C777 C779 1.419 . S
C777 H781 0.930 . S
C778 C777 1.369 . S
C778 C787 1.429 . S
C779 C777 1.419 . S
C779 C780 1.363 . S
C779 H782 0.929 . S
C780 C779 1.363 . S
C780 C786 1.428 . S
H781 C777 0.930 . S
H782 C779 0.929 . S
S783 N784 1.613 . S
S783 N785 1.610 . S
N784 S783 1.613 . S
N784 C787 1.350 . S
N785 S783 1.610 . S
N785 C786 1.351 . S
C786 C780 1.428 . S
C786 N785 1.351 . S
C786 C787 1.434 . S
C787 C778 1.429 . S
C787 N784 1.350 . S
C787 C786 1.434 . S
C788 C789 1.369 . S
C788 C790 1.419 . S
C788 H792 0.930 . S
C789 C788 1.369 . S
C789 C798 1.429 . S
C790 C788 1.419 . S
C790 C791 1.363 . S
C790 H793 0.929 . S
C791 C790 1.363 . S
C791 C797 1.428 . S
H792 C788 0.930 . S
H793 C790 0.929 . S
S794 N795 1.613 . S
S794 N796 1.610 . S
N795 S794 1.613 . S
N795 C798 1.350 . S
N796 S794 1.610 . S
N796 C797 1.351 . S
C797 C791 1.428 . S
C797 N796 1.351 . S
C797 C798 1.434 . S
C798 C789 1.429 . S
C798 N795 1.350 . S
C798 C797 1.434 . S
C799 C800 1.369 . S
C799 C801 1.419 . S
C799 H803 0.930 . S
C800 C799 1.369 . S
C800 C809 1.429 . S
C801 C799 1.419 . S
C801 C802 1.363 . S
C801 H804 0.929 . S
C802 C801 1.363 . S
C802 C808 1.428 . S
H803 C799 0.930 . S
H804 C801 0.929 . S
S805 N806 1.613 . S
S805 N807 1.610 . S
N806 S805 1.613 . S
N806 C809 1.350 . S
N807 S805 1.610 . S
N807 C808 1.351 . S
C808 C802 1.428 . S
C808 N807 1.351 . S
C808 C809 1.434 . S
C809 C800 1.429 . S
C809 N806 1.350 . S
C809 C808 1.434 . S
C810 C811 1.369 . S
C810 C812 1.419 . S
C810 H814 0.930 . S
C811 C810 1.369 . S
C811 C820 1.429 1_556 S
C812 C810 1.419 . S
C812 C813 1.363 1_556 S
C812 H815 0.929 . S
C813 C812 1.363 1_554 S
C813 C819 1.428 . S
H814 C810 0.930 . S
H815 C812 0.929 . S
S816 N817 1.613 . S
S816 N818 1.610 . S
N817 S816 1.613 . S
N817 C820 1.350 . S
N818 S816 1.610 . S
N818 C819 1.351 . S
C819 C813 1.428 . S
C819 N818 1.351 . S
C819 C820 1.434 . S
C820 C811 1.429 1_554 S
C820 N817 1.350 . S
C820 C819 1.434 . S
C821 C822 1.369 . S
C821 C823 1.419 1_455 S
C821 H825 0.930 . S
C822 C821 1.369 . S
C822 C831 1.429 . S
C823 C821 1.419 1_655 S
C823 C824 1.363 . S
C823 H826 0.929 . S
C824 C823 1.363 . S
C824 C830 1.428 . S
H825 C821 0.930 . S
H826 C823 0.929 . S
S827 N828 1.613 1_655 S
S827 N829 1.610 . S
N828 S827 1.613 1_455 S
N828 C831 1.350 . S
N829 S827 1.610 . S
N829 C830 1.351 . S
C830 C824 1.428 . S
C830 N829 1.351 . S
C830 C831 1.434 1_655 S
C831 C822 1.429 . S
C831 N828 1.350 . S
C831 C830 1.434 1_455 S
C832 C833 1.369 . S
C832 C834 1.419 1_565 S
C832 H836 0.930 . S
C833 C832 1.369 . S
C833 C842 1.429 1_554 S
C834 C832 1.419 1_545 S
C834 C835 1.363 1_554 S
C834 H837 0.929 . S
C835 C834 1.363 1_556 S
C835 C841 1.428 . S
H836 C832 0.930 . S
H837 C834 0.929 . S
S838 N839 1.613 . S
S838 N840 1.610 1_565 S
N839 S838 1.613 . S
N839 C842 1.350 . S
N840 S838 1.610 1_545 S
N840 C841 1.351 . S
C841 C835 1.428 . S
C841 N840 1.351 . S
C841 C842 1.434 1_545 S
C842 C833 1.429 1_556 S
C842 N839 1.350 . S
C842 C841 1.434 1_565 S
C843 C844 1.369 . S
C843 C845 1.419 . S
C843 H847 0.930 . S
C844 C843 1.369 . S
C844 C853 1.429 . S
C845 C843 1.419 . S
C845 C846 1.363 . S
C845 H848 0.929 . S
C846 C845 1.363 . S
C846 C852 1.428 . S
H847 C843 0.930 . S
H848 C845 0.929 . S
S849 N850 1.613 . S
S849 N851 1.610 . S
N850 S849 1.613 . S
N850 C853 1.350 . S
N851 S849 1.610 . S
N851 C852 1.351 . S
C852 C846 1.428 . S
C852 N851 1.351 . S
C852 C853 1.434 . S
C853 C844 1.429 . S
C853 N850 1.350 . S
C853 C852 1.434 . S
C854 C855 1.369 . S
C854 C856 1.419 1_655 S
C854 H858 0.930 . S
C855 C854 1.369 . S
C855 C864 1.429 1_556 S
C856 C854 1.419 1_455 S
C856 C857 1.363 1_556 S
C856 H859 0.929 . S
C857 C856 1.363 1_554 S
C857 C863 1.428 . S
H858 C854 0.930 . S
H859 C856 0.929 . S
S860 N861 1.613 . S
S860 N862 1.610 1_655 S
N861 S860 1.613 . S
N861 C864 1.350 . S
N862 S860 1.610 1_455 S
N862 C863 1.351 . S
C863 C857 1.428 . S
C863 N862 1.351 . S
C863 C864 1.434 1_455 S
C864 C855 1.429 1_554 S
C864 N861 1.350 . S
C864 C863 1.434 1_655 S
C865 C866 1.369 . S
C865 C867 1.419 1_565 S
C865 H869 0.930 . S
C866 C865 1.369 . S
C866 C875 1.429 . S
C867 C865 1.419 1_545 S
C867 C868 1.363 . S
C867 H870 0.929 . S
C868 C867 1.363 . S
C868 C874 1.428 . S
H869 C865 0.930 . S
H870 C867 0.929 . S
S871 N872 1.613 1_545 S
S871 N873 1.610 . S
N872 S871 1.613 1_565 S
N872 C875 1.350 . S
N873 S871 1.610 . S
N873 C874 1.351 . S
C874 C868 1.428 . S
C874 N873 1.351 . S
C874 C875 1.434 1_545 S
C875 C866 1.429 . S
C875 N872 1.350 . S
C875 C874 1.434 1_565 S
C481 C180 1.369 . S
C483 C4 1.394 . S
C492 C220 1.381 . S
C494 C44 1.385 . S
C503 C84 1.386 . S
C505 C20 1.378 . S
C514 C124 1.385 . S
C516 C60 1.378 . S
C525 C164 1.392 . S
C527 C100 1.374 . S
C536 C140 1.380 . S
C538 C204 1.386 . S
C547 C340 1.378 . S
C549 C244 1.388 . S
C558 C284 1.389 . S
C560 C380 1.376 . S
C569 C420 1.378 . S
C571 C324 1.388 . S
C580 C364 1.385 . S
C582 C460 1.380 . S
C591 C404 1.394 . S
C593 C260 1.372 . S
C602 C300 1.369 . S
C604 C444 1.394 . S
C613 C191 1.659 . S
C615 C25 1.661 . S
C624 C65 1.661 . S
C626 C231 1.659 . S
C635 C105 1.659 . S
C637 C31 1.660 . S
C646 C145 1.661 . S
C648 C71 1.659 . S
C657 C111 1.661 . S
C659 C185 1.660 . S
C668 C151 1.653 . S
C670 C225 1.666 . S
C679 C351 1.661 . S
C681 C265 1.661 . S
C690 C305 1.660 . S
C692 C391 1.659 . S
C701 C345 1.660 . S
C703 C431 1.660 . S
C712 C471 1.661 . S
C714 C385 1.660 . S
C723 C425 1.664 . S
C725 C271 1.656 . S
C734 C311 1.661 . S
C736 C465 1.660 . S
C745 C402 1.638 . S
C747 C2 1.641 . S
C756 C42 1.647 . S
C758 C442 1.639 . S
C767 C82 1.644 . S
C769 C242 1.638 . S
C778 C122 1.637 . S
C780 C282 1.645 . S
C789 C162 1.642 . S
C791 C322 1.646 . S
C800 C362 1.647 . S
C802 C202 1.639 . S
C811 C383 2.407 . S
C813 C23 2.403 . S
C822 C423 2.404 . S
C824 C63 2.404 . S
C833 C103 2.406 . S
C835 C463 2.403 . S
C844 C143 2.404 . S
C846 C263 2.405 . S
C855 C303 2.406 . S
C857 C183 2.403 . S
C866 C343 2.404 . S
C868 C223 2.406 . S
